CHEMBL211378


 31 34  0  0  0  0  0  0  0  0999 V2000
  -25.6694   -0.9121  -12.5744 C   0  0  0  0  0  0  0  0  0  0  0  0
  -25.3528   -1.3029  -13.8818 C   0  0  0  0  0  0  0  0  0  0  0  0
  -24.1693   -0.8691  -14.4951 C   0  0  0  0  0  0  0  0  0  0  0  0
  -23.2822   -0.0330  -13.8078 C   0  0  0  0  0  0  0  0  0  0  0  0
  -23.6707    0.4443  -12.5461 C   0  0  0  0  0  0  0  0  0  0  0  0
  -24.8352   -0.0147  -11.9168 C   0  0  0  0  0  0  0  0  0  0  0  0
  -21.9546    0.2656  -14.3591 C   0  0  0  0  0  0  0  0  0  0  0  0
  -21.1313   -0.7256  -14.7497 N   0  0  0  0  0  0  0  0  0  0  0  0
  -19.9679   -0.1172  -15.1759 O   0  0  0  0  0  0  0  0  0  0  0  0
  -20.0701    1.2303  -15.0407 C   0  0  0  0  0  0  0  0  0  0  0  0
  -19.0913    2.0895  -15.3683 N   0  0  0  0  0  0  0  0  0  0  0  0
  -19.4565    3.3558  -15.1261 C   0  0  0  0  0  0  0  0  0  0  0  0
  -20.6152    3.7892  -14.6039 N   0  0  0  0  0  0  0  0  0  0  0  0
  -21.5614    2.8891  -14.2716 C   0  0  0  0  0  0  0  0  0  0  0  0
  -22.7152    3.4060  -13.7037 N   0  0  0  0  0  0  0  0  0  0  0  0
  -21.3111    1.5332  -14.5108 C   0  0  0  0  0  0  0  0  0  0  0  0
  -22.5858    4.3778  -13.4420 H   0  0  0  0  0  0  0  0  0  0  0  0
  -23.1330    2.8254  -12.9874 H   0  0  0  0  0  0  0  0  0  0  0  0
  -27.8609   -2.2264   -9.9874 N   0  0  0  0  0  0  0  0  0  0  0  0
  -26.6864   -1.7095  -10.5274 C   0  0  0  0  0  0  0  0  0  0  0  0
  -25.6591   -1.4609   -9.9029 O   0  0  0  0  0  0  0  0  0  0  0  0
  -26.7941   -1.4504  -11.8910 N   0  0  0  0  0  0  0  0  0  0  0  0
  -28.5912   -2.4863  -10.6200 H   0  0  0  0  0  0  0  0  0  0  0  0
  -27.6965   -1.0952  -12.1730 H   0  0  0  0  0  0  0  0  0  0  0  0
  -27.5682   -0.8102   -5.2092 C   0  0  0  0  0  0  0  0  0  0  0  0
  -27.9088   -1.8304   -6.2579 C   0  0  0  0  0  0  0  0  0  0  0  0
  -28.4256   -3.0662   -5.8574 C   0  0  0  0  0  0  0  0  0  0  0  0
  -28.7546   -4.0225   -6.8058 C   0  0  0  0  0  0  0  0  0  0  0  0
  -28.5706   -3.7549   -8.1602 C   0  0  0  0  0  0  0  0  0  0  0  0
  -28.0582   -2.5299   -8.6040 C   0  0  0  0  0  0  0  0  0  0  0  0
  -27.7266   -1.5669   -7.6343 C   0  0  0  0  0  0  0  0  0  0  0  0
 25 26  1  0  0  0
 26 27  1  0  0  0
 26 31  2  0  0  0
 27 28  2  0  0  0
 28 29  1  0  0  0
 29 30  2  0  0  0
 30 19  1  0  0  0
 30 31  1  0  0  0
 19 20  1  0  0  0
 19 23  1  0  0  0
 20 21  2  0  0  0
 20 22  1  0  0  0
 22  1  1  0  0  0
 22 24  1  0  0  0
  1  2  1  0  0  0
  1  6  2  0  0  0
  2  3  2  0  0  0
  3  4  1  0  0  0
  4  7  1  0  0  0
  4  5  2  0  0  0
  7  8  2  0  0  0
  7 16  1  0  0  0
  8  9  1  0  0  0
  9 10  1  0  0  0
 10 11  1  0  0  0
 10 16  2  0  0  0
 11 12  2  0  0  0
 12 13  1  0  0  0
 13 14  2  0  0  0
 14 15  1  0  0  0
 14 16  1  0  0  0
 15 17  1  0  0  0
 15 18  1  0  0  0
  5  6  1  0  0  0
M  END
> <minimizedAffinity>
-10.96391

$$$$
