CHEMBL1088796


 31 35  0  0  0  0  0  0  0  0999 V2000
  -15.1945   -1.3047  -13.5994 C   0  0  0  0  0  0  0  0  0  0  0  0
  -14.6048   -2.4069  -14.2323 C   0  0  0  0  0  0  0  0  0  0  0  0
  -14.3957   -3.6168  -13.5619 C   0  0  0  0  0  0  0  0  0  0  0  0
  -14.7672   -3.8020  -12.2090 C   0  0  0  0  0  0  0  0  0  0  0  0
  -14.6356   -5.0028  -11.4620 C   0  0  0  0  0  0  0  0  0  0  0  0
  -14.9549   -5.0438  -10.1429 N   0  0  0  0  0  0  0  0  0  0  0  0
  -15.4002   -3.9307   -9.4954 N   0  0  0  0  0  0  0  0  0  0  0  0
  -15.5725   -2.7943  -10.1923 C   0  0  0  0  0  0  0  0  0  0  0  0
  -15.3003   -2.6831  -11.5498 C   0  0  0  0  0  0  0  0  0  0  0  0
  -15.5440   -1.4808  -12.2518 C   0  0  0  0  0  0  0  0  0  0  0  0
  -12.9698    0.3488  -14.9885 C   0  0  0  0  0  0  0  0  0  0  0  0
  -14.4301    0.7305  -14.9832 C   0  0  0  0  0  0  0  0  0  0  0  0
  -14.7775    1.9120  -15.6728 C   0  0  0  0  0  0  0  0  0  0  0  0
  -16.1064    2.3210  -15.7985 C   0  0  0  0  0  0  0  0  0  0  0  0
  -17.1106    1.5637  -15.2068 C   0  0  0  0  0  0  0  0  0  0  0  0
  -16.7709    0.4118  -14.4861 C   0  0  0  0  0  0  0  0  0  0  0  0
  -15.4372   -0.0406  -14.3512 C   0  0  0  0  0  0  0  0  0  0  0  0
  -18.5551    1.8965  -15.3494 C   0  0  0  0  0  0  0  0  0  0  0  0
  -18.8889    2.9707  -15.8343 O   0  0  0  0  0  0  0  0  0  0  0  0
  -19.4481    0.9251  -14.9388 N   0  0  0  0  0  0  0  0  0  0  0  0
  -19.1066    0.0023  -14.7057 H   0  0  0  0  0  0  0  0  0  0  0  0
  -20.8593    1.1045  -15.0686 C   0  0  0  0  0  0  0  0  0  0  0  0
  -21.6599    1.6948  -13.9416 C   0  0  0  0  0  0  0  0  0  0  0  0
  -21.8151    0.2443  -14.2902 C   0  0  0  0  0  0  0  0  0  0  0  0
  -14.1522   -6.2832  -12.0226 C   0  0  0  0  0  0  0  0  0  0  0  0
  -12.8764   -6.7981  -11.7122 C   0  0  0  0  0  0  0  0  0  0  0  0
  -12.4922   -8.0862  -12.0959 C   0  0  0  0  0  0  0  0  0  0  0  0
  -13.3410   -8.8581  -12.8808 C   0  0  0  0  0  0  0  0  0  0  0  0
  -14.5603   -8.3308  -13.2961 C   0  0  0  0  0  0  0  0  0  0  0  0
  -14.9581   -7.0643  -12.8643 C   0  0  0  0  0  0  0  0  0  0  0  0
  -16.1656   -6.6294  -13.2564 F   0  0  0  0  0  0  0  0  0  0  0  0
 11 12  1  0  0  0
 12 13  1  0  0  0
 12 17  2  0  0  0
 13 14  2  0  0  0
 14 15  1  0  0  0
 15 18  1  0  0  0
 15 16  2  0  0  0
 18 19  2  0  0  0
 18 20  1  0  0  0
 20 22  1  0  0  0
 20 21  1  0  0  0
 22 23  1  0  0  0
 22 24  1  0  0  0
 23 24  1  0  0  0
 16 17  1  0  0  0
 17  1  1  0  0  0
  1  2  1  0  0  0
  1 10  2  0  0  0
  2  3  2  0  0  0
  3  4  1  0  0  0
  4  5  1  0  0  0
  4  9  2  0  0  0
  5 25  1  0  0  0
  5  6  2  0  0  0
 25 26  1  0  0  0
 25 30  2  0  0  0
 26 27  2  0  0  0
 27 28  1  0  0  0
 28 29  2  0  0  0
 29 30  1  0  0  0
 30 31  1  0  0  0
  6  7  1  0  0  0
  7  8  2  0  0  0
  8  9  1  0  0  0
  9 10  1  0  0  0
M  END
> <minimizedAffinity>
-9.92793

$$$$
