CHEMBL3128232


 38 42  0  0  0  0  0  0  0  0999 V2000
  -22.7313   -0.5516  -12.6493 C   0  0  0  0  0  0  0  0  0  0  0  0
  -26.0816   -2.0382  -11.4817 C   0  0  0  0  0  0  0  0  0  0  0  0
  -26.7800   -2.0503  -12.6922 C   0  0  0  0  0  0  0  0  0  0  0  0
  -26.1719   -1.6440  -13.8784 C   0  0  0  0  0  0  0  0  0  0  0  0
  -24.8558   -1.1906  -13.8690 C   0  0  0  0  0  0  0  0  0  0  0  0
  -24.1459   -1.1015  -12.6619 C   0  0  0  0  0  0  0  0  0  0  0  0
  -24.7677   -1.5411  -11.4729 C   0  0  0  0  0  0  0  0  0  0  0  0
  -27.6572   -1.8369   -9.5608 C   0  0  0  0  0  0  0  0  0  0  0  0
  -28.2360   -0.8148   -9.9193 O   0  0  0  0  0  0  0  0  0  0  0  0
  -26.6548   -2.4926  -10.2648 N   0  0  0  0  0  0  0  0  0  0  0  0
  -26.3165   -3.3779   -9.9159 H   0  0  0  0  0  0  0  0  0  0  0  0
  -28.8852   -3.3229   -5.7118 C   0  0  0  0  0  0  0  0  0  0  0  0
  -29.1137   -4.1035   -6.8480 C   0  0  0  0  0  0  0  0  0  0  0  0
  -28.7154   -3.6530   -8.1183 C   0  0  0  0  0  0  0  0  0  0  0  0
  -28.0778   -2.4162   -8.2532 C   0  0  0  0  0  0  0  0  0  0  0  0
  -27.8582   -1.6342   -7.1093 C   0  0  0  0  0  0  0  0  0  0  0  0
  -28.2513   -2.0890   -5.8502 C   0  0  0  0  0  0  0  0  0  0  0  0
  -28.7693   -2.7766   -3.3986 C   0  0  0  0  0  0  0  0  0  0  0  0
  -29.2361   -3.6367   -4.4287 O   0  0  0  0  0  0  0  0  0  0  0  0
  -22.2992   -0.2838  -14.0094 N   0  0  0  0  0  0  0  0  0  0  0  0
  -22.9810   -0.5546  -14.7109 H   0  0  0  0  0  0  0  0  0  0  0  0
  -21.7568    0.9779  -14.2542 C   0  0  0  0  0  0  0  0  0  0  0  0
  -22.4607    2.1108  -13.9850 N   0  0  0  0  0  0  0  0  0  0  0  0
  -21.8739    3.3072  -14.1882 C   0  0  0  0  0  0  0  0  0  0  0  0
  -20.6374    3.5563  -14.6482 N   0  0  0  0  0  0  0  0  0  0  0  0
  -19.9591    2.4239  -14.9020 C   0  0  0  0  0  0  0  0  0  0  0  0
  -20.4486    1.1373  -14.7421 C   0  0  0  0  0  0  0  0  0  0  0  0
  -19.3839    0.3109  -15.1491 C   0  0  0  0  0  0  0  0  0  0  0  0
  -18.3037    0.9915  -15.5334 N   0  0  0  0  0  0  0  0  0  0  0  0
  -18.6635    2.2898  -15.3454 N   0  0  0  0  0  0  0  0  0  0  0  0
  -17.6783    3.3220  -15.6415 C   0  0  0  0  0  0  0  0  0  0  0  0
  -16.2341    2.8270  -15.6949 C   0  0  0  0  0  0  0  0  0  0  0  0
  -15.3987    3.3539  -16.8387 C   0  0  0  0  0  0  0  0  0  0  0  0
  -14.5213    2.4837  -17.5059 C   0  0  0  0  0  0  0  0  0  0  0  0
  -13.8357    2.8967  -18.6477 C   0  0  0  0  0  0  0  0  0  0  0  0
  -14.0131    4.1885  -19.1343 C   0  0  0  0  0  0  0  0  0  0  0  0
  -14.8621    5.0713  -18.4679 C   0  0  0  0  0  0  0  0  0  0  0  0
  -15.5519    4.6589  -17.3234 C   0  0  0  0  0  0  0  0  0  0  0  0
 18 19  1  0  0  0
 19 12  1  0  0  0
 12 13  1  0  0  0
 12 17  2  0  0  0
 13 14  2  0  0  0
 14 15  1  0  0  0
 15  8  1  0  0  0
 15 16  2  0  0  0
  8  9  2  0  0  0
  8 10  1  0  0  0
 10  2  1  0  0  0
 10 11  1  0  0  0
  2  3  1  0  0  0
  2  7  2  0  0  0
  3  4  2  0  0  0
  4  5  1  0  0  0
  5  6  2  0  0  0
  6  1  1  0  0  0
  6  7  1  0  0  0
  1 20  1  0  0  0
 20 22  1  0  0  0
 20 21  1  0  0  0
 22 23  1  0  0  0
 22 27  2  0  0  0
 23 24  2  0  0  0
 24 25  1  0  0  0
 25 26  2  0  0  0
 26 27  1  0  0  0
 26 30  1  0  0  0
 27 28  1  0  0  0
 28 29  2  0  0  0
 29 30  1  0  0  0
 30 31  1  0  0  0
 31 32  1  0  0  0
 32 33  1  0  0  0
 33 34  1  0  0  0
 33 38  2  0  0  0
 34 35  2  0  0  0
 35 36  1  0  0  0
 36 37  2  0  0  0
 37 38  1  0  0  0
 16 17  1  0  0  0
M  END
> <minimizedAffinity>
-10.82727

$$$$
