CHEMBL512124


 31 35  0  0  0  0  0  0  0  0999 V2000
  -14.8550    0.6502  -14.3120 C   0  0  0  0  0  0  0  0  0  0  0  0
  -13.4695    0.8934  -14.4402 C   0  0  0  0  0  0  0  0  0  0  0  0
  -12.9434    1.4415  -15.6016 C   0  0  0  0  0  0  0  0  0  0  0  0
  -13.8038    1.7845  -16.6311 C   0  0  0  0  0  0  0  0  0  0  0  0
  -15.1873    1.6467  -16.4641 C   0  0  0  0  0  0  0  0  0  0  0  0
  -15.7635    1.1272  -15.2835 C   0  0  0  0  0  0  0  0  0  0  0  0
  -15.6043    0.0696  -12.1395 O   0  0  0  0  0  0  0  0  0  0  0  0
  -15.1938   -0.3212  -13.2312 C   0  0  0  0  0  0  0  0  0  0  0  0
  -14.9901   -1.7522  -13.5699 C   0  0  0  0  0  0  0  0  0  0  0  0
  -14.3495   -2.1334  -14.6971 N   0  0  0  0  0  0  0  0  0  0  0  0
  -14.5244   -3.4562  -14.7521 N   0  0  0  0  0  0  0  0  0  0  0  0
  -15.2993   -3.9526  -13.7466 C   0  0  0  0  0  0  0  0  0  0  0  0
  -15.8757   -5.2091  -13.5592 C   0  0  0  0  0  0  0  0  0  0  0  0
  -16.5574   -5.4132  -12.3582 C   0  0  0  0  0  0  0  0  0  0  0  0
  -16.5915   -4.4261  -11.3718 C   0  0  0  0  0  0  0  0  0  0  0  0
  -16.0491   -3.1552  -11.6062 C   0  0  0  0  0  0  0  0  0  0  0  0
  -15.4503   -2.8976  -12.8527 C   0  0  0  0  0  0  0  0  0  0  0  0
  -14.1083   -3.9635  -15.5249 H   0  0  0  0  0  0  0  0  0  0  0  0
  -17.1692    1.0227  -15.2785 N   0  0  0  0  0  0  0  0  0  0  0  0
  -17.4751    0.1671  -15.7429 H   0  0  0  0  0  0  0  0  0  0  0  0
  -17.9578    2.1620  -15.7753 C   0  0  0  0  0  0  0  0  0  0  0  0
  -19.3899    2.0639  -15.2536 C   0  0  0  0  0  0  0  0  0  0  0  0
  -20.1052    3.2223  -14.9041 C   0  0  0  0  0  0  0  0  0  0  0  0
  -21.3827    3.1491  -14.3240 C   0  0  0  0  0  0  0  0  0  0  0  0
  -21.9577    1.8875  -14.1115 C   0  0  0  0  0  0  0  0  0  0  0  0
  -23.1447    1.3854  -13.5303 C   0  0  0  0  0  0  0  0  0  0  0  0
  -23.2330    0.0546  -13.5966 N   0  0  0  0  0  0  0  0  0  0  0  0
  -22.0925   -0.2991  -14.2177 N   0  0  0  0  0  0  0  0  0  0  0  0
  -21.2677    0.7516  -14.5215 C   0  0  0  0  0  0  0  0  0  0  0  0
  -19.9931    0.8014  -15.1007 C   0  0  0  0  0  0  0  0  0  0  0  0
  -21.9278   -1.2833  -14.3944 H   0  0  0  0  0  0  0  0  0  0  0  0
  7  8  2  0  0  0
  8  1  1  0  0  0
  8  9  1  0  0  0
  1  2  1  0  0  0
  1  6  2  0  0  0
  2  3  2  0  0  0
  3  4  1  0  0  0
  4  5  2  0  0  0
  5  6  1  0  0  0
  6 19  1  0  0  0
 19 21  1  0  0  0
 19 20  1  0  0  0
 21 22  1  0  0  0
 22 23  1  0  0  0
 22 30  2  0  0  0
 23 24  2  0  0  0
 24 25  1  0  0  0
 25 26  1  0  0  0
 25 29  2  0  0  0
 26 27  2  0  0  0
 27 28  1  0  0  0
 28 29  1  0  0  0
 28 31  1  0  0  0
 29 30  1  0  0  0
  9 10  2  0  0  0
  9 17  1  0  0  0
 10 11  1  0  0  0
 11 12  1  0  0  0
 11 18  1  0  0  0
 12 13  1  0  0  0
 12 17  2  0  0  0
 13 14  2  0  0  0
 14 15  1  0  0  0
 15 16  2  0  0  0
 16 17  1  0  0  0
M  END
> <minimizedAffinity>
-9.77426

$$$$
