CHEMBL304760


 25 28  0  0  0  0  0  0  0  0999 V2000
  -21.5797    1.6522  -14.3027 C   0  0  0  0  0  0  0  0  0  0  0  0
  -20.7152    0.6667  -14.7826 C   0  0  0  0  0  0  0  0  0  0  0  0
  -19.4457    1.0112  -15.2718 C   0  0  0  0  0  0  0  0  0  0  0  0
  -19.0294    2.3428  -15.3104 C   0  0  0  0  0  0  0  0  0  0  0  0
  -19.9493    3.3271  -14.9073 C   0  0  0  0  0  0  0  0  0  0  0  0
  -21.2063    2.9889  -14.4018 C   0  0  0  0  0  0  0  0  0  0  0  0
  -17.8226    2.7804  -15.8854 N   0  0  0  0  0  0  0  0  0  0  0  0
  -17.8948    3.7436  -16.1952 H   0  0  0  0  0  0  0  0  0  0  0  0
  -16.4612    2.4889  -15.6065 C   0  0  0  0  0  0  0  0  0  0  0  0
  -16.1354    1.4999  -14.7612 N   0  0  0  0  0  0  0  0  0  0  0  0
  -14.8257    1.3267  -14.5268 C   0  0  0  0  0  0  0  0  0  0  0  0
  -13.8205    2.0273  -15.0617 N   0  0  0  0  0  0  0  0  0  0  0  0
  -14.1538    2.9971  -15.9172 C   0  0  0  0  0  0  0  0  0  0  0  0
  -13.1452    3.7525  -16.5092 C   0  0  0  0  0  0  0  0  0  0  0  0
  -13.4207    4.7854  -17.4100 C   0  0  0  0  0  0  0  0  0  0  0  0
  -14.7353    5.0720  -17.7455 C   0  0  0  0  0  0  0  0  0  0  0  0
  -15.7614    4.3238  -17.1744 C   0  0  0  0  0  0  0  0  0  0  0  0
  -15.4830    3.2850  -16.2456 C   0  0  0  0  0  0  0  0  0  0  0  0
  -22.8404    1.4220  -13.8034 O   0  0  0  0  0  0  0  0  0  0  0  0
  -23.9727   -2.3466  -12.4287 C   0  0  0  0  0  0  0  0  0  0  0  0
  -23.0574   -1.6103  -11.6779 C   0  0  0  0  0  0  0  0  0  0  0  0
  -22.6792   -0.3323  -12.0922 C   0  0  0  0  0  0  0  0  0  0  0  0
  -23.1722    0.1892  -13.2912 C   0  0  0  0  0  0  0  0  0  0  0  0
  -24.1211   -0.5343  -14.0181 C   0  0  0  0  0  0  0  0  0  0  0  0
  -24.5205   -1.8009  -13.5887 C   0  0  0  0  0  0  0  0  0  0  0  0
 20 21  1  0  0  0
 20 25  2  0  0  0
 21 22  2  0  0  0
 22 23  1  0  0  0
 23 19  1  0  0  0
 23 24  2  0  0  0
 19  1  1  0  0  0
  1  2  1  0  0  0
  1  6  2  0  0  0
  2  3  2  0  0  0
  3  4  1  0  0  0
  4  7  1  0  0  0
  4  5  2  0  0  0
  7  9  1  0  0  0
  7  8  1  0  0  0
  9 10  1  0  0  0
  9 18  2  0  0  0
 10 11  2  0  0  0
 11 12  1  0  0  0
 12 13  2  0  0  0
 13 14  1  0  0  0
 13 18  1  0  0  0
 14 15  2  0  0  0
 15 16  1  0  0  0
 16 17  2  0  0  0
 17 18  1  0  0  0
  5  6  1  0  0  0
 24 25  1  0  0  0
M  END
> <minimizedAffinity>
-9.40251

$$$$
