CHEMBL2386799


 45 49  0  0  0  0  0  0  0  0999 V2000
  -15.8985    2.8905  -16.1536 C   0  0  0  0  0  0  0  0  0  0  0  0
  -15.3915    1.5862  -15.9089 C   0  0  0  0  0  0  0  0  0  0  0  0
  -16.3025    0.9581  -15.0984 C   0  0  0  0  0  0  0  0  0  0  0  0
  -17.3002    1.8809  -14.9162 N   0  0  0  0  0  0  0  0  0  0  0  0
  -17.0674    3.0645  -15.5210 N   0  0  0  0  0  0  0  0  0  0  0  0
  -18.1604    1.7854  -14.3912 H   0  0  0  0  0  0  0  0  0  0  0  0
  -13.8566    5.7661  -18.5848 C   0  0  0  0  0  0  0  0  0  0  0  0
  -14.9180    5.0144  -19.1039 C   0  0  0  0  0  0  0  0  0  0  0  0
  -15.5990    4.1035  -18.2948 C   0  0  0  0  0  0  0  0  0  0  0  0
  -15.2427    3.9267  -16.9501 C   0  0  0  0  0  0  0  0  0  0  0  0
  -14.2106    4.7087  -16.4186 C   0  0  0  0  0  0  0  0  0  0  0  0
  -13.5237    5.6212  -17.2310 C   0  0  0  0  0  0  0  0  0  0  0  0
  -13.0890    6.6982  -19.4826 C   0  0  0  0  0  0  0  0  0  0  0  0
  -15.0223    8.5638  -19.2007 O   0  0  0  0  0  0  0  0  0  0  0  0
  -14.8166    8.1590  -20.3388 C   0  0  0  0  0  0  0  0  0  0  0  0
  -13.8867    7.1698  -20.5931 N   0  0  0  0  0  0  0  0  0  0  0  0
  -15.4375    8.5879  -21.4910 N   0  0  0  0  0  0  0  0  0  0  0  0
  -13.4324    7.2036  -21.4922 H   0  0  0  0  0  0  0  0  0  0  0  0
  -15.2532    8.0425  -22.3195 H   0  0  0  0  0  0  0  0  0  0  0  0
  -16.4144    9.6033  -21.6042 C   0  0  0  0  0  0  0  0  0  0  0  0
  -17.7371    9.4568  -21.1705 C   0  0  0  0  0  0  0  0  0  0  0  0
  -18.6657   10.4875  -21.3446 C   0  0  0  0  0  0  0  0  0  0  0  0
  -18.2697   11.6749  -21.9392 C   0  0  0  0  0  0  0  0  0  0  0  0
  -19.1624   12.6578  -22.1167 F   0  0  0  0  0  0  0  0  0  0  0  0
  -16.9575   11.8552  -22.3542 C   0  0  0  0  0  0  0  0  0  0  0  0
  -16.0293   10.8198  -22.1879 C   0  0  0  0  0  0  0  0  0  0  0  0
  -16.2505   -0.3301  -14.5612 N   0  0  0  0  0  0  0  0  0  0  0  0
  -15.8412   -0.5806  -13.2028 C   0  0  0  0  0  0  0  0  0  0  0  0
  -15.5320    0.3292  -12.4540 O   0  0  0  0  0  0  0  0  0  0  0  0
  -16.5711   -1.0959  -15.1349 H   0  0  0  0  0  0  0  0  0  0  0  0
  -15.8240   -1.9791  -12.7183 C   0  0  0  0  0  0  0  0  0  0  0  0
  -15.9037   -3.0803  -13.5777 C   0  0  0  0  0  0  0  0  0  0  0  0
  -15.7825   -4.3769  -13.0565 C   0  0  0  0  0  0  0  0  0  0  0  0
  -15.5759   -4.5713  -11.6843 C   0  0  0  0  0  0  0  0  0  0  0  0
  -15.5460   -3.4701  -10.8313 C   0  0  0  0  0  0  0  0  0  0  0  0
  -15.6578   -2.1825  -11.3420 C   0  0  0  0  0  0  0  0  0  0  0  0
  -15.3726   -5.7737  -11.0624 O   0  0  0  0  0  0  0  0  0  0  0  0
  -14.0304   -6.0162  -10.6406 C   0  0  0  0  0  0  0  0  0  0  0  0
  -13.2399   -6.7304  -11.7576 C   0  0  0  0  0  0  0  0  0  0  0  0
  -14.0182   -7.8368  -12.3356 N   0  0  0  0  0  0  0  0  0  0  0  0
  -13.5685   -9.1714  -11.8869 C   0  0  0  0  0  0  0  0  0  0  0  0
  -12.3060   -9.6721  -12.5973 C   0  0  0  0  0  0  0  0  0  0  0  0
  -12.5319   -9.7518  -14.0058 O   0  0  0  0  0  0  0  0  0  0  0  0
  -12.8505   -8.4572  -14.5296 C   0  0  0  0  0  0  0  0  0  0  0  0
  -14.0593   -7.8192  -13.8156 C   0  0  0  0  0  0  0  0  0  0  0  0
 14 15  2  0  0  0
 15 16  1  0  0  0
 15 17  1  0  0  0
 16 13  1  0  0  0
 16 18  1  0  0  0
 13  7  1  0  0  0
  7  8  1  0  0  0
  7 12  2  0  0  0
  8  9  2  0  0  0
  9 10  1  0  0  0
 10  1  1  0  0  0
 10 11  2  0  0  0
  1  2  1  0  0  0
  1  5  2  0  0  0
  2  3  2  0  0  0
  3 27  1  0  0  0
  3  4  1  0  0  0
 27 28  1  0  0  0
 27 30  1  0  0  0
 28 29  2  0  0  0
 28 31  1  0  0  0
 31 32  1  0  0  0
 31 36  2  0  0  0
 32 33  2  0  0  0
 33 34  1  0  0  0
 34 37  1  0  0  0
 34 35  2  0  0  0
 37 38  1  0  0  0
 38 39  1  0  0  0
 39 40  1  0  0  0
 40 41  1  0  0  0
 40 45  1  0  0  0
 41 42  1  0  0  0
 42 43  1  0  0  0
 43 44  1  0  0  0
 44 45  1  0  0  0
 35 36  1  0  0  0
  4  5  1  0  0  0
  4  6  1  0  0  0
 11 12  1  0  0  0
 17 20  1  0  0  0
 17 19  1  0  0  0
 20 21  1  0  0  0
 20 26  2  0  0  0
 21 22  2  0  0  0
 22 23  1  0  0  0
 23 24  1  0  0  0
 23 25  2  0  0  0
 25 26  1  0  0  0
M  END
> <minimizedAffinity>
-8.40249

$$$$
