CHEMBL425363


 38 40  0  0  0  0  0  0  0  0999 V2000
  -16.8191    2.8750  -15.8788 C   0  0  0  0  0  0  0  0  0  0  0  0
  -18.0083    3.5930  -15.6385 C   0  0  0  0  0  0  0  0  0  0  0  0
  -19.1750    2.9624  -15.2040 C   0  0  0  0  0  0  0  0  0  0  0  0
  -20.3415    3.6754  -14.9342 C   0  0  0  0  0  0  0  0  0  0  0  0
  -21.4790    3.1013  -14.5096 N   0  0  0  0  0  0  0  0  0  0  0  0
  -21.4841    1.7769  -14.3115 C   0  0  0  0  0  0  0  0  0  0  0  0
  -20.3535    1.0009  -14.5837 C   0  0  0  0  0  0  0  0  0  0  0  0
  -19.1732    1.5830  -15.0472 C   0  0  0  0  0  0  0  0  0  0  0  0
  -18.0719    0.8440  -15.3354 N   0  0  0  0  0  0  0  0  0  0  0  0
  -16.9162    1.4831  -15.6847 C   0  0  0  0  0  0  0  0  0  0  0  0
  -14.5925    4.9565  -18.1771 C   0  0  0  0  0  0  0  0  0  0  0  0
  -13.5467    5.2979  -17.3224 C   0  0  0  0  0  0  0  0  0  0  0  0
  -13.5537    4.8336  -16.0102 C   0  0  0  0  0  0  0  0  0  0  0  0
  -14.5644    3.9670  -15.5860 C   0  0  0  0  0  0  0  0  0  0  0  0
  -15.6529    3.6235  -16.4163 C   0  0  0  0  0  0  0  0  0  0  0  0
  -15.6336    4.1408  -17.7184 C   0  0  0  0  0  0  0  0  0  0  0  0
  -14.1437    6.6145  -19.8162 C   0  0  0  0  0  0  0  0  0  0  0  0
  -14.7381    5.3688  -19.4748 O   0  0  0  0  0  0  0  0  0  0  0  0
  -12.6292    5.1658  -15.0570 O   0  0  0  0  0  0  0  0  0  0  0  0
  -12.1256    6.4978  -15.1316 C   0  0  0  0  0  0  0  0  0  0  0  0
  -15.8166    0.6168  -15.9302 N   0  0  0  0  0  0  0  0  0  0  0  0
  -14.9818    0.3033  -14.8691 C   0  0  0  0  0  0  0  0  0  0  0  0
  -15.1237    0.7263  -13.7290 O   0  0  0  0  0  0  0  0  0  0  0  0
  -13.9970   -0.5990  -15.2440 N   0  0  0  0  0  0  0  0  0  0  0  0
  -16.1431   -0.2510  -16.3306 H   0  0  0  0  0  0  0  0  0  0  0  0
  -13.6504   -0.4524  -16.1843 H   0  0  0  0  0  0  0  0  0  0  0  0
  -13.0688   -1.2482  -14.2853 C   0  0  0  0  0  0  0  0  0  0  0  0
  -13.8698   -2.0045  -13.2116 C   0  0  0  0  0  0  0  0  0  0  0  0
  -12.1849   -2.2830  -15.0177 C   0  0  0  0  0  0  0  0  0  0  0  0
  -12.1260   -0.2346  -13.6157 C   0  0  0  0  0  0  0  0  0  0  0  0
  -22.6400    1.1787  -13.8527 N   0  0  0  0  0  0  0  0  0  0  0  0
  -23.4235    1.7527  -13.5838 H   0  0  0  0  0  0  0  0  0  0  0  0
  -22.6521   -0.2478  -13.5845 C   0  0  0  0  0  0  0  0  0  0  0  0
  -22.7142   -0.5218  -12.0802 C   0  0  0  0  0  0  0  0  0  0  0  0
  -23.4238   -1.8424  -11.7587 C   0  0  0  0  0  0  0  0  0  0  0  0
  -24.9408   -1.6979  -11.7565 C   0  0  0  0  0  0  0  0  0  0  0  0
  -25.4584   -1.8099  -10.4387 O   0  0  0  0  0  0  0  0  0  0  0  0
  -25.2200   -2.6923  -10.1058 H   0  0  0  0  0  0  0  0  0  0  0  0
 17 18  1  0  0  0
 18 11  1  0  0  0
 11 12  1  0  0  0
 11 16  2  0  0  0
 12 13  2  0  0  0
 13 19  1  0  0  0
 13 14  1  0  0  0
 19 20  1  0  0  0
 14 15  2  0  0  0
 15  1  1  0  0  0
 15 16  1  0  0  0
  1  2  1  0  0  0
  1 10  2  0  0  0
  2  3  2  0  0  0
  3  4  1  0  0  0
  3  8  1  0  0  0
  4  5  2  0  0  0
  5  6  1  0  0  0
  6 31  1  0  0  0
  6  7  2  0  0  0
 31 33  1  0  0  0
 31 32  1  0  0  0
 33 34  1  0  0  0
 34 35  1  0  0  0
 35 36  1  0  0  0
 36 37  1  0  0  0
 37 38  1  0  0  0
  7  8  1  0  0  0
  8  9  2  0  0  0
  9 10  1  0  0  0
 10 21  1  0  0  0
 21 22  1  0  0  0
 21 25  1  0  0  0
 22 23  2  0  0  0
 22 24  1  0  0  0
 24 27  1  0  0  0
 24 26  1  0  0  0
 27 28  1  0  0  0
 27 29  1  0  0  0
 27 30  1  0  0  0
M  END
> <minimizedAffinity>
-8.89610

$$$$
