CHEMBL3913719


 34 37  0  0  0  0  0  0  0  0999 V2000
  -28.3891   -8.5833   -7.7915 C   0  0  0  0  0  0  0  0  0  0  0  0
  -27.8146   -9.7236   -7.2069 C   0  0  0  0  0  0  0  0  0  0  0  0
  -27.8689   -9.9614   -5.8165 C   0  0  0  0  0  0  0  0  0  0  0  0
  -27.1765  -10.9717   -5.1460 C   0  0  0  0  0  0  0  0  0  0  0  0
  -27.3025  -11.1703   -3.8191 N   0  0  0  0  0  0  0  0  0  0  0  0
  -28.1169  -10.3479   -3.1592 C   0  0  0  0  0  0  0  0  0  0  0  0
  -28.8069   -9.3405   -3.6971 N   0  0  0  0  0  0  0  0  0  0  0  0
  -28.6607   -9.1583   -5.0130 C   0  0  0  0  0  0  0  0  0  0  0  0
  -29.3259   -8.1068   -5.6041 C   0  0  0  0  0  0  0  0  0  0  0  0
  -29.1494   -7.7379   -6.9599 C   0  0  0  0  0  0  0  0  0  0  0  0
  -26.2695  -11.7859   -5.8787 N   0  0  0  0  0  0  0  0  0  0  0  0
  -26.7569  -12.2038   -6.6657 H   0  0  0  0  0  0  0  0  0  0  0  0
  -24.9560  -11.3884   -6.1801 C   0  0  0  0  0  0  0  0  0  0  0  0
  -24.3873  -10.2965   -5.5076 C   0  0  0  0  0  0  0  0  0  0  0  0
  -23.1136   -9.8379   -5.8352 C   0  0  0  0  0  0  0  0  0  0  0  0
  -22.3816  -10.4733   -6.8329 C   0  0  0  0  0  0  0  0  0  0  0  0
  -20.8350   -9.8241   -7.2253 Cl  0  0  0  0  0  0  0  0  0  0  0  0
  -22.9214  -11.5918   -7.4888 C   0  0  0  0  0  0  0  0  0  0  0  0
  -22.0692  -12.4322   -8.7297 Cl  0  0  0  0  0  0  0  0  0  0  0  0
  -24.2033  -12.0517   -7.1510 C   0  0  0  0  0  0  0  0  0  0  0  0
  -28.2413   -8.3406   -9.1417 O   0  0  0  0  0  0  0  0  0  0  0  0
  -26.9771   -8.7400   -9.7211 C   0  0  0  0  0  0  0  0  0  0  0  0
  -27.1087   -9.7385  -10.8859 C   0  0  0  0  0  0  0  0  0  0  0  0
  -28.6485  -11.4861  -10.3273 C   0  0  0  0  0  0  0  0  0  0  0  0
  -28.4690  -10.2010  -10.9099 O   0  0  0  0  0  0  0  0  0  0  0  0
  -29.6942   -6.5460   -7.4396 O   0  0  0  0  0  0  0  0  0  0  0  0
  -29.0355   -5.3827   -6.8827 C   0  0  0  0  0  0  0  0  0  0  0  0
  -29.9034   -4.3347   -6.1718 C   0  0  0  0  0  0  0  0  0  0  0  0
  -29.2662   -2.9436   -6.0985 C   0  0  0  0  0  0  0  0  0  0  0  0
  -28.0590   -2.9547   -5.2493 N   0  0  0  0  0  0  0  0  0  0  0  0
  -27.4487   -1.6309   -5.2167 C   0  0  0  0  0  0  0  0  0  0  0  0
  -28.4296   -3.4071   -3.8943 C   0  0  0  0  0  0  0  0  0  0  0  0
  -29.1293   -4.7756   -3.9281 C   0  0  0  0  0  0  0  0  0  0  0  0
  -30.2508   -4.7925   -4.8330 O   0  0  0  0  0  0  0  0  0  0  0  0
 24 25  1  0  0  0
 25 23  1  0  0  0
 23 22  1  0  0  0
 22 21  1  0  0  0
 21  1  1  0  0  0
  1  2  1  0  0  0
  1 10  2  0  0  0
  2  3  2  0  0  0
  3  4  1  0  0  0
  3  8  1  0  0  0
  4 11  1  0  0  0
  4  5  2  0  0  0
 11 13  1  0  0  0
 11 12  1  0  0  0
 13 14  1  0  0  0
 13 20  2  0  0  0
 14 15  2  0  0  0
 15 16  1  0  0  0
 16 17  1  0  0  0
 16 18  2  0  0  0
 18 19  1  0  0  0
 18 20  1  0  0  0
  5  6  1  0  0  0
  6  7  2  0  0  0
  7  8  1  0  0  0
  8  9  2  0  0  0
  9 10  1  0  0  0
 10 26  1  0  0  0
 26 27  1  0  0  0
 27 28  1  0  0  0
 28 29  1  0  0  0
 28 34  1  0  0  0
 29 30  1  0  0  0
 30 31  1  0  0  0
 30 32  1  0  0  0
 32 33  1  0  0  0
 33 34  1  0  0  0
M  END
> <minimizedAffinity>
-7.00574

$$$$
