CHEMBL438016


 47 51  0  0  0  0  0  0  0  0999 V2000
  -27.9442   -1.5581   -7.8817 C   0  0  0  0  0  0  0  0  0  0  0  0
  -27.9664   -0.3327   -7.9116 O   0  0  0  0  0  0  0  0  0  0  0  0
  -27.4486   -2.3425   -8.9153 N   0  0  0  0  0  0  0  0  0  0  0  0
  -27.5851   -3.3422   -8.8577 H   0  0  0  0  0  0  0  0  0  0  0  0
  -28.8433   -0.0753   -5.3497 C   0  0  0  0  0  0  0  0  0  0  0  0
  -28.9226   -1.5719   -5.5261 C   0  0  0  0  0  0  0  0  0  0  0  0
  -29.4497   -2.2928   -4.4479 C   0  0  0  0  0  0  0  0  0  0  0  0
  -29.6448   -3.6720   -4.5209 C   0  0  0  0  0  0  0  0  0  0  0  0
  -29.3302   -4.3974   -5.6685 C   0  0  0  0  0  0  0  0  0  0  0  0
  -28.7535   -3.7034   -6.7743 C   0  0  0  0  0  0  0  0  0  0  0  0
  -28.3090   -4.4584   -8.0114 C   0  0  0  0  0  0  0  0  0  0  0  0
  -28.5360   -2.2783   -6.6883 C   0  0  0  0  0  0  0  0  0  0  0  0
  -29.6041   -5.7968   -5.7471 N   0  0  0  0  0  0  0  0  0  0  0  0
  -28.8222   -6.8250   -5.2459 C   0  0  0  0  0  0  0  0  0  0  0  0
  -27.7259   -6.7030   -4.6917 O   0  0  0  0  0  0  0  0  0  0  0  0
  -30.3982   -6.0776   -6.2912 H   0  0  0  0  0  0  0  0  0  0  0  0
  -29.3205   -8.2204   -5.4654 C   0  0  0  0  0  0  0  0  0  0  0  0
  -28.9443   -9.2980   -4.6589 C   0  0  0  0  0  0  0  0  0  0  0  0
  -29.3987  -10.5882   -4.9620 C   0  0  0  0  0  0  0  0  0  0  0  0
  -30.2405  -10.8046   -6.0549 C   0  0  0  0  0  0  0  0  0  0  0  0
  -30.6499   -9.7343   -6.8607 C   0  0  0  0  0  0  0  0  0  0  0  0
  -30.1656   -8.4465   -6.5661 C   0  0  0  0  0  0  0  0  0  0  0  0
  -31.6077   -9.9409   -8.0103 C   0  0  0  0  0  0  0  0  0  0  0  0
  -32.6968   -9.1232   -7.9613 F   0  0  0  0  0  0  0  0  0  0  0  0
  -31.0216   -9.7026   -9.2165 F   0  0  0  0  0  0  0  0  0  0  0  0
  -32.0961  -11.2092   -8.0725 F   0  0  0  0  0  0  0  0  0  0  0  0
  -26.9092   -1.8487  -10.1306 C   0  0  0  0  0  0  0  0  0  0  0  0
  -27.6093   -1.6159  -11.2915 C   0  0  0  0  0  0  0  0  0  0  0  0
  -27.0353   -1.1924  -12.4386 N   0  0  0  0  0  0  0  0  0  0  0  0
  -25.7074   -0.9932  -12.4530 C   0  0  0  0  0  0  0  0  0  0  0  0
  -24.9317   -1.1702  -11.3742 N   0  0  0  0  0  0  0  0  0  0  0  0
  -25.5574   -1.5744  -10.2398 C   0  0  0  0  0  0  0  0  0  0  0  0
  -25.0927   -0.5987  -13.6437 N   0  0  0  0  0  0  0  0  0  0  0  0
  -25.3855   -1.1704  -14.4204 H   0  0  0  0  0  0  0  0  0  0  0  0
  -23.8207   -0.0157  -13.7515 C   0  0  0  0  0  0  0  0  0  0  0  0
  -23.6413    1.3599  -13.6009 C   0  0  0  0  0  0  0  0  0  0  0  0
  -22.4077    1.9495  -13.8498 C   0  0  0  0  0  0  0  0  0  0  0  0
  -21.3038    1.1966  -14.2621 C   0  0  0  0  0  0  0  0  0  0  0  0
  -21.4604   -0.1922  -14.3183 C   0  0  0  0  0  0  0  0  0  0  0  0
  -22.7031   -0.7954  -14.0578 C   0  0  0  0  0  0  0  0  0  0  0  0
  -20.1289    1.8611  -14.5576 N   0  0  0  0  0  0  0  0  0  0  0  0
  -19.9293    3.2761  -14.2346 C   0  0  0  0  0  0  0  0  0  0  0  0
  -18.8933    3.8591  -15.2293 C   0  0  0  0  0  0  0  0  0  0  0  0
  -17.6054    3.1211  -15.2207 N   0  0  0  0  0  0  0  0  0  0  0  0
  -16.6920    3.6706  -16.2177 C   0  0  0  0  0  0  0  0  0  0  0  0
  -17.8615    1.6865  -15.4937 C   0  0  0  0  0  0  0  0  0  0  0  0
  -18.8790    1.0738  -14.5081 C   0  0  0  0  0  0  0  0  0  0  0  0
  5  6  1  0  0  0
  6  7  1  0  0  0
  6 12  2  0  0  0
  7  8  2  0  0  0
  8  9  1  0  0  0
  9 13  1  0  0  0
  9 10  2  0  0  0
 13 14  1  0  0  0
 13 16  1  0  0  0
 14 15  2  0  0  0
 14 17  1  0  0  0
 17 18  1  0  0  0
 17 22  2  0  0  0
 18 19  2  0  0  0
 19 20  1  0  0  0
 20 21  2  0  0  0
 21 23  1  0  0  0
 21 22  1  0  0  0
 23 24  1  0  0  0
 23 25  1  0  0  0
 23 26  1  0  0  0
 10 11  1  0  0  0
 10 12  1  0  0  0
 12  1  1  0  0  0
  1  2  2  0  0  0
  1  3  1  0  0  0
  3 27  1  0  0  0
  3  4  1  0  0  0
 27 28  1  0  0  0
 27 32  2  0  0  0
 28 29  2  0  0  0
 29 30  1  0  0  0
 30 33  1  0  0  0
 30 31  2  0  0  0
 33 35  1  0  0  0
 33 34  1  0  0  0
 35 36  1  0  0  0
 35 40  2  0  0  0
 36 37  2  0  0  0
 37 38  1  0  0  0
 38 41  1  0  0  0
 38 39  2  0  0  0
 41 42  1  0  0  0
 41 47  1  0  0  0
 42 43  1  0  0  0
 43 44  1  0  0  0
 44 45  1  0  0  0
 44 46  1  0  0  0
 46 47  1  0  0  0
 39 40  1  0  0  0
 31 32  1  0  0  0
M  END
> <minimizedAffinity>
-10.55742

$$$$
