CHEMBL1076201


 50 55  0  0  0  0  0  0  0  0999 V2000
  -15.7881    1.0606  -14.9836 C   0  0  0  0  0  0  0  0  0  0  0  0
  -15.1671    0.7184  -16.1077 N   0  0  0  0  0  0  0  0  0  0  0  0
  -15.0358    1.9324  -16.7251 C   0  0  0  0  0  0  0  0  0  0  0  0
  -14.1053    2.3626  -17.6785 C   0  0  0  0  0  0  0  0  0  0  0  0
  -14.1061    3.7173  -18.0362 C   0  0  0  0  0  0  0  0  0  0  0  0
  -15.0506    4.6051  -17.5115 C   0  0  0  0  0  0  0  0  0  0  0  0
  -16.0237    4.1791  -16.6082 C   0  0  0  0  0  0  0  0  0  0  0  0
  -15.9592    2.8428  -16.2120 C   0  0  0  0  0  0  0  0  0  0  0  0
  -16.7035    2.0579  -15.3343 N   0  0  0  0  0  0  0  0  0  0  0  0
  -18.1025    2.2048  -15.0943 C   0  0  0  0  0  0  0  0  0  0  0  0
  -18.9590    1.1288  -14.9340 C   0  0  0  0  0  0  0  0  0  0  0  0
  -20.3188    1.4162  -14.9167 C   0  0  0  0  0  0  0  0  0  0  0  0
  -20.7809    2.6798  -14.9906 N   0  0  0  0  0  0  0  0  0  0  0  0
  -19.8851    3.6505  -15.1266 C   0  0  0  0  0  0  0  0  0  0  0  0
  -18.5674    3.4764  -15.1701 N   0  0  0  0  0  0  0  0  0  0  0  0
  -21.2614    0.3901  -14.7600 N   0  0  0  0  0  0  0  0  0  0  0  0
  -21.9181    0.3376  -15.5294 H   0  0  0  0  0  0  0  0  0  0  0  0
  -21.9707    0.3750  -13.4668 C   0  0  0  0  0  0  0  0  0  0  0  0
  -23.5022    0.4253  -13.6170 C   0  0  0  0  0  0  0  0  0  0  0  0
  -24.1302   -0.8331  -14.2289 C   0  0  0  0  0  0  0  0  0  0  0  0
  -24.9930   -1.5827  -13.3123 N   0  0  0  0  0  0  0  0  0  0  0  0
  -24.9517   -1.0666  -11.9320 C   0  0  0  0  0  0  0  0  0  0  0  0
  -25.8295   -1.9312  -11.0025 C   0  0  0  0  0  0  0  0  0  0  0  0
  -27.2506   -1.9959  -11.3883 N   0  0  0  0  0  0  0  0  0  0  0  0
  -27.9490   -0.7520  -11.0755 C   0  0  0  0  0  0  0  0  0  0  0  0
  -27.3516   -2.3408  -12.8220 C   0  0  0  0  0  0  0  0  0  0  0  0
  -26.4025   -1.5624  -13.7734 C   0  0  0  0  0  0  0  0  0  0  0  0
  -15.1825    1.0117  -13.7432 N   0  0  0  0  0  0  0  0  0  0  0  0
  -15.2164    1.8923  -13.2337 H   0  0  0  0  0  0  0  0  0  0  0  0
  -12.7079    2.7515  -13.6710 C   0  0  0  0  0  0  0  0  0  0  0  0
  -12.6821    1.2460  -13.6572 C   0  0  0  0  0  0  0  0  0  0  0  0
  -11.4192    0.6174  -13.6631 C   0  0  0  0  0  0  0  0  0  0  0  0
  -11.3032   -0.7731  -13.6873 C   0  0  0  0  0  0  0  0  0  0  0  0
  -12.4512   -1.5612  -13.6920 C   0  0  0  0  0  0  0  0  0  0  0  0
  -13.7093   -0.9521  -13.6447 C   0  0  0  0  0  0  0  0  0  0  0  0
  -13.8551    0.4528  -13.6516 C   0  0  0  0  0  0  0  0  0  0  0  0
  -12.3030   -3.0414  -13.7357 C   0  0  0  0  0  0  0  0  0  0  0  0
  -11.1927   -3.5153  -13.5047 O   0  0  0  0  0  0  0  0  0  0  0  0
  -13.4370   -3.7508  -14.1004 N   0  0  0  0  0  0  0  0  0  0  0  0
  -14.2158   -3.2115  -14.4678 H   0  0  0  0  0  0  0  0  0  0  0  0
  -13.5491   -5.1570  -14.1955 C   0  0  0  0  0  0  0  0  0  0  0  0
  -13.8209   -5.8264  -15.3910 C   0  0  0  0  0  0  0  0  0  0  0  0
  -13.9527   -7.2172  -15.4199 C   0  0  0  0  0  0  0  0  0  0  0  0
  -13.8215   -7.9571  -14.2485 C   0  0  0  0  0  0  0  0  0  0  0  0
  -13.5364   -7.3134  -13.0370 C   0  0  0  0  0  0  0  0  0  0  0  0
  -13.3800   -5.9124  -13.0265 C   0  0  0  0  0  0  0  0  0  0  0  0
  -13.4211   -8.0987  -11.7545 C   0  0  0  0  0  0  0  0  0  0  0  0
  -13.9309   -7.4511  -10.6688 F   0  0  0  0  0  0  0  0  0  0  0  0
  -14.0703   -9.2944  -11.8127 F   0  0  0  0  0  0  0  0  0  0  0  0
  -12.1288   -8.3906  -11.4375 F   0  0  0  0  0  0  0  0  0  0  0  0
 30 31  1  0  0  0
 31 32  1  0  0  0
 31 36  2  0  0  0
 32 33  2  0  0  0
 33 34  1  0  0  0
 34 37  1  0  0  0
 34 35  2  0  0  0
 37 38  2  0  0  0
 37 39  1  0  0  0
 39 41  1  0  0  0
 39 40  1  0  0  0
 41 42  1  0  0  0
 41 46  2  0  0  0
 42 43  2  0  0  0
 43 44  1  0  0  0
 44 45  2  0  0  0
 45 47  1  0  0  0
 45 46  1  0  0  0
 47 48  1  0  0  0
 47 49  1  0  0  0
 47 50  1  0  0  0
 35 36  1  0  0  0
 36 28  1  0  0  0
 28  1  1  0  0  0
 28 29  1  0  0  0
  1  2  2  0  0  0
  1  9  1  0  0  0
  2  3  1  0  0  0
  3  4  1  0  0  0
  3  8  2  0  0  0
  4  5  2  0  0  0
  5  6  1  0  0  0
  6  7  2  0  0  0
  7  8  1  0  0  0
  8  9  1  0  0  0
  9 10  1  0  0  0
 10 11  1  0  0  0
 10 15  2  0  0  0
 11 12  2  0  0  0
 12 16  1  0  0  0
 12 13  1  0  0  0
 16 18  1  0  0  0
 16 17  1  0  0  0
 18 19  1  0  0  0
 19 20  1  0  0  0
 20 21  1  0  0  0
 21 22  1  0  0  0
 21 27  1  0  0  0
 22 23  1  0  0  0
 23 24  1  0  0  0
 24 25  1  0  0  0
 24 26  1  0  0  0
 26 27  1  0  0  0
 13 14  2  0  0  0
 14 15  1  0  0  0
M  END
> <minimizedAffinity>
-9.04262

$$$$
