CHEMBL1982383


 36 39  0  0  0  0  0  0  0  0999 V2000
  -25.9061  -10.2449   -5.7546 C   0  0  0  0  0  0  0  0  0  0  0  0
  -25.7094  -10.3933   -7.1332 C   0  0  0  0  0  0  0  0  0  0  0  0
  -24.3944  -10.7345   -7.4119 N   0  0  0  0  0  0  0  0  0  0  0  0
  -23.8058  -10.8055   -6.2418 C   0  0  0  0  0  0  0  0  0  0  0  0
  -22.4219  -11.1089   -5.9385 C   0  0  0  0  0  0  0  0  0  0  0  0
  -22.0017  -11.1751   -4.6978 N   0  0  0  0  0  0  0  0  0  0  0  0
  -22.9096  -10.9213   -3.6913 C   0  0  0  0  0  0  0  0  0  0  0  0
  -24.1913  -10.5864   -3.9019 C   0  0  0  0  0  0  0  0  0  0  0  0
  -24.6648  -10.5356   -5.2066 N   0  0  0  0  0  0  0  0  0  0  0  0
  -26.6907  -10.2523   -8.2051 C   0  0  0  0  0  0  0  0  0  0  0  0
  -26.5774  -11.0512   -9.3575 C   0  0  0  0  0  0  0  0  0  0  0  0
  -27.5057  -10.9416  -10.3996 C   0  0  0  0  0  0  0  0  0  0  0  0
  -28.5532  -10.0365  -10.2921 C   0  0  0  0  0  0  0  0  0  0  0  0
  -29.4395   -9.9259  -11.2906 F   0  0  0  0  0  0  0  0  0  0  0  0
  -28.6982   -9.2497   -9.1584 C   0  0  0  0  0  0  0  0  0  0  0  0
  -27.7768   -9.3680   -8.1133 C   0  0  0  0  0  0  0  0  0  0  0  0
  -28.2785   -8.0977   -4.1102 C   0  0  0  0  0  0  0  0  0  0  0  0
  -29.1562   -8.9244   -3.5261 N   0  0  0  0  0  0  0  0  0  0  0  0
  -28.9693  -10.2378   -3.6856 C   0  0  0  0  0  0  0  0  0  0  0  0
  -27.9530  -10.7594   -4.4395 C   0  0  0  0  0  0  0  0  0  0  0  0
  -27.0672   -9.8455   -4.9619 C   0  0  0  0  0  0  0  0  0  0  0  0
  -27.2020   -8.5167   -4.7844 N   0  0  0  0  0  0  0  0  0  0  0  0
  -28.4693   -6.7287   -4.0335 N   0  0  0  0  0  0  0  0  0  0  0  0
  -29.2849   -6.5602   -3.4567 H   0  0  0  0  0  0  0  0  0  0  0  0
  -28.3262   -6.0109   -5.2881 C   0  0  0  0  0  0  0  0  0  0  0  0
  -30.2197   -6.6321   -6.8670 C   0  0  0  0  0  0  0  0  0  0  0  0
  -29.6801   -5.5691   -5.8925 C   0  0  0  0  0  0  0  0  0  0  0  0
  -29.5269   -4.2282   -6.6334 C   0  0  0  0  0  0  0  0  0  0  0  0
  -30.6678   -5.4109   -4.7098 C   0  0  0  0  0  0  0  0  0  0  0  0
  -31.3454   -6.6210   -4.3974 O   0  0  0  0  0  0  0  0  0  0  0  0
  -31.9595   -6.8177   -5.1243 H   0  0  0  0  0  0  0  0  0  0  0  0
  -21.4321  -11.3474   -7.0538 C   0  0  0  0  0  0  0  0  0  0  0  0
  -20.6625  -10.0724   -7.3805 C   0  0  0  0  0  0  0  0  0  0  0  0
  -21.4393   -8.8870   -7.0239 N   0  0  0  0  0  0  0  0  0  0  0  0
  -22.2694   -8.8285   -7.6121 H   0  0  0  0  0  0  0  0  0  0  0  0
  -20.8869   -8.0537   -7.2231 H   0  0  0  0  0  0  0  0  0  0  0  0
 26 27  1  0  0  0
 27 28  1  0  0  0
 27 29  1  0  0  0
 27 25  1  0  0  0
 29 30  1  0  0  0
 30 31  1  0  0  0
 25 23  1  0  0  0
 23 17  1  0  0  0
 23 24  1  0  0  0
 17 18  1  0  0  0
 17 22  2  0  0  0
 18 19  2  0  0  0
 19 20  1  0  0  0
 20 21  2  0  0  0
 21  1  1  0  0  0
 21 22  1  0  0  0
  1  2  2  0  0  0
  1  9  1  0  0  0
  2 10  1  0  0  0
  2  3  1  0  0  0
 10 11  1  0  0  0
 10 16  2  0  0  0
 11 12  2  0  0  0
 12 13  1  0  0  0
 13 14  1  0  0  0
 13 15  2  0  0  0
 15 16  1  0  0  0
  3  4  2  0  0  0
  4  5  1  0  0  0
  4  9  1  0  0  0
  5 32  1  0  0  0
  5  6  2  0  0  0
 32 33  1  0  0  0
 33 34  1  0  0  0
 34 35  1  0  0  0
 34 36  1  0  0  0
  6  7  1  0  0  0
  7  8  2  0  0  0
  8  9  1  0  0  0
M  END
> <minimizedAffinity>
-8.15845

$$$$
