CHEMBL3780236


 43 47  0  0  0  0  0  0  0  0999 V2000
  -28.9833   -4.1974   -6.2825 C   0  0  0  0  0  0  0  0  0  0  0  0
  -29.4800   -4.3422   -7.5776 C   0  0  0  0  0  0  0  0  0  0  0  0
  -29.1462   -3.4300   -8.5852 C   0  0  0  0  0  0  0  0  0  0  0  0
  -28.3308   -2.3224   -8.3296 C   0  0  0  0  0  0  0  0  0  0  0  0
  -27.9043   -2.1206   -7.0184 C   0  0  0  0  0  0  0  0  0  0  0  0
  -28.2493   -3.0359   -6.0065 C   0  0  0  0  0  0  0  0  0  0  0  0
  -27.8995   -1.4193   -9.3340 N   0  0  0  0  0  0  0  0  0  0  0  0
  -27.1210   -1.7484  -10.4263 C   0  0  0  0  0  0  0  0  0  0  0  0
  -26.8052   -2.8959  -10.7365 O   0  0  0  0  0  0  0  0  0  0  0  0
  -26.6753   -0.6391  -11.1311 N   0  0  0  0  0  0  0  0  0  0  0  0
  -28.2577   -0.4760   -9.2919 H   0  0  0  0  0  0  0  0  0  0  0  0
  -26.5138    0.1839  -10.5677 H   0  0  0  0  0  0  0  0  0  0  0  0
  -25.8142   -0.8174  -12.2461 C   0  0  0  0  0  0  0  0  0  0  0  0
  -26.2847   -1.5002  -13.3674 C   0  0  0  0  0  0  0  0  0  0  0  0
  -25.5065   -1.5522  -14.5274 C   0  0  0  0  0  0  0  0  0  0  0  0
  -24.2438   -0.9553  -14.5597 C   0  0  0  0  0  0  0  0  0  0  0  0
  -23.7382   -0.3026  -13.4278 C   0  0  0  0  0  0  0  0  0  0  0  0
  -24.5302   -0.2547  -12.2705 C   0  0  0  0  0  0  0  0  0  0  0  0
  -22.3886    0.3707  -13.4433 C   0  0  0  0  0  0  0  0  0  0  0  0
  -22.4575    1.7161  -13.6577 F   0  0  0  0  0  0  0  0  0  0  0  0
  -21.7059    0.2201  -12.2746 F   0  0  0  0  0  0  0  0  0  0  0  0
  -21.5720   -0.1156  -14.4195 F   0  0  0  0  0  0  0  0  0  0  0  0
  -29.3132   -5.1741   -5.3099 N   0  0  0  0  0  0  0  0  0  0  0  0
  -30.3173   -5.2346   -5.1806 H   0  0  0  0  0  0  0  0  0  0  0  0
  -27.6976   -8.9387   -4.6107 C   0  0  0  0  0  0  0  0  0  0  0  0
  -27.0653   -7.8201   -4.2037 N   0  0  0  0  0  0  0  0  0  0  0  0
  -27.5777   -6.6028   -4.5048 N   0  0  0  0  0  0  0  0  0  0  0  0
  -28.7416   -6.4691   -5.1772 C   0  0  0  0  0  0  0  0  0  0  0  0
  -29.4026   -7.6111   -5.6962 C   0  0  0  0  0  0  0  0  0  0  0  0
  -30.6053   -7.5632   -6.4503 C   0  0  0  0  0  0  0  0  0  0  0  0
  -31.2023   -8.7206   -6.9608 C   0  0  0  0  0  0  0  0  0  0  0  0
  -30.6183   -9.9568   -6.7337 C   0  0  0  0  0  0  0  0  0  0  0  0
  -29.4562  -10.0381   -5.9725 C   0  0  0  0  0  0  0  0  0  0  0  0
  -28.8373   -8.8835   -5.4321 C   0  0  0  0  0  0  0  0  0  0  0  0
  -27.1505  -10.2104   -4.0120 C   0  0  0  0  0  0  0  0  0  0  0  0
  -22.9575  -11.1397   -4.5469 C   0  0  0  0  0  0  0  0  0  0  0  0
  -23.5110  -11.1404   -3.2670 C   0  0  0  0  0  0  0  0  0  0  0  0
  -24.8590  -10.8196   -3.0780 C   0  0  0  0  0  0  0  0  0  0  0  0
  -25.6721  -10.4757   -4.1641 C   0  0  0  0  0  0  0  0  0  0  0  0
  -25.1130  -10.4962   -5.4507 C   0  0  0  0  0  0  0  0  0  0  0  0
  -23.7674  -10.8214   -5.6369 C   0  0  0  0  0  0  0  0  0  0  0  0
  -21.3429  -11.5098   -6.2427 C   0  0  0  0  0  0  0  0  0  0  0  0
  -21.6588  -11.4379   -4.8574 O   0  0  0  0  0  0  0  0  0  0  0  0
 42 43  1  0  0  0
 43 36  1  0  0  0
 36 37  1  0  0  0
 36 41  2  0  0  0
 37 38  2  0  0  0
 38 39  1  0  0  0
 39 35  1  0  0  0
 39 40  2  0  0  0
 35 25  1  0  0  0
 25 26  1  0  0  0
 25 34  2  0  0  0
 26 27  2  0  0  0
 27 28  1  0  0  0
 28 23  1  0  0  0
 28 29  2  0  0  0
 23  1  1  0  0  0
 23 24  1  0  0  0
  1  2  1  0  0  0
  1  6  2  0  0  0
  2  3  2  0  0  0
  3  4  1  0  0  0
  4  7  1  0  0  0
  4  5  2  0  0  0
  7  8  1  0  0  0
  7 11  1  0  0  0
  8  9  2  0  0  0
  8 10  1  0  0  0
 10 13  1  0  0  0
 10 12  1  0  0  0
 13 14  1  0  0  0
 13 18  2  0  0  0
 14 15  2  0  0  0
 15 16  1  0  0  0
 16 17  2  0  0  0
 17 19  1  0  0  0
 17 18  1  0  0  0
 19 20  1  0  0  0
 19 21  1  0  0  0
 19 22  1  0  0  0
  5  6  1  0  0  0
 29 30  1  0  0  0
 29 34  1  0  0  0
 30 31  2  0  0  0
 31 32  1  0  0  0
 32 33  2  0  0  0
 33 34  1  0  0  0
 40 41  1  0  0  0
M  END
> <minimizedAffinity>
-10.32490

$$$$
