CHEMBL3586049


 29 31  0  0  0  0  0  0  0  0999 V2000
  -25.0654   -1.1942   -9.9023 O   0  0  0  0  0  0  0  0  0  0  0  0
  -25.8408   -1.6167  -10.7498 C   0  0  0  0  0  0  0  0  0  0  0  0
  -25.6682   -1.4614  -12.1173 N   0  0  0  0  0  0  0  0  0  0  0  0
  -27.0311   -2.2764  -10.4708 N   0  0  0  0  0  0  0  0  0  0  0  0
  -26.4591   -1.6780  -12.7029 H   0  0  0  0  0  0  0  0  0  0  0  0
  -27.5229   -2.6744  -11.2533 H   0  0  0  0  0  0  0  0  0  0  0  0
  -27.5936   -2.4920   -9.1899 C   0  0  0  0  0  0  0  0  0  0  0  0
  -28.0007   -3.7425   -8.7164 C   0  0  0  0  0  0  0  0  0  0  0  0
  -28.5372   -3.8739   -7.4346 C   0  0  0  0  0  0  0  0  0  0  0  0
  -29.0838   -5.5772   -6.8198 Br  0  0  0  0  0  0  0  0  0  0  0  0
  -28.6645   -2.7686   -6.6011 C   0  0  0  0  0  0  0  0  0  0  0  0
  -28.2468   -1.5082   -7.0461 C   0  0  0  0  0  0  0  0  0  0  0  0
  -27.7219   -1.3799   -8.3470 C   0  0  0  0  0  0  0  0  0  0  0  0
  -28.3327   -0.3029   -6.1446 C   0  0  0  0  0  0  0  0  0  0  0  0
  -28.5604    0.8629   -6.8091 F   0  0  0  0  0  0  0  0  0  0  0  0
  -29.3366   -0.4158   -5.2315 F   0  0  0  0  0  0  0  0  0  0  0  0
  -27.1937   -0.1100   -5.4248 F   0  0  0  0  0  0  0  0  0  0  0  0
  -24.6038   -0.7777  -12.7458 C   0  0  0  0  0  0  0  0  0  0  0  0
  -23.5867   -1.4084  -13.4594 C   0  0  0  0  0  0  0  0  0  0  0  0
  -22.5226   -0.6711  -13.9953 C   0  0  0  0  0  0  0  0  0  0  0  0
  -22.4338    0.7198  -13.8300 C   0  0  0  0  0  0  0  0  0  0  0  0
  -23.4890    1.3447  -13.1424 C   0  0  0  0  0  0  0  0  0  0  0  0
  -24.5641    0.6118  -12.6211 C   0  0  0  0  0  0  0  0  0  0  0  0
  -21.2744    1.4873  -14.3328 C   0  0  0  0  0  0  0  0  0  0  0  0
  -20.1054    0.8668  -14.7968 C   0  0  0  0  0  0  0  0  0  0  0  0
  -19.0449    1.6225  -15.2963 C   0  0  0  0  0  0  0  0  0  0  0  0
  -19.1687    2.9990  -15.3100 C   0  0  0  0  0  0  0  0  0  0  0  0
  -20.2606    3.6512  -14.8692 N   0  0  0  0  0  0  0  0  0  0  0  0
  -21.2777    2.8851  -14.3996 C   0  0  0  0  0  0  0  0  0  0  0  0
  1  2  2  0  0  0
  2  3  1  0  0  0
  2  4  1  0  0  0
  3 18  1  0  0  0
  3  5  1  0  0  0
 18 19  1  0  0  0
 18 23  2  0  0  0
 19 20  2  0  0  0
 20 21  1  0  0  0
 21 24  1  0  0  0
 21 22  2  0  0  0
 24 25  1  0  0  0
 24 29  2  0  0  0
 25 26  2  0  0  0
 26 27  1  0  0  0
 27 28  2  0  0  0
 28 29  1  0  0  0
 22 23  1  0  0  0
  4  7  1  0  0  0
  4  6  1  0  0  0
  7  8  1  0  0  0
  7 13  2  0  0  0
  8  9  2  0  0  0
  9 10  1  0  0  0
  9 11  1  0  0  0
 11 12  2  0  0  0
 12 14  1  0  0  0
 12 13  1  0  0  0
 14 15  1  0  0  0
 14 16  1  0  0  0
 14 17  1  0  0  0
M  END
> <minimizedAffinity>
-10.62654

$$$$
