CHEMBL3896044


 35 39  0  0  0  0  0  0  0  0999 V2000
  -28.3546   -2.9407   -8.2552 C   0  0  0  0  0  0  0  0  0  0  0  0
  -28.8797   -2.7445   -6.9692 C   0  0  0  0  0  0  0  0  0  0  0  0
  -28.7374   -1.5113   -6.2874 C   0  0  0  0  0  0  0  0  0  0  0  0
  -29.1703   -1.2298   -4.9848 C   0  0  0  0  0  0  0  0  0  0  0  0
  -29.0237   -0.0071   -4.4296 N   0  0  0  0  0  0  0  0  0  0  0  0
  -28.4388    0.9328   -5.1686 C   0  0  0  0  0  0  0  0  0  0  0  0
  -27.9802    0.7705   -6.4088 N   0  0  0  0  0  0  0  0  0  0  0  0
  -28.1333   -0.4421   -6.9443 C   0  0  0  0  0  0  0  0  0  0  0  0
  -27.6546   -0.6356   -8.2249 C   0  0  0  0  0  0  0  0  0  0  0  0
  -27.6947   -1.8800   -8.8828 C   0  0  0  0  0  0  0  0  0  0  0  0
  -28.1114   -5.3194   -8.0366 C   0  0  0  0  0  0  0  0  0  0  0  0
  -28.6161   -4.1910   -8.7345 O   0  0  0  0  0  0  0  0  0  0  0  0
  -29.7798   -2.2481   -4.2013 N   0  0  0  0  0  0  0  0  0  0  0  0
  -30.7874   -2.1269   -4.2167 H   0  0  0  0  0  0  0  0  0  0  0  0
  -29.3731   -3.6015   -4.2527 C   0  0  0  0  0  0  0  0  0  0  0  0
  -28.0842   -3.9582   -3.8366 C   0  0  0  0  0  0  0  0  0  0  0  0
  -27.6262   -5.2687   -3.9602 C   0  0  0  0  0  0  0  0  0  0  0  0
  -28.4665   -6.2477   -4.4890 C   0  0  0  0  0  0  0  0  0  0  0  0
  -27.8250   -7.8417   -4.6654 Cl  0  0  0  0  0  0  0  0  0  0  0  0
  -29.7690   -5.9109   -4.8742 C   0  0  0  0  0  0  0  0  0  0  0  0
  -30.8621   -7.0736   -5.5426 Cl  0  0  0  0  0  0  0  0  0  0  0  0
  -30.2262   -4.5919   -4.7465 C   0  0  0  0  0  0  0  0  0  0  0  0
  -27.1122   -2.0550  -10.1203 O   0  0  0  0  0  0  0  0  0  0  0  0
  -25.7704   -1.5453  -10.1914 C   0  0  0  0  0  0  0  0  0  0  0  0
  -25.4283   -1.1192  -11.5790 C   0  0  0  0  0  0  0  0  0  0  0  0
  -24.4306   -0.3047  -11.8514 N   0  0  0  0  0  0  0  0  0  0  0  0
  -24.1622   -0.3110  -13.2065 C   0  0  0  0  0  0  0  0  0  0  0  0
  -25.0121   -1.0970  -13.9596 C   0  0  0  0  0  0  0  0  0  0  0  0
  -26.1624   -1.8635  -12.9422 S   0  0  0  0  0  0  0  0  0  0  0  0
  -23.0592    0.4693  -13.7364 C   0  0  0  0  0  0  0  0  0  0  0  0
  -21.8995   -0.1090  -14.2577 C   0  0  0  0  0  0  0  0  0  0  0  0
  -20.8845    0.7077  -14.7546 C   0  0  0  0  0  0  0  0  0  0  0  0
  -21.0593    2.0816  -14.7089 C   0  0  0  0  0  0  0  0  0  0  0  0
  -22.1533    2.6800  -14.1957 N   0  0  0  0  0  0  0  0  0  0  0  0
  -23.1221    1.8608  -13.7149 C   0  0  0  0  0  0  0  0  0  0  0  0
 11 12  1  0  0  0
 12  1  1  0  0  0
  1  2  1  0  0  0
  1 10  2  0  0  0
  2  3  2  0  0  0
  3  4  1  0  0  0
  3  8  1  0  0  0
  4 13  1  0  0  0
  4  5  2  0  0  0
 13 15  1  0  0  0
 13 14  1  0  0  0
 15 16  1  0  0  0
 15 22  2  0  0  0
 16 17  2  0  0  0
 17 18  1  0  0  0
 18 19  1  0  0  0
 18 20  2  0  0  0
 20 21  1  0  0  0
 20 22  1  0  0  0
  5  6  1  0  0  0
  6  7  2  0  0  0
  7  8  1  0  0  0
  8  9  2  0  0  0
  9 10  1  0  0  0
 10 23  1  0  0  0
 23 24  1  0  0  0
 24 25  1  0  0  0
 25 26  2  0  0  0
 25 29  1  0  0  0
 26 27  1  0  0  0
 27 30  1  0  0  0
 27 28  2  0  0  0
 30 31  1  0  0  0
 30 35  2  0  0  0
 31 32  2  0  0  0
 32 33  1  0  0  0
 33 34  2  0  0  0
 34 35  1  0  0  0
 28 29  1  0  0  0
M  END
> <minimizedAffinity>
-8.91251

$$$$
