CHEMBL223360


 33 36  0  0  0  0  0  0  0  0999 V2000
  -15.0299   -2.6850  -12.7567 C   0  0  0  0  0  0  0  0  0  0  0  0
  -15.5716   -3.1880  -11.5720 C   0  0  0  0  0  0  0  0  0  0  0  0
  -14.7462   -3.6186  -10.5248 C   0  0  0  0  0  0  0  0  0  0  0  0
  -13.3480   -3.5667  -10.6300 C   0  0  0  0  0  0  0  0  0  0  0  0
  -12.8315   -3.1466  -11.8737 C   0  0  0  0  0  0  0  0  0  0  0  0
  -13.6463   -2.6870  -12.9155 C   0  0  0  0  0  0  0  0  0  0  0  0
  -12.4616   -3.9604   -9.5049 C   0  0  0  0  0  0  0  0  0  0  0  0
  -12.3415   -3.1817   -8.3261 C   0  0  0  0  0  0  0  0  0  0  0  0
  -11.6125   -3.6110   -7.2129 C   0  0  0  0  0  0  0  0  0  0  0  0
  -11.0325   -4.8764   -7.1853 C   0  0  0  0  0  0  0  0  0  0  0  0
  -11.1231   -5.6329   -8.3554 C   0  0  0  0  0  0  0  0  0  0  0  0
  -10.7248   -6.9133   -8.6333 N   0  0  0  0  0  0  0  0  0  0  0  0
  -10.7904   -7.2398   -9.9301 N   0  0  0  0  0  0  0  0  0  0  0  0
  -11.3477   -6.1718  -10.4917 C   0  0  0  0  0  0  0  0  0  0  0  0
  -11.5153   -6.0706  -11.8161 N   0  0  0  0  0  0  0  0  0  0  0  0
  -11.7232   -5.1789   -9.5296 C   0  0  0  0  0  0  0  0  0  0  0  0
  -10.3939   -7.6124   -7.9798 H   0  0  0  0  0  0  0  0  0  0  0  0
  -11.2039   -6.8137  -12.4262 H   0  0  0  0  0  0  0  0  0  0  0  0
  -11.7881   -5.2058  -12.2708 H   0  0  0  0  0  0  0  0  0  0  0  0
  -16.9644   -0.3799  -14.7659 N   0  0  0  0  0  0  0  0  0  0  0  0
  -16.1672   -0.7824  -13.7188 C   0  0  0  0  0  0  0  0  0  0  0  0
  -15.6959   -0.0502  -12.8473 O   0  0  0  0  0  0  0  0  0  0  0  0
  -15.8513   -2.1410  -13.7721 N   0  0  0  0  0  0  0  0  0  0  0  0
  -17.1709   -1.0622  -15.4810 H   0  0  0  0  0  0  0  0  0  0  0  0
  -15.6763   -2.4823  -14.7064 H   0  0  0  0  0  0  0  0  0  0  0  0
  -20.7225    2.8826  -14.7170 C   0  0  0  0  0  0  0  0  0  0  0  0
  -19.2851    2.5510  -15.0006 C   0  0  0  0  0  0  0  0  0  0  0  0
  -18.4537    3.5380  -15.5365 C   0  0  0  0  0  0  0  0  0  0  0  0
  -17.1151    3.2570  -15.7761 C   0  0  0  0  0  0  0  0  0  0  0  0
  -16.6007    1.9947  -15.4938 C   0  0  0  0  0  0  0  0  0  0  0  0
  -15.2748    1.8671  -15.6280 F   0  0  0  0  0  0  0  0  0  0  0  0
  -17.4111    0.9604  -15.0074 C   0  0  0  0  0  0  0  0  0  0  0  0
  -18.7612    1.2650  -14.7406 C   0  0  0  0  0  0  0  0  0  0  0  0
 26 27  1  0  0  0
 27 28  1  0  0  0
 27 33  2  0  0  0
 28 29  2  0  0  0
 29 30  1  0  0  0
 30 31  1  0  0  0
 30 32  2  0  0  0
 32 20  1  0  0  0
 32 33  1  0  0  0
 20 21  1  0  0  0
 20 24  1  0  0  0
 21 22  2  0  0  0
 21 23  1  0  0  0
 23  1  1  0  0  0
 23 25  1  0  0  0
  1  2  1  0  0  0
  1  6  2  0  0  0
  2  3  2  0  0  0
  3  4  1  0  0  0
  4  7  1  0  0  0
  4  5  2  0  0  0
  7  8  1  0  0  0
  7 16  2  0  0  0
  8  9  2  0  0  0
  9 10  1  0  0  0
 10 11  2  0  0  0
 11 12  1  0  0  0
 11 16  1  0  0  0
 12 13  1  0  0  0
 12 17  1  0  0  0
 13 14  2  0  0  0
 14 15  1  0  0  0
 14 16  1  0  0  0
 15 18  1  0  0  0
 15 19  1  0  0  0
  5  6  1  0  0  0
M  END
> <minimizedAffinity>
-9.26787

$$$$
