CHEMBL467549


 27 30  0  0  0  0  0  0  0  0999 V2000
  -14.5820    1.0075  -13.8163 C   0  0  0  0  0  0  0  0  0  0  0  0
  -13.2576    1.3863  -13.5218 C   0  0  0  0  0  0  0  0  0  0  0  0
  -12.6056    2.3452  -14.2942 C   0  0  0  0  0  0  0  0  0  0  0  0
  -13.2526    2.9026  -15.3899 C   0  0  0  0  0  0  0  0  0  0  0  0
  -14.5728    2.5541  -15.6710 C   0  0  0  0  0  0  0  0  0  0  0  0
  -15.2893    1.6483  -14.8707 C   0  0  0  0  0  0  0  0  0  0  0  0
  -15.9327    0.1344  -12.0983 O   0  0  0  0  0  0  0  0  0  0  0  0
  -15.2009   -0.1223  -13.0552 C   0  0  0  0  0  0  0  0  0  0  0  0
  -14.8913   -1.5172  -13.4028 C   0  0  0  0  0  0  0  0  0  0  0  0
  -14.3254   -1.8284  -14.5857 N   0  0  0  0  0  0  0  0  0  0  0  0
  -14.5529   -3.1438  -14.7200 N   0  0  0  0  0  0  0  0  0  0  0  0
  -15.2800   -3.6862  -13.6970 C   0  0  0  0  0  0  0  0  0  0  0  0
  -15.9165   -4.9223  -13.5588 C   0  0  0  0  0  0  0  0  0  0  0  0
  -16.5574   -5.1707  -12.3412 C   0  0  0  0  0  0  0  0  0  0  0  0
  -16.4971   -4.2519  -11.2937 C   0  0  0  0  0  0  0  0  0  0  0  0
  -15.8962   -3.0008  -11.4721 C   0  0  0  0  0  0  0  0  0  0  0  0
  -15.3308   -2.6937  -12.7231 C   0  0  0  0  0  0  0  0  0  0  0  0
  -14.2292   -3.6057  -15.5631 H   0  0  0  0  0  0  0  0  0  0  0  0
  -16.6249    1.3690  -15.1719 N   0  0  0  0  0  0  0  0  0  0  0  0
  -17.0886    0.7497  -14.4990 H   0  0  0  0  0  0  0  0  0  0  0  0
  -17.5039    2.3589  -15.7887 C   0  0  0  0  0  0  0  0  0  0  0  0
  -18.9354    2.2231  -15.3141 C   0  0  0  0  0  0  0  0  0  0  0  0
  -19.4846    0.9539  -15.1221 C   0  0  0  0  0  0  0  0  0  0  0  0
  -20.7818    0.8456  -14.6386 C   0  0  0  0  0  0  0  0  0  0  0  0
  -21.5609    1.9092  -14.3377 N   0  0  0  0  0  0  0  0  0  0  0  0
  -21.0176    3.1307  -14.5327 C   0  0  0  0  0  0  0  0  0  0  0  0
  -19.7276    3.3357  -15.0094 C   0  0  0  0  0  0  0  0  0  0  0  0
  7  8  2  0  0  0
  8  1  1  0  0  0
  8  9  1  0  0  0
  1  2  1  0  0  0
  1  6  2  0  0  0
  2  3  2  0  0  0
  3  4  1  0  0  0
  4  5  2  0  0  0
  5  6  1  0  0  0
  6 19  1  0  0  0
 19 21  1  0  0  0
 19 20  1  0  0  0
 21 22  1  0  0  0
 22 23  1  0  0  0
 22 27  2  0  0  0
 23 24  2  0  0  0
 24 25  1  0  0  0
 25 26  2  0  0  0
 26 27  1  0  0  0
  9 10  2  0  0  0
  9 17  1  0  0  0
 10 11  1  0  0  0
 11 12  1  0  0  0
 11 18  1  0  0  0
 12 13  1  0  0  0
 12 17  2  0  0  0
 13 14  2  0  0  0
 14 15  1  0  0  0
 15 16  2  0  0  0
 16 17  1  0  0  0
M  END
> <minimizedAffinity>
-8.44887

$$$$
