CHEMBL1762110


 34 38  0  0  0  0  0  0  0  0999 V2000
  -28.5484   -9.9964   -6.5424 C   0  0  0  0  0  0  0  0  0  0  0  0
  -28.4218   -8.7240   -6.1932 N   0  0  0  0  0  0  0  0  0  0  0  0
  -29.6780   -8.1807   -6.2995 C   0  0  0  0  0  0  0  0  0  0  0  0
  -30.5527   -9.0634   -6.8958 C   0  0  0  0  0  0  0  0  0  0  0  0
  -31.9246   -9.0338   -7.3392 C   0  0  0  0  0  0  0  0  0  0  0  0
  -32.7617   -7.9626   -7.2185 N   0  0  0  0  0  0  0  0  0  0  0  0
  -32.4460  -10.0760   -7.9510 N   0  0  0  0  0  0  0  0  0  0  0  0
  -31.6497  -11.1767   -8.1750 C   0  0  0  0  0  0  0  0  0  0  0  0
  -30.3715  -11.2738   -7.7824 C   0  0  0  0  0  0  0  0  0  0  0  0
  -29.8013  -10.2063   -7.1083 N   0  0  0  0  0  0  0  0  0  0  0  0
  -32.3099   -7.0590   -7.3072 H   0  0  0  0  0  0  0  0  0  0  0  0
  -33.5786   -8.0536   -7.8190 H   0  0  0  0  0  0  0  0  0  0  0  0
  -29.9553   -6.8266   -5.7720 C   0  0  0  0  0  0  0  0  0  0  0  0
  -30.7884   -6.4668   -4.7380 C   0  0  0  0  0  0  0  0  0  0  0  0
  -30.5869   -5.0892   -4.4741 C   0  0  0  0  0  0  0  0  0  0  0  0
  -31.0809   -4.2136   -3.4914 C   0  0  0  0  0  0  0  0  0  0  0  0
  -30.6086   -2.8999   -3.4557 C   0  0  0  0  0  0  0  0  0  0  0  0
  -29.6951   -2.4491   -4.4075 C   0  0  0  0  0  0  0  0  0  0  0  0
  -29.2124   -3.2967   -5.4122 C   0  0  0  0  0  0  0  0  0  0  0  0
  -29.6561   -4.6229   -5.4016 C   0  0  0  0  0  0  0  0  0  0  0  0
  -29.2898   -5.6999   -6.1792 N   0  0  0  0  0  0  0  0  0  0  0  0
  -28.6030   -5.6872   -6.9207 H   0  0  0  0  0  0  0  0  0  0  0  0
  -26.2775  -10.9421   -3.5016 C   0  0  0  0  0  0  0  0  0  0  0  0
  -25.8748   -9.9865   -4.6355 C   0  0  0  0  0  0  0  0  0  0  0  0
  -26.1157  -10.5265   -6.0488 C   0  0  0  0  0  0  0  0  0  0  0  0
  -27.5234  -11.0866   -6.2817 C   0  0  0  0  0  0  0  0  0  0  0  0
  -27.9374  -12.0234   -5.1229 C   0  0  0  0  0  0  0  0  0  0  0  0
  -27.7158  -11.4296   -3.7272 C   0  0  0  0  0  0  0  0  0  0  0  0
  -25.3136  -12.1253   -3.2801 C   0  0  0  0  0  0  0  0  0  0  0  0
  -21.5910  -11.4293   -3.2679 C   0  0  0  0  0  0  0  0  0  0  0  0
  -22.9021  -11.9125   -3.8240 C   0  0  0  0  0  0  0  0  0  0  0  0
  -22.9937  -12.4639   -4.9145 O   0  0  0  0  0  0  0  0  0  0  0  0
  -23.9621  -11.6961   -2.9730 N   0  0  0  0  0  0  0  0  0  0  0  0
  -23.8095  -11.1548   -2.1317 H   0  0  0  0  0  0  0  0  0  0  0  0
 30 31  1  0  0  0
 31 32  2  0  0  0
 31 33  1  0  0  0
 33 29  1  0  0  0
 33 34  1  0  0  0
 23 24  1  0  0  0
 23 28  1  0  0  0
 23 29  1  0  0  0
 24 25  1  0  0  0
 25 26  1  0  0  0
 26 27  1  0  0  0
 26  1  1  0  0  0
  1  2  2  0  0  0
  1 10  1  0  0  0
  2  3  1  0  0  0
  3 13  1  0  0  0
  3  4  2  0  0  0
 13 14  2  0  0  0
 13 21  1  0  0  0
 14 15  1  0  0  0
 15 16  1  0  0  0
 15 20  2  0  0  0
 16 17  2  0  0  0
 17 18  1  0  0  0
 18 19  2  0  0  0
 19 20  1  0  0  0
 20 21  1  0  0  0
 21 22  1  0  0  0
  4  5  1  0  0  0
  4 10  1  0  0  0
  5  6  1  0  0  0
  5  7  2  0  0  0
  6 11  1  0  0  0
  6 12  1  0  0  0
  7  8  1  0  0  0
  8  9  2  0  0  0
  9 10  1  0  0  0
 27 28  1  0  0  0
M  END
> <minimizedAffinity>
-8.08471

$$$$
