CHEMBL2016928


 33 37  0  0  0  0  0  0  0  0999 V2000
  -21.1452    0.4975  -13.8177 N   0  0  0  0  0  0  0  0  0  0  0  0
  -20.6928    1.7893  -14.0009 C   0  0  0  0  0  0  0  0  0  0  0  0
  -21.3747    2.7970  -13.8215 O   0  0  0  0  0  0  0  0  0  0  0  0
  -19.3693    1.8963  -14.4646 N   0  0  0  0  0  0  0  0  0  0  0  0
  -18.5333    0.7120  -14.7738 C   0  0  0  0  0  0  0  0  0  0  0  0
  -17.0997    0.8787  -15.3090 C   0  0  0  0  0  0  0  0  0  0  0  0
  -16.8177    2.2583  -15.7263 C   0  0  0  0  0  0  0  0  0  0  0  0
  -15.6637    2.6753  -16.3135 N   0  0  0  0  0  0  0  0  0  0  0  0
  -15.8010    3.9827  -16.4770 C   0  0  0  0  0  0  0  0  0  0  0  0
  -17.0377    4.3937  -16.0084 N   0  0  0  0  0  0  0  0  0  0  0  0
  -17.6953    3.2854  -15.5491 C   0  0  0  0  0  0  0  0  0  0  0  0
  -19.0562    3.2302  -15.0063 C   0  0  0  0  0  0  0  0  0  0  0  0
  -20.4574   -0.2337  -13.7916 H   0  0  0  0  0  0  0  0  0  0  0  0
  -17.3671    5.3552  -16.0083 H   0  0  0  0  0  0  0  0  0  0  0  0
  -14.8965    4.9417  -17.0219 C   0  0  0  0  0  0  0  0  0  0  0  0
  -15.1773    5.4893  -18.2195 C   0  0  0  0  0  0  0  0  0  0  0  0
  -14.2737    6.4557  -18.8413 C   0  0  0  0  0  0  0  0  0  0  0  0
  -14.5688    7.0469  -20.0729 C   0  0  0  0  0  0  0  0  0  0  0  0
  -13.6747    7.9554  -20.6444 C   0  0  0  0  0  0  0  0  0  0  0  0
  -12.4823    8.2722  -19.9918 C   0  0  0  0  0  0  0  0  0  0  0  0
  -12.1823    7.6890  -18.7603 C   0  0  0  0  0  0  0  0  0  0  0  0
  -13.0810    6.7895  -18.1897 C   0  0  0  0  0  0  0  0  0  0  0  0
  -12.7994    6.2189  -16.9455 N   0  0  0  0  0  0  0  0  0  0  0  0
  -13.6382    5.3420  -16.3056 C   0  0  0  0  0  0  0  0  0  0  0  0
  -13.3555    4.9063  -15.1890 O   0  0  0  0  0  0  0  0  0  0  0  0
  -11.9521    6.4630  -16.4514 H   0  0  0  0  0  0  0  0  0  0  0  0
  -25.4892   -1.1430  -15.4626 C   0  0  0  0  0  0  0  0  0  0  0  0
  -24.6133   -0.7198  -14.3208 C   0  0  0  0  0  0  0  0  0  0  0  0
  -25.0665   -0.8208  -13.0036 C   0  0  0  0  0  0  0  0  0  0  0  0
  -24.2433   -0.4407  -11.9461 C   0  0  0  0  0  0  0  0  0  0  0  0
  -22.9483    0.0181  -12.1932 C   0  0  0  0  0  0  0  0  0  0  0  0
  -22.4596    0.0916  -13.4974 C   0  0  0  0  0  0  0  0  0  0  0  0
  -23.3110   -0.2500  -14.5601 C   0  0  0  0  0  0  0  0  0  0  0  0
 27 28  1  0  0  0
 28 29  1  0  0  0
 28 33  2  0  0  0
 29 30  2  0  0  0
 30 31  1  0  0  0
 31 32  2  0  0  0
 32  1  1  0  0  0
 32 33  1  0  0  0
  1  2  1  0  0  0
  1 13  1  0  0  0
  2  3  2  0  0  0
  2  4  1  0  0  0
  4  5  1  0  0  0
  4 12  1  0  0  0
  5  6  1  0  0  0
  6  7  1  0  0  0
  7  8  1  0  0  0
  7 11  2  0  0  0
  8  9  2  0  0  0
  9 15  1  0  0  0
  9 10  1  0  0  0
 15 16  2  0  0  0
 15 24  1  0  0  0
 16 17  1  0  0  0
 17 18  1  0  0  0
 17 22  2  0  0  0
 18 19  2  0  0  0
 19 20  1  0  0  0
 20 21  2  0  0  0
 21 22  1  0  0  0
 22 23  1  0  0  0
 23 24  1  0  0  0
 23 26  1  0  0  0
 24 25  2  0  0  0
 10 11  1  0  0  0
 10 14  1  0  0  0
 11 12  1  0  0  0
M  END
> <minimizedAffinity>
-9.35039

$$$$
