CHEMBL3323597


 30 34  0  0  0  0  0  0  0  0999 V2000
  -17.5638    2.4319  -15.3186 C   0  0  0  0  0  0  0  0  0  0  0  0
  -18.4289    3.2544  -14.7521 N   0  0  0  0  0  0  0  0  0  0  0  0
  -19.6005    2.5542  -14.6459 C   0  0  0  0  0  0  0  0  0  0  0  0
  -20.8411    2.9746  -14.1648 C   0  0  0  0  0  0  0  0  0  0  0  0
  -21.8999    2.0606  -14.1853 C   0  0  0  0  0  0  0  0  0  0  0  0
  -21.7358    0.7297  -14.6111 C   0  0  0  0  0  0  0  0  0  0  0  0
  -20.4956    0.3181  -15.1284 C   0  0  0  0  0  0  0  0  0  0  0  0
  -19.4570    1.2575  -15.1205 C   0  0  0  0  0  0  0  0  0  0  0  0
  -18.1549    1.2079  -15.5382 N   0  0  0  0  0  0  0  0  0  0  0  0
  -17.6773    0.4274  -15.9665 H   0  0  0  0  0  0  0  0  0  0  0  0
  -16.5551    5.1295  -15.6672 O   0  0  0  0  0  0  0  0  0  0  0  0
  -15.7080    4.0631  -15.8503 C   0  0  0  0  0  0  0  0  0  0  0  0
  -14.3743    4.3104  -16.1885 C   0  0  0  0  0  0  0  0  0  0  0  0
  -13.4927    3.2432  -16.3652 C   0  0  0  0  0  0  0  0  0  0  0  0
  -13.9413    1.9350  -16.2072 C   0  0  0  0  0  0  0  0  0  0  0  0
  -15.2746    1.6925  -15.8732 C   0  0  0  0  0  0  0  0  0  0  0  0
  -16.1811    2.7503  -15.6896 C   0  0  0  0  0  0  0  0  0  0  0  0
  -16.0297    5.9463  -15.7281 H   0  0  0  0  0  0  0  0  0  0  0  0
  -22.8350   -0.1652  -14.6244 N   0  0  0  0  0  0  0  0  0  0  0  0
  -22.8334   -0.8096  -15.4065 H   0  0  0  0  0  0  0  0  0  0  0  0
  -23.4473   -0.7419  -13.4759 C   0  0  0  0  0  0  0  0  0  0  0  0
  -22.7239   -0.8705  -12.2867 C   0  0  0  0  0  0  0  0  0  0  0  0
  -23.3719   -1.3407  -11.1664 C   0  0  0  0  0  0  0  0  0  0  0  0
  -24.6631   -1.7213  -11.1558 N   0  0  0  0  0  0  0  0  0  0  0  0
  -25.3488   -1.6607  -12.3089 C   0  0  0  0  0  0  0  0  0  0  0  0
  -26.6823   -2.0428  -12.2986 C   0  0  0  0  0  0  0  0  0  0  0  0
  -27.4683   -2.0170  -13.4524 C   0  0  0  0  0  0  0  0  0  0  0  0
  -26.9119   -1.6042  -14.6553 C   0  0  0  0  0  0  0  0  0  0  0  0
  -25.5797   -1.1944  -14.6907 C   0  0  0  0  0  0  0  0  0  0  0  0
  -24.7835   -1.2044  -13.5224 C   0  0  0  0  0  0  0  0  0  0  0  0
 11 12  1  0  0  0
 11 18  1  0  0  0
 12 13  1  0  0  0
 12 17  2  0  0  0
 13 14  2  0  0  0
 14 15  1  0  0  0
 15 16  2  0  0  0
 16 17  1  0  0  0
 17  1  1  0  0  0
  1  2  2  0  0  0
  1  9  1  0  0  0
  2  3  1  0  0  0
  3  4  1  0  0  0
  3  8  2  0  0  0
  4  5  2  0  0  0
  5  6  1  0  0  0
  6 19  1  0  0  0
  6  7  2  0  0  0
 19 21  1  0  0  0
 19 20  1  0  0  0
 21 22  1  0  0  0
 21 30  2  0  0  0
 22 23  2  0  0  0
 23 24  1  0  0  0
 24 25  2  0  0  0
 25 26  1  0  0  0
 25 30  1  0  0  0
 26 27  2  0  0  0
 27 28  1  0  0  0
 28 29  2  0  0  0
 29 30  1  0  0  0
  7  8  1  0  0  0
  8  9  1  0  0  0
  9 10  1  0  0  0
M  END
> <minimizedAffinity>
-10.29815

$$$$
