CHEMBL98538


 19 21  0  0  0  0  0  0  0  0999 V2000
  -19.6697    2.3944  -14.8906 C   0  0  0  0  0  0  0  0  0  0  0  0
  -20.3568    3.5429  -14.5563 C   0  0  0  0  0  0  0  0  0  0  0  0
  -21.6590    3.3725  -14.1633 N   0  0  0  0  0  0  0  0  0  0  0  0
  -21.9887    2.1001  -14.1604 C   0  0  0  0  0  0  0  0  0  0  0  0
  -20.7302    1.0524  -14.7108 S   0  0  0  0  0  0  0  0  0  0  0  0
  -15.6240    2.0328  -16.2310 C   0  0  0  0  0  0  0  0  0  0  0  0
  -16.2882    3.2520  -16.3229 C   0  0  0  0  0  0  0  0  0  0  0  0
  -17.6038    3.3631  -15.8669 C   0  0  0  0  0  0  0  0  0  0  0  0
  -18.2740    2.2579  -15.3161 C   0  0  0  0  0  0  0  0  0  0  0  0
  -17.5888    1.0390  -15.2286 C   0  0  0  0  0  0  0  0  0  0  0  0
  -16.2719    0.9291  -15.6821 C   0  0  0  0  0  0  0  0  0  0  0  0
  -23.1719    1.5879  -13.7527 N   0  0  0  0  0  0  0  0  0  0  0  0
  -24.0197    1.9013  -14.2084 H   0  0  0  0  0  0  0  0  0  0  0  0
  -23.3680    0.2887  -13.2736 C   0  0  0  0  0  0  0  0  0  0  0  0
  -22.8088   -0.1877  -12.0874 C   0  0  0  0  0  0  0  0  0  0  0  0
  -22.9526   -1.5237  -11.7350 C   0  0  0  0  0  0  0  0  0  0  0  0
  -23.6894   -2.3581  -12.5567 C   0  0  0  0  0  0  0  0  0  0  0  0
  -24.2648   -1.8060  -13.6868 C   0  0  0  0  0  0  0  0  0  0  0  0
  -24.1220   -0.5114  -14.0586 N   0  0  0  0  0  0  0  0  0  0  0  0
  6  7  1  0  0  0
  6 11  2  0  0  0
  7  8  2  0  0  0
  8  9  1  0  0  0
  9  1  1  0  0  0
  9 10  2  0  0  0
  1  2  2  0  0  0
  1  5  1  0  0  0
  2  3  1  0  0  0
  3  4  2  0  0  0
  4 12  1  0  0  0
  4  5  1  0  0  0
 12 14  1  0  0  0
 12 13  1  0  0  0
 14 15  1  0  0  0
 14 19  2  0  0  0
 15 16  2  0  0  0
 16 17  1  0  0  0
 17 18  2  0  0  0
 18 19  1  0  0  0
 10 11  1  0  0  0
M  END
> <minimizedAffinity>
-8.21572

$$$$
