CHEMBL2386813


 37 40  0  0  0  0  0  0  0  0999 V2000
  -23.6621   -0.1571  -13.2186 C   0  0  0  0  0  0  0  0  0  0  0  0
  -23.9617   -0.3101  -11.8374 C   0  0  0  0  0  0  0  0  0  0  0  0
  -24.9542   -1.2522  -11.7464 C   0  0  0  0  0  0  0  0  0  0  0  0
  -25.1958   -1.6188  -13.0442 N   0  0  0  0  0  0  0  0  0  0  0  0
  -24.4436   -0.9681  -13.9500 N   0  0  0  0  0  0  0  0  0  0  0  0
  -25.8542   -2.3053  -13.3920 H   0  0  0  0  0  0  0  0  0  0  0  0
  -20.7026    2.5282  -14.8086 C   0  0  0  0  0  0  0  0  0  0  0  0
  -21.8784    2.9995  -14.2299 C   0  0  0  0  0  0  0  0  0  0  0  0
  -22.8321    2.1217  -13.7206 C   0  0  0  0  0  0  0  0  0  0  0  0
  -22.6522    0.7366  -13.7956 C   0  0  0  0  0  0  0  0  0  0  0  0
  -21.4932    0.2562  -14.4201 C   0  0  0  0  0  0  0  0  0  0  0  0
  -20.5292    1.1460  -14.9335 C   0  0  0  0  0  0  0  0  0  0  0  0
  -17.5550    4.1286  -15.7104 N   0  0  0  0  0  0  0  0  0  0  0  0
  -18.3333    3.1127  -15.2120 C   0  0  0  0  0  0  0  0  0  0  0  0
  -17.8361    2.0586  -14.8315 O   0  0  0  0  0  0  0  0  0  0  0  0
  -19.6850    3.4057  -15.2529 N   0  0  0  0  0  0  0  0  0  0  0  0
  -17.9079    5.0738  -15.6573 H   0  0  0  0  0  0  0  0  0  0  0  0
  -19.9588    4.1631  -15.8600 H   0  0  0  0  0  0  0  0  0  0  0  0
  -15.5393    4.4757  -17.1055 C   0  0  0  0  0  0  0  0  0  0  0  0
  -16.1178    3.9358  -15.8094 C   0  0  0  0  0  0  0  0  0  0  0  0
  -25.5893   -1.7309  -10.6034 N   0  0  0  0  0  0  0  0  0  0  0  0
  -26.9970   -1.5421  -10.3634 C   0  0  0  0  0  0  0  0  0  0  0  0
  -27.7113   -0.9544  -11.1675 O   0  0  0  0  0  0  0  0  0  0  0  0
  -25.0423   -2.2685   -9.9435 H   0  0  0  0  0  0  0  0  0  0  0  0
  -27.5844   -2.1157   -9.1355 C   0  0  0  0  0  0  0  0  0  0  0  0
  -27.8280   -1.3530   -7.9966 C   0  0  0  0  0  0  0  0  0  0  0  0
  -28.4078   -1.9648   -6.8828 C   0  0  0  0  0  0  0  0  0  0  0  0
  -28.7542   -3.3290   -6.8677 C   0  0  0  0  0  0  0  0  0  0  0  0
  -28.5322   -4.0629   -8.0340 C   0  0  0  0  0  0  0  0  0  0  0  0
  -27.9505   -3.4683   -9.1569 C   0  0  0  0  0  0  0  0  0  0  0  0
  -29.3428   -3.8623   -5.7420 N   0  0  0  0  0  0  0  0  0  0  0  0
  -29.3012   -5.2997   -5.4268 C   0  0  0  0  0  0  0  0  0  0  0  0
  -30.5916   -5.6737   -4.6533 C   0  0  0  0  0  0  0  0  0  0  0  0
  -30.7778   -4.8572   -3.4293 N   0  0  0  0  0  0  0  0  0  0  0  0
  -32.0247   -5.2115   -2.7574 C   0  0  0  0  0  0  0  0  0  0  0  0
  -30.7750   -3.4216   -3.7919 C   0  0  0  0  0  0  0  0  0  0  0  0
  -29.4918   -3.0119   -4.5457 C   0  0  0  0  0  0  0  0  0  0  0  0
 19 20  1  0  0  0
 20 13  1  0  0  0
 13 14  1  0  0  0
 13 17  1  0  0  0
 14 15  2  0  0  0
 14 16  1  0  0  0
 16  7  1  0  0  0
 16 18  1  0  0  0
  7  8  1  0  0  0
  7 12  2  0  0  0
  8  9  2  0  0  0
  9 10  1  0  0  0
 10  1  1  0  0  0
 10 11  2  0  0  0
  1  2  1  0  0  0
  1  5  2  0  0  0
  2  3  2  0  0  0
  3 21  1  0  0  0
  3  4  1  0  0  0
 21 22  1  0  0  0
 21 24  1  0  0  0
 22 23  2  0  0  0
 22 25  1  0  0  0
 25 26  1  0  0  0
 25 30  2  0  0  0
 26 27  2  0  0  0
 27 28  1  0  0  0
 28 31  1  0  0  0
 28 29  2  0  0  0
 31 32  1  0  0  0
 31 37  1  0  0  0
 32 33  1  0  0  0
 33 34  1  0  0  0
 34 35  1  0  0  0
 34 36  1  0  0  0
 36 37  1  0  0  0
 29 30  1  0  0  0
  4  5  1  0  0  0
  4  6  1  0  0  0
 11 12  1  0  0  0
M  END
> <minimizedAffinity>
-11.05651

$$$$
