CHEMBL470073


 32 35  0  0  0  0  0  0  0  0999 V2000
  -24.5355   -1.3673  -12.6104 C   0  0  0  0  0  0  0  0  0  0  0  0
  -23.3239   -1.1783  -11.9302 C   0  0  0  0  0  0  0  0  0  0  0  0
  -22.3248   -0.3391  -12.4308 C   0  0  0  0  0  0  0  0  0  0  0  0
  -22.4975    0.2954  -13.6554 C   0  0  0  0  0  0  0  0  0  0  0  0
  -23.6598    0.0342  -14.3957 C   0  0  0  0  0  0  0  0  0  0  0  0
  -24.6713   -0.7986  -13.8769 C   0  0  0  0  0  0  0  0  0  0  0  0
  -21.4778    1.2387  -14.1278 C   0  0  0  0  0  0  0  0  0  0  0  0
  -21.6515    2.7069  -13.8768 C   0  0  0  0  0  0  0  0  0  0  0  0
  -20.8415    3.6618  -14.2211 N   0  0  0  0  0  0  0  0  0  0  0  0
  -19.7128    3.2630  -14.8757 C   0  0  0  0  0  0  0  0  0  0  0  0
  -18.6610    3.9815  -15.3915 C   0  0  0  0  0  0  0  0  0  0  0  0
  -17.7991    3.0290  -15.9688 C   0  0  0  0  0  0  0  0  0  0  0  0
  -16.5185    3.2806  -16.6734 C   0  0  0  0  0  0  0  0  0  0  0  0
  -18.2623    1.7811  -15.8325 N   0  0  0  0  0  0  0  0  0  0  0  0
  -19.4338    1.9188  -15.1378 N   0  0  0  0  0  0  0  0  0  0  0  0
  -20.3259    0.8831  -14.7402 C   0  0  0  0  0  0  0  0  0  0  0  0
  -19.9447   -0.4286  -15.0255 N   0  0  0  0  0  0  0  0  0  0  0  0
  -19.2423   -0.4636  -15.7682 H   0  0  0  0  0  0  0  0  0  0  0  0
  -20.7166   -1.0776  -15.1432 H   0  0  0  0  0  0  0  0  0  0  0  0
  -27.0874   -2.6671  -10.3042 N   0  0  0  0  0  0  0  0  0  0  0  0
  -26.0678   -1.8392  -10.7366 C   0  0  0  0  0  0  0  0  0  0  0  0
  -25.5869   -0.9403  -10.0499 O   0  0  0  0  0  0  0  0  0  0  0  0
  -25.6292   -2.0856  -12.0306 N   0  0  0  0  0  0  0  0  0  0  0  0
  -27.4309   -3.3780  -10.9312 H   0  0  0  0  0  0  0  0  0  0  0  0
  -26.2843   -2.5137  -12.6642 H   0  0  0  0  0  0  0  0  0  0  0  0
  -28.1516   -0.0547   -6.1884 C   0  0  0  0  0  0  0  0  0  0  0  0
  -28.2032   -1.3263   -6.9835 C   0  0  0  0  0  0  0  0  0  0  0  0
  -28.8265   -2.4479   -6.4267 C   0  0  0  0  0  0  0  0  0  0  0  0
  -28.8861   -3.6320   -7.1390 C   0  0  0  0  0  0  0  0  0  0  0  0
  -28.3216   -3.7045   -8.4089 C   0  0  0  0  0  0  0  0  0  0  0  0
  -27.6823   -2.6057   -9.0036 C   0  0  0  0  0  0  0  0  0  0  0  0
  -27.6356   -1.4086   -8.2750 C   0  0  0  0  0  0  0  0  0  0  0  0
 26 27  1  0  0  0
 27 28  1  0  0  0
 27 32  2  0  0  0
 28 29  2  0  0  0
 29 30  1  0  0  0
 30 31  2  0  0  0
 31 20  1  0  0  0
 31 32  1  0  0  0
 20 21  1  0  0  0
 20 24  1  0  0  0
 21 22  2  0  0  0
 21 23  1  0  0  0
 23  1  1  0  0  0
 23 25  1  0  0  0
  1  2  1  0  0  0
  1  6  2  0  0  0
  2  3  2  0  0  0
  3  4  1  0  0  0
  4  7  1  0  0  0
  4  5  2  0  0  0
  7  8  1  0  0  0
  7 16  2  0  0  0
  8  9  2  0  0  0
  9 10  1  0  0  0
 10 11  2  0  0  0
 10 15  1  0  0  0
 11 12  1  0  0  0
 12 13  1  0  0  0
 12 14  2  0  0  0
 14 15  1  0  0  0
 15 16  1  0  0  0
 16 17  1  0  0  0
 17 18  1  0  0  0
 17 19  1  0  0  0
  5  6  1  0  0  0
M  END
> <minimizedAffinity>
-10.55468

$$$$
