CHEMBL3903877


 39 43  0  0  0  0  0  0  0  0999 V2000
  -16.6586    1.6450  -14.5139 C   0  0  0  0  0  0  0  0  0  0  0  0
  -17.8940    2.0491  -14.0993 N   0  0  0  0  0  0  0  0  0  0  0  0
  -18.6419    2.7800  -14.9482 C   0  0  0  0  0  0  0  0  0  0  0  0
  -18.1865    3.2138  -16.1312 N   0  0  0  0  0  0  0  0  0  0  0  0
  -16.9558    2.8491  -16.4999 C   0  0  0  0  0  0  0  0  0  0  0  0
  -16.1351    2.0410  -15.7414 C   0  0  0  0  0  0  0  0  0  0  0  0
  -14.8260    1.6732  -16.3579 C   0  0  0  0  0  0  0  0  0  0  0  0
  -14.6263    0.3547  -16.6024 F   0  0  0  0  0  0  0  0  0  0  0  0
  -14.6491    2.2965  -17.5584 F   0  0  0  0  0  0  0  0  0  0  0  0
  -13.7687    2.0605  -15.5900 F   0  0  0  0  0  0  0  0  0  0  0  0
  -19.9573    3.0848  -14.6017 N   0  0  0  0  0  0  0  0  0  0  0  0
  -20.0488    3.9591  -14.1138 H   0  0  0  0  0  0  0  0  0  0  0  0
  -20.9947    2.1496  -14.4291 C   0  0  0  0  0  0  0  0  0  0  0  0
  -22.2256    2.5128  -13.8725 C   0  0  0  0  0  0  0  0  0  0  0  0
  -23.1849    1.5542  -13.5432 C   0  0  0  0  0  0  0  0  0  0  0  0
  -22.9596    0.1823  -13.7379 C   0  0  0  0  0  0  0  0  0  0  0  0
  -21.7487   -0.1585  -14.3733 C   0  0  0  0  0  0  0  0  0  0  0  0
  -20.7881    0.8037  -14.7256 C   0  0  0  0  0  0  0  0  0  0  0  0
  -23.9907   -0.9143  -13.2403 C   0  0  0  0  0  0  0  0  0  0  0  0
  -24.8464   -0.6246  -11.9873 C   0  0  0  0  0  0  0  0  0  0  0  0
  -24.6712   -2.0311  -11.5631 N   0  0  0  0  0  0  0  0  0  0  0  0
  -23.4702   -2.1236  -12.4209 C   0  0  0  0  0  0  0  0  0  0  0  0
  -25.4288   -2.6416  -11.8696 H   0  0  0  0  0  0  0  0  0  0  0  0
  -15.8647    0.7999  -13.5332 C   0  0  0  0  0  0  0  0  0  0  0  0
  -15.9431   -0.7292  -13.7186 C   0  0  0  0  0  0  0  0  0  0  0  0
  -14.4181   -2.6447  -12.8062 C   0  0  0  0  0  0  0  0  0  0  0  0
  -13.1072   -2.9940  -12.4059 C   0  0  0  0  0  0  0  0  0  0  0  0
  -11.9941   -2.2265  -12.7506 C   0  0  0  0  0  0  0  0  0  0  0  0
  -12.1630   -1.0737  -13.5007 C   0  0  0  0  0  0  0  0  0  0  0  0
  -13.4486   -0.6403  -13.8128 C   0  0  0  0  0  0  0  0  0  0  0  0
  -14.5900   -1.3846  -13.4415 C   0  0  0  0  0  0  0  0  0  0  0  0
  -15.5337   -3.6840  -12.5994 C   0  0  0  0  0  0  0  0  0  0  0  0
  -16.3013   -4.0960  -13.8576 C   0  0  0  0  0  0  0  0  0  0  0  0
  -15.3662   -5.0757  -13.2508 C   0  0  0  0  0  0  0  0  0  0  0  0
  -15.8912   -2.6862  -10.4103 N   0  0  0  0  0  0  0  0  0  0  0  0
  -16.1394   -3.7602  -11.2230 C   0  0  0  0  0  0  0  0  0  0  0  0
  -16.8084   -4.7161  -10.8626 O   0  0  0  0  0  0  0  0  0  0  0  0
  -16.2946   -2.6915   -9.4896 H   0  0  0  0  0  0  0  0  0  0  0  0
  -15.3386   -1.8998  -10.7170 H   0  0  0  0  0  0  0  0  0  0  0  0
 35 36  1  0  0  0
 35 38  1  0  0  0
 35 39  1  0  0  0
 36 37  2  0  0  0
 36 32  1  0  0  0
 32 26  1  0  0  0
 32 33  1  0  0  0
 32 34  1  0  0  0
 26 27  1  0  0  0
 26 31  2  0  0  0
 27 28  2  0  0  0
 28 29  1  0  0  0
 29 30  2  0  0  0
 30 31  1  0  0  0
 31 25  1  0  0  0
 25 24  1  0  0  0
 24  1  1  0  0  0
  1  2  1  0  0  0
  1  6  2  0  0  0
  2  3  2  0  0  0
  3 11  1  0  0  0
  3  4  1  0  0  0
 11 13  1  0  0  0
 11 12  1  0  0  0
 13 14  1  0  0  0
 13 18  2  0  0  0
 14 15  2  0  0  0
 15 16  1  0  0  0
 16 19  1  0  0  0
 16 17  2  0  0  0
 19 20  1  0  0  0
 19 22  1  0  0  0
 20 21  1  0  0  0
 21 22  1  0  0  0
 21 23  1  0  0  0
 17 18  1  0  0  0
  4  5  2  0  0  0
  5  6  1  0  0  0
  6  7  1  0  0  0
  7  8  1  0  0  0
  7  9  1  0  0  0
  7 10  1  0  0  0
 33 34  1  0  0  0
M  END
> <minimizedAffinity>
-9.36790

$$$$
