CHEMBL1242026


 24 26  0  0  0  0  0  0  0  0999 V2000
  -29.2913   -4.6740   -6.5119 C   0  0  0  0  0  0  0  0  0  0  0  0
  -29.9509   -4.5948   -5.3402 N   0  0  0  0  0  0  0  0  0  0  0  0
  -29.7316   -3.3360   -4.9098 N   0  0  0  0  0  0  0  0  0  0  0  0
  -28.9866   -2.5882   -5.7786 C   0  0  0  0  0  0  0  0  0  0  0  0
  -28.6123   -1.3059   -5.6209 N   0  0  0  0  0  0  0  0  0  0  0  0
  -27.8909   -0.8743   -6.6643 C   0  0  0  0  0  0  0  0  0  0  0  0
  -27.5561   -1.5545   -7.7762 N   0  0  0  0  0  0  0  0  0  0  0  0
  -27.9607   -2.8352   -7.8986 C   0  0  0  0  0  0  0  0  0  0  0  0
  -27.6138   -3.4645   -9.0862 N   0  0  0  0  0  0  0  0  0  0  0  0
  -28.6972   -3.4160   -6.8547 C   0  0  0  0  0  0  0  0  0  0  0  0
  -27.2813   -2.7831   -9.7597 H   0  0  0  0  0  0  0  0  0  0  0  0
  -28.3039   -4.1177   -9.4358 H   0  0  0  0  0  0  0  0  0  0  0  0
  -29.1847   -9.6712   -9.4458 C   0  0  0  0  0  0  0  0  0  0  0  0
  -29.1964   -8.3880   -8.6680 C   0  0  0  0  0  0  0  0  0  0  0  0
  -30.3112   -8.0427   -7.8983 C   0  0  0  0  0  0  0  0  0  0  0  0
  -30.3528   -6.8235   -7.2170 C   0  0  0  0  0  0  0  0  0  0  0  0
  -29.2620   -5.9464   -7.2427 C   0  0  0  0  0  0  0  0  0  0  0  0
  -28.1461   -6.2895   -8.0205 C   0  0  0  0  0  0  0  0  0  0  0  0
  -28.1253   -7.4928   -8.7295 C   0  0  0  0  0  0  0  0  0  0  0  0
  -27.0507   -7.8123   -9.5119 O   0  0  0  0  0  0  0  0  0  0  0  0
  -26.4506   -7.0488   -9.5384 H   0  0  0  0  0  0  0  0  0  0  0  0
  -30.2810   -2.8924   -3.6326 C   0  0  0  0  0  0  0  0  0  0  0  0
  -31.4054   -3.8138   -3.1569 C   0  0  0  0  0  0  0  0  0  0  0  0
  -29.1947   -2.7589   -2.5646 C   0  0  0  0  0  0  0  0  0  0  0  0
 13 14  1  0  0  0
 14 15  1  0  0  0
 14 19  2  0  0  0
 15 16  2  0  0  0
 16 17  1  0  0  0
 17  1  1  0  0  0
 17 18  2  0  0  0
  1  2  2  0  0  0
  1 10  1  0  0  0
  2  3  1  0  0  0
  3 22  1  0  0  0
  3  4  1  0  0  0
 22 23  1  0  0  0
 22 24  1  0  0  0
  4  5  1  0  0  0
  4 10  2  0  0  0
  5  6  2  0  0  0
  6  7  1  0  0  0
  7  8  2  0  0  0
  8  9  1  0  0  0
  8 10  1  0  0  0
  9 11  1  0  0  0
  9 12  1  0  0  0
 18 19  1  0  0  0
 19 20  1  0  0  0
 20 21  1  0  0  0
M  END
> <minimizedAffinity>
-8.33455

$$$$
