CHEMBL3904674


 36 40  0  0  0  0  0  0  0  0999 V2000
  -28.7019  -10.1208   -5.5618 N   0  0  0  0  0  0  0  0  0  0  0  0
  -28.6959   -8.6691   -5.2819 C   0  0  0  0  0  0  0  0  0  0  0  0
  -29.7265   -8.0938   -5.9338 C   0  0  0  0  0  0  0  0  0  0  0  0
  -29.7741   -6.8424   -6.1466 C   0  0  0  0  0  0  0  0  0  0  0  0
  -28.9270   -5.9927   -5.6703 C   0  0  0  0  0  0  0  0  0  0  0  0
  -29.0221   -4.9692   -6.4186 N   0  0  0  0  0  0  0  0  0  0  0  0
  -28.6012   -3.8202   -6.2005 C   0  0  0  0  0  0  0  0  0  0  0  0
  -28.1950   -3.4675   -4.9645 C   0  0  0  0  0  0  0  0  0  0  0  0
  -27.6518   -4.6972   -4.2486 N   0  0  0  0  0  0  0  0  0  0  0  0
  -27.9957   -6.0958   -4.7010 C   0  0  0  0  0  0  0  0  0  0  0  0
  -27.7799   -7.6929   -4.4951 C   0  0  0  0  0  0  0  0  0  0  0  0
  -28.6125   -1.8440   -5.0501 C   0  0  0  0  0  0  0  0  0  0  0  0
  -27.6743   -0.7701   -4.7433 C   0  0  0  0  0  0  0  0  0  0  0  0
  -28.1729    0.4408   -4.8907 N   0  0  0  0  0  0  0  0  0  0  0  0
  -29.4314    0.3392   -5.3243 N   0  0  0  0  0  0  0  0  0  0  0  0
  -30.2665    1.5769   -5.5697 C   0  0  0  0  0  0  0  0  0  0  0  0
  -29.7641   -1.0090   -5.4452 C   0  0  0  0  0  0  0  0  0  0  0  0
  -31.4268  -11.8915   -7.5593 C   0  0  0  0  0  0  0  0  0  0  0  0
  -30.8112  -11.9489   -8.7946 C   0  0  0  0  0  0  0  0  0  0  0  0
  -29.5471  -11.4476   -8.9962 C   0  0  0  0  0  0  0  0  0  0  0  0
  -28.8631  -10.8474   -7.9325 C   0  0  0  0  0  0  0  0  0  0  0  0
  -29.4078  -10.8303   -6.6157 C   0  0  0  0  0  0  0  0  0  0  0  0
  -30.7118  -11.3719   -6.4354 C   0  0  0  0  0  0  0  0  0  0  0  0
  -33.6710  -12.3357   -6.5922 C   0  0  0  0  0  0  0  0  0  0  0  0
  -32.7020  -12.3601   -7.5635 O   0  0  0  0  0  0  0  0  0  0  0  0
  -29.0611  -11.5430  -10.2535 O   0  0  0  0  0  0  0  0  0  0  0  0
  -28.9391  -10.5277  -11.1622 C   0  0  0  0  0  0  0  0  0  0  0  0
  -27.6250  -11.0078   -4.9086 C   0  0  0  0  0  0  0  0  0  0  0  0
  -26.2467  -10.8645   -5.5438 C   0  0  0  0  0  0  0  0  0  0  0  0
  -25.1263  -11.3665   -4.6538 C   0  0  0  0  0  0  0  0  0  0  0  0
  -23.9558  -11.7811   -5.4559 N   0  0  0  0  0  0  0  0  0  0  0  0
  -24.1345  -11.4247   -6.8802 C   0  0  0  0  0  0  0  0  0  0  0  0
  -22.9339  -11.8351   -7.7183 C   0  0  0  0  0  0  0  0  0  0  0  0
  -21.6849  -11.1552   -7.1844 C   0  0  0  0  0  0  0  0  0  0  0  0
  -21.5070  -11.4930   -5.7019 C   0  0  0  0  0  0  0  0  0  0  0  0
  -22.7657  -11.0987   -4.9132 C   0  0  0  0  0  0  0  0  0  0  0  0
 24 25  1  0  0  0
 25 18  1  0  0  0
 18 19  1  0  0  0
 18 23  2  0  0  0
 19 20  2  0  0  0
 20 26  1  0  0  0
 20 21  1  0  0  0
 26 27  1  0  0  0
 21 22  2  0  0  0
 22  1  1  0  0  0
 22 23  1  0  0  0
  1 28  1  0  0  0
  1  2  1  0  0  0
 28 29  1  0  0  0
 29 30  1  0  0  0
 30 31  1  0  0  0
 31 32  1  0  0  0
 31 36  1  0  0  0
 32 33  1  0  0  0
 33 34  1  0  0  0
 34 35  1  0  0  0
 35 36  1  0  0  0
  2  3  1  0  0  0
  2 11  2  0  0  0
  3  4  2  0  0  0
  4  5  1  0  0  0
  5  6  1  0  0  0
  5 10  2  0  0  0
  6  7  2  0  0  0
  7  8  1  0  0  0
  8 12  1  0  0  0
  8  9  2  0  0  0
 12 13  1  0  0  0
 12 17  2  0  0  0
 13 14  2  0  0  0
 14 15  1  0  0  0
 15 16  1  0  0  0
 15 17  1  0  0  0
  9 10  1  0  0  0
 10 11  1  0  0  0
M  END
> <minimizedAffinity>
-7.76644

$$$$
