CHEMBL3288523


 30 34  0  0  0  0  0  0  0  0999 V2000
  -29.7317   -6.7591   -6.9225 C   0  0  0  0  0  0  0  0  0  0  0  0
  -28.9537   -5.6150   -7.1485 C   0  0  0  0  0  0  0  0  0  0  0  0
  -28.9866   -4.5164   -6.2814 C   0  0  0  0  0  0  0  0  0  0  0  0
  -29.8940   -4.4451   -5.1968 C   0  0  0  0  0  0  0  0  0  0  0  0
  -30.0743   -3.3311   -4.3269 C   0  0  0  0  0  0  0  0  0  0  0  0
  -31.0072   -3.3918   -3.2745 C   0  0  0  0  0  0  0  0  0  0  0  0
  -31.7698   -4.5323   -3.0692 C   0  0  0  0  0  0  0  0  0  0  0  0
  -31.5910   -5.6298   -3.8999 C   0  0  0  0  0  0  0  0  0  0  0  0
  -30.6641   -5.6046   -4.9525 C   0  0  0  0  0  0  0  0  0  0  0  0
  -30.5147   -6.7457   -5.7621 C   0  0  0  0  0  0  0  0  0  0  0  0
  -32.8256   -8.2256   -6.7623 N   0  0  0  0  0  0  0  0  0  0  0  0
  -32.1093   -9.0400   -7.5537 C   0  0  0  0  0  0  0  0  0  0  0  0
  -32.6628  -10.1559   -8.0174 N   0  0  0  0  0  0  0  0  0  0  0  0
  -31.7136  -10.6834   -8.7909 N   0  0  0  0  0  0  0  0  0  0  0  0
  -30.5599   -9.9519   -8.8508 C   0  0  0  0  0  0  0  0  0  0  0  0
  -29.3909  -10.1916   -9.5758 C   0  0  0  0  0  0  0  0  0  0  0  0
  -28.3553   -9.2803   -9.4297 C   0  0  0  0  0  0  0  0  0  0  0  0
  -28.4894   -8.1903   -8.5734 C   0  0  0  0  0  0  0  0  0  0  0  0
  -29.6726   -7.9302   -7.8295 C   0  0  0  0  0  0  0  0  0  0  0  0
  -30.7548   -8.8534   -8.0030 C   0  0  0  0  0  0  0  0  0  0  0  0
  -33.8075   -8.4659   -6.6776 H   0  0  0  0  0  0  0  0  0  0  0  0
  -32.6665   -7.2261   -6.8049 H   0  0  0  0  0  0  0  0  0  0  0  0
  -31.9132  -11.5559   -9.2650 H   0  0  0  0  0  0  0  0  0  0  0  0
  -29.3080   -2.0529   -4.4180 C   0  0  0  0  0  0  0  0  0  0  0  0
  -28.2409   -1.9451   -3.8190 O   0  0  0  0  0  0  0  0  0  0  0  0
  -29.8803   -1.0203   -5.1373 N   0  0  0  0  0  0  0  0  0  0  0  0
  -30.8356   -1.1129   -5.4589 H   0  0  0  0  0  0  0  0  0  0  0  0
  -29.2152    0.2311   -5.3256 C   0  0  0  0  0  0  0  0  0  0  0  0
  -29.8808    1.3493   -6.0793 C   0  0  0  0  0  0  0  0  0  0  0  0
  -28.7083    0.6359   -6.6838 C   0  0  0  0  0  0  0  0  0  0  0  0
 11 12  1  0  0  0
 11 21  1  0  0  0
 11 22  1  0  0  0
 12 13  2  0  0  0
 12 20  1  0  0  0
 13 14  1  0  0  0
 14 15  1  0  0  0
 14 23  1  0  0  0
 15 16  1  0  0  0
 15 20  2  0  0  0
 16 17  2  0  0  0
 17 18  1  0  0  0
 18 19  2  0  0  0
 19  1  1  0  0  0
 19 20  1  0  0  0
  1  2  1  0  0  0
  1 10  2  0  0  0
  2  3  2  0  0  0
  3  4  1  0  0  0
  4  5  1  0  0  0
  4  9  2  0  0  0
  5 24  1  0  0  0
  5  6  2  0  0  0
 24 25  2  0  0  0
 24 26  1  0  0  0
 26 28  1  0  0  0
 26 27  1  0  0  0
 28 29  1  0  0  0
 28 30  1  0  0  0
 29 30  1  0  0  0
  6  7  1  0  0  0
  7  8  2  0  0  0
  8  9  1  0  0  0
  9 10  1  0  0  0
M  END
> <minimizedAffinity>
-10.71496

$$$$
