CHEMBL306380


 23 25  0  0  0  0  0  0  0  0999 V2000
  -29.5403   -4.7454   -6.3345 C   0  0  0  0  0  0  0  0  0  0  0  0
  -28.8085   -3.7180   -6.8021 N   0  0  0  0  0  0  0  0  0  0  0  0
  -28.9607   -2.7306   -5.8883 N   0  0  0  0  0  0  0  0  0  0  0  0
  -29.7430   -3.1134   -4.8251 C   0  0  0  0  0  0  0  0  0  0  0  0
  -30.0792   -2.3674   -3.7606 N   0  0  0  0  0  0  0  0  0  0  0  0
  -30.8591   -3.0426   -2.9025 C   0  0  0  0  0  0  0  0  0  0  0  0
  -31.2803   -4.3150   -3.0006 N   0  0  0  0  0  0  0  0  0  0  0  0
  -30.9179   -5.0342   -4.0816 C   0  0  0  0  0  0  0  0  0  0  0  0
  -31.3611   -6.3493   -4.0999 N   0  0  0  0  0  0  0  0  0  0  0  0
  -30.1254   -4.4242   -5.0689 C   0  0  0  0  0  0  0  0  0  0  0  0
  -31.7248   -6.6105   -3.1898 H   0  0  0  0  0  0  0  0  0  0  0  0
  -30.7083   -7.0070   -4.5096 H   0  0  0  0  0  0  0  0  0  0  0  0
  -29.7566   -9.8796   -8.9945 C   0  0  0  0  0  0  0  0  0  0  0  0
  -29.7069   -8.5146   -8.3759 C   0  0  0  0  0  0  0  0  0  0  0  0
  -28.5457   -7.7362   -8.4184 C   0  0  0  0  0  0  0  0  0  0  0  0
  -28.5032   -6.4911   -7.7797 C   0  0  0  0  0  0  0  0  0  0  0  0
  -29.6230   -5.9981   -7.0949 C   0  0  0  0  0  0  0  0  0  0  0  0
  -30.8064   -6.7439   -7.1373 C   0  0  0  0  0  0  0  0  0  0  0  0
  -30.8399   -8.0044   -7.7373 C   0  0  0  0  0  0  0  0  0  0  0  0
  -28.3429   -1.4083   -6.1141 C   0  0  0  0  0  0  0  0  0  0  0  0
  -29.3646   -0.2609   -5.9173 C   0  0  0  0  0  0  0  0  0  0  0  0
  -27.1950   -1.1825   -5.1108 C   0  0  0  0  0  0  0  0  0  0  0  0
  -27.8000   -1.2915   -7.5527 C   0  0  0  0  0  0  0  0  0  0  0  0
 13 14  1  0  0  0
 14 15  1  0  0  0
 14 19  2  0  0  0
 15 16  2  0  0  0
 16 17  1  0  0  0
 17  1  1  0  0  0
 17 18  2  0  0  0
  1  2  2  0  0  0
  1 10  1  0  0  0
  2  3  1  0  0  0
  3 20  1  0  0  0
  3  4  1  0  0  0
 20 21  1  0  0  0
 20 22  1  0  0  0
 20 23  1  0  0  0
  4  5  1  0  0  0
  4 10  2  0  0  0
  5  6  2  0  0  0
  6  7  1  0  0  0
  7  8  2  0  0  0
  8  9  1  0  0  0
  8 10  1  0  0  0
  9 11  1  0  0  0
  9 12  1  0  0  0
 18 19  1  0  0  0
M  END
> <minimizedAffinity>
-8.08223

$$$$
