CHEMBL1997119


 18 20  0  0  0  0  0  0  0  0999 V2000
  -30.3961   -3.0636   -3.0038 N   0  0  0  0  0  0  0  0  0  0  0  0
  -30.5427   -4.1319   -3.8074 C   0  0  0  0  0  0  0  0  0  0  0  0
  -31.1382   -5.2433   -3.4347 N   0  0  0  0  0  0  0  0  0  0  0  0
  -31.0579   -6.0930   -4.5026 C   0  0  0  0  0  0  0  0  0  0  0  0
  -30.4141   -5.4922   -5.5575 C   0  0  0  0  0  0  0  0  0  0  0  0
  -30.0477   -5.8919   -6.8694 C   0  0  0  0  0  0  0  0  0  0  0  0
  -29.3940   -5.0252   -7.6605 C   0  0  0  0  0  0  0  0  0  0  0  0
  -29.0462   -3.6916   -7.2031 C   0  0  0  0  0  0  0  0  0  0  0  0
  -29.3842   -3.2960   -5.9541 C   0  0  0  0  0  0  0  0  0  0  0  0
  -30.0734   -4.2076   -5.1231 N   0  0  0  0  0  0  0  0  0  0  0  0
  -30.9230   -3.0822   -2.1363 H   0  0  0  0  0  0  0  0  0  0  0  0
  -30.2175   -2.1341   -3.3654 H   0  0  0  0  0  0  0  0  0  0  0  0
  -28.9870   -1.9381   -5.5543 C   0  0  0  0  0  0  0  0  0  0  0  0
  -29.8927   -0.8715   -5.6458 C   0  0  0  0  0  0  0  0  0  0  0  0
  -29.4877    0.4245   -5.3182 C   0  0  0  0  0  0  0  0  0  0  0  0
  -28.1827    0.6629   -4.8915 C   0  0  0  0  0  0  0  0  0  0  0  0
  -27.2775   -0.3927   -4.7945 C   0  0  0  0  0  0  0  0  0  0  0  0
  -27.6755   -1.6876   -5.1312 C   0  0  0  0  0  0  0  0  0  0  0  0
  1  2  1  0  0  0
  1 11  1  0  0  0
  1 12  1  0  0  0
  2  3  2  0  0  0
  2 10  1  0  0  0
  3  4  1  0  0  0
  4  5  2  0  0  0
  5  6  1  0  0  0
  5 10  1  0  0  0
  6  7  2  0  0  0
  7  8  1  0  0  0
  8  9  2  0  0  0
  9 13  1  0  0  0
  9 10  1  0  0  0
 13 14  1  0  0  0
 13 18  2  0  0  0
 14 15  2  0  0  0
 15 16  1  0  0  0
 16 17  2  0  0  0
 17 18  1  0  0  0
M  END
> <minimizedAffinity>
-7.39952

$$$$
