CHEMBL243837


 42 45  0  0  0  0  0  0  0  0999 V2000
  -28.3553   -2.3276   -6.7840 C   0  0  0  0  0  0  0  0  0  0  0  0
  -29.1673   -2.7876   -5.7276 C   0  0  0  0  0  0  0  0  0  0  0  0
  -29.7485   -4.0575   -5.7066 C   0  0  0  0  0  0  0  0  0  0  0  0
  -30.4997   -4.4197   -4.6652 N   0  0  0  0  0  0  0  0  0  0  0  0
  -31.0607   -5.6359   -4.7062 C   0  0  0  0  0  0  0  0  0  0  0  0
  -30.9148   -6.5403   -5.6778 N   0  0  0  0  0  0  0  0  0  0  0  0
  -30.1217   -6.1963   -6.7020 C   0  0  0  0  0  0  0  0  0  0  0  0
  -29.5376   -4.9012   -6.7939 C   0  0  0  0  0  0  0  0  0  0  0  0
  -28.7900   -4.3805   -7.8777 C   0  0  0  0  0  0  0  0  0  0  0  0
  -28.1010   -3.1704   -7.8624 C   0  0  0  0  0  0  0  0  0  0  0  0
  -27.1940   -2.8992   -8.9284 N   0  0  0  0  0  0  0  0  0  0  0  0
  -27.3777   -1.9524   -9.9012 C   0  0  0  0  0  0  0  0  0  0  0  0
  -28.3111   -1.1266   -9.9522 O   0  0  0  0  0  0  0  0  0  0  0  0
  -26.2977   -3.3726   -8.9244 H   0  0  0  0  0  0  0  0  0  0  0  0
  -26.3050   -1.8719  -10.9079 C   0  0  0  0  0  0  0  0  0  0  0  0
  -26.6812   -1.8190  -12.2006 C   0  0  0  0  0  0  0  0  0  0  0  0
  -25.7769   -1.5533  -13.3657 C   0  0  0  0  0  0  0  0  0  0  0  0
  -24.4148   -1.1524  -12.9745 N   0  0  0  0  0  0  0  0  0  0  0  0
  -23.5498   -2.2909  -12.6462 C   0  0  0  0  0  0  0  0  0  0  0  0
  -23.7954   -0.3944  -14.0690 C   0  0  0  0  0  0  0  0  0  0  0  0
  -29.8860   -7.2444   -7.6071 N   0  0  0  0  0  0  0  0  0  0  0  0
  -30.6245   -7.3458   -8.2993 H   0  0  0  0  0  0  0  0  0  0  0  0
  -28.7256   -7.9596   -7.8079 C   0  0  0  0  0  0  0  0  0  0  0  0
  -28.0073   -7.9144   -8.9373 C   0  0  0  0  0  0  0  0  0  0  0  0
  -27.0865   -8.9947   -9.3212 C   0  0  0  0  0  0  0  0  0  0  0  0
  -26.6961   -9.0422  -10.4889 O   0  0  0  0  0  0  0  0  0  0  0  0
  -26.7597  -10.0403   -8.3047 C   0  0  0  0  0  0  0  0  0  0  0  0
  -27.3491   -9.9722   -7.1045 C   0  0  0  0  0  0  0  0  0  0  0  0
  -28.3317   -8.9346   -6.7455 C   0  0  0  0  0  0  0  0  0  0  0  0
  -28.8428   -8.9130   -5.6234 O   0  0  0  0  0  0  0  0  0  0  0  0
  -25.9291  -11.1244   -8.5626 O   0  0  0  0  0  0  0  0  0  0  0  0
  -25.6573  -12.0067   -7.4730 C   0  0  0  0  0  0  0  0  0  0  0  0
  -24.1906  -11.9176   -7.1258 C   0  0  0  0  0  0  0  0  0  0  0  0
  -23.2271  -12.1033   -8.1291 C   0  0  0  0  0  0  0  0  0  0  0  0
  -21.8663  -12.0556   -7.8266 C   0  0  0  0  0  0  0  0  0  0  0  0
  -21.4528  -11.8135   -6.5175 C   0  0  0  0  0  0  0  0  0  0  0  0
  -22.4025  -11.6163   -5.5169 C   0  0  0  0  0  0  0  0  0  0  0  0
  -21.8935  -11.3287   -3.8978 Cl  0  0  0  0  0  0  0  0  0  0  0  0
  -23.7653  -11.6623   -5.8143 C   0  0  0  0  0  0  0  0  0  0  0  0
  -27.9295   -1.0299   -6.6556 O   0  0  0  0  0  0  0  0  0  0  0  0
  -28.2431    0.6595   -4.9984 C   0  0  0  0  0  0  0  0  0  0  0  0
  -28.8919   -0.1165   -6.1221 C   0  0  0  0  0  0  0  0  0  0  0  0
 41 42  1  0  0  0
 42 40  1  0  0  0
 40  1  1  0  0  0
  1  2  1  0  0  0
  1 10  2  0  0  0
  2  3  2  0  0  0
  3  4  1  0  0  0
  3  8  1  0  0  0
  4  5  2  0  0  0
  5  6  1  0  0  0
  6  7  2  0  0  0
  7 21  1  0  0  0
  7  8  1  0  0  0
 21 23  1  0  0  0
 21 22  1  0  0  0
 23 24  2  0  0  0
 23 29  1  0  0  0
 24 25  1  0  0  0
 25 26  2  0  0  0
 25 27  1  0  0  0
 27 31  1  0  0  0
 27 28  2  0  0  0
 31 32  1  0  0  0
 32 33  1  0  0  0
 33 34  1  0  0  0
 33 39  2  0  0  0
 34 35  2  0  0  0
 35 36  1  0  0  0
 36 37  2  0  0  0
 37 38  1  0  0  0
 37 39  1  0  0  0
 28 29  1  0  0  0
 29 30  2  0  0  0
  8  9  2  0  0  0
  9 10  1  0  0  0
 10 11  1  0  0  0
 11 12  1  0  0  0
 11 14  1  0  0  0
 12 13  2  0  0  0
 12 15  1  0  0  0
 15 16  2  0  0  0
 16 17  1  0  0  0
 17 18  1  0  0  0
 18 19  1  0  0  0
 18 20  1  0  0  0
M  END
> <minimizedAffinity>
-9.56506

$$$$
