CHEMBL3656094


 42 46  0  0  0  0  0  0  0  0999 V2000
  -21.3132  -10.9852   -5.9561 O   0  0  0  0  0  0  0  0  0  0  0  0
  -20.4020   -8.3466   -9.0769 C   0  0  0  0  0  0  0  0  0  0  0  0
  -20.0928   -9.7083   -9.1477 C   0  0  0  0  0  0  0  0  0  0  0  0
  -20.4119  -10.5608   -8.0841 C   0  0  0  0  0  0  0  0  0  0  0  0
  -21.0496  -10.0636   -6.9445 C   0  0  0  0  0  0  0  0  0  0  0  0
  -21.3059   -8.6953   -6.8424 C   0  0  0  0  0  0  0  0  0  0  0  0
  -20.9846   -7.8536   -7.9074 C   0  0  0  0  0  0  0  0  0  0  0  0
  -21.3026   -6.5518   -7.8256 F   0  0  0  0  0  0  0  0  0  0  0  0
  -18.8607   -6.0924  -11.4837 N   0  0  0  0  0  0  0  0  0  0  0  0
  -18.8966   -6.9276  -10.3782 C   0  0  0  0  0  0  0  0  0  0  0  0
  -17.9324   -7.2176   -9.6783 O   0  0  0  0  0  0  0  0  0  0  0  0
  -20.1626   -7.4537  -10.1573 N   0  0  0  0  0  0  0  0  0  0  0  0
  -19.7487   -5.7474  -11.8163 H   0  0  0  0  0  0  0  0  0  0  0  0
  -20.7038   -7.6375  -10.9932 H   0  0  0  0  0  0  0  0  0  0  0  0
  -14.9818   -3.0136  -11.0880 C   0  0  0  0  0  0  0  0  0  0  0  0
  -15.7862   -4.0100  -11.8719 C   0  0  0  0  0  0  0  0  0  0  0  0
  -15.3778   -4.3648  -13.1607 C   0  0  0  0  0  0  0  0  0  0  0  0
  -16.1093   -5.2855  -13.8971 C   0  0  0  0  0  0  0  0  0  0  0  0
  -17.2576   -5.8604  -13.3528 C   0  0  0  0  0  0  0  0  0  0  0  0
  -17.6900   -5.5350  -12.0627 C   0  0  0  0  0  0  0  0  0  0  0  0
  -16.9449   -4.6005  -11.3265 C   0  0  0  0  0  0  0  0  0  0  0  0
  -22.4430  -10.8638   -5.1812 C   0  0  0  0  0  0  0  0  0  0  0  0
  -22.4739  -11.0119   -3.8003 C   0  0  0  0  0  0  0  0  0  0  0  0
  -23.6899  -10.8541   -3.1558 C   0  0  0  0  0  0  0  0  0  0  0  0
  -24.8402  -10.5150   -3.7785 N   0  0  0  0  0  0  0  0  0  0  0  0
  -24.7688  -10.3026   -5.1128 C   0  0  0  0  0  0  0  0  0  0  0  0
  -23.6006  -10.4664   -5.8472 C   0  0  0  0  0  0  0  0  0  0  0  0
  -26.0246   -9.8940   -5.7304 C   0  0  0  0  0  0  0  0  0  0  0  0
  -27.1576   -9.3171   -5.1898 C   0  0  0  0  0  0  0  0  0  0  0  0
  -28.0905   -9.0382   -6.2307 C   0  0  0  0  0  0  0  0  0  0  0  0
  -27.5340   -9.5820   -7.3759 C   0  0  0  0  0  0  0  0  0  0  0  0
  -26.2963  -10.0854   -7.0667 N   0  0  0  0  0  0  0  0  0  0  0  0
  -25.6590  -10.5499   -7.7026 H   0  0  0  0  0  0  0  0  0  0  0  0
  -29.4177   -8.4306   -6.1358 C   0  0  0  0  0  0  0  0  0  0  0  0
  -30.4246   -9.0491   -6.4775 O   0  0  0  0  0  0  0  0  0  0  0  0
  -29.5040   -7.1567   -5.5923 N   0  0  0  0  0  0  0  0  0  0  0  0
  -30.7982   -6.6041   -5.2229 C   0  0  0  0  0  0  0  0  0  0  0  0
  -30.5275   -5.1476   -4.8425 C   0  0  0  0  0  0  0  0  0  0  0  0
  -29.0260   -5.1108   -4.5827 C   0  0  0  0  0  0  0  0  0  0  0  0
  -28.7452   -5.5690   -3.2580 O   0  0  0  0  0  0  0  0  0  0  0  0
  -28.4912   -6.1030   -5.6093 C   0  0  0  0  0  0  0  0  0  0  0  0
  -29.0122   -6.5061   -3.2112 H   0  0  0  0  0  0  0  0  0  0  0  0
 15 16  1  0  0  0
 16 17  1  0  0  0
 16 21  2  0  0  0
 17 18  2  0  0  0
 18 19  1  0  0  0
 19 20  2  0  0  0
 20  9  1  0  0  0
 20 21  1  0  0  0
  9 10  1  0  0  0
  9 13  1  0  0  0
 10 11  2  0  0  0
 10 12  1  0  0  0
 12  2  1  0  0  0
 12 14  1  0  0  0
  2  3  1  0  0  0
  2  7  2  0  0  0
  3  4  2  0  0  0
  4  5  1  0  0  0
  5  1  1  0  0  0
  5  6  2  0  0  0
  1 22  1  0  0  0
 22 23  1  0  0  0
 22 27  2  0  0  0
 23 24  2  0  0  0
 24 25  1  0  0  0
 25 26  2  0  0  0
 26 28  1  0  0  0
 26 27  1  0  0  0
 28 29  2  0  0  0
 28 32  1  0  0  0
 29 30  1  0  0  0
 30 34  1  0  0  0
 30 31  2  0  0  0
 34 35  2  0  0  0
 34 36  1  0  0  0
 36 37  1  0  0  0
 36 41  1  0  0  0
 37 38  1  0  0  0
 38 39  1  0  0  0
 39 40  1  0  0  0
 39 41  1  0  0  0
 40 42  1  0  0  0
 31 32  1  0  0  0
 32 33  1  0  0  0
  6  7  1  0  0  0
  7  8  1  0  0  0
M  END
> <minimizedAffinity>
26.08961

$$$$
