CHEMBL3656121


 47 50  0  0  0  0  0  0  0  0999 V2000
  -12.5771    7.0311  -17.2911 C   0  0  0  0  0  0  0  0  0  0  0  0
  -12.2498    5.6863  -17.1864 C   0  0  0  0  0  0  0  0  0  0  0  0
  -11.3608    5.2760  -16.1969 C   0  0  0  0  0  0  0  0  0  0  0  0
  -10.9204    6.2089  -15.2671 C   0  0  0  0  0  0  0  0  0  0  0  0
  -11.3345    7.5264  -15.4185 C   0  0  0  0  0  0  0  0  0  0  0  0
  -12.1350    7.9671  -16.4199 N   0  0  0  0  0  0  0  0  0  0  0  0
  -14.7480    8.7278  -19.8081 C   0  0  0  0  0  0  0  0  0  0  0  0
  -14.4884    7.4883  -20.3739 C   0  0  0  0  0  0  0  0  0  0  0  0
  -13.6825    6.7734  -19.5153 N   0  0  0  0  0  0  0  0  0  0  0  0
  -13.4121    7.5133  -18.3881 C   0  0  0  0  0  0  0  0  0  0  0  0
  -14.0838    8.7129  -18.5470 C   0  0  0  0  0  0  0  0  0  0  0  0
  -13.3177    5.8383  -19.6679 H   0  0  0  0  0  0  0  0  0  0  0  0
  -16.7352   10.0566  -19.7356 N   0  0  0  0  0  0  0  0  0  0  0  0
  -15.5161    9.8601  -20.3307 C   0  0  0  0  0  0  0  0  0  0  0  0
  -15.0943   10.5666  -21.2470 O   0  0  0  0  0  0  0  0  0  0  0  0
  -17.0255    9.5217  -18.9399 H   0  0  0  0  0  0  0  0  0  0  0  0
  -19.1958   11.4800  -19.3218 C   0  0  0  0  0  0  0  0  0  0  0  0
  -17.7030   11.2774  -20.1905 S   0  0  0  0  0  0  0  0  0  0  0  0
  -18.0004   11.4111  -21.8957 C   0  0  0  0  0  0  0  0  0  0  0  0
  -17.0252   12.5175  -19.9135 O   0  0  0  0  0  0  0  0  0  0  0  0
  -20.2513   12.5577  -19.3931 C   0  0  0  0  0  0  0  0  0  0  0  0
  -21.3589   12.1936  -20.3753 C   0  0  0  0  0  0  0  0  0  0  0  0
  -22.6447   11.8854  -19.6383 C   0  0  0  0  0  0  0  0  0  0  0  0
  -23.7503   11.8217  -20.1625 O   0  0  0  0  0  0  0  0  0  0  0  0
  -23.3625   10.8395  -17.6821 C   0  0  0  0  0  0  0  0  0  0  0  0
  -22.3980   11.6912  -18.3164 O   0  0  0  0  0  0  0  0  0  0  0  0
  -10.9103    3.9743  -16.0626 O   0  0  0  0  0  0  0  0  0  0  0  0
  -11.8196    2.9846  -15.7406 C   0  0  0  0  0  0  0  0  0  0  0  0
  -12.3651    2.1204  -16.6834 C   0  0  0  0  0  0  0  0  0  0  0  0
  -13.3726    1.2260  -16.3209 C   0  0  0  0  0  0  0  0  0  0  0  0
  -13.8032    1.1058  -14.9950 C   0  0  0  0  0  0  0  0  0  0  0  0
  -13.1700    1.8976  -14.0289 C   0  0  0  0  0  0  0  0  0  0  0  0
  -12.1864    2.8369  -14.4009 C   0  0  0  0  0  0  0  0  0  0  0  0
  -14.8568    0.2363  -14.6101 N   0  0  0  0  0  0  0  0  0  0  0  0
  -14.7000   -0.9581  -13.9281 C   0  0  0  0  0  0  0  0  0  0  0  0
  -13.6353   -1.3919  -13.4949 O   0  0  0  0  0  0  0  0  0  0  0  0
  -15.8881   -1.6681  -13.8008 N   0  0  0  0  0  0  0  0  0  0  0  0
  -15.8047    0.5332  -14.8066 H   0  0  0  0  0  0  0  0  0  0  0  0
  -16.4705   -1.6398  -14.6287 H   0  0  0  0  0  0  0  0  0  0  0  0
  -15.8472   -2.9359  -13.1551 C   0  0  0  0  0  0  0  0  0  0  0  0
  -15.7518   -4.1289  -13.8852 C   0  0  0  0  0  0  0  0  0  0  0  0
  -15.8275   -5.3720  -13.2394 C   0  0  0  0  0  0  0  0  0  0  0  0
  -15.7342   -6.6519  -14.0191 C   0  0  0  0  0  0  0  0  0  0  0  0
  -16.0159   -5.4090  -11.8515 C   0  0  0  0  0  0  0  0  0  0  0  0
  -16.0894   -4.2232  -11.1167 C   0  0  0  0  0  0  0  0  0  0  0  0
  -15.9808   -2.9983  -11.7685 C   0  0  0  0  0  0  0  0  0  0  0  0
  -16.0865   -1.8643  -11.0584 F   0  0  0  0  0  0  0  0  0  0  0  0
 25 26  1  0  0  0
 26 23  1  0  0  0
 23 24  2  0  0  0
 23 22  1  0  0  0
 22 21  1  0  0  0
 21 17  1  0  0  0
 17 18  2  0  0  0
 18 19  1  0  0  0
 18 20  2  0  0  0
 18 13  1  0  0  0
 13 14  1  0  0  0
 13 16  1  0  0  0
 14 15  2  0  0  0
 14  7  1  0  0  0
  7  8  2  0  0  0
  7 11  1  0  0  0
  8  9  1  0  0  0
  9 10  1  0  0  0
  9 12  1  0  0  0
 10  1  1  0  0  0
 10 11  2  0  0  0
  1  2  1  0  0  0
  1  6  2  0  0  0
  2  3  2  0  0  0
  3 27  1  0  0  0
  3  4  1  0  0  0
 27 28  1  0  0  0
 28 29  1  0  0  0
 28 33  2  0  0  0
 29 30  2  0  0  0
 30 31  1  0  0  0
 31 34  1  0  0  0
 31 32  2  0  0  0
 34 35  1  0  0  0
 34 38  1  0  0  0
 35 36  2  0  0  0
 35 37  1  0  0  0
 37 40  1  0  0  0
 37 39  1  0  0  0
 40 41  1  0  0  0
 40 46  2  0  0  0
 41 42  2  0  0  0
 42 43  1  0  0  0
 42 44  1  0  0  0
 44 45  2  0  0  0
 45 46  1  0  0  0
 46 47  1  0  0  0
 32 33  1  0  0  0
  4  5  2  0  0  0
  5  6  1  0  0  0
M  END
> <minimizedAffinity>
-7.06679

$$$$
