CHEMBL234451


 27 29  0  0  0  0  0  0  0  0999 V2000
  -28.6493   -3.5055   -7.0384 C   0  0  0  0  0  0  0  0  0  0  0  0
  -28.7242   -3.2688   -8.3823 N   0  0  0  0  0  0  0  0  0  0  0  0
  -28.1611   -2.1460   -8.8546 C   0  0  0  0  0  0  0  0  0  0  0  0
  -27.5752   -1.2445   -8.0544 N   0  0  0  0  0  0  0  0  0  0  0  0
  -27.5036   -1.5047   -6.7420 C   0  0  0  0  0  0  0  0  0  0  0  0
  -28.0124   -2.6362   -6.1653 C   0  0  0  0  0  0  0  0  0  0  0  0
  -27.7324   -2.8502   -4.4823 Cl  0  0  0  0  0  0  0  0  0  0  0  0
  -30.2964   -8.5301   -6.8744 C   0  0  0  0  0  0  0  0  0  0  0  0
  -30.0219   -7.1051   -6.5466 C   0  0  0  0  0  0  0  0  0  0  0  0
  -30.6761   -6.3926   -5.6595 N   0  0  0  0  0  0  0  0  0  0  0  0
  -30.2269   -5.0747   -5.6800 C   0  0  0  0  0  0  0  0  0  0  0  0
  -30.8470   -4.1254   -4.7156 C   0  0  0  0  0  0  0  0  0  0  0  0
  -29.2650   -4.7904   -6.6467 C   0  0  0  0  0  0  0  0  0  0  0  0
  -28.7661   -6.2814   -7.3557 S   0  0  0  0  0  0  0  0  0  0  0  0
  -28.2049   -1.9017  -10.2283 N   0  0  0  0  0  0  0  0  0  0  0  0
  -29.1332   -1.6915  -10.5588 H   0  0  0  0  0  0  0  0  0  0  0  0
  -27.1314   -1.7787  -11.1248 C   0  0  0  0  0  0  0  0  0  0  0  0
  -25.8769   -1.3070  -10.7147 C   0  0  0  0  0  0  0  0  0  0  0  0
  -24.8668   -1.0069  -11.6271 C   0  0  0  0  0  0  0  0  0  0  0  0
  -25.0791   -1.1846  -12.9969 C   0  0  0  0  0  0  0  0  0  0  0  0
  -26.3136   -1.6836  -13.4212 C   0  0  0  0  0  0  0  0  0  0  0  0
  -27.3287   -1.9774  -12.4962 C   0  0  0  0  0  0  0  0  0  0  0  0
  -24.0252   -0.7586  -13.9924 C   0  0  0  0  0  0  0  0  0  0  0  0
  -22.6136   -0.6591  -13.3843 C   0  0  0  0  0  0  0  0  0  0  0  0
  -21.9811    0.6686  -13.5332 N   0  0  0  0  0  0  0  0  0  0  0  0
  -21.0433    0.7157  -14.6574 C   0  0  0  0  0  0  0  0  0  0  0  0
  -23.0220    1.6847  -13.7247 C   0  0  0  0  0  0  0  0  0  0  0  0
  8  9  1  0  0  0
  9 10  2  0  0  0
  9 14  1  0  0  0
 10 11  1  0  0  0
 11 12  1  0  0  0
 11 13  2  0  0  0
 13  1  1  0  0  0
 13 14  1  0  0  0
  1  2  1  0  0  0
  1  6  2  0  0  0
  2  3  2  0  0  0
  3 15  1  0  0  0
  3  4  1  0  0  0
 15 17  1  0  0  0
 15 16  1  0  0  0
 17 18  1  0  0  0
 17 22  2  0  0  0
 18 19  2  0  0  0
 19 20  1  0  0  0
 20 23  1  0  0  0
 20 21  2  0  0  0
 23 24  1  0  0  0
 24 25  1  0  0  0
 25 26  1  0  0  0
 25 27  1  0  0  0
 21 22  1  0  0  0
  4  5  2  0  0  0
  5  6  1  0  0  0
  6  7  1  0  0  0
M  END
> <minimizedAffinity>
-8.68774

$$$$
