CHEMBL3297896


 23 26  0  0  0  0  0  0  0  0999 V2000
  -28.4432   -7.3551   -6.8390 N   0  0  0  0  0  0  0  0  0  0  0  0
  -28.2706   -7.7850   -5.9410 H   0  0  0  0  0  0  0  0  0  0  0  0
  -28.2286   -2.8779   -8.6067 C   0  0  0  0  0  0  0  0  0  0  0  0
  -28.7751   -3.8006   -7.5602 C   0  0  0  0  0  0  0  0  0  0  0  0
  -28.3570   -5.0794   -7.6197 N   0  0  0  0  0  0  0  0  0  0  0  0
  -28.8107   -6.0034   -6.7391 C   0  0  0  0  0  0  0  0  0  0  0  0
  -29.7042   -5.5573   -5.7580 C   0  0  0  0  0  0  0  0  0  0  0  0
  -30.4247   -6.1272   -4.6738 C   0  0  0  0  0  0  0  0  0  0  0  0
  -31.1817   -5.1105   -4.1349 C   0  0  0  0  0  0  0  0  0  0  0  0
  -32.1423   -5.0480   -3.0163 C   0  0  0  0  0  0  0  0  0  0  0  0
  -30.9644   -3.9497   -4.8145 O   0  0  0  0  0  0  0  0  0  0  0  0
  -30.0636   -4.2182   -5.8046 C   0  0  0  0  0  0  0  0  0  0  0  0
  -29.6395   -3.2916   -6.6729 N   0  0  0  0  0  0  0  0  0  0  0  0
  -28.7881   -8.2938   -7.8323 C   0  0  0  0  0  0  0  0  0  0  0  0
  -27.8726   -8.7519   -8.7975 C   0  0  0  0  0  0  0  0  0  0  0  0
  -28.2375   -9.6104   -9.8335 C   0  0  0  0  0  0  0  0  0  0  0  0
  -29.5421  -10.0795   -9.9425 C   0  0  0  0  0  0  0  0  0  0  0  0
  -30.4511   -9.6720   -8.9636 C   0  0  0  0  0  0  0  0  0  0  0  0
  -31.7846   -9.9869   -8.8226 N   0  0  0  0  0  0  0  0  0  0  0  0
  -32.3067   -9.3604   -7.7248 C   0  0  0  0  0  0  0  0  0  0  0  0
  -31.2986   -8.6278   -7.1428 C   0  0  0  0  0  0  0  0  0  0  0  0
  -30.1099   -8.8099   -7.9168 C   0  0  0  0  0  0  0  0  0  0  0  0
  -32.2974  -10.5889   -9.4518 H   0  0  0  0  0  0  0  0  0  0  0  0
  3  4  1  0  0  0
  4  5  1  0  0  0
  4 13  2  0  0  0
  5  6  2  0  0  0
  6  1  1  0  0  0
  6  7  1  0  0  0
  1 14  1  0  0  0
  1  2  1  0  0  0
 14 15  1  0  0  0
 14 22  2  0  0  0
 15 16  2  0  0  0
 16 17  1  0  0  0
 17 18  2  0  0  0
 18 19  1  0  0  0
 18 22  1  0  0  0
 19 20  1  0  0  0
 19 23  1  0  0  0
 20 21  2  0  0  0
 21 22  1  0  0  0
  7  8  1  0  0  0
  7 12  2  0  0  0
  8  9  2  0  0  0
  9 10  1  0  0  0
  9 11  1  0  0  0
 11 12  1  0  0  0
 12 13  1  0  0  0
M  END
> <minimizedAffinity>
-8.07368

$$$$
