CHEMBL213910


 43 48  0  0  0  0  0  0  0  0999 V2000
  -23.2058    0.5445  -14.1029 C   0  0  0  0  0  0  0  0  0  0  0  0
  -23.9382   -0.1120  -15.0731 C   0  0  0  0  0  0  0  0  0  0  0  0
  -24.8214   -1.0869  -14.5202 C   0  0  0  0  0  0  0  0  0  0  0  0
  -24.7251   -1.1454  -13.1452 C   0  0  0  0  0  0  0  0  0  0  0  0
  -23.6829    0.0614  -12.5343 S   0  0  0  0  0  0  0  0  0  0  0  0
  -16.7968    3.2762  -15.7391 C   0  0  0  0  0  0  0  0  0  0  0  0
  -16.4723    1.8951  -15.8157 C   0  0  0  0  0  0  0  0  0  0  0  0
  -17.4257    0.8937  -15.6334 C   0  0  0  0  0  0  0  0  0  0  0  0
  -18.7091    1.2845  -15.3120 C   0  0  0  0  0  0  0  0  0  0  0  0
  -19.0160    2.6621  -15.1599 C   0  0  0  0  0  0  0  0  0  0  0  0
  -18.1009    3.6659  -15.3962 C   0  0  0  0  0  0  0  0  0  0  0  0
  -20.3725    2.7034  -14.7353 C   0  0  0  0  0  0  0  0  0  0  0  0
  -21.2363    3.6272  -14.3428 N   0  0  0  0  0  0  0  0  0  0  0  0
  -22.3344    2.8760  -14.0629 N   0  0  0  0  0  0  0  0  0  0  0  0
  -22.1782    1.5184  -14.2884 C   0  0  0  0  0  0  0  0  0  0  0  0
  -20.8753    1.3958  -14.6836 C   0  0  0  0  0  0  0  0  0  0  0  0
  -19.8983    0.3533  -15.0789 C   0  0  0  0  0  0  0  0  0  0  0  0
  -23.1663    3.3426  -13.7188 H   0  0  0  0  0  0  0  0  0  0  0  0
  -15.7270    4.3126  -16.0257 C   0  0  0  0  0  0  0  0  0  0  0  0
  -12.1409    7.4470  -16.5367 C   0  0  0  0  0  0  0  0  0  0  0  0
  -12.4945    6.0396  -16.6929 N   0  0  0  0  0  0  0  0  0  0  0  0
  -12.8891    5.4503  -15.4037 C   0  0  0  0  0  0  0  0  0  0  0  0
  -13.3119    3.9730  -15.5674 C   0  0  0  0  0  0  0  0  0  0  0  0
  -14.4416    3.7649  -16.4994 N   0  0  0  0  0  0  0  0  0  0  0  0
  -14.0612    4.3898  -17.7909 C   0  0  0  0  0  0  0  0  0  0  0  0
  -13.5691    5.8604  -17.6882 C   0  0  0  0  0  0  0  0  0  0  0  0
  -25.3019   -2.1508  -12.2074 C   0  0  0  0  0  0  0  0  0  0  0  0
  -26.6403   -1.8440  -11.7027 N   0  0  0  0  0  0  0  0  0  0  0  0
  -27.7982   -2.0342  -12.5697 C   0  0  0  0  0  0  0  0  0  0  0  0
  -26.7151   -1.8565  -10.3035 C   0  0  0  0  0  0  0  0  0  0  0  0
  -25.6936   -1.8794   -9.6186 O   0  0  0  0  0  0  0  0  0  0  0  0
  -27.9875   -1.8880   -9.7799 N   0  0  0  0  0  0  0  0  0  0  0  0
  -28.7244   -2.1826  -10.3970 H   0  0  0  0  0  0  0  0  0  0  0  0
  -28.3177   -1.8784   -8.4091 C   0  0  0  0  0  0  0  0  0  0  0  0
  -28.6897   -3.0210   -7.6949 C   0  0  0  0  0  0  0  0  0  0  0  0
  -29.0681   -2.9225   -6.3535 C   0  0  0  0  0  0  0  0  0  0  0  0
  -29.0867   -1.6828   -5.7235 C   0  0  0  0  0  0  0  0  0  0  0  0
  -28.7009   -0.5302   -6.4137 C   0  0  0  0  0  0  0  0  0  0  0  0
  -28.2857   -0.6433   -7.7531 C   0  0  0  0  0  0  0  0  0  0  0  0
  -28.7609    0.8300   -5.7681 C   0  0  0  0  0  0  0  0  0  0  0  0
  -27.8370    1.0097   -4.7840 F   0  0  0  0  0  0  0  0  0  0  0  0
  -28.5643    1.8410   -6.6582 F   0  0  0  0  0  0  0  0  0  0  0  0
  -29.9714    1.0744   -5.1908 F   0  0  0  0  0  0  0  0  0  0  0  0
 20 21  1  0  0  0
 21 22  1  0  0  0
 21 26  1  0  0  0
 22 23  1  0  0  0
 23 24  1  0  0  0
 24 19  1  0  0  0
 24 25  1  0  0  0
 19  6  1  0  0  0
  6  7  1  0  0  0
  6 11  2  0  0  0
  7  8  2  0  0  0
  8  9  1  0  0  0
  9 10  2  0  0  0
  9 17  1  0  0  0
 10 11  1  0  0  0
 10 12  1  0  0  0
 12 13  2  0  0  0
 12 16  1  0  0  0
 13 14  1  0  0  0
 14 15  1  0  0  0
 14 18  1  0  0  0
 15  1  1  0  0  0
 15 16  2  0  0  0
  1  2  2  0  0  0
  1  5  1  0  0  0
  2  3  1  0  0  0
  3  4  2  0  0  0
  4 27  1  0  0  0
  4  5  1  0  0  0
 27 28  1  0  0  0
 28 29  1  0  0  0
 28 30  1  0  0  0
 30 31  2  0  0  0
 30 32  1  0  0  0
 32 34  1  0  0  0
 32 33  1  0  0  0
 34 35  1  0  0  0
 34 39  2  0  0  0
 35 36  2  0  0  0
 36 37  1  0  0  0
 37 38  2  0  0  0
 38 40  1  0  0  0
 38 39  1  0  0  0
 40 41  1  0  0  0
 40 42  1  0  0  0
 40 43  1  0  0  0
 16 17  1  0  0  0
 25 26  1  0  0  0
M  END
> <minimizedAffinity>
-11.90691

$$$$
