CHEMBL231109


 32 35  0  0  0  0  0  0  0  0999 V2000
  -30.0347   -6.6079   -4.8308 C   0  0  0  0  0  0  0  0  0  0  0  0
  -29.0787   -7.5838   -4.5411 C   0  0  0  0  0  0  0  0  0  0  0  0
  -28.9351   -8.7046   -5.3605 C   0  0  0  0  0  0  0  0  0  0  0  0
  -29.7757   -8.8938   -6.4662 C   0  0  0  0  0  0  0  0  0  0  0  0
  -30.8395   -7.9981   -6.6396 C   0  0  0  0  0  0  0  0  0  0  0  0
  -30.9650   -6.8511   -5.8381 C   0  0  0  0  0  0  0  0  0  0  0  0
  -29.5114   -9.9791   -7.4265 C   0  0  0  0  0  0  0  0  0  0  0  0
  -30.0555  -11.2308   -7.2010 C   0  0  0  0  0  0  0  0  0  0  0  0
  -29.6458  -12.3706   -8.3881 S   0  0  0  0  0  0  0  0  0  0  0  0
  -28.7180  -11.2241   -9.2675 C   0  0  0  0  0  0  0  0  0  0  0  0
  -28.0486  -11.4798  -10.4703 C   0  0  0  0  0  0  0  0  0  0  0  0
  -27.3512  -10.4258  -11.0101 C   0  0  0  0  0  0  0  0  0  0  0  0
  -27.2545   -9.2184  -10.4353 N   0  0  0  0  0  0  0  0  0  0  0  0
  -27.8780   -8.9706   -9.2616 C   0  0  0  0  0  0  0  0  0  0  0  0
  -27.6193   -7.7061   -8.7441 N   0  0  0  0  0  0  0  0  0  0  0  0
  -28.6819   -9.9692   -8.6401 C   0  0  0  0  0  0  0  0  0  0  0  0
  -26.8467   -7.3021   -9.2636 H   0  0  0  0  0  0  0  0  0  0  0  0
  -27.4970   -7.7114   -7.7383 H   0  0  0  0  0  0  0  0  0  0  0  0
  -29.4749   -3.1003   -4.0589 N   0  0  0  0  0  0  0  0  0  0  0  0
  -29.4443   -4.2552   -4.8275 C   0  0  0  0  0  0  0  0  0  0  0  0
  -28.9824   -4.3147   -5.9652 O   0  0  0  0  0  0  0  0  0  0  0  0
  -30.0104   -5.3492   -4.1775 N   0  0  0  0  0  0  0  0  0  0  0  0
  -29.4383   -3.2383   -3.0601 H   0  0  0  0  0  0  0  0  0  0  0  0
  -30.8093   -5.1201   -3.6023 H   0  0  0  0  0  0  0  0  0  0  0  0
  -29.7011    0.3979   -5.3266 C   0  0  0  0  0  0  0  0  0  0  0  0
  -28.3430    0.7407   -5.4059 C   0  0  0  0  0  0  0  0  0  0  0  0
  -27.3675   -0.2020   -5.1246 C   0  0  0  0  0  0  0  0  0  0  0  0
  -27.7378   -1.4837   -4.7208 C   0  0  0  0  0  0  0  0  0  0  0  0
  -29.0845   -1.8329   -4.5582 C   0  0  0  0  0  0  0  0  0  0  0  0
  -30.0691   -0.8945   -4.8982 C   0  0  0  0  0  0  0  0  0  0  0  0
  -30.6430    1.9224   -7.0961 C   0  0  0  0  0  0  0  0  0  0  0  0
  -30.7431    1.4345   -5.6584 C   0  0  0  0  0  0  0  0  0  0  0  0
 31 32  1  0  0  0
 32 25  1  0  0  0
 25 26  1  0  0  0
 25 30  2  0  0  0
 26 27  2  0  0  0
 27 28  1  0  0  0
 28 29  2  0  0  0
 29 19  1  0  0  0
 29 30  1  0  0  0
 19 20  1  0  0  0
 19 23  1  0  0  0
 20 21  2  0  0  0
 20 22  1  0  0  0
 22  1  1  0  0  0
 22 24  1  0  0  0
  1  2  1  0  0  0
  1  6  2  0  0  0
  2  3  2  0  0  0
  3  4  1  0  0  0
  4  7  1  0  0  0
  4  5  2  0  0  0
  7  8  2  0  0  0
  7 16  1  0  0  0
  8  9  1  0  0  0
  9 10  1  0  0  0
 10 11  1  0  0  0
 10 16  2  0  0  0
 11 12  2  0  0  0
 12 13  1  0  0  0
 13 14  2  0  0  0
 14 15  1  0  0  0
 14 16  1  0  0  0
 15 17  1  0  0  0
 15 18  1  0  0  0
  5  6  1  0  0  0
M  END
> <minimizedAffinity>
-8.84150

$$$$
