CHEMBL3098317


 29 31  0  0  0  0  0  0  0  0999 V2000
  -22.4347   11.2696  -18.0120 C   0  0  0  0  0  0  0  0  0  0  0  0
  -22.3110   11.2231  -16.6163 C   0  0  0  0  0  0  0  0  0  0  0  0
  -23.3849   11.4609  -15.7725 C   0  0  0  0  0  0  0  0  0  0  0  0
  -23.1915   11.4490  -14.4511 N   0  0  0  0  0  0  0  0  0  0  0  0
  -24.2550   11.7309  -13.6972 C   0  0  0  0  0  0  0  0  0  0  0  0
  -24.0145   11.7376  -12.0082 Cl  0  0  0  0  0  0  0  0  0  0  0  0
  -25.4821   12.0350  -14.1173 N   0  0  0  0  0  0  0  0  0  0  0  0
  -25.6592   12.0385  -15.4503 C   0  0  0  0  0  0  0  0  0  0  0  0
  -24.6316   11.7317  -16.3481 C   0  0  0  0  0  0  0  0  0  0  0  0
  -24.7772   11.7345  -17.7566 C   0  0  0  0  0  0  0  0  0  0  0  0
  -23.6846   11.5070  -18.5917 C   0  0  0  0  0  0  0  0  0  0  0  0
  -20.5432   12.2055  -19.0811 C   0  0  0  0  0  0  0  0  0  0  0  0
  -21.2613   11.0402  -18.6856 O   0  0  0  0  0  0  0  0  0  0  0  0
  -26.9392   12.3964  -15.9597 N   0  0  0  0  0  0  0  0  0  0  0  0
  -26.9435   12.2757  -16.9682 H   0  0  0  0  0  0  0  0  0  0  0  0
  -28.1620   12.0538  -15.3512 C   0  0  0  0  0  0  0  0  0  0  0  0
  -28.9678   11.0363  -15.8935 C   0  0  0  0  0  0  0  0  0  0  0  0
  -30.1855   10.7019  -15.3150 C   0  0  0  0  0  0  0  0  0  0  0  0
  -30.5864   11.3669  -14.1602 C   0  0  0  0  0  0  0  0  0  0  0  0
  -29.7733   12.3316  -13.5615 C   0  0  0  0  0  0  0  0  0  0  0  0
  -28.5520   12.6586  -14.1522 C   0  0  0  0  0  0  0  0  0  0  0  0
  -32.1223   10.9277  -13.4196 S   0  0  0  0  0  0  0  0  0  0  0  0
  -32.4664   12.3825  -12.6629 N   0  0  0  0  0  0  0  0  0  0  0  0
  -33.1154   10.7476  -14.4521 O   0  0  0  0  0  0  0  0  0  0  0  0
  -31.8940    9.9574  -12.3747 O   0  0  0  0  0  0  0  0  0  0  0  0
  -33.3073   12.8131  -13.0402 H   0  0  0  0  0  0  0  0  0  0  0  0
  -32.4061   12.3039  -11.6501 H   0  0  0  0  0  0  0  0  0  0  0  0
  -23.8103   11.4238  -19.9499 O   0  0  0  0  0  0  0  0  0  0  0  0
  -23.8058   12.6585  -20.6577 C   0  0  0  0  0  0  0  0  0  0  0  0
 12 13  1  0  0  0
 13  1  1  0  0  0
  1  2  1  0  0  0
  1 11  2  0  0  0
  2  3  2  0  0  0
  3  4  1  0  0  0
  3  9  1  0  0  0
  4  5  2  0  0  0
  5  6  1  0  0  0
  5  7  1  0  0  0
  7  8  2  0  0  0
  8 14  1  0  0  0
  8  9  1  0  0  0
 14 16  1  0  0  0
 14 15  1  0  0  0
 16 17  1  0  0  0
 16 21  2  0  0  0
 17 18  2  0  0  0
 18 19  1  0  0  0
 19 22  1  0  0  0
 19 20  2  0  0  0
 22 23  1  0  0  0
 22 24  2  0  0  0
 22 25  2  0  0  0
 23 26  1  0  0  0
 23 27  1  0  0  0
 20 21  1  0  0  0
  9 10  2  0  0  0
 10 11  1  0  0  0
 11 28  1  0  0  0
 28 29  1  0  0  0
M  END
> <minimizedAffinity>
-5.20432

$$$$
