CHEMBL3912287


 31 34  0  0  0  0  0  0  0  0999 V2000
  -28.2810   -8.9453   -5.7205 C   0  0  0  0  0  0  0  0  0  0  0  0
  -27.2983   -9.8033   -6.2225 C   0  0  0  0  0  0  0  0  0  0  0  0
  -27.1328  -10.0063   -7.6150 C   0  0  0  0  0  0  0  0  0  0  0  0
  -26.2981  -10.9705   -8.1945 C   0  0  0  0  0  0  0  0  0  0  0  0
  -26.1313  -11.0737   -9.5268 N   0  0  0  0  0  0  0  0  0  0  0  0
  -26.8388  -10.2310  -10.2835 C   0  0  0  0  0  0  0  0  0  0  0  0
  -27.6872   -9.3019   -9.8375 N   0  0  0  0  0  0  0  0  0  0  0  0
  -27.8276   -9.2101   -8.5148 C   0  0  0  0  0  0  0  0  0  0  0  0
  -28.7280   -8.2938   -8.0119 C   0  0  0  0  0  0  0  0  0  0  0  0
  -29.0409   -8.2043   -6.6407 C   0  0  0  0  0  0  0  0  0  0  0  0
  -27.7069   -9.4670   -3.4525 C   0  0  0  0  0  0  0  0  0  0  0  0
  -28.5599   -8.8052   -4.3866 O   0  0  0  0  0  0  0  0  0  0  0  0
  -25.6623  -11.9069   -7.3471 N   0  0  0  0  0  0  0  0  0  0  0  0
  -26.1731  -12.7791   -7.3228 H   0  0  0  0  0  0  0  0  0  0  0  0
  -24.2992  -11.9764   -7.0020 C   0  0  0  0  0  0  0  0  0  0  0  0
  -23.3366  -11.9918   -8.0290 C   0  0  0  0  0  0  0  0  0  0  0  0
  -21.9797  -11.8743   -7.7504 C   0  0  0  0  0  0  0  0  0  0  0  0
  -21.5642  -11.7403   -6.4340 C   0  0  0  0  0  0  0  0  0  0  0  0
  -22.4960  -11.7756   -5.3908 C   0  0  0  0  0  0  0  0  0  0  0  0
  -21.7822  -11.5925   -3.6357 Br  0  0  0  0  0  0  0  0  0  0  0  0
  -23.8750  -11.9194   -5.6535 C   0  0  0  0  0  0  0  0  0  0  0  0
  -24.8915  -12.0490   -4.5467 C   0  0  0  0  0  0  0  0  0  0  0  0
  -30.0985   -7.4307   -6.1834 O   0  0  0  0  0  0  0  0  0  0  0  0
  -29.7709   -6.0280   -6.1265 C   0  0  0  0  0  0  0  0  0  0  0  0
  -30.1067   -5.3129   -4.8094 C   0  0  0  0  0  0  0  0  0  0  0  0
  -30.3771   -3.8095   -4.9743 C   0  0  0  0  0  0  0  0  0  0  0  0
  -29.1622   -3.0937   -5.4120 N   0  0  0  0  0  0  0  0  0  0  0  0
  -29.4428   -1.6730   -5.5751 C   0  0  0  0  0  0  0  0  0  0  0  0
  -28.0872   -3.3192   -4.4251 C   0  0  0  0  0  0  0  0  0  0  0  0
  -27.8368   -4.8178   -4.1777 C   0  0  0  0  0  0  0  0  0  0  0  0
  -29.0443   -5.5253   -3.8382 O   0  0  0  0  0  0  0  0  0  0  0  0
 11 12  1  0  0  0
 12  1  1  0  0  0
  1  2  1  0  0  0
  1 10  2  0  0  0
  2  3  2  0  0  0
  3  4  1  0  0  0
  3  8  1  0  0  0
  4 13  1  0  0  0
  4  5  2  0  0  0
 13 15  1  0  0  0
 13 14  1  0  0  0
 15 16  1  0  0  0
 15 21  2  0  0  0
 16 17  2  0  0  0
 17 18  1  0  0  0
 18 19  2  0  0  0
 19 20  1  0  0  0
 19 21  1  0  0  0
 21 22  1  0  0  0
  5  6  1  0  0  0
  6  7  2  0  0  0
  7  8  1  0  0  0
  8  9  2  0  0  0
  9 10  1  0  0  0
 10 23  1  0  0  0
 23 24  1  0  0  0
 24 25  1  0  0  0
 25 26  1  0  0  0
 25 31  1  0  0  0
 26 27  1  0  0  0
 27 28  1  0  0  0
 27 29  1  0  0  0
 29 30  1  0  0  0
 30 31  1  0  0  0
M  END
> <minimizedAffinity>
-7.54942

$$$$
