CHEMBL3909752


 38 43  0  0  0  0  0  0  0  0999 V2000
  -27.8027   -2.4211   -8.1643 N   0  0  0  0  0  0  0  0  0  0  0  0
  -28.4722   -3.7127   -8.2521 C   0  0  0  0  0  0  0  0  0  0  0  0
  -29.8456   -3.6515   -8.0172 C   0  0  0  0  0  0  0  0  0  0  0  0
  -30.5084   -4.7392   -7.4779 C   0  0  0  0  0  0  0  0  0  0  0  0
  -29.8885   -5.9491   -7.3043 C   0  0  0  0  0  0  0  0  0  0  0  0
  -30.5793   -6.8340   -6.5754 N   0  0  0  0  0  0  0  0  0  0  0  0
  -30.1409   -8.0980   -6.5841 C   0  0  0  0  0  0  0  0  0  0  0  0
  -29.1065   -8.4920   -7.4054 C   0  0  0  0  0  0  0  0  0  0  0  0
  -28.2784   -7.5554   -8.0097 N   0  0  0  0  0  0  0  0  0  0  0  0
  -28.6352   -6.2083   -7.8973 C   0  0  0  0  0  0  0  0  0  0  0  0
  -27.8940   -5.0152   -8.2981 C   0  0  0  0  0  0  0  0  0  0  0  0
  -29.2148   -9.8599   -7.9076 C   0  0  0  0  0  0  0  0  0  0  0  0
  -30.0225  -10.9802   -7.6004 C   0  0  0  0  0  0  0  0  0  0  0  0
  -29.8311  -12.0121   -8.4407 N   0  0  0  0  0  0  0  0  0  0  0  0
  -28.8833  -11.5647   -9.2833 N   0  0  0  0  0  0  0  0  0  0  0  0
  -28.1980  -12.4643  -10.1844 C   0  0  0  0  0  0  0  0  0  0  0  0
  -28.5963  -10.2449   -9.0952 C   0  0  0  0  0  0  0  0  0  0  0  0
  -28.6665    0.7131   -6.3351 C   0  0  0  0  0  0  0  0  0  0  0  0
  -28.5238    0.3072   -5.0085 C   0  0  0  0  0  0  0  0  0  0  0  0
  -28.0181   -0.9627   -4.7281 C   0  0  0  0  0  0  0  0  0  0  0  0
  -27.6880   -1.8381   -5.7684 C   0  0  0  0  0  0  0  0  0  0  0  0
  -27.8335   -1.4740   -7.1092 C   0  0  0  0  0  0  0  0  0  0  0  0
  -28.2736   -0.1583   -7.3727 C   0  0  0  0  0  0  0  0  0  0  0  0
  -30.6549    1.9661   -6.8342 C   0  0  0  0  0  0  0  0  0  0  0  0
  -29.2311    1.8983   -6.7392 O   0  0  0  0  0  0  0  0  0  0  0  0
  -27.8851   -1.5032   -3.4773 O   0  0  0  0  0  0  0  0  0  0  0  0
  -28.6969   -2.6339   -3.1950 C   0  0  0  0  0  0  0  0  0  0  0  0
  -27.8924   -1.8171   -9.5452 C   0  0  0  0  0  0  0  0  0  0  0  0
  -26.8121   -1.8532  -10.6200 C   0  0  0  0  0  0  0  0  0  0  0  0
  -25.4639   -1.5956  -10.3860 C   0  0  0  0  0  0  0  0  0  0  0  0
  -24.8253   -1.3329  -11.6132 C   0  0  0  0  0  0  0  0  0  0  0  0
  -23.5492   -0.9303  -11.8324 N   0  0  0  0  0  0  0  0  0  0  0  0
  -23.2444   -0.6744  -13.1215 C   0  0  0  0  0  0  0  0  0  0  0  0
  -24.1153   -0.7972  -14.1914 C   0  0  0  0  0  0  0  0  0  0  0  0
  -25.4225   -1.2265  -13.9537 C   0  0  0  0  0  0  0  0  0  0  0  0
  -25.7735   -1.4936  -12.6231 C   0  0  0  0  0  0  0  0  0  0  0  0
  -26.9514   -1.9058  -12.0006 N   0  0  0  0  0  0  0  0  0  0  0  0
  -28.1341   -2.3243  -12.7218 C   0  0  0  0  0  0  0  0  0  0  0  0
 24 25  1  0  0  0
 25 18  1  0  0  0
 18 19  1  0  0  0
 18 23  2  0  0  0
 19 20  2  0  0  0
 20 26  1  0  0  0
 20 21  1  0  0  0
 26 27  1  0  0  0
 21 22  2  0  0  0
 22  1  1  0  0  0
 22 23  1  0  0  0
  1 28  1  0  0  0
  1  2  1  0  0  0
 28 29  1  0  0  0
 29 30  2  0  0  0
 29 37  1  0  0  0
 30 31  1  0  0  0
 31 32  1  0  0  0
 31 36  2  0  0  0
 32 33  2  0  0  0
 33 34  1  0  0  0
 34 35  2  0  0  0
 35 36  1  0  0  0
 36 37  1  0  0  0
 37 38  1  0  0  0
  2  3  1  0  0  0
  2 11  2  0  0  0
  3  4  2  0  0  0
  4  5  1  0  0  0
  5  6  1  0  0  0
  5 10  2  0  0  0
  6  7  2  0  0  0
  7  8  1  0  0  0
  8 12  1  0  0  0
  8  9  2  0  0  0
 12 13  1  0  0  0
 12 17  2  0  0  0
 13 14  2  0  0  0
 14 15  1  0  0  0
 15 16  1  0  0  0
 15 17  1  0  0  0
  9 10  1  0  0  0
 10 11  1  0  0  0
M  END
> <minimizedAffinity>
-9.13857

$$$$
