CHEMBL539425


 28 31  0  0  0  0  0  0  0  0999 V2000
  -13.0768    2.2140  -13.6580 O   0  0  0  0  0  0  0  0  0  0  0  0
  -14.1483    1.3829  -13.7672 C   0  0  0  0  0  0  0  0  0  0  0  0
  -14.9477    1.6407  -14.7824 N   0  0  0  0  0  0  0  0  0  0  0  0
  -16.0436    0.8979  -14.7991 C   0  0  0  0  0  0  0  0  0  0  0  0
  -16.2998   -0.0726  -13.9257 N   0  0  0  0  0  0  0  0  0  0  0  0
  -15.3891   -0.2670  -12.9735 C   0  0  0  0  0  0  0  0  0  0  0  0
  -14.2919    0.4618  -12.8395 N   0  0  0  0  0  0  0  0  0  0  0  0
  -13.2643    2.8170  -14.3952 H   0  0  0  0  0  0  0  0  0  0  0  0
  -16.9498    1.2040  -15.7988 N   0  0  0  0  0  0  0  0  0  0  0  0
  -17.5554    0.4034  -15.9379 H   0  0  0  0  0  0  0  0  0  0  0  0
  -17.6620    2.4608  -15.6797 C   0  0  0  0  0  0  0  0  0  0  0  0
  -19.0651    2.2277  -15.1500 C   0  0  0  0  0  0  0  0  0  0  0  0
  -19.8653    3.3239  -14.7953 C   0  0  0  0  0  0  0  0  0  0  0  0
  -21.1812    3.1365  -14.3618 C   0  0  0  0  0  0  0  0  0  0  0  0
  -21.7186    1.8533  -14.2820 C   0  0  0  0  0  0  0  0  0  0  0  0
  -20.9448    0.7562  -14.6490 C   0  0  0  0  0  0  0  0  0  0  0  0
  -19.6324    0.9430  -15.0893 C   0  0  0  0  0  0  0  0  0  0  0  0
  -15.6182   -1.3249  -12.0871 N   0  0  0  0  0  0  0  0  0  0  0  0
  -15.1340   -1.1279  -11.2198 H   0  0  0  0  0  0  0  0  0  0  0  0
  -15.6515   -2.6998  -12.3998 C   0  0  0  0  0  0  0  0  0  0  0  0
  -16.3425   -3.5646  -11.5468 C   0  0  0  0  0  0  0  0  0  0  0  0
  -16.3617   -4.9475  -11.7727 C   0  0  0  0  0  0  0  0  0  0  0  0
  -15.6606   -5.4872  -12.8680 C   0  0  0  0  0  0  0  0  0  0  0  0
  -15.5731   -6.8299  -13.1985 N   0  0  0  0  0  0  0  0  0  0  0  0
  -14.8408   -6.9655  -14.2804 C   0  0  0  0  0  0  0  0  0  0  0  0
  -14.2139   -5.5281  -14.9650 S   0  0  0  0  0  0  0  0  0  0  0  0
  -14.9750   -4.6166  -13.7161 C   0  0  0  0  0  0  0  0  0  0  0  0
  -14.9595   -3.2283  -13.5011 C   0  0  0  0  0  0  0  0  0  0  0  0
  1  2  1  0  0  0
  1  8  1  0  0  0
  2  3  1  0  0  0
  2  7  2  0  0  0
  3  4  2  0  0  0
  4  9  1  0  0  0
  4  5  1  0  0  0
  9 11  1  0  0  0
  9 10  1  0  0  0
 11 12  1  0  0  0
 12 13  1  0  0  0
 12 17  2  0  0  0
 13 14  2  0  0  0
 14 15  1  0  0  0
 15 16  2  0  0  0
 16 17  1  0  0  0
  5  6  2  0  0  0
  6 18  1  0  0  0
  6  7  1  0  0  0
 18 20  1  0  0  0
 18 19  1  0  0  0
 20 21  1  0  0  0
 20 28  2  0  0  0
 21 22  2  0  0  0
 22 23  1  0  0  0
 23 24  1  0  0  0
 23 27  2  0  0  0
 24 25  2  0  0  0
 25 26  1  0  0  0
 26 27  1  0  0  0
 27 28  1  0  0  0
M  END
> <minimizedAffinity>
-8.99255

$$$$
