CHEMBL3959862


 43 47  0  0  0  0  0  0  0  0999 V2000
  -14.8739   -2.9624  -12.9993 O   0  0  0  0  0  0  0  0  0  0  0  0
  -13.8703   -2.2675  -12.8975 C   0  0  0  0  0  0  0  0  0  0  0  0
  -12.7103   -2.6713  -12.2491 N   0  0  0  0  0  0  0  0  0  0  0  0
  -13.7650   -0.9721  -13.3821 N   0  0  0  0  0  0  0  0  0  0  0  0
  -12.0250   -1.9570  -12.0584 H   0  0  0  0  0  0  0  0  0  0  0  0
  -12.8475   -0.5543  -13.3867 H   0  0  0  0  0  0  0  0  0  0  0  0
  -14.8140   -0.2113  -13.9560 C   0  0  0  0  0  0  0  0  0  0  0  0
  -15.9399    0.2083  -13.2392 C   0  0  0  0  0  0  0  0  0  0  0  0
  -16.9400    0.9785  -13.8390 C   0  0  0  0  0  0  0  0  0  0  0  0
  -16.8617    1.2957  -15.1943 C   0  0  0  0  0  0  0  0  0  0  0  0
  -15.7229    0.9118  -15.9036 C   0  0  0  0  0  0  0  0  0  0  0  0
  -15.5864    1.2551  -17.1923 F   0  0  0  0  0  0  0  0  0  0  0  0
  -14.7062    0.1649  -15.2982 C   0  0  0  0  0  0  0  0  0  0  0  0
  -17.8348    2.0120  -15.8587 O   0  0  0  0  0  0  0  0  0  0  0  0
  -19.0608    2.1941  -15.2487 C   0  0  0  0  0  0  0  0  0  0  0  0
  -19.4706    3.4108  -14.7091 C   0  0  0  0  0  0  0  0  0  0  0  0
  -20.7353    3.4788  -14.1707 C   0  0  0  0  0  0  0  0  0  0  0  0
  -21.5619    2.4218  -14.0928 N   0  0  0  0  0  0  0  0  0  0  0  0
  -21.1415    1.2305  -14.5496 C   0  0  0  0  0  0  0  0  0  0  0  0
  -19.8914    1.0765  -15.1416 C   0  0  0  0  0  0  0  0  0  0  0  0
  -21.9702    0.1087  -14.4164 N   0  0  0  0  0  0  0  0  0  0  0  0
  -22.4520   -0.3540  -13.2060 C   0  0  0  0  0  0  0  0  0  0  0  0
  -22.2941    0.1349  -12.0970 O   0  0  0  0  0  0  0  0  0  0  0  0
  -22.1962   -0.4083  -15.2499 H   0  0  0  0  0  0  0  0  0  0  0  0
  -23.2302   -1.6286  -13.3236 C   0  0  0  0  0  0  0  0  0  0  0  0
  -24.6953   -1.6630  -12.9402 C   0  0  0  0  0  0  0  0  0  0  0  0
  -23.6794   -2.3259  -12.0580 C   0  0  0  0  0  0  0  0  0  0  0  0
  -12.5248   -3.9161  -11.5973 C   0  0  0  0  0  0  0  0  0  0  0  0
  -12.6215   -5.1512  -12.2489 C   0  0  0  0  0  0  0  0  0  0  0  0
  -12.5033   -6.3645  -11.5554 C   0  0  0  0  0  0  0  0  0  0  0  0
  -12.2607   -6.3276  -10.1791 C   0  0  0  0  0  0  0  0  0  0  0  0
  -12.1105   -5.1029   -9.5082 C   0  0  0  0  0  0  0  0  0  0  0  0
  -12.2401   -3.9018  -10.2294 C   0  0  0  0  0  0  0  0  0  0  0  0
  -12.6083   -7.6370  -12.2532 C   0  0  0  0  0  0  0  0  0  0  0  0
  -12.2160   -8.0124  -13.5600 C   0  0  0  0  0  0  0  0  0  0  0  0
  -12.4971   -9.2873  -13.8421 N   0  0  0  0  0  0  0  0  0  0  0  0
  -13.0750   -9.7367  -12.7168 N   0  0  0  0  0  0  0  0  0  0  0  0
  -13.1565   -8.7924  -11.7346 C   0  0  0  0  0  0  0  0  0  0  0  0
  -13.3924  -10.7003  -12.6889 H   0  0  0  0  0  0  0  0  0  0  0  0
  -11.8114   -5.0627   -8.0310 C   0  0  0  0  0  0  0  0  0  0  0  0
  -11.3034   -3.8734   -7.6060 F   0  0  0  0  0  0  0  0  0  0  0  0
  -12.9218   -5.2870   -7.2753 F   0  0  0  0  0  0  0  0  0  0  0  0
  -10.9091   -6.0117   -7.6585 F   0  0  0  0  0  0  0  0  0  0  0  0
  1  2  2  0  0  0
  2  3  1  0  0  0
  2  4  1  0  0  0
  3 28  1  0  0  0
  3  5  1  0  0  0
 28 29  1  0  0  0
 28 33  2  0  0  0
 29 30  2  0  0  0
 30 34  1  0  0  0
 30 31  1  0  0  0
 34 35  1  0  0  0
 34 38  2  0  0  0
 35 36  2  0  0  0
 36 37  1  0  0  0
 37 38  1  0  0  0
 37 39  1  0  0  0
 31 32  2  0  0  0
 32 40  1  0  0  0
 32 33  1  0  0  0
 40 41  1  0  0  0
 40 42  1  0  0  0
 40 43  1  0  0  0
  4  7  1  0  0  0
  4  6  1  0  0  0
  7  8  1  0  0  0
  7 13  2  0  0  0
  8  9  2  0  0  0
  9 10  1  0  0  0
 10 14  1  0  0  0
 10 11  2  0  0  0
 14 15  1  0  0  0
 15 16  1  0  0  0
 15 20  2  0  0  0
 16 17  2  0  0  0
 17 18  1  0  0  0
 18 19  2  0  0  0
 19 21  1  0  0  0
 19 20  1  0  0  0
 21 22  1  0  0  0
 21 24  1  0  0  0
 22 23  2  0  0  0
 22 25  1  0  0  0
 25 26  1  0  0  0
 25 27  1  0  0  0
 26 27  1  0  0  0
 11 12  1  0  0  0
 11 13  1  0  0  0
M  END
> <minimizedAffinity>
-9.74841

$$$$
