CHEMBL3907574


 34 38  0  0  0  0  0  0  0  0999 V2000
  -30.1567   -4.7016   -7.0570 O   0  0  0  0  0  0  0  0  0  0  0  0
  -29.8891   -5.7043   -6.1432 C   0  0  0  0  0  0  0  0  0  0  0  0
  -30.3649   -5.7562   -4.8233 C   0  0  0  0  0  0  0  0  0  0  0  0
  -29.9429   -6.7564   -3.9228 C   0  0  0  0  0  0  0  0  0  0  0  0
  -29.2044   -7.8319   -4.4437 C   0  0  0  0  0  0  0  0  0  0  0  0
  -28.6457   -9.0842   -4.0179 C   0  0  0  0  0  0  0  0  0  0  0  0
  -29.0463   -9.9706   -4.9575 N   0  0  0  0  0  0  0  0  0  0  0  0
  -28.9024   -9.2272   -6.0762 N   0  0  0  0  0  0  0  0  0  0  0  0
  -29.0571   -7.8889   -5.8278 C   0  0  0  0  0  0  0  0  0  0  0  0
  -29.1978   -6.7938   -6.6754 C   0  0  0  0  0  0  0  0  0  0  0  0
  -28.8686   -9.6991   -6.9700 H   0  0  0  0  0  0  0  0  0  0  0  0
  -27.2815   -9.3571   -3.5772 C   0  0  0  0  0  0  0  0  0  0  0  0
  -26.1815   -8.7828   -4.1021 C   0  0  0  0  0  0  0  0  0  0  0  0
  -25.0704   -9.6231   -4.4475 C   0  0  0  0  0  0  0  0  0  0  0  0
  -24.1684  -10.2736   -3.6104 C   0  0  0  0  0  0  0  0  0  0  0  0
  -23.1031  -10.7704   -4.4043 C   0  0  0  0  0  0  0  0  0  0  0  0
  -23.4079  -10.4272   -5.6950 C   0  0  0  0  0  0  0  0  0  0  0  0
  -24.5896   -9.7670   -5.7379 O   0  0  0  0  0  0  0  0  0  0  0  0
  -27.7188   -2.3470   -8.4235 C   0  0  0  0  0  0  0  0  0  0  0  0
  -27.8076   -1.3115   -7.4867 C   0  0  0  0  0  0  0  0  0  0  0  0
  -28.5721   -1.4453   -6.3292 C   0  0  0  0  0  0  0  0  0  0  0  0
  -29.2919   -2.6175   -6.1230 C   0  0  0  0  0  0  0  0  0  0  0  0
  -29.3559   -3.5852   -7.1268 C   0  0  0  0  0  0  0  0  0  0  0  0
  -28.5354   -3.4720   -8.2590 C   0  0  0  0  0  0  0  0  0  0  0  0
  -28.1007   -0.9978  -11.0008 O   0  0  0  0  0  0  0  0  0  0  0  0
  -27.0891   -1.6327  -10.7152 C   0  0  0  0  0  0  0  0  0  0  0  0
  -26.8255   -2.2878   -9.5193 N   0  0  0  0  0  0  0  0  0  0  0  0
  -25.8745   -2.5876   -9.3555 H   0  0  0  0  0  0  0  0  0  0  0  0
  -26.0065   -1.6507  -11.7301 C   0  0  0  0  0  0  0  0  0  0  0  0
  -24.6837   -1.5957  -11.2662 C   0  0  0  0  0  0  0  0  0  0  0  0
  -23.6266   -1.5316  -12.1620 C   0  0  0  0  0  0  0  0  0  0  0  0
  -23.8831   -1.5129  -13.5342 C   0  0  0  0  0  0  0  0  0  0  0  0
  -25.2010   -1.5567  -14.0004 C   0  0  0  0  0  0  0  0  0  0  0  0
  -26.2687   -1.6271  -13.1012 C   0  0  0  0  0  0  0  0  0  0  0  0
 25 26  2  0  0  0
 26 27  1  0  0  0
 26 29  1  0  0  0
 27 19  1  0  0  0
 27 28  1  0  0  0
 19 20  1  0  0  0
 19 24  2  0  0  0
 20 21  2  0  0  0
 21 22  1  0  0  0
 22 23  2  0  0  0
 23  1  1  0  0  0
 23 24  1  0  0  0
  1  2  1  0  0  0
  2  3  1  0  0  0
  2 10  2  0  0  0
  3  4  2  0  0  0
  4  5  1  0  0  0
  5  6  1  0  0  0
  5  9  2  0  0  0
  6 12  1  0  0  0
  6  7  2  0  0  0
 12 13  2  0  0  0
 13 14  1  0  0  0
 14 15  2  0  0  0
 14 18  1  0  0  0
 15 16  1  0  0  0
 16 17  2  0  0  0
 17 18  1  0  0  0
  7  8  1  0  0  0
  8  9  1  0  0  0
  8 11  1  0  0  0
  9 10  1  0  0  0
 29 30  1  0  0  0
 29 34  2  0  0  0
 30 31  2  0  0  0
 31 32  1  0  0  0
 32 33  2  0  0  0
 33 34  1  0  0  0
M  END
> <minimizedAffinity>
-10.29913

$$$$
