CHEMBL402504


 39 42  0  0  0  0  0  0  0  0999 V2000
  -14.5818   -1.0513  -13.5125 C   0  0  0  0  0  0  0  0  0  0  0  0
  -15.9286   -0.7016  -13.6233 C   0  0  0  0  0  0  0  0  0  0  0  0
  -16.3207    0.2274  -14.5791 C   0  0  0  0  0  0  0  0  0  0  0  0
  -15.3797    0.7882  -15.4550 C   0  0  0  0  0  0  0  0  0  0  0  0
  -14.0599    0.3408  -15.4204 C   0  0  0  0  0  0  0  0  0  0  0  0
  -13.6721   -0.5778  -14.4554 C   0  0  0  0  0  0  0  0  0  0  0  0
  -12.3971   -1.0117  -14.4440 F   0  0  0  0  0  0  0  0  0  0  0  0
  -15.8660    1.7171  -16.3786 N   0  0  0  0  0  0  0  0  0  0  0  0
  -15.9700    1.3642  -17.3308 H   0  0  0  0  0  0  0  0  0  0  0  0
  -16.2490    3.0292  -16.2293 C   0  0  0  0  0  0  0  0  0  0  0  0
  -15.2723    4.3620  -15.9851 S   0  0  0  0  0  0  0  0  0  0  0  0
  -17.6169    3.2326  -16.2380 N   0  0  0  0  0  0  0  0  0  0  0  0
  -18.4862    3.1326  -15.1584 C   0  0  0  0  0  0  0  0  0  0  0  0
  -18.1219    2.9130  -14.0035 O   0  0  0  0  0  0  0  0  0  0  0  0
  -18.0011    3.4129  -17.1532 H   0  0  0  0  0  0  0  0  0  0  0  0
  -19.9365    3.3875  -15.5000 C   0  0  0  0  0  0  0  0  0  0  0  0
  -20.9010    2.4381  -14.8375 C   0  0  0  0  0  0  0  0  0  0  0  0
  -22.0395    2.9150  -14.1700 C   0  0  0  0  0  0  0  0  0  0  0  0
  -22.9646    2.0222  -13.6233 C   0  0  0  0  0  0  0  0  0  0  0  0
  -22.7631    0.6489  -13.7389 C   0  0  0  0  0  0  0  0  0  0  0  0
  -21.6355    0.1642  -14.3964 C   0  0  0  0  0  0  0  0  0  0  0  0
  -20.7089    1.0544  -14.9432 C   0  0  0  0  0  0  0  0  0  0  0  0
  -14.1154   -1.8763  -12.5246 O   0  0  0  0  0  0  0  0  0  0  0  0
  -13.4488   -6.0640  -14.1833 C   0  0  0  0  0  0  0  0  0  0  0  0
  -14.5202   -6.4762  -13.3999 C   0  0  0  0  0  0  0  0  0  0  0  0
  -15.1156   -5.4015  -12.6739 C   0  0  0  0  0  0  0  0  0  0  0  0
  -16.0924   -5.5175  -11.7337 N   0  0  0  0  0  0  0  0  0  0  0  0
  -16.3738   -4.3923  -11.0496 C   0  0  0  0  0  0  0  0  0  0  0  0
  -15.7431   -3.1714  -11.2197 C   0  0  0  0  0  0  0  0  0  0  0  0
  -14.8122   -3.0342  -12.2498 C   0  0  0  0  0  0  0  0  0  0  0  0
  -14.5186   -4.1861  -12.9872 C   0  0  0  0  0  0  0  0  0  0  0  0
  -13.4979   -4.3626  -14.3459 S   0  0  0  0  0  0  0  0  0  0  0  0
  -12.7009   -7.2159  -16.2777 N   0  0  0  0  0  0  0  0  0  0  0  0
  -12.5098   -6.9233  -14.8989 C   0  0  0  0  0  0  0  0  0  0  0  0
  -11.4967   -7.3254  -14.3226 O   0  0  0  0  0  0  0  0  0  0  0  0
  -12.1462   -8.9823  -17.9389 C   0  0  0  0  0  0  0  0  0  0  0  0
  -11.6259   -7.9554  -16.9470 C   0  0  0  0  0  0  0  0  0  0  0  0
  -13.8553   -6.7437  -17.0520 C   0  0  0  0  0  0  0  0  0  0  0  0
  -13.6735   -5.6717  -18.1149 C   0  0  0  0  0  0  0  0  0  0  0  0
 36 37  1  0  0  0
 37 33  1  0  0  0
 33 38  1  0  0  0
 33 34  1  0  0  0
 38 39  1  0  0  0
 34 35  2  0  0  0
 34 24  1  0  0  0
 24 25  2  0  0  0
 24 32  1  0  0  0
 25 26  1  0  0  0
 26 27  1  0  0  0
 26 31  2  0  0  0
 27 28  2  0  0  0
 28 29  1  0  0  0
 29 30  2  0  0  0
 30 23  1  0  0  0
 30 31  1  0  0  0
 23  1  1  0  0  0
  1  2  1  0  0  0
  1  6  2  0  0  0
  2  3  2  0  0  0
  3  4  1  0  0  0
  4  8  1  0  0  0
  4  5  2  0  0  0
  8 10  1  0  0  0
  8  9  1  0  0  0
 10 11  2  0  0  0
 10 12  1  0  0  0
 12 13  1  0  0  0
 12 15  1  0  0  0
 13 14  2  0  0  0
 13 16  1  0  0  0
 16 17  1  0  0  0
 17 18  1  0  0  0
 17 22  2  0  0  0
 18 19  2  0  0  0
 19 20  1  0  0  0
 20 21  2  0  0  0
 21 22  1  0  0  0
  5  6  1  0  0  0
  6  7  1  0  0  0
 31 32  1  0  0  0
M  END
> <minimizedAffinity>
-8.21131

$$$$
