CHEMBL1271669


 22 24  0  0  0  0  0  0  0  0999 V2000
  -23.4604   -0.1980  -12.6436 C   0  0  0  0  0  0  0  0  0  0  0  0
  -22.5109   -0.6052  -11.9806 O   0  0  0  0  0  0  0  0  0  0  0  0
  -23.4015    0.8295  -13.5683 N   0  0  0  0  0  0  0  0  0  0  0  0
  -24.2748    1.1619  -13.9594 H   0  0  0  0  0  0  0  0  0  0  0  0
  -22.2264    1.5168  -13.9498 C   0  0  0  0  0  0  0  0  0  0  0  0
  -22.1353    2.8975  -14.0817 C   0  0  0  0  0  0  0  0  0  0  0  0
  -21.0336    3.5582  -14.5178 N   0  0  0  0  0  0  0  0  0  0  0  0
  -19.9635    2.8313  -14.8595 C   0  0  0  0  0  0  0  0  0  0  0  0
  -18.8550    3.4839  -15.3809 C   0  0  0  0  0  0  0  0  0  0  0  0
  -17.7187    2.7821  -15.7843 C   0  0  0  0  0  0  0  0  0  0  0  0
  -17.6745    1.3996  -15.6448 C   0  0  0  0  0  0  0  0  0  0  0  0
  -18.7733    0.7220  -15.1100 C   0  0  0  0  0  0  0  0  0  0  0  0
  -19.9282    1.4267  -14.7231 C   0  0  0  0  0  0  0  0  0  0  0  0
  -21.0789    0.7793  -14.2356 C   0  0  0  0  0  0  0  0  0  0  0  0
  -27.9909   -2.3001  -13.8746 C   0  0  0  0  0  0  0  0  0  0  0  0
  -26.9501   -1.8108  -12.9014 C   0  0  0  0  0  0  0  0  0  0  0  0
  -27.2118   -1.9557  -11.5278 C   0  0  0  0  0  0  0  0  0  0  0  0
  -26.2887   -1.5347  -10.5774 C   0  0  0  0  0  0  0  0  0  0  0  0
  -25.0941   -0.9541  -10.9900 C   0  0  0  0  0  0  0  0  0  0  0  0
  -24.7993   -0.7902  -12.3574 C   0  0  0  0  0  0  0  0  0  0  0  0
  -25.7268   -1.2334  -13.3187 C   0  0  0  0  0  0  0  0  0  0  0  0
  -25.3478   -1.1530  -15.1905 Br  0  0  0  0  0  0  0  0  0  0  0  0
 15 16  1  0  0  0
 16 17  1  0  0  0
 16 21  2  0  0  0
 17 18  2  0  0  0
 18 19  1  0  0  0
 19 20  2  0  0  0
 20  1  1  0  0  0
 20 21  1  0  0  0
  1  2  2  0  0  0
  1  3  1  0  0  0
  3  5  1  0  0  0
  3  4  1  0  0  0
  5  6  1  0  0  0
  5 14  2  0  0  0
  6  7  2  0  0  0
  7  8  1  0  0  0
  8  9  1  0  0  0
  8 13  2  0  0  0
  9 10  2  0  0  0
 10 11  1  0  0  0
 11 12  2  0  0  0
 12 13  1  0  0  0
 13 14  1  0  0  0
 21 22  1  0  0  0
M  END
> <minimizedAffinity>
-10.51613

$$$$
