CHEMBL1834657


 40 43  0  0  0  0  0  0  0  0999 V2000
  -28.7267   -8.9945   -4.3680 C   0  0  0  0  0  0  0  0  0  0  0  0
  -29.3170   -8.4532   -5.4836 C   0  0  0  0  0  0  0  0  0  0  0  0
  -29.9524   -7.2585   -5.3084 C   0  0  0  0  0  0  0  0  0  0  0  0
  -30.0050   -6.6056   -4.1327 N   0  0  0  0  0  0  0  0  0  0  0  0
  -29.4406   -7.2339   -3.0993 C   0  0  0  0  0  0  0  0  0  0  0  0
  -28.8007   -8.4030   -3.1617 N   0  0  0  0  0  0  0  0  0  0  0  0
  -30.5281   -6.6280   -6.4188 N   0  0  0  0  0  0  0  0  0  0  0  0
  -31.5654   -7.3867   -7.0947 C   0  0  0  0  0  0  0  0  0  0  0  0
  -30.2764   -5.3236   -6.8063 C   0  0  0  0  0  0  0  0  0  0  0  0
  -30.9154   -4.7762   -7.7165 O   0  0  0  0  0  0  0  0  0  0  0  0
  -29.2086   -4.7069   -6.1717 N   0  0  0  0  0  0  0  0  0  0  0  0
  -28.4238   -5.3432   -6.0397 H   0  0  0  0  0  0  0  0  0  0  0  0
  -28.8294   -3.3560   -6.4348 C   0  0  0  0  0  0  0  0  0  0  0  0
  -29.1699   -2.2801   -5.5734 C   0  0  0  0  0  0  0  0  0  0  0  0
  -29.7857   -2.6635   -3.9900 Cl  0  0  0  0  0  0  0  0  0  0  0  0
  -28.8374   -0.9643   -5.9476 C   0  0  0  0  0  0  0  0  0  0  0  0
  -28.1073   -0.7527   -7.1338 C   0  0  0  0  0  0  0  0  0  0  0  0
  -27.6696   -1.8072   -7.9336 C   0  0  0  0  0  0  0  0  0  0  0  0
  -28.0467   -3.1107   -7.5781 C   0  0  0  0  0  0  0  0  0  0  0  0
  -27.5566   -4.4498   -8.5842 Cl  0  0  0  0  0  0  0  0  0  0  0  0
  -29.0667    0.2315   -5.3215 O   0  0  0  0  0  0  0  0  0  0  0  0
  -30.2157    1.0079   -5.6079 C   0  0  0  0  0  0  0  0  0  0  0  0
  -26.8846   -1.6598   -9.0473 O   0  0  0  0  0  0  0  0  0  0  0  0
  -27.5303   -1.5266  -10.3083 C   0  0  0  0  0  0  0  0  0  0  0  0
  -27.9238  -10.1403   -4.5335 N   0  0  0  0  0  0  0  0  0  0  0  0
  -27.0095   -9.9794   -4.1198 H   0  0  0  0  0  0  0  0  0  0  0  0
  -27.6291  -11.1938   -8.5535 C   0  0  0  0  0  0  0  0  0  0  0  0
  -28.5488  -11.8603   -7.7406 C   0  0  0  0  0  0  0  0  0  0  0  0
  -28.6073  -11.5989   -6.3761 C   0  0  0  0  0  0  0  0  0  0  0  0
  -27.6908  -10.7334   -5.7897 C   0  0  0  0  0  0  0  0  0  0  0  0
  -26.6320  -10.2528   -6.5429 C   0  0  0  0  0  0  0  0  0  0  0  0
  -26.5682  -10.5458   -7.8935 C   0  0  0  0  0  0  0  0  0  0  0  0
  -28.2881   -9.3395  -12.3130 N   0  0  0  0  0  0  0  0  0  0  0  0
  -27.1436   -9.1266  -11.4114 C   0  0  0  0  0  0  0  0  0  0  0  0
  -26.6771  -10.3922  -10.6664 C   0  0  0  0  0  0  0  0  0  0  0  0
  -27.7723  -11.0778   -9.9333 N   0  0  0  0  0  0  0  0  0  0  0  0
  -29.0985  -11.0941  -10.5782 C   0  0  0  0  0  0  0  0  0  0  0  0
  -29.3802   -9.8591  -11.4645 C   0  0  0  0  0  0  0  0  0  0  0  0
  -27.3070   -9.4251  -14.5937 C   0  0  0  0  0  0  0  0  0  0  0  0
  -27.9103  -10.2072  -13.4317 C   0  0  0  0  0  0  0  0  0  0  0  0
 39 40  1  0  0  0
 40 33  1  0  0  0
 33 34  1  0  0  0
 33 38  1  0  0  0
 34 35  1  0  0  0
 35 36  1  0  0  0
 36 27  1  0  0  0
 36 37  1  0  0  0
 27 28  1  0  0  0
 27 32  2  0  0  0
 28 29  2  0  0  0
 29 30  1  0  0  0
 30 25  1  0  0  0
 30 31  2  0  0  0
 25  1  1  0  0  0
 25 26  1  0  0  0
  1  2  1  0  0  0
  1  6  2  0  0  0
  2  3  2  0  0  0
  3  7  1  0  0  0
  3  4  1  0  0  0
  7  8  1  0  0  0
  7  9  1  0  0  0
  9 10  2  0  0  0
  9 11  1  0  0  0
 11 13  1  0  0  0
 11 12  1  0  0  0
 13 14  1  0  0  0
 13 19  2  0  0  0
 14 15  1  0  0  0
 14 16  2  0  0  0
 16 21  1  0  0  0
 16 17  1  0  0  0
 21 22  1  0  0  0
 17 18  2  0  0  0
 18 23  1  0  0  0
 18 19  1  0  0  0
 23 24  1  0  0  0
 19 20  1  0  0  0
  4  5  2  0  0  0
  5  6  1  0  0  0
 31 32  1  0  0  0
 37 38  1  0  0  0
M  END
> <minimizedAffinity>
-6.47086

$$$$
