CHEMBL3915272


 45 47  0  0  0  0  0  0  0  0999 V2000
  -15.4011    2.9216  -15.6480 C   0  0  0  0  0  0  0  0  0  0  0  0
  -16.7172    3.2576  -15.9248 C   0  0  0  0  0  0  0  0  0  0  0  0
  -17.7789    2.4473  -15.6693 N   0  0  0  0  0  0  0  0  0  0  0  0
  -17.5266    1.2497  -15.1033 C   0  0  0  0  0  0  0  0  0  0  0  0
  -18.6386    0.4224  -14.9411 N   0  0  0  0  0  0  0  0  0  0  0  0
  -16.2323    0.8299  -14.7681 C   0  0  0  0  0  0  0  0  0  0  0  0
  -15.1588    1.6807  -15.0473 C   0  0  0  0  0  0  0  0  0  0  0  0
  -19.4623    0.9655  -15.1733 H   0  0  0  0  0  0  0  0  0  0  0  0
  -18.6798    0.0159  -14.0136 H   0  0  0  0  0  0  0  0  0  0  0  0
  -14.2884    3.8477  -15.9990 C   0  0  0  0  0  0  0  0  0  0  0  0
  -14.0681    4.7601  -15.2070 O   0  0  0  0  0  0  0  0  0  0  0  0
  -13.8303    4.2179  -18.4973 S   0  0  0  0  0  0  0  0  0  0  0  0
  -13.4756    5.9658  -18.4407 C   0  0  0  0  0  0  0  0  0  0  0  0
  -15.1207    4.0598  -19.1401 O   0  0  0  0  0  0  0  0  0  0  0  0
  -13.4708    3.6118  -17.1224 N   0  0  0  0  0  0  0  0  0  0  0  0
  -12.6032    3.6461  -19.6711 C   0  0  0  0  0  0  0  0  0  0  0  0
  -12.2469    2.1763  -19.4622 C   0  0  0  0  0  0  0  0  0  0  0  0
  -13.3500    1.2577  -19.9912 C   0  0  0  0  0  0  0  0  0  0  0  0
  -14.0941    0.5468  -18.8594 C   0  0  0  0  0  0  0  0  0  0  0  0
  -13.4622   -0.7874  -18.5314 C   0  0  0  0  0  0  0  0  0  0  0  0
  -13.7050   -1.8428  -19.0990 O   0  0  0  0  0  0  0  0  0  0  0  0
  -13.0315   -1.1720  -16.2622 C   0  0  0  0  0  0  0  0  0  0  0  0
  -12.5768   -0.6354  -17.5062 O   0  0  0  0  0  0  0  0  0  0  0  0
  -16.0025   -0.4399  -14.1455 C   0  0  0  0  0  0  0  0  0  0  0  0
  -15.8156   -1.5308  -13.6749 C   0  0  0  0  0  0  0  0  0  0  0  0
  -15.5641   -2.8321  -13.1410 C   0  0  0  0  0  0  0  0  0  0  0  0
  -16.2648   -3.2555  -12.0103 C   0  0  0  0  0  0  0  0  0  0  0  0
  -15.9906   -4.4994  -11.4558 C   0  0  0  0  0  0  0  0  0  0  0  0
  -15.0207   -5.3172  -12.0346 C   0  0  0  0  0  0  0  0  0  0  0  0
  -14.3329   -4.9236  -13.1907 C   0  0  0  0  0  0  0  0  0  0  0  0
  -14.6027   -3.6646  -13.7344 C   0  0  0  0  0  0  0  0  0  0  0  0
  -13.3557   -5.7446  -13.8082 N   0  0  0  0  0  0  0  0  0  0  0  0
  -13.6129   -6.5506  -14.8990 C   0  0  0  0  0  0  0  0  0  0  0  0
  -14.6628   -6.5324  -15.5355 O   0  0  0  0  0  0  0  0  0  0  0  0
  -12.5586   -7.4084  -15.1985 N   0  0  0  0  0  0  0  0  0  0  0  0
  -12.3833   -5.5461  -13.6221 H   0  0  0  0  0  0  0  0  0  0  0  0
  -12.1179   -7.8113  -14.3797 H   0  0  0  0  0  0  0  0  0  0  0  0
  -12.7497   -8.3181  -16.2764 C   0  0  0  0  0  0  0  0  0  0  0  0
  -12.8357   -7.8504  -17.5932 C   0  0  0  0  0  0  0  0  0  0  0  0
  -13.2929   -8.6834  -18.6201 C   0  0  0  0  0  0  0  0  0  0  0  0
  -13.5320   -8.1226  -19.9913 C   0  0  0  0  0  0  0  0  0  0  0  0
  -13.6186  -10.0125  -18.3223 C   0  0  0  0  0  0  0  0  0  0  0  0
  -13.4562  -10.5067  -17.0240 C   0  0  0  0  0  0  0  0  0  0  0  0
  -13.0078   -9.6617  -16.0120 C   0  0  0  0  0  0  0  0  0  0  0  0
  -12.9322  -10.1235  -14.7542 F   0  0  0  0  0  0  0  0  0  0  0  0
 22 23  1  0  0  0
 23 20  1  0  0  0
 20 21  2  0  0  0
 20 19  1  0  0  0
 19 18  1  0  0  0
 18 17  1  0  0  0
 17 16  1  0  0  0
 16 12  1  0  0  0
 12 13  1  0  0  0
 12 14  2  0  0  0
 12 15  2  0  0  0
 15 10  1  0  0  0
 10 11  2  0  0  0
 10  1  1  0  0  0
  1  2  1  0  0  0
  1  7  2  0  0  0
  2  3  2  0  0  0
  3  4  1  0  0  0
  4  5  1  0  0  0
  4  6  2  0  0  0
  5  8  1  0  0  0
  5  9  1  0  0  0
  6 24  1  0  0  0
  6  7  1  0  0  0
 24 25  3  0  0  0
 25 26  1  0  0  0
 26 27  1  0  0  0
 26 31  2  0  0  0
 27 28  2  0  0  0
 28 29  1  0  0  0
 29 30  2  0  0  0
 30 32  1  0  0  0
 30 31  1  0  0  0
 32 33  1  0  0  0
 32 36  1  0  0  0
 33 34  2  0  0  0
 33 35  1  0  0  0
 35 38  1  0  0  0
 35 37  1  0  0  0
 38 39  1  0  0  0
 38 44  2  0  0  0
 39 40  2  0  0  0
 40 41  1  0  0  0
 40 42  1  0  0  0
 42 43  2  0  0  0
 43 44  1  0  0  0
 44 45  1  0  0  0
M  END
> <minimizedAffinity>
-7.02108

$$$$
