CHEMBL3961417


 36 40  0  0  0  0  0  0  0  0999 V2000
  -28.5022   -8.9642   -5.7645 C   0  0  0  0  0  0  0  0  0  0  0  0
  -27.6616   -9.8901   -6.3879 C   0  0  0  0  0  0  0  0  0  0  0  0
  -27.4075   -9.8355   -7.7771 C   0  0  0  0  0  0  0  0  0  0  0  0
  -26.5865  -10.7440   -8.4705 C   0  0  0  0  0  0  0  0  0  0  0  0
  -26.3068  -10.6090   -9.7754 N   0  0  0  0  0  0  0  0  0  0  0  0
  -26.8932   -9.5825  -10.3994 C   0  0  0  0  0  0  0  0  0  0  0  0
  -27.7218   -8.6847   -9.8473 N   0  0  0  0  0  0  0  0  0  0  0  0
  -27.9664   -8.8102   -8.5398 C   0  0  0  0  0  0  0  0  0  0  0  0
  -28.8264   -7.9098   -7.9172 C   0  0  0  0  0  0  0  0  0  0  0  0
  -29.1313   -7.9819   -6.5471 C   0  0  0  0  0  0  0  0  0  0  0  0
  -27.6460   -9.2606   -3.5640 C   0  0  0  0  0  0  0  0  0  0  0  0
  -28.7423   -8.9485   -4.4145 O   0  0  0  0  0  0  0  0  0  0  0  0
  -26.1380  -11.9056   -7.7907 N   0  0  0  0  0  0  0  0  0  0  0  0
  -26.2833  -12.7099   -8.3920 H   0  0  0  0  0  0  0  0  0  0  0  0
  -25.0258  -12.0307   -6.9373 C   0  0  0  0  0  0  0  0  0  0  0  0
  -25.2105  -12.4657   -5.6186 C   0  0  0  0  0  0  0  0  0  0  0  0
  -24.1642  -12.4146   -4.6934 C   0  0  0  0  0  0  0  0  0  0  0  0
  -22.9211  -11.9037   -5.0713 C   0  0  0  0  0  0  0  0  0  0  0  0
  -21.5968  -11.7373   -3.7205 Br  0  0  0  0  0  0  0  0  0  0  0  0
  -22.7110  -11.5021   -6.3940 C   0  0  0  0  0  0  0  0  0  0  0  0
  -21.2073  -10.8468   -6.9399 Cl  0  0  0  0  0  0  0  0  0  0  0  0
  -23.7568  -11.5816   -7.3220 C   0  0  0  0  0  0  0  0  0  0  0  0
  -30.0673   -7.1820   -5.9274 O   0  0  0  0  0  0  0  0  0  0  0  0
  -29.6289   -6.3090   -4.8711 C   0  0  0  0  0  0  0  0  0  0  0  0
  -28.3069   -5.6150   -5.1990 C   0  0  0  0  0  0  0  0  0  0  0  0
  -28.6015   -4.4012   -5.9059 O   0  0  0  0  0  0  0  0  0  0  0  0
  -29.8882   -3.9510   -5.4565 C   0  0  0  0  0  0  0  0  0  0  0  0
  -29.7274   -2.9137   -4.3398 C   0  0  0  0  0  0  0  0  0  0  0  0
  -30.8231   -3.3142   -3.3673 C   0  0  0  0  0  0  0  0  0  0  0  0
  -30.8217   -4.7509   -3.4022 O   0  0  0  0  0  0  0  0  0  0  0  0
  -30.5933   -5.1280   -4.7786 C   0  0  0  0  0  0  0  0  0  0  0  0
  -29.7096   -1.5180   -4.7496 N   0  0  0  0  0  0  0  0  0  0  0  0
  -28.5604   -0.7893   -4.9265 C   0  0  0  0  0  0  0  0  0  0  0  0
  -28.7879    0.6529   -5.3056 C   0  0  0  0  0  0  0  0  0  0  0  0
  -27.4370   -1.2566   -4.7841 O   0  0  0  0  0  0  0  0  0  0  0  0
  -30.5969   -1.0299   -4.7720 H   0  0  0  0  0  0  0  0  0  0  0  0
 11 12  1  0  0  0
 12  1  1  0  0  0
  1  2  1  0  0  0
  1 10  2  0  0  0
  2  3  2  0  0  0
  3  4  1  0  0  0
  3  8  1  0  0  0
  4 13  1  0  0  0
  4  5  2  0  0  0
 13 15  1  0  0  0
 13 14  1  0  0  0
 15 16  1  0  0  0
 15 22  2  0  0  0
 16 17  2  0  0  0
 17 18  1  0  0  0
 18 19  1  0  0  0
 18 20  2  0  0  0
 20 21  1  0  0  0
 20 22  1  0  0  0
  5  6  1  0  0  0
  6  7  2  0  0  0
  7  8  1  0  0  0
  8  9  2  0  0  0
  9 10  1  0  0  0
 10 23  1  0  0  0
 24 25  1  0  0  0
 24 31  1  0  0  0
 24 23  1  0  0  0
 25 26  1  0  0  0
 26 27  1  0  0  0
 27 28  1  0  0  0
 27 31  1  0  0  0
 28 32  1  0  0  0
 28 29  1  0  0  0
 32 33  1  0  0  0
 32 36  1  0  0  0
 33 34  1  0  0  0
 33 35  2  0  0  0
 29 30  1  0  0  0
 30 31  1  0  0  0
M  END
> <minimizedAffinity>
-8.41429

$$$$
