CHEMBL201708


 30 33  0  0  0  0  0  0  0  0999 V2000
  -12.1016   -3.3893  -14.5162 C   0  0  0  0  0  0  0  0  0  0  0  0
  -12.5100   -2.6434  -13.4642 C   0  0  0  0  0  0  0  0  0  0  0  0
  -11.9694   -1.2860  -13.6410 C   0  0  0  0  0  0  0  0  0  0  0  0
  -12.1270   -0.3361  -12.8973 O   0  0  0  0  0  0  0  0  0  0  0  0
  -11.2693   -1.2943  -14.7963 N   0  0  0  0  0  0  0  0  0  0  0  0
  -11.3325   -2.4885  -15.3999 C   0  0  0  0  0  0  0  0  0  0  0  0
  -10.8820   -2.7921  -16.4946 O   0  0  0  0  0  0  0  0  0  0  0  0
  -10.8202   -0.4831  -15.1905 H   0  0  0  0  0  0  0  0  0  0  0  0
  -13.3516   -3.1094  -12.4292 C   0  0  0  0  0  0  0  0  0  0  0  0
  -12.8711   -3.5312  -11.2135 C   0  0  0  0  0  0  0  0  0  0  0  0
  -13.6804   -4.5763  -10.8341 N   0  0  0  0  0  0  0  0  0  0  0  0
  -13.3023   -5.5611   -9.8453 C   0  0  0  0  0  0  0  0  0  0  0  0
  -14.7655   -4.6794  -11.6845 C   0  0  0  0  0  0  0  0  0  0  0  0
  -15.7842   -5.6414  -11.7752 C   0  0  0  0  0  0  0  0  0  0  0  0
  -16.7514   -5.4811  -12.7735 C   0  0  0  0  0  0  0  0  0  0  0  0
  -16.7222   -4.3886  -13.6350 C   0  0  0  0  0  0  0  0  0  0  0  0
  -15.6684   -3.4724  -13.5793 C   0  0  0  0  0  0  0  0  0  0  0  0
  -14.6568   -3.6361  -12.6084 C   0  0  0  0  0  0  0  0  0  0  0  0
  -13.5788   -6.4711  -16.1445 C   0  0  0  0  0  0  0  0  0  0  0  0
  -13.2515   -5.1324  -15.8603 C   0  0  0  0  0  0  0  0  0  0  0  0
  -12.4098   -4.7971  -14.7914 C   0  0  0  0  0  0  0  0  0  0  0  0
  -11.9234   -5.8153  -13.9651 C   0  0  0  0  0  0  0  0  0  0  0  0
  -12.2606   -7.1541  -14.2143 C   0  0  0  0  0  0  0  0  0  0  0  0
  -13.0614   -7.4959  -15.3252 C   0  0  0  0  0  0  0  0  0  0  0  0
  -14.0230   -6.5462  -18.4825 C   0  0  0  0  0  0  0  0  0  0  0  0
  -14.4402   -6.8219  -17.1501 O   0  0  0  0  0  0  0  0  0  0  0  0
  -11.7882   -8.2014  -13.4593 O   0  0  0  0  0  0  0  0  0  0  0  0
  -12.3049   -8.3013  -12.1396 C   0  0  0  0  0  0  0  0  0  0  0  0
  -13.3421   -8.8355  -15.4588 O   0  0  0  0  0  0  0  0  0  0  0  0
  -12.7719   -9.5063  -16.5763 C   0  0  0  0  0  0  0  0  0  0  0  0
 25 26  1  0  0  0
 26 19  1  0  0  0
 19 20  1  0  0  0
 19 24  2  0  0  0
 20 21  2  0  0  0
 21  1  1  0  0  0
 21 22  1  0  0  0
  1  2  2  0  0  0
  1  6  1  0  0  0
  2  9  1  0  0  0
  2  3  1  0  0  0
  9 10  2  0  0  0
  9 18  1  0  0  0
 10 11  1  0  0  0
 11 12  1  0  0  0
 11 13  1  0  0  0
 13 14  1  0  0  0
 13 18  2  0  0  0
 14 15  2  0  0  0
 15 16  1  0  0  0
 16 17  2  0  0  0
 17 18  1  0  0  0
  3  4  2  0  0  0
  3  5  1  0  0  0
  5  6  1  0  0  0
  5  8  1  0  0  0
  6  7  2  0  0  0
 22 23  2  0  0  0
 23 27  1  0  0  0
 23 24  1  0  0  0
 27 28  1  0  0  0
 24 29  1  0  0  0
 29 30  1  0  0  0
M  END
> <minimizedAffinity>
-5.93878

$$$$
