CHEMBL1082826


 33 39  0  0  0  0  0  0  0  0999 V2000
  -15.5425    4.4757  -16.4826 C   0  0  0  0  0  0  0  0  0  0  0  0
  -14.6465    3.3589  -16.2693 N   0  0  0  0  0  0  0  0  0  0  0  0
  -14.7574    2.0254  -16.6454 C   0  0  0  0  0  0  0  0  0  0  0  0
  -13.6765    1.3320  -16.0762 C   0  0  0  0  0  0  0  0  0  0  0  0
  -13.3416    2.3111  -15.0467 C   0  0  0  0  0  0  0  0  0  0  0  0
  -13.7225    3.5501  -15.3215 N   0  0  0  0  0  0  0  0  0  0  0  0
  -13.0789    1.9466  -13.6190 C   0  0  0  0  0  0  0  0  0  0  0  0
  -12.6347    0.5101  -13.5956 C   0  0  0  0  0  0  0  0  0  0  0  0
  -13.7410   -0.2472  -14.3384 C   0  0  0  0  0  0  0  0  0  0  0  0
  -13.6493   -0.1226  -15.7306 C   0  0  0  0  0  0  0  0  0  0  0  0
  -12.9451   -1.2709  -16.2065 C   0  0  0  0  0  0  0  0  0  0  0  0
  -12.9665   -2.5585  -15.4991 C   0  0  0  0  0  0  0  0  0  0  0  0
  -13.8336   -2.6308  -14.3837 C   0  0  0  0  0  0  0  0  0  0  0  0
  -14.2077   -3.6809  -13.5380 C   0  0  0  0  0  0  0  0  0  0  0  0
  -13.9104   -5.0424  -13.2906 C   0  0  0  0  0  0  0  0  0  0  0  0
  -14.6140   -5.7482  -12.2751 C   0  0  0  0  0  0  0  0  0  0  0  0
  -15.7138   -5.1397  -11.6614 C   0  0  0  0  0  0  0  0  0  0  0  0
  -15.9977   -3.7970  -11.8419 C   0  0  0  0  0  0  0  0  0  0  0  0
  -15.1958   -3.0768  -12.7124 C   0  0  0  0  0  0  0  0  0  0  0  0
  -15.1632   -1.7182  -12.9409 N   0  0  0  0  0  0  0  0  0  0  0  0
  -16.0103   -0.6874  -12.3777 C   0  0  0  0  0  0  0  0  0  0  0  0
  -14.2595   -1.4427  -13.8941 C   0  0  0  0  0  0  0  0  0  0  0  0
  -11.9744   -3.5040  -15.9949 C   0  0  0  0  0  0  0  0  0  0  0  0
  -11.3680   -2.6707  -17.0194 N   0  0  0  0  0  0  0  0  0  0  0  0
  -11.9055   -1.3856  -17.1973 C   0  0  0  0  0  0  0  0  0  0  0  0
  -11.4393   -0.5995  -18.0045 O   0  0  0  0  0  0  0  0  0  0  0  0
  -10.4825   -2.8929  -17.4556 H   0  0  0  0  0  0  0  0  0  0  0  0
  -14.1310   -7.1244  -11.8216 C   0  0  0  0  0  0  0  0  0  0  0  0
  -12.6109   -7.3857  -11.8184 C   0  0  0  0  0  0  0  0  0  0  0  0
  -12.0230   -7.5518  -13.2226 C   0  0  0  0  0  0  0  0  0  0  0  0
  -12.8403   -8.5312  -14.0481 C   0  0  0  0  0  0  0  0  0  0  0  0
  -14.3359   -8.2643  -13.9353 C   0  0  0  0  0  0  0  0  0  0  0  0
  -14.7747   -8.1670  -12.5780 O   0  0  0  0  0  0  0  0  0  0  0  0
  1  2  1  0  0  0
  2  3  1  0  0  0
  2  6  1  0  0  0
  3  4  2  0  0  0
  4  5  1  0  0  0
  4 10  1  0  0  0
  5  6  2  0  0  0
  5  7  1  0  0  0
  7  8  1  0  0  0
  8  9  1  0  0  0
  9 10  1  0  0  0
  9 22  2  0  0  0
 10 11  2  0  0  0
 11 12  1  0  0  0
 11 25  1  0  0  0
 12 13  2  0  0  0
 12 23  1  0  0  0
 13 14  1  0  0  0
 13 22  1  0  0  0
 14 15  1  0  0  0
 14 19  2  0  0  0
 15 16  2  0  0  0
 16 28  1  0  0  0
 16 17  1  0  0  0
 28 29  1  0  0  0
 28 33  1  0  0  0
 29 30  1  0  0  0
 30 31  1  0  0  0
 31 32  1  0  0  0
 32 33  1  0  0  0
 17 18  2  0  0  0
 18 19  1  0  0  0
 19 20  1  0  0  0
 20 21  1  0  0  0
 20 22  1  0  0  0
 23 24  1  0  0  0
 24 25  1  0  0  0
 24 27  1  0  0  0
 25 26  2  0  0  0
M  END
> <minimizedAffinity>
-7.51339

$$$$
