CHEMBL1241674


 27 30  0  0  0  0  0  0  0  0999 V2000
  -17.9650    1.6766  -15.2252 N   0  0  0  0  0  0  0  0  0  0  0  0
  -17.8919    0.4161  -14.7292 N   0  0  0  0  0  0  0  0  0  0  0  0
  -16.5923    0.2835  -14.4189 C   0  0  0  0  0  0  0  0  0  0  0  0
  -15.8075    1.3690  -14.8891 C   0  0  0  0  0  0  0  0  0  0  0  0
  -14.4631    1.7551  -14.9767 C   0  0  0  0  0  0  0  0  0  0  0  0
  -13.3787    0.9804  -14.5859 N   0  0  0  0  0  0  0  0  0  0  0  0
  -14.1651    2.9446  -15.5401 N   0  0  0  0  0  0  0  0  0  0  0  0
  -15.1712    3.7155  -15.9930 C   0  0  0  0  0  0  0  0  0  0  0  0
  -16.4858    3.4533  -15.9687 N   0  0  0  0  0  0  0  0  0  0  0  0
  -16.7367    2.2533  -15.4140 C   0  0  0  0  0  0  0  0  0  0  0  0
  -13.5210   -0.0178  -14.6798 H   0  0  0  0  0  0  0  0  0  0  0  0
  -12.5240    1.3396  -14.9977 H   0  0  0  0  0  0  0  0  0  0  0  0
  -16.1472   -0.8926  -13.6235 C   0  0  0  0  0  0  0  0  0  0  0  0
  -15.7243   -0.9046  -12.3166 C   0  0  0  0  0  0  0  0  0  0  0  0
  -15.5356   -2.2599  -11.9318 C   0  0  0  0  0  0  0  0  0  0  0  0
  -15.1976   -2.8840  -10.7155 C   0  0  0  0  0  0  0  0  0  0  0  0
  -15.1326   -4.2766  -10.6782 C   0  0  0  0  0  0  0  0  0  0  0  0
  -14.8706   -4.9319   -9.5089 O   0  0  0  0  0  0  0  0  0  0  0  0
  -15.3485   -5.0452  -11.8166 C   0  0  0  0  0  0  0  0  0  0  0  0
  -15.6799   -4.4424  -13.0352 C   0  0  0  0  0  0  0  0  0  0  0  0
  -15.7948   -3.0469  -13.0547 C   0  0  0  0  0  0  0  0  0  0  0  0
  -16.1918   -2.1912  -14.0605 N   0  0  0  0  0  0  0  0  0  0  0  0
  -14.8925   -4.2834   -8.7855 H   0  0  0  0  0  0  0  0  0  0  0  0
  -16.4889   -2.4667  -14.9866 H   0  0  0  0  0  0  0  0  0  0  0  0
  -20.4174    1.3480  -15.3836 C   0  0  0  0  0  0  0  0  0  0  0  0
  -19.2536    2.3346  -15.4140 C   0  0  0  0  0  0  0  0  0  0  0  0
  -19.4523    3.4638  -14.4009 C   0  0  0  0  0  0  0  0  0  0  0  0
 25 26  1  0  0  0
 26 27  1  0  0  0
 26  1  1  0  0  0
  1  2  1  0  0  0
  1 10  1  0  0  0
  2  3  2  0  0  0
  3 13  1  0  0  0
  3  4  1  0  0  0
 13 14  2  0  0  0
 13 22  1  0  0  0
 14 15  1  0  0  0
 15 16  1  0  0  0
 15 21  2  0  0  0
 16 17  2  0  0  0
 17 18  1  0  0  0
 17 19  1  0  0  0
 18 23  1  0  0  0
 19 20  2  0  0  0
 20 21  1  0  0  0
 21 22  1  0  0  0
 22 24  1  0  0  0
  4  5  1  0  0  0
  4 10  2  0  0  0
  5  6  1  0  0  0
  5  7  2  0  0  0
  6 11  1  0  0  0
  6 12  1  0  0  0
  7  8  1  0  0  0
  8  9  2  0  0  0
  9 10  1  0  0  0
M  END
> <minimizedAffinity>
-8.05858

$$$$
