CHEMBL1996791


 21 23  0  0  0  0  0  0  0  0999 V2000
  -12.4871   -8.6125  -16.1304 N   0  0  0  0  0  0  0  0  0  0  0  0
  -12.8540   -8.4349  -14.8076 C   0  0  0  0  0  0  0  0  0  0  0  0
  -12.6345   -9.4752  -13.9766 N   0  0  0  0  0  0  0  0  0  0  0  0
  -13.0169   -9.3663  -12.6894 C   0  0  0  0  0  0  0  0  0  0  0  0
  -13.6233   -8.3265  -12.0929 N   0  0  0  0  0  0  0  0  0  0  0  0
  -13.7999   -7.3045  -12.9490 C   0  0  0  0  0  0  0  0  0  0  0  0
  -13.4359   -7.2732  -14.2875 C   0  0  0  0  0  0  0  0  0  0  0  0
  -13.8229   -5.9854  -14.7081 C   0  0  0  0  0  0  0  0  0  0  0  0
  -13.5830   -5.2166  -16.5863 I   0  0  0  0  0  0  0  0  0  0  0  0
  -14.3881   -5.2585  -13.7401 N   0  0  0  0  0  0  0  0  0  0  0  0
  -14.4214   -6.1068  -12.6886 N   0  0  0  0  0  0  0  0  0  0  0  0
  -11.8778   -9.4115  -16.2546 H   0  0  0  0  0  0  0  0  0  0  0  0
  -12.2812   -7.7825  -16.6677 H   0  0  0  0  0  0  0  0  0  0  0  0
  -15.1662   -5.7650  -11.4783 C   0  0  0  0  0  0  0  0  0  0  0  0
  -16.4983   -5.0642  -11.7968 C   0  0  0  0  0  0  0  0  0  0  0  0
  -16.3385   -3.5979  -12.1910 C   0  0  0  0  0  0  0  0  0  0  0  0
  -15.4854   -2.8068  -11.2010 C   0  0  0  0  0  0  0  0  0  0  0  0
  -15.1987   -1.5256  -11.7545 O   0  0  0  0  0  0  0  0  0  0  0  0
  -14.1710   -3.4929  -10.8283 C   0  0  0  0  0  0  0  0  0  0  0  0
  -14.3451   -4.9634  -10.4585 C   0  0  0  0  0  0  0  0  0  0  0  0
  -14.6824   -1.6679  -12.5693 H   0  0  0  0  0  0  0  0  0  0  0  0
  1  2  1  0  0  0
  1 12  1  0  0  0
  1 13  1  0  0  0
  2  3  1  0  0  0
  2  7  2  0  0  0
  3  4  2  0  0  0
  4  5  1  0  0  0
  5  6  2  0  0  0
  6  7  1  0  0  0
  6 11  1  0  0  0
  7  8  1  0  0  0
  8  9  1  0  0  0
  8 10  2  0  0  0
 10 11  1  0  0  0
 11 14  1  0  0  0
 14 15  1  0  0  0
 14 20  1  0  0  0
 15 16  1  0  0  0
 16 17  1  0  0  0
 17 18  1  0  0  0
 17 19  1  0  0  0
 18 21  1  0  0  0
 19 20  1  0  0  0
M  END
> <minimizedAffinity>
-6.04465

$$$$
