CHEMBL4066302


 37 41  0  0  0  0  0  0  0  0999 V2000
  -16.1544    0.2798  -15.2506 N   0  0  0  0  0  0  0  0  0  0  0  0
  -15.3736   -0.3316  -14.2812 C   0  0  0  0  0  0  0  0  0  0  0  0
  -14.2924    0.0833  -13.8833 O   0  0  0  0  0  0  0  0  0  0  0  0
  -15.9280   -1.5161  -13.8129 N   0  0  0  0  0  0  0  0  0  0  0  0
  -17.1235    0.0094  -15.3025 H   0  0  0  0  0  0  0  0  0  0  0  0
  -16.4782   -2.0199  -14.4915 H   0  0  0  0  0  0  0  0  0  0  0  0
  -13.2743    2.1533  -18.7402 C   0  0  0  0  0  0  0  0  0  0  0  0
  -14.3583    2.4703  -17.7407 C   0  0  0  0  0  0  0  0  0  0  0  0
  -14.8617    1.3442  -17.0676 C   0  0  0  0  0  0  0  0  0  0  0  0
  -15.7483    1.4186  -15.9941 C   0  0  0  0  0  0  0  0  0  0  0  0
  -16.2312    2.6758  -15.6675 C   0  0  0  0  0  0  0  0  0  0  0  0
  -15.7900    3.8131  -16.3811 C   0  0  0  0  0  0  0  0  0  0  0  0
  -14.8401    3.7588  -17.4280 C   0  0  0  0  0  0  0  0  0  0  0  0
  -14.3659    4.9137  -18.0367 N   0  0  0  0  0  0  0  0  0  0  0  0
  -13.0148    5.4535  -17.7842 C   0  0  0  0  0  0  0  0  0  0  0  0
  -13.0885    6.9978  -17.7497 C   0  0  0  0  0  0  0  0  0  0  0  0
  -13.5446    7.5356  -19.0510 N   0  0  0  0  0  0  0  0  0  0  0  0
  -13.6215    8.9929  -19.0104 C   0  0  0  0  0  0  0  0  0  0  0  0
  -14.8659    6.9479  -19.3746 C   0  0  0  0  0  0  0  0  0  0  0  0
  -14.8884    5.3945  -19.3339 C   0  0  0  0  0  0  0  0  0  0  0  0
  -15.2070   -2.2978  -12.8719 C   0  0  0  0  0  0  0  0  0  0  0  0
  -15.7501   -2.6441  -11.6334 C   0  0  0  0  0  0  0  0  0  0  0  0
  -14.9528   -3.2265  -10.6428 C   0  0  0  0  0  0  0  0  0  0  0  0
  -13.6001   -3.5319  -10.8754 C   0  0  0  0  0  0  0  0  0  0  0  0
  -13.1242   -3.3035  -12.1753 C   0  0  0  0  0  0  0  0  0  0  0  0
  -13.8981   -2.6669  -13.1567 C   0  0  0  0  0  0  0  0  0  0  0  0
  -12.7493   -4.0974   -9.8059 C   0  0  0  0  0  0  0  0  0  0  0  0
  -12.5827   -3.4076   -8.5815 C   0  0  0  0  0  0  0  0  0  0  0  0
  -11.7913   -3.9306   -7.5701 C   0  0  0  0  0  0  0  0  0  0  0  0
  -11.1356   -5.1003   -7.6304 N   0  0  0  0  0  0  0  0  0  0  0  0
  -11.3018   -5.7316   -8.8056 C   0  0  0  0  0  0  0  0  0  0  0  0
  -10.7397   -6.9298   -9.1130 N   0  0  0  0  0  0  0  0  0  0  0  0
  -11.0216   -7.3646  -10.3469 N   0  0  0  0  0  0  0  0  0  0  0  0
  -11.7877   -6.3887  -10.8632 C   0  0  0  0  0  0  0  0  0  0  0  0
  -12.2224   -6.5589  -12.2747 C   0  0  0  0  0  0  0  0  0  0  0  0
  -12.0432   -5.3320   -9.9171 C   0  0  0  0  0  0  0  0  0  0  0  0
  -10.1480   -7.4899   -8.5134 H   0  0  0  0  0  0  0  0  0  0  0  0
  7  8  1  0  0  0
  8  9  1  0  0  0
  8 13  2  0  0  0
  9 10  2  0  0  0
 10  1  1  0  0  0
 10 11  1  0  0  0
  1  2  1  0  0  0
  1  5  1  0  0  0
  2  3  2  0  0  0
  2  4  1  0  0  0
  4 21  1  0  0  0
  4  6  1  0  0  0
 21 22  1  0  0  0
 21 26  2  0  0  0
 22 23  2  0  0  0
 23 24  1  0  0  0
 24 27  1  0  0  0
 24 25  2  0  0  0
 27 28  1  0  0  0
 27 36  2  0  0  0
 28 29  2  0  0  0
 29 30  1  0  0  0
 30 31  2  0  0  0
 31 32  1  0  0  0
 31 36  1  0  0  0
 32 33  1  0  0  0
 32 37  1  0  0  0
 33 34  2  0  0  0
 34 35  1  0  0  0
 34 36  1  0  0  0
 25 26  1  0  0  0
 11 12  2  0  0  0
 12 13  1  0  0  0
 13 14  1  0  0  0
 14 15  1  0  0  0
 14 20  1  0  0  0
 15 16  1  0  0  0
 16 17  1  0  0  0
 17 18  1  0  0  0
 17 19  1  0  0  0
 19 20  1  0  0  0
M  END
> <minimizedAffinity>
-8.22274

$$$$
