CHEMBL3939918


 32 35  0  0  0  0  0  0  0  0999 V2000
  -27.4999   -1.9537   -9.4955 C   0  0  0  0  0  0  0  0  0  0  0  0
  -28.1740   -1.6076  -10.6676 C   0  0  0  0  0  0  0  0  0  0  0  0
  -27.4684   -1.2268  -11.8149 C   0  0  0  0  0  0  0  0  0  0  0  0
  -26.0773   -1.1085  -11.7928 C   0  0  0  0  0  0  0  0  0  0  0  0
  -25.4012   -1.3751  -10.6084 C   0  0  0  0  0  0  0  0  0  0  0  0
  -26.1058   -1.7895   -9.4693 C   0  0  0  0  0  0  0  0  0  0  0  0
  -28.2616    0.3715   -7.5689 N   0  0  0  0  0  0  0  0  0  0  0  0
  -27.9042   -0.5950   -6.6761 C   0  0  0  0  0  0  0  0  0  0  0  0
  -27.3698   -0.3976   -5.5959 O   0  0  0  0  0  0  0  0  0  0  0  0
  -28.3288   -1.8833   -7.0657 N   0  0  0  0  0  0  0  0  0  0  0  0
  -28.2105   -2.5021   -8.3244 C   0  0  0  0  0  0  0  0  0  0  0  0
  -28.8697   -3.7199   -8.2316 C   0  0  0  0  0  0  0  0  0  0  0  0
  -29.4253   -3.8513   -6.9365 C   0  0  0  0  0  0  0  0  0  0  0  0
  -30.2288   -4.8282   -6.3171 C   0  0  0  0  0  0  0  0  0  0  0  0
  -30.6573   -4.6325   -4.9995 C   0  0  0  0  0  0  0  0  0  0  0  0
  -30.2802   -3.4964   -4.2930 C   0  0  0  0  0  0  0  0  0  0  0  0
  -29.4645   -2.5299   -4.8821 C   0  0  0  0  0  0  0  0  0  0  0  0
  -29.0478   -2.7243   -6.2138 C   0  0  0  0  0  0  0  0  0  0  0  0
  -28.0817    1.3330   -7.3145 H   0  0  0  0  0  0  0  0  0  0  0  0
  -28.8697    0.1851   -8.3554 H   0  0  0  0  0  0  0  0  0  0  0  0
  -25.3331   -0.7714  -12.9474 N   0  0  0  0  0  0  0  0  0  0  0  0
  -24.0634   -0.2314  -12.9210 C   0  0  0  0  0  0  0  0  0  0  0  0
  -23.3539   -0.1815  -11.9202 O   0  0  0  0  0  0  0  0  0  0  0  0
  -23.6926    0.2975  -14.1544 N   0  0  0  0  0  0  0  0  0  0  0  0
  -25.6318   -1.1616  -13.8274 H   0  0  0  0  0  0  0  0  0  0  0  0
  -24.4591    0.7125  -14.6649 H   0  0  0  0  0  0  0  0  0  0  0  0
  -22.4442    0.9609  -14.2554 C   0  0  0  0  0  0  0  0  0  0  0  0
  -22.3484    2.3401  -14.0364 C   0  0  0  0  0  0  0  0  0  0  0  0
  -21.1689    3.0214  -14.3282 C   0  0  0  0  0  0  0  0  0  0  0  0
  -20.0762    2.3212  -14.8303 C   0  0  0  0  0  0  0  0  0  0  0  0
  -20.1469    0.9360  -14.9914 C   0  0  0  0  0  0  0  0  0  0  0  0
  -21.3228    0.2470  -14.6798 C   0  0  0  0  0  0  0  0  0  0  0  0
  7  8  1  0  0  0
  7 19  1  0  0  0
  7 20  1  0  0  0
  8  9  2  0  0  0
  8 10  1  0  0  0
 10 11  1  0  0  0
 10 18  1  0  0  0
 11  1  1  0  0  0
 11 12  2  0  0  0
  1  2  1  0  0  0
  1  6  2  0  0  0
  2  3  2  0  0  0
  3  4  1  0  0  0
  4 21  1  0  0  0
  4  5  2  0  0  0
 21 22  1  0  0  0
 21 25  1  0  0  0
 22 23  2  0  0  0
 22 24  1  0  0  0
 24 27  1  0  0  0
 24 26  1  0  0  0
 27 28  1  0  0  0
 27 32  2  0  0  0
 28 29  2  0  0  0
 29 30  1  0  0  0
 30 31  2  0  0  0
 31 32  1  0  0  0
  5  6  1  0  0  0
 12 13  1  0  0  0
 13 14  1  0  0  0
 13 18  2  0  0  0
 14 15  2  0  0  0
 15 16  1  0  0  0
 16 17  2  0  0  0
 17 18  1  0  0  0
M  END
> <minimizedAffinity>
-9.63810

$$$$
