CHEMBL3753811


 28 30  0  0  0  0  0  0  0  0999 V2000
  -29.9105   -6.4005   -5.2638 C   0  0  0  0  0  0  0  0  0  0  0  0
  -29.5168   -5.0852   -4.9441 C   0  0  0  0  0  0  0  0  0  0  0  0
  -29.4320   -4.0679   -5.9130 C   0  0  0  0  0  0  0  0  0  0  0  0
  -29.8048   -4.4059   -7.2215 C   0  0  0  0  0  0  0  0  0  0  0  0
  -30.2221   -5.7047   -7.5441 C   0  0  0  0  0  0  0  0  0  0  0  0
  -30.2783   -6.7091   -6.5731 C   0  0  0  0  0  0  0  0  0  0  0  0
  -28.9673   -9.1759   -3.2360 O   0  0  0  0  0  0  0  0  0  0  0  0
  -28.8131   -8.3258   -4.1072 C   0  0  0  0  0  0  0  0  0  0  0  0
  -27.6927   -8.1283   -4.8760 N   0  0  0  0  0  0  0  0  0  0  0  0
  -29.8053   -7.3793   -4.2672 N   0  0  0  0  0  0  0  0  0  0  0  0
  -27.5834   -7.2565   -5.3674 H   0  0  0  0  0  0  0  0  0  0  0  0
  -30.4106   -7.3239   -3.4543 H   0  0  0  0  0  0  0  0  0  0  0  0
  -26.5533   -8.8542   -4.7056 C   0  0  0  0  0  0  0  0  0  0  0  0
  -25.5536   -8.6679   -3.8818 N   0  0  0  0  0  0  0  0  0  0  0  0
  -24.5895   -9.6253   -4.1054 C   0  0  0  0  0  0  0  0  0  0  0  0
  -24.8776  -10.5410   -5.0978 C   0  0  0  0  0  0  0  0  0  0  0  0
  -26.4238  -10.1989   -5.7546 S   0  0  0  0  0  0  0  0  0  0  0  0
  -28.9357   -2.7204   -5.5586 C   0  0  0  0  0  0  0  0  0  0  0  0
  -29.7915   -1.6093   -5.4905 C   0  0  0  0  0  0  0  0  0  0  0  0
  -29.2958   -0.3384   -5.1988 C   0  0  0  0  0  0  0  0  0  0  0  0
  -27.9419   -0.2047   -4.9583 C   0  0  0  0  0  0  0  0  0  0  0  0
  -27.0764   -1.2377   -4.9875 N   0  0  0  0  0  0  0  0  0  0  0  0
  -27.5908   -2.4575   -5.2862 C   0  0  0  0  0  0  0  0  0  0  0  0
  -30.6674   -7.9223   -7.0563 O   0  0  0  0  0  0  0  0  0  0  0  0
  -29.7337   -8.7443   -7.7485 C   0  0  0  0  0  0  0  0  0  0  0  0
  -28.5164   -8.1880   -7.9014 F   0  0  0  0  0  0  0  0  0  0  0  0
  -29.5666   -9.8864   -7.0452 F   0  0  0  0  0  0  0  0  0  0  0  0
  -30.2438   -9.0572   -8.9563 F   0  0  0  0  0  0  0  0  0  0  0  0
  7  8  2  0  0  0
  8  9  1  0  0  0
  8 10  1  0  0  0
  9 13  1  0  0  0
  9 11  1  0  0  0
 13 14  2  0  0  0
 13 17  1  0  0  0
 14 15  1  0  0  0
 15 16  2  0  0  0
 16 17  1  0  0  0
 10  1  1  0  0  0
 10 12  1  0  0  0
  1  2  1  0  0  0
  1  6  2  0  0  0
  2  3  2  0  0  0
  3 18  1  0  0  0
  3  4  1  0  0  0
 18 19  1  0  0  0
 18 23  2  0  0  0
 19 20  2  0  0  0
 20 21  1  0  0  0
 21 22  2  0  0  0
 22 23  1  0  0  0
  4  5  2  0  0  0
  5  6  1  0  0  0
  6 24  1  0  0  0
 24 25  1  0  0  0
 25 26  1  0  0  0
 25 27  1  0  0  0
 25 28  1  0  0  0
M  END
> <minimizedAffinity>
-7.88815

$$$$
