CHEMBL256043


 33 36  0  0  0  0  0  0  0  0999 V2000
  -20.0187    2.0656  -14.7515 C   0  0  0  0  0  0  0  0  0  0  0  0
  -19.3446    0.8929  -15.0946 C   0  0  0  0  0  0  0  0  0  0  0  0
  -17.9881    0.8963  -15.4201 C   0  0  0  0  0  0  0  0  0  0  0  0
  -17.2641    2.0884  -15.5094 C   0  0  0  0  0  0  0  0  0  0  0  0
  -18.0056    3.2730  -15.3631 C   0  0  0  0  0  0  0  0  0  0  0  0
  -19.3467    3.2721  -14.9357 C   0  0  0  0  0  0  0  0  0  0  0  0
  -15.8022    2.0614  -15.7273 C   0  0  0  0  0  0  0  0  0  0  0  0
  -15.2203    2.5873  -16.9048 C   0  0  0  0  0  0  0  0  0  0  0  0
  -13.8508    2.5100  -17.1177 C   0  0  0  0  0  0  0  0  0  0  0  0
  -12.9634    1.9697  -16.2639 N   0  0  0  0  0  0  0  0  0  0  0  0
  -13.5446    1.4719  -15.1573 C   0  0  0  0  0  0  0  0  0  0  0  0
  -12.8774    0.8683  -14.1354 N   0  0  0  0  0  0  0  0  0  0  0  0
  -13.6692    0.4157  -13.1557 N   0  0  0  0  0  0  0  0  0  0  0  0
  -14.8940    0.7389  -13.5729 C   0  0  0  0  0  0  0  0  0  0  0  0
  -15.9696    0.3822  -12.8532 N   0  0  0  0  0  0  0  0  0  0  0  0
  -14.8945    1.4509  -14.8172 C   0  0  0  0  0  0  0  0  0  0  0  0
  -11.8777    0.7298  -14.0684 H   0  0  0  0  0  0  0  0  0  0  0  0
  -15.7844   -0.2430  -12.0756 H   0  0  0  0  0  0  0  0  0  0  0  0
  -16.8303    0.1556  -13.3383 H   0  0  0  0  0  0  0  0  0  0  0  0
  -23.3217    1.0970  -13.4958 N   0  0  0  0  0  0  0  0  0  0  0  0
  -22.0385    0.8963  -13.9676 C   0  0  0  0  0  0  0  0  0  0  0  0
  -21.5631   -0.2173  -14.1655 O   0  0  0  0  0  0  0  0  0  0  0  0
  -21.3330    2.0640  -14.2077 N   0  0  0  0  0  0  0  0  0  0  0  0
  -23.7400    2.0024  -13.6504 H   0  0  0  0  0  0  0  0  0  0  0  0
  -21.6384    2.8971  -13.7255 H   0  0  0  0  0  0  0  0  0  0  0  0
  -25.5051   -1.2376  -11.5663 C   0  0  0  0  0  0  0  0  0  0  0  0
  -26.1188   -1.9522  -12.5988 C   0  0  0  0  0  0  0  0  0  0  0  0
  -25.7564   -1.7210  -13.9139 C   0  0  0  0  0  0  0  0  0  0  0  0
  -24.7909   -0.7626  -14.2064 C   0  0  0  0  0  0  0  0  0  0  0  0
  -24.2083    0.0173  -13.1977 C   0  0  0  0  0  0  0  0  0  0  0  0
  -24.5429   -0.2575  -11.8710 C   0  0  0  0  0  0  0  0  0  0  0  0
  -27.0845   -1.9004   -9.9265 C   0  0  0  0  0  0  0  0  0  0  0  0
  -25.7860   -1.3989  -10.2334 O   0  0  0  0  0  0  0  0  0  0  0  0
 32 33  1  0  0  0
 33 26  1  0  0  0
 26 27  1  0  0  0
 26 31  2  0  0  0
 27 28  2  0  0  0
 28 29  1  0  0  0
 29 30  2  0  0  0
 30 20  1  0  0  0
 30 31  1  0  0  0
 20 21  1  0  0  0
 20 24  1  0  0  0
 21 22  2  0  0  0
 21 23  1  0  0  0
 23  1  1  0  0  0
 23 25  1  0  0  0
  1  2  1  0  0  0
  1  6  2  0  0  0
  2  3  2  0  0  0
  3  4  1  0  0  0
  4  7  1  0  0  0
  4  5  2  0  0  0
  7  8  1  0  0  0
  7 16  2  0  0  0
  8  9  2  0  0  0
  9 10  1  0  0  0
 10 11  2  0  0  0
 11 12  1  0  0  0
 11 16  1  0  0  0
 12 13  1  0  0  0
 12 17  1  0  0  0
 13 14  2  0  0  0
 14 15  1  0  0  0
 14 16  1  0  0  0
 15 18  1  0  0  0
 15 19  1  0  0  0
  5  6  1  0  0  0
M  END
> <minimizedAffinity>
-9.70385

$$$$
