CHEMBL4237913


 30 32  0  0  0  0  0  0  0  0999 V2000
  -29.3492   -8.7651   -5.2070 N   0  0  0  0  0  0  0  0  0  0  0  0
  -28.7968  -10.0607   -4.7404 C   0  0  0  0  0  0  0  0  0  0  0  0
  -27.5471  -10.0226   -3.8390 C   0  0  0  0  0  0  0  0  0  0  0  0
  -25.0575   -8.4326   -3.3992 O   0  0  0  0  0  0  0  0  0  0  0  0
  -25.1961   -9.2362   -4.3063 C   0  0  0  0  0  0  0  0  0  0  0  0
  -24.2752   -9.4575   -5.3250 N   0  0  0  0  0  0  0  0  0  0  0  0
  -24.8937  -10.2143   -6.3821 C   0  0  0  0  0  0  0  0  0  0  0  0
  -26.0230  -10.9384   -5.6692 C   0  0  0  0  0  0  0  0  0  0  0  0
  -26.2909  -10.0511   -4.5586 N   0  0  0  0  0  0  0  0  0  0  0  0
  -23.5099   -8.8067   -5.4387 H   0  0  0  0  0  0  0  0  0  0  0  0
  -28.9206   -7.6531   -4.3078 C   0  0  0  0  0  0  0  0  0  0  0  0
  -30.0123   -6.6231   -3.8780 C   0  0  0  0  0  0  0  0  0  0  0  0
  -30.4844   -6.8698   -2.5505 O   0  0  0  0  0  0  0  0  0  0  0  0
  -29.7189   -7.1829   -2.0359 H   0  0  0  0  0  0  0  0  0  0  0  0
  -29.5126   -5.1935   -3.9428 C   0  0  0  0  0  0  0  0  0  0  0  0
  -30.3888   -4.1199   -3.7072 C   0  0  0  0  0  0  0  0  0  0  0  0
  -29.9394   -2.7977   -3.7906 C   0  0  0  0  0  0  0  0  0  0  0  0
  -28.6088   -2.5315   -4.1056 C   0  0  0  0  0  0  0  0  0  0  0  0
  -27.7243   -3.5841   -4.3265 C   0  0  0  0  0  0  0  0  0  0  0  0
  -28.1716   -4.9034   -4.2436 C   0  0  0  0  0  0  0  0  0  0  0  0
  -28.8978   -8.4986   -6.5996 C   0  0  0  0  0  0  0  0  0  0  0  0
  -29.8292   -7.6580   -7.5293 C   0  0  0  0  0  0  0  0  0  0  0  0
  -31.1902   -7.7736   -7.1062 O   0  0  0  0  0  0  0  0  0  0  0  0
  -31.2197   -7.4656   -6.1835 H   0  0  0  0  0  0  0  0  0  0  0  0
  -29.4863   -6.1769   -7.6112 C   0  0  0  0  0  0  0  0  0  0  0  0
  -28.2205   -5.6952   -7.9855 C   0  0  0  0  0  0  0  0  0  0  0  0
  -27.9678   -4.3236   -8.0641 C   0  0  0  0  0  0  0  0  0  0  0  0
  -28.9761   -3.4103   -7.7710 C   0  0  0  0  0  0  0  0  0  0  0  0
  -30.2360   -3.8644   -7.3990 C   0  0  0  0  0  0  0  0  0  0  0  0
  -30.4895   -5.2352   -7.3211 C   0  0  0  0  0  0  0  0  0  0  0  0
  4  5  2  0  0  0
  5  6  1  0  0  0
  5  9  1  0  0  0
  6  7  1  0  0  0
  6 10  1  0  0  0
  7  8  1  0  0  0
  8  9  1  0  0  0
  9  3  1  0  0  0
  3  2  1  0  0  0
  2  1  1  0  0  0
  1 11  1  0  0  0
  1 21  1  0  0  0
 11 12  1  0  0  0
 12 13  1  0  0  0
 12 15  1  0  0  0
 13 14  1  0  0  0
 15 16  1  0  0  0
 15 20  2  0  0  0
 16 17  2  0  0  0
 17 18  1  0  0  0
 18 19  2  0  0  0
 19 20  1  0  0  0
 21 22  1  0  0  0
 22 23  1  0  0  0
 22 25  1  0  0  0
 23 24  1  0  0  0
 25 26  1  0  0  0
 25 30  2  0  0  0
 26 27  2  0  0  0
 27 28  1  0  0  0
 28 29  2  0  0  0
 29 30  1  0  0  0
M  END
> <minimizedAffinity>
-6.97388

$$$$
