CHEMBL515880


 28 30  0  0  0  0  0  0  0  0999 V2000
  -17.3750    1.4103  -13.4714 O   0  0  0  0  0  0  0  0  0  0  0  0
  -17.3305    1.4786  -14.7010 C   0  0  0  0  0  0  0  0  0  0  0  0
  -18.4334    1.6927  -15.5186 N   0  0  0  0  0  0  0  0  0  0  0  0
  -18.2711    1.5554  -16.5096 H   0  0  0  0  0  0  0  0  0  0  0  0
  -19.7486    1.9211  -15.0538 C   0  0  0  0  0  0  0  0  0  0  0  0
  -20.3252    3.1971  -15.0459 C   0  0  0  0  0  0  0  0  0  0  0  0
  -21.5845    3.4164  -14.4986 C   0  0  0  0  0  0  0  0  0  0  0  0
  -22.3016    2.3527  -13.9676 C   0  0  0  0  0  0  0  0  0  0  0  0
  -21.7736    1.0538  -14.0072 C   0  0  0  0  0  0  0  0  0  0  0  0
  -20.4957    0.8434  -14.5678 C   0  0  0  0  0  0  0  0  0  0  0  0
  -22.5616   -0.0984  -13.4367 C   0  0  0  0  0  0  0  0  0  0  0  0
  -22.3009   -1.2902  -14.0452 F   0  0  0  0  0  0  0  0  0  0  0  0
  -22.3122   -0.2951  -12.1131 F   0  0  0  0  0  0  0  0  0  0  0  0
  -23.9063    0.0854  -13.5427 F   0  0  0  0  0  0  0  0  0  0  0  0
  -16.0475    1.2951  -15.4020 C   0  0  0  0  0  0  0  0  0  0  0  0
  -15.6138    2.1857  -16.3070 N   0  0  0  0  0  0  0  0  0  0  0  0
  -14.1066    1.7222  -16.8279 S   0  0  0  0  0  0  0  0  0  0  0  0
  -13.9942    0.3112  -15.8677 C   0  0  0  0  0  0  0  0  0  0  0  0
  -15.1583    0.1742  -15.1502 C   0  0  0  0  0  0  0  0  0  0  0  0
  -15.4852   -0.8736  -14.3411 N   0  0  0  0  0  0  0  0  0  0  0  0
  -16.4007   -1.3094  -14.5042 H   0  0  0  0  0  0  0  0  0  0  0  0
  -15.0754   -1.0044  -12.9585 C   0  0  0  0  0  0  0  0  0  0  0  0
  -15.6035   -2.3019  -12.4070 C   0  0  0  0  0  0  0  0  0  0  0  0
  -15.6582   -2.5119  -11.0262 C   0  0  0  0  0  0  0  0  0  0  0  0
  -16.1402   -3.7221  -10.5551 C   0  0  0  0  0  0  0  0  0  0  0  0
  -16.5575   -4.7269  -11.3532 N   0  0  0  0  0  0  0  0  0  0  0  0
  -16.4728   -4.5166  -12.6840 C   0  0  0  0  0  0  0  0  0  0  0  0
  -16.0075   -3.3404  -13.2526 C   0  0  0  0  0  0  0  0  0  0  0  0
  1  2  2  0  0  0
  2  3  1  0  0  0
  2 15  1  0  0  0
  3  5  1  0  0  0
  3  4  1  0  0  0
  5  6  1  0  0  0
  5 10  2  0  0  0
  6  7  2  0  0  0
  7  8  1  0  0  0
  8  9  2  0  0  0
  9 11  1  0  0  0
  9 10  1  0  0  0
 11 12  1  0  0  0
 11 13  1  0  0  0
 11 14  1  0  0  0
 15 16  2  0  0  0
 15 19  1  0  0  0
 16 17  1  0  0  0
 17 18  1  0  0  0
 18 19  2  0  0  0
 19 20  1  0  0  0
 20 22  1  0  0  0
 20 21  1  0  0  0
 22 23  1  0  0  0
 23 24  1  0  0  0
 23 28  2  0  0  0
 24 25  2  0  0  0
 25 26  1  0  0  0
 26 27  2  0  0  0
 27 28  1  0  0  0
M  END
> <minimizedAffinity>
-9.04504

$$$$
