CHEMBL2206668


 30 33  0  0  0  0  0  0  0  0999 V2000
  -16.4951    1.1338  -15.2022 C   0  0  0  0  0  0  0  0  0  0  0  0
  -15.6728    1.2452  -16.3354 C   0  0  0  0  0  0  0  0  0  0  0  0
  -14.3910    0.7013  -16.3320 C   0  0  0  0  0  0  0  0  0  0  0  0
  -13.9289    0.0357  -15.2024 C   0  0  0  0  0  0  0  0  0  0  0  0
  -14.7383   -0.0553  -14.0666 C   0  0  0  0  0  0  0  0  0  0  0  0
  -16.0318    0.4742  -14.0585 C   0  0  0  0  0  0  0  0  0  0  0  0
  -18.0538    2.6194  -16.0793 O   0  0  0  0  0  0  0  0  0  0  0  0
  -17.8726    1.6838  -15.3072 C   0  0  0  0  0  0  0  0  0  0  0  0
  -18.8096    1.1223  -14.4574 N   0  0  0  0  0  0  0  0  0  0  0  0
  -18.4673    0.4797  -13.7547 H   0  0  0  0  0  0  0  0  0  0  0  0
  -20.1594    1.5236  -14.3376 C   0  0  0  0  0  0  0  0  0  0  0  0
  -20.5695    2.8589  -14.3388 C   0  0  0  0  0  0  0  0  0  0  0  0
  -21.9137    3.1946  -14.1649 C   0  0  0  0  0  0  0  0  0  0  0  0
  -22.8671    2.1955  -13.9923 C   0  0  0  0  0  0  0  0  0  0  0  0
  -22.4860    0.8477  -14.0121 C   0  0  0  0  0  0  0  0  0  0  0  0
  -21.1284    0.5223  -14.1978 C   0  0  0  0  0  0  0  0  0  0  0  0
  -23.5039   -0.2488  -13.8248 C   0  0  0  0  0  0  0  0  0  0  0  0
  -24.2549   -0.4957  -14.9344 F   0  0  0  0  0  0  0  0  0  0  0  0
  -22.9301   -1.4371  -13.4902 F   0  0  0  0  0  0  0  0  0  0  0  0
  -24.3904    0.0301  -12.8291 F   0  0  0  0  0  0  0  0  0  0  0  0
  -14.3248   -0.7936  -12.9358 O   0  0  0  0  0  0  0  0  0  0  0  0
  -14.8717   -2.0520  -12.7168 C   0  0  0  0  0  0  0  0  0  0  0  0
  -15.5524   -2.0454  -11.4022 C   0  0  0  0  0  0  0  0  0  0  0  0
  -16.1711   -3.1801  -11.0456 C   0  0  0  0  0  0  0  0  0  0  0  0
  -16.1244   -4.2956  -11.9139 C   0  0  0  0  0  0  0  0  0  0  0  0
  -16.6303   -5.5066  -11.8048 N   0  0  0  0  0  0  0  0  0  0  0  0
  -16.2747   -6.1499  -12.9649 C   0  0  0  0  0  0  0  0  0  0  0  0
  -15.5517   -5.3200  -13.7890 C   0  0  0  0  0  0  0  0  0  0  0  0
  -15.4382   -4.1402  -13.1085 N   0  0  0  0  0  0  0  0  0  0  0  0
  -14.7862   -3.0353  -13.5540 N   0  0  0  0  0  0  0  0  0  0  0  0
  7  8  2  0  0  0
  8  9  1  0  0  0
  8  1  1  0  0  0
  9 11  1  0  0  0
  9 10  1  0  0  0
 11 12  1  0  0  0
 11 16  2  0  0  0
 12 13  2  0  0  0
 13 14  1  0  0  0
 14 15  2  0  0  0
 15 17  1  0  0  0
 15 16  1  0  0  0
 17 18  1  0  0  0
 17 19  1  0  0  0
 17 20  1  0  0  0
  1  2  1  0  0  0
  1  6  2  0  0  0
  2  3  2  0  0  0
  3  4  1  0  0  0
  4  5  2  0  0  0
  5 21  1  0  0  0
  5  6  1  0  0  0
 21 22  1  0  0  0
 22 23  1  0  0  0
 22 30  2  0  0  0
 23 24  2  0  0  0
 24 25  1  0  0  0
 25 26  2  0  0  0
 25 29  1  0  0  0
 26 27  1  0  0  0
 27 28  2  0  0  0
 28 29  1  0  0  0
 29 30  1  0  0  0
M  END
> <minimizedAffinity>
-10.25824

$$$$
