CHEMBL270368


 43 48  0  0  0  0  0  0  0  0999 V2000
  -28.9254   -3.8515   -6.6377 C   0  0  0  0  0  0  0  0  0  0  0  0
  -28.1504   -2.7357   -7.1394 C   0  0  0  0  0  0  0  0  0  0  0  0
  -27.7445   -1.9946   -6.0498 C   0  0  0  0  0  0  0  0  0  0  0  0
  -28.2364   -2.5804   -4.9209 N   0  0  0  0  0  0  0  0  0  0  0  0
  -28.1054   -2.0733   -3.6866 N   0  0  0  0  0  0  0  0  0  0  0  0
  -28.6921   -2.7706   -2.7706 C   0  0  0  0  0  0  0  0  0  0  0  0
  -29.3698   -3.9441   -2.9484 N   0  0  0  0  0  0  0  0  0  0  0  0
  -29.4962   -4.4586   -4.1400 C   0  0  0  0  0  0  0  0  0  0  0  0
  -28.9091   -3.7253   -5.2420 C   0  0  0  0  0  0  0  0  0  0  0  0
  -27.8231   -2.3195   -8.5473 C   0  0  0  0  0  0  0  0  0  0  0  0
  -28.3242   -1.2505   -9.1395 N   0  0  0  0  0  0  0  0  0  0  0  0
  -27.7390   -1.1475  -10.3830 N   0  0  0  0  0  0  0  0  0  0  0  0
  -26.9413   -2.1818  -10.4794 C   0  0  0  0  0  0  0  0  0  0  0  0
  -26.9372   -2.9859   -9.3794 O   0  0  0  0  0  0  0  0  0  0  0  0
  -26.1207   -2.5051  -11.4787 O   0  0  0  0  0  0  0  0  0  0  0  0
  -25.9761   -1.4537  -12.4400 C   0  0  0  0  0  0  0  0  0  0  0  0
  -24.7780   -1.6934  -13.3841 C   0  0  0  0  0  0  0  0  0  0  0  0
  -23.6207   -2.3642  -12.6201 C   0  0  0  0  0  0  0  0  0  0  0  0
  -22.9005   -1.3873  -11.6873 C   0  0  0  0  0  0  0  0  0  0  0  0
  -22.3987   -0.2227  -12.4149 N   0  0  0  0  0  0  0  0  0  0  0  0
  -23.4797    0.4894  -13.0993 C   0  0  0  0  0  0  0  0  0  0  0  0
  -24.2501   -0.4173  -14.0615 C   0  0  0  0  0  0  0  0  0  0  0  0
  -21.7129   -0.5316  -13.1047 H   0  0  0  0  0  0  0  0  0  0  0  0
  -30.7508   -4.3483   -8.3388 C   0  0  0  0  0  0  0  0  0  0  0  0
  -29.6591   -4.9159   -7.4301 C   0  0  0  0  0  0  0  0  0  0  0  0
  -28.7215   -5.8680   -8.1705 C   0  0  0  0  0  0  0  0  0  0  0  0
  -30.1592   -5.6626   -4.2880 N   0  0  0  0  0  0  0  0  0  0  0  0
  -31.1685   -5.6151   -4.3683 H   0  0  0  0  0  0  0  0  0  0  0  0
  -29.5783   -6.8448   -4.7936 C   0  0  0  0  0  0  0  0  0  0  0  0
  -28.2707   -7.2187   -4.4529 C   0  0  0  0  0  0  0  0  0  0  0  0
  -27.6693   -8.3791   -4.9733 C   0  0  0  0  0  0  0  0  0  0  0  0
  -28.4058   -9.1686   -5.8540 C   0  0  0  0  0  0  0  0  0  0  0  0
  -27.8756  -10.2824   -6.3879 F   0  0  0  0  0  0  0  0  0  0  0  0
  -29.7122   -8.8337   -6.2008 C   0  0  0  0  0  0  0  0  0  0  0  0
  -30.2874   -7.6814   -5.6642 C   0  0  0  0  0  0  0  0  0  0  0  0
  -31.5469   -7.3680   -6.0000 F   0  0  0  0  0  0  0  0  0  0  0  0
  -26.2783   -8.6818   -4.5389 C   0  0  0  0  0  0  0  0  0  0  0  0
  -25.8755   -8.2636   -3.4561 O   0  0  0  0  0  0  0  0  0  0  0  0
  -25.4872   -9.4476   -5.3772 N   0  0  0  0  0  0  0  0  0  0  0  0
  -25.8777   -9.8222   -6.2339 H   0  0  0  0  0  0  0  0  0  0  0  0
  -24.1522   -9.8046   -5.0145 C   0  0  0  0  0  0  0  0  0  0  0  0
  -23.0556   -9.8299   -6.0444 C   0  0  0  0  0  0  0  0  0  0  0  0
  -23.5531  -11.1131   -5.4473 C   0  0  0  0  0  0  0  0  0  0  0  0
 24 25  1  0  0  0
 25 26  1  0  0  0
 25  1  1  0  0  0
  1  2  1  0  0  0
  1  9  2  0  0  0
  2 10  1  0  0  0
  2  3  2  0  0  0
 10 11  2  0  0  0
 10 14  1  0  0  0
 11 12  1  0  0  0
 12 13  2  0  0  0
 13 15  1  0  0  0
 13 14  1  0  0  0
 15 16  1  0  0  0
 16 17  1  0  0  0
 17 18  1  0  0  0
 17 22  1  0  0  0
 18 19  1  0  0  0
 19 20  1  0  0  0
 20 21  1  0  0  0
 20 23  1  0  0  0
 21 22  1  0  0  0
  3  4  1  0  0  0
  4  5  1  0  0  0
  4  9  1  0  0  0
  5  6  2  0  0  0
  6  7  1  0  0  0
  7  8  2  0  0  0
  8 27  1  0  0  0
  8  9  1  0  0  0
 27 29  1  0  0  0
 27 28  1  0  0  0
 29 30  1  0  0  0
 29 35  2  0  0  0
 30 31  2  0  0  0
 31 37  1  0  0  0
 31 32  1  0  0  0
 37 38  2  0  0  0
 37 39  1  0  0  0
 39 41  1  0  0  0
 39 40  1  0  0  0
 41 42  1  0  0  0
 41 43  1  0  0  0
 42 43  1  0  0  0
 32 33  1  0  0  0
 32 34  2  0  0  0
 34 35  1  0  0  0
 35 36  1  0  0  0
M  END
> <minimizedAffinity>
-8.78436

$$$$
