CHEMBL4073263


 37 41  0  0  0  0  0  0  0  0999 V2000
  -29.8127   -6.5239   -6.4126 C   0  0  0  0  0  0  0  0  0  0  0  0
  -29.0737   -5.8754   -7.4047 C   0  0  0  0  0  0  0  0  0  0  0  0
  -28.7715   -4.5321   -7.2847 C   0  0  0  0  0  0  0  0  0  0  0  0
  -29.2590   -3.7907   -6.2114 C   0  0  0  0  0  0  0  0  0  0  0  0
  -30.1754   -4.3921   -5.2788 C   0  0  0  0  0  0  0  0  0  0  0  0
  -30.8445   -3.6788   -4.2427 C   0  0  0  0  0  0  0  0  0  0  0  0
  -31.7446   -4.2968   -3.3663 C   0  0  0  0  0  0  0  0  0  0  0  0
  -31.9938   -5.6529   -3.4847 C   0  0  0  0  0  0  0  0  0  0  0  0
  -31.3446   -6.3891   -4.4757 C   0  0  0  0  0  0  0  0  0  0  0  0
  -30.4483   -5.7826   -5.3884 C   0  0  0  0  0  0  0  0  0  0  0  0
  -28.8407   -2.4568   -6.0240 N   0  0  0  0  0  0  0  0  0  0  0  0
  -27.7553   -1.9582   -5.3539 C   0  0  0  0  0  0  0  0  0  0  0  0
  -26.8848   -2.6043   -4.7686 O   0  0  0  0  0  0  0  0  0  0  0  0
  -27.5964   -0.5945   -5.3987 N   0  0  0  0  0  0  0  0  0  0  0  0
  -29.4763   -1.7411   -6.3511 H   0  0  0  0  0  0  0  0  0  0  0  0
  -26.7252   -0.2670   -5.0126 H   0  0  0  0  0  0  0  0  0  0  0  0
  -28.4715    0.3316   -5.9264 C   0  0  0  0  0  0  0  0  0  0  0  0
  -29.8605    0.3707   -5.6765 C   0  0  0  0  0  0  0  0  0  0  0  0
  -30.3003    1.4742   -6.3793 C   0  0  0  0  0  0  0  0  0  0  0  0
  -31.5885    2.1529   -6.5544 C   0  0  0  0  0  0  0  0  0  0  0  0
  -29.2490    2.0317   -7.0350 O   0  0  0  0  0  0  0  0  0  0  0  0
  -28.1073    1.3242   -6.7470 N   0  0  0  0  0  0  0  0  0  0  0  0
  -29.9313   -7.9048   -6.4430 O   0  0  0  0  0  0  0  0  0  0  0  0
  -26.1993  -10.7330   -8.4307 C   0  0  0  0  0  0  0  0  0  0  0  0
  -26.0025  -10.5730   -7.0482 C   0  0  0  0  0  0  0  0  0  0  0  0
  -26.8900   -9.8852   -6.2414 C   0  0  0  0  0  0  0  0  0  0  0  0
  -26.6629   -9.8825   -4.9241 N   0  0  0  0  0  0  0  0  0  0  0  0
  -27.5812   -9.2912   -4.1569 C   0  0  0  0  0  0  0  0  0  0  0  0
  -28.6828   -8.6871   -4.5937 N   0  0  0  0  0  0  0  0  0  0  0  0
  -28.8431   -8.6286   -5.9344 C   0  0  0  0  0  0  0  0  0  0  0  0
  -27.9817   -9.2543   -6.8365 C   0  0  0  0  0  0  0  0  0  0  0  0
  -28.1342   -9.3058   -8.2404 C   0  0  0  0  0  0  0  0  0  0  0  0
  -27.2696  -10.0678   -9.0418 C   0  0  0  0  0  0  0  0  0  0  0  0
  -24.2581  -12.0882   -8.4478 C   0  0  0  0  0  0  0  0  0  0  0  0
  -25.3487  -11.5112   -9.1745 O   0  0  0  0  0  0  0  0  0  0  0  0
  -27.6554  -10.0522  -10.3514 O   0  0  0  0  0  0  0  0  0  0  0  0
  -28.6847  -10.9096  -10.8150 C   0  0  0  0  0  0  0  0  0  0  0  0
 34 35  1  0  0  0
 35 24  1  0  0  0
 24 25  1  0  0  0
 24 33  2  0  0  0
 25 26  2  0  0  0
 26 27  1  0  0  0
 26 31  1  0  0  0
 27 28  2  0  0  0
 28 29  1  0  0  0
 29 30  2  0  0  0
 30 23  1  0  0  0
 30 31  1  0  0  0
 23  1  1  0  0  0
  1  2  1  0  0  0
  1 10  2  0  0  0
  2  3  2  0  0  0
  3  4  1  0  0  0
  4 11  1  0  0  0
  4  5  2  0  0  0
 11 12  1  0  0  0
 11 15  1  0  0  0
 12 13  2  0  0  0
 12 14  1  0  0  0
 14 17  1  0  0  0
 14 16  1  0  0  0
 17 18  1  0  0  0
 17 22  2  0  0  0
 18 19  2  0  0  0
 19 20  1  0  0  0
 19 21  1  0  0  0
 21 22  1  0  0  0
  5  6  1  0  0  0
  5 10  1  0  0  0
  6  7  2  0  0  0
  7  8  1  0  0  0
  8  9  2  0  0  0
  9 10  1  0  0  0
 31 32  2  0  0  0
 32 33  1  0  0  0
 33 36  1  0  0  0
 36 37  1  0  0  0
M  END
> <minimizedAffinity>
-9.58390

$$$$
