CHEMBL2071273


 34 37  0  0  0  0  0  0  0  0999 V2000
  -17.1351    0.9588  -14.9380 C   0  0  0  0  0  0  0  0  0  0  0  0
  -16.2869    1.8462  -15.4730 N   0  0  0  0  0  0  0  0  0  0  0  0
  -15.0421    1.8736  -14.9516 C   0  0  0  0  0  0  0  0  0  0  0  0
  -14.6109    1.0374  -13.9465 C   0  0  0  0  0  0  0  0  0  0  0  0
  -12.9888    1.1165  -13.3834 Cl  0  0  0  0  0  0  0  0  0  0  0  0
  -15.5393    0.1268  -13.4641 C   0  0  0  0  0  0  0  0  0  0  0  0
  -16.7853    0.0895  -13.9718 N   0  0  0  0  0  0  0  0  0  0  0  0
  -18.4305    0.9441  -15.4587 N   0  0  0  0  0  0  0  0  0  0  0  0
  -18.4329    0.4261  -16.3280 H   0  0  0  0  0  0  0  0  0  0  0  0
  -21.5518    1.9088  -14.2169 N   0  0  0  0  0  0  0  0  0  0  0  0
  -20.7189    0.9219  -14.6681 C   0  0  0  0  0  0  0  0  0  0  0  0
  -19.5376    1.5458  -14.9813 C   0  0  0  0  0  0  0  0  0  0  0  0
  -19.7694    2.9133  -14.7235 C   0  0  0  0  0  0  0  0  0  0  0  0
  -20.9973    3.1411  -14.2466 N   0  0  0  0  0  0  0  0  0  0  0  0
  -22.8932    1.7555  -13.6927 C   0  0  0  0  0  0  0  0  0  0  0  0
  -23.1118   -1.6000  -11.9356 C   0  0  0  0  0  0  0  0  0  0  0  0
  -22.9160   -0.2076  -12.2422 N   0  0  0  0  0  0  0  0  0  0  0  0
  -23.2301    0.2960  -13.4890 C   0  0  0  0  0  0  0  0  0  0  0  0
  -23.7881   -0.3686  -14.3597 O   0  0  0  0  0  0  0  0  0  0  0  0
  -22.2739    0.3380  -11.6662 H   0  0  0  0  0  0  0  0  0  0  0  0
  -15.1709   -0.8295  -12.5236 N   0  0  0  0  0  0  0  0  0  0  0  0
  -14.9902   -0.4790  -11.5880 H   0  0  0  0  0  0  0  0  0  0  0  0
  -15.5526   -2.2293  -12.6749 C   0  0  0  0  0  0  0  0  0  0  0  0
  -14.3466   -3.1397  -13.0939 C   0  0  0  0  0  0  0  0  0  0  0  0
  -14.2768   -4.1640  -11.9325 C   0  0  0  0  0  0  0  0  0  0  0  0
  -15.5262   -5.0176  -11.9943 C   0  0  0  0  0  0  0  0  0  0  0  0
  -16.5531   -4.2418  -11.6128 C   0  0  0  0  0  0  0  0  0  0  0  0
  -15.9869   -2.8656  -11.3156 C   0  0  0  0  0  0  0  0  0  0  0  0
  -14.6482   -3.3040  -10.7191 C   0  0  0  0  0  0  0  0  0  0  0  0
  -13.0158   -2.4272  -13.2618 C   0  0  0  0  0  0  0  0  0  0  0  0
  -12.6083   -2.2455  -14.5514 N   0  0  0  0  0  0  0  0  0  0  0  0
  -12.3133   -2.0389  -12.3338 O   0  0  0  0  0  0  0  0  0  0  0  0
  -13.2374   -2.3716  -15.3331 H   0  0  0  0  0  0  0  0  0  0  0  0
  -11.7584   -1.7163  -14.6918 H   0  0  0  0  0  0  0  0  0  0  0  0
 16 17  1  0  0  0
 17 18  1  0  0  0
 17 20  1  0  0  0
 18 19  2  0  0  0
 18 15  1  0  0  0
 15 10  1  0  0  0
 10 11  1  0  0  0
 10 14  1  0  0  0
 11 12  2  0  0  0
 12  8  1  0  0  0
 12 13  1  0  0  0
  8  1  1  0  0  0
  8  9  1  0  0  0
  1  2  1  0  0  0
  1  7  2  0  0  0
  2  3  2  0  0  0
  3  4  1  0  0  0
  4  5  1  0  0  0
  4  6  2  0  0  0
  6 21  1  0  0  0
  6  7  1  0  0  0
 21 22  1  0  0  0
 23 24  1  0  0  0
 23 28  1  0  0  0
 23 21  1  0  0  0
 24 30  1  0  0  0
 24 25  1  0  0  0
 30 31  1  0  0  0
 30 32  2  0  0  0
 31 33  1  0  0  0
 31 34  1  0  0  0
 25 26  1  0  0  0
 25 29  1  0  0  0
 26 27  2  0  0  0
 27 28  1  0  0  0
 28 29  1  0  0  0
 13 14  2  0  0  0
M  END
> <minimizedAffinity>
-7.87514

$$$$
