CHEMBL2325092


 29 33  0  0  0  0  0  0  0  0999 V2000
  -28.7730   -5.1693   -5.8163 C   0  0  0  0  0  0  0  0  0  0  0  0
  -28.3658   -5.9927   -4.8990 N   0  0  0  0  0  0  0  0  0  0  0  0
  -28.4345   -7.2492   -5.4248 N   0  0  0  0  0  0  0  0  0  0  0  0
  -28.8887   -7.2733   -6.8091 C   0  0  0  0  0  0  0  0  0  0  0  0
  -29.1812   -5.8109   -7.1165 C   0  0  0  0  0  0  0  0  0  0  0  0
  -30.0519   -8.2263   -7.0640 C   0  0  0  0  0  0  0  0  0  0  0  0
  -31.3479   -7.6666   -6.8906 C   0  0  0  0  0  0  0  0  0  0  0  0
  -32.4989   -8.3798   -7.1962 C   0  0  0  0  0  0  0  0  0  0  0  0
  -32.3900   -9.5805   -7.8592 C   0  0  0  0  0  0  0  0  0  0  0  0
  -31.1231  -10.1327   -8.0816 C   0  0  0  0  0  0  0  0  0  0  0  0
  -31.0761  -11.2982   -8.8235 C   0  0  0  0  0  0  0  0  0  0  0  0
  -30.3707  -12.3074   -8.2420 C   0  0  0  0  0  0  0  0  0  0  0  0
  -29.2054  -11.9600   -7.5493 C   0  0  0  0  0  0  0  0  0  0  0  0
  -28.9433  -10.5765   -7.3116 C   0  0  0  0  0  0  0  0  0  0  0  0
  -29.9676   -9.6028   -7.4903 C   0  0  0  0  0  0  0  0  0  0  0  0
  -29.0147   -0.9279   -5.1750 C   0  0  0  0  0  0  0  0  0  0  0  0
  -29.4428   -1.8186   -4.1941 C   0  0  0  0  0  0  0  0  0  0  0  0
  -29.3533   -3.2001   -4.4108 C   0  0  0  0  0  0  0  0  0  0  0  0
  -28.8336   -3.7027   -5.6112 C   0  0  0  0  0  0  0  0  0  0  0  0
  -28.3905   -2.8091   -6.5877 C   0  0  0  0  0  0  0  0  0  0  0  0
  -28.4828   -1.4295   -6.3659 C   0  0  0  0  0  0  0  0  0  0  0  0
  -30.1598    1.0855   -5.7097 C   0  0  0  0  0  0  0  0  0  0  0  0
  -29.0528    0.4382   -5.0923 O   0  0  0  0  0  0  0  0  0  0  0  0
  -27.9061   -8.3315   -4.7291 C   0  0  0  0  0  0  0  0  0  0  0  0
  -28.7619   -9.1300   -3.9557 C   0  0  0  0  0  0  0  0  0  0  0  0
  -28.3090  -10.2756   -3.3042 C   0  0  0  0  0  0  0  0  0  0  0  0
  -26.9667  -10.6307   -3.3775 C   0  0  0  0  0  0  0  0  0  0  0  0
  -26.0839   -9.8385   -4.1064 C   0  0  0  0  0  0  0  0  0  0  0  0
  -26.5528   -8.7042   -4.7844 C   0  0  0  0  0  0  0  0  0  0  0  0
 22 23  1  0  0  0
 23 16  1  0  0  0
 16 17  1  0  0  0
 16 21  2  0  0  0
 17 18  2  0  0  0
 18 19  1  0  0  0
 19  1  1  0  0  0
 19 20  2  0  0  0
  1  2  2  0  0  0
  1  5  1  0  0  0
  2  3  1  0  0  0
  3 24  1  0  0  0
  3  4  1  0  0  0
 24 25  1  0  0  0
 24 29  2  0  0  0
 25 26  2  0  0  0
 26 27  1  0  0  0
 27 28  2  0  0  0
 28 29  1  0  0  0
  4  6  1  0  0  0
  4  5  1  0  0  0
  6  7  1  0  0  0
  6 15  2  0  0  0
  7  8  2  0  0  0
  8  9  1  0  0  0
  9 10  2  0  0  0
 10 11  1  0  0  0
 10 15  1  0  0  0
 11 12  2  0  0  0
 12 13  1  0  0  0
 13 14  2  0  0  0
 14 15  1  0  0  0
 20 21  1  0  0  0
M  END
> <minimizedAffinity>
-8.67359

$$$$
