CHEMBL3927947


 41 46  0  0  0  0  0  0  0  0999 V2000
  -15.2344    2.0873  -16.2617 N   0  0  0  0  0  0  0  0  0  0  0  0
  -16.6732    2.1257  -15.8682 C   0  0  0  0  0  0  0  0  0  0  0  0
  -17.2832    3.3452  -16.1522 C   0  0  0  0  0  0  0  0  0  0  0  0
  -18.5117    3.6636  -15.7557 C   0  0  0  0  0  0  0  0  0  0  0  0
  -19.2759    2.7943  -15.0841 C   0  0  0  0  0  0  0  0  0  0  0  0
  -20.3875    3.3142  -14.6207 N   0  0  0  0  0  0  0  0  0  0  0  0
  -21.3044    2.6104  -14.0117 C   0  0  0  0  0  0  0  0  0  0  0  0
  -21.2154    1.2187  -13.9412 C   0  0  0  0  0  0  0  0  0  0  0  0
  -19.9740    0.6354  -14.3160 N   0  0  0  0  0  0  0  0  0  0  0  0
  -18.9353    1.4378  -14.8633 C   0  0  0  0  0  0  0  0  0  0  0  0
  -17.5435    1.0773  -15.2598 C   0  0  0  0  0  0  0  0  0  0  0  0
  -22.6070    0.6165  -13.6176 C   0  0  0  0  0  0  0  0  0  0  0  0
  -23.2231   -0.3387  -14.4805 C   0  0  0  0  0  0  0  0  0  0  0  0
  -24.3343   -0.8295  -13.9625 N   0  0  0  0  0  0  0  0  0  0  0  0
  -24.5209   -0.2626  -12.7974 N   0  0  0  0  0  0  0  0  0  0  0  0
  -25.6373   -0.7007  -11.9686 C   0  0  0  0  0  0  0  0  0  0  0  0
  -23.5243    0.6459  -12.5327 C   0  0  0  0  0  0  0  0  0  0  0  0
  -14.0425    5.0809  -18.3321 C   0  0  0  0  0  0  0  0  0  0  0  0
  -13.3201    5.7906  -17.3629 C   0  0  0  0  0  0  0  0  0  0  0  0
  -13.2488    5.3470  -16.0515 C   0  0  0  0  0  0  0  0  0  0  0  0
  -13.9254    4.1691  -15.6740 C   0  0  0  0  0  0  0  0  0  0  0  0
  -14.6856    3.4096  -16.6083 C   0  0  0  0  0  0  0  0  0  0  0  0
  -14.7098    3.8853  -17.9535 C   0  0  0  0  0  0  0  0  0  0  0  0
  -14.1980    6.8388  -20.0279 C   0  0  0  0  0  0  0  0  0  0  0  0
  -14.0884    5.5146  -19.6234 O   0  0  0  0  0  0  0  0  0  0  0  0
  -12.4874    6.0821  -15.1971 O   0  0  0  0  0  0  0  0  0  0  0  0
  -11.3166    5.6835  -14.5942 C   0  0  0  0  0  0  0  0  0  0  0  0
  -14.7947    0.9469  -17.0597 C   0  0  0  0  0  0  0  0  0  0  0  0
  -13.2368    0.6974  -17.1111 C   0  0  0  0  0  0  0  0  0  0  0  0
  -12.6417   -0.4044  -16.1997 C   0  0  0  0  0  0  0  0  0  0  0  0
  -13.6941   -1.0622  -15.3542 N   0  0  0  0  0  0  0  0  0  0  0  0
  -13.7161   -0.5937  -13.9543 C   0  0  0  0  0  0  0  0  0  0  0  0
  -12.9494   -1.6233  -13.1624 C   0  0  0  0  0  0  0  0  0  0  0  0
  -13.5005   -2.9273  -13.7308 C   0  0  0  0  0  0  0  0  0  0  0  0
  -13.4848   -2.5345  -15.2412 C   0  0  0  0  0  0  0  0  0  0  0  0
  -14.8679   -3.2871  -13.2141 N   0  0  0  0  0  0  0  0  0  0  0  0
  -15.3213   -4.5521  -13.8659 C   0  0  0  0  0  0  0  0  0  0  0  0
  -16.7078   -4.9947  -13.3690 C   0  0  0  0  0  0  0  0  0  0  0  0
  -16.6792   -5.2135  -11.8601 C   0  0  0  0  0  0  0  0  0  0  0  0
  -16.2150   -3.9280  -11.1906 C   0  0  0  0  0  0  0  0  0  0  0  0
  -14.8393   -3.5175  -11.7377 C   0  0  0  0  0  0  0  0  0  0  0  0
 24 25  1  0  0  0
 25 18  1  0  0  0
 18 19  1  0  0  0
 18 23  2  0  0  0
 19 20  2  0  0  0
 20 26  1  0  0  0
 20 21  1  0  0  0
 26 27  1  0  0  0
 21 22  2  0  0  0
 22  1  1  0  0  0
 22 23  1  0  0  0
  1 28  1  0  0  0
  1  2  1  0  0  0
 28 29  1  0  0  0
 29 30  1  0  0  0
 30 31  1  0  0  0
 31 32  1  0  0  0
 31 35  1  0  0  0
 32 33  1  0  0  0
 33 34  1  0  0  0
 34 36  1  0  0  0
 34 35  1  0  0  0
 36 37  1  0  0  0
 36 41  1  0  0  0
 37 38  1  0  0  0
 38 39  1  0  0  0
 39 40  1  0  0  0
 40 41  1  0  0  0
  2  3  1  0  0  0
  2 11  2  0  0  0
  3  4  2  0  0  0
  4  5  1  0  0  0
  5  6  1  0  0  0
  5 10  2  0  0  0
  6  7  2  0  0  0
  7  8  1  0  0  0
  8 12  1  0  0  0
  8  9  2  0  0  0
 12 13  1  0  0  0
 12 17  2  0  0  0
 13 14  2  0  0  0
 14 15  1  0  0  0
 15 16  1  0  0  0
 15 17  1  0  0  0
  9 10  1  0  0  0
 10 11  1  0  0  0
M  END
> <minimizedAffinity>
-8.73279

$$$$
