CHEMBL3968087


 43 47  0  0  0  0  0  0  0  0999 V2000
  -13.2596   -2.4773  -12.5027 N   0  0  0  0  0  0  0  0  0  0  0  0
  -14.3680   -1.8171  -13.0128 C   0  0  0  0  0  0  0  0  0  0  0  0
  -15.5210   -2.2335  -12.9455 O   0  0  0  0  0  0  0  0  0  0  0  0
  -14.0615   -0.6296  -13.6649 N   0  0  0  0  0  0  0  0  0  0  0  0
  -12.3519   -2.0742  -12.6686 H   0  0  0  0  0  0  0  0  0  0  0  0
  -13.2054   -0.6492  -14.1995 H   0  0  0  0  0  0  0  0  0  0  0  0
  -13.8943   -6.1139  -11.7211 C   0  0  0  0  0  0  0  0  0  0  0  0
  -13.8760   -4.8660  -12.3623 C   0  0  0  0  0  0  0  0  0  0  0  0
  -13.3156   -3.7124  -11.8010 C   0  0  0  0  0  0  0  0  0  0  0  0
  -12.8156   -3.7945  -10.4975 C   0  0  0  0  0  0  0  0  0  0  0  0
  -12.8445   -5.0199   -9.8039 C   0  0  0  0  0  0  0  0  0  0  0  0
  -13.3710   -6.1688  -10.4300 C   0  0  0  0  0  0  0  0  0  0  0  0
  -13.1846   -6.8182  -16.4754 C   0  0  0  0  0  0  0  0  0  0  0  0
  -13.9184   -7.3800  -15.3367 N   0  0  0  0  0  0  0  0  0  0  0  0
  -12.9693   -7.8706  -14.3311 C   0  0  0  0  0  0  0  0  0  0  0  0
  -13.6502   -8.3471  -13.0454 C   0  0  0  0  0  0  0  0  0  0  0  0
  -14.5734   -7.2809  -12.4398 C   0  0  0  0  0  0  0  0  0  0  0  0
  -15.5614   -6.8493  -13.5434 C   0  0  0  0  0  0  0  0  0  0  0  0
  -14.8422   -6.3696  -14.8023 C   0  0  0  0  0  0  0  0  0  0  0  0
  -12.3448   -5.1479   -8.3835 C   0  0  0  0  0  0  0  0  0  0  0  0
  -13.2475   -5.7091   -7.5329 F   0  0  0  0  0  0  0  0  0  0  0  0
  -11.2241   -5.9186   -8.3000 F   0  0  0  0  0  0  0  0  0  0  0  0
  -12.0092   -3.9465   -7.8364 F   0  0  0  0  0  0  0  0  0  0  0  0
  -15.1196    0.1612  -14.1886 C   0  0  0  0  0  0  0  0  0  0  0  0
  -16.1881    0.5722  -13.3793 C   0  0  0  0  0  0  0  0  0  0  0  0
  -17.2840    1.2485  -13.9244 C   0  0  0  0  0  0  0  0  0  0  0  0
  -17.2979    1.5807  -15.2803 C   0  0  0  0  0  0  0  0  0  0  0  0
  -16.2344    1.1725  -16.0912 C   0  0  0  0  0  0  0  0  0  0  0  0
  -15.1364    0.4858  -15.5455 C   0  0  0  0  0  0  0  0  0  0  0  0
  -18.3446    2.2378  -15.8989 O   0  0  0  0  0  0  0  0  0  0  0  0
  -19.5754    2.3151  -15.2689 C   0  0  0  0  0  0  0  0  0  0  0  0
  -20.1471    3.5145  -14.8575 C   0  0  0  0  0  0  0  0  0  0  0  0
  -21.3536    3.4531  -14.2000 C   0  0  0  0  0  0  0  0  0  0  0  0
  -22.0295    2.3121  -13.9965 N   0  0  0  0  0  0  0  0  0  0  0  0
  -21.5220    1.1567  -14.4590 C   0  0  0  0  0  0  0  0  0  0  0  0
  -20.2866    1.1212  -15.1043 C   0  0  0  0  0  0  0  0  0  0  0  0
  -22.2614   -0.0257  -14.2841 N   0  0  0  0  0  0  0  0  0  0  0  0
  -23.2550   -0.1658  -13.3268 C   0  0  0  0  0  0  0  0  0  0  0  0
  -23.6256    0.6701  -12.5154 O   0  0  0  0  0  0  0  0  0  0  0  0
  -22.0543   -0.8054  -14.8879 H   0  0  0  0  0  0  0  0  0  0  0  0
  -23.9299   -1.5036  -13.3153 C   0  0  0  0  0  0  0  0  0  0  0  0
  -25.2389   -1.6724  -14.0622 C   0  0  0  0  0  0  0  0  0  0  0  0
  -25.2368   -1.6583  -12.5622 C   0  0  0  0  0  0  0  0  0  0  0  0
 13 14  1  0  0  0
 14 15  1  0  0  0
 14 19  1  0  0  0
 15 16  1  0  0  0
 16 17  1  0  0  0
 17  7  1  0  0  0
 17 18  1  0  0  0
  7  8  1  0  0  0
  7 12  2  0  0  0
  8  9  2  0  0  0
  9  1  1  0  0  0
  9 10  1  0  0  0
  1  2  1  0  0  0
  1  5  1  0  0  0
  2  3  2  0  0  0
  2  4  1  0  0  0
  4 24  1  0  0  0
  4  6  1  0  0  0
 24 25  1  0  0  0
 24 29  2  0  0  0
 25 26  2  0  0  0
 26 27  1  0  0  0
 27 30  1  0  0  0
 27 28  2  0  0  0
 30 31  1  0  0  0
 31 32  1  0  0  0
 31 36  2  0  0  0
 32 33  2  0  0  0
 33 34  1  0  0  0
 34 35  2  0  0  0
 35 37  1  0  0  0
 35 36  1  0  0  0
 37 38  1  0  0  0
 37 40  1  0  0  0
 38 39  2  0  0  0
 38 41  1  0  0  0
 41 42  1  0  0  0
 41 43  1  0  0  0
 42 43  1  0  0  0
 28 29  1  0  0  0
 10 11  2  0  0  0
 11 20  1  0  0  0
 11 12  1  0  0  0
 20 21  1  0  0  0
 20 22  1  0  0  0
 20 23  1  0  0  0
 18 19  1  0  0  0
M  END
> <minimizedAffinity>
-10.40583

$$$$
