CHEMBL3927219


 43 46  0  0  0  0  0  0  0  0999 V2000
  -17.4433    2.0058  -15.6848 N   0  0  0  0  0  0  0  0  0  0  0  0
  -18.8916    1.8275  -15.4436 C   0  0  0  0  0  0  0  0  0  0  0  0
  -19.5768    3.0436  -15.4458 C   0  0  0  0  0  0  0  0  0  0  0  0
  -20.8096    3.1790  -14.9144 C   0  0  0  0  0  0  0  0  0  0  0  0
  -21.4837    2.1173  -14.4093 C   0  0  0  0  0  0  0  0  0  0  0  0
  -22.6102    2.4259  -13.7741 N   0  0  0  0  0  0  0  0  0  0  0  0
  -23.4249    1.5148  -13.2864 C   0  0  0  0  0  0  0  0  0  0  0  0
  -23.2028    0.1586  -13.5232 C   0  0  0  0  0  0  0  0  0  0  0  0
  -21.9482   -0.2088  -14.0782 N   0  0  0  0  0  0  0  0  0  0  0  0
  -21.0295    0.7859  -14.5075 C   0  0  0  0  0  0  0  0  0  0  0  0
  -19.6516    0.6239  -15.0330 C   0  0  0  0  0  0  0  0  0  0  0  0
  -24.5029   -0.6641  -13.3081 C   0  0  0  0  0  0  0  0  0  0  0  0
  -25.1746   -0.7100  -12.0563 C   0  0  0  0  0  0  0  0  0  0  0  0
  -26.3416   -1.3122  -12.1767 N   0  0  0  0  0  0  0  0  0  0  0  0
  -26.5027   -1.6810  -13.4198 N   0  0  0  0  0  0  0  0  0  0  0  0
  -27.7596   -2.2693  -13.8549 C   0  0  0  0  0  0  0  0  0  0  0  0
  -25.3897   -1.3503  -14.1512 C   0  0  0  0  0  0  0  0  0  0  0  0
  -15.2932   -0.1613  -13.4008 C   0  0  0  0  0  0  0  0  0  0  0  0
  -14.2181   -0.4387  -14.2659 C   0  0  0  0  0  0  0  0  0  0  0  0
  -14.1721    0.1108  -15.5487 C   0  0  0  0  0  0  0  0  0  0  0  0
  -15.2180    0.9327  -15.9723 C   0  0  0  0  0  0  0  0  0  0  0  0
  -16.3180    1.2637  -15.1355 C   0  0  0  0  0  0  0  0  0  0  0  0
  -16.3328    0.7071  -13.8329 C   0  0  0  0  0  0  0  0  0  0  0  0
  -15.7068   -2.2697  -10.8381 H   0  0  0  0  0  0  0  0  0  0  0  0
  -15.6704   -2.0797  -11.9295 C   0  0  0  0  0  0  0  0  0  0  0  0
  -14.8961   -2.7400  -12.3770 H   0  0  0  0  0  0  0  0  0  0  0  0
  -16.6672   -2.3453  -12.3523 H   0  0  0  0  0  0  0  0  0  0  0  0
  -15.3629   -0.7457  -12.1696 O   0  0  0  0  0  0  0  0  0  0  0  0
  -13.1474   -0.1385  -16.4101 O   0  0  0  0  0  0  0  0  0  0  0  0
  -13.2528   -0.2357  -17.7855 C   0  0  0  0  0  0  0  0  0  0  0  0
  -13.9604   -1.0486  -18.0573 H   0  0  0  0  0  0  0  0  0  0  0  0
  -13.5986    0.7274  -18.2193 H   0  0  0  0  0  0  0  0  0  0  0  0
  -12.2599   -0.4795  -18.2163 H   0  0  0  0  0  0  0  0  0  0  0  0
  -17.1089    3.1887  -16.5488 C   0  0  0  0  0  0  0  0  0  0  0  0
  -16.2169    4.3428  -15.9563 C   0  0  0  0  0  0  0  0  0  0  0  0
  -14.7788    4.6437  -16.4692 C   0  0  0  0  0  0  0  0  0  0  0  0
  -13.8933    4.8630  -15.2961 N   0  0  0  0  0  0  0  0  0  0  0  0
  -14.3792    4.5244  -14.4338 H   0  0  0  0  0  0  0  0  0  0  0  0
  -12.5924    4.1723  -15.3908 C   0  0  0  0  0  0  0  0  0  0  0  0
  -12.3554    3.1975  -14.2026 C   0  0  0  0  0  0  0  0  0  0  0  0
  -11.5988    2.0985  -14.5744 F   0  0  0  0  0  0  0  0  0  0  0  0
  -11.6949    3.8527  -13.1762 F   0  0  0  0  0  0  0  0  0  0  0  0
  -13.5665    2.7414  -13.7092 F   0  0  0  0  0  0  0  0  0  0  0  0
 24 25  1  0  0  0
 25 26  1  0  0  0
 25 27  1  0  0  0
 25 28  1  0  0  0
 28 18  1  0  0  0
 18 19  1  0  0  0
 18 23  2  0  0  0
 19 20  2  0  0  0
 20 29  1  0  0  0
 20 21  1  0  0  0
 29 30  1  0  0  0
 30 31  1  0  0  0
 30 32  1  0  0  0
 30 33  1  0  0  0
 21 22  2  0  0  0
 22  1  1  0  0  0
 22 23  1  0  0  0
  1 34  1  0  0  0
  1  2  1  0  0  0
 34 35  1  0  0  0
 35 36  1  0  0  0
 36 37  1  0  0  0
 37 39  1  0  0  0
 37 38  1  0  0  0
 39 40  1  0  0  0
 40 41  1  0  0  0
 40 42  1  0  0  0
 40 43  1  0  0  0
  2  3  1  0  0  0
  2 11  2  0  0  0
  3  4  2  0  0  0
  4  5  1  0  0  0
  5  6  1  0  0  0
  5 10  2  0  0  0
  6  7  2  0  0  0
  7  8  1  0  0  0
  8 12  1  0  0  0
  8  9  2  0  0  0
 12 13  1  0  0  0
 12 17  2  0  0  0
 13 14  2  0  0  0
 14 15  1  0  0  0
 15 16  1  0  0  0
 15 17  1  0  0  0
  9 10  1  0  0  0
 10 11  1  0  0  0
M  ISO 1  24   2
M  ISO 1  26   2
M  ISO 1  27   2
M  ISO 1  31   2
M  ISO 1  32   2
M  ISO 1  33   2
M  END
> <minimizedAffinity>
-8.25324

$$$$
