CHEMBL3754319


 33 37  0  0  0  0  0  0  0  0999 V2000
  -29.6220  -10.1820   -6.5489 N   0  0  0  0  0  0  0  0  0  0  0  0
  -30.5620   -9.2432   -7.1971 C   0  0  0  0  0  0  0  0  0  0  0  0
  -29.9309   -7.9175   -7.6396 C   0  0  0  0  0  0  0  0  0  0  0  0
  -29.2153   -7.2354   -6.5558 N   0  0  0  0  0  0  0  0  0  0  0  0
  -28.4621   -8.0658   -5.5946 C   0  0  0  0  0  0  0  0  0  0  0  0
  -29.0841   -9.4748   -5.3607 C   0  0  0  0  0  0  0  0  0  0  0  0
  -29.3724   -5.8697   -6.3248 C   0  0  0  0  0  0  0  0  0  0  0  0
  -28.6184   -5.0173   -7.0504 N   0  0  0  0  0  0  0  0  0  0  0  0
  -28.5424   -3.6661   -6.7564 N   0  0  0  0  0  0  0  0  0  0  0  0
  -29.2075   -3.1467   -5.6988 C   0  0  0  0  0  0  0  0  0  0  0  0
  -30.0824   -3.9598   -4.9430 C   0  0  0  0  0  0  0  0  0  0  0  0
  -30.8548   -3.4998   -3.8386 C   0  0  0  0  0  0  0  0  0  0  0  0
  -31.6938   -4.3288   -3.0978 C   0  0  0  0  0  0  0  0  0  0  0  0
  -31.9028   -5.6205   -3.5217 C   0  0  0  0  0  0  0  0  0  0  0  0
  -31.2156   -6.0838   -4.6421 C   0  0  0  0  0  0  0  0  0  0  0  0
  -30.2121   -5.3302   -5.3110 C   0  0  0  0  0  0  0  0  0  0  0  0
  -28.9322   -1.7002   -5.4699 C   0  0  0  0  0  0  0  0  0  0  0  0
  -29.9067   -0.7232   -5.7604 C   0  0  0  0  0  0  0  0  0  0  0  0
  -29.6705    0.6407   -5.5406 C   0  0  0  0  0  0  0  0  0  0  0  0
  -28.4590    1.0625   -5.0040 C   0  0  0  0  0  0  0  0  0  0  0  0
  -27.4703    0.1269   -4.7261 C   0  0  0  0  0  0  0  0  0  0  0  0
  -27.6941   -1.2284   -4.9929 C   0  0  0  0  0  0  0  0  0  0  0  0
  -28.5309  -10.6197   -7.4500 C   0  0  0  0  0  0  0  0  0  0  0  0
  -29.0654  -11.1332   -8.7901 C   0  0  0  0  0  0  0  0  0  0  0  0
  -29.9209  -12.0169   -8.8383 O   0  0  0  0  0  0  0  0  0  0  0  0
  -27.4325   -9.4365  -12.3765 C   0  0  0  0  0  0  0  0  0  0  0  0
  -28.6262  -10.1552  -12.4357 C   0  0  0  0  0  0  0  0  0  0  0  0
  -29.1582  -10.7357  -11.2797 C   0  0  0  0  0  0  0  0  0  0  0  0
  -28.4880  -10.6086  -10.0605 C   0  0  0  0  0  0  0  0  0  0  0  0
  -27.2524   -9.9510  -10.0200 C   0  0  0  0  0  0  0  0  0  0  0  0
  -26.7283   -9.3683  -11.1759 C   0  0  0  0  0  0  0  0  0  0  0  0
  -27.2002   -9.3496  -14.7147 C   0  0  0  0  0  0  0  0  0  0  0  0
  -26.8615   -8.7982  -13.4440 O   0  0  0  0  0  0  0  0  0  0  0  0
 32 33  1  0  0  0
 33 26  1  0  0  0
 26 27  1  0  0  0
 26 31  2  0  0  0
 27 28  2  0  0  0
 28 29  1  0  0  0
 29 24  1  0  0  0
 29 30  2  0  0  0
 24 25  2  0  0  0
 24 23  1  0  0  0
 23  1  1  0  0  0
  1  2  1  0  0  0
  1  6  1  0  0  0
  2  3  1  0  0  0
  3  4  1  0  0  0
  4  7  1  0  0  0
  4  5  1  0  0  0
  7  8  1  0  0  0
  7 16  2  0  0  0
  8  9  2  0  0  0
  9 10  1  0  0  0
 10 17  1  0  0  0
 10 11  2  0  0  0
 17 18  1  0  0  0
 17 22  2  0  0  0
 18 19  2  0  0  0
 19 20  1  0  0  0
 20 21  2  0  0  0
 21 22  1  0  0  0
 11 12  1  0  0  0
 11 16  1  0  0  0
 12 13  2  0  0  0
 13 14  1  0  0  0
 14 15  2  0  0  0
 15 16  1  0  0  0
  5  6  1  0  0  0
 30 31  1  0  0  0
M  END
> <minimizedAffinity>
-9.59071

$$$$
