CHEMBL497958


 29 32  0  0  0  0  0  0  0  0999 V2000
  -27.8563   -9.2749   -5.5270 N   0  0  0  0  0  0  0  0  0  0  0  0
  -28.7841  -10.0525   -6.2146 C   0  0  0  0  0  0  0  0  0  0  0  0
  -29.9853   -9.5661   -6.5516 C   0  0  0  0  0  0  0  0  0  0  0  0
  -30.2167   -8.1428   -6.5582 C   0  0  0  0  0  0  0  0  0  0  0  0
  -31.3613   -7.5871   -7.3672 C   0  0  0  0  0  0  0  0  0  0  0  0
  -29.3032   -7.3503   -5.9620 C   0  0  0  0  0  0  0  0  0  0  0  0
  -28.0972   -7.9151   -5.2882 C   0  0  0  0  0  0  0  0  0  0  0  0
  -27.3655   -7.1742   -4.6328 O   0  0  0  0  0  0  0  0  0  0  0  0
  -29.3992   -5.9105   -6.1118 C   0  0  0  0  0  0  0  0  0  0  0  0
  -28.8104   -5.4331   -7.2617 C   0  0  0  0  0  0  0  0  0  0  0  0
  -28.9347   -4.1178   -7.4877 C   0  0  0  0  0  0  0  0  0  0  0  0
  -29.1839   -3.3355   -6.4275 C   0  0  0  0  0  0  0  0  0  0  0  0
  -28.4124   -2.3443   -6.6595 N   0  0  0  0  0  0  0  0  0  0  0  0
  -28.4822   -1.0924   -6.3730 C   0  0  0  0  0  0  0  0  0  0  0  0
  -27.7544   -1.1125   -7.5369 N   0  0  0  0  0  0  0  0  0  0  0  0
  -29.1901   -1.1249   -5.2562 N   0  0  0  0  0  0  0  0  0  0  0  0
  -29.7639   -2.3123   -4.6399 C   0  0  0  0  0  0  0  0  0  0  0  0
  -29.7406   -3.6021   -5.2438 C   0  0  0  0  0  0  0  0  0  0  0  0
  -30.0241   -5.0346   -5.1567 C   0  0  0  0  0  0  0  0  0  0  0  0
  -27.5569   -2.0927   -7.7494 H   0  0  0  0  0  0  0  0  0  0  0  0
  -27.3555   -0.5454   -8.2483 H   0  0  0  0  0  0  0  0  0  0  0  0
  -23.0307  -10.5694   -5.3088 C   0  0  0  0  0  0  0  0  0  0  0  0
  -24.4113  -10.5368   -4.7256 C   0  0  0  0  0  0  0  0  0  0  0  0
  -25.4779   -9.9092   -5.3885 C   0  0  0  0  0  0  0  0  0  0  0  0
  -26.7633   -9.8680   -4.8211 C   0  0  0  0  0  0  0  0  0  0  0  0
  -26.9771  -10.4463   -3.5638 C   0  0  0  0  0  0  0  0  0  0  0  0
  -25.9265  -11.0901   -2.9108 C   0  0  0  0  0  0  0  0  0  0  0  0
  -24.6600  -11.1303   -3.4896 C   0  0  0  0  0  0  0  0  0  0  0  0
  -23.6670  -11.7493   -2.8346 F   0  0  0  0  0  0  0  0  0  0  0  0
 22 23  1  0  0  0
 23 24  1  0  0  0
 23 28  2  0  0  0
 24 25  2  0  0  0
 25  1  1  0  0  0
 25 26  1  0  0  0
  1  2  1  0  0  0
  1  7  1  0  0  0
  2  3  2  0  0  0
  3  4  1  0  0  0
  4  5  1  0  0  0
  4  6  2  0  0  0
  6  9  1  0  0  0
  6  7  1  0  0  0
  9 10  1  0  0  0
  9 19  2  0  0  0
 10 11  2  0  0  0
 11 12  1  0  0  0
 12 13  1  0  0  0
 12 18  2  0  0  0
 13 14  2  0  0  0
 14 15  1  0  0  0
 14 16  1  0  0  0
 15 20  1  0  0  0
 15 21  1  0  0  0
 16 17  2  0  0  0
 17 18  1  0  0  0
 18 19  1  0  0  0
  7  8  2  0  0  0
 26 27  2  0  0  0
 27 28  1  0  0  0
 28 29  1  0  0  0
M  END
> <minimizedAffinity>
-8.47200

$$$$
