CHEMBL1974870


 31 34  0  0  0  0  0  0  0  0999 V2000
  -27.2733   -1.7892  -10.1416 C   0  0  0  0  0  0  0  0  0  0  0  0
  -28.0780   -1.7432  -11.2831 C   0  0  0  0  0  0  0  0  0  0  0  0
  -27.6350   -1.5021  -12.5408 N   0  0  0  0  0  0  0  0  0  0  0  0
  -26.3049   -1.3103  -12.6829 C   0  0  0  0  0  0  0  0  0  0  0  0
  -25.3956   -1.3379  -11.6353 C   0  0  0  0  0  0  0  0  0  0  0  0
  -25.9002   -1.5660  -10.3555 C   0  0  0  0  0  0  0  0  0  0  0  0
  -28.1981    0.8325   -5.0699 C   0  0  0  0  0  0  0  0  0  0  0  0
  -28.5419   -0.5882   -5.3195 C   0  0  0  0  0  0  0  0  0  0  0  0
  -29.1063   -1.3319   -4.3592 N   0  0  0  0  0  0  0  0  0  0  0  0
  -29.2750   -2.5322   -4.9419 N   0  0  0  0  0  0  0  0  0  0  0  0
  -28.8521   -2.5904   -6.2420 C   0  0  0  0  0  0  0  0  0  0  0  0
  -28.8621   -3.6208   -7.1817 C   0  0  0  0  0  0  0  0  0  0  0  0
  -28.3472   -3.3287   -8.4548 C   0  0  0  0  0  0  0  0  0  0  0  0
  -27.8185   -2.0673   -8.7919 C   0  0  0  0  0  0  0  0  0  0  0  0
  -27.8236   -1.0657   -7.7957 C   0  0  0  0  0  0  0  0  0  0  0  0
  -28.3542   -1.3264   -6.5180 C   0  0  0  0  0  0  0  0  0  0  0  0
  -29.6923   -3.2754   -4.3942 H   0  0  0  0  0  0  0  0  0  0  0  0
  -24.0860   -1.1389  -11.9640 O   0  0  0  0  0  0  0  0  0  0  0  0
  -23.8005   -0.8494  -13.3378 C   0  0  0  0  0  0  0  0  0  0  0  0
  -22.7576    0.2893  -13.4040 C   0  0  0  0  0  0  0  0  0  0  0  0
  -21.9479    0.3000  -12.1691 N   0  0  0  0  0  0  0  0  0  0  0  0
  -21.4675   -0.5912  -12.0561 H   0  0  0  0  0  0  0  0  0  0  0  0
  -22.5886    0.3643  -11.3746 H   0  0  0  0  0  0  0  0  0  0  0  0
  -21.8954    0.1247  -14.6740 C   0  0  0  0  0  0  0  0  0  0  0  0
  -20.8000    1.1536  -14.8315 C   0  0  0  0  0  0  0  0  0  0  0  0
  -21.0655    2.5216  -14.6734 C   0  0  0  0  0  0  0  0  0  0  0  0
  -20.0425    3.4623  -14.8208 C   0  0  0  0  0  0  0  0  0  0  0  0
  -18.7452    3.0452  -15.1185 C   0  0  0  0  0  0  0  0  0  0  0  0
  -18.4746    1.6885  -15.2693 C   0  0  0  0  0  0  0  0  0  0  0  0
  -16.8742    1.1688  -15.6321 Cl  0  0  0  0  0  0  0  0  0  0  0  0
  -19.4921    0.7471  -15.1293 C   0  0  0  0  0  0  0  0  0  0  0  0
  7  8  1  0  0  0
  8  9  2  0  0  0
  8 16  1  0  0  0
  9 10  1  0  0  0
 10 11  1  0  0  0
 10 17  1  0  0  0
 11 12  1  0  0  0
 11 16  2  0  0  0
 12 13  2  0  0  0
 13 14  1  0  0  0
 14  1  1  0  0  0
 14 15  2  0  0  0
  1  2  1  0  0  0
  1  6  2  0  0  0
  2  3  2  0  0  0
  3  4  1  0  0  0
  4  5  2  0  0  0
  5 18  1  0  0  0
  5  6  1  0  0  0
 18 19  1  0  0  0
 19 20  1  0  0  0
 20 21  1  0  0  0
 20 24  1  0  0  0
 21 22  1  0  0  0
 21 23  1  0  0  0
 24 25  1  0  0  0
 25 26  1  0  0  0
 25 31  2  0  0  0
 26 27  2  0  0  0
 27 28  1  0  0  0
 28 29  2  0  0  0
 29 30  1  0  0  0
 29 31  1  0  0  0
 15 16  1  0  0  0
M  END
> <minimizedAffinity>
-9.82933

$$$$
