CHEMBL3967980


 38 41  0  0  0  0  0  0  0  0999 V2000
  -30.2254   -9.8177   -6.6349 C   0  0  0  0  0  0  0  0  0  0  0  0
  -29.7489   -8.3907   -6.6706 C   0  0  0  0  0  0  0  0  0  0  0  0
  -30.6244   -7.4550   -7.2444 C   0  0  0  0  0  0  0  0  0  0  0  0
  -30.3641   -6.0908   -7.1889 C   0  0  0  0  0  0  0  0  0  0  0  0
  -29.2258   -5.6160   -6.5431 C   0  0  0  0  0  0  0  0  0  0  0  0
  -28.2860   -6.5675   -6.0637 C   0  0  0  0  0  0  0  0  0  0  0  0
  -28.5094   -7.9577   -6.1411 C   0  0  0  0  0  0  0  0  0  0  0  0
  -28.9911   -4.2130   -6.3523 N   0  0  0  0  0  0  0  0  0  0  0  0
  -29.1988   -3.4969   -5.1852 C   0  0  0  0  0  0  0  0  0  0  0  0
  -29.7051   -3.9107   -4.1504 O   0  0  0  0  0  0  0  0  0  0  0  0
  -28.6483   -3.7287   -7.1754 H   0  0  0  0  0  0  0  0  0  0  0  0
  -28.8031   -2.0621   -5.1890 C   0  0  0  0  0  0  0  0  0  0  0  0
  -27.5334   -1.6151   -4.8115 C   0  0  0  0  0  0  0  0  0  0  0  0
  -27.2537   -0.2413   -4.7671 C   0  0  0  0  0  0  0  0  0  0  0  0
  -28.2308    0.7005   -5.1148 C   0  0  0  0  0  0  0  0  0  0  0  0
  -29.5101    0.2818   -5.4991 C   0  0  0  0  0  0  0  0  0  0  0  0
  -29.7905   -1.1056   -5.5367 C   0  0  0  0  0  0  0  0  0  0  0  0
  -30.5767    1.2784   -5.8863 C   0  0  0  0  0  0  0  0  0  0  0  0
  -30.1994    2.1127   -6.8964 F   0  0  0  0  0  0  0  0  0  0  0  0
  -31.7188    0.6733   -6.3154 F   0  0  0  0  0  0  0  0  0  0  0  0
  -30.9444    2.0877   -4.8553 F   0  0  0  0  0  0  0  0  0  0  0  0
  -27.5463   -8.9582   -5.7523 N   0  0  0  0  0  0  0  0  0  0  0  0
  -27.2100   -9.3766   -4.4641 C   0  0  0  0  0  0  0  0  0  0  0  0
  -27.8159   -9.0786   -3.4423 O   0  0  0  0  0  0  0  0  0  0  0  0
  -26.9480   -9.2871   -6.5005 H   0  0  0  0  0  0  0  0  0  0  0  0
  -25.9289  -10.1631   -4.3259 C   0  0  0  0  0  0  0  0  0  0  0  0
  -25.5734  -10.5666   -3.0298 C   0  0  0  0  0  0  0  0  0  0  0  0
  -24.2915  -11.0517   -2.7636 C   0  0  0  0  0  0  0  0  0  0  0  0
  -23.3159  -10.9794   -3.7552 C   0  0  0  0  0  0  0  0  0  0  0  0
  -23.6890  -10.6591   -5.0688 C   0  0  0  0  0  0  0  0  0  0  0  0
  -22.8007  -10.6882   -6.1572 C   0  0  0  0  0  0  0  0  0  0  0  0
  -22.1289   -9.4670   -6.4670 N   0  0  0  0  0  0  0  0  0  0  0  0
  -23.1340  -11.3136   -7.2855 N   0  0  0  0  0  0  0  0  0  0  0  0
  -24.4540  -11.4493   -7.4979 C   0  0  0  0  0  0  0  0  0  0  0  0
  -25.4247  -10.8914   -6.6690 C   0  0  0  0  0  0  0  0  0  0  0  0
  -25.0442  -10.4864   -5.3781 C   0  0  0  0  0  0  0  0  0  0  0  0
  -22.8771   -8.8330   -6.7588 H   0  0  0  0  0  0  0  0  0  0  0  0
  -21.6198   -9.6689   -7.3279 H   0  0  0  0  0  0  0  0  0  0  0  0
  1  2  1  0  0  0
  2  3  1  0  0  0
  2  7  2  0  0  0
  3  4  2  0  0  0
  4  5  1  0  0  0
  5  8  1  0  0  0
  5  6  2  0  0  0
  8  9  1  0  0  0
  8 11  1  0  0  0
  9 10  2  0  0  0
  9 12  1  0  0  0
 12 13  1  0  0  0
 12 17  2  0  0  0
 13 14  2  0  0  0
 14 15  1  0  0  0
 15 16  2  0  0  0
 16 18  1  0  0  0
 16 17  1  0  0  0
 18 19  1  0  0  0
 18 20  1  0  0  0
 18 21  1  0  0  0
  6  7  1  0  0  0
  7 22  1  0  0  0
 22 23  1  0  0  0
 22 25  1  0  0  0
 23 24  2  0  0  0
 23 26  1  0  0  0
 26 27  1  0  0  0
 26 36  2  0  0  0
 27 28  2  0  0  0
 28 29  1  0  0  0
 29 30  2  0  0  0
 30 31  1  0  0  0
 30 36  1  0  0  0
 31 32  1  0  0  0
 31 33  2  0  0  0
 32 37  1  0  0  0
 32 38  1  0  0  0
 33 34  1  0  0  0
 34 35  2  0  0  0
 35 36  1  0  0  0
M  END
> <minimizedAffinity>
-10.36977

$$$$
