CHEMBL3781479


 30 34  0  0  0  0  0  0  0  0999 V2000
  -26.3250   -9.5438   -4.9989 C   0  0  0  0  0  0  0  0  0  0  0  0
  -26.9299   -8.4889   -4.3241 C   0  0  0  0  0  0  0  0  0  0  0  0
  -28.1377   -7.9706   -4.6594 N   0  0  0  0  0  0  0  0  0  0  0  0
  -28.7715   -8.5435   -5.7078 C   0  0  0  0  0  0  0  0  0  0  0  0
  -30.0273   -8.0728   -6.1155 C   0  0  0  0  0  0  0  0  0  0  0  0
  -30.6367   -8.7117   -7.1941 C   0  0  0  0  0  0  0  0  0  0  0  0
  -30.1059   -9.7483   -7.8698 N   0  0  0  0  0  0  0  0  0  0  0  0
  -28.8881  -10.1623   -7.4486 C   0  0  0  0  0  0  0  0  0  0  0  0
  -28.1704   -9.6211   -6.3985 C   0  0  0  0  0  0  0  0  0  0  0  0
  -26.9523  -10.1109   -6.0582 N   0  0  0  0  0  0  0  0  0  0  0  0
  -22.5013  -11.1692   -3.8767 C   0  0  0  0  0  0  0  0  0  0  0  0
  -22.7629  -10.8547   -5.2053 C   0  0  0  0  0  0  0  0  0  0  0  0
  -24.0053  -10.3244   -5.5638 C   0  0  0  0  0  0  0  0  0  0  0  0
  -25.0150  -10.1010   -4.6088 C   0  0  0  0  0  0  0  0  0  0  0  0
  -24.7225  -10.4292   -3.2733 C   0  0  0  0  0  0  0  0  0  0  0  0
  -23.4799  -10.9599   -2.9095 C   0  0  0  0  0  0  0  0  0  0  0  0
  -30.6571   -7.0075   -5.4253 N   0  0  0  0  0  0  0  0  0  0  0  0
  -31.5735   -7.2457   -5.0550 H   0  0  0  0  0  0  0  0  0  0  0  0
  -30.2923   -5.6542   -5.3708 C   0  0  0  0  0  0  0  0  0  0  0  0
  -29.8547   -4.9628   -6.4999 C   0  0  0  0  0  0  0  0  0  0  0  0
  -29.3726   -3.6499   -6.4140 C   0  0  0  0  0  0  0  0  0  0  0  0
  -29.3029   -2.9726   -5.1922 C   0  0  0  0  0  0  0  0  0  0  0  0
  -29.7761   -3.6669   -4.0676 C   0  0  0  0  0  0  0  0  0  0  0  0
  -30.2665   -4.9806   -4.1473 C   0  0  0  0  0  0  0  0  0  0  0  0
  -28.8165   -1.6817   -5.0940 N   0  0  0  0  0  0  0  0  0  0  0  0
  -29.6440   -0.5705   -4.6137 C   0  0  0  0  0  0  0  0  0  0  0  0
  -29.9671    0.3954   -5.7519 C   0  0  0  0  0  0  0  0  0  0  0  0
  -28.6979    0.8494   -6.4703 C   0  0  0  0  0  0  0  0  0  0  0  0
  -27.8678   -0.3491   -6.9251 C   0  0  0  0  0  0  0  0  0  0  0  0
  -27.5692   -1.3026   -5.7656 C   0  0  0  0  0  0  0  0  0  0  0  0
 11 12  1  0  0  0
 11 16  2  0  0  0
 12 13  2  0  0  0
 13 14  1  0  0  0
 14  1  1  0  0  0
 14 15  2  0  0  0
  1  2  1  0  0  0
  1 10  2  0  0  0
  2  3  2  0  0  0
  3  4  1  0  0  0
  4  5  1  0  0  0
  4  9  2  0  0  0
  5 17  1  0  0  0
  5  6  2  0  0  0
 17 19  1  0  0  0
 17 18  1  0  0  0
 19 20  1  0  0  0
 19 24  2  0  0  0
 20 21  2  0  0  0
 21 22  1  0  0  0
 22 25  1  0  0  0
 22 23  2  0  0  0
 25 26  1  0  0  0
 25 30  1  0  0  0
 26 27  1  0  0  0
 27 28  1  0  0  0
 28 29  1  0  0  0
 29 30  1  0  0  0
 23 24  1  0  0  0
  6  7  1  0  0  0
  7  8  2  0  0  0
  8  9  1  0  0  0
  9 10  1  0  0  0
 15 16  1  0  0  0
M  END
> <minimizedAffinity>
-8.97064

$$$$
