CHEMBL1241943


 30 33  0  0  0  0  0  0  0  0999 V2000
  -29.0192   -5.1773   -3.0644 N   0  0  0  0  0  0  0  0  0  0  0  0
  -29.1205   -6.2921   -3.8871 C   0  0  0  0  0  0  0  0  0  0  0  0
  -29.0686   -7.4889   -3.2670 N   0  0  0  0  0  0  0  0  0  0  0  0
  -29.1591   -8.6097   -4.0088 C   0  0  0  0  0  0  0  0  0  0  0  0
  -29.3220   -8.7087   -5.3375 N   0  0  0  0  0  0  0  0  0  0  0  0
  -29.3734   -7.4990   -5.9157 C   0  0  0  0  0  0  0  0  0  0  0  0
  -29.2673   -6.2638   -5.2842 C   0  0  0  0  0  0  0  0  0  0  0  0
  -29.3203   -5.3067   -6.3466 C   0  0  0  0  0  0  0  0  0  0  0  0
  -29.5656   -5.9114   -7.5205 N   0  0  0  0  0  0  0  0  0  0  0  0
  -29.5201   -7.2309   -7.2503 N   0  0  0  0  0  0  0  0  0  0  0  0
  -29.1161   -5.4228   -2.0860 H   0  0  0  0  0  0  0  0  0  0  0  0
  -29.5045   -4.3439   -3.3674 H   0  0  0  0  0  0  0  0  0  0  0  0
  -29.1435   -3.8487   -6.3191 C   0  0  0  0  0  0  0  0  0  0  0  0
  -29.7667   -3.0561   -5.3432 C   0  0  0  0  0  0  0  0  0  0  0  0
  -29.6162   -1.6654   -5.3368 C   0  0  0  0  0  0  0  0  0  0  0  0
  -28.7795   -1.0609   -6.2682 C   0  0  0  0  0  0  0  0  0  0  0  0
  -28.5769    0.6512   -6.2433 Cl  0  0  0  0  0  0  0  0  0  0  0  0
  -28.0992   -1.8426   -7.2022 C   0  0  0  0  0  0  0  0  0  0  0  0
  -27.2251   -1.2976   -8.1021 O   0  0  0  0  0  0  0  0  0  0  0  0
  -28.2856   -3.2223   -7.2388 C   0  0  0  0  0  0  0  0  0  0  0  0
  -27.1518   -0.3472   -7.8938 H   0  0  0  0  0  0  0  0  0  0  0  0
  -29.6207   -8.1955   -8.3421 C   0  0  0  0  0  0  0  0  0  0  0  0
  -28.2470   -8.6141   -8.8739 C   0  0  0  0  0  0  0  0  0  0  0  0
  -28.0846  -10.0893   -9.3000 C   0  0  0  0  0  0  0  0  0  0  0  0
  -26.9310  -10.3509  -10.2796 C   0  0  0  0  0  0  0  0  0  0  0  0
  -27.2007   -9.7243  -11.6461 C   0  0  0  0  0  0  0  0  0  0  0  0
  -28.5826  -10.0995  -12.1867 C   0  0  0  0  0  0  0  0  0  0  0  0
  -29.6465   -9.8600  -11.2137 N   0  0  0  0  0  0  0  0  0  0  0  0
  -29.3980  -10.5673   -9.9554 C   0  0  0  0  0  0  0  0  0  0  0  0
  -30.5431  -10.1501  -11.6014 H   0  0  0  0  0  0  0  0  0  0  0  0
  1  2  1  0  0  0
  1 11  1  0  0  0
  1 12  1  0  0  0
  2  3  1  0  0  0
  2  7  2  0  0  0
  3  4  2  0  0  0
  4  5  1  0  0  0
  5  6  2  0  0  0
  6  7  1  0  0  0
  6 10  1  0  0  0
  7  8  1  0  0  0
  8 13  1  0  0  0
  8  9  2  0  0  0
 13 14  1  0  0  0
 13 20  2  0  0  0
 14 15  2  0  0  0
 15 16  1  0  0  0
 16 17  1  0  0  0
 16 18  2  0  0  0
 18 19  1  0  0  0
 18 20  1  0  0  0
 19 21  1  0  0  0
  9 10  1  0  0  0
 10 22  1  0  0  0
 22 23  1  0  0  0
 23 24  1  0  0  0
 24 25  1  0  0  0
 24 29  1  0  0  0
 25 26  1  0  0  0
 26 27  1  0  0  0
 27 28  1  0  0  0
 28 29  1  0  0  0
 28 30  1  0  0  0
M  END
> <minimizedAffinity>
-8.90369

$$$$
