CHEMBL270745


 36 40  0  0  0  0  0  0  0  0999 V2000
  -29.7218   -5.7152   -6.2773 C   0  0  0  0  0  0  0  0  0  0  0  0
  -30.0408   -5.2404   -7.5401 C   0  0  0  0  0  0  0  0  0  0  0  0
  -29.4935   -4.0201   -7.9591 C   0  0  0  0  0  0  0  0  0  0  0  0
  -28.7580   -3.1850   -7.0700 C   0  0  0  0  0  0  0  0  0  0  0  0
  -28.0628   -1.9866   -7.3906 C   0  0  0  0  0  0  0  0  0  0  0  0
  -27.4264   -1.2511   -6.3818 C   0  0  0  0  0  0  0  0  0  0  0  0
  -27.4727   -1.7251   -5.0933 C   0  0  0  0  0  0  0  0  0  0  0  0
  -28.0646   -2.8833   -4.7586 N   0  0  0  0  0  0  0  0  0  0  0  0
  -28.6615   -3.6054   -5.7200 C   0  0  0  0  0  0  0  0  0  0  0  0
  -29.1210   -4.8604   -5.3565 C   0  0  0  0  0  0  0  0  0  0  0  0
  -27.7925   -1.4763   -8.7705 C   0  0  0  0  0  0  0  0  0  0  0  0
  -28.4160   -0.4793   -9.1250 O   0  0  0  0  0  0  0  0  0  0  0  0
  -26.9306   -2.2077   -9.5640 N   0  0  0  0  0  0  0  0  0  0  0  0
  -26.6117   -3.0962   -9.2032 H   0  0  0  0  0  0  0  0  0  0  0  0
  -26.5807   -1.9219  -10.9060 C   0  0  0  0  0  0  0  0  0  0  0  0
  -27.4494   -2.0674  -11.9940 C   0  0  0  0  0  0  0  0  0  0  0  0
  -27.0030   -1.8440  -13.3017 C   0  0  0  0  0  0  0  0  0  0  0  0
  -25.6858   -1.4596  -13.5280 C   0  0  0  0  0  0  0  0  0  0  0  0
  -25.1195   -1.2307  -15.1359 Cl  0  0  0  0  0  0  0  0  0  0  0  0
  -24.8204   -1.2672  -12.4542 C   0  0  0  0  0  0  0  0  0  0  0  0
  -25.2692   -1.4908  -11.1481 C   0  0  0  0  0  0  0  0  0  0  0  0
  -29.8942   -7.0171   -5.8690 O   0  0  0  0  0  0  0  0  0  0  0  0
  -29.2210  -10.4270   -9.7668 C   0  0  0  0  0  0  0  0  0  0  0  0
  -30.5755  -10.3593   -9.3993 C   0  0  0  0  0  0  0  0  0  0  0  0
  -31.0287   -9.5724   -8.3486 C   0  0  0  0  0  0  0  0  0  0  0  0
  -32.3558   -9.4594   -8.1726 N   0  0  0  0  0  0  0  0  0  0  0  0
  -32.8073   -8.6102   -7.2298 C   0  0  0  0  0  0  0  0  0  0  0  0
  -31.9855   -7.8174   -6.4611 C   0  0  0  0  0  0  0  0  0  0  0  0
  -30.6033   -7.9252   -6.6390 C   0  0  0  0  0  0  0  0  0  0  0  0
  -30.0897   -8.8875   -7.5540 C   0  0  0  0  0  0  0  0  0  0  0  0
  -28.7288   -9.1950   -7.7715 C   0  0  0  0  0  0  0  0  0  0  0  0
  -28.2778   -9.8580   -8.9162 C   0  0  0  0  0  0  0  0  0  0  0  0
  -28.8095  -10.2626  -12.0990 C   0  0  0  0  0  0  0  0  0  0  0  0
  -28.8058  -11.0539  -10.9102 O   0  0  0  0  0  0  0  0  0  0  0  0
  -26.9175   -9.7893   -9.0347 O   0  0  0  0  0  0  0  0  0  0  0  0
  -26.1226  -10.9048   -8.6663 C   0  0  0  0  0  0  0  0  0  0  0  0
 33 34  1  0  0  0
 34 23  1  0  0  0
 23 24  1  0  0  0
 23 32  2  0  0  0
 24 25  2  0  0  0
 25 26  1  0  0  0
 25 30  1  0  0  0
 26 27  2  0  0  0
 27 28  1  0  0  0
 28 29  2  0  0  0
 29 22  1  0  0  0
 29 30  1  0  0  0
 22  1  1  0  0  0
  1  2  1  0  0  0
  1 10  2  0  0  0
  2  3  2  0  0  0
  3  4  1  0  0  0
  4  5  1  0  0  0
  4  9  2  0  0  0
  5 11  1  0  0  0
  5  6  2  0  0  0
 11 12  2  0  0  0
 11 13  1  0  0  0
 13 15  1  0  0  0
 13 14  1  0  0  0
 15 16  1  0  0  0
 15 21  2  0  0  0
 16 17  2  0  0  0
 17 18  1  0  0  0
 18 19  1  0  0  0
 18 20  2  0  0  0
 20 21  1  0  0  0
  6  7  1  0  0  0
  7  8  2  0  0  0
  8  9  1  0  0  0
  9 10  1  0  0  0
 30 31  2  0  0  0
 31 32  1  0  0  0
 32 35  1  0  0  0
 35 36  1  0  0  0
M  END
> <minimizedAffinity>
-10.34271

$$$$
