CHEMBL3676374


 41 43  0  0  0  0  0  0  0  0999 V2000
  -28.8519   -8.8575   -5.4237 C   0  0  0  0  0  0  0  0  0  0  0  0
  -28.2311  -10.0817   -5.6854 C   0  0  0  0  0  0  0  0  0  0  0  0
  -26.8994  -10.3253   -5.2833 C   0  0  0  0  0  0  0  0  0  0  0  0
  -26.1295  -11.4371   -5.6514 C   0  0  0  0  0  0  0  0  0  0  0  0
  -24.8663  -11.6010   -5.2114 N   0  0  0  0  0  0  0  0  0  0  0  0
  -24.3664  -10.6476   -4.4265 C   0  0  0  0  0  0  0  0  0  0  0  0
  -24.9910   -9.5277   -4.0615 N   0  0  0  0  0  0  0  0  0  0  0  0
  -26.2367   -9.3668   -4.5145 C   0  0  0  0  0  0  0  0  0  0  0  0
  -26.8692   -8.1657   -4.2511 C   0  0  0  0  0  0  0  0  0  0  0  0
  -28.1455   -7.8555   -4.7495 C   0  0  0  0  0  0  0  0  0  0  0  0
  -30.3765   -8.1518   -7.2038 C   0  0  0  0  0  0  0  0  0  0  0  0
  -29.5521   -8.1700   -8.1128 O   0  0  0  0  0  0  0  0  0  0  0  0
  -30.1535   -8.6203   -5.9237 N   0  0  0  0  0  0  0  0  0  0  0  0
  -30.9271   -8.9731   -5.3750 H   0  0  0  0  0  0  0  0  0  0  0  0
  -32.8040   -8.3039   -7.0062 C   0  0  0  0  0  0  0  0  0  0  0  0
  -31.7390   -7.5971   -7.4109 C   0  0  0  0  0  0  0  0  0  0  0  0
  -26.6317  -12.3731   -6.5940 N   0  0  0  0  0  0  0  0  0  0  0  0
  -26.0720  -13.2224   -6.6037 H   0  0  0  0  0  0  0  0  0  0  0  0
  -27.0966  -12.0095   -7.8802 C   0  0  0  0  0  0  0  0  0  0  0  0
  -28.4382  -12.2077   -8.2421 C   0  0  0  0  0  0  0  0  0  0  0  0
  -28.9314  -11.7325   -9.4572 C   0  0  0  0  0  0  0  0  0  0  0  0
  -28.0744  -11.0709  -10.3341 C   0  0  0  0  0  0  0  0  0  0  0  0
  -28.7640  -10.3443  -11.9367 Br  0  0  0  0  0  0  0  0  0  0  0  0
  -26.7240  -10.9209  -10.0273 C   0  0  0  0  0  0  0  0  0  0  0  0
  -26.2468  -11.3991   -8.8091 C   0  0  0  0  0  0  0  0  0  0  0  0
  -24.9503  -11.2296   -8.5062 F   0  0  0  0  0  0  0  0  0  0  0  0
  -28.7559   -6.6365   -4.5824 O   0  0  0  0  0  0  0  0  0  0  0  0
  -29.8698   -6.6482   -3.6750 C   0  0  0  0  0  0  0  0  0  0  0  0
  -30.7658   -5.4181   -3.8805 C   0  0  0  0  0  0  0  0  0  0  0  0
  -32.0089   -5.4870   -2.9977 C   0  0  0  0  0  0  0  0  0  0  0  0
  -30.0382   -4.1972   -3.5671 N   0  0  0  0  0  0  0  0  0  0  0  0
  -29.8463   -3.1722   -4.4577 C   0  0  0  0  0  0  0  0  0  0  0  0
  -30.3436   -3.1587   -5.5805 O   0  0  0  0  0  0  0  0  0  0  0  0
  -29.4471   -4.1881   -2.7326 H   0  0  0  0  0  0  0  0  0  0  0  0
  -28.8929   -2.0831   -3.9929 C   0  0  0  0  0  0  0  0  0  0  0  0
  -27.6984   -1.8201   -4.9217 C   0  0  0  0  0  0  0  0  0  0  0  0
  -27.6970   -0.5023   -5.6149 N   0  0  0  0  0  0  0  0  0  0  0  0
  -27.9685   -0.5949   -7.0613 C   0  0  0  0  0  0  0  0  0  0  0  0
  -27.8624   -1.9807   -7.6852 C   0  0  0  0  0  0  0  0  0  0  0  0
  -28.5934    0.4261   -4.8974 C   0  0  0  0  0  0  0  0  0  0  0  0
  -29.7741    0.9323   -5.7200 C   0  0  0  0  0  0  0  0  0  0  0  0
 15 16  2  0  0  0
 16 11  1  0  0  0
 11 12  2  0  0  0
 11 13  1  0  0  0
 13  1  1  0  0  0
 13 14  1  0  0  0
  1  2  1  0  0  0
  1 10  2  0  0  0
  2  3  2  0  0  0
  3  4  1  0  0  0
  3  8  1  0  0  0
  4 17  1  0  0  0
  4  5  2  0  0  0
 17 19  1  0  0  0
 17 18  1  0  0  0
 19 20  1  0  0  0
 19 25  2  0  0  0
 20 21  2  0  0  0
 21 22  1  0  0  0
 22 23  1  0  0  0
 22 24  2  0  0  0
 24 25  1  0  0  0
 25 26  1  0  0  0
  5  6  1  0  0  0
  6  7  2  0  0  0
  7  8  1  0  0  0
  8  9  2  0  0  0
  9 10  1  0  0  0
 10 27  1  0  0  0
 27 28  1  0  0  0
 28 29  1  0  0  0
 29 30  1  0  0  0
 29 31  1  0  0  0
 31 32  1  0  0  0
 31 34  1  0  0  0
 32 33  2  0  0  0
 32 35  1  0  0  0
 35 36  1  0  0  0
 36 37  1  0  0  0
 37 38  1  0  0  0
 37 40  1  0  0  0
 38 39  1  0  0  0
 40 41  1  0  0  0
M  END
> <minimizedAffinity>
-7.99059

$$$$
