CHEMBL214376


 35 39  0  0  0  0  0  0  0  0999 V2000
  -15.1759   -1.9078  -13.5121 C   0  0  0  0  0  0  0  0  0  0  0  0
  -16.1125   -0.8617  -13.7021 C   0  0  0  0  0  0  0  0  0  0  0  0
  -15.6954    0.4577  -13.8257 C   0  0  0  0  0  0  0  0  0  0  0  0
  -14.3538    0.7174  -13.6060 C   0  0  0  0  0  0  0  0  0  0  0  0
  -13.4064   -0.2901  -13.4602 C   0  0  0  0  0  0  0  0  0  0  0  0
  -12.1766    0.1534  -13.2357 N   0  0  0  0  0  0  0  0  0  0  0  0
  -11.2032   -0.7529  -13.2027 C   0  0  0  0  0  0  0  0  0  0  0  0
  -11.3443   -2.0282  -13.5115 N   0  0  0  0  0  0  0  0  0  0  0  0
  -12.5853   -2.4925  -13.6915 C   0  0  0  0  0  0  0  0  0  0  0  0
  -13.7600   -1.6405  -13.5769 C   0  0  0  0  0  0  0  0  0  0  0  0
  -12.6784   -3.8604  -14.0250 N   0  0  0  0  0  0  0  0  0  0  0  0
  -12.4560   -4.0551  -14.9958 H   0  0  0  0  0  0  0  0  0  0  0  0
  -12.8113   -5.0152  -13.2061 C   0  0  0  0  0  0  0  0  0  0  0  0
  -13.6240   -6.1059  -13.6182 C   0  0  0  0  0  0  0  0  0  0  0  0
  -14.3340   -6.1267  -15.2009 Cl  0  0  0  0  0  0  0  0  0  0  0  0
  -13.9331   -7.1879  -12.7632 C   0  0  0  0  0  0  0  0  0  0  0  0
  -13.4299   -7.2313  -11.4659 C   0  0  0  0  0  0  0  0  0  0  0  0
  -12.6224   -6.1891  -11.0757 C   0  0  0  0  0  0  0  0  0  0  0  0
  -12.3391   -5.1093  -11.9003 C   0  0  0  0  0  0  0  0  0  0  0  0
  -11.5984   -4.1869  -11.2187 O   0  0  0  0  0  0  0  0  0  0  0  0
  -11.1940   -4.9422  -10.0715 C   0  0  0  0  0  0  0  0  0  0  0  0
  -12.0402   -6.0815   -9.8462 O   0  0  0  0  0  0  0  0  0  0  0  0
  -15.8279   -3.0731  -13.1926 O   0  0  0  0  0  0  0  0  0  0  0  0
  -15.9362   -2.7418  -10.7003 C   0  0  0  0  0  0  0  0  0  0  0  0
  -15.7317   -3.6682  -11.9028 C   0  0  0  0  0  0  0  0  0  0  0  0
  -16.6846   -4.8580  -11.8553 C   0  0  0  0  0  0  0  0  0  0  0  0
  -16.6475    1.4085  -14.1108 O   0  0  0  0  0  0  0  0  0  0  0  0
  -16.3789    2.2074  -15.2784 C   0  0  0  0  0  0  0  0  0  0  0  0
  -17.5821    3.0721  -15.6577 C   0  0  0  0  0  0  0  0  0  0  0  0
  -18.7852    2.9306  -14.7127 C   0  0  0  0  0  0  0  0  0  0  0  0
  -19.9539    2.3429  -15.3994 N   0  0  0  0  0  0  0  0  0  0  0  0
  -21.2085    3.0287  -15.0450 C   0  0  0  0  0  0  0  0  0  0  0  0
  -21.8431    2.1781  -13.9627 C   0  0  0  0  0  0  0  0  0  0  0  0
  -21.5112    0.7742  -14.4149 C   0  0  0  0  0  0  0  0  0  0  0  0
  -20.1492    0.9155  -15.0771 C   0  0  0  0  0  0  0  0  0  0  0  0
 24 25  1  0  0  0
 25 26  1  0  0  0
 25 23  1  0  0  0
 23  1  1  0  0  0
  1  2  1  0  0  0
  1 10  2  0  0  0
  2  3  2  0  0  0
  3 27  1  0  0  0
  3  4  1  0  0  0
 27 28  1  0  0  0
 28 29  1  0  0  0
 29 30  1  0  0  0
 30 31  1  0  0  0
 31 32  1  0  0  0
 31 35  1  0  0  0
 32 33  1  0  0  0
 33 34  1  0  0  0
 34 35  1  0  0  0
  4  5  2  0  0  0
  5  6  1  0  0  0
  5 10  1  0  0  0
  6  7  2  0  0  0
  7  8  1  0  0  0
  8  9  2  0  0  0
  9 11  1  0  0  0
  9 10  1  0  0  0
 11 13  1  0  0  0
 11 12  1  0  0  0
 13 14  1  0  0  0
 13 19  2  0  0  0
 14 15  1  0  0  0
 14 16  2  0  0  0
 16 17  1  0  0  0
 17 18  2  0  0  0
 18 19  1  0  0  0
 18 22  1  0  0  0
 19 20  1  0  0  0
 20 21  1  0  0  0
 21 22  1  0  0  0
M  END
> <minimizedAffinity>
-7.67268

$$$$
