CHEMBL1940718


 21 23  0  0  0  0  0  0  0  0999 V2000
  -15.8504    2.1949  -16.2520 C   0  0  0  0  0  0  0  0  0  0  0  0
  -17.2534    2.4023  -15.7638 C   0  0  0  0  0  0  0  0  0  0  0  0
  -17.7579    3.6836  -15.5415 C   0  0  0  0  0  0  0  0  0  0  0  0
  -19.0684    3.8550  -15.0824 C   0  0  0  0  0  0  0  0  0  0  0  0
  -19.9016    2.7747  -14.8308 C   0  0  0  0  0  0  0  0  0  0  0  0
  -21.1469    2.9921  -14.3852 N   0  0  0  0  0  0  0  0  0  0  0  0
  -21.9291    1.9146  -14.1392 C   0  0  0  0  0  0  0  0  0  0  0  0
  -23.5009    2.3706  -13.5932 Cl  0  0  0  0  0  0  0  0  0  0  0  0
  -21.5460    0.5836  -14.3232 C   0  0  0  0  0  0  0  0  0  0  0  0
  -20.2377    0.3869  -14.7821 C   0  0  0  0  0  0  0  0  0  0  0  0
  -19.3966    1.4788  -15.0505 C   0  0  0  0  0  0  0  0  0  0  0  0
  -18.0814    1.3015  -15.5184 C   0  0  0  0  0  0  0  0  0  0  0  0
  -22.4299   -0.5584  -14.0161 C   0  0  0  0  0  0  0  0  0  0  0  0
  -22.8373   -0.8804  -12.7778 C   0  0  0  0  0  0  0  0  0  0  0  0
  -23.6840   -2.0870  -12.5593 C   0  0  0  0  0  0  0  0  0  0  0  0
  -23.1984   -3.2089  -12.4759 O   0  0  0  0  0  0  0  0  0  0  0  0
  -25.1234   -1.8242  -12.4495 C   0  0  0  0  0  0  0  0  0  0  0  0
  -26.1208   -1.7546  -13.4871 C   0  0  0  0  0  0  0  0  0  0  0  0
  -27.3805   -1.4635  -13.0100 C   0  0  0  0  0  0  0  0  0  0  0  0
  -27.3898   -1.2617  -11.3169 S   0  0  0  0  0  0  0  0  0  0  0  0
  -25.7109   -1.5646  -11.2206 C   0  0  0  0  0  0  0  0  0  0  0  0
  1  2  1  0  0  0
  2  3  1  0  0  0
  2 12  2  0  0  0
  3  4  2  0  0  0
  4  5  1  0  0  0
  5  6  1  0  0  0
  5 11  2  0  0  0
  6  7  2  0  0  0
  7  8  1  0  0  0
  7  9  1  0  0  0
  9 13  1  0  0  0
  9 10  2  0  0  0
 13 14  2  0  0  0
 14 15  1  0  0  0
 15 16  2  0  0  0
 15 17  1  0  0  0
 17 18  1  0  0  0
 17 21  2  0  0  0
 18 19  2  0  0  0
 19 20  1  0  0  0
 20 21  1  0  0  0
 10 11  1  0  0  0
 11 12  1  0  0  0
M  END
> <minimizedAffinity>
-8.79239

$$$$
