CHEMBL3353358


 42 48  0  0  0  0  0  0  0  0999 V2000
  -27.7087   -1.5661   -9.0244 C   0  0  0  0  0  0  0  0  0  0  0  0
  -26.4467   -0.9730   -9.2384 C   0  0  0  0  0  0  0  0  0  0  0  0
  -25.8368   -0.9042  -10.4924 C   0  0  0  0  0  0  0  0  0  0  0  0
  -26.5116   -1.4261  -11.6011 C   0  0  0  0  0  0  0  0  0  0  0  0
  -26.2239   -1.5659  -12.9901 C   0  0  0  0  0  0  0  0  0  0  0  0
  -27.2610   -2.1223  -13.6327 N   0  0  0  0  0  0  0  0  0  0  0  0
  -28.1805   -2.3413  -12.6677 N   0  0  0  0  0  0  0  0  0  0  0  0
  -27.7767   -1.9722  -11.4080 C   0  0  0  0  0  0  0  0  0  0  0  0
  -28.4033   -2.0555  -10.1471 C   0  0  0  0  0  0  0  0  0  0  0  0
  -29.0680   -2.7607  -12.9361 H   0  0  0  0  0  0  0  0  0  0  0  0
  -28.5576   -6.2836   -8.0224 C   0  0  0  0  0  0  0  0  0  0  0  0
  -29.8102   -6.6654   -7.4978 C   0  0  0  0  0  0  0  0  0  0  0  0
  -30.5681   -5.7898   -6.7244 C   0  0  0  0  0  0  0  0  0  0  0  0
  -30.0546   -4.5267   -6.5371 C   0  0  0  0  0  0  0  0  0  0  0  0
  -28.8379   -4.0876   -7.0907 C   0  0  0  0  0  0  0  0  0  0  0  0
  -28.0551   -4.9941   -7.7931 C   0  0  0  0  0  0  0  0  0  0  0  0
  -28.6608   -2.6510   -6.6990 C   0  0  0  0  0  0  0  0  0  0  0  0
  -27.3339   -1.9927   -6.5069 C   0  0  0  0  0  0  0  0  0  0  0  0
  -28.2666   -1.5173   -7.6189 C   0  0  0  0  0  0  0  0  0  0  0  0
  -29.8156   -2.3866   -5.7510 C   0  0  0  0  0  0  0  0  0  0  0  0
  -29.9894   -1.3564   -5.1224 O   0  0  0  0  0  0  0  0  0  0  0  0
  -30.6129   -3.5127   -5.7594 N   0  0  0  0  0  0  0  0  0  0  0  0
  -31.4533   -3.5876   -5.2083 H   0  0  0  0  0  0  0  0  0  0  0  0
  -28.5476   -8.5554   -8.7512 C   0  0  0  0  0  0  0  0  0  0  0  0
  -27.9465   -7.2676   -8.7514 O   0  0  0  0  0  0  0  0  0  0  0  0
  -24.9585   -1.2164  -13.6020 C   0  0  0  0  0  0  0  0  0  0  0  0
  -24.1732   -0.2108  -13.1863 C   0  0  0  0  0  0  0  0  0  0  0  0
  -22.9550    0.3483  -13.8086 C   0  0  0  0  0  0  0  0  0  0  0  0
  -22.8332    1.7393  -13.7349 C   0  0  0  0  0  0  0  0  0  0  0  0
  -21.7110    2.3992  -14.2399 C   0  0  0  0  0  0  0  0  0  0  0  0
  -21.6923    3.7356  -14.1726 F   0  0  0  0  0  0  0  0  0  0  0  0
  -20.6528    1.7152  -14.8300 C   0  0  0  0  0  0  0  0  0  0  0  0
  -20.7804    0.3241  -14.9092 C   0  0  0  0  0  0  0  0  0  0  0  0
  -19.8107   -0.3938  -15.5018 F   0  0  0  0  0  0  0  0  0  0  0  0
  -21.9105   -0.3650  -14.4094 C   0  0  0  0  0  0  0  0  0  0  0  0
  -19.5307    2.4896  -15.4725 C   0  0  0  0  0  0  0  0  0  0  0  0
  -18.2531    2.6678  -14.7834 N   0  0  0  0  0  0  0  0  0  0  0  0
  -17.1956    3.3755  -15.5011 C   0  0  0  0  0  0  0  0  0  0  0  0
  -16.2359    2.4468  -16.2525 C   0  0  0  0  0  0  0  0  0  0  0  0
  -15.6643    1.4666  -15.3775 O   0  0  0  0  0  0  0  0  0  0  0  0
  -16.6777    0.6840  -14.7320 C   0  0  0  0  0  0  0  0  0  0  0  0
  -17.7126    1.5551  -13.9983 C   0  0  0  0  0  0  0  0  0  0  0  0
 24 25  1  0  0  0
 25 11  1  0  0  0
 11 12  1  0  0  0
 11 16  2  0  0  0
 12 13  2  0  0  0
 13 14  1  0  0  0
 14 15  2  0  0  0
 14 22  1  0  0  0
 15 16  1  0  0  0
 17 15  1  0  0  0
 17 18  1  0  0  0
 17 19  1  0  0  0
 17 20  1  0  0  0
 18 19  1  0  0  0
 19  1  1  0  0  0
  1  2  1  0  0  0
  1  9  2  0  0  0
  2  3  2  0  0  0
  3  4  1  0  0  0
  4  5  1  0  0  0
  4  8  2  0  0  0
  5 26  1  0  0  0
  5  6  2  0  0  0
 26 27  2  0  0  0
 27 28  1  0  0  0
 28 29  1  0  0  0
 28 35  2  0  0  0
 29 30  2  0  0  0
 30 31  1  0  0  0
 30 32  1  0  0  0
 32 36  1  0  0  0
 32 33  2  0  0  0
 36 37  1  0  0  0
 37 38  1  0  0  0
 37 42  1  0  0  0
 38 39  1  0  0  0
 39 40  1  0  0  0
 40 41  1  0  0  0
 41 42  1  0  0  0
 33 34  1  0  0  0
 33 35  1  0  0  0
  6  7  1  0  0  0
  7  8  1  0  0  0
  7 10  1  0  0  0
  8  9  1  0  0  0
 20 21  2  0  0  0
 20 22  1  0  0  0
 22 23  1  0  0  0
M  END
> <minimizedAffinity>
-10.36756

$$$$
