CHEMBL2180878


 30 33  0  0  0  0  0  0  0  0999 V2000
  -30.8931   -8.4556   -7.1461 C   0  0  0  0  0  0  0  0  0  0  0  0
  -30.0585   -9.4852   -7.3544 C   0  0  0  0  0  0  0  0  0  0  0  0
  -30.8611  -10.5830   -7.9354 C   0  0  0  0  0  0  0  0  0  0  0  0
  -30.4529  -11.6732   -8.2897 O   0  0  0  0  0  0  0  0  0  0  0  0
  -32.1363  -10.1431   -8.0139 N   0  0  0  0  0  0  0  0  0  0  0  0
  -32.2445   -8.8775   -7.5549 C   0  0  0  0  0  0  0  0  0  0  0  0
  -33.2566   -8.2107   -7.4860 O   0  0  0  0  0  0  0  0  0  0  0  0
  -32.9044  -10.6904   -8.3647 H   0  0  0  0  0  0  0  0  0  0  0  0
  -28.6709   -9.5648   -7.0812 C   0  0  0  0  0  0  0  0  0  0  0  0
  -27.6927   -9.5929   -8.0566 C   0  0  0  0  0  0  0  0  0  0  0  0
  -26.4792   -9.6966   -7.4241 N   0  0  0  0  0  0  0  0  0  0  0  0
  -26.6641   -9.7565   -6.0705 C   0  0  0  0  0  0  0  0  0  0  0  0
  -25.6644   -9.8707   -5.1773 N   0  0  0  0  0  0  0  0  0  0  0  0
  -26.1055   -9.9296   -3.9008 C   0  0  0  0  0  0  0  0  0  0  0  0
  -27.4352   -9.8874   -3.5007 C   0  0  0  0  0  0  0  0  0  0  0  0
  -28.4328   -9.7619   -4.4697 C   0  0  0  0  0  0  0  0  0  0  0  0
  -28.0308   -9.6887   -5.8151 C   0  0  0  0  0  0  0  0  0  0  0  0
  -25.5709   -9.7369   -7.8628 H   0  0  0  0  0  0  0  0  0  0  0  0
  -30.4746   -5.6002   -4.7421 C   0  0  0  0  0  0  0  0  0  0  0  0
  -30.6966   -6.8828   -5.2572 C   0  0  0  0  0  0  0  0  0  0  0  0
  -30.5240   -7.1502   -6.6196 C   0  0  0  0  0  0  0  0  0  0  0  0
  -30.1317   -6.1275   -7.4823 C   0  0  0  0  0  0  0  0  0  0  0  0
  -29.9186   -4.8364   -6.9893 C   0  0  0  0  0  0  0  0  0  0  0  0
  -30.0437   -4.5755   -5.6077 C   0  0  0  0  0  0  0  0  0  0  0  0
  -32.1352   -5.0295   -3.1202 C   0  0  0  0  0  0  0  0  0  0  0  0
  -30.7729   -5.2704   -3.4447 O   0  0  0  0  0  0  0  0  0  0  0  0
  -29.5642   -3.7889   -7.8087 O   0  0  0  0  0  0  0  0  0  0  0  0
  -28.2057   -3.7890   -8.2427 C   0  0  0  0  0  0  0  0  0  0  0  0
  -29.7763   -3.2759   -5.2291 O   0  0  0  0  0  0  0  0  0  0  0  0
  -28.5211   -3.0348   -4.6040 C   0  0  0  0  0  0  0  0  0  0  0  0
 25 26  1  0  0  0
 26 19  1  0  0  0
 19 20  1  0  0  0
 19 24  2  0  0  0
 20 21  2  0  0  0
 21  1  1  0  0  0
 21 22  1  0  0  0
  1  2  2  0  0  0
  1  6  1  0  0  0
  2  9  1  0  0  0
  2  3  1  0  0  0
  9 10  2  0  0  0
  9 17  1  0  0  0
 10 11  1  0  0  0
 11 12  1  0  0  0
 11 18  1  0  0  0
 12 13  1  0  0  0
 12 17  2  0  0  0
 13 14  2  0  0  0
 14 15  1  0  0  0
 15 16  2  0  0  0
 16 17  1  0  0  0
  3  4  2  0  0  0
  3  5  1  0  0  0
  5  6  1  0  0  0
  5  8  1  0  0  0
  6  7  2  0  0  0
 22 23  2  0  0  0
 23 27  1  0  0  0
 23 24  1  0  0  0
 27 28  1  0  0  0
 24 29  1  0  0  0
 29 30  1  0  0  0
M  END
> <minimizedAffinity>
-7.36585

$$$$
