CHEMBL610181


 26 28  0  0  0  0  0  0  0  0999 V2000
  -14.8059    0.1826  -13.5300 C   0  0  0  0  0  0  0  0  0  0  0  0
  -13.6878    0.9582  -13.3320 C   0  0  0  0  0  0  0  0  0  0  0  0
  -12.6189    0.1719  -13.0321 O   0  0  0  0  0  0  0  0  0  0  0  0
  -13.0505   -1.1222  -13.0532 C   0  0  0  0  0  0  0  0  0  0  0  0
  -12.2673   -2.1576  -12.7285 N   0  0  0  0  0  0  0  0  0  0  0  0
  -12.9232   -3.3167  -12.7767 C   0  0  0  0  0  0  0  0  0  0  0  0
  -12.2432   -4.4414  -12.3581 N   0  0  0  0  0  0  0  0  0  0  0  0
  -14.1829   -3.5087  -13.2030 N   0  0  0  0  0  0  0  0  0  0  0  0
  -14.9340   -2.4446  -13.5560 C   0  0  0  0  0  0  0  0  0  0  0  0
  -16.2117   -2.6927  -14.0303 N   0  0  0  0  0  0  0  0  0  0  0  0
  -14.3859   -1.1687  -13.4284 C   0  0  0  0  0  0  0  0  0  0  0  0
  -11.2453   -4.3090  -12.4496 H   0  0  0  0  0  0  0  0  0  0  0  0
  -12.6509   -5.2696  -12.7657 H   0  0  0  0  0  0  0  0  0  0  0  0
  -16.5509   -3.6088  -13.7687 H   0  0  0  0  0  0  0  0  0  0  0  0
  -16.8703   -1.9223  -13.9843 H   0  0  0  0  0  0  0  0  0  0  0  0
  -16.6409    1.0746  -14.8968 C   0  0  0  0  0  0  0  0  0  0  0  0
  -15.8368    0.8614  -16.1659 C   0  0  0  0  0  0  0  0  0  0  0  0
  -16.1340    0.6732  -13.7016 C   0  0  0  0  0  0  0  0  0  0  0  0
  -18.2951    3.0499  -14.9865 C   0  0  0  0  0  0  0  0  0  0  0  0
  -19.6239    3.5088  -15.0230 C   0  0  0  0  0  0  0  0  0  0  0  0
  -20.6880    2.6160  -15.1351 C   0  0  0  0  0  0  0  0  0  0  0  0
  -20.4363    1.2562  -15.2179 C   0  0  0  0  0  0  0  0  0  0  0  0
  -19.1229    0.7849  -15.1374 C   0  0  0  0  0  0  0  0  0  0  0  0
  -18.0210    1.6569  -15.0055 C   0  0  0  0  0  0  0  0  0  0  0  0
  -16.6756    4.2347  -16.2862 C   0  0  0  0  0  0  0  0  0  0  0  0
  -17.2218    3.9119  -15.0104 O   0  0  0  0  0  0  0  0  0  0  0  0
 25 26  1  0  0  0
 26 19  1  0  0  0
 19 20  1  0  0  0
 19 24  2  0  0  0
 20 21  2  0  0  0
 21 22  1  0  0  0
 22 23  2  0  0  0
 23 24  1  0  0  0
 24 16  1  0  0  0
 16 17  1  0  0  0
 16 18  2  0  0  0
 18  1  1  0  0  0
  1  2  2  0  0  0
  1 11  1  0  0  0
  2  3  1  0  0  0
  3  4  1  0  0  0
  4  5  1  0  0  0
  4 11  2  0  0  0
  5  6  2  0  0  0
  6  7  1  0  0  0
  6  8  1  0  0  0
  7 12  1  0  0  0
  7 13  1  0  0  0
  8  9  2  0  0  0
  9 10  1  0  0  0
  9 11  1  0  0  0
 10 14  1  0  0  0
 10 15  1  0  0  0
M  END
> <minimizedAffinity>
-7.02861

$$$$
