CHEMBL1988075


 38 42  0  0  0  0  0  0  0  0999 V2000
  -22.4626    1.1911  -13.9951 C   0  0  0  0  0  0  0  0  0  0  0  0
  -22.5536    2.5570  -13.7558 C   0  0  0  0  0  0  0  0  0  0  0  0
  -21.5900    3.4624  -13.9822 N   0  0  0  0  0  0  0  0  0  0  0  0
  -20.3943    3.0684  -14.4527 C   0  0  0  0  0  0  0  0  0  0  0  0
  -19.5196    4.1216  -14.6691 N   0  0  0  0  0  0  0  0  0  0  0  0
  -20.1253    1.6893  -14.6952 C   0  0  0  0  0  0  0  0  0  0  0  0
  -18.9014    0.9789  -15.1154 C   0  0  0  0  0  0  0  0  0  0  0  0
  -19.1170   -0.3777  -15.2294 C   0  0  0  0  0  0  0  0  0  0  0  0
  -20.7298   -0.8100  -15.0011 S   0  0  0  0  0  0  0  0  0  0  0  0
  -21.1939    0.7847  -14.4988 C   0  0  0  0  0  0  0  0  0  0  0  0
  -20.0188    5.0016  -14.6014 H   0  0  0  0  0  0  0  0  0  0  0  0
  -18.9167    4.0171  -15.4736 H   0  0  0  0  0  0  0  0  0  0  0  0
  -26.8875   -2.3133  -12.8376 C   0  0  0  0  0  0  0  0  0  0  0  0
  -25.7547   -1.3989  -13.1900 C   0  0  0  0  0  0  0  0  0  0  0  0
  -25.2499   -1.3556  -14.4787 C   0  0  0  0  0  0  0  0  0  0  0  0
  -24.1582   -0.5264  -14.7432 C   0  0  0  0  0  0  0  0  0  0  0  0
  -23.6046    0.2879  -13.7495 C   0  0  0  0  0  0  0  0  0  0  0  0
  -24.1897    0.1571  -12.4871 C   0  0  0  0  0  0  0  0  0  0  0  0
  -25.2292   -0.6606  -12.1871 N   0  0  0  0  0  0  0  0  0  0  0  0
  -17.5518    1.4998  -15.3760 C   0  0  0  0  0  0  0  0  0  0  0  0
  -16.4455    0.9460  -14.7401 C   0  0  0  0  0  0  0  0  0  0  0  0
  -15.1827    1.5186  -14.8770 C   0  0  0  0  0  0  0  0  0  0  0  0
  -14.9620    2.5761  -15.7600 C   0  0  0  0  0  0  0  0  0  0  0  0
  -16.0473    3.0971  -16.4629 C   0  0  0  0  0  0  0  0  0  0  0  0
  -17.3326    2.5695  -16.2632 C   0  0  0  0  0  0  0  0  0  0  0  0
  -13.6817    3.1371  -15.9528 N   0  0  0  0  0  0  0  0  0  0  0  0
  -13.3821    4.4669  -15.7170 C   0  0  0  0  0  0  0  0  0  0  0  0
  -14.1390    5.2701  -15.1826 O   0  0  0  0  0  0  0  0  0  0  0  0
  -12.1232    4.8043  -16.1856 N   0  0  0  0  0  0  0  0  0  0  0  0
  -12.8939    2.5068  -15.9985 H   0  0  0  0  0  0  0  0  0  0  0  0
  -11.8513    4.3296  -17.0354 H   0  0  0  0  0  0  0  0  0  0  0  0
  -11.6016    6.1037  -15.9819 C   0  0  0  0  0  0  0  0  0  0  0  0
  -11.1538    6.5201  -14.7178 C   0  0  0  0  0  0  0  0  0  0  0  0
  -10.7051    7.8250  -14.5156 C   0  0  0  0  0  0  0  0  0  0  0  0
  -10.7065    8.7231  -15.5776 C   0  0  0  0  0  0  0  0  0  0  0  0
  -11.1373    8.3003  -16.8311 C   0  0  0  0  0  0  0  0  0  0  0  0
  -11.1651    9.1764  -17.8443 F   0  0  0  0  0  0  0  0  0  0  0  0
  -11.5628    6.9885  -17.0501 C   0  0  0  0  0  0  0  0  0  0  0  0
 13 14  1  0  0  0
 14 15  1  0  0  0
 14 19  2  0  0  0
 15 16  2  0  0  0
 16 17  1  0  0  0
 17  1  1  0  0  0
 17 18  2  0  0  0
  1  2  1  0  0  0
  1 10  2  0  0  0
  2  3  2  0  0  0
  3  4  1  0  0  0
  4  5  1  0  0  0
  4  6  2  0  0  0
  5 11  1  0  0  0
  5 12  1  0  0  0
  6  7  1  0  0  0
  6 10  1  0  0  0
  7 20  1  0  0  0
  7  8  2  0  0  0
 20 21  1  0  0  0
 20 25  2  0  0  0
 21 22  2  0  0  0
 22 23  1  0  0  0
 23 26  1  0  0  0
 23 24  2  0  0  0
 26 27  1  0  0  0
 26 30  1  0  0  0
 27 28  2  0  0  0
 27 29  1  0  0  0
 29 32  1  0  0  0
 29 31  1  0  0  0
 32 33  1  0  0  0
 32 38  2  0  0  0
 33 34  2  0  0  0
 34 35  1  0  0  0
 35 36  2  0  0  0
 36 37  1  0  0  0
 36 38  1  0  0  0
 24 25  1  0  0  0
  8  9  1  0  0  0
  9 10  1  0  0  0
 18 19  1  0  0  0
M  END
> <minimizedAffinity>
-7.52776

$$$$
