CHEMBL396219


 32 34  0  0  0  0  0  0  0  0999 V2000
  -14.7449   -7.0766  -12.8559 C   0  0  0  0  0  0  0  0  0  0  0  0
  -14.8669   -6.4217  -11.6118 C   0  0  0  0  0  0  0  0  0  0  0  0
  -15.1336   -5.0625  -11.4989 C   0  0  0  0  0  0  0  0  0  0  0  0
  -15.2388   -4.5218  -10.2785 N   0  0  0  0  0  0  0  0  0  0  0  0
  -15.4875   -3.2103  -10.2180 C   0  0  0  0  0  0  0  0  0  0  0  0
  -15.6454   -2.3915  -11.2616 N   0  0  0  0  0  0  0  0  0  0  0  0
  -15.5640   -2.9468  -12.4870 C   0  0  0  0  0  0  0  0  0  0  0  0
  -15.2795   -4.3100  -12.6672 C   0  0  0  0  0  0  0  0  0  0  0  0
  -15.1543   -4.9526  -13.9209 C   0  0  0  0  0  0  0  0  0  0  0  0
  -14.9567   -6.3329  -14.0230 C   0  0  0  0  0  0  0  0  0  0  0  0
  -15.8040   -2.1203  -13.6243 N   0  0  0  0  0  0  0  0  0  0  0  0
  -16.8090   -1.9822  -13.7217 H   0  0  0  0  0  0  0  0  0  0  0  0
  -15.1137   -0.9088  -13.8789 C   0  0  0  0  0  0  0  0  0  0  0  0
  -13.7336   -0.8107  -13.6665 C   0  0  0  0  0  0  0  0  0  0  0  0
  -13.0836    0.4128  -13.8242 C   0  0  0  0  0  0  0  0  0  0  0  0
  -11.7485    0.5011  -13.5409 O   0  0  0  0  0  0  0  0  0  0  0  0
  -13.7939    1.5421  -14.2438 C   0  0  0  0  0  0  0  0  0  0  0  0
  -13.0247    3.0783  -14.4004 Cl  0  0  0  0  0  0  0  0  0  0  0  0
  -15.1578    1.4458  -14.5138 C   0  0  0  0  0  0  0  0  0  0  0  0
  -15.8018    0.2257  -14.3314 C   0  0  0  0  0  0  0  0  0  0  0  0
  -17.1230    0.1466  -14.5579 F   0  0  0  0  0  0  0  0  0  0  0  0
  -11.4810   -0.2944  -13.0499 H   0  0  0  0  0  0  0  0  0  0  0  0
  -14.4246   -8.4070  -12.7180 O   0  0  0  0  0  0  0  0  0  0  0  0
  -13.2241   -8.7270  -12.0269 C   0  0  0  0  0  0  0  0  0  0  0  0
  -12.5102   -9.9384  -12.6143 C   0  0  0  0  0  0  0  0  0  0  0  0
  -10.8595   -8.9191  -11.2404 C   0  0  0  0  0  0  0  0  0  0  0  0
  -11.3277  -10.1180  -11.8281 O   0  0  0  0  0  0  0  0  0  0  0  0
  -14.9474   -6.7747  -15.3133 O   0  0  0  0  0  0  0  0  0  0  0  0
  -13.8766   -6.2901  -16.1304 C   0  0  0  0  0  0  0  0  0  0  0  0
  -12.8834   -7.3602  -16.5563 C   0  0  0  0  0  0  0  0  0  0  0  0
  -12.2074   -7.9003  -15.4224 O   0  0  0  0  0  0  0  0  0  0  0  0
  -11.4060   -6.9118  -14.7890 C   0  0  0  0  0  0  0  0  0  0  0  0
 26 27  1  0  0  0
 27 25  1  0  0  0
 25 24  1  0  0  0
 24 23  1  0  0  0
 23  1  1  0  0  0
  1  2  1  0  0  0
  1 10  2  0  0  0
  2  3  2  0  0  0
  3  4  1  0  0  0
  3  8  1  0  0  0
  4  5  2  0  0  0
  5  6  1  0  0  0
  6  7  2  0  0  0
  7 11  1  0  0  0
  7  8  1  0  0  0
 11 13  1  0  0  0
 11 12  1  0  0  0
 13 14  1  0  0  0
 13 20  2  0  0  0
 14 15  2  0  0  0
 15 16  1  0  0  0
 15 17  1  0  0  0
 16 22  1  0  0  0
 17 18  1  0  0  0
 17 19  2  0  0  0
 19 20  1  0  0  0
 20 21  1  0  0  0
  8  9  2  0  0  0
  9 10  1  0  0  0
 10 28  1  0  0  0
 28 29  1  0  0  0
 29 30  1  0  0  0
 30 31  1  0  0  0
 31 32  1  0  0  0
M  END
> <minimizedAffinity>
-6.56377

$$$$
