CHEMBL400858


 31 36  0  0  0  0  0  0  0  0999 V2000
  -18.4142    2.3159  -14.7657 C   0  0  0  0  0  0  0  0  0  0  0  0
  -18.2929    3.5834  -15.1773 N   0  0  0  0  0  0  0  0  0  0  0  0
  -19.5735    4.0109  -15.2462 N   0  0  0  0  0  0  0  0  0  0  0  0
  -20.4773    3.1227  -14.7824 C   0  0  0  0  0  0  0  0  0  0  0  0
  -21.8016    3.3054  -14.6492 N   0  0  0  0  0  0  0  0  0  0  0  0
  -22.4227    2.2423  -14.0930 C   0  0  0  0  0  0  0  0  0  0  0  0
  -21.8385    1.0294  -13.7107 C   0  0  0  0  0  0  0  0  0  0  0  0
  -20.4607    0.8970  -13.9567 C   0  0  0  0  0  0  0  0  0  0  0  0
  -19.7592    1.9748  -14.4646 C   0  0  0  0  0  0  0  0  0  0  0  0
  -19.7797    4.9369  -15.5915 H   0  0  0  0  0  0  0  0  0  0  0  0
  -15.7766   -1.7102  -11.9560 C   0  0  0  0  0  0  0  0  0  0  0  0
  -15.2012   -1.0924  -13.1954 C   0  0  0  0  0  0  0  0  0  0  0  0
  -13.9783   -1.5521  -13.7237 C   0  0  0  0  0  0  0  0  0  0  0  0
  -13.4345   -1.0118  -14.8930 C   0  0  0  0  0  0  0  0  0  0  0  0
  -14.0959   -0.0086  -15.6052 C   0  0  0  0  0  0  0  0  0  0  0  0
  -15.3137    0.4232  -15.0836 C   0  0  0  0  0  0  0  0  0  0  0  0
  -16.2357    1.3337  -15.5284 N   0  0  0  0  0  0  0  0  0  0  0  0
  -17.2461    1.4098  -14.6102 C   0  0  0  0  0  0  0  0  0  0  0  0
  -17.0281    0.5963  -13.5946 N   0  0  0  0  0  0  0  0  0  0  0  0
  -15.8569   -0.0601  -13.8968 C   0  0  0  0  0  0  0  0  0  0  0  0
  -16.1849    1.8957  -16.3670 H   0  0  0  0  0  0  0  0  0  0  0  0
  -22.6408   -0.0627  -13.1294 C   0  0  0  0  0  0  0  0  0  0  0  0
  -22.3104   -0.5705  -11.8651 C   0  0  0  0  0  0  0  0  0  0  0  0
  -23.0174   -1.5056  -11.1965 N   0  0  0  0  0  0  0  0  0  0  0  0
  -24.1257   -1.9584  -11.8125 C   0  0  0  0  0  0  0  0  0  0  0  0
  -24.5639   -1.5549  -13.0800 C   0  0  0  0  0  0  0  0  0  0  0  0
  -25.7258   -2.0629  -13.6688 C   0  0  0  0  0  0  0  0  0  0  0  0
  -26.1342   -1.6501  -14.9384 C   0  0  0  0  0  0  0  0  0  0  0  0
  -25.3677   -0.7366  -15.6415 C   0  0  0  0  0  0  0  0  0  0  0  0
  -24.2141   -0.2568  -15.0713 C   0  0  0  0  0  0  0  0  0  0  0  0
  -23.7808   -0.6019  -13.7659 C   0  0  0  0  0  0  0  0  0  0  0  0
 11 12  1  0  0  0
 12 13  1  0  0  0
 12 20  2  0  0  0
 13 14  2  0  0  0
 14 15  1  0  0  0
 15 16  2  0  0  0
 16 17  1  0  0  0
 16 20  1  0  0  0
 17 18  1  0  0  0
 17 21  1  0  0  0
 18  1  1  0  0  0
 18 19  2  0  0  0
  1  2  2  0  0  0
  1  9  1  0  0  0
  2  3  1  0  0  0
  3  4  1  0  0  0
  3 10  1  0  0  0
  4  5  1  0  0  0
  4  9  2  0  0  0
  5  6  2  0  0  0
  6  7  1  0  0  0
  7 22  1  0  0  0
  7  8  2  0  0  0
 22 23  1  0  0  0
 22 31  2  0  0  0
 23 24  2  0  0  0
 24 25  1  0  0  0
 25 26  2  0  0  0
 26 27  1  0  0  0
 26 31  1  0  0  0
 27 28  2  0  0  0
 28 29  1  0  0  0
 29 30  2  0  0  0
 30 31  1  0  0  0
  8  9  1  0  0  0
 19 20  1  0  0  0
M  END
> <minimizedAffinity>
-9.54199

$$$$
