CHEMBL171616


 20 23  0  0  0  0  0  0  0  0999 V2000
  -29.1420   -3.4648   -5.7711 C   0  0  0  0  0  0  0  0  0  0  0  0
  -29.8566   -3.9230   -6.9614 C   0  0  0  0  0  0  0  0  0  0  0  0
  -30.1360   -5.2282   -7.1079 C   0  0  0  0  0  0  0  0  0  0  0  0
  -29.7345   -6.1343   -6.1259 N   0  0  0  0  0  0  0  0  0  0  0  0
  -29.9521   -7.4941   -6.0008 C   0  0  0  0  0  0  0  0  0  0  0  0
  -29.4280   -7.8294   -4.7683 C   0  0  0  0  0  0  0  0  0  0  0  0
  -28.8611   -6.7459   -4.1504 N   0  0  0  0  0  0  0  0  0  0  0  0
  -29.0637   -5.7356   -4.9686 C   0  0  0  0  0  0  0  0  0  0  0  0
  -28.7585   -4.3503   -4.8242 C   0  0  0  0  0  0  0  0  0  0  0  0
  -28.3200    0.6605   -5.0489 C   0  0  0  0  0  0  0  0  0  0  0  0
  -29.6192    0.2519   -5.3497 C   0  0  0  0  0  0  0  0  0  0  0  0
  -29.8908   -1.0953   -5.5950 C   0  0  0  0  0  0  0  0  0  0  0  0
  -28.8606   -2.0383   -5.5428 C   0  0  0  0  0  0  0  0  0  0  0  0
  -27.5569   -1.6236   -5.2378 C   0  0  0  0  0  0  0  0  0  0  0  0
  -27.2888   -0.2760   -4.9934 C   0  0  0  0  0  0  0  0  0  0  0  0
  -30.6281   -8.4199   -6.9531 C   0  0  0  0  0  0  0  0  0  0  0  0
  -32.0174   -8.4636   -7.2753 C   0  0  0  0  0  0  0  0  0  0  0  0
  -32.4165   -9.4003   -8.1314 N   0  0  0  0  0  0  0  0  0  0  0  0
  -31.0871  -10.2701   -8.6077 S   0  0  0  0  0  0  0  0  0  0  0  0
  -29.9545   -9.3845   -7.6763 C   0  0  0  0  0  0  0  0  0  0  0  0
 10 11  1  0  0  0
 10 15  2  0  0  0
 11 12  2  0  0  0
 12 13  1  0  0  0
 13  1  1  0  0  0
 13 14  2  0  0  0
  1  2  1  0  0  0
  1  9  2  0  0  0
  2  3  2  0  0  0
  3  4  1  0  0  0
  4  5  1  0  0  0
  4  8  1  0  0  0
  5 16  1  0  0  0
  5  6  2  0  0  0
 16 17  1  0  0  0
 16 20  2  0  0  0
 17 18  2  0  0  0
 18 19  1  0  0  0
 19 20  1  0  0  0
  6  7  1  0  0  0
  7  8  2  0  0  0
  8  9  1  0  0  0
 14 15  1  0  0  0
M  END
> <minimizedAffinity>
-7.94797

$$$$
