CHEMBL69544


 33 37  0  0  0  0  0  0  0  0999 V2000
  -15.6300    0.5373  -14.4715 C   0  0  0  0  0  0  0  0  0  0  0  0
  -16.4184    1.6404  -14.8534 C   0  0  0  0  0  0  0  0  0  0  0  0
  -15.5247    2.6635  -15.3459 C   0  0  0  0  0  0  0  0  0  0  0  0
  -15.6221    3.9618  -15.8919 C   0  0  0  0  0  0  0  0  0  0  0  0
  -16.7996    4.6746  -16.0823 N   0  0  0  0  0  0  0  0  0  0  0  0
  -14.5002    4.6122  -16.2609 N   0  0  0  0  0  0  0  0  0  0  0  0
  -13.3207    3.9997  -16.0837 C   0  0  0  0  0  0  0  0  0  0  0  0
  -13.0961    2.7916  -15.5569 N   0  0  0  0  0  0  0  0  0  0  0  0
  -14.2365    2.1641  -15.2083 C   0  0  0  0  0  0  0  0  0  0  0  0
  -14.3002    0.9063  -14.6515 N   0  0  0  0  0  0  0  0  0  0  0  0
  -17.4967    4.5109  -15.3683 H   0  0  0  0  0  0  0  0  0  0  0  0
  -16.5876    5.6460  -16.2776 H   0  0  0  0  0  0  0  0  0  0  0  0
  -17.8847    1.6532  -14.7647 C   0  0  0  0  0  0  0  0  0  0  0  0
  -18.6401    0.5786  -15.2457 C   0  0  0  0  0  0  0  0  0  0  0  0
  -20.0313    0.5885  -15.1990 C   0  0  0  0  0  0  0  0  0  0  0  0
  -20.6962    1.5848  -14.4920 C   0  0  0  0  0  0  0  0  0  0  0  0
  -19.9684    2.6717  -14.0124 C   0  0  0  0  0  0  0  0  0  0  0  0
  -18.5786    2.7266  -14.1943 C   0  0  0  0  0  0  0  0  0  0  0  0
  -22.0513    1.5840  -14.2467 O   0  0  0  0  0  0  0  0  0  0  0  0
  -22.6328    0.4789  -13.6598 C   0  0  0  0  0  0  0  0  0  0  0  0
  -22.3136    0.0037  -12.3821 C   0  0  0  0  0  0  0  0  0  0  0  0
  -22.8901   -1.1735  -11.9057 C   0  0  0  0  0  0  0  0  0  0  0  0
  -23.8481   -1.8355  -12.6708 C   0  0  0  0  0  0  0  0  0  0  0  0
  -24.2309   -1.3187  -13.9091 C   0  0  0  0  0  0  0  0  0  0  0  0
  -23.6219   -0.1639  -14.4044 C   0  0  0  0  0  0  0  0  0  0  0  0
  -13.1408    0.0952  -14.3436 C   0  0  0  0  0  0  0  0  0  0  0  0
  -12.1213    0.6770  -13.3567 C   0  0  0  0  0  0  0  0  0  0  0  0
  -10.9051   -0.2394  -13.5118 C   0  0  0  0  0  0  0  0  0  0  0  0
  -11.0655   -0.9601  -14.8552 C   0  0  0  0  0  0  0  0  0  0  0  0
  -12.2815   -0.3326  -15.5274 C   0  0  0  0  0  0  0  0  0  0  0  0
  -16.0296   -0.8134  -13.9485 C   0  0  0  0  0  0  0  0  0  0  0  0
  -15.5499   -2.0522  -12.0164 C   0  0  0  0  0  0  0  0  0  0  0  0
  -15.8733   -0.7726  -12.5384 O   0  0  0  0  0  0  0  0  0  0  0  0
 32 33  1  0  0  0
 33 31  1  0  0  0
 31  1  1  0  0  0
  1  2  2  0  0  0
  1 10  1  0  0  0
  2 13  1  0  0  0
  2  3  1  0  0  0
 13 14  1  0  0  0
 13 18  2  0  0  0
 14 15  2  0  0  0
 15 16  1  0  0  0
 16 19  1  0  0  0
 16 17  2  0  0  0
 19 20  1  0  0  0
 20 21  1  0  0  0
 20 25  2  0  0  0
 21 22  2  0  0  0
 22 23  1  0  0  0
 23 24  2  0  0  0
 24 25  1  0  0  0
 17 18  1  0  0  0
  3  4  1  0  0  0
  3  9  2  0  0  0
  4  5  1  0  0  0
  4  6  2  0  0  0
  5 11  1  0  0  0
  5 12  1  0  0  0
  6  7  1  0  0  0
  7  8  2  0  0  0
  8  9  1  0  0  0
  9 10  1  0  0  0
 10 26  1  0  0  0
 26 27  1  0  0  0
 26 30  1  0  0  0
 27 28  1  0  0  0
 28 29  1  0  0  0
 29 30  1  0  0  0
M  END
> <minimizedAffinity>
-8.80770

$$$$
