CHEMBL176553


 23 25  0  0  0  0  0  0  0  0999 V2000
  -19.0606    2.4736  -15.6934 N   0  0  0  0  0  0  0  0  0  0  0  0
  -19.0223    3.1089  -16.4775 H   0  0  0  0  0  0  0  0  0  0  0  0
  -16.4073    0.8731  -13.5926 C   0  0  0  0  0  0  0  0  0  0  0  0
  -17.6488    1.3310  -14.0224 C   0  0  0  0  0  0  0  0  0  0  0  0
  -17.8288    1.9220  -15.2840 C   0  0  0  0  0  0  0  0  0  0  0  0
  -16.7207    1.9921  -16.1425 C   0  0  0  0  0  0  0  0  0  0  0  0
  -15.4663    1.5310  -15.7288 C   0  0  0  0  0  0  0  0  0  0  0  0
  -15.3200    0.9761  -14.4537 C   0  0  0  0  0  0  0  0  0  0  0  0
  -15.6607   -1.0076  -12.3430 C   0  0  0  0  0  0  0  0  0  0  0  0
  -16.1488    0.3326  -12.3611 O   0  0  0  0  0  0  0  0  0  0  0  0
  -14.3087    1.5878  -16.4573 O   0  0  0  0  0  0  0  0  0  0  0  0
  -13.9814    0.4546  -17.2496 C   0  0  0  0  0  0  0  0  0  0  0  0
  -20.2081    2.4468  -14.9929 C   0  0  0  0  0  0  0  0  0  0  0  0
  -20.9642    3.4306  -14.5482 N   0  0  0  0  0  0  0  0  0  0  0  0
  -22.0142    2.8144  -13.9450 C   0  0  0  0  0  0  0  0  0  0  0  0
  -21.8743    1.4492  -14.0368 C   0  0  0  0  0  0  0  0  0  0  0  0
  -20.7046    1.2040  -14.7085 O   0  0  0  0  0  0  0  0  0  0  0  0
  -22.6563    0.3149  -13.5824 C   0  0  0  0  0  0  0  0  0  0  0  0
  -22.3840   -0.2618  -12.3312 C   0  0  0  0  0  0  0  0  0  0  0  0
  -23.0992   -1.3721  -11.8854 C   0  0  0  0  0  0  0  0  0  0  0  0
  -24.0991   -1.9196  -12.6825 C   0  0  0  0  0  0  0  0  0  0  0  0
  -24.3892   -1.3518  -13.9230 C   0  0  0  0  0  0  0  0  0  0  0  0
  -23.6733   -0.2388  -14.3692 C   0  0  0  0  0  0  0  0  0  0  0  0
  9 10  1  0  0  0
 10  3  1  0  0  0
  3  4  1  0  0  0
  3  8  2  0  0  0
  4  5  2  0  0  0
  5  1  1  0  0  0
  5  6  1  0  0  0
  1 13  1  0  0  0
  1  2  1  0  0  0
 13 14  2  0  0  0
 13 17  1  0  0  0
 14 15  1  0  0  0
 15 16  2  0  0  0
 16 18  1  0  0  0
 16 17  1  0  0  0
 18 19  1  0  0  0
 18 23  2  0  0  0
 19 20  2  0  0  0
 20 21  1  0  0  0
 21 22  2  0  0  0
 22 23  1  0  0  0
  6  7  2  0  0  0
  7 11  1  0  0  0
  7  8  1  0  0  0
 11 12  1  0  0  0
M  END
> <minimizedAffinity>
-8.22453

$$$$
