CHEMBL4448424


 34 37  0  0  0  0  0  0  0  0999 V2000
  -25.7019   -1.3849  -10.4090 N   0  0  0  0  0  0  0  0  0  0  0  0
  -27.0718   -1.5960  -10.4199 C   0  0  0  0  0  0  0  0  0  0  0  0
  -27.7927   -1.6147  -11.4138 O   0  0  0  0  0  0  0  0  0  0  0  0
  -25.1865   -1.4583   -9.5434 H   0  0  0  0  0  0  0  0  0  0  0  0
  -27.7173   -1.8540   -9.1046 C   0  0  0  0  0  0  0  0  0  0  0  0
  -28.3400   -3.0655   -8.7763 C   0  0  0  0  0  0  0  0  0  0  0  0
  -28.8766   -3.2504   -7.4946 C   0  0  0  0  0  0  0  0  0  0  0  0
  -28.7892   -2.2279   -6.5496 C   0  0  0  0  0  0  0  0  0  0  0  0
  -28.1698   -1.0239   -6.8731 C   0  0  0  0  0  0  0  0  0  0  0  0
  -27.6311   -0.8386   -8.1425 C   0  0  0  0  0  0  0  0  0  0  0  0
  -29.2684   -2.4063   -5.2274 N   0  0  0  0  0  0  0  0  0  0  0  0
  -30.2730   -2.4517   -5.0672 H   0  0  0  0  0  0  0  0  0  0  0  0
  -28.4086   -3.4306   -4.1914 S   0  0  0  0  0  0  0  0  0  0  0  0
  -27.0246   -3.3580   -4.6091 O   0  0  0  0  0  0  0  0  0  0  0  0
  -28.7944   -3.1344   -2.8280 O   0  0  0  0  0  0  0  0  0  0  0  0
  -29.0115   -5.0407   -4.6311 C   0  0  0  0  0  0  0  0  0  0  0  0
  -28.0969   -6.0511   -4.9469 C   0  0  0  0  0  0  0  0  0  0  0  0
  -28.5682   -7.2920   -5.3746 C   0  0  0  0  0  0  0  0  0  0  0  0
  -29.9423   -7.5236   -5.4657 C   0  0  0  0  0  0  0  0  0  0  0  0
  -30.8505   -6.5188   -5.1266 C   0  0  0  0  0  0  0  0  0  0  0  0
  -30.3880   -5.2710   -4.7089 C   0  0  0  0  0  0  0  0  0  0  0  0
  -23.6162   -0.2014  -13.0522 N   0  0  0  0  0  0  0  0  0  0  0  0
  -24.1998   -0.0256  -11.8221 C   0  0  0  0  0  0  0  0  0  0  0  0
  -24.9573   -1.1343  -11.5511 C   0  0  0  0  0  0  0  0  0  0  0  0
  -24.7957   -1.9373  -12.6967 C   0  0  0  0  0  0  0  0  0  0  0  0
  -24.0062   -1.3753  -13.6184 N   0  0  0  0  0  0  0  0  0  0  0  0
  -20.8913    2.4479  -14.9233 C   0  0  0  0  0  0  0  0  0  0  0  0
  -22.0126    2.9412  -14.2609 C   0  0  0  0  0  0  0  0  0  0  0  0
  -22.9136    2.0666  -13.6509 C   0  0  0  0  0  0  0  0  0  0  0  0
  -22.7004    0.6817  -13.6902 C   0  0  0  0  0  0  0  0  0  0  0  0
  -21.5744    0.1816  -14.3529 C   0  0  0  0  0  0  0  0  0  0  0  0
  -20.6792    1.0665  -14.9685 C   0  0  0  0  0  0  0  0  0  0  0  0
  -18.6063    2.7319  -15.4901 C   0  0  0  0  0  0  0  0  0  0  0  0
  -19.9459    3.2117  -15.5522 O   0  0  0  0  0  0  0  0  0  0  0  0
 33 34  1  0  0  0
 34 27  1  0  0  0
 27 28  1  0  0  0
 27 32  2  0  0  0
 28 29  2  0  0  0
 29 30  1  0  0  0
 30 22  1  0  0  0
 30 31  2  0  0  0
 22 23  1  0  0  0
 22 26  1  0  0  0
 23 24  2  0  0  0
 24  1  1  0  0  0
 24 25  1  0  0  0
  1  2  1  0  0  0
  1  4  1  0  0  0
  2  3  2  0  0  0
  2  5  1  0  0  0
  5  6  1  0  0  0
  5 10  2  0  0  0
  6  7  2  0  0  0
  7  8  1  0  0  0
  8 11  1  0  0  0
  8  9  2  0  0  0
 11 13  1  0  0  0
 11 12  1  0  0  0
 13 14  2  0  0  0
 13 15  2  0  0  0
 13 16  1  0  0  0
 16 17  1  0  0  0
 16 21  2  0  0  0
 17 18  2  0  0  0
 18 19  1  0  0  0
 19 20  2  0  0  0
 20 21  1  0  0  0
  9 10  1  0  0  0
 25 26  2  0  0  0
 31 32  1  0  0  0
M  END
> <minimizedAffinity>
-10.28754

$$$$
