CHEMBL4459889


 29 32  0  0  0  0  0  0  0  0999 V2000
  -29.0458   -6.8935   -3.9010 C   0  0  0  0  0  0  0  0  0  0  0  0
  -30.3928   -6.5457   -3.7251 C   0  0  0  0  0  0  0  0  0  0  0  0
  -30.8808   -5.2993   -4.1047 C   0  0  0  0  0  0  0  0  0  0  0  0
  -29.9598   -4.4549   -4.7016 C   0  0  0  0  0  0  0  0  0  0  0  0
  -30.2209   -3.2072   -5.1479 O   0  0  0  0  0  0  0  0  0  0  0  0
  -29.0152   -2.7299   -5.5966 C   0  0  0  0  0  0  0  0  0  0  0  0
  -28.0371   -3.6238   -5.5253 N   0  0  0  0  0  0  0  0  0  0  0  0
  -28.6232   -4.7309   -4.9208 C   0  0  0  0  0  0  0  0  0  0  0  0
  -28.1341   -5.9901   -4.5010 C   0  0  0  0  0  0  0  0  0  0  0  0
  -29.0563   -1.2998   -5.9448 C   0  0  0  0  0  0  0  0  0  0  0  0
  -29.8086   -0.4352   -5.1124 C   0  0  0  0  0  0  0  0  0  0  0  0
  -29.8601    0.9440   -5.3057 C   0  0  0  0  0  0  0  0  0  0  0  0
  -29.1511    1.5101   -6.3559 C   0  0  0  0  0  0  0  0  0  0  0  0
  -28.4219    0.6844   -7.2138 C   0  0  0  0  0  0  0  0  0  0  0  0
  -28.3744   -0.7098   -7.0173 C   0  0  0  0  0  0  0  0  0  0  0  0
  -27.4766   -1.6236   -8.1771 Cl  0  0  0  0  0  0  0  0  0  0  0  0
  -28.6282   -9.2934   -4.3143 C   0  0  0  0  0  0  0  0  0  0  0  0
  -28.8940   -9.2757   -5.5137 O   0  0  0  0  0  0  0  0  0  0  0  0
  -28.6950   -8.1953   -3.4728 N   0  0  0  0  0  0  0  0  0  0  0  0
  -28.0654   -8.2451   -2.6805 H   0  0  0  0  0  0  0  0  0  0  0  0
  -28.1628  -10.5646   -3.6110 C   0  0  0  0  0  0  0  0  0  0  0  0
  -23.8756  -10.8769   -2.9466 C   0  0  0  0  0  0  0  0  0  0  0  0
  -24.3980   -9.8757   -3.7631 C   0  0  0  0  0  0  0  0  0  0  0  0
  -25.7771   -9.8139   -4.0122 C   0  0  0  0  0  0  0  0  0  0  0  0
  -26.6664  -10.7493   -3.4552 C   0  0  0  0  0  0  0  0  0  0  0  0
  -26.1302  -11.7576   -2.6443 C   0  0  0  0  0  0  0  0  0  0  0  0
  -24.7495  -11.8176   -2.3970 C   0  0  0  0  0  0  0  0  0  0  0  0
  -21.6829  -11.5407   -3.6041 C   0  0  0  0  0  0  0  0  0  0  0  0
  -22.5597  -11.0337   -2.6035 O   0  0  0  0  0  0  0  0  0  0  0  0
 28 29  1  0  0  0
 29 22  1  0  0  0
 22 23  1  0  0  0
 22 27  2  0  0  0
 23 24  2  0  0  0
 24 25  1  0  0  0
 25 21  1  0  0  0
 25 26  2  0  0  0
 21 17  1  0  0  0
 17 18  2  0  0  0
 17 19  1  0  0  0
 19  1  1  0  0  0
 19 20  1  0  0  0
  1  2  1  0  0  0
  1  9  2  0  0  0
  2  3  2  0  0  0
  3  4  1  0  0  0
  4  5  1  0  0  0
  4  8  2  0  0  0
  5  6  1  0  0  0
  6 10  1  0  0  0
  6  7  2  0  0  0
 10 11  1  0  0  0
 10 15  2  0  0  0
 11 12  2  0  0  0
 12 13  1  0  0  0
 13 14  2  0  0  0
 14 15  1  0  0  0
 15 16  1  0  0  0
  7  8  1  0  0  0
  8  9  1  0  0  0
 26 27  1  0  0  0
M  END
> <minimizedAffinity>
-8.52340

$$$$
