CHEMBL3694671


 39 42  0  0  0  0  0  0  0  0999 V2000
  -18.8346    2.0134  -15.0042 C   0  0  0  0  0  0  0  0  0  0  0  0
  -19.3988    0.6633  -15.1372 C   0  0  0  0  0  0  0  0  0  0  0  0
  -20.6937    0.4371  -14.8513 C   0  0  0  0  0  0  0  0  0  0  0  0
  -21.5016    1.4771  -14.3775 N   0  0  0  0  0  0  0  0  0  0  0  0
  -22.8336    1.5030  -13.9457 C   0  0  0  0  0  0  0  0  0  0  0  0
  -23.0578    2.8424  -13.6585 C   0  0  0  0  0  0  0  0  0  0  0  0
  -21.9432    3.6110  -13.8484 N   0  0  0  0  0  0  0  0  0  0  0  0
  -21.0130    2.7758  -14.2490 C   0  0  0  0  0  0  0  0  0  0  0  0
  -19.6439    3.0102  -14.5701 C   0  0  0  0  0  0  0  0  0  0  0  0
  -15.2257    1.7401  -15.5019 C   0  0  0  0  0  0  0  0  0  0  0  0
  -16.4710    1.4127  -15.1165 N   0  0  0  0  0  0  0  0  0  0  0  0
  -17.4221    2.3366  -15.3693 C   0  0  0  0  0  0  0  0  0  0  0  0
  -17.1927    3.5106  -15.9993 N   0  0  0  0  0  0  0  0  0  0  0  0
  -15.9248    3.7749  -16.3699 C   0  0  0  0  0  0  0  0  0  0  0  0
  -14.8826    2.9214  -16.1270 C   0  0  0  0  0  0  0  0  0  0  0  0
  -13.6398    3.1927  -16.5423 F   0  0  0  0  0  0  0  0  0  0  0  0
  -14.2531    0.7403  -15.2109 N   0  0  0  0  0  0  0  0  0  0  0  0
  -14.7045   -0.1771  -15.1905 H   0  0  0  0  0  0  0  0  0  0  0  0
  -12.3955   -0.4929  -13.6952 C   0  0  0  0  0  0  0  0  0  0  0  0
  -13.4575    0.9365  -13.7368 S   0  0  0  0  0  0  0  0  0  0  0  0
  -14.4690    0.7585  -12.7184 O   0  0  0  0  0  0  0  0  0  0  0  0
  -12.6173    2.1128  -13.7794 O   0  0  0  0  0  0  0  0  0  0  0  0
  -23.7372    0.3549  -13.7593 C   0  0  0  0  0  0  0  0  0  0  0  0
  -24.0987   -0.4356  -14.8586 C   0  0  0  0  0  0  0  0  0  0  0  0
  -24.9449   -1.5220  -14.7101 C   0  0  0  0  0  0  0  0  0  0  0  0
  -25.3793   -1.8964  -13.4445 C   0  0  0  0  0  0  0  0  0  0  0  0
  -24.9775   -1.1946  -12.3034 C   0  0  0  0  0  0  0  0  0  0  0  0
  -24.1827   -0.0458  -12.4764 C   0  0  0  0  0  0  0  0  0  0  0  0
  -25.3289   -1.6272  -10.9924 N   0  0  0  0  0  0  0  0  0  0  0  0
  -26.5977   -1.6286  -10.4608 C   0  0  0  0  0  0  0  0  0  0  0  0
  -27.6334   -1.2613  -11.0126 O   0  0  0  0  0  0  0  0  0  0  0  0
  -26.6514   -2.0527   -9.1522 N   0  0  0  0  0  0  0  0  0  0  0  0
  -24.5843   -2.0033  -10.4236 H   0  0  0  0  0  0  0  0  0  0  0  0
  -25.9531   -2.7146   -8.8445 H   0  0  0  0  0  0  0  0  0  0  0  0
  -27.9664   -2.0896   -8.4913 C   0  0  0  0  0  0  0  0  0  0  0  0
  -28.0362   -1.5301   -7.0601 C   0  0  0  0  0  0  0  0  0  0  0  0
  -29.2821   -1.6039   -6.5407 F   0  0  0  0  0  0  0  0  0  0  0  0
  -27.2294   -2.2567   -6.2445 F   0  0  0  0  0  0  0  0  0  0  0  0
  -27.6233   -0.2472   -6.9865 F   0  0  0  0  0  0  0  0  0  0  0  0
 19 20  1  0  0  0
 20 21  2  0  0  0
 20 22  2  0  0  0
 20 17  1  0  0  0
 17 10  1  0  0  0
 17 18  1  0  0  0
 10 11  1  0  0  0
 10 15  2  0  0  0
 11 12  2  0  0  0
 12  1  1  0  0  0
 12 13  1  0  0  0
  1  2  1  0  0  0
  1  9  2  0  0  0
  2  3  2  0  0  0
  3  4  1  0  0  0
  4  5  1  0  0  0
  4  8  1  0  0  0
  5 23  1  0  0  0
  5  6  2  0  0  0
 23 24  1  0  0  0
 23 28  2  0  0  0
 24 25  2  0  0  0
 25 26  1  0  0  0
 26 27  2  0  0  0
 27 29  1  0  0  0
 27 28  1  0  0  0
 29 30  1  0  0  0
 29 33  1  0  0  0
 30 31  2  0  0  0
 30 32  1  0  0  0
 32 35  1  0  0  0
 32 34  1  0  0  0
 35 36  1  0  0  0
 36 37  1  0  0  0
 36 38  1  0  0  0
 36 39  1  0  0  0
  6  7  1  0  0  0
  7  8  2  0  0  0
  8  9  1  0  0  0
 13 14  2  0  0  0
 14 15  1  0  0  0
 15 16  1  0  0  0
M  END
> <minimizedAffinity>
-10.19331

$$$$
