CHEMBL1095761


 31 34  0  0  0  0  0  0  0  0999 V2000
  -27.9491    0.8613   -6.2275 N   0  0  0  0  0  0  0  0  0  0  0  0
  -28.2851   -0.4294   -6.5876 C   0  0  0  0  0  0  0  0  0  0  0  0
  -27.6898   -0.9080   -7.6883 N   0  0  0  0  0  0  0  0  0  0  0  0
  -27.8961   -2.1956   -8.0660 C   0  0  0  0  0  0  0  0  0  0  0  0
  -28.7550   -2.9735   -7.2768 C   0  0  0  0  0  0  0  0  0  0  0  0
  -29.2069   -4.3216   -7.2645 C   0  0  0  0  0  0  0  0  0  0  0  0
  -29.9831   -4.4970   -6.1320 C   0  0  0  0  0  0  0  0  0  0  0  0
  -30.1302   -3.2572   -5.5479 N   0  0  0  0  0  0  0  0  0  0  0  0
  -29.3453   -2.3434   -6.1963 C   0  0  0  0  0  0  0  0  0  0  0  0
  -29.1653   -1.0731   -5.8118 N   0  0  0  0  0  0  0  0  0  0  0  0
  -27.5518    1.3462   -7.0192 H   0  0  0  0  0  0  0  0  0  0  0  0
  -28.7052    1.2986   -5.7244 H   0  0  0  0  0  0  0  0  0  0  0  0
  -30.6678   -3.0456   -4.7171 H   0  0  0  0  0  0  0  0  0  0  0  0
  -27.2007   -2.7471   -9.1496 N   0  0  0  0  0  0  0  0  0  0  0  0
  -27.0877   -3.7497   -9.1070 H   0  0  0  0  0  0  0  0  0  0  0  0
  -26.8867   -2.1791  -10.3937 C   0  0  0  0  0  0  0  0  0  0  0  0
  -27.8210   -2.0775  -11.4318 C   0  0  0  0  0  0  0  0  0  0  0  0
  -27.4764   -1.5127  -12.6622 C   0  0  0  0  0  0  0  0  0  0  0  0
  -26.1970   -0.9988  -12.8555 C   0  0  0  0  0  0  0  0  0  0  0  0
  -25.2707   -1.0553  -11.8173 C   0  0  0  0  0  0  0  0  0  0  0  0
  -23.5450   -0.3231  -12.0613 Br  0  0  0  0  0  0  0  0  0  0  0  0
  -25.6072   -1.6430  -10.5952 C   0  0  0  0  0  0  0  0  0  0  0  0
  -30.5361   -5.7416   -5.5202 C   0  0  0  0  0  0  0  0  0  0  0  0
  -30.1477   -7.0046   -6.2500 C   0  0  0  0  0  0  0  0  0  0  0  0
  -31.0099   -7.5058   -7.2435 C   0  0  0  0  0  0  0  0  0  0  0  0
  -30.6902   -8.6675   -7.9486 C   0  0  0  0  0  0  0  0  0  0  0  0
  -29.5070   -9.3427   -7.6650 C   0  0  0  0  0  0  0  0  0  0  0  0
  -29.1160  -10.7780   -8.5291 Cl  0  0  0  0  0  0  0  0  0  0  0  0
  -28.6393   -8.8672   -6.6860 C   0  0  0  0  0  0  0  0  0  0  0  0
  -28.9603   -7.7052   -5.9788 C   0  0  0  0  0  0  0  0  0  0  0  0
  -27.8406   -7.1695   -4.7753 Cl  0  0  0  0  0  0  0  0  0  0  0  0
  1  2  1  0  0  0
  1 11  1  0  0  0
  1 12  1  0  0  0
  2  3  1  0  0  0
  2 10  2  0  0  0
  3  4  2  0  0  0
  4 14  1  0  0  0
  4  5  1  0  0  0
 14 16  1  0  0  0
 14 15  1  0  0  0
 16 17  1  0  0  0
 16 22  2  0  0  0
 17 18  2  0  0  0
 18 19  1  0  0  0
 19 20  2  0  0  0
 20 21  1  0  0  0
 20 22  1  0  0  0
  5  6  1  0  0  0
  5  9  2  0  0  0
  6  7  2  0  0  0
  7 23  1  0  0  0
  7  8  1  0  0  0
 23 24  1  0  0  0
 24 25  1  0  0  0
 24 30  2  0  0  0
 25 26  2  0  0  0
 26 27  1  0  0  0
 27 28  1  0  0  0
 27 29  2  0  0  0
 29 30  1  0  0  0
 30 31  1  0  0  0
  8  9  1  0  0  0
  8 13  1  0  0  0
  9 10  1  0  0  0
M  END
> <minimizedAffinity>
-9.05863

$$$$
