CHEMBL1681939


 36 38  0  0  0  0  0  0  0  0999 V2000
  -29.4605   -6.8796   -5.4846 C   0  0  0  0  0  0  0  0  0  0  0  0
  -29.9074   -6.4947   -6.7459 C   0  0  0  0  0  0  0  0  0  0  0  0
  -29.6642   -5.2066   -7.2222 C   0  0  0  0  0  0  0  0  0  0  0  0
  -28.9955   -4.2515   -6.4498 C   0  0  0  0  0  0  0  0  0  0  0  0
  -28.6256   -4.6169   -5.1433 C   0  0  0  0  0  0  0  0  0  0  0  0
  -27.8413   -3.4827   -4.0963 Cl  0  0  0  0  0  0  0  0  0  0  0  0
  -28.8527   -5.9251   -4.6625 C   0  0  0  0  0  0  0  0  0  0  0  0
  -28.7110   -2.9458   -6.9678 N   0  0  0  0  0  0  0  0  0  0  0  0
  -27.9808   -2.7297   -8.1068 C   0  0  0  0  0  0  0  0  0  0  0  0
  -27.4034   -3.6064   -8.7507 O   0  0  0  0  0  0  0  0  0  0  0  0
  -27.9379   -1.4134   -8.5466 N   0  0  0  0  0  0  0  0  0  0  0  0
  -28.9015   -2.1621   -6.3614 H   0  0  0  0  0  0  0  0  0  0  0  0
  -27.9238   -0.6990   -7.8360 H   0  0  0  0  0  0  0  0  0  0  0  0
  -27.1438   -1.2231   -9.7473 C   0  0  0  0  0  0  0  0  0  0  0  0
  -27.8668   -1.2014  -11.0892 C   0  0  0  0  0  0  0  0  0  0  0  0
  -26.8174   -1.5321  -12.1683 C   0  0  0  0  0  0  0  0  0  0  0  0
  -25.4122   -1.0102  -11.8625 C   0  0  0  0  0  0  0  0  0  0  0  0
  -24.3816   -1.6524  -12.7030 N   0  0  0  0  0  0  0  0  0  0  0  0
  -23.0524   -1.5646  -12.0722 C   0  0  0  0  0  0  0  0  0  0  0  0
  -22.5302   -0.1924  -12.4604 C   0  0  0  0  0  0  0  0  0  0  0  0
  -23.0826    0.0236  -13.8589 C   0  0  0  0  0  0  0  0  0  0  0  0
  -24.1837   -1.0194  -14.0185 C   0  0  0  0  0  0  0  0  0  0  0  0
  -29.6479   -8.1640   -5.0099 O   0  0  0  0  0  0  0  0  0  0  0  0
  -29.4273  -10.0521   -6.4839 C   0  0  0  0  0  0  0  0  0  0  0  0
  -28.5878  -11.0575   -6.9553 C   0  0  0  0  0  0  0  0  0  0  0  0
  -28.9751  -11.9741   -7.9317 N   0  0  0  0  0  0  0  0  0  0  0  0
  -27.2973  -11.1559   -6.5923 N   0  0  0  0  0  0  0  0  0  0  0  0
  -26.8511  -10.2505   -5.7187 C   0  0  0  0  0  0  0  0  0  0  0  0
  -27.5781   -9.2789   -5.1626 N   0  0  0  0  0  0  0  0  0  0  0  0
  -28.8629   -9.1733   -5.5776 C   0  0  0  0  0  0  0  0  0  0  0  0
  -29.9230  -12.3172   -7.7702 H   0  0  0  0  0  0  0  0  0  0  0  0
  -28.2721  -12.6996   -8.0190 H   0  0  0  0  0  0  0  0  0  0  0  0
  -31.1141   -9.6445   -8.1541 N   0  0  0  0  0  0  0  0  0  0  0  0
  -30.8269   -9.9437   -6.9247 C   0  0  0  0  0  0  0  0  0  0  0  0
  -33.0037   -8.6941   -7.2944 C   0  0  0  0  0  0  0  0  0  0  0  0
  -32.5011   -9.5519   -8.3166 O   0  0  0  0  0  0  0  0  0  0  0  0
 35 36  1  0  0  0
 36 33  1  0  0  0
 33 34  2  0  0  0
 34 24  1  0  0  0
 24 25  1  0  0  0
 24 30  2  0  0  0
 25 26  1  0  0  0
 25 27  2  0  0  0
 26 31  1  0  0  0
 26 32  1  0  0  0
 27 28  1  0  0  0
 28 29  2  0  0  0
 29 30  1  0  0  0
 30 23  1  0  0  0
 23  1  1  0  0  0
  1  2  1  0  0  0
  1  7  2  0  0  0
  2  3  2  0  0  0
  3  4  1  0  0  0
  4  8  1  0  0  0
  4  5  2  0  0  0
  8  9  1  0  0  0
  8 12  1  0  0  0
  9 10  2  0  0  0
  9 11  1  0  0  0
 11 14  1  0  0  0
 11 13  1  0  0  0
 14 15  1  0  0  0
 15 16  1  0  0  0
 16 17  1  0  0  0
 17 18  1  0  0  0
 18 19  1  0  0  0
 18 22  1  0  0  0
 19 20  1  0  0  0
 20 21  1  0  0  0
 21 22  1  0  0  0
  5  6  1  0  0  0
  5  7  1  0  0  0
M  END
> <minimizedAffinity>
-7.93617

$$$$
