CHEMBL1172420


 37 40  0  0  0  0  0  0  0  0999 V2000
  -19.7047    1.6150  -14.2645 C   0  0  0  0  0  0  0  0  0  0  0  0
  -19.9015    3.0074  -14.4060 C   0  0  0  0  0  0  0  0  0  0  0  0
  -19.0098    3.8033  -15.1577 C   0  0  0  0  0  0  0  0  0  0  0  0
  -17.9083    3.1895  -15.7336 C   0  0  0  0  0  0  0  0  0  0  0  0
  -17.6507    1.8529  -15.4437 C   0  0  0  0  0  0  0  0  0  0  0  0
  -18.5721    1.0240  -14.8409 C   0  0  0  0  0  0  0  0  0  0  0  0
  -16.2659    1.6093  -15.5005 N   0  0  0  0  0  0  0  0  0  0  0  0
  -15.6009    2.8296  -15.6328 C   0  0  0  0  0  0  0  0  0  0  0  0
  -14.5076    3.1624  -15.2222 O   0  0  0  0  0  0  0  0  0  0  0  0
  -16.6412    3.7083  -16.2730 C   0  0  0  0  0  0  0  0  0  0  0  0
  -16.3673    3.8530  -17.5941 C   0  0  0  0  0  0  0  0  0  0  0  0
  -15.8292    0.8174  -15.0582 H   0  0  0  0  0  0  0  0  0  0  0  0
  -15.1072    4.3045  -18.1006 C   0  0  0  0  0  0  0  0  0  0  0  0
  -14.7721    5.6212  -17.9083 N   0  0  0  0  0  0  0  0  0  0  0  0
  -13.6541    5.9596  -18.6217 C   0  0  0  0  0  0  0  0  0  0  0  0
  -13.1645    7.3648  -18.5723 C   0  0  0  0  0  0  0  0  0  0  0  0
  -13.1623    4.7977  -19.2074 C   0  0  0  0  0  0  0  0  0  0  0  0
  -14.0630    3.7263  -18.8168 C   0  0  0  0  0  0  0  0  0  0  0  0
  -13.8905    2.2811  -19.1423 C   0  0  0  0  0  0  0  0  0  0  0  0
  -15.2687    6.2497  -17.2881 H   0  0  0  0  0  0  0  0  0  0  0  0
  -11.9494    4.6841  -20.0313 C   0  0  0  0  0  0  0  0  0  0  0  0
  -10.8609    4.3225  -19.6120 O   0  0  0  0  0  0  0  0  0  0  0  0
  -12.1415    4.9628  -21.3469 O   0  0  0  0  0  0  0  0  0  0  0  0
  -13.0862    5.0742  -21.5395 H   0  0  0  0  0  0  0  0  0  0  0  0
  -22.6298   -0.0938  -12.8647 N   0  0  0  0  0  0  0  0  0  0  0  0
  -21.9332    0.6576  -13.7959 C   0  0  0  0  0  0  0  0  0  0  0  0
  -22.3948    1.0472  -14.8574 O   0  0  0  0  0  0  0  0  0  0  0  0
  -20.6033    0.8811  -13.4370 N   0  0  0  0  0  0  0  0  0  0  0  0
  -22.2712   -0.1236  -11.9257 H   0  0  0  0  0  0  0  0  0  0  0  0
  -20.1983    0.2168  -12.7952 H   0  0  0  0  0  0  0  0  0  0  0  0
  -27.9648   -2.1155  -13.6433 C   0  0  0  0  0  0  0  0  0  0  0  0
  -26.5769   -1.5872  -13.4353 C   0  0  0  0  0  0  0  0  0  0  0  0
  -25.6321   -1.6926  -14.4566 C   0  0  0  0  0  0  0  0  0  0  0  0
  -24.3447   -1.2259  -14.2597 C   0  0  0  0  0  0  0  0  0  0  0  0
  -23.9433   -0.5936  -13.0701 C   0  0  0  0  0  0  0  0  0  0  0  0
  -24.8846   -0.4833  -12.0528 C   0  0  0  0  0  0  0  0  0  0  0  0
  -26.1979   -0.9779  -12.2294 C   0  0  0  0  0  0  0  0  0  0  0  0
 31 32  1  0  0  0
 32 33  1  0  0  0
 32 37  2  0  0  0
 33 34  2  0  0  0
 34 35  1  0  0  0
 35 25  1  0  0  0
 35 36  2  0  0  0
 25 26  1  0  0  0
 25 29  1  0  0  0
 26 27  2  0  0  0
 26 28  1  0  0  0
 28  1  1  0  0  0
 28 30  1  0  0  0
  1  2  1  0  0  0
  1  6  2  0  0  0
  2  3  2  0  0  0
  3  4  1  0  0  0
  4  5  2  0  0  0
  4 10  1  0  0  0
  5  6  1  0  0  0
  5  7  1  0  0  0
  7  8  1  0  0  0
  7 12  1  0  0  0
  8  9  2  0  0  0
  8 10  1  0  0  0
 10 11  2  0  0  0
 11 13  1  0  0  0
 13 14  1  0  0  0
 13 18  2  0  0  0
 14 15  1  0  0  0
 14 20  1  0  0  0
 15 16  1  0  0  0
 15 17  2  0  0  0
 17 21  1  0  0  0
 17 18  1  0  0  0
 21 22  2  0  0  0
 21 23  1  0  0  0
 23 24  1  0  0  0
 18 19  1  0  0  0
 36 37  1  0  0  0
M  END
> <minimizedAffinity>
-9.48348

$$$$
