CHEMBL385598


 41 45  0  0  0  0  0  0  0  0999 V2000
  -27.6915   -2.2806   -8.7975 C   0  0  0  0  0  0  0  0  0  0  0  0
  -27.1828   -1.5038   -7.9885 O   0  0  0  0  0  0  0  0  0  0  0  0
  -28.3977   -3.4260   -8.4797 N   0  0  0  0  0  0  0  0  0  0  0  0
  -28.6533   -4.0593   -9.2290 H   0  0  0  0  0  0  0  0  0  0  0  0
  -26.0346   -1.3383  -12.1466 C   0  0  0  0  0  0  0  0  0  0  0  0
  -26.2450   -1.5107  -10.7505 C   0  0  0  0  0  0  0  0  0  0  0  0
  -27.4590   -1.9894  -10.2394 C   0  0  0  0  0  0  0  0  0  0  0  0
  -28.5042   -2.2790  -11.1166 C   0  0  0  0  0  0  0  0  0  0  0  0
  -28.3323   -2.1266  -12.4850 C   0  0  0  0  0  0  0  0  0  0  0  0
  -27.1035   -1.6975  -13.0186 C   0  0  0  0  0  0  0  0  0  0  0  0
  -27.0143   -1.6851  -14.5263 C   0  0  0  0  0  0  0  0  0  0  0  0
  -20.9215    1.9394  -14.3595 C   0  0  0  0  0  0  0  0  0  0  0  0
  -21.8783    2.8524  -14.1563 N   0  0  0  0  0  0  0  0  0  0  0  0
  -23.0374    2.4054  -13.6290 C   0  0  0  0  0  0  0  0  0  0  0  0
  -23.2888    1.0767  -13.3247 C   0  0  0  0  0  0  0  0  0  0  0  0
  -24.5104    0.5831  -12.8018 C   0  0  0  0  0  0  0  0  0  0  0  0
  -24.7254   -0.7956  -12.6182 C   0  0  0  0  0  0  0  0  0  0  0  0
  -23.6574   -1.6349  -12.9688 C   0  0  0  0  0  0  0  0  0  0  0  0
  -22.4258   -1.1327  -13.4053 C   0  0  0  0  0  0  0  0  0  0  0  0
  -22.2307    0.2178  -13.6050 C   0  0  0  0  0  0  0  0  0  0  0  0
  -21.0625    0.6358  -14.0954 N   0  0  0  0  0  0  0  0  0  0  0  0
  -18.7581    1.3755  -15.1755 C   0  0  0  0  0  0  0  0  0  0  0  0
  -19.7386    2.4064  -14.9158 N   0  0  0  0  0  0  0  0  0  0  0  0
  -20.0052    2.9759  -15.7107 H   0  0  0  0  0  0  0  0  0  0  0  0
  -28.7042   -3.8840   -7.1677 C   0  0  0  0  0  0  0  0  0  0  0  0
  -28.8386   -2.9702   -6.1034 C   0  0  0  0  0  0  0  0  0  0  0  0
  -29.0498   -3.3865   -4.7796 C   0  0  0  0  0  0  0  0  0  0  0  0
  -29.1301   -4.7496   -4.5211 C   0  0  0  0  0  0  0  0  0  0  0  0
  -29.0102   -5.6738   -5.5588 C   0  0  0  0  0  0  0  0  0  0  0  0
  -28.8180   -5.2684   -6.8956 C   0  0  0  0  0  0  0  0  0  0  0  0
  -28.7475   -6.2788   -7.8984 N   0  0  0  0  0  0  0  0  0  0  0  0
  -27.5242   -6.6255   -8.5950 C   0  0  0  0  0  0  0  0  0  0  0  0
  -27.7380   -8.0433   -9.0943 C   0  0  0  0  0  0  0  0  0  0  0  0
  -29.1169   -8.3307   -8.7931 N   0  0  0  0  0  0  0  0  0  0  0  0
  -29.5919   -9.6916   -8.6905 C   0  0  0  0  0  0  0  0  0  0  0  0
  -29.7032   -7.3035   -8.0463 C   0  0  0  0  0  0  0  0  0  0  0  0
  -30.8295   -7.3412   -7.5715 O   0  0  0  0  0  0  0  0  0  0  0  0
  -29.1999   -2.3884   -3.6609 C   0  0  0  0  0  0  0  0  0  0  0  0
  -28.4355   -2.6500   -2.5670 F   0  0  0  0  0  0  0  0  0  0  0  0
  -28.8744   -1.1258   -4.0517 F   0  0  0  0  0  0  0  0  0  0  0  0
  -30.4848   -2.3142   -3.2110 F   0  0  0  0  0  0  0  0  0  0  0  0
 22 23  1  0  0  0
 23 12  1  0  0  0
 23 24  1  0  0  0
 12 13  1  0  0  0
 12 21  2  0  0  0
 13 14  2  0  0  0
 14 15  1  0  0  0
 15 16  1  0  0  0
 15 20  2  0  0  0
 16 17  2  0  0  0
 17  5  1  0  0  0
 17 18  1  0  0  0
  5  6  1  0  0  0
  5 10  2  0  0  0
  6  7  2  0  0  0
  7  1  1  0  0  0
  7  8  1  0  0  0
  1  2  2  0  0  0
  1  3  1  0  0  0
  3 25  1  0  0  0
  3  4  1  0  0  0
 25 26  1  0  0  0
 25 30  2  0  0  0
 26 27  2  0  0  0
 27 38  1  0  0  0
 27 28  1  0  0  0
 38 39  1  0  0  0
 38 40  1  0  0  0
 38 41  1  0  0  0
 28 29  2  0  0  0
 29 30  1  0  0  0
 30 31  1  0  0  0
 31 32  1  0  0  0
 31 36  1  0  0  0
 32 33  1  0  0  0
 33 34  1  0  0  0
 34 35  1  0  0  0
 34 36  1  0  0  0
 36 37  2  0  0  0
  8  9  2  0  0  0
  9 10  1  0  0  0
 10 11  1  0  0  0
 18 19  2  0  0  0
 19 20  1  0  0  0
 20 21  1  0  0  0
M  END
> <minimizedAffinity>
-10.67370

$$$$
