CHEMBL1946170


 36 38  0  0  0  0  0  0  0  0999 V2000
  -23.2135   -0.9402  -13.5942 C   0  0  0  0  0  0  0  0  0  0  0  0
  -23.0515   -1.1575  -12.2256 C   0  0  0  0  0  0  0  0  0  0  0  0
  -24.1162   -1.6162  -11.4493 C   0  0  0  0  0  0  0  0  0  0  0  0
  -25.3804   -1.8067  -12.0065 C   0  0  0  0  0  0  0  0  0  0  0  0
  -25.5601   -1.4610  -13.3526 C   0  0  0  0  0  0  0  0  0  0  0  0
  -26.7761   -1.5771  -13.9098 F   0  0  0  0  0  0  0  0  0  0  0  0
  -24.4879   -1.0432  -14.1502 C   0  0  0  0  0  0  0  0  0  0  0  0
  -26.4669   -2.3484  -11.2721 N   0  0  0  0  0  0  0  0  0  0  0  0
  -26.7942   -2.0038   -9.9696 C   0  0  0  0  0  0  0  0  0  0  0  0
  -26.2079   -1.1613   -9.2967 O   0  0  0  0  0  0  0  0  0  0  0  0
  -27.8334   -2.7633   -9.4600 N   0  0  0  0  0  0  0  0  0  0  0  0
  -26.9651   -3.1108  -11.7122 H   0  0  0  0  0  0  0  0  0  0  0  0
  -27.8613   -3.7143   -9.7981 H   0  0  0  0  0  0  0  0  0  0  0  0
  -28.2839   -2.5542   -8.1343 C   0  0  0  0  0  0  0  0  0  0  0  0
  -28.7270   -3.6502   -7.4009 C   0  0  0  0  0  0  0  0  0  0  0  0
  -29.1139   -3.4814   -6.0702 C   0  0  0  0  0  0  0  0  0  0  0  0
  -29.1156   -2.2122   -5.4741 C   0  0  0  0  0  0  0  0  0  0  0  0
  -29.6378   -2.1427   -3.8314 Cl  0  0  0  0  0  0  0  0  0  0  0  0
  -28.7117   -1.0901   -6.2035 C   0  0  0  0  0  0  0  0  0  0  0  0
  -28.2771   -1.2866   -7.5360 C   0  0  0  0  0  0  0  0  0  0  0  0
  -28.7033    0.3190   -5.6673 C   0  0  0  0  0  0  0  0  0  0  0  0
  -27.9113    0.5506   -4.5872 F   0  0  0  0  0  0  0  0  0  0  0  0
  -28.3134    1.2279   -6.6055 F   0  0  0  0  0  0  0  0  0  0  0  0
  -29.9521    0.7140   -5.2774 F   0  0  0  0  0  0  0  0  0  0  0  0
  -22.1737   -0.5945  -14.4361 O   0  0  0  0  0  0  0  0  0  0  0  0
  -19.9152    2.3066  -14.5052 C   0  0  0  0  0  0  0  0  0  0  0  0
  -20.3351    0.9944  -14.6812 C   0  0  0  0  0  0  0  0  0  0  0  0
  -21.6570    0.6860  -14.3780 C   0  0  0  0  0  0  0  0  0  0  0  0
  -22.5339    1.7071  -14.0252 C   0  0  0  0  0  0  0  0  0  0  0  0
  -22.0340    2.9977  -13.9194 C   0  0  0  0  0  0  0  0  0  0  0  0
  -20.7415    3.3237  -14.1273 N   0  0  0  0  0  0  0  0  0  0  0  0
  -16.8555    4.1373  -15.7779 C   0  0  0  0  0  0  0  0  0  0  0  0
  -18.2013    3.7105  -15.5043 N   0  0  0  0  0  0  0  0  0  0  0  0
  -18.4637    2.6356  -14.6818 C   0  0  0  0  0  0  0  0  0  0  0  0
  -17.5907    1.9880  -14.1145 O   0  0  0  0  0  0  0  0  0  0  0  0
  -19.0000    4.1900  -15.9101 H   0  0  0  0  0  0  0  0  0  0  0  0
 32 33  1  0  0  0
 33 34  1  0  0  0
 33 36  1  0  0  0
 34 35  2  0  0  0
 34 26  1  0  0  0
 26 27  1  0  0  0
 26 31  2  0  0  0
 27 28  2  0  0  0
 28 25  1  0  0  0
 28 29  1  0  0  0
 25  1  1  0  0  0
  1  2  1  0  0  0
  1  7  2  0  0  0
  2  3  2  0  0  0
  3  4  1  0  0  0
  4  8  1  0  0  0
  4  5  2  0  0  0
  8  9  1  0  0  0
  8 12  1  0  0  0
  9 10  2  0  0  0
  9 11  1  0  0  0
 11 14  1  0  0  0
 11 13  1  0  0  0
 14 15  1  0  0  0
 14 20  2  0  0  0
 15 16  2  0  0  0
 16 17  1  0  0  0
 17 18  1  0  0  0
 17 19  2  0  0  0
 19 21  1  0  0  0
 19 20  1  0  0  0
 21 22  1  0  0  0
 21 23  1  0  0  0
 21 24  1  0  0  0
  5  6  1  0  0  0
  5  7  1  0  0  0
 29 30  2  0  0  0
 30 31  1  0  0  0
M  END
> <minimizedAffinity>
-12.27125

$$$$
