CHEMBL387590


 37 42  0  0  0  0  0  0  0  0999 V2000
  -26.6987   -1.9740  -10.9879 C   0  0  0  0  0  0  0  0  0  0  0  0
  -25.5062   -1.5393  -10.6404 N   0  0  0  0  0  0  0  0  0  0  0  0
  -24.9003   -1.2525  -11.8303 C   0  0  0  0  0  0  0  0  0  0  0  0
  -23.6088   -0.8022  -12.1147 C   0  0  0  0  0  0  0  0  0  0  0  0
  -23.2576   -0.6065  -13.4585 C   0  0  0  0  0  0  0  0  0  0  0  0
  -24.1727   -0.8812  -14.4899 C   0  0  0  0  0  0  0  0  0  0  0  0
  -25.4825   -1.3005  -14.2153 C   0  0  0  0  0  0  0  0  0  0  0  0
  -25.7789   -1.4898  -12.8725 C   0  0  0  0  0  0  0  0  0  0  0  0
  -26.9420   -1.9595  -12.3378 O   0  0  0  0  0  0  0  0  0  0  0  0
  -27.6873   -2.4692  -10.2373 N   0  0  0  0  0  0  0  0  0  0  0  0
  -28.5441   -2.6972  -10.7185 H   0  0  0  0  0  0  0  0  0  0  0  0
  -28.1545   -2.8683   -6.5197 C   0  0  0  0  0  0  0  0  0  0  0  0
  -28.1519   -3.1699   -7.8992 C   0  0  0  0  0  0  0  0  0  0  0  0
  -27.8919   -2.1862   -8.8707 C   0  0  0  0  0  0  0  0  0  0  0  0
  -27.7963   -0.8536   -8.4638 C   0  0  0  0  0  0  0  0  0  0  0  0
  -27.7986   -0.5297   -7.1132 C   0  0  0  0  0  0  0  0  0  0  0  0
  -27.8955   -1.5369   -6.1504 C   0  0  0  0  0  0  0  0  0  0  0  0
  -27.5737   -1.0406   -4.5308 Cl  0  0  0  0  0  0  0  0  0  0  0  0
  -28.4131   -3.9888   -5.5199 C   0  0  0  0  0  0  0  0  0  0  0  0
  -28.8516   -8.4619   -3.8865 C   0  0  0  0  0  0  0  0  0  0  0  0
  -29.6462   -7.3907   -4.4907 N   0  0  0  0  0  0  0  0  0  0  0  0
  -29.6008   -6.1974   -3.6303 C   0  0  0  0  0  0  0  0  0  0  0  0
  -30.3043   -4.9755   -4.2596 C   0  0  0  0  0  0  0  0  0  0  0  0
  -29.7699   -4.5757   -5.5786 N   0  0  0  0  0  0  0  0  0  0  0  0
  -29.8026   -5.7844   -6.4428 C   0  0  0  0  0  0  0  0  0  0  0  0
  -29.1435   -7.0559   -5.8386 C   0  0  0  0  0  0  0  0  0  0  0  0
  -21.9531   -0.2128  -13.6627 O   0  0  0  0  0  0  0  0  0  0  0  0
  -21.6616    1.0803  -14.0294 C   0  0  0  0  0  0  0  0  0  0  0  0
  -22.4981    2.1756  -13.7925 C   0  0  0  0  0  0  0  0  0  0  0  0
  -22.1010    3.4344  -14.2222 C   0  0  0  0  0  0  0  0  0  0  0  0
  -20.9298    3.7303  -14.8260 N   0  0  0  0  0  0  0  0  0  0  0  0
  -20.1271    2.6595  -14.9586 C   0  0  0  0  0  0  0  0  0  0  0  0
  -18.8665    2.7015  -15.4871 N   0  0  0  0  0  0  0  0  0  0  0  0
  -18.3035    1.4515  -15.4497 C   0  0  0  0  0  0  0  0  0  0  0  0
  -19.2351    0.5878  -14.9109 C   0  0  0  0  0  0  0  0  0  0  0  0
  -20.3999    1.3460  -14.5952 C   0  0  0  0  0  0  0  0  0  0  0  0
  -18.4311    3.5480  -15.8228 H   0  0  0  0  0  0  0  0  0  0  0  0
 20 21  1  0  0  0
 21 22  1  0  0  0
 21 26  1  0  0  0
 22 23  1  0  0  0
 23 24  1  0  0  0
 24 19  1  0  0  0
 24 25  1  0  0  0
 19 12  1  0  0  0
 12 13  1  0  0  0
 12 17  2  0  0  0
 13 14  2  0  0  0
 14 10  1  0  0  0
 14 15  1  0  0  0
 10  1  1  0  0  0
 10 11  1  0  0  0
  1  2  2  0  0  0
  1  9  1  0  0  0
  2  3  1  0  0  0
  3  4  1  0  0  0
  3  8  2  0  0  0
  4  5  2  0  0  0
  5 27  1  0  0  0
  5  6  1  0  0  0
 27 28  1  0  0  0
 28 29  1  0  0  0
 28 36  2  0  0  0
 29 30  2  0  0  0
 30 31  1  0  0  0
 31 32  2  0  0  0
 32 33  1  0  0  0
 32 36  1  0  0  0
 33 34  1  0  0  0
 33 37  1  0  0  0
 34 35  2  0  0  0
 35 36  1  0  0  0
  6  7  2  0  0  0
  7  8  1  0  0  0
  8  9  1  0  0  0
 15 16  2  0  0  0
 16 17  1  0  0  0
 17 18  1  0  0  0
 25 26  1  0  0  0
M  END
> <minimizedAffinity>
-11.64577

$$$$
