CHEMBL522133


 31 34  0  0  0  0  0  0  0  0999 V2000
  -29.6022   -6.4211   -7.4270 N   0  0  0  0  0  0  0  0  0  0  0  0
  -29.8655   -5.2440   -6.7658 C   0  0  0  0  0  0  0  0  0  0  0  0
  -28.9109   -4.3642   -7.2215 C   0  0  0  0  0  0  0  0  0  0  0  0
  -28.0577   -5.0321   -8.0591 N   0  0  0  0  0  0  0  0  0  0  0  0
  -28.4790   -6.2825   -8.1698 N   0  0  0  0  0  0  0  0  0  0  0  0
  -30.3517  -10.0803   -7.5871 C   0  0  0  0  0  0  0  0  0  0  0  0
  -29.6619   -8.8523   -7.6252 C   0  0  0  0  0  0  0  0  0  0  0  0
  -30.3346   -7.6373   -7.4062 C   0  0  0  0  0  0  0  0  0  0  0  0
  -31.7110   -7.6449   -7.1726 C   0  0  0  0  0  0  0  0  0  0  0  0
  -32.4027   -8.8555   -7.1453 C   0  0  0  0  0  0  0  0  0  0  0  0
  -31.7300  -10.0661   -7.3430 C   0  0  0  0  0  0  0  0  0  0  0  0
  -32.6621  -11.5155   -7.2625 Cl  0  0  0  0  0  0  0  0  0  0  0  0
  -28.2638  -11.1788   -8.0004 F   0  0  0  0  0  0  0  0  0  0  0  0
  -29.5977  -11.3689   -7.7830 C   0  0  0  0  0  0  0  0  0  0  0  0
  -30.0347  -12.0913   -8.8499 F   0  0  0  0  0  0  0  0  0  0  0  0
  -29.6718  -12.1903   -6.7003 F   0  0  0  0  0  0  0  0  0  0  0  0
  -28.7440   -2.9600   -6.8767 C   0  0  0  0  0  0  0  0  0  0  0  0
  -29.2989   -2.5569   -5.6421 C   0  0  0  0  0  0  0  0  0  0  0  0
  -29.1735   -1.2498   -5.1812 C   0  0  0  0  0  0  0  0  0  0  0  0
  -28.5042   -0.3184   -5.9574 C   0  0  0  0  0  0  0  0  0  0  0  0
  -27.9564   -0.6975   -7.1865 C   0  0  0  0  0  0  0  0  0  0  0  0
  -28.0171   -2.0242   -7.6610 C   0  0  0  0  0  0  0  0  0  0  0  0
  -27.4780   -2.3602   -8.9264 N   0  0  0  0  0  0  0  0  0  0  0  0
  -26.4625   -2.3327   -8.9002 H   0  0  0  0  0  0  0  0  0  0  0  0
  -27.9541   -1.6242  -10.0955 C   0  0  0  0  0  0  0  0  0  0  0  0
  -26.8955   -1.6255  -11.1714 C   0  0  0  0  0  0  0  0  0  0  0  0
  -27.2522   -1.7693  -12.5171 C   0  0  0  0  0  0  0  0  0  0  0  0
  -26.2592   -1.6984  -13.4808 C   0  0  0  0  0  0  0  0  0  0  0  0
  -24.9536   -1.5051  -13.1985 N   0  0  0  0  0  0  0  0  0  0  0  0
  -24.6275   -1.3744  -11.8952 C   0  0  0  0  0  0  0  0  0  0  0  0
  -25.5472   -1.4310  -10.8591 C   0  0  0  0  0  0  0  0  0  0  0  0
 13 14  1  0  0  0
 14 15  1  0  0  0
 14 16  1  0  0  0
 14  6  1  0  0  0
  6  7  1  0  0  0
  6 11  2  0  0  0
  7  8  2  0  0  0
  8  1  1  0  0  0
  8  9  1  0  0  0
  1  2  1  0  0  0
  1  5  1  0  0  0
  2  3  2  0  0  0
  3 17  1  0  0  0
  3  4  1  0  0  0
 17 18  1  0  0  0
 17 22  2  0  0  0
 18 19  2  0  0  0
 19 20  1  0  0  0
 20 21  2  0  0  0
 21 22  1  0  0  0
 22 23  1  0  0  0
 23 25  1  0  0  0
 23 24  1  0  0  0
 25 26  1  0  0  0
 26 27  1  0  0  0
 26 31  2  0  0  0
 27 28  2  0  0  0
 28 29  1  0  0  0
 29 30  2  0  0  0
 30 31  1  0  0  0
  4  5  2  0  0  0
  9 10  2  0  0  0
 10 11  1  0  0  0
 11 12  1  0  0  0
M  END
> <minimizedAffinity>
-8.86933

$$$$
