CHEMBL3983450


 42 46  0  0  0  0  0  0  0  0999 V2000
  -12.2106   -1.2982  -15.0824 C   0  0  0  0  0  0  0  0  0  0  0  0
  -13.2041   -0.8819  -14.1923 C   0  0  0  0  0  0  0  0  0  0  0  0
  -14.0663   -1.7388  -13.5633 C   0  0  0  0  0  0  0  0  0  0  0  0
  -14.8471   -1.1421  -12.6595 N   0  0  0  0  0  0  0  0  0  0  0  0
  -15.6457   -1.9251  -11.9591 C   0  0  0  0  0  0  0  0  0  0  0  0
  -15.7424   -3.2389  -12.1121 N   0  0  0  0  0  0  0  0  0  0  0  0
  -14.9411   -3.8295  -13.0327 C   0  0  0  0  0  0  0  0  0  0  0  0
  -14.0395   -3.1066  -13.8418 C   0  0  0  0  0  0  0  0  0  0  0  0
  -13.0963   -3.5464  -14.8293 C   0  0  0  0  0  0  0  0  0  0  0  0
  -12.1844   -2.6489  -15.4432 C   0  0  0  0  0  0  0  0  0  0  0  0
  -15.0587   -5.1994  -12.8732 N   0  0  0  0  0  0  0  0  0  0  0  0
  -15.6326   -5.4586  -13.6779 H   0  0  0  0  0  0  0  0  0  0  0  0
  -14.3024   -6.3078  -12.4916 C   0  0  0  0  0  0  0  0  0  0  0  0
  -14.6674   -7.5172  -13.1138 C   0  0  0  0  0  0  0  0  0  0  0  0
  -13.9028   -8.6716  -12.9638 C   0  0  0  0  0  0  0  0  0  0  0  0
  -12.7576   -8.6335  -12.1769 C   0  0  0  0  0  0  0  0  0  0  0  0
  -11.8090  -10.0756  -12.0890 Cl  0  0  0  0  0  0  0  0  0  0  0  0
  -12.4000   -7.4443  -11.5243 C   0  0  0  0  0  0  0  0  0  0  0  0
  -10.9734   -7.3345  -10.5529 Cl  0  0  0  0  0  0  0  0  0  0  0  0
  -13.1776   -6.2835  -11.6770 C   0  0  0  0  0  0  0  0  0  0  0  0
  -11.3688   -3.2471  -16.3708 O   0  0  0  0  0  0  0  0  0  0  0  0
  -10.8919   -4.5564  -16.0760 C   0  0  0  0  0  0  0  0  0  0  0  0
  -11.3189   -0.3820  -15.6038 O   0  0  0  0  0  0  0  0  0  0  0  0
  -11.8420    0.9596  -15.6631 C   0  0  0  0  0  0  0  0  0  0  0  0
  -15.0584    2.8262  -15.7852 C   0  0  0  0  0  0  0  0  0  0  0  0
  -14.5580    3.6455  -15.0089 O   0  0  0  0  0  0  0  0  0  0  0  0
  -14.3253    2.2598  -16.8361 N   0  0  0  0  0  0  0  0  0  0  0  0
  -14.7524    1.1727  -17.7254 C   0  0  0  0  0  0  0  0  0  0  0  0
  -13.7233    0.0420  -17.8018 C   0  0  0  0  0  0  0  0  0  0  0  0
  -12.3977    0.5224  -18.0480 O   0  0  0  0  0  0  0  0  0  0  0  0
  -11.9618    1.5132  -17.0906 C   0  0  0  0  0  0  0  0  0  0  0  0
  -12.9442    2.7093  -17.0862 C   0  0  0  0  0  0  0  0  0  0  0  0
  -19.0975    1.4316  -15.2579 C   0  0  0  0  0  0  0  0  0  0  0  0
  -18.8602    2.7218  -15.7478 C   0  0  0  0  0  0  0  0  0  0  0  0
  -17.5607    3.2174  -15.8420 C   0  0  0  0  0  0  0  0  0  0  0  0
  -16.4667    2.4012  -15.5337 C   0  0  0  0  0  0  0  0  0  0  0  0
  -16.6996    1.1352  -14.9767 C   0  0  0  0  0  0  0  0  0  0  0  0
  -18.0068    0.6601  -14.8344 C   0  0  0  0  0  0  0  0  0  0  0  0
  -20.5079    0.8980  -15.1594 C   0  0  0  0  0  0  0  0  0  0  0  0
  -21.3139    1.4350  -13.9681 C   0  0  0  0  0  0  0  0  0  0  0  0
  -23.1783   -0.2476  -14.1498 C   0  0  0  0  0  0  0  0  0  0  0  0
  -22.1182    0.3556  -13.2394 C   0  0  0  0  0  0  0  0  0  0  0  0
 41 42  1  0  0  0
 42 40  1  0  0  0
 40 39  1  0  0  0
 39 33  1  0  0  0
 33 34  1  0  0  0
 33 38  2  0  0  0
 34 35  2  0  0  0
 35 36  1  0  0  0
 36 25  1  0  0  0
 36 37  2  0  0  0
 25 26  2  0  0  0
 25 27  1  0  0  0
 27 28  1  0  0  0
 27 32  1  0  0  0
 28 29  1  0  0  0
 29 30  1  0  0  0
 30 31  1  0  0  0
 31 24  1  0  0  0
 31 32  1  0  0  0
 24 23  1  0  0  0
 23  1  1  0  0  0
  1  2  1  0  0  0
  1 10  2  0  0  0
  2  3  2  0  0  0
  3  4  1  0  0  0
  3  8  1  0  0  0
  4  5  2  0  0  0
  5  6  1  0  0  0
  6  7  2  0  0  0
  7 11  1  0  0  0
  7  8  1  0  0  0
 11 13  1  0  0  0
 11 12  1  0  0  0
 13 14  1  0  0  0
 13 20  2  0  0  0
 14 15  2  0  0  0
 15 16  1  0  0  0
 16 17  1  0  0  0
 16 18  2  0  0  0
 18 19  1  0  0  0
 18 20  1  0  0  0
  8  9  2  0  0  0
  9 10  1  0  0  0
 10 21  1  0  0  0
 21 22  1  0  0  0
 37 38  1  0  0  0
M  END
> <minimizedAffinity>
-8.80706

$$$$
