CHEMBL4742906


 34 39  0  0  0  0  0  0  0  0999 V2000
  -14.4775   -3.5259  -11.5038 C   0  0  0  0  0  0  0  0  0  0  0  0
  -15.4860   -3.0434  -10.6788 C   0  0  0  0  0  0  0  0  0  0  0  0
  -16.0001   -1.8576  -11.1092 N   0  0  0  0  0  0  0  0  0  0  0  0
  -15.2910   -1.5427  -12.1697 C   0  0  0  0  0  0  0  0  0  0  0  0
  -15.3569   -0.3963  -13.0086 C   0  0  0  0  0  0  0  0  0  0  0  0
  -14.4745   -0.2381  -14.0185 C   0  0  0  0  0  0  0  0  0  0  0  0
  -13.4656   -1.2617  -14.2778 C   0  0  0  0  0  0  0  0  0  0  0  0
  -13.4397   -2.3743  -13.5289 C   0  0  0  0  0  0  0  0  0  0  0  0
  -14.3335   -2.5175  -12.4611 N   0  0  0  0  0  0  0  0  0  0  0  0
  -10.7022   -6.0440   -9.4294 C   0  0  0  0  0  0  0  0  0  0  0  0
  -11.8877   -5.9915  -10.3444 C   0  0  0  0  0  0  0  0  0  0  0  0
  -12.6639   -4.8482  -10.4406 C   0  0  0  0  0  0  0  0  0  0  0  0
  -13.6889   -4.7766  -11.3922 C   0  0  0  0  0  0  0  0  0  0  0  0
  -13.9654   -5.9407  -12.1741 C   0  0  0  0  0  0  0  0  0  0  0  0
  -14.9725   -6.0526  -13.1699 C   0  0  0  0  0  0  0  0  0  0  0  0
  -15.2477   -7.2604  -13.8129 C   0  0  0  0  0  0  0  0  0  0  0  0
  -14.4887   -8.3795  -13.5140 C   0  0  0  0  0  0  0  0  0  0  0  0
  -13.4472   -8.2706  -12.5935 C   0  0  0  0  0  0  0  0  0  0  0  0
  -13.1705   -7.0858  -11.9267 C   0  0  0  0  0  0  0  0  0  0  0  0
  -12.1473   -7.0981  -11.0645 N   0  0  0  0  0  0  0  0  0  0  0  0
  -14.5986    0.9529  -14.8691 C   0  0  0  0  0  0  0  0  0  0  0  0
  -15.7238    1.1429  -15.6755 C   0  0  0  0  0  0  0  0  0  0  0  0
  -15.8344    2.2919  -16.4593 C   0  0  0  0  0  0  0  0  0  0  0  0
  -14.8291    3.2730  -16.4391 C   0  0  0  0  0  0  0  0  0  0  0  0
  -13.7012    3.0696  -15.6306 C   0  0  0  0  0  0  0  0  0  0  0  0
  -13.5876    1.9195  -14.8504 C   0  0  0  0  0  0  0  0  0  0  0  0
  -14.9262    4.5147  -17.3042 C   0  0  0  0  0  0  0  0  0  0  0  0
  -15.0759    4.1677  -18.8181 C   0  0  0  0  0  0  0  0  0  0  0  0
  -15.1284    5.3638  -19.6883 N   0  0  0  0  0  0  0  0  0  0  0  0
  -13.9451    6.1989  -19.4071 C   0  0  0  0  0  0  0  0  0  0  0  0
  -13.8102    6.5699  -17.9147 C   0  0  0  0  0  0  0  0  0  0  0  0
  -13.7708    5.3930  -17.0421 N   0  0  0  0  0  0  0  0  0  0  0  0
  -15.9598    5.8983  -19.4392 H   0  0  0  0  0  0  0  0  0  0  0  0
  -13.7842    5.6776  -16.0644 H   0  0  0  0  0  0  0  0  0  0  0  0
 10 11  1  0  0  0
 11 12  1  0  0  0
 11 20  2  0  0  0
 12 13  2  0  0  0
 13  1  1  0  0  0
 13 14  1  0  0  0
  1  2  2  0  0  0
  1  9  1  0  0  0
  2  3  1  0  0  0
  3  4  2  0  0  0
  4  5  1  0  0  0
  4  9  1  0  0  0
  5  6  2  0  0  0
  6 21  1  0  0  0
  6  7  1  0  0  0
 21 22  1  0  0  0
 21 26  2  0  0  0
 22 23  2  0  0  0
 23 24  1  0  0  0
 24 27  1  0  0  0
 24 25  2  0  0  0
 27 28  1  0  0  0
 27 32  1  0  0  0
 28 29  1  0  0  0
 29 30  1  0  0  0
 29 33  1  0  0  0
 30 31  1  0  0  0
 31 32  1  0  0  0
 32 34  1  0  0  0
 25 26  1  0  0  0
  7  8  2  0  0  0
  8  9  1  0  0  0
 14 15  1  0  0  0
 14 19  2  0  0  0
 15 16  2  0  0  0
 16 17  1  0  0  0
 17 18  2  0  0  0
 18 19  1  0  0  0
 19 20  1  0  0  0
M  END
> <minimizedAffinity>
-7.89052

$$$$
