CHEMBL522892


 33 37  0  0  0  0  0  0  0  0999 V2000
  -25.2682   -1.1510  -11.9838 C   0  0  0  0  0  0  0  0  0  0  0  0
  -26.4974   -1.2597  -12.6625 C   0  0  0  0  0  0  0  0  0  0  0  0
  -27.6854   -1.6382  -12.0290 C   0  0  0  0  0  0  0  0  0  0  0  0
  -27.6373   -1.9186  -10.6651 C   0  0  0  0  0  0  0  0  0  0  0  0
  -28.6449   -2.2993   -9.8246 N   0  0  0  0  0  0  0  0  0  0  0  0
  -28.0920   -2.4490   -8.6304 C   0  0  0  0  0  0  0  0  0  0  0  0
  -26.7493   -2.1379   -8.6938 N   0  0  0  0  0  0  0  0  0  0  0  0
  -26.4346   -1.8065   -9.9857 C   0  0  0  0  0  0  0  0  0  0  0  0
  -25.2388   -1.4218  -10.6042 C   0  0  0  0  0  0  0  0  0  0  0  0
  -26.1174   -2.1437   -7.9011 H   0  0  0  0  0  0  0  0  0  0  0  0
  -28.6984   -2.8216   -7.3876 C   0  0  0  0  0  0  0  0  0  0  0  0
  -29.0554   -4.1167   -7.1833 C   0  0  0  0  0  0  0  0  0  0  0  0
  -28.7624   -5.1545   -8.0611 N   0  0  0  0  0  0  0  0  0  0  0  0
  -29.8229   -4.4758   -5.9598 C   0  0  0  0  0  0  0  0  0  0  0  0
  -30.3410   -5.7567   -5.7106 C   0  0  0  0  0  0  0  0  0  0  0  0
  -30.1571   -6.7601   -6.5841 F   0  0  0  0  0  0  0  0  0  0  0  0
  -31.1009   -6.0359   -4.5740 C   0  0  0  0  0  0  0  0  0  0  0  0
  -31.3600   -5.0312   -3.6484 C   0  0  0  0  0  0  0  0  0  0  0  0
  -30.8505   -3.7521   -3.8613 C   0  0  0  0  0  0  0  0  0  0  0  0
  -30.0962   -3.4831   -5.0101 C   0  0  0  0  0  0  0  0  0  0  0  0
  -29.6307   -2.1826   -5.2118 N   0  0  0  0  0  0  0  0  0  0  0  0
  -28.9537   -1.7894   -6.3294 C   0  0  0  0  0  0  0  0  0  0  0  0
  -28.5762   -0.6224   -6.4433 O   0  0  0  0  0  0  0  0  0  0  0  0
  -28.5002   -4.8116   -8.9950 H   0  0  0  0  0  0  0  0  0  0  0  0
  -29.4536   -5.8996   -8.0948 H   0  0  0  0  0  0  0  0  0  0  0  0
  -29.8008   -1.4627   -4.5220 H   0  0  0  0  0  0  0  0  0  0  0  0
  -21.2170    1.5322  -14.7249 C   0  0  0  0  0  0  0  0  0  0  0  0
  -21.9334    0.3714  -14.2020 N   0  0  0  0  0  0  0  0  0  0  0  0
  -21.9857    0.4204  -12.7203 C   0  0  0  0  0  0  0  0  0  0  0  0
  -22.8077   -0.7391  -12.1036 C   0  0  0  0  0  0  0  0  0  0  0  0
  -24.1551   -0.7199  -12.6850 N   0  0  0  0  0  0  0  0  0  0  0  0
  -24.1536   -0.8224  -14.1555 C   0  0  0  0  0  0  0  0  0  0  0  0
  -23.3136    0.3339  -14.7428 C   0  0  0  0  0  0  0  0  0  0  0  0
 27 28  1  0  0  0
 28 29  1  0  0  0
 28 33  1  0  0  0
 29 30  1  0  0  0
 30 31  1  0  0  0
 31  1  1  0  0  0
 31 32  1  0  0  0
  1  2  1  0  0  0
  1  9  2  0  0  0
  2  3  2  0  0  0
  3  4  1  0  0  0
  4  5  1  0  0  0
  4  8  2  0  0  0
  5  6  2  0  0  0
  6 11  1  0  0  0
  6  7  1  0  0  0
 11 12  2  0  0  0
 11 22  1  0  0  0
 12 13  1  0  0  0
 12 14  1  0  0  0
 13 24  1  0  0  0
 13 25  1  0  0  0
 14 15  1  0  0  0
 14 20  2  0  0  0
 15 16  1  0  0  0
 15 17  2  0  0  0
 17 18  1  0  0  0
 18 19  2  0  0  0
 19 20  1  0  0  0
 20 21  1  0  0  0
 21 22  1  0  0  0
 21 26  1  0  0  0
 22 23  2  0  0  0
  7  8  1  0  0  0
  7 10  1  0  0  0
  8  9  1  0  0  0
 32 33  1  0  0  0
M  END
> <minimizedAffinity>
-8.84207

$$$$
