CHEMBL271375


 36 38  0  0  0  0  0  0  0  0999 V2000
  -28.5072   -2.3596  -13.4420 C   0  0  0  0  0  0  0  0  0  0  0  0
  -27.0940   -1.9413  -13.1439 C   0  0  0  0  0  0  0  0  0  0  0  0
  -26.2114   -1.8700  -14.2329 C   0  0  0  0  0  0  0  0  0  0  0  0
  -24.9048   -1.4037  -14.0828 C   0  0  0  0  0  0  0  0  0  0  0  0
  -24.4305   -0.9804  -12.8445 C   0  0  0  0  0  0  0  0  0  0  0  0
  -25.2769   -1.1060  -11.7329 C   0  0  0  0  0  0  0  0  0  0  0  0
  -26.6102   -1.5809  -11.8686 C   0  0  0  0  0  0  0  0  0  0  0  0
  -23.1192   -0.4523  -12.6951 N   0  0  0  0  0  0  0  0  0  0  0  0
  -22.5563    0.4911  -13.5484 C   0  0  0  0  0  0  0  0  0  0  0  0
  -23.1746    1.1000  -14.4142 O   0  0  0  0  0  0  0  0  0  0  0  0
  -21.1902    0.6417  -13.3380 N   0  0  0  0  0  0  0  0  0  0  0  0
  -22.6943   -0.5218  -11.7814 H   0  0  0  0  0  0  0  0  0  0  0  0
  -20.7204   -0.2146  -13.0812 H   0  0  0  0  0  0  0  0  0  0  0  0
  -20.4339    1.5643  -14.1061 C   0  0  0  0  0  0  0  0  0  0  0  0
  -21.0356    2.7520  -14.5274 C   0  0  0  0  0  0  0  0  0  0  0  0
  -20.2930    3.7072  -15.2281 C   0  0  0  0  0  0  0  0  0  0  0  0
  -18.9628    3.4557  -15.5669 C   0  0  0  0  0  0  0  0  0  0  0  0
  -18.3575    2.2458  -15.1974 C   0  0  0  0  0  0  0  0  0  0  0  0
  -19.0989    1.3140  -14.4516 C   0  0  0  0  0  0  0  0  0  0  0  0
  -16.9348    1.9373  -15.6067 C   0  0  0  0  0  0  0  0  0  0  0  0
  -16.0581    1.9309  -14.5611 F   0  0  0  0  0  0  0  0  0  0  0  0
  -16.8032    0.7237  -16.2069 F   0  0  0  0  0  0  0  0  0  0  0  0
  -16.4419    2.8501  -16.4901 F   0  0  0  0  0  0  0  0  0  0  0  0
  -27.4531   -1.5687  -10.6241 C   0  0  0  0  0  0  0  0  0  0  0  0
  -28.2526   -0.6512  -10.4756 O   0  0  0  0  0  0  0  0  0  0  0  0
  -27.2141   -2.5669   -9.6929 N   0  0  0  0  0  0  0  0  0  0  0  0
  -26.4151   -3.1662   -9.8485 H   0  0  0  0  0  0  0  0  0  0  0  0
  -27.9074   -2.7507   -8.4698 C   0  0  0  0  0  0  0  0  0  0  0  0
  -28.7016   -3.8258   -8.1290 C   0  0  0  0  0  0  0  0  0  0  0  0
  -29.3604   -3.9382   -6.9473 N   0  0  0  0  0  0  0  0  0  0  0  0
  -29.2050   -2.9448   -6.0696 C   0  0  0  0  0  0  0  0  0  0  0  0
  -29.9024   -3.0213   -4.8826 N   0  0  0  0  0  0  0  0  0  0  0  0
  -28.4634   -1.8576   -6.2849 N   0  0  0  0  0  0  0  0  0  0  0  0
  -27.8215   -1.7956   -7.4738 C   0  0  0  0  0  0  0  0  0  0  0  0
  -30.6977   -3.6342   -4.9975 H   0  0  0  0  0  0  0  0  0  0  0  0
  -30.0824   -2.0922   -4.5293 H   0  0  0  0  0  0  0  0  0  0  0  0
  1  2  1  0  0  0
  2  3  1  0  0  0
  2  7  2  0  0  0
  3  4  2  0  0  0
  4  5  1  0  0  0
  5  8  1  0  0  0
  5  6  2  0  0  0
  8  9  1  0  0  0
  8 12  1  0  0  0
  9 10  2  0  0  0
  9 11  1  0  0  0
 11 14  1  0  0  0
 11 13  1  0  0  0
 14 15  1  0  0  0
 14 19  2  0  0  0
 15 16  2  0  0  0
 16 17  1  0  0  0
 17 18  2  0  0  0
 18 20  1  0  0  0
 18 19  1  0  0  0
 20 21  1  0  0  0
 20 22  1  0  0  0
 20 23  1  0  0  0
  6  7  1  0  0  0
  7 24  1  0  0  0
 24 25  2  0  0  0
 24 26  1  0  0  0
 26 28  1  0  0  0
 26 27  1  0  0  0
 28 29  1  0  0  0
 28 34  2  0  0  0
 29 30  2  0  0  0
 30 31  1  0  0  0
 31 32  1  0  0  0
 31 33  2  0  0  0
 32 35  1  0  0  0
 32 36  1  0  0  0
 33 34  1  0  0  0
M  END
> <minimizedAffinity>
-10.98453

$$$$
