CHEMBL225319


 37 42  0  0  0  0  0  0  0  0999 V2000
  -22.5332    1.2284  -13.9426 C   0  0  0  0  0  0  0  0  0  0  0  0
  -22.5074    2.6449  -14.0554 C   0  0  0  0  0  0  0  0  0  0  0  0
  -21.3769    3.3361  -14.4941 C   0  0  0  0  0  0  0  0  0  0  0  0
  -20.2590    2.5888  -14.7572 C   0  0  0  0  0  0  0  0  0  0  0  0
  -20.2273    1.1741  -14.6010 C   0  0  0  0  0  0  0  0  0  0  0  0
  -21.3698    0.4876  -14.2170 C   0  0  0  0  0  0  0  0  0  0  0  0
  -18.8379    0.5711  -14.8804 C   0  0  0  0  0  0  0  0  0  0  0  0
  -18.1470    1.8405  -15.2447 C   0  0  0  0  0  0  0  0  0  0  0  0
  -16.9053    2.3363  -15.6490 C   0  0  0  0  0  0  0  0  0  0  0  0
  -16.9534    3.6624  -15.8704 N   0  0  0  0  0  0  0  0  0  0  0  0
  -18.2330    4.0119  -15.5554 N   0  0  0  0  0  0  0  0  0  0  0  0
  -18.9532    2.9428  -15.1781 C   0  0  0  0  0  0  0  0  0  0  0  0
  -18.5084    4.9870  -15.6366 H   0  0  0  0  0  0  0  0  0  0  0  0
  -15.7018    1.5203  -15.8160 C   0  0  0  0  0  0  0  0  0  0  0  0
  -14.8792    1.5287  -16.9220 C   0  0  0  0  0  0  0  0  0  0  0  0
  -13.5579    0.4614  -16.7576 S   0  0  0  0  0  0  0  0  0  0  0  0
  -14.0866   -0.0362  -15.2098 C   0  0  0  0  0  0  0  0  0  0  0  0
  -15.2478    0.5953  -14.8266 C   0  0  0  0  0  0  0  0  0  0  0  0
  -13.3729   -0.9956  -14.4416 C   0  0  0  0  0  0  0  0  0  0  0  0
  -12.7410   -1.8655  -13.7041 C   0  0  0  0  0  0  0  0  0  0  0  0
  -12.0041   -2.8797  -12.8444 C   0  0  0  0  0  0  0  0  0  0  0  0
  -12.6871   -3.0397  -11.6038 O   0  0  0  0  0  0  0  0  0  0  0  0
  -13.9237   -3.6247  -11.6730 C   0  0  0  0  0  0  0  0  0  0  0  0
  -15.1241   -3.0342  -11.2638 C   0  0  0  0  0  0  0  0  0  0  0  0
  -16.3287   -3.7339  -11.3703 C   0  0  0  0  0  0  0  0  0  0  0  0
  -16.3391   -5.0279  -11.8811 C   0  0  0  0  0  0  0  0  0  0  0  0
  -15.1458   -5.6163  -12.2954 C   0  0  0  0  0  0  0  0  0  0  0  0
  -15.1639   -7.2186  -12.9238 Cl  0  0  0  0  0  0  0  0  0  0  0  0
  -13.9421   -4.9187  -12.1979 C   0  0  0  0  0  0  0  0  0  0  0  0
  -23.8191    0.5281  -13.5365 C   0  0  0  0  0  0  0  0  0  0  0  0
  -27.0136   -1.8206  -10.7918 C   0  0  0  0  0  0  0  0  0  0  0  0
  -25.8809   -1.9822  -11.6960 N   0  0  0  0  0  0  0  0  0  0  0  0
  -26.1801   -1.4329  -13.0275 C   0  0  0  0  0  0  0  0  0  0  0  0
  -24.9747   -1.6183  -13.9770 C   0  0  0  0  0  0  0  0  0  0  0  0
  -23.7382   -0.9454  -13.5201 N   0  0  0  0  0  0  0  0  0  0  0  0
  -23.4588   -1.4382  -12.1465 C   0  0  0  0  0  0  0  0  0  0  0  0
  -24.6564   -1.3595  -11.1573 C   0  0  0  0  0  0  0  0  0  0  0  0
 31 32  1  0  0  0
 32 33  1  0  0  0
 32 37  1  0  0  0
 33 34  1  0  0  0
 34 35  1  0  0  0
 35 30  1  0  0  0
 35 36  1  0  0  0
 30  1  1  0  0  0
  1  2  1  0  0  0
  1  6  2  0  0  0
  2  3  2  0  0  0
  3  4  1  0  0  0
  4  5  2  0  0  0
  4 12  1  0  0  0
  5  6  1  0  0  0
  5  7  1  0  0  0
  7  8  1  0  0  0
  8  9  1  0  0  0
  8 12  2  0  0  0
  9 14  1  0  0  0
  9 10  2  0  0  0
 14 15  2  0  0  0
 14 18  1  0  0  0
 15 16  1  0  0  0
 16 17  1  0  0  0
 17 19  1  0  0  0
 17 18  2  0  0  0
 19 20  3  0  0  0
 20 21  1  0  0  0
 21 22  1  0  0  0
 22 23  1  0  0  0
 23 24  1  0  0  0
 23 29  2  0  0  0
 24 25  2  0  0  0
 25 26  1  0  0  0
 26 27  2  0  0  0
 27 28  1  0  0  0
 27 29  1  0  0  0
 10 11  1  0  0  0
 11 12  1  0  0  0
 11 13  1  0  0  0
 36 37  1  0  0  0
M  END
> <minimizedAffinity>
-10.99380

$$$$
