CHEMBL4083641


 40 46  0  0  0  0  0  0  0  0999 V2000
  -24.2091   12.0119  -17.9839 N   0  0  0  0  0  0  0  0  0  0  0  0
  -24.9826   12.1953  -18.6069 H   0  0  0  0  0  0  0  0  0  0  0  0
  -25.4893   11.5711  -14.8443 N   0  0  0  0  0  0  0  0  0  0  0  0
  -25.6989   11.9098  -16.1254 N   0  0  0  0  0  0  0  0  0  0  0  0
  -24.5051   11.7645  -16.6914 C   0  0  0  0  0  0  0  0  0  0  0  0
  -23.5467   11.2667  -15.8578 N   0  0  0  0  0  0  0  0  0  0  0  0
  -24.1610   11.1717  -14.6973 C   0  0  0  0  0  0  0  0  0  0  0  0
  -23.6377   10.6760  -13.5582 N   0  0  0  0  0  0  0  0  0  0  0  0
  -22.7819   10.1366  -13.6170 H   0  0  0  0  0  0  0  0  0  0  0  0
  -24.2381   10.4672  -12.7646 H   0  0  0  0  0  0  0  0  0  0  0  0
  -26.6620   12.6560  -10.3263 C   0  0  0  0  0  0  0  0  0  0  0  0
  -27.0713   12.2747  -11.7142 C   0  0  0  0  0  0  0  0  0  0  0  0
  -26.1092   11.9951  -12.6015 N   0  0  0  0  0  0  0  0  0  0  0  0
  -26.5168   11.6981  -13.8629 C   0  0  0  0  0  0  0  0  0  0  0  0
  -27.8770   11.5443  -14.2279 C   0  0  0  0  0  0  0  0  0  0  0  0
  -28.4142   11.0852  -15.4697 C   0  0  0  0  0  0  0  0  0  0  0  0
  -29.7826   10.9150  -15.6622 C   0  0  0  0  0  0  0  0  0  0  0  0
  -30.6468   11.2118  -14.6277 C   0  0  0  0  0  0  0  0  0  0  0  0
  -30.1380   11.6693  -13.4126 C   0  0  0  0  0  0  0  0  0  0  0  0
  -28.7750   11.8315  -13.1911 C   0  0  0  0  0  0  0  0  0  0  0  0
  -28.3858   12.2128  -11.9708 N   0  0  0  0  0  0  0  0  0  0  0  0
  -22.9298   12.0526  -18.5745 C   0  0  0  0  0  0  0  0  0  0  0  0
  -22.7476   12.4153  -19.9076 C   0  0  0  0  0  0  0  0  0  0  0  0
  -21.5127   12.2817  -20.5468 C   0  0  0  0  0  0  0  0  0  0  0  0
  -20.3657   11.8197  -19.8883 C   0  0  0  0  0  0  0  0  0  0  0  0
  -20.5563   11.4652  -18.5409 C   0  0  0  0  0  0  0  0  0  0  0  0
  -21.8085   11.5796  -17.8946 C   0  0  0  0  0  0  0  0  0  0  0  0
  -19.1477   11.6609  -20.5700 N   0  0  0  0  0  0  0  0  0  0  0  0
  -17.9103   11.8102  -19.7723 C   0  0  0  0  0  0  0  0  0  0  0  0
  -16.6802   11.9753  -20.6879 C   0  0  0  0  0  0  0  0  0  0  0  0
  -16.4512   10.8399  -21.6133 N   0  0  0  0  0  0  0  0  0  0  0  0
  -17.6927   10.6908  -22.4071 C   0  0  0  0  0  0  0  0  0  0  0  0
  -19.0426   10.6322  -21.6326 C   0  0  0  0  0  0  0  0  0  0  0  0
  -16.0525    9.6308  -20.8810 C   0  0  0  0  0  0  0  0  0  0  0  0
  -14.9486    9.9072  -19.8194 C   0  0  0  0  0  0  0  0  0  0  0  0
  -13.9371    8.7725  -20.0490 C   0  0  0  0  0  0  0  0  0  0  0  0
  -13.1364    9.0907  -21.3223 C   0  0  0  0  0  0  0  0  0  0  0  0
  -14.1629    8.8523  -22.4385 C   0  0  0  0  0  0  0  0  0  0  0  0
  -15.4276    8.4446  -21.6713 C   0  0  0  0  0  0  0  0  0  0  0  0
  -14.8331    7.6292  -20.5188 C   0  0  0  0  0  0  0  0  0  0  0  0
 11 12  1  0  0  0
 12 13  1  0  0  0
 12 21  2  0  0  0
 13 14  2  0  0  0
 14  3  1  0  0  0
 14 15  1  0  0  0
  3  4  1  0  0  0
  3  7  1  0  0  0
  4  5  2  0  0  0
  5  1  1  0  0  0
  5  6  1  0  0  0
  1 22  1  0  0  0
  1  2  1  0  0  0
 22 23  1  0  0  0
 22 27  2  0  0  0
 23 24  2  0  0  0
 24 25  1  0  0  0
 25 28  1  0  0  0
 25 26  2  0  0  0
 28 29  1  0  0  0
 28 33  1  0  0  0
 29 30  1  0  0  0
 30 31  1  0  0  0
 31 34  1  0  0  0
 31 32  1  0  0  0
 34 35  1  0  0  0
 34 39  1  0  0  0
 35 36  1  0  0  0
 36 37  1  0  0  0
 36 40  1  0  0  0
 37 38  1  0  0  0
 38 39  1  0  0  0
 39 40  1  0  0  0
 32 33  1  0  0  0
 26 27  1  0  0  0
  6  7  2  0  0  0
  7  8  1  0  0  0
  8  9  1  0  0  0
  8 10  1  0  0  0
 15 16  1  0  0  0
 15 20  2  0  0  0
 16 17  2  0  0  0
 17 18  1  0  0  0
 18 19  2  0  0  0
 19 20  1  0  0  0
 20 21  1  0  0  0
M  END
> <minimizedAffinity>
-6.05676

$$$$
