CHEMBL3577122


 34 36  0  0  0  0  0  0  0  0999 V2000
  -30.2692   -7.1263   -7.5531 C   0  0  0  0  0  0  0  0  0  0  0  0
  -29.2416   -7.5072   -6.5155 C   0  0  0  0  0  0  0  0  0  0  0  0
  -28.8124   -8.8524   -6.5444 C   0  0  0  0  0  0  0  0  0  0  0  0
  -27.8579   -9.3116   -5.6530 C   0  0  0  0  0  0  0  0  0  0  0  0
  -27.4405  -10.5837   -5.7319 F   0  0  0  0  0  0  0  0  0  0  0  0
  -27.4018   -8.4897   -4.6371 C   0  0  0  0  0  0  0  0  0  0  0  0
  -27.8501   -7.1649   -4.5698 C   0  0  0  0  0  0  0  0  0  0  0  0
  -28.7159   -6.6096   -5.5397 C   0  0  0  0  0  0  0  0  0  0  0  0
  -29.0175   -5.1414   -5.4863 C   0  0  0  0  0  0  0  0  0  0  0  0
  -28.2405   -4.2315   -6.2109 C   0  0  0  0  0  0  0  0  0  0  0  0
  -28.4853   -2.8472   -6.1433 C   0  0  0  0  0  0  0  0  0  0  0  0
  -27.6890   -1.8949   -6.7548 C   0  0  0  0  0  0  0  0  0  0  0  0
  -27.9638   -0.5823   -6.7350 N   0  0  0  0  0  0  0  0  0  0  0  0
  -29.0805   -0.2303   -6.0966 C   0  0  0  0  0  0  0  0  0  0  0  0
  -29.4310    1.0998   -6.1376 N   0  0  0  0  0  0  0  0  0  0  0  0
  -29.8661   -1.0634   -5.4186 N   0  0  0  0  0  0  0  0  0  0  0  0
  -29.5645   -2.3611   -5.4350 C   0  0  0  0  0  0  0  0  0  0  0  0
  -30.3293   -3.2089   -4.7503 N   0  0  0  0  0  0  0  0  0  0  0  0
  -30.0622   -4.5536   -4.7442 C   0  0  0  0  0  0  0  0  0  0  0  0
  -30.9912   -5.3231   -3.8425 C   0  0  0  0  0  0  0  0  0  0  0  0
  -28.6202    1.6781   -6.3036 H   0  0  0  0  0  0  0  0  0  0  0  0
  -30.0382    1.3376   -5.3671 H   0  0  0  0  0  0  0  0  0  0  0  0
  -26.4446   -8.9926   -3.7480 N   0  0  0  0  0  0  0  0  0  0  0  0
  -25.2145   -9.5135   -4.0093 C   0  0  0  0  0  0  0  0  0  0  0  0
  -24.5762  -10.0450   -3.1047 O   0  0  0  0  0  0  0  0  0  0  0  0
  -24.7013   -9.2775   -5.2547 N   0  0  0  0  0  0  0  0  0  0  0  0
  -26.5634   -8.7773   -2.7637 H   0  0  0  0  0  0  0  0  0  0  0  0
  -25.2924   -8.8990   -5.9741 H   0  0  0  0  0  0  0  0  0  0  0  0
  -23.3732   -9.7211   -5.6037 C   0  0  0  0  0  0  0  0  0  0  0  0
  -23.3859  -11.0064   -6.4350 C   0  0  0  0  0  0  0  0  0  0  0  0
  -21.9855  -11.4328   -6.9538 C   0  0  0  0  0  0  0  0  0  0  0  0
  -21.1057  -10.2011   -7.2208 C   0  0  0  0  0  0  0  0  0  0  0  0
  -21.2947  -12.3005   -5.8823 C   0  0  0  0  0  0  0  0  0  0  0  0
  -22.0995  -12.2692   -8.2444 C   0  0  0  0  0  0  0  0  0  0  0  0
  1  2  1  0  0  0
  2  3  1  0  0  0
  2  8  2  0  0  0
  3  4  2  0  0  0
  4  5  1  0  0  0
  4  6  1  0  0  0
  6 23  1  0  0  0
  6  7  2  0  0  0
 23 24  1  0  0  0
 23 27  1  0  0  0
 24 25  2  0  0  0
 24 26  1  0  0  0
 26 29  1  0  0  0
 26 28  1  0  0  0
 29 30  1  0  0  0
 30 31  1  0  0  0
 31 32  1  0  0  0
 31 33  1  0  0  0
 31 34  1  0  0  0
  7  8  1  0  0  0
  8  9  1  0  0  0
  9 10  1  0  0  0
  9 19  2  0  0  0
 10 11  2  0  0  0
 11 12  1  0  0  0
 11 17  1  0  0  0
 12 13  2  0  0  0
 13 14  1  0  0  0
 14 15  1  0  0  0
 14 16  2  0  0  0
 15 21  1  0  0  0
 15 22  1  0  0  0
 16 17  1  0  0  0
 17 18  2  0  0  0
 18 19  1  0  0  0
 19 20  1  0  0  0
M  END
> <minimizedAffinity>
-9.41461

$$$$
