CHEMBL195218


 40 42  0  0  0  0  0  0  0  0999 V2000
  -15.1258    3.0114  -15.9698 C   0  0  0  0  0  0  0  0  0  0  0  0
  -16.0289    3.9287  -16.1923 N   0  0  0  0  0  0  0  0  0  0  0  0
  -17.3319    3.7187  -15.8491 C   0  0  0  0  0  0  0  0  0  0  0  0
  -17.8188    2.6523  -15.3127 N   0  0  0  0  0  0  0  0  0  0  0  0
  -16.9141    1.6906  -15.0938 N   0  0  0  0  0  0  0  0  0  0  0  0
  -17.2088    0.4650  -14.5797 C   0  0  0  0  0  0  0  0  0  0  0  0
  -16.0590   -0.2687  -14.4699 C   0  0  0  0  0  0  0  0  0  0  0  0
  -14.9766    0.5660  -14.9639 C   0  0  0  0  0  0  0  0  0  0  0  0
  -15.5720    1.7776  -15.3528 C   0  0  0  0  0  0  0  0  0  0  0  0
  -15.9928   -1.5554  -13.9607 N   0  0  0  0  0  0  0  0  0  0  0  0
  -15.6066   -1.9130  -12.6918 C   0  0  0  0  0  0  0  0  0  0  0  0
  -15.3411   -1.1971  -11.7406 O   0  0  0  0  0  0  0  0  0  0  0  0
  -16.1108   -2.3311  -14.5878 H   0  0  0  0  0  0  0  0  0  0  0  0
  -15.4511   -3.2729  -12.6584 O   0  0  0  0  0  0  0  0  0  0  0  0
  -16.4010   -3.9363  -11.8133 C   0  0  0  0  0  0  0  0  0  0  0  0
  -16.5827   -5.4197  -12.1104 C   0  0  0  0  0  0  0  0  0  0  0  0
  -15.2844   -6.2096  -12.0270 C   0  0  0  0  0  0  0  0  0  0  0  0
  -14.9138   -7.1003  -13.5364 S   0  0  0  0  0  0  0  0  0  0  0  0
  -13.2946   -6.5415  -14.0083 C   0  0  0  0  0  0  0  0  0  0  0  0
  -14.8010   -8.5044  -13.1913 O   0  0  0  0  0  0  0  0  0  0  0  0
  -15.8495   -6.6704  -14.5586 O   0  0  0  0  0  0  0  0  0  0  0  0
  -13.4972    0.2259  -15.0397 C   0  0  0  0  0  0  0  0  0  0  0  0
  -12.8052    0.4227  -13.6868 C   0  0  0  0  0  0  0  0  0  0  0  0
  -13.1788   -1.1638  -15.5902 C   0  0  0  0  0  0  0  0  0  0  0  0
  -13.8216    3.2808  -16.3319 N   0  0  0  0  0  0  0  0  0  0  0  0
  -13.2734    2.5506  -16.7653 H   0  0  0  0  0  0  0  0  0  0  0  0
  -12.5392    6.7616  -16.8862 C   0  0  0  0  0  0  0  0  0  0  0  0
  -13.1775    5.5302  -17.1047 C   0  0  0  0  0  0  0  0  0  0  0  0
  -13.1485    4.5086  -16.1433 C   0  0  0  0  0  0  0  0  0  0  0  0
  -12.4727    4.7717  -14.9414 C   0  0  0  0  0  0  0  0  0  0  0  0
  -12.4406    3.8332  -13.9843 F   0  0  0  0  0  0  0  0  0  0  0  0
  -11.8359    5.9888  -14.7074 C   0  0  0  0  0  0  0  0  0  0  0  0
  -11.8715    6.9779  -15.6820 C   0  0  0  0  0  0  0  0  0  0  0  0
  -11.2489    8.1415  -15.4424 F   0  0  0  0  0  0  0  0  0  0  0  0
  -13.8350    8.3832  -18.1477 N   0  0  0  0  0  0  0  0  0  0  0  0
  -12.6094    7.7839  -17.9596 C   0  0  0  0  0  0  0  0  0  0  0  0
  -11.6105    8.0020  -18.6393 O   0  0  0  0  0  0  0  0  0  0  0  0
  -14.5111    8.4419  -17.3919 H   0  0  0  0  0  0  0  0  0  0  0  0
  -14.9610    9.3152  -19.9215 C   0  0  0  0  0  0  0  0  0  0  0  0
  -13.8446    9.4744  -19.0489 O   0  0  0  0  0  0  0  0  0  0  0  0
 39 40  1  0  0  0
 40 35  1  0  0  0
 35 36  1  0  0  0
 35 38  1  0  0  0
 36 37  2  0  0  0
 36 27  1  0  0  0
 27 28  1  0  0  0
 27 33  2  0  0  0
 28 29  2  0  0  0
 29 25  1  0  0  0
 29 30  1  0  0  0
 25  1  1  0  0  0
 25 26  1  0  0  0
  1  2  2  0  0  0
  1  9  1  0  0  0
  2  3  1  0  0  0
  3  4  2  0  0  0
  4  5  1  0  0  0
  5  6  1  0  0  0
  5  9  1  0  0  0
  6  7  2  0  0  0
  7 10  1  0  0  0
  7  8  1  0  0  0
 10 11  1  0  0  0
 10 13  1  0  0  0
 11 12  2  0  0  0
 11 14  1  0  0  0
 14 15  1  0  0  0
 15 16  1  0  0  0
 16 17  1  0  0  0
 17 18  1  0  0  0
 18 19  1  0  0  0
 18 20  2  0  0  0
 18 21  2  0  0  0
  8 22  1  0  0  0
  8  9  2  0  0  0
 22 23  1  0  0  0
 22 24  1  0  0  0
 30 31  1  0  0  0
 30 32  2  0  0  0
 32 33  1  0  0  0
 33 34  1  0  0  0
M  END
> <minimizedAffinity>
-6.84391

$$$$
