CHEMBL2386818


 41 45  0  0  0  0  0  0  0  0999 V2000
  -26.0845   -1.4871  -11.1991 C   0  0  0  0  0  0  0  0  0  0  0  0
  -24.7566   -0.9941  -11.2415 C   0  0  0  0  0  0  0  0  0  0  0  0
  -24.4225   -0.8619  -12.5624 C   0  0  0  0  0  0  0  0  0  0  0  0
  -25.5417   -1.2650  -13.2421 N   0  0  0  0  0  0  0  0  0  0  0  0
  -26.5552   -1.6554  -12.4470 N   0  0  0  0  0  0  0  0  0  0  0  0
  -25.6932   -1.2989  -14.2432 H   0  0  0  0  0  0  0  0  0  0  0  0
  -28.2328   -2.3810   -7.6038 C   0  0  0  0  0  0  0  0  0  0  0  0
  -27.9306   -3.3796   -8.5179 C   0  0  0  0  0  0  0  0  0  0  0  0
  -27.2529   -3.0709   -9.6925 C   0  0  0  0  0  0  0  0  0  0  0  0
  -26.8652   -1.7543   -9.9870 C   0  0  0  0  0  0  0  0  0  0  0  0
  -27.2257   -0.7399   -9.0939 C   0  0  0  0  0  0  0  0  0  0  0  0
  -27.9180   -1.0512   -7.9149 C   0  0  0  0  0  0  0  0  0  0  0  0
  -29.5062   -2.3720   -4.1612 N   0  0  0  0  0  0  0  0  0  0  0  0
  -28.9982   -1.8103   -5.2986 C   0  0  0  0  0  0  0  0  0  0  0  0
  -28.6892   -0.6202   -5.2637 O   0  0  0  0  0  0  0  0  0  0  0  0
  -28.8540   -2.6514   -6.3776 N   0  0  0  0  0  0  0  0  0  0  0  0
  -29.5319   -1.7746   -3.3477 H   0  0  0  0  0  0  0  0  0  0  0  0
  -29.3307   -3.5474   -6.2933 H   0  0  0  0  0  0  0  0  0  0  0  0
  -29.3652   -7.4767   -3.6813 C   0  0  0  0  0  0  0  0  0  0  0  0
  -29.7735   -6.0576   -3.8102 C   0  0  0  0  0  0  0  0  0  0  0  0
  -31.0272   -5.5346   -4.0491 C   0  0  0  0  0  0  0  0  0  0  0  0
  -31.0811   -4.1673   -4.1930 N   0  0  0  0  0  0  0  0  0  0  0  0
  -29.8742   -3.6749   -4.0366 C   0  0  0  0  0  0  0  0  0  0  0  0
  -28.6326   -4.7788   -3.6757 S   0  0  0  0  0  0  0  0  0  0  0  0
  -23.2191   -0.4196  -13.1033 N   0  0  0  0  0  0  0  0  0  0  0  0
  -23.0395    0.9271  -13.5925 C   0  0  0  0  0  0  0  0  0  0  0  0
  -23.9362    1.7540  -13.5432 O   0  0  0  0  0  0  0  0  0  0  0  0
  -22.4376   -1.0588  -13.1071 H   0  0  0  0  0  0  0  0  0  0  0  0
  -21.7138    1.2965  -14.1275 C   0  0  0  0  0  0  0  0  0  0  0  0
  -21.2114    2.5917  -14.0437 C   0  0  0  0  0  0  0  0  0  0  0  0
  -19.9332    2.8602  -14.5416 C   0  0  0  0  0  0  0  0  0  0  0  0
  -19.1265    1.8633  -15.1199 C   0  0  0  0  0  0  0  0  0  0  0  0
  -19.6484    0.5692  -15.1766 C   0  0  0  0  0  0  0  0  0  0  0  0
  -20.9278    0.2826  -14.6883 C   0  0  0  0  0  0  0  0  0  0  0  0
  -17.8476    2.1771  -15.5304 N   0  0  0  0  0  0  0  0  0  0  0  0
  -17.3493    3.5626  -15.5748 C   0  0  0  0  0  0  0  0  0  0  0  0
  -16.2981    3.6829  -16.7085 C   0  0  0  0  0  0  0  0  0  0  0  0
  -15.1887    2.7084  -16.5743 N   0  0  0  0  0  0  0  0  0  0  0  0
  -14.2719    2.8138  -17.7071 C   0  0  0  0  0  0  0  0  0  0  0  0
  -15.7417    1.3377  -16.4865 C   0  0  0  0  0  0  0  0  0  0  0  0
  -16.7682    1.1894  -15.3427 C   0  0  0  0  0  0  0  0  0  0  0  0
 19 20  1  0  0  0
 20 21  2  0  0  0
 20 24  1  0  0  0
 21 22  1  0  0  0
 22 23  2  0  0  0
 23 13  1  0  0  0
 23 24  1  0  0  0
 13 14  1  0  0  0
 13 17  1  0  0  0
 14 15  2  0  0  0
 14 16  1  0  0  0
 16  7  1  0  0  0
 16 18  1  0  0  0
  7  8  1  0  0  0
  7 12  2  0  0  0
  8  9  2  0  0  0
  9 10  1  0  0  0
 10  1  1  0  0  0
 10 11  2  0  0  0
  1  2  1  0  0  0
  1  5  2  0  0  0
  2  3  2  0  0  0
  3 25  1  0  0  0
  3  4  1  0  0  0
 25 26  1  0  0  0
 25 28  1  0  0  0
 26 27  2  0  0  0
 26 29  1  0  0  0
 29 30  1  0  0  0
 29 34  2  0  0  0
 30 31  2  0  0  0
 31 32  1  0  0  0
 32 35  1  0  0  0
 32 33  2  0  0  0
 35 36  1  0  0  0
 35 41  1  0  0  0
 36 37  1  0  0  0
 37 38  1  0  0  0
 38 39  1  0  0  0
 38 40  1  0  0  0
 40 41  1  0  0  0
 33 34  1  0  0  0
  4  5  1  0  0  0
  4  6  1  0  0  0
 11 12  1  0  0  0
M  END
> <minimizedAffinity>
-10.38023

$$$$
