CHEMBL3945159


 35 38  0  0  0  0  0  0  0  0999 V2000
  -15.4447    1.5026  -15.4165 N   0  0  0  0  0  0  0  0  0  0  0  0
  -21.4219    1.4062  -14.0968 C   0  0  0  0  0  0  0  0  0  0  0  0
  -21.7078    2.7292  -14.4848 C   0  0  0  0  0  0  0  0  0  0  0  0
  -20.6969    3.5317  -14.9209 N   0  0  0  0  0  0  0  0  0  0  0  0
  -19.4126    3.0773  -14.9921 C   0  0  0  0  0  0  0  0  0  0  0  0
  -18.3856    3.8901  -15.4846 C   0  0  0  0  0  0  0  0  0  0  0  0
  -17.0844    3.3761  -15.5993 C   0  0  0  0  0  0  0  0  0  0  0  0
  -16.7773    2.0450  -15.2042 C   0  0  0  0  0  0  0  0  0  0  0  0
  -17.8258    1.2669  -14.6692 C   0  0  0  0  0  0  0  0  0  0  0  0
  -19.1256    1.7676  -14.5895 C   0  0  0  0  0  0  0  0  0  0  0  0
  -20.1337    0.9789  -14.1501 N   0  0  0  0  0  0  0  0  0  0  0  0
  -24.1999   -0.9060  -13.5426 N   0  0  0  0  0  0  0  0  0  0  0  0
  -23.5470   -0.0542  -14.3574 C   0  0  0  0  0  0  0  0  0  0  0  0
  -22.4648    0.4544  -13.6625 C   0  0  0  0  0  0  0  0  0  0  0  0
  -22.5300   -0.1365  -12.4131 C   0  0  0  0  0  0  0  0  0  0  0  0
  -23.5987   -0.9538  -12.3639 N   0  0  0  0  0  0  0  0  0  0  0  0
  -26.3914   -1.6254  -12.6833 C   0  0  0  0  0  0  0  0  0  0  0  0
  -25.4113   -1.6635  -13.8501 C   0  0  0  0  0  0  0  0  0  0  0  0
  -14.8684    1.5090  -16.7464 C   0  0  0  0  0  0  0  0  0  0  0  0
  -14.4687    2.7351  -17.3162 C   0  0  0  0  0  0  0  0  0  0  0  0
  -13.8398    2.7991  -18.5695 C   0  0  0  0  0  0  0  0  0  0  0  0
  -13.6036    1.6185  -19.2749 C   0  0  0  0  0  0  0  0  0  0  0  0
  -13.9846    0.3751  -18.7385 C   0  0  0  0  0  0  0  0  0  0  0  0
  -14.6115    0.3274  -17.4855 C   0  0  0  0  0  0  0  0  0  0  0  0
  -13.4298    3.9748  -19.1131 O   0  0  0  0  0  0  0  0  0  0  0  0
  -12.3401    4.1316  -19.9465 C   0  0  0  0  0  0  0  0  0  0  0  0
  -13.7469   -0.7965  -19.3846 O   0  0  0  0  0  0  0  0  0  0  0  0
  -13.1918   -1.9299  -18.8226 C   0  0  0  0  0  0  0  0  0  0  0  0
  -14.6147    1.0715  -14.2680 C   0  0  0  0  0  0  0  0  0  0  0  0
  -14.7450   -0.4372  -13.9828 C   0  0  0  0  0  0  0  0  0  0  0  0
  -15.1449   -0.7425  -12.5981 N   0  0  0  0  0  0  0  0  0  0  0  0
  -16.1197   -0.3866  -12.4446 H   0  0  0  0  0  0  0  0  0  0  0  0
  -15.1630   -2.2100  -12.3802 C   0  0  0  0  0  0  0  0  0  0  0  0
  -15.7905   -2.5804  -11.0229 C   0  0  0  0  0  0  0  0  0  0  0  0
  -15.9314   -2.9149  -13.5010 C   0  0  0  0  0  0  0  0  0  0  0  0
 17 18  1  0  0  0
 18 12  1  0  0  0
 12 13  1  0  0  0
 12 16  1  0  0  0
 13 14  2  0  0  0
 14  2  1  0  0  0
 14 15  1  0  0  0
  2  3  1  0  0  0
  2 11  2  0  0  0
  3  4  2  0  0  0
  4  5  1  0  0  0
  5  6  1  0  0  0
  5 10  2  0  0  0
  6  7  2  0  0  0
  7  8  1  0  0  0
  8  1  1  0  0  0
  8  9  2  0  0  0
  1 29  1  0  0  0
  1 19  1  0  0  0
 29 30  1  0  0  0
 30 31  1  0  0  0
 31 33  1  0  0  0
 31 32  1  0  0  0
 33 34  1  0  0  0
 33 35  1  0  0  0
 19 20  1  0  0  0
 19 24  2  0  0  0
 20 21  2  0  0  0
 21 25  1  0  0  0
 21 22  1  0  0  0
 25 26  1  0  0  0
 22 23  2  0  0  0
 23 27  1  0  0  0
 23 24  1  0  0  0
 27 28  1  0  0  0
  9 10  1  0  0  0
 10 11  1  0  0  0
 15 16  2  0  0  0
M  END
> <minimizedAffinity>
-8.28300

$$$$
