CHEMBL3297999


 23 25  0  0  0  0  0  0  0  0999 V2000
  -29.1521   -6.3269   -6.1008 N   0  0  0  0  0  0  0  0  0  0  0  0
  -29.8392   -7.2775   -6.9008 C   0  0  0  0  0  0  0  0  0  0  0  0
  -31.1689   -7.4959   -6.7115 N   0  0  0  0  0  0  0  0  0  0  0  0
  -31.8261   -8.4498   -7.4058 C   0  0  0  0  0  0  0  0  0  0  0  0
  -33.2602   -8.6756   -7.0282 C   0  0  0  0  0  0  0  0  0  0  0  0
  -31.3172   -9.2329   -8.3627 N   0  0  0  0  0  0  0  0  0  0  0  0
  -30.0178   -8.9805   -8.5716 C   0  0  0  0  0  0  0  0  0  0  0  0
  -29.2796   -9.6457   -9.5108 O   0  0  0  0  0  0  0  0  0  0  0  0
  -28.0167   -9.1401   -9.4623 C   0  0  0  0  0  0  0  0  0  0  0  0
  -27.0098   -9.6675  -10.4014 C   0  0  0  0  0  0  0  0  0  0  0  0
  -27.9411   -8.1580   -8.5059 C   0  0  0  0  0  0  0  0  0  0  0  0
  -29.2289   -8.0484   -7.9102 C   0  0  0  0  0  0  0  0  0  0  0  0
  -28.0293   -2.3744   -7.2578 C   0  0  0  0  0  0  0  0  0  0  0  0
  -28.4621   -3.2859   -8.2250 C   0  0  0  0  0  0  0  0  0  0  0  0
  -28.8763   -4.5840   -7.8457 C   0  0  0  0  0  0  0  0  0  0  0  0
  -28.8853   -4.9871   -6.4991 C   0  0  0  0  0  0  0  0  0  0  0  0
  -28.5273   -4.0191   -5.5509 C   0  0  0  0  0  0  0  0  0  0  0  0
  -28.0694   -2.7452   -5.9249 C   0  0  0  0  0  0  0  0  0  0  0  0
  -27.9858   -0.0918   -6.6067 C   0  0  0  0  0  0  0  0  0  0  0  0
  -27.5527   -1.1136   -7.4934 O   0  0  0  0  0  0  0  0  0  0  0  0
  -28.6375   -6.7659   -4.7681 C   0  0  0  0  0  0  0  0  0  0  0  0
  -29.7517   -6.8817   -3.7209 C   0  0  0  0  0  0  0  0  0  0  0  0
  -27.7998   -8.0483   -4.8204 C   0  0  0  0  0  0  0  0  0  0  0  0
 19 20  1  0  0  0
 20 13  1  0  0  0
 13 14  1  0  0  0
 13 18  2  0  0  0
 14 15  2  0  0  0
 15 16  1  0  0  0
 16  1  1  0  0  0
 16 17  2  0  0  0
  1  2  1  0  0  0
  1 21  1  0  0  0
  2  3  1  0  0  0
  2 12  2  0  0  0
  3  4  2  0  0  0
  4  5  1  0  0  0
  4  6  1  0  0  0
  6  7  2  0  0  0
  7  8  1  0  0  0
  7 12  1  0  0  0
  8  9  1  0  0  0
  9 10  1  0  0  0
  9 11  2  0  0  0
 11 12  1  0  0  0
 21 22  1  0  0  0
 21 23  1  0  0  0
 17 18  1  0  0  0
M  END
> <minimizedAffinity>
-7.29112

$$$$
