CHEMBL2086724


 29 33  0  0  0  0  0  0  0  0999 V2000
  -29.9090   -6.9338   -7.6621 O   0  0  0  0  0  0  0  0  0  0  0  0
  -29.1207   -7.8290   -7.8946 C   0  0  0  0  0  0  0  0  0  0  0  0
  -28.8438   -8.3395   -9.1490 N   0  0  0  0  0  0  0  0  0  0  0  0
  -28.0385   -9.4659   -9.0753 C   0  0  0  0  0  0  0  0  0  0  0  0
  -27.6399  -10.2443  -10.1466 C   0  0  0  0  0  0  0  0  0  0  0  0
  -26.8715  -11.3725   -9.8671 C   0  0  0  0  0  0  0  0  0  0  0  0
  -26.5331  -11.6910   -8.5431 C   0  0  0  0  0  0  0  0  0  0  0  0
  -26.9445  -10.8795   -7.4756 C   0  0  0  0  0  0  0  0  0  0  0  0
  -27.6984   -9.7488   -7.7465 C   0  0  0  0  0  0  0  0  0  0  0  0
  -28.3177   -8.6813   -6.9233 C   0  0  0  0  0  0  0  0  0  0  0  0
  -28.2116   -8.4153   -5.5994 C   0  0  0  0  0  0  0  0  0  0  0  0
  -29.2558   -7.9598   -9.9872 H   0  0  0  0  0  0  0  0  0  0  0  0
  -28.8419   -7.2555   -5.0555 C   0  0  0  0  0  0  0  0  0  0  0  0
  -28.3447   -6.0734   -4.7481 N   0  0  0  0  0  0  0  0  0  0  0  0
  -29.4019   -5.3473   -4.2510 C   0  0  0  0  0  0  0  0  0  0  0  0
  -29.4536   -4.0151   -3.8150 C   0  0  0  0  0  0  0  0  0  0  0  0
  -30.6709   -3.5087   -3.3389 C   0  0  0  0  0  0  0  0  0  0  0  0
  -31.8115   -4.3143   -3.2895 C   0  0  0  0  0  0  0  0  0  0  0  0
  -31.7800   -5.6457   -3.7201 C   0  0  0  0  0  0  0  0  0  0  0  0
  -30.5569   -6.1192   -4.1998 C   0  0  0  0  0  0  0  0  0  0  0  0
  -30.1723   -7.3288   -4.7169 N   0  0  0  0  0  0  0  0  0  0  0  0
  -30.7710   -8.1278   -4.8534 H   0  0  0  0  0  0  0  0  0  0  0  0
  -27.3667   -9.2495   -4.7148 C   0  0  0  0  0  0  0  0  0  0  0  0
  -27.8867  -10.4300   -4.1600 C   0  0  0  0  0  0  0  0  0  0  0  0
  -27.0920  -11.2280   -3.3352 C   0  0  0  0  0  0  0  0  0  0  0  0
  -25.7797  -10.8502   -3.0763 C   0  0  0  0  0  0  0  0  0  0  0  0
  -25.0174  -11.6131   -2.2823 F   0  0  0  0  0  0  0  0  0  0  0  0
  -25.2436   -9.6918   -3.6293 C   0  0  0  0  0  0  0  0  0  0  0  0
  -26.0352   -8.8897   -4.4534 C   0  0  0  0  0  0  0  0  0  0  0  0
  1  2  2  0  0  0
  2  3  1  0  0  0
  2 10  1  0  0  0
  3  4  1  0  0  0
  3 12  1  0  0  0
  4  5  1  0  0  0
  4  9  2  0  0  0
  5  6  2  0  0  0
  6  7  1  0  0  0
  7  8  2  0  0  0
  8  9  1  0  0  0
  9 10  1  0  0  0
 10 11  2  0  0  0
 11 23  1  0  0  0
 11 13  1  0  0  0
 23 24  1  0  0  0
 23 29  2  0  0  0
 24 25  2  0  0  0
 25 26  1  0  0  0
 26 27  1  0  0  0
 26 28  2  0  0  0
 28 29  1  0  0  0
 13 14  2  0  0  0
 13 21  1  0  0  0
 14 15  1  0  0  0
 15 16  1  0  0  0
 15 20  2  0  0  0
 16 17  2  0  0  0
 17 18  1  0  0  0
 18 19  2  0  0  0
 19 20  1  0  0  0
 20 21  1  0  0  0
 21 22  1  0  0  0
M  END
> <minimizedAffinity>
-8.89981

$$$$
