CHEMBL4638817


 40 44  0  0  0  0  0  0  0  0999 V2000
  -14.2205    4.1937  -17.8052 C   0  0  0  0  0  0  0  0  0  0  0  0
  -15.5657    3.8319  -17.5704 C   0  0  0  0  0  0  0  0  0  0  0  0
  -15.9280    3.0330  -16.4642 C   0  0  0  0  0  0  0  0  0  0  0  0
  -14.9352    2.5877  -15.6050 C   0  0  0  0  0  0  0  0  0  0  0  0
  -13.6106    2.9755  -15.8520 C   0  0  0  0  0  0  0  0  0  0  0  0
  -13.2275    3.7658  -16.9180 C   0  0  0  0  0  0  0  0  0  0  0  0
  -12.7466    2.4152  -14.9171 N   0  0  0  0  0  0  0  0  0  0  0  0
  -13.4241    1.6066  -14.0242 C   0  0  0  0  0  0  0  0  0  0  0  0
  -12.9347    0.8607  -13.2000 O   0  0  0  0  0  0  0  0  0  0  0  0
  -14.8875    1.7425  -14.3892 C   0  0  0  0  0  0  0  0  0  0  0  0
  -15.8203    1.1082  -13.6389 C   0  0  0  0  0  0  0  0  0  0  0  0
  -11.7413    2.4897  -14.9304 H   0  0  0  0  0  0  0  0  0  0  0  0
  -17.1924    0.9533  -14.1694 C   0  0  0  0  0  0  0  0  0  0  0  0
  -18.1653    1.8966  -13.7996 C   0  0  0  0  0  0  0  0  0  0  0  0
  -19.4632    1.8120  -14.3046 C   0  0  0  0  0  0  0  0  0  0  0  0
  -19.7938    0.7955  -15.1984 C   0  0  0  0  0  0  0  0  0  0  0  0
  -18.8396   -0.1496  -15.5666 C   0  0  0  0  0  0  0  0  0  0  0  0
  -17.5508   -0.0857  -15.0327 C   0  0  0  0  0  0  0  0  0  0  0  0
  -13.7829    4.9918  -18.9860 C   0  0  0  0  0  0  0  0  0  0  0  0
  -13.2569    4.4932  -19.9691 O   0  0  0  0  0  0  0  0  0  0  0  0
  -14.6120    6.9360  -19.9798 C   0  0  0  0  0  0  0  0  0  0  0  0
  -14.0542    6.3098  -18.8194 O   0  0  0  0  0  0  0  0  0  0  0  0
  -15.5690    0.3624  -12.4664 N   0  0  0  0  0  0  0  0  0  0  0  0
  -16.3448    0.5326  -11.8109 H   0  0  0  0  0  0  0  0  0  0  0  0
  -15.4312   -1.0635  -12.5050 C   0  0  0  0  0  0  0  0  0  0  0  0
  -16.0056   -1.9192  -11.5690 C   0  0  0  0  0  0  0  0  0  0  0  0
  -15.7867   -3.3026  -11.6136 C   0  0  0  0  0  0  0  0  0  0  0  0
  -15.0211   -3.8500  -12.6406 C   0  0  0  0  0  0  0  0  0  0  0  0
  -14.5391   -3.0477  -13.6255 N   0  0  0  0  0  0  0  0  0  0  0  0
  -14.7725   -1.7044  -13.5503 C   0  0  0  0  0  0  0  0  0  0  0  0
  -14.6298   -5.2369  -12.6056 N   0  0  0  0  0  0  0  0  0  0  0  0
  -15.3665   -6.2886  -13.1799 C   0  0  0  0  0  0  0  0  0  0  0  0
  -16.6437   -6.1704  -13.9462 C   0  0  0  0  0  0  0  0  0  0  0  0
  -14.6687   -7.4698  -13.0112 C   0  0  0  0  0  0  0  0  0  0  0  0
  -13.4850   -7.1748  -12.3323 C   0  0  0  0  0  0  0  0  0  0  0  0
  -13.4626   -5.8135  -12.0649 C   0  0  0  0  0  0  0  0  0  0  0  0
  -12.3829   -5.1466  -11.2570 C   0  0  0  0  0  0  0  0  0  0  0  0
  -12.3502   -5.5463   -9.8452 N   0  0  0  0  0  0  0  0  0  0  0  0
  -11.1694   -5.0091   -9.1572 C   0  0  0  0  0  0  0  0  0  0  0  0
  -13.5553   -5.0697   -9.1584 C   0  0  0  0  0  0  0  0  0  0  0  0
 21 22  1  0  0  0
 22 19  1  0  0  0
 19 20  2  0  0  0
 19  1  1  0  0  0
  1  2  1  0  0  0
  1  6  2  0  0  0
  2  3  2  0  0  0
  3  4  1  0  0  0
  4  5  2  0  0  0
  4 10  1  0  0  0
  5  6  1  0  0  0
  5  7  1  0  0  0
  7  8  1  0  0  0
  7 12  1  0  0  0
  8  9  2  0  0  0
  8 10  1  0  0  0
 10 11  2  0  0  0
 11 23  1  0  0  0
 11 13  1  0  0  0
 23 25  1  0  0  0
 23 24  1  0  0  0
 25 26  1  0  0  0
 25 30  2  0  0  0
 26 27  2  0  0  0
 27 28  1  0  0  0
 28 31  1  0  0  0
 28 29  2  0  0  0
 31 32  1  0  0  0
 31 36  1  0  0  0
 32 33  1  0  0  0
 32 34  2  0  0  0
 34 35  1  0  0  0
 35 36  2  0  0  0
 36 37  1  0  0  0
 37 38  1  0  0  0
 38 39  1  0  0  0
 38 40  1  0  0  0
 29 30  1  0  0  0
 13 14  1  0  0  0
 13 18  2  0  0  0
 14 15  2  0  0  0
 15 16  1  0  0  0
 16 17  2  0  0  0
 17 18  1  0  0  0
M  END
> <minimizedAffinity>
-7.14154

$$$$
