CHEMBL452570


 28 31  0  0  0  0  0  0  0  0999 V2000
  -16.3535    2.7670  -15.8073 C   0  0  0  0  0  0  0  0  0  0  0  0
  -15.0357    2.4192  -15.4700 C   0  0  0  0  0  0  0  0  0  0  0  0
  -14.7043    1.2183  -14.8448 C   0  0  0  0  0  0  0  0  0  0  0  0
  -13.3991    0.9144  -14.7196 N   0  0  0  0  0  0  0  0  0  0  0  0
  -13.0738   -0.2880  -14.2138 C   0  0  0  0  0  0  0  0  0  0  0  0
  -14.0123   -1.2369  -13.8191 C   0  0  0  0  0  0  0  0  0  0  0  0
  -15.3626   -0.9197  -13.9572 C   0  0  0  0  0  0  0  0  0  0  0  0
  -15.7385    0.3673  -14.4174 C   0  0  0  0  0  0  0  0  0  0  0  0
  -17.0506    0.8644  -14.5277 C   0  0  0  0  0  0  0  0  0  0  0  0
  -17.3873    1.9781  -15.3099 C   0  0  0  0  0  0  0  0  0  0  0  0
  -15.4653    4.4951  -17.1632 C   0  0  0  0  0  0  0  0  0  0  0  0
  -16.6179    3.8578  -16.5911 O   0  0  0  0  0  0  0  0  0  0  0  0
  -18.7360    2.0186  -15.4917 O   0  0  0  0  0  0  0  0  0  0  0  0
  -19.5912    0.9640  -15.1081 C   0  0  0  0  0  0  0  0  0  0  0  0
  -16.1993   -1.9671  -13.5880 O   0  0  0  0  0  0  0  0  0  0  0  0
  -15.9032   -2.7637  -12.5073 C   0  0  0  0  0  0  0  0  0  0  0  0
  -15.7762   -2.3056  -11.1948 C   0  0  0  0  0  0  0  0  0  0  0  0
  -15.1731   -3.1074  -10.2161 C   0  0  0  0  0  0  0  0  0  0  0  0
  -14.8097   -4.4279  -10.5399 C   0  0  0  0  0  0  0  0  0  0  0  0
  -14.1455   -5.4985   -9.8859 C   0  0  0  0  0  0  0  0  0  0  0  0
  -13.6263   -5.4325   -8.6561 N   0  0  0  0  0  0  0  0  0  0  0  0
  -14.0869   -6.5914  -10.6389 N   0  0  0  0  0  0  0  0  0  0  0  0
  -14.6816   -6.2232  -11.7888 N   0  0  0  0  0  0  0  0  0  0  0  0
  -14.7928   -7.1792  -12.8639 C   0  0  0  0  0  0  0  0  0  0  0  0
  -15.1004   -4.9158  -11.8116 C   0  0  0  0  0  0  0  0  0  0  0  0
  -15.6559   -4.1121  -12.8188 C   0  0  0  0  0  0  0  0  0  0  0  0
  -13.6883   -4.6176   -8.0635 H   0  0  0  0  0  0  0  0  0  0  0  0
  -13.2132   -6.2624   -8.2510 H   0  0  0  0  0  0  0  0  0  0  0  0
 11 12  1  0  0  0
 12  1  1  0  0  0
  1  2  1  0  0  0
  1 10  2  0  0  0
  2  3  2  0  0  0
  3  4  1  0  0  0
  3  8  1  0  0  0
  4  5  2  0  0  0
  5  6  1  0  0  0
  6  7  2  0  0  0
  7 15  1  0  0  0
  7  8  1  0  0  0
 15 16  1  0  0  0
 16 17  1  0  0  0
 16 26  2  0  0  0
 17 18  2  0  0  0
 18 19  1  0  0  0
 19 20  1  0  0  0
 19 25  2  0  0  0
 20 21  1  0  0  0
 20 22  2  0  0  0
 21 27  1  0  0  0
 21 28  1  0  0  0
 22 23  1  0  0  0
 23 24  1  0  0  0
 23 25  1  0  0  0
 25 26  1  0  0  0
  8  9  2  0  0  0
  9 10  1  0  0  0
 10 13  1  0  0  0
 13 14  1  0  0  0
M  END
> <minimizedAffinity>
-7.53245

$$$$
