CHEMBL3919730


 38 42  0  0  0  0  0  0  0  0999 V2000
  -16.8603    1.9516  -15.5823 N   0  0  0  0  0  0  0  0  0  0  0  0
  -18.3092    1.8145  -15.5646 C   0  0  0  0  0  0  0  0  0  0  0  0
  -18.9930    2.9990  -15.8035 C   0  0  0  0  0  0  0  0  0  0  0  0
  -20.2378    3.2138  -15.2715 C   0  0  0  0  0  0  0  0  0  0  0  0
  -20.9421    2.2069  -14.6655 C   0  0  0  0  0  0  0  0  0  0  0  0
  -22.0448    2.6212  -14.0351 N   0  0  0  0  0  0  0  0  0  0  0  0
  -22.8971    1.6799  -13.6214 C   0  0  0  0  0  0  0  0  0  0  0  0
  -22.6986    0.3458  -13.9032 C   0  0  0  0  0  0  0  0  0  0  0  0
  -21.4905   -0.0978  -14.4206 N   0  0  0  0  0  0  0  0  0  0  0  0
  -20.5147    0.8619  -14.7554 C   0  0  0  0  0  0  0  0  0  0  0  0
  -19.1142    0.7113  -15.1568 C   0  0  0  0  0  0  0  0  0  0  0  0
  -23.9020   -0.4907  -13.8309 C   0  0  0  0  0  0  0  0  0  0  0  0
  -24.7283   -0.9593  -14.8891 C   0  0  0  0  0  0  0  0  0  0  0  0
  -25.9039   -1.4442  -14.4670 N   0  0  0  0  0  0  0  0  0  0  0  0
  -25.8536   -1.2739  -13.1360 N   0  0  0  0  0  0  0  0  0  0  0  0
  -26.8562   -1.8723  -12.2836 C   0  0  0  0  0  0  0  0  0  0  0  0
  -24.7477   -0.5722  -12.7321 C   0  0  0  0  0  0  0  0  0  0  0  0
  -15.3539   -0.4049  -13.0854 C   0  0  0  0  0  0  0  0  0  0  0  0
  -14.2197   -0.8402  -13.7678 C   0  0  0  0  0  0  0  0  0  0  0  0
  -13.9021   -0.3021  -15.0097 C   0  0  0  0  0  0  0  0  0  0  0  0
  -14.7319    0.6775  -15.5753 C   0  0  0  0  0  0  0  0  0  0  0  0
  -15.8926    1.1358  -14.9329 C   0  0  0  0  0  0  0  0  0  0  0  0
  -16.1695    0.5933  -13.6616 C   0  0  0  0  0  0  0  0  0  0  0  0
  -15.5646   -2.3128  -11.6496 C   0  0  0  0  0  0  0  0  0  0  0  0
  -15.7711   -0.9126  -11.8729 O   0  0  0  0  0  0  0  0  0  0  0  0
  -12.8339   -0.6734  -15.7825 O   0  0  0  0  0  0  0  0  0  0  0  0
  -13.1230   -1.3714  -16.9881 C   0  0  0  0  0  0  0  0  0  0  0  0
  -16.5604    3.4437  -15.6207 C   0  0  0  0  0  0  0  0  0  0  0  0
  -15.8901    4.0904  -16.8571 C   0  0  0  0  0  0  0  0  0  0  0  0
  -14.3607    3.9525  -17.0477 C   0  0  0  0  0  0  0  0  0  0  0  0
  -13.6349    4.1785  -15.7693 N   0  0  0  0  0  0  0  0  0  0  0  0
  -13.1044    5.5384  -15.5963 C   0  0  0  0  0  0  0  0  0  0  0  0
  -11.8734    5.4270  -14.6929 C   0  0  0  0  0  0  0  0  0  0  0  0
  -11.7073    3.9391  -14.4029 C   0  0  0  0  0  0  0  0  0  0  0  0
  -12.2577    3.5963  -13.0825 N   0  0  0  0  0  0  0  0  0  0  0  0
  -12.4844    3.2813  -15.5612 C   0  0  0  0  0  0  0  0  0  0  0  0
  -13.2622    3.7791  -13.1084 H   0  0  0  0  0  0  0  0  0  0  0  0
  -11.8763    4.2253  -12.3738 H   0  0  0  0  0  0  0  0  0  0  0  0
 24 25  1  0  0  0
 25 18  1  0  0  0
 18 19  1  0  0  0
 18 23  2  0  0  0
 19 20  2  0  0  0
 20 26  1  0  0  0
 20 21  1  0  0  0
 26 27  1  0  0  0
 21 22  2  0  0  0
 22  1  1  0  0  0
 22 23  1  0  0  0
  1 28  1  0  0  0
  1  2  1  0  0  0
 28 29  1  0  0  0
 29 30  1  0  0  0
 30 31  1  0  0  0
 31 32  1  0  0  0
 31 36  1  0  0  0
 32 33  1  0  0  0
 33 34  1  0  0  0
 34 35  1  0  0  0
 34 36  1  0  0  0
 35 37  1  0  0  0
 35 38  1  0  0  0
  2  3  1  0  0  0
  2 11  2  0  0  0
  3  4  2  0  0  0
  4  5  1  0  0  0
  5  6  1  0  0  0
  5 10  2  0  0  0
  6  7  2  0  0  0
  7  8  1  0  0  0
  8 12  1  0  0  0
  8  9  2  0  0  0
 12 13  1  0  0  0
 12 17  2  0  0  0
 13 14  2  0  0  0
 14 15  1  0  0  0
 15 16  1  0  0  0
 15 17  1  0  0  0
  9 10  1  0  0  0
 10 11  1  0  0  0
M  END
> <minimizedAffinity>
-8.82715

$$$$
