CHEMBL3893698


 21 23  0  0  0  0  0  0  0  0999 V2000
  -26.9271   -2.3787   -9.7964 N   0  0  0  0  0  0  0  0  0  0  0  0
  -26.1543   -3.0105   -9.5705 H   0  0  0  0  0  0  0  0  0  0  0  0
  -26.7473   -2.1242  -11.1776 C   0  0  0  0  0  0  0  0  0  0  0  0
  -27.8941   -2.1719  -11.9031 N   0  0  0  0  0  0  0  0  0  0  0  0
  -27.8919   -1.9153  -13.2380 N   0  0  0  0  0  0  0  0  0  0  0  0
  -26.7264   -1.6185  -13.8385 C   0  0  0  0  0  0  0  0  0  0  0  0
  -25.5166   -1.5398  -13.1642 C   0  0  0  0  0  0  0  0  0  0  0  0
  -24.3220   -1.2356  -13.8466 C   0  0  0  0  0  0  0  0  0  0  0  0
  -23.1087   -1.1594  -13.1657 C   0  0  0  0  0  0  0  0  0  0  0  0
  -23.0788   -1.3612  -11.7938 C   0  0  0  0  0  0  0  0  0  0  0  0
  -24.2623   -1.6502  -11.1100 C   0  0  0  0  0  0  0  0  0  0  0  0
  -25.5090   -1.7775  -11.7745 C   0  0  0  0  0  0  0  0  0  0  0  0
  -28.2877   -2.6205   -7.2629 N   0  0  0  0  0  0  0  0  0  0  0  0
  -28.7833   -2.4535   -5.9823 C   0  0  0  0  0  0  0  0  0  0  0  0
  -29.2413   -3.3504   -5.2806 O   0  0  0  0  0  0  0  0  0  0  0  0
  -28.7032   -1.0314   -5.5028 C   0  0  0  0  0  0  0  0  0  0  0  0
  -27.9249   -0.0997   -6.8219 S   0  0  0  0  0  0  0  0  0  0  0  0
  -27.7145   -1.5134   -7.8331 C   0  0  0  0  0  0  0  0  0  0  0  0
  -27.0950   -1.3326   -8.9549 N   0  0  0  0  0  0  0  0  0  0  0  0
  -29.8207   -4.4174   -8.0185 C   0  0  0  0  0  0  0  0  0  0  0  0
  -28.3820   -3.9475   -7.8631 C   0  0  0  0  0  0  0  0  0  0  0  0
 20 21  1  0  0  0
 21 13  1  0  0  0
 13 14  1  0  0  0
 13 18  1  0  0  0
 14 15  2  0  0  0
 14 16  1  0  0  0
 16 17  1  0  0  0
 17 18  1  0  0  0
 18 19  2  0  0  0
 19  1  1  0  0  0
  1  3  1  0  0  0
  1  2  1  0  0  0
  3  4  1  0  0  0
  3 12  2  0  0  0
  4  5  2  0  0  0
  5  6  1  0  0  0
  6  7  2  0  0  0
  7  8  1  0  0  0
  7 12  1  0  0  0
  8  9  2  0  0  0
  9 10  1  0  0  0
 10 11  2  0  0  0
 11 12  1  0  0  0
M  END
> <minimizedAffinity>
-7.88527

$$$$
