CHEMBL2004033


 12 13  0  0  0  0  0  0  0  0999 V2000
  -20.3124    3.9972  -14.9430 O   0  0  0  0  0  0  0  0  0  0  0  0
  -20.9832    3.0463  -14.5804 C   0  0  0  0  0  0  0  0  0  0  0  0
  -22.2687    3.0972  -14.0635 N   0  0  0  0  0  0  0  0  0  0  0  0
  -22.6665    1.8244  -13.7796 N   0  0  0  0  0  0  0  0  0  0  0  0
  -23.8608    1.3947  -13.2565 C   0  0  0  0  0  0  0  0  0  0  0  0
  -24.0843    0.0838  -13.0428 C   0  0  0  0  0  0  0  0  0  0  0  0
  -23.0333   -0.8760  -13.3770 C   0  0  0  0  0  0  0  0  0  0  0  0
  -21.8553   -0.4647  -13.8927 C   0  0  0  0  0  0  0  0  0  0  0  0
  -21.6377    0.9537  -14.1153 C   0  0  0  0  0  0  0  0  0  0  0  0
  -20.5748    1.6041  -14.6090 C   0  0  0  0  0  0  0  0  0  0  0  0
  -18.9573    1.0028  -15.2098 Br  0  0  0  0  0  0  0  0  0  0  0  0
  -22.8340    3.9181  -13.9105 H   0  0  0  0  0  0  0  0  0  0  0  0
  1  2  2  0  0  0
  2  3  1  0  0  0
  2 10  1  0  0  0
  3  4  1  0  0  0
  3 12  1  0  0  0
  4  5  1  0  0  0
  4  9  1  0  0  0
  5  6  2  0  0  0
  6  7  1  0  0  0
  7  8  2  0  0  0
  8  9  1  0  0  0
  9 10  2  0  0  0
 10 11  1  0  0  0
M  END
> <minimizedAffinity>
-5.55878

$$$$
