CHEMBL429455


 30 32  0  0  0  0  0  0  0  0999 V2000
  -28.7650   -2.2549   -5.0458 C   0  0  0  0  0  0  0  0  0  0  0  0
  -28.3217   -2.0463   -6.4372 C   0  0  0  0  0  0  0  0  0  0  0  0
  -27.6349   -0.9416   -6.7455 N   0  0  0  0  0  0  0  0  0  0  0  0
  -27.2585   -1.0872   -8.0615 O   0  0  0  0  0  0  0  0  0  0  0  0
  -27.7224   -2.2683   -8.5534 C   0  0  0  0  0  0  0  0  0  0  0  0
  -28.4456   -2.9109   -7.5663 C   0  0  0  0  0  0  0  0  0  0  0  0
  -29.0477   -4.2221   -7.6883 C   0  0  0  0  0  0  0  0  0  0  0  0
  -30.2219   -4.3349   -8.0469 O   0  0  0  0  0  0  0  0  0  0  0  0
  -28.2490   -5.2927   -7.3009 N   0  0  0  0  0  0  0  0  0  0  0  0
  -27.5180   -5.0852   -6.6308 H   0  0  0  0  0  0  0  0  0  0  0  0
  -28.7490   -6.6153   -7.3228 C   0  0  0  0  0  0  0  0  0  0  0  0
  -28.5112   -7.4630   -8.4104 C   0  0  0  0  0  0  0  0  0  0  0  0
  -29.0765   -8.7437   -8.4598 C   0  0  0  0  0  0  0  0  0  0  0  0
  -29.8730   -9.1950   -7.4117 C   0  0  0  0  0  0  0  0  0  0  0  0
  -30.1137   -8.3422   -6.3278 C   0  0  0  0  0  0  0  0  0  0  0  0
  -29.5263   -7.0731   -6.2606 C   0  0  0  0  0  0  0  0  0  0  0  0
  -30.5117  -10.3946   -7.3432 O   0  0  0  0  0  0  0  0  0  0  0  0
  -31.8502  -10.5146   -7.8051 C   0  0  0  0  0  0  0  0  0  0  0  0
  -32.2700   -9.4816   -8.5642 F   0  0  0  0  0  0  0  0  0  0  0  0
  -31.9388  -11.6361   -8.5566 F   0  0  0  0  0  0  0  0  0  0  0  0
  -32.6829  -10.6511   -6.7506 F   0  0  0  0  0  0  0  0  0  0  0  0
  -27.4328   -2.5765   -9.8421 N   0  0  0  0  0  0  0  0  0  0  0  0
  -26.7175   -3.2758  -10.0386 H   0  0  0  0  0  0  0  0  0  0  0  0
  -27.6667   -1.6206  -10.9177 C   0  0  0  0  0  0  0  0  0  0  0  0
  -26.4827   -1.4035  -11.8323 C   0  0  0  0  0  0  0  0  0  0  0  0
  -25.2568   -0.8649  -11.4254 C   0  0  0  0  0  0  0  0  0  0  0  0
  -24.2404   -0.7243  -12.3602 C   0  0  0  0  0  0  0  0  0  0  0  0
  -24.3507   -1.0819  -13.6581 N   0  0  0  0  0  0  0  0  0  0  0  0
  -25.5357   -1.5992  -14.0385 C   0  0  0  0  0  0  0  0  0  0  0  0
  -26.6093   -1.7767  -13.1795 C   0  0  0  0  0  0  0  0  0  0  0  0
  1  2  1  0  0  0
  2  3  2  0  0  0
  2  6  1  0  0  0
  3  4  1  0  0  0
  4  5  1  0  0  0
  5 22  1  0  0  0
  5  6  2  0  0  0
 22 24  1  0  0  0
 22 23  1  0  0  0
 24 25  1  0  0  0
 25 26  1  0  0  0
 25 30  2  0  0  0
 26 27  2  0  0  0
 27 28  1  0  0  0
 28 29  2  0  0  0
 29 30  1  0  0  0
  6  7  1  0  0  0
  7  8  2  0  0  0
  7  9  1  0  0  0
  9 11  1  0  0  0
  9 10  1  0  0  0
 11 12  1  0  0  0
 11 16  2  0  0  0
 12 13  2  0  0  0
 13 14  1  0  0  0
 14 17  1  0  0  0
 14 15  2  0  0  0
 17 18  1  0  0  0
 18 19  1  0  0  0
 18 20  1  0  0  0
 18 21  1  0  0  0
 15 16  1  0  0  0
M  END
> <minimizedAffinity>
-8.43286

$$$$
