CHEMBL4091741


 33 36  0  0  0  0  0  0  0  0999 V2000
  -28.3362   -2.3586   -8.0406 C   0  0  0  0  0  0  0  0  0  0  0  0
  -27.8980   -2.2437   -6.7204 C   0  0  0  0  0  0  0  0  0  0  0  0
  -28.1428   -3.2688   -5.7993 C   0  0  0  0  0  0  0  0  0  0  0  0
  -28.8512   -4.4279   -6.1620 C   0  0  0  0  0  0  0  0  0  0  0  0
  -29.4152   -4.4410   -7.4478 C   0  0  0  0  0  0  0  0  0  0  0  0
  -29.1461   -3.4340   -8.3889 C   0  0  0  0  0  0  0  0  0  0  0  0
  -28.9838   -5.5643   -5.2257 C   0  0  0  0  0  0  0  0  0  0  0  0
  -28.1240   -6.6856   -5.3125 C   0  0  0  0  0  0  0  0  0  0  0  0
  -28.2800   -7.7608   -4.4491 C   0  0  0  0  0  0  0  0  0  0  0  0
  -27.4689   -8.8556   -4.5467 O   0  0  0  0  0  0  0  0  0  0  0  0
  -29.1942   -7.8467   -3.4782 N   0  0  0  0  0  0  0  0  0  0  0  0
  -30.0024   -6.7762   -3.4223 C   0  0  0  0  0  0  0  0  0  0  0  0
  -31.0201   -6.6308   -2.5332 N   0  0  0  0  0  0  0  0  0  0  0  0
  -31.7132   -5.4940   -2.6814 N   0  0  0  0  0  0  0  0  0  0  0  0
  -31.1239   -4.8940   -3.7295 C   0  0  0  0  0  0  0  0  0  0  0  0
  -31.7192   -3.6155   -4.1975 C   0  0  0  0  0  0  0  0  0  0  0  0
  -29.9940   -5.6365   -4.2228 C   0  0  0  0  0  0  0  0  0  0  0  0
  -26.8884   -8.7398   -5.3119 H   0  0  0  0  0  0  0  0  0  0  0  0
  -31.2885   -7.2864   -1.8108 H   0  0  0  0  0  0  0  0  0  0  0  0
  -26.7268   -0.8217  -10.9098 N   0  0  0  0  0  0  0  0  0  0  0  0
  -27.0723   -1.8528  -10.0532 C   0  0  0  0  0  0  0  0  0  0  0  0
  -26.7394   -3.0260  -10.1812 O   0  0  0  0  0  0  0  0  0  0  0  0
  -27.9281   -1.4318   -9.0351 N   0  0  0  0  0  0  0  0  0  0  0  0
  -27.1866    0.0642  -10.7636 H   0  0  0  0  0  0  0  0  0  0  0  0
  -28.6284   -0.7675   -9.3303 H   0  0  0  0  0  0  0  0  0  0  0  0
  -22.3967    0.2057  -13.0630 C   0  0  0  0  0  0  0  0  0  0  0  0
  -23.7661   -0.4008  -13.1337 C   0  0  0  0  0  0  0  0  0  0  0  0
  -24.2068   -0.9894  -14.3250 C   0  0  0  0  0  0  0  0  0  0  0  0
  -25.4629   -1.5820  -14.3827 C   0  0  0  0  0  0  0  0  0  0  0  0
  -26.2929   -1.5758  -13.2639 C   0  0  0  0  0  0  0  0  0  0  0  0
  -27.4233   -2.2823  -13.3751 F   0  0  0  0  0  0  0  0  0  0  0  0
  -25.9111   -0.9430  -12.0704 C   0  0  0  0  0  0  0  0  0  0  0  0
  -24.6227   -0.3829  -12.0146 C   0  0  0  0  0  0  0  0  0  0  0  0
 26 27  1  0  0  0
 27 28  1  0  0  0
 27 33  2  0  0  0
 28 29  2  0  0  0
 29 30  1  0  0  0
 30 31  1  0  0  0
 30 32  2  0  0  0
 32 20  1  0  0  0
 32 33  1  0  0  0
 20 21  1  0  0  0
 20 24  1  0  0  0
 21 22  2  0  0  0
 21 23  1  0  0  0
 23  1  1  0  0  0
 23 25  1  0  0  0
  1  2  1  0  0  0
  1  6  2  0  0  0
  2  3  2  0  0  0
  3  4  1  0  0  0
  4  7  1  0  0  0
  4  5  2  0  0  0
  7  8  1  0  0  0
  7 17  2  0  0  0
  8  9  2  0  0  0
  9 10  1  0  0  0
  9 11  1  0  0  0
 10 18  1  0  0  0
 11 12  2  0  0  0
 12 13  1  0  0  0
 12 17  1  0  0  0
 13 14  1  0  0  0
 13 19  1  0  0  0
 14 15  2  0  0  0
 15 16  1  0  0  0
 15 17  1  0  0  0
  5  6  1  0  0  0
M  END
> <minimizedAffinity>
-10.01695

$$$$
