CHEMBL3961872


 34 38  0  0  0  0  0  0  0  0999 V2000
  -29.3220   -8.4099   -5.6987 N   0  0  0  0  0  0  0  0  0  0  0  0
  -29.1313   -6.9906   -5.4769 C   0  0  0  0  0  0  0  0  0  0  0  0
  -29.6128   -6.6248   -4.2527 C   0  0  0  0  0  0  0  0  0  0  0  0
  -30.0189   -5.3668   -4.0452 C   0  0  0  0  0  0  0  0  0  0  0  0
  -29.6665   -4.3295   -4.8365 C   0  0  0  0  0  0  0  0  0  0  0  0
  -30.2003   -3.3538   -4.1745 N   0  0  0  0  0  0  0  0  0  0  0  0
  -29.5412   -2.2261   -4.1546 C   0  0  0  0  0  0  0  0  0  0  0  0
  -28.8180   -1.7923   -5.2198 C   0  0  0  0  0  0  0  0  0  0  0  0
  -28.4607   -2.7910   -6.1854 N   0  0  0  0  0  0  0  0  0  0  0  0
  -28.7902   -4.2906   -5.8806 C   0  0  0  0  0  0  0  0  0  0  0  0
  -28.6054   -5.8510   -6.2797 C   0  0  0  0  0  0  0  0  0  0  0  0
  -29.1284   -0.2729   -5.2511 C   0  0  0  0  0  0  0  0  0  0  0  0
  -28.3494    0.5456   -6.1932 C   0  0  0  0  0  0  0  0  0  0  0  0
  -29.0286    1.4826   -6.8495 N   0  0  0  0  0  0  0  0  0  0  0  0
  -30.2654    1.3953   -6.3531 N   0  0  0  0  0  0  0  0  0  0  0  0
  -31.2565    2.2940   -6.9300 C   0  0  0  0  0  0  0  0  0  0  0  0
  -30.3901    0.3501   -5.4294 C   0  0  0  0  0  0  0  0  0  0  0  0
  -29.2373  -10.0986   -9.1029 C   0  0  0  0  0  0  0  0  0  0  0  0
  -30.4550  -10.7529   -9.0729 C   0  0  0  0  0  0  0  0  0  0  0  0
  -31.3013  -10.5929   -7.9770 C   0  0  0  0  0  0  0  0  0  0  0  0
  -30.9387   -9.7728   -6.9022 C   0  0  0  0  0  0  0  0  0  0  0  0
  -29.7029   -9.1472   -6.8462 C   0  0  0  0  0  0  0  0  0  0  0  0
  -28.8771   -9.3005   -7.9965 C   0  0  0  0  0  0  0  0  0  0  0  0
  -28.8333  -10.2245  -11.4571 C   0  0  0  0  0  0  0  0  0  0  0  0
  -28.3201  -10.1762  -10.1235 O   0  0  0  0  0  0  0  0  0  0  0  0
  -32.4925  -11.2409   -7.7872 O   0  0  0  0  0  0  0  0  0  0  0  0
  -33.1603  -10.9876   -6.5633 C   0  0  0  0  0  0  0  0  0  0  0  0
  -28.9517   -9.2710   -4.4685 C   0  0  0  0  0  0  0  0  0  0  0  0
  -27.5578   -9.9021   -4.2021 C   0  0  0  0  0  0  0  0  0  0  0  0
  -27.2173  -11.0028   -3.4322 C   0  0  0  0  0  0  0  0  0  0  0  0
  -25.5351  -11.3449   -3.5543 S   0  0  0  0  0  0  0  0  0  0  0  0
  -25.3440  -10.0192   -4.6283 C   0  0  0  0  0  0  0  0  0  0  0  0
  -24.0203   -9.7535   -5.2784 C   0  0  0  0  0  0  0  0  0  0  0  0
  -26.4464   -9.3283   -4.8509 N   0  0  0  0  0  0  0  0  0  0  0  0
 24 25  1  0  0  0
 25 18  1  0  0  0
 18 19  1  0  0  0
 18 23  2  0  0  0
 19 20  2  0  0  0
 20 26  1  0  0  0
 20 21  1  0  0  0
 26 27  1  0  0  0
 21 22  2  0  0  0
 22  1  1  0  0  0
 22 23  1  0  0  0
  1 28  1  0  0  0
  1  2  1  0  0  0
 28 29  1  0  0  0
 29 30  2  0  0  0
 29 34  1  0  0  0
 30 31  1  0  0  0
 31 32  1  0  0  0
 32 33  1  0  0  0
 32 34  2  0  0  0
  2  3  1  0  0  0
  2 11  2  0  0  0
  3  4  2  0  0  0
  4  5  1  0  0  0
  5  6  1  0  0  0
  5 10  2  0  0  0
  6  7  2  0  0  0
  7  8  1  0  0  0
  8 12  1  0  0  0
  8  9  2  0  0  0
 12 13  1  0  0  0
 12 17  2  0  0  0
 13 14  2  0  0  0
 14 15  1  0  0  0
 15 16  1  0  0  0
 15 17  1  0  0  0
  9 10  1  0  0  0
 10 11  1  0  0  0
M  END
> <minimizedAffinity>
-8.35921

$$$$
