CHEMBL486437


 36 39  0  0  0  0  0  0  0  0999 V2000
  -14.9211   -3.7040  -12.3503 C   0  0  0  0  0  0  0  0  0  0  0  0
  -14.2124   -4.5967  -11.6365 C   0  0  0  0  0  0  0  0  0  0  0  0
  -14.8945   -5.9327  -11.4890 C   0  0  0  0  0  0  0  0  0  0  0  0
  -16.0376   -5.7580  -12.3024 N   0  0  0  0  0  0  0  0  0  0  0  0
  -16.0885   -4.5041  -12.8461 C   0  0  0  0  0  0  0  0  0  0  0  0
  -16.9279   -4.1494  -13.6581 O   0  0  0  0  0  0  0  0  0  0  0  0
  -16.6351   -6.4991  -12.6396 H   0  0  0  0  0  0  0  0  0  0  0  0
  -12.8745   -4.6656  -11.1741 C   0  0  0  0  0  0  0  0  0  0  0  0
  -12.0208   -5.5304  -11.8206 C   0  0  0  0  0  0  0  0  0  0  0  0
  -11.3151   -6.1825  -10.8352 N   0  0  0  0  0  0  0  0  0  0  0  0
  -11.4692   -5.5219   -9.6319 C   0  0  0  0  0  0  0  0  0  0  0  0
  -10.9641   -5.8174   -8.3559 C   0  0  0  0  0  0  0  0  0  0  0  0
  -11.3051   -4.9631   -7.3017 C   0  0  0  0  0  0  0  0  0  0  0  0
  -12.1219   -3.8586   -7.5158 C   0  0  0  0  0  0  0  0  0  0  0  0
  -12.6854   -3.6187   -8.7756 C   0  0  0  0  0  0  0  0  0  0  0  0
  -12.3670   -4.4675   -9.8535 C   0  0  0  0  0  0  0  0  0  0  0  0
  -10.6970   -7.4881  -11.0146 C   0  0  0  0  0  0  0  0  0  0  0  0
  -11.6846   -8.5149  -11.1411 O   0  0  0  0  0  0  0  0  0  0  0  0
  -11.7284   -9.0209  -12.4713 C   0  0  0  0  0  0  0  0  0  0  0  0
  -13.0967   -8.7335  -13.0697 C   0  0  0  0  0  0  0  0  0  0  0  0
  -12.9614   -8.0370  -14.8356 Si  0  0  0  0  0  0  0  0  0  0  0  0
  -11.3670   -7.0914  -15.0132 C   0  0  0  0  0  0  0  0  0  0  0  0
  -13.0044   -9.4737  -16.0430 C   0  0  0  0  0  0  0  0  0  0  0  0
  -14.4469   -6.9296  -15.1272 C   0  0  0  0  0  0  0  0  0  0  0  0
  -15.3561    0.0202  -13.0125 C   0  0  0  0  0  0  0  0  0  0  0  0
  -15.6305   -1.3056  -12.6165 C   0  0  0  0  0  0  0  0  0  0  0  0
  -14.6691   -2.3135  -12.7519 C   0  0  0  0  0  0  0  0  0  0  0  0
  -13.4242   -1.9745  -13.2992 C   0  0  0  0  0  0  0  0  0  0  0  0
  -13.1351   -0.6694  -13.7112 C   0  0  0  0  0  0  0  0  0  0  0  0
  -14.0925    0.3466  -13.5404 C   0  0  0  0  0  0  0  0  0  0  0  0
  -17.2381    1.0534  -14.0502 C   0  0  0  0  0  0  0  0  0  0  0  0
  -16.3081    1.0089  -12.9776 O   0  0  0  0  0  0  0  0  0  0  0  0
  -11.9199   -0.3034  -14.2418 O   0  0  0  0  0  0  0  0  0  0  0  0
  -10.7758   -0.8487  -13.5923 C   0  0  0  0  0  0  0  0  0  0  0  0
  -13.7117    1.5911  -13.9866 O   0  0  0  0  0  0  0  0  0  0  0  0
  -13.9910    1.8926  -15.3475 C   0  0  0  0  0  0  0  0  0  0  0  0
 31 32  1  0  0  0
 32 25  1  0  0  0
 25 26  1  0  0  0
 25 30  2  0  0  0
 26 27  2  0  0  0
 27  1  1  0  0  0
 27 28  1  0  0  0
  1  2  2  0  0  0
  1  5  1  0  0  0
  2  8  1  0  0  0
  2  3  1  0  0  0
  8  9  2  0  0  0
  8 16  1  0  0  0
  9 10  1  0  0  0
 10 17  1  0  0  0
 10 11  1  0  0  0
 17 18  1  0  0  0
 18 19  1  0  0  0
 19 20  1  0  0  0
 20 21  1  0  0  0
 21 22  1  0  0  0
 21 23  1  0  0  0
 21 24  1  0  0  0
 11 12  1  0  0  0
 11 16  2  0  0  0
 12 13  2  0  0  0
 13 14  1  0  0  0
 14 15  2  0  0  0
 15 16  1  0  0  0
  3  4  1  0  0  0
  4  5  1  0  0  0
  4  7  1  0  0  0
  5  6  2  0  0  0
 28 29  2  0  0  0
 29 33  1  0  0  0
 29 30  1  0  0  0
 33 34  1  0  0  0
 30 35  1  0  0  0
 35 36  1  0  0  0
M  END
> <minimizedAffinity>
-6.56622

$$$$
