CHEMBL496360


 32 36  0  0  0  0  0  0  0  0999 V2000
  -30.2811   -6.1144   -4.9906 C   0  0  0  0  0  0  0  0  0  0  0  0
  -31.3091   -6.1154   -4.0754 C   0  0  0  0  0  0  0  0  0  0  0  0
  -31.6063   -4.8965   -3.5161 C   0  0  0  0  0  0  0  0  0  0  0  0
  -30.9532   -3.7546   -3.8056 N   0  0  0  0  0  0  0  0  0  0  0  0
  -30.0168   -3.8350   -4.7552 C   0  0  0  0  0  0  0  0  0  0  0  0
  -29.6555   -4.9857   -5.3416 N   0  0  0  0  0  0  0  0  0  0  0  0
  -30.3373   -8.0873   -6.7070 C   0  0  0  0  0  0  0  0  0  0  0  0
  -29.6139   -9.1871   -6.9548 N   0  0  0  0  0  0  0  0  0  0  0  0
  -28.5721   -9.1021   -6.1181 N   0  0  0  0  0  0  0  0  0  0  0  0
  -27.6242  -10.0677   -6.1393 N   0  0  0  0  0  0  0  0  0  0  0  0
  -26.6691   -9.8550   -5.2954 C   0  0  0  0  0  0  0  0  0  0  0  0
  -26.5518   -8.6999   -4.3759 C   0  0  0  0  0  0  0  0  0  0  0  0
  -27.5356   -7.7951   -4.4081 C   0  0  0  0  0  0  0  0  0  0  0  0
  -28.6169   -7.9879   -5.3081 C   0  0  0  0  0  0  0  0  0  0  0  0
  -29.7956   -7.3267   -5.6299 C   0  0  0  0  0  0  0  0  0  0  0  0
  -32.8185   -8.4763   -7.0527 C   0  0  0  0  0  0  0  0  0  0  0  0
  -31.5487   -7.7897   -7.5342 C   0  0  0  0  0  0  0  0  0  0  0  0
  -29.3834   -2.6690   -5.1727 N   0  0  0  0  0  0  0  0  0  0  0  0
  -29.3686   -1.9432   -4.4786 H   0  0  0  0  0  0  0  0  0  0  0  0
  -28.7333   -2.4879   -6.3965 C   0  0  0  0  0  0  0  0  0  0  0  0
  -28.0703   -1.2882   -6.6796 C   0  0  0  0  0  0  0  0  0  0  0  0
  -27.5606   -1.0222   -7.9448 C   0  0  0  0  0  0  0  0  0  0  0  0
  -27.6901   -1.9414   -8.9867 C   0  0  0  0  0  0  0  0  0  0  0  0
  -28.3197   -3.1591   -8.6900 C   0  0  0  0  0  0  0  0  0  0  0  0
  -28.8356   -3.4328   -7.4134 C   0  0  0  0  0  0  0  0  0  0  0  0
  -27.1534   -1.6448  -10.2204 N   0  0  0  0  0  0  0  0  0  0  0  0
  -27.9902   -1.2347  -11.3492 C   0  0  0  0  0  0  0  0  0  0  0  0
  -27.3693   -1.7959  -12.6455 C   0  0  0  0  0  0  0  0  0  0  0  0
  -25.9686   -1.3669  -12.8479 N   0  0  0  0  0  0  0  0  0  0  0  0
  -25.4275   -1.9493  -14.0722 C   0  0  0  0  0  0  0  0  0  0  0  0
  -25.1640   -1.7842  -11.6744 C   0  0  0  0  0  0  0  0  0  0  0  0
  -25.7381   -1.2516  -10.3406 C   0  0  0  0  0  0  0  0  0  0  0  0
 16 17  1  0  0  0
 17  7  1  0  0  0
  7  8  2  0  0  0
  7 15  1  0  0  0
  8  9  1  0  0  0
  9 10  1  0  0  0
  9 14  1  0  0  0
 10 11  2  0  0  0
 11 12  1  0  0  0
 12 13  2  0  0  0
 13 14  1  0  0  0
 14 15  2  0  0  0
 15  1  1  0  0  0
  1  2  1  0  0  0
  1  6  2  0  0  0
  2  3  2  0  0  0
  3  4  1  0  0  0
  4  5  2  0  0  0
  5 18  1  0  0  0
  5  6  1  0  0  0
 18 20  1  0  0  0
 18 19  1  0  0  0
 20 21  1  0  0  0
 20 25  2  0  0  0
 21 22  2  0  0  0
 22 23  1  0  0  0
 23 26  1  0  0  0
 23 24  2  0  0  0
 26 27  1  0  0  0
 26 32  1  0  0  0
 27 28  1  0  0  0
 28 29  1  0  0  0
 29 30  1  0  0  0
 29 31  1  0  0  0
 31 32  1  0  0  0
 24 25  1  0  0  0
M  END
> <minimizedAffinity>
-9.03001

$$$$
