CHEMBL2036869


 26 29  0  0  0  0  0  0  0  0999 V2000
  -19.7765    2.3687  -14.9636 C   0  0  0  0  0  0  0  0  0  0  0  0
  -20.4953    3.4641  -14.5515 C   0  0  0  0  0  0  0  0  0  0  0  0
  -21.7426    3.1940  -14.0427 C   0  0  0  0  0  0  0  0  0  0  0  0
  -22.2618    1.9524  -13.9526 N   0  0  0  0  0  0  0  0  0  0  0  0
  -21.5138    0.9530  -14.4353 C   0  0  0  0  0  0  0  0  0  0  0  0
  -20.2821    1.1288  -14.9330 N   0  0  0  0  0  0  0  0  0  0  0  0
  -17.4495    0.2126  -14.8146 C   0  0  0  0  0  0  0  0  0  0  0  0
  -17.4119    1.5300  -15.4062 N   0  0  0  0  0  0  0  0  0  0  0  0
  -18.4075    2.4921  -15.4768 C   0  0  0  0  0  0  0  0  0  0  0  0
  -17.9328    3.5894  -16.0520 N   0  0  0  0  0  0  0  0  0  0  0  0
  -16.6225    3.3340  -16.3585 C   0  0  0  0  0  0  0  0  0  0  0  0
  -15.6700    4.1583  -16.9757 C   0  0  0  0  0  0  0  0  0  0  0  0
  -14.3661    3.6751  -17.1438 C   0  0  0  0  0  0  0  0  0  0  0  0
  -14.0184    2.3948  -16.7105 C   0  0  0  0  0  0  0  0  0  0  0  0
  -14.9602    1.5546  -16.1073 C   0  0  0  0  0  0  0  0  0  0  0  0
  -16.2580    2.0595  -15.9501 C   0  0  0  0  0  0  0  0  0  0  0  0
  -22.0243   -0.3411  -14.3669 N   0  0  0  0  0  0  0  0  0  0  0  0
  -21.3337   -1.0221  -14.6458 H   0  0  0  0  0  0  0  0  0  0  0  0
  -23.0701   -0.8056  -13.5535 C   0  0  0  0  0  0  0  0  0  0  0  0
  -22.8190   -1.1147  -12.2100 C   0  0  0  0  0  0  0  0  0  0  0  0
  -23.8233   -1.6582  -11.4000 C   0  0  0  0  0  0  0  0  0  0  0  0
  -25.0900   -1.8771  -11.9308 C   0  0  0  0  0  0  0  0  0  0  0  0
  -26.0973   -2.4106  -11.1855 O   0  0  0  0  0  0  0  0  0  0  0  0
  -25.3686   -1.5634  -13.2511 C   0  0  0  0  0  0  0  0  0  0  0  0
  -24.3611   -1.0371  -14.0581 C   0  0  0  0  0  0  0  0  0  0  0  0
  -25.7600   -2.5947  -10.2946 H   0  0  0  0  0  0  0  0  0  0  0  0
  7  8  1  0  0  0
  8  9  1  0  0  0
  8 16  1  0  0  0
  9  1  1  0  0  0
  9 10  2  0  0  0
  1  2  1  0  0  0
  1  6  2  0  0  0
  2  3  2  0  0  0
  3  4  1  0  0  0
  4  5  2  0  0  0
  5 17  1  0  0  0
  5  6  1  0  0  0
 17 19  1  0  0  0
 17 18  1  0  0  0
 19 20  1  0  0  0
 19 25  2  0  0  0
 20 21  2  0  0  0
 21 22  1  0  0  0
 22 23  1  0  0  0
 22 24  2  0  0  0
 23 26  1  0  0  0
 24 25  1  0  0  0
 10 11  1  0  0  0
 11 12  1  0  0  0
 11 16  2  0  0  0
 12 13  2  0  0  0
 13 14  1  0  0  0
 14 15  2  0  0  0
 15 16  1  0  0  0
M  END
> <minimizedAffinity>
-9.29509

$$$$
