CHEMBL407279


 46 52  0  0  0  0  0  0  0  0999 V2000
  -28.5748   -3.8284   -8.5067 C   0  0  0  0  0  0  0  0  0  0  0  0
  -29.7993   -3.7355   -7.9684 N   0  0  0  0  0  0  0  0  0  0  0  0
  -30.1863   -4.7820   -7.2411 C   0  0  0  0  0  0  0  0  0  0  0  0
  -29.3859   -5.8901   -7.0656 C   0  0  0  0  0  0  0  0  0  0  0  0
  -29.9796   -6.9633   -6.2897 C   0  0  0  0  0  0  0  0  0  0  0  0
  -30.6766   -6.7285   -5.3225 O   0  0  0  0  0  0  0  0  0  0  0  0
  -29.7470   -8.1700   -6.8436 N   0  0  0  0  0  0  0  0  0  0  0  0
  -29.4164   -8.0666   -8.2049 C   0  0  0  0  0  0  0  0  0  0  0  0
  -29.7512   -8.6682   -9.2720 N   0  0  0  0  0  0  0  0  0  0  0  0
  -28.7893   -9.6339   -9.2243 C   0  0  0  0  0  0  0  0  0  0  0  0
  -29.1568  -10.9532   -9.4202 C   0  0  0  0  0  0  0  0  0  0  0  0
  -28.5508  -11.9309   -8.6329 C   0  0  0  0  0  0  0  0  0  0  0  0
  -27.4490  -11.5529   -7.8672 C   0  0  0  0  0  0  0  0  0  0  0  0
  -26.9305  -10.1823   -7.8041 C   0  0  0  0  0  0  0  0  0  0  0  0
  -27.6939   -9.0815   -8.4884 C   0  0  0  0  0  0  0  0  0  0  0  0
  -28.1238   -7.5938   -8.4192 N   0  0  0  0  0  0  0  0  0  0  0  0
  -28.2131   -6.1242   -7.8516 C   0  0  0  0  0  0  0  0  0  0  0  0
  -27.8231   -5.0122   -8.5899 N   0  0  0  0  0  0  0  0  0  0  0  0
  -30.1050   -9.3859   -6.2887 C   0  0  0  0  0  0  0  0  0  0  0  0
  -31.2369  -10.0583   -6.7671 C   0  0  0  0  0  0  0  0  0  0  0  0
  -32.2056   -9.4154   -7.7206 C   0  0  0  0  0  0  0  0  0  0  0  0
  -31.4441  -11.3657   -6.3471 C   0  0  0  0  0  0  0  0  0  0  0  0
  -30.5355  -11.9985   -5.4866 C   0  0  0  0  0  0  0  0  0  0  0  0
  -29.4339  -11.3113   -4.9821 C   0  0  0  0  0  0  0  0  0  0  0  0
  -29.2121   -9.9805   -5.3499 C   0  0  0  0  0  0  0  0  0  0  0  0
  -28.0172   -9.2494   -4.7767 C   0  0  0  0  0  0  0  0  0  0  0  0
  -28.1233   -2.5231   -8.8833 N   0  0  0  0  0  0  0  0  0  0  0  0
  -27.7120   -2.1888   -8.0114 H   0  0  0  0  0  0  0  0  0  0  0  0
  -26.8829   -1.8032  -12.3549 C   0  0  0  0  0  0  0  0  0  0  0  0
  -27.6610   -2.2960  -11.2765 C   0  0  0  0  0  0  0  0  0  0  0  0
  -27.2592   -2.1893   -9.9403 C   0  0  0  0  0  0  0  0  0  0  0  0
  -26.0465   -1.5718   -9.7075 C   0  0  0  0  0  0  0  0  0  0  0  0
  -25.2916   -1.0446  -10.7661 C   0  0  0  0  0  0  0  0  0  0  0  0
  -25.7035   -1.0971  -12.1058 C   0  0  0  0  0  0  0  0  0  0  0  0
  -28.6198   -2.5838  -13.7624 C   0  0  0  0  0  0  0  0  0  0  0  0
  -27.3067   -2.0091  -13.6640 O   0  0  0  0  0  0  0  0  0  0  0  0
  -24.9352   -0.4991  -13.0910 O   0  0  0  0  0  0  0  0  0  0  0  0
  -23.6783    0.0875  -12.6276 C   0  0  0  0  0  0  0  0  0  0  0  0
  -23.4262    1.5363  -13.0936 C   0  0  0  0  0  0  0  0  0  0  0  0
  -22.4380    1.6570  -14.1971 N   0  0  0  0  0  0  0  0  0  0  0  0
  -21.7415    2.9583  -14.2063 C   0  0  0  0  0  0  0  0  0  0  0  0
  -20.6808    3.0642  -15.3260 C   0  0  0  0  0  0  0  0  0  0  0  0
  -19.6630    1.9994  -15.3039 N   0  0  0  0  0  0  0  0  0  0  0  0
  -18.7338    2.1822  -14.1904 C   0  0  0  0  0  0  0  0  0  0  0  0
  -20.3451    0.6900  -15.2371 C   0  0  0  0  0  0  0  0  0  0  0  0
  -21.4338    0.5664  -14.1359 C   0  0  0  0  0  0  0  0  0  0  0  0
 35 36  1  0  0  0
 36 29  1  0  0  0
 29 30  1  0  0  0
 29 34  2  0  0  0
 30 31  2  0  0  0
 31 27  1  0  0  0
 31 32  1  0  0  0
 27  1  1  0  0  0
 27 28  1  0  0  0
  1  2  1  0  0  0
  1 18  2  0  0  0
  2  3  2  0  0  0
  3  4  1  0  0  0
  4  5  1  0  0  0
  4 17  2  0  0  0
  5  6  2  0  0  0
  5  7  1  0  0  0
  7 19  1  0  0  0
  7  8  1  0  0  0
 19 20  1  0  0  0
 19 25  2  0  0  0
 20 21  1  0  0  0
 20 22  2  0  0  0
 22 23  1  0  0  0
 23 24  2  0  0  0
 24 25  1  0  0  0
 25 26  1  0  0  0
  8  9  2  0  0  0
  8 16  1  0  0  0
  9 10  1  0  0  0
 10 11  1  0  0  0
 10 15  2  0  0  0
 11 12  2  0  0  0
 12 13  1  0  0  0
 13 14  2  0  0  0
 14 15  1  0  0  0
 15 16  1  0  0  0
 16 17  1  0  0  0
 17 18  1  0  0  0
 32 33  2  0  0  0
 33 34  1  0  0  0
 34 37  1  0  0  0
 37 38  1  0  0  0
 38 39  1  0  0  0
 39 40  1  0  0  0
 40 41  1  0  0  0
 40 46  1  0  0  0
 41 42  1  0  0  0
 42 43  1  0  0  0
 43 44  1  0  0  0
 43 45  1  0  0  0
 45 46  1  0  0  0
M  END
> <minimizedAffinity>
-8.36065

$$$$
