CHEMBL428433


 36 41  0  0  0  0  0  0  0  0999 V2000
  -26.6505   -1.9075  -10.1832 C   0  0  0  0  0  0  0  0  0  0  0  0
  -27.2490   -0.8624   -9.4917 C   0  0  0  0  0  0  0  0  0  0  0  0
  -27.9645   -1.0602   -8.3141 C   0  0  0  0  0  0  0  0  0  0  0  0
  -28.1941   -2.3683   -7.8758 C   0  0  0  0  0  0  0  0  0  0  0  0
  -27.7528   -3.4740   -8.6342 C   0  0  0  0  0  0  0  0  0  0  0  0
  -26.9053   -3.2385   -9.7436 C   0  0  0  0  0  0  0  0  0  0  0  0
  -28.3944   -4.5277   -7.9937 C   0  0  0  0  0  0  0  0  0  0  0  0
  -28.4308   -5.9018   -8.2829 C   0  0  0  0  0  0  0  0  0  0  0  0
  -29.3165   -6.7623   -7.3476 C   0  0  0  0  0  0  0  0  0  0  0  0
  -30.0193   -6.1116   -6.1635 C   0  0  0  0  0  0  0  0  0  0  0  0
  -28.8996   -5.2974   -5.8146 C   0  0  0  0  0  0  0  0  0  0  0  0
  -28.7015   -4.2380   -6.7125 C   0  0  0  0  0  0  0  0  0  0  0  0
  -28.8962   -2.8621   -6.7784 N   0  0  0  0  0  0  0  0  0  0  0  0
  -28.3910   -5.4879   -4.4067 C   0  0  0  0  0  0  0  0  0  0  0  0
  -29.1905   -4.4248   -3.7930 C   0  0  0  0  0  0  0  0  0  0  0  0
  -30.4637   -5.0399   -3.7658 C   0  0  0  0  0  0  0  0  0  0  0  0
  -31.2301   -4.5857   -2.8171 N   0  0  0  0  0  0  0  0  0  0  0  0
  -32.0794   -5.5807   -2.7073 N   0  0  0  0  0  0  0  0  0  0  0  0
  -32.5530   -5.6113   -1.3347 C   0  0  0  0  0  0  0  0  0  0  0  0
  -32.2451   -6.1680   -4.0117 C   0  0  0  0  0  0  0  0  0  0  0  0
  -30.9705   -6.0536   -4.7330 C   0  0  0  0  0  0  0  0  0  0  0  0
  -28.7026   -8.0917   -7.5584 C   0  0  0  0  0  0  0  0  0  0  0  0
  -28.7875   -9.1739   -7.0283 O   0  0  0  0  0  0  0  0  0  0  0  0
  -27.7875   -7.9870   -8.7127 N   0  0  0  0  0  0  0  0  0  0  0  0
  -27.4232   -6.6154   -9.0497 C   0  0  0  0  0  0  0  0  0  0  0  0
  -27.1021   -8.6962   -8.8754 H   0  0  0  0  0  0  0  0  0  0  0  0
  -24.4939   -1.5777  -11.2093 N   0  0  0  0  0  0  0  0  0  0  0  0
  -25.7825   -1.6072  -11.3785 C   0  0  0  0  0  0  0  0  0  0  0  0
  -26.4839   -1.2935  -12.6843 C   0  0  0  0  0  0  0  0  0  0  0  0
  -23.8231   -1.3723  -12.4142 O   0  0  0  0  0  0  0  0  0  0  0  0
  -22.4337    0.1869  -13.5007 C   0  0  0  0  0  0  0  0  0  0  0  0
  -22.8202   -0.4169  -12.1642 C   0  0  0  0  0  0  0  0  0  0  0  0
  -29.8604   -2.1510   -5.9557 C   0  0  0  0  0  0  0  0  0  0  0  0
  -29.4993   -1.0916   -4.9217 C   0  0  0  0  0  0  0  0  0  0  0  0
  -28.0107   -1.0892   -4.6079 C   0  0  0  0  0  0  0  0  0  0  0  0
  -29.9085    0.2802   -5.4940 C   0  0  0  0  0  0  0  0  0  0  0  0
 31 32  1  0  0  0
 32 30  1  0  0  0
 30 27  1  0  0  0
 27 28  2  0  0  0
 28 29  1  0  0  0
 28  1  1  0  0  0
  1  2  1  0  0  0
  1  6  2  0  0  0
  2  3  2  0  0  0
  3  4  1  0  0  0
  4  5  2  0  0  0
  4 13  1  0  0  0
  5  6  1  0  0  0
  5  7  1  0  0  0
  7  8  1  0  0  0
  7 12  2  0  0  0
  8  9  2  0  0  0
  8 25  1  0  0  0
  9 10  1  0  0  0
  9 22  1  0  0  0
 10 11  2  0  0  0
 10 21  1  0  0  0
 11 12  1  0  0  0
 11 14  1  0  0  0
 12 13  1  0  0  0
 13 33  1  0  0  0
 33 34  1  0  0  0
 34 35  1  0  0  0
 34 36  1  0  0  0
 14 15  1  0  0  0
 15 16  1  0  0  0
 16 17  2  0  0  0
 16 21  1  0  0  0
 17 18  1  0  0  0
 18 19  1  0  0  0
 18 20  1  0  0  0
 20 21  2  0  0  0
 22 23  2  0  0  0
 22 24  1  0  0  0
 24 25  1  0  0  0
 24 26  1  0  0  0
M  END
> <minimizedAffinity>
-6.89407

$$$$
