CHEMBL4758900


 36 39  0  0  0  0  0  0  0  0999 V2000
  -26.9662   -1.8803  -10.5018 C   0  0  0  0  0  0  0  0  0  0  0  0
  -25.6137   -1.9468  -10.1742 C   0  0  0  0  0  0  0  0  0  0  0  0
  -24.6705   -1.2208  -10.9128 C   0  0  0  0  0  0  0  0  0  0  0  0
  -25.0544   -0.4315  -12.0033 C   0  0  0  0  0  0  0  0  0  0  0  0
  -26.3910   -0.4553  -12.3985 C   0  0  0  0  0  0  0  0  0  0  0  0
  -27.3264   -1.1851  -11.6624 C   0  0  0  0  0  0  0  0  0  0  0  0
  -24.1755    0.4234  -12.7092 N   0  0  0  0  0  0  0  0  0  0  0  0
  -23.0480    0.0201  -13.3979 C   0  0  0  0  0  0  0  0  0  0  0  0
  -22.6944   -1.1399  -13.5839 O   0  0  0  0  0  0  0  0  0  0  0  0
  -24.3926    1.4097  -12.6707 H   0  0  0  0  0  0  0  0  0  0  0  0
  -22.1626    1.0794  -13.9612 C   0  0  0  0  0  0  0  0  0  0  0  0
  -22.5169    2.4280  -14.0695 C   0  0  0  0  0  0  0  0  0  0  0  0
  -21.5760    3.3553  -14.5351 C   0  0  0  0  0  0  0  0  0  0  0  0
  -20.2801    2.9474  -14.8699 C   0  0  0  0  0  0  0  0  0  0  0  0
  -19.9071    1.6044  -14.7503 C   0  0  0  0  0  0  0  0  0  0  0  0
  -20.8621    0.6808  -14.3093 C   0  0  0  0  0  0  0  0  0  0  0  0
  -18.5062    1.1261  -15.0448 C   0  0  0  0  0  0  0  0  0  0  0  0
  -17.9027    1.8013  -16.0596 F   0  0  0  0  0  0  0  0  0  0  0  0
  -17.6806    1.2517  -13.9683 F   0  0  0  0  0  0  0  0  0  0  0  0
  -18.4686   -0.1896  -15.3926 F   0  0  0  0  0  0  0  0  0  0  0  0
  -27.9303   -2.5257   -9.6947 N   0  0  0  0  0  0  0  0  0  0  0  0
  -27.9590   -3.5285   -9.8511 H   0  0  0  0  0  0  0  0  0  0  0  0
  -30.0164   -4.9339   -5.6798 C   0  0  0  0  0  0  0  0  0  0  0  0
  -29.6159   -3.6440   -5.3063 C   0  0  0  0  0  0  0  0  0  0  0  0
  -28.9727   -2.7853   -6.1807 C   0  0  0  0  0  0  0  0  0  0  0  0
  -28.5803   -1.6040   -5.6999 N   0  0  0  0  0  0  0  0  0  0  0  0
  -27.9472   -0.7993   -6.5520 C   0  0  0  0  0  0  0  0  0  0  0  0
  -27.7029   -1.0630   -7.8335 N   0  0  0  0  0  0  0  0  0  0  0  0
  -28.1235   -2.2506   -8.3152 C   0  0  0  0  0  0  0  0  0  0  0  0
  -28.7652   -3.1953   -7.4990 C   0  0  0  0  0  0  0  0  0  0  0  0
  -29.2228   -4.4717   -7.9074 C   0  0  0  0  0  0  0  0  0  0  0  0
  -29.8653   -5.3317   -7.0114 C   0  0  0  0  0  0  0  0  0  0  0  0
  -31.3377   -5.2196   -3.7490 C   0  0  0  0  0  0  0  0  0  0  0  0
  -30.5377   -5.8181   -4.7702 O   0  0  0  0  0  0  0  0  0  0  0  0
  -30.2214   -6.5342   -7.5590 O   0  0  0  0  0  0  0  0  0  0  0  0
  -29.1607   -7.4488   -7.8164 C   0  0  0  0  0  0  0  0  0  0  0  0
 33 34  1  0  0  0
 34 23  1  0  0  0
 23 24  1  0  0  0
 23 32  2  0  0  0
 24 25  2  0  0  0
 25 26  1  0  0  0
 25 30  1  0  0  0
 26 27  2  0  0  0
 27 28  1  0  0  0
 28 29  2  0  0  0
 29 21  1  0  0  0
 29 30  1  0  0  0
 21  1  1  0  0  0
 21 22  1  0  0  0
  1  2  1  0  0  0
  1  6  2  0  0  0
  2  3  2  0  0  0
  3  4  1  0  0  0
  4  7  1  0  0  0
  4  5  2  0  0  0
  7  8  1  0  0  0
  7 10  1  0  0  0
  8  9  2  0  0  0
  8 11  1  0  0  0
 11 12  1  0  0  0
 11 16  2  0  0  0
 12 13  2  0  0  0
 13 14  1  0  0  0
 14 15  2  0  0  0
 15 17  1  0  0  0
 15 16  1  0  0  0
 17 18  1  0  0  0
 17 19  1  0  0  0
 17 20  1  0  0  0
  5  6  1  0  0  0
 30 31  2  0  0  0
 31 32  1  0  0  0
 32 35  1  0  0  0
 35 36  1  0  0  0
M  END
> <minimizedAffinity>
-10.50443

$$$$
