CHEMBL374690


 35 39  0  0  0  0  0  0  0  0999 V2000
  -13.2157   -3.8976  -11.6685 C   0  0  0  0  0  0  0  0  0  0  0  0
  -12.0805   -3.6065  -12.4560 C   0  0  0  0  0  0  0  0  0  0  0  0
  -12.1013   -2.5991  -13.4323 C   0  0  0  0  0  0  0  0  0  0  0  0
  -13.2809   -1.9105  -13.5989 C   0  0  0  0  0  0  0  0  0  0  0  0
  -14.4368   -2.2099  -12.8297 C   0  0  0  0  0  0  0  0  0  0  0  0
  -14.4149   -3.2128  -11.8763 C   0  0  0  0  0  0  0  0  0  0  0  0
  -15.6389   -1.3133  -13.1521 C   0  0  0  0  0  0  0  0  0  0  0  0
  -14.9839   -0.4863  -14.1970 C   0  0  0  0  0  0  0  0  0  0  0  0
  -15.2461    0.5876  -15.0549 C   0  0  0  0  0  0  0  0  0  0  0  0
  -14.1611    0.8776  -15.8037 N   0  0  0  0  0  0  0  0  0  0  0  0
  -13.2141   -0.0134  -15.3944 N   0  0  0  0  0  0  0  0  0  0  0  0
  -13.6829   -0.8340  -14.4376 C   0  0  0  0  0  0  0  0  0  0  0  0
  -12.2939    0.0212  -15.8226 H   0  0  0  0  0  0  0  0  0  0  0  0
  -16.5253    1.3110  -15.1319 C   0  0  0  0  0  0  0  0  0  0  0  0
  -16.6950    2.5992  -15.5969 C   0  0  0  0  0  0  0  0  0  0  0  0
  -18.3222    3.1138  -15.5385 S   0  0  0  0  0  0  0  0  0  0  0  0
  -18.8283    1.6185  -14.8908 C   0  0  0  0  0  0  0  0  0  0  0  0
  -17.7750    0.7422  -14.7240 C   0  0  0  0  0  0  0  0  0  0  0  0
  -20.1916    1.3585  -14.5721 C   0  0  0  0  0  0  0  0  0  0  0  0
  -21.4463    1.1519  -14.2837 C   0  0  0  0  0  0  0  0  0  0  0  0
  -22.9090    0.9112  -13.9475 C   0  0  0  0  0  0  0  0  0  0  0  0
  -23.1694   -0.4871  -13.9738 O   0  0  0  0  0  0  0  0  0  0  0  0
  -24.4007   -0.8794  -13.5227 C   0  0  0  0  0  0  0  0  0  0  0  0
  -25.3922   -1.5035  -14.2836 C   0  0  0  0  0  0  0  0  0  0  0  0
  -26.6117   -1.8540  -13.6985 C   0  0  0  0  0  0  0  0  0  0  0  0
  -26.8463   -1.5825  -12.3524 C   0  0  0  0  0  0  0  0  0  0  0  0
  -25.8616   -0.9596  -11.5889 C   0  0  0  0  0  0  0  0  0  0  0  0
  -24.6436   -0.6094  -12.1740 C   0  0  0  0  0  0  0  0  0  0  0  0
  -13.0412   -4.8714  -10.7187 O   0  0  0  0  0  0  0  0  0  0  0  0
  -14.0329   -5.8942  -10.7119 C   0  0  0  0  0  0  0  0  0  0  0  0
  -14.1780   -8.3475  -13.6481 C   0  0  0  0  0  0  0  0  0  0  0  0
  -14.5243   -7.2613  -12.7501 N   0  0  0  0  0  0  0  0  0  0  0  0
  -15.7280   -6.4901  -13.0153 C   0  0  0  0  0  0  0  0  0  0  0  0
  -13.6783   -7.0288  -11.6717 C   0  0  0  0  0  0  0  0  0  0  0  0
  -12.6913   -7.7380  -11.4551 O   0  0  0  0  0  0  0  0  0  0  0  0
 31 32  1  0  0  0
 32 33  1  0  0  0
 32 34  1  0  0  0
 34 35  2  0  0  0
 34 30  1  0  0  0
 30 29  1  0  0  0
 29  1  1  0  0  0
  1  2  1  0  0  0
  1  6  2  0  0  0
  2  3  2  0  0  0
  3  4  1  0  0  0
  4  5  2  0  0  0
  4 12  1  0  0  0
  5  6  1  0  0  0
  5  7  1  0  0  0
  7  8  1  0  0  0
  8  9  1  0  0  0
  8 12  2  0  0  0
  9 14  1  0  0  0
  9 10  2  0  0  0
 14 15  2  0  0  0
 14 18  1  0  0  0
 15 16  1  0  0  0
 16 17  1  0  0  0
 17 19  1  0  0  0
 17 18  2  0  0  0
 19 20  3  0  0  0
 20 21  1  0  0  0
 21 22  1  0  0  0
 22 23  1  0  0  0
 23 24  1  0  0  0
 23 28  2  0  0  0
 24 25  2  0  0  0
 25 26  1  0  0  0
 26 27  2  0  0  0
 27 28  1  0  0  0
 10 11  1  0  0  0
 11 12  1  0  0  0
 11 13  1  0  0  0
M  END
> <minimizedAffinity>
-9.29772

$$$$
