CHEMBL220444


 31 33  0  0  0  0  0  0  0  0999 V2000
  -29.5063   -4.5609   -5.9918 C   0  0  0  0  0  0  0  0  0  0  0  0
  -29.5560   -5.2315   -4.8178 N   0  0  0  0  0  0  0  0  0  0  0  0
  -28.7563   -4.7780   -3.8474 C   0  0  0  0  0  0  0  0  0  0  0  0
  -27.9582   -3.7101   -3.9320 N   0  0  0  0  0  0  0  0  0  0  0  0
  -27.9720   -3.0349   -5.0964 C   0  0  0  0  0  0  0  0  0  0  0  0
  -27.2160   -1.8623   -5.0758 N   0  0  0  0  0  0  0  0  0  0  0  0
  -28.7510   -3.4231   -6.1777 C   0  0  0  0  0  0  0  0  0  0  0  0
  -26.6370   -1.8405   -4.2426 H   0  0  0  0  0  0  0  0  0  0  0  0
  -26.6994   -1.7322   -5.9463 H   0  0  0  0  0  0  0  0  0  0  0  0
  -28.7312   -2.6953   -7.4541 C   0  0  0  0  0  0  0  0  0  0  0  0
  -27.6144   -2.4897   -8.0751 N   0  0  0  0  0  0  0  0  0  0  0  0
  -27.8624   -1.7577   -9.2390 O   0  0  0  0  0  0  0  0  0  0  0  0
  -26.6356   -1.6633   -9.9660 C   0  0  0  0  0  0  0  0  0  0  0  0
  -26.9439   -1.8330  -11.4447 C   0  0  0  0  0  0  0  0  0  0  0  0
  -25.9254   -1.1160  -12.3337 C   0  0  0  0  0  0  0  0  0  0  0  0
  -24.5722   -1.0471  -11.7570 N   0  0  0  0  0  0  0  0  0  0  0  0
  -23.7251   -2.1606  -12.1900 C   0  0  0  0  0  0  0  0  0  0  0  0
  -23.9365    0.2249  -12.1071 C   0  0  0  0  0  0  0  0  0  0  0  0
  -30.2424   -5.0677   -7.0611 O   0  0  0  0  0  0  0  0  0  0  0  0
  -27.3947  -11.1267  -10.1757 C   0  0  0  0  0  0  0  0  0  0  0  0
  -27.9788  -10.0485   -9.3410 C   0  0  0  0  0  0  0  0  0  0  0  0
  -27.5955   -8.7345   -9.1554 C   0  0  0  0  0  0  0  0  0  0  0  0
  -28.6309   -8.0733   -8.4348 C   0  0  0  0  0  0  0  0  0  0  0  0
  -28.8753   -6.7373   -8.0523 C   0  0  0  0  0  0  0  0  0  0  0  0
  -27.9761   -5.7837   -8.3432 F   0  0  0  0  0  0  0  0  0  0  0  0
  -30.0713   -6.3974   -7.4049 C   0  0  0  0  0  0  0  0  0  0  0  0
  -30.9881   -7.4039   -7.0825 C   0  0  0  0  0  0  0  0  0  0  0  0
  -30.7646   -8.7415   -7.4337 C   0  0  0  0  0  0  0  0  0  0  0  0
  -29.5827   -9.0428   -8.1164 C   0  0  0  0  0  0  0  0  0  0  0  0
  -29.1238  -10.2439   -8.6086 N   0  0  0  0  0  0  0  0  0  0  0  0
  -29.6133  -11.1238   -8.5177 H   0  0  0  0  0  0  0  0  0  0  0  0
 20 21  1  0  0  0
 21 22  2  0  0  0
 21 30  1  0  0  0
 22 23  1  0  0  0
 23 24  1  0  0  0
 23 29  2  0  0  0
 24 25  1  0  0  0
 24 26  2  0  0  0
 26 19  1  0  0  0
 26 27  1  0  0  0
 19  1  1  0  0  0
  1  2  1  0  0  0
  1  7  2  0  0  0
  2  3  2  0  0  0
  3  4  1  0  0  0
  4  5  2  0  0  0
  5  6  1  0  0  0
  5  7  1  0  0  0
  6  8  1  0  0  0
  6  9  1  0  0  0
  7 10  1  0  0  0
 10 11  2  0  0  0
 11 12  1  0  0  0
 12 13  1  0  0  0
 13 14  1  0  0  0
 14 15  1  0  0  0
 15 16  1  0  0  0
 16 17  1  0  0  0
 16 18  1  0  0  0
 27 28  2  0  0  0
 28 29  1  0  0  0
 29 30  1  0  0  0
 30 31  1  0  0  0
M  END
> <minimizedAffinity>
-7.87691

$$$$
