CHEMBL1825138


 33 36  0  0  0  0  0  0  0  0999 V2000
  -28.2359   -2.9048   -6.9426 C   0  0  0  0  0  0  0  0  0  0  0  0
  -27.7827   -2.8918   -8.2638 C   0  0  0  0  0  0  0  0  0  0  0  0
  -27.5383   -1.6835   -8.9180 C   0  0  0  0  0  0  0  0  0  0  0  0
  -27.7424   -0.5184   -8.1882 C   0  0  0  0  0  0  0  0  0  0  0  0
  -28.1218   -0.4910   -6.8893 N   0  0  0  0  0  0  0  0  0  0  0  0
  -28.3418   -1.6720   -6.2795 C   0  0  0  0  0  0  0  0  0  0  0  0
  -28.7520   -1.5872   -4.9506 N   0  0  0  0  0  0  0  0  0  0  0  0
  -28.6558   -0.6237   -4.6547 H   0  0  0  0  0  0  0  0  0  0  0  0
  -28.2425   -2.2451   -4.3707 H   0  0  0  0  0  0  0  0  0  0  0  0
  -27.0677   -1.6489  -10.2890 C   0  0  0  0  0  0  0  0  0  0  0  0
  -27.7501   -1.3405  -11.4856 C   0  0  0  0  0  0  0  0  0  0  0  0
  -26.9642   -1.4166  -12.5591 N   0  0  0  0  0  0  0  0  0  0  0  0
  -25.7617   -1.7649  -12.0663 N   0  0  0  0  0  0  0  0  0  0  0  0
  -25.7802   -1.9254  -10.7037 C   0  0  0  0  0  0  0  0  0  0  0  0
  -24.6312   -2.0575  -12.9478 C   0  0  0  0  0  0  0  0  0  0  0  0
  -23.2932   -2.1072  -12.1944 C   0  0  0  0  0  0  0  0  0  0  0  0
  -22.7471   -0.7118  -11.9061 C   0  0  0  0  0  0  0  0  0  0  0  0
  -22.6101    0.0767  -13.1286 N   0  0  0  0  0  0  0  0  0  0  0  0
  -23.8988    0.2262  -13.8078 C   0  0  0  0  0  0  0  0  0  0  0  0
  -24.5130   -1.1267  -14.1672 C   0  0  0  0  0  0  0  0  0  0  0  0
  -21.9405   -0.3646  -13.7578 H   0  0  0  0  0  0  0  0  0  0  0  0
  -28.5461   -4.0512   -6.2442 O   0  0  0  0  0  0  0  0  0  0  0  0
  -30.5280   -4.8531   -7.4895 C   0  0  0  0  0  0  0  0  0  0  0  0
  -29.0962   -5.1411   -7.0092 C   0  0  0  0  0  0  0  0  0  0  0  0
  -29.1261   -6.4736   -6.2504 C   0  0  0  0  0  0  0  0  0  0  0  0
  -29.3878   -6.4706   -4.8542 C   0  0  0  0  0  0  0  0  0  0  0  0
  -29.8693   -5.0431   -3.9927 Cl  0  0  0  0  0  0  0  0  0  0  0  0
  -29.2312   -7.6222   -4.0728 C   0  0  0  0  0  0  0  0  0  0  0  0
  -28.8218   -8.8109   -4.6599 C   0  0  0  0  0  0  0  0  0  0  0  0
  -28.5949   -8.8478   -6.0289 C   0  0  0  0  0  0  0  0  0  0  0  0
  -28.1985  -10.0112   -6.5675 F   0  0  0  0  0  0  0  0  0  0  0  0
  -28.7396   -7.7022   -6.8275 C   0  0  0  0  0  0  0  0  0  0  0  0
  -28.3688   -7.8777   -8.5076 Cl  0  0  0  0  0  0  0  0  0  0  0  0
 23 24  1  0  0  0
 24 22  1  0  0  0
 24 25  1  0  0  0
 22  1  1  0  0  0
  1  2  1  0  0  0
  1  6  2  0  0  0
  2  3  2  0  0  0
  3 10  1  0  0  0
  3  4  1  0  0  0
 10 11  1  0  0  0
 10 14  2  0  0  0
 11 12  2  0  0  0
 12 13  1  0  0  0
 13 15  1  0  0  0
 13 14  1  0  0  0
 15 16  1  0  0  0
 15 20  1  0  0  0
 16 17  1  0  0  0
 17 18  1  0  0  0
 18 19  1  0  0  0
 18 21  1  0  0  0
 19 20  1  0  0  0
  4  5  2  0  0  0
  5  6  1  0  0  0
  6  7  1  0  0  0
  7  8  1  0  0  0
  7  9  1  0  0  0
 25 26  1  0  0  0
 25 32  2  0  0  0
 26 27  1  0  0  0
 26 28  2  0  0  0
 28 29  1  0  0  0
 29 30  2  0  0  0
 30 31  1  0  0  0
 30 32  1  0  0  0
 32 33  1  0  0  0
M  END
> <minimizedAffinity>
-8.68073

$$$$
