CHEMBL3236668


 30 34  0  0  0  0  0  0  0  0999 V2000
  -27.8008   -4.5849   -8.6234 O   0  0  0  0  0  0  0  0  0  0  0  0
  -28.4395   -4.5385   -7.5876 C   0  0  0  0  0  0  0  0  0  0  0  0
  -28.5857   -3.4124   -6.7253 C   0  0  0  0  0  0  0  0  0  0  0  0
  -27.7228   -2.4005   -6.8695 O   0  0  0  0  0  0  0  0  0  0  0  0
  -28.1713   -1.4281   -6.0863 C   0  0  0  0  0  0  0  0  0  0  0  0
  -27.5355   -0.1920   -6.0120 C   0  0  0  0  0  0  0  0  0  0  0  0
  -28.5461    0.7355   -6.0796 C   0  0  0  0  0  0  0  0  0  0  0  0
  -28.6563    1.4328   -7.2680 O   0  0  0  0  0  0  0  0  0  0  0  0
  -29.7031    0.5825   -5.3181 C   0  0  0  0  0  0  0  0  0  0  0  0
  -30.5478    1.6428   -5.1759 O   0  0  0  0  0  0  0  0  0  0  0  0
  -30.0913   -0.6946   -4.8621 C   0  0  0  0  0  0  0  0  0  0  0  0
  -29.3799   -1.7640   -5.4639 C   0  0  0  0  0  0  0  0  0  0  0  0
  -29.5289   -3.1672   -5.7222 C   0  0  0  0  0  0  0  0  0  0  0  0
  -30.4693   -4.2357   -5.3172 C   0  0  0  0  0  0  0  0  0  0  0  0
  -31.3306   -4.0887   -4.4725 O   0  0  0  0  0  0  0  0  0  0  0  0
  -30.1772   -5.4722   -6.0736 C   0  0  0  0  0  0  0  0  0  0  0  0
  -30.8294   -6.6639   -5.8885 O   0  0  0  0  0  0  0  0  0  0  0  0
  -30.3392   -7.5352   -6.8365 C   0  0  0  0  0  0  0  0  0  0  0  0
  -30.8105   -8.8141   -7.1301 C   0  0  0  0  0  0  0  0  0  0  0  0
  -30.2370   -9.4161   -8.2558 C   0  0  0  0  0  0  0  0  0  0  0  0
  -30.8496  -10.5047   -8.8101 O   0  0  0  0  0  0  0  0  0  0  0  0
  -29.1386   -8.8753   -8.9265 C   0  0  0  0  0  0  0  0  0  0  0  0
  -28.5524   -9.5413   -9.9614 O   0  0  0  0  0  0  0  0  0  0  0  0
  -28.6489   -7.6306   -8.5861 C   0  0  0  0  0  0  0  0  0  0  0  0
  -29.3169   -6.9356   -7.5667 C   0  0  0  0  0  0  0  0  0  0  0  0
  -29.2518   -5.6182   -7.0913 C   0  0  0  0  0  0  0  0  0  0  0  0
  -28.2909    0.8473   -7.9597 H   0  0  0  0  0  0  0  0  0  0  0  0
  -30.1099    2.3869   -5.6392 H   0  0  0  0  0  0  0  0  0  0  0  0
  -30.9695  -10.2621   -9.7509 H   0  0  0  0  0  0  0  0  0  0  0  0
  -28.7168  -10.4894   -9.8068 H   0  0  0  0  0  0  0  0  0  0  0  0
  1  2  2  0  0  0
  2  3  1  0  0  0
  2 26  1  0  0  0
  3  4  1  0  0  0
  3 13  2  0  0  0
  4  5  1  0  0  0
  5  6  1  0  0  0
  5 12  2  0  0  0
  6  7  2  0  0  0
  7  8  1  0  0  0
  7  9  1  0  0  0
  8 27  1  0  0  0
  9 10  1  0  0  0
  9 11  2  0  0  0
 10 28  1  0  0  0
 11 12  1  0  0  0
 12 13  1  0  0  0
 13 14  1  0  0  0
 14 15  2  0  0  0
 14 16  1  0  0  0
 16 17  1  0  0  0
 16 26  2  0  0  0
 17 18  1  0  0  0
 18 19  1  0  0  0
 18 25  2  0  0  0
 19 20  2  0  0  0
 20 21  1  0  0  0
 20 22  1  0  0  0
 21 29  1  0  0  0
 22 23  1  0  0  0
 22 24  2  0  0  0
 23 30  1  0  0  0
 24 25  1  0  0  0
 25 26  1  0  0  0
M  END
> <minimizedAffinity>
-9.90687

$$$$
