CHEMBL204425


 28 31  0  0  0  0  0  0  0  0999 V2000
  -27.9091   -2.0072   -9.4355 C   0  0  0  0  0  0  0  0  0  0  0  0
  -27.1817   -1.4890   -8.4687 N   0  0  0  0  0  0  0  0  0  0  0  0
  -27.4506   -2.2190   -7.3295 N   0  0  0  0  0  0  0  0  0  0  0  0
  -28.2935   -3.1692   -7.6776 C   0  0  0  0  0  0  0  0  0  0  0  0
  -28.6292   -3.0886   -9.0091 O   0  0  0  0  0  0  0  0  0  0  0  0
  -28.8903   -4.2635   -6.9112 C   0  0  0  0  0  0  0  0  0  0  0  0
  -29.7109   -5.1987   -7.5752 C   0  0  0  0  0  0  0  0  0  0  0  0
  -30.2986   -6.2591   -6.8929 C   0  0  0  0  0  0  0  0  0  0  0  0
  -30.0581   -6.3655   -5.5420 C   0  0  0  0  0  0  0  0  0  0  0  0
  -29.2867   -5.4967   -4.8601 N   0  0  0  0  0  0  0  0  0  0  0  0
  -28.6919   -4.4653   -5.5315 C   0  0  0  0  0  0  0  0  0  0  0  0
  -27.8695   -3.5386   -4.6503 C   0  0  0  0  0  0  0  0  0  0  0  0
  -28.7295   -2.5035   -3.8963 C   0  0  0  0  0  0  0  0  0  0  0  0
  -28.9185   -1.1541   -4.5579 C   0  0  0  0  0  0  0  0  0  0  0  0
  -27.8353   -0.2641   -4.5977 C   0  0  0  0  0  0  0  0  0  0  0  0
  -27.9760    0.9467   -5.2563 C   0  0  0  0  0  0  0  0  0  0  0  0
  -29.1051    1.3320   -5.8827 N   0  0  0  0  0  0  0  0  0  0  0  0
  -30.1359    0.4593   -5.8484 C   0  0  0  0  0  0  0  0  0  0  0  0
  -30.0908   -0.7762   -5.2148 C   0  0  0  0  0  0  0  0  0  0  0  0
  -27.9427   -1.6415  -10.7318 N   0  0  0  0  0  0  0  0  0  0  0  0
  -28.8669   -1.6698  -11.1472 H   0  0  0  0  0  0  0  0  0  0  0  0
  -23.0875   -1.6362  -11.6169 C   0  0  0  0  0  0  0  0  0  0  0  0
  -24.4943   -1.6593  -12.1387 C   0  0  0  0  0  0  0  0  0  0  0  0
  -24.7475   -1.6894  -13.5105 C   0  0  0  0  0  0  0  0  0  0  0  0
  -26.0593   -1.7195  -13.9763 C   0  0  0  0  0  0  0  0  0  0  0  0
  -27.1310   -1.7082  -13.0781 C   0  0  0  0  0  0  0  0  0  0  0  0
  -26.9146   -1.6454  -11.6969 C   0  0  0  0  0  0  0  0  0  0  0  0
  -25.5803   -1.6475  -11.2460 C   0  0  0  0  0  0  0  0  0  0  0  0
 22 23  1  0  0  0
 23 24  1  0  0  0
 23 28  2  0  0  0
 24 25  2  0  0  0
 25 26  1  0  0  0
 26 27  2  0  0  0
 27 20  1  0  0  0
 27 28  1  0  0  0
 20  1  1  0  0  0
 20 21  1  0  0  0
  1  2  2  0  0  0
  1  5  1  0  0  0
  2  3  1  0  0  0
  3  4  2  0  0  0
  4  6  1  0  0  0
  4  5  1  0  0  0
  6  7  1  0  0  0
  6 11  2  0  0  0
  7  8  2  0  0  0
  8  9  1  0  0  0
  9 10  2  0  0  0
 10 11  1  0  0  0
 11 12  1  0  0  0
 12 13  1  0  0  0
 13 14  1  0  0  0
 14 15  1  0  0  0
 14 19  2  0  0  0
 15 16  2  0  0  0
 16 17  1  0  0  0
 17 18  2  0  0  0
 18 19  1  0  0  0
M  END
> <minimizedAffinity>
-9.77202

$$$$
