CHEMBL121405


 35 39  0  0  0  0  0  0  0  0999 V2000
  -15.5570   -0.4343  -13.9590 C   0  0  0  0  0  0  0  0  0  0  0  0
  -14.7483    0.4269  -14.5495 N   0  0  0  0  0  0  0  0  0  0  0  0
  -15.5973    1.3903  -15.0535 C   0  0  0  0  0  0  0  0  0  0  0  0
  -16.9063    1.0945  -14.7110 C   0  0  0  0  0  0  0  0  0  0  0  0
  -16.8797   -0.1011  -14.0307 O   0  0  0  0  0  0  0  0  0  0  0  0
  -15.8372   -2.7831  -14.0253 O   0  0  0  0  0  0  0  0  0  0  0  0
  -15.1869   -1.7302  -13.2817 C   0  0  0  0  0  0  0  0  0  0  0  0
  -15.7326   -1.7442  -11.8511 C   0  0  0  0  0  0  0  0  0  0  0  0
  -15.2830   -2.9905  -11.0959 C   0  0  0  0  0  0  0  0  0  0  0  0
  -13.8254   -3.1110  -11.1040 N   0  0  0  0  0  0  0  0  0  0  0  0
  -13.3266   -3.2360  -12.4753 C   0  0  0  0  0  0  0  0  0  0  0  0
  -13.6781   -2.0022  -13.3024 C   0  0  0  0  0  0  0  0  0  0  0  0
  -16.6903   -2.4128  -14.3282 H   0  0  0  0  0  0  0  0  0  0  0  0
  -13.5607   -3.9465  -10.5812 H   0  0  0  0  0  0  0  0  0  0  0  0
  -15.1282    2.5467  -15.7986 C   0  0  0  0  0  0  0  0  0  0  0  0
  -15.7175    2.9225  -17.0187 C   0  0  0  0  0  0  0  0  0  0  0  0
  -15.3433    4.1079  -17.6532 C   0  0  0  0  0  0  0  0  0  0  0  0
  -14.3407    4.8916  -17.0982 C   0  0  0  0  0  0  0  0  0  0  0  0
  -13.9943    6.0381  -17.6967 F   0  0  0  0  0  0  0  0  0  0  0  0
  -13.6962    4.5043  -15.9296 C   0  0  0  0  0  0  0  0  0  0  0  0
  -14.0889    3.3311  -15.2793 C   0  0  0  0  0  0  0  0  0  0  0  0
  -18.2264    1.7060  -14.8564 C   0  0  0  0  0  0  0  0  0  0  0  0
  -18.3867    3.0866  -14.9627 C   0  0  0  0  0  0  0  0  0  0  0  0
  -19.6648    3.5917  -15.1158 C   0  0  0  0  0  0  0  0  0  0  0  0
  -20.7790    2.8324  -15.1087 N   0  0  0  0  0  0  0  0  0  0  0  0
  -20.6288    1.5038  -14.9711 C   0  0  0  0  0  0  0  0  0  0  0  0
  -19.3733    0.9136  -14.8720 C   0  0  0  0  0  0  0  0  0  0  0  0
  -21.7319    0.6758  -14.8477 N   0  0  0  0  0  0  0  0  0  0  0  0
  -22.4310    0.8228  -15.5656 H   0  0  0  0  0  0  0  0  0  0  0  0
  -22.2276    0.2978  -13.5307 C   0  0  0  0  0  0  0  0  0  0  0  0
  -22.5321   -1.2086  -13.6240 C   0  0  0  0  0  0  0  0  0  0  0  0
  -23.3176   -1.7403  -12.4363 C   0  0  0  0  0  0  0  0  0  0  0  0
  -24.5845   -0.9262  -12.2176 C   0  0  0  0  0  0  0  0  0  0  0  0
  -24.2434    0.5426  -11.9856 C   0  0  0  0  0  0  0  0  0  0  0  0
  -23.4598    1.1322  -13.1619 C   0  0  0  0  0  0  0  0  0  0  0  0
  6  7  1  0  0  0
  6 13  1  0  0  0
  7  1  1  0  0  0
  7  8  1  0  0  0
  7 12  1  0  0  0
  1  2  2  0  0  0
  1  5  1  0  0  0
  2  3  1  0  0  0
  3 15  1  0  0  0
  3  4  2  0  0  0
 15 16  1  0  0  0
 15 21  2  0  0  0
 16 17  2  0  0  0
 17 18  1  0  0  0
 18 19  1  0  0  0
 18 20  2  0  0  0
 20 21  1  0  0  0
  4 22  1  0  0  0
  4  5  1  0  0  0
 22 23  1  0  0  0
 22 27  2  0  0  0
 23 24  2  0  0  0
 24 25  1  0  0  0
 25 26  2  0  0  0
 26 28  1  0  0  0
 26 27  1  0  0  0
 28 30  1  0  0  0
 28 29  1  0  0  0
 30 31  1  0  0  0
 30 35  1  0  0  0
 31 32  1  0  0  0
 32 33  1  0  0  0
 33 34  1  0  0  0
 34 35  1  0  0  0
  8  9  1  0  0  0
  9 10  1  0  0  0
 10 11  1  0  0  0
 10 14  1  0  0  0
 11 12  1  0  0  0
M  END
> <minimizedAffinity>
-9.86614

$$$$
