CHEMBL3951451


 37 41  0  0  0  0  0  0  0  0999 V2000
  -28.6664   -2.1200   -8.2338 C   0  0  0  0  0  0  0  0  0  0  0  0
  -29.2942   -3.3515   -8.4041 C   0  0  0  0  0  0  0  0  0  0  0  0
  -29.7624   -4.0621   -7.3089 C   0  0  0  0  0  0  0  0  0  0  0  0
  -29.5008   -3.6664   -5.9877 C   0  0  0  0  0  0  0  0  0  0  0  0
  -28.7844   -2.4266   -5.7960 C   0  0  0  0  0  0  0  0  0  0  0  0
  -28.4712   -1.8970   -4.5159 C   0  0  0  0  0  0  0  0  0  0  0  0
  -27.9787   -0.6042   -4.3285 C   0  0  0  0  0  0  0  0  0  0  0  0
  -27.6885    0.1820   -5.4255 C   0  0  0  0  0  0  0  0  0  0  0  0
  -27.8628   -0.3394   -6.7055 C   0  0  0  0  0  0  0  0  0  0  0  0
  -28.4049   -1.6310   -6.9292 C   0  0  0  0  0  0  0  0  0  0  0  0
  -30.0990   -4.4791   -4.8863 C   0  0  0  0  0  0  0  0  0  0  0  0
  -31.1879   -4.0145   -4.1240 C   0  0  0  0  0  0  0  0  0  0  0  0
  -31.8199   -4.6586   -3.1116 N   0  0  0  0  0  0  0  0  0  0  0  0
  -31.4492   -5.9167   -2.8288 C   0  0  0  0  0  0  0  0  0  0  0  0
  -30.4513   -6.5010   -3.5875 C   0  0  0  0  0  0  0  0  0  0  0  0
  -29.9714   -7.7780   -3.5667 N   0  0  0  0  0  0  0  0  0  0  0  0
  -28.9922   -8.0080   -4.4412 N   0  0  0  0  0  0  0  0  0  0  0  0
  -28.8093   -6.8307   -5.0327 C   0  0  0  0  0  0  0  0  0  0  0  0
  -27.8540   -6.6950   -5.9562 N   0  0  0  0  0  0  0  0  0  0  0  0
  -29.7383   -5.8276   -4.5867 C   0  0  0  0  0  0  0  0  0  0  0  0
  -30.2864   -8.5491   -2.9892 H   0  0  0  0  0  0  0  0  0  0  0  0
  -27.3450   -7.5173   -6.2564 H   0  0  0  0  0  0  0  0  0  0  0  0
  -27.5346   -5.8123   -6.3297 H   0  0  0  0  0  0  0  0  0  0  0  0
  -27.0890   -0.8586  -11.2553 N   0  0  0  0  0  0  0  0  0  0  0  0
  -27.2929   -1.7109  -10.1850 C   0  0  0  0  0  0  0  0  0  0  0  0
  -26.6128   -2.6927   -9.9310 O   0  0  0  0  0  0  0  0  0  0  0  0
  -28.4010   -1.3565   -9.4157 N   0  0  0  0  0  0  0  0  0  0  0  0
  -27.8344   -0.2206  -11.4770 H   0  0  0  0  0  0  0  0  0  0  0  0
  -29.1968   -1.0701   -9.9569 H   0  0  0  0  0  0  0  0  0  0  0  0
  -22.3591    0.0547  -12.3437 C   0  0  0  0  0  0  0  0  0  0  0  0
  -23.6938   -0.4998  -12.7405 C   0  0  0  0  0  0  0  0  0  0  0  0
  -23.8753   -1.0424  -14.0180 C   0  0  0  0  0  0  0  0  0  0  0  0
  -25.1013   -1.5841  -14.3774 C   0  0  0  0  0  0  0  0  0  0  0  0
  -26.1607   -1.5748  -13.4728 C   0  0  0  0  0  0  0  0  0  0  0  0
  -27.2612   -2.2352  -13.8476 F   0  0  0  0  0  0  0  0  0  0  0  0
  -26.0337   -0.9869  -12.2007 C   0  0  0  0  0  0  0  0  0  0  0  0
  -24.7768   -0.4806  -11.8360 C   0  0  0  0  0  0  0  0  0  0  0  0
 30 31  1  0  0  0
 31 32  1  0  0  0
 31 37  2  0  0  0
 32 33  2  0  0  0
 33 34  1  0  0  0
 34 35  1  0  0  0
 34 36  2  0  0  0
 36 24  1  0  0  0
 36 37  1  0  0  0
 24 25  1  0  0  0
 24 28  1  0  0  0
 25 26  2  0  0  0
 25 27  1  0  0  0
 27  1  1  0  0  0
 27 29  1  0  0  0
  1  2  1  0  0  0
  1 10  2  0  0  0
  2  3  2  0  0  0
  3  4  1  0  0  0
  4 11  1  0  0  0
  4  5  2  0  0  0
 11 12  1  0  0  0
 11 20  2  0  0  0
 12 13  2  0  0  0
 13 14  1  0  0  0
 14 15  2  0  0  0
 15 16  1  0  0  0
 15 20  1  0  0  0
 16 17  1  0  0  0
 16 21  1  0  0  0
 17 18  2  0  0  0
 18 19  1  0  0  0
 18 20  1  0  0  0
 19 22  1  0  0  0
 19 23  1  0  0  0
  5  6  1  0  0  0
  5 10  1  0  0  0
  6  7  2  0  0  0
  7  8  1  0  0  0
  8  9  2  0  0  0
  9 10  1  0  0  0
M  END
> <minimizedAffinity>
-11.23776

$$$$
