CHEMBL3422071


 40 45  0  0  0  0  0  0  0  0999 V2000
  -28.2985   -1.9320   -7.9903 C   0  0  0  0  0  0  0  0  0  0  0  0
  -28.2788   -0.8353   -7.2160 N   0  0  0  0  0  0  0  0  0  0  0  0
  -28.1825   -1.3075   -5.9798 N   0  0  0  0  0  0  0  0  0  0  0  0
  -28.2336   -2.6677   -5.9100 C   0  0  0  0  0  0  0  0  0  0  0  0
  -27.9776   -3.5455   -4.8493 C   0  0  0  0  0  0  0  0  0  0  0  0
  -28.2870   -4.8930   -5.0536 C   0  0  0  0  0  0  0  0  0  0  0  0
  -28.8658   -5.3143   -6.2558 C   0  0  0  0  0  0  0  0  0  0  0  0
  -28.9527   -4.4432   -7.3637 C   0  0  0  0  0  0  0  0  0  0  0  0
  -28.5928   -3.0924   -7.1917 C   0  0  0  0  0  0  0  0  0  0  0  0
  -28.0402   -0.6584   -5.2222 H   0  0  0  0  0  0  0  0  0  0  0  0
  -26.4201   -1.2128  -11.7392 C   0  0  0  0  0  0  0  0  0  0  0  0
  -25.7019   -1.2742  -10.5543 C   0  0  0  0  0  0  0  0  0  0  0  0
  -26.3525   -1.5884   -9.3740 C   0  0  0  0  0  0  0  0  0  0  0  0
  -27.7453   -1.7997   -9.3334 C   0  0  0  0  0  0  0  0  0  0  0  0
  -28.4596   -1.7997  -10.5269 C   0  0  0  0  0  0  0  0  0  0  0  0
  -27.7904   -1.5045  -11.7336 C   0  0  0  0  0  0  0  0  0  0  0  0
  -25.6763   -0.7967  -12.8024 O   0  0  0  0  0  0  0  0  0  0  0  0
  -21.5433    0.8432  -13.7976 C   0  0  0  0  0  0  0  0  0  0  0  0
  -22.4174   -0.3164  -13.9888 N   0  0  0  0  0  0  0  0  0  0  0  0
  -22.7457   -0.9171  -12.6875 C   0  0  0  0  0  0  0  0  0  0  0  0
  -23.6405   -2.1434  -12.8685 C   0  0  0  0  0  0  0  0  0  0  0  0
  -24.9453   -1.7593  -13.5669 C   0  0  0  0  0  0  0  0  0  0  0  0
  -24.6004   -1.0936  -14.9044 C   0  0  0  0  0  0  0  0  0  0  0  0
  -23.6320    0.0805  -14.7193 C   0  0  0  0  0  0  0  0  0  0  0  0
  -29.3965   -6.7053   -6.3329 C   0  0  0  0  0  0  0  0  0  0  0  0
  -30.5838   -6.9383   -6.1630 O   0  0  0  0  0  0  0  0  0  0  0  0
  -28.4468   -7.6516   -6.6479 N   0  0  0  0  0  0  0  0  0  0  0  0
  -27.6507   -7.3153   -7.1758 H   0  0  0  0  0  0  0  0  0  0  0  0
  -28.7601   -9.0650   -6.8648 C   0  0  0  0  0  0  0  0  0  0  0  0
  -28.3915   -9.5141   -8.2812 C   0  0  0  0  0  0  0  0  0  0  0  0
  -29.3804   -9.6209   -9.2600 C   0  0  0  0  0  0  0  0  0  0  0  0
  -29.0353  -10.0873  -10.5299 C   0  0  0  0  0  0  0  0  0  0  0  0
  -27.7158  -10.4289  -10.7924 C   0  0  0  0  0  0  0  0  0  0  0  0
  -26.7972  -10.3118   -9.7643 C   0  0  0  0  0  0  0  0  0  0  0  0
  -27.0992   -9.8689   -8.5208 N   0  0  0  0  0  0  0  0  0  0  0  0
  -28.0403   -9.9529   -5.8210 C   0  0  0  0  0  0  0  0  0  0  0  0
  -28.9904  -10.6480   -4.8390 C   0  0  0  0  0  0  0  0  0  0  0  0
  -28.1136  -11.0544   -3.6546 C   0  0  0  0  0  0  0  0  0  0  0  0
  -26.8298  -10.2351   -3.7634 C   0  0  0  0  0  0  0  0  0  0  0  0
  -27.0775   -9.2249   -4.8754 C   0  0  0  0  0  0  0  0  0  0  0  0
 18 19  1  0  0  0
 19 20  1  0  0  0
 19 24  1  0  0  0
 20 21  1  0  0  0
 21 22  1  0  0  0
 22 17  1  0  0  0
 22 23  1  0  0  0
 17 11  1  0  0  0
 11 12  1  0  0  0
 11 16  2  0  0  0
 12 13  2  0  0  0
 13 14  1  0  0  0
 14  1  1  0  0  0
 14 15  2  0  0  0
  1  2  2  0  0  0
  1  9  1  0  0  0
  2  3  1  0  0  0
  3  4  1  0  0  0
  3 10  1  0  0  0
  4  5  1  0  0  0
  4  9  2  0  0  0
  5  6  2  0  0  0
  6  7  1  0  0  0
  7 25  1  0  0  0
  7  8  2  0  0  0
 25 26  2  0  0  0
 25 27  1  0  0  0
 27 29  1  0  0  0
 27 28  1  0  0  0
 29 30  1  0  0  0
 29 36  1  0  0  0
 30 31  1  0  0  0
 30 35  2  0  0  0
 31 32  2  0  0  0
 32 33  1  0  0  0
 33 34  2  0  0  0
 34 35  1  0  0  0
 36 37  1  0  0  0
 36 40  1  0  0  0
 37 38  1  0  0  0
 38 39  1  0  0  0
 39 40  1  0  0  0
  8  9  1  0  0  0
 15 16  1  0  0  0
 23 24  1  0  0  0
M  END
> <minimizedAffinity>
-9.42837

$$$$
