CHEMBL1940275


 35 38  0  0  0  0  0  0  0  0999 V2000
  -23.5816   11.1854  -17.3210 C   0  0  0  0  0  0  0  0  0  0  0  0
  -24.0838   12.0625  -18.2862 C   0  0  0  0  0  0  0  0  0  0  0  0
  -23.2694   12.4899  -19.3438 C   0  0  0  0  0  0  0  0  0  0  0  0
  -21.9375   12.0604  -19.4328 C   0  0  0  0  0  0  0  0  0  0  0  0
  -21.4016   11.2967  -18.3952 C   0  0  0  0  0  0  0  0  0  0  0  0
  -22.2130   10.8849  -17.3437 C   0  0  0  0  0  0  0  0  0  0  0  0
  -24.4251   10.6043  -16.3441 N   0  0  0  0  0  0  0  0  0  0  0  0
  -24.1807    9.6421  -16.1349 H   0  0  0  0  0  0  0  0  0  0  0  0
  -28.7960   11.7678  -13.9073 C   0  0  0  0  0  0  0  0  0  0  0  0
  -27.7062   12.3243  -13.2230 C   0  0  0  0  0  0  0  0  0  0  0  0
  -26.3997   12.1372  -13.6333 C   0  0  0  0  0  0  0  0  0  0  0  0
  -25.4375   12.6589  -12.8693 N   0  0  0  0  0  0  0  0  0  0  0  0
  -24.1850   12.4431  -13.2642 C   0  0  0  0  0  0  0  0  0  0  0  0
  -23.8224   11.7763  -14.3589 N   0  0  0  0  0  0  0  0  0  0  0  0
  -24.8000   11.2698  -15.1394 C   0  0  0  0  0  0  0  0  0  0  0  0
  -26.1556   11.4076  -14.8019 C   0  0  0  0  0  0  0  0  0  0  0  0
  -27.2509   10.9053  -15.5445 C   0  0  0  0  0  0  0  0  0  0  0  0
  -28.5683   11.1019  -15.1150 C   0  0  0  0  0  0  0  0  0  0  0  0
  -30.1483   12.1061  -12.0082 C   0  0  0  0  0  0  0  0  0  0  0  0
  -30.0715   11.8509  -13.4119 O   0  0  0  0  0  0  0  0  0  0  0  0
  -29.5068   10.5350  -15.9342 O   0  0  0  0  0  0  0  0  0  0  0  0
  -29.0503   10.1017  -17.2121 C   0  0  0  0  0  0  0  0  0  0  0  0
  -21.1244   12.2580  -20.6850 C   0  0  0  0  0  0  0  0  0  0  0  0
  -19.7702   11.5966  -20.7380 C   0  0  0  0  0  0  0  0  0  0  0  0
  -19.6946   10.4082  -21.0576 O   0  0  0  0  0  0  0  0  0  0  0  0
  -18.7150   12.3671  -20.2939 N   0  0  0  0  0  0  0  0  0  0  0  0
  -18.8826   13.2944  -19.9242 H   0  0  0  0  0  0  0  0  0  0  0  0
  -17.4262   11.8597  -20.2086 C   0  0  0  0  0  0  0  0  0  0  0  0
  -16.1792   12.5061  -20.3670 C   0  0  0  0  0  0  0  0  0  0  0  0
  -15.1465   11.6666  -20.2658 N   0  0  0  0  0  0  0  0  0  0  0  0
  -15.7372   10.4683  -20.1000 N   0  0  0  0  0  0  0  0  0  0  0  0
  -17.1025   10.5438  -19.9666 C   0  0  0  0  0  0  0  0  0  0  0  0
  -14.9253    9.2590  -20.1996 C   0  0  0  0  0  0  0  0  0  0  0  0
  -13.4868    9.6121  -20.5893 C   0  0  0  0  0  0  0  0  0  0  0  0
  -14.9625    8.4475  -18.9057 C   0  0  0  0  0  0  0  0  0  0  0  0
 19 20  1  0  0  0
 20  9  1  0  0  0
  9 10  1  0  0  0
  9 18  2  0  0  0
 10 11  2  0  0  0
 11 12  1  0  0  0
 11 16  1  0  0  0
 12 13  2  0  0  0
 13 14  1  0  0  0
 14 15  2  0  0  0
 15  7  1  0  0  0
 15 16  1  0  0  0
  7  1  1  0  0  0
  7  8  1  0  0  0
  1  2  1  0  0  0
  1  6  2  0  0  0
  2  3  2  0  0  0
  3  4  1  0  0  0
  4 23  1  0  0  0
  4  5  2  0  0  0
 23 24  1  0  0  0
 24 25  2  0  0  0
 24 26  1  0  0  0
 26 28  1  0  0  0
 26 27  1  0  0  0
 28 29  1  0  0  0
 28 32  2  0  0  0
 29 30  2  0  0  0
 30 31  1  0  0  0
 31 33  1  0  0  0
 31 32  1  0  0  0
 33 34  1  0  0  0
 33 35  1  0  0  0
  5  6  1  0  0  0
 16 17  2  0  0  0
 17 18  1  0  0  0
 18 21  1  0  0  0
 21 22  1  0  0  0
M  END
> <minimizedAffinity>
-5.64881

$$$$
