CHEMBL3936828


 35 38  0  0  0  0  0  0  0  0999 V2000
  -27.8796   -2.1560   -8.6255 N   0  0  0  0  0  0  0  0  0  0  0  0
  -27.3992   -1.5298   -9.8340 C   0  0  0  0  0  0  0  0  0  0  0  0
  -28.2704   -1.6032  -10.9234 C   0  0  0  0  0  0  0  0  0  0  0  0
  -27.7772   -1.6164  -12.2078 C   0  0  0  0  0  0  0  0  0  0  0  0
  -26.4552   -1.3741  -12.4730 C   0  0  0  0  0  0  0  0  0  0  0  0
  -26.0868   -1.6096  -13.7404 N   0  0  0  0  0  0  0  0  0  0  0  0
  -24.8660   -1.1991  -14.0909 C   0  0  0  0  0  0  0  0  0  0  0  0
  -24.0610   -0.4854  -13.2296 C   0  0  0  0  0  0  0  0  0  0  0  0
  -24.3744   -0.3582  -11.8902 N   0  0  0  0  0  0  0  0  0  0  0  0
  -25.5950   -0.8949  -11.4620 C   0  0  0  0  0  0  0  0  0  0  0  0
  -26.0879   -1.0524  -10.1101 C   0  0  0  0  0  0  0  0  0  0  0  0
  -23.0111    0.3045  -13.8526 C   0  0  0  0  0  0  0  0  0  0  0  0
  -21.7599   -0.1307  -14.3766 C   0  0  0  0  0  0  0  0  0  0  0  0
  -20.9080    0.8734  -14.6209 N   0  0  0  0  0  0  0  0  0  0  0  0
  -21.5969    1.9648  -14.2489 N   0  0  0  0  0  0  0  0  0  0  0  0
  -21.1101    3.2827  -14.5856 C   0  0  0  0  0  0  0  0  0  0  0  0
  -22.7875    1.6638  -13.6396 C   0  0  0  0  0  0  0  0  0  0  0  0
  -28.7364    0.0943   -5.7339 C   0  0  0  0  0  0  0  0  0  0  0  0
  -28.4258   -0.7253   -4.6484 C   0  0  0  0  0  0  0  0  0  0  0  0
  -27.8877   -1.9880   -4.8657 C   0  0  0  0  0  0  0  0  0  0  0  0
  -27.6537   -2.4294   -6.1766 C   0  0  0  0  0  0  0  0  0  0  0  0
  -27.9447   -1.6417   -7.3030 C   0  0  0  0  0  0  0  0  0  0  0  0
  -28.4780   -0.3598   -7.0487 C   0  0  0  0  0  0  0  0  0  0  0  0
  -30.6873    1.4525   -6.0033 C   0  0  0  0  0  0  0  0  0  0  0  0
  -29.3166    1.3360   -5.6161 O   0  0  0  0  0  0  0  0  0  0  0  0
  -27.5717   -2.8969   -3.8890 O   0  0  0  0  0  0  0  0  0  0  0  0
  -27.6479   -4.2741   -4.2411 C   0  0  0  0  0  0  0  0  0  0  0  0
  -27.6605   -3.6582   -8.7479 C   0  0  0  0  0  0  0  0  0  0  0  0
  -28.5833   -4.5656   -7.8857 C   0  0  0  0  0  0  0  0  0  0  0  0
  -29.9796   -4.3246   -8.1353 O   0  0  0  0  0  0  0  0  0  0  0  0
  -30.1002   -4.3718   -9.0989 H   0  0  0  0  0  0  0  0  0  0  0  0
  -28.3019   -6.0686   -8.1651 C   0  0  0  0  0  0  0  0  0  0  0  0
  -27.2096   -6.3041   -9.1260 N   0  0  0  0  0  0  0  0  0  0  0  0
  -27.5209   -6.0076  -10.0541 H   0  0  0  0  0  0  0  0  0  0  0  0
  -27.0637   -7.3099   -9.2166 H   0  0  0  0  0  0  0  0  0  0  0  0
 24 25  1  0  0  0
 25 18  1  0  0  0
 18 19  1  0  0  0
 18 23  2  0  0  0
 19 20  2  0  0  0
 20 26  1  0  0  0
 20 21  1  0  0  0
 26 27  1  0  0  0
 21 22  2  0  0  0
 22  1  1  0  0  0
 22 23  1  0  0  0
  1 28  1  0  0  0
  1  2  1  0  0  0
 28 29  1  0  0  0
 29 30  1  0  0  0
 29 32  1  0  0  0
 30 31  1  0  0  0
 32 33  1  0  0  0
 33 34  1  0  0  0
 33 35  1  0  0  0
  2  3  1  0  0  0
  2 11  2  0  0  0
  3  4  2  0  0  0
  4  5  1  0  0  0
  5  6  1  0  0  0
  5 10  2  0  0  0
  6  7  2  0  0  0
  7  8  1  0  0  0
  8 12  1  0  0  0
  8  9  2  0  0  0
 12 13  1  0  0  0
 12 17  2  0  0  0
 13 14  2  0  0  0
 14 15  1  0  0  0
 15 16  1  0  0  0
 15 17  1  0  0  0
  9 10  1  0  0  0
 10 11  1  0  0  0
M  END
> <minimizedAffinity>
-8.63596

$$$$
