CHEMBL3951403


 38 42  0  0  0  0  0  0  0  0999 V2000
  -15.1042   -1.3577  -12.6837 C   0  0  0  0  0  0  0  0  0  0  0  0
  -13.9698   -2.1108  -13.0053 C   0  0  0  0  0  0  0  0  0  0  0  0
  -13.2359   -1.8762  -14.1954 C   0  0  0  0  0  0  0  0  0  0  0  0
  -12.1113   -2.5896  -14.6273 C   0  0  0  0  0  0  0  0  0  0  0  0
  -11.4428   -2.2584  -15.7539 N   0  0  0  0  0  0  0  0  0  0  0  0
  -11.8941   -1.2180  -16.4561 C   0  0  0  0  0  0  0  0  0  0  0  0
  -12.9575   -0.4845  -16.1431 N   0  0  0  0  0  0  0  0  0  0  0  0
  -13.6006   -0.8255  -15.0278 C   0  0  0  0  0  0  0  0  0  0  0  0
  -14.7036   -0.0763  -14.6871 C   0  0  0  0  0  0  0  0  0  0  0  0
  -15.5032   -0.3453  -13.5607 C   0  0  0  0  0  0  0  0  0  0  0  0
  -15.9070   -3.0655  -11.2044 C   0  0  0  0  0  0  0  0  0  0  0  0
  -15.6350   -1.7024  -11.4741 O   0  0  0  0  0  0  0  0  0  0  0  0
  -11.6398   -3.6888  -13.8708 N   0  0  0  0  0  0  0  0  0  0  0  0
  -11.6841   -3.4671  -12.8782 H   0  0  0  0  0  0  0  0  0  0  0  0
  -11.9661   -5.0187  -14.1743 C   0  0  0  0  0  0  0  0  0  0  0  0
  -11.1735   -5.7320  -15.0947 C   0  0  0  0  0  0  0  0  0  0  0  0
  -11.5388   -7.0067  -15.5154 C   0  0  0  0  0  0  0  0  0  0  0  0
  -12.6956   -7.5947  -15.0161 C   0  0  0  0  0  0  0  0  0  0  0  0
  -13.1288   -9.1538  -15.6255 Cl  0  0  0  0  0  0  0  0  0  0  0  0
  -13.4696   -6.9130  -14.0640 C   0  0  0  0  0  0  0  0  0  0  0  0
  -14.9123   -7.5940  -13.3942 Cl  0  0  0  0  0  0  0  0  0  0  0  0
  -13.1015   -5.6291  -13.6390 C   0  0  0  0  0  0  0  0  0  0  0  0
  -16.6418    0.3886  -13.3198 O   0  0  0  0  0  0  0  0  0  0  0  0
  -17.1948    0.9541  -14.5193 C   0  0  0  0  0  0  0  0  0  0  0  0
  -18.5934    1.4965  -14.3188 C   0  0  0  0  0  0  0  0  0  0  0  0
  -19.5802    0.8879  -15.3379 C   0  0  0  0  0  0  0  0  0  0  0  0
  -20.9460    1.4547  -15.2114 N   0  0  0  0  0  0  0  0  0  0  0  0
  -20.8061    2.9270  -15.3366 C   0  0  0  0  0  0  0  0  0  0  0  0
  -19.7997    3.5436  -14.3523 C   0  0  0  0  0  0  0  0  0  0  0  0
  -18.5131    2.9285  -14.4664 O   0  0  0  0  0  0  0  0  0  0  0  0
  -21.5184    1.0271  -13.9219 C   0  0  0  0  0  0  0  0  0  0  0  0
  -22.1593   -0.3559  -13.9343 C   0  0  0  0  0  0  0  0  0  0  0  0
  -23.6600   -0.3119  -13.5737 C   0  0  0  0  0  0  0  0  0  0  0  0
  -23.7937   -0.3112  -12.0436 C   0  0  0  0  0  0  0  0  0  0  0  0
  -25.2463   -0.3695  -11.5860 C   0  0  0  0  0  0  0  0  0  0  0  0
  -25.9751   -1.5608  -12.1959 C   0  0  0  0  0  0  0  0  0  0  0  0
  -25.8999   -1.5240  -13.7147 C   0  0  0  0  0  0  0  0  0  0  0  0
  -24.4545   -1.4780  -14.1969 C   0  0  0  0  0  0  0  0  0  0  0  0
 11 12  1  0  0  0
 12  1  1  0  0  0
  1  2  1  0  0  0
  1 10  2  0  0  0
  2  3  2  0  0  0
  3  4  1  0  0  0
  3  8  1  0  0  0
  4 13  1  0  0  0
  4  5  2  0  0  0
 13 15  1  0  0  0
 13 14  1  0  0  0
 15 16  1  0  0  0
 15 22  2  0  0  0
 16 17  2  0  0  0
 17 18  1  0  0  0
 18 19  1  0  0  0
 18 20  2  0  0  0
 20 21  1  0  0  0
 20 22  1  0  0  0
  5  6  1  0  0  0
  6  7  2  0  0  0
  7  8  1  0  0  0
  8  9  2  0  0  0
  9 10  1  0  0  0
 10 23  1  0  0  0
 23 24  1  0  0  0
 24 25  1  0  0  0
 25 26  1  0  0  0
 25 30  1  0  0  0
 26 27  1  0  0  0
 27 31  1  0  0  0
 27 28  1  0  0  0
 31 32  1  0  0  0
 32 33  1  0  0  0
 33 34  1  0  0  0
 33 38  1  0  0  0
 34 35  1  0  0  0
 35 36  1  0  0  0
 36 37  1  0  0  0
 37 38  1  0  0  0
 28 29  1  0  0  0
 29 30  1  0  0  0
M  END
> <minimizedAffinity>
-8.38447

$$$$
