CHEMBL3893580


 31 34  0  0  0  0  0  0  0  0999 V2000
  -26.8838   -1.3476  -15.0685 C   0  0  0  0  0  0  0  0  0  0  0  0
  -26.7878   -1.5817  -13.5799 C   0  0  0  0  0  0  0  0  0  0  0  0
  -28.0028   -2.0829  -12.9831 C   0  0  0  0  0  0  0  0  0  0  0  0
  -28.1207   -2.2237  -11.6638 C   0  0  0  0  0  0  0  0  0  0  0  0
  -27.1219   -1.8570  -10.7816 N   0  0  0  0  0  0  0  0  0  0  0  0
  -25.8756   -1.3562  -11.2639 C   0  0  0  0  0  0  0  0  0  0  0  0
  -24.9529   -1.0239  -10.5259 O   0  0  0  0  0  0  0  0  0  0  0  0
  -25.6948   -1.3084  -12.8217 C   0  0  0  0  0  0  0  0  0  0  0  0
  -24.4241   -0.9890  -13.3582 N   0  0  0  0  0  0  0  0  0  0  0  0
  -23.1420   -1.3910  -12.7083 C   0  0  0  0  0  0  0  0  0  0  0  0
  -21.9359   -1.2312  -13.6626 C   0  0  0  0  0  0  0  0  0  0  0  0
  -21.9209    0.2278  -14.0570 C   0  0  0  0  0  0  0  0  0  0  0  0
  -20.8442    0.9976  -13.7972 N   0  0  0  0  0  0  0  0  0  0  0  0
  -21.0281    2.3189  -13.9129 C   0  0  0  0  0  0  0  0  0  0  0  0
  -19.9768    3.1564  -13.6020 N   0  0  0  0  0  0  0  0  0  0  0  0
  -22.1654    2.9070  -14.3074 N   0  0  0  0  0  0  0  0  0  0  0  0
  -23.2070    2.0968  -14.5811 C   0  0  0  0  0  0  0  0  0  0  0  0
  -23.1383    0.7325  -14.4771 C   0  0  0  0  0  0  0  0  0  0  0  0
  -24.2751   -0.2300  -14.6230 C   0  0  0  0  0  0  0  0  0  0  0  0
  -19.0974    2.7105  -13.8151 H   0  0  0  0  0  0  0  0  0  0  0  0
  -20.1485    4.0691  -13.9991 H   0  0  0  0  0  0  0  0  0  0  0  0
  -27.3849   -1.9475   -9.3716 C   0  0  0  0  0  0  0  0  0  0  0  0
  -27.4784   -0.8079   -8.5706 C   0  0  0  0  0  0  0  0  0  0  0  0
  -27.8781   -0.9060   -7.2224 C   0  0  0  0  0  0  0  0  0  0  0  0
  -28.1506   -2.1447   -6.6090 C   0  0  0  0  0  0  0  0  0  0  0  0
  -28.0501   -3.2830   -7.4254 C   0  0  0  0  0  0  0  0  0  0  0  0
  -27.6877   -3.1833   -8.7818 C   0  0  0  0  0  0  0  0  0  0  0  0
  -28.4803   -2.2808   -5.1060 C   0  0  0  0  0  0  0  0  0  0  0  0
  -29.9974   -2.2955   -4.8092 C   0  0  0  0  0  0  0  0  0  0  0  0
  -27.8903   -3.5786   -4.5061 C   0  0  0  0  0  0  0  0  0  0  0  0
  -27.8814   -1.0794   -4.3395 C   0  0  0  0  0  0  0  0  0  0  0  0
  1  2  1  0  0  0
  2  3  1  0  0  0
  2  8  2  0  0  0
  3  4  2  0  0  0
  4  5  1  0  0  0
  5 22  1  0  0  0
  5  6  1  0  0  0
 22 23  1  0  0  0
 22 27  2  0  0  0
 23 24  2  0  0  0
 24 25  1  0  0  0
 25 28  1  0  0  0
 25 26  2  0  0  0
 28 29  1  0  0  0
 28 30  1  0  0  0
 28 31  1  0  0  0
 26 27  1  0  0  0
  6  7  2  0  0  0
  6  8  1  0  0  0
  8  9  1  0  0  0
  9 10  1  0  0  0
  9 19  1  0  0  0
 10 11  1  0  0  0
 11 12  1  0  0  0
 12 13  1  0  0  0
 12 18  2  0  0  0
 13 14  2  0  0  0
 14 15  1  0  0  0
 14 16  1  0  0  0
 15 20  1  0  0  0
 15 21  1  0  0  0
 16 17  2  0  0  0
 17 18  1  0  0  0
 18 19  1  0  0  0
M  END
> <minimizedAffinity>
-6.28247

$$$$
