CHEMBL2016925


 31 35  0  0  0  0  0  0  0  0999 V2000
  -17.4192    3.9690  -15.5571 O   0  0  0  0  0  0  0  0  0  0  0  0
  -17.7981    2.7873  -15.5796 C   0  0  0  0  0  0  0  0  0  0  0  0
  -19.1160    2.4263  -15.2788 N   0  0  0  0  0  0  0  0  0  0  0  0
  -19.9967    3.5670  -14.9012 C   0  0  0  0  0  0  0  0  0  0  0  0
  -21.5151    3.3323  -14.7462 C   0  0  0  0  0  0  0  0  0  0  0  0
  -21.7794    1.9006  -14.4371 C   0  0  0  0  0  0  0  0  0  0  0  0
  -23.0167    1.3884  -14.1621 N   0  0  0  0  0  0  0  0  0  0  0  0
  -22.8255    0.1008  -13.9042 C   0  0  0  0  0  0  0  0  0  0  0  0
  -21.4910   -0.2193  -14.0817 N   0  0  0  0  0  0  0  0  0  0  0  0
  -20.8304    0.9174  -14.4522 C   0  0  0  0  0  0  0  0  0  0  0  0
  -19.4007    1.0810  -14.7389 C   0  0  0  0  0  0  0  0  0  0  0  0
  -21.0982   -1.1415  -13.9007 H   0  0  0  0  0  0  0  0  0  0  0  0
  -23.7438   -0.8737  -13.4239 C   0  0  0  0  0  0  0  0  0  0  0  0
  -24.8210   -1.1509  -14.1804 C   0  0  0  0  0  0  0  0  0  0  0  0
  -26.0033   -1.7765  -13.5866 C   0  0  0  0  0  0  0  0  0  0  0  0
  -27.1750   -1.8963  -14.3245 C   0  0  0  0  0  0  0  0  0  0  0  0
  -28.3869   -1.7495  -13.6618 C   0  0  0  0  0  0  0  0  0  0  0  0
  -28.4291   -1.8587  -12.2722 C   0  0  0  0  0  0  0  0  0  0  0  0
  -27.2563   -2.1087  -11.5531 C   0  0  0  0  0  0  0  0  0  0  0  0
  -26.0353   -1.9664  -12.2045 C   0  0  0  0  0  0  0  0  0  0  0  0
  -24.8267   -1.9317  -11.4942 N   0  0  0  0  0  0  0  0  0  0  0  0
  -23.6583   -1.4441  -12.0339 C   0  0  0  0  0  0  0  0  0  0  0  0
  -22.6099   -1.4223  -11.3923 O   0  0  0  0  0  0  0  0  0  0  0  0
  -24.8051   -2.2049  -10.5192 H   0  0  0  0  0  0  0  0  0  0  0  0
  -16.8113    1.7001  -15.9982 C   0  0  0  0  0  0  0  0  0  0  0  0
  -15.8183    1.3084  -14.9336 C   0  0  0  0  0  0  0  0  0  0  0  0
  -14.5384    1.8729  -14.9187 C   0  0  0  0  0  0  0  0  0  0  0  0
  -13.6638    1.5170  -13.9031 C   0  0  0  0  0  0  0  0  0  0  0  0
  -13.9735    0.6576  -12.9125 N   0  0  0  0  0  0  0  0  0  0  0  0
  -15.2147    0.1299  -12.9361 C   0  0  0  0  0  0  0  0  0  0  0  0
  -16.1586    0.4178  -13.9134 C   0  0  0  0  0  0  0  0  0  0  0  0
  1  2  2  0  0  0
  2 25  1  0  0  0
  2  3  1  0  0  0
 25 26  1  0  0  0
 26 27  1  0  0  0
 26 31  2  0  0  0
 27 28  2  0  0  0
 28 29  1  0  0  0
 29 30  2  0  0  0
 30 31  1  0  0  0
  3  4  1  0  0  0
  3 11  1  0  0  0
  4  5  1  0  0  0
  5  6  1  0  0  0
  6  7  1  0  0  0
  6 10  2  0  0  0
  7  8  2  0  0  0
  8 13  1  0  0  0
  8  9  1  0  0  0
 13 14  2  0  0  0
 13 22  1  0  0  0
 14 15  1  0  0  0
 15 16  1  0  0  0
 15 20  2  0  0  0
 16 17  2  0  0  0
 17 18  1  0  0  0
 18 19  2  0  0  0
 19 20  1  0  0  0
 20 21  1  0  0  0
 21 22  1  0  0  0
 21 24  1  0  0  0
 22 23  2  0  0  0
  9 10  1  0  0  0
  9 12  1  0  0  0
 10 11  1  0  0  0
M  END
> <minimizedAffinity>
-9.98436

$$$$
