CHEMBL3958466


 34 37  0  0  0  0  0  0  0  0999 V2000
  -28.9696   -7.8283   -5.9881 C   0  0  0  0  0  0  0  0  0  0  0  0
  -28.2018   -8.9703   -6.1868 C   0  0  0  0  0  0  0  0  0  0  0  0
  -28.2099   -9.6553   -7.4224 C   0  0  0  0  0  0  0  0  0  0  0  0
  -27.3734  -10.7246   -7.7435 C   0  0  0  0  0  0  0  0  0  0  0  0
  -27.3249  -11.2589   -8.9798 N   0  0  0  0  0  0  0  0  0  0  0  0
  -28.1686  -10.7596   -9.8833 C   0  0  0  0  0  0  0  0  0  0  0  0
  -29.0634   -9.7986   -9.6620 N   0  0  0  0  0  0  0  0  0  0  0  0
  -29.0543   -9.2487   -8.4508 C   0  0  0  0  0  0  0  0  0  0  0  0
  -29.9045   -8.1917   -8.2011 C   0  0  0  0  0  0  0  0  0  0  0  0
  -29.8392   -7.4327   -7.0238 C   0  0  0  0  0  0  0  0  0  0  0  0
  -29.2635   -7.6036   -3.5930 C   0  0  0  0  0  0  0  0  0  0  0  0
  -28.9099   -7.0522   -4.8626 O   0  0  0  0  0  0  0  0  0  0  0  0
  -26.5278  -11.2526   -6.7281 N   0  0  0  0  0  0  0  0  0  0  0  0
  -26.8263  -12.2012   -6.5224 H   0  0  0  0  0  0  0  0  0  0  0  0
  -25.1316  -11.0925   -6.7250 C   0  0  0  0  0  0  0  0  0  0  0  0
  -24.5334  -10.1553   -5.8727 C   0  0  0  0  0  0  0  0  0  0  0  0
  -23.1657   -9.8977   -5.9422 C   0  0  0  0  0  0  0  0  0  0  0  0
  -22.3806  -10.5870   -6.8628 C   0  0  0  0  0  0  0  0  0  0  0  0
  -20.7086  -10.1693   -6.9580 Cl  0  0  0  0  0  0  0  0  0  0  0  0
  -22.9601  -11.5632   -7.6831 C   0  0  0  0  0  0  0  0  0  0  0  0
  -22.0452  -12.4658   -8.8369 Cl  0  0  0  0  0  0  0  0  0  0  0  0
  -24.3310  -11.8238   -7.6051 C   0  0  0  0  0  0  0  0  0  0  0  0
  -30.5765   -6.2737   -6.8731 O   0  0  0  0  0  0  0  0  0  0  0  0
  -29.9010   -5.0996   -7.3620 C   0  0  0  0  0  0  0  0  0  0  0  0
  -29.7295   -4.0156   -6.3063 C   0  0  0  0  0  0  0  0  0  0  0  0
  -28.2408   -3.7963   -6.0077 C   0  0  0  0  0  0  0  0  0  0  0  0
  -28.0458   -2.4565   -5.4452 N   0  0  0  0  0  0  0  0  0  0  0  0
  -27.9323   -1.4123   -6.3571 C   0  0  0  0  0  0  0  0  0  0  0  0
  -27.7669   -0.0008   -5.8588 C   0  0  0  0  0  0  0  0  0  0  0  0
  -27.9963   -1.6071   -7.5748 O   0  0  0  0  0  0  0  0  0  0  0  0
  -28.2204   -2.3184   -3.9998 C   0  0  0  0  0  0  0  0  0  0  0  0
  -29.2494   -3.2663   -3.3710 C   0  0  0  0  0  0  0  0  0  0  0  0
  -30.5524   -3.3349   -4.1571 C   0  0  0  0  0  0  0  0  0  0  0  0
  -30.4930   -4.3660   -5.1425 O   0  0  0  0  0  0  0  0  0  0  0  0
 11 12  1  0  0  0
 12  1  1  0  0  0
  1  2  1  0  0  0
  1 10  2  0  0  0
  2  3  2  0  0  0
  3  4  1  0  0  0
  3  8  1  0  0  0
  4 13  1  0  0  0
  4  5  2  0  0  0
 13 15  1  0  0  0
 13 14  1  0  0  0
 15 16  1  0  0  0
 15 22  2  0  0  0
 16 17  2  0  0  0
 17 18  1  0  0  0
 18 19  1  0  0  0
 18 20  2  0  0  0
 20 21  1  0  0  0
 20 22  1  0  0  0
  5  6  1  0  0  0
  6  7  2  0  0  0
  7  8  1  0  0  0
  8  9  2  0  0  0
  9 10  1  0  0  0
 10 23  1  0  0  0
 23 24  1  0  0  0
 24 25  1  0  0  0
 25 26  1  0  0  0
 25 34  1  0  0  0
 26 27  1  0  0  0
 27 28  1  0  0  0
 27 31  1  0  0  0
 28 29  1  0  0  0
 28 30  2  0  0  0
 31 32  1  0  0  0
 32 33  1  0  0  0
 33 34  1  0  0  0
M  END
> <minimizedAffinity>
-8.16567

$$$$
