CHEMBL3951847


 35 38  0  0  0  0  0  0  0  0999 V2000
  -27.9215   -2.4562   -8.4077 N   0  0  0  0  0  0  0  0  0  0  0  0
  -27.4400   -1.7616   -9.5928 C   0  0  0  0  0  0  0  0  0  0  0  0
  -28.3165   -1.8508  -10.6689 C   0  0  0  0  0  0  0  0  0  0  0  0
  -27.8261   -1.8326  -11.9552 C   0  0  0  0  0  0  0  0  0  0  0  0
  -26.5254   -1.5335  -12.2361 C   0  0  0  0  0  0  0  0  0  0  0  0
  -26.2155   -1.7470  -13.5168 N   0  0  0  0  0  0  0  0  0  0  0  0
  -25.0296   -1.2958  -13.9443 C   0  0  0  0  0  0  0  0  0  0  0  0
  -24.1825   -0.5703  -13.1438 C   0  0  0  0  0  0  0  0  0  0  0  0
  -24.4395   -0.4744  -11.7865 N   0  0  0  0  0  0  0  0  0  0  0  0
  -25.6324   -1.0271  -11.2580 C   0  0  0  0  0  0  0  0  0  0  0  0
  -26.1328   -1.2410   -9.8820 C   0  0  0  0  0  0  0  0  0  0  0  0
  -23.1304    0.1550  -13.8874 C   0  0  0  0  0  0  0  0  0  0  0  0
  -21.8578   -0.3178  -14.3286 C   0  0  0  0  0  0  0  0  0  0  0  0
  -20.9875    0.6595  -14.6084 N   0  0  0  0  0  0  0  0  0  0  0  0
  -21.6661    1.7806  -14.3136 N   0  0  0  0  0  0  0  0  0  0  0  0
  -21.0950    3.0807  -14.5966 C   0  0  0  0  0  0  0  0  0  0  0  0
  -22.8935    1.5236  -13.7591 C   0  0  0  0  0  0  0  0  0  0  0  0
  -28.7854   -0.2291   -5.4961 C   0  0  0  0  0  0  0  0  0  0  0  0
  -28.7178   -1.1352   -4.4342 C   0  0  0  0  0  0  0  0  0  0  0  0
  -28.3339   -2.4483   -4.6671 C   0  0  0  0  0  0  0  0  0  0  0  0
  -28.0104   -2.8634   -5.9693 C   0  0  0  0  0  0  0  0  0  0  0  0
  -28.0561   -1.9933   -7.0706 C   0  0  0  0  0  0  0  0  0  0  0  0
  -28.4382   -0.6596   -6.8012 C   0  0  0  0  0  0  0  0  0  0  0  0
  -30.5348    1.3697   -5.8477 C   0  0  0  0  0  0  0  0  0  0  0  0
  -29.2156    1.0697   -5.3714 O   0  0  0  0  0  0  0  0  0  0  0  0
  -28.2681   -3.4401   -3.7216 O   0  0  0  0  0  0  0  0  0  0  0  0
  -27.6750   -4.6714   -4.1173 C   0  0  0  0  0  0  0  0  0  0  0  0
  -27.5841   -3.9326   -8.5821 C   0  0  0  0  0  0  0  0  0  0  0  0
  -28.5522   -5.0045   -7.9913 C   0  0  0  0  0  0  0  0  0  0  0  0
  -28.1799   -6.4346   -7.9435 N   0  0  0  0  0  0  0  0  0  0  0  0
  -27.5508   -6.5904   -7.1530 H   0  0  0  0  0  0  0  0  0  0  0  0
  -29.2928   -7.3999   -7.9541 C   0  0  0  0  0  0  0  0  0  0  0  0
  -30.4609   -6.8958   -7.0716 C   0  0  0  0  0  0  0  0  0  0  0  0
  -31.7132   -7.7525   -7.1622 C   0  0  0  0  0  0  0  0  0  0  0  0
  -32.7522   -8.4631   -7.2375 N   0  0  0  0  0  0  0  0  0  0  0  0
 24 25  1  0  0  0
 25 18  1  0  0  0
 18 19  1  0  0  0
 18 23  2  0  0  0
 19 20  2  0  0  0
 20 26  1  0  0  0
 20 21  1  0  0  0
 26 27  1  0  0  0
 21 22  2  0  0  0
 22  1  1  0  0  0
 22 23  1  0  0  0
  1 28  1  0  0  0
  1  2  1  0  0  0
 28 29  1  0  0  0
 29 30  1  0  0  0
 30 32  1  0  0  0
 30 31  1  0  0  0
 32 33  1  0  0  0
 33 34  1  0  0  0
 34 35  3  0  0  0
  2  3  1  0  0  0
  2 11  2  0  0  0
  3  4  2  0  0  0
  4  5  1  0  0  0
  5  6  1  0  0  0
  5 10  2  0  0  0
  6  7  2  0  0  0
  7  8  1  0  0  0
  8 12  1  0  0  0
  8  9  2  0  0  0
 12 13  1  0  0  0
 12 17  2  0  0  0
 13 14  2  0  0  0
 14 15  1  0  0  0
 15 16  1  0  0  0
 15 17  1  0  0  0
  9 10  1  0  0  0
 10 11  1  0  0  0
M  END
> <minimizedAffinity>
-8.24871

$$$$
