CHEMBL3694661


 27 30  0  0  0  0  0  0  0  0999 V2000
  -29.3490   -2.8277   -5.1608 C   0  0  0  0  0  0  0  0  0  0  0  0
  -29.2232   -1.5284   -4.6911 C   0  0  0  0  0  0  0  0  0  0  0  0
  -28.5941   -0.7077   -5.5902 N   0  0  0  0  0  0  0  0  0  0  0  0
  -28.3278   -1.4702   -6.6275 C   0  0  0  0  0  0  0  0  0  0  0  0
  -27.6823   -1.1668   -7.8664 C   0  0  0  0  0  0  0  0  0  0  0  0
  -27.5347   -2.1091   -8.8323 C   0  0  0  0  0  0  0  0  0  0  0  0
  -28.0440   -3.4639   -8.5737 C   0  0  0  0  0  0  0  0  0  0  0  0
  -28.6679   -3.7482   -7.4234 C   0  0  0  0  0  0  0  0  0  0  0  0
  -28.7932   -2.7703   -6.4391 N   0  0  0  0  0  0  0  0  0  0  0  0
  -29.7065   -6.2057   -3.4702 C   0  0  0  0  0  0  0  0  0  0  0  0
  -31.0717   -6.2119   -3.1855 C   0  0  0  0  0  0  0  0  0  0  0  0
  -31.8853   -5.1718   -3.6220 C   0  0  0  0  0  0  0  0  0  0  0  0
  -31.3332   -4.1075   -4.3296 C   0  0  0  0  0  0  0  0  0  0  0  0
  -29.9486   -4.0103   -4.5262 C   0  0  0  0  0  0  0  0  0  0  0  0
  -29.1457   -5.0862   -4.1093 C   0  0  0  0  0  0  0  0  0  0  0  0
  -27.6858   -9.2125   -3.3507 N   0  0  0  0  0  0  0  0  0  0  0  0
  -28.5318   -8.3359   -3.9621 C   0  0  0  0  0  0  0  0  0  0  0  0
  -28.8811   -8.5463   -5.1151 O   0  0  0  0  0  0  0  0  0  0  0  0
  -28.8564   -7.2831   -3.1461 N   0  0  0  0  0  0  0  0  0  0  0  0
  -27.5072  -10.0279   -3.9260 H   0  0  0  0  0  0  0  0  0  0  0  0
  -27.8722   -9.4266   -2.3828 H   0  0  0  0  0  0  0  0  0  0  0  0
  -28.2588   -7.1709   -2.3406 H   0  0  0  0  0  0  0  0  0  0  0  0
  -26.8878   -1.7154  -10.0571 C   0  0  0  0  0  0  0  0  0  0  0  0
  -25.5969   -1.4915  -10.2465 N   0  0  0  0  0  0  0  0  0  0  0  0
  -25.2810   -1.1550  -11.5479 N   0  0  0  0  0  0  0  0  0  0  0  0
  -26.3472   -1.1079  -12.3125 C   0  0  0  0  0  0  0  0  0  0  0  0
  -27.8117   -1.4620  -11.5135 S   0  0  0  0  0  0  0  0  0  0  0  0
 16 17  1  0  0  0
 16 20  1  0  0  0
 16 21  1  0  0  0
 17 18  2  0  0  0
 17 19  1  0  0  0
 19 10  1  0  0  0
 19 22  1  0  0  0
 10 11  1  0  0  0
 10 15  2  0  0  0
 11 12  2  0  0  0
 12 13  1  0  0  0
 13 14  2  0  0  0
 14  1  1  0  0  0
 14 15  1  0  0  0
  1  2  2  0  0  0
  1  9  1  0  0  0
  2  3  1  0  0  0
  3  4  2  0  0  0
  4  5  1  0  0  0
  4  9  1  0  0  0
  5  6  2  0  0  0
  6 23  1  0  0  0
  6  7  1  0  0  0
 23 24  2  0  0  0
 23 27  1  0  0  0
 24 25  1  0  0  0
 25 26  2  0  0  0
 26 27  1  0  0  0
  7  8  2  0  0  0
  8  9  1  0  0  0
M  END
> <minimizedAffinity>
-8.63392

$$$$
