CHEMBL1761942


 37 41  0  0  0  0  0  0  0  0999 V2000
  -27.7977   -1.7465   -9.8895 C   0  0  0  0  0  0  0  0  0  0  0  0
  -28.2328   -1.2259  -11.1165 C   0  0  0  0  0  0  0  0  0  0  0  0
  -27.3055   -0.9973  -12.1363 C   0  0  0  0  0  0  0  0  0  0  0  0
  -25.9389   -1.2196  -11.9444 C   0  0  0  0  0  0  0  0  0  0  0  0
  -25.5102   -1.6658  -10.6869 C   0  0  0  0  0  0  0  0  0  0  0  0
  -26.4436   -1.9332   -9.6687 C   0  0  0  0  0  0  0  0  0  0  0  0
  -24.9868   -1.0669  -12.9845 N   0  0  0  0  0  0  0  0  0  0  0  0
  -23.8224   -0.3064  -12.9081 C   0  0  0  0  0  0  0  0  0  0  0  0
  -23.3390    0.1343  -11.8723 O   0  0  0  0  0  0  0  0  0  0  0  0
  -23.3008   -0.0510  -14.1662 N   0  0  0  0  0  0  0  0  0  0  0  0
  -25.1162   -1.6268  -13.8162 H   0  0  0  0  0  0  0  0  0  0  0  0
  -23.9278   -0.2025  -14.9427 H   0  0  0  0  0  0  0  0  0  0  0  0
  -22.1902    0.7904  -14.4201 C   0  0  0  0  0  0  0  0  0  0  0  0
  -22.3753    2.1510  -14.1759 C   0  0  0  0  0  0  0  0  0  0  0  0
  -21.3622    3.0593  -14.4679 C   0  0  0  0  0  0  0  0  0  0  0  0
  -20.1185    2.6149  -14.9281 C   0  0  0  0  0  0  0  0  0  0  0  0
  -19.1161    3.5337  -15.2433 C   0  0  0  0  0  0  0  0  0  0  0  0
  -17.7846    3.1466  -15.2015 C   0  0  0  0  0  0  0  0  0  0  0  0
  -17.4767    1.7932  -15.1791 C   0  0  0  0  0  0  0  0  0  0  0  0
  -18.5080    0.8447  -15.2121 C   0  0  0  0  0  0  0  0  0  0  0  0
  -19.8500    1.2394  -15.0107 C   0  0  0  0  0  0  0  0  0  0  0  0
  -20.9304    0.3385  -14.8497 C   0  0  0  0  0  0  0  0  0  0  0  0
  -28.7091   -2.0981   -8.9137 O   0  0  0  0  0  0  0  0  0  0  0  0
  -28.4207   -5.3466   -5.0066 C   0  0  0  0  0  0  0  0  0  0  0  0
  -27.9183   -4.0879   -4.6284 C   0  0  0  0  0  0  0  0  0  0  0  0
  -27.8899   -3.0074   -5.4913 C   0  0  0  0  0  0  0  0  0  0  0  0
  -27.4760   -1.8328   -5.0051 N   0  0  0  0  0  0  0  0  0  0  0  0
  -27.5447   -0.7815   -5.8196 C   0  0  0  0  0  0  0  0  0  0  0  0
  -27.9727   -0.7992   -7.0821 N   0  0  0  0  0  0  0  0  0  0  0  0
  -28.3005   -2.0155   -7.5769 C   0  0  0  0  0  0  0  0  0  0  0  0
  -28.3044   -3.1856   -6.8123 C   0  0  0  0  0  0  0  0  0  0  0  0
  -28.6842   -4.4770   -7.2426 C   0  0  0  0  0  0  0  0  0  0  0  0
  -28.7691   -5.5540   -6.3494 C   0  0  0  0  0  0  0  0  0  0  0  0
  -29.8803   -6.5182   -3.5441 C   0  0  0  0  0  0  0  0  0  0  0  0
  -28.5688   -6.3577   -4.0944 O   0  0  0  0  0  0  0  0  0  0  0  0
  -29.2287   -6.6816   -6.9655 O   0  0  0  0  0  0  0  0  0  0  0  0
  -30.6014   -6.8270   -7.2625 C   0  0  0  0  0  0  0  0  0  0  0  0
 34 35  1  0  0  0
 35 24  1  0  0  0
 24 25  1  0  0  0
 24 33  2  0  0  0
 25 26  2  0  0  0
 26 27  1  0  0  0
 26 31  1  0  0  0
 27 28  2  0  0  0
 28 29  1  0  0  0
 29 30  2  0  0  0
 30 23  1  0  0  0
 30 31  1  0  0  0
 23  1  1  0  0  0
  1  2  1  0  0  0
  1  6  2  0  0  0
  2  3  2  0  0  0
  3  4  1  0  0  0
  4  7  1  0  0  0
  4  5  2  0  0  0
  7  8  1  0  0  0
  7 11  1  0  0  0
  8  9  2  0  0  0
  8 10  1  0  0  0
 10 13  1  0  0  0
 10 12  1  0  0  0
 13 14  1  0  0  0
 13 22  2  0  0  0
 14 15  2  0  0  0
 15 16  1  0  0  0
 16 17  1  0  0  0
 16 21  2  0  0  0
 17 18  2  0  0  0
 18 19  1  0  0  0
 19 20  2  0  0  0
 20 21  1  0  0  0
 21 22  1  0  0  0
  5  6  1  0  0  0
 31 32  2  0  0  0
 32 33  1  0  0  0
 33 36  1  0  0  0
 36 37  1  0  0  0
M  END
> <minimizedAffinity>
-11.18511

$$$$
