CHEMBL257987


 37 41  0  0  0  0  0  0  0  0999 V2000
  -28.7911   -7.3823   -3.7720 C   0  0  0  0  0  0  0  0  0  0  0  0
  -27.8928   -6.7124   -4.6033 C   0  0  0  0  0  0  0  0  0  0  0  0
  -28.3108   -5.5906   -5.3244 C   0  0  0  0  0  0  0  0  0  0  0  0
  -29.6360   -5.1503   -5.2352 C   0  0  0  0  0  0  0  0  0  0  0  0
  -30.5014   -5.7827   -4.3471 C   0  0  0  0  0  0  0  0  0  0  0  0
  -31.7534   -5.3321   -4.1807 F   0  0  0  0  0  0  0  0  0  0  0  0
  -30.0903   -6.8918   -3.6169 C   0  0  0  0  0  0  0  0  0  0  0  0
  -28.3272   -8.5062   -3.0649 N   0  0  0  0  0  0  0  0  0  0  0  0
  -28.4720   -8.5086   -2.0592 H   0  0  0  0  0  0  0  0  0  0  0  0
  -27.8591   -9.6939   -3.5888 C   0  0  0  0  0  0  0  0  0  0  0  0
  -26.2549   -9.7633   -4.0179 S   0  0  0  0  0  0  0  0  0  0  0  0
  -30.5360  -11.9415   -4.5050 O   0  0  0  0  0  0  0  0  0  0  0  0
  -29.5203  -11.2950   -4.7908 C   0  0  0  0  0  0  0  0  0  0  0  0
  -28.8576  -10.6570   -3.7597 N   0  0  0  0  0  0  0  0  0  0  0  0
  -29.3811  -10.8286   -2.9100 H   0  0  0  0  0  0  0  0  0  0  0  0
  -29.0284  -11.1979   -6.2124 C   0  0  0  0  0  0  0  0  0  0  0  0
  -29.2854   -9.8691   -6.8826 C   0  0  0  0  0  0  0  0  0  0  0  0
  -30.5406   -9.2639   -6.7242 C   0  0  0  0  0  0  0  0  0  0  0  0
  -30.8090   -8.0181   -7.2899 C   0  0  0  0  0  0  0  0  0  0  0  0
  -29.8215   -7.3536   -8.0109 C   0  0  0  0  0  0  0  0  0  0  0  0
  -28.5658   -7.9361   -8.1685 C   0  0  0  0  0  0  0  0  0  0  0  0
  -28.2950   -9.1844   -7.6027 C   0  0  0  0  0  0  0  0  0  0  0  0
  -30.1450   -4.0831   -5.9328 O   0  0  0  0  0  0  0  0  0  0  0  0
  -29.5575   -2.8441   -5.8058 C   0  0  0  0  0  0  0  0  0  0  0  0
  -29.5616   -2.1011   -4.6227 C   0  0  0  0  0  0  0  0  0  0  0  0
  -28.9911   -0.8436   -4.6196 C   0  0  0  0  0  0  0  0  0  0  0  0
  -28.3601   -0.2803   -5.6624 N   0  0  0  0  0  0  0  0  0  0  0  0
  -28.2611   -1.0502   -6.7777 C   0  0  0  0  0  0  0  0  0  0  0  0
  -27.5482   -0.6780   -7.9505 C   0  0  0  0  0  0  0  0  0  0  0  0
  -27.5473   -1.6591   -8.9241 C   0  0  0  0  0  0  0  0  0  0  0  0
  -28.5153   -2.9912   -8.4354 S   0  0  0  0  0  0  0  0  0  0  0  0
  -28.8382   -2.3121   -6.8886 C   0  0  0  0  0  0  0  0  0  0  0  0
  -26.8545   -1.6568  -10.1889 C   0  0  0  0  0  0  0  0  0  0  0  0
  -25.5401   -1.6468  -10.3046 N   0  0  0  0  0  0  0  0  0  0  0  0
  -25.1205   -1.6004  -11.6213 N   0  0  0  0  0  0  0  0  0  0  0  0
  -26.1357   -1.5790  -12.4545 C   0  0  0  0  0  0  0  0  0  0  0  0
  -27.6740   -1.6266  -11.7074 S   0  0  0  0  0  0  0  0  0  0  0  0
 12 13  2  0  0  0
 13 16  1  0  0  0
 13 14  1  0  0  0
 16 17  1  0  0  0
 17 18  1  0  0  0
 17 22  2  0  0  0
 18 19  2  0  0  0
 19 20  1  0  0  0
 20 21  2  0  0  0
 21 22  1  0  0  0
 14 10  1  0  0  0
 14 15  1  0  0  0
 10 11  2  0  0  0
 10  8  1  0  0  0
  8  1  1  0  0  0
  8  9  1  0  0  0
  1  2  1  0  0  0
  1  7  2  0  0  0
  2  3  2  0  0  0
  3  4  1  0  0  0
  4 23  1  0  0  0
  4  5  2  0  0  0
 23 24  1  0  0  0
 24 25  1  0  0  0
 24 32  2  0  0  0
 25 26  2  0  0  0
 26 27  1  0  0  0
 27 28  2  0  0  0
 28 29  1  0  0  0
 28 32  1  0  0  0
 29 30  2  0  0  0
 30 33  1  0  0  0
 30 31  1  0  0  0
 33 34  2  0  0  0
 33 37  1  0  0  0
 34 35  1  0  0  0
 35 36  2  0  0  0
 36 37  1  0  0  0
 31 32  1  0  0  0
  5  6  1  0  0  0
  5  7  1  0  0  0
M  END
> <minimizedAffinity>
-8.26840

$$$$
