CHEMBL3900620


 30 33  0  0  0  0  0  0  0  0999 V2000
  -18.4390    2.1719  -15.5225 C   0  0  0  0  0  0  0  0  0  0  0  0
  -19.2494    3.2916  -15.5863 C   0  0  0  0  0  0  0  0  0  0  0  0
  -20.4821    3.3419  -14.9928 C   0  0  0  0  0  0  0  0  0  0  0  0
  -21.0881    2.2475  -14.4713 C   0  0  0  0  0  0  0  0  0  0  0  0
  -22.2381    2.5978  -13.9081 N   0  0  0  0  0  0  0  0  0  0  0  0
  -23.0701    1.6167  -13.6028 C   0  0  0  0  0  0  0  0  0  0  0  0
  -22.7847    0.2972  -13.8726 C   0  0  0  0  0  0  0  0  0  0  0  0
  -21.5229   -0.0762  -14.3355 N   0  0  0  0  0  0  0  0  0  0  0  0
  -20.5665    0.9492  -14.6288 C   0  0  0  0  0  0  0  0  0  0  0  0
  -19.1382    0.9727  -15.0811 C   0  0  0  0  0  0  0  0  0  0  0  0
  -23.9588   -0.5827  -13.7385 C   0  0  0  0  0  0  0  0  0  0  0  0
  -24.8426   -1.0827  -14.7402 C   0  0  0  0  0  0  0  0  0  0  0  0
  -26.0049   -1.5376  -14.2472 N   0  0  0  0  0  0  0  0  0  0  0  0
  -25.8987   -1.3064  -12.9292 N   0  0  0  0  0  0  0  0  0  0  0  0
  -26.8587   -1.8579  -11.9990 C   0  0  0  0  0  0  0  0  0  0  0  0
  -24.7762   -0.5912  -12.6099 C   0  0  0  0  0  0  0  0  0  0  0  0
  -17.0597    2.3494  -15.8911 N   0  0  0  0  0  0  0  0  0  0  0  0
  -15.9613    1.4579  -15.6644 C   0  0  0  0  0  0  0  0  0  0  0  0
  -15.0946    1.0319  -16.7027 C   0  0  0  0  0  0  0  0  0  0  0  0
  -14.0560    0.1213  -16.4749 C   0  0  0  0  0  0  0  0  0  0  0  0
  -13.8264   -0.3870  -15.1831 C   0  0  0  0  0  0  0  0  0  0  0  0
  -14.6370    0.0341  -14.1418 C   0  0  0  0  0  0  0  0  0  0  0  0
  -15.7059    0.9084  -14.3886 C   0  0  0  0  0  0  0  0  0  0  0  0
  -13.1784   -0.4144  -17.3888 O   0  0  0  0  0  0  0  0  0  0  0  0
  -13.5094   -0.2945  -18.7636 C   0  0  0  0  0  0  0  0  0  0  0  0
  -14.4853   -0.3774  -12.8421 O   0  0  0  0  0  0  0  0  0  0  0  0
  -15.3893   -1.4065  -12.4421 C   0  0  0  0  0  0  0  0  0  0  0  0
  -16.6734    3.7073  -16.6170 C   0  0  0  0  0  0  0  0  0  0  0  0
  -14.1765    4.4086  -15.5000 C   0  0  0  0  0  0  0  0  0  0  0  0
  -15.3294    4.0848  -16.0158 C   0  0  0  0  0  0  0  0  0  0  0  0
 29 30  3  0  0  0
 30 28  1  0  0  0
 28 17  1  0  0  0
 17 18  1  0  0  0
 17  1  1  0  0  0
 18 19  1  0  0  0
 18 23  2  0  0  0
 19 20  2  0  0  0
 20 24  1  0  0  0
 20 21  1  0  0  0
 24 25  1  0  0  0
 21 22  2  0  0  0
 22 26  1  0  0  0
 22 23  1  0  0  0
 26 27  1  0  0  0
  1  2  1  0  0  0
  1 10  2  0  0  0
  2  3  2  0  0  0
  3  4  1  0  0  0
  4  5  1  0  0  0
  4  9  2  0  0  0
  5  6  2  0  0  0
  6  7  1  0  0  0
  7 11  1  0  0  0
  7  8  2  0  0  0
 11 12  1  0  0  0
 11 16  2  0  0  0
 12 13  2  0  0  0
 13 14  1  0  0  0
 14 15  1  0  0  0
 14 16  1  0  0  0
  8  9  1  0  0  0
  9 10  1  0  0  0
M  END
> <minimizedAffinity>
-8.35793

$$$$
