CHEMBL465015


 42 46  0  0  0  0  0  0  0  0999 V2000
  -23.6870  -11.4722   -5.8088 C   0  0  0  0  0  0  0  0  0  0  0  0
  -24.0068  -11.2477   -7.1672 C   0  0  0  0  0  0  0  0  0  0  0  0
  -25.2914  -10.8096   -7.5542 C   0  0  0  0  0  0  0  0  0  0  0  0
  -26.2551  -10.6182   -6.5766 C   0  0  0  0  0  0  0  0  0  0  0  0
  -25.8996  -10.8189   -5.2356 C   0  0  0  0  0  0  0  0  0  0  0  0
  -24.6456  -11.2249   -4.8233 C   0  0  0  0  0  0  0  0  0  0  0  0
  -26.9863  -10.6345   -4.3969 N   0  0  0  0  0  0  0  0  0  0  0  0
  -28.1386  -10.3889   -5.1179 C   0  0  0  0  0  0  0  0  0  0  0  0
  -29.2660  -10.4610   -4.6648 O   0  0  0  0  0  0  0  0  0  0  0  0
  -27.6841  -10.2298   -6.5571 C   0  0  0  0  0  0  0  0  0  0  0  0
  -28.5557   -9.8399   -7.5234 C   0  0  0  0  0  0  0  0  0  0  0  0
  -27.0070  -10.8365   -3.4094 H   0  0  0  0  0  0  0  0  0  0  0  0
  -28.2107   -9.9945   -8.9527 C   0  0  0  0  0  0  0  0  0  0  0  0
  -28.8035  -11.0227   -9.6964 C   0  0  0  0  0  0  0  0  0  0  0  0
  -28.5256  -11.1597  -11.0569 C   0  0  0  0  0  0  0  0  0  0  0  0
  -27.6525  -10.2710  -11.6826 C   0  0  0  0  0  0  0  0  0  0  0  0
  -27.0585   -9.2431  -10.9495 C   0  0  0  0  0  0  0  0  0  0  0  0
  -27.3369   -9.1027   -9.5883 C   0  0  0  0  0  0  0  0  0  0  0  0
  -22.3803  -12.0203   -5.3520 C   0  0  0  0  0  0  0  0  0  0  0  0
  -21.3813  -12.0319   -6.0560 O   0  0  0  0  0  0  0  0  0  0  0  0
  -21.5226  -11.7950   -3.1984 C   0  0  0  0  0  0  0  0  0  0  0  0
  -22.4477  -12.4514   -4.0693 O   0  0  0  0  0  0  0  0  0  0  0  0
  -29.8234   -9.3017   -7.3308 N   0  0  0  0  0  0  0  0  0  0  0  0
  -30.5872   -9.9657   -7.2781 H   0  0  0  0  0  0  0  0  0  0  0  0
  -30.0852   -7.9821   -6.9127 C   0  0  0  0  0  0  0  0  0  0  0  0
  -29.3553   -6.9169   -7.4428 C   0  0  0  0  0  0  0  0  0  0  0  0
  -29.4605   -5.6273   -6.9179 C   0  0  0  0  0  0  0  0  0  0  0  0
  -30.2800   -5.3592   -5.8240 C   0  0  0  0  0  0  0  0  0  0  0  0
  -31.0725   -6.4021   -5.3285 C   0  0  0  0  0  0  0  0  0  0  0  0
  -30.9781   -7.7009   -5.8719 C   0  0  0  0  0  0  0  0  0  0  0  0
  -30.3031   -4.1017   -5.1717 N   0  0  0  0  0  0  0  0  0  0  0  0
  -29.6210   -3.7665   -4.0115 C   0  0  0  0  0  0  0  0  0  0  0  0
  -28.7796   -4.4598   -3.4386 O   0  0  0  0  0  0  0  0  0  0  0  0
  -30.9810   -3.4130   -5.4849 H   0  0  0  0  0  0  0  0  0  0  0  0
  -29.9236   -2.3760   -3.4453 C   0  0  0  0  0  0  0  0  0  0  0  0
  -29.1922   -1.2642   -4.0970 N   0  0  0  0  0  0  0  0  0  0  0  0
  -27.8464   -1.6775   -4.5604 C   0  0  0  0  0  0  0  0  0  0  0  0
  -27.1368   -0.5245   -5.3125 C   0  0  0  0  0  0  0  0  0  0  0  0
  -27.8719    0.0039   -6.4779 N   0  0  0  0  0  0  0  0  0  0  0  0
  -27.7946   -0.9036   -7.6200 C   0  0  0  0  0  0  0  0  0  0  0  0
  -29.2675    0.2873   -6.0910 C   0  0  0  0  0  0  0  0  0  0  0  0
  -29.9678   -0.8383   -5.2937 C   0  0  0  0  0  0  0  0  0  0  0  0
 21 22  1  0  0  0
 22 19  1  0  0  0
 19 20  2  0  0  0
 19  1  1  0  0  0
  1  2  1  0  0  0
  1  6  2  0  0  0
  2  3  2  0  0  0
  3  4  1  0  0  0
  4  5  2  0  0  0
  4 10  1  0  0  0
  5  6  1  0  0  0
  5  7  1  0  0  0
  7  8  1  0  0  0
  7 12  1  0  0  0
  8  9  2  0  0  0
  8 10  1  0  0  0
 10 11  2  0  0  0
 11 23  1  0  0  0
 11 13  1  0  0  0
 23 25  1  0  0  0
 23 24  1  0  0  0
 25 26  1  0  0  0
 25 30  2  0  0  0
 26 27  2  0  0  0
 27 28  1  0  0  0
 28 31  1  0  0  0
 28 29  2  0  0  0
 31 32  1  0  0  0
 31 34  1  0  0  0
 32 33  2  0  0  0
 32 35  1  0  0  0
 35 36  1  0  0  0
 36 37  1  0  0  0
 36 42  1  0  0  0
 37 38  1  0  0  0
 38 39  1  0  0  0
 39 40  1  0  0  0
 39 41  1  0  0  0
 41 42  1  0  0  0
 29 30  1  0  0  0
 13 14  1  0  0  0
 13 18  2  0  0  0
 14 15  2  0  0  0
 15 16  1  0  0  0
 16 17  2  0  0  0
 17 18  1  0  0  0
M  END
> <minimizedAffinity>
-8.05049

$$$$
