CHEMBL193609


 31 34  0  0  0  0  0  0  0  0999 V2000
  -28.6216   -2.6766   -7.8906 C   0  0  0  0  0  0  0  0  0  0  0  0
  -27.8349   -1.7558   -7.3720 N   0  0  0  0  0  0  0  0  0  0  0  0
  -27.1616   -1.2481   -8.4493 C   0  0  0  0  0  0  0  0  0  0  0  0
  -27.5392   -1.9032   -9.6002 C   0  0  0  0  0  0  0  0  0  0  0  0
  -28.5038   -2.8142   -9.2444 O   0  0  0  0  0  0  0  0  0  0  0  0
  -27.1661   -1.8281  -11.0054 C   0  0  0  0  0  0  0  0  0  0  0  0
  -28.0789   -2.1551  -12.0155 C   0  0  0  0  0  0  0  0  0  0  0  0
  -27.7152   -2.0682  -13.3585 C   0  0  0  0  0  0  0  0  0  0  0  0
  -26.4362   -1.6362  -13.7085 C   0  0  0  0  0  0  0  0  0  0  0  0
  -25.5006   -1.2831  -12.7254 C   0  0  0  0  0  0  0  0  0  0  0  0
  -25.8764   -1.4059  -11.3763 C   0  0  0  0  0  0  0  0  0  0  0  0
  -24.2002   -0.7136  -13.1223 C   0  0  0  0  0  0  0  0  0  0  0  0
  -23.7761   -0.3681  -14.3953 C   0  0  0  0  0  0  0  0  0  0  0  0
  -22.4766    0.2136  -14.4132 C   0  0  0  0  0  0  0  0  0  0  0  0
  -21.9300    0.2799  -13.1533 C   0  0  0  0  0  0  0  0  0  0  0  0
  -22.9726   -0.3748  -11.9676 S   0  0  0  0  0  0  0  0  0  0  0  0
  -29.5079   -3.4813   -7.2836 N   0  0  0  0  0  0  0  0  0  0  0  0
  -30.4823   -3.4448   -7.5534 H   0  0  0  0  0  0  0  0  0  0  0  0
  -28.7119   -7.0346   -6.5530 C   0  0  0  0  0  0  0  0  0  0  0  0
  -28.4109   -6.9827   -5.1937 C   0  0  0  0  0  0  0  0  0  0  0  0
  -28.4854   -5.7604   -4.5178 C   0  0  0  0  0  0  0  0  0  0  0  0
  -28.8692   -4.5949   -5.1955 C   0  0  0  0  0  0  0  0  0  0  0  0
  -29.1552   -4.6498   -6.5768 C   0  0  0  0  0  0  0  0  0  0  0  0
  -29.0722   -5.8814   -7.2434 C   0  0  0  0  0  0  0  0  0  0  0  0
  -28.7561   -8.5894   -7.4089 S   0  0  0  0  0  0  0  0  0  0  0  0
  -27.6826   -9.4078   -6.8701 O   0  0  0  0  0  0  0  0  0  0  0  0
  -28.8192   -8.2960   -8.8271 O   0  0  0  0  0  0  0  0  0  0  0  0
  -31.4783   -8.5084   -7.4872 C   0  0  0  0  0  0  0  0  0  0  0  0
  -30.3144   -9.2956   -6.9161 C   0  0  0  0  0  0  0  0  0  0  0  0
  -29.0121   -3.3655   -4.5996 O   0  0  0  0  0  0  0  0  0  0  0  0
  -28.6860   -3.2845   -3.2160 C   0  0  0  0  0  0  0  0  0  0  0  0
 28 29  1  0  0  0
 29 25  1  0  0  0
 25 26  2  0  0  0
 25 27  2  0  0  0
 25 19  1  0  0  0
 19 20  1  0  0  0
 19 24  2  0  0  0
 20 21  2  0  0  0
 21 22  1  0  0  0
 22 30  1  0  0  0
 22 23  2  0  0  0
 30 31  1  0  0  0
 23 17  1  0  0  0
 23 24  1  0  0  0
 17  1  1  0  0  0
 17 18  1  0  0  0
  1  2  2  0  0  0
  1  5  1  0  0  0
  2  3  1  0  0  0
  3  4  2  0  0  0
  4  6  1  0  0  0
  4  5  1  0  0  0
  6  7  1  0  0  0
  6 11  2  0  0  0
  7  8  2  0  0  0
  8  9  1  0  0  0
  9 10  2  0  0  0
 10 12  1  0  0  0
 10 11  1  0  0  0
 12 13  2  0  0  0
 12 16  1  0  0  0
 13 14  1  0  0  0
 14 15  2  0  0  0
 15 16  1  0  0  0
M  END
> <minimizedAffinity>
-8.47510

$$$$
