CHEMBL272822


 36 40  0  0  0  0  0  0  0  0999 V2000
  -12.4544   -2.1692  -12.9469 C   0  0  0  0  0  0  0  0  0  0  0  0
  -13.8279   -2.3868  -12.9532 C   0  0  0  0  0  0  0  0  0  0  0  0
  -14.6768   -1.5445  -13.6871 C   0  0  0  0  0  0  0  0  0  0  0  0
  -14.1838   -0.4481  -14.4127 C   0  0  0  0  0  0  0  0  0  0  0  0
  -12.7859   -0.2615  -14.4132 C   0  0  0  0  0  0  0  0  0  0  0  0
  -11.9364   -1.0963  -13.6732 C   0  0  0  0  0  0  0  0  0  0  0  0
  -12.1377    0.7290  -15.1129 O   0  0  0  0  0  0  0  0  0  0  0  0
  -12.9971    1.8187  -15.4381 C   0  0  0  0  0  0  0  0  0  0  0  0
  -14.2877    1.3339  -16.0739 C   0  0  0  0  0  0  0  0  0  0  0  0
  -15.0323    0.4796  -15.1353 N   0  0  0  0  0  0  0  0  0  0  0  0
  -16.3960    0.6245  -14.8326 C   0  0  0  0  0  0  0  0  0  0  0  0
  -16.9421   -0.0135  -13.9346 O   0  0  0  0  0  0  0  0  0  0  0  0
  -17.0910    1.5623  -15.5773 N   0  0  0  0  0  0  0  0  0  0  0  0
  -16.7117    1.8144  -16.4739 H   0  0  0  0  0  0  0  0  0  0  0  0
  -18.4342    1.9678  -15.3603 C   0  0  0  0  0  0  0  0  0  0  0  0
  -18.8410    3.3118  -15.2728 C   0  0  0  0  0  0  0  0  0  0  0  0
  -20.1624    3.6407  -14.9670 C   0  0  0  0  0  0  0  0  0  0  0  0
  -21.0921    2.6338  -14.7718 C   0  0  0  0  0  0  0  0  0  0  0  0
  -22.3512    2.9499  -14.4457 F   0  0  0  0  0  0  0  0  0  0  0  0
  -20.7306    1.2999  -14.9111 C   0  0  0  0  0  0  0  0  0  0  0  0
  -19.4039    0.9678  -15.2124 C   0  0  0  0  0  0  0  0  0  0  0  0
  -11.6950   -3.0248  -12.1720 O   0  0  0  0  0  0  0  0  0  0  0  0
  -12.7023   -7.9990  -12.5721 C   0  0  0  0  0  0  0  0  0  0  0  0
  -13.2371   -7.5080  -11.3705 C   0  0  0  0  0  0  0  0  0  0  0  0
  -13.1085   -6.1867  -10.9772 C   0  0  0  0  0  0  0  0  0  0  0  0
  -13.7400   -5.8078   -9.8549 N   0  0  0  0  0  0  0  0  0  0  0  0
  -13.6521   -4.5194   -9.4778 C   0  0  0  0  0  0  0  0  0  0  0  0
  -12.9538   -3.5653  -10.1818 C   0  0  0  0  0  0  0  0  0  0  0  0
  -12.3430   -3.9494  -11.3739 C   0  0  0  0  0  0  0  0  0  0  0  0
  -12.3636   -5.3052  -11.7780 C   0  0  0  0  0  0  0  0  0  0  0  0
  -11.7141   -5.8256  -12.9224 C   0  0  0  0  0  0  0  0  0  0  0  0
  -11.8818   -7.1607  -13.3347 C   0  0  0  0  0  0  0  0  0  0  0  0
  -12.0938  -10.2886  -12.4591 C   0  0  0  0  0  0  0  0  0  0  0  0
  -12.9621   -9.2803  -12.9870 O   0  0  0  0  0  0  0  0  0  0  0  0
  -11.1950   -7.4368  -14.4849 O   0  0  0  0  0  0  0  0  0  0  0  0
  -11.7262   -7.0319  -15.7370 C   0  0  0  0  0  0  0  0  0  0  0  0
 33 34  1  0  0  0
 34 23  1  0  0  0
 23 24  1  0  0  0
 23 32  2  0  0  0
 24 25  2  0  0  0
 25 26  1  0  0  0
 25 30  1  0  0  0
 26 27  2  0  0  0
 27 28  1  0  0  0
 28 29  2  0  0  0
 29 22  1  0  0  0
 29 30  1  0  0  0
 22  1  1  0  0  0
  1  2  1  0  0  0
  1  6  2  0  0  0
  2  3  2  0  0  0
  3  4  1  0  0  0
  4  5  2  0  0  0
  4 10  1  0  0  0
  5  6  1  0  0  0
  5  7  1  0  0  0
  7  8  1  0  0  0
  8  9  1  0  0  0
  9 10  1  0  0  0
 10 11  1  0  0  0
 11 12  2  0  0  0
 11 13  1  0  0  0
 13 15  1  0  0  0
 13 14  1  0  0  0
 15 16  1  0  0  0
 15 21  2  0  0  0
 16 17  2  0  0  0
 17 18  1  0  0  0
 18 19  1  0  0  0
 18 20  2  0  0  0
 20 21  1  0  0  0
 30 31  2  0  0  0
 31 32  1  0  0  0
 32 35  1  0  0  0
 35 36  1  0  0  0
M  END
> <minimizedAffinity>
-8.61295

$$$$
