CHEMBL328790


 22 25  0  0  0  0  0  0  0  0999 V2000
  -27.4612   -2.1129   -9.2631 C   0  0  0  0  0  0  0  0  0  0  0  0
  -27.9624   -3.4734   -8.8938 C   0  0  0  0  0  0  0  0  0  0  0  0
  -28.5001   -3.8140   -7.7602 N   0  0  0  0  0  0  0  0  0  0  0  0
  -28.6185   -2.8193   -6.8204 C   0  0  0  0  0  0  0  0  0  0  0  0
  -29.1054   -2.8054   -5.5254 C   0  0  0  0  0  0  0  0  0  0  0  0
  -28.9682   -1.4620   -5.1137 C   0  0  0  0  0  0  0  0  0  0  0  0
  -28.4311   -0.6767   -6.0453 N   0  0  0  0  0  0  0  0  0  0  0  0
  -28.2041   -1.5074   -7.0916 N   0  0  0  0  0  0  0  0  0  0  0  0
  -27.6268   -1.1803   -8.3131 C   0  0  0  0  0  0  0  0  0  0  0  0
  -24.9047   -1.0500  -14.5614 Cl  0  0  0  0  0  0  0  0  0  0  0  0
  -25.6440   -1.3436  -13.0362 C   0  0  0  0  0  0  0  0  0  0  0  0
  -26.9850   -1.7176  -12.9764 C   0  0  0  0  0  0  0  0  0  0  0  0
  -27.5840   -1.9625  -11.7371 C   0  0  0  0  0  0  0  0  0  0  0  0
  -26.8419   -1.8333  -10.5555 C   0  0  0  0  0  0  0  0  0  0  0  0
  -25.4952   -1.4547  -10.6269 C   0  0  0  0  0  0  0  0  0  0  0  0
  -24.8977   -1.2093  -11.8671 C   0  0  0  0  0  0  0  0  0  0  0  0
  -29.6306   -3.9496   -4.7960 C   0  0  0  0  0  0  0  0  0  0  0  0
  -30.9914   -4.0626   -4.5042 C   0  0  0  0  0  0  0  0  0  0  0  0
  -31.4361   -5.1915   -3.8376 C   0  0  0  0  0  0  0  0  0  0  0  0
  -30.6294   -6.1996   -3.4470 N   0  0  0  0  0  0  0  0  0  0  0  0
  -29.3176   -6.0685   -3.7318 C   0  0  0  0  0  0  0  0  0  0  0  0
  -28.7775   -4.9798   -4.3975 C   0  0  0  0  0  0  0  0  0  0  0  0
 10 11  1  0  0  0
 11 12  1  0  0  0
 11 16  2  0  0  0
 12 13  2  0  0  0
 13 14  1  0  0  0
 14  1  1  0  0  0
 14 15  2  0  0  0
  1  2  1  0  0  0
  1  9  2  0  0  0
  2  3  2  0  0  0
  3  4  1  0  0  0
  4  5  2  0  0  0
  4  8  1  0  0  0
  5 17  1  0  0  0
  5  6  1  0  0  0
 17 18  1  0  0  0
 17 22  2  0  0  0
 18 19  2  0  0  0
 19 20  1  0  0  0
 20 21  2  0  0  0
 21 22  1  0  0  0
  6  7  2  0  0  0
  7  8  1  0  0  0
  8  9  1  0  0  0
 15 16  1  0  0  0
M  END
> <minimizedAffinity>
-8.57299

$$$$
