CHEMBL200765


 31 33  0  0  0  0  0  0  0  0999 V2000
  -15.0361   -0.3821  -13.0612 C   0  0  0  0  0  0  0  0  0  0  0  0
  -13.7089   -0.5349  -12.9227 N   0  0  0  0  0  0  0  0  0  0  0  0
  -12.9439    0.1935  -13.7449 C   0  0  0  0  0  0  0  0  0  0  0  0
  -13.3744    1.0658  -14.6694 N   0  0  0  0  0  0  0  0  0  0  0  0
  -14.7004    1.2354  -14.7774 C   0  0  0  0  0  0  0  0  0  0  0  0
  -15.2266    2.1496  -15.6921 C   0  0  0  0  0  0  0  0  0  0  0  0
  -16.6071    2.4643  -15.8019 C   0  0  0  0  0  0  0  0  0  0  0  0
  -17.5051    1.7965  -14.9654 C   0  0  0  0  0  0  0  0  0  0  0  0
  -16.9788    0.8230  -14.1009 C   0  0  0  0  0  0  0  0  0  0  0  0
  -15.5975    0.5316  -13.9837 C   0  0  0  0  0  0  0  0  0  0  0  0
  -15.9259   -1.1837  -12.2760 N   0  0  0  0  0  0  0  0  0  0  0  0
  -16.0384   -0.6942  -11.3954 H   0  0  0  0  0  0  0  0  0  0  0  0
  -15.1583   -5.3387  -11.4395 C   0  0  0  0  0  0  0  0  0  0  0  0
  -15.6120   -4.9857  -12.6531 C   0  0  0  0  0  0  0  0  0  0  0  0
  -15.9185   -6.1860  -13.8683 Cl  0  0  0  0  0  0  0  0  0  0  0  0
  -15.9066   -3.5710  -13.0432 C   0  0  0  0  0  0  0  0  0  0  0  0
  -16.3849   -3.2844  -14.1349 O   0  0  0  0  0  0  0  0  0  0  0  0
  -15.6410   -2.5179  -12.0008 C   0  0  0  0  0  0  0  0  0  0  0  0
  -15.2649   -2.8959  -10.7767 C   0  0  0  0  0  0  0  0  0  0  0  0
  -15.0310   -4.2872  -10.3952 C   0  0  0  0  0  0  0  0  0  0  0  0
  -14.7672   -4.5274   -9.2233 O   0  0  0  0  0  0  0  0  0  0  0  0
  -14.8619   -6.6705  -11.1449 O   0  0  0  0  0  0  0  0  0  0  0  0
  -13.5085   -8.5182  -11.8730 C   0  0  0  0  0  0  0  0  0  0  0  0
  -13.5202   -7.0606  -11.4591 C   0  0  0  0  0  0  0  0  0  0  0  0
  -18.8179    1.9735  -14.6470 O   0  0  0  0  0  0  0  0  0  0  0  0
  -19.4547    3.2126  -14.4139 C   0  0  0  0  0  0  0  0  0  0  0  0
  -16.7877    3.4659  -16.7242 O   0  0  0  0  0  0  0  0  0  0  0  0
  -15.7193    4.3664  -16.8980 C   0  0  0  0  0  0  0  0  0  0  0  0
  -15.3356    4.6192  -18.3471 C   0  0  0  0  0  0  0  0  0  0  0  0
  -14.6552    5.8785  -18.3252 O   0  0  0  0  0  0  0  0  0  0  0  0
  -14.6965    6.5671  -19.5588 C   0  0  0  0  0  0  0  0  0  0  0  0
 23 24  1  0  0  0
 24 22  1  0  0  0
 22 13  1  0  0  0
 13 14  2  0  0  0
 13 20  1  0  0  0
 14 15  1  0  0  0
 14 16  1  0  0  0
 16 17  2  0  0  0
 16 18  1  0  0  0
 18 11  1  0  0  0
 18 19  2  0  0  0
 11  1  1  0  0  0
 11 12  1  0  0  0
  1  2  1  0  0  0
  1 10  2  0  0  0
  2  3  2  0  0  0
  3  4  1  0  0  0
  4  5  2  0  0  0
  5  6  1  0  0  0
  5 10  1  0  0  0
  6  7  2  0  0  0
  7 27  1  0  0  0
  7  8  1  0  0  0
 27 28  1  0  0  0
 28 29  1  0  0  0
 29 30  1  0  0  0
 30 31  1  0  0  0
  8 25  1  0  0  0
  8  9  2  0  0  0
 25 26  1  0  0  0
  9 10  1  0  0  0
 19 20  1  0  0  0
 20 21  2  0  0  0
M  END
> <minimizedAffinity>
-6.82045

$$$$
