CHEMBL216703


 37 41  0  0  0  0  0  0  0  0999 V2000
  -14.7101    1.9092  -16.6579 C   0  0  0  0  0  0  0  0  0  0  0  0
  -13.5787    1.6707  -17.3688 N   0  0  0  0  0  0  0  0  0  0  0  0
  -12.8475    0.6161  -17.0428 C   0  0  0  0  0  0  0  0  0  0  0  0
  -13.0948   -0.1876  -16.0206 N   0  0  0  0  0  0  0  0  0  0  0  0
  -14.1674    0.0958  -15.2814 C   0  0  0  0  0  0  0  0  0  0  0  0
  -14.3159   -0.6999  -14.1723 C   0  0  0  0  0  0  0  0  0  0  0  0
  -15.3304   -0.4975  -13.2454 C   0  0  0  0  0  0  0  0  0  0  0  0
  -16.3195    0.4341  -13.5288 C   0  0  0  0  0  0  0  0  0  0  0  0
  -16.2178    1.2583  -14.6617 C   0  0  0  0  0  0  0  0  0  0  0  0
  -15.0830    1.1280  -15.5388 C   0  0  0  0  0  0  0  0  0  0  0  0
  -15.4520    3.0690  -17.0196 N   0  0  0  0  0  0  0  0  0  0  0  0
  -16.1698    2.7927  -17.6887 H   0  0  0  0  0  0  0  0  0  0  0  0
  -14.5574    5.9265  -19.2376 C   0  0  0  0  0  0  0  0  0  0  0  0
  -13.6686    6.6461  -18.4402 C   0  0  0  0  0  0  0  0  0  0  0  0
  -13.3001    6.1570  -17.1876 C   0  0  0  0  0  0  0  0  0  0  0  0
  -13.8306    4.9546  -16.7148 C   0  0  0  0  0  0  0  0  0  0  0  0
  -13.1737    4.3519  -15.2284 Cl  0  0  0  0  0  0  0  0  0  0  0  0
  -14.8095    4.2640  -17.4588 C   0  0  0  0  0  0  0  0  0  0  0  0
  -15.1240    4.7438  -18.7421 C   0  0  0  0  0  0  0  0  0  0  0  0
  -15.1019    7.6721  -20.7545 C   0  0  0  0  0  0  0  0  0  0  0  0
  -14.9463    6.2789  -20.5024 O   0  0  0  0  0  0  0  0  0  0  0  0
  -15.4179   -1.1347  -12.0311 O   0  0  0  0  0  0  0  0  0  0  0  0
  -15.5938   -2.5491  -12.1236 C   0  0  0  0  0  0  0  0  0  0  0  0
  -16.0818   -3.1513  -10.8159 C   0  0  0  0  0  0  0  0  0  0  0  0
  -14.8414   -3.4893   -9.9759 C   0  0  0  0  0  0  0  0  0  0  0  0
  -14.6835   -4.9089   -9.6448 N   0  0  0  0  0  0  0  0  0  0  0  0
  -13.5078   -5.1009   -8.7530 C   0  0  0  0  0  0  0  0  0  0  0  0
  -12.1502   -4.9439   -9.4661 C   0  0  0  0  0  0  0  0  0  0  0  0
  -12.0509   -5.7961  -10.6150 O   0  0  0  0  0  0  0  0  0  0  0  0
  -13.1358   -5.5658  -11.5224 C   0  0  0  0  0  0  0  0  0  0  0  0
  -14.4928   -5.7702  -10.8290 C   0  0  0  0  0  0  0  0  0  0  0  0
  -17.1971    2.1811  -14.9891 O   0  0  0  0  0  0  0  0  0  0  0  0
  -18.4256    2.0981  -14.2359 C   0  0  0  0  0  0  0  0  0  0  0  0
  -19.5495    1.4649  -15.0355 C   0  0  0  0  0  0  0  0  0  0  0  0
  -20.3220    2.6236  -15.6311 C   0  0  0  0  0  0  0  0  0  0  0  0
  -19.9040    3.8248  -14.9850 O   0  0  0  0  0  0  0  0  0  0  0  0
  -18.9677    3.4932  -13.9532 C   0  0  0  0  0  0  0  0  0  0  0  0
 20 21  1  0  0  0
 21 13  1  0  0  0
 13 14  1  0  0  0
 13 19  2  0  0  0
 14 15  2  0  0  0
 15 16  1  0  0  0
 16 17  1  0  0  0
 16 18  2  0  0  0
 18 11  1  0  0  0
 18 19  1  0  0  0
 11  1  1  0  0  0
 11 12  1  0  0  0
  1  2  1  0  0  0
  1 10  2  0  0  0
  2  3  2  0  0  0
  3  4  1  0  0  0
  4  5  2  0  0  0
  5  6  1  0  0  0
  5 10  1  0  0  0
  6  7  2  0  0  0
  7 22  1  0  0  0
  7  8  1  0  0  0
 22 23  1  0  0  0
 23 24  1  0  0  0
 24 25  1  0  0  0
 25 26  1  0  0  0
 26 27  1  0  0  0
 26 31  1  0  0  0
 27 28  1  0  0  0
 28 29  1  0  0  0
 29 30  1  0  0  0
 30 31  1  0  0  0
  8  9  2  0  0  0
  9 32  1  0  0  0
  9 10  1  0  0  0
 32 33  1  0  0  0
 33 34  1  0  0  0
 33 37  1  0  0  0
 34 35  1  0  0  0
 35 36  1  0  0  0
 36 37  1  0  0  0
M  END
> <minimizedAffinity>
-7.38635

$$$$
