CHEMBL3696078


 41 43  0  0  0  0  0  0  0  0999 V2000
  -30.3244   -3.6419   -3.8561 C   0  0  0  0  0  0  0  0  0  0  0  0
  -31.8123   -4.4327   -3.6567 S   0  0  0  0  0  0  0  0  0  0  0  0
  -31.2412   -5.9469   -3.9723 N   0  0  0  0  0  0  0  0  0  0  0  0
  -29.9288   -5.8943   -4.2371 C   0  0  0  0  0  0  0  0  0  0  0  0
  -29.3351   -4.5583   -4.1629 C   0  0  0  0  0  0  0  0  0  0  0  0
  -30.1821   -0.1681   -4.6397 N   0  0  0  0  0  0  0  0  0  0  0  0
  -30.2710   -1.5199   -4.8866 C   0  0  0  0  0  0  0  0  0  0  0  0
  -30.3878   -1.9881   -6.0187 O   0  0  0  0  0  0  0  0  0  0  0  0
  -30.2622   -2.2618   -3.7191 N   0  0  0  0  0  0  0  0  0  0  0  0
  -29.6376    0.0815   -3.8265 H   0  0  0  0  0  0  0  0  0  0  0  0
  -30.9016   -1.8727   -3.0284 H   0  0  0  0  0  0  0  0  0  0  0  0
  -30.1620    0.7505   -5.7693 C   0  0  0  0  0  0  0  0  0  0  0  0
  -28.7519    0.9222   -6.3332 C   0  0  0  0  0  0  0  0  0  0  0  0
  -27.7330    0.0809   -5.5718 C   0  0  0  0  0  0  0  0  0  0  0  0
  -27.7290   -0.8147   -7.7585 C   0  0  0  0  0  0  0  0  0  0  0  0
  -27.1534   -0.8686   -6.4628 O   0  0  0  0  0  0  0  0  0  0  0  0
  -29.2655   -7.1557   -4.6084 C   0  0  0  0  0  0  0  0  0  0  0  0
  -28.8477   -8.0446   -3.6221 C   0  0  0  0  0  0  0  0  0  0  0  0
  -28.2289   -9.2463   -3.9583 C   0  0  0  0  0  0  0  0  0  0  0  0
  -27.9391   -9.5749   -5.2842 C   0  0  0  0  0  0  0  0  0  0  0  0
  -28.3319   -8.6792   -6.2833 C   0  0  0  0  0  0  0  0  0  0  0  0
  -28.9959   -7.4838   -5.9478 C   0  0  0  0  0  0  0  0  0  0  0  0
  -27.2235  -10.7453   -5.6390 N   0  0  0  0  0  0  0  0  0  0  0  0
  -25.8460  -10.8427   -5.7157 C   0  0  0  0  0  0  0  0  0  0  0  0
  -25.0590   -9.9645   -5.3725 O   0  0  0  0  0  0  0  0  0  0  0  0
  -25.4167  -12.0434   -6.2568 N   0  0  0  0  0  0  0  0  0  0  0  0
  -27.7519  -11.5939   -5.7837 H   0  0  0  0  0  0  0  0  0  0  0  0
  -25.9817  -12.3709   -7.0312 H   0  0  0  0  0  0  0  0  0  0  0  0
  -24.0180  -12.2508   -6.4156 C   0  0  0  0  0  0  0  0  0  0  0  0
  -23.1552  -12.3062   -5.3138 C   0  0  0  0  0  0  0  0  0  0  0  0
  -21.7697  -12.4090   -5.4915 C   0  0  0  0  0  0  0  0  0  0  0  0
  -20.8475  -12.4649   -4.3077 C   0  0  0  0  0  0  0  0  0  0  0  0
  -21.2508  -12.4454   -6.7921 C   0  0  0  0  0  0  0  0  0  0  0  0
  -22.1072  -12.4096   -7.8960 C   0  0  0  0  0  0  0  0  0  0  0  0
  -23.4825  -12.3362   -7.7003 C   0  0  0  0  0  0  0  0  0  0  0  0
  -24.2962  -12.2674   -8.7667 F   0  0  0  0  0  0  0  0  0  0  0  0
  -27.9546   -4.1295   -4.3207 C   0  0  0  0  0  0  0  0  0  0  0  0
  -27.6443   -3.4217   -5.4447 N   0  0  0  0  0  0  0  0  0  0  0  0
  -27.0736   -4.4308   -3.5195 O   0  0  0  0  0  0  0  0  0  0  0  0
  -28.3096   -3.2140   -6.1768 H   0  0  0  0  0  0  0  0  0  0  0  0
  -26.6882   -3.1185   -5.5680 H   0  0  0  0  0  0  0  0  0  0  0  0
 15 16  1  0  0  0
 16 14  1  0  0  0
 14 13  1  0  0  0
 13 12  1  0  0  0
 12  6  1  0  0  0
  6  7  1  0  0  0
  6 10  1  0  0  0
  7  8  2  0  0  0
  7  9  1  0  0  0
  9  1  1  0  0  0
  9 11  1  0  0  0
  1  2  1  0  0  0
  1  5  2  0  0  0
  2  3  1  0  0  0
  3  4  2  0  0  0
  4 17  1  0  0  0
  4  5  1  0  0  0
 17 18  1  0  0  0
 17 22  2  0  0  0
 18 19  2  0  0  0
 19 20  1  0  0  0
 20 23  1  0  0  0
 20 21  2  0  0  0
 23 24  1  0  0  0
 23 27  1  0  0  0
 24 25  2  0  0  0
 24 26  1  0  0  0
 26 29  1  0  0  0
 26 28  1  0  0  0
 29 30  1  0  0  0
 29 35  2  0  0  0
 30 31  2  0  0  0
 31 32  1  0  0  0
 31 33  1  0  0  0
 33 34  2  0  0  0
 34 35  1  0  0  0
 35 36  1  0  0  0
 21 22  1  0  0  0
  5 37  1  0  0  0
 37 38  1  0  0  0
 37 39  2  0  0  0
 38 40  1  0  0  0
 38 41  1  0  0  0
M  END
> <minimizedAffinity>
-6.44471

$$$$
