CHEMBL500169


 36 40  0  0  0  0  0  0  0  0999 V2000
  -24.1139  -10.4381   -5.4438 C   0  0  0  0  0  0  0  0  0  0  0  0
  -24.8517  -10.6131   -6.6338 C   0  0  0  0  0  0  0  0  0  0  0  0
  -26.1897  -10.1877   -6.7337 C   0  0  0  0  0  0  0  0  0  0  0  0
  -26.7851   -9.6038   -5.6302 C   0  0  0  0  0  0  0  0  0  0  0  0
  -26.0271   -9.4229   -4.4665 C   0  0  0  0  0  0  0  0  0  0  0  0
  -24.7069   -9.8107   -4.3438 C   0  0  0  0  0  0  0  0  0  0  0  0
  -26.7983   -8.8783   -3.4507 N   0  0  0  0  0  0  0  0  0  0  0  0
  -28.1174   -8.7436   -3.8428 C   0  0  0  0  0  0  0  0  0  0  0  0
  -29.0457   -8.5378   -3.0792 O   0  0  0  0  0  0  0  0  0  0  0  0
  -28.1351   -9.0865   -5.3231 C   0  0  0  0  0  0  0  0  0  0  0  0
  -29.2494   -8.9324   -6.0751 C   0  0  0  0  0  0  0  0  0  0  0  0
  -26.5125   -8.7598   -2.4918 H   0  0  0  0  0  0  0  0  0  0  0  0
  -29.3483   -9.5239   -7.4248 C   0  0  0  0  0  0  0  0  0  0  0  0
  -28.9458   -8.7691   -8.5344 C   0  0  0  0  0  0  0  0  0  0  0  0
  -28.9956   -9.3191   -9.8200 C   0  0  0  0  0  0  0  0  0  0  0  0
  -29.4497  -10.6246   -9.9968 C   0  0  0  0  0  0  0  0  0  0  0  0
  -29.8520  -11.3853   -8.8987 C   0  0  0  0  0  0  0  0  0  0  0  0
  -29.7906  -10.8385   -7.6131 C   0  0  0  0  0  0  0  0  0  0  0  0
  -22.2301  -11.3362   -3.9236 C   0  0  0  0  0  0  0  0  0  0  0  0
  -22.7135  -10.9350   -5.2911 C   0  0  0  0  0  0  0  0  0  0  0  0
  -21.9743  -10.9926   -6.2709 O   0  0  0  0  0  0  0  0  0  0  0  0
  -30.3992   -8.2597   -5.6894 N   0  0  0  0  0  0  0  0  0  0  0  0
  -31.2731   -8.7705   -5.7185 H   0  0  0  0  0  0  0  0  0  0  0  0
  -30.4929   -6.8651   -5.5072 C   0  0  0  0  0  0  0  0  0  0  0  0
  -29.6171   -5.9803   -6.1515 C   0  0  0  0  0  0  0  0  0  0  0  0
  -29.5257   -4.6413   -5.7658 C   0  0  0  0  0  0  0  0  0  0  0  0
  -30.3104   -4.1561   -4.7168 C   0  0  0  0  0  0  0  0  0  0  0  0
  -31.2606   -5.0110   -4.1376 C   0  0  0  0  0  0  0  0  0  0  0  0
  -31.3586   -6.3499   -4.5386 C   0  0  0  0  0  0  0  0  0  0  0  0
  -30.0365   -2.7880   -4.1268 C   0  0  0  0  0  0  0  0  0  0  0  0
  -29.3229   -1.8426   -5.0140 N   0  0  0  0  0  0  0  0  0  0  0  0
  -30.1369   -0.6364   -5.2335 C   0  0  0  0  0  0  0  0  0  0  0  0
  -29.3873    0.4493   -6.0057 C   0  0  0  0  0  0  0  0  0  0  0  0
  -28.0937    0.8213   -5.2991 C   0  0  0  0  0  0  0  0  0  0  0  0
  -27.2382   -0.4242   -5.1295 C   0  0  0  0  0  0  0  0  0  0  0  0
  -28.0082   -1.5387   -4.4176 C   0  0  0  0  0  0  0  0  0  0  0  0
 19 20  1  0  0  0
 20 21  2  0  0  0
 20  1  1  0  0  0
  1  2  1  0  0  0
  1  6  2  0  0  0
  2  3  2  0  0  0
  3  4  1  0  0  0
  4  5  2  0  0  0
  4 10  1  0  0  0
  5  6  1  0  0  0
  5  7  1  0  0  0
  7  8  1  0  0  0
  7 12  1  0  0  0
  8  9  2  0  0  0
  8 10  1  0  0  0
 10 11  2  0  0  0
 11 22  1  0  0  0
 11 13  1  0  0  0
 22 24  1  0  0  0
 22 23  1  0  0  0
 24 25  1  0  0  0
 24 29  2  0  0  0
 25 26  2  0  0  0
 26 27  1  0  0  0
 27 30  1  0  0  0
 27 28  2  0  0  0
 30 31  1  0  0  0
 31 32  1  0  0  0
 31 36  1  0  0  0
 32 33  1  0  0  0
 33 34  1  0  0  0
 34 35  1  0  0  0
 35 36  1  0  0  0
 28 29  1  0  0  0
 13 14  1  0  0  0
 13 18  2  0  0  0
 14 15  2  0  0  0
 15 16  1  0  0  0
 16 17  2  0  0  0
 17 18  1  0  0  0
M  END
> <minimizedAffinity>
-9.67133

$$$$
