CHEMBL3897714


 34 37  0  0  0  0  0  0  0  0999 V2000
  -28.2740   12.4620  -14.8641 O   0  0  0  0  0  0  0  0  0  0  0  0
  -27.9143   11.4977  -14.1991 C   0  0  0  0  0  0  0  0  0  0  0  0
  -26.7137   10.8256  -14.3841 N   0  0  0  0  0  0  0  0  0  0  0  0
  -28.6851   10.9451  -13.1855 N   0  0  0  0  0  0  0  0  0  0  0  0
  -26.6317    9.9219  -13.9417 H   0  0  0  0  0  0  0  0  0  0  0  0
  -28.2016   10.4365  -12.4564 H   0  0  0  0  0  0  0  0  0  0  0  0
  -29.9999   11.3815  -12.8603 C   0  0  0  0  0  0  0  0  0  0  0  0
  -31.1122   11.1169  -13.6689 C   0  0  0  0  0  0  0  0  0  0  0  0
  -32.3748   11.6668  -13.3857 C   0  0  0  0  0  0  0  0  0  0  0  0
  -32.5332   12.4424  -12.2278 C   0  0  0  0  0  0  0  0  0  0  0  0
  -31.4481   12.6572  -11.3746 C   0  0  0  0  0  0  0  0  0  0  0  0
  -30.1973   12.1275  -11.6947 C   0  0  0  0  0  0  0  0  0  0  0  0
  -29.1598   12.3760  -10.8797 F   0  0  0  0  0  0  0  0  0  0  0  0
  -33.5310   11.4550  -14.3360 C   0  0  0  0  0  0  0  0  0  0  0  0
  -33.4943   10.2643  -14.9950 F   0  0  0  0  0  0  0  0  0  0  0  0
  -34.7364   11.4930  -13.7037 F   0  0  0  0  0  0  0  0  0  0  0  0
  -33.5861   12.4139  -15.3020 F   0  0  0  0  0  0  0  0  0  0  0  0
  -25.7665   11.1283  -15.4009 C   0  0  0  0  0  0  0  0  0  0  0  0
  -25.6066   10.3550  -16.5564 C   0  0  0  0  0  0  0  0  0  0  0  0
  -24.5605   10.5984  -17.4561 C   0  0  0  0  0  0  0  0  0  0  0  0
  -23.6641   11.6424  -17.2331 C   0  0  0  0  0  0  0  0  0  0  0  0
  -23.8667   12.4746  -16.1265 C   0  0  0  0  0  0  0  0  0  0  0  0
  -24.9175   12.2267  -15.2228 C   0  0  0  0  0  0  0  0  0  0  0  0
  -22.5265   11.8014  -18.0926 C   0  0  0  0  0  0  0  0  0  0  0  0
  -21.6074   11.8795  -18.8698 C   0  0  0  0  0  0  0  0  0  0  0  0
  -20.5185   11.8602  -19.8225 C   0  0  0  0  0  0  0  0  0  0  0  0
  -20.6494   12.5429  -21.1335 C   0  0  0  0  0  0  0  0  0  0  0  0
  -19.6067   12.4643  -21.9693 C   0  0  0  0  0  0  0  0  0  0  0  0
  -18.4532   11.7563  -21.5659 C   0  0  0  0  0  0  0  0  0  0  0  0
  -17.3187   11.5257  -22.1924 N   0  0  0  0  0  0  0  0  0  0  0  0
  -16.5661   10.7929  -21.3103 C   0  0  0  0  0  0  0  0  0  0  0  0
  -17.2512   10.5787  -20.1358 C   0  0  0  0  0  0  0  0  0  0  0  0
  -18.4674   11.1860  -20.3000 N   0  0  0  0  0  0  0  0  0  0  0  0
  -19.4890   11.2078  -19.3851 N   0  0  0  0  0  0  0  0  0  0  0  0
  1  2  2  0  0  0
  2  3  1  0  0  0
  2  4  1  0  0  0
  3 18  1  0  0  0
  3  5  1  0  0  0
 18 19  1  0  0  0
 18 23  2  0  0  0
 19 20  2  0  0  0
 20 21  1  0  0  0
 21 24  1  0  0  0
 21 22  2  0  0  0
 24 25  3  0  0  0
 25 26  1  0  0  0
 26 27  1  0  0  0
 26 34  2  0  0  0
 27 28  2  0  0  0
 28 29  1  0  0  0
 29 30  2  0  0  0
 29 33  1  0  0  0
 30 31  1  0  0  0
 31 32  2  0  0  0
 32 33  1  0  0  0
 33 34  1  0  0  0
 22 23  1  0  0  0
  4  7  1  0  0  0
  4  6  1  0  0  0
  7  8  1  0  0  0
  7 12  2  0  0  0
  8  9  2  0  0  0
  9 14  1  0  0  0
  9 10  1  0  0  0
 14 15  1  0  0  0
 14 16  1  0  0  0
 14 17  1  0  0  0
 10 11  2  0  0  0
 11 12  1  0  0  0
 12 13  1  0  0  0
M  END
> <minimizedAffinity>
-6.29169

$$$$
