CHEMBL1254355


 34 37  0  0  0  0  0  0  0  0999 V2000
  -26.5859  -10.7877   -4.8438 C   0  0  0  0  0  0  0  0  0  0  0  0
  -27.0272  -10.2493   -3.6379 C   0  0  0  0  0  0  0  0  0  0  0  0
  -27.8625   -9.1330   -3.6243 C   0  0  0  0  0  0  0  0  0  0  0  0
  -28.3129   -8.5454   -4.8105 C   0  0  0  0  0  0  0  0  0  0  0  0
  -27.9108   -9.1346   -6.0235 C   0  0  0  0  0  0  0  0  0  0  0  0
  -28.4565   -8.4999   -7.5403 Cl  0  0  0  0  0  0  0  0  0  0  0  0
  -27.0568  -10.2492   -6.0421 C   0  0  0  0  0  0  0  0  0  0  0  0
  -29.1653   -7.4049   -4.8209 N   0  0  0  0  0  0  0  0  0  0  0  0
  -28.7517   -6.0879   -4.7157 C   0  0  0  0  0  0  0  0  0  0  0  0
  -27.5781   -5.7306   -4.6878 O   0  0  0  0  0  0  0  0  0  0  0  0
  -29.8063   -5.1993   -4.6224 N   0  0  0  0  0  0  0  0  0  0  0  0
  -30.1424   -7.5874   -5.0121 H   0  0  0  0  0  0  0  0  0  0  0  0
  -30.7362   -5.5470   -4.4498 H   0  0  0  0  0  0  0  0  0  0  0  0
  -29.5895   -3.8364   -4.4752 C   0  0  0  0  0  0  0  0  0  0  0  0
  -29.2230   -3.0818   -3.3341 C   0  0  0  0  0  0  0  0  0  0  0  0
  -29.1504   -1.7733   -3.5885 N   0  0  0  0  0  0  0  0  0  0  0  0
  -29.5254   -1.6852   -4.8759 N   0  0  0  0  0  0  0  0  0  0  0  0
  -29.7205   -2.8988   -5.4747 C   0  0  0  0  0  0  0  0  0  0  0  0
  -29.6404   -0.3767   -5.4725 C   0  0  0  0  0  0  0  0  0  0  0  0
  -28.3184    0.3492   -5.5291 C   0  0  0  0  0  0  0  0  0  0  0  0
  -28.0159    1.0489   -4.4167 F   0  0  0  0  0  0  0  0  0  0  0  0
  -27.2975   -0.5067   -5.7670 F   0  0  0  0  0  0  0  0  0  0  0  0
  -28.3283    1.2384   -6.5561 F   0  0  0  0  0  0  0  0  0  0  0  0
  -25.7466  -11.8796   -4.9169 O   0  0  0  0  0  0  0  0  0  0  0  0
  -24.6110  -12.0233   -7.7717 C   0  0  0  0  0  0  0  0  0  0  0  0
  -23.4321  -11.8384   -6.9549 N   0  0  0  0  0  0  0  0  0  0  0  0
  -22.1485  -11.7847   -7.4420 C   0  0  0  0  0  0  0  0  0  0  0  0
  -21.2984  -11.5893   -6.3746 C   0  0  0  0  0  0  0  0  0  0  0  0
  -22.0951  -11.5198   -5.2093 C   0  0  0  0  0  0  0  0  0  0  0  0
  -21.7068  -11.3435   -3.9292 N   0  0  0  0  0  0  0  0  0  0  0  0
  -22.7264  -11.3123   -3.0634 C   0  0  0  0  0  0  0  0  0  0  0  0
  -24.0359  -11.4448   -3.3294 N   0  0  0  0  0  0  0  0  0  0  0  0
  -24.4053  -11.6720   -4.6103 C   0  0  0  0  0  0  0  0  0  0  0  0
  -23.4230  -11.6794   -5.5890 C   0  0  0  0  0  0  0  0  0  0  0  0
 25 26  1  0  0  0
 26 27  1  0  0  0
 26 34  1  0  0  0
 27 28  2  0  0  0
 28 29  1  0  0  0
 29 30  1  0  0  0
 29 34  2  0  0  0
 30 31  2  0  0  0
 31 32  1  0  0  0
 32 33  2  0  0  0
 33 24  1  0  0  0
 33 34  1  0  0  0
 24  1  1  0  0  0
  1  2  1  0  0  0
  1  7  2  0  0  0
  2  3  2  0  0  0
  3  4  1  0  0  0
  4  8  1  0  0  0
  4  5  2  0  0  0
  8  9  1  0  0  0
  8 12  1  0  0  0
  9 10  2  0  0  0
  9 11  1  0  0  0
 11 14  1  0  0  0
 11 13  1  0  0  0
 14 15  1  0  0  0
 14 18  2  0  0  0
 15 16  2  0  0  0
 16 17  1  0  0  0
 17 19  1  0  0  0
 17 18  1  0  0  0
 19 20  1  0  0  0
 20 21  1  0  0  0
 20 22  1  0  0  0
 20 23  1  0  0  0
  5  6  1  0  0  0
  5  7  1  0  0  0
M  END
> <minimizedAffinity>
-8.47118

$$$$
