CHEMBL4166401


 38 42  0  0  0  0  0  0  0  0999 V2000
  -13.4043   -2.2152  -12.8877 C   0  0  0  0  0  0  0  0  0  0  0  0
  -14.7927   -2.0325  -12.8004 C   0  0  0  0  0  0  0  0  0  0  0  0
  -15.4170   -0.8857  -13.3003 C   0  0  0  0  0  0  0  0  0  0  0  0
  -14.6705    0.1282  -13.8927 C   0  0  0  0  0  0  0  0  0  0  0  0
  -13.2831   -0.0165  -13.9623 C   0  0  0  0  0  0  0  0  0  0  0  0
  -12.6601   -1.1703  -13.4617 C   0  0  0  0  0  0  0  0  0  0  0  0
  -13.6506   -9.3643  -11.9314 N   0  0  0  0  0  0  0  0  0  0  0  0
  -12.9753   -8.1766  -11.7535 C   0  0  0  0  0  0  0  0  0  0  0  0
  -11.7896   -8.2338  -11.1450 N   0  0  0  0  0  0  0  0  0  0  0  0
  -11.1254   -7.0697  -11.0358 C   0  0  0  0  0  0  0  0  0  0  0  0
  -11.6117   -5.8605  -11.5021 C   0  0  0  0  0  0  0  0  0  0  0  0
  -10.8983   -4.6561  -11.4227 C   0  0  0  0  0  0  0  0  0  0  0  0
  -11.4787   -3.4813  -11.8955 C   0  0  0  0  0  0  0  0  0  0  0  0
  -12.7722   -3.4789  -12.4454 C   0  0  0  0  0  0  0  0  0  0  0  0
  -13.4411   -4.7168  -12.5276 C   0  0  0  0  0  0  0  0  0  0  0  0
  -12.8840   -5.9098  -12.0715 C   0  0  0  0  0  0  0  0  0  0  0  0
  -13.5656   -7.0587  -12.1886 N   0  0  0  0  0  0  0  0  0  0  0  0
  -13.3331  -10.0486  -11.2606 H   0  0  0  0  0  0  0  0  0  0  0  0
  -14.6427   -9.1962  -12.0069 H   0  0  0  0  0  0  0  0  0  0  0  0
  -15.2498    1.2820  -14.4552 N   0  0  0  0  0  0  0  0  0  0  0  0
  -15.5294    1.4913  -15.7910 C   0  0  0  0  0  0  0  0  0  0  0  0
  -15.4033    0.7115  -16.7229 O   0  0  0  0  0  0  0  0  0  0  0  0
  -15.4553    2.0426  -13.8171 H   0  0  0  0  0  0  0  0  0  0  0  0
  -16.0170    2.8683  -16.1010 C   0  0  0  0  0  0  0  0  0  0  0  0
  -15.4640    3.5894  -17.3348 C   0  0  0  0  0  0  0  0  0  0  0  0
  -15.0130    4.0145  -15.9743 C   0  0  0  0  0  0  0  0  0  0  0  0
  -17.4451    3.1310  -15.7243 C   0  0  0  0  0  0  0  0  0  0  0  0
  -17.7980    4.2920  -15.5864 O   0  0  0  0  0  0  0  0  0  0  0  0
  -18.2152    1.9934  -15.5514 N   0  0  0  0  0  0  0  0  0  0  0  0
  -17.7415    1.1005  -15.6514 H   0  0  0  0  0  0  0  0  0  0  0  0
  -19.5684    1.9725  -15.1463 C   0  0  0  0  0  0  0  0  0  0  0  0
  -20.3026    3.1378  -14.8860 C   0  0  0  0  0  0  0  0  0  0  0  0
  -21.5972    3.0721  -14.3644 C   0  0  0  0  0  0  0  0  0  0  0  0
  -22.1695    1.8343  -14.1142 C   0  0  0  0  0  0  0  0  0  0  0  0
  -23.3903    1.7721  -13.5661 F   0  0  0  0  0  0  0  0  0  0  0  0
  -21.4759    0.6721  -14.4266 C   0  0  0  0  0  0  0  0  0  0  0  0
  -22.0355   -0.5237  -14.1941 F   0  0  0  0  0  0  0  0  0  0  0  0
  -20.1862    0.7303  -14.9585 C   0  0  0  0  0  0  0  0  0  0  0  0
  7  8  1  0  0  0
  7 18  1  0  0  0
  7 19  1  0  0  0
  8  9  1  0  0  0
  8 17  2  0  0  0
  9 10  2  0  0  0
 10 11  1  0  0  0
 11 12  1  0  0  0
 11 16  2  0  0  0
 12 13  2  0  0  0
 13 14  1  0  0  0
 14  1  1  0  0  0
 14 15  2  0  0  0
  1  2  1  0  0  0
  1  6  2  0  0  0
  2  3  2  0  0  0
  3  4  1  0  0  0
  4 20  1  0  0  0
  4  5  2  0  0  0
 20 21  1  0  0  0
 20 23  1  0  0  0
 21 22  2  0  0  0
 21 24  1  0  0  0
 24 27  1  0  0  0
 24 25  1  0  0  0
 24 26  1  0  0  0
 27 28  2  0  0  0
 27 29  1  0  0  0
 29 31  1  0  0  0
 29 30  1  0  0  0
 31 32  1  0  0  0
 31 38  2  0  0  0
 32 33  2  0  0  0
 33 34  1  0  0  0
 34 35  1  0  0  0
 34 36  2  0  0  0
 36 37  1  0  0  0
 36 38  1  0  0  0
 25 26  1  0  0  0
  5  6  1  0  0  0
 15 16  1  0  0  0
 16 17  1  0  0  0
M  END
> <minimizedAffinity>
-9.51894

$$$$
