CHEMBL196747


 32 35  0  0  0  0  0  0  0  0999 V2000
  -13.0632   -3.7701  -11.7940 C   0  0  0  0  0  0  0  0  0  0  0  0
  -14.4428   -3.9298  -11.9175 C   0  0  0  0  0  0  0  0  0  0  0  0
  -15.1917   -3.1529  -12.8048 C   0  0  0  0  0  0  0  0  0  0  0  0
  -14.6094   -2.0999  -13.5100 C   0  0  0  0  0  0  0  0  0  0  0  0
  -13.2447   -1.8647  -13.3253 C   0  0  0  0  0  0  0  0  0  0  0  0
  -12.4773   -2.7164  -12.5103 C   0  0  0  0  0  0  0  0  0  0  0  0
  -12.2558   -3.1781   -8.7855 C   0  0  0  0  0  0  0  0  0  0  0  0
  -11.9741   -4.3933   -9.6168 C   0  0  0  0  0  0  0  0  0  0  0  0
  -11.1324   -5.6671   -8.8410 S   0  0  0  0  0  0  0  0  0  0  0  0
  -11.2105   -6.6597  -10.2067 C   0  0  0  0  0  0  0  0  0  0  0  0
  -10.6967   -7.8983  -10.1362 N   0  0  0  0  0  0  0  0  0  0  0  0
  -10.8241   -8.5691  -11.2752 C   0  0  0  0  0  0  0  0  0  0  0  0
  -11.3592   -8.1242  -12.4158 N   0  0  0  0  0  0  0  0  0  0  0  0
  -11.8491   -6.8697  -12.4603 C   0  0  0  0  0  0  0  0  0  0  0  0
  -12.3408   -6.5052  -13.7050 N   0  0  0  0  0  0  0  0  0  0  0  0
  -11.8190   -6.0558  -11.2995 C   0  0  0  0  0  0  0  0  0  0  0  0
  -12.2925   -4.7029  -10.9423 C   0  0  0  0  0  0  0  0  0  0  0  0
  -12.0792   -7.1905  -14.4051 H   0  0  0  0  0  0  0  0  0  0  0  0
  -12.2002   -5.5370  -13.9606 H   0  0  0  0  0  0  0  0  0  0  0  0
  -15.3216   -1.2730  -14.4141 N   0  0  0  0  0  0  0  0  0  0  0  0
  -16.2016   -0.2701  -14.0654 C   0  0  0  0  0  0  0  0  0  0  0  0
  -16.4144    0.1247  -12.9227 O   0  0  0  0  0  0  0  0  0  0  0  0
  -16.8789    0.2320  -15.1663 N   0  0  0  0  0  0  0  0  0  0  0  0
  -15.0859   -1.3483  -15.3850 H   0  0  0  0  0  0  0  0  0  0  0  0
  -17.0723   -0.4548  -15.8828 H   0  0  0  0  0  0  0  0  0  0  0  0
  -17.8314    1.2690  -15.0135 C   0  0  0  0  0  0  0  0  0  0  0  0
  -17.4513    2.5777  -15.3144 C   0  0  0  0  0  0  0  0  0  0  0  0
  -18.3921    3.6102  -15.2543 C   0  0  0  0  0  0  0  0  0  0  0  0
  -19.6991    3.3402  -14.8510 C   0  0  0  0  0  0  0  0  0  0  0  0
  -20.0590    2.0430  -14.5192 C   0  0  0  0  0  0  0  0  0  0  0  0
  -21.3141    1.7862  -14.1240 F   0  0  0  0  0  0  0  0  0  0  0  0
  -19.1405    1.0021  -14.5984 C   0  0  0  0  0  0  0  0  0  0  0  0
  7  8  1  0  0  0
  8  9  1  0  0  0
  8 17  2  0  0  0
  9 10  1  0  0  0
 10 11  1  0  0  0
 10 16  2  0  0  0
 11 12  2  0  0  0
 12 13  1  0  0  0
 13 14  2  0  0  0
 14 15  1  0  0  0
 14 16  1  0  0  0
 15 18  1  0  0  0
 15 19  1  0  0  0
 16 17  1  0  0  0
 17  1  1  0  0  0
  1  2  1  0  0  0
  1  6  2  0  0  0
  2  3  2  0  0  0
  3  4  1  0  0  0
  4 20  1  0  0  0
  4  5  2  0  0  0
 20 21  1  0  0  0
 20 24  1  0  0  0
 21 22  2  0  0  0
 21 23  1  0  0  0
 23 26  1  0  0  0
 23 25  1  0  0  0
 26 27  1  0  0  0
 26 32  2  0  0  0
 27 28  2  0  0  0
 28 29  1  0  0  0
 29 30  2  0  0  0
 30 31  1  0  0  0
 30 32  1  0  0  0
  5  6  1  0  0  0
M  END
> <minimizedAffinity>
-7.91985

$$$$
