CHEMBL246342


 28 31  0  0  0  0  0  0  0  0999 V2000
  -28.0839   -1.9696   -7.8177 C   0  0  0  0  0  0  0  0  0  0  0  0
  -27.9345   -0.7676   -7.0997 C   0  0  0  0  0  0  0  0  0  0  0  0
  -28.4584   -0.6204   -5.7963 C   0  0  0  0  0  0  0  0  0  0  0  0
  -29.1404   -1.6670   -5.1738 C   0  0  0  0  0  0  0  0  0  0  0  0
  -29.2637   -2.8443   -5.8785 C   0  0  0  0  0  0  0  0  0  0  0  0
  -28.7414   -3.0225   -7.1883 C   0  0  0  0  0  0  0  0  0  0  0  0
  -29.0116   -4.4234   -7.7582 C   0  0  0  0  0  0  0  0  0  0  0  0
  -29.7778   -4.9666   -6.6055 C   0  0  0  0  0  0  0  0  0  0  0  0
  -29.9069   -4.0676   -5.5406 C   0  0  0  0  0  0  0  0  0  0  0  0
  -30.6136   -4.5342   -4.5220 N   0  0  0  0  0  0  0  0  0  0  0  0
  -30.9423   -5.7809   -4.9601 N   0  0  0  0  0  0  0  0  0  0  0  0
  -30.4692   -6.0839   -6.2218 C   0  0  0  0  0  0  0  0  0  0  0  0
  -31.4962   -6.3692   -4.3491 H   0  0  0  0  0  0  0  0  0  0  0  0
  -30.6910   -7.3391   -6.9881 C   0  0  0  0  0  0  0  0  0  0  0  0
  -31.9373   -8.0267   -7.0995 C   0  0  0  0  0  0  0  0  0  0  0  0
  -31.8386   -9.1768   -7.8519 C   0  0  0  0  0  0  0  0  0  0  0  0
  -30.2497   -9.4281   -8.4287 S   0  0  0  0  0  0  0  0  0  0  0  0
  -29.6921   -7.9898   -7.6801 C   0  0  0  0  0  0  0  0  0  0  0  0
  -28.0724   -1.3083  -10.1736 N   0  0  0  0  0  0  0  0  0  0  0  0
  -27.5598   -2.1429   -9.2031 C   0  0  0  0  0  0  0  0  0  0  0  0
  -26.7444   -3.0231   -9.4580 O   0  0  0  0  0  0  0  0  0  0  0  0
  -28.8410   -0.6888   -9.9584 H   0  0  0  0  0  0  0  0  0  0  0  0
  -27.6374   -1.4058  -11.5586 C   0  0  0  0  0  0  0  0  0  0  0  0
  -26.3676   -0.6049  -11.8201 C   0  0  0  0  0  0  0  0  0  0  0  0
  -25.0105   -1.5694  -13.5727 O   0  0  0  0  0  0  0  0  0  0  0  0
  -25.3003   -1.5018  -12.3886 C   0  0  0  0  0  0  0  0  0  0  0  0
  -24.7162   -2.2921  -11.4595 O   0  0  0  0  0  0  0  0  0  0  0  0
  -25.0325   -2.1435  -10.5482 H   0  0  0  0  0  0  0  0  0  0  0  0
 25 26  2  0  0  0
 26 27  1  0  0  0
 26 24  1  0  0  0
 27 28  1  0  0  0
 24 23  1  0  0  0
 23 19  1  0  0  0
 19 20  1  0  0  0
 19 22  1  0  0  0
 20 21  2  0  0  0
 20  1  1  0  0  0
  1  2  1  0  0  0
  1  6  2  0  0  0
  2  3  2  0  0  0
  3  4  1  0  0  0
  4  5  2  0  0  0
  5  6  1  0  0  0
  5  9  1  0  0  0
  6  7  1  0  0  0
  7  8  1  0  0  0
  8  9  1  0  0  0
  8 12  2  0  0  0
  9 10  2  0  0  0
 10 11  1  0  0  0
 11 12  1  0  0  0
 11 13  1  0  0  0
 12 14  1  0  0  0
 14 15  1  0  0  0
 14 18  2  0  0  0
 15 16  2  0  0  0
 16 17  1  0  0  0
 17 18  1  0  0  0
M  END
> <minimizedAffinity>
-8.53471

$$$$
