CHEMBL3954818


 37 41  0  0  0  0  0  0  0  0999 V2000
  -15.9241    1.5913  -16.0727 O   0  0  0  0  0  0  0  0  0  0  0  0
  -17.2240    1.6088  -15.6129 C   0  0  0  0  0  0  0  0  0  0  0  0
  -17.9701    0.4539  -15.3949 C   0  0  0  0  0  0  0  0  0  0  0  0
  -19.2890    0.5277  -14.9268 C   0  0  0  0  0  0  0  0  0  0  0  0
  -19.9129    1.7830  -14.7658 C   0  0  0  0  0  0  0  0  0  0  0  0
  -21.2137    2.2817  -14.4183 C   0  0  0  0  0  0  0  0  0  0  0  0
  -21.2239    3.6248  -14.4077 N   0  0  0  0  0  0  0  0  0  0  0  0
  -19.9853    3.9744  -14.7824 N   0  0  0  0  0  0  0  0  0  0  0  0
  -19.1489    2.9183  -15.0253 C   0  0  0  0  0  0  0  0  0  0  0  0
  -17.8115    2.8713  -15.4498 C   0  0  0  0  0  0  0  0  0  0  0  0
  -19.7732    4.9618  -14.8630 H   0  0  0  0  0  0  0  0  0  0  0  0
  -22.4251    1.5532  -14.1493 C   0  0  0  0  0  0  0  0  0  0  0  0
  -22.6149    0.5455  -13.2830 C   0  0  0  0  0  0  0  0  0  0  0  0
  -23.8156   -0.1820  -13.0730 C   0  0  0  0  0  0  0  0  0  0  0  0
  -24.6512   -0.1995  -11.9832 C   0  0  0  0  0  0  0  0  0  0  0  0
  -25.6615   -1.0553  -12.3333 N   0  0  0  0  0  0  0  0  0  0  0  0
  -25.4004   -1.5081  -13.5961 C   0  0  0  0  0  0  0  0  0  0  0  0
  -24.2890   -0.9938  -14.0707 N   0  0  0  0  0  0  0  0  0  0  0  0
  -26.4598   -1.3063  -11.7675 H   0  0  0  0  0  0  0  0  0  0  0  0
  -13.7920   -0.4253  -13.7330 C   0  0  0  0  0  0  0  0  0  0  0  0
  -12.7664    0.4977  -13.5484 C   0  0  0  0  0  0  0  0  0  0  0  0
  -12.8039    1.7322  -14.2038 C   0  0  0  0  0  0  0  0  0  0  0  0
  -13.8620    2.0644  -15.0555 C   0  0  0  0  0  0  0  0  0  0  0  0
  -14.8947    1.1534  -15.2623 C   0  0  0  0  0  0  0  0  0  0  0  0
  -14.8657   -0.0749  -14.5857 C   0  0  0  0  0  0  0  0  0  0  0  0
  -14.6641   -2.2374  -12.1374 C   0  0  0  0  0  0  0  0  0  0  0  0
  -15.5773   -1.6202  -11.5936 O   0  0  0  0  0  0  0  0  0  0  0  0
  -13.8422   -1.7114  -13.1381 N   0  0  0  0  0  0  0  0  0  0  0  0
  -13.1328   -2.3416  -13.4996 H   0  0  0  0  0  0  0  0  0  0  0  0
  -15.1723   -4.6735  -11.4733 N   0  0  0  0  0  0  0  0  0  0  0  0
  -14.5281   -5.7501  -10.9599 N   0  0  0  0  0  0  0  0  0  0  0  0
  -13.2452   -5.5084  -11.1875 C   0  0  0  0  0  0  0  0  0  0  0  0
  -12.2254   -6.5533  -10.9403 C   0  0  0  0  0  0  0  0  0  0  0  0
  -13.0542   -4.2048  -11.6738 C   0  0  0  0  0  0  0  0  0  0  0  0
  -14.3183   -3.6199  -11.7739 C   0  0  0  0  0  0  0  0  0  0  0  0
  -16.8880   -5.4121  -13.1099 C   0  0  0  0  0  0  0  0  0  0  0  0
  -16.5982   -4.8518  -11.7091 C   0  0  0  0  0  0  0  0  0  0  0  0
 36 37  1  0  0  0
 37 30  1  0  0  0
 30 31  1  0  0  0
 30 35  1  0  0  0
 31 32  2  0  0  0
 32 33  1  0  0  0
 32 34  1  0  0  0
 34 35  2  0  0  0
 35 26  1  0  0  0
 26 27  2  0  0  0
 26 28  1  0  0  0
 28 20  1  0  0  0
 28 29  1  0  0  0
 20 21  1  0  0  0
 20 25  2  0  0  0
 21 22  2  0  0  0
 22 23  1  0  0  0
 23 24  2  0  0  0
 24  1  1  0  0  0
 24 25  1  0  0  0
  1  2  1  0  0  0
  2  3  1  0  0  0
  2 10  2  0  0  0
  3  4  2  0  0  0
  4  5  1  0  0  0
  5  6  1  0  0  0
  5  9  2  0  0  0
  6 12  1  0  0  0
  6  7  2  0  0  0
 12 13  2  0  0  0
 13 14  1  0  0  0
 14 15  2  0  0  0
 14 18  1  0  0  0
 15 16  1  0  0  0
 16 17  1  0  0  0
 16 19  1  0  0  0
 17 18  2  0  0  0
  7  8  1  0  0  0
  8  9  1  0  0  0
  8 11  1  0  0  0
  9 10  1  0  0  0
M  END
> <minimizedAffinity>
-9.77655

$$$$
