CHEMBL3628808


 29 32  0  0  0  0  0  0  0  0999 V2000
  -19.1713    2.1257  -14.5644 C   0  0  0  0  0  0  0  0  0  0  0  0
  -18.8563    3.1726  -15.4314 C   0  0  0  0  0  0  0  0  0  0  0  0
  -17.6368    3.2086  -16.1028 C   0  0  0  0  0  0  0  0  0  0  0  0
  -16.6665    2.2406  -15.8582 C   0  0  0  0  0  0  0  0  0  0  0  0
  -16.9535    1.2070  -14.9632 C   0  0  0  0  0  0  0  0  0  0  0  0
  -18.1969    1.1534  -14.3112 C   0  0  0  0  0  0  0  0  0  0  0  0
  -21.2179    0.1943  -15.2017 O   0  0  0  0  0  0  0  0  0  0  0  0
  -21.3824    1.0221  -14.3115 C   0  0  0  0  0  0  0  0  0  0  0  0
  -20.4469    1.9889  -13.9630 N   0  0  0  0  0  0  0  0  0  0  0  0
  -22.5103    1.0771  -13.5114 N   0  0  0  0  0  0  0  0  0  0  0  0
  -20.5871    2.4736  -13.0907 H   0  0  0  0  0  0  0  0  0  0  0  0
  -22.5965    1.8671  -12.8907 H   0  0  0  0  0  0  0  0  0  0  0  0
  -23.5895    0.1594  -13.5298 C   0  0  0  0  0  0  0  0  0  0  0  0
  -24.0631   -0.4689  -14.6892 C   0  0  0  0  0  0  0  0  0  0  0  0
  -25.1244   -1.3754  -14.6408 C   0  0  0  0  0  0  0  0  0  0  0  0
  -25.7263   -1.6743  -13.4235 C   0  0  0  0  0  0  0  0  0  0  0  0
  -25.2626   -1.0594  -12.2638 C   0  0  0  0  0  0  0  0  0  0  0  0
  -26.0694   -1.4755  -10.6067 Br  0  0  0  0  0  0  0  0  0  0  0  0
  -24.2044   -0.1458  -12.3096 C   0  0  0  0  0  0  0  0  0  0  0  0
  -15.4476    2.1979  -16.5013 O   0  0  0  0  0  0  0  0  0  0  0  0
  -14.5847    3.2777  -16.3369 C   0  0  0  0  0  0  0  0  0  0  0  0
  -13.8183    3.3545  -15.2233 N   0  0  0  0  0  0  0  0  0  0  0  0
  -13.0376    4.4301  -15.0686 C   0  0  0  0  0  0  0  0  0  0  0  0
  -12.8792    5.4465  -15.9189 N   0  0  0  0  0  0  0  0  0  0  0  0
  -13.6070    5.2997  -17.0393 C   0  0  0  0  0  0  0  0  0  0  0  0
  -13.5307    6.4598  -18.2855 S   0  0  0  0  0  0  0  0  0  0  0  0
  -14.6499    5.5925  -19.2440 C   0  0  0  0  0  0  0  0  0  0  0  0
  -15.0837    4.4438  -18.6161 C   0  0  0  0  0  0  0  0  0  0  0  0
  -14.4737    4.2568  -17.3304 C   0  0  0  0  0  0  0  0  0  0  0  0
  7  8  2  0  0  0
  8  9  1  0  0  0
  8 10  1  0  0  0
  9  1  1  0  0  0
  9 11  1  0  0  0
  1  2  1  0  0  0
  1  6  2  0  0  0
  2  3  2  0  0  0
  3  4  1  0  0  0
  4 20  1  0  0  0
  4  5  2  0  0  0
 20 21  1  0  0  0
 21 22  1  0  0  0
 21 29  2  0  0  0
 22 23  2  0  0  0
 23 24  1  0  0  0
 24 25  2  0  0  0
 25 26  1  0  0  0
 25 29  1  0  0  0
 26 27  1  0  0  0
 27 28  2  0  0  0
 28 29  1  0  0  0
  5  6  1  0  0  0
 10 13  1  0  0  0
 10 12  1  0  0  0
 13 14  1  0  0  0
 13 19  2  0  0  0
 14 15  2  0  0  0
 15 16  1  0  0  0
 16 17  2  0  0  0
 17 18  1  0  0  0
 17 19  1  0  0  0
M  END
> <minimizedAffinity>
-8.79600

$$$$
