CHEMBL209555


 29 32  0  0  0  0  0  0  0  0999 V2000
  -29.4942   -2.3486   -4.8095 C   0  0  0  0  0  0  0  0  0  0  0  0
  -30.4900   -6.0185   -5.1123 C   0  0  0  0  0  0  0  0  0  0  0  0
  -31.4237   -6.1354   -4.0728 C   0  0  0  0  0  0  0  0  0  0  0  0
  -31.7210   -5.0332   -3.2707 C   0  0  0  0  0  0  0  0  0  0  0  0
  -31.0963   -3.8170   -3.5147 C   0  0  0  0  0  0  0  0  0  0  0  0
  -31.3842   -2.7734   -2.7269 F   0  0  0  0  0  0  0  0  0  0  0  0
  -30.1767   -3.6675   -4.5603 C   0  0  0  0  0  0  0  0  0  0  0  0
  -29.8758   -4.7824   -5.3608 C   0  0  0  0  0  0  0  0  0  0  0  0
  -29.1148   -7.3405   -6.4753 O   0  0  0  0  0  0  0  0  0  0  0  0
  -30.2177   -7.2144   -5.9478 C   0  0  0  0  0  0  0  0  0  0  0  0
  -31.2581   -8.1114   -6.1116 N   0  0  0  0  0  0  0  0  0  0  0  0
  -32.1839   -7.8687   -5.7849 H   0  0  0  0  0  0  0  0  0  0  0  0
  -31.1110   -9.2778   -6.9276 C   0  0  0  0  0  0  0  0  0  0  0  0
  -30.7412   -9.1852   -8.3814 C   0  0  0  0  0  0  0  0  0  0  0  0
  -32.1320   -9.5868   -7.9866 C   0  0  0  0  0  0  0  0  0  0  0  0
  -28.0501   -2.4793   -5.3068 C   0  0  0  0  0  0  0  0  0  0  0  0
  -27.9556   -2.0256   -6.7256 C   0  0  0  0  0  0  0  0  0  0  0  0
  -27.8304   -0.7405   -7.1942 C   0  0  0  0  0  0  0  0  0  0  0  0
  -27.7203   -0.6245   -8.5552 N   0  0  0  0  0  0  0  0  0  0  0  0
  -27.7978   -1.7975   -9.1495 C   0  0  0  0  0  0  0  0  0  0  0  0
  -27.9432   -3.1209   -8.0450 S   0  0  0  0  0  0  0  0  0  0  0  0
  -27.7954   -2.0071  -10.4854 N   0  0  0  0  0  0  0  0  0  0  0  0
  -28.6515   -1.8615  -11.0035 H   0  0  0  0  0  0  0  0  0  0  0  0
  -26.7032   -1.7735  -11.3286 C   0  0  0  0  0  0  0  0  0  0  0  0
  -26.8118   -1.6802  -12.7161 C   0  0  0  0  0  0  0  0  0  0  0  0
  -25.6699   -1.5896  -13.5038 C   0  0  0  0  0  0  0  0  0  0  0  0
  -24.4335   -1.5393  -12.8869 C   0  0  0  0  0  0  0  0  0  0  0  0
  -24.4029   -1.5648  -11.5031 C   0  0  0  0  0  0  0  0  0  0  0  0
  -25.5011   -1.6780  -10.7179 N   0  0  0  0  0  0  0  0  0  0  0  0
  9 10  2  0  0  0
 10 11  1  0  0  0
 10  2  1  0  0  0
 11 13  1  0  0  0
 11 12  1  0  0  0
 13 14  1  0  0  0
 13 15  1  0  0  0
 14 15  1  0  0  0
  2  3  1  0  0  0
  2  8  2  0  0  0
  3  4  2  0  0  0
  4  5  1  0  0  0
  5  6  1  0  0  0
  5  7  2  0  0  0
  7  1  1  0  0  0
  7  8  1  0  0  0
  1 16  1  0  0  0
 16 17  1  0  0  0
 17 18  2  0  0  0
 17 21  1  0  0  0
 18 19  1  0  0  0
 19 20  2  0  0  0
 20 22  1  0  0  0
 20 21  1  0  0  0
 22 24  1  0  0  0
 22 23  1  0  0  0
 24 25  1  0  0  0
 24 29  2  0  0  0
 25 26  2  0  0  0
 26 27  1  0  0  0
 27 28  2  0  0  0
 28 29  1  0  0  0
M  END
> <minimizedAffinity>
-8.65096

$$$$
