CHEMBL1967878


 37 41  0  0  0  0  0  0  0  0999 V2000
  -28.8046   -9.0346   -4.4753 C   0  0  0  0  0  0  0  0  0  0  0  0
  -28.6414   -9.8786   -3.4483 N   0  0  0  0  0  0  0  0  0  0  0  0
  -27.9268  -10.9996   -3.7004 C   0  0  0  0  0  0  0  0  0  0  0  0
  -27.3916  -11.3161   -4.9333 C   0  0  0  0  0  0  0  0  0  0  0  0
  -26.7333  -12.4658   -5.1195 F   0  0  0  0  0  0  0  0  0  0  0  0
  -27.5287  -10.3660   -5.9031 C   0  0  0  0  0  0  0  0  0  0  0  0
  -28.2167   -9.2348   -5.6638 N   0  0  0  0  0  0  0  0  0  0  0  0
  -29.6886   -7.9753   -4.2787 N   0  0  0  0  0  0  0  0  0  0  0  0
  -30.6324   -8.3148   -4.2951 H   0  0  0  0  0  0  0  0  0  0  0  0
  -30.1338   -4.2604   -7.5209 C   0  0  0  0  0  0  0  0  0  0  0  0
  -29.6585   -4.6979   -6.1560 C   0  0  0  0  0  0  0  0  0  0  0  0
  -29.8149   -6.0634   -5.8465 C   0  0  0  0  0  0  0  0  0  0  0  0
  -29.5263   -6.6034   -4.5915 C   0  0  0  0  0  0  0  0  0  0  0  0
  -29.0263   -5.7220   -3.6324 C   0  0  0  0  0  0  0  0  0  0  0  0
  -28.8634   -4.3541   -3.9167 C   0  0  0  0  0  0  0  0  0  0  0  0
  -29.1601   -3.8109   -5.1790 C   0  0  0  0  0  0  0  0  0  0  0  0
  -29.0200   -2.4544   -5.4505 N   0  0  0  0  0  0  0  0  0  0  0  0
  -29.5581   -1.4349   -4.5288 C   0  0  0  0  0  0  0  0  0  0  0  0
  -29.7528   -0.1085   -5.3123 C   0  0  0  0  0  0  0  0  0  0  0  0
  -28.5149    0.3582   -5.9874 N   0  0  0  0  0  0  0  0  0  0  0  0
  -28.7793    1.5464   -6.7922 C   0  0  0  0  0  0  0  0  0  0  0  0
  -27.9733   -0.7323   -6.8331 C   0  0  0  0  0  0  0  0  0  0  0  0
  -27.7250   -2.0137   -6.0073 C   0  0  0  0  0  0  0  0  0  0  0  0
  -27.0366  -10.3964   -7.1703 N   0  0  0  0  0  0  0  0  0  0  0  0
  -26.0666  -10.7010   -7.1433 H   0  0  0  0  0  0  0  0  0  0  0  0
  -27.5603   -9.8991   -8.4445 C   0  0  0  0  0  0  0  0  0  0  0  0
  -26.7810  -10.4305   -9.6865 C   0  0  0  0  0  0  0  0  0  0  0  0
  -27.4328  -10.0224  -10.9888 C   0  0  0  0  0  0  0  0  0  0  0  0
  -28.5743  -10.7262  -11.1271 C   0  0  0  0  0  0  0  0  0  0  0  0
  -28.7202  -11.5259   -9.8701 C   0  0  0  0  0  0  0  0  0  0  0  0
  -27.2311  -11.8936   -9.7099 C   0  0  0  0  0  0  0  0  0  0  0  0
  -28.9665  -10.5806   -8.6591 C   0  0  0  0  0  0  0  0  0  0  0  0
  -30.0269   -9.4919   -8.7355 C   0  0  0  0  0  0  0  0  0  0  0  0
  -31.3263   -9.8651   -8.8824 N   0  0  0  0  0  0  0  0  0  0  0  0
  -29.7806   -8.3040   -8.5410 O   0  0  0  0  0  0  0  0  0  0  0  0
  -31.5804  -10.7149   -9.3608 H   0  0  0  0  0  0  0  0  0  0  0  0
  -31.9648   -9.0818   -8.9803 H   0  0  0  0  0  0  0  0  0  0  0  0
 10 11  1  0  0  0
 11 12  1  0  0  0
 11 16  2  0  0  0
 12 13  2  0  0  0
 13  8  1  0  0  0
 13 14  1  0  0  0
  8  1  1  0  0  0
  8  9  1  0  0  0
  1  2  1  0  0  0
  1  7  2  0  0  0
  2  3  2  0  0  0
  3  4  1  0  0  0
  4  5  1  0  0  0
  4  6  2  0  0  0
  6 24  1  0  0  0
  6  7  1  0  0  0
 24 26  1  0  0  0
 24 25  1  0  0  0
 26 27  1  0  0  0
 26 32  1  0  0  0
 27 28  1  0  0  0
 27 31  1  0  0  0
 28 29  2  0  0  0
 29 30  1  0  0  0
 30 31  1  0  0  0
 30 32  1  0  0  0
 32 33  1  0  0  0
 33 34  1  0  0  0
 33 35  2  0  0  0
 34 36  1  0  0  0
 34 37  1  0  0  0
 14 15  2  0  0  0
 15 16  1  0  0  0
 16 17  1  0  0  0
 17 18  1  0  0  0
 17 23  1  0  0  0
 18 19  1  0  0  0
 19 20  1  0  0  0
 20 21  1  0  0  0
 20 22  1  0  0  0
 22 23  1  0  0  0
M  END
> <minimizedAffinity>
-8.91206

$$$$
