CHEMBL196994


 33 36  0  0  0  0  0  0  0  0999 V2000
  -30.1378   -6.5925   -4.2550 C   0  0  0  0  0  0  0  0  0  0  0  0
  -29.5901   -6.9781   -3.0863 N   0  0  0  0  0  0  0  0  0  0  0  0
  -28.7298   -8.0378   -3.0296 N   0  0  0  0  0  0  0  0  0  0  0  0
  -28.4295   -8.7573   -4.1364 C   0  0  0  0  0  0  0  0  0  0  0  0
  -29.0285   -8.4441   -5.3829 C   0  0  0  0  0  0  0  0  0  0  0  0
  -28.8631   -9.1967   -6.5799 C   0  0  0  0  0  0  0  0  0  0  0  0
  -29.4242   -8.8048   -7.7965 C   0  0  0  0  0  0  0  0  0  0  0  0
  -30.2228   -7.6773   -7.8506 C   0  0  0  0  0  0  0  0  0  0  0  0
  -30.4631   -6.9520   -6.6850 C   0  0  0  0  0  0  0  0  0  0  0  0
  -29.8772   -7.3066   -5.4421 C   0  0  0  0  0  0  0  0  0  0  0  0
  -27.4236   -9.8221   -3.8682 C   0  0  0  0  0  0  0  0  0  0  0  0
  -27.7742  -11.1147   -3.4371 C   0  0  0  0  0  0  0  0  0  0  0  0
  -26.8100  -12.0875   -3.1559 C   0  0  0  0  0  0  0  0  0  0  0  0
  -25.4663  -11.8223   -3.3914 C   0  0  0  0  0  0  0  0  0  0  0  0
  -25.0865  -10.5879   -3.9199 C   0  0  0  0  0  0  0  0  0  0  0  0
  -26.0520   -9.5887   -4.1200 C   0  0  0  0  0  0  0  0  0  0  0  0
  -23.6578  -10.3960   -4.2811 C   0  0  0  0  0  0  0  0  0  0  0  0
  -23.3829   -9.5291   -5.3020 N   0  0  0  0  0  0  0  0  0  0  0  0
  -22.7657  -11.0358   -3.7392 O   0  0  0  0  0  0  0  0  0  0  0  0
  -24.0986   -9.1738   -5.9214 H   0  0  0  0  0  0  0  0  0  0  0  0
  -22.4291   -9.5250   -5.6404 H   0  0  0  0  0  0  0  0  0  0  0  0
  -30.9624   -5.4356   -4.2896 N   0  0  0  0  0  0  0  0  0  0  0  0
  -31.8398   -5.6747   -4.7385 H   0  0  0  0  0  0  0  0  0  0  0  0
  -29.5423   -1.5149   -5.2172 C   0  0  0  0  0  0  0  0  0  0  0  0
  -29.5169   -2.0238   -3.9066 C   0  0  0  0  0  0  0  0  0  0  0  0
  -29.9846   -3.3123   -3.6048 C   0  0  0  0  0  0  0  0  0  0  0  0
  -30.5350   -4.1261   -4.5957 C   0  0  0  0  0  0  0  0  0  0  0  0
  -30.5575   -3.6333   -5.9023 C   0  0  0  0  0  0  0  0  0  0  0  0
  -30.0831   -2.3504   -6.2067 C   0  0  0  0  0  0  0  0  0  0  0  0
  -30.2200    0.9161   -5.6739 C   0  0  0  0  0  0  0  0  0  0  0  0
  -29.0541   -0.0920   -5.5468 C   0  0  0  0  0  0  0  0  0  0  0  0
  -28.2948   -0.1334   -6.8875 C   0  0  0  0  0  0  0  0  0  0  0  0
  -28.1045    0.4816   -4.4683 C   0  0  0  0  0  0  0  0  0  0  0  0
 30 31  1  0  0  0
 31 32  1  0  0  0
 31 33  1  0  0  0
 31 24  1  0  0  0
 24 25  1  0  0  0
 24 29  2  0  0  0
 25 26  2  0  0  0
 26 27  1  0  0  0
 27 22  1  0  0  0
 27 28  2  0  0  0
 22  1  1  0  0  0
 22 23  1  0  0  0
  1  2  1  0  0  0
  1 10  2  0  0  0
  2  3  2  0  0  0
  3  4  1  0  0  0
  4 11  1  0  0  0
  4  5  2  0  0  0
 11 12  1  0  0  0
 11 16  2  0  0  0
 12 13  2  0  0  0
 13 14  1  0  0  0
 14 15  2  0  0  0
 15 17  1  0  0  0
 15 16  1  0  0  0
 17 18  1  0  0  0
 17 19  2  0  0  0
 18 20  1  0  0  0
 18 21  1  0  0  0
  5  6  1  0  0  0
  5 10  1  0  0  0
  6  7  2  0  0  0
  7  8  1  0  0  0
  8  9  2  0  0  0
  9 10  1  0  0  0
 28 29  1  0  0  0
M  END
> <minimizedAffinity>
-9.62227

$$$$
