CHEMBL4642920


 40 44  0  0  0  0  0  0  0  0999 V2000
  -19.4768    2.4216  -14.8166 C   0  0  0  0  0  0  0  0  0  0  0  0
  -18.7788    3.4041  -15.5527 C   0  0  0  0  0  0  0  0  0  0  0  0
  -17.4316    3.2206  -15.9174 C   0  0  0  0  0  0  0  0  0  0  0  0
  -16.7891    2.0567  -15.5317 C   0  0  0  0  0  0  0  0  0  0  0  0
  -17.5053    1.0959  -14.7986 C   0  0  0  0  0  0  0  0  0  0  0  0
  -18.8320    1.2374  -14.4447 C   0  0  0  0  0  0  0  0  0  0  0  0
  -16.6903    0.0262  -14.4488 N   0  0  0  0  0  0  0  0  0  0  0  0
  -15.4013    0.2165  -14.9052 C   0  0  0  0  0  0  0  0  0  0  0  0
  -14.4218   -0.4509  -14.6291 O   0  0  0  0  0  0  0  0  0  0  0  0
  -15.4448    1.4925  -15.7162 C   0  0  0  0  0  0  0  0  0  0  0  0
  -14.3609    1.8727  -16.4267 C   0  0  0  0  0  0  0  0  0  0  0  0
  -16.9484   -0.7420  -13.8490 H   0  0  0  0  0  0  0  0  0  0  0  0
  -14.2532    3.2575  -16.9466 C   0  0  0  0  0  0  0  0  0  0  0  0
  -13.5567    4.2005  -16.1711 C   0  0  0  0  0  0  0  0  0  0  0  0
  -13.3590    5.5029  -16.6365 C   0  0  0  0  0  0  0  0  0  0  0  0
  -13.8309    5.8698  -17.8936 C   0  0  0  0  0  0  0  0  0  0  0  0
  -14.5406    4.9524  -18.6657 C   0  0  0  0  0  0  0  0  0  0  0  0
  -14.7793    3.6649  -18.1785 C   0  0  0  0  0  0  0  0  0  0  0  0
  -20.8803    2.5961  -14.3606 C   0  0  0  0  0  0  0  0  0  0  0  0
  -21.5516    3.5820  -14.6244 O   0  0  0  0  0  0  0  0  0  0  0  0
  -22.6834    1.1786  -13.9297 C   0  0  0  0  0  0  0  0  0  0  0  0
  -21.3131    1.5065  -13.6773 O   0  0  0  0  0  0  0  0  0  0  0  0
  -13.1844    1.1084  -16.5396 N   0  0  0  0  0  0  0  0  0  0  0  0
  -13.0292    0.6042  -15.6546 H   0  0  0  0  0  0  0  0  0  0  0  0
  -13.0029    0.1220  -17.5639 C   0  0  0  0  0  0  0  0  0  0  0  0
  -13.8539    0.1237  -18.6706 C   0  0  0  0  0  0  0  0  0  0  0  0
  -13.7545   -0.8625  -19.6649 C   0  0  0  0  0  0  0  0  0  0  0  0
  -12.8000   -1.8890  -19.5850 C   0  0  0  0  0  0  0  0  0  0  0  0
  -11.9459   -1.9271  -18.4690 C   0  0  0  0  0  0  0  0  0  0  0  0
  -10.8273   -2.9103  -18.2289 C   0  0  0  0  0  0  0  0  0  0  0  0
  -12.0891   -0.9305  -17.4761 C   0  0  0  0  0  0  0  0  0  0  0  0
  -12.7456   -2.8699  -20.6269 N   0  0  0  0  0  0  0  0  0  0  0  0
  -12.0165   -2.7190  -21.7990 C   0  0  0  0  0  0  0  0  0  0  0  0
  -12.2255   -3.7969  -22.6239 C   0  0  0  0  0  0  0  0  0  0  0  0
  -13.0510   -4.6887  -21.9188 C   0  0  0  0  0  0  0  0  0  0  0  0
  -13.3524   -4.1285  -20.6844 C   0  0  0  0  0  0  0  0  0  0  0  0
  -14.2431   -4.7398  -19.6412 C   0  0  0  0  0  0  0  0  0  0  0  0
  -13.5284   -5.5841  -18.6794 N   0  0  0  0  0  0  0  0  0  0  0  0
  -13.6856   -5.1196  -17.3021 C   0  0  0  0  0  0  0  0  0  0  0  0
  -13.9724   -6.9736  -18.7921 C   0  0  0  0  0  0  0  0  0  0  0  0
 21 22  1  0  0  0
 22 19  1  0  0  0
 19 20  2  0  0  0
 19  1  1  0  0  0
  1  2  1  0  0  0
  1  6  2  0  0  0
  2  3  2  0  0  0
  3  4  1  0  0  0
  4  5  2  0  0  0
  4 10  1  0  0  0
  5  6  1  0  0  0
  5  7  1  0  0  0
  7  8  1  0  0  0
  7 12  1  0  0  0
  8  9  2  0  0  0
  8 10  1  0  0  0
 10 11  2  0  0  0
 11 23  1  0  0  0
 11 13  1  0  0  0
 23 25  1  0  0  0
 23 24  1  0  0  0
 25 26  1  0  0  0
 25 31  2  0  0  0
 26 27  2  0  0  0
 27 28  1  0  0  0
 28 32  1  0  0  0
 28 29  2  0  0  0
 32 33  1  0  0  0
 32 36  1  0  0  0
 33 34  2  0  0  0
 34 35  1  0  0  0
 35 36  2  0  0  0
 36 37  1  0  0  0
 37 38  1  0  0  0
 38 39  1  0  0  0
 38 40  1  0  0  0
 29 30  1  0  0  0
 29 31  1  0  0  0
 13 14  1  0  0  0
 13 18  2  0  0  0
 14 15  2  0  0  0
 15 16  1  0  0  0
 16 17  2  0  0  0
 17 18  1  0  0  0
M  END
> <minimizedAffinity>
-7.43952

$$$$
