CHEMBL245768


 30 34  0  0  0  0  0  0  0  0999 V2000
  -15.3904   -3.4266  -13.5738 C   0  0  0  0  0  0  0  0  0  0  0  0
  -16.0834   -3.2573  -12.3603 C   0  0  0  0  0  0  0  0  0  0  0  0
  -16.4403   -4.3507  -11.5422 C   0  0  0  0  0  0  0  0  0  0  0  0
  -16.1049   -5.6491  -11.9093 C   0  0  0  0  0  0  0  0  0  0  0  0
  -15.4506   -5.8073  -13.1129 C   0  0  0  0  0  0  0  0  0  0  0  0
  -15.1036   -4.7277  -13.9708 C   0  0  0  0  0  0  0  0  0  0  0  0
  -14.3169   -5.1819  -15.2112 C   0  0  0  0  0  0  0  0  0  0  0  0
  -14.2707   -6.6411  -14.9107 C   0  0  0  0  0  0  0  0  0  0  0  0
  -14.9267   -6.9800  -13.7181 C   0  0  0  0  0  0  0  0  0  0  0  0
  -14.8821   -8.2689  -13.4237 N   0  0  0  0  0  0  0  0  0  0  0  0
  -14.1763   -8.7680  -14.4679 N   0  0  0  0  0  0  0  0  0  0  0  0
  -13.7886   -7.8237  -15.3996 C   0  0  0  0  0  0  0  0  0  0  0  0
  -13.9839   -9.7628  -14.4790 H   0  0  0  0  0  0  0  0  0  0  0  0
  -13.0133   -8.0853  -16.6417 C   0  0  0  0  0  0  0  0  0  0  0  0
  -13.5040   -8.7397  -17.8103 C   0  0  0  0  0  0  0  0  0  0  0  0
  -12.5441   -8.8461  -18.7945 C   0  0  0  0  0  0  0  0  0  0  0  0
  -11.0526   -8.1651  -18.3134 S   0  0  0  0  0  0  0  0  0  0  0  0
  -11.6916   -7.7178  -16.7886 C   0  0  0  0  0  0  0  0  0  0  0  0
  -13.7692   -1.6778  -14.1526 C   0  0  0  0  0  0  0  0  0  0  0  0
  -12.9225   -1.9903  -13.3174 O   0  0  0  0  0  0  0  0  0  0  0  0
  -14.9726   -2.3396  -14.3580 N   0  0  0  0  0  0  0  0  0  0  0  0
  -15.3910   -2.2214  -15.2711 H   0  0  0  0  0  0  0  0  0  0  0  0
  -13.5269   -0.5011  -15.1096 C   0  0  0  0  0  0  0  0  0  0  0  0
  -17.4767    2.2070  -15.8803 C   0  0  0  0  0  0  0  0  0  0  0  0
  -16.1844    2.1414  -15.2055 N   0  0  0  0  0  0  0  0  0  0  0  0
  -16.1369    1.0249  -14.2435 C   0  0  0  0  0  0  0  0  0  0  0  0
  -14.7624    0.9623  -13.5350 C   0  0  0  0  0  0  0  0  0  0  0  0
  -13.5907    0.8205  -14.4404 N   0  0  0  0  0  0  0  0  0  0  0  0
  -13.6960    1.9010  -15.4578 C   0  0  0  0  0  0  0  0  0  0  0  0
  -15.0739    2.0262  -16.1652 C   0  0  0  0  0  0  0  0  0  0  0  0
 24 25  1  0  0  0
 25 26  1  0  0  0
 25 30  1  0  0  0
 26 27  1  0  0  0
 27 28  1  0  0  0
 28 23  1  0  0  0
 28 29  1  0  0  0
 23 19  1  0  0  0
 19 20  2  0  0  0
 19 21  1  0  0  0
 21  1  1  0  0  0
 21 22  1  0  0  0
  1  2  1  0  0  0
  1  6  2  0  0  0
  2  3  2  0  0  0
  3  4  1  0  0  0
  4  5  2  0  0  0
  5  6  1  0  0  0
  5  9  1  0  0  0
  6  7  1  0  0  0
  7  8  1  0  0  0
  8  9  1  0  0  0
  8 12  2  0  0  0
  9 10  2  0  0  0
 10 11  1  0  0  0
 11 12  1  0  0  0
 11 13  1  0  0  0
 12 14  1  0  0  0
 14 15  1  0  0  0
 14 18  2  0  0  0
 15 16  2  0  0  0
 16 17  1  0  0  0
 17 18  1  0  0  0
 29 30  1  0  0  0
M  END
> <minimizedAffinity>
-7.23631

$$$$
