CHEMBL425109


 38 44  0  0  0  0  0  0  0  0999 V2000
  -13.4921   -5.2205  -11.9526 N   0  0  0  0  0  0  0  0  0  0  0  0
  -13.5039   -6.4512  -12.6516 C   0  0  0  0  0  0  0  0  0  0  0  0
  -13.2066   -7.7698  -12.2500 C   0  0  0  0  0  0  0  0  0  0  0  0
  -13.2107   -8.7960  -13.2208 C   0  0  0  0  0  0  0  0  0  0  0  0
  -13.5192   -8.5415  -14.5531 C   0  0  0  0  0  0  0  0  0  0  0  0
  -13.8164   -7.2305  -14.9352 C   0  0  0  0  0  0  0  0  0  0  0  0
  -13.7846   -6.1813  -13.9997 C   0  0  0  0  0  0  0  0  0  0  0  0
  -13.8495   -4.8039  -14.0201 C   0  0  0  0  0  0  0  0  0  0  0  0
  -13.6556   -4.0656  -15.1913 C   0  0  0  0  0  0  0  0  0  0  0  0
  -13.1833   -2.7457  -15.0091 C   0  0  0  0  0  0  0  0  0  0  0  0
  -13.0736   -2.1269  -13.7464 C   0  0  0  0  0  0  0  0  0  0  0  0
  -13.8918   -2.7548  -12.7435 C   0  0  0  0  0  0  0  0  0  0  0  0
  -13.8462   -4.1694  -12.8090 C   0  0  0  0  0  0  0  0  0  0  0  0
  -15.2480   -1.9401  -12.5281 C   0  0  0  0  0  0  0  0  0  0  0  0
  -15.4997   -0.7676  -13.5708 C   0  0  0  0  0  0  0  0  0  0  0  0
  -14.2429    0.0255  -13.6273 C   0  0  0  0  0  0  0  0  0  0  0  0
  -14.0702    1.3089  -13.3150 N   0  0  0  0  0  0  0  0  0  0  0  0
  -12.7293    1.3832  -13.1157 N   0  0  0  0  0  0  0  0  0  0  0  0
  -12.1470    2.6067  -12.6203 C   0  0  0  0  0  0  0  0  0  0  0  0
  -12.0906    0.1697  -13.2086 C   0  0  0  0  0  0  0  0  0  0  0  0
  -13.0361   -0.6869  -13.7077 C   0  0  0  0  0  0  0  0  0  0  0  0
  -13.0411   -2.1613  -16.3170 C   0  0  0  0  0  0  0  0  0  0  0  0
  -12.6890   -1.0572  -16.7188 O   0  0  0  0  0  0  0  0  0  0  0  0
  -13.4615   -3.1571  -17.1940 N   0  0  0  0  0  0  0  0  0  0  0  0
  -13.7945   -4.4266  -16.5988 C   0  0  0  0  0  0  0  0  0  0  0  0
  -13.5180   -2.9564  -18.1809 H   0  0  0  0  0  0  0  0  0  0  0  0
  -13.5394   -9.5023  -15.5801 N   0  0  0  0  0  0  0  0  0  0  0  0
  -12.7012   -9.6479  -16.6614 C   0  0  0  0  0  0  0  0  0  0  0  0
  -11.7540   -8.9041  -16.9187 O   0  0  0  0  0  0  0  0  0  0  0  0
  -14.2697  -10.1967  -15.5394 H   0  0  0  0  0  0  0  0  0  0  0  0
  -13.0349  -10.7892  -17.4934 C   0  0  0  0  0  0  0  0  0  0  0  0
  -14.2571  -11.3743  -17.7768 C   0  0  0  0  0  0  0  0  0  0  0  0
  -14.0050  -12.4490  -18.6574 C   0  0  0  0  0  0  0  0  0  0  0  0
  -12.6442  -12.4653  -18.8621 C   0  0  0  0  0  0  0  0  0  0  0  0
  -12.0450  -11.4610  -18.1694 O   0  0  0  0  0  0  0  0  0  0  0  0
  -13.0166   -5.0786  -10.5817 C   0  0  0  0  0  0  0  0  0  0  0  0
  -14.5021   -3.4719   -9.1917 C   0  0  0  0  0  0  0  0  0  0  0  0
  -14.1049   -4.9092   -9.5081 C   0  0  0  0  0  0  0  0  0  0  0  0
 37 38  1  0  0  0
 38 36  1  0  0  0
 36  1  1  0  0  0
  1  2  1  0  0  0
  1 13  1  0  0  0
  2  3  1  0  0  0
  2  7  2  0  0  0
  3  4  2  0  0  0
  4  5  1  0  0  0
  5 27  1  0  0  0
  5  6  2  0  0  0
 27 28  1  0  0  0
 27 30  1  0  0  0
 28 29  2  0  0  0
 28 31  1  0  0  0
 31 32  2  0  0  0
 31 35  1  0  0  0
 32 33  1  0  0  0
 33 34  2  0  0  0
 34 35  1  0  0  0
  6  7  1  0  0  0
  7  8  1  0  0  0
  8  9  1  0  0  0
  8 13  2  0  0  0
  9 10  2  0  0  0
  9 25  1  0  0  0
 10 11  1  0  0  0
 10 22  1  0  0  0
 11 12  2  0  0  0
 11 21  1  0  0  0
 12 13  1  0  0  0
 12 14  1  0  0  0
 14 15  1  0  0  0
 15 16  1  0  0  0
 16 17  2  0  0  0
 16 21  1  0  0  0
 17 18  1  0  0  0
 18 19  1  0  0  0
 18 20  1  0  0  0
 20 21  2  0  0  0
 22 23  2  0  0  0
 22 24  1  0  0  0
 24 25  1  0  0  0
 24 26  1  0  0  0
M  END
> <minimizedAffinity>
-7.95700

$$$$
