CHEMBL2018777


 39 41  0  0  0  0  0  0  0  0999 V2000
  -28.4603   -4.6403   -5.4997 C   0  0  0  0  0  0  0  0  0  0  0  0
  -28.3909   -6.0293   -5.3676 C   0  0  0  0  0  0  0  0  0  0  0  0
  -29.2875   -6.8855   -6.0224 C   0  0  0  0  0  0  0  0  0  0  0  0
  -29.3917   -8.2539   -5.7164 C   0  0  0  0  0  0  0  0  0  0  0  0
  -30.1864   -9.0732   -6.4134 N   0  0  0  0  0  0  0  0  0  0  0  0
  -30.9105   -8.4964   -7.3804 C   0  0  0  0  0  0  0  0  0  0  0  0
  -30.9322   -7.1881   -7.6995 N   0  0  0  0  0  0  0  0  0  0  0  0
  -30.1262   -6.3756   -7.0093 C   0  0  0  0  0  0  0  0  0  0  0  0
  -30.0874   -4.9955   -7.2538 C   0  0  0  0  0  0  0  0  0  0  0  0
  -29.2672   -4.1162   -6.5193 C   0  0  0  0  0  0  0  0  0  0  0  0
  -28.7060   -8.7470   -4.5768 N   0  0  0  0  0  0  0  0  0  0  0  0
  -29.3721   -9.0787   -3.8866 H   0  0  0  0  0  0  0  0  0  0  0  0
  -27.4587   -9.3930   -4.4954 C   0  0  0  0  0  0  0  0  0  0  0  0
  -26.3999   -8.7515   -3.8411 C   0  0  0  0  0  0  0  0  0  0  0  0
  -25.0983   -9.2504   -3.9088 C   0  0  0  0  0  0  0  0  0  0  0  0
  -24.8071  -10.3802   -4.6721 C   0  0  0  0  0  0  0  0  0  0  0  0
  -25.8698  -11.0527   -5.2969 C   0  0  0  0  0  0  0  0  0  0  0  0
  -25.5928  -12.4514   -6.2807 Cl  0  0  0  0  0  0  0  0  0  0  0  0
  -27.1738  -10.5563   -5.2162 C   0  0  0  0  0  0  0  0  0  0  0  0
  -23.4843  -10.8312   -4.8761 N   0  0  0  0  0  0  0  0  0  0  0  0
  -22.6102  -10.3176   -5.7943 C   0  0  0  0  0  0  0  0  0  0  0  0
  -22.7831   -9.3491   -6.5171 O   0  0  0  0  0  0  0  0  0  0  0  0
  -23.2450  -11.7486   -4.5297 H   0  0  0  0  0  0  0  0  0  0  0  0
  -21.5296  -11.1405   -5.8855 O   0  0  0  0  0  0  0  0  0  0  0  0
  -21.8291  -12.4659   -6.3551 C   0  0  0  0  0  0  0  0  0  0  0  0
  -21.9883  -12.3994   -7.8635 C   0  0  0  0  0  0  0  0  0  0  0  0
  -27.8282   -3.8021   -4.6067 O   0  0  0  0  0  0  0  0  0  0  0  0
  -28.5151   -3.6104   -3.3641 C   0  0  0  0  0  0  0  0  0  0  0  0
  -29.6888   -2.6443   -3.4549 C   0  0  0  0  0  0  0  0  0  0  0  0
  -31.5535   -4.3730   -3.6748 C   0  0  0  0  0  0  0  0  0  0  0  0
  -30.8986   -3.3263   -2.7990 C   0  0  0  0  0  0  0  0  0  0  0  0
  -29.3468   -2.7778   -6.8745 O   0  0  0  0  0  0  0  0  0  0  0  0
  -28.1421   -2.3212   -7.5159 C   0  0  0  0  0  0  0  0  0  0  0  0
  -27.9870   -0.7789   -7.5677 C   0  0  0  0  0  0  0  0  0  0  0  0
  -28.6004   -0.1153   -6.3821 N   0  0  0  0  0  0  0  0  0  0  0  0
  -27.7415   -0.1318   -5.1873 C   0  0  0  0  0  0  0  0  0  0  0  0
  -27.9036    1.0474   -4.2349 C   0  0  0  0  0  0  0  0  0  0  0  0
  -29.1398    1.2159   -6.7051 C   0  0  0  0  0  0  0  0  0  0  0  0
  -30.6338    1.3671   -6.3978 C   0  0  0  0  0  0  0  0  0  0  0  0
 30 31  1  0  0  0
 31 29  1  0  0  0
 29 28  1  0  0  0
 28 27  1  0  0  0
 27  1  1  0  0  0
  1  2  1  0  0  0
  1 10  2  0  0  0
  2  3  2  0  0  0
  3  4  1  0  0  0
  3  8  1  0  0  0
  4 11  1  0  0  0
  4  5  2  0  0  0
 11 13  1  0  0  0
 11 12  1  0  0  0
 13 14  1  0  0  0
 13 19  2  0  0  0
 14 15  2  0  0  0
 15 16  1  0  0  0
 16 20  1  0  0  0
 16 17  2  0  0  0
 20 21  1  0  0  0
 20 23  1  0  0  0
 21 22  2  0  0  0
 21 24  1  0  0  0
 24 25  1  0  0  0
 25 26  1  0  0  0
 17 18  1  0  0  0
 17 19  1  0  0  0
  5  6  1  0  0  0
  6  7  2  0  0  0
  7  8  1  0  0  0
  8  9  2  0  0  0
  9 10  1  0  0  0
 10 32  1  0  0  0
 32 33  1  0  0  0
 33 34  1  0  0  0
 34 35  1  0  0  0
 35 36  1  0  0  0
 35 38  1  0  0  0
 36 37  1  0  0  0
 38 39  1  0  0  0
M  END
> <minimizedAffinity>
-7.20610

$$$$
