CHEMBL3950340


 39 42  0  0  0  0  0  0  0  0999 V2000
  -28.0630   -1.5702   -6.2047 C   0  0  0  0  0  0  0  0  0  0  0  0
  -27.5985   -2.2772   -7.2647 N   0  0  0  0  0  0  0  0  0  0  0  0
  -27.6987   -1.7501   -8.4927 C   0  0  0  0  0  0  0  0  0  0  0  0
  -28.2494   -0.5559   -8.7257 N   0  0  0  0  0  0  0  0  0  0  0  0
  -28.6986    0.1327   -7.6752 C   0  0  0  0  0  0  0  0  0  0  0  0
  -28.6189   -0.3086   -6.3672 C   0  0  0  0  0  0  0  0  0  0  0  0
  -29.0932    0.6236   -5.3129 C   0  0  0  0  0  0  0  0  0  0  0  0
  -28.1355    1.0604   -4.4576 F   0  0  0  0  0  0  0  0  0  0  0  0
  -29.6601    1.7446   -5.8335 F   0  0  0  0  0  0  0  0  0  0  0  0
  -30.0571    0.0557   -4.5313 F   0  0  0  0  0  0  0  0  0  0  0  0
  -27.2475   -2.5466   -9.5478 N   0  0  0  0  0  0  0  0  0  0  0  0
  -27.6807   -3.4561   -9.4471 H   0  0  0  0  0  0  0  0  0  0  0  0
  -26.8355   -2.1053  -10.7519 C   0  0  0  0  0  0  0  0  0  0  0  0
  -27.5853   -1.6780  -11.8625 C   0  0  0  0  0  0  0  0  0  0  0  0
  -26.8168   -1.4565  -12.9299 N   0  0  0  0  0  0  0  0  0  0  0  0
  -25.5678   -1.7227  -12.4928 N   0  0  0  0  0  0  0  0  0  0  0  0
  -25.5299   -2.0686  -11.1676 C   0  0  0  0  0  0  0  0  0  0  0  0
  -24.4685   -1.7887  -13.4565 C   0  0  0  0  0  0  0  0  0  0  0  0
  -23.1066   -2.0876  -12.8145 C   0  0  0  0  0  0  0  0  0  0  0  0
  -22.6075   -0.8913  -12.0085 C   0  0  0  0  0  0  0  0  0  0  0  0
  -22.5242    0.3188  -12.8265 N   0  0  0  0  0  0  0  0  0  0  0  0
  -23.8075    0.6474  -13.4582 C   0  0  0  0  0  0  0  0  0  0  0  0
  -24.3329   -0.5118  -14.3034 C   0  0  0  0  0  0  0  0  0  0  0  0
  -21.8160    0.1981  -13.5476 H   0  0  0  0  0  0  0  0  0  0  0  0
  -27.8205   -2.2356   -4.8728 C   0  0  0  0  0  0  0  0  0  0  0  0
  -27.8303   -3.7787   -4.8602 C   0  0  0  0  0  0  0  0  0  0  0  0
  -29.5524   -5.6946   -5.0653 C   0  0  0  0  0  0  0  0  0  0  0  0
  -30.8275   -6.2240   -4.7489 C   0  0  0  0  0  0  0  0  0  0  0  0
  -31.7395   -5.5165   -3.9748 C   0  0  0  0  0  0  0  0  0  0  0  0
  -31.3914   -4.2668   -3.4893 C   0  0  0  0  0  0  0  0  0  0  0  0
  -30.1362   -3.7283   -3.7784 C   0  0  0  0  0  0  0  0  0  0  0  0
  -29.1828   -4.4241   -4.5526 C   0  0  0  0  0  0  0  0  0  0  0  0
  -28.6624   -8.0158   -5.3511 C   0  0  0  0  0  0  0  0  0  0  0  0
  -28.6048   -6.5767   -5.8844 C   0  0  0  0  0  0  0  0  0  0  0  0
  -28.8716   -6.5075   -7.3987 C   0  0  0  0  0  0  0  0  0  0  0  0
  -28.2084   -5.5156   -8.0678 N   0  0  0  0  0  0  0  0  0  0  0  0
  -29.5944   -7.2788   -8.0217 O   0  0  0  0  0  0  0  0  0  0  0  0
  -27.8702   -4.6999   -7.5730 H   0  0  0  0  0  0  0  0  0  0  0  0
  -28.4702   -5.3915   -9.0376 H   0  0  0  0  0  0  0  0  0  0  0  0
 33 34  1  0  0  0
 34 35  1  0  0  0
 34 27  1  0  0  0
 35 36  1  0  0  0
 35 37  2  0  0  0
 36 38  1  0  0  0
 36 39  1  0  0  0
 27 28  1  0  0  0
 27 32  2  0  0  0
 28 29  2  0  0  0
 29 30  1  0  0  0
 30 31  2  0  0  0
 31 32  1  0  0  0
 32 26  1  0  0  0
 26 25  1  0  0  0
 25  1  1  0  0  0
  1  2  1  0  0  0
  1  6  2  0  0  0
  2  3  2  0  0  0
  3 11  1  0  0  0
  3  4  1  0  0  0
 11 13  1  0  0  0
 11 12  1  0  0  0
 13 14  1  0  0  0
 13 17  2  0  0  0
 14 15  2  0  0  0
 15 16  1  0  0  0
 16 18  1  0  0  0
 16 17  1  0  0  0
 18 19  1  0  0  0
 18 23  1  0  0  0
 19 20  1  0  0  0
 20 21  1  0  0  0
 21 22  1  0  0  0
 21 24  1  0  0  0
 22 23  1  0  0  0
  4  5  2  0  0  0
  5  6  1  0  0  0
  6  7  1  0  0  0
  7  8  1  0  0  0
  7  9  1  0  0  0
  7 10  1  0  0  0
M  END
> <minimizedAffinity>
-9.28520

$$$$
