CHEMBL184847


 31 34  0  0  0  0  0  0  0  0999 V2000
  -26.1004   -1.2638  -12.2014 C   0  0  0  0  0  0  0  0  0  0  0  0
  -25.7019   -1.7169  -13.4537 C   0  0  0  0  0  0  0  0  0  0  0  0
  -24.5504   -1.2029  -14.0644 C   0  0  0  0  0  0  0  0  0  0  0  0
  -23.7210   -0.2636  -13.4275 C   0  0  0  0  0  0  0  0  0  0  0  0
  -24.1625    0.1960  -12.1696 C   0  0  0  0  0  0  0  0  0  0  0  0
  -25.3506   -0.2715  -11.5744 C   0  0  0  0  0  0  0  0  0  0  0  0
  -22.4456    0.1978  -14.0328 C   0  0  0  0  0  0  0  0  0  0  0  0
  -21.5161   -0.7309  -14.5655 C   0  0  0  0  0  0  0  0  0  0  0  0
  -20.3042   -0.3401  -15.1750 C   0  0  0  0  0  0  0  0  0  0  0  0
  -19.9644    1.0030  -15.2687 C   0  0  0  0  0  0  0  0  0  0  0  0
  -20.8622    1.9096  -14.7481 C   0  0  0  0  0  0  0  0  0  0  0  0
  -22.0753    1.5440  -14.1423 C   0  0  0  0  0  0  0  0  0  0  0  0
  -22.7906    2.7965  -13.7286 C   0  0  0  0  0  0  0  0  0  0  0  0
  -21.9011    3.8465  -14.1452 N   0  0  0  0  0  0  0  0  0  0  0  0
  -20.7552    3.3726  -14.7295 C   0  0  0  0  0  0  0  0  0  0  0  0
  -19.8188    4.0275  -15.1391 O   0  0  0  0  0  0  0  0  0  0  0  0
  -22.0379    4.8326  -13.9722 H   0  0  0  0  0  0  0  0  0  0  0  0
  -28.3114   -2.5509   -9.6150 N   0  0  0  0  0  0  0  0  0  0  0  0
  -27.1567   -2.0157  -10.1670 C   0  0  0  0  0  0  0  0  0  0  0  0
  -26.1663   -1.6711   -9.5293 O   0  0  0  0  0  0  0  0  0  0  0  0
  -27.2251   -1.8388  -11.5486 N   0  0  0  0  0  0  0  0  0  0  0  0
  -29.0196   -2.8885  -10.2575 H   0  0  0  0  0  0  0  0  0  0  0  0
  -28.1323   -1.5599  -11.8900 H   0  0  0  0  0  0  0  0  0  0  0  0
  -29.2860   -3.4624   -3.9972 C   0  0  0  0  0  0  0  0  0  0  0  0
  -28.9905   -3.1978   -5.4449 C   0  0  0  0  0  0  0  0  0  0  0  0
  -29.5065   -4.0683   -6.4001 C   0  0  0  0  0  0  0  0  0  0  0  0
  -29.2744   -3.8669   -7.7581 C   0  0  0  0  0  0  0  0  0  0  0  0
  -28.5307   -2.7826   -8.2265 C   0  0  0  0  0  0  0  0  0  0  0  0
  -27.9960   -1.9021   -7.2683 C   0  0  0  0  0  0  0  0  0  0  0  0
  -28.2110   -2.0990   -5.8825 C   0  0  0  0  0  0  0  0  0  0  0  0
  -27.6128   -1.1626   -4.8666 C   0  0  0  0  0  0  0  0  0  0  0  0
 24 25  1  0  0  0
 25 26  1  0  0  0
 25 30  2  0  0  0
 26 27  2  0  0  0
 27 28  1  0  0  0
 28 18  1  0  0  0
 28 29  2  0  0  0
 18 19  1  0  0  0
 18 22  1  0  0  0
 19 20  2  0  0  0
 19 21  1  0  0  0
 21  1  1  0  0  0
 21 23  1  0  0  0
  1  2  1  0  0  0
  1  6  2  0  0  0
  2  3  2  0  0  0
  3  4  1  0  0  0
  4  7  1  0  0  0
  4  5  2  0  0  0
  7  8  1  0  0  0
  7 12  2  0  0  0
  8  9  2  0  0  0
  9 10  1  0  0  0
 10 11  2  0  0  0
 11 12  1  0  0  0
 11 15  1  0  0  0
 12 13  1  0  0  0
 13 14  1  0  0  0
 14 15  1  0  0  0
 14 17  1  0  0  0
 15 16  2  0  0  0
  5  6  1  0  0  0
 29 30  1  0  0  0
 30 31  1  0  0  0
M  END
> <minimizedAffinity>
-11.31912

$$$$
