CHEMBL457099


 38 42  0  0  0  0  0  0  0  0999 V2000
  -28.0742  -10.1919   -6.1424 C   0  0  0  0  0  0  0  0  0  0  0  0
  -29.1952   -9.3867   -5.9612 C   0  0  0  0  0  0  0  0  0  0  0  0
  -29.1047   -8.2133   -5.2242 C   0  0  0  0  0  0  0  0  0  0  0  0
  -27.9062   -7.8140   -4.6222 C   0  0  0  0  0  0  0  0  0  0  0  0
  -26.8107   -8.7262   -4.6101 C   0  0  0  0  0  0  0  0  0  0  0  0
  -25.6220   -8.5175   -3.8651 C   0  0  0  0  0  0  0  0  0  0  0  0
  -24.5694   -9.4371   -3.8763 C   0  0  0  0  0  0  0  0  0  0  0  0
  -24.6590  -10.5814   -4.6539 C   0  0  0  0  0  0  0  0  0  0  0  0
  -25.8042  -10.8138   -5.4152 C   0  0  0  0  0  0  0  0  0  0  0  0
  -26.8984   -9.9230   -5.3997 C   0  0  0  0  0  0  0  0  0  0  0  0
  -27.8106   -6.5008   -4.0507 N   0  0  0  0  0  0  0  0  0  0  0  0
  -28.0150   -5.3362   -4.7891 C   0  0  0  0  0  0  0  0  0  0  0  0
  -28.2408   -5.3263   -5.9958 O   0  0  0  0  0  0  0  0  0  0  0  0
  -27.9257   -4.1778   -4.0299 N   0  0  0  0  0  0  0  0  0  0  0  0
  -27.2824   -6.4001   -3.2014 H   0  0  0  0  0  0  0  0  0  0  0  0
  -27.3819   -4.2165   -3.1824 H   0  0  0  0  0  0  0  0  0  0  0  0
  -28.2356   -2.8829   -4.5331 C   0  0  0  0  0  0  0  0  0  0  0  0
  -27.2497   -2.0031   -5.0019 C   0  0  0  0  0  0  0  0  0  0  0  0
  -27.5716   -0.7126   -5.4274 C   0  0  0  0  0  0  0  0  0  0  0  0
  -28.8942   -0.2898   -5.4166 C   0  0  0  0  0  0  0  0  0  0  0  0
  -29.8944   -1.1676   -5.0006 C   0  0  0  0  0  0  0  0  0  0  0  0
  -29.5683   -2.4670   -4.5684 C   0  0  0  0  0  0  0  0  0  0  0  0
  -28.1243  -11.3002   -6.9869 O   0  0  0  0  0  0  0  0  0  0  0  0
  -29.3085  -11.0391   -9.0921 C   0  0  0  0  0  0  0  0  0  0  0  0
  -29.1736  -10.7381  -10.4687 C   0  0  0  0  0  0  0  0  0  0  0  0
  -27.9356  -10.4848  -11.0512 C   0  0  0  0  0  0  0  0  0  0  0  0
  -26.8223  -10.5779  -10.2505 C   0  0  0  0  0  0  0  0  0  0  0  0
  -26.8804  -10.8914   -8.9433 N   0  0  0  0  0  0  0  0  0  0  0  0
  -28.1041  -11.0723   -8.3687 C   0  0  0  0  0  0  0  0  0  0  0  0
  -32.6003  -10.1872   -7.7948 C   0  0  0  0  0  0  0  0  0  0  0  0
  -33.1365  -11.3335   -7.3677 N   0  0  0  0  0  0  0  0  0  0  0  0
  -32.4149  -12.4497   -7.5638 C   0  0  0  0  0  0  0  0  0  0  0  0
  -31.1713  -12.4659   -8.1485 C   0  0  0  0  0  0  0  0  0  0  0  0
  -30.6730  -11.2459   -8.5522 C   0  0  0  0  0  0  0  0  0  0  0  0
  -31.3971  -10.1060   -8.3761 N   0  0  0  0  0  0  0  0  0  0  0  0
  -32.6975   -7.9672   -6.8758 C   0  0  0  0  0  0  0  0  0  0  0  0
  -33.3621   -9.0536   -7.5543 N   0  0  0  0  0  0  0  0  0  0  0  0
  -34.2312   -9.3763   -7.1419 H   0  0  0  0  0  0  0  0  0  0  0  0
 36 37  1  0  0  0
 37 30  1  0  0  0
 37 38  1  0  0  0
 30 31  1  0  0  0
 30 35  2  0  0  0
 31 32  2  0  0  0
 32 33  1  0  0  0
 33 34  2  0  0  0
 34 24  1  0  0  0
 34 35  1  0  0  0
 24 25  1  0  0  0
 24 29  2  0  0  0
 25 26  2  0  0  0
 26 27  1  0  0  0
 27 28  2  0  0  0
 28 29  1  0  0  0
 29 23  1  0  0  0
 23  1  1  0  0  0
  1  2  1  0  0  0
  1 10  2  0  0  0
  2  3  2  0  0  0
  3  4  1  0  0  0
  4 11  1  0  0  0
  4  5  2  0  0  0
 11 12  1  0  0  0
 11 15  1  0  0  0
 12 13  2  0  0  0
 12 14  1  0  0  0
 14 17  1  0  0  0
 14 16  1  0  0  0
 17 18  1  0  0  0
 17 22  2  0  0  0
 18 19  2  0  0  0
 19 20  1  0  0  0
 20 21  2  0  0  0
 21 22  1  0  0  0
  5  6  1  0  0  0
  5 10  1  0  0  0
  6  7  2  0  0  0
  7  8  1  0  0  0
  8  9  2  0  0  0
  9 10  1  0  0  0
M  END
> <minimizedAffinity>
-9.38222

$$$$
