CHEMBL3895731


 30 34  0  0  0  0  0  0  0  0999 V2000
  -13.8555   -2.6863  -12.7055 C   0  0  0  0  0  0  0  0  0  0  0  0
  -15.1566   -2.2598  -12.3878 C   0  0  0  0  0  0  0  0  0  0  0  0
  -15.8072   -1.2505  -13.1050 C   0  0  0  0  0  0  0  0  0  0  0  0
  -15.1271   -0.6044  -14.1506 C   0  0  0  0  0  0  0  0  0  0  0  0
  -15.4081    0.4578  -15.0653 C   0  0  0  0  0  0  0  0  0  0  0  0
  -14.3807    0.6452  -15.9122 N   0  0  0  0  0  0  0  0  0  0  0  0
  -13.4574   -0.2424  -15.5145 N   0  0  0  0  0  0  0  0  0  0  0  0
  -13.8430   -1.0244  -14.4628 C   0  0  0  0  0  0  0  0  0  0  0  0
  -13.1865   -2.0531  -13.7755 C   0  0  0  0  0  0  0  0  0  0  0  0
  -12.5720   -0.2637  -16.0075 H   0  0  0  0  0  0  0  0  0  0  0  0
  -16.6128    1.2849  -15.1365 C   0  0  0  0  0  0  0  0  0  0  0  0
  -16.5388    2.6064  -15.5845 C   0  0  0  0  0  0  0  0  0  0  0  0
  -17.6871    3.4002  -15.6413 C   0  0  0  0  0  0  0  0  0  0  0  0
  -18.9350    2.8858  -15.2530 C   0  0  0  0  0  0  0  0  0  0  0  0
  -20.0955    3.6689  -15.2904 C   0  0  0  0  0  0  0  0  0  0  0  0
  -21.3273    3.1412  -14.8958 C   0  0  0  0  0  0  0  0  0  0  0  0
  -21.4136    1.8199  -14.4653 C   0  0  0  0  0  0  0  0  0  0  0  0
  -20.2683    1.0269  -14.4187 C   0  0  0  0  0  0  0  0  0  0  0  0
  -19.0239    1.5478  -14.8052 C   0  0  0  0  0  0  0  0  0  0  0  0
  -17.8578    0.7710  -14.7412 C   0  0  0  0  0  0  0  0  0  0  0  0
  -13.1370   -6.1373  -11.2527 C   0  0  0  0  0  0  0  0  0  0  0  0
  -13.7203   -5.0978  -11.9865 C   0  0  0  0  0  0  0  0  0  0  0  0
  -13.2156   -3.7830  -11.9428 C   0  0  0  0  0  0  0  0  0  0  0  0
  -12.0818   -3.5490  -11.1430 C   0  0  0  0  0  0  0  0  0  0  0  0
  -11.4757   -4.5764  -10.4200 C   0  0  0  0  0  0  0  0  0  0  0  0
  -12.0096   -5.8593  -10.4727 C   0  0  0  0  0  0  0  0  0  0  0  0
  -11.4267   -6.8661   -9.7511 O   0  0  0  0  0  0  0  0  0  0  0  0
  -10.6804   -6.5029   -9.2496 H   0  0  0  0  0  0  0  0  0  0  0  0
  -13.7560   -8.0830  -12.4860 C   0  0  0  0  0  0  0  0  0  0  0  0
  -13.5889   -7.4302  -11.2347 O   0  0  0  0  0  0  0  0  0  0  0  0
 29 30  1  0  0  0
 30 21  1  0  0  0
 21 22  1  0  0  0
 21 26  2  0  0  0
 22 23  2  0  0  0
 23  1  1  0  0  0
 23 24  1  0  0  0
  1  2  1  0  0  0
  1  9  2  0  0  0
  2  3  2  0  0  0
  3  4  1  0  0  0
  4  5  1  0  0  0
  4  8  2  0  0  0
  5 11  1  0  0  0
  5  6  2  0  0  0
 11 12  1  0  0  0
 11 20  2  0  0  0
 12 13  2  0  0  0
 13 14  1  0  0  0
 14 15  1  0  0  0
 14 19  2  0  0  0
 15 16  2  0  0  0
 16 17  1  0  0  0
 17 18  2  0  0  0
 18 19  1  0  0  0
 19 20  1  0  0  0
  6  7  1  0  0  0
  7  8  1  0  0  0
  7 10  1  0  0  0
  8  9  1  0  0  0
 24 25  2  0  0  0
 25 26  1  0  0  0
 26 27  1  0  0  0
 27 28  1  0  0  0
M  END
> <minimizedAffinity>
-9.31954

$$$$
