CHEMBL3917278


 42 45  0  0  0  0  0  0  0  0999 V2000
  -16.0175    0.2884  -12.8940 N   0  0  0  0  0  0  0  0  0  0  0  0
  -15.8192   -1.0818  -12.9481 C   0  0  0  0  0  0  0  0  0  0  0  0
  -15.8808   -1.7621  -13.9671 O   0  0  0  0  0  0  0  0  0  0  0  0
  -15.5729   -1.6486  -11.7044 N   0  0  0  0  0  0  0  0  0  0  0  0
  -15.7236    0.7625  -12.0519 H   0  0  0  0  0  0  0  0  0  0  0  0
  -16.0781   -1.2271  -10.9377 H   0  0  0  0  0  0  0  0  0  0  0  0
  -15.3233   -3.0449  -11.6220 C   0  0  0  0  0  0  0  0  0  0  0  0
  -16.3645   -3.9718  -11.7761 C   0  0  0  0  0  0  0  0  0  0  0  0
  -16.1450   -5.3378  -11.5895 C   0  0  0  0  0  0  0  0  0  0  0  0
  -14.8592   -5.8073  -11.3154 C   0  0  0  0  0  0  0  0  0  0  0  0
  -13.8286   -4.8766  -11.1456 C   0  0  0  0  0  0  0  0  0  0  0  0
  -12.6027   -5.2912  -10.7935 F   0  0  0  0  0  0  0  0  0  0  0  0
  -14.0436   -3.5046  -11.3190 C   0  0  0  0  0  0  0  0  0  0  0  0
  -14.5604   -7.1457  -11.1536 O   0  0  0  0  0  0  0  0  0  0  0  0
  -13.9248   -7.8200  -12.1780 C   0  0  0  0  0  0  0  0  0  0  0  0
  -12.9452   -8.7842  -11.9689 C   0  0  0  0  0  0  0  0  0  0  0  0
  -12.3355   -9.3324  -13.0720 C   0  0  0  0  0  0  0  0  0  0  0  0
  -12.6868   -9.0334  -14.3324 N   0  0  0  0  0  0  0  0  0  0  0  0
  -13.6880   -8.1628  -14.5428 C   0  0  0  0  0  0  0  0  0  0  0  0
  -14.3355   -7.5286  -13.4861 C   0  0  0  0  0  0  0  0  0  0  0  0
  -14.0898   -7.8900  -15.8627 N   0  0  0  0  0  0  0  0  0  0  0  0
  -13.3977   -7.0355  -16.7051 C   0  0  0  0  0  0  0  0  0  0  0  0
  -12.3995   -6.3870  -16.4473 O   0  0  0  0  0  0  0  0  0  0  0  0
  -14.9183   -8.3511  -16.2054 H   0  0  0  0  0  0  0  0  0  0  0  0
  -13.9890   -6.9120  -18.0779 C   0  0  0  0  0  0  0  0  0  0  0  0
  -13.6412   -7.9535  -19.1232 C   0  0  0  0  0  0  0  0  0  0  0  0
  -13.0818   -6.5649  -19.2413 C   0  0  0  0  0  0  0  0  0  0  0  0
  -18.1709    2.3125  -15.2395 C   0  0  0  0  0  0  0  0  0  0  0  0
  -17.7467    1.5043  -14.1728 C   0  0  0  0  0  0  0  0  0  0  0  0
  -16.4212    1.0961  -13.9937 C   0  0  0  0  0  0  0  0  0  0  0  0
  -15.4773    1.5130  -14.9313 C   0  0  0  0  0  0  0  0  0  0  0  0
  -15.8672    2.2991  -16.0386 C   0  0  0  0  0  0  0  0  0  0  0  0
  -17.2113    2.6970  -16.1751 C   0  0  0  0  0  0  0  0  0  0  0  0
  -20.5373    1.4695  -14.9061 C   0  0  0  0  0  0  0  0  0  0  0  0
  -19.6504    2.6548  -15.3160 C   0  0  0  0  0  0  0  0  0  0  0  0
  -20.0198    3.8220  -14.5115 N   0  0  0  0  0  0  0  0  0  0  0  0
  -19.9918    3.5630  -13.5265 H   0  0  0  0  0  0  0  0  0  0  0  0
  -20.9944    4.0504  -14.7057 H   0  0  0  0  0  0  0  0  0  0  0  0
  -14.8792    2.7077  -17.1056 C   0  0  0  0  0  0  0  0  0  0  0  0
  -15.3384    3.6985  -17.9208 F   0  0  0  0  0  0  0  0  0  0  0  0
  -13.7092    3.1697  -16.5838 F   0  0  0  0  0  0  0  0  0  0  0  0
  -14.5401    1.6768  -17.9284 F   0  0  0  0  0  0  0  0  0  0  0  0
 34 35  1  0  0  0
 35 36  1  0  0  0
 35 28  1  0  0  0
 36 37  1  0  0  0
 36 38  1  0  0  0
 28 29  1  0  0  0
 28 33  2  0  0  0
 29 30  2  0  0  0
 30  1  1  0  0  0
 30 31  1  0  0  0
  1  2  1  0  0  0
  1  5  1  0  0  0
  2  3  2  0  0  0
  2  4  1  0  0  0
  4  7  1  0  0  0
  4  6  1  0  0  0
  7  8  1  0  0  0
  7 13  2  0  0  0
  8  9  2  0  0  0
  9 10  1  0  0  0
 10 14  1  0  0  0
 10 11  2  0  0  0
 14 15  1  0  0  0
 15 16  1  0  0  0
 15 20  2  0  0  0
 16 17  2  0  0  0
 17 18  1  0  0  0
 18 19  2  0  0  0
 19 21  1  0  0  0
 19 20  1  0  0  0
 21 22  1  0  0  0
 21 24  1  0  0  0
 22 23  2  0  0  0
 22 25  1  0  0  0
 25 26  1  0  0  0
 25 27  1  0  0  0
 26 27  1  0  0  0
 11 12  1  0  0  0
 11 13  1  0  0  0
 31 32  2  0  0  0
 32 39  1  0  0  0
 32 33  1  0  0  0
 39 40  1  0  0  0
 39 41  1  0  0  0
 39 42  1  0  0  0
M  END
> <minimizedAffinity>
-9.33409

$$$$
