CHEMBL4470400


 26 29  0  0  0  0  0  0  0  0999 V2000
  -23.3623    0.2667  -13.5512 C   0  0  0  0  0  0  0  0  0  0  0  0
  -23.7856    0.2970  -12.2120 C   0  0  0  0  0  0  0  0  0  0  0  0
  -24.8184   -0.5286  -11.7532 C   0  0  0  0  0  0  0  0  0  0  0  0
  -25.4653   -1.4113  -12.6201 C   0  0  0  0  0  0  0  0  0  0  0  0
  -25.0547   -1.4550  -13.9577 C   0  0  0  0  0  0  0  0  0  0  0  0
  -24.0198   -0.6327  -14.4112 C   0  0  0  0  0  0  0  0  0  0  0  0
  -20.3167    2.9182  -14.8630 C   0  0  0  0  0  0  0  0  0  0  0  0
  -20.1059    1.5611  -15.0257 C   0  0  0  0  0  0  0  0  0  0  0  0
  -21.1090    0.6799  -14.6188 C   0  0  0  0  0  0  0  0  0  0  0  0
  -22.2962    1.1613  -14.0426 C   0  0  0  0  0  0  0  0  0  0  0  0
  -22.3892    2.5520  -13.9400 C   0  0  0  0  0  0  0  0  0  0  0  0
  -21.4441    3.4353  -14.3390 N   0  0  0  0  0  0  0  0  0  0  0  0
  -18.0931    3.0516  -15.5522 C   0  0  0  0  0  0  0  0  0  0  0  0
  -19.2925    3.7583  -15.2478 O   0  0  0  0  0  0  0  0  0  0  0  0
  -26.6093   -2.2676  -12.1350 C   0  0  0  0  0  0  0  0  0  0  0  0
  -27.1822   -1.7496  -10.9061 N   0  0  0  0  0  0  0  0  0  0  0  0
  -26.9053   -2.1268   -9.6242 C   0  0  0  0  0  0  0  0  0  0  0  0
  -27.7303   -1.3337   -8.8602 C   0  0  0  0  0  0  0  0  0  0  0  0
  -28.4097   -0.4708   -9.6820 N   0  0  0  0  0  0  0  0  0  0  0  0
  -28.0649   -0.7343  -10.9369 N   0  0  0  0  0  0  0  0  0  0  0  0
  -27.8741   -1.3802   -7.4193 C   0  0  0  0  0  0  0  0  0  0  0  0
  -27.8219   -0.1966   -6.6719 C   0  0  0  0  0  0  0  0  0  0  0  0
  -27.9774   -0.2269   -5.2835 C   0  0  0  0  0  0  0  0  0  0  0  0
  -28.1950   -1.4389   -4.6307 C   0  0  0  0  0  0  0  0  0  0  0  0
  -28.2537   -2.6225   -5.3633 C   0  0  0  0  0  0  0  0  0  0  0  0
  -28.0914   -2.5944   -6.7502 C   0  0  0  0  0  0  0  0  0  0  0  0
 13 14  1  0  0  0
 14  7  1  0  0  0
  7  8  1  0  0  0
  7 12  2  0  0  0
  8  9  2  0  0  0
  9 10  1  0  0  0
 10  1  1  0  0  0
 10 11  2  0  0  0
  1  2  1  0  0  0
  1  6  2  0  0  0
  2  3  2  0  0  0
  3  4  1  0  0  0
  4 15  1  0  0  0
  4  5  2  0  0  0
 15 16  1  0  0  0
 16 17  1  0  0  0
 16 20  1  0  0  0
 17 18  2  0  0  0
 18 21  1  0  0  0
 18 19  1  0  0  0
 21 22  1  0  0  0
 21 26  2  0  0  0
 22 23  2  0  0  0
 23 24  1  0  0  0
 24 25  2  0  0  0
 25 26  1  0  0  0
 19 20  2  0  0  0
  5  6  1  0  0  0
 11 12  1  0  0  0
M  END
> <minimizedAffinity>
-9.77740

$$$$
