CHEMBL235851


 25 27  0  0  0  0  0  0  0  0999 V2000
  -29.8323   -4.7029   -5.7654 C   0  0  0  0  0  0  0  0  0  0  0  0
  -29.3731   -3.4208   -5.4110 C   0  0  0  0  0  0  0  0  0  0  0  0
  -28.7406   -2.5759   -6.3139 C   0  0  0  0  0  0  0  0  0  0  0  0
  -28.4223   -1.3412   -5.9139 N   0  0  0  0  0  0  0  0  0  0  0  0
  -27.9126   -0.5301   -6.8418 C   0  0  0  0  0  0  0  0  0  0  0  0
  -27.6885   -0.8361   -8.1235 N   0  0  0  0  0  0  0  0  0  0  0  0
  -27.9969   -2.0880   -8.5108 C   0  0  0  0  0  0  0  0  0  0  0  0
  -28.5132   -3.0368   -7.6115 C   0  0  0  0  0  0  0  0  0  0  0  0
  -28.8619   -4.3696   -7.9366 C   0  0  0  0  0  0  0  0  0  0  0  0
  -29.5216   -5.2075   -7.0295 C   0  0  0  0  0  0  0  0  0  0  0  0
  -31.2787   -4.7069   -3.8957 C   0  0  0  0  0  0  0  0  0  0  0  0
  -30.5687   -5.4559   -4.8871 O   0  0  0  0  0  0  0  0  0  0  0  0
  -27.9131   -2.4157   -9.8836 N   0  0  0  0  0  0  0  0  0  0  0  0
  -28.4791   -3.2103  -10.1450 H   0  0  0  0  0  0  0  0  0  0  0  0
  -27.0531   -1.9173  -10.8785 C   0  0  0  0  0  0  0  0  0  0  0  0
  -25.7374   -1.5700  -10.5258 C   0  0  0  0  0  0  0  0  0  0  0  0
  -24.7975   -1.2031  -11.4975 C   0  0  0  0  0  0  0  0  0  0  0  0
  -25.1624   -1.1885  -12.8401 C   0  0  0  0  0  0  0  0  0  0  0  0
  -23.9893   -0.7967  -14.0407 Cl  0  0  0  0  0  0  0  0  0  0  0  0
  -26.4654   -1.5182  -13.2049 C   0  0  0  0  0  0  0  0  0  0  0  0
  -26.8727   -1.5388  -14.5120 O   0  0  0  0  0  0  0  0  0  0  0  0
  -27.4011   -1.8742  -12.2359 C   0  0  0  0  0  0  0  0  0  0  0  0
  -26.0919   -1.3385  -15.0601 H   0  0  0  0  0  0  0  0  0  0  0  0
  -29.7930   -6.4264   -7.5833 O   0  0  0  0  0  0  0  0  0  0  0  0
  -28.7356   -7.2551   -8.0367 C   0  0  0  0  0  0  0  0  0  0  0  0
 11 12  1  0  0  0
 12  1  1  0  0  0
  1  2  1  0  0  0
  1 10  2  0  0  0
  2  3  2  0  0  0
  3  4  1  0  0  0
  3  8  1  0  0  0
  4  5  2  0  0  0
  5  6  1  0  0  0
  6  7  2  0  0  0
  7 13  1  0  0  0
  7  8  1  0  0  0
 13 15  1  0  0  0
 13 14  1  0  0  0
 15 16  1  0  0  0
 15 22  2  0  0  0
 16 17  2  0  0  0
 17 18  1  0  0  0
 18 19  1  0  0  0
 18 20  2  0  0  0
 20 21  1  0  0  0
 20 22  1  0  0  0
 21 23  1  0  0  0
  8  9  2  0  0  0
  9 10  1  0  0  0
 10 24  1  0  0  0
 24 25  1  0  0  0
M  END
> <minimizedAffinity>
-8.22824

$$$$
