CHEMBL2006715


 46 52  0  0  0  0  0  0  0  0999 V2000
  -29.9553   -9.1943   -8.0902 C   0  0  0  0  0  0  0  0  0  0  0  0
  -29.7201   -8.9658   -9.4402 N   0  0  0  0  0  0  0  0  0  0  0  0
  -29.1650  -10.0699   -9.8370 C   0  0  0  0  0  0  0  0  0  0  0  0
  -28.5091  -10.6177  -11.3493 S   0  0  0  0  0  0  0  0  0  0  0  0
  -28.0539  -12.1312  -10.5621 C   0  0  0  0  0  0  0  0  0  0  0  0
  -28.4078  -12.1744   -9.2670 C   0  0  0  0  0  0  0  0  0  0  0  0
  -29.0263  -11.0061   -8.8578 N   0  0  0  0  0  0  0  0  0  0  0  0
  -29.5640  -10.4843   -7.6977 C   0  0  0  0  0  0  0  0  0  0  0  0
  -30.5433   -5.8410   -6.4380 C   0  0  0  0  0  0  0  0  0  0  0  0
  -31.6765   -6.1380   -5.6789 C   0  0  0  0  0  0  0  0  0  0  0  0
  -32.2282   -7.4194   -5.6969 C   0  0  0  0  0  0  0  0  0  0  0  0
  -31.6452   -8.4190   -6.4715 C   0  0  0  0  0  0  0  0  0  0  0  0
  -30.5162   -8.1420   -7.2520 C   0  0  0  0  0  0  0  0  0  0  0  0
  -29.9922   -6.8415   -7.2462 C   0  0  0  0  0  0  0  0  0  0  0  0
  -28.1810   -4.9414   -4.9422 O   0  0  0  0  0  0  0  0  0  0  0  0
  -28.8143   -4.2104   -5.6969 C   0  0  0  0  0  0  0  0  0  0  0  0
  -29.9202   -4.5745   -6.4451 N   0  0  0  0  0  0  0  0  0  0  0  0
  -30.2832   -3.9020   -7.1112 H   0  0  0  0  0  0  0  0  0  0  0  0
  -28.3490   -2.8192   -5.8557 C   0  0  0  0  0  0  0  0  0  0  0  0
  -28.2350   -2.0040   -4.7283 C   0  0  0  0  0  0  0  0  0  0  0  0
  -28.4397   -2.4861   -3.4941 F   0  0  0  0  0  0  0  0  0  0  0  0
  -27.8711   -0.6624   -4.8459 C   0  0  0  0  0  0  0  0  0  0  0  0
  -27.6169   -0.1200   -6.1052 C   0  0  0  0  0  0  0  0  0  0  0  0
  -27.7185   -0.9267   -7.2381 C   0  0  0  0  0  0  0  0  0  0  0  0
  -28.0805   -2.2680   -7.1071 C   0  0  0  0  0  0  0  0  0  0  0  0
  -28.1726   -3.0095   -8.2208 F   0  0  0  0  0  0  0  0  0  0  0  0
  -29.6903  -11.2119   -6.4403 C   0  0  0  0  0  0  0  0  0  0  0  0
  -30.8381  -11.8852   -6.0802 C   0  0  0  0  0  0  0  0  0  0  0  0
  -30.8241  -12.4656   -4.8428 C   0  0  0  0  0  0  0  0  0  0  0  0
  -29.7539  -12.4334   -4.0401 N   0  0  0  0  0  0  0  0  0  0  0  0
  -28.6604  -11.7901   -4.4717 C   0  0  0  0  0  0  0  0  0  0  0  0
  -28.5934  -11.1694   -5.6548 N   0  0  0  0  0  0  0  0  0  0  0  0
  -27.5365  -11.7430   -3.6413 N   0  0  0  0  0  0  0  0  0  0  0  0
  -27.3438  -12.6634   -3.2685 H   0  0  0  0  0  0  0  0  0  0  0  0
  -26.3865  -10.9662   -3.9036 C   0  0  0  0  0  0  0  0  0  0  0  0
  -26.2565   -9.6644   -3.4046 C   0  0  0  0  0  0  0  0  0  0  0  0
  -25.0929   -8.9319   -3.6250 C   0  0  0  0  0  0  0  0  0  0  0  0
  -24.0489   -9.5013   -4.3415 C   0  0  0  0  0  0  0  0  0  0  0  0
  -24.1447  -10.7953   -4.8668 C   0  0  0  0  0  0  0  0  0  0  0  0
  -25.3414  -11.5091   -4.6630 C   0  0  0  0  0  0  0  0  0  0  0  0
  -23.0487  -11.3894   -5.5485 N   0  0  0  0  0  0  0  0  0  0  0  0
  -22.9274  -11.3892   -6.9875 C   0  0  0  0  0  0  0  0  0  0  0  0
  -21.9006  -12.4657   -7.2720 C   0  0  0  0  0  0  0  0  0  0  0  0
  -21.0072  -12.4415   -6.0480 C   0  0  0  0  0  0  0  0  0  0  0  0
  -21.9322  -11.9910   -4.9490 C   0  0  0  0  0  0  0  0  0  0  0  0
  -21.6543  -12.1130   -3.7654 O   0  0  0  0  0  0  0  0  0  0  0  0
 15 16  2  0  0  0
 16 17  1  0  0  0
 16 19  1  0  0  0
 17  9  1  0  0  0
 17 18  1  0  0  0
  9 10  1  0  0  0
  9 14  2  0  0  0
 10 11  2  0  0  0
 11 12  1  0  0  0
 12 13  2  0  0  0
 13  1  1  0  0  0
 13 14  1  0  0  0
  1  2  1  0  0  0
  1  8  2  0  0  0
  2  3  2  0  0  0
  3  4  1  0  0  0
  3  7  1  0  0  0
  4  5  1  0  0  0
  5  6  2  0  0  0
  6  7  1  0  0  0
  7  8  1  0  0  0
  8 27  1  0  0  0
 27 28  1  0  0  0
 27 32  2  0  0  0
 28 29  2  0  0  0
 29 30  1  0  0  0
 30 31  2  0  0  0
 31 33  1  0  0  0
 31 32  1  0  0  0
 33 35  1  0  0  0
 33 34  1  0  0  0
 35 36  1  0  0  0
 35 40  2  0  0  0
 36 37  2  0  0  0
 37 38  1  0  0  0
 38 39  2  0  0  0
 39 41  1  0  0  0
 39 40  1  0  0  0
 41 42  1  0  0  0
 41 45  1  0  0  0
 42 43  1  0  0  0
 43 44  1  0  0  0
 44 45  1  0  0  0
 45 46  2  0  0  0
 19 20  1  0  0  0
 19 25  2  0  0  0
 20 21  1  0  0  0
 20 22  2  0  0  0
 22 23  1  0  0  0
 23 24  2  0  0  0
 24 25  1  0  0  0
 25 26  1  0  0  0
M  END
> <minimizedAffinity>
-8.45460

$$$$
