CHEMBL3690535


 34 37  0  0  0  0  0  0  0  0999 V2000
  -23.5355    0.0585  -13.4148 C   0  0  0  0  0  0  0  0  0  0  0  0
  -22.3266   -0.6528  -13.8294 C   0  0  0  0  0  0  0  0  0  0  0  0
  -21.2527    0.0403  -14.2448 C   0  0  0  0  0  0  0  0  0  0  0  0
  -21.2913    1.4379  -14.2615 N   0  0  0  0  0  0  0  0  0  0  0  0
  -20.3246    2.3825  -14.5954 C   0  0  0  0  0  0  0  0  0  0  0  0
  -20.9937    3.5943  -14.4673 C   0  0  0  0  0  0  0  0  0  0  0  0
  -22.2851    3.4418  -14.0523 N   0  0  0  0  0  0  0  0  0  0  0  0
  -22.4447    2.1466  -13.9148 C   0  0  0  0  0  0  0  0  0  0  0  0
  -23.5804    1.4075  -13.4777 C   0  0  0  0  0  0  0  0  0  0  0  0
  -26.0921   -1.4133  -11.1791 C   0  0  0  0  0  0  0  0  0  0  0  0
  -24.9474   -0.7431  -11.5318 C   0  0  0  0  0  0  0  0  0  0  0  0
  -24.7171   -0.6415  -12.8839 C   0  0  0  0  0  0  0  0  0  0  0  0
  -25.5501   -1.1518  -13.8149 N   0  0  0  0  0  0  0  0  0  0  0  0
  -26.6291   -1.7850  -13.3515 C   0  0  0  0  0  0  0  0  0  0  0  0
  -26.9564   -1.9420  -12.0625 N   0  0  0  0  0  0  0  0  0  0  0  0
  -27.6890   -1.9023   -9.5358 C   0  0  0  0  0  0  0  0  0  0  0  0
  -26.3388   -1.5456   -9.8239 O   0  0  0  0  0  0  0  0  0  0  0  0
  -18.9369    2.1548  -15.0322 C   0  0  0  0  0  0  0  0  0  0  0  0
  -18.3048    3.1546  -15.7874 C   0  0  0  0  0  0  0  0  0  0  0  0
  -16.9878    3.0095  -16.2108 C   0  0  0  0  0  0  0  0  0  0  0  0
  -16.2750    1.8596  -15.8850 C   0  0  0  0  0  0  0  0  0  0  0  0
  -16.8555    0.8555  -15.1093 C   0  0  0  0  0  0  0  0  0  0  0  0
  -18.1885    1.0136  -14.6848 C   0  0  0  0  0  0  0  0  0  0  0  0
  -16.1595   -0.3223  -14.7314 N   0  0  0  0  0  0  0  0  0  0  0  0
  -15.7469   -0.6527  -13.4583 C   0  0  0  0  0  0  0  0  0  0  0  0
  -15.9340   -0.0124  -12.4310 O   0  0  0  0  0  0  0  0  0  0  0  0
  -15.0191   -1.8203  -13.4243 N   0  0  0  0  0  0  0  0  0  0  0  0
  -15.9498   -0.9817  -15.4637 H   0  0  0  0  0  0  0  0  0  0  0  0
  -15.2517   -2.5234  -14.1120 H   0  0  0  0  0  0  0  0  0  0  0  0
  -14.5505   -2.3023  -12.1174 C   0  0  0  0  0  0  0  0  0  0  0  0
  -15.5586   -3.1315  -11.3032 C   0  0  0  0  0  0  0  0  0  0  0  0
  -14.9815   -4.2102  -10.7285 F   0  0  0  0  0  0  0  0  0  0  0  0
  -16.0644   -2.3761  -10.2944 F   0  0  0  0  0  0  0  0  0  0  0  0
  -16.6018   -3.5530  -12.0467 F   0  0  0  0  0  0  0  0  0  0  0  0
 16 17  1  0  0  0
 17 10  1  0  0  0
 10 11  1  0  0  0
 10 15  2  0  0  0
 11 12  2  0  0  0
 12  1  1  0  0  0
 12 13  1  0  0  0
  1  2  1  0  0  0
  1  9  2  0  0  0
  2  3  2  0  0  0
  3  4  1  0  0  0
  4  5  1  0  0  0
  4  8  1  0  0  0
  5 18  1  0  0  0
  5  6  2  0  0  0
 18 19  1  0  0  0
 18 23  2  0  0  0
 19 20  2  0  0  0
 20 21  1  0  0  0
 21 22  2  0  0  0
 22 24  1  0  0  0
 22 23  1  0  0  0
 24 25  1  0  0  0
 24 28  1  0  0  0
 25 26  2  0  0  0
 25 27  1  0  0  0
 27 30  1  0  0  0
 27 29  1  0  0  0
 30 31  1  0  0  0
 31 32  1  0  0  0
 31 33  1  0  0  0
 31 34  1  0  0  0
  6  7  1  0  0  0
  7  8  2  0  0  0
  8  9  1  0  0  0
 13 14  2  0  0  0
 14 15  1  0  0  0
M  END
> <minimizedAffinity>
-10.56892

$$$$
