CHEMBL3694647


 37 40  0  0  0  0  0  0  0  0999 V2000
  -20.6364    2.3597  -14.5774 C   0  0  0  0  0  0  0  0  0  0  0  0
  -21.3220    3.5624  -14.4565 C   0  0  0  0  0  0  0  0  0  0  0  0
  -22.5880    3.3979  -13.9773 N   0  0  0  0  0  0  0  0  0  0  0  0
  -22.7086    2.1065  -13.7807 C   0  0  0  0  0  0  0  0  0  0  0  0
  -23.8059    1.3724  -13.2516 C   0  0  0  0  0  0  0  0  0  0  0  0
  -23.7295    0.0346  -13.0561 C   0  0  0  0  0  0  0  0  0  0  0  0
  -22.5014   -0.6638  -13.4710 C   0  0  0  0  0  0  0  0  0  0  0  0
  -21.4562    0.0257  -13.9630 C   0  0  0  0  0  0  0  0  0  0  0  0
  -21.5503    1.4103  -14.1231 N   0  0  0  0  0  0  0  0  0  0  0  0
  -17.1882    0.8299  -15.1575 C   0  0  0  0  0  0  0  0  0  0  0  0
  -16.5793    1.8651  -15.8654 C   0  0  0  0  0  0  0  0  0  0  0  0
  -17.2863    3.0293  -16.1250 C   0  0  0  0  0  0  0  0  0  0  0  0
  -16.7006    4.0175  -16.8139 F   0  0  0  0  0  0  0  0  0  0  0  0
  -18.5931    3.1891  -15.6864 C   0  0  0  0  0  0  0  0  0  0  0  0
  -19.2424    2.1568  -14.9956 C   0  0  0  0  0  0  0  0  0  0  0  0
  -18.5339    0.9639  -14.7687 C   0  0  0  0  0  0  0  0  0  0  0  0
  -16.0100    0.0582  -12.5644 O   0  0  0  0  0  0  0  0  0  0  0  0
  -15.9689   -0.6418  -13.5658 C   0  0  0  0  0  0  0  0  0  0  0  0
  -15.3841   -1.8906  -13.5481 N   0  0  0  0  0  0  0  0  0  0  0  0
  -16.5092   -0.3578  -14.8022 N   0  0  0  0  0  0  0  0  0  0  0  0
  -14.9725   -2.1864  -14.4225 H   0  0  0  0  0  0  0  0  0  0  0  0
  -16.6074   -1.1457  -15.4248 H   0  0  0  0  0  0  0  0  0  0  0  0
  -14.6821   -2.3173  -12.3306 C   0  0  0  0  0  0  0  0  0  0  0  0
  -15.5385   -3.0959  -11.3215 C   0  0  0  0  0  0  0  0  0  0  0  0
  -14.8513   -4.1183  -10.7603 F   0  0  0  0  0  0  0  0  0  0  0  0
  -16.0108   -2.3116  -10.3321 F   0  0  0  0  0  0  0  0  0  0  0  0
  -16.6073   -3.6452  -11.9510 F   0  0  0  0  0  0  0  0  0  0  0  0
  -24.8808   -0.6830  -12.4386 C   0  0  0  0  0  0  0  0  0  0  0  0
  -24.8933   -1.0363  -11.1015 C   0  0  0  0  0  0  0  0  0  0  0  0
  -26.0023   -1.7117  -10.6554 C   0  0  0  0  0  0  0  0  0  0  0  0
  -27.0342   -2.0421  -11.4451 N   0  0  0  0  0  0  0  0  0  0  0  0
  -26.9508   -1.6878  -12.7527 C   0  0  0  0  0  0  0  0  0  0  0  0
  -25.8913   -1.0146  -13.2742 N   0  0  0  0  0  0  0  0  0  0  0  0
  -28.1039   -2.0712  -13.6861 C   0  0  0  0  0  0  0  0  0  0  0  0
  -28.3101   -3.4194  -13.7934 F   0  0  0  0  0  0  0  0  0  0  0  0
  -29.3067   -1.5534  -13.2920 F   0  0  0  0  0  0  0  0  0  0  0  0
  -27.9186   -1.6336  -14.9690 F   0  0  0  0  0  0  0  0  0  0  0  0
 17 18  2  0  0  0
 18 19  1  0  0  0
 18 20  1  0  0  0
 19 23  1  0  0  0
 19 21  1  0  0  0
 23 24  1  0  0  0
 24 25  1  0  0  0
 24 26  1  0  0  0
 24 27  1  0  0  0
 20 10  1  0  0  0
 20 22  1  0  0  0
 10 11  1  0  0  0
 10 16  2  0  0  0
 11 12  2  0  0  0
 12 13  1  0  0  0
 12 14  1  0  0  0
 14 15  2  0  0  0
 15  1  1  0  0  0
 15 16  1  0  0  0
  1  2  2  0  0  0
  1  9  1  0  0  0
  2  3  1  0  0  0
  3  4  2  0  0  0
  4  5  1  0  0  0
  4  9  1  0  0  0
  5  6  2  0  0  0
  6 28  1  0  0  0
  6  7  1  0  0  0
 28 29  1  0  0  0
 28 33  2  0  0  0
 29 30  2  0  0  0
 30 31  1  0  0  0
 31 32  2  0  0  0
 32 34  1  0  0  0
 32 33  1  0  0  0
 34 35  1  0  0  0
 34 36  1  0  0  0
 34 37  1  0  0  0
  7  8  2  0  0  0
  8  9  1  0  0  0
M  END
> <minimizedAffinity>
-10.52820

$$$$
