CHEMBL462382


 32 36  0  0  0  0  0  0  0  0999 V2000
  -14.0153   -0.2980  -13.6690 C   0  0  0  0  0  0  0  0  0  0  0  0
  -15.3303   -0.7500  -13.5420 C   0  0  0  0  0  0  0  0  0  0  0  0
  -16.4053   -0.0503  -14.1289 C   0  0  0  0  0  0  0  0  0  0  0  0
  -16.1511    1.1475  -14.8339 C   0  0  0  0  0  0  0  0  0  0  0  0
  -16.9198    2.1501  -15.5175 C   0  0  0  0  0  0  0  0  0  0  0  0
  -16.1287    3.1110  -15.9938 N   0  0  0  0  0  0  0  0  0  0  0  0
  -14.8994    2.7778  -15.5934 N   0  0  0  0  0  0  0  0  0  0  0  0
  -13.8188    3.7140  -15.7833 C   0  0  0  0  0  0  0  0  0  0  0  0
  -14.8319    1.5853  -14.9229 C   0  0  0  0  0  0  0  0  0  0  0  0
  -13.7491    0.8936  -14.3565 C   0  0  0  0  0  0  0  0  0  0  0  0
  -18.2984    2.1532  -15.6546 N   0  0  0  0  0  0  0  0  0  0  0  0
  -19.1642    2.8474  -14.8322 C   0  0  0  0  0  0  0  0  0  0  0  0
  -18.8868    3.5602  -13.8845 O   0  0  0  0  0  0  0  0  0  0  0  0
  -18.6656    1.5970  -16.4109 H   0  0  0  0  0  0  0  0  0  0  0  0
  -20.6213    2.7005  -15.1570 C   0  0  0  0  0  0  0  0  0  0  0  0
  -21.7879    3.0284  -14.2598 C   0  0  0  0  0  0  0  0  0  0  0  0
  -21.4147    1.5934  -14.4999 C   0  0  0  0  0  0  0  0  0  0  0  0
  -13.0214   -1.0414  -13.0379 O   0  0  0  0  0  0  0  0  0  0  0  0
  -13.6381   -5.9911  -11.7434 C   0  0  0  0  0  0  0  0  0  0  0  0
  -12.8326   -5.8760  -12.8821 C   0  0  0  0  0  0  0  0  0  0  0  0
  -12.5418   -4.6607  -13.4789 C   0  0  0  0  0  0  0  0  0  0  0  0
  -11.8294   -4.7076  -14.6134 N   0  0  0  0  0  0  0  0  0  0  0  0
  -11.5955   -3.5600  -15.2686 C   0  0  0  0  0  0  0  0  0  0  0  0
  -12.0107   -2.3303  -14.8141 C   0  0  0  0  0  0  0  0  0  0  0  0
  -12.6684   -2.2681  -13.5819 C   0  0  0  0  0  0  0  0  0  0  0  0
  -13.0148   -3.4674  -12.9011 C   0  0  0  0  0  0  0  0  0  0  0  0
  -13.7887   -3.5736  -11.7126 C   0  0  0  0  0  0  0  0  0  0  0  0
  -14.0779   -4.8198  -11.1183 C   0  0  0  0  0  0  0  0  0  0  0  0
  -13.6291   -8.3371  -12.0481 C   0  0  0  0  0  0  0  0  0  0  0  0
  -14.0309   -7.2135  -11.2548 O   0  0  0  0  0  0  0  0  0  0  0  0
  -14.8762   -4.7402  -10.0079 O   0  0  0  0  0  0  0  0  0  0  0  0
  -14.9448   -3.4798   -9.3432 C   0  0  0  0  0  0  0  0  0  0  0  0
 29 30  1  0  0  0
 30 19  1  0  0  0
 19 20  1  0  0  0
 19 28  2  0  0  0
 20 21  2  0  0  0
 21 22  1  0  0  0
 21 26  1  0  0  0
 22 23  2  0  0  0
 23 24  1  0  0  0
 24 25  2  0  0  0
 25 18  1  0  0  0
 25 26  1  0  0  0
 18  1  1  0  0  0
  1  2  1  0  0  0
  1 10  2  0  0  0
  2  3  2  0  0  0
  3  4  1  0  0  0
  4  5  1  0  0  0
  4  9  2  0  0  0
  5 11  1  0  0  0
  5  6  2  0  0  0
 11 12  1  0  0  0
 11 14  1  0  0  0
 12 13  2  0  0  0
 12 15  1  0  0  0
 15 16  1  0  0  0
 15 17  1  0  0  0
 16 17  1  0  0  0
  6  7  1  0  0  0
  7  8  1  0  0  0
  7  9  1  0  0  0
  9 10  1  0  0  0
 26 27  2  0  0  0
 27 28  1  0  0  0
 28 31  1  0  0  0
 31 32  1  0  0  0
M  END
> <minimizedAffinity>
-7.47978

$$$$
