CHEMBL4438418


 34 37  0  0  0  0  0  0  0  0999 V2000
  -28.0984   -2.9842   -6.1160 C   0  0  0  0  0  0  0  0  0  0  0  0
  -27.7178   -1.8734   -5.3904 C   0  0  0  0  0  0  0  0  0  0  0  0
  -27.4500   -0.7332   -6.1119 C   0  0  0  0  0  0  0  0  0  0  0  0
  -27.5767   -0.6542   -7.4453 N   0  0  0  0  0  0  0  0  0  0  0  0
  -28.0137   -1.7605   -8.0605 C   0  0  0  0  0  0  0  0  0  0  0  0
  -28.2630   -2.9278   -7.4482 N   0  0  0  0  0  0  0  0  0  0  0  0
  -28.4182   -4.1847   -5.4286 N   0  0  0  0  0  0  0  0  0  0  0  0
  -27.5580   -4.6590   -5.1625 H   0  0  0  0  0  0  0  0  0  0  0  0
  -30.9283   -7.3094   -6.7856 C   0  0  0  0  0  0  0  0  0  0  0  0
  -29.8668   -6.8743   -7.5857 C   0  0  0  0  0  0  0  0  0  0  0  0
  -29.0604   -5.8179   -7.1606 C   0  0  0  0  0  0  0  0  0  0  0  0
  -29.3037   -5.1694   -5.9416 C   0  0  0  0  0  0  0  0  0  0  0  0
  -30.3404   -5.6407   -5.1269 C   0  0  0  0  0  0  0  0  0  0  0  0
  -31.1565   -6.6973   -5.5443 C   0  0  0  0  0  0  0  0  0  0  0  0
  -31.4263   -9.1271   -8.2323 O   0  0  0  0  0  0  0  0  0  0  0  0
  -31.7331   -8.4554   -7.2638 C   0  0  0  0  0  0  0  0  0  0  0  0
  -32.8662   -8.6555   -6.5559 O   0  0  0  0  0  0  0  0  0  0  0  0
  -33.0801   -7.9469   -5.9223 H   0  0  0  0  0  0  0  0  0  0  0  0
  -28.2340   -1.6901   -9.8204 S   0  0  0  0  0  0  0  0  0  0  0  0
  -26.4831   -1.6226  -10.3285 C   0  0  0  0  0  0  0  0  0  0  0  0
  -26.3256   -1.6983  -11.8388 C   0  0  0  0  0  0  0  0  0  0  0  0
  -27.1371   -2.2800  -12.5614 O   0  0  0  0  0  0  0  0  0  0  0  0
  -25.1823   -0.9889  -12.4972 C   0  0  0  0  0  0  0  0  0  0  0  0
  -24.6698   -1.3313  -13.7506 C   0  0  0  0  0  0  0  0  0  0  0  0
  -23.5811   -0.6218  -14.2911 C   0  0  0  0  0  0  0  0  0  0  0  0
  -22.9784    0.4513  -13.6075 C   0  0  0  0  0  0  0  0  0  0  0  0
  -23.5132    0.7758  -12.3493 C   0  0  0  0  0  0  0  0  0  0  0  0
  -24.5867    0.0663  -11.7994 C   0  0  0  0  0  0  0  0  0  0  0  0
  -21.8380    1.2168  -14.1738 C   0  0  0  0  0  0  0  0  0  0  0  0
  -21.8050    2.6234  -14.1595 C   0  0  0  0  0  0  0  0  0  0  0  0
  -20.7092    3.3364  -14.6624 C   0  0  0  0  0  0  0  0  0  0  0  0
  -19.6124    2.6581  -15.1842 C   0  0  0  0  0  0  0  0  0  0  0  0
  -19.6185    1.2692  -15.2194 C   0  0  0  0  0  0  0  0  0  0  0  0
  -20.7214    0.5615  -14.7303 C   0  0  0  0  0  0  0  0  0  0  0  0
 15 16  2  0  0  0
 16 17  1  0  0  0
 16  9  1  0  0  0
 17 18  1  0  0  0
  9 10  1  0  0  0
  9 14  2  0  0  0
 10 11  2  0  0  0
 11 12  1  0  0  0
 12  7  1  0  0  0
 12 13  2  0  0  0
  7  1  1  0  0  0
  7  8  1  0  0  0
  1  2  1  0  0  0
  1  6  2  0  0  0
  2  3  2  0  0  0
  3  4  1  0  0  0
  4  5  2  0  0  0
  5 19  1  0  0  0
  5  6  1  0  0  0
 19 20  1  0  0  0
 20 21  1  0  0  0
 21 22  2  0  0  0
 21 23  1  0  0  0
 23 24  1  0  0  0
 23 28  2  0  0  0
 24 25  2  0  0  0
 25 26  1  0  0  0
 26 29  1  0  0  0
 26 27  2  0  0  0
 29 30  1  0  0  0
 29 34  2  0  0  0
 30 31  2  0  0  0
 31 32  1  0  0  0
 32 33  2  0  0  0
 33 34  1  0  0  0
 27 28  1  0  0  0
 13 14  1  0  0  0
M  END
> <minimizedAffinity>
-10.72544

$$$$
