CHEMBL205097


 25 28  0  0  0  0  0  0  0  0999 V2000
  -28.8762   -5.2529   -6.8254 C   0  0  0  0  0  0  0  0  0  0  0  0
  -28.6816   -5.0201   -5.5175 C   0  0  0  0  0  0  0  0  0  0  0  0
  -28.5099   -5.9614   -4.3829 C   0  0  0  0  0  0  0  0  0  0  0  0
  -28.3123   -7.1593   -4.3743 O   0  0  0  0  0  0  0  0  0  0  0  0
  -28.6068   -5.1320   -3.2741 N   0  0  0  0  0  0  0  0  0  0  0  0
  -28.6751   -3.7861   -3.5460 N   0  0  0  0  0  0  0  0  0  0  0  0
  -28.6760   -3.6855   -4.8548 C   0  0  0  0  0  0  0  0  0  0  0  0
  -28.4956   -5.4663   -2.3244 H   0  0  0  0  0  0  0  0  0  0  0  0
  -27.6787   -9.0505   -9.7522 C   0  0  0  0  0  0  0  0  0  0  0  0
  -28.4224   -8.2127   -8.8387 N   0  0  0  0  0  0  0  0  0  0  0  0
  -27.9376   -7.0615   -8.2807 C   0  0  0  0  0  0  0  0  0  0  0  0
  -28.9439   -6.4844   -7.5446 C   0  0  0  0  0  0  0  0  0  0  0  0
  -30.0580   -7.3855   -7.5684 C   0  0  0  0  0  0  0  0  0  0  0  0
  -31.3365   -7.3919   -6.9685 C   0  0  0  0  0  0  0  0  0  0  0  0
  -32.2049   -8.4504   -7.2342 C   0  0  0  0  0  0  0  0  0  0  0  0
  -33.4162   -8.4595   -6.6609 F   0  0  0  0  0  0  0  0  0  0  0  0
  -31.8482   -9.4923   -8.0777 C   0  0  0  0  0  0  0  0  0  0  0  0
  -30.5893   -9.5134   -8.6819 C   0  0  0  0  0  0  0  0  0  0  0  0
  -29.7093   -8.4530   -8.4052 C   0  0  0  0  0  0  0  0  0  0  0  0
  -28.6362   -2.4021   -5.5664 C   0  0  0  0  0  0  0  0  0  0  0  0
  -29.4919   -1.3730   -5.2059 C   0  0  0  0  0  0  0  0  0  0  0  0
  -29.4714   -0.1638   -5.8252 N   0  0  0  0  0  0  0  0  0  0  0  0
  -28.5402   -0.0225   -6.7970 C   0  0  0  0  0  0  0  0  0  0  0  0
  -27.6674   -1.0414   -7.1381 C   0  0  0  0  0  0  0  0  0  0  0  0
  -27.6959   -2.2508   -6.5344 N   0  0  0  0  0  0  0  0  0  0  0  0
  9 10  1  0  0  0
 10 11  1  0  0  0
 10 19  1  0  0  0
 11 12  2  0  0  0
 12  1  1  0  0  0
 12 13  1  0  0  0
  1  2  2  0  0  0
  2  3  1  0  0  0
  2  7  1  0  0  0
  3  4  2  0  0  0
  3  5  1  0  0  0
  5  6  1  0  0  0
  5  8  1  0  0  0
  6  7  2  0  0  0
  7 20  1  0  0  0
 20 21  1  0  0  0
 20 25  2  0  0  0
 21 22  2  0  0  0
 22 23  1  0  0  0
 23 24  2  0  0  0
 24 25  1  0  0  0
 13 14  1  0  0  0
 13 19  2  0  0  0
 14 15  2  0  0  0
 15 16  1  0  0  0
 15 17  1  0  0  0
 17 18  2  0  0  0
 18 19  1  0  0  0
M  END
> <minimizedAffinity>
-8.63574

$$$$
