CHEMBL371551


 32 34  0  0  0  0  0  0  0  0999 V2000
  -29.6061   -8.1916   -5.9780 C   0  0  0  0  0  0  0  0  0  0  0  0
  -30.2862   -7.9210   -7.1129 N   0  0  0  0  0  0  0  0  0  0  0  0
  -29.7570   -8.3617   -8.2499 C   0  0  0  0  0  0  0  0  0  0  0  0
  -28.6129   -9.0552   -8.3856 N   0  0  0  0  0  0  0  0  0  0  0  0
  -27.9370   -9.3240   -7.2604 C   0  0  0  0  0  0  0  0  0  0  0  0
  -26.7213  -10.0162   -7.3010 C   0  0  0  0  0  0  0  0  0  0  0  0
  -25.9582  -10.3699   -6.1529 C   0  0  0  0  0  0  0  0  0  0  0  0
  -26.4494   -9.9997   -4.8923 C   0  0  0  0  0  0  0  0  0  0  0  0
  -27.6673   -9.3054   -4.8684 C   0  0  0  0  0  0  0  0  0  0  0  0
  -28.4045   -8.9329   -6.0112 C   0  0  0  0  0  0  0  0  0  0  0  0
  -30.0589   -7.6435   -4.7489 N   0  0  0  0  0  0  0  0  0  0  0  0
  -31.0324   -7.8536   -4.5662 H   0  0  0  0  0  0  0  0  0  0  0  0
  -29.5702   -3.4359   -3.9240 C   0  0  0  0  0  0  0  0  0  0  0  0
  -30.7748   -4.0092   -3.9028 C   0  0  0  0  0  0  0  0  0  0  0  0
  -30.9726   -5.4690   -4.0124 C   0  0  0  0  0  0  0  0  0  0  0  0
  -32.0839   -5.9485   -3.8082 O   0  0  0  0  0  0  0  0  0  0  0  0
  -29.8023   -6.3114   -4.4018 C   0  0  0  0  0  0  0  0  0  0  0  0
  -28.5894   -5.7298   -4.3753 C   0  0  0  0  0  0  0  0  0  0  0  0
  -28.3711   -4.3079   -4.0935 C   0  0  0  0  0  0  0  0  0  0  0  0
  -27.2344   -3.8695   -4.0388 O   0  0  0  0  0  0  0  0  0  0  0  0
  -29.3272   -2.0755   -3.7832 O   0  0  0  0  0  0  0  0  0  0  0  0
  -29.4262   -1.2975   -4.9785 C   0  0  0  0  0  0  0  0  0  0  0  0
  -28.3749   -0.2032   -4.9613 C   0  0  0  0  0  0  0  0  0  0  0  0
  -30.2800    0.9637   -5.6907 C   0  0  0  0  0  0  0  0  0  0  0  0
  -29.0308    1.0626   -5.0207 O   0  0  0  0  0  0  0  0  0  0  0  0
  -26.0816  -10.1172   -3.5976 O   0  0  0  0  0  0  0  0  0  0  0  0
  -24.9960  -10.7346   -2.9590 C   0  0  0  0  0  0  0  0  0  0  0  0
  -24.8359  -11.0628   -6.5226 O   0  0  0  0  0  0  0  0  0  0  0  0
  -23.6142  -10.3489   -6.4251 C   0  0  0  0  0  0  0  0  0  0  0  0
  -22.5173  -11.0285   -5.6001 C   0  0  0  0  0  0  0  0  0  0  0  0
  -21.4248  -11.2790   -6.4756 O   0  0  0  0  0  0  0  0  0  0  0  0
  -21.0553  -10.1541   -7.2523 C   0  0  0  0  0  0  0  0  0  0  0  0
 24 25  1  0  0  0
 25 23  1  0  0  0
 23 22  1  0  0  0
 22 21  1  0  0  0
 21 13  1  0  0  0
 13 14  2  0  0  0
 13 19  1  0  0  0
 14 15  1  0  0  0
 15 16  2  0  0  0
 15 17  1  0  0  0
 17 11  1  0  0  0
 17 18  2  0  0  0
 11  1  1  0  0  0
 11 12  1  0  0  0
  1  2  1  0  0  0
  1 10  2  0  0  0
  2  3  2  0  0  0
  3  4  1  0  0  0
  4  5  2  0  0  0
  5  6  1  0  0  0
  5 10  1  0  0  0
  6  7  2  0  0  0
  7 28  1  0  0  0
  7  8  1  0  0  0
 28 29  1  0  0  0
 29 30  1  0  0  0
 30 31  1  0  0  0
 31 32  1  0  0  0
  8 26  1  0  0  0
  8  9  2  0  0  0
 26 27  1  0  0  0
  9 10  1  0  0  0
 18 19  1  0  0  0
 19 20  2  0  0  0
M  END
> <minimizedAffinity>
-6.90904

$$$$
