CHEMBL604545


 27 30  0  0  0  0  0  0  0  0999 V2000
  -32.8648   -9.8167   -7.8770 O   0  0  0  0  0  0  0  0  0  0  0  0
  -31.6586   -9.5982   -7.9751 C   0  0  0  0  0  0  0  0  0  0  0  0
  -30.8218   -9.2292   -6.7722 C   0  0  0  0  0  0  0  0  0  0  0  0
  -30.2125   -7.8855   -6.9518 C   0  0  0  0  0  0  0  0  0  0  0  0
  -30.5916   -6.7904   -6.2067 C   0  0  0  0  0  0  0  0  0  0  0  0
  -30.1024   -5.5536   -6.3969 N   0  0  0  0  0  0  0  0  0  0  0  0
  -29.1734   -5.4173   -7.3502 C   0  0  0  0  0  0  0  0  0  0  0  0
  -28.7302   -6.4351   -8.1095 N   0  0  0  0  0  0  0  0  0  0  0  0
  -29.2671   -7.6574   -7.9270 C   0  0  0  0  0  0  0  0  0  0  0  0
  -28.7893   -8.7247   -8.8340 C   0  0  0  0  0  0  0  0  0  0  0  0
  -27.4153   -8.8052   -9.1422 C   0  0  0  0  0  0  0  0  0  0  0  0
  -26.9146   -9.7812  -10.0078 C   0  0  0  0  0  0  0  0  0  0  0  0
  -27.7845  -10.6624  -10.6380 C   0  0  0  0  0  0  0  0  0  0  0  0
  -29.1510  -10.5808  -10.3857 C   0  0  0  0  0  0  0  0  0  0  0  0
  -29.6512   -9.6627   -9.4493 C   0  0  0  0  0  0  0  0  0  0  0  0
  -31.0294   -9.7755   -9.1782 N   0  0  0  0  0  0  0  0  0  0  0  0
  -31.6203  -10.2270   -9.8666 H   0  0  0  0  0  0  0  0  0  0  0  0
  -28.6984   -4.1247   -7.5727 N   0  0  0  0  0  0  0  0  0  0  0  0
  -28.8986   -3.8163   -8.5082 H   0  0  0  0  0  0  0  0  0  0  0  0
  -28.3637   -3.1437   -6.6307 C   0  0  0  0  0  0  0  0  0  0  0  0
  -28.3411   -3.4720   -5.2698 C   0  0  0  0  0  0  0  0  0  0  0  0
  -28.1027   -2.4874   -4.3026 C   0  0  0  0  0  0  0  0  0  0  0  0
  -27.8746   -1.1644   -4.6860 C   0  0  0  0  0  0  0  0  0  0  0  0
  -27.8834   -0.8423   -6.0389 C   0  0  0  0  0  0  0  0  0  0  0  0
  -27.6711    0.4324   -6.4726 O   0  0  0  0  0  0  0  0  0  0  0  0
  -28.1252   -1.8149   -6.9986 C   0  0  0  0  0  0  0  0  0  0  0  0
  -27.6312    1.0183   -5.6994 H   0  0  0  0  0  0  0  0  0  0  0  0
  1  2  2  0  0  0
  2  3  1  0  0  0
  2 16  1  0  0  0
  3  4  1  0  0  0
  4  5  1  0  0  0
  4  9  2  0  0  0
  5  6  2  0  0  0
  6  7  1  0  0  0
  7 18  1  0  0  0
  7  8  2  0  0  0
 18 20  1  0  0  0
 18 19  1  0  0  0
 20 21  1  0  0  0
 20 26  2  0  0  0
 21 22  2  0  0  0
 22 23  1  0  0  0
 23 24  2  0  0  0
 24 25  1  0  0  0
 24 26  1  0  0  0
 25 27  1  0  0  0
  8  9  1  0  0  0
  9 10  1  0  0  0
 10 11  1  0  0  0
 10 15  2  0  0  0
 11 12  2  0  0  0
 12 13  1  0  0  0
 13 14  2  0  0  0
 14 15  1  0  0  0
 15 16  1  0  0  0
 16 17  1  0  0  0
M  END
> <minimizedAffinity>
-9.13745

$$$$
