CHEMBL391127


 27 29  0  0  0  0  0  0  0  0999 V2000
  -27.5399   -9.2223   -9.0622 C   0  0  0  0  0  0  0  0  0  0  0  0
  -28.4470   -8.7782   -8.0246 N   0  0  0  0  0  0  0  0  0  0  0  0
  -29.4945   -8.0105   -8.3785 N   0  0  0  0  0  0  0  0  0  0  0  0
  -30.1189   -7.7903   -7.2258 C   0  0  0  0  0  0  0  0  0  0  0  0
  -29.4824   -8.4201   -6.1323 C   0  0  0  0  0  0  0  0  0  0  0  0
  -28.4044   -9.0960   -6.6767 C   0  0  0  0  0  0  0  0  0  0  0  0
  -27.3522   -9.9311   -6.1334 C   0  0  0  0  0  0  0  0  0  0  0  0
  -27.4668  -11.1521   -6.1437 O   0  0  0  0  0  0  0  0  0  0  0  0
  -26.2820   -9.2690   -5.5510 N   0  0  0  0  0  0  0  0  0  0  0  0
  -26.3903   -8.2707   -5.4181 H   0  0  0  0  0  0  0  0  0  0  0  0
  -25.1299   -9.8901   -5.0053 C   0  0  0  0  0  0  0  0  0  0  0  0
  -25.0246  -10.2306   -3.6531 C   0  0  0  0  0  0  0  0  0  0  0  0
  -23.8448  -10.7649   -3.1297 C   0  0  0  0  0  0  0  0  0  0  0  0
  -22.7497  -10.9848   -3.9604 C   0  0  0  0  0  0  0  0  0  0  0  0
  -21.3048  -11.5922   -3.2354 Cl  0  0  0  0  0  0  0  0  0  0  0  0
  -22.8574  -10.7051   -5.3265 C   0  0  0  0  0  0  0  0  0  0  0  0
  -21.5421  -10.9670   -6.4180 Cl  0  0  0  0  0  0  0  0  0  0  0  0
  -24.0493  -10.1745   -5.8495 C   0  0  0  0  0  0  0  0  0  0  0  0
  -29.9331   -8.3176   -4.8581 N   0  0  0  0  0  0  0  0  0  0  0  0
  -30.9443   -8.2939   -4.7234 H   0  0  0  0  0  0  0  0  0  0  0  0
  -29.2664   -7.5740   -3.8000 C   0  0  0  0  0  0  0  0  0  0  0  0
  -29.7495   -6.1410   -3.7658 C   0  0  0  0  0  0  0  0  0  0  0  0
  -31.1070   -5.7969   -3.7607 C   0  0  0  0  0  0  0  0  0  0  0  0
  -31.4663   -4.4604   -3.6952 C   0  0  0  0  0  0  0  0  0  0  0  0
  -30.5730   -3.4529   -3.6398 N   0  0  0  0  0  0  0  0  0  0  0  0
  -29.2683   -3.7945   -3.6661 C   0  0  0  0  0  0  0  0  0  0  0  0
  -28.8127   -5.1029   -3.7269 C   0  0  0  0  0  0  0  0  0  0  0  0
  1  2  1  0  0  0
  2  3  1  0  0  0
  2  6  1  0  0  0
  3  4  2  0  0  0
  4  5  1  0  0  0
  5 19  1  0  0  0
  5  6  2  0  0  0
 19 21  1  0  0  0
 19 20  1  0  0  0
 21 22  1  0  0  0
 22 23  1  0  0  0
 22 27  2  0  0  0
 23 24  2  0  0  0
 24 25  1  0  0  0
 25 26  2  0  0  0
 26 27  1  0  0  0
  6  7  1  0  0  0
  7  8  2  0  0  0
  7  9  1  0  0  0
  9 11  1  0  0  0
  9 10  1  0  0  0
 11 12  1  0  0  0
 11 18  2  0  0  0
 12 13  2  0  0  0
 13 14  1  0  0  0
 14 15  1  0  0  0
 14 16  2  0  0  0
 16 17  1  0  0  0
 16 18  1  0  0  0
M  END
> <minimizedAffinity>
-7.50924

$$$$
