CHEMBL4092765


 30 33  0  0  0  0  0  0  0  0999 V2000
  -29.0232   -7.7703   -7.1095 C   0  0  0  0  0  0  0  0  0  0  0  0
  -29.3934   -6.5667   -7.7137 C   0  0  0  0  0  0  0  0  0  0  0  0
  -29.4025   -5.3627   -7.0144 C   0  0  0  0  0  0  0  0  0  0  0  0
  -28.9123   -5.3156   -5.7197 C   0  0  0  0  0  0  0  0  0  0  0  0
  -28.4237   -6.4857   -5.1302 C   0  0  0  0  0  0  0  0  0  0  0  0
  -28.4980   -7.7033   -5.8078 C   0  0  0  0  0  0  0  0  0  0  0  0
  -32.5314   -8.4094   -7.0391 C   0  0  0  0  0  0  0  0  0  0  0  0
  -31.8145   -9.4768   -7.7944 C   0  0  0  0  0  0  0  0  0  0  0  0
  -32.5665  -10.4530   -8.3244 N   0  0  0  0  0  0  0  0  0  0  0  0
  -31.6736  -11.2667   -8.8999 N   0  0  0  0  0  0  0  0  0  0  0  0
  -30.3836  -10.8604   -8.7744 C   0  0  0  0  0  0  0  0  0  0  0  0
  -29.3207  -11.5284   -9.2629 N   0  0  0  0  0  0  0  0  0  0  0  0
  -28.1550  -10.9131   -9.0068 C   0  0  0  0  0  0  0  0  0  0  0  0
  -28.0146   -9.7160   -8.3227 C   0  0  0  0  0  0  0  0  0  0  0  0
  -29.1508   -9.0444   -7.8275 C   0  0  0  0  0  0  0  0  0  0  0  0
  -30.4097   -9.6647   -8.0644 C   0  0  0  0  0  0  0  0  0  0  0  0
  -31.9986  -12.1031   -9.3742 H   0  0  0  0  0  0  0  0  0  0  0  0
  -28.8529   -4.1411   -4.9622 N   0  0  0  0  0  0  0  0  0  0  0  0
  -29.7772   -3.6555   -4.0726 C   0  0  0  0  0  0  0  0  0  0  0  0
  -30.8363   -4.1822   -3.7449 O   0  0  0  0  0  0  0  0  0  0  0  0
  -29.4403   -2.4611   -3.5026 N   0  0  0  0  0  0  0  0  0  0  0  0
  -27.9773   -3.6519   -5.0220 H   0  0  0  0  0  0  0  0  0  0  0  0
  -30.0621   -2.1766   -2.7550 H   0  0  0  0  0  0  0  0  0  0  0  0
  -28.2173   -1.7289   -3.7334 C   0  0  0  0  0  0  0  0  0  0  0  0
  -28.2226   -0.8562   -4.9481 C   0  0  0  0  0  0  0  0  0  0  0  0
  -28.6914    0.4558   -4.8863 C   0  0  0  0  0  0  0  0  0  0  0  0
  -28.7574    1.1867   -6.0677 C   0  0  0  0  0  0  0  0  0  0  0  0
  -28.3597    0.5971   -7.2621 C   0  0  0  0  0  0  0  0  0  0  0  0
  -27.8968   -0.7062   -7.2299 C   0  0  0  0  0  0  0  0  0  0  0  0
  -27.8231   -1.4372   -6.1049 N   0  0  0  0  0  0  0  0  0  0  0  0
  7  8  1  0  0  0
  8  9  2  0  0  0
  8 16  1  0  0  0
  9 10  1  0  0  0
 10 11  1  0  0  0
 10 17  1  0  0  0
 11 12  1  0  0  0
 11 16  2  0  0  0
 12 13  2  0  0  0
 13 14  1  0  0  0
 14 15  2  0  0  0
 15  1  1  0  0  0
 15 16  1  0  0  0
  1  2  1  0  0  0
  1  6  2  0  0  0
  2  3  2  0  0  0
  3  4  1  0  0  0
  4 18  1  0  0  0
  4  5  2  0  0  0
 18 19  1  0  0  0
 18 22  1  0  0  0
 19 20  2  0  0  0
 19 21  1  0  0  0
 21 24  1  0  0  0
 21 23  1  0  0  0
 24 25  1  0  0  0
 25 26  1  0  0  0
 25 30  2  0  0  0
 26 27  2  0  0  0
 27 28  1  0  0  0
 28 29  2  0  0  0
 29 30  1  0  0  0
  5  6  1  0  0  0
M  END
> <minimizedAffinity>
-8.61640

$$$$
