CHEMBL2047252


 26 29  0  0  0  0  0  0  0  0999 V2000
  -27.7060   -5.9205   -8.7593 N   0  0  0  0  0  0  0  0  0  0  0  0
  -27.8769   -4.6365   -8.2889 C   0  0  0  0  0  0  0  0  0  0  0  0
  -28.5640   -4.4771   -7.1571 N   0  0  0  0  0  0  0  0  0  0  0  0
  -28.6977   -3.2013   -6.7714 C   0  0  0  0  0  0  0  0  0  0  0  0
  -28.1716   -2.0970   -7.4360 C   0  0  0  0  0  0  0  0  0  0  0  0
  -27.4653   -2.3710   -8.5798 C   0  0  0  0  0  0  0  0  0  0  0  0
  -27.3094   -3.6487   -8.9960 N   0  0  0  0  0  0  0  0  0  0  0  0
  -28.5785   -0.8873   -6.7467 C   0  0  0  0  0  0  0  0  0  0  0  0
  -28.3589    0.4531   -7.0232 C   0  0  0  0  0  0  0  0  0  0  0  0
  -28.9048    1.4135   -6.1620 C   0  0  0  0  0  0  0  0  0  0  0  0
  -29.6683    1.0340   -5.0457 C   0  0  0  0  0  0  0  0  0  0  0  0
  -29.9080   -0.3120   -4.7719 C   0  0  0  0  0  0  0  0  0  0  0  0
  -29.3609   -1.2546   -5.6269 C   0  0  0  0  0  0  0  0  0  0  0  0
  -29.4990   -2.7606   -5.5556 C   0  0  0  0  0  0  0  0  0  0  0  0
  -27.7961   -6.5856   -8.0056 H   0  0  0  0  0  0  0  0  0  0  0  0
  -26.8796   -5.9717   -9.3383 H   0  0  0  0  0  0  0  0  0  0  0  0
  -26.8819   -1.3350   -9.3434 N   0  0  0  0  0  0  0  0  0  0  0  0
  -26.2248   -0.8170   -8.7694 H   0  0  0  0  0  0  0  0  0  0  0  0
  -26.5063   -1.4431  -10.7004 C   0  0  0  0  0  0  0  0  0  0  0  0
  -27.4808   -1.5882  -11.6982 C   0  0  0  0  0  0  0  0  0  0  0  0
  -27.1077   -1.7596  -13.0355 C   0  0  0  0  0  0  0  0  0  0  0  0
  -25.7596   -1.8154  -13.3788 C   0  0  0  0  0  0  0  0  0  0  0  0
  -25.4277   -1.9899  -14.6657 F   0  0  0  0  0  0  0  0  0  0  0  0
  -24.7798   -1.7030  -12.4005 C   0  0  0  0  0  0  0  0  0  0  0  0
  -23.1092   -1.8011  -12.8060 Cl  0  0  0  0  0  0  0  0  0  0  0  0
  -25.1520   -1.5259  -11.0693 C   0  0  0  0  0  0  0  0  0  0  0  0
  1  2  1  0  0  0
  1 15  1  0  0  0
  1 16  1  0  0  0
  2  3  1  0  0  0
  2  7  2  0  0  0
  3  4  2  0  0  0
  4  5  1  0  0  0
  4 14  1  0  0  0
  5  6  2  0  0  0
  5  8  1  0  0  0
  6 17  1  0  0  0
  6  7  1  0  0  0
 17 19  1  0  0  0
 17 18  1  0  0  0
 19 20  1  0  0  0
 19 26  2  0  0  0
 20 21  2  0  0  0
 21 22  1  0  0  0
 22 23  1  0  0  0
 22 24  2  0  0  0
 24 25  1  0  0  0
 24 26  1  0  0  0
  8  9  1  0  0  0
  8 13  2  0  0  0
  9 10  2  0  0  0
 10 11  1  0  0  0
 11 12  2  0  0  0
 12 13  1  0  0  0
 13 14  1  0  0  0
M  END
> <minimizedAffinity>
-8.84738

$$$$
