CHEMBL1977346


 19 21  0  0  0  0  0  0  0  0999 V2000
  -28.2863   -5.7311   -8.1245 O   0  0  0  0  0  0  0  0  0  0  0  0
  -28.6585   -4.9303   -7.2620 C   0  0  0  0  0  0  0  0  0  0  0  0
  -28.6057   -3.5982   -7.5776 N   0  0  0  0  0  0  0  0  0  0  0  0
  -28.6934   -2.4782   -6.7444 C   0  0  0  0  0  0  0  0  0  0  0  0
  -27.9503   -1.3575   -7.1444 C   0  0  0  0  0  0  0  0  0  0  0  0
  -27.8582   -0.2382   -6.3209 C   0  0  0  0  0  0  0  0  0  0  0  0
  -28.5540   -0.2084   -5.1197 C   0  0  0  0  0  0  0  0  0  0  0  0
  -29.3694   -1.2834   -4.7636 C   0  0  0  0  0  0  0  0  0  0  0  0
  -29.4502   -2.4328   -5.5684 C   0  0  0  0  0  0  0  0  0  0  0  0
  -30.2891   -3.4823   -5.1591 N   0  0  0  0  0  0  0  0  0  0  0  0
  -29.8709   -4.8024   -5.0458 C   0  0  0  0  0  0  0  0  0  0  0  0
  -30.2956   -5.4453   -3.9282 N   0  0  0  0  0  0  0  0  0  0  0  0
  -29.8724   -6.7153   -3.6315 N   0  0  0  0  0  0  0  0  0  0  0  0
  -29.0204   -7.3397   -4.4601 C   0  0  0  0  0  0  0  0  0  0  0  0
  -28.3501   -9.2355   -3.9415 I   0  0  0  0  0  0  0  0  0  0  0  0
  -28.5915   -6.7524   -5.6239 C   0  0  0  0  0  0  0  0  0  0  0  0
  -29.0463   -5.4605   -5.9414 C   0  0  0  0  0  0  0  0  0  0  0  0
  -28.1945   -3.4612   -8.4942 H   0  0  0  0  0  0  0  0  0  0  0  0
  -30.8383   -3.2676   -4.3312 H   0  0  0  0  0  0  0  0  0  0  0  0
  1  2  2  0  0  0
  2  3  1  0  0  0
  2 17  1  0  0  0
  3  4  1  0  0  0
  3 18  1  0  0  0
  4  5  1  0  0  0
  4  9  2  0  0  0
  5  6  2  0  0  0
  6  7  1  0  0  0
  7  8  2  0  0  0
  8  9  1  0  0  0
  9 10  1  0  0  0
 10 11  1  0  0  0
 10 19  1  0  0  0
 11 12  1  0  0  0
 11 17  2  0  0  0
 12 13  2  0  0  0
 13 14  1  0  0  0
 14 15  1  0  0  0
 14 16  2  0  0  0
 16 17  1  0  0  0
M  END
> <minimizedAffinity>
-7.43615

$$$$
