CHEMBL576985


 39 44  0  0  0  0  0  0  0  0999 V2000
  -15.7657    2.2690  -15.7182 C   0  0  0  0  0  0  0  0  0  0  0  0
  -17.1695    2.3296  -15.4743 C   0  0  0  0  0  0  0  0  0  0  0  0
  -18.1523    3.2358  -16.1778 C   0  0  0  0  0  0  0  0  0  0  0  0
  -17.7399    1.5307  -14.4716 C   0  0  0  0  0  0  0  0  0  0  0  0
  -16.9758    0.6169  -13.7618 C   0  0  0  0  0  0  0  0  0  0  0  0
  -15.5914    0.5110  -13.9686 C   0  0  0  0  0  0  0  0  0  0  0  0
  -14.7928   -0.4064  -13.2398 C   0  0  0  0  0  0  0  0  0  0  0  0
  -13.4473   -0.4673  -13.3503 N   0  0  0  0  0  0  0  0  0  0  0  0
  -12.8518    0.4136  -14.1548 C   0  0  0  0  0  0  0  0  0  0  0  0
  -13.5482    1.3432  -14.9028 C   0  0  0  0  0  0  0  0  0  0  0  0
  -14.9653    1.3881  -14.8882 C   0  0  0  0  0  0  0  0  0  0  0  0
  -13.5099    6.5462  -20.0125 C   0  0  0  0  0  0  0  0  0  0  0  0
  -14.1592    7.2625  -19.0885 N   0  0  0  0  0  0  0  0  0  0  0  0
  -14.6536    6.5798  -18.0356 C   0  0  0  0  0  0  0  0  0  0  0  0
  -14.5503    5.2012  -17.8910 C   0  0  0  0  0  0  0  0  0  0  0  0
  -15.0646    4.4611  -16.7999 C   0  0  0  0  0  0  0  0  0  0  0  0
  -15.1188    3.0485  -16.8237 C   0  0  0  0  0  0  0  0  0  0  0  0
  -14.5527    2.4328  -17.9452 C   0  0  0  0  0  0  0  0  0  0  0  0
  -13.9165    3.1743  -18.9514 C   0  0  0  0  0  0  0  0  0  0  0  0
  -13.9353    4.5572  -18.9517 C   0  0  0  0  0  0  0  0  0  0  0  0
  -13.3889    5.2138  -19.9770 N   0  0  0  0  0  0  0  0  0  0  0  0
  -13.7710    8.3716  -21.5184 C   0  0  0  0  0  0  0  0  0  0  0  0
  -12.9656    7.2561  -21.0757 N   0  0  0  0  0  0  0  0  0  0  0  0
  -12.0040    7.4605  -20.8273 H   0  0  0  0  0  0  0  0  0  0  0  0
  -15.4170   -1.3491  -12.3902 N   0  0  0  0  0  0  0  0  0  0  0  0
  -16.4148   -1.1703  -12.3772 H   0  0  0  0  0  0  0  0  0  0  0  0
  -15.0838   -2.7179  -12.3141 C   0  0  0  0  0  0  0  0  0  0  0  0
  -14.1278   -3.1504  -11.3696 C   0  0  0  0  0  0  0  0  0  0  0  0
  -13.6581   -4.4684  -11.3605 C   0  0  0  0  0  0  0  0  0  0  0  0
  -14.1536   -5.3431  -12.3108 C   0  0  0  0  0  0  0  0  0  0  0  0
  -15.1500   -4.9345  -13.1918 C   0  0  0  0  0  0  0  0  0  0  0  0
  -15.6001   -3.6363  -13.2431 C   0  0  0  0  0  0  0  0  0  0  0  0
  -15.6234   -6.0238  -13.9102 N   0  0  0  0  0  0  0  0  0  0  0  0
  -15.0268   -7.2049  -13.4694 C   0  0  0  0  0  0  0  0  0  0  0  0
  -15.3513   -8.3335  -13.7996 O   0  0  0  0  0  0  0  0  0  0  0  0
  -13.8221   -6.7911  -12.5876 C   0  0  0  0  0  0  0  0  0  0  0  0
  -12.5873   -6.8936  -13.4992 C   0  0  0  0  0  0  0  0  0  0  0  0
  -13.6373   -7.6114  -11.3206 C   0  0  0  0  0  0  0  0  0  0  0  0
  -16.4099   -6.0041  -14.5418 H   0  0  0  0  0  0  0  0  0  0  0  0
 22 23  1  0  0  0
 23 12  1  0  0  0
 23 24  1  0  0  0
 12 13  1  0  0  0
 12 21  2  0  0  0
 13 14  2  0  0  0
 14 15  1  0  0  0
 15 16  1  0  0  0
 15 20  2  0  0  0
 16 17  2  0  0  0
 17  1  1  0  0  0
 17 18  1  0  0  0
  1  2  1  0  0  0
  1 11  2  0  0  0
  2  3  1  0  0  0
  2  4  2  0  0  0
  4  5  1  0  0  0
  5  6  2  0  0  0
  6  7  1  0  0  0
  6 11  1  0  0  0
  7 25  1  0  0  0
  7  8  2  0  0  0
 25 27  1  0  0  0
 25 26  1  0  0  0
 27 28  1  0  0  0
 27 32  2  0  0  0
 28 29  2  0  0  0
 29 30  1  0  0  0
 30 31  2  0  0  0
 30 36  1  0  0  0
 31 32  1  0  0  0
 31 33  1  0  0  0
 33 34  1  0  0  0
 33 39  1  0  0  0
 34 35  2  0  0  0
 34 36  1  0  0  0
 36 37  1  0  0  0
 36 38  1  0  0  0
  8  9  1  0  0  0
  9 10  2  0  0  0
 10 11  1  0  0  0
 18 19  2  0  0  0
 19 20  1  0  0  0
 20 21  1  0  0  0
M  END
> <minimizedAffinity>
-8.35031

$$$$
