CHEMBL4173415


 32 36  0  0  0  0  0  0  0  0999 V2000
  -29.4527   -6.4023   -3.7117 C   0  0  0  0  0  0  0  0  0  0  0  0
  -29.5033   -7.5453   -3.0649 N   0  0  0  0  0  0  0  0  0  0  0  0
  -29.0291   -8.4235   -3.9981 C   0  0  0  0  0  0  0  0  0  0  0  0
  -28.4573   -9.6750   -3.7883 C   0  0  0  0  0  0  0  0  0  0  0  0
  -27.7443  -10.2363   -4.8512 C   0  0  0  0  0  0  0  0  0  0  0  0
  -27.8082   -9.6834   -6.1387 C   0  0  0  0  0  0  0  0  0  0  0  0
  -28.5166   -8.5008   -6.3971 C   0  0  0  0  0  0  0  0  0  0  0  0
  -29.0565   -7.8685   -5.2772 C   0  0  0  0  0  0  0  0  0  0  0  0
  -29.6611   -6.6549   -5.0505 N   0  0  0  0  0  0  0  0  0  0  0  0
  -30.4597   -5.8991   -5.9766 C   0  0  0  0  0  0  0  0  0  0  0  0
  -28.6912   -5.3756   -3.2763 N   0  0  0  0  0  0  0  0  0  0  0  0
  -28.5112   -5.4052   -2.2766 H   0  0  0  0  0  0  0  0  0  0  0  0
  -28.7704   -1.4911   -4.9495 C   0  0  0  0  0  0  0  0  0  0  0  0
  -27.7354   -2.3981   -5.2357 C   0  0  0  0  0  0  0  0  0  0  0  0
  -27.6776   -3.6649   -4.6541 C   0  0  0  0  0  0  0  0  0  0  0  0
  -28.6658   -4.0751   -3.7719 C   0  0  0  0  0  0  0  0  0  0  0  0
  -29.7593   -3.2392   -3.5511 C   0  0  0  0  0  0  0  0  0  0  0  0
  -29.7998   -1.9625   -4.1184 C   0  0  0  0  0  0  0  0  0  0  0  0
  -30.0119    0.5941   -5.3704 C   0  0  0  0  0  0  0  0  0  0  0  0
  -28.7951   -0.2018   -5.4875 N   0  0  0  0  0  0  0  0  0  0  0  0
  -27.9248    0.0842   -6.6251 C   0  0  0  0  0  0  0  0  0  0  0  0
  -26.9579  -11.3572   -4.6955 O   0  0  0  0  0  0  0  0  0  0  0  0
  -25.6033  -11.1660   -4.4447 C   0  0  0  0  0  0  0  0  0  0  0  0
  -25.1592  -10.8532   -3.1956 N   0  0  0  0  0  0  0  0  0  0  0  0
  -23.8302  -10.7336   -3.0077 C   0  0  0  0  0  0  0  0  0  0  0  0
  -22.8536  -10.8503   -3.9235 N   0  0  0  0  0  0  0  0  0  0  0  0
  -23.3556  -11.1197   -5.1451 C   0  0  0  0  0  0  0  0  0  0  0  0
  -24.6872  -11.2775   -5.4729 C   0  0  0  0  0  0  0  0  0  0  0  0
  -24.6889  -11.5437   -6.8555 C   0  0  0  0  0  0  0  0  0  0  0  0
  -23.4587  -11.5434   -7.3806 N   0  0  0  0  0  0  0  0  0  0  0  0
  -22.6663  -11.2796   -6.3135 N   0  0  0  0  0  0  0  0  0  0  0  0
  -21.2365  -11.2043   -6.4717 C   0  0  0  0  0  0  0  0  0  0  0  0
 19 20  1  0  0  0
 20 21  1  0  0  0
 20 13  1  0  0  0
 13 14  1  0  0  0
 13 18  2  0  0  0
 14 15  2  0  0  0
 15 16  1  0  0  0
 16 11  1  0  0  0
 16 17  2  0  0  0
 11  1  1  0  0  0
 11 12  1  0  0  0
  1  2  2  0  0  0
  1  9  1  0  0  0
  2  3  1  0  0  0
  3  4  1  0  0  0
  3  8  2  0  0  0
  4  5  2  0  0  0
  5 22  1  0  0  0
  5  6  1  0  0  0
 22 23  1  0  0  0
 23 24  1  0  0  0
 23 28  2  0  0  0
 24 25  2  0  0  0
 25 26  1  0  0  0
 26 27  2  0  0  0
 27 28  1  0  0  0
 27 31  1  0  0  0
 28 29  1  0  0  0
 29 30  2  0  0  0
 30 31  1  0  0  0
 31 32  1  0  0  0
  6  7  2  0  0  0
  7  8  1  0  0  0
  8  9  1  0  0  0
  9 10  1  0  0  0
 17 18  1  0  0  0
M  END
> <minimizedAffinity>
-8.62482

$$$$
