CHEMBL4573769


 32 36  0  0  0  0  0  0  0  0999 V2000
  -28.2478   -3.3138   -8.2423 C   0  0  0  0  0  0  0  0  0  0  0  0
  -28.5712   -4.6462   -8.4072 C   0  0  0  0  0  0  0  0  0  0  0  0
  -29.1524   -5.0789   -7.2407 N   0  0  0  0  0  0  0  0  0  0  0  0
  -29.2333   -4.0846   -6.3318 N   0  0  0  0  0  0  0  0  0  0  0  0
  -28.6514   -3.0157   -6.9015 C   0  0  0  0  0  0  0  0  0  0  0  0
  -28.5020   -1.7688   -6.1358 C   0  0  0  0  0  0  0  0  0  0  0  0
  -29.5094   -0.7920   -6.1271 C   0  0  0  0  0  0  0  0  0  0  0  0
  -29.3715    0.3784   -5.3748 C   0  0  0  0  0  0  0  0  0  0  0  0
  -28.2048    0.6002   -4.6515 C   0  0  0  0  0  0  0  0  0  0  0  0
  -28.0311    2.0453   -3.7346 Cl  0  0  0  0  0  0  0  0  0  0  0  0
  -27.1765   -0.3389   -4.6730 C   0  0  0  0  0  0  0  0  0  0  0  0
  -27.3255   -1.5189   -5.4118 C   0  0  0  0  0  0  0  0  0  0  0  0
  -29.6136   -6.3921   -6.9509 C   0  0  0  0  0  0  0  0  0  0  0  0
  -30.9017   -6.8025   -7.3309 C   0  0  0  0  0  0  0  0  0  0  0  0
  -31.3239   -8.1073   -7.0836 C   0  0  0  0  0  0  0  0  0  0  0  0
  -30.4730   -9.0086   -6.4469 C   0  0  0  0  0  0  0  0  0  0  0  0
  -29.2001   -8.6027   -6.0493 C   0  0  0  0  0  0  0  0  0  0  0  0
  -28.7659   -7.2997   -6.3003 C   0  0  0  0  0  0  0  0  0  0  0  0
  -27.9619   -1.2385   -9.2676 O   0  0  0  0  0  0  0  0  0  0  0  0
  -27.6685   -2.4296   -9.2449 C   0  0  0  0  0  0  0  0  0  0  0  0
  -26.8352   -3.0548  -10.1454 N   0  0  0  0  0  0  0  0  0  0  0  0
  -26.7315   -4.0539  -10.1756 H   0  0  0  0  0  0  0  0  0  0  0  0
  -26.1679   -2.3270  -11.0897 C   0  0  0  0  0  0  0  0  0  0  0  0
  -26.2761   -2.4095  -12.3854 N   0  0  0  0  0  0  0  0  0  0  0  0
  -25.4139   -1.5186  -12.9811 C   0  0  0  0  0  0  0  0  0  0  0  0
  -25.2681   -1.3289  -14.3688 C   0  0  0  0  0  0  0  0  0  0  0  0
  -24.3480   -0.3937  -14.8411 C   0  0  0  0  0  0  0  0  0  0  0  0
  -23.5737    0.3291  -13.9433 C   0  0  0  0  0  0  0  0  0  0  0  0
  -22.6912    1.2188  -14.4166 F   0  0  0  0  0  0  0  0  0  0  0  0
  -23.6918    0.1650  -12.5627 C   0  0  0  0  0  0  0  0  0  0  0  0
  -24.6373   -0.7603  -12.0991 C   0  0  0  0  0  0  0  0  0  0  0  0
  -25.0789   -1.1706  -10.4797 S   0  0  0  0  0  0  0  0  0  0  0  0
 19 20  2  0  0  0
 20 21  1  0  0  0
 20  1  1  0  0  0
 21 23  1  0  0  0
 21 22  1  0  0  0
 23 24  2  0  0  0
 23 32  1  0  0  0
 24 25  1  0  0  0
 25 26  1  0  0  0
 25 31  2  0  0  0
 26 27  2  0  0  0
 27 28  1  0  0  0
 28 29  1  0  0  0
 28 30  2  0  0  0
 30 31  1  0  0  0
 31 32  1  0  0  0
  1  2  2  0  0  0
  1  5  1  0  0  0
  2  3  1  0  0  0
  3 13  1  0  0  0
  3  4  1  0  0  0
 13 14  1  0  0  0
 13 18  2  0  0  0
 14 15  2  0  0  0
 15 16  1  0  0  0
 16 17  2  0  0  0
 17 18  1  0  0  0
  4  5  2  0  0  0
  5  6  1  0  0  0
  6  7  1  0  0  0
  6 12  2  0  0  0
  7  8  2  0  0  0
  8  9  1  0  0  0
  9 10  1  0  0  0
  9 11  2  0  0  0
 11 12  1  0  0  0
M  END
> <minimizedAffinity>
-7.58227

$$$$
