CHEMBL3903768


 38 42  0  0  0  0  0  0  0  0999 V2000
  -28.8820  -10.0752   -5.3668 N   0  0  0  0  0  0  0  0  0  0  0  0
  -28.7641   -8.6491   -5.0535 C   0  0  0  0  0  0  0  0  0  0  0  0
  -29.1007   -8.3514   -3.7396 C   0  0  0  0  0  0  0  0  0  0  0  0
  -29.3987   -7.1051   -3.3463 C   0  0  0  0  0  0  0  0  0  0  0  0
  -29.3134   -6.0562   -4.2072 C   0  0  0  0  0  0  0  0  0  0  0  0
  -29.8438   -4.9319   -3.7449 N   0  0  0  0  0  0  0  0  0  0  0  0
  -29.7903   -3.8103   -4.4150 C   0  0  0  0  0  0  0  0  0  0  0  0
  -29.0651   -3.7052   -5.6053 C   0  0  0  0  0  0  0  0  0  0  0  0
  -28.6073   -4.9144   -6.1886 N   0  0  0  0  0  0  0  0  0  0  0  0
  -28.7753   -6.1463   -5.5015 C   0  0  0  0  0  0  0  0  0  0  0  0
  -28.4895   -7.5176   -5.9674 C   0  0  0  0  0  0  0  0  0  0  0  0
  -28.7944   -2.2016   -5.9470 C   0  0  0  0  0  0  0  0  0  0  0  0
  -27.8604   -1.8217   -6.9462 C   0  0  0  0  0  0  0  0  0  0  0  0
  -27.8845   -0.5180   -7.1637 N   0  0  0  0  0  0  0  0  0  0  0  0
  -28.7864    0.0093   -6.3751 N   0  0  0  0  0  0  0  0  0  0  0  0
  -29.0671    1.4372   -6.4835 C   0  0  0  0  0  0  0  0  0  0  0  0
  -29.3631   -0.9590   -5.5922 C   0  0  0  0  0  0  0  0  0  0  0  0
  -31.3163  -11.6755   -7.7592 C   0  0  0  0  0  0  0  0  0  0  0  0
  -30.5225  -11.7708   -8.9055 C   0  0  0  0  0  0  0  0  0  0  0  0
  -29.2044  -11.2982   -8.9068 C   0  0  0  0  0  0  0  0  0  0  0  0
  -28.6782  -10.7089   -7.7341 C   0  0  0  0  0  0  0  0  0  0  0  0
  -29.4531  -10.6067   -6.5709 C   0  0  0  0  0  0  0  0  0  0  0  0
  -30.7739  -11.0935   -6.5969 C   0  0  0  0  0  0  0  0  0  0  0  0
  -33.4417  -12.2905   -6.7337 C   0  0  0  0  0  0  0  0  0  0  0  0
  -32.5876  -12.1571   -7.8103 O   0  0  0  0  0  0  0  0  0  0  0  0
  -28.4718  -11.4364  -10.0434 O   0  0  0  0  0  0  0  0  0  0  0  0
  -27.2867  -10.7755  -10.3014 C   0  0  0  0  0  0  0  0  0  0  0  0
  -27.4402   -9.8488  -11.5032 C   0  0  0  0  0  0  0  0  0  0  0  0
  -26.5393   -8.7772  -11.4339 O   0  0  0  0  0  0  0  0  0  0  0  0
  -26.8188   -8.2203  -10.6611 H   0  0  0  0  0  0  0  0  0  0  0  0
  -28.4186  -10.9701   -4.2488 C   0  0  0  0  0  0  0  0  0  0  0  0
  -27.3618  -12.0996   -4.4371 C   0  0  0  0  0  0  0  0  0  0  0  0
  -26.2124  -12.2602   -3.3920 C   0  0  0  0  0  0  0  0  0  0  0  0
  -24.8702  -11.7289   -3.7961 N   0  0  0  0  0  0  0  0  0  0  0  0
  -24.5475  -10.5231   -2.9959 C   0  0  0  0  0  0  0  0  0  0  0  0
  -25.0685   -9.3377   -3.7986 C   0  0  0  0  0  0  0  0  0  0  0  0
  -24.5600   -9.7164   -5.1607 C   0  0  0  0  0  0  0  0  0  0  0  0
  -24.8341  -11.2236   -5.1998 C   0  0  0  0  0  0  0  0  0  0  0  0
 24 25  1  0  0  0
 25 18  1  0  0  0
 18 19  1  0  0  0
 18 23  2  0  0  0
 19 20  2  0  0  0
 20 26  1  0  0  0
 20 21  1  0  0  0
 26 27  1  0  0  0
 27 28  1  0  0  0
 28 29  1  0  0  0
 29 30  1  0  0  0
 21 22  2  0  0  0
 22  1  1  0  0  0
 22 23  1  0  0  0
  1 31  1  0  0  0
  1  2  1  0  0  0
 31 32  1  0  0  0
 32 33  1  0  0  0
 33 34  1  0  0  0
 34 35  1  0  0  0
 34 38  1  0  0  0
 35 36  1  0  0  0
 36 37  1  0  0  0
 37 38  1  0  0  0
  2  3  1  0  0  0
  2 11  2  0  0  0
  3  4  2  0  0  0
  4  5  1  0  0  0
  5  6  1  0  0  0
  5 10  2  0  0  0
  6  7  2  0  0  0
  7  8  1  0  0  0
  8 12  1  0  0  0
  8  9  2  0  0  0
 12 13  1  0  0  0
 12 17  2  0  0  0
 13 14  2  0  0  0
 14 15  1  0  0  0
 15 16  1  0  0  0
 15 17  1  0  0  0
  9 10  1  0  0  0
 10 11  1  0  0  0
M  END
> <minimizedAffinity>
-7.54310

$$$$
