CHEMBL269862


 32 35  0  0  0  0  0  0  0  0999 V2000
  -22.7669   -0.4965  -13.5284 C   0  0  0  0  0  0  0  0  0  0  0  0
  -22.6240   -0.9461  -12.2137 C   0  0  0  0  0  0  0  0  0  0  0  0
  -23.6846   -1.5299  -11.5167 C   0  0  0  0  0  0  0  0  0  0  0  0
  -24.9093   -1.7705  -12.1375 C   0  0  0  0  0  0  0  0  0  0  0  0
  -25.0440   -1.4275  -13.4833 C   0  0  0  0  0  0  0  0  0  0  0  0
  -23.9922   -0.7830  -14.1626 C   0  0  0  0  0  0  0  0  0  0  0  0
  -23.4935    2.8100  -13.1871 N   0  0  0  0  0  0  0  0  0  0  0  0
  -22.3223    2.7990  -13.8501 C   0  0  0  0  0  0  0  0  0  0  0  0
  -21.7044    3.9311  -14.1958 N   0  0  0  0  0  0  0  0  0  0  0  0
  -20.5626    3.5531  -14.8621 O   0  0  0  0  0  0  0  0  0  0  0  0
  -20.4954    2.2007  -14.9181 C   0  0  0  0  0  0  0  0  0  0  0  0
  -19.4618    1.4958  -15.5268 C   0  0  0  0  0  0  0  0  0  0  0  0
  -19.5443    0.1101  -15.4714 C   0  0  0  0  0  0  0  0  0  0  0  0
  -20.6153   -0.5172  -14.8271 C   0  0  0  0  0  0  0  0  0  0  0  0
  -21.6673    0.2144  -14.2150 C   0  0  0  0  0  0  0  0  0  0  0  0
  -21.5902    1.6332  -14.2750 C   0  0  0  0  0  0  0  0  0  0  0  0
  -23.9442    3.7074  -13.0454 H   0  0  0  0  0  0  0  0  0  0  0  0
  -24.1417    2.0314  -13.2302 H   0  0  0  0  0  0  0  0  0  0  0  0
  -25.9939   -2.3880  -11.4710 N   0  0  0  0  0  0  0  0  0  0  0  0
  -26.5557   -1.9364  -10.2893 C   0  0  0  0  0  0  0  0  0  0  0  0
  -26.3211   -0.8496   -9.7721 O   0  0  0  0  0  0  0  0  0  0  0  0
  -27.3866   -2.8899   -9.7128 N   0  0  0  0  0  0  0  0  0  0  0  0
  -26.5124   -3.0908  -11.9778 H   0  0  0  0  0  0  0  0  0  0  0  0
  -27.1145   -3.8441   -9.9046 H   0  0  0  0  0  0  0  0  0  0  0  0
  -27.9899   -2.6428   -8.4544 C   0  0  0  0  0  0  0  0  0  0  0  0
  -27.6773   -1.5053   -7.6988 C   0  0  0  0  0  0  0  0  0  0  0  0
  -28.2124   -1.3472   -6.4241 C   0  0  0  0  0  0  0  0  0  0  0  0
  -27.8958   -0.2653   -5.7012 F   0  0  0  0  0  0  0  0  0  0  0  0
  -29.0483   -2.3088   -5.8786 C   0  0  0  0  0  0  0  0  0  0  0  0
  -29.3746   -3.4203   -6.6441 C   0  0  0  0  0  0  0  0  0  0  0  0
  -30.1611   -4.3700   -6.1206 F   0  0  0  0  0  0  0  0  0  0  0  0
  -28.8777   -3.5861   -7.9366 C   0  0  0  0  0  0  0  0  0  0  0  0
  7  8  1  0  0  0
  7 17  1  0  0  0
  7 18  1  0  0  0
  8  9  2  0  0  0
  8 16  1  0  0  0
  9 10  1  0  0  0
 10 11  1  0  0  0
 11 12  1  0  0  0
 11 16  2  0  0  0
 12 13  2  0  0  0
 13 14  1  0  0  0
 14 15  2  0  0  0
 15  1  1  0  0  0
 15 16  1  0  0  0
  1  2  1  0  0  0
  1  6  2  0  0  0
  2  3  2  0  0  0
  3  4  1  0  0  0
  4 19  1  0  0  0
  4  5  2  0  0  0
 19 20  1  0  0  0
 19 23  1  0  0  0
 20 21  2  0  0  0
 20 22  1  0  0  0
 22 25  1  0  0  0
 22 24  1  0  0  0
 25 26  1  0  0  0
 25 32  2  0  0  0
 26 27  2  0  0  0
 27 28  1  0  0  0
 27 29  1  0  0  0
 29 30  2  0  0  0
 30 31  1  0  0  0
 30 32  1  0  0  0
  5  6  1  0  0  0
M  END
> <minimizedAffinity>
-10.56648

$$$$
