CHEMBL403158


 38 44  0  0  0  0  0  0  0  0999 V2000
  -29.9743   -4.6971   -6.2651 N   0  0  0  0  0  0  0  0  0  0  0  0
  -29.2137   -3.7621   -7.0073 C   0  0  0  0  0  0  0  0  0  0  0  0
  -29.3392   -2.3671   -7.1849 C   0  0  0  0  0  0  0  0  0  0  0  0
  -28.5339   -1.7328   -8.1545 C   0  0  0  0  0  0  0  0  0  0  0  0
  -27.5610   -2.4402   -8.8630 C   0  0  0  0  0  0  0  0  0  0  0  0
  -27.4146   -3.8093   -8.6371 C   0  0  0  0  0  0  0  0  0  0  0  0
  -28.2707   -4.4783   -7.7545 C   0  0  0  0  0  0  0  0  0  0  0  0
  -28.5806   -5.7866   -7.4623 C   0  0  0  0  0  0  0  0  0  0  0  0
  -28.2364   -6.8393   -8.3247 C   0  0  0  0  0  0  0  0  0  0  0  0
  -29.0303   -7.9986   -8.2183 C   0  0  0  0  0  0  0  0  0  0  0  0
  -30.0414   -8.1648   -7.2527 C   0  0  0  0  0  0  0  0  0  0  0  0
  -29.8635   -7.3111   -6.1082 C   0  0  0  0  0  0  0  0  0  0  0  0
  -29.4744   -5.9940   -6.4525 C   0  0  0  0  0  0  0  0  0  0  0  0
  -29.1920   -8.1169   -4.9042 C   0  0  0  0  0  0  0  0  0  0  0  0
  -28.6957   -9.5801   -5.2750 C   0  0  0  0  0  0  0  0  0  0  0  0
  -29.8299  -10.2422   -5.9738 C   0  0  0  0  0  0  0  0  0  0  0  0
  -30.5160  -11.3163   -5.5850 N   0  0  0  0  0  0  0  0  0  0  0  0
  -31.6644  -11.2040   -6.3009 N   0  0  0  0  0  0  0  0  0  0  0  0
  -32.7532  -12.1176   -6.0540 C   0  0  0  0  0  0  0  0  0  0  0  0
  -31.7406  -10.0506   -7.0442 C   0  0  0  0  0  0  0  0  0  0  0  0
  -30.4887   -9.5020   -6.9674 C   0  0  0  0  0  0  0  0  0  0  0  0
  -28.4916   -8.9653   -9.1404 C   0  0  0  0  0  0  0  0  0  0  0  0
  -28.7570  -10.1483   -9.3802 O   0  0  0  0  0  0  0  0  0  0  0  0
  -27.4344   -8.3151   -9.7579 N   0  0  0  0  0  0  0  0  0  0  0  0
  -27.2222   -6.9409   -9.3693 C   0  0  0  0  0  0  0  0  0  0  0  0
  -26.8299   -8.8284  -10.3809 H   0  0  0  0  0  0  0  0  0  0  0  0
  -26.7260   -1.8870   -9.9728 C   0  0  0  0  0  0  0  0  0  0  0  0
  -25.6932   -1.3152   -9.6116 O   0  0  0  0  0  0  0  0  0  0  0  0
  -27.1033   -1.9785  -11.3733 C   0  0  0  0  0  0  0  0  0  0  0  0
  -28.7454   -1.9791  -11.8772 S   0  0  0  0  0  0  0  0  0  0  0  0
  -28.3222   -2.0509  -13.5284 C   0  0  0  0  0  0  0  0  0  0  0  0
  -26.9609   -2.0199  -13.7158 C   0  0  0  0  0  0  0  0  0  0  0  0
  -26.2712   -1.9612  -12.4786 C   0  0  0  0  0  0  0  0  0  0  0  0
  -24.3769   -1.8726  -12.4803 Br  0  0  0  0  0  0  0  0  0  0  0  0
  -31.2414   -4.3582   -5.6125 C   0  0  0  0  0  0  0  0  0  0  0  0
  -31.5870   -5.5594   -3.3768 C   0  0  0  0  0  0  0  0  0  0  0  0
  -31.1680   -4.2598   -4.0640 C   0  0  0  0  0  0  0  0  0  0  0  0
  -29.7636   -3.8573   -3.6022 C   0  0  0  0  0  0  0  0  0  0  0  0
 36 37  1  0  0  0
 37 38  1  0  0  0
 37 35  1  0  0  0
 35  1  1  0  0  0
  1  2  1  0  0  0
  1 13  1  0  0  0
  2  3  1  0  0  0
  2  7  2  0  0  0
  3  4  2  0  0  0
  4  5  1  0  0  0
  5 27  1  0  0  0
  5  6  2  0  0  0
 27 28  2  0  0  0
 27 29  1  0  0  0
 29 30  1  0  0  0
 29 33  2  0  0  0
 30 31  1  0  0  0
 31 32  2  0  0  0
 32 33  1  0  0  0
 33 34  1  0  0  0
  6  7  1  0  0  0
  7  8  1  0  0  0
  8  9  1  0  0  0
  8 13  2  0  0  0
  9 10  2  0  0  0
  9 25  1  0  0  0
 10 11  1  0  0  0
 10 22  1  0  0  0
 11 12  2  0  0  0
 11 21  1  0  0  0
 12 13  1  0  0  0
 12 14  1  0  0  0
 14 15  1  0  0  0
 15 16  1  0  0  0
 16 17  2  0  0  0
 16 21  1  0  0  0
 17 18  1  0  0  0
 18 19  1  0  0  0
 18 20  1  0  0  0
 20 21  2  0  0  0
 22 23  2  0  0  0
 22 24  1  0  0  0
 24 25  1  0  0  0
 24 26  1  0  0  0
M  END
> <minimizedAffinity>
-6.41773

$$$$
