CHEMBL3914615


 37 41  0  0  0  0  0  0  0  0999 V2000
  -28.4658   -3.2022   -7.8718 N   0  0  0  0  0  0  0  0  0  0  0  0
  -28.8684   -4.6155   -7.6699 C   0  0  0  0  0  0  0  0  0  0  0  0
  -27.9155   -5.4661   -8.1866 C   0  0  0  0  0  0  0  0  0  0  0  0
  -28.1406   -6.7378   -8.4107 C   0  0  0  0  0  0  0  0  0  0  0  0
  -29.2896   -7.3296   -8.0764 C   0  0  0  0  0  0  0  0  0  0  0  0
  -29.3091   -8.5581   -8.5210 N   0  0  0  0  0  0  0  0  0  0  0  0
  -30.2864   -9.3759   -8.2897 C   0  0  0  0  0  0  0  0  0  0  0  0
  -31.3487   -9.0479   -7.5040 C   0  0  0  0  0  0  0  0  0  0  0  0
  -31.4410   -7.6613   -7.0811 N   0  0  0  0  0  0  0  0  0  0  0  0
  -30.3621   -6.7425   -7.3904 C   0  0  0  0  0  0  0  0  0  0  0  0
  -30.1505   -5.2561   -7.1656 C   0  0  0  0  0  0  0  0  0  0  0  0
  -32.1634  -10.4064   -7.3527 C   0  0  0  0  0  0  0  0  0  0  0  0
  -31.9147  -11.4832   -8.2700 C   0  0  0  0  0  0  0  0  0  0  0  0
  -32.7864  -12.4653   -8.1304 N   0  0  0  0  0  0  0  0  0  0  0  0
  -33.5811  -12.1539   -7.1367 N   0  0  0  0  0  0  0  0  0  0  0  0
  -33.2078  -10.9589   -6.5899 C   0  0  0  0  0  0  0  0  0  0  0  0
  -34.3700  -12.7809   -6.8719 H   0  0  0  0  0  0  0  0  0  0  0  0
  -28.8636    0.1145   -6.0537 C   0  0  0  0  0  0  0  0  0  0  0  0
  -28.6877   -0.3244   -4.7181 C   0  0  0  0  0  0  0  0  0  0  0  0
  -28.4241   -1.6776   -4.4437 C   0  0  0  0  0  0  0  0  0  0  0  0
  -28.3164   -2.5750   -5.5124 C   0  0  0  0  0  0  0  0  0  0  0  0
  -28.4768   -2.1819   -6.8473 C   0  0  0  0  0  0  0  0  0  0  0  0
  -28.7439   -0.8210   -7.1096 C   0  0  0  0  0  0  0  0  0  0  0  0
  -30.3839    1.8883   -6.8662 C   0  0  0  0  0  0  0  0  0  0  0  0
  -29.1851    1.4041   -6.3694 O   0  0  0  0  0  0  0  0  0  0  0  0
  -28.2975   -2.1011   -3.1520 O   0  0  0  0  0  0  0  0  0  0  0  0
  -29.2207   -2.8897   -2.4780 C   0  0  0  0  0  0  0  0  0  0  0  0
  -27.5832   -2.9313   -9.0959 C   0  0  0  0  0  0  0  0  0  0  0  0
  -27.6920   -1.6260   -9.9901 C   0  0  0  0  0  0  0  0  0  0  0  0
  -27.4901   -1.6938  -11.5346 C   0  0  0  0  0  0  0  0  0  0  0  0
  -26.0431   -1.8383  -11.8687 N   0  0  0  0  0  0  0  0  0  0  0  0
  -25.1299   -0.9384  -11.1228 C   0  0  0  0  0  0  0  0  0  0  0  0
  -24.0656   -0.4433  -12.1221 C   0  0  0  0  0  0  0  0  0  0  0  0
  -24.2372   -1.3644  -13.3060 C   0  0  0  0  0  0  0  0  0  0  0  0
  -23.8111   -0.7985  -14.4969 F   0  0  0  0  0  0  0  0  0  0  0  0
  -23.5712   -2.5581  -13.0848 F   0  0  0  0  0  0  0  0  0  0  0  0
  -25.7301   -1.6028  -13.2828 C   0  0  0  0  0  0  0  0  0  0  0  0
 24 25  1  0  0  0
 25 18  1  0  0  0
 18 19  1  0  0  0
 18 23  2  0  0  0
 19 20  2  0  0  0
 20 26  1  0  0  0
 20 21  1  0  0  0
 26 27  1  0  0  0
 21 22  2  0  0  0
 22  1  1  0  0  0
 22 23  1  0  0  0
  1 28  1  0  0  0
  1  2  1  0  0  0
 28 29  1  0  0  0
 29 30  1  0  0  0
 30 31  1  0  0  0
 31 32  1  0  0  0
 31 37  1  0  0  0
 32 33  1  0  0  0
 33 34  1  0  0  0
 34 35  1  0  0  0
 34 36  1  0  0  0
 34 37  1  0  0  0
  2  3  1  0  0  0
  2 11  2  0  0  0
  3  4  2  0  0  0
  4  5  1  0  0  0
  5  6  1  0  0  0
  5 10  2  0  0  0
  6  7  2  0  0  0
  7  8  1  0  0  0
  8 12  1  0  0  0
  8  9  2  0  0  0
 12 13  1  0  0  0
 12 16  2  0  0  0
 13 14  2  0  0  0
 14 15  1  0  0  0
 15 16  1  0  0  0
 15 17  1  0  0  0
  9 10  1  0  0  0
 10 11  1  0  0  0
M  END
> <minimizedAffinity>
-8.85912

$$$$
