CHEMBL4248249


 39 43  0  0  0  0  0  0  0  0999 V2000
  -17.7625    2.1976  -15.0138 C   0  0  0  0  0  0  0  0  0  0  0  0
  -17.3830    2.9362  -16.0543 N   0  0  0  0  0  0  0  0  0  0  0  0
  -16.0717    2.9236  -16.3507 C   0  0  0  0  0  0  0  0  0  0  0  0
  -15.7666    4.0334  -17.6428 Cl  0  0  0  0  0  0  0  0  0  0  0  0
  -15.0866    2.1859  -15.6990 C   0  0  0  0  0  0  0  0  0  0  0  0
  -15.5952    1.5064  -14.5804 C   0  0  0  0  0  0  0  0  0  0  0  0
  -16.9090    1.5112  -14.2513 N   0  0  0  0  0  0  0  0  0  0  0  0
  -21.9761    1.8638  -14.1516 C   0  0  0  0  0  0  0  0  0  0  0  0
  -21.2374    0.7456  -14.5252 C   0  0  0  0  0  0  0  0  0  0  0  0
  -19.8761    0.8703  -14.8135 C   0  0  0  0  0  0  0  0  0  0  0  0
  -19.2053    2.1054  -14.7328 C   0  0  0  0  0  0  0  0  0  0  0  0
  -19.9706    3.2228  -14.3566 C   0  0  0  0  0  0  0  0  0  0  0  0
  -21.3353    3.1012  -14.0642 C   0  0  0  0  0  0  0  0  0  0  0  0
  -23.7642    0.8924  -12.9245 C   0  0  0  0  0  0  0  0  0  0  0  0
  -23.3099    1.8767  -13.8490 O   0  0  0  0  0  0  0  0  0  0  0  0
  -13.6630    2.1258  -16.1394 C   0  0  0  0  0  0  0  0  0  0  0  0
  -13.2020    1.1554  -17.0491 C   0  0  0  0  0  0  0  0  0  0  0  0
  -11.8780    1.1375  -17.5034 C   0  0  0  0  0  0  0  0  0  0  0  0
  -10.9585    2.0567  -17.0143 C   0  0  0  0  0  0  0  0  0  0  0  0
  -11.3696    3.0098  -16.0919 C   0  0  0  0  0  0  0  0  0  0  0  0
  -12.7082    3.0607  -15.6869 C   0  0  0  0  0  0  0  0  0  0  0  0
  -14.7305    0.7526  -13.7429 N   0  0  0  0  0  0  0  0  0  0  0  0
  -13.8199    1.2000  -13.6973 H   0  0  0  0  0  0  0  0  0  0  0  0
  -14.6672   -0.6533  -13.6377 C   0  0  0  0  0  0  0  0  0  0  0  0
  -15.4764   -1.3216  -12.7178 C   0  0  0  0  0  0  0  0  0  0  0  0
  -15.3762   -2.7100  -12.5432 C   0  0  0  0  0  0  0  0  0  0  0  0
  -14.4847   -3.4718  -13.3012 C   0  0  0  0  0  0  0  0  0  0  0  0
  -13.7436   -2.8209  -14.2912 C   0  0  0  0  0  0  0  0  0  0  0  0
  -13.8437   -1.4301  -14.4623 C   0  0  0  0  0  0  0  0  0  0  0  0
  -14.2715   -4.8558  -13.1038 N   0  0  0  0  0  0  0  0  0  0  0  0
  -15.1948   -5.8750  -13.3136 C   0  0  0  0  0  0  0  0  0  0  0  0
  -16.3256   -5.7444  -13.7752 O   0  0  0  0  0  0  0  0  0  0  0  0
  -13.3553   -5.1412  -12.7783 H   0  0  0  0  0  0  0  0  0  0  0  0
  -14.6983   -7.2679  -12.8929 C   0  0  0  0  0  0  0  0  0  0  0  0
  -13.2363   -7.4182  -13.0624 N   0  0  0  0  0  0  0  0  0  0  0  0
  -12.8719   -8.6227  -13.8338 C   0  0  0  0  0  0  0  0  0  0  0  0
  -12.5736   -9.7118  -12.8233 C   0  0  0  0  0  0  0  0  0  0  0  0
  -11.9627   -8.9533  -11.6680 C   0  0  0  0  0  0  0  0  0  0  0  0
  -12.5831   -7.5632  -11.7428 C   0  0  0  0  0  0  0  0  0  0  0  0
 14 15  1  0  0  0
 15  8  1  0  0  0
  8  9  1  0  0  0
  8 13  2  0  0  0
  9 10  2  0  0  0
 10 11  1  0  0  0
 11  1  1  0  0  0
 11 12  2  0  0  0
  1  2  1  0  0  0
  1  7  2  0  0  0
  2  3  2  0  0  0
  3  4  1  0  0  0
  3  5  1  0  0  0
  5 16  1  0  0  0
  5  6  2  0  0  0
 16 17  1  0  0  0
 16 21  2  0  0  0
 17 18  2  0  0  0
 18 19  1  0  0  0
 19 20  2  0  0  0
 20 21  1  0  0  0
  6 22  1  0  0  0
  6  7  1  0  0  0
 22 24  1  0  0  0
 22 23  1  0  0  0
 24 25  1  0  0  0
 24 29  2  0  0  0
 25 26  2  0  0  0
 26 27  1  0  0  0
 27 30  1  0  0  0
 27 28  2  0  0  0
 30 31  1  0  0  0
 30 33  1  0  0  0
 31 32  2  0  0  0
 31 34  1  0  0  0
 34 35  1  0  0  0
 35 36  1  0  0  0
 35 39  1  0  0  0
 36 37  1  0  0  0
 37 38  1  0  0  0
 38 39  1  0  0  0
 28 29  1  0  0  0
 12 13  1  0  0  0
M  END
> <minimizedAffinity>
-8.66914

$$$$
