CHEMBL1762523


 35 39  0  0  0  0  0  0  0  0999 V2000
  -28.0951   -8.6646   -4.7433 C   0  0  0  0  0  0  0  0  0  0  0  0
  -29.0652   -9.2513   -5.5729 C   0  0  0  0  0  0  0  0  0  0  0  0
  -28.7923  -10.3574   -6.3798 C   0  0  0  0  0  0  0  0  0  0  0  0
  -27.4986  -10.8941   -6.3048 C   0  0  0  0  0  0  0  0  0  0  0  0
  -26.4754  -10.3438   -5.5118 C   0  0  0  0  0  0  0  0  0  0  0  0
  -26.8088   -9.2240   -4.7334 C   0  0  0  0  0  0  0  0  0  0  0  0
  -29.7220  -10.8903   -7.2507 N   0  0  0  0  0  0  0  0  0  0  0  0
  -30.1920  -10.1606   -8.4337 C   0  0  0  0  0  0  0  0  0  0  0  0
  -31.6858   -9.8383   -8.3150 C   0  0  0  0  0  0  0  0  0  0  0  0
  -32.4594  -11.0226   -8.0548 O   0  0  0  0  0  0  0  0  0  0  0  0
  -32.0372  -11.6243   -6.8182 C   0  0  0  0  0  0  0  0  0  0  0  0
  -30.5541  -12.0356   -6.8537 C   0  0  0  0  0  0  0  0  0  0  0  0
  -25.2063  -10.8874   -5.5204 N   0  0  0  0  0  0  0  0  0  0  0  0
  -24.6126  -11.5910   -4.3769 C   0  0  0  0  0  0  0  0  0  0  0  0
  -23.3023  -10.9055   -3.9659 C   0  0  0  0  0  0  0  0  0  0  0  0
  -22.3884  -10.8102   -5.0731 O   0  0  0  0  0  0  0  0  0  0  0  0
  -22.9781  -10.0444   -6.1374 C   0  0  0  0  0  0  0  0  0  0  0  0
  -24.2834  -10.6788   -6.6475 C   0  0  0  0  0  0  0  0  0  0  0  0
  -28.3985   -7.5896   -3.8967 N   0  0  0  0  0  0  0  0  0  0  0  0
  -27.7726   -7.4115   -3.1248 H   0  0  0  0  0  0  0  0  0  0  0  0
  -29.6460   -4.4827   -5.1773 C   0  0  0  0  0  0  0  0  0  0  0  0
  -30.8562   -4.3845   -4.5041 C   0  0  0  0  0  0  0  0  0  0  0  0
  -31.1872   -5.3989   -3.6491 C   0  0  0  0  0  0  0  0  0  0  0  0
  -30.4110   -6.4651   -3.4568 N   0  0  0  0  0  0  0  0  0  0  0  0
  -29.2532   -6.5145   -4.1344 C   0  0  0  0  0  0  0  0  0  0  0  0
  -28.8439   -5.5563   -4.9826 N   0  0  0  0  0  0  0  0  0  0  0  0
  -29.2430   -3.4418   -6.0626 N   0  0  0  0  0  0  0  0  0  0  0  0
  -29.3816   -3.7749   -7.4826 C   0  0  0  0  0  0  0  0  0  0  0  0
  -30.4965    1.3801   -5.6045 C   0  0  0  0  0  0  0  0  0  0  0  0
  -29.4822    0.2805   -5.4782 C   0  0  0  0  0  0  0  0  0  0  0  0
  -28.1829    0.5536   -5.0527 C   0  0  0  0  0  0  0  0  0  0  0  0
  -27.2595   -0.4814   -4.9392 C   0  0  0  0  0  0  0  0  0  0  0  0
  -27.6298   -1.7933   -5.2551 C   0  0  0  0  0  0  0  0  0  0  0  0
  -28.9249   -2.1130   -5.6971 C   0  0  0  0  0  0  0  0  0  0  0  0
  -29.8398   -1.0463   -5.7884 C   0  0  0  0  0  0  0  0  0  0  0  0
 29 30  1  0  0  0
 30 31  1  0  0  0
 30 35  2  0  0  0
 31 32  2  0  0  0
 32 33  1  0  0  0
 33 34  2  0  0  0
 34 27  1  0  0  0
 34 35  1  0  0  0
 27 28  1  0  0  0
 27 21  1  0  0  0
 21 22  1  0  0  0
 21 26  2  0  0  0
 22 23  2  0  0  0
 23 24  1  0  0  0
 24 25  2  0  0  0
 25 19  1  0  0  0
 25 26  1  0  0  0
 19  1  1  0  0  0
 19 20  1  0  0  0
  1  2  1  0  0  0
  1  6  2  0  0  0
  2  3  2  0  0  0
  3  7  1  0  0  0
  3  4  1  0  0  0
  7  8  1  0  0  0
  7 12  1  0  0  0
  8  9  1  0  0  0
  9 10  1  0  0  0
 10 11  1  0  0  0
 11 12  1  0  0  0
  4  5  2  0  0  0
  5 13  1  0  0  0
  5  6  1  0  0  0
 13 14  1  0  0  0
 13 18  1  0  0  0
 14 15  1  0  0  0
 15 16  1  0  0  0
 16 17  1  0  0  0
 17 18  1  0  0  0
M  END
> <minimizedAffinity>
-9.61112

$$$$
