CHEMBL393779


 29 31  0  0  0  0  0  0  0  0999 V2000
  -28.0080   -2.3454  -13.2870 C   0  0  0  0  0  0  0  0  0  0  0  0
  -26.7110   -1.7880  -13.5854 N   0  0  0  0  0  0  0  0  0  0  0  0
  -26.2522   -1.4722  -14.8304 C   0  0  0  0  0  0  0  0  0  0  0  0
  -25.0349   -0.9710  -14.7824 N   0  0  0  0  0  0  0  0  0  0  0  0
  -24.7101   -0.9538  -13.4584 C   0  0  0  0  0  0  0  0  0  0  0  0
  -25.7367   -1.4434  -12.6733 C   0  0  0  0  0  0  0  0  0  0  0  0
  -25.8193   -1.6512  -11.2481 C   0  0  0  0  0  0  0  0  0  0  0  0
  -24.8177   -1.6036  -10.5419 O   0  0  0  0  0  0  0  0  0  0  0  0
  -27.0937   -1.9571  -10.8065 N   0  0  0  0  0  0  0  0  0  0  0  0
  -27.7479   -2.2481  -11.5236 H   0  0  0  0  0  0  0  0  0  0  0  0
  -27.4963   -2.1095   -9.4672 C   0  0  0  0  0  0  0  0  0  0  0  0
  -27.8654   -3.3342   -8.9229 C   0  0  0  0  0  0  0  0  0  0  0  0
  -28.3461   -3.4177   -7.6126 C   0  0  0  0  0  0  0  0  0  0  0  0
  -28.4715   -2.2791   -6.8029 C   0  0  0  0  0  0  0  0  0  0  0  0
  -28.0154   -1.0622   -7.3394 C   0  0  0  0  0  0  0  0  0  0  0  0
  -27.5229   -0.9778   -8.6502 C   0  0  0  0  0  0  0  0  0  0  0  0
  -29.1004   -2.3427   -5.4002 C   0  0  0  0  0  0  0  0  0  0  0  0
  -28.1329   -2.8807   -4.3188 C   0  0  0  0  0  0  0  0  0  0  0  0
  -29.5557   -0.9382   -4.9580 C   0  0  0  0  0  0  0  0  0  0  0  0
  -30.3224   -3.2874   -5.4165 C   0  0  0  0  0  0  0  0  0  0  0  0
  -23.5100   -0.5258  -13.0215 N   0  0  0  0  0  0  0  0  0  0  0  0
  -23.2645   -0.6386  -12.0425 H   0  0  0  0  0  0  0  0  0  0  0  0
  -22.3380   -0.6232  -13.8811 C   0  0  0  0  0  0  0  0  0  0  0  0
  -21.8112    0.7650  -14.1789 C   0  0  0  0  0  0  0  0  0  0  0  0
  -20.5777    0.9386  -14.8184 C   0  0  0  0  0  0  0  0  0  0  0  0
  -20.1392    2.2266  -15.0874 C   0  0  0  0  0  0  0  0  0  0  0  0
  -20.8347    3.3383  -14.7670 N   0  0  0  0  0  0  0  0  0  0  0  0
  -22.0187    3.1527  -14.1473 C   0  0  0  0  0  0  0  0  0  0  0  0
  -22.5408    1.9063  -13.8325 C   0  0  0  0  0  0  0  0  0  0  0  0
  1  2  1  0  0  0
  2  3  1  0  0  0
  2  6  1  0  0  0
  3  4  2  0  0  0
  4  5  1  0  0  0
  5 21  1  0  0  0
  5  6  2  0  0  0
 21 23  1  0  0  0
 21 22  1  0  0  0
 23 24  1  0  0  0
 24 25  1  0  0  0
 24 29  2  0  0  0
 25 26  2  0  0  0
 26 27  1  0  0  0
 27 28  2  0  0  0
 28 29  1  0  0  0
  6  7  1  0  0  0
  7  8  2  0  0  0
  7  9  1  0  0  0
  9 11  1  0  0  0
  9 10  1  0  0  0
 11 12  1  0  0  0
 11 16  2  0  0  0
 12 13  2  0  0  0
 13 14  1  0  0  0
 14 17  1  0  0  0
 14 15  2  0  0  0
 17 18  1  0  0  0
 17 19  1  0  0  0
 17 20  1  0  0  0
 15 16  1  0  0  0
M  END
> <minimizedAffinity>
-9.37076

$$$$
