CHEMBL3656108


 45 48  0  0  0  0  0  0  0  0999 V2000
  -27.8626   -2.1596   -8.4360 C   0  0  0  0  0  0  0  0  0  0  0  0
  -28.5628   -3.3007   -8.0747 C   0  0  0  0  0  0  0  0  0  0  0  0
  -28.9261   -3.4675   -6.7433 C   0  0  0  0  0  0  0  0  0  0  0  0
  -28.4607   -2.5676   -5.7946 C   0  0  0  0  0  0  0  0  0  0  0  0
  -27.7338   -1.4747   -6.2426 C   0  0  0  0  0  0  0  0  0  0  0  0
  -27.4564   -1.2261   -7.5463 N   0  0  0  0  0  0  0  0  0  0  0  0
  -26.5947   -1.5553  -11.8860 C   0  0  0  0  0  0  0  0  0  0  0  0
  -27.9720   -1.5755  -12.0403 C   0  0  0  0  0  0  0  0  0  0  0  0
  -28.5483   -1.7788  -10.8048 N   0  0  0  0  0  0  0  0  0  0  0  0
  -27.5757   -1.8813   -9.8379 C   0  0  0  0  0  0  0  0  0  0  0  0
  -26.3653   -1.7331  -10.4903 C   0  0  0  0  0  0  0  0  0  0  0  0
  -29.5387   -1.8776  -10.6134 H   0  0  0  0  0  0  0  0  0  0  0  0
  -24.5180   -0.5579  -12.5573 N   0  0  0  0  0  0  0  0  0  0  0  0
  -25.5351   -1.4091  -12.8868 C   0  0  0  0  0  0  0  0  0  0  0  0
  -25.5871   -2.0102  -13.9560 O   0  0  0  0  0  0  0  0  0  0  0  0
  -24.4600   -0.1168  -11.6552 H   0  0  0  0  0  0  0  0  0  0  0  0
  -22.1331    0.9231  -13.1364 C   0  0  0  0  0  0  0  0  0  0  0  0
  -23.2836   -0.2981  -13.5882 S   0  0  0  0  0  0  0  0  0  0  0  0
  -23.7187   -0.1161  -15.2588 C   0  0  0  0  0  0  0  0  0  0  0  0
  -22.4551   -1.4755  -13.6178 O   0  0  0  0  0  0  0  0  0  0  0  0
  -20.8762    1.4116  -13.8140 C   0  0  0  0  0  0  0  0  0  0  0  0
  -21.0401    2.7551  -14.4745 C   0  0  0  0  0  0  0  0  0  0  0  0
  -21.7626    3.6533  -14.0664 O   0  0  0  0  0  0  0  0  0  0  0  0
  -18.9401    3.2598  -15.3805 C   0  0  0  0  0  0  0  0  0  0  0  0
  -20.2802    2.8148  -15.6045 O   0  0  0  0  0  0  0  0  0  0  0  0
  -29.7221   -4.5022   -6.3020 O   0  0  0  0  0  0  0  0  0  0  0  0
  -29.1176   -5.6547   -5.8403 C   0  0  0  0  0  0  0  0  0  0  0  0
  -28.8780   -6.6510   -6.7748 C   0  0  0  0  0  0  0  0  0  0  0  0
  -28.3262   -7.8735   -6.3730 C   0  0  0  0  0  0  0  0  0  0  0  0
  -27.9999   -8.1312   -5.0356 C   0  0  0  0  0  0  0  0  0  0  0  0
  -28.1861   -7.1002   -4.1094 C   0  0  0  0  0  0  0  0  0  0  0  0
  -28.7155   -5.8618   -4.5165 C   0  0  0  0  0  0  0  0  0  0  0  0
  -27.5037   -9.3845   -4.5820 N   0  0  0  0  0  0  0  0  0  0  0  0
  -26.1990   -9.6434   -4.2095 C   0  0  0  0  0  0  0  0  0  0  0  0
  -25.3034   -8.7974   -4.1743 O   0  0  0  0  0  0  0  0  0  0  0  0
  -25.9657  -10.9761   -3.8914 N   0  0  0  0  0  0  0  0  0  0  0  0
  -28.1811  -10.1290   -4.4663 H   0  0  0  0  0  0  0  0  0  0  0  0
  -26.4998  -11.6425   -4.4317 H   0  0  0  0  0  0  0  0  0  0  0  0
  -24.6458  -11.3734   -3.5389 C   0  0  0  0  0  0  0  0  0  0  0  0
  -24.3271  -11.5740   -2.1955 C   0  0  0  0  0  0  0  0  0  0  0  0
  -23.0639  -12.0603   -1.8429 C   0  0  0  0  0  0  0  0  0  0  0  0
  -22.1065  -12.3261   -2.8245 C   0  0  0  0  0  0  0  0  0  0  0  0
  -22.4080  -12.1243   -4.1739 C   0  0  0  0  0  0  0  0  0  0  0  0
  -21.4095  -12.4654   -5.2425 C   0  0  0  0  0  0  0  0  0  0  0  0
  -23.6769  -11.6343   -4.5207 C   0  0  0  0  0  0  0  0  0  0  0  0
 24 25  1  0  0  0
 25 22  1  0  0  0
 22 23  2  0  0  0
 22 21  1  0  0  0
 21 17  1  0  0  0
 17 18  2  0  0  0
 18 19  1  0  0  0
 18 20  2  0  0  0
 18 13  1  0  0  0
 13 14  1  0  0  0
 13 16  1  0  0  0
 14 15  2  0  0  0
 14  7  1  0  0  0
  7  8  2  0  0  0
  7 11  1  0  0  0
  8  9  1  0  0  0
  9 10  1  0  0  0
  9 12  1  0  0  0
 10  1  1  0  0  0
 10 11  2  0  0  0
  1  2  1  0  0  0
  1  6  2  0  0  0
  2  3  2  0  0  0
  3 26  1  0  0  0
  3  4  1  0  0  0
 26 27  1  0  0  0
 27 28  1  0  0  0
 27 32  2  0  0  0
 28 29  2  0  0  0
 29 30  1  0  0  0
 30 33  1  0  0  0
 30 31  2  0  0  0
 33 34  1  0  0  0
 33 37  1  0  0  0
 34 35  2  0  0  0
 34 36  1  0  0  0
 36 39  1  0  0  0
 36 38  1  0  0  0
 39 40  1  0  0  0
 39 45  2  0  0  0
 40 41  2  0  0  0
 41 42  1  0  0  0
 42 43  2  0  0  0
 43 44  1  0  0  0
 43 45  1  0  0  0
 31 32  1  0  0  0
  4  5  2  0  0  0
  5  6  1  0  0  0
M  END
> <minimizedAffinity>
-9.17706

$$$$
