CHEMBL3354188


 28 31  0  0  0  0  0  0  0  0999 V2000
  -15.0784   -1.3779  -13.1776 C   0  0  0  0  0  0  0  0  0  0  0  0
  -13.9898   -0.6148  -13.0179 N   0  0  0  0  0  0  0  0  0  0  0  0
  -13.9947    0.5986  -13.5945 C   0  0  0  0  0  0  0  0  0  0  0  0
  -15.0401    1.0818  -14.3394 C   0  0  0  0  0  0  0  0  0  0  0  0
  -16.1181    0.2405  -14.4832 C   0  0  0  0  0  0  0  0  0  0  0  0
  -16.1371   -0.9649  -13.8888 N   0  0  0  0  0  0  0  0  0  0  0  0
  -14.3193   -4.0438  -10.2706 C   0  0  0  0  0  0  0  0  0  0  0  0
  -15.5139   -3.0838  -10.2849 C   0  0  0  0  0  0  0  0  0  0  0  0
  -16.1270   -3.0046  -11.6812 C   0  0  0  0  0  0  0  0  0  0  0  0
  -15.1028   -2.6510  -12.6556 N   0  0  0  0  0  0  0  0  0  0  0  0
  -13.9118   -3.4894  -12.6926 C   0  0  0  0  0  0  0  0  0  0  0  0
  -13.2847   -3.5730  -11.3007 C   0  0  0  0  0  0  0  0  0  0  0  0
  -13.5787   -6.2902  -10.7065 C   0  0  0  0  0  0  0  0  0  0  0  0
  -14.6732   -5.3923  -10.6112 O   0  0  0  0  0  0  0  0  0  0  0  0
  -17.1548    0.6192  -15.3507 N   0  0  0  0  0  0  0  0  0  0  0  0
  -16.8850    0.7766  -16.3115 H   0  0  0  0  0  0  0  0  0  0  0  0
  -18.3301    1.3266  -15.0750 C   0  0  0  0  0  0  0  0  0  0  0  0
  -19.5053    0.6810  -14.6873 C   0  0  0  0  0  0  0  0  0  0  0  0
  -20.6372    1.4674  -14.4603 C   0  0  0  0  0  0  0  0  0  0  0  0
  -20.5845    2.8481  -14.6573 C   0  0  0  0  0  0  0  0  0  0  0  0
  -21.8741    3.3612  -14.3598 C   0  0  0  0  0  0  0  0  0  0  0  0
  -22.6683    2.3043  -13.9793 C   0  0  0  0  0  0  0  0  0  0  0  0
  -21.9192    1.1517  -14.0500 N   0  0  0  0  0  0  0  0  0  0  0  0
  -19.3799    3.4216  -15.0800 C   0  0  0  0  0  0  0  0  0  0  0  0
  -18.2735    2.6592  -15.2796 N   0  0  0  0  0  0  0  0  0  0  0  0
  -22.4533   -0.1702  -13.7128 C   0  0  0  0  0  0  0  0  0  0  0  0
  -22.5659   -0.4020  -12.2059 C   0  0  0  0  0  0  0  0  0  0  0  0
  -23.7646   -0.4780  -14.4325 C   0  0  0  0  0  0  0  0  0  0  0  0
 13 14  1  0  0  0
 14  7  1  0  0  0
  7  8  1  0  0  0
  7 12  1  0  0  0
  8  9  1  0  0  0
  9 10  1  0  0  0
 10  1  1  0  0  0
 10 11  1  0  0  0
  1  2  1  0  0  0
  1  6  2  0  0  0
  2  3  2  0  0  0
  3  4  1  0  0  0
  4  5  2  0  0  0
  5 15  1  0  0  0
  5  6  1  0  0  0
 15 17  1  0  0  0
 15 16  1  0  0  0
 17 18  1  0  0  0
 17 25  2  0  0  0
 18 19  2  0  0  0
 19 20  1  0  0  0
 19 23  1  0  0  0
 20 21  1  0  0  0
 20 24  2  0  0  0
 21 22  2  0  0  0
 22 23  1  0  0  0
 23 26  1  0  0  0
 26 27  1  0  0  0
 26 28  1  0  0  0
 24 25  1  0  0  0
 11 12  1  0  0  0
M  END
> <minimizedAffinity>
-8.62156

$$$$
