CHEMBL3696096


 33 35  0  0  0  0  0  0  0  0999 V2000
  -28.3216   -2.2502   -8.1570 C   0  0  0  0  0  0  0  0  0  0  0  0
  -27.9250   -2.1124   -6.8259 C   0  0  0  0  0  0  0  0  0  0  0  0
  -28.2119   -3.1119   -5.8872 C   0  0  0  0  0  0  0  0  0  0  0  0
  -28.9167   -4.2759   -6.2420 C   0  0  0  0  0  0  0  0  0  0  0  0
  -29.3532   -4.3735   -7.5736 C   0  0  0  0  0  0  0  0  0  0  0  0
  -29.0746   -3.3654   -8.5200 C   0  0  0  0  0  0  0  0  0  0  0  0
  -29.2075   -5.3256   -5.2340 C   0  0  0  0  0  0  0  0  0  0  0  0
  -28.4208   -6.8555   -5.3944 S   0  0  0  0  0  0  0  0  0  0  0  0
  -29.0527   -7.5484   -4.0508 N   0  0  0  0  0  0  0  0  0  0  0  0
  -29.8500   -6.6824   -3.4470 C   0  0  0  0  0  0  0  0  0  0  0  0
  -30.4903   -7.0556   -2.3119 N   0  0  0  0  0  0  0  0  0  0  0  0
  -29.9885   -5.3775   -4.0702 C   0  0  0  0  0  0  0  0  0  0  0  0
  -30.4385   -8.0565   -2.1290 H   0  0  0  0  0  0  0  0  0  0  0  0
  -31.4263   -6.7004   -2.1398 H   0  0  0  0  0  0  0  0  0  0  0  0
  -30.8223   -4.2831   -3.5867 C   0  0  0  0  0  0  0  0  0  0  0  0
  -30.1798   -3.2999   -2.8833 N   0  0  0  0  0  0  0  0  0  0  0  0
  -32.0271   -4.1855   -3.7842 O   0  0  0  0  0  0  0  0  0  0  0  0
  -29.1683   -3.2449   -2.8644 H   0  0  0  0  0  0  0  0  0  0  0  0
  -30.7212   -2.4810   -2.6419 H   0  0  0  0  0  0  0  0  0  0  0  0
  -26.6721   -0.7117  -11.0142 N   0  0  0  0  0  0  0  0  0  0  0  0
  -27.0384   -1.7263  -10.1428 C   0  0  0  0  0  0  0  0  0  0  0  0
  -26.7044   -2.9033  -10.2443 O   0  0  0  0  0  0  0  0  0  0  0  0
  -27.9092   -1.3051   -9.1406 N   0  0  0  0  0  0  0  0  0  0  0  0
  -27.1315    0.1759  -10.8968 H   0  0  0  0  0  0  0  0  0  0  0  0
  -28.6220   -0.6645   -9.4577 H   0  0  0  0  0  0  0  0  0  0  0  0
  -22.3411    0.2544  -13.2446 C   0  0  0  0  0  0  0  0  0  0  0  0
  -23.7117   -0.3632  -13.2714 C   0  0  0  0  0  0  0  0  0  0  0  0
  -24.1530   -1.0018  -14.4341 C   0  0  0  0  0  0  0  0  0  0  0  0
  -25.4034   -1.6036  -14.4591 C   0  0  0  0  0  0  0  0  0  0  0  0
  -26.2268   -1.5590  -13.3362 C   0  0  0  0  0  0  0  0  0  0  0  0
  -27.3479   -2.2842  -13.4128 F   0  0  0  0  0  0  0  0  0  0  0  0
  -25.8484   -0.8742  -12.1694 C   0  0  0  0  0  0  0  0  0  0  0  0
  -24.5608   -0.3028  -12.1465 C   0  0  0  0  0  0  0  0  0  0  0  0
 26 27  1  0  0  0
 27 28  1  0  0  0
 27 33  2  0  0  0
 28 29  2  0  0  0
 29 30  1  0  0  0
 30 31  1  0  0  0
 30 32  2  0  0  0
 32 20  1  0  0  0
 32 33  1  0  0  0
 20 21  1  0  0  0
 20 24  1  0  0  0
 21 22  2  0  0  0
 21 23  1  0  0  0
 23  1  1  0  0  0
 23 25  1  0  0  0
  1  2  1  0  0  0
  1  6  2  0  0  0
  2  3  2  0  0  0
  3  4  1  0  0  0
  4  7  1  0  0  0
  4  5  2  0  0  0
  7  8  1  0  0  0
  7 12  2  0  0  0
  8  9  1  0  0  0
  9 10  2  0  0  0
 10 11  1  0  0  0
 10 12  1  0  0  0
 11 13  1  0  0  0
 11 14  1  0  0  0
 12 15  1  0  0  0
 15 16  1  0  0  0
 15 17  2  0  0  0
 16 18  1  0  0  0
 16 19  1  0  0  0
  5  6  1  0  0  0
M  END
> <minimizedAffinity>
-9.17804

$$$$
