CHEMBL3890205


 35 39  0  0  0  0  0  0  0  0999 V2000
  -17.0802    1.9917  -15.5471 N   0  0  0  0  0  0  0  0  0  0  0  0
  -18.5251    1.8808  -15.5213 C   0  0  0  0  0  0  0  0  0  0  0  0
  -19.1960    3.0940  -15.6744 C   0  0  0  0  0  0  0  0  0  0  0  0
  -20.4338    3.2783  -15.0894 C   0  0  0  0  0  0  0  0  0  0  0  0
  -21.1185    2.2404  -14.5141 C   0  0  0  0  0  0  0  0  0  0  0  0
  -22.2000    2.6096  -13.8171 N   0  0  0  0  0  0  0  0  0  0  0  0
  -23.0532    1.6377  -13.4797 C   0  0  0  0  0  0  0  0  0  0  0  0
  -22.8871    0.3436  -13.9295 C   0  0  0  0  0  0  0  0  0  0  0  0
  -21.6811   -0.0696  -14.4649 N   0  0  0  0  0  0  0  0  0  0  0  0
  -20.7085    0.9044  -14.7153 C   0  0  0  0  0  0  0  0  0  0  0  0
  -19.3222    0.7616  -15.1474 C   0  0  0  0  0  0  0  0  0  0  0  0
  -24.1379   -0.3732  -14.1861 C   0  0  0  0  0  0  0  0  0  0  0  0
  -24.7751   -0.8762  -15.3414 C   0  0  0  0  0  0  0  0  0  0  0  0
  -25.8651   -1.6097  -15.0601 N   0  0  0  0  0  0  0  0  0  0  0  0
  -25.9391   -1.5710  -13.7179 N   0  0  0  0  0  0  0  0  0  0  0  0
  -27.1044   -2.0650  -13.0190 C   0  0  0  0  0  0  0  0  0  0  0  0
  -24.8606   -0.9582  -13.1517 C   0  0  0  0  0  0  0  0  0  0  0  0
  -15.4815   -0.3587  -13.0720 C   0  0  0  0  0  0  0  0  0  0  0  0
  -14.3458   -0.7682  -13.7709 C   0  0  0  0  0  0  0  0  0  0  0  0
  -14.0881   -0.2368  -15.0332 C   0  0  0  0  0  0  0  0  0  0  0  0
  -14.9614    0.7124  -15.5896 C   0  0  0  0  0  0  0  0  0  0  0  0
  -16.1051    1.1690  -14.9174 C   0  0  0  0  0  0  0  0  0  0  0  0
  -16.3349    0.6217  -13.6354 C   0  0  0  0  0  0  0  0  0  0  0  0
  -15.6027   -2.2656  -11.6230 C   0  0  0  0  0  0  0  0  0  0  0  0
  -15.8670   -0.8787  -11.8585 O   0  0  0  0  0  0  0  0  0  0  0  0
  -13.0382   -0.5749  -15.8414 O   0  0  0  0  0  0  0  0  0  0  0  0
  -13.1409   -0.2470  -17.2227 C   0  0  0  0  0  0  0  0  0  0  0  0
  -16.7442    3.4744  -15.6230 C   0  0  0  0  0  0  0  0  0  0  0  0
  -16.0161    3.9501  -16.8921 C   0  0  0  0  0  0  0  0  0  0  0  0
  -14.5660    3.9889  -16.6800 N   0  0  0  0  0  0  0  0  0  0  0  0
  -13.9674    4.4025  -15.5177 C   0  0  0  0  0  0  0  0  0  0  0  0
  -12.6176    4.3030  -15.7430 C   0  0  0  0  0  0  0  0  0  0  0  0
  -12.3751    3.8453  -17.0054 N   0  0  0  0  0  0  0  0  0  0  0  0
  -13.5571    3.6496  -17.5582 C   0  0  0  0  0  0  0  0  0  0  0  0
  -13.7512    3.1499  -18.9411 C   0  0  0  0  0  0  0  0  0  0  0  0
 24 25  1  0  0  0
 25 18  1  0  0  0
 18 19  1  0  0  0
 18 23  2  0  0  0
 19 20  2  0  0  0
 20 26  1  0  0  0
 20 21  1  0  0  0
 26 27  1  0  0  0
 21 22  2  0  0  0
 22  1  1  0  0  0
 22 23  1  0  0  0
  1 28  1  0  0  0
  1  2  1  0  0  0
 28 29  1  0  0  0
 29 30  1  0  0  0
 30 31  1  0  0  0
 30 34  1  0  0  0
 31 32  2  0  0  0
 32 33  1  0  0  0
 33 34  2  0  0  0
 34 35  1  0  0  0
  2  3  1  0  0  0
  2 11  2  0  0  0
  3  4  2  0  0  0
  4  5  1  0  0  0
  5  6  1  0  0  0
  5 10  2  0  0  0
  6  7  2  0  0  0
  7  8  1  0  0  0
  8 12  1  0  0  0
  8  9  2  0  0  0
 12 13  1  0  0  0
 12 17  2  0  0  0
 13 14  2  0  0  0
 14 15  1  0  0  0
 15 16  1  0  0  0
 15 17  1  0  0  0
  9 10  1  0  0  0
 10 11  1  0  0  0
M  END
> <minimizedAffinity>
-8.68333

$$$$
