CHEMBL1966524


 32 36  0  0  0  0  0  0  0  0999 V2000
  -28.7504   -5.9185   -7.6191 C   0  0  0  0  0  0  0  0  0  0  0  0
  -30.9842   -6.9513   -7.2476 N   0  0  0  0  0  0  0  0  0  0  0  0
  -29.5288   -7.1594   -7.1300 C   0  0  0  0  0  0  0  0  0  0  0  0
  -31.2034   -6.7157   -8.2160 H   0  0  0  0  0  0  0  0  0  0  0  0
  -31.2710   -6.1538   -6.6840 H   0  0  0  0  0  0  0  0  0  0  0  0
  -29.0961   -7.4406   -5.6729 C   0  0  0  0  0  0  0  0  0  0  0  0
  -28.7323   -6.2266   -4.8818 C   0  0  0  0  0  0  0  0  0  0  0  0
  -27.4508   -5.8336   -4.5469 C   0  0  0  0  0  0  0  0  0  0  0  0
  -27.5309   -4.6949   -3.7969 N   0  0  0  0  0  0  0  0  0  0  0  0
  -28.8448   -4.3304   -3.6246 C   0  0  0  0  0  0  0  0  0  0  0  0
  -29.3933   -3.2490   -2.9255 C   0  0  0  0  0  0  0  0  0  0  0  0
  -30.7835   -3.1100   -2.9354 C   0  0  0  0  0  0  0  0  0  0  0  0
  -31.5899   -4.0180   -3.6172 C   0  0  0  0  0  0  0  0  0  0  0  0
  -31.0253   -5.1002   -4.3032 C   0  0  0  0  0  0  0  0  0  0  0  0
  -29.6251   -5.2648   -4.3074 C   0  0  0  0  0  0  0  0  0  0  0  0
  -26.7425   -4.1871   -3.4238 H   0  0  0  0  0  0  0  0  0  0  0  0
  -29.5217   -4.7174   -7.4997 O   0  0  0  0  0  0  0  0  0  0  0  0
  -28.8339   -3.5603   -7.7701 C   0  0  0  0  0  0  0  0  0  0  0  0
  -28.8743   -2.5683   -6.8008 C   0  0  0  0  0  0  0  0  0  0  0  0
  -28.2482   -1.3751   -6.9147 N   0  0  0  0  0  0  0  0  0  0  0  0
  -27.5668   -1.1542   -8.0662 C   0  0  0  0  0  0  0  0  0  0  0  0
  -27.4697   -2.0614   -9.1247 C   0  0  0  0  0  0  0  0  0  0  0  0
  -28.1068   -3.2951   -8.9382 C   0  0  0  0  0  0  0  0  0  0  0  0
  -26.7734   -1.7388  -10.3896 C   0  0  0  0  0  0  0  0  0  0  0  0
  -25.4726   -1.3028  -10.6068 C   0  0  0  0  0  0  0  0  0  0  0  0
  -25.1313   -1.1756  -12.0032 C   0  0  0  0  0  0  0  0  0  0  0  0
  -23.9284   -0.8083  -12.6466 C   0  0  0  0  0  0  0  0  0  0  0  0
  -23.9150   -0.8061  -14.0353 C   0  0  0  0  0  0  0  0  0  0  0  0
  -24.9693   -1.1341  -14.8032 N   0  0  0  0  0  0  0  0  0  0  0  0
  -26.1280   -1.4832  -14.2023 C   0  0  0  0  0  0  0  0  0  0  0  0
  -26.2192   -1.5000  -12.8108 C   0  0  0  0  0  0  0  0  0  0  0  0
  -27.6023   -1.8947  -11.8823 S   0  0  0  0  0  0  0  0  0  0  0  0
  2  3  1  0  0  0
  2  4  1  0  0  0
  2  5  1  0  0  0
  3  1  1  0  0  0
  3  6  1  0  0  0
  1 17  1  0  0  0
 17 18  1  0  0  0
 18 19  1  0  0  0
 18 23  2  0  0  0
 19 20  2  0  0  0
 20 21  1  0  0  0
 21 22  2  0  0  0
 22 24  1  0  0  0
 22 23  1  0  0  0
 24 25  2  0  0  0
 24 32  1  0  0  0
 25 26  1  0  0  0
 26 27  1  0  0  0
 26 31  2  0  0  0
 27 28  2  0  0  0
 28 29  1  0  0  0
 29 30  2  0  0  0
 30 31  1  0  0  0
 31 32  1  0  0  0
  6  7  1  0  0  0
  7  8  2  0  0  0
  7 15  1  0  0  0
  8  9  1  0  0  0
  9 10  1  0  0  0
  9 16  1  0  0  0
 10 11  1  0  0  0
 10 15  2  0  0  0
 11 12  2  0  0  0
 12 13  1  0  0  0
 13 14  2  0  0  0
 14 15  1  0  0  0
M  END
> <minimizedAffinity>
-8.83198

$$$$
