CHEMBL13629


 32 34  0  0  0  0  0  0  0  0999 V2000
  -30.4720   -8.6348   -7.9920 C   0  0  0  0  0  0  0  0  0  0  0  0
  -31.6920   -8.3999   -7.3662 C   0  0  0  0  0  0  0  0  0  0  0  0
  -32.8985   -9.2315   -7.1370 C   0  0  0  0  0  0  0  0  0  0  0  0
  -31.6505   -7.1282   -6.8405 N   0  0  0  0  0  0  0  0  0  0  0  0
  -30.4366   -6.5423   -7.0757 C   0  0  0  0  0  0  0  0  0  0  0  0
  -29.6708   -7.4501   -7.7931 C   0  0  0  0  0  0  0  0  0  0  0  0
  -28.2714   -7.2667   -8.2858 C   0  0  0  0  0  0  0  0  0  0  0  0
  -32.4120   -6.7079   -6.3165 H   0  0  0  0  0  0  0  0  0  0  0  0
  -30.1272   -5.2362   -6.6109 C   0  0  0  0  0  0  0  0  0  0  0  0
  -29.2597   -4.8337   -5.6756 C   0  0  0  0  0  0  0  0  0  0  0  0
  -28.3032   -5.5896   -4.7847 C   0  0  0  0  0  0  0  0  0  0  0  0
  -28.1089   -6.7897   -4.7316 O   0  0  0  0  0  0  0  0  0  0  0  0
  -27.6700   -4.6148   -4.0197 N   0  0  0  0  0  0  0  0  0  0  0  0
  -28.1330   -3.3399   -4.3383 C   0  0  0  0  0  0  0  0  0  0  0  0
  -27.7401   -2.1371   -3.7790 C   0  0  0  0  0  0  0  0  0  0  0  0
  -28.3534   -0.9768   -4.2589 C   0  0  0  0  0  0  0  0  0  0  0  0
  -29.3234   -1.0389   -5.2662 C   0  0  0  0  0  0  0  0  0  0  0  0
  -30.1433    0.5439   -5.8958 Br  0  0  0  0  0  0  0  0  0  0  0  0
  -29.7086   -2.2636   -5.8243 C   0  0  0  0  0  0  0  0  0  0  0  0
  -29.0983   -3.4103   -5.3413 C   0  0  0  0  0  0  0  0  0  0  0  0
  -26.9712   -4.8341   -3.3262 H   0  0  0  0  0  0  0  0  0  0  0  0
  -29.4259  -10.7925   -7.8647 N   0  0  0  0  0  0  0  0  0  0  0  0
  -30.0324   -9.8611   -8.6680 C   0  0  0  0  0  0  0  0  0  0  0  0
  -30.2246  -10.0514   -9.8684 O   0  0  0  0  0  0  0  0  0  0  0  0
  -29.5447  -10.7238   -6.8657 H   0  0  0  0  0  0  0  0  0  0  0  0
  -29.0297  -12.0680   -8.4348 C   0  0  0  0  0  0  0  0  0  0  0  0
  -27.5606  -12.4656   -8.1666 C   0  0  0  0  0  0  0  0  0  0  0  0
  -26.5457  -11.6416   -8.8656 N   0  0  0  0  0  0  0  0  0  0  0  0
  -26.8824   -9.8187  -10.6262 C   0  0  0  0  0  0  0  0  0  0  0  0
  -27.0400  -11.2732  -10.2094 C   0  0  0  0  0  0  0  0  0  0  0  0
  -26.1488  -10.4735   -8.0476 C   0  0  0  0  0  0  0  0  0  0  0  0
  -26.0166  -10.6928   -6.5419 C   0  0  0  0  0  0  0  0  0  0  0  0
 29 30  1  0  0  0
 30 28  1  0  0  0
 28 31  1  0  0  0
 28 27  1  0  0  0
 31 32  1  0  0  0
 27 26  1  0  0  0
 26 22  1  0  0  0
 22 23  1  0  0  0
 22 25  1  0  0  0
 23 24  2  0  0  0
 23  1  1  0  0  0
  1  2  2  0  0  0
  1  6  1  0  0  0
  2  3  1  0  0  0
  2  4  1  0  0  0
  4  5  1  0  0  0
  4  8  1  0  0  0
  5  9  1  0  0  0
  5  6  2  0  0  0
  9 10  2  0  0  0
 10 11  1  0  0  0
 10 20  1  0  0  0
 11 12  2  0  0  0
 11 13  1  0  0  0
 13 14  1  0  0  0
 13 21  1  0  0  0
 14 15  1  0  0  0
 14 20  2  0  0  0
 15 16  2  0  0  0
 16 17  1  0  0  0
 17 18  1  0  0  0
 17 19  2  0  0  0
 19 20  1  0  0  0
  6  7  1  0  0  0
M  END
> <minimizedAffinity>
-7.11207

$$$$
