CHEMBL3952789


 38 42  0  0  0  0  0  0  0  0999 V2000
  -28.2073   -3.1141   -7.9533 N   0  0  0  0  0  0  0  0  0  0  0  0
  -28.5174   -4.5554   -8.0109 C   0  0  0  0  0  0  0  0  0  0  0  0
  -29.6671   -4.9052   -7.3766 C   0  0  0  0  0  0  0  0  0  0  0  0
  -29.9378   -6.2207   -7.3214 C   0  0  0  0  0  0  0  0  0  0  0  0
  -29.0921   -7.2410   -7.7219 C   0  0  0  0  0  0  0  0  0  0  0  0
  -29.1289   -7.9938   -6.7043 N   0  0  0  0  0  0  0  0  0  0  0  0
  -30.0613   -8.8722   -6.8349 C   0  0  0  0  0  0  0  0  0  0  0  0
  -29.7240   -9.8388   -7.6308 C   0  0  0  0  0  0  0  0  0  0  0  0
  -28.5439   -9.1953   -8.5554 N   0  0  0  0  0  0  0  0  0  0  0  0
  -28.1325   -7.4747   -8.5368 C   0  0  0  0  0  0  0  0  0  0  0  0
  -27.6949   -5.7632   -8.5342 C   0  0  0  0  0  0  0  0  0  0  0  0
  -30.7938  -11.1226   -6.9366 C   0  0  0  0  0  0  0  0  0  0  0  0
  -31.1156  -11.7747   -5.5566 C   0  0  0  0  0  0  0  0  0  0  0  0
  -32.3634  -12.3168   -5.3666 N   0  0  0  0  0  0  0  0  0  0  0  0
  -33.0656  -11.9884   -6.4589 N   0  0  0  0  0  0  0  0  0  0  0  0
  -34.5133  -12.3584   -6.5885 C   0  0  0  0  0  0  0  0  0  0  0  0
  -32.2096  -11.2338   -7.3334 C   0  0  0  0  0  0  0  0  0  0  0  0
  -28.7633   -0.1751   -5.4678 C   0  0  0  0  0  0  0  0  0  0  0  0
  -28.6965   -0.8285   -4.3019 C   0  0  0  0  0  0  0  0  0  0  0  0
  -28.4113   -2.1923   -4.2915 C   0  0  0  0  0  0  0  0  0  0  0  0
  -28.2150   -2.9286   -5.4745 C   0  0  0  0  0  0  0  0  0  0  0  0
  -28.3453   -2.3443   -6.7138 C   0  0  0  0  0  0  0  0  0  0  0  0
  -28.4519   -0.9453   -6.5716 C   0  0  0  0  0  0  0  0  0  0  0  0
  -30.4622    1.3669   -5.9739 C   0  0  0  0  0  0  0  0  0  0  0  0
  -29.1086    1.1297   -5.5986 O   0  0  0  0  0  0  0  0  0  0  0  0
  -28.3523   -2.9020   -3.1284 O   0  0  0  0  0  0  0  0  0  0  0  0
  -28.5038   -4.3042   -3.3220 C   0  0  0  0  0  0  0  0  0  0  0  0
  -28.5456   -2.3405   -9.2651 C   0  0  0  0  0  0  0  0  0  0  0  0
  -27.2804   -1.9879  -10.0303 C   0  0  0  0  0  0  0  0  0  0  0  0
  -26.1952   -1.6855  -10.6867 C   0  0  0  0  0  0  0  0  0  0  0  0
  -24.9717   -1.4009  -11.4978 C   0  0  0  0  0  0  0  0  0  0  0  0
  -24.5958   -0.1124  -11.8539 C   0  0  0  0  0  0  0  0  0  0  0  0
  -23.5770    0.0858  -12.8120 C   0  0  0  0  0  0  0  0  0  0  0  0
  -22.8151   -0.9903  -13.2434 C   0  0  0  0  0  0  0  0  0  0  0  0
  -23.1183   -2.2131  -12.6932 C   0  0  0  0  0  0  0  0  0  0  0  0
  -24.2278   -2.4468  -11.9315 N   0  0  0  0  0  0  0  0  0  0  0  0
  -23.3232    1.3878  -13.3627 C   0  0  0  0  0  0  0  0  0  0  0  0
  -23.0910    2.4369  -13.8035 N   0  0  0  0  0  0  0  0  0  0  0  0
 24 25  1  0  0  0
 25 18  1  0  0  0
 18 19  1  0  0  0
 18 23  2  0  0  0
 19 20  2  0  0  0
 20 26  1  0  0  0
 20 21  1  0  0  0
 26 27  1  0  0  0
 21 22  2  0  0  0
 22  1  1  0  0  0
 22 23  1  0  0  0
  1 28  1  0  0  0
  1  2  1  0  0  0
 28 29  1  0  0  0
 29 30  3  0  0  0
 30 31  1  0  0  0
 31 32  1  0  0  0
 31 36  2  0  0  0
 32 33  2  0  0  0
 33 37  1  0  0  0
 33 34  1  0  0  0
 37 38  3  0  0  0
 34 35  2  0  0  0
 35 36  1  0  0  0
  2  3  1  0  0  0
  2 11  2  0  0  0
  3  4  2  0  0  0
  4  5  1  0  0  0
  5  6  1  0  0  0
  5 10  2  0  0  0
  6  7  2  0  0  0
  7  8  1  0  0  0
  8 12  1  0  0  0
  8  9  2  0  0  0
 12 13  1  0  0  0
 12 17  2  0  0  0
 13 14  2  0  0  0
 14 15  1  0  0  0
 15 16  1  0  0  0
 15 17  1  0  0  0
  9 10  1  0  0  0
 10 11  1  0  0  0
M  END
> <minimizedAffinity>
-9.25942

$$$$
