CHEMBL175914


 30 33  0  0  0  0  0  0  0  0999 V2000
  -29.1799   -6.5117   -7.0872 C   0  0  0  0  0  0  0  0  0  0  0  0
  -28.4134   -5.9150   -7.9971 N   0  0  0  0  0  0  0  0  0  0  0  0
  -28.4032   -4.6018   -7.9184 C   0  0  0  0  0  0  0  0  0  0  0  0
  -27.6638   -3.9780   -8.8747 O   0  0  0  0  0  0  0  0  0  0  0  0
  -29.0146   -3.8424   -7.0391 N   0  0  0  0  0  0  0  0  0  0  0  0
  -29.7415   -4.4973   -6.1560 C   0  0  0  0  0  0  0  0  0  0  0  0
  -29.8735   -5.8238   -6.1643 N   0  0  0  0  0  0  0  0  0  0  0  0
  -27.4015   -4.7478   -9.4035 H   0  0  0  0  0  0  0  0  0  0  0  0
  -27.9536   -8.5773   -7.0907 C   0  0  0  0  0  0  0  0  0  0  0  0
  -29.2592   -7.9213   -7.1170 N   0  0  0  0  0  0  0  0  0  0  0  0
  -30.4326   -8.7065   -7.0858 C   0  0  0  0  0  0  0  0  0  0  0  0
  -31.6887   -8.2030   -7.4525 C   0  0  0  0  0  0  0  0  0  0  0  0
  -32.8576   -8.9809   -7.3769 C   0  0  0  0  0  0  0  0  0  0  0  0
  -32.7870  -10.3104   -6.9264 C   0  0  0  0  0  0  0  0  0  0  0  0
  -33.8529  -11.1861   -6.7911 N   0  0  0  0  0  0  0  0  0  0  0  0
  -33.4150  -12.3402   -6.3428 C   0  0  0  0  0  0  0  0  0  0  0  0
  -31.7306  -12.4591   -6.0604 S   0  0  0  0  0  0  0  0  0  0  0  0
  -31.5396  -10.8243   -6.5750 C   0  0  0  0  0  0  0  0  0  0  0  0
  -30.3681  -10.0476   -6.6543 C   0  0  0  0  0  0  0  0  0  0  0  0
  -30.4101   -3.8132   -5.1506 N   0  0  0  0  0  0  0  0  0  0  0  0
  -31.1466   -4.4171   -4.8049 H   0  0  0  0  0  0  0  0  0  0  0  0
  -29.6711   -3.0946   -4.0873 C   0  0  0  0  0  0  0  0  0  0  0  0
  -30.5932   -2.9108   -2.8583 C   0  0  0  0  0  0  0  0  0  0  0  0
  -28.3753   -3.8344   -3.6964 C   0  0  0  0  0  0  0  0  0  0  0  0
  -29.2146   -1.7125   -4.6341 C   0  0  0  0  0  0  0  0  0  0  0  0
  -30.1366   -0.7901   -5.1759 C   0  0  0  0  0  0  0  0  0  0  0  0
  -29.7379    0.4743   -5.6196 C   0  0  0  0  0  0  0  0  0  0  0  0
  -28.4050    0.8557   -5.5215 C   0  0  0  0  0  0  0  0  0  0  0  0
  -27.4760   -0.0217   -4.9701 C   0  0  0  0  0  0  0  0  0  0  0  0
  -27.8767   -1.2858   -4.5231 C   0  0  0  0  0  0  0  0  0  0  0  0
  9 10  1  0  0  0
 10 11  1  0  0  0
 10  1  1  0  0  0
 11 12  1  0  0  0
 11 19  2  0  0  0
 12 13  2  0  0  0
 13 14  1  0  0  0
 14 15  1  0  0  0
 14 18  2  0  0  0
 15 16  2  0  0  0
 16 17  1  0  0  0
 17 18  1  0  0  0
 18 19  1  0  0  0
  1  2  1  0  0  0
  1  7  2  0  0  0
  2  3  2  0  0  0
  3  4  1  0  0  0
  3  5  1  0  0  0
  4  8  1  0  0  0
  5  6  2  0  0  0
  6 20  1  0  0  0
  6  7  1  0  0  0
 20 22  1  0  0  0
 20 21  1  0  0  0
 22 23  1  0  0  0
 22 24  1  0  0  0
 22 25  1  0  0  0
 25 26  1  0  0  0
 25 30  2  0  0  0
 26 27  2  0  0  0
 27 28  1  0  0  0
 28 29  2  0  0  0
 29 30  1  0  0  0
M  END
> <minimizedAffinity>
-9.19854

$$$$
