CHEMBL475796


 43 47  0  0  0  0  0  0  0  0999 V2000
  -27.2793   -2.6948   -9.8272 N   0  0  0  0  0  0  0  0  0  0  0  0
  -26.2763   -2.8583   -9.7614 H   0  0  0  0  0  0  0  0  0  0  0  0
  -29.0972   -1.6968   -4.5118 C   0  0  0  0  0  0  0  0  0  0  0  0
  -28.8096   -1.9360   -5.9661 C   0  0  0  0  0  0  0  0  0  0  0  0
  -28.1268   -0.9286   -6.6677 C   0  0  0  0  0  0  0  0  0  0  0  0
  -27.6729   -1.1452   -7.9689 C   0  0  0  0  0  0  0  0  0  0  0  0
  -27.8406   -2.3834   -8.5822 C   0  0  0  0  0  0  0  0  0  0  0  0
  -28.6769   -3.3118   -7.9424 C   0  0  0  0  0  0  0  0  0  0  0  0
  -29.2003   -3.0966   -6.6554 C   0  0  0  0  0  0  0  0  0  0  0  0
  -30.1251   -4.0132   -6.1087 N   0  0  0  0  0  0  0  0  0  0  0  0
  -31.0650   -3.9972   -6.4760 H   0  0  0  0  0  0  0  0  0  0  0  0
  -29.8594   -5.3202   -5.6796 C   0  0  0  0  0  0  0  0  0  0  0  0
  -29.3890   -5.4658   -4.4339 N   0  0  0  0  0  0  0  0  0  0  0  0
  -29.2056   -6.7275   -4.0003 C   0  0  0  0  0  0  0  0  0  0  0  0
  -29.5093   -7.8482   -4.7368 C   0  0  0  0  0  0  0  0  0  0  0  0
  -30.0164   -7.6186   -5.9974 C   0  0  0  0  0  0  0  0  0  0  0  0
  -30.1599   -6.3631   -6.4670 N   0  0  0  0  0  0  0  0  0  0  0  0
  -30.5052   -8.6803   -6.8979 C   0  0  0  0  0  0  0  0  0  0  0  0
  -29.7569   -9.8110   -7.2513 C   0  0  0  0  0  0  0  0  0  0  0  0
  -30.3051  -10.7997   -8.0716 C   0  0  0  0  0  0  0  0  0  0  0  0
  -31.5990  -10.6373   -8.5285 C   0  0  0  0  0  0  0  0  0  0  0  0
  -32.3588   -9.5634   -8.2358 N   0  0  0  0  0  0  0  0  0  0  0  0
  -31.7950   -8.6173   -7.4406 C   0  0  0  0  0  0  0  0  0  0  0  0
  -27.6125   -1.8070  -10.9484 C   0  0  0  0  0  0  0  0  0  0  0  0
  -26.3809   -1.4724  -11.7610 C   0  0  0  0  0  0  0  0  0  0  0  0
  -25.3758   -0.6585  -11.2173 C   0  0  0  0  0  0  0  0  0  0  0  0
  -24.3339   -0.1987  -12.0246 C   0  0  0  0  0  0  0  0  0  0  0  0
  -24.2818   -0.5581  -13.3776 C   0  0  0  0  0  0  0  0  0  0  0  0
  -25.1958   -1.4824  -13.8855 C   0  0  0  0  0  0  0  0  0  0  0  0
  -26.2335   -1.9422  -13.0755 C   0  0  0  0  0  0  0  0  0  0  0  0
  -23.2789    0.1081  -14.2552 C   0  0  0  0  0  0  0  0  0  0  0  0
  -23.3921   -0.0364  -15.4671 O   0  0  0  0  0  0  0  0  0  0  0  0
  -22.2456    0.7373  -13.5861 N   0  0  0  0  0  0  0  0  0  0  0  0
  -22.2089    0.6747  -12.5753 H   0  0  0  0  0  0  0  0  0  0  0  0
  -21.1355    1.3976  -14.1696 C   0  0  0  0  0  0  0  0  0  0  0  0
  -20.0043    0.7098  -14.6178 C   0  0  0  0  0  0  0  0  0  0  0  0
  -18.9514    1.3921  -15.2291 C   0  0  0  0  0  0  0  0  0  0  0  0
  -19.0301    2.7673  -15.4215 C   0  0  0  0  0  0  0  0  0  0  0  0
  -20.1583    3.4650  -14.9907 C   0  0  0  0  0  0  0  0  0  0  0  0
  -21.1971    2.8023  -14.3201 C   0  0  0  0  0  0  0  0  0  0  0  0
  -22.3442    3.5378  -13.9402 N   0  0  0  0  0  0  0  0  0  0  0  0
  -22.1836    4.5418  -13.9376 H   0  0  0  0  0  0  0  0  0  0  0  0
  -22.7035    3.2386  -13.0396 H   0  0  0  0  0  0  0  0  0  0  0  0
  3  4  1  0  0  0
  4  5  1  0  0  0
  4  9  2  0  0  0
  5  6  2  0  0  0
  6  7  1  0  0  0
  7  1  1  0  0  0
  7  8  2  0  0  0
  1 24  1  0  0  0
  1  2  1  0  0  0
 24 25  1  0  0  0
 25 26  1  0  0  0
 25 30  2  0  0  0
 26 27  2  0  0  0
 27 28  1  0  0  0
 28 31  1  0  0  0
 28 29  2  0  0  0
 31 32  2  0  0  0
 31 33  1  0  0  0
 33 35  1  0  0  0
 33 34  1  0  0  0
 35 36  1  0  0  0
 35 40  2  0  0  0
 36 37  2  0  0  0
 37 38  1  0  0  0
 38 39  2  0  0  0
 39 40  1  0  0  0
 40 41  1  0  0  0
 41 42  1  0  0  0
 41 43  1  0  0  0
 29 30  1  0  0  0
  8  9  1  0  0  0
  9 10  1  0  0  0
 10 12  1  0  0  0
 10 11  1  0  0  0
 12 13  1  0  0  0
 12 17  2  0  0  0
 13 14  2  0  0  0
 14 15  1  0  0  0
 15 16  2  0  0  0
 16 18  1  0  0  0
 16 17  1  0  0  0
 18 19  1  0  0  0
 18 23  2  0  0  0
 19 20  2  0  0  0
 20 21  1  0  0  0
 21 22  2  0  0  0
 22 23  1  0  0  0
M  END
> <minimizedAffinity>
-11.68058

$$$$
