CHEMBL1807483


 39 43  0  0  0  0  0  0  0  0999 V2000
  -16.6649    1.9625  -15.9576 C   0  0  0  0  0  0  0  0  0  0  0  0
  -17.8845    2.5739  -15.8177 C   0  0  0  0  0  0  0  0  0  0  0  0
  -18.7202    1.6056  -15.1886 C   0  0  0  0  0  0  0  0  0  0  0  0
  -18.0639    0.4523  -14.9942 N   0  0  0  0  0  0  0  0  0  0  0  0
  -16.8372    0.6965  -15.4685 N   0  0  0  0  0  0  0  0  0  0  0  0
  -16.1137   -0.0106  -15.3860 H   0  0  0  0  0  0  0  0  0  0  0  0
  -20.1010    1.7626  -14.7517 C   0  0  0  0  0  0  0  0  0  0  0  0
  -20.6406    3.0462  -14.5733 C   0  0  0  0  0  0  0  0  0  0  0  0
  -21.9707    3.2085  -14.1892 C   0  0  0  0  0  0  0  0  0  0  0  0
  -22.7702    2.0860  -13.9871 C   0  0  0  0  0  0  0  0  0  0  0  0
  -22.2318    0.8088  -14.1444 C   0  0  0  0  0  0  0  0  0  0  0  0
  -20.9023    0.6403  -14.5217 C   0  0  0  0  0  0  0  0  0  0  0  0
  -23.0599   -0.3245  -13.9482 N   0  0  0  0  0  0  0  0  0  0  0  0
  -23.6911   -0.5938  -14.7002 H   0  0  0  0  0  0  0  0  0  0  0  0
  -23.6670   -0.6443  -12.4094 S   0  0  0  0  0  0  0  0  0  0  0  0
  -22.8896   -1.7551  -11.8988 O   0  0  0  0  0  0  0  0  0  0  0  0
  -23.7863    0.5906  -11.6689 O   0  0  0  0  0  0  0  0  0  0  0  0
  -25.3152   -1.2691  -12.7094 C   0  0  0  0  0  0  0  0  0  0  0  0
  -26.2266   -1.3322  -11.6476 C   0  0  0  0  0  0  0  0  0  0  0  0
  -27.5501   -1.7008  -11.8934 C   0  0  0  0  0  0  0  0  0  0  0  0
  -27.9620   -1.9981  -13.1930 C   0  0  0  0  0  0  0  0  0  0  0  0
  -27.0516   -1.9344  -14.2497 C   0  0  0  0  0  0  0  0  0  0  0  0
  -25.7257   -1.5642  -14.0129 C   0  0  0  0  0  0  0  0  0  0  0  0
  -15.4735    2.3918  -16.4395 N   0  0  0  0  0  0  0  0  0  0  0  0
  -15.4475    2.7982  -17.3698 H   0  0  0  0  0  0  0  0  0  0  0  0
  -12.1893    1.6389  -13.0199 C   0  0  0  0  0  0  0  0  0  0  0  0
  -12.8298    2.5763  -13.9951 C   0  0  0  0  0  0  0  0  0  0  0  0
  -13.8268    2.0683  -14.7368 N   0  0  0  0  0  0  0  0  0  0  0  0
  -14.4352    2.8845  -15.6122 C   0  0  0  0  0  0  0  0  0  0  0  0
  -13.9977    4.1708  -15.7943 C   0  0  0  0  0  0  0  0  0  0  0  0
  -12.9287    4.6110  -15.0311 C   0  0  0  0  0  0  0  0  0  0  0  0
  -12.3569    3.8292  -14.1005 N   0  0  0  0  0  0  0  0  0  0  0  0
  -12.4812    5.9119  -15.2701 N   0  0  0  0  0  0  0  0  0  0  0  0
  -11.3657    6.4122  -14.4541 C   0  0  0  0  0  0  0  0  0  0  0  0
  -11.2921    7.9537  -14.6509 C   0  0  0  0  0  0  0  0  0  0  0  0
  -11.1393    8.3543  -16.0743 N   0  0  0  0  0  0  0  0  0  0  0  0
  -11.1949    9.8079  -16.2146 C   0  0  0  0  0  0  0  0  0  0  0  0
  -12.2008    7.7255  -16.8930 C   0  0  0  0  0  0  0  0  0  0  0  0
  -12.2639    6.1962  -16.7028 C   0  0  0  0  0  0  0  0  0  0  0  0
 26 27  1  0  0  0
 27 28  1  0  0  0
 27 32  2  0  0  0
 28 29  2  0  0  0
 29 24  1  0  0  0
 29 30  1  0  0  0
 24  1  1  0  0  0
 24 25  1  0  0  0
  1  2  2  0  0  0
  1  5  1  0  0  0
  2  3  1  0  0  0
  3  7  1  0  0  0
  3  4  2  0  0  0
  7  8  1  0  0  0
  7 12  2  0  0  0
  8  9  2  0  0  0
  9 10  1  0  0  0
 10 11  2  0  0  0
 11 13  1  0  0  0
 11 12  1  0  0  0
 13 15  1  0  0  0
 13 14  1  0  0  0
 15 16  2  0  0  0
 15 17  2  0  0  0
 15 18  1  0  0  0
 18 19  1  0  0  0
 18 23  2  0  0  0
 19 20  2  0  0  0
 20 21  1  0  0  0
 21 22  2  0  0  0
 22 23  1  0  0  0
  4  5  1  0  0  0
  5  6  1  0  0  0
 30 31  2  0  0  0
 31 33  1  0  0  0
 31 32  1  0  0  0
 33 34  1  0  0  0
 33 39  1  0  0  0
 34 35  1  0  0  0
 35 36  1  0  0  0
 36 37  1  0  0  0
 36 38  1  0  0  0
 38 39  1  0  0  0
M  END
> <minimizedAffinity>
-10.70016

$$$$
