CHEMBL1979176


 28 30  0  0  0  0  0  0  0  0999 V2000
  -26.3559   -2.4718  -10.8034 N   0  0  0  0  0  0  0  0  0  0  0  0
  -27.3341   -2.0237   -9.9412 C   0  0  0  0  0  0  0  0  0  0  0  0
  -28.1954   -1.2057  -10.2541 O   0  0  0  0  0  0  0  0  0  0  0  0
  -27.2021   -2.5571   -8.6763 N   0  0  0  0  0  0  0  0  0  0  0  0
  -25.5605   -2.9286  -10.3857 H   0  0  0  0  0  0  0  0  0  0  0  0
  -26.2719   -2.7784   -8.3584 H   0  0  0  0  0  0  0  0  0  0  0  0
  -22.6610   -0.2897  -13.5915 C   0  0  0  0  0  0  0  0  0  0  0  0
  -22.7471   -0.5938  -12.2410 C   0  0  0  0  0  0  0  0  0  0  0  0
  -23.9096   -1.1804  -11.7417 C   0  0  0  0  0  0  0  0  0  0  0  0
  -25.0129   -1.4624  -12.5843 C   0  0  0  0  0  0  0  0  0  0  0  0
  -26.2314   -2.0188  -12.1384 C   0  0  0  0  0  0  0  0  0  0  0  0
  -27.3014   -2.1353  -13.0254 C   0  0  0  0  0  0  0  0  0  0  0  0
  -27.1169   -1.7371  -14.3313 C   0  0  0  0  0  0  0  0  0  0  0  0
  -25.9561   -1.2587  -14.8034 N   0  0  0  0  0  0  0  0  0  0  0  0
  -24.9278   -1.1120  -13.9486 C   0  0  0  0  0  0  0  0  0  0  0  0
  -23.7472   -0.5602  -14.4233 C   0  0  0  0  0  0  0  0  0  0  0  0
  -21.3603    1.6418  -14.0216 C   0  0  0  0  0  0  0  0  0  0  0  0
  -21.5675    0.2471  -14.2129 O   0  0  0  0  0  0  0  0  0  0  0  0
  -28.0292   -2.1400   -7.6285 C   0  0  0  0  0  0  0  0  0  0  0  0
  -28.0357   -0.8256   -7.1801 C   0  0  0  0  0  0  0  0  0  0  0  0
  -28.7815   -0.4977   -6.0471 C   0  0  0  0  0  0  0  0  0  0  0  0
  -29.4893   -1.5161   -5.4055 C   0  0  0  0  0  0  0  0  0  0  0  0
  -29.4655   -2.7868   -5.9566 C   0  0  0  0  0  0  0  0  0  0  0  0
  -28.7777   -3.1116   -7.0731 N   0  0  0  0  0  0  0  0  0  0  0  0
  -28.8063    0.9099   -5.5205 C   0  0  0  0  0  0  0  0  0  0  0  0
  -27.9349    1.1316   -4.4987 F   0  0  0  0  0  0  0  0  0  0  0  0
  -28.4886    1.8214   -6.4820 F   0  0  0  0  0  0  0  0  0  0  0  0
  -30.0330    1.2709   -5.0556 F   0  0  0  0  0  0  0  0  0  0  0  0
 17 18  1  0  0  0
 18  7  1  0  0  0
  7  8  1  0  0  0
  7 16  2  0  0  0
  8  9  2  0  0  0
  9 10  1  0  0  0
 10 11  1  0  0  0
 10 15  2  0  0  0
 11  1  1  0  0  0
 11 12  2  0  0  0
  1  2  1  0  0  0
  1  5  1  0  0  0
  2  3  2  0  0  0
  2  4  1  0  0  0
  4 19  1  0  0  0
  4  6  1  0  0  0
 19 20  1  0  0  0
 19 24  2  0  0  0
 20 21  2  0  0  0
 21 25  1  0  0  0
 21 22  1  0  0  0
 25 26  1  0  0  0
 25 27  1  0  0  0
 25 28  1  0  0  0
 22 23  2  0  0  0
 23 24  1  0  0  0
 12 13  1  0  0  0
 13 14  2  0  0  0
 14 15  1  0  0  0
 15 16  1  0  0  0
M  END
> <minimizedAffinity>
-10.73507

$$$$
