CHEMBL247866


 34 38  0  0  0  0  0  0  0  0999 V2000
  -28.1817   -1.6450   -6.8028 C   0  0  0  0  0  0  0  0  0  0  0  0
  -27.5263   -1.0566   -7.8304 N   0  0  0  0  0  0  0  0  0  0  0  0
  -27.2110   -1.7933   -8.9109 C   0  0  0  0  0  0  0  0  0  0  0  0
  -27.4563   -3.0884   -9.1193 N   0  0  0  0  0  0  0  0  0  0  0  0
  -28.1136   -3.6343   -8.0864 C   0  0  0  0  0  0  0  0  0  0  0  0
  -28.4643   -4.9462   -8.0612 O   0  0  0  0  0  0  0  0  0  0  0  0
  -29.1180   -5.1810   -6.8877 C   0  0  0  0  0  0  0  0  0  0  0  0
  -29.2311   -3.9988   -6.1530 C   0  0  0  0  0  0  0  0  0  0  0  0
  -28.5301   -3.0031   -6.9222 C   0  0  0  0  0  0  0  0  0  0  0  0
  -29.5870   -6.5555   -6.7030 C   0  0  0  0  0  0  0  0  0  0  0  0
  -30.7331   -7.0163   -7.3660 C   0  0  0  0  0  0  0  0  0  0  0  0
  -31.0105   -8.3822   -7.4506 C   0  0  0  0  0  0  0  0  0  0  0  0
  -30.1661   -9.3026   -6.8304 C   0  0  0  0  0  0  0  0  0  0  0  0
  -29.1240   -8.8433   -6.0278 C   0  0  0  0  0  0  0  0  0  0  0  0
  -28.8291   -7.4781   -5.9688 C   0  0  0  0  0  0  0  0  0  0  0  0
  -30.2609  -10.6623   -6.9622 O   0  0  0  0  0  0  0  0  0  0  0  0
  -30.3820  -11.1218   -8.3171 C   0  0  0  0  0  0  0  0  0  0  0  0
  -29.1281  -11.9348   -8.6925 C   0  0  0  0  0  0  0  0  0  0  0  0
  -28.3514  -11.3474   -9.8047 N   0  0  0  0  0  0  0  0  0  0  0  0
  -26.9134  -11.2306   -9.5134 C   0  0  0  0  0  0  0  0  0  0  0  0
  -26.7769   -9.9180   -8.7723 C   0  0  0  0  0  0  0  0  0  0  0  0
  -27.7323   -9.0207   -9.5319 C   0  0  0  0  0  0  0  0  0  0  0  0
  -28.7977   -9.9677  -10.0837 C   0  0  0  0  0  0  0  0  0  0  0  0
  -29.9637   -3.8771   -4.8909 C   0  0  0  0  0  0  0  0  0  0  0  0
  -31.1589   -4.5749   -4.6878 C   0  0  0  0  0  0  0  0  0  0  0  0
  -31.8579   -4.4749   -3.4818 C   0  0  0  0  0  0  0  0  0  0  0  0
  -31.4109   -3.6135   -2.4848 C   0  0  0  0  0  0  0  0  0  0  0  0
  -30.2406   -2.8878   -2.6780 C   0  0  0  0  0  0  0  0  0  0  0  0
  -29.5009   -3.0539   -3.8522 C   0  0  0  0  0  0  0  0  0  0  0  0
  -28.4666   -0.9141   -5.6513 N   0  0  0  0  0  0  0  0  0  0  0  0
  -29.2336   -1.3818   -5.1709 H   0  0  0  0  0  0  0  0  0  0  0  0
  -30.2282    0.7405   -5.7135 C   0  0  0  0  0  0  0  0  0  0  0  0
  -28.7122    0.5232   -5.7985 C   0  0  0  0  0  0  0  0  0  0  0  0
  -28.0466    1.3192   -4.6710 C   0  0  0  0  0  0  0  0  0  0  0  0
 32 33  1  0  0  0
 33 34  1  0  0  0
 33 30  1  0  0  0
 30  1  1  0  0  0
 30 31  1  0  0  0
  1  2  1  0  0  0
  1  9  2  0  0  0
  2  3  2  0  0  0
  3  4  1  0  0  0
  4  5  2  0  0  0
  5  6  1  0  0  0
  5  9  1  0  0  0
  6  7  1  0  0  0
  7 10  1  0  0  0
  7  8  2  0  0  0
 10 11  1  0  0  0
 10 15  2  0  0  0
 11 12  2  0  0  0
 12 13  1  0  0  0
 13 16  1  0  0  0
 13 14  2  0  0  0
 16 17  1  0  0  0
 17 18  1  0  0  0
 18 19  1  0  0  0
 19 20  1  0  0  0
 19 23  1  0  0  0
 20 21  1  0  0  0
 21 22  1  0  0  0
 22 23  1  0  0  0
 14 15  1  0  0  0
  8 24  1  0  0  0
  8  9  1  0  0  0
 24 25  1  0  0  0
 24 29  2  0  0  0
 25 26  2  0  0  0
 26 27  1  0  0  0
 27 28  2  0  0  0
 28 29  1  0  0  0
M  END
> <minimizedAffinity>
-8.48982

$$$$
