CHEMBL4279863


 38 42  0  0  0  0  0  0  0  0999 V2000
  -28.6035   -5.9031   -7.0745 O   0  0  0  0  0  0  0  0  0  0  0  0
  -29.2051   -6.0248   -6.0159 C   0  0  0  0  0  0  0  0  0  0  0  0
  -30.2056   -5.1490   -5.5678 N   0  0  0  0  0  0  0  0  0  0  0  0
  -29.0628   -7.0825   -5.1010 N   0  0  0  0  0  0  0  0  0  0  0  0
  -30.4057   -5.2122   -4.5785 H   0  0  0  0  0  0  0  0  0  0  0  0
  -29.5948   -7.0220   -4.2462 H   0  0  0  0  0  0  0  0  0  0  0  0
  -28.2331   -8.2327   -5.2150 C   0  0  0  0  0  0  0  0  0  0  0  0
  -28.4209   -9.2290   -6.1743 C   0  0  0  0  0  0  0  0  0  0  0  0
  -27.5903  -10.3639   -6.2258 C   0  0  0  0  0  0  0  0  0  0  0  0
  -26.5273  -10.5129   -5.3389 C   0  0  0  0  0  0  0  0  0  0  0  0
  -26.3450   -9.5334   -4.3551 C   0  0  0  0  0  0  0  0  0  0  0  0
  -27.1865   -8.4050   -4.2937 C   0  0  0  0  0  0  0  0  0  0  0  0
  -25.6889  -11.6052   -5.2851 O   0  0  0  0  0  0  0  0  0  0  0  0
  -24.3471  -11.4929   -5.5677 C   0  0  0  0  0  0  0  0  0  0  0  0
  -23.8135  -11.2178   -6.8317 C   0  0  0  0  0  0  0  0  0  0  0  0
  -22.4400  -11.0435   -6.9740 C   0  0  0  0  0  0  0  0  0  0  0  0
  -21.5362  -11.0563   -5.9735 N   0  0  0  0  0  0  0  0  0  0  0  0
  -22.0936  -11.2857   -4.7709 C   0  0  0  0  0  0  0  0  0  0  0  0
  -21.4024  -11.2936   -3.5913 N   0  0  0  0  0  0  0  0  0  0  0  0
  -22.2424  -11.6027   -2.5531 C   0  0  0  0  0  0  0  0  0  0  0  0
  -23.5071  -11.7547   -3.0817 C   0  0  0  0  0  0  0  0  0  0  0  0
  -23.4309  -11.5261   -4.4846 C   0  0  0  0  0  0  0  0  0  0  0  0
  -20.4156  -11.1009   -3.5237 H   0  0  0  0  0  0  0  0  0  0  0  0
  -30.3711   -3.8459   -6.0293 N   0  0  0  0  0  0  0  0  0  0  0  0
  -29.8256   -2.9964   -5.2068 C   0  0  0  0  0  0  0  0  0  0  0  0
  -29.0483   -1.8644   -5.6647 C   0  0  0  0  0  0  0  0  0  0  0  0
  -29.2161   -0.6473   -5.0168 C   0  0  0  0  0  0  0  0  0  0  0  0
  -28.3024    0.2734   -5.5383 C   0  0  0  0  0  0  0  0  0  0  0  0
  -27.6898   -0.3435   -6.5946 C   0  0  0  0  0  0  0  0  0  0  0  0
  -28.2467   -1.6049   -6.7595 N   0  0  0  0  0  0  0  0  0  0  0  0
  -28.0729   -2.3445   -8.0214 C   0  0  0  0  0  0  0  0  0  0  0  0
  -27.2438   -1.5658   -9.0318 C   0  0  0  0  0  0  0  0  0  0  0  0
  -27.7289   -1.5827  -10.4906 C   0  0  0  0  0  0  0  0  0  0  0  0
  -26.6346   -2.0935  -11.3317 N   0  0  0  0  0  0  0  0  0  0  0  0
  -25.3133   -1.5329  -11.0286 C   0  0  0  0  0  0  0  0  0  0  0  0
  -25.0371   -0.5344  -12.1352 C   0  0  0  0  0  0  0  0  0  0  0  0
  -25.6579   -1.1984  -13.3445 C   0  0  0  0  0  0  0  0  0  0  0  0
  -26.8686   -1.9139  -12.7757 C   0  0  0  0  0  0  0  0  0  0  0  0
  1  2  2  0  0  0
  2  3  1  0  0  0
  2  4  1  0  0  0
  3 24  1  0  0  0
  3  5  1  0  0  0
 24 25  2  0  0  0
 25 26  1  0  0  0
 26 27  2  0  0  0
 26 30  1  0  0  0
 27 28  1  0  0  0
 28 29  2  0  0  0
 29 30  1  0  0  0
 30 31  1  0  0  0
 31 32  1  0  0  0
 32 33  1  0  0  0
 33 34  1  0  0  0
 34 35  1  0  0  0
 34 38  1  0  0  0
 35 36  1  0  0  0
 36 37  1  0  0  0
 37 38  1  0  0  0
  4  7  1  0  0  0
  4  6  1  0  0  0
  7  8  1  0  0  0
  7 12  2  0  0  0
  8  9  2  0  0  0
  9 10  1  0  0  0
 10 13  1  0  0  0
 10 11  2  0  0  0
 13 14  1  0  0  0
 14 15  1  0  0  0
 14 22  2  0  0  0
 15 16  2  0  0  0
 16 17  1  0  0  0
 17 18  2  0  0  0
 18 19  1  0  0  0
 18 22  1  0  0  0
 19 20  1  0  0  0
 19 23  1  0  0  0
 20 21  2  0  0  0
 21 22  1  0  0  0
 11 12  1  0  0  0
M  END
> <minimizedAffinity>
-8.89343

$$$$
