CHEMBL3926406


 35 39  0  0  0  0  0  0  0  0999 V2000
  -15.7830    2.7923  -15.5835 N   0  0  0  0  0  0  0  0  0  0  0  0
  -15.2188    1.5565  -14.9202 C   0  0  0  0  0  0  0  0  0  0  0  0
  -14.1586    0.9714  -15.6470 C   0  0  0  0  0  0  0  0  0  0  0  0
  -13.6340   -0.2352  -15.4395 C   0  0  0  0  0  0  0  0  0  0  0  0
  -14.0722   -1.0075  -14.4411 C   0  0  0  0  0  0  0  0  0  0  0  0
  -13.5934   -2.2583  -14.4463 N   0  0  0  0  0  0  0  0  0  0  0  0
  -13.8613   -3.1121  -13.4731 C   0  0  0  0  0  0  0  0  0  0  0  0
  -14.5729   -2.6735  -12.3679 C   0  0  0  0  0  0  0  0  0  0  0  0
  -15.1369   -1.3878  -12.3634 N   0  0  0  0  0  0  0  0  0  0  0  0
  -14.9608   -0.5354  -13.4643 C   0  0  0  0  0  0  0  0  0  0  0  0
  -15.5956    0.7876  -13.7128 C   0  0  0  0  0  0  0  0  0  0  0  0
  -14.3107   -3.6295  -11.2417 C   0  0  0  0  0  0  0  0  0  0  0  0
  -15.2546   -4.2670  -10.4508 C   0  0  0  0  0  0  0  0  0  0  0  0
  -14.6482   -4.7731   -9.3497 N   0  0  0  0  0  0  0  0  0  0  0  0
  -13.3591   -4.4712   -9.4121 N   0  0  0  0  0  0  0  0  0  0  0  0
  -12.3746   -4.8112   -8.3812 C   0  0  0  0  0  0  0  0  0  0  0  0
  -13.1158   -3.7665  -10.5330 C   0  0  0  0  0  0  0  0  0  0  0  0
  -14.8174    5.1936  -18.4451 C   0  0  0  0  0  0  0  0  0  0  0  0
  -13.6840    5.7962  -17.9144 C   0  0  0  0  0  0  0  0  0  0  0  0
  -13.2329    5.4436  -16.6519 C   0  0  0  0  0  0  0  0  0  0  0  0
  -13.9142    4.4438  -15.9543 C   0  0  0  0  0  0  0  0  0  0  0  0
  -15.1003    3.7934  -16.4235 C   0  0  0  0  0  0  0  0  0  0  0  0
  -15.5496    4.2177  -17.6888 C   0  0  0  0  0  0  0  0  0  0  0  0
  -15.1339    6.8523  -20.1787 C   0  0  0  0  0  0  0  0  0  0  0  0
  -15.1615    5.5723  -19.6969 O   0  0  0  0  0  0  0  0  0  0  0  0
  -12.1706    6.0598  -16.0584 O   0  0  0  0  0  0  0  0  0  0  0  0
  -11.7442    5.8147  -14.7621 C   0  0  0  0  0  0  0  0  0  0  0  0
  -17.1334    3.2130  -15.0400 C   0  0  0  0  0  0  0  0  0  0  0  0
  -18.4612    2.7632  -15.8090 C   0  0  0  0  0  0  0  0  0  0  0  0
  -19.7431    3.5677  -15.5643 C   0  0  0  0  0  0  0  0  0  0  0  0
  -20.4114    3.2548  -14.2087 C   0  0  0  0  0  0  0  0  0  0  0  0
  -20.6284    1.8143  -14.0256 N   0  0  0  0  0  0  0  0  0  0  0  0
  -19.3649    1.0690  -14.1402 C   0  0  0  0  0  0  0  0  0  0  0  0
  -18.7699    1.2638  -15.5400 C   0  0  0  0  0  0  0  0  0  0  0  0
  -21.3107    1.4668  -14.7393 H   0  0  0  0  0  0  0  0  0  0  0  0
 24 25  1  0  0  0
 25 18  1  0  0  0
 18 19  1  0  0  0
 18 23  2  0  0  0
 19 20  2  0  0  0
 20 26  1  0  0  0
 20 21  1  0  0  0
 26 27  1  0  0  0
 21 22  2  0  0  0
 22  1  1  0  0  0
 22 23  1  0  0  0
  1 28  1  0  0  0
  1  2  1  0  0  0
 28 29  1  0  0  0
 29 30  1  0  0  0
 29 34  1  0  0  0
 30 31  1  0  0  0
 31 32  1  0  0  0
 32 33  1  0  0  0
 32 35  1  0  0  0
 33 34  1  0  0  0
  2  3  1  0  0  0
  2 11  2  0  0  0
  3  4  2  0  0  0
  4  5  1  0  0  0
  5  6  1  0  0  0
  5 10  2  0  0  0
  6  7  2  0  0  0
  7  8  1  0  0  0
  8 12  1  0  0  0
  8  9  2  0  0  0
 12 13  1  0  0  0
 12 17  2  0  0  0
 13 14  2  0  0  0
 14 15  1  0  0  0
 15 16  1  0  0  0
 15 17  1  0  0  0
  9 10  1  0  0  0
 10 11  1  0  0  0
M  END
> <minimizedAffinity>
-7.29444

$$$$
