CHEMBL215952


 20 22  0  0  0  0  0  0  0  0999 V2000
  -22.9266    0.7849  -13.7105 C   0  0  0  0  0  0  0  0  0  0  0  0
  -23.0855    2.1783  -13.6469 C   0  0  0  0  0  0  0  0  0  0  0  0
  -22.0954    3.0631  -14.1059 C   0  0  0  0  0  0  0  0  0  0  0  0
  -20.8763    2.6106  -14.5768 C   0  0  0  0  0  0  0  0  0  0  0  0
  -19.9424    3.4929  -14.9584 N   0  0  0  0  0  0  0  0  0  0  0  0
  -18.7599    3.0094  -15.3437 C   0  0  0  0  0  0  0  0  0  0  0  0
  -17.8025    3.9218  -15.7354 N   0  0  0  0  0  0  0  0  0  0  0  0
  -18.4464    1.7149  -15.4176 N   0  0  0  0  0  0  0  0  0  0  0  0
  -19.4112    0.8527  -15.0405 C   0  0  0  0  0  0  0  0  0  0  0  0
  -20.6714    1.2352  -14.6099 C   0  0  0  0  0  0  0  0  0  0  0  0
  -21.6886    0.3340  -14.2081 C   0  0  0  0  0  0  0  0  0  0  0  0
  -18.2521    4.7722  -16.0394 H   0  0  0  0  0  0  0  0  0  0  0  0
  -17.1555    3.4824  -16.3744 H   0  0  0  0  0  0  0  0  0  0  0  0
  -24.8475   -0.8102  -15.5807 C   0  0  0  0  0  0  0  0  0  0  0  0
  -24.8567   -0.8942  -14.0753 C   0  0  0  0  0  0  0  0  0  0  0  0
  -25.8228   -1.7563  -13.5082 C   0  0  0  0  0  0  0  0  0  0  0  0
  -25.9042   -1.9545  -12.1349 C   0  0  0  0  0  0  0  0  0  0  0  0
  -25.0330   -1.2782  -11.2979 C   0  0  0  0  0  0  0  0  0  0  0  0
  -24.0952   -0.3934  -11.8394 C   0  0  0  0  0  0  0  0  0  0  0  0
  -23.9714   -0.1705  -13.2337 C   0  0  0  0  0  0  0  0  0  0  0  0
 14 15  1  0  0  0
 15 16  1  0  0  0
 15 20  2  0  0  0
 16 17  2  0  0  0
 17 18  1  0  0  0
 18 19  2  0  0  0
 19 20  1  0  0  0
 20  1  1  0  0  0
  1  2  1  0  0  0
  1 11  2  0  0  0
  2  3  2  0  0  0
  3  4  1  0  0  0
  4  5  1  0  0  0
  4 10  2  0  0  0
  5  6  2  0  0  0
  6  7  1  0  0  0
  6  8  1  0  0  0
  7 12  1  0  0  0
  7 13  1  0  0  0
  8  9  2  0  0  0
  9 10  1  0  0  0
 10 11  1  0  0  0
M  END
> <minimizedAffinity>
-9.48358

$$$$
