CHEMBL3968038


 37 40  0  0  0  0  0  0  0  0999 V2000
  -28.5410   -2.3136   -8.6515 N   0  0  0  0  0  0  0  0  0  0  0  0
  -27.7215   -2.0067   -9.8416 C   0  0  0  0  0  0  0  0  0  0  0  0
  -26.4262   -1.6318   -9.5172 C   0  0  0  0  0  0  0  0  0  0  0  0
  -25.5954   -1.3458  -10.4041 C   0  0  0  0  0  0  0  0  0  0  0  0
  -25.9101   -1.3983  -11.5917 C   0  0  0  0  0  0  0  0  0  0  0  0
  -24.9801   -1.0663  -12.1372 N   0  0  0  0  0  0  0  0  0  0  0  0
  -24.0622   -0.7321  -12.6180 C   0  0  0  0  0  0  0  0  0  0  0  0
  -24.2038   -0.6674  -13.8607 C   0  0  0  0  0  0  0  0  0  0  0  0
  -25.8786   -1.2697  -13.9931 N   0  0  0  0  0  0  0  0  0  0  0  0
  -26.7607   -1.6328  -12.4667 C   0  0  0  0  0  0  0  0  0  0  0  0
  -28.0488   -2.0242  -11.3405 C   0  0  0  0  0  0  0  0  0  0  0  0
  -22.4337    0.1369  -14.1434 C   0  0  0  0  0  0  0  0  0  0  0  0
  -21.1175   -0.1723  -14.7795 C   0  0  0  0  0  0  0  0  0  0  0  0
  -20.3446    0.9747  -14.9939 N   0  0  0  0  0  0  0  0  0  0  0  0
  -20.9938    2.0508  -14.5663 N   0  0  0  0  0  0  0  0  0  0  0  0
  -20.4983    3.4792  -14.7535 C   0  0  0  0  0  0  0  0  0  0  0  0
  -22.2049    1.6203  -14.0118 C   0  0  0  0  0  0  0  0  0  0  0  0
  -28.8300    0.4571   -6.2083 C   0  0  0  0  0  0  0  0  0  0  0  0
  -28.5144   -0.1464   -5.1003 C   0  0  0  0  0  0  0  0  0  0  0  0
  -28.0205   -1.3787   -5.0471 C   0  0  0  0  0  0  0  0  0  0  0  0
  -27.9836   -2.0993   -6.2226 C   0  0  0  0  0  0  0  0  0  0  0  0
  -28.3369   -1.5155   -7.4436 C   0  0  0  0  0  0  0  0  0  0  0  0
  -28.4142   -0.1099   -7.3904 C   0  0  0  0  0  0  0  0  0  0  0  0
  -30.7695    1.7834   -6.5221 C   0  0  0  0  0  0  0  0  0  0  0  0
  -29.4680    1.6245   -6.0675 O   0  0  0  0  0  0  0  0  0  0  0  0
  -27.6966   -1.8673   -3.8408 O   0  0  0  0  0  0  0  0  0  0  0  0
  -28.5717   -2.6800   -3.1208 C   0  0  0  0  0  0  0  0  0  0  0  0
  -29.2459   -3.6350   -8.5968 C   0  0  0  0  0  0  0  0  0  0  0  0
  -28.6365   -4.7868   -7.7440 C   0  0  0  0  0  0  0  0  0  0  0  0
  -27.9079   -5.5846   -8.2909 O   0  0  0  0  0  0  0  0  0  0  0  0
  -29.1125   -5.2504   -6.5826 N   0  0  0  0  0  0  0  0  0  0  0  0
  -29.8536   -4.7111   -6.1336 H   0  0  0  0  0  0  0  0  0  0  0  0
  -28.7226   -6.5937   -6.1314 C   0  0  0  0  0  0  0  0  0  0  0  0
  -28.1586   -6.5222   -4.7389 C   0  0  0  0  0  0  0  0  0  0  0  0
  -27.1789   -7.5797   -4.5253 N   0  0  0  0  0  0  0  0  0  0  0  0
  -27.6471   -8.5094   -4.6251 H   0  0  0  0  0  0  0  0  0  0  0  0
  -26.8252   -7.5011   -3.5452 H   0  0  0  0  0  0  0  0  0  0  0  0
 24 25  1  0  0  0
 25 18  1  0  0  0
 18 19  1  0  0  0
 18 23  2  0  0  0
 19 20  2  0  0  0
 20 26  1  0  0  0
 20 21  1  0  0  0
 26 27  1  0  0  0
 21 22  2  0  0  0
 22  1  1  0  0  0
 22 23  1  0  0  0
  1 28  1  0  0  0
  1  2  1  0  0  0
 28 29  1  0  0  0
 29 30  2  0  0  0
 29 31  1  0  0  0
 31 33  1  0  0  0
 31 32  1  0  0  0
 33 34  1  0  0  0
 34 35  1  0  0  0
 35 36  1  0  0  0
 35 37  1  0  0  0
  2  3  1  0  0  0
  2 11  2  0  0  0
  3  4  2  0  0  0
  4  5  1  0  0  0
  5  6  1  0  0  0
  5 10  2  0  0  0
  6  7  2  0  0  0
  7  8  1  0  0  0
  8 12  1  0  0  0
  8  9  2  0  0  0
 12 13  1  0  0  0
 12 17  2  0  0  0
 13 14  2  0  0  0
 14 15  1  0  0  0
 15 16  1  0  0  0
 15 17  1  0  0  0
  9 10  1  0  0  0
 10 11  1  0  0  0
M  END
> <minimizedAffinity>
-7.91273

$$$$
