CHEMBL3896476


 25 27  0  0  0  0  0  0  0  0999 V2000
  -27.7284   -2.2311  -10.4321 N   0  0  0  0  0  0  0  0  0  0  0  0
  -28.7300   -2.0725  -10.5771 H   0  0  0  0  0  0  0  0  0  0  0  0
  -27.5686   -2.0523  -13.0222 S   0  0  0  0  0  0  0  0  0  0  0  0
  -26.8891   -1.9973  -11.4926 C   0  0  0  0  0  0  0  0  0  0  0  0
  -25.5725   -1.7641  -11.1535 N   0  0  0  0  0  0  0  0  0  0  0  0
  -25.2804   -2.2989  -10.3444 H   0  0  0  0  0  0  0  0  0  0  0  0
  -24.5687   -1.1645  -11.9457 C   0  0  0  0  0  0  0  0  0  0  0  0
  -23.6991   -1.9183  -12.7423 C   0  0  0  0  0  0  0  0  0  0  0  0
  -22.6998   -1.2984  -13.4965 C   0  0  0  0  0  0  0  0  0  0  0  0
  -22.5793    0.0858  -13.4718 C   0  0  0  0  0  0  0  0  0  0  0  0
  -21.3260    0.8488  -14.3693 Cl  0  0  0  0  0  0  0  0  0  0  0  0
  -23.4716    0.8539  -12.7257 C   0  0  0  0  0  0  0  0  0  0  0  0
  -24.4786    0.2299  -11.9773 C   0  0  0  0  0  0  0  0  0  0  0  0
  -27.3922   -3.1021   -9.3679 N   0  0  0  0  0  0  0  0  0  0  0  0
  -26.3757   -3.1822   -9.2797 H   0  0  0  0  0  0  0  0  0  0  0  0
  -27.8639   -2.5575   -8.1238 C   0  0  0  0  0  0  0  0  0  0  0  0
  -27.5022   -1.2903   -7.7843 N   0  0  0  0  0  0  0  0  0  0  0  0
  -27.8928   -0.7354   -6.6053 N   0  0  0  0  0  0  0  0  0  0  0  0
  -28.6679   -1.4523   -5.7738 C   0  0  0  0  0  0  0  0  0  0  0  0
  -29.0953   -2.7415   -6.0589 C   0  0  0  0  0  0  0  0  0  0  0  0
  -29.9225   -3.4471   -5.1680 C   0  0  0  0  0  0  0  0  0  0  0  0
  -30.3570   -4.7332   -5.4775 C   0  0  0  0  0  0  0  0  0  0  0  0
  -29.9670   -5.3293   -6.6722 C   0  0  0  0  0  0  0  0  0  0  0  0
  -29.1395   -4.6385   -7.5618 C   0  0  0  0  0  0  0  0  0  0  0  0
  -28.6852   -3.3295   -7.2739 C   0  0  0  0  0  0  0  0  0  0  0  0
  3  4  2  0  0  0
  4  1  1  0  0  0
  4  5  1  0  0  0
  1 14  1  0  0  0
  1  2  1  0  0  0
 14 16  1  0  0  0
 14 15  1  0  0  0
 16 17  1  0  0  0
 16 25  2  0  0  0
 17 18  2  0  0  0
 18 19  1  0  0  0
 19 20  2  0  0  0
 20 21  1  0  0  0
 20 25  1  0  0  0
 21 22  2  0  0  0
 22 23  1  0  0  0
 23 24  2  0  0  0
 24 25  1  0  0  0
  5  7  1  0  0  0
  5  6  1  0  0  0
  7  8  1  0  0  0
  7 13  2  0  0  0
  8  9  2  0  0  0
  9 10  1  0  0  0
 10 11  1  0  0  0
 10 12  2  0  0  0
 12 13  1  0  0  0
M  END
> <minimizedAffinity>
-9.11041

$$$$
