CHEMBL3976229


 33 36  0  0  0  0  0  0  0  0999 V2000
  -14.7362   -0.2807  -14.8399 C   0  0  0  0  0  0  0  0  0  0  0  0
  -15.7127    0.0286  -13.9736 N   0  0  0  0  0  0  0  0  0  0  0  0
  -15.8904   -0.8073  -12.9258 C   0  0  0  0  0  0  0  0  0  0  0  0
  -15.1345   -1.9408  -12.7081 C   0  0  0  0  0  0  0  0  0  0  0  0
  -14.1352   -2.1535  -13.6398 C   0  0  0  0  0  0  0  0  0  0  0  0
  -13.9466   -1.3566  -14.7039 N   0  0  0  0  0  0  0  0  0  0  0  0
  -13.2211   -3.3444  -13.5495 C   0  0  0  0  0  0  0  0  0  0  0  0
  -13.2077   -3.8985  -12.1273 C   0  0  0  0  0  0  0  0  0  0  0  0
  -14.5861   -4.0875  -11.6826 N   0  0  0  0  0  0  0  0  0  0  0  0
  -15.2587   -5.3003  -11.5257 C   0  0  0  0  0  0  0  0  0  0  0  0
  -16.3645   -5.3316  -10.9898 O   0  0  0  0  0  0  0  0  0  0  0  0
  -15.3253   -2.8382  -11.5175 C   0  0  0  0  0  0  0  0  0  0  0  0
  -14.6273   -6.5269  -12.0054 C   0  0  0  0  0  0  0  0  0  0  0  0
  -13.6984   -7.3767  -11.4330 C   0  0  0  0  0  0  0  0  0  0  0  0
  -13.4532   -8.3979  -12.3682 C   0  0  0  0  0  0  0  0  0  0  0  0
  -12.5659   -9.5717  -12.2038 C   0  0  0  0  0  0  0  0  0  0  0  0
  -14.1374   -8.1923  -13.4935 N   0  0  0  0  0  0  0  0  0  0  0  0
  -14.8008   -7.0396  -13.2730 N   0  0  0  0  0  0  0  0  0  0  0  0
  -15.6480   -6.5088  -14.3184 C   0  0  0  0  0  0  0  0  0  0  0  0
  -14.5266    0.5730  -15.9287 N   0  0  0  0  0  0  0  0  0  0  0  0
  -14.0156    0.0556  -16.6336 H   0  0  0  0  0  0  0  0  0  0  0  0
  -14.4175    4.2709  -16.5098 C   0  0  0  0  0  0  0  0  0  0  0  0
  -14.7748    2.9205  -16.6051 C   0  0  0  0  0  0  0  0  0  0  0  0
  -14.1548    1.9302  -15.8309 C   0  0  0  0  0  0  0  0  0  0  0  0
  -13.1913    2.3173  -14.9014 C   0  0  0  0  0  0  0  0  0  0  0  0
  -12.7876    3.6569  -14.8099 C   0  0  0  0  0  0  0  0  0  0  0  0
  -13.4187    4.6486  -15.5929 C   0  0  0  0  0  0  0  0  0  0  0  0
  -14.4658    5.2559  -18.6810 C   0  0  0  0  0  0  0  0  0  0  0  0
  -14.9452    5.2256  -17.3414 O   0  0  0  0  0  0  0  0  0  0  0  0
  -11.8088    4.0803  -13.9400 O   0  0  0  0  0  0  0  0  0  0  0  0
  -11.6565    3.2991  -12.7596 C   0  0  0  0  0  0  0  0  0  0  0  0
  -12.9300    5.9256  -15.4266 O   0  0  0  0  0  0  0  0  0  0  0  0
  -11.8607    6.3208  -16.2758 C   0  0  0  0  0  0  0  0  0  0  0  0
 28 29  1  0  0  0
 29 22  1  0  0  0
 22 23  1  0  0  0
 22 27  2  0  0  0
 23 24  2  0  0  0
 24 20  1  0  0  0
 24 25  1  0  0  0
 20  1  1  0  0  0
 20 21  1  0  0  0
  1  2  1  0  0  0
  1  6  2  0  0  0
  2  3  2  0  0  0
  3  4  1  0  0  0
  4  5  2  0  0  0
  4 12  1  0  0  0
  5  6  1  0  0  0
  5  7  1  0  0  0
  7  8  1  0  0  0
  8  9  1  0  0  0
  9 10  1  0  0  0
  9 12  1  0  0  0
 10 11  2  0  0  0
 10 13  1  0  0  0
 13 14  2  0  0  0
 13 18  1  0  0  0
 14 15  1  0  0  0
 15 16  1  0  0  0
 15 17  2  0  0  0
 17 18  1  0  0  0
 18 19  1  0  0  0
 25 26  2  0  0  0
 26 30  1  0  0  0
 26 27  1  0  0  0
 30 31  1  0  0  0
 27 32  1  0  0  0
 32 33  1  0  0  0
M  END
> <minimizedAffinity>
-6.97279

$$$$
