CHEMBL1241484


 24 26  0  0  0  0  0  0  0  0999 V2000
  -28.7055   -1.0059   -6.5216 N   0  0  0  0  0  0  0  0  0  0  0  0
  -28.1691   -0.5994   -7.6894 N   0  0  0  0  0  0  0  0  0  0  0  0
  -27.9159   -1.7362   -8.3633 C   0  0  0  0  0  0  0  0  0  0  0  0
  -28.2577   -2.8856   -7.5775 C   0  0  0  0  0  0  0  0  0  0  0  0
  -28.2007   -4.2868   -7.6611 C   0  0  0  0  0  0  0  0  0  0  0  0
  -27.6477   -5.0130   -8.7084 N   0  0  0  0  0  0  0  0  0  0  0  0
  -28.7040   -5.0194   -6.6459 N   0  0  0  0  0  0  0  0  0  0  0  0
  -29.2215   -4.3803   -5.5814 C   0  0  0  0  0  0  0  0  0  0  0  0
  -29.2935   -3.0579   -5.3713 N   0  0  0  0  0  0  0  0  0  0  0  0
  -28.7948   -2.3675   -6.4110 C   0  0  0  0  0  0  0  0  0  0  0  0
  -26.8366   -4.5859   -9.1380 H   0  0  0  0  0  0  0  0  0  0  0  0
  -27.5284   -5.9833   -8.4331 H   0  0  0  0  0  0  0  0  0  0  0  0
  -27.3603   -1.6711   -9.7211 C   0  0  0  0  0  0  0  0  0  0  0  0
  -28.1978   -1.5637  -10.8424 C   0  0  0  0  0  0  0  0  0  0  0  0
  -27.6718   -1.5537  -12.1381 C   0  0  0  0  0  0  0  0  0  0  0  0
  -26.2941   -1.5893  -12.3219 C   0  0  0  0  0  0  0  0  0  0  0  0
  -25.6496   -1.5620  -13.9196 Cl  0  0  0  0  0  0  0  0  0  0  0  0
  -25.4476   -1.6358  -11.2131 C   0  0  0  0  0  0  0  0  0  0  0  0
  -24.0855   -1.6291  -11.3452 O   0  0  0  0  0  0  0  0  0  0  0  0
  -25.9715   -1.6868   -9.9218 C   0  0  0  0  0  0  0  0  0  0  0  0
  -23.8889   -1.5279  -12.2952 H   0  0  0  0  0  0  0  0  0  0  0  0
  -27.8786    0.5826   -4.8221 C   0  0  0  0  0  0  0  0  0  0  0  0
  -29.0982   -0.0288   -5.5111 C   0  0  0  0  0  0  0  0  0  0  0  0
  -30.0040    1.0569   -6.0948 C   0  0  0  0  0  0  0  0  0  0  0  0
 22 23  1  0  0  0
 23 24  1  0  0  0
 23  1  1  0  0  0
  1  2  1  0  0  0
  1 10  1  0  0  0
  2  3  2  0  0  0
  3 13  1  0  0  0
  3  4  1  0  0  0
 13 14  1  0  0  0
 13 20  2  0  0  0
 14 15  2  0  0  0
 15 16  1  0  0  0
 16 17  1  0  0  0
 16 18  2  0  0  0
 18 19  1  0  0  0
 18 20  1  0  0  0
 19 21  1  0  0  0
  4  5  1  0  0  0
  4 10  2  0  0  0
  5  6  1  0  0  0
  5  7  2  0  0  0
  6 11  1  0  0  0
  6 12  1  0  0  0
  7  8  1  0  0  0
  8  9  2  0  0  0
  9 10  1  0  0  0
M  END
> <minimizedAffinity>
-7.94969

$$$$
