CHEMBL3986102


 40 43  0  0  0  0  0  0  0  0999 V2000
  -25.7038   10.1807  -15.9440 C   0  0  0  0  0  0  0  0  0  0  0  0
  -26.9828    9.9190  -16.4795 C   0  0  0  0  0  0  0  0  0  0  0  0
  -28.1476   10.4259  -15.9476 C   0  0  0  0  0  0  0  0  0  0  0  0
  -29.2946   10.0671  -16.5257 N   0  0  0  0  0  0  0  0  0  0  0  0
  -30.4083   10.5578  -15.9857 C   0  0  0  0  0  0  0  0  0  0  0  0
  -30.4603   11.3843  -14.9430 N   0  0  0  0  0  0  0  0  0  0  0  0
  -29.2863   11.7474  -14.3833 C   0  0  0  0  0  0  0  0  0  0  0  0
  -28.0572   11.2631  -14.8442 C   0  0  0  0  0  0  0  0  0  0  0  0
  -26.7858   11.5436  -14.2814 C   0  0  0  0  0  0  0  0  0  0  0  0
  -25.6106   11.0263  -14.8356 C   0  0  0  0  0  0  0  0  0  0  0  0
  -29.3055   12.6576  -13.2932 N   0  0  0  0  0  0  0  0  0  0  0  0
  -29.3429   13.6066  -13.6555 H   0  0  0  0  0  0  0  0  0  0  0  0
  -30.1032   12.4693  -12.1481 C   0  0  0  0  0  0  0  0  0  0  0  0
  -31.4918   12.3167  -12.2740 C   0  0  0  0  0  0  0  0  0  0  0  0
  -32.3058   12.2230  -11.1499 C   0  0  0  0  0  0  0  0  0  0  0  0
  -31.7373   12.2699   -9.8769 C   0  0  0  0  0  0  0  0  0  0  0  0
  -32.8050   12.2012   -8.5222 Cl  0  0  0  0  0  0  0  0  0  0  0  0
  -30.3503   12.3866   -9.7377 C   0  0  0  0  0  0  0  0  0  0  0  0
  -29.5773   12.4495   -8.1925 Cl  0  0  0  0  0  0  0  0  0  0  0  0
  -29.5355   12.4775  -10.8719 C   0  0  0  0  0  0  0  0  0  0  0  0
  -24.4895   11.3927  -14.1465 O   0  0  0  0  0  0  0  0  0  0  0  0
  -24.6706   12.1716  -12.9716 C   0  0  0  0  0  0  0  0  0  0  0  0
  -24.5607    9.5974  -16.4560 O   0  0  0  0  0  0  0  0  0  0  0  0
  -23.7912   10.4947  -17.2629 C   0  0  0  0  0  0  0  0  0  0  0  0
  -21.7573   12.1491  -18.5299 N   0  0  0  0  0  0  0  0  0  0  0  0
  -20.4993   11.5502  -18.0576 C   0  0  0  0  0  0  0  0  0  0  0  0
  -20.8010   10.4248  -17.0541 C   0  0  0  0  0  0  0  0  0  0  0  0
  -21.6806   10.8441  -15.9969 O   0  0  0  0  0  0  0  0  0  0  0  0
  -22.8971   11.4575  -16.4767 C   0  0  0  0  0  0  0  0  0  0  0  0
  -22.5724   12.6537  -17.4067 C   0  0  0  0  0  0  0  0  0  0  0  0
  -22.0701   12.4039  -19.8541 C   0  0  0  0  0  0  0  0  0  0  0  0
  -23.3132   12.3678  -20.2211 N   0  0  0  0  0  0  0  0  0  0  0  0
  -20.9244   12.6185  -20.5822 N   0  0  0  0  0  0  0  0  0  0  0  0
  -20.4581   13.4880  -20.3276 H   0  0  0  0  0  0  0  0  0  0  0  0
  -19.9614   11.6214  -21.0288 C   0  0  0  0  0  0  0  0  0  0  0  0
  -19.0428   12.2051  -22.1116 C   0  0  0  0  0  0  0  0  0  0  0  0
  -18.3846    9.9338  -22.1830 C   0  0  0  0  0  0  0  0  0  0  0  0
  -17.9698   11.2841  -22.3458 O   0  0  0  0  0  0  0  0  0  0  0  0
  -23.6802   12.5254  -21.4901 C   0  0  0  0  0  0  0  0  0  0  0  0
  -23.9732   12.6568  -22.6098 N   0  0  0  0  0  0  0  0  0  0  0  0
 37 38  1  0  0  0
 38 36  1  0  0  0
 36 35  1  0  0  0
 35 33  1  0  0  0
 33 31  1  0  0  0
 33 34  1  0  0  0
 31 32  2  0  0  0
 31 25  1  0  0  0
 32 39  1  0  0  0
 39 40  3  0  0  0
 25 26  1  0  0  0
 25 30  1  0  0  0
 26 27  1  0  0  0
 27 28  1  0  0  0
 28 29  1  0  0  0
 29 24  1  0  0  0
 29 30  1  0  0  0
 24 23  1  0  0  0
 23  1  1  0  0  0
  1  2  1  0  0  0
  1 10  2  0  0  0
  2  3  2  0  0  0
  3  4  1  0  0  0
  3  8  1  0  0  0
  4  5  2  0  0  0
  5  6  1  0  0  0
  6  7  2  0  0  0
  7 11  1  0  0  0
  7  8  1  0  0  0
 11 13  1  0  0  0
 11 12  1  0  0  0
 13 14  1  0  0  0
 13 20  2  0  0  0
 14 15  2  0  0  0
 15 16  1  0  0  0
 16 17  1  0  0  0
 16 18  2  0  0  0
 18 19  1  0  0  0
 18 20  1  0  0  0
  8  9  2  0  0  0
  9 10  1  0  0  0
 10 21  1  0  0  0
 21 22  1  0  0  0
M  END
> <minimizedAffinity>
-4.01262

$$$$
