CHEMBL256824


 36 39  0  0  0  0  0  0  0  0999 V2000
  -27.7061   -2.0919   -9.3892 C   0  0  0  0  0  0  0  0  0  0  0  0
  -28.3035   -1.6384  -10.5684 C   0  0  0  0  0  0  0  0  0  0  0  0
  -27.5483   -1.2506  -11.6778 C   0  0  0  0  0  0  0  0  0  0  0  0
  -26.1601   -1.1802  -11.6118 C   0  0  0  0  0  0  0  0  0  0  0  0
  -25.5383   -1.5348  -10.4130 C   0  0  0  0  0  0  0  0  0  0  0  0
  -26.3021   -1.9903   -9.3204 C   0  0  0  0  0  0  0  0  0  0  0  0
  -29.9493   -2.1043   -3.6276 C   0  0  0  0  0  0  0  0  0  0  0  0
  -29.3228   -1.8608   -4.9052 N   0  0  0  0  0  0  0  0  0  0  0  0
  -28.5704   -0.7688   -5.0643 N   0  0  0  0  0  0  0  0  0  0  0  0
  -28.1623   -0.8388   -6.3266 C   0  0  0  0  0  0  0  0  0  0  0  0
  -27.3868    0.1306   -6.8301 N   0  0  0  0  0  0  0  0  0  0  0  0
  -28.6283   -2.0151   -7.0071 C   0  0  0  0  0  0  0  0  0  0  0  0
  -28.5142   -2.6361   -8.2812 C   0  0  0  0  0  0  0  0  0  0  0  0
  -29.2343   -3.8336   -8.4094 C   0  0  0  0  0  0  0  0  0  0  0  0
  -30.0009   -4.4195   -7.4575 N   0  0  0  0  0  0  0  0  0  0  0  0
  -30.0920   -3.8317   -6.2510 C   0  0  0  0  0  0  0  0  0  0  0  0
  -29.4123   -2.6476   -6.0239 C   0  0  0  0  0  0  0  0  0  0  0  0
  -27.2148    0.9321   -6.2347 H   0  0  0  0  0  0  0  0  0  0  0  0
  -27.3810    0.3419   -7.8195 H   0  0  0  0  0  0  0  0  0  0  0  0
  -25.3708   -0.8036  -12.7213 N   0  0  0  0  0  0  0  0  0  0  0  0
  -24.2228   -0.0295  -12.6518 C   0  0  0  0  0  0  0  0  0  0  0  0
  -23.6243    0.2535  -11.6199 O   0  0  0  0  0  0  0  0  0  0  0  0
  -23.8467    0.4438  -13.9011 N   0  0  0  0  0  0  0  0  0  0  0  0
  -25.5223   -1.2971  -13.5918 H   0  0  0  0  0  0  0  0  0  0  0  0
  -24.6289    0.6689  -14.5004 H   0  0  0  0  0  0  0  0  0  0  0  0
  -22.6884    1.2404  -14.0509 C   0  0  0  0  0  0  0  0  0  0  0  0
  -22.7967    2.6232  -13.9003 C   0  0  0  0  0  0  0  0  0  0  0  0
  -21.6610    3.4247  -14.0229 C   0  0  0  0  0  0  0  0  0  0  0  0
  -20.4366    2.8534  -14.3632 C   0  0  0  0  0  0  0  0  0  0  0  0
  -19.3795    3.6624  -14.5077 F   0  0  0  0  0  0  0  0  0  0  0  0
  -20.3124    1.4827  -14.5654 C   0  0  0  0  0  0  0  0  0  0  0  0
  -21.4459    0.6723  -14.3673 C   0  0  0  0  0  0  0  0  0  0  0  0
  -19.0184    0.8798  -15.0252 C   0  0  0  0  0  0  0  0  0  0  0  0
  -18.3837    1.5669  -16.0143 F   0  0  0  0  0  0  0  0  0  0  0  0
  -18.1075    0.7485  -14.0218 F   0  0  0  0  0  0  0  0  0  0  0  0
  -19.1990   -0.3787  -15.5238 F   0  0  0  0  0  0  0  0  0  0  0  0
  7  8  1  0  0  0
  8  9  1  0  0  0
  8 17  1  0  0  0
  9 10  2  0  0  0
 10 11  1  0  0  0
 10 12  1  0  0  0
 11 18  1  0  0  0
 11 19  1  0  0  0
 12 13  1  0  0  0
 12 17  2  0  0  0
 13  1  1  0  0  0
 13 14  2  0  0  0
  1  2  1  0  0  0
  1  6  2  0  0  0
  2  3  2  0  0  0
  3  4  1  0  0  0
  4 20  1  0  0  0
  4  5  2  0  0  0
 20 21  1  0  0  0
 20 24  1  0  0  0
 21 22  2  0  0  0
 21 23  1  0  0  0
 23 26  1  0  0  0
 23 25  1  0  0  0
 26 27  1  0  0  0
 26 32  2  0  0  0
 27 28  2  0  0  0
 28 29  1  0  0  0
 29 30  1  0  0  0
 29 31  2  0  0  0
 31 33  1  0  0  0
 31 32  1  0  0  0
 33 34  1  0  0  0
 33 35  1  0  0  0
 33 36  1  0  0  0
  5  6  1  0  0  0
 14 15  1  0  0  0
 15 16  2  0  0  0
 16 17  1  0  0  0
M  END
> <minimizedAffinity>
-9.30098

$$$$
