CHEMBL3671565


 42 45  0  0  0  0  0  0  0  0999 V2000
  -27.1392   -8.6487   -4.6293 C   0  0  0  0  0  0  0  0  0  0  0  0
  -27.4096   -7.2959   -4.8725 C   0  0  0  0  0  0  0  0  0  0  0  0
  -28.6219   -6.7116   -4.4364 C   0  0  0  0  0  0  0  0  0  0  0  0
  -29.1062   -5.4451   -4.8092 C   0  0  0  0  0  0  0  0  0  0  0  0
  -30.2736   -4.9615   -4.3386 N   0  0  0  0  0  0  0  0  0  0  0  0
  -30.9710   -5.7457   -3.5166 C   0  0  0  0  0  0  0  0  0  0  0  0
  -30.6301   -6.9772   -3.1389 N   0  0  0  0  0  0  0  0  0  0  0  0
  -29.4820   -7.4544   -3.6205 C   0  0  0  0  0  0  0  0  0  0  0  0
  -29.1573   -8.7673   -3.3243 C   0  0  0  0  0  0  0  0  0  0  0  0
  -28.0318   -9.4140   -3.8609 C   0  0  0  0  0  0  0  0  0  0  0  0
  -24.8405   -9.4439   -4.4626 C   0  0  0  0  0  0  0  0  0  0  0  0
  -24.7297   -9.3137   -3.2470 O   0  0  0  0  0  0  0  0  0  0  0  0
  -25.9673   -9.1685   -5.2135 N   0  0  0  0  0  0  0  0  0  0  0  0
  -26.0869   -9.7764   -6.0160 H   0  0  0  0  0  0  0  0  0  0  0  0
  -24.0630  -10.8820   -6.3021 C   0  0  0  0  0  0  0  0  0  0  0  0
  -23.7689  -10.0657   -5.2843 C   0  0  0  0  0  0  0  0  0  0  0  0
  -28.4064   -4.6723   -5.7752 N   0  0  0  0  0  0  0  0  0  0  0  0
  -27.4323   -4.9541   -5.8265 H   0  0  0  0  0  0  0  0  0  0  0  0
  -28.5660   -3.2743   -5.9237 C   0  0  0  0  0  0  0  0  0  0  0  0
  -29.0317   -2.4816   -4.8642 C   0  0  0  0  0  0  0  0  0  0  0  0
  -29.0953   -1.0916   -4.9785 C   0  0  0  0  0  0  0  0  0  0  0  0
  -28.7088   -0.4804   -6.1693 C   0  0  0  0  0  0  0  0  0  0  0  0
  -28.7124    1.4050   -6.2939 Br  0  0  0  0  0  0  0  0  0  0  0  0
  -28.3027   -1.2442   -7.2602 C   0  0  0  0  0  0  0  0  0  0  0  0
  -28.2473   -2.6343   -7.1293 C   0  0  0  0  0  0  0  0  0  0  0  0
  -27.8434   -3.3691   -8.1764 F   0  0  0  0  0  0  0  0  0  0  0  0
  -27.7525  -10.7443   -3.6112 O   0  0  0  0  0  0  0  0  0  0  0  0
  -28.8968  -11.5306   -3.2401 C   0  0  0  0  0  0  0  0  0  0  0  0
  -29.4946  -12.3254   -4.4045 C   0  0  0  0  0  0  0  0  0  0  0  0
  -28.9098  -11.8862   -5.6775 N   0  0  0  0  0  0  0  0  0  0  0  0
  -29.6596  -11.7793   -6.8168 C   0  0  0  0  0  0  0  0  0  0  0  0
  -30.8294  -12.1557   -6.8440 O   0  0  0  0  0  0  0  0  0  0  0  0
  -29.0291  -11.2438   -7.9286 N   0  0  0  0  0  0  0  0  0  0  0  0
  -27.6100  -10.8629   -8.0491 C   0  0  0  0  0  0  0  0  0  0  0  0
  -27.3993   -9.6773   -9.0136 C   0  0  0  0  0  0  0  0  0  0  0  0
  -28.0970   -9.8616  -10.2912 N   0  0  0  0  0  0  0  0  0  0  0  0
  -27.4587   -9.4750  -11.4566 C   0  0  0  0  0  0  0  0  0  0  0  0
  -28.1435   -9.6513  -12.7914 C   0  0  0  0  0  0  0  0  0  0  0  0
  -26.3095   -9.0229  -11.4457 O   0  0  0  0  0  0  0  0  0  0  0  0
  -29.5180  -10.1930  -10.1401 C   0  0  0  0  0  0  0  0  0  0  0  0
  -29.7103  -11.4041   -9.2200 C   0  0  0  0  0  0  0  0  0  0  0  0
  -28.0872  -11.3152   -5.5949 H   0  0  0  0  0  0  0  0  0  0  0  0
 15 16  2  0  0  0
 16 11  1  0  0  0
 11 12  2  0  0  0
 11 13  1  0  0  0
 13  1  1  0  0  0
 13 14  1  0  0  0
  1  2  1  0  0  0
  1 10  2  0  0  0
  2  3  2  0  0  0
  3  4  1  0  0  0
  3  8  1  0  0  0
  4 17  1  0  0  0
  4  5  2  0  0  0
 17 19  1  0  0  0
 17 18  1  0  0  0
 19 20  1  0  0  0
 19 25  2  0  0  0
 20 21  2  0  0  0
 21 22  1  0  0  0
 22 23  1  0  0  0
 22 24  2  0  0  0
 24 25  1  0  0  0
 25 26  1  0  0  0
  5  6  1  0  0  0
  6  7  2  0  0  0
  7  8  1  0  0  0
  8  9  2  0  0  0
  9 10  1  0  0  0
 10 27  1  0  0  0
 27 28  1  0  0  0
 28 29  1  0  0  0
 29 30  1  0  0  0
 30 31  1  0  0  0
 30 42  1  0  0  0
 31 32  2  0  0  0
 31 33  1  0  0  0
 33 34  1  0  0  0
 33 41  1  0  0  0
 34 35  1  0  0  0
 35 36  1  0  0  0
 36 37  1  0  0  0
 36 40  1  0  0  0
 37 38  1  0  0  0
 37 39  2  0  0  0
 40 41  1  0  0  0
M  END
> <minimizedAffinity>
-8.31080

$$$$
