CHEMBL495962


 33 36  0  0  0  0  0  0  0  0999 V2000
  -25.3366   -1.2700  -12.8640 C   0  0  0  0  0  0  0  0  0  0  0  0
  -24.5310   -1.6221  -11.7759 C   0  0  0  0  0  0  0  0  0  0  0  0
  -23.2042   -1.1915  -11.6957 C   0  0  0  0  0  0  0  0  0  0  0  0
  -22.7518   -0.3886  -12.7422 C   0  0  0  0  0  0  0  0  0  0  0  0
  -21.5472    0.2095  -12.9850 N   0  0  0  0  0  0  0  0  0  0  0  0
  -21.6299    0.9327  -14.1560 C   0  0  0  0  0  0  0  0  0  0  0  0
  -22.8294    0.7717  -14.6979 N   0  0  0  0  0  0  0  0  0  0  0  0
  -23.5348   -0.0198  -13.8270 C   0  0  0  0  0  0  0  0  0  0  0  0
  -24.8584   -0.4629  -13.9029 C   0  0  0  0  0  0  0  0  0  0  0  0
  -20.7208    0.1549  -12.3986 H   0  0  0  0  0  0  0  0  0  0  0  0
  -20.4904    1.6653  -14.6216 C   0  0  0  0  0  0  0  0  0  0  0  0
  -19.4169    1.0065  -15.1305 C   0  0  0  0  0  0  0  0  0  0  0  0
  -19.3623   -0.3750  -15.3395 N   0  0  0  0  0  0  0  0  0  0  0  0
  -18.1907    1.7797  -15.4753 C   0  0  0  0  0  0  0  0  0  0  0  0
  -17.0125    1.1794  -15.9489 C   0  0  0  0  0  0  0  0  0  0  0  0
  -15.8591    1.9369  -16.1784 C   0  0  0  0  0  0  0  0  0  0  0  0
  -15.8714    3.3129  -15.9684 C   0  0  0  0  0  0  0  0  0  0  0  0
  -17.0388    3.9358  -15.5428 C   0  0  0  0  0  0  0  0  0  0  0  0
  -18.1808    3.1702  -15.2950 C   0  0  0  0  0  0  0  0  0  0  0  0
  -19.3303    3.8168  -14.8483 N   0  0  0  0  0  0  0  0  0  0  0  0
  -20.4770    3.1653  -14.5131 C   0  0  0  0  0  0  0  0  0  0  0  0
  -21.4531    3.8061  -14.1223 O   0  0  0  0  0  0  0  0  0  0  0  0
  -20.1765   -0.8408  -14.9154 H   0  0  0  0  0  0  0  0  0  0  0  0
  -18.5067   -0.7976  -14.9916 H   0  0  0  0  0  0  0  0  0  0  0  0
  -19.3473    4.8233  -14.7508 H   0  0  0  0  0  0  0  0  0  0  0  0
  -27.4720   -1.8392  -11.7912 C   0  0  0  0  0  0  0  0  0  0  0  0
  -28.6634   -2.1673  -11.8676 O   0  0  0  0  0  0  0  0  0  0  0  0
  -26.6676   -1.7304  -12.9228 N   0  0  0  0  0  0  0  0  0  0  0  0
  -27.1993   -1.9718  -14.2539 C   0  0  0  0  0  0  0  0  0  0  0  0
  -26.8399   -1.5584  -10.4145 C   0  0  0  0  0  0  0  0  0  0  0  0
  -27.6202   -3.1446   -8.7474 C   0  0  0  0  0  0  0  0  0  0  0  0
  -27.7908   -1.8012   -9.3018 N   0  0  0  0  0  0  0  0  0  0  0  0
  -27.5796   -0.8004   -8.2521 C   0  0  0  0  0  0  0  0  0  0  0  0
 31 32  1  0  0  0
 32 33  1  0  0  0
 32 30  1  0  0  0
 30 26  1  0  0  0
 26 27  2  0  0  0
 26 28  1  0  0  0
 28 29  1  0  0  0
 28  1  1  0  0  0
  1  2  1  0  0  0
  1  9  2  0  0  0
  2  3  2  0  0  0
  3  4  1  0  0  0
  4  5  1  0  0  0
  4  8  2  0  0  0
  5  6  1  0  0  0
  5 10  1  0  0  0
  6 11  1  0  0  0
  6  7  2  0  0  0
 11 12  2  0  0  0
 11 21  1  0  0  0
 12 13  1  0  0  0
 12 14  1  0  0  0
 13 23  1  0  0  0
 13 24  1  0  0  0
 14 15  1  0  0  0
 14 19  2  0  0  0
 15 16  2  0  0  0
 16 17  1  0  0  0
 17 18  2  0  0  0
 18 19  1  0  0  0
 19 20  1  0  0  0
 20 21  1  0  0  0
 20 25  1  0  0  0
 21 22  2  0  0  0
  7  8  1  0  0  0
  8  9  1  0  0  0
M  END
> <minimizedAffinity>
-8.39785

$$$$
