CHEMBL2403366


 31 34  0  0  0  0  0  0  0  0999 V2000
  -18.0752    1.8142  -15.3870 C   0  0  0  0  0  0  0  0  0  0  0  0
  -17.8585    2.9110  -16.1992 C   0  0  0  0  0  0  0  0  0  0  0  0
  -16.4668    3.1756  -16.2129 C   0  0  0  0  0  0  0  0  0  0  0  0
  -15.8864    2.2758  -15.3547 C   0  0  0  0  0  0  0  0  0  0  0  0
  -16.8629    1.4610  -14.8374 N   0  0  0  0  0  0  0  0  0  0  0  0
  -14.4411    2.1603  -15.0966 C   0  0  0  0  0  0  0  0  0  0  0  0
  -13.6241    3.2231  -15.8638 C   0  0  0  0  0  0  0  0  0  0  0  0
  -14.2758    4.1300  -16.8337 N   0  0  0  0  0  0  0  0  0  0  0  0
  -13.5609    5.0915  -17.5525 C   0  0  0  0  0  0  0  0  0  0  0  0
  -14.1129    5.8486  -18.3581 O   0  0  0  0  0  0  0  0  0  0  0  0
  -15.7319    4.1753  -17.0197 C   0  0  0  0  0  0  0  0  0  0  0  0
  -16.7067    0.6733  -14.2228 H   0  0  0  0  0  0  0  0  0  0  0  0
  -23.1920   -0.6807  -13.4654 C   0  0  0  0  0  0  0  0  0  0  0  0
  -24.1141    0.3511  -13.2015 C   0  0  0  0  0  0  0  0  0  0  0  0
  -23.7635    1.6842  -13.4036 C   0  0  0  0  0  0  0  0  0  0  0  0
  -22.4958    1.9332  -13.8860 C   0  0  0  0  0  0  0  0  0  0  0  0
  -21.5802    0.9250  -14.2078 C   0  0  0  0  0  0  0  0  0  0  0  0
  -21.9208   -0.3988  -13.9933 C   0  0  0  0  0  0  0  0  0  0  0  0
  -20.3702    1.6112  -14.6895 C   0  0  0  0  0  0  0  0  0  0  0  0
  -19.2342    1.0413  -15.1285 C   0  0  0  0  0  0  0  0  0  0  0  0
  -20.6562    3.0933  -14.5958 C   0  0  0  0  0  0  0  0  0  0  0  0
  -19.9625    4.0449  -14.9169 O   0  0  0  0  0  0  0  0  0  0  0  0
  -21.9450    3.1846  -14.1116 N   0  0  0  0  0  0  0  0  0  0  0  0
  -22.3947    4.0723  -13.9529 H   0  0  0  0  0  0  0  0  0  0  0  0
  -23.8355   -2.2108  -11.8165 C   0  0  0  0  0  0  0  0  0  0  0  0
  -23.6354   -1.9514  -13.2039 O   0  0  0  0  0  0  0  0  0  0  0  0
  -12.0685    5.1896  -17.2767 C   0  0  0  0  0  0  0  0  0  0  0  0
  -11.6673    6.5976  -16.8448 C   0  0  0  0  0  0  0  0  0  0  0  0
  -12.5879    7.1090  -15.8258 N   0  0  0  0  0  0  0  0  0  0  0  0
  -13.5191    7.2116  -16.2272 H   0  0  0  0  0  0  0  0  0  0  0  0
  -12.2927    8.0493  -15.5615 H   0  0  0  0  0  0  0  0  0  0  0  0
 25 26  1  0  0  0
 26 13  1  0  0  0
 13 14  1  0  0  0
 13 18  2  0  0  0
 14 15  2  0  0  0
 15 16  1  0  0  0
 16 17  2  0  0  0
 16 23  1  0  0  0
 17 18  1  0  0  0
 17 19  1  0  0  0
 19 20  2  0  0  0
 19 21  1  0  0  0
 20  1  1  0  0  0
  1  2  2  0  0  0
  1  5  1  0  0  0
  2  3  1  0  0  0
  3  4  2  0  0  0
  3 11  1  0  0  0
  4  5  1  0  0  0
  4  6  1  0  0  0
  5 12  1  0  0  0
  6  7  1  0  0  0
  7  8  1  0  0  0
  8  9  1  0  0  0
  8 11  1  0  0  0
  9 10  2  0  0  0
  9 27  1  0  0  0
 27 28  1  0  0  0
 28 29  1  0  0  0
 29 30  1  0  0  0
 29 31  1  0  0  0
 21 22  2  0  0  0
 21 23  1  0  0  0
 23 24  1  0  0  0
M  END
> <minimizedAffinity>
-8.76333

$$$$
