CHEMBL3690414


 34 37  0  0  0  0  0  0  0  0999 V2000
  -30.3269   -7.1286   -6.0783 C   0  0  0  0  0  0  0  0  0  0  0  0
  -29.6729   -6.2408   -7.0507 C   0  0  0  0  0  0  0  0  0  0  0  0
  -29.4251   -4.9567   -6.7404 C   0  0  0  0  0  0  0  0  0  0  0  0
  -29.7596   -4.4727   -5.4741 N   0  0  0  0  0  0  0  0  0  0  0  0
  -29.6062   -3.2189   -4.8898 C   0  0  0  0  0  0  0  0  0  0  0  0
  -30.1776   -3.3711   -3.6312 C   0  0  0  0  0  0  0  0  0  0  0  0
  -30.6449   -4.6329   -3.4139 N   0  0  0  0  0  0  0  0  0  0  0  0
  -30.3800   -5.2818   -4.5221 C   0  0  0  0  0  0  0  0  0  0  0  0
  -30.6448   -6.6371   -4.8585 C   0  0  0  0  0  0  0  0  0  0  0  0
  -31.2314  -11.1070   -7.0695 C   0  0  0  0  0  0  0  0  0  0  0  0
  -30.0665  -10.8947   -6.3707 C   0  0  0  0  0  0  0  0  0  0  0  0
  -29.7421   -9.5910   -6.0056 C   0  0  0  0  0  0  0  0  0  0  0  0
  -30.5963   -8.5560   -6.3755 C   0  0  0  0  0  0  0  0  0  0  0  0
  -31.7486   -8.8150   -7.0353 N   0  0  0  0  0  0  0  0  0  0  0  0
  -32.0702  -10.0991   -7.3872 N   0  0  0  0  0  0  0  0  0  0  0  0
  -32.3043  -12.4643   -8.6343 C   0  0  0  0  0  0  0  0  0  0  0  0
  -31.5083  -12.4021   -7.4549 O   0  0  0  0  0  0  0  0  0  0  0  0
  -29.0359   -1.9965   -5.4767 C   0  0  0  0  0  0  0  0  0  0  0  0
  -28.6772   -0.9538   -4.6077 C   0  0  0  0  0  0  0  0  0  0  0  0
  -28.0996    0.2146   -5.0896 C   0  0  0  0  0  0  0  0  0  0  0  0
  -27.8684    0.3640   -6.4525 C   0  0  0  0  0  0  0  0  0  0  0  0
  -28.1868   -0.6577   -7.3487 C   0  0  0  0  0  0  0  0  0  0  0  0
  -28.7711   -1.8382   -6.8499 C   0  0  0  0  0  0  0  0  0  0  0  0
  -27.9446   -0.5571   -8.7444 N   0  0  0  0  0  0  0  0  0  0  0  0
  -27.3225   -1.4990   -9.5305 C   0  0  0  0  0  0  0  0  0  0  0  0
  -26.8948   -2.5902   -9.1800 O   0  0  0  0  0  0  0  0  0  0  0  0
  -27.1638   -1.0770  -10.8343 N   0  0  0  0  0  0  0  0  0  0  0  0
  -28.2580    0.2866   -9.2007 H   0  0  0  0  0  0  0  0  0  0  0  0
  -27.8793   -0.4593  -11.1986 H   0  0  0  0  0  0  0  0  0  0  0  0
  -26.5375   -2.0064  -11.7832 C   0  0  0  0  0  0  0  0  0  0  0  0
  -25.3004   -1.4800  -12.5269 C   0  0  0  0  0  0  0  0  0  0  0  0
  -24.2372   -2.3050  -12.3961 F   0  0  0  0  0  0  0  0  0  0  0  0
  -25.5650   -1.3924  -13.8561 F   0  0  0  0  0  0  0  0  0  0  0  0
  -24.9326   -0.2481  -12.1134 F   0  0  0  0  0  0  0  0  0  0  0  0
 16 17  1  0  0  0
 17 10  1  0  0  0
 10 11  1  0  0  0
 10 15  2  0  0  0
 11 12  2  0  0  0
 12 13  1  0  0  0
 13  1  1  0  0  0
 13 14  2  0  0  0
  1  2  1  0  0  0
  1  9  2  0  0  0
  2  3  2  0  0  0
  3  4  1  0  0  0
  4  5  1  0  0  0
  4  8  1  0  0  0
  5 18  1  0  0  0
  5  6  2  0  0  0
 18 19  1  0  0  0
 18 23  2  0  0  0
 19 20  2  0  0  0
 20 21  1  0  0  0
 21 22  2  0  0  0
 22 24  1  0  0  0
 22 23  1  0  0  0
 24 25  1  0  0  0
 24 28  1  0  0  0
 25 26  2  0  0  0
 25 27  1  0  0  0
 27 30  1  0  0  0
 27 29  1  0  0  0
 30 31  1  0  0  0
 31 32  1  0  0  0
 31 33  1  0  0  0
 31 34  1  0  0  0
  6  7  1  0  0  0
  7  8  2  0  0  0
  8  9  1  0  0  0
 14 15  1  0  0  0
M  END
> <minimizedAffinity>
-8.20931

$$$$
