CHEMBL3932057


 41 45  0  0  0  0  0  0  0  0999 V2000
  -26.8727   -1.7196  -10.1579 C   0  0  0  0  0  0  0  0  0  0  0  0
  -27.5677   -1.6029  -11.3684 C   0  0  0  0  0  0  0  0  0  0  0  0
  -26.8900   -1.3177  -12.5628 C   0  0  0  0  0  0  0  0  0  0  0  0
  -25.5078   -1.1170  -12.5708 C   0  0  0  0  0  0  0  0  0  0  0  0
  -24.8081   -1.3237  -11.3801 C   0  0  0  0  0  0  0  0  0  0  0  0
  -25.4800   -1.6001  -10.1836 C   0  0  0  0  0  0  0  0  0  0  0  0
  -29.0482   -3.4311   -5.8710 C   0  0  0  0  0  0  0  0  0  0  0  0
  -29.5020   -2.7035   -4.8262 N   0  0  0  0  0  0  0  0  0  0  0  0
  -29.4269   -1.3578   -4.8940 C   0  0  0  0  0  0  0  0  0  0  0  0
  -28.9453   -0.6018   -5.8954 N   0  0  0  0  0  0  0  0  0  0  0  0
  -28.5183   -1.3606   -6.9097 C   0  0  0  0  0  0  0  0  0  0  0  0
  -27.9457   -0.8793   -8.0546 N   0  0  0  0  0  0  0  0  0  0  0  0
  -27.5753   -1.9170   -8.8894 C   0  0  0  0  0  0  0  0  0  0  0  0
  -27.9702   -3.0849   -8.2455 C   0  0  0  0  0  0  0  0  0  0  0  0
  -28.5443   -2.7440   -6.9868 C   0  0  0  0  0  0  0  0  0  0  0  0
  -27.8063    0.1032   -8.2365 H   0  0  0  0  0  0  0  0  0  0  0  0
  -29.0535   -4.8283   -5.8297 N   0  0  0  0  0  0  0  0  0  0  0  0
  -28.4052   -5.1524   -6.5455 H   0  0  0  0  0  0  0  0  0  0  0  0
  -30.9201   -5.9718   -4.6682 C   0  0  0  0  0  0  0  0  0  0  0  0
  -30.3555   -5.4869   -6.0099 C   0  0  0  0  0  0  0  0  0  0  0  0
  -30.1422   -6.6779   -6.9417 C   0  0  0  0  0  0  0  0  0  0  0  0
  -28.9351   -6.8431   -7.6378 C   0  0  0  0  0  0  0  0  0  0  0  0
  -28.7288   -7.9687   -8.4415 C   0  0  0  0  0  0  0  0  0  0  0  0
  -29.7242   -8.9374   -8.5623 C   0  0  0  0  0  0  0  0  0  0  0  0
  -30.9379   -8.7720   -7.9018 C   0  0  0  0  0  0  0  0  0  0  0  0
  -31.1472   -7.6483   -7.1030 C   0  0  0  0  0  0  0  0  0  0  0  0
  -24.7719   -0.7843  -13.7131 N   0  0  0  0  0  0  0  0  0  0  0  0
  -24.8382    0.2106  -13.9104 H   0  0  0  0  0  0  0  0  0  0  0  0
  -23.3982   -1.2708  -13.7985 C   0  0  0  0  0  0  0  0  0  0  0  0
  -22.4309   -0.1337  -14.0627 C   0  0  0  0  0  0  0  0  0  0  0  0
  -21.2163   -0.3924  -14.7168 C   0  0  0  0  0  0  0  0  0  0  0  0
  -20.3490    0.6515  -15.0587 C   0  0  0  0  0  0  0  0  0  0  0  0
  -20.6901    1.9746  -14.7543 C   0  0  0  0  0  0  0  0  0  0  0  0
  -21.9097    2.2462  -14.1274 C   0  0  0  0  0  0  0  0  0  0  0  0
  -22.7722    1.2005  -13.7872 C   0  0  0  0  0  0  0  0  0  0  0  0
  -19.8108    3.1152  -15.1220 C   0  0  0  0  0  0  0  0  0  0  0  0
  -20.2530    4.2552  -15.2380 O   0  0  0  0  0  0  0  0  0  0  0  0
  -18.4715    2.8337  -15.2792 N   0  0  0  0  0  0  0  0  0  0  0  0
  -17.6378    3.9638  -15.4587 O   0  0  0  0  0  0  0  0  0  0  0  0
  -18.0313    2.0113  -14.8823 H   0  0  0  0  0  0  0  0  0  0  0  0
  -18.2909    4.6983  -15.4954 H   0  0  0  0  0  0  0  0  0  0  0  0
 19 20  1  0  0  0
 20 17  1  0  0  0
 20 21  1  0  0  0
 17  7  1  0  0  0
 17 18  1  0  0  0
  7  8  1  0  0  0
  7 15  2  0  0  0
  8  9  2  0  0  0
  9 10  1  0  0  0
 10 11  2  0  0  0
 11 12  1  0  0  0
 11 15  1  0  0  0
 12 13  1  0  0  0
 12 16  1  0  0  0
 13  1  1  0  0  0
 13 14  2  0  0  0
  1  2  1  0  0  0
  1  6  2  0  0  0
  2  3  2  0  0  0
  3  4  1  0  0  0
  4 27  1  0  0  0
  4  5  2  0  0  0
 27 29  1  0  0  0
 27 28  1  0  0  0
 29 30  1  0  0  0
 30 31  1  0  0  0
 30 35  2  0  0  0
 31 32  2  0  0  0
 32 33  1  0  0  0
 33 36  1  0  0  0
 33 34  2  0  0  0
 36 37  2  0  0  0
 36 38  1  0  0  0
 38 39  1  0  0  0
 38 40  1  0  0  0
 39 41  1  0  0  0
 34 35  1  0  0  0
  5  6  1  0  0  0
 14 15  1  0  0  0
 21 22  1  0  0  0
 21 26  2  0  0  0
 22 23  2  0  0  0
 23 24  1  0  0  0
 24 25  2  0  0  0
 25 26  1  0  0  0
M  END
> <minimizedAffinity>
-10.62042

$$$$
