CHEMBL202892


 32 36  0  0  0  0  0  0  0  0999 V2000
  -28.4192   -3.0437   -7.0421 C   0  0  0  0  0  0  0  0  0  0  0  0
  -28.0199   -1.7937   -6.8938 N   0  0  0  0  0  0  0  0  0  0  0  0
  -27.4550   -1.4076   -8.0866 N   0  0  0  0  0  0  0  0  0  0  0  0
  -27.5217   -2.4483   -8.8848 C   0  0  0  0  0  0  0  0  0  0  0  0
  -28.1060   -3.5294   -8.2916 O   0  0  0  0  0  0  0  0  0  0  0  0
  -28.5181   -2.3414   -4.0402 C   0  0  0  0  0  0  0  0  0  0  0  0
  -29.1210   -3.4795   -4.6903 N   0  0  0  0  0  0  0  0  0  0  0  0
  -29.8346   -4.4514   -4.0507 C   0  0  0  0  0  0  0  0  0  0  0  0
  -30.2504   -5.3761   -4.8840 N   0  0  0  0  0  0  0  0  0  0  0  0
  -29.8229   -4.9596   -6.1135 C   0  0  0  0  0  0  0  0  0  0  0  0
  -29.0912   -3.7978   -6.0315 C   0  0  0  0  0  0  0  0  0  0  0  0
  -30.1325   -5.6440   -7.2275 N   0  0  0  0  0  0  0  0  0  0  0  0
  -30.5509   -5.1727   -8.0228 H   0  0  0  0  0  0  0  0  0  0  0  0
  -29.4906   -6.9056   -7.5483 C   0  0  0  0  0  0  0  0  0  0  0  0
  -30.5379   -7.9900   -7.6853 C   0  0  0  0  0  0  0  0  0  0  0  0
  -31.8191   -7.8131   -7.1515 C   0  0  0  0  0  0  0  0  0  0  0  0
  -32.7542   -8.8223   -7.3097 C   0  0  0  0  0  0  0  0  0  0  0  0
  -32.5095   -9.9799   -7.9601 N   0  0  0  0  0  0  0  0  0  0  0  0
  -31.2718  -10.1316   -8.4747 C   0  0  0  0  0  0  0  0  0  0  0  0
  -30.2619   -9.1820   -8.3651 C   0  0  0  0  0  0  0  0  0  0  0  0
  -27.1362   -2.6030  -10.1584 N   0  0  0  0  0  0  0  0  0  0  0  0
  -26.9040   -3.5293  -10.4937 H   0  0  0  0  0  0  0  0  0  0  0  0
  -27.5318   -1.6276  -11.1492 C   0  0  0  0  0  0  0  0  0  0  0  0
  -26.3708   -1.3276  -12.0743 C   0  0  0  0  0  0  0  0  0  0  0  0
  -26.4104   -1.7322  -13.4291 C   0  0  0  0  0  0  0  0  0  0  0  0
  -25.3500   -1.4614  -14.3000 C   0  0  0  0  0  0  0  0  0  0  0  0
  -24.2548   -0.8065  -13.7864 C   0  0  0  0  0  0  0  0  0  0  0  0
  -24.1948   -0.4196  -12.4682 C   0  0  0  0  0  0  0  0  0  0  0  0
  -25.2289   -0.6637  -11.5894 C   0  0  0  0  0  0  0  0  0  0  0  0
  -23.0263    0.2062  -12.1627 O   0  0  0  0  0  0  0  0  0  0  0  0
  -22.3378    0.1272  -13.4289 C   0  0  0  0  0  0  0  0  0  0  0  0
  -23.1317   -0.4681  -14.4764 O   0  0  0  0  0  0  0  0  0  0  0  0
  6  7  1  0  0  0
  7  8  1  0  0  0
  7 11  1  0  0  0
  8  9  2  0  0  0
  9 10  1  0  0  0
 10 12  1  0  0  0
 10 11  2  0  0  0
 12 14  1  0  0  0
 12 13  1  0  0  0
 14 15  1  0  0  0
 15 16  1  0  0  0
 15 20  2  0  0  0
 16 17  2  0  0  0
 17 18  1  0  0  0
 18 19  2  0  0  0
 19 20  1  0  0  0
 11  1  1  0  0  0
  1  2  2  0  0  0
  1  5  1  0  0  0
  2  3  1  0  0  0
  3  4  2  0  0  0
  4 21  1  0  0  0
  4  5  1  0  0  0
 21 23  1  0  0  0
 21 22  1  0  0  0
 23 24  1  0  0  0
 24 25  1  0  0  0
 24 29  2  0  0  0
 25 26  2  0  0  0
 26 27  1  0  0  0
 27 28  2  0  0  0
 27 32  1  0  0  0
 28 29  1  0  0  0
 28 30  1  0  0  0
 30 31  1  0  0  0
 31 32  1  0  0  0
M  END
> <minimizedAffinity>
-10.00114

$$$$
