CHEMBL494903


 41 45  0  0  0  0  0  0  0  0999 V2000
  -29.1335   -5.6709   -5.9341 N   0  0  0  0  0  0  0  0  0  0  0  0
  -29.6199   -5.2866   -7.2477 C   0  0  0  0  0  0  0  0  0  0  0  0
  -28.6755   -4.3311   -7.9759 C   0  0  0  0  0  0  0  0  0  0  0  0
  -28.2680   -3.1706   -7.0974 C   0  0  0  0  0  0  0  0  0  0  0  0
  -27.8603   -1.9053   -7.5907 C   0  0  0  0  0  0  0  0  0  0  0  0
  -27.5791   -0.8627   -6.6861 C   0  0  0  0  0  0  0  0  0  0  0  0
  -27.6232   -1.0774   -5.3101 C   0  0  0  0  0  0  0  0  0  0  0  0
  -27.9257   -2.3424   -4.8217 C   0  0  0  0  0  0  0  0  0  0  0  0
  -28.2403   -3.3860   -5.7028 C   0  0  0  0  0  0  0  0  0  0  0  0
  -28.5335   -4.7243   -5.1119 C   0  0  0  0  0  0  0  0  0  0  0  0
  -28.2415   -4.9402   -3.9390 O   0  0  0  0  0  0  0  0  0  0  0  0
  -27.7611   -1.6020   -9.0560 C   0  0  0  0  0  0  0  0  0  0  0  0
  -28.6895   -1.0187   -9.5987 O   0  0  0  0  0  0  0  0  0  0  0  0
  -26.6055   -2.0438   -9.6964 N   0  0  0  0  0  0  0  0  0  0  0  0
  -25.9878   -2.6552   -9.1767 H   0  0  0  0  0  0  0  0  0  0  0  0
  -26.2677   -1.8123  -11.0522 C   0  0  0  0  0  0  0  0  0  0  0  0
  -27.1374   -2.0695  -12.1096 C   0  0  0  0  0  0  0  0  0  0  0  0
  -26.7448   -1.8418  -13.4303 C   0  0  0  0  0  0  0  0  0  0  0  0
  -25.4720   -1.3501  -13.7245 C   0  0  0  0  0  0  0  0  0  0  0  0
  -25.1107   -1.1198  -15.3946 Cl  0  0  0  0  0  0  0  0  0  0  0  0
  -24.5731   -1.0750  -12.6912 C   0  0  0  0  0  0  0  0  0  0  0  0
  -25.0001   -1.2925  -11.3509 C   0  0  0  0  0  0  0  0  0  0  0  0
  -23.1773   -0.5538  -12.9014 C   0  0  0  0  0  0  0  0  0  0  0  0
  -22.4137   -1.1950  -13.8233 F   0  0  0  0  0  0  0  0  0  0  0  0
  -23.1732    0.7583  -13.2754 F   0  0  0  0  0  0  0  0  0  0  0  0
  -22.4502   -0.5982  -11.7457 F   0  0  0  0  0  0  0  0  0  0  0  0
  -29.7321   -6.8484   -5.3097 C   0  0  0  0  0  0  0  0  0  0  0  0
  -28.4781  -10.1464   -9.1842 C   0  0  0  0  0  0  0  0  0  0  0  0
  -29.8800  -10.0071   -9.1492 C   0  0  0  0  0  0  0  0  0  0  0  0
  -30.5361   -9.2584   -8.1811 C   0  0  0  0  0  0  0  0  0  0  0  0
  -31.8650   -9.1101   -8.2959 N   0  0  0  0  0  0  0  0  0  0  0  0
  -32.4915   -8.2988   -7.4184 C   0  0  0  0  0  0  0  0  0  0  0  0
  -31.8422   -7.6092   -6.4153 C   0  0  0  0  0  0  0  0  0  0  0  0
  -30.4576   -7.7678   -6.2718 C   0  0  0  0  0  0  0  0  0  0  0  0
  -29.7794   -8.6427   -7.1683 C   0  0  0  0  0  0  0  0  0  0  0  0
  -28.3922   -8.9134   -7.1278 C   0  0  0  0  0  0  0  0  0  0  0  0
  -27.7293   -9.6433   -8.1227 C   0  0  0  0  0  0  0  0  0  0  0  0
  -27.3229   -9.8958  -11.2351 C   0  0  0  0  0  0  0  0  0  0  0  0
  -27.8588  -10.7675  -10.2347 O   0  0  0  0  0  0  0  0  0  0  0  0
  -26.3899   -9.6947   -7.8816 O   0  0  0  0  0  0  0  0  0  0  0  0
  -25.7902  -10.8593   -7.3462 C   0  0  0  0  0  0  0  0  0  0  0  0
 38 39  1  0  0  0
 39 28  1  0  0  0
 28 29  1  0  0  0
 28 37  2  0  0  0
 29 30  2  0  0  0
 30 31  1  0  0  0
 30 35  1  0  0  0
 31 32  2  0  0  0
 32 33  1  0  0  0
 33 34  2  0  0  0
 34 27  1  0  0  0
 34 35  1  0  0  0
 27  1  1  0  0  0
  1  2  1  0  0  0
  1 10  1  0  0  0
  2  3  1  0  0  0
  3  4  1  0  0  0
  4  5  1  0  0  0
  4  9  2  0  0  0
  5 12  1  0  0  0
  5  6  2  0  0  0
 12 13  2  0  0  0
 12 14  1  0  0  0
 14 16  1  0  0  0
 14 15  1  0  0  0
 16 17  1  0  0  0
 16 22  2  0  0  0
 17 18  2  0  0  0
 18 19  1  0  0  0
 19 20  1  0  0  0
 19 21  2  0  0  0
 21 23  1  0  0  0
 21 22  1  0  0  0
 23 24  1  0  0  0
 23 25  1  0  0  0
 23 26  1  0  0  0
  6  7  1  0  0  0
  7  8  2  0  0  0
  8  9  1  0  0  0
  9 10  1  0  0  0
 10 11  2  0  0  0
 35 36  2  0  0  0
 36 37  1  0  0  0
 37 40  1  0  0  0
 40 41  1  0  0  0
M  END
> <minimizedAffinity>
-11.72276

$$$$
