CHEMBL3671496


 37 39  0  0  0  0  0  0  0  0999 V2000
  -29.2745   -8.6844   -5.2115 C   0  0  0  0  0  0  0  0  0  0  0  0
  -28.5934   -9.7658   -5.7755 C   0  0  0  0  0  0  0  0  0  0  0  0
  -27.2232   -9.9657   -5.5068 C   0  0  0  0  0  0  0  0  0  0  0  0
  -26.4202  -10.9398   -6.1222 C   0  0  0  0  0  0  0  0  0  0  0  0
  -25.1136  -11.0697   -5.8263 N   0  0  0  0  0  0  0  0  0  0  0  0
  -24.6000  -10.2152   -4.9424 C   0  0  0  0  0  0  0  0  0  0  0  0
  -25.2597   -9.2229   -4.3378 N   0  0  0  0  0  0  0  0  0  0  0  0
  -26.5587   -9.0998   -4.6244 C   0  0  0  0  0  0  0  0  0  0  0  0
  -27.2709   -8.0571   -4.0415 C   0  0  0  0  0  0  0  0  0  0  0  0
  -28.6300   -7.8455   -4.2945 C   0  0  0  0  0  0  0  0  0  0  0  0
  -30.7634   -7.7368   -6.9064 C   0  0  0  0  0  0  0  0  0  0  0  0
  -31.8582   -7.7876   -7.4587 O   0  0  0  0  0  0  0  0  0  0  0  0
  -30.5545   -8.3792   -5.7085 N   0  0  0  0  0  0  0  0  0  0  0  0
  -31.2667   -9.0917   -5.5828 H   0  0  0  0  0  0  0  0  0  0  0  0
  -28.8513   -7.6666   -8.4180 C   0  0  0  0  0  0  0  0  0  0  0  0
  -29.6024   -7.0306   -7.5114 C   0  0  0  0  0  0  0  0  0  0  0  0
  -26.9618  -11.7739   -7.1380 N   0  0  0  0  0  0  0  0  0  0  0  0
  -26.4226  -12.6316   -7.2283 H   0  0  0  0  0  0  0  0  0  0  0  0
  -27.3956  -11.2922   -8.3977 C   0  0  0  0  0  0  0  0  0  0  0  0
  -26.5155  -10.6152   -9.2549 C   0  0  0  0  0  0  0  0  0  0  0  0
  -26.9085  -10.2317  -10.5371 C   0  0  0  0  0  0  0  0  0  0  0  0
  -28.2065  -10.5086  -10.9654 C   0  0  0  0  0  0  0  0  0  0  0  0
  -28.7083  -10.0700  -12.7346 Br  0  0  0  0  0  0  0  0  0  0  0  0
  -29.1192  -11.1143  -10.1131 C   0  0  0  0  0  0  0  0  0  0  0  0
  -28.7110  -11.4918   -8.8346 C   0  0  0  0  0  0  0  0  0  0  0  0
  -29.5910  -12.0961   -8.0201 F   0  0  0  0  0  0  0  0  0  0  0  0
  -29.1770   -6.7713   -3.6330 O   0  0  0  0  0  0  0  0  0  0  0  0
  -28.8698   -5.4852   -4.1849 C   0  0  0  0  0  0  0  0  0  0  0  0
  -30.1475   -4.6995   -4.5008 C   0  0  0  0  0  0  0  0  0  0  0  0
  -30.0031   -3.2809   -4.1893 N   0  0  0  0  0  0  0  0  0  0  0  0
  -29.6579   -2.3954   -5.1799 C   0  0  0  0  0  0  0  0  0  0  0  0
  -29.5562   -2.7013   -6.3601 O   0  0  0  0  0  0  0  0  0  0  0  0
  -29.4216   -1.1338   -4.6883 N   0  0  0  0  0  0  0  0  0  0  0  0
  -29.7102   -3.0363   -3.2545 H   0  0  0  0  0  0  0  0  0  0  0  0
  -29.9367   -0.8986   -3.8528 H   0  0  0  0  0  0  0  0  0  0  0  0
  -29.1658   -0.0640   -5.6349 C   0  0  0  0  0  0  0  0  0  0  0  0
  -30.2647    0.9809   -5.6527 C   0  0  0  0  0  0  0  0  0  0  0  0
 15 16  2  0  0  0
 16 11  1  0  0  0
 11 12  2  0  0  0
 11 13  1  0  0  0
 13  1  1  0  0  0
 13 14  1  0  0  0
  1  2  1  0  0  0
  1 10  2  0  0  0
  2  3  2  0  0  0
  3  4  1  0  0  0
  3  8  1  0  0  0
  4 17  1  0  0  0
  4  5  2  0  0  0
 17 19  1  0  0  0
 17 18  1  0  0  0
 19 20  1  0  0  0
 19 25  2  0  0  0
 20 21  2  0  0  0
 21 22  1  0  0  0
 22 23  1  0  0  0
 22 24  2  0  0  0
 24 25  1  0  0  0
 25 26  1  0  0  0
  5  6  1  0  0  0
  6  7  2  0  0  0
  7  8  1  0  0  0
  8  9  2  0  0  0
  9 10  1  0  0  0
 10 27  1  0  0  0
 27 28  1  0  0  0
 28 29  1  0  0  0
 29 30  1  0  0  0
 30 31  1  0  0  0
 30 34  1  0  0  0
 31 32  2  0  0  0
 31 33  1  0  0  0
 33 36  1  0  0  0
 33 35  1  0  0  0
 36 37  1  0  0  0
M  END
> <minimizedAffinity>
-7.51445

$$$$
