CHEMBL3690548


 36 39  0  0  0  0  0  0  0  0999 V2000
  -30.1025   -7.6034   -7.0707 C   0  0  0  0  0  0  0  0  0  0  0  0
  -29.1607   -6.6118   -7.6068 C   0  0  0  0  0  0  0  0  0  0  0  0
  -28.9980   -5.4284   -6.9935 C   0  0  0  0  0  0  0  0  0  0  0  0
  -29.7711   -5.1073   -5.8747 N   0  0  0  0  0  0  0  0  0  0  0  0
  -29.8586   -3.9387   -5.1118 C   0  0  0  0  0  0  0  0  0  0  0  0
  -30.7652   -4.2709   -4.1169 C   0  0  0  0  0  0  0  0  0  0  0  0
  -31.2509   -5.5424   -4.2478 N   0  0  0  0  0  0  0  0  0  0  0  0
  -30.6720   -6.0205   -5.3247 C   0  0  0  0  0  0  0  0  0  0  0  0
  -30.8228   -7.2845   -5.9678 C   0  0  0  0  0  0  0  0  0  0  0  0
  -32.4644  -11.8368   -7.1943 C   0  0  0  0  0  0  0  0  0  0  0  0
  -31.4113  -10.9279   -7.7464 C   0  0  0  0  0  0  0  0  0  0  0  0
  -31.2593   -9.7272   -7.1744 N   0  0  0  0  0  0  0  0  0  0  0  0
  -30.2950   -8.9472   -7.6883 C   0  0  0  0  0  0  0  0  0  0  0  0
  -29.4934   -9.3615   -8.7404 C   0  0  0  0  0  0  0  0  0  0  0  0
  -29.7112  -10.6073   -9.2956 C   0  0  0  0  0  0  0  0  0  0  0  0
  -30.6824  -11.3840   -8.7815 N   0  0  0  0  0  0  0  0  0  0  0  0
  -28.9666  -11.0949  -10.3531 N   0  0  0  0  0  0  0  0  0  0  0  0
  -28.2219  -12.3393  -10.1873 C   0  0  0  0  0  0  0  0  0  0  0  0
  -28.8876  -10.4964  -11.6761 C   0  0  0  0  0  0  0  0  0  0  0  0
  -29.1909   -2.6456   -5.3582 C   0  0  0  0  0  0  0  0  0  0  0  0
  -28.8421   -1.8011   -4.2979 C   0  0  0  0  0  0  0  0  0  0  0  0
  -28.2155   -0.5814   -4.5263 C   0  0  0  0  0  0  0  0  0  0  0  0
  -27.8456   -0.2205   -5.8166 C   0  0  0  0  0  0  0  0  0  0  0  0
  -28.0860   -1.0702   -6.8969 C   0  0  0  0  0  0  0  0  0  0  0  0
  -28.8009   -2.2620   -6.6633 C   0  0  0  0  0  0  0  0  0  0  0  0
  -27.6234   -0.7848   -8.2067 N   0  0  0  0  0  0  0  0  0  0  0  0
  -27.2350   -1.7207   -9.1460 C   0  0  0  0  0  0  0  0  0  0  0  0
  -27.2182   -2.9356   -9.0174 O   0  0  0  0  0  0  0  0  0  0  0  0
  -26.7901   -1.1488  -10.3199 N   0  0  0  0  0  0  0  0  0  0  0  0
  -27.6391    0.1797   -8.4975 H   0  0  0  0  0  0  0  0  0  0  0  0
  -27.1957   -0.2635  -10.5866 H   0  0  0  0  0  0  0  0  0  0  0  0
  -26.3599   -2.0471  -11.4027 C   0  0  0  0  0  0  0  0  0  0  0  0
  -25.0839   -1.6460  -12.1607 C   0  0  0  0  0  0  0  0  0  0  0  0
  -23.9920   -2.3044  -11.7095 F   0  0  0  0  0  0  0  0  0  0  0  0
  -25.2141   -1.9620  -13.4750 F   0  0  0  0  0  0  0  0  0  0  0  0
  -24.8376   -0.3213  -12.0936 F   0  0  0  0  0  0  0  0  0  0  0  0
 10 11  1  0  0  0
 11 12  1  0  0  0
 11 16  2  0  0  0
 12 13  2  0  0  0
 13  1  1  0  0  0
 13 14  1  0  0  0
  1  2  1  0  0  0
  1  9  2  0  0  0
  2  3  2  0  0  0
  3  4  1  0  0  0
  4  5  1  0  0  0
  4  8  1  0  0  0
  5 20  1  0  0  0
  5  6  2  0  0  0
 20 21  1  0  0  0
 20 25  2  0  0  0
 21 22  2  0  0  0
 22 23  1  0  0  0
 23 24  2  0  0  0
 24 26  1  0  0  0
 24 25  1  0  0  0
 26 27  1  0  0  0
 26 30  1  0  0  0
 27 28  2  0  0  0
 27 29  1  0  0  0
 29 32  1  0  0  0
 29 31  1  0  0  0
 32 33  1  0  0  0
 33 34  1  0  0  0
 33 35  1  0  0  0
 33 36  1  0  0  0
  6  7  1  0  0  0
  7  8  2  0  0  0
  8  9  1  0  0  0
 14 15  2  0  0  0
 15 17  1  0  0  0
 15 16  1  0  0  0
 17 18  1  0  0  0
 17 19  1  0  0  0
M  END
> <minimizedAffinity>
-9.95260

$$$$
