CHEMBL3981955


 36 39  0  0  0  0  0  0  0  0999 V2000
  -29.7227   -6.5989   -5.1637 N   0  0  0  0  0  0  0  0  0  0  0  0
  -29.1992   -5.4087   -5.8524 C   0  0  0  0  0  0  0  0  0  0  0  0
  -29.0645   -5.6985   -7.1494 C   0  0  0  0  0  0  0  0  0  0  0  0
  -28.7056   -4.8558   -7.9468 C   0  0  0  0  0  0  0  0  0  0  0  0
  -28.3542   -3.6930   -7.6238 C   0  0  0  0  0  0  0  0  0  0  0  0
  -27.8742   -3.3116   -8.5345 N   0  0  0  0  0  0  0  0  0  0  0  0
  -27.4024   -2.9554   -9.4670 C   0  0  0  0  0  0  0  0  0  0  0  0
  -27.1896   -1.6890   -9.2926 C   0  0  0  0  0  0  0  0  0  0  0  0
  -27.5959   -1.4851   -7.5467 N   0  0  0  0  0  0  0  0  0  0  0  0
  -28.2252   -2.8585   -6.6599 C   0  0  0  0  0  0  0  0  0  0  0  0
  -28.7911   -3.9473   -5.4053 C   0  0  0  0  0  0  0  0  0  0  0  0
  -26.5812   -1.3556  -11.1084 C   0  0  0  0  0  0  0  0  0  0  0  0
  -27.3690   -1.6461  -12.3082 C   0  0  0  0  0  0  0  0  0  0  0  0
  -26.6553   -1.5743  -13.4973 N   0  0  0  0  0  0  0  0  0  0  0  0
  -25.4045   -1.2402  -13.2327 N   0  0  0  0  0  0  0  0  0  0  0  0
  -25.2777   -1.0784  -11.8313 C   0  0  0  0  0  0  0  0  0  0  0  0
  -24.3366   -1.1285  -14.3198 C   0  0  0  0  0  0  0  0  0  0  0  0
  -24.9627   -0.8762  -15.6981 C   0  0  0  0  0  0  0  0  0  0  0  0
  -23.4183    0.0387  -13.9948 C   0  0  0  0  0  0  0  0  0  0  0  0
  -28.9217   -7.7737   -5.0737 C   0  0  0  0  0  0  0  0  0  0  0  0
  -29.1818   -8.8695   -5.8534 C   0  0  0  0  0  0  0  0  0  0  0  0
  -28.4402   -9.9802   -5.9927 C   0  0  0  0  0  0  0  0  0  0  0  0
  -27.2458   -9.9648   -5.3612 C   0  0  0  0  0  0  0  0  0  0  0  0
  -26.8452   -8.8436   -4.6135 C   0  0  0  0  0  0  0  0  0  0  0  0
  -27.7546   -7.8027   -4.3566 C   0  0  0  0  0  0  0  0  0  0  0  0
  -28.8303  -10.9889   -6.8286 O   0  0  0  0  0  0  0  0  0  0  0  0
  -27.9981  -11.5618   -7.7886 C   0  0  0  0  0  0  0  0  0  0  0  0
  -25.5642   -8.7358   -4.2196 O   0  0  0  0  0  0  0  0  0  0  0  0
  -24.6632   -9.7694   -4.4062 C   0  0  0  0  0  0  0  0  0  0  0  0
  -31.0334   -6.4919   -4.4513 C   0  0  0  0  0  0  0  0  0  0  0  0
  -30.9833   -5.9003   -3.0447 C   0  0  0  0  0  0  0  0  0  0  0  0
  -31.3000   -6.7652   -1.9851 O   0  0  0  0  0  0  0  0  0  0  0  0
  -31.8258   -7.5485   -2.3133 H   0  0  0  0  0  0  0  0  0  0  0  0
  -32.1333   -4.9527   -2.9763 C   0  0  0  0  0  0  0  0  0  0  0  0
  -30.8173   -3.0054   -2.7352 C   0  0  0  0  0  0  0  0  0  0  0  0
  -31.7666   -3.7717   -3.5016 O   0  0  0  0  0  0  0  0  0  0  0  0
 35 36  1  0  0  0
 36 34  1  0  0  0
 34 31  1  0  0  0
 31 32  1  0  0  0
 31 30  1  0  0  0
 32 33  1  0  0  0
 30  1  1  0  0  0
  1 20  1  0  0  0
  1  2  1  0  0  0
 20 21  1  0  0  0
 20 25  2  0  0  0
 21 22  2  0  0  0
 22 26  1  0  0  0
 22 23  1  0  0  0
 26 27  1  0  0  0
 23 24  2  0  0  0
 24 28  1  0  0  0
 24 25  1  0  0  0
 28 29  1  0  0  0
  2  3  1  0  0  0
  2 11  2  0  0  0
  3  4  2  0  0  0
  4  5  1  0  0  0
  5  6  1  0  0  0
  5 10  2  0  0  0
  6  7  2  0  0  0
  7  8  1  0  0  0
  8 12  1  0  0  0
  8  9  2  0  0  0
 12 13  1  0  0  0
 12 16  2  0  0  0
 13 14  2  0  0  0
 14 15  1  0  0  0
 15 17  1  0  0  0
 15 16  1  0  0  0
 17 18  1  0  0  0
 17 19  1  0  0  0
  9 10  1  0  0  0
 10 11  1  0  0  0
M  END
> <minimizedAffinity>
-8.39598

$$$$
