CHEMBL3945658


 38 42  0  0  0  0  0  0  0  0999 V2000
  -28.8033   -2.7299   -7.9697 N   0  0  0  0  0  0  0  0  0  0  0  0
  -27.8965   -2.0737   -8.8781 C   0  0  0  0  0  0  0  0  0  0  0  0
  -28.5486   -1.2893   -9.8011 C   0  0  0  0  0  0  0  0  0  0  0  0
  -27.9594   -1.0806  -11.0065 C   0  0  0  0  0  0  0  0  0  0  0  0
  -26.6974   -1.4487  -11.2888 C   0  0  0  0  0  0  0  0  0  0  0  0
  -26.5984   -1.5278  -12.5792 N   0  0  0  0  0  0  0  0  0  0  0  0
  -25.4319   -1.2456  -13.1198 C   0  0  0  0  0  0  0  0  0  0  0  0
  -24.3187   -0.8703  -12.4076 C   0  0  0  0  0  0  0  0  0  0  0  0
  -24.3625   -1.1531  -11.0168 N   0  0  0  0  0  0  0  0  0  0  0  0
  -25.6853   -1.5841  -10.3475 C   0  0  0  0  0  0  0  0  0  0  0  0
  -26.4438   -2.1248   -9.0739 C   0  0  0  0  0  0  0  0  0  0  0  0
  -23.4589    0.0298  -13.3177 C   0  0  0  0  0  0  0  0  0  0  0  0
  -22.3265   -0.5148  -14.0586 C   0  0  0  0  0  0  0  0  0  0  0  0
  -21.5044    0.3691  -14.5960 N   0  0  0  0  0  0  0  0  0  0  0  0
  -22.0891    1.5357  -14.3268 N   0  0  0  0  0  0  0  0  0  0  0  0
  -21.4268    2.6948  -14.8973 C   0  0  0  0  0  0  0  0  0  0  0  0
  -23.2458    1.3963  -13.5416 C   0  0  0  0  0  0  0  0  0  0  0  0
  -30.2865   -3.1796   -4.5079 C   0  0  0  0  0  0  0  0  0  0  0  0
  -29.6230   -2.1699   -3.8343 C   0  0  0  0  0  0  0  0  0  0  0  0
  -28.8168   -1.2785   -4.5469 C   0  0  0  0  0  0  0  0  0  0  0  0
  -28.6317   -1.4186   -5.9262 C   0  0  0  0  0  0  0  0  0  0  0  0
  -29.2004   -2.4695   -6.6256 C   0  0  0  0  0  0  0  0  0  0  0  0
  -30.1281   -3.2784   -5.8972 C   0  0  0  0  0  0  0  0  0  0  0  0
  -31.0143   -5.4299   -4.4492 C   0  0  0  0  0  0  0  0  0  0  0  0
  -31.0956   -4.1090   -3.9007 O   0  0  0  0  0  0  0  0  0  0  0  0
  -28.1121   -0.2405   -4.0030 O   0  0  0  0  0  0  0  0  0  0  0  0
  -28.1127    0.9650   -4.7496 C   0  0  0  0  0  0  0  0  0  0  0  0
  -29.5506   -3.8773   -8.5995 C   0  0  0  0  0  0  0  0  0  0  0  0
  -29.1718   -5.1476   -7.9589 C   0  0  0  0  0  0  0  0  0  0  0  0
  -28.8647   -6.1997   -7.4754 C   0  0  0  0  0  0  0  0  0  0  0  0
  -28.5126   -7.4672   -6.8966 C   0  0  0  0  0  0  0  0  0  0  0  0
  -28.2930   -7.5670   -5.5428 C   0  0  0  0  0  0  0  0  0  0  0  0
  -27.9488   -8.7960   -5.0132 C   0  0  0  0  0  0  0  0  0  0  0  0
  -27.7972   -9.9060   -5.7721 N   0  0  0  0  0  0  0  0  0  0  0  0
  -28.0195   -9.7807   -7.1049 C   0  0  0  0  0  0  0  0  0  0  0  0
  -28.3879   -8.5881   -7.7120 C   0  0  0  0  0  0  0  0  0  0  0  0
  -27.8360  -10.9731   -7.8853 C   0  0  0  0  0  0  0  0  0  0  0  0
  -27.7601  -11.9372   -8.5302 N   0  0  0  0  0  0  0  0  0  0  0  0
 24 25  1  0  0  0
 25 18  1  0  0  0
 18 19  1  0  0  0
 18 23  2  0  0  0
 19 20  2  0  0  0
 20 26  1  0  0  0
 20 21  1  0  0  0
 26 27  1  0  0  0
 21 22  2  0  0  0
 22  1  1  0  0  0
 22 23  1  0  0  0
  1 28  1  0  0  0
  1  2  1  0  0  0
 28 29  1  0  0  0
 29 30  3  0  0  0
 30 31  1  0  0  0
 31 32  1  0  0  0
 31 36  2  0  0  0
 32 33  2  0  0  0
 33 34  1  0  0  0
 34 35  2  0  0  0
 35 37  1  0  0  0
 35 36  1  0  0  0
 37 38  3  0  0  0
  2  3  1  0  0  0
  2 11  2  0  0  0
  3  4  2  0  0  0
  4  5  1  0  0  0
  5  6  1  0  0  0
  5 10  2  0  0  0
  6  7  2  0  0  0
  7  8  1  0  0  0
  8 12  1  0  0  0
  8  9  2  0  0  0
 12 13  1  0  0  0
 12 17  2  0  0  0
 13 14  2  0  0  0
 14 15  1  0  0  0
 15 16  1  0  0  0
 15 17  1  0  0  0
  9 10  1  0  0  0
 10 11  1  0  0  0
M  END
> <minimizedAffinity>
-6.77671

$$$$
