CHEMBL2010873


 40 46  0  0  0  0  0  0  0  0999 V2000
  -14.7002   -2.0885  -13.5139 C   0  0  0  0  0  0  0  0  0  0  0  0
  -13.4261   -2.0980  -14.0378 C   0  0  0  0  0  0  0  0  0  0  0  0
  -12.9991   -1.0704  -14.8543 C   0  0  0  0  0  0  0  0  0  0  0  0
  -13.8769   -0.0358  -15.2420 C   0  0  0  0  0  0  0  0  0  0  0  0
  -15.1889   -0.0135  -14.7104 C   0  0  0  0  0  0  0  0  0  0  0  0
  -15.5684   -1.0442  -13.8336 C   0  0  0  0  0  0  0  0  0  0  0  0
  -15.7389    1.1393  -15.2223 C   0  0  0  0  0  0  0  0  0  0  0  0
  -16.9969    1.7535  -15.0558 C   0  0  0  0  0  0  0  0  0  0  0  0
  -17.3190    3.2543  -15.9400 C   0  0  0  0  0  0  0  0  0  0  0  0
  -16.3842    4.3715  -17.0939 C   0  0  0  0  0  0  0  0  0  0  0  0
  -15.6032    2.9790  -16.4829 C   0  0  0  0  0  0  0  0  0  0  0  0
  -14.9014    1.8185  -15.9918 C   0  0  0  0  0  0  0  0  0  0  0  0
  -13.7043    1.0816  -16.0829 N   0  0  0  0  0  0  0  0  0  0  0  0
  -14.8020    3.5843  -17.3430 C   0  0  0  0  0  0  0  0  0  0  0  0
  -13.5694    3.2281  -17.7072 C   0  0  0  0  0  0  0  0  0  0  0  0
  -13.4773    4.3541  -18.4419 C   0  0  0  0  0  0  0  0  0  0  0  0
  -12.2310    4.2513  -18.8794 N   0  0  0  0  0  0  0  0  0  0  0  0
  -12.1158    5.2931  -19.6004 N   0  0  0  0  0  0  0  0  0  0  0  0
  -10.7011    5.4842  -20.3120 C   0  0  0  0  0  0  0  0  0  0  0  0
  -13.7188    5.8405  -19.3761 C   0  0  0  0  0  0  0  0  0  0  0  0
  -15.0290    5.2688  -18.3755 C   0  0  0  0  0  0  0  0  0  0  0  0
  -18.8717    3.1526  -15.2356 C   0  0  0  0  0  0  0  0  0  0  0  0
  -19.7883    3.9689  -15.1095 O   0  0  0  0  0  0  0  0  0  0  0  0
  -19.1665    1.7993  -14.5591 N   0  0  0  0  0  0  0  0  0  0  0  0
  -18.0253    1.0616  -14.1511 C   0  0  0  0  0  0  0  0  0  0  0  0
  -20.0645    1.4777  -14.1521 H   0  0  0  0  0  0  0  0  0  0  0  0
  -15.0618   -3.0402  -12.5645 N   0  0  0  0  0  0  0  0  0  0  0  0
  -15.8482   -3.6366  -12.7433 H   0  0  0  0  0  0  0  0  0  0  0  0
  -13.0228   -3.7050   -9.0703 C   0  0  0  0  0  0  0  0  0  0  0  0
  -14.3869   -3.5109   -9.1029 C   0  0  0  0  0  0  0  0  0  0  0  0
  -15.0910   -3.2812  -10.2315 N   0  0  0  0  0  0  0  0  0  0  0  0
  -14.3868   -3.2490  -11.3697 C   0  0  0  0  0  0  0  0  0  0  0  0
  -13.0483   -3.3812  -11.4201 N   0  0  0  0  0  0  0  0  0  0  0  0
  -12.3925   -3.5944  -10.2813 C   0  0  0  0  0  0  0  0  0  0  0  0
  -11.2518   -3.0422   -7.5030 C   0  0  0  0  0  0  0  0  0  0  0  0
  -12.2640   -4.1240   -7.8579 C   0  0  0  0  0  0  0  0  0  0  0  0
  -12.4989    1.3783  -16.8849 C   0  0  0  0  0  0  0  0  0  0  0  0
  -11.7395    0.4100  -17.6813 C   0  0  0  0  0  0  0  0  0  0  0  0
  -12.7844   -0.2286  -18.5592 C   0  0  0  0  0  0  0  0  0  0  0  0
  -10.7007    1.1165  -18.5666 C   0  0  0  0  0  0  0  0  0  0  0  0
 35 36  1  0  0  0
 36 29  1  0  0  0
 29 30  1  0  0  0
 29 34  2  0  0  0
 30 31  2  0  0  0
 31 32  1  0  0  0
 32 27  1  0  0  0
 32 33  2  0  0  0
 27  1  1  0  0  0
 27 28  1  0  0  0
  1  2  1  0  0  0
  1  6  2  0  0  0
  2  3  2  0  0  0
  3  4  1  0  0  0
  4  5  2  0  0  0
  4 13  1  0  0  0
  5  6  1  0  0  0
  5  7  1  0  0  0
  7  8  1  0  0  0
  7 12  2  0  0  0
  8  9  2  0  0  0
  8 25  1  0  0  0
  9 10  1  0  0  0
  9 22  1  0  0  0
 10 11  2  0  0  0
 10 21  1  0  0  0
 11 12  1  0  0  0
 11 14  1  0  0  0
 12 13  1  0  0  0
 13 37  1  0  0  0
 37 38  1  0  0  0
 38 39  1  0  0  0
 38 40  1  0  0  0
 14 15  1  0  0  0
 15 16  1  0  0  0
 16 17  2  0  0  0
 16 21  1  0  0  0
 17 18  1  0  0  0
 18 19  1  0  0  0
 18 20  1  0  0  0
 20 21  2  0  0  0
 22 23  2  0  0  0
 22 24  1  0  0  0
 24 25  1  0  0  0
 24 26  1  0  0  0
 33 34  1  0  0  0
M  END
> <minimizedAffinity>
-7.32793

$$$$
