CHEMBL3902552


 45 49  0  0  0  0  0  0  0  0999 V2000
  -27.8805   -2.1776   -9.7297 N   0  0  0  0  0  0  0  0  0  0  0  0
  -26.6787   -1.8441  -10.3256 C   0  0  0  0  0  0  0  0  0  0  0  0
  -25.6827   -1.4470   -9.7251 O   0  0  0  0  0  0  0  0  0  0  0  0
  -26.6963   -1.9636  -11.7094 N   0  0  0  0  0  0  0  0  0  0  0  0
  -28.5463   -2.6913  -10.2958 H   0  0  0  0  0  0  0  0  0  0  0  0
  -27.5748   -1.7178  -12.1437 H   0  0  0  0  0  0  0  0  0  0  0  0
  -25.5122   -1.6757  -12.4422 C   0  0  0  0  0  0  0  0  0  0  0  0
  -24.2631   -1.6337  -11.8055 C   0  0  0  0  0  0  0  0  0  0  0  0
  -23.1169   -1.2214  -12.4910 C   0  0  0  0  0  0  0  0  0  0  0  0
  -23.1894   -0.9083  -13.8489 C   0  0  0  0  0  0  0  0  0  0  0  0
  -24.4385   -0.9531  -14.4777 C   0  0  0  0  0  0  0  0  0  0  0  0
  -24.5557   -0.5793  -15.7607 F   0  0  0  0  0  0  0  0  0  0  0  0
  -25.5934   -1.3552  -13.7949 C   0  0  0  0  0  0  0  0  0  0  0  0
  -22.1042   -0.4862  -14.5940 O   0  0  0  0  0  0  0  0  0  0  0  0
  -21.6985    0.8343  -14.5268 C   0  0  0  0  0  0  0  0  0  0  0  0
  -22.4203    1.8244  -13.8685 C   0  0  0  0  0  0  0  0  0  0  0  0
  -21.9351    3.1092  -13.9154 C   0  0  0  0  0  0  0  0  0  0  0  0
  -20.7761    3.4393  -14.5086 N   0  0  0  0  0  0  0  0  0  0  0  0
  -20.0309    2.4804  -15.0837 C   0  0  0  0  0  0  0  0  0  0  0  0
  -20.4613    1.1566  -15.1161 C   0  0  0  0  0  0  0  0  0  0  0  0
  -18.7954    2.8369  -15.6695 N   0  0  0  0  0  0  0  0  0  0  0  0
  -17.5714    2.4499  -15.1401 C   0  0  0  0  0  0  0  0  0  0  0  0
  -17.3882    1.7592  -14.1464 O   0  0  0  0  0  0  0  0  0  0  0  0
  -18.8107    3.4166  -16.4911 H   0  0  0  0  0  0  0  0  0  0  0  0
  -16.3310    2.9356  -15.8174 C   0  0  0  0  0  0  0  0  0  0  0  0
  -16.1108    4.4253  -15.9567 C   0  0  0  0  0  0  0  0  0  0  0  0
  -16.1779    3.5538  -17.1780 C   0  0  0  0  0  0  0  0  0  0  0  0
  -28.5730   -3.0519   -6.1310 C   0  0  0  0  0  0  0  0  0  0  0  0
  -28.2681   -3.1551   -7.4901 C   0  0  0  0  0  0  0  0  0  0  0  0
  -28.1690   -2.0463   -8.3427 C   0  0  0  0  0  0  0  0  0  0  0  0
  -28.3649   -0.7736   -7.8009 C   0  0  0  0  0  0  0  0  0  0  0  0
  -28.6749   -0.6228   -6.4350 C   0  0  0  0  0  0  0  0  0  0  0  0
  -28.7663   -1.7658   -5.6211 C   0  0  0  0  0  0  0  0  0  0  0  0
  -30.6116   -6.2849   -4.4827 N   0  0  0  0  0  0  0  0  0  0  0  0
  -29.8792   -6.3504   -5.7691 C   0  0  0  0  0  0  0  0  0  0  0  0
  -28.5627   -5.5388   -5.8325 C   0  0  0  0  0  0  0  0  0  0  0  0
  -28.6941   -4.1616   -5.3062 N   0  0  0  0  0  0  0  0  0  0  0  0
  -29.5334   -4.0001   -4.1036 C   0  0  0  0  0  0  0  0  0  0  0  0
  -30.8258   -4.8477   -4.1833 C   0  0  0  0  0  0  0  0  0  0  0  0
  -29.0951   -8.1598   -3.7700 C   0  0  0  0  0  0  0  0  0  0  0  0
  -29.9152   -6.9413   -3.3648 C   0  0  0  0  0  0  0  0  0  0  0  0
  -28.9383    0.7238   -5.8089 C   0  0  0  0  0  0  0  0  0  0  0  0
  -28.7588    1.7688   -6.6685 F   0  0  0  0  0  0  0  0  0  0  0  0
  -30.2126    0.8375   -5.3498 F   0  0  0  0  0  0  0  0  0  0  0  0
  -28.1335    0.9745   -4.7406 F   0  0  0  0  0  0  0  0  0  0  0  0
 40 41  1  0  0  0
 41 34  1  0  0  0
 34 35  1  0  0  0
 34 39  1  0  0  0
 35 36  1  0  0  0
 36 37  1  0  0  0
 37 28  1  0  0  0
 37 38  1  0  0  0
 28 29  1  0  0  0
 28 33  2  0  0  0
 29 30  2  0  0  0
 30  1  1  0  0  0
 30 31  1  0  0  0
  1  2  1  0  0  0
  1  5  1  0  0  0
  2  3  2  0  0  0
  2  4  1  0  0  0
  4  7  1  0  0  0
  4  6  1  0  0  0
  7  8  1  0  0  0
  7 13  2  0  0  0
  8  9  2  0  0  0
  9 10  1  0  0  0
 10 14  1  0  0  0
 10 11  2  0  0  0
 14 15  1  0  0  0
 15 16  1  0  0  0
 15 20  2  0  0  0
 16 17  2  0  0  0
 17 18  1  0  0  0
 18 19  2  0  0  0
 19 21  1  0  0  0
 19 20  1  0  0  0
 21 22  1  0  0  0
 21 24  1  0  0  0
 22 23  2  0  0  0
 22 25  1  0  0  0
 25 26  1  0  0  0
 25 27  1  0  0  0
 26 27  1  0  0  0
 11 12  1  0  0  0
 11 13  1  0  0  0
 31 32  2  0  0  0
 32 42  1  0  0  0
 32 33  1  0  0  0
 42 43  1  0  0  0
 42 44  1  0  0  0
 42 45  1  0  0  0
 38 39  1  0  0  0
M  END
> <minimizedAffinity>
-12.52353

$$$$
