CHEMBL190162


 37 39  0  0  0  0  0  0  0  0999 V2000
  -28.5873   -8.2438   -7.9308 C   0  0  0  0  0  0  0  0  0  0  0  0
  -28.1735   -7.0433   -8.4170 N   0  0  0  0  0  0  0  0  0  0  0  0
  -28.5751   -5.9165   -7.8311 C   0  0  0  0  0  0  0  0  0  0  0  0
  -28.0750   -4.6895   -8.2331 C   0  0  0  0  0  0  0  0  0  0  0  0
  -28.4978   -3.5166   -7.6215 C   0  0  0  0  0  0  0  0  0  0  0  0
  -29.4816   -3.5209   -6.7048 N   0  0  0  0  0  0  0  0  0  0  0  0
  -29.9731   -4.7153   -6.3177 C   0  0  0  0  0  0  0  0  0  0  0  0
  -29.5116   -5.9356   -6.7921 C   0  0  0  0  0  0  0  0  0  0  0  0
  -29.9139   -7.1837   -6.2935 C   0  0  0  0  0  0  0  0  0  0  0  0
  -29.4639   -8.4035   -6.8405 C   0  0  0  0  0  0  0  0  0  0  0  0
  -30.0235   -9.7101   -6.3235 C   0  0  0  0  0  0  0  0  0  0  0  0
  -31.1703  -10.3331   -6.9091 C   0  0  0  0  0  0  0  0  0  0  0  0
  -31.9562   -9.7728   -8.3584 Cl  0  0  0  0  0  0  0  0  0  0  0  0
  -31.7549  -11.4946   -6.3751 C   0  0  0  0  0  0  0  0  0  0  0  0
  -31.1593  -12.1647   -5.3219 C   0  0  0  0  0  0  0  0  0  0  0  0
  -30.0083  -11.6371   -4.7626 C   0  0  0  0  0  0  0  0  0  0  0  0
  -29.4950  -10.4043   -5.2000 C   0  0  0  0  0  0  0  0  0  0  0  0
  -28.2613   -9.7651   -4.1545 Cl  0  0  0  0  0  0  0  0  0  0  0  0
  -26.2782   -9.6520   -7.1563 N   0  0  0  0  0  0  0  0  0  0  0  0
  -27.0403  -10.1603   -8.1593 C   0  0  0  0  0  0  0  0  0  0  0  0
  -26.7688  -11.1871   -8.7812 O   0  0  0  0  0  0  0  0  0  0  0  0
  -28.0575   -9.3552   -8.5855 N   0  0  0  0  0  0  0  0  0  0  0  0
  -26.7915   -9.0620   -6.5055 H   0  0  0  0  0  0  0  0  0  0  0  0
  -28.5365   -9.7047   -9.3948 H   0  0  0  0  0  0  0  0  0  0  0  0
  -24.7435   -9.8824   -5.2705 C   0  0  0  0  0  0  0  0  0  0  0  0
  -25.0988  -10.3253   -6.6753 C   0  0  0  0  0  0  0  0  0  0  0  0
  -27.9355   -2.3059   -8.0494 N   0  0  0  0  0  0  0  0  0  0  0  0
  -28.2751   -1.5373   -7.4799 H   0  0  0  0  0  0  0  0  0  0  0  0
  -28.1099   -2.0202   -9.4718 C   0  0  0  0  0  0  0  0  0  0  0  0
  -26.7326   -1.8050  -10.1064 C   0  0  0  0  0  0  0  0  0  0  0  0
  -26.8629   -1.1706  -11.4925 C   0  0  0  0  0  0  0  0  0  0  0  0
  -25.5806   -1.2268  -12.3276 C   0  0  0  0  0  0  0  0  0  0  0  0
  -24.3414   -0.7492  -11.6770 N   0  0  0  0  0  0  0  0  0  0  0  0
  -23.2261   -1.7083  -11.7505 C   0  0  0  0  0  0  0  0  0  0  0  0
  -23.4309   -2.9292  -12.6441 C   0  0  0  0  0  0  0  0  0  0  0  0
  -24.0105    0.5865  -12.2099 C   0  0  0  0  0  0  0  0  0  0  0  0
  -22.9919    0.5931  -13.3445 C   0  0  0  0  0  0  0  0  0  0  0  0
 25 26  1  0  0  0
 26 19  1  0  0  0
 19 20  1  0  0  0
 19 23  1  0  0  0
 20 21  2  0  0  0
 20 22  1  0  0  0
 22  1  1  0  0  0
 22 24  1  0  0  0
  1  2  1  0  0  0
  1 10  2  0  0  0
  2  3  2  0  0  0
  3  4  1  0  0  0
  3  8  1  0  0  0
  4  5  2  0  0  0
  5 27  1  0  0  0
  5  6  1  0  0  0
 27 29  1  0  0  0
 27 28  1  0  0  0
 29 30  1  0  0  0
 30 31  1  0  0  0
 31 32  1  0  0  0
 32 33  1  0  0  0
 33 34  1  0  0  0
 33 36  1  0  0  0
 34 35  1  0  0  0
 36 37  1  0  0  0
  6  7  2  0  0  0
  7  8  1  0  0  0
  8  9  2  0  0  0
  9 10  1  0  0  0
 10 11  1  0  0  0
 11 12  1  0  0  0
 11 17  2  0  0  0
 12 13  1  0  0  0
 12 14  2  0  0  0
 14 15  1  0  0  0
 15 16  2  0  0  0
 16 17  1  0  0  0
 17 18  1  0  0  0
M  END
> <minimizedAffinity>
-7.31058

$$$$
