CHEMBL1992607


 17 18  0  0  0  0  0  0  0  0999 V2000
  -27.5973   -3.4746   -8.8525 N   0  0  0  0  0  0  0  0  0  0  0  0
  -27.9536   -2.6570   -7.7786 C   0  0  0  0  0  0  0  0  0  0  0  0
  -27.6154   -1.3675   -7.9280 N   0  0  0  0  0  0  0  0  0  0  0  0
  -27.8599   -0.5704   -6.8835 C   0  0  0  0  0  0  0  0  0  0  0  0
  -28.4207   -0.9401   -5.7285 N   0  0  0  0  0  0  0  0  0  0  0  0
  -28.7508   -2.2372   -5.5936 C   0  0  0  0  0  0  0  0  0  0  0  0
  -28.5141   -3.1571   -6.6039 C   0  0  0  0  0  0  0  0  0  0  0  0
  -28.8433   -4.5907   -6.5213 C   0  0  0  0  0  0  0  0  0  0  0  0
  -29.2961   -5.1811   -7.5017 O   0  0  0  0  0  0  0  0  0  0  0  0
  -28.5406   -5.3188   -5.3941 N   0  0  0  0  0  0  0  0  0  0  0  0
  -28.8968   -4.9546   -4.0337 C   0  0  0  0  0  0  0  0  0  0  0  0
  -28.5931   -3.5212   -3.6061 C   0  0  0  0  0  0  0  0  0  0  0  0
  -29.3708   -2.5538   -4.3784 N   0  0  0  0  0  0  0  0  0  0  0  0
  -27.3242   -2.8979   -9.6406 H   0  0  0  0  0  0  0  0  0  0  0  0
  -28.3277   -4.1553   -9.0676 H   0  0  0  0  0  0  0  0  0  0  0  0
  -28.6748   -6.3042   -5.5940 H   0  0  0  0  0  0  0  0  0  0  0  0
  -30.3065   -2.9044   -4.5731 H   0  0  0  0  0  0  0  0  0  0  0  0
  1  2  1  0  0  0
  1 14  1  0  0  0
  1 15  1  0  0  0
  2  3  1  0  0  0
  2  7  2  0  0  0
  3  4  2  0  0  0
  4  5  1  0  0  0
  5  6  2  0  0  0
  6  7  1  0  0  0
  6 13  1  0  0  0
  7  8  1  0  0  0
  8  9  2  0  0  0
  8 10  1  0  0  0
 10 11  1  0  0  0
 10 16  1  0  0  0
 11 12  1  0  0  0
 12 13  1  0  0  0
 13 17  1  0  0  0
M  END
> <minimizedAffinity>
-5.72116

$$$$
