CHEMBL1914676


 29 31  0  0  0  0  0  0  0  0999 V2000
  -31.5084   -5.7494   -3.8173 C   0  0  0  0  0  0  0  0  0  0  0  0
  -30.7450   -5.7384   -5.0945 C   0  0  0  0  0  0  0  0  0  0  0  0
  -30.6356   -6.9036   -5.8170 N   0  0  0  0  0  0  0  0  0  0  0  0
  -29.8712   -6.7227   -6.9373 C   0  0  0  0  0  0  0  0  0  0  0  0
  -29.4645   -5.3943   -6.9361 C   0  0  0  0  0  0  0  0  0  0  0  0
  -28.6180   -4.7093   -7.9615 C   0  0  0  0  0  0  0  0  0  0  0  0
  -30.0150   -4.7587   -5.7608 C   0  0  0  0  0  0  0  0  0  0  0  0
  -31.0587   -7.7833   -5.5359 H   0  0  0  0  0  0  0  0  0  0  0  0
  -29.6096   -7.7726   -7.8570 C   0  0  0  0  0  0  0  0  0  0  0  0
  -28.9071   -8.9044   -7.6899 C   0  0  0  0  0  0  0  0  0  0  0  0
  -28.1546   -9.4641   -6.5080 C   0  0  0  0  0  0  0  0  0  0  0  0
  -28.0220   -8.9815   -5.3999 O   0  0  0  0  0  0  0  0  0  0  0  0
  -27.6316  -10.6733   -6.9459 N   0  0  0  0  0  0  0  0  0  0  0  0
  -27.9772  -10.9248   -8.2705 C   0  0  0  0  0  0  0  0  0  0  0  0
  -27.6389  -12.0223   -9.0284 C   0  0  0  0  0  0  0  0  0  0  0  0
  -28.1249  -12.0189  -10.3267 C   0  0  0  0  0  0  0  0  0  0  0  0
  -28.8856  -11.0264  -10.8632 N   0  0  0  0  0  0  0  0  0  0  0  0
  -29.1872   -9.9696  -10.0711 C   0  0  0  0  0  0  0  0  0  0  0  0
  -28.7505   -9.8859   -8.7720 C   0  0  0  0  0  0  0  0  0  0  0  0
  -27.0743  -11.2696   -6.3551 H   0  0  0  0  0  0  0  0  0  0  0  0
  -29.7859   -3.3583   -5.3791 C   0  0  0  0  0  0  0  0  0  0  0  0
  -30.5628   -2.4595   -5.6932 O   0  0  0  0  0  0  0  0  0  0  0  0
  -28.6820   -3.1169   -4.5992 N   0  0  0  0  0  0  0  0  0  0  0  0
  -28.1115   -3.8838   -4.2773 H   0  0  0  0  0  0  0  0  0  0  0  0
  -28.3965   -1.7881   -4.1028 C   0  0  0  0  0  0  0  0  0  0  0  0
  -27.2554   -1.0935   -4.8669 C   0  0  0  0  0  0  0  0  0  0  0  0
  -27.6890   -0.0363   -5.8066 N   0  0  0  0  0  0  0  0  0  0  0  0
  -27.9600   -0.5809   -7.1410 C   0  0  0  0  0  0  0  0  0  0  0  0
  -28.8985    0.6167   -5.2945 C   0  0  0  0  0  0  0  0  0  0  0  0
  1  2  1  0  0  0
  2  3  1  0  0  0
  2  7  2  0  0  0
  3  4  1  0  0  0
  3  8  1  0  0  0
  4  9  1  0  0  0
  4  5  2  0  0  0
  9 10  2  0  0  0
 10 11  1  0  0  0
 10 19  1  0  0  0
 11 12  2  0  0  0
 11 13  1  0  0  0
 13 14  1  0  0  0
 13 20  1  0  0  0
 14 15  1  0  0  0
 14 19  2  0  0  0
 15 16  2  0  0  0
 16 17  1  0  0  0
 17 18  2  0  0  0
 18 19  1  0  0  0
  5  6  1  0  0  0
  5  7  1  0  0  0
  7 21  1  0  0  0
 21 22  2  0  0  0
 21 23  1  0  0  0
 23 25  1  0  0  0
 23 24  1  0  0  0
 25 26  1  0  0  0
 26 27  1  0  0  0
 27 28  1  0  0  0
 27 29  1  0  0  0
M  END
> <minimizedAffinity>
-7.39831

$$$$
