CHEMBL246356


 40 43  0  0  0  0  0  0  0  0999 V2000
  -30.3631   -9.6689   -7.3817 C   0  0  0  0  0  0  0  0  0  0  0  0
  -29.6946   -8.4324   -7.4412 C   0  0  0  0  0  0  0  0  0  0  0  0
  -30.3831   -7.2214   -7.4017 C   0  0  0  0  0  0  0  0  0  0  0  0
  -31.7656   -7.2533   -7.2152 C   0  0  0  0  0  0  0  0  0  0  0  0
  -32.4261   -8.4749   -7.0188 C   0  0  0  0  0  0  0  0  0  0  0  0
  -31.7338   -9.6976   -7.0914 C   0  0  0  0  0  0  0  0  0  0  0  0
  -32.4666  -10.9790   -6.8223 C   0  0  0  0  0  0  0  0  0  0  0  0
  -29.7492   -5.9658   -7.5710 N   0  0  0  0  0  0  0  0  0  0  0  0
  -29.4992   -5.0434   -6.5666 C   0  0  0  0  0  0  0  0  0  0  0  0
  -29.8144   -5.1405   -5.3852 O   0  0  0  0  0  0  0  0  0  0  0  0
  -29.5567   -5.6902   -8.5242 H   0  0  0  0  0  0  0  0  0  0  0  0
  -28.8571   -3.7697   -6.9868 C   0  0  0  0  0  0  0  0  0  0  0  0
  -28.7201   -3.5509   -8.3638 C   0  0  0  0  0  0  0  0  0  0  0  0
  -28.1079   -2.3942   -8.8313 C   0  0  0  0  0  0  0  0  0  0  0  0
  -27.6608   -1.4313   -7.9278 C   0  0  0  0  0  0  0  0  0  0  0  0
  -27.8450   -1.6067   -6.5534 C   0  0  0  0  0  0  0  0  0  0  0  0
  -28.4263   -2.7921   -6.0806 C   0  0  0  0  0  0  0  0  0  0  0  0
  -27.4662   -0.7097   -5.5903 O   0  0  0  0  0  0  0  0  0  0  0  0
  -28.4962    0.1218   -5.0318 C   0  0  0  0  0  0  0  0  0  0  0  0
  -29.2787   -0.6110   -4.1980 F   0  0  0  0  0  0  0  0  0  0  0  0
  -27.9064    1.1028   -4.2961 F   0  0  0  0  0  0  0  0  0  0  0  0
  -29.3517    0.7455   -6.1336 C   0  0  0  0  0  0  0  0  0  0  0  0
  -30.4993    1.2717   -5.6237 F   0  0  0  0  0  0  0  0  0  0  0  0
  -28.6974    1.7763   -6.7355 F   0  0  0  0  0  0  0  0  0  0  0  0
  -29.6704  -10.8544   -7.6265 O   0  0  0  0  0  0  0  0  0  0  0  0
  -27.4763  -10.9239   -8.6881 C   0  0  0  0  0  0  0  0  0  0  0  0
  -26.7823  -10.7258   -9.9089 C   0  0  0  0  0  0  0  0  0  0  0  0
  -27.4457  -10.4930  -11.1076 C   0  0  0  0  0  0  0  0  0  0  0  0
  -28.8180  -10.5240  -11.0890 C   0  0  0  0  0  0  0  0  0  0  0  0
  -29.5325  -10.7470   -9.9717 N   0  0  0  0  0  0  0  0  0  0  0  0
  -28.8700  -10.8599   -8.7779 C   0  0  0  0  0  0  0  0  0  0  0  0
  -25.8735  -10.2475   -5.5451 C   0  0  0  0  0  0  0  0  0  0  0  0
  -25.4890  -11.4352   -5.1039 N   0  0  0  0  0  0  0  0  0  0  0  0
  -25.7420  -12.4508   -5.9277 C   0  0  0  0  0  0  0  0  0  0  0  0
  -26.3319  -12.3794   -7.1178 N   0  0  0  0  0  0  0  0  0  0  0  0
  -26.6828  -11.1478   -7.4682 C   0  0  0  0  0  0  0  0  0  0  0  0
  -26.4514  -10.0535   -6.7219 N   0  0  0  0  0  0  0  0  0  0  0  0
  -26.9359   -8.4480   -4.3507 C   0  0  0  0  0  0  0  0  0  0  0  0
  -25.7259   -9.1107   -4.7683 N   0  0  0  0  0  0  0  0  0  0  0  0
  -25.0551   -9.3265   -4.0367 H   0  0  0  0  0  0  0  0  0  0  0  0
 38 39  1  0  0  0
 39 32  1  0  0  0
 39 40  1  0  0  0
 32 33  1  0  0  0
 32 37  2  0  0  0
 33 34  2  0  0  0
 34 35  1  0  0  0
 35 36  2  0  0  0
 36 26  1  0  0  0
 36 37  1  0  0  0
 26 27  1  0  0  0
 26 31  2  0  0  0
 27 28  2  0  0  0
 28 29  1  0  0  0
 29 30  2  0  0  0
 30 31  1  0  0  0
 31 25  1  0  0  0
 25  1  1  0  0  0
  1  2  1  0  0  0
  1  6  2  0  0  0
  2  3  2  0  0  0
  3  8  1  0  0  0
  3  4  1  0  0  0
  8  9  1  0  0  0
  8 11  1  0  0  0
  9 10  2  0  0  0
  9 12  1  0  0  0
 12 13  1  0  0  0
 12 17  2  0  0  0
 13 14  2  0  0  0
 14 15  1  0  0  0
 15 16  2  0  0  0
 16 18  1  0  0  0
 16 17  1  0  0  0
 18 19  1  0  0  0
 19 20  1  0  0  0
 19 21  1  0  0  0
 19 22  1  0  0  0
 22 23  1  0  0  0
 22 24  1  0  0  0
  4  5  2  0  0  0
  5  6  1  0  0  0
  6  7  1  0  0  0
M  END
> <minimizedAffinity>
-9.57737

$$$$
