CHEMBL253429


 38 43  0  0  0  0  0  0  0  0999 V2000
  -30.5351  -10.6174   -6.2185 C   0  0  0  0  0  0  0  0  0  0  0  0
  -30.4251  -11.9332   -6.6109 C   0  0  0  0  0  0  0  0  0  0  0  0
  -30.1117  -12.1746   -7.9656 C   0  0  0  0  0  0  0  0  0  0  0  0
  -29.6866  -11.0932   -8.7615 C   0  0  0  0  0  0  0  0  0  0  0  0
  -29.9486   -9.8609   -8.2351 C   0  0  0  0  0  0  0  0  0  0  0  0
  -30.9388   -9.8360   -7.2682 C   0  0  0  0  0  0  0  0  0  0  0  0
  -31.4760   -8.4586   -7.2924 C   0  0  0  0  0  0  0  0  0  0  0  0
  -32.6415   -8.1112   -7.2478 O   0  0  0  0  0  0  0  0  0  0  0  0
  -30.3391   -7.6866   -7.6713 C   0  0  0  0  0  0  0  0  0  0  0  0
  -29.3627   -8.5165   -8.2493 C   0  0  0  0  0  0  0  0  0  0  0  0
  -28.1465   -8.1343   -7.8060 N   0  0  0  0  0  0  0  0  0  0  0  0
  -28.4079   -7.0560   -6.9956 N   0  0  0  0  0  0  0  0  0  0  0  0
  -29.7426   -6.7220   -6.9057 C   0  0  0  0  0  0  0  0  0  0  0  0
  -27.6574   -6.6866   -6.4111 H   0  0  0  0  0  0  0  0  0  0  0  0
  -30.3658   -5.7678   -6.0223 C   0  0  0  0  0  0  0  0  0  0  0  0
  -30.9626   -6.1477   -4.8026 C   0  0  0  0  0  0  0  0  0  0  0  0
  -31.1353   -5.2006   -3.7947 C   0  0  0  0  0  0  0  0  0  0  0  0
  -30.6913   -3.9240   -4.0573 C   0  0  0  0  0  0  0  0  0  0  0  0
  -30.3075   -3.5294   -5.3194 C   0  0  0  0  0  0  0  0  0  0  0  0
  -30.2130   -4.4135   -6.3529 C   0  0  0  0  0  0  0  0  0  0  0  0
  -29.8126   -2.2609   -5.3391 O   0  0  0  0  0  0  0  0  0  0  0  0
  -29.5269   -2.1372   -3.9351 C   0  0  0  0  0  0  0  0  0  0  0  0
  -30.4100   -2.9590   -3.1348 O   0  0  0  0  0  0  0  0  0  0  0  0
  -27.4522  -10.6375   -5.7864 N   0  0  0  0  0  0  0  0  0  0  0  0
  -28.3228   -9.8832   -5.0272 C   0  0  0  0  0  0  0  0  0  0  0  0
  -27.9997   -9.1070   -4.1620 O   0  0  0  0  0  0  0  0  0  0  0  0
  -29.6728  -10.0152   -5.2421 N   0  0  0  0  0  0  0  0  0  0  0  0
  -27.7996  -10.9453   -6.6804 H   0  0  0  0  0  0  0  0  0  0  0  0
  -30.0922   -9.2829   -4.6929 H   0  0  0  0  0  0  0  0  0  0  0  0
  -21.8705  -11.0544   -5.0876 N   0  0  0  0  0  0  0  0  0  0  0  0
  -23.2521  -11.0449   -5.3116 C   0  0  0  0  0  0  0  0  0  0  0  0
  -24.1152  -11.4831   -4.3138 C   0  0  0  0  0  0  0  0  0  0  0  0
  -25.5043  -11.3821   -4.4646 C   0  0  0  0  0  0  0  0  0  0  0  0
  -26.0662  -10.7690   -5.5893 C   0  0  0  0  0  0  0  0  0  0  0  0
  -25.1935  -10.2826   -6.5695 C   0  0  0  0  0  0  0  0  0  0  0  0
  -23.8002  -10.4005   -6.4224 C   0  0  0  0  0  0  0  0  0  0  0  0
  -21.5693  -11.7605   -4.4244 H   0  0  0  0  0  0  0  0  0  0  0  0
  -21.3111  -11.0649   -5.9348 H   0  0  0  0  0  0  0  0  0  0  0  0
 30 31  1  0  0  0
 30 37  1  0  0  0
 30 38  1  0  0  0
 31 32  1  0  0  0
 31 36  2  0  0  0
 32 33  2  0  0  0
 33 34  1  0  0  0
 34 24  1  0  0  0
 34 35  2  0  0  0
 24 25  1  0  0  0
 24 28  1  0  0  0
 25 26  2  0  0  0
 25 27  1  0  0  0
 27  1  1  0  0  0
 27 29  1  0  0  0
  1  2  1  0  0  0
  1  6  2  0  0  0
  2  3  2  0  0  0
  3  4  1  0  0  0
  4  5  2  0  0  0
  5  6  1  0  0  0
  5 10  1  0  0  0
  6  7  1  0  0  0
  7  8  2  0  0  0
  7  9  1  0  0  0
  9 10  1  0  0  0
  9 13  2  0  0  0
 10 11  2  0  0  0
 11 12  1  0  0  0
 12 13  1  0  0  0
 12 14  1  0  0  0
 13 15  1  0  0  0
 15 16  1  0  0  0
 15 20  2  0  0  0
 16 17  2  0  0  0
 17 18  1  0  0  0
 18 19  2  0  0  0
 18 23  1  0  0  0
 19 20  1  0  0  0
 19 21  1  0  0  0
 21 22  1  0  0  0
 22 23  1  0  0  0
 35 36  1  0  0  0
M  END
> <minimizedAffinity>
-9.65763

$$$$
