CHEMBL55594


 34 38  0  0  0  0  0  0  0  0999 V2000
  -28.4407   -2.9660   -5.4665 C   0  0  0  0  0  0  0  0  0  0  0  0
  -27.6201   -3.2775   -4.3638 C   0  0  0  0  0  0  0  0  0  0  0  0
  -27.5681   -4.5837   -3.8830 C   0  0  0  0  0  0  0  0  0  0  0  0
  -28.3272   -5.5352   -4.5352 C   0  0  0  0  0  0  0  0  0  0  0  0
  -29.1395   -5.2488   -5.6412 C   0  0  0  0  0  0  0  0  0  0  0  0
  -29.2067   -3.9502   -6.1240 C   0  0  0  0  0  0  0  0  0  0  0  0
  -29.7476   -6.5346   -6.0452 C   0  0  0  0  0  0  0  0  0  0  0  0
  -30.5776   -6.7404   -7.0844 C   0  0  0  0  0  0  0  0  0  0  0  0
  -29.2295   -7.5776   -5.0717 C   0  0  0  0  0  0  0  0  0  0  0  0
  -29.4722   -8.7656   -5.0049 O   0  0  0  0  0  0  0  0  0  0  0  0
  -28.3913   -6.8831   -4.2139 N   0  0  0  0  0  0  0  0  0  0  0  0
  -27.9001   -7.3384   -3.4594 H   0  0  0  0  0  0  0  0  0  0  0  0
  -31.0471   -8.0346   -7.4488 C   0  0  0  0  0  0  0  0  0  0  0  0
  -32.1080   -8.5482   -6.7536 N   0  0  0  0  0  0  0  0  0  0  0  0
  -32.2928   -9.8520   -7.1060 C   0  0  0  0  0  0  0  0  0  0  0  0
  -31.3330  -10.2016   -8.0439 C   0  0  0  0  0  0  0  0  0  0  0  0
  -30.5903   -8.9923   -8.3628 C   0  0  0  0  0  0  0  0  0  0  0  0
  -31.1721  -11.6535   -8.4083 C   0  0  0  0  0  0  0  0  0  0  0  0
  -32.4711  -12.4565   -8.1408 C   0  0  0  0  0  0  0  0  0  0  0  0
  -33.0194  -12.2082   -6.7263 C   0  0  0  0  0  0  0  0  0  0  0  0
  -33.3323  -10.7255   -6.4882 C   0  0  0  0  0  0  0  0  0  0  0  0
  -32.6020   -8.0773   -6.0095 H   0  0  0  0  0  0  0  0  0  0  0  0
  -29.3497   -8.7434   -9.1930 C   0  0  0  0  0  0  0  0  0  0  0  0
  -28.0277   -8.6970   -8.5156 N   0  0  0  0  0  0  0  0  0  0  0  0
  -26.9001   -8.5048   -9.4510 C   0  0  0  0  0  0  0  0  0  0  0  0
  -26.8409   -9.5903  -10.5398 C   0  0  0  0  0  0  0  0  0  0  0  0
  -26.7375  -10.9097   -9.9787 O   0  0  0  0  0  0  0  0  0  0  0  0
  -27.7058  -11.1719   -8.9521 C   0  0  0  0  0  0  0  0  0  0  0  0
  -27.7669  -10.0400   -7.9040 C   0  0  0  0  0  0  0  0  0  0  0  0
  -28.4617   -1.2747   -6.0431 S   0  0  0  0  0  0  0  0  0  0  0  0
  -28.7349   -1.3248   -7.4662 O   0  0  0  0  0  0  0  0  0  0  0  0
  -27.2463   -0.6560   -5.5273 O   0  0  0  0  0  0  0  0  0  0  0  0
  -30.1526    0.8517   -5.7366 C   0  0  0  0  0  0  0  0  0  0  0  0
  -29.8715   -0.5490   -5.2294 C   0  0  0  0  0  0  0  0  0  0  0  0
 33 34  1  0  0  0
 34 30  1  0  0  0
 30 31  2  0  0  0
 30 32  2  0  0  0
 30  1  1  0  0  0
  1  2  1  0  0  0
  1  6  2  0  0  0
  2  3  2  0  0  0
  3  4  1  0  0  0
  4  5  2  0  0  0
  4 11  1  0  0  0
  5  6  1  0  0  0
  5  7  1  0  0  0
  7  8  2  0  0  0
  7  9  1  0  0  0
  8 13  1  0  0  0
 13 14  1  0  0  0
 13 17  2  0  0  0
 14 15  1  0  0  0
 14 22  1  0  0  0
 15 16  2  0  0  0
 15 21  1  0  0  0
 16 17  1  0  0  0
 16 18  1  0  0  0
 17 23  1  0  0  0
 23 24  1  0  0  0
 24 25  1  0  0  0
 24 29  1  0  0  0
 25 26  1  0  0  0
 26 27  1  0  0  0
 27 28  1  0  0  0
 28 29  1  0  0  0
 18 19  1  0  0  0
 19 20  1  0  0  0
 20 21  1  0  0  0
  9 10  2  0  0  0
  9 11  1  0  0  0
 11 12  1  0  0  0
M  END
> <minimizedAffinity>
-8.55998

$$$$
