CHEMBL269916


 37 41  0  0  0  0  0  0  0  0999 V2000
  -13.2428   -5.2685  -14.4417 C   0  0  0  0  0  0  0  0  0  0  0  0
  -13.6237   -4.1932  -15.2344 C   0  0  0  0  0  0  0  0  0  0  0  0
  -14.2946   -3.1127  -14.6484 C   0  0  0  0  0  0  0  0  0  0  0  0
  -14.7616   -3.1497  -13.3113 C   0  0  0  0  0  0  0  0  0  0  0  0
  -15.4228   -2.0831  -12.6169 C   0  0  0  0  0  0  0  0  0  0  0  0
  -15.8590   -2.2604  -11.2882 C   0  0  0  0  0  0  0  0  0  0  0  0
  -15.6576   -3.4631  -10.6257 C   0  0  0  0  0  0  0  0  0  0  0  0
  -14.9855   -4.4919  -11.2708 C   0  0  0  0  0  0  0  0  0  0  0  0
  -14.5237   -4.3451  -12.5857 C   0  0  0  0  0  0  0  0  0  0  0  0
  -13.7573   -5.3783  -13.1538 C   0  0  0  0  0  0  0  0  0  0  0  0
  -15.6278   -0.6951  -13.1438 C   0  0  0  0  0  0  0  0  0  0  0  0
  -15.1330    0.2314  -12.5077 O   0  0  0  0  0  0  0  0  0  0  0  0
  -16.4338   -0.5535  -14.2586 N   0  0  0  0  0  0  0  0  0  0  0  0
  -16.9193   -1.3826  -14.5764 H   0  0  0  0  0  0  0  0  0  0  0  0
  -16.7933    0.6642  -14.8841 C   0  0  0  0  0  0  0  0  0  0  0  0
  -15.9104    1.4516  -15.6308 C   0  0  0  0  0  0  0  0  0  0  0  0
  -16.3194    2.6912  -16.1296 C   0  0  0  0  0  0  0  0  0  0  0  0
  -15.2079    3.6674  -17.0118 Cl  0  0  0  0  0  0  0  0  0  0  0  0
  -17.6109    3.1558  -15.9092 C   0  0  0  0  0  0  0  0  0  0  0  0
  -18.5038    2.3521  -15.2098 C   0  0  0  0  0  0  0  0  0  0  0  0
  -20.1092    2.9068  -14.9308 Cl  0  0  0  0  0  0  0  0  0  0  0  0
  -18.1085    1.1086  -14.7101 C   0  0  0  0  0  0  0  0  0  0  0  0
  -12.3163   -6.2201  -14.8020 O   0  0  0  0  0  0  0  0  0  0  0  0
  -13.5012   -6.6809  -19.8533 C   0  0  0  0  0  0  0  0  0  0  0  0
  -13.5437   -7.9379  -19.2237 C   0  0  0  0  0  0  0  0  0  0  0  0
  -13.2128   -8.1181  -17.8869 C   0  0  0  0  0  0  0  0  0  0  0  0
  -13.4332   -9.3242  -17.3393 N   0  0  0  0  0  0  0  0  0  0  0  0
  -13.2300   -9.4723  -16.0153 C   0  0  0  0  0  0  0  0  0  0  0  0
  -12.8460   -8.4435  -15.1834 C   0  0  0  0  0  0  0  0  0  0  0  0
  -12.6153   -7.1907  -15.7476 C   0  0  0  0  0  0  0  0  0  0  0  0
  -12.7194   -7.0256  -17.1566 C   0  0  0  0  0  0  0  0  0  0  0  0
  -12.4157   -5.8525  -17.8840 C   0  0  0  0  0  0  0  0  0  0  0  0
  -12.8937   -5.6258  -19.1787 C   0  0  0  0  0  0  0  0  0  0  0  0
  -13.0829   -6.5501  -22.1859 C   0  0  0  0  0  0  0  0  0  0  0  0
  -14.0157   -6.4781  -21.1054 O   0  0  0  0  0  0  0  0  0  0  0  0
  -12.7191   -4.3237  -19.5527 O   0  0  0  0  0  0  0  0  0  0  0  0
  -13.7228   -3.3603  -19.2787 C   0  0  0  0  0  0  0  0  0  0  0  0
 34 35  1  0  0  0
 35 24  1  0  0  0
 24 25  1  0  0  0
 24 33  2  0  0  0
 25 26  2  0  0  0
 26 27  1  0  0  0
 26 31  1  0  0  0
 27 28  2  0  0  0
 28 29  1  0  0  0
 29 30  2  0  0  0
 30 23  1  0  0  0
 30 31  1  0  0  0
 23  1  1  0  0  0
  1  2  1  0  0  0
  1 10  2  0  0  0
  2  3  2  0  0  0
  3  4  1  0  0  0
  4  5  1  0  0  0
  4  9  2  0  0  0
  5 11  1  0  0  0
  5  6  2  0  0  0
 11 12  2  0  0  0
 11 13  1  0  0  0
 13 15  1  0  0  0
 13 14  1  0  0  0
 15 16  1  0  0  0
 15 22  2  0  0  0
 16 17  2  0  0  0
 17 18  1  0  0  0
 17 19  1  0  0  0
 19 20  2  0  0  0
 20 21  1  0  0  0
 20 22  1  0  0  0
  6  7  1  0  0  0
  7  8  2  0  0  0
  8  9  1  0  0  0
  9 10  1  0  0  0
 31 32  2  0  0  0
 32 33  1  0  0  0
 33 36  1  0  0  0
 36 37  1  0  0  0
M  END
> <minimizedAffinity>
-8.56155

$$$$
