CHEMBL3633296


 34 37  0  0  0  0  0  0  0  0999 V2000
  -19.6208    1.8829  -15.4173 C   0  0  0  0  0  0  0  0  0  0  0  0
  -19.6080    3.2690  -15.2674 C   0  0  0  0  0  0  0  0  0  0  0  0
  -18.4453    4.0018  -15.4589 C   0  0  0  0  0  0  0  0  0  0  0  0
  -17.2496    3.3565  -15.7486 C   0  0  0  0  0  0  0  0  0  0  0  0
  -17.1858    1.9554  -15.7853 C   0  0  0  0  0  0  0  0  0  0  0  0
  -18.3931    1.2373  -15.5920 C   0  0  0  0  0  0  0  0  0  0  0  0
  -15.8822    1.2641  -15.9059 C   0  0  0  0  0  0  0  0  0  0  0  0
  -15.2483    1.1081  -17.1655 C   0  0  0  0  0  0  0  0  0  0  0  0
  -13.9250    0.6890  -17.2906 C   0  0  0  0  0  0  0  0  0  0  0  0
  -13.1476    0.4569  -16.1591 C   0  0  0  0  0  0  0  0  0  0  0  0
  -13.7906    0.5402  -14.9226 C   0  0  0  0  0  0  0  0  0  0  0  0
  -13.3085    0.4036  -13.6491 N   0  0  0  0  0  0  0  0  0  0  0  0
  -14.2552    0.3842  -12.7007 N   0  0  0  0  0  0  0  0  0  0  0  0
  -15.3745    0.6265  -13.3728 C   0  0  0  0  0  0  0  0  0  0  0  0
  -16.5794    0.6145  -12.7749 N   0  0  0  0  0  0  0  0  0  0  0  0
  -15.1407    0.8503  -14.7663 C   0  0  0  0  0  0  0  0  0  0  0  0
  -12.3413    0.3065  -13.3633 H   0  0  0  0  0  0  0  0  0  0  0  0
  -16.6142    0.1877  -11.8556 H   0  0  0  0  0  0  0  0  0  0  0  0
  -17.4034    0.4143  -13.3352 H   0  0  0  0  0  0  0  0  0  0  0  0
  -22.5896   -0.0386  -14.4410 N   0  0  0  0  0  0  0  0  0  0  0  0
  -21.4811    0.7753  -14.2495 C   0  0  0  0  0  0  0  0  0  0  0  0
  -21.0980    1.1483  -13.1458 O   0  0  0  0  0  0  0  0  0  0  0  0
  -20.8266    1.1180  -15.4204 N   0  0  0  0  0  0  0  0  0  0  0  0
  -22.6701   -0.5135  -15.3214 H   0  0  0  0  0  0  0  0  0  0  0  0
  -21.3638    1.1242  -16.2747 H   0  0  0  0  0  0  0  0  0  0  0  0
  -25.5344   -1.1449  -12.4147 C   0  0  0  0  0  0  0  0  0  0  0  0
  -24.8933   -1.8037  -11.3559 C   0  0  0  0  0  0  0  0  0  0  0  0
  -23.5115   -1.7907  -11.2564 C   0  0  0  0  0  0  0  0  0  0  0  0
  -22.7579   -1.1447  -12.2289 C   0  0  0  0  0  0  0  0  0  0  0  0
  -23.3553   -0.5493  -13.3470 C   0  0  0  0  0  0  0  0  0  0  0  0
  -24.7544   -0.5072  -13.4058 C   0  0  0  0  0  0  0  0  0  0  0  0
  -27.5643   -2.1879  -13.4724 C   0  0  0  0  0  0  0  0  0  0  0  0
  -27.0519   -1.1672  -12.4565 C   0  0  0  0  0  0  0  0  0  0  0  0
  -27.6590   -1.3975  -11.0720 C   0  0  0  0  0  0  0  0  0  0  0  0
 32 33  1  0  0  0
 33 34  1  0  0  0
 33 26  1  0  0  0
 26 27  1  0  0  0
 26 31  2  0  0  0
 27 28  2  0  0  0
 28 29  1  0  0  0
 29 30  2  0  0  0
 30 20  1  0  0  0
 30 31  1  0  0  0
 20 21  1  0  0  0
 20 24  1  0  0  0
 21 22  2  0  0  0
 21 23  1  0  0  0
 23  1  1  0  0  0
 23 25  1  0  0  0
  1  2  1  0  0  0
  1  6  2  0  0  0
  2  3  2  0  0  0
  3  4  1  0  0  0
  4  5  2  0  0  0
  5  7  1  0  0  0
  5  6  1  0  0  0
  7  8  1  0  0  0
  7 16  2  0  0  0
  8  9  2  0  0  0
  9 10  1  0  0  0
 10 11  2  0  0  0
 11 12  1  0  0  0
 11 16  1  0  0  0
 12 13  1  0  0  0
 12 17  1  0  0  0
 13 14  2  0  0  0
 14 15  1  0  0  0
 14 16  1  0  0  0
 15 18  1  0  0  0
 15 19  1  0  0  0
M  END
> <minimizedAffinity>
-9.75612

$$$$
