CHEMBL3739835


 40 44  0  0  0  0  0  0  0  0999 V2000
  -29.4141  -10.6856   -7.6303 O   0  0  0  0  0  0  0  0  0  0  0  0
  -29.8313   -9.5165   -7.0460 C   0  0  0  0  0  0  0  0  0  0  0  0
  -31.1638   -9.1465   -7.2211 C   0  0  0  0  0  0  0  0  0  0  0  0
  -31.5802   -7.8846   -6.7961 C   0  0  0  0  0  0  0  0  0  0  0  0
  -30.6885   -7.0438   -6.1069 C   0  0  0  0  0  0  0  0  0  0  0  0
  -31.0215   -5.7742   -5.6069 C   0  0  0  0  0  0  0  0  0  0  0  0
  -31.1640   -5.8457   -4.2289 C   0  0  0  0  0  0  0  0  0  0  0  0
  -30.1298   -6.4759   -3.5402 C   0  0  0  0  0  0  0  0  0  0  0  0
  -29.2115   -7.2538   -4.2588 C   0  0  0  0  0  0  0  0  0  0  0  0
  -29.5546   -7.6577   -5.5549 C   0  0  0  0  0  0  0  0  0  0  0  0
  -29.0227   -8.7932   -6.1722 C   0  0  0  0  0  0  0  0  0  0  0  0
  -29.9637   -4.6478   -5.9698 C   0  0  0  0  0  0  0  0  0  0  0  0
  -29.0496   -4.8940   -6.7559 O   0  0  0  0  0  0  0  0  0  0  0  0
  -30.1438   -3.4312   -5.3115 N   0  0  0  0  0  0  0  0  0  0  0  0
  -30.9860   -3.3434   -4.7610 H   0  0  0  0  0  0  0  0  0  0  0  0
  -29.2862   -2.2999   -5.2367 C   0  0  0  0  0  0  0  0  0  0  0  0
  -27.9169   -2.3420   -4.9928 C   0  0  0  0  0  0  0  0  0  0  0  0
  -27.1557   -1.1490   -4.9374 C   0  0  0  0  0  0  0  0  0  0  0  0
  -27.7697    0.0883   -5.1149 C   0  0  0  0  0  0  0  0  0  0  0  0
  -29.1400    0.1480   -5.3425 C   0  0  0  0  0  0  0  0  0  0  0  0
  -29.8893   -1.0366   -5.3979 C   0  0  0  0  0  0  0  0  0  0  0  0
  -26.1757  -11.3128   -8.8461 C   0  0  0  0  0  0  0  0  0  0  0  0
  -26.1086  -10.6819  -10.0278 N   0  0  0  0  0  0  0  0  0  0  0  0
  -27.2239  -10.0578  -10.4535 C   0  0  0  0  0  0  0  0  0  0  0  0
  -28.3944  -10.0213   -9.7399 C   0  0  0  0  0  0  0  0  0  0  0  0
  -28.3481  -10.6273   -8.5065 C   0  0  0  0  0  0  0  0  0  0  0  0
  -27.2620  -11.2834   -8.0653 N   0  0  0  0  0  0  0  0  0  0  0  0
  -25.0402  -12.0470   -8.4926 N   0  0  0  0  0  0  0  0  0  0  0  0
  -25.2124  -13.0165   -8.7184 H   0  0  0  0  0  0  0  0  0  0  0  0
  -23.4903  -11.3392   -5.1931 C   0  0  0  0  0  0  0  0  0  0  0  0
  -22.1322  -11.2700   -5.5060 C   0  0  0  0  0  0  0  0  0  0  0  0
  -21.7240  -11.4969   -6.8155 C   0  0  0  0  0  0  0  0  0  0  0  0
  -22.6854  -11.7854   -7.7999 C   0  0  0  0  0  0  0  0  0  0  0  0
  -24.0590  -11.8014   -7.5156 C   0  0  0  0  0  0  0  0  0  0  0  0
  -24.4523  -11.6030   -6.1832 C   0  0  0  0  0  0  0  0  0  0  0  0
  -23.9803  -11.0921   -3.5040 S   0  0  0  0  0  0  0  0  0  0  0  0
  -22.7754  -10.9306   -2.7098 O   0  0  0  0  0  0  0  0  0  0  0  0
  -24.9374  -12.1395   -3.1914 O   0  0  0  0  0  0  0  0  0  0  0  0
  -26.3212   -9.6819   -3.7251 C   0  0  0  0  0  0  0  0  0  0  0  0
  -24.8331   -9.5179   -3.5527 C   0  0  0  0  0  0  0  0  0  0  0  0
 39 40  1  0  0  0
 40 36  1  0  0  0
 36 37  2  0  0  0
 36 38  2  0  0  0
 36 30  1  0  0  0
 30 31  1  0  0  0
 30 35  2  0  0  0
 31 32  2  0  0  0
 32 33  1  0  0  0
 33 34  2  0  0  0
 34 28  1  0  0  0
 34 35  1  0  0  0
 28 22  1  0  0  0
 28 29  1  0  0  0
 22 23  1  0  0  0
 22 27  2  0  0  0
 23 24  2  0  0  0
 24 25  1  0  0  0
 25 26  2  0  0  0
 26  1  1  0  0  0
 26 27  1  0  0  0
  1  2  1  0  0  0
  2  3  1  0  0  0
  2 11  2  0  0  0
  3  4  2  0  0  0
  4  5  1  0  0  0
  5  6  1  0  0  0
  5 10  2  0  0  0
  6 12  1  0  0  0
  6  7  2  0  0  0
 12 13  2  0  0  0
 12 14  1  0  0  0
 14 16  1  0  0  0
 14 15  1  0  0  0
 16 17  1  0  0  0
 16 21  2  0  0  0
 17 18  2  0  0  0
 18 19  1  0  0  0
 19 20  2  0  0  0
 20 21  1  0  0  0
  7  8  1  0  0  0
  8  9  2  0  0  0
  9 10  1  0  0  0
 10 11  1  0  0  0
M  END
> <minimizedAffinity>
-9.58521

$$$$
