CHEMBL250197


 24 27  0  0  0  0  0  0  0  0999 V2000
  -29.6612   -5.7751   -7.0325 C   0  0  0  0  0  0  0  0  0  0  0  0
  -29.3182   -6.7409   -6.1679 C   0  0  0  0  0  0  0  0  0  0  0  0
  -28.2814   -6.7757   -5.1074 C   0  0  0  0  0  0  0  0  0  0  0  0
  -27.5897   -5.8866   -4.6564 O   0  0  0  0  0  0  0  0  0  0  0  0
  -28.2734   -8.1057   -4.7192 N   0  0  0  0  0  0  0  0  0  0  0  0
  -29.2170   -8.8987   -5.3239 N   0  0  0  0  0  0  0  0  0  0  0  0
  -29.8722   -8.1275   -6.1602 C   0  0  0  0  0  0  0  0  0  0  0  0
  -27.6752   -8.4732   -3.9886 H   0  0  0  0  0  0  0  0  0  0  0  0
  -27.3573   -1.8066   -8.8333 C   0  0  0  0  0  0  0  0  0  0  0  0
  -28.1441   -2.6419   -7.9530 N   0  0  0  0  0  0  0  0  0  0  0  0
  -28.4502   -3.9496   -8.2002 C   0  0  0  0  0  0  0  0  0  0  0  0
  -29.2100   -4.4242   -7.1561 C   0  0  0  0  0  0  0  0  0  0  0  0
  -29.3487   -3.3508   -6.1977 C   0  0  0  0  0  0  0  0  0  0  0  0
  -29.9690   -3.1643   -4.9314 C   0  0  0  0  0  0  0  0  0  0  0  0
  -30.9826   -4.5201   -4.0703 Br  0  0  0  0  0  0  0  0  0  0  0  0
  -29.8648   -1.9354   -4.2611 C   0  0  0  0  0  0  0  0  0  0  0  0
  -29.1659   -0.8767   -4.8255 C   0  0  0  0  0  0  0  0  0  0  0  0
  -28.5571   -1.0154   -6.0711 C   0  0  0  0  0  0  0  0  0  0  0  0
  -28.6543   -2.2514   -6.7347 C   0  0  0  0  0  0  0  0  0  0  0  0
  -31.0026   -8.6004   -6.9004 C   0  0  0  0  0  0  0  0  0  0  0  0
  -32.3519   -8.3043   -6.8321 C   0  0  0  0  0  0  0  0  0  0  0  0
  -33.1634   -8.9936   -7.7179 N   0  0  0  0  0  0  0  0  0  0  0  0
  -32.4653   -9.8367   -8.4580 N   0  0  0  0  0  0  0  0  0  0  0  0
  -30.8320   -9.8203   -8.0978 S   0  0  0  0  0  0  0  0  0  0  0  0
  9 10  1  0  0  0
 10 11  1  0  0  0
 10 19  1  0  0  0
 11 12  2  0  0  0
 12  1  1  0  0  0
 12 13  1  0  0  0
  1  2  2  0  0  0
  2  3  1  0  0  0
  2  7  1  0  0  0
  3  4  2  0  0  0
  3  5  1  0  0  0
  5  6  1  0  0  0
  5  8  1  0  0  0
  6  7  2  0  0  0
  7 20  1  0  0  0
 20 21  2  0  0  0
 20 24  1  0  0  0
 21 22  1  0  0  0
 22 23  2  0  0  0
 23 24  1  0  0  0
 13 14  1  0  0  0
 13 19  2  0  0  0
 14 15  1  0  0  0
 14 16  2  0  0  0
 16 17  1  0  0  0
 17 18  2  0  0  0
 18 19  1  0  0  0
M  END
> <minimizedAffinity>
-8.74481

$$$$
