CHEMBL357803


 27 29  0  0  0  0  0  0  0  0999 V2000
  -28.6170   -9.9415   -9.6520 C   0  0  0  0  0  0  0  0  0  0  0  0
  -29.4371   -9.0987   -8.7434 C   0  0  0  0  0  0  0  0  0  0  0  0
  -28.9465   -7.8957   -8.3053 N   0  0  0  0  0  0  0  0  0  0  0  0
  -29.8551   -7.2575   -7.5059 C   0  0  0  0  0  0  0  0  0  0  0  0
  -30.9698   -8.0846   -7.4176 C   0  0  0  0  0  0  0  0  0  0  0  0
  -32.2327   -7.8138   -6.6666 C   0  0  0  0  0  0  0  0  0  0  0  0
  -30.7028   -9.2604   -8.2030 C   0  0  0  0  0  0  0  0  0  0  0  0
  -28.0342   -7.5308   -8.5614 H   0  0  0  0  0  0  0  0  0  0  0  0
  -29.5930   -5.9814   -6.9402 C   0  0  0  0  0  0  0  0  0  0  0  0
  -29.3591   -5.6394   -5.6637 C   0  0  0  0  0  0  0  0  0  0  0  0
  -29.2909   -6.4570   -4.3937 C   0  0  0  0  0  0  0  0  0  0  0  0
  -29.4395   -7.6557   -4.2583 O   0  0  0  0  0  0  0  0  0  0  0  0
  -29.0207   -5.5438   -3.3862 N   0  0  0  0  0  0  0  0  0  0  0  0
  -28.9137   -4.2505   -3.8831 C   0  0  0  0  0  0  0  0  0  0  0  0
  -28.6581   -3.0998   -3.1656 C   0  0  0  0  0  0  0  0  0  0  0  0
  -28.5938   -1.8981   -3.8761 C   0  0  0  0  0  0  0  0  0  0  0  0
  -28.7865   -1.8814   -5.2688 C   0  0  0  0  0  0  0  0  0  0  0  0
  -28.6977   -0.2400   -6.2043 Br  0  0  0  0  0  0  0  0  0  0  0  0
  -29.0454   -3.0563   -5.9787 C   0  0  0  0  0  0  0  0  0  0  0  0
  -29.1080   -4.2423   -5.2663 C   0  0  0  0  0  0  0  0  0  0  0  0
  -28.9207   -5.8163   -2.4186 H   0  0  0  0  0  0  0  0  0  0  0  0
  -31.6463  -10.4116   -8.4138 C   0  0  0  0  0  0  0  0  0  0  0  0
  -31.5992  -11.4333   -7.2830 C   0  0  0  0  0  0  0  0  0  0  0  0
  -32.8930  -11.4594   -6.5108 C   0  0  0  0  0  0  0  0  0  0  0  0
  -34.0063  -11.2940   -6.9812 O   0  0  0  0  0  0  0  0  0  0  0  0
  -32.6941  -11.6944   -5.1912 O   0  0  0  0  0  0  0  0  0  0  0  0
  -31.7540  -11.8067   -4.9530 H   0  0  0  0  0  0  0  0  0  0  0  0
  1  2  1  0  0  0
  2  3  1  0  0  0
  2  7  2  0  0  0
  3  4  1  0  0  0
  3  8  1  0  0  0
  4  9  1  0  0  0
  4  5  2  0  0  0
  9 10  2  0  0  0
 10 11  1  0  0  0
 10 20  1  0  0  0
 11 12  2  0  0  0
 11 13  1  0  0  0
 13 14  1  0  0  0
 13 21  1  0  0  0
 14 15  1  0  0  0
 14 20  2  0  0  0
 15 16  2  0  0  0
 16 17  1  0  0  0
 17 18  1  0  0  0
 17 19  2  0  0  0
 19 20  1  0  0  0
  5  6  1  0  0  0
  5  7  1  0  0  0
  7 22  1  0  0  0
 22 23  1  0  0  0
 23 24  1  0  0  0
 24 25  2  0  0  0
 24 26  1  0  0  0
 26 27  1  0  0  0
M  END
> <minimizedAffinity>
-8.43121

$$$$
