CHEMBL3989516


 42 45  0  0  0  0  0  0  0  0999 V2000
  -27.9167   -2.4780   -8.3195 C   0  0  0  0  0  0  0  0  0  0  0  0
  -27.5979   -1.2646   -7.7909 N   0  0  0  0  0  0  0  0  0  0  0  0
  -28.1539   -0.9293   -6.6151 C   0  0  0  0  0  0  0  0  0  0  0  0
  -28.9973   -1.7760   -5.9145 C   0  0  0  0  0  0  0  0  0  0  0  0
  -29.4543   -1.4053   -4.7156 F   0  0  0  0  0  0  0  0  0  0  0  0
  -29.2910   -2.9850   -6.5115 C   0  0  0  0  0  0  0  0  0  0  0  0
  -28.7831   -3.2795   -7.7261 N   0  0  0  0  0  0  0  0  0  0  0  0
  -27.1521   -2.9357   -9.4163 N   0  0  0  0  0  0  0  0  0  0  0  0
  -26.5364   -3.6863   -9.1435 H   0  0  0  0  0  0  0  0  0  0  0  0
  -27.0167   -1.6752  -12.8333 C   0  0  0  0  0  0  0  0  0  0  0  0
  -27.5275   -2.0515  -11.6085 C   0  0  0  0  0  0  0  0  0  0  0  0
  -26.7259   -2.1152  -10.4817 C   0  0  0  0  0  0  0  0  0  0  0  0
  -25.4763   -1.4974  -10.5434 C   0  0  0  0  0  0  0  0  0  0  0  0
  -25.0487   -0.8754  -11.7520 C   0  0  0  0  0  0  0  0  0  0  0  0
  -25.8381   -0.9177  -12.8981 C   0  0  0  0  0  0  0  0  0  0  0  0
  -28.7895   -2.9489  -13.7085 C   0  0  0  0  0  0  0  0  0  0  0  0
  -27.6848   -2.0752  -13.9693 O   0  0  0  0  0  0  0  0  0  0  0  0
  -23.8346   -0.2267  -11.8235 O   0  0  0  0  0  0  0  0  0  0  0  0
  -22.6962   -1.0316  -12.1156 C   0  0  0  0  0  0  0  0  0  0  0  0
  -25.5714   -0.3536  -14.1116 O   0  0  0  0  0  0  0  0  0  0  0  0
  -24.9109   -1.1060  -15.1341 C   0  0  0  0  0  0  0  0  0  0  0  0
  -30.1729   -3.8185   -5.8444 N   0  0  0  0  0  0  0  0  0  0  0  0
  -30.8882   -3.4053   -5.2721 H   0  0  0  0  0  0  0  0  0  0  0  0
  -29.9215   -5.1416   -5.3917 C   0  0  0  0  0  0  0  0  0  0  0  0
  -30.0555   -5.4471   -4.0574 C   0  0  0  0  0  0  0  0  0  0  0  0
  -29.6829   -6.7015   -3.6019 C   0  0  0  0  0  0  0  0  0  0  0  0
  -29.1846   -7.6157   -4.5175 C   0  0  0  0  0  0  0  0  0  0  0  0
  -29.0876   -7.2918   -5.8699 C   0  0  0  0  0  0  0  0  0  0  0  0
  -29.4291   -6.0516   -6.3058 N   0  0  0  0  0  0  0  0  0  0  0  0
  -28.5181   -8.2415   -6.7418 N   0  0  0  0  0  0  0  0  0  0  0  0
  -27.8698   -9.3532   -6.1981 C   0  0  0  0  0  0  0  0  0  0  0  0
  -26.8681   -9.9238   -6.6230 O   0  0  0  0  0  0  0  0  0  0  0  0
  -28.6710   -9.8512   -4.9379 C   0  0  0  0  0  0  0  0  0  0  0  0
  -30.0038  -10.4028   -5.3951 C   0  0  0  0  0  0  0  0  0  0  0  0
  -27.8527  -10.9614   -4.2496 C   0  0  0  0  0  0  0  0  0  0  0  0
  -28.8493   -8.8233   -3.9675 O   0  0  0  0  0  0  0  0  0  0  0  0
  -28.4468   -8.1026   -8.1762 C   0  0  0  0  0  0  0  0  0  0  0  0
  -29.5992   -8.7683   -8.7682 O   0  0  0  0  0  0  0  0  0  0  0  0
  -29.1479   -9.9940   -9.9026 P   0  0  0  0  0  0  0  0  0  0  0  0
  -27.6994   -9.3848   -9.8631 O   0  0  0  0  0  0  0  0  0  0  0  0
  -29.5564  -11.0344   -8.8441 O   0  0  0  0  0  0  0  0  0  0  0  0
  -28.6967  -11.2198  -11.0369 O   0  0  0  0  0  0  0  0  0  0  0  0
 16 17  1  0  0  0
 17 10  1  0  0  0
 10 11  1  0  0  0
 10 15  2  0  0  0
 11 12  2  0  0  0
 12  8  1  0  0  0
 12 13  1  0  0  0
  8  1  1  0  0  0
  8  9  1  0  0  0
  1  2  1  0  0  0
  1  7  2  0  0  0
  2  3  2  0  0  0
  3  4  1  0  0  0
  4  5  1  0  0  0
  4  6  2  0  0  0
  6 22  1  0  0  0
  6  7  1  0  0  0
 22 24  1  0  0  0
 22 23  1  0  0  0
 24 25  1  0  0  0
 24 29  2  0  0  0
 25 26  2  0  0  0
 26 27  1  0  0  0
 27 28  2  0  0  0
 27 36  1  0  0  0
 28 29  1  0  0  0
 28 30  1  0  0  0
 30 37  1  0  0  0
 30 31  1  0  0  0
 37 38  1  0  0  0
 38 39  1  0  0  0
 39 40  2  0  0  0
 39 41  1  0  0  0
 39 42  1  0  0  0
 31 32  2  0  0  0
 31 33  1  0  0  0
 33 34  1  0  0  0
 33 35  1  0  0  0
 33 36  1  0  0  0
 13 14  2  0  0  0
 14 18  1  0  0  0
 14 15  1  0  0  0
 18 19  1  0  0  0
 15 20  1  0  0  0
 20 21  1  0  0  0
M  CHG 1  41  -1
M  CHG 1  42  -1
M  END
> <minimizedAffinity>
-8.09611

$$$$
