CHEMBL4776125


 49 54  0  0  0  0  0  0  0  0999 V2000
  -14.5569    0.5543  -15.3978 C   0  0  0  0  0  0  0  0  0  0  0  0
  -15.0828    0.0312  -14.2168 C   0  0  0  0  0  0  0  0  0  0  0  0
  -16.3751    0.3802  -13.7985 C   0  0  0  0  0  0  0  0  0  0  0  0
  -17.1399    1.3122  -14.5054 C   0  0  0  0  0  0  0  0  0  0  0  0
  -16.5907    1.8849  -15.6526 C   0  0  0  0  0  0  0  0  0  0  0  0
  -15.3207    1.4929  -16.0977 C   0  0  0  0  0  0  0  0  0  0  0  0
  -14.8459    2.0271  -17.2333 F   0  0  0  0  0  0  0  0  0  0  0  0
  -18.4259    1.7282  -14.0800 N   0  0  0  0  0  0  0  0  0  0  0  0
  -19.2868    2.5592  -14.7888 C   0  0  0  0  0  0  0  0  0  0  0  0
  -18.9899    3.1710  -15.8109 O   0  0  0  0  0  0  0  0  0  0  0  0
  -18.6846    1.4971  -13.1244 H   0  0  0  0  0  0  0  0  0  0  0  0
  -20.7047    2.6886  -14.2357 C   0  0  0  0  0  0  0  0  0  0  0  0
  -21.5363    3.7094  -14.9987 C   0  0  0  0  0  0  0  0  0  0  0  0
  -21.3383    1.3537  -14.2173 C   0  0  0  0  0  0  0  0  0  0  0  0
  -20.8738    0.1992  -14.6460 N   0  0  0  0  0  0  0  0  0  0  0  0
  -21.8612   -0.7288  -14.3906 N   0  0  0  0  0  0  0  0  0  0  0  0
  -22.8634   -0.0759  -13.8335 C   0  0  0  0  0  0  0  0  0  0  0  0
  -22.6013    1.2634  -13.7003 O   0  0  0  0  0  0  0  0  0  0  0  0
  -24.1486   -0.5587  -13.3437 C   0  0  0  0  0  0  0  0  0  0  0  0
  -24.4945   -0.3633  -11.9956 C   0  0  0  0  0  0  0  0  0  0  0  0
  -25.7263   -0.8030  -11.5034 C   0  0  0  0  0  0  0  0  0  0  0  0
  -26.6167   -1.4411  -12.3569 C   0  0  0  0  0  0  0  0  0  0  0  0
  -27.7992   -1.8573  -11.8873 F   0  0  0  0  0  0  0  0  0  0  0  0
  -26.2975   -1.6519  -13.6926 C   0  0  0  0  0  0  0  0  0  0  0  0
  -25.0657   -1.2122  -14.1854 C   0  0  0  0  0  0  0  0  0  0  0  0
  -13.3407    0.2045  -15.9562 O   0  0  0  0  0  0  0  0  0  0  0  0
  -12.0405   -3.5519  -14.2298 C   0  0  0  0  0  0  0  0  0  0  0  0
  -12.6322   -2.3967  -14.7260 C   0  0  0  0  0  0  0  0  0  0  0  0
  -12.8537   -2.2119  -16.1042 C   0  0  0  0  0  0  0  0  0  0  0  0
  -13.2130   -0.9719  -16.6737 C   0  0  0  0  0  0  0  0  0  0  0  0
  -13.5039   -0.8871  -18.0293 C   0  0  0  0  0  0  0  0  0  0  0  0
  -13.3592   -2.0296  -18.7909 C   0  0  0  0  0  0  0  0  0  0  0  0
  -12.9280   -3.2101  -18.2981 N   0  0  0  0  0  0  0  0  0  0  0  0
  -12.6687   -3.2992  -16.9816 C   0  0  0  0  0  0  0  0  0  0  0  0
  -12.1997   -4.4942  -16.4557 C   0  0  0  0  0  0  0  0  0  0  0  0
  -11.8884   -4.6388  -15.0964 C   0  0  0  0  0  0  0  0  0  0  0  0
  -11.3514   -2.4761  -12.1975 C   0  0  0  0  0  0  0  0  0  0  0  0
  -11.6064   -3.6656  -12.9418 O   0  0  0  0  0  0  0  0  0  0  0  0
  -11.4501   -5.8934  -14.7560 O   0  0  0  0  0  0  0  0  0  0  0  0
  -12.2931   -7.0009  -15.0907 C   0  0  0  0  0  0  0  0  0  0  0  0
  -13.3222   -7.3658  -14.0134 C   0  0  0  0  0  0  0  0  0  0  0  0
  -14.5653   -6.4752  -14.1143 C   0  0  0  0  0  0  0  0  0  0  0  0
  -15.4778   -6.5939  -12.9649 N   0  0  0  0  0  0  0  0  0  0  0  0
  -16.7037   -5.7919  -13.0693 C   0  0  0  0  0  0  0  0  0  0  0  0
  -16.4719   -4.2859  -12.9280 C   0  0  0  0  0  0  0  0  0  0  0  0
  -15.7610   -3.9714  -11.6070 C   0  0  0  0  0  0  0  0  0  0  0  0
  -15.4637   -2.4806  -11.4843 C   0  0  0  0  0  0  0  0  0  0  0  0
  -14.4824   -4.8090  -11.4879 C   0  0  0  0  0  0  0  0  0  0  0  0
  -14.7757   -6.2989  -11.7033 C   0  0  0  0  0  0  0  0  0  0  0  0
 37 38  1  0  0  0
 38 27  1  0  0  0
 27 28  1  0  0  0
 27 36  2  0  0  0
 28 29  2  0  0  0
 29 30  1  0  0  0
 29 34  1  0  0  0
 30 26  1  0  0  0
 30 31  2  0  0  0
 26  1  1  0  0  0
  1  2  1  0  0  0
  1  6  2  0  0  0
  2  3  2  0  0  0
  3  4  1  0  0  0
  4  8  1  0  0  0
  4  5  2  0  0  0
  8  9  1  0  0  0
  8 11  1  0  0  0
  9 10  2  0  0  0
  9 12  1  0  0  0
 12 13  1  0  0  0
 12 14  1  0  0  0
 14 15  2  0  0  0
 14 18  1  0  0  0
 15 16  1  0  0  0
 16 17  2  0  0  0
 17 19  1  0  0  0
 17 18  1  0  0  0
 19 20  1  0  0  0
 19 25  2  0  0  0
 20 21  2  0  0  0
 21 22  1  0  0  0
 22 23  1  0  0  0
 22 24  2  0  0  0
 24 25  1  0  0  0
  5  6  1  0  0  0
  6  7  1  0  0  0
 31 32  1  0  0  0
 32 33  2  0  0  0
 33 34  1  0  0  0
 34 35  2  0  0  0
 35 36  1  0  0  0
 36 39  1  0  0  0
 39 40  1  0  0  0
 40 41  1  0  0  0
 41 42  1  0  0  0
 42 43  1  0  0  0
 43 44  1  0  0  0
 43 49  1  0  0  0
 44 45  1  0  0  0
 45 46  1  0  0  0
 46 47  1  0  0  0
 46 48  1  0  0  0
 48 49  1  0  0  0
M  END
> <minimizedAffinity>
-9.19179

$$$$
