CHEMBL1982874


 31 36  0  0  0  0  0  0  0  0999 V2000
  -14.1297   -5.0114  -14.3694 N   0  0  0  0  0  0  0  0  0  0  0  0
  -13.7162   -3.7825  -14.7173 C   0  0  0  0  0  0  0  0  0  0  0  0
  -13.3629   -3.4308  -15.9252 N   0  0  0  0  0  0  0  0  0  0  0  0
  -13.2246   -2.0714  -15.8839 C   0  0  0  0  0  0  0  0  0  0  0  0
  -12.9352   -1.1865  -16.9325 C   0  0  0  0  0  0  0  0  0  0  0  0
  -13.0259    0.1925  -16.7049 C   0  0  0  0  0  0  0  0  0  0  0  0
  -13.4070    0.6923  -15.4525 C   0  0  0  0  0  0  0  0  0  0  0  0
  -13.5731   -0.1893  -14.3589 C   0  0  0  0  0  0  0  0  0  0  0  0
  -13.4865   -1.5754  -14.6081 C   0  0  0  0  0  0  0  0  0  0  0  0
  -13.6678   -2.7153  -13.8439 N   0  0  0  0  0  0  0  0  0  0  0  0
  -14.0857   -5.6844  -15.1312 H   0  0  0  0  0  0  0  0  0  0  0  0
  -13.8150   -5.4130  -13.4952 H   0  0  0  0  0  0  0  0  0  0  0  0
  -13.8565    2.0856  -15.3344 C   0  0  0  0  0  0  0  0  0  0  0  0
  -15.0835    2.7660  -15.4151 C   0  0  0  0  0  0  0  0  0  0  0  0
  -14.8858    4.1423  -15.5514 N   0  0  0  0  0  0  0  0  0  0  0  0
  -13.6003    4.2844  -15.4801 C   0  0  0  0  0  0  0  0  0  0  0  0
  -12.5306    5.6488  -15.5104 S   0  0  0  0  0  0  0  0  0  0  0  0
  -11.2046    4.5638  -15.0761 C   0  0  0  0  0  0  0  0  0  0  0  0
  -11.5895    3.2792  -14.9790 C   0  0  0  0  0  0  0  0  0  0  0  0
  -12.9405    3.1240  -15.2329 N   0  0  0  0  0  0  0  0  0  0  0  0
  -16.4586    2.2654  -15.3811 C   0  0  0  0  0  0  0  0  0  0  0  0
  -16.8148    0.9450  -15.0849 C   0  0  0  0  0  0  0  0  0  0  0  0
  -18.1644    0.5632  -15.0662 C   0  0  0  0  0  0  0  0  0  0  0  0
  -19.1610    1.5020  -15.3226 C   0  0  0  0  0  0  0  0  0  0  0  0
  -20.4456    1.1259  -15.3021 F   0  0  0  0  0  0  0  0  0  0  0  0
  -18.8404    2.8200  -15.5881 C   0  0  0  0  0  0  0  0  0  0  0  0
  -17.4971    3.1956  -15.6157 C   0  0  0  0  0  0  0  0  0  0  0  0
  -13.9674   -2.7728  -12.4192 C   0  0  0  0  0  0  0  0  0  0  0  0
  -15.4173   -2.6261  -12.0289 C   0  0  0  0  0  0  0  0  0  0  0  0
  -15.8716   -2.7516  -10.5918 C   0  0  0  0  0  0  0  0  0  0  0  0
  -16.3266   -3.7596  -11.6131 C   0  0  0  0  0  0  0  0  0  0  0  0
  1  2  1  0  0  0
  1 11  1  0  0  0
  1 12  1  0  0  0
  2  3  2  0  0  0
  2 10  1  0  0  0
  3  4  1  0  0  0
  4  5  1  0  0  0
  4  9  2  0  0  0
  5  6  2  0  0  0
  6  7  1  0  0  0
  7 13  1  0  0  0
  7  8  2  0  0  0
 13 14  2  0  0  0
 13 20  1  0  0  0
 14 21  1  0  0  0
 14 15  1  0  0  0
 21 22  1  0  0  0
 21 27  2  0  0  0
 22 23  2  0  0  0
 23 24  1  0  0  0
 24 25  1  0  0  0
 24 26  2  0  0  0
 26 27  1  0  0  0
 15 16  2  0  0  0
 16 17  1  0  0  0
 16 20  1  0  0  0
 17 18  1  0  0  0
 18 19  2  0  0  0
 19 20  1  0  0  0
  8  9  1  0  0  0
  9 10  1  0  0  0
 10 28  1  0  0  0
 28 29  1  0  0  0
 29 30  1  0  0  0
 29 31  1  0  0  0
 30 31  1  0  0  0
M  END
> <minimizedAffinity>
-7.92160

$$$$
