CHEMBL249821


 40 44  0  0  0  0  0  0  0  0999 V2000
  -16.3095   -3.8727  -12.5315 C   0  0  0  0  0  0  0  0  0  0  0  0
  -14.8966   -3.5088  -12.1622 C   0  0  0  0  0  0  0  0  0  0  0  0
  -14.2292   -4.2517  -11.1652 C   0  0  0  0  0  0  0  0  0  0  0  0
  -12.8902   -4.0106  -10.8139 C   0  0  0  0  0  0  0  0  0  0  0  0
  -12.2456   -2.9993  -11.5367 C   0  0  0  0  0  0  0  0  0  0  0  0
  -12.9113   -2.2135  -12.4642 C   0  0  0  0  0  0  0  0  0  0  0  0
  -12.2479   -1.2177  -13.0364 N   0  0  0  0  0  0  0  0  0  0  0  0
  -12.8911   -0.4434  -13.9316 N   0  0  0  0  0  0  0  0  0  0  0  0
  -14.1734   -0.6867  -14.2718 C   0  0  0  0  0  0  0  0  0  0  0  0
  -14.8880   -1.6761  -13.7136 N   0  0  0  0  0  0  0  0  0  0  0  0
  -14.2526   -2.4463  -12.8023 C   0  0  0  0  0  0  0  0  0  0  0  0
  -12.2044   -4.7964   -9.7578 C   0  0  0  0  0  0  0  0  0  0  0  0
  -12.3762   -4.4042   -8.4099 C   0  0  0  0  0  0  0  0  0  0  0  0
  -11.6949   -5.0393   -7.3730 C   0  0  0  0  0  0  0  0  0  0  0  0
  -11.8197   -4.6222   -6.0821 O   0  0  0  0  0  0  0  0  0  0  0  0
  -10.8575   -6.1113   -7.6251 C   0  0  0  0  0  0  0  0  0  0  0  0
  -10.6974   -6.5543   -8.9330 C   0  0  0  0  0  0  0  0  0  0  0  0
  -11.3457   -5.8998   -9.9922 C   0  0  0  0  0  0  0  0  0  0  0  0
  -10.9507   -6.4997  -11.5709 Cl  0  0  0  0  0  0  0  0  0  0  0  0
  -12.4366   -3.8727   -6.0465 H   0  0  0  0  0  0  0  0  0  0  0  0
  -14.7993    0.1264  -15.2202 N   0  0  0  0  0  0  0  0  0  0  0  0
  -14.4221   -0.0121  -16.1439 H   0  0  0  0  0  0  0  0  0  0  0  0
  -15.9859    0.8556  -15.0593 C   0  0  0  0  0  0  0  0  0  0  0  0
  -16.9989    0.4210  -14.1865 C   0  0  0  0  0  0  0  0  0  0  0  0
  -18.2453    1.0366  -14.1425 C   0  0  0  0  0  0  0  0  0  0  0  0
  -18.4866    2.1300  -14.9651 C   0  0  0  0  0  0  0  0  0  0  0  0
  -17.4962    2.5971  -15.8357 C   0  0  0  0  0  0  0  0  0  0  0  0
  -16.2451    1.9678  -15.8691 C   0  0  0  0  0  0  0  0  0  0  0  0
  -20.0816    2.9106  -14.8987 S   0  0  0  0  0  0  0  0  0  0  0  0
  -20.2488    3.4821  -13.5820 O   0  0  0  0  0  0  0  0  0  0  0  0
  -20.2453    3.6923  -16.1047 O   0  0  0  0  0  0  0  0  0  0  0  0
  -21.1115    1.5743  -15.0511 N   0  0  0  0  0  0  0  0  0  0  0  0
  -20.6101    0.7741  -15.4382 H   0  0  0  0  0  0  0  0  0  0  0  0
  -21.9738    1.2911  -13.8886 C   0  0  0  0  0  0  0  0  0  0  0  0
  -22.4447   -0.1724  -13.8933 C   0  0  0  0  0  0  0  0  0  0  0  0
  -22.9648   -0.6010  -12.5803 N   0  0  0  0  0  0  0  0  0  0  0  0
  -23.5882   -1.9324  -12.6634 C   0  0  0  0  0  0  0  0  0  0  0  0
  -25.0613   -1.6603  -12.8896 C   0  0  0  0  0  0  0  0  0  0  0  0
  -25.3055   -0.4739  -11.9840 C   0  0  0  0  0  0  0  0  0  0  0  0
  -24.0012    0.3087  -12.0472 C   0  0  0  0  0  0  0  0  0  0  0  0
  1  2  1  0  0  0
  2  3  1  0  0  0
  2 11  2  0  0  0
  3  4  2  0  0  0
  4 12  1  0  0  0
  4  5  1  0  0  0
 12 13  1  0  0  0
 12 18  2  0  0  0
 13 14  2  0  0  0
 14 15  1  0  0  0
 14 16  1  0  0  0
 15 20  1  0  0  0
 16 17  2  0  0  0
 17 18  1  0  0  0
 18 19  1  0  0  0
  5  6  2  0  0  0
  6  7  1  0  0  0
  6 11  1  0  0  0
  7  8  2  0  0  0
  8  9  1  0  0  0
  9 21  1  0  0  0
  9 10  2  0  0  0
 21 23  1  0  0  0
 21 22  1  0  0  0
 23 24  1  0  0  0
 23 28  2  0  0  0
 24 25  2  0  0  0
 25 26  1  0  0  0
 26 29  1  0  0  0
 26 27  2  0  0  0
 29 30  2  0  0  0
 29 31  2  0  0  0
 29 32  1  0  0  0
 32 34  1  0  0  0
 32 33  1  0  0  0
 34 35  1  0  0  0
 35 36  1  0  0  0
 36 37  1  0  0  0
 36 40  1  0  0  0
 37 38  1  0  0  0
 38 39  1  0  0  0
 39 40  1  0  0  0
 27 28  1  0  0  0
 10 11  1  0  0  0
M  END
> <minimizedAffinity>
-8.83312

$$$$
