CHEMBL205710


 31 34  0  0  0  0  0  0  0  0999 V2000
  -13.2269    3.4765  -15.5175 C   0  0  0  0  0  0  0  0  0  0  0  0
  -12.8963    2.7217  -14.4116 C   0  0  0  0  0  0  0  0  0  0  0  0
  -13.9373    1.8881  -14.1503 N   0  0  0  0  0  0  0  0  0  0  0  0
  -13.9555    0.9672  -13.1712 N   0  0  0  0  0  0  0  0  0  0  0  0
  -15.0420    0.2672  -13.1154 C   0  0  0  0  0  0  0  0  0  0  0  0
  -16.1283    0.3740  -13.9403 N   0  0  0  0  0  0  0  0  0  0  0  0
  -16.0723    1.2630  -14.8803 C   0  0  0  0  0  0  0  0  0  0  0  0
  -14.9414    2.1076  -15.0448 C   0  0  0  0  0  0  0  0  0  0  0  0
  -14.5468    3.1088  -15.9252 C   0  0  0  0  0  0  0  0  0  0  0  0
  -15.2969    3.6745  -17.0814 C   0  0  0  0  0  0  0  0  0  0  0  0
  -12.4423    4.4155  -16.1027 O   0  0  0  0  0  0  0  0  0  0  0  0
  -12.5687    5.7130  -15.4925 C   0  0  0  0  0  0  0  0  0  0  0  0
  -11.2295    6.1816  -14.9190 C   0  0  0  0  0  0  0  0  0  0  0  0
  -11.3527    6.3283  -13.4991 O   0  0  0  0  0  0  0  0  0  0  0  0
  -11.9956    7.0371  -13.3363 H   0  0  0  0  0  0  0  0  0  0  0  0
  -10.7704    7.4913  -15.5695 C   0  0  0  0  0  0  0  0  0  0  0  0
  -11.9971    9.3408  -16.3528 C   0  0  0  0  0  0  0  0  0  0  0  0
  -11.6757    8.5426  -15.2239 O   0  0  0  0  0  0  0  0  0  0  0  0
  -17.0490    1.4629  -15.8331 O   0  0  0  0  0  0  0  0  0  0  0  0
  -18.3464    1.8088  -15.4061 C   0  0  0  0  0  0  0  0  0  0  0  0
  -18.6923    3.1340  -15.1417 C   0  0  0  0  0  0  0  0  0  0  0  0
  -19.9639    3.4596  -14.6632 C   0  0  0  0  0  0  0  0  0  0  0  0
  -20.8574    2.4063  -14.4279 C   0  0  0  0  0  0  0  0  0  0  0  0
  -22.1482    2.4302  -13.9564 N   0  0  0  0  0  0  0  0  0  0  0  0
  -22.6476    1.1561  -13.8645 C   0  0  0  0  0  0  0  0  0  0  0  0
  -24.0224    0.8728  -13.3858 C   0  0  0  0  0  0  0  0  0  0  0  0
  -21.6540    0.2936  -14.2819 C   0  0  0  0  0  0  0  0  0  0  0  0
  -20.5211    1.0687  -14.6497 C   0  0  0  0  0  0  0  0  0  0  0  0
  -19.2401    0.7660  -15.1443 C   0  0  0  0  0  0  0  0  0  0  0  0
  -18.8712   -0.5050  -15.3533 F   0  0  0  0  0  0  0  0  0  0  0  0
  -22.6532    3.2718  -13.7137 H   0  0  0  0  0  0  0  0  0  0  0  0
 17 18  1  0  0  0
 18 16  1  0  0  0
 16 13  1  0  0  0
 13 14  1  0  0  0
 13 12  1  0  0  0
 14 15  1  0  0  0
 12 11  1  0  0  0
 11  1  1  0  0  0
  1  2  2  0  0  0
  1  9  1  0  0  0
  2  3  1  0  0  0
  3  4  1  0  0  0
  3  8  1  0  0  0
  4  5  2  0  0  0
  5  6  1  0  0  0
  6  7  2  0  0  0
  7 19  1  0  0  0
  7  8  1  0  0  0
 19 20  1  0  0  0
 20 21  1  0  0  0
 20 29  2  0  0  0
 21 22  2  0  0  0
 22 23  1  0  0  0
 23 24  1  0  0  0
 23 28  2  0  0  0
 24 25  1  0  0  0
 24 31  1  0  0  0
 25 26  1  0  0  0
 25 27  2  0  0  0
 27 28  1  0  0  0
 28 29  1  0  0  0
 29 30  1  0  0  0
  8  9  2  0  0  0
  9 10  1  0  0  0
M  END
> <minimizedAffinity>
-7.58183

$$$$
