CHEMBL519590


 31 34  0  0  0  0  0  0  0  0999 V2000
  -30.8845   -5.6425   -4.3680 C   0  0  0  0  0  0  0  0  0  0  0  0
  -30.4603   -4.3787   -4.5046 C   0  0  0  0  0  0  0  0  0  0  0  0
  -30.9527   -3.6663   -3.3000 C   0  0  0  0  0  0  0  0  0  0  0  0
  -30.7705   -2.4989   -3.0209 O   0  0  0  0  0  0  0  0  0  0  0  0
  -31.6534   -4.5713   -2.5405 N   0  0  0  0  0  0  0  0  0  0  0  0
  -31.6821   -5.8717   -3.1271 C   0  0  0  0  0  0  0  0  0  0  0  0
  -32.0572   -4.3081   -1.6523 H   0  0  0  0  0  0  0  0  0  0  0  0
  -30.9479   -8.2460   -6.8214 N   0  0  0  0  0  0  0  0  0  0  0  0
  -31.5220   -7.1753   -6.1825 C   0  0  0  0  0  0  0  0  0  0  0  0
  -30.6562   -6.7663   -5.1949 C   0  0  0  0  0  0  0  0  0  0  0  0
  -29.5240   -7.6281   -5.2121 C   0  0  0  0  0  0  0  0  0  0  0  0
  -28.3382   -7.7173   -4.4532 C   0  0  0  0  0  0  0  0  0  0  0  0
  -27.3911   -8.6994   -4.7641 C   0  0  0  0  0  0  0  0  0  0  0  0
  -27.6110   -9.5916   -5.8088 C   0  0  0  0  0  0  0  0  0  0  0  0
  -28.7821   -9.5333   -6.5682 C   0  0  0  0  0  0  0  0  0  0  0  0
  -29.7222   -8.5393   -6.2548 C   0  0  0  0  0  0  0  0  0  0  0  0
  -31.5616   -8.9631   -7.9307 C   0  0  0  0  0  0  0  0  0  0  0  0
  -32.7049  -10.7491   -6.8581 C   0  0  0  0  0  0  0  0  0  0  0  0
  -32.8240   -9.5103   -7.5484 O   0  0  0  0  0  0  0  0  0  0  0  0
  -29.6513   -3.7764   -5.5543 C   0  0  0  0  0  0  0  0  0  0  0  0
  -29.3788   -2.4072   -5.5452 C   0  0  0  0  0  0  0  0  0  0  0  0
  -28.5506   -1.8254   -6.5207 C   0  0  0  0  0  0  0  0  0  0  0  0
  -27.9948   -2.6327   -7.5451 C   0  0  0  0  0  0  0  0  0  0  0  0
  -28.2958   -4.0141   -7.5630 C   0  0  0  0  0  0  0  0  0  0  0  0
  -29.1173   -4.5659   -6.5692 C   0  0  0  0  0  0  0  0  0  0  0  0
  -28.2492   -0.4879   -6.5194 O   0  0  0  0  0  0  0  0  0  0  0  0
  -28.0548    0.1794   -5.2821 C   0  0  0  0  0  0  0  0  0  0  0  0
  -27.1724   -2.1931   -8.5498 O   0  0  0  0  0  0  0  0  0  0  0  0
  -27.6909   -1.7530   -9.7924 C   0  0  0  0  0  0  0  0  0  0  0  0
  -27.8832   -4.9747   -8.4561 O   0  0  0  0  0  0  0  0  0  0  0  0
  -28.2332   -6.3313   -8.2347 C   0  0  0  0  0  0  0  0  0  0  0  0
 18 19  1  0  0  0
 19 17  1  0  0  0
 17  8  1  0  0  0
  8  9  1  0  0  0
  8 16  1  0  0  0
  9 10  2  0  0  0
 10  1  1  0  0  0
 10 11  1  0  0  0
  1  2  2  0  0  0
  1  6  1  0  0  0
  2 20  1  0  0  0
  2  3  1  0  0  0
 20 21  1  0  0  0
 20 25  2  0  0  0
 21 22  2  0  0  0
 22 26  1  0  0  0
 22 23  1  0  0  0
 26 27  1  0  0  0
 23 28  1  0  0  0
 23 24  2  0  0  0
 28 29  1  0  0  0
 24 30  1  0  0  0
 24 25  1  0  0  0
 30 31  1  0  0  0
  3  4  2  0  0  0
  3  5  1  0  0  0
  5  6  1  0  0  0
  5  7  1  0  0  0
 11 12  1  0  0  0
 11 16  2  0  0  0
 12 13  2  0  0  0
 13 14  1  0  0  0
 14 15  2  0  0  0
 15 16  1  0  0  0
M  END
> <minimizedAffinity>
-7.87610

$$$$
