CHEMBL1092013


 32 36  0  0  0  0  0  0  0  0999 V2000
  -29.6969   -6.4068   -5.9781 C   0  0  0  0  0  0  0  0  0  0  0  0
  -30.1722   -5.9758   -4.7929 C   0  0  0  0  0  0  0  0  0  0  0  0
  -30.0904   -4.6078   -4.4553 C   0  0  0  0  0  0  0  0  0  0  0  0
  -30.4209   -3.9198   -3.2939 C   0  0  0  0  0  0  0  0  0  0  0  0
  -30.0831   -2.6358   -3.3792 N   0  0  0  0  0  0  0  0  0  0  0  0
  -29.5859   -2.4677   -4.6428 N   0  0  0  0  0  0  0  0  0  0  0  0
  -29.5154   -3.6986   -5.3158 C   0  0  0  0  0  0  0  0  0  0  0  0
  -28.9462   -4.0747   -6.5457 N   0  0  0  0  0  0  0  0  0  0  0  0
  -28.1320   -3.2645   -7.4295 C   0  0  0  0  0  0  0  0  0  0  0  0
  -29.0912   -5.4207   -6.9497 C   0  0  0  0  0  0  0  0  0  0  0  0
  -28.7206   -5.8184   -8.0554 O   0  0  0  0  0  0  0  0  0  0  0  0
  -32.0670   -7.7705   -7.1924 C   0  0  0  0  0  0  0  0  0  0  0  0
  -30.8003   -8.5078   -6.8493 C   0  0  0  0  0  0  0  0  0  0  0  0
  -30.7123   -9.8872   -7.1050 C   0  0  0  0  0  0  0  0  0  0  0  0
  -29.5381  -10.5999   -6.8333 C   0  0  0  0  0  0  0  0  0  0  0  0
  -28.4267   -9.9391   -6.3048 C   0  0  0  0  0  0  0  0  0  0  0  0
  -28.5153   -8.5696   -6.0218 C   0  0  0  0  0  0  0  0  0  0  0  0
  -29.6912   -7.8467   -6.2892 C   0  0  0  0  0  0  0  0  0  0  0  0
  -27.1471  -10.6353   -5.9857 C   0  0  0  0  0  0  0  0  0  0  0  0
  -27.1737  -11.8015   -5.6030 O   0  0  0  0  0  0  0  0  0  0  0  0
  -25.9796   -9.9041   -6.1218 N   0  0  0  0  0  0  0  0  0  0  0  0
  -26.0220   -8.9206   -6.3509 H   0  0  0  0  0  0  0  0  0  0  0  0
  -24.7027  -10.4717   -5.8120 C   0  0  0  0  0  0  0  0  0  0  0  0
  -23.8581   -9.9082   -4.7018 C   0  0  0  0  0  0  0  0  0  0  0  0
  -23.4275   -9.7384   -6.1284 C   0  0  0  0  0  0  0  0  0  0  0  0
  -29.3519   -1.1407   -5.0879 C   0  0  0  0  0  0  0  0  0  0  0  0
  -30.4092   -0.2974   -5.4498 C   0  0  0  0  0  0  0  0  0  0  0  0
  -30.1517    1.0005   -5.9034 C   0  0  0  0  0  0  0  0  0  0  0  0
  -28.8450    1.4848   -5.9434 C   0  0  0  0  0  0  0  0  0  0  0  0
  -27.7928    0.6687   -5.5351 C   0  0  0  0  0  0  0  0  0  0  0  0
  -28.0461   -0.6356   -5.1125 C   0  0  0  0  0  0  0  0  0  0  0  0
  -26.9862   -1.3959   -4.8005 F   0  0  0  0  0  0  0  0  0  0  0  0
 12 13  1  0  0  0
 13 14  1  0  0  0
 13 18  2  0  0  0
 14 15  2  0  0  0
 15 16  1  0  0  0
 16 19  1  0  0  0
 16 17  2  0  0  0
 19 20  2  0  0  0
 19 21  1  0  0  0
 21 23  1  0  0  0
 21 22  1  0  0  0
 23 24  1  0  0  0
 23 25  1  0  0  0
 24 25  1  0  0  0
 17 18  1  0  0  0
 18  1  1  0  0  0
  1  2  2  0  0  0
  1 10  1  0  0  0
  2  3  1  0  0  0
  3  4  1  0  0  0
  3  7  2  0  0  0
  4  5  2  0  0  0
  5  6  1  0  0  0
  6 26  1  0  0  0
  6  7  1  0  0  0
 26 27  1  0  0  0
 26 31  2  0  0  0
 27 28  2  0  0  0
 28 29  1  0  0  0
 29 30  2  0  0  0
 30 31  1  0  0  0
 31 32  1  0  0  0
  7  8  1  0  0  0
  8  9  1  0  0  0
  8 10  1  0  0  0
 10 11  2  0  0  0
M  END
> <minimizedAffinity>
-9.34747

$$$$
