CHEMBL4554486


 35 38  0  0  0  0  0  0  0  0999 V2000
  -17.8544    2.5317  -15.4366 C   0  0  0  0  0  0  0  0  0  0  0  0
  -17.1520    3.6412  -15.9212 C   0  0  0  0  0  0  0  0  0  0  0  0
  -15.7809    3.5402  -16.1735 C   0  0  0  0  0  0  0  0  0  0  0  0
  -15.1037    2.3462  -15.9174 C   0  0  0  0  0  0  0  0  0  0  0  0
  -15.8015    1.2436  -15.4307 C   0  0  0  0  0  0  0  0  0  0  0  0
  -17.1724    1.3281  -15.2068 C   0  0  0  0  0  0  0  0  0  0  0  0
  -19.8670    1.4106  -14.6049 N   0  0  0  0  0  0  0  0  0  0  0  0
  -19.2945    2.5871  -15.0632 C   0  0  0  0  0  0  0  0  0  0  0  0
  -19.8664    3.6661  -15.1860 O   0  0  0  0  0  0  0  0  0  0  0  0
  -19.2978    0.5858  -14.4800 H   0  0  0  0  0  0  0  0  0  0  0  0
  -23.1899    0.5155  -13.6386 N   0  0  0  0  0  0  0  0  0  0  0  0
  -21.9118    0.1563  -13.9885 C   0  0  0  0  0  0  0  0  0  0  0  0
  -21.1960    1.3012  -14.2224 C   0  0  0  0  0  0  0  0  0  0  0  0
  -22.1277    2.3297  -13.9857 C   0  0  0  0  0  0  0  0  0  0  0  0
  -23.3384    1.8694  -13.6569 N   0  0  0  0  0  0  0  0  0  0  0  0
  -25.6567   -1.3333  -11.5325 C   0  0  0  0  0  0  0  0  0  0  0  0
  -26.4206   -1.9597  -12.5157 C   0  0  0  0  0  0  0  0  0  0  0  0
  -26.0992   -1.7908  -13.8656 C   0  0  0  0  0  0  0  0  0  0  0  0
  -25.0243   -0.9825  -14.2402 C   0  0  0  0  0  0  0  0  0  0  0  0
  -24.2529   -0.3486  -13.2591 C   0  0  0  0  0  0  0  0  0  0  0  0
  -24.5627   -0.5483  -11.9059 C   0  0  0  0  0  0  0  0  0  0  0  0
  -27.1207   -1.9171   -9.7553 C   0  0  0  0  0  0  0  0  0  0  0  0
  -25.8695   -1.3972  -10.1829 O   0  0  0  0  0  0  0  0  0  0  0  0
  -15.1300    0.0261  -15.1497 N   0  0  0  0  0  0  0  0  0  0  0  0
  -15.4592   -0.8269  -15.5972 H   0  0  0  0  0  0  0  0  0  0  0  0
  -14.4386   -0.2207  -13.6342 S   0  0  0  0  0  0  0  0  0  0  0  0
  -13.0347   -0.4928  -13.8642 O   0  0  0  0  0  0  0  0  0  0  0  0
  -14.8705    0.8167  -12.7249 O   0  0  0  0  0  0  0  0  0  0  0  0
  -15.1864   -1.7506  -13.1107 C   0  0  0  0  0  0  0  0  0  0  0  0
  -15.4039   -2.7664  -14.0488 C   0  0  0  0  0  0  0  0  0  0  0  0
  -15.9883   -3.9672  -13.6393 C   0  0  0  0  0  0  0  0  0  0  0  0
  -16.3437   -4.1443  -12.3016 C   0  0  0  0  0  0  0  0  0  0  0  0
  -17.0753   -5.6191  -11.8033 Cl  0  0  0  0  0  0  0  0  0  0  0  0
  -16.1095   -3.1370  -11.3639 C   0  0  0  0  0  0  0  0  0  0  0  0
  -15.5167   -1.9378  -11.7645 C   0  0  0  0  0  0  0  0  0  0  0  0
 22 23  1  0  0  0
 23 16  1  0  0  0
 16 17  1  0  0  0
 16 21  2  0  0  0
 17 18  2  0  0  0
 18 19  1  0  0  0
 19 20  2  0  0  0
 20 11  1  0  0  0
 20 21  1  0  0  0
 11 12  1  0  0  0
 11 15  1  0  0  0
 12 13  2  0  0  0
 13  7  1  0  0  0
 13 14  1  0  0  0
  7  8  1  0  0  0
  7 10  1  0  0  0
  8  9  2  0  0  0
  8  1  1  0  0  0
  1  2  1  0  0  0
  1  6  2  0  0  0
  2  3  2  0  0  0
  3  4  1  0  0  0
  4  5  2  0  0  0
  5 24  1  0  0  0
  5  6  1  0  0  0
 24 26  1  0  0  0
 24 25  1  0  0  0
 26 27  2  0  0  0
 26 28  2  0  0  0
 26 29  1  0  0  0
 29 30  1  0  0  0
 29 35  2  0  0  0
 30 31  2  0  0  0
 31 32  1  0  0  0
 32 33  1  0  0  0
 32 34  2  0  0  0
 34 35  1  0  0  0
 14 15  2  0  0  0
M  END
> <minimizedAffinity>
-11.01348

$$$$
