CHEMBL3774904


 25 27  0  0  0  0  0  0  0  0999 V2000
  -12.5862    3.1218  -15.2699 C   0  0  0  0  0  0  0  0  0  0  0  0
  -12.8318    2.2836  -14.1661 C   0  0  0  0  0  0  0  0  0  0  0  0
  -14.0270    1.6014  -13.9968 C   0  0  0  0  0  0  0  0  0  0  0  0
  -14.1465    0.7640  -12.9613 N   0  0  0  0  0  0  0  0  0  0  0  0
  -15.3049    0.1045  -12.8579 C   0  0  0  0  0  0  0  0  0  0  0  0
  -16.3466    0.2125  -13.6850 N   0  0  0  0  0  0  0  0  0  0  0  0
  -16.2117    1.0533  -14.7290 C   0  0  0  0  0  0  0  0  0  0  0  0
  -15.0439    1.8026  -14.9302 C   0  0  0  0  0  0  0  0  0  0  0  0
  -14.8470    2.7232  -15.9830 C   0  0  0  0  0  0  0  0  0  0  0  0
  -13.6232    3.3723  -16.1733 C   0  0  0  0  0  0  0  0  0  0  0  0
  -11.1403    4.9199  -14.7299 C   0  0  0  0  0  0  0  0  0  0  0  0
  -11.3630    3.7098  -15.4575 O   0  0  0  0  0  0  0  0  0  0  0  0
  -17.2751    1.1562  -15.6659 N   0  0  0  0  0  0  0  0  0  0  0  0
  -17.3413    0.2913  -16.2014 H   0  0  0  0  0  0  0  0  0  0  0  0
  -18.5617    1.6539  -15.3509 C   0  0  0  0  0  0  0  0  0  0  0  0
  -19.6040    0.7808  -15.0151 C   0  0  0  0  0  0  0  0  0  0  0  0
  -20.8776    1.2839  -14.7629 C   0  0  0  0  0  0  0  0  0  0  0  0
  -21.9142    0.4500  -14.4770 O   0  0  0  0  0  0  0  0  0  0  0  0
  -21.1213    2.6518  -14.7868 C   0  0  0  0  0  0  0  0  0  0  0  0
  -20.0838    3.5364  -15.0845 C   0  0  0  0  0  0  0  0  0  0  0  0
  -18.8145    3.0331  -15.3565 C   0  0  0  0  0  0  0  0  0  0  0  0
  -17.8240    3.8850  -15.6600 F   0  0  0  0  0  0  0  0  0  0  0  0
  -21.6183   -0.4663  -14.6239 H   0  0  0  0  0  0  0  0  0  0  0  0
  -13.6480    4.1661  -17.2838 O   0  0  0  0  0  0  0  0  0  0  0  0
  -14.7430    5.0357  -17.5101 C   0  0  0  0  0  0  0  0  0  0  0  0
 11 12  1  0  0  0
 12  1  1  0  0  0
  1  2  1  0  0  0
  1 10  2  0  0  0
  2  3  2  0  0  0
  3  4  1  0  0  0
  3  8  1  0  0  0
  4  5  2  0  0  0
  5  6  1  0  0  0
  6  7  2  0  0  0
  7 13  1  0  0  0
  7  8  1  0  0  0
 13 15  1  0  0  0
 13 14  1  0  0  0
 15 16  1  0  0  0
 15 21  2  0  0  0
 16 17  2  0  0  0
 17 18  1  0  0  0
 17 19  1  0  0  0
 18 23  1  0  0  0
 19 20  2  0  0  0
 20 21  1  0  0  0
 21 22  1  0  0  0
  8  9  2  0  0  0
  9 10  1  0  0  0
 10 24  1  0  0  0
 24 25  1  0  0  0
M  END
> <minimizedAffinity>
-6.87904

$$$$
