CHEMBL3903969


 37 40  0  0  0  0  0  0  0  0999 V2000
  -26.9814   -1.6718  -13.7734 C   0  0  0  0  0  0  0  0  0  0  0  0
  -25.6189   -1.6474  -13.1353 C   0  0  0  0  0  0  0  0  0  0  0  0
  -24.5402   -1.2403  -13.9520 C   0  0  0  0  0  0  0  0  0  0  0  0
  -23.2496   -1.0885  -13.4470 C   0  0  0  0  0  0  0  0  0  0  0  0
  -23.0115   -1.3837  -12.1108 C   0  0  0  0  0  0  0  0  0  0  0  0
  -24.0636   -1.8195  -11.2971 C   0  0  0  0  0  0  0  0  0  0  0  0
  -25.3724   -1.9813  -11.7857 C   0  0  0  0  0  0  0  0  0  0  0  0
  -26.4166   -2.4927  -10.9564 N   0  0  0  0  0  0  0  0  0  0  0  0
  -26.8289   -1.9529   -9.7464 C   0  0  0  0  0  0  0  0  0  0  0  0
  -26.3986   -0.9173   -9.2468 O   0  0  0  0  0  0  0  0  0  0  0  0
  -27.7559   -2.7580   -9.0906 N   0  0  0  0  0  0  0  0  0  0  0  0
  -26.8472   -3.3599  -11.2499 H   0  0  0  0  0  0  0  0  0  0  0  0
  -27.6302   -3.7478   -9.2419 H   0  0  0  0  0  0  0  0  0  0  0  0
  -28.2529   -2.3871   -7.8113 C   0  0  0  0  0  0  0  0  0  0  0  0
  -28.6600   -3.3940   -6.9333 C   0  0  0  0  0  0  0  0  0  0  0  0
  -29.0696   -3.0709   -5.6373 C   0  0  0  0  0  0  0  0  0  0  0  0
  -29.1347   -1.7378   -5.2314 C   0  0  0  0  0  0  0  0  0  0  0  0
  -28.7837   -0.7065   -6.1143 C   0  0  0  0  0  0  0  0  0  0  0  0
  -28.3260   -1.0466   -7.4012 C   0  0  0  0  0  0  0  0  0  0  0  0
  -28.9114    0.7404   -5.6780 C   0  0  0  0  0  0  0  0  0  0  0  0
  -30.3544    1.1493   -5.4295 C   0  0  0  0  0  0  0  0  0  0  0  0
  -28.2029    1.0015   -4.5388 F   0  0  0  0  0  0  0  0  0  0  0  0
  -28.4010    1.5977   -6.6133 F   0  0  0  0  0  0  0  0  0  0  0  0
  -22.1690   -0.7096  -14.2122 O   0  0  0  0  0  0  0  0  0  0  0  0
  -21.8957    0.6520  -14.3206 C   0  0  0  0  0  0  0  0  0  0  0  0
  -20.7762    1.0090  -15.0431 C   0  0  0  0  0  0  0  0  0  0  0  0
  -20.5299    2.3643  -15.1249 C   0  0  0  0  0  0  0  0  0  0  0  0
  -21.3380    3.2669  -14.5580 N   0  0  0  0  0  0  0  0  0  0  0  0
  -22.3791    2.8157  -13.8633 C   0  0  0  0  0  0  0  0  0  0  0  0
  -22.6969    1.5332  -13.6988 N   0  0  0  0  0  0  0  0  0  0  0  0
  -19.3876    2.8052  -15.8199 N   0  0  0  0  0  0  0  0  0  0  0  0
  -18.0939    2.5596  -15.4035 C   0  0  0  0  0  0  0  0  0  0  0  0
  -17.7336    1.9426  -14.4102 O   0  0  0  0  0  0  0  0  0  0  0  0
  -19.5250    3.3126  -16.6808 H   0  0  0  0  0  0  0  0  0  0  0  0
  -17.0522    3.1474  -16.3013 C   0  0  0  0  0  0  0  0  0  0  0  0
  -15.6114    3.2327  -15.8456 C   0  0  0  0  0  0  0  0  0  0  0  0
  -16.4381    4.4786  -15.9288 C   0  0  0  0  0  0  0  0  0  0  0  0
  1  2  1  0  0  0
  2  3  1  0  0  0
  2  7  2  0  0  0
  3  4  2  0  0  0
  4 24  1  0  0  0
  4  5  1  0  0  0
 24 25  1  0  0  0
 25 26  1  0  0  0
 25 30  2  0  0  0
 26 27  2  0  0  0
 27 31  1  0  0  0
 27 28  1  0  0  0
 31 32  1  0  0  0
 31 34  1  0  0  0
 32 33  2  0  0  0
 32 35  1  0  0  0
 35 36  1  0  0  0
 35 37  1  0  0  0
 36 37  1  0  0  0
 28 29  2  0  0  0
 29 30  1  0  0  0
  5  6  2  0  0  0
  6  7  1  0  0  0
  7  8  1  0  0  0
  8  9  1  0  0  0
  8 12  1  0  0  0
  9 10  2  0  0  0
  9 11  1  0  0  0
 11 14  1  0  0  0
 11 13  1  0  0  0
 14 15  1  0  0  0
 14 19  2  0  0  0
 15 16  2  0  0  0
 16 17  1  0  0  0
 17 18  2  0  0  0
 18 20  1  0  0  0
 18 19  1  0  0  0
 20 21  1  0  0  0
 20 22  1  0  0  0
 20 23  1  0  0  0
M  END
> <minimizedAffinity>
-12.06826

$$$$
