CHEMBL4558158


 29 31  0  0  0  0  0  0  0  0999 V2000
  -25.3499   -1.5513  -12.7507 C   0  0  0  0  0  0  0  0  0  0  0  0
  -26.3024   -1.8340  -13.7292 C   0  0  0  0  0  0  0  0  0  0  0  0
  -27.6397   -1.9642  -13.3725 C   0  0  0  0  0  0  0  0  0  0  0  0
  -28.0364   -1.7727  -12.0474 C   0  0  0  0  0  0  0  0  0  0  0  0
  -27.1075   -1.4694  -11.0482 C   0  0  0  0  0  0  0  0  0  0  0  0
  -25.7549   -1.3650  -11.4127 C   0  0  0  0  0  0  0  0  0  0  0  0
  -22.0937   -0.4563  -13.9459 N   0  0  0  0  0  0  0  0  0  0  0  0
  -23.4532   -0.3294  -13.6780 C   0  0  0  0  0  0  0  0  0  0  0  0
  -24.1113    0.6948  -13.8341 O   0  0  0  0  0  0  0  0  0  0  0  0
  -23.9902   -1.4943  -13.1572 N   0  0  0  0  0  0  0  0  0  0  0  0
  -21.7265   -1.3934  -13.9958 H   0  0  0  0  0  0  0  0  0  0  0  0
  -23.3438   -2.0406  -12.6056 H   0  0  0  0  0  0  0  0  0  0  0  0
  -18.6307    3.8922  -15.4114 C   0  0  0  0  0  0  0  0  0  0  0  0
  -19.5447    2.7615  -15.0379 C   0  0  0  0  0  0  0  0  0  0  0  0
  -19.2393    1.4620  -15.4357 C   0  0  0  0  0  0  0  0  0  0  0  0
  -20.0752    0.3998  -15.0928 C   0  0  0  0  0  0  0  0  0  0  0  0
  -21.2269    0.5999  -14.3271 C   0  0  0  0  0  0  0  0  0  0  0  0
  -21.5420    1.9070  -13.9363 C   0  0  0  0  0  0  0  0  0  0  0  0
  -20.7049    2.9815  -14.2908 C   0  0  0  0  0  0  0  0  0  0  0  0
  -27.4735   -1.2903   -9.6894 N   0  0  0  0  0  0  0  0  0  0  0  0
  -27.6403   -2.2932   -8.7406 C   0  0  0  0  0  0  0  0  0  0  0  0
  -27.5637   -3.5026   -8.9370 O   0  0  0  0  0  0  0  0  0  0  0  0
  -27.6024   -0.3408   -9.3465 H   0  0  0  0  0  0  0  0  0  0  0  0
  -27.9399   -1.8259   -7.3482 C   0  0  0  0  0  0  0  0  0  0  0  0
  -27.6559   -0.5017   -7.0098 C   0  0  0  0  0  0  0  0  0  0  0  0
  -27.9587   -0.0592   -5.7271 C   0  0  0  0  0  0  0  0  0  0  0  0
  -28.5312   -0.9461   -4.8239 C   0  0  0  0  0  0  0  0  0  0  0  0
  -28.7738   -2.2506   -5.2465 C   0  0  0  0  0  0  0  0  0  0  0  0
  -28.4919   -2.7235   -6.4884 N   0  0  0  0  0  0  0  0  0  0  0  0
 13 14  1  0  0  0
 14 15  1  0  0  0
 14 19  2  0  0  0
 15 16  2  0  0  0
 16 17  1  0  0  0
 17  7  1  0  0  0
 17 18  2  0  0  0
  7  8  1  0  0  0
  7 11  1  0  0  0
  8  9  2  0  0  0
  8 10  1  0  0  0
 10  1  1  0  0  0
 10 12  1  0  0  0
  1  2  1  0  0  0
  1  6  2  0  0  0
  2  3  2  0  0  0
  3  4  1  0  0  0
  4  5  2  0  0  0
  5 20  1  0  0  0
  5  6  1  0  0  0
 20 21  1  0  0  0
 20 23  1  0  0  0
 21 22  2  0  0  0
 21 24  1  0  0  0
 24 25  1  0  0  0
 24 29  2  0  0  0
 25 26  2  0  0  0
 26 27  1  0  0  0
 27 28  2  0  0  0
 28 29  1  0  0  0
 18 19  1  0  0  0
M  END
> <minimizedAffinity>
-9.61124

$$$$
