CHEMBL1970317


 37 41  0  0  0  0  0  0  0  0999 V2000
  -22.5047   -0.1085  -13.7819 C   0  0  0  0  0  0  0  0  0  0  0  0
  -22.6861   -0.1041  -12.4028 C   0  0  0  0  0  0  0  0  0  0  0  0
  -23.8654   -0.5762  -11.8354 C   0  0  0  0  0  0  0  0  0  0  0  0
  -24.9538   -0.9320  -12.6309 C   0  0  0  0  0  0  0  0  0  0  0  0
  -24.8161   -0.8724  -14.0184 C   0  0  0  0  0  0  0  0  0  0  0  0
  -23.5954   -0.4758  -14.5891 C   0  0  0  0  0  0  0  0  0  0  0  0
  -18.6053    2.6770  -15.4851 C   0  0  0  0  0  0  0  0  0  0  0  0
  -19.2016    3.8849  -15.1724 C   0  0  0  0  0  0  0  0  0  0  0  0
  -20.4015    4.0193  -14.5898 N   0  0  0  0  0  0  0  0  0  0  0  0
  -21.1163    2.9268  -14.2610 C   0  0  0  0  0  0  0  0  0  0  0  0
  -22.3073    3.2341  -13.6205 N   0  0  0  0  0  0  0  0  0  0  0  0
  -20.6300    1.6155  -14.5588 C   0  0  0  0  0  0  0  0  0  0  0  0
  -21.2050    0.2726  -14.3488 C   0  0  0  0  0  0  0  0  0  0  0  0
  -20.3663   -0.7203  -14.8083 C   0  0  0  0  0  0  0  0  0  0  0  0
  -18.9432   -0.1242  -15.4892 S   0  0  0  0  0  0  0  0  0  0  0  0
  -19.3625    1.5249  -15.1759 C   0  0  0  0  0  0  0  0  0  0  0  0
  -22.3248    4.2211  -13.3884 H   0  0  0  0  0  0  0  0  0  0  0  0
  -22.5609    2.6044  -12.8718 H   0  0  0  0  0  0  0  0  0  0  0  0
  -14.4130    3.9869  -17.7894 C   0  0  0  0  0  0  0  0  0  0  0  0
  -15.4333    3.2375  -17.0988 N   0  0  0  0  0  0  0  0  0  0  0  0
  -16.6298    3.7049  -16.6374 C   0  0  0  0  0  0  0  0  0  0  0  0
  -17.2880    2.6202  -16.0904 C   0  0  0  0  0  0  0  0  0  0  0  0
  -16.3662    1.5577  -16.2435 C   0  0  0  0  0  0  0  0  0  0  0  0
  -15.2415    1.9307  -16.8587 N   0  0  0  0  0  0  0  0  0  0  0  0
  -26.1792   -1.3554  -12.0721 N   0  0  0  0  0  0  0  0  0  0  0  0
  -26.3798   -1.5528  -10.7146 C   0  0  0  0  0  0  0  0  0  0  0  0
  -25.5781   -1.2424   -9.8420 O   0  0  0  0  0  0  0  0  0  0  0  0
  -27.5881   -2.1722  -10.4541 N   0  0  0  0  0  0  0  0  0  0  0  0
  -27.0135   -1.2424  -12.6292 H   0  0  0  0  0  0  0  0  0  0  0  0
  -27.8718   -2.8489  -11.1481 H   0  0  0  0  0  0  0  0  0  0  0  0
  -28.0159   -2.3921   -9.1252 C   0  0  0  0  0  0  0  0  0  0  0  0
  -28.6107   -3.6016   -8.7373 C   0  0  0  0  0  0  0  0  0  0  0  0
  -29.0689   -3.7848   -7.4308 C   0  0  0  0  0  0  0  0  0  0  0  0
  -28.9311   -2.7573   -6.5059 C   0  0  0  0  0  0  0  0  0  0  0  0
  -28.3186   -1.5692   -6.8897 C   0  0  0  0  0  0  0  0  0  0  0  0
  -28.2186   -0.5688   -6.0054 F   0  0  0  0  0  0  0  0  0  0  0  0
  -27.8435   -1.3819   -8.1837 C   0  0  0  0  0  0  0  0  0  0  0  0
 19 20  1  0  0  0
 20 21  1  0  0  0
 20 24  1  0  0  0
 21 22  2  0  0  0
 22  7  1  0  0  0
 22 23  1  0  0  0
  7  8  1  0  0  0
  7 16  2  0  0  0
  8  9  2  0  0  0
  9 10  1  0  0  0
 10 11  1  0  0  0
 10 12  2  0  0  0
 11 17  1  0  0  0
 11 18  1  0  0  0
 12 13  1  0  0  0
 12 16  1  0  0  0
 13  1  1  0  0  0
 13 14  2  0  0  0
  1  2  1  0  0  0
  1  6  2  0  0  0
  2  3  2  0  0  0
  3  4  1  0  0  0
  4 25  1  0  0  0
  4  5  2  0  0  0
 25 26  1  0  0  0
 25 29  1  0  0  0
 26 27  2  0  0  0
 26 28  1  0  0  0
 28 31  1  0  0  0
 28 30  1  0  0  0
 31 32  1  0  0  0
 31 37  2  0  0  0
 32 33  2  0  0  0
 33 34  1  0  0  0
 34 35  2  0  0  0
 35 36  1  0  0  0
 35 37  1  0  0  0
  5  6  1  0  0  0
 14 15  1  0  0  0
 15 16  1  0  0  0
 23 24  2  0  0  0
M  END
> <minimizedAffinity>
-9.12960

$$$$
