CHEMBL4560187


 40 43  0  0  0  0  0  0  0  0999 V2000
  -14.1204    0.4974  -17.1462 C   0  0  0  0  0  0  0  0  0  0  0  0
  -15.2579    1.0089  -16.5197 C   0  0  0  0  0  0  0  0  0  0  0  0
  -15.5335    0.7333  -15.1678 C   0  0  0  0  0  0  0  0  0  0  0  0
  -16.6043    1.2967  -14.4575 C   0  0  0  0  0  0  0  0  0  0  0  0
  -16.7767    1.0720  -13.1435 N   0  0  0  0  0  0  0  0  0  0  0  0
  -15.8999    0.2585  -12.5517 C   0  0  0  0  0  0  0  0  0  0  0  0
  -14.8694   -0.3566  -13.1440 N   0  0  0  0  0  0  0  0  0  0  0  0
  -14.6789   -0.1037  -14.4433 C   0  0  0  0  0  0  0  0  0  0  0  0
  -13.5954   -0.6802  -15.1073 C   0  0  0  0  0  0  0  0  0  0  0  0
  -13.2951   -0.4012  -16.4519 C   0  0  0  0  0  0  0  0  0  0  0  0
  -13.8593    2.2366  -18.7329 C   0  0  0  0  0  0  0  0  0  0  0  0
  -13.8591    0.8377  -18.4445 O   0  0  0  0  0  0  0  0  0  0  0  0
  -17.5337    2.1405  -15.1351 N   0  0  0  0  0  0  0  0  0  0  0  0
  -17.2978    2.1670  -16.1221 H   0  0  0  0  0  0  0  0  0  0  0  0
  -18.9256    2.1086  -14.9039 C   0  0  0  0  0  0  0  0  0  0  0  0
  -19.6160    3.2891  -14.5837 C   0  0  0  0  0  0  0  0  0  0  0  0
  -20.9702    3.2655  -14.2493 C   0  0  0  0  0  0  0  0  0  0  0  0
  -21.6549    2.0551  -14.2458 C   0  0  0  0  0  0  0  0  0  0  0  0
  -20.9858    0.8916  -14.6100 C   0  0  0  0  0  0  0  0  0  0  0  0
  -21.6490   -0.2726  -14.6104 F   0  0  0  0  0  0  0  0  0  0  0  0
  -19.6356    0.9070  -14.9520 C   0  0  0  0  0  0  0  0  0  0  0  0
  -12.1699   -1.0562  -16.9119 O   0  0  0  0  0  0  0  0  0  0  0  0
  -12.1719   -2.4747  -16.7855 C   0  0  0  0  0  0  0  0  0  0  0  0
  -13.0440   -3.1805  -17.8204 C   0  0  0  0  0  0  0  0  0  0  0  0
  -13.6687   -4.2702  -17.1289 O   0  0  0  0  0  0  0  0  0  0  0  0
  -13.3989   -4.2899  -15.7276 C   0  0  0  0  0  0  0  0  0  0  0  0
  -14.1460   -5.4798  -15.1132 C   0  0  0  0  0  0  0  0  0  0  0  0
  -15.0958   -5.0755  -14.0791 N   0  0  0  0  0  0  0  0  0  0  0  0
  -15.8405   -5.9946  -13.3745 C   0  0  0  0  0  0  0  0  0  0  0  0
  -15.8166   -7.2003  -13.6149 O   0  0  0  0  0  0  0  0  0  0  0  0
  -15.0489   -4.1110  -13.7708 H   0  0  0  0  0  0  0  0  0  0  0  0
  -16.7087   -5.4233  -12.2756 C   0  0  0  0  0  0  0  0  0  0  0  0
  -15.9381   -4.5909  -11.3768 N   0  0  0  0  0  0  0  0  0  0  0  0
  -16.1276   -3.2722  -11.0830 C   0  0  0  0  0  0  0  0  0  0  0  0
  -15.2413   -2.8800  -10.1947 N   0  0  0  0  0  0  0  0  0  0  0  0
  -14.5186   -4.0281   -9.9677 C   0  0  0  0  0  0  0  0  0  0  0  0
  -14.9225   -5.1127  -10.6547 N   0  0  0  0  0  0  0  0  0  0  0  0
  -13.3816   -4.0818   -9.0600 N   0  0  0  0  0  0  0  0  0  0  0  0
  -13.2525   -5.1084   -8.3731 O   0  0  0  0  0  0  0  0  0  0  0  0
  -12.6191   -3.1013   -9.0235 O   0  0  0  0  0  0  0  0  0  0  0  0
 11 12  1  0  0  0
 12  1  1  0  0  0
  1  2  1  0  0  0
  1 10  2  0  0  0
  2  3  2  0  0  0
  3  4  1  0  0  0
  3  8  1  0  0  0
  4 13  1  0  0  0
  4  5  2  0  0  0
 13 15  1  0  0  0
 13 14  1  0  0  0
 15 16  1  0  0  0
 15 21  2  0  0  0
 16 17  2  0  0  0
 17 18  1  0  0  0
 18 19  2  0  0  0
 19 20  1  0  0  0
 19 21  1  0  0  0
  5  6  1  0  0  0
  6  7  2  0  0  0
  7  8  1  0  0  0
  8  9  2  0  0  0
  9 10  1  0  0  0
 10 22  1  0  0  0
 22 23  1  0  0  0
 23 24  1  0  0  0
 24 25  1  0  0  0
 25 26  1  0  0  0
 26 27  1  0  0  0
 27 28  1  0  0  0
 28 29  1  0  0  0
 28 31  1  0  0  0
 29 30  2  0  0  0
 29 32  1  0  0  0
 32 33  1  0  0  0
 33 34  1  0  0  0
 33 37  1  0  0  0
 34 35  2  0  0  0
 35 36  1  0  0  0
 36 38  1  0  0  0
 36 37  2  0  0  0
 38 39  2  0  0  0
 38 40  1  0  0  0
M  CHG 1  38   1
M  CHG 1  40  -1
M  END
> <minimizedAffinity>
-8.05869

$$$$
