CHEMBL4440653


 32 34  0  0  0  0  0  0  0  0999 V2000
  -24.1477   11.1413  -16.2917 C   0  0  0  0  0  0  0  0  0  0  0  0
  -23.4124   12.0352  -15.8724 O   0  0  0  0  0  0  0  0  0  0  0  0
  -24.2104   10.7674  -17.6380 N   0  0  0  0  0  0  0  0  0  0  0  0
  -25.0024   10.2185  -17.9468 H   0  0  0  0  0  0  0  0  0  0  0  0
  -23.3491   11.2990  -18.6433 C   0  0  0  0  0  0  0  0  0  0  0  0
  -23.8237   12.2093  -19.5947 C   0  0  0  0  0  0  0  0  0  0  0  0
  -23.0161   12.6584  -20.6283 C   0  0  0  0  0  0  0  0  0  0  0  0
  -21.6946   12.2468  -20.6946 C   0  0  0  0  0  0  0  0  0  0  0  0
  -21.1478   11.4187  -19.7104 C   0  0  0  0  0  0  0  0  0  0  0  0
  -21.9903   10.9254  -18.6916 C   0  0  0  0  0  0  0  0  0  0  0  0
  -19.7723   11.0744  -19.7236 N   0  0  0  0  0  0  0  0  0  0  0  0
  -18.8882   11.3235  -20.7704 C   0  0  0  0  0  0  0  0  0  0  0  0
  -19.1493   11.8764  -21.8353 O   0  0  0  0  0  0  0  0  0  0  0  0
  -19.3481   10.6954  -18.8818 H   0  0  0  0  0  0  0  0  0  0  0  0
  -17.4717   10.9070  -20.5335 C   0  0  0  0  0  0  0  0  0  0  0  0
  -16.4919   11.8959  -20.4375 C   0  0  0  0  0  0  0  0  0  0  0  0
  -15.1824   11.5088  -20.1887 C   0  0  0  0  0  0  0  0  0  0  0  0
  -14.8954   10.1567  -20.0501 C   0  0  0  0  0  0  0  0  0  0  0  0
  -15.9339    9.2402  -20.1673 C   0  0  0  0  0  0  0  0  0  0  0  0
  -17.2247    9.5755  -20.4034 N   0  0  0  0  0  0  0  0  0  0  0  0
  -25.0829   10.3689  -15.3487 C   0  0  0  0  0  0  0  0  0  0  0  0
  -26.7734   11.0097  -15.5830 S   0  0  0  0  0  0  0  0  0  0  0  0
  -27.3210   11.7591  -14.0930 C   0  0  0  0  0  0  0  0  0  0  0  0
  -26.2826   12.6582  -13.1204 S   0  0  0  0  0  0  0  0  0  0  0  0
  -31.6037   11.8077  -13.2319 N   0  0  0  0  0  0  0  0  0  0  0  0
  -31.0517   11.9044  -14.6024 C   0  0  0  0  0  0  0  0  0  0  0  0
  -29.7148   11.1579  -14.8181 C   0  0  0  0  0  0  0  0  0  0  0  0
  -28.6878   11.5344  -13.8100 N   0  0  0  0  0  0  0  0  0  0  0  0
  -29.2146   11.4562  -12.4309 C   0  0  0  0  0  0  0  0  0  0  0  0
  -30.5472   12.2186  -12.2846 C   0  0  0  0  0  0  0  0  0  0  0  0
  -33.5207   10.2255  -13.6143 C   0  0  0  0  0  0  0  0  0  0  0  0
  -32.1517   10.4647  -12.9871 C   0  0  0  0  0  0  0  0  0  0  0  0
 31 32  1  0  0  0
 32 25  1  0  0  0
 25 26  1  0  0  0
 25 30  1  0  0  0
 26 27  1  0  0  0
 27 28  1  0  0  0
 28 23  1  0  0  0
 28 29  1  0  0  0
 23 24  2  0  0  0
 23 22  1  0  0  0
 22 21  1  0  0  0
 21  1  1  0  0  0
  1  2  2  0  0  0
  1  3  1  0  0  0
  3  5  1  0  0  0
  3  4  1  0  0  0
  5  6  1  0  0  0
  5 10  2  0  0  0
  6  7  2  0  0  0
  7  8  1  0  0  0
  8  9  2  0  0  0
  9 11  1  0  0  0
  9 10  1  0  0  0
 11 12  1  0  0  0
 11 14  1  0  0  0
 12 13  2  0  0  0
 12 15  1  0  0  0
 15 16  1  0  0  0
 15 20  2  0  0  0
 16 17  2  0  0  0
 17 18  1  0  0  0
 18 19  2  0  0  0
 19 20  1  0  0  0
 29 30  1  0  0  0
M  END
> <minimizedAffinity>
-5.23236

$$$$
