CHEMBL3694721


 36 39  0  0  0  0  0  0  0  0999 V2000
  -29.3180   -2.8095   -5.3459 C   0  0  0  0  0  0  0  0  0  0  0  0
  -29.1719   -1.5084   -4.8809 C   0  0  0  0  0  0  0  0  0  0  0  0
  -28.5474   -0.6983   -5.7891 N   0  0  0  0  0  0  0  0  0  0  0  0
  -28.3079   -1.4660   -6.8305 C   0  0  0  0  0  0  0  0  0  0  0  0
  -27.6674   -1.1749   -8.0726 C   0  0  0  0  0  0  0  0  0  0  0  0
  -27.5177   -2.1248   -9.0284 C   0  0  0  0  0  0  0  0  0  0  0  0
  -28.0569   -3.4672   -8.7765 C   0  0  0  0  0  0  0  0  0  0  0  0
  -28.6783   -3.7409   -7.6211 C   0  0  0  0  0  0  0  0  0  0  0  0
  -28.7798   -2.7632   -6.6338 N   0  0  0  0  0  0  0  0  0  0  0  0
  -29.7254   -6.1509   -3.5954 C   0  0  0  0  0  0  0  0  0  0  0  0
  -31.0709   -6.0751   -3.2333 C   0  0  0  0  0  0  0  0  0  0  0  0
  -31.8643   -5.0194   -3.6687 C   0  0  0  0  0  0  0  0  0  0  0  0
  -31.3078   -4.0099   -4.4443 C   0  0  0  0  0  0  0  0  0  0  0  0
  -29.9344   -3.9832   -4.7144 C   0  0  0  0  0  0  0  0  0  0  0  0
  -29.1602   -5.0931   -4.3293 C   0  0  0  0  0  0  0  0  0  0  0  0
  -28.0807   -7.9145   -5.3327 O   0  0  0  0  0  0  0  0  0  0  0  0
  -28.1597   -8.0234   -4.1167 C   0  0  0  0  0  0  0  0  0  0  0  0
  -27.4477   -8.9954   -3.4457 N   0  0  0  0  0  0  0  0  0  0  0  0
  -28.9004   -7.2461   -3.2526 N   0  0  0  0  0  0  0  0  0  0  0  0
  -27.8579   -9.3237   -2.5833 H   0  0  0  0  0  0  0  0  0  0  0  0
  -28.7846   -7.4317   -2.2680 H   0  0  0  0  0  0  0  0  0  0  0  0
  -26.7166   -9.9967   -4.2338 C   0  0  0  0  0  0  0  0  0  0  0  0
  -25.2056   -9.7522   -4.3539 C   0  0  0  0  0  0  0  0  0  0  0  0
  -24.4873  -10.7102   -3.7223 F   0  0  0  0  0  0  0  0  0  0  0  0
  -24.7920   -9.6929   -5.6357 F   0  0  0  0  0  0  0  0  0  0  0  0
  -24.8808   -8.5729   -3.7670 F   0  0  0  0  0  0  0  0  0  0  0  0
  -26.8127   -1.7976  -10.2940 C   0  0  0  0  0  0  0  0  0  0  0  0
  -25.4947   -1.5151  -10.2475 N   0  0  0  0  0  0  0  0  0  0  0  0
  -24.8779   -1.2984  -11.4297 C   0  0  0  0  0  0  0  0  0  0  0  0
  -25.5250   -1.3283  -12.6436 C   0  0  0  0  0  0  0  0  0  0  0  0
  -26.8689   -1.6217  -12.5871 C   0  0  0  0  0  0  0  0  0  0  0  0
  -27.5328   -1.8485  -11.4337 N   0  0  0  0  0  0  0  0  0  0  0  0
  -24.8696   -1.1495  -13.9428 C   0  0  0  0  0  0  0  0  0  0  0  0
  -25.4418   -1.4115  -14.9890 O   0  0  0  0  0  0  0  0  0  0  0  0
  -23.6153   -0.6634  -13.8967 O   0  0  0  0  0  0  0  0  0  0  0  0
  -23.2929   -0.3128  -13.0487 H   0  0  0  0  0  0  0  0  0  0  0  0
 16 17  2  0  0  0
 17 18  1  0  0  0
 17 19  1  0  0  0
 18 22  1  0  0  0
 18 20  1  0  0  0
 22 23  1  0  0  0
 23 24  1  0  0  0
 23 25  1  0  0  0
 23 26  1  0  0  0
 19 10  1  0  0  0
 19 21  1  0  0  0
 10 11  1  0  0  0
 10 15  2  0  0  0
 11 12  2  0  0  0
 12 13  1  0  0  0
 13 14  2  0  0  0
 14  1  1  0  0  0
 14 15  1  0  0  0
  1  2  2  0  0  0
  1  9  1  0  0  0
  2  3  1  0  0  0
  3  4  2  0  0  0
  4  5  1  0  0  0
  4  9  1  0  0  0
  5  6  2  0  0  0
  6 27  1  0  0  0
  6  7  1  0  0  0
 27 28  1  0  0  0
 27 32  2  0  0  0
 28 29  2  0  0  0
 29 30  1  0  0  0
 30 33  1  0  0  0
 30 31  2  0  0  0
 33 34  2  0  0  0
 33 35  1  0  0  0
 35 36  1  0  0  0
 31 32  1  0  0  0
  7  8  2  0  0  0
  8  9  1  0  0  0
M  END
> <minimizedAffinity>
-10.11505

$$$$
