CHEMBL2031907


 42 47  0  0  0  0  0  0  0  0999 V2000
  -26.7893   -2.4404  -10.0514 N   0  0  0  0  0  0  0  0  0  0  0  0
  -27.9058   -1.9534   -9.3737 C   0  0  0  0  0  0  0  0  0  0  0  0
  -28.4733   -0.8957   -9.6281 O   0  0  0  0  0  0  0  0  0  0  0  0
  -26.3076   -3.2246   -9.6091 H   0  0  0  0  0  0  0  0  0  0  0  0
  -28.3789   -2.8494   -8.2036 C   0  0  0  0  0  0  0  0  0  0  0  0
  -28.9528   -2.6696   -6.9703 C   0  0  0  0  0  0  0  0  0  0  0  0
  -29.2818   -3.8916   -6.3345 N   0  0  0  0  0  0  0  0  0  0  0  0
  -29.4579   -4.0954   -4.8886 C   0  0  0  0  0  0  0  0  0  0  0  0
  -28.5954   -4.8757   -7.0375 N   0  0  0  0  0  0  0  0  0  0  0  0
  -28.1121   -4.3341   -8.2091 C   0  0  0  0  0  0  0  0  0  0  0  0
  -27.5295   -4.9104   -9.1275 O   0  0  0  0  0  0  0  0  0  0  0  0
  -28.6725   -6.2392   -6.7242 C   0  0  0  0  0  0  0  0  0  0  0  0
  -28.0439   -6.7260   -5.5736 C   0  0  0  0  0  0  0  0  0  0  0  0
  -28.2044   -8.0641   -5.2074 C   0  0  0  0  0  0  0  0  0  0  0  0
  -28.9584   -8.9250   -6.0073 C   0  0  0  0  0  0  0  0  0  0  0  0
  -29.5667   -8.4480   -7.1666 C   0  0  0  0  0  0  0  0  0  0  0  0
  -29.4296   -7.1099   -7.5216 C   0  0  0  0  0  0  0  0  0  0  0  0
  -29.0872   -1.4046   -6.1388 C   0  0  0  0  0  0  0  0  0  0  0  0
  -28.0568   -0.3414   -6.3061 N   0  0  0  0  0  0  0  0  0  0  0  0
  -27.7343    0.2398   -4.9881 C   0  0  0  0  0  0  0  0  0  0  0  0
  -28.9990    1.0137   -4.6121 C   0  0  0  0  0  0  0  0  0  0  0  0
  -29.6147    1.4155   -5.9587 C   0  0  0  0  0  0  0  0  0  0  0  0
  -28.6378    0.8501   -6.9832 C   0  0  0  0  0  0  0  0  0  0  0  0
  -23.9356   -1.1569  -12.9148 C   0  0  0  0  0  0  0  0  0  0  0  0
  -25.2038   -1.5539  -13.3758 C   0  0  0  0  0  0  0  0  0  0  0  0
  -26.2393   -1.9404  -12.4690 C   0  0  0  0  0  0  0  0  0  0  0  0
  -25.9703   -1.9638  -11.1051 C   0  0  0  0  0  0  0  0  0  0  0  0
  -24.7440   -1.5972  -10.6588 N   0  0  0  0  0  0  0  0  0  0  0  0
  -23.7945   -1.1610  -11.5388 C   0  0  0  0  0  0  0  0  0  0  0  0
  -22.9643   -0.8071  -13.8374 O   0  0  0  0  0  0  0  0  0  0  0  0
  -18.6812    1.6821  -15.3291 C   0  0  0  0  0  0  0  0  0  0  0  0
  -19.0441    0.3477  -15.3826 C   0  0  0  0  0  0  0  0  0  0  0  0
  -20.3102   -0.0564  -14.9925 C   0  0  0  0  0  0  0  0  0  0  0  0
  -21.2412    0.8658  -14.4732 C   0  0  0  0  0  0  0  0  0  0  0  0
  -22.5012    0.5066  -13.9409 C   0  0  0  0  0  0  0  0  0  0  0  0
  -23.4065    1.5162  -13.5926 C   0  0  0  0  0  0  0  0  0  0  0  0
  -22.9983    2.8340  -13.6958 C   0  0  0  0  0  0  0  0  0  0  0  0
  -21.7582    3.1976  -14.0992 N   0  0  0  0  0  0  0  0  0  0  0  0
  -20.9095    2.2396  -14.4761 C   0  0  0  0  0  0  0  0  0  0  0  0
  -19.6337    2.6162  -14.9118 C   0  0  0  0  0  0  0  0  0  0  0  0
  -17.3600    3.6019  -15.7412 C   0  0  0  0  0  0  0  0  0  0  0  0
  -17.4540    2.1821  -15.6761 O   0  0  0  0  0  0  0  0  0  0  0  0
 41 42  1  0  0  0
 42 31  1  0  0  0
 31 32  1  0  0  0
 31 40  2  0  0  0
 32 33  2  0  0  0
 33 34  1  0  0  0
 34 35  1  0  0  0
 34 39  2  0  0  0
 35 30  1  0  0  0
 35 36  2  0  0  0
 30 24  1  0  0  0
 24 25  1  0  0  0
 24 29  2  0  0  0
 25 26  2  0  0  0
 26 27  1  0  0  0
 27  1  1  0  0  0
 27 28  2  0  0  0
  1  2  1  0  0  0
  1  4  1  0  0  0
  2  3  2  0  0  0
  2  5  1  0  0  0
  5  6  2  0  0  0
  5 10  1  0  0  0
  6 18  1  0  0  0
  6  7  1  0  0  0
 18 19  1  0  0  0
 19 20  1  0  0  0
 19 23  1  0  0  0
 20 21  1  0  0  0
 21 22  1  0  0  0
 22 23  1  0  0  0
  7  8  1  0  0  0
  7  9  1  0  0  0
  9 12  1  0  0  0
  9 10  1  0  0  0
 12 13  1  0  0  0
 12 17  2  0  0  0
 13 14  2  0  0  0
 14 15  1  0  0  0
 15 16  2  0  0  0
 16 17  1  0  0  0
 10 11  2  0  0  0
 28 29  1  0  0  0
 36 37  1  0  0  0
 37 38  2  0  0  0
 38 39  1  0  0  0
 39 40  1  0  0  0
M  END
> <minimizedAffinity>
-10.32615

$$$$
