CHEMBL1977749


 22 24  0  0  0  0  0  0  0  0999 V2000
  -17.7245    1.4262  -15.2960 C   0  0  0  0  0  0  0  0  0  0  0  0
  -17.5783    2.5742  -16.0971 C   0  0  0  0  0  0  0  0  0  0  0  0
  -16.3429    3.2069  -16.2258 C   0  0  0  0  0  0  0  0  0  0  0  0
  -15.2376    2.7018  -15.5493 C   0  0  0  0  0  0  0  0  0  0  0  0
  -15.3504    1.5174  -14.8091 C   0  0  0  0  0  0  0  0  0  0  0  0
  -14.1496    0.9349  -14.1669 C   0  0  0  0  0  0  0  0  0  0  0  0
  -13.0214    1.5787  -14.2007 N   0  0  0  0  0  0  0  0  0  0  0  0
  -11.9944    0.8717  -13.5622 O   0  0  0  0  0  0  0  0  0  0  0  0
  -14.3601   -0.3914  -13.5500 C   0  0  0  0  0  0  0  0  0  0  0  0
  -15.5798   -0.9292  -13.5301 C   0  0  0  0  0  0  0  0  0  0  0  0
  -16.7263   -0.3333  -14.0240 O   0  0  0  0  0  0  0  0  0  0  0  0
  -16.5831    0.8635  -14.6955 C   0  0  0  0  0  0  0  0  0  0  0  0
  -11.2249    1.4511  -13.7020 H   0  0  0  0  0  0  0  0  0  0  0  0
  -15.7404   -2.2553  -12.9113 C   0  0  0  0  0  0  0  0  0  0  0  0
  -16.1139   -3.3506  -13.6993 C   0  0  0  0  0  0  0  0  0  0  0  0
  -16.4860   -4.5581  -13.1015 C   0  0  0  0  0  0  0  0  0  0  0  0
  -16.4610   -4.6859  -11.7139 C   0  0  0  0  0  0  0  0  0  0  0  0
  -16.0476   -3.6141  -10.9237 C   0  0  0  0  0  0  0  0  0  0  0  0
  -15.6950   -2.3979  -11.5183 C   0  0  0  0  0  0  0  0  0  0  0  0
  -19.1023    0.8433  -15.0994 C   0  0  0  0  0  0  0  0  0  0  0  0
  -21.3494    1.5055  -14.2418 C   0  0  0  0  0  0  0  0  0  0  0  0
  -20.0532    1.7847  -14.4256 C   0  0  0  0  0  0  0  0  0  0  0  0
 21 22  2  0  0  0
 22 20  1  0  0  0
 20  1  1  0  0  0
  1  2  1  0  0  0
  1 12  2  0  0  0
  2  3  2  0  0  0
  3  4  1  0  0  0
  4  5  2  0  0  0
  5  6  1  0  0  0
  5 12  1  0  0  0
  6  7  2  0  0  0
  6  9  1  0  0  0
  7  8  1  0  0  0
  8 13  1  0  0  0
  9 10  2  0  0  0
 10 14  1  0  0  0
 10 11  1  0  0  0
 14 15  1  0  0  0
 14 19  2  0  0  0
 15 16  2  0  0  0
 16 17  1  0  0  0
 17 18  2  0  0  0
 18 19  1  0  0  0
 11 12  1  0  0  0
M  END
> <minimizedAffinity>
-8.50798

$$$$
