CHEMBL4520103


 34 37  0  0  0  0  0  0  0  0999 V2000
  -27.6038   -2.3904   -8.0735 N   0  0  0  0  0  0  0  0  0  0  0  0
  -27.9554   -1.5616   -7.0171 C   0  0  0  0  0  0  0  0  0  0  0  0
  -28.1653   -0.3568   -7.0703 O   0  0  0  0  0  0  0  0  0  0  0  0
  -27.5263   -3.3885   -7.9323 H   0  0  0  0  0  0  0  0  0  0  0  0
  -28.1222   -2.2425   -5.7081 C   0  0  0  0  0  0  0  0  0  0  0  0
  -28.5348   -1.4819   -4.6049 C   0  0  0  0  0  0  0  0  0  0  0  0
  -28.7654   -2.1033   -3.3758 C   0  0  0  0  0  0  0  0  0  0  0  0
  -28.5978   -3.4831   -3.2561 C   0  0  0  0  0  0  0  0  0  0  0  0
  -28.1455   -4.2286   -4.3433 C   0  0  0  0  0  0  0  0  0  0  0  0
  -27.8875   -3.6132   -5.5637 C   0  0  0  0  0  0  0  0  0  0  0  0
  -28.0012   -5.6344   -4.2263 N   0  0  0  0  0  0  0  0  0  0  0  0
  -27.1360   -6.0589   -4.5563 H   0  0  0  0  0  0  0  0  0  0  0  0
  -29.3509   -6.6222   -4.4742 S   0  0  0  0  0  0  0  0  0  0  0  0
  -29.3782   -7.5483   -3.3620 O   0  0  0  0  0  0  0  0  0  0  0  0
  -30.4929   -5.7969   -4.7980 O   0  0  0  0  0  0  0  0  0  0  0  0
  -28.9266   -7.5678   -5.9292 C   0  0  0  0  0  0  0  0  0  0  0  0
  -29.2338   -7.0590   -7.1964 C   0  0  0  0  0  0  0  0  0  0  0  0
  -28.8239   -7.7502   -8.3382 C   0  0  0  0  0  0  0  0  0  0  0  0
  -28.1080   -8.9420   -8.2150 C   0  0  0  0  0  0  0  0  0  0  0  0
  -27.7960   -9.4447   -6.9506 C   0  0  0  0  0  0  0  0  0  0  0  0
  -28.1963   -8.7555   -5.8033 C   0  0  0  0  0  0  0  0  0  0  0  0
  -26.5697   -1.3485  -11.3197 N   0  0  0  0  0  0  0  0  0  0  0  0
  -26.2642   -1.8296  -10.0702 C   0  0  0  0  0  0  0  0  0  0  0  0
  -27.4357   -1.9598   -9.3754 C   0  0  0  0  0  0  0  0  0  0  0  0
  -28.4225   -1.5453  -10.2885 C   0  0  0  0  0  0  0  0  0  0  0  0
  -27.9107   -1.1502  -11.4569 N   0  0  0  0  0  0  0  0  0  0  0  0
  -23.5128   -0.2891  -13.1676 C   0  0  0  0  0  0  0  0  0  0  0  0
  -23.8205   -0.7257  -14.4547 C   0  0  0  0  0  0  0  0  0  0  0  0
  -25.0501   -1.3408  -14.7100 C   0  0  0  0  0  0  0  0  0  0  0  0
  -25.9700   -1.5374  -13.6788 C   0  0  0  0  0  0  0  0  0  0  0  0
  -25.6650   -1.1021  -12.3848 C   0  0  0  0  0  0  0  0  0  0  0  0
  -24.4450   -0.4549  -12.1429 C   0  0  0  0  0  0  0  0  0  0  0  0
  -21.5688    0.9270  -13.7842 C   0  0  0  0  0  0  0  0  0  0  0  0
  -22.3466    0.3059  -12.7711 O   0  0  0  0  0  0  0  0  0  0  0  0
 33 34  1  0  0  0
 34 27  1  0  0  0
 27 28  1  0  0  0
 27 32  2  0  0  0
 28 29  2  0  0  0
 29 30  1  0  0  0
 30 31  2  0  0  0
 31 22  1  0  0  0
 31 32  1  0  0  0
 22 23  1  0  0  0
 22 26  1  0  0  0
 23 24  2  0  0  0
 24  1  1  0  0  0
 24 25  1  0  0  0
  1  2  1  0  0  0
  1  4  1  0  0  0
  2  3  2  0  0  0
  2  5  1  0  0  0
  5  6  1  0  0  0
  5 10  2  0  0  0
  6  7  2  0  0  0
  7  8  1  0  0  0
  8  9  2  0  0  0
  9 11  1  0  0  0
  9 10  1  0  0  0
 11 13  1  0  0  0
 11 12  1  0  0  0
 13 14  2  0  0  0
 13 15  2  0  0  0
 13 16  1  0  0  0
 16 17  1  0  0  0
 16 21  2  0  0  0
 17 18  2  0  0  0
 18 19  1  0  0  0
 19 20  2  0  0  0
 20 21  1  0  0  0
 25 26  2  0  0  0
M  END
> <minimizedAffinity>
-9.30480

$$$$
