CHEMBL468420


 32 36  0  0  0  0  0  0  0  0999 V2000
  -28.1480   -1.1513   -5.7005 C   0  0  0  0  0  0  0  0  0  0  0  0
  -28.6512   -0.2226   -4.7679 C   0  0  0  0  0  0  0  0  0  0  0  0
  -29.2426    0.9655   -5.1843 C   0  0  0  0  0  0  0  0  0  0  0  0
  -29.2980    1.2586   -6.5369 C   0  0  0  0  0  0  0  0  0  0  0  0
  -28.7185    0.3884   -7.4636 C   0  0  0  0  0  0  0  0  0  0  0  0
  -28.0756   -0.8023   -7.0718 C   0  0  0  0  0  0  0  0  0  0  0  0
  -27.6723   -2.4826   -5.1891 C   0  0  0  0  0  0  0  0  0  0  0  0
  -26.4628   -2.6851   -5.0815 O   0  0  0  0  0  0  0  0  0  0  0  0
  -31.6390   -7.8805   -6.9307 C   0  0  0  0  0  0  0  0  0  0  0  0
  -30.7575   -6.7922   -6.3860 C   0  0  0  0  0  0  0  0  0  0  0  0
  -29.6350   -6.3705   -7.1008 C   0  0  0  0  0  0  0  0  0  0  0  0
  -28.8299   -5.3257   -6.6308 C   0  0  0  0  0  0  0  0  0  0  0  0
  -29.1665   -4.6556   -5.4342 C   0  0  0  0  0  0  0  0  0  0  0  0
  -28.6751   -3.4765   -4.7599 C   0  0  0  0  0  0  0  0  0  0  0  0
  -29.3885   -3.3952   -3.5729 C   0  0  0  0  0  0  0  0  0  0  0  0
  -30.3324   -4.3885   -3.5556 N   0  0  0  0  0  0  0  0  0  0  0  0
  -30.2537   -5.1401   -4.7044 C   0  0  0  0  0  0  0  0  0  0  0  0
  -31.0631   -6.1977   -5.1510 C   0  0  0  0  0  0  0  0  0  0  0  0
  -31.0157   -4.5319   -2.8241 H   0  0  0  0  0  0  0  0  0  0  0  0
  -27.5127   -1.6521   -8.0490 N   0  0  0  0  0  0  0  0  0  0  0  0
  -26.5050   -1.4644   -8.1367 H   0  0  0  0  0  0  0  0  0  0  0  0
  -28.1473   -1.7006   -9.3768 C   0  0  0  0  0  0  0  0  0  0  0  0
  -27.1533   -1.6564  -10.5277 C   0  0  0  0  0  0  0  0  0  0  0  0
  -27.6515   -1.6694  -11.8461 C   0  0  0  0  0  0  0  0  0  0  0  0
  -26.8023   -1.6109  -12.9640 C   0  0  0  0  0  0  0  0  0  0  0  0
  -25.4176   -1.5348  -12.7509 C   0  0  0  0  0  0  0  0  0  0  0  0
  -24.2616   -1.4582  -13.5604 C   0  0  0  0  0  0  0  0  0  0  0  0
  -23.1337   -1.4032  -12.8461 N   0  0  0  0  0  0  0  0  0  0  0  0
  -23.5716   -1.4407  -11.5731 N   0  0  0  0  0  0  0  0  0  0  0  0
  -24.9334   -1.5225  -11.4498 C   0  0  0  0  0  0  0  0  0  0  0  0
  -25.7641   -1.5803  -10.3219 C   0  0  0  0  0  0  0  0  0  0  0  0
  -22.8877   -1.4061  -10.8277 H   0  0  0  0  0  0  0  0  0  0  0  0
  9 10  1  0  0  0
 10 11  1  0  0  0
 10 18  2  0  0  0
 11 12  2  0  0  0
 12 13  1  0  0  0
 13 14  1  0  0  0
 13 17  2  0  0  0
 14  7  1  0  0  0
 14 15  2  0  0  0
  7  8  2  0  0  0
  7  1  1  0  0  0
  1  2  1  0  0  0
  1  6  2  0  0  0
  2  3  2  0  0  0
  3  4  1  0  0  0
  4  5  2  0  0  0
  5  6  1  0  0  0
  6 20  1  0  0  0
 20 22  1  0  0  0
 20 21  1  0  0  0
 22 23  1  0  0  0
 23 24  1  0  0  0
 23 31  2  0  0  0
 24 25  2  0  0  0
 25 26  1  0  0  0
 26 27  1  0  0  0
 26 30  2  0  0  0
 27 28  2  0  0  0
 28 29  1  0  0  0
 29 30  1  0  0  0
 29 32  1  0  0  0
 30 31  1  0  0  0
 15 16  1  0  0  0
 16 17  1  0  0  0
 16 19  1  0  0  0
 17 18  1  0  0  0
M  END
> <minimizedAffinity>
-10.02206

$$$$
