CHEMBL4169626


 33 37  0  0  0  0  0  0  0  0999 V2000
  -29.9959   -5.2466   -6.1845 C   0  0  0  0  0  0  0  0  0  0  0  0
  -29.6744   -4.4881   -5.0524 C   0  0  0  0  0  0  0  0  0  0  0  0
  -28.9625   -3.2842   -5.1596 C   0  0  0  0  0  0  0  0  0  0  0  0
  -28.5895   -2.8804   -6.4488 C   0  0  0  0  0  0  0  0  0  0  0  0
  -28.8506   -3.6506   -7.5711 C   0  0  0  0  0  0  0  0  0  0  0  0
  -29.5340   -4.8616   -7.4462 C   0  0  0  0  0  0  0  0  0  0  0  0
  -28.3715   -3.0546   -8.6950 N   0  0  0  0  0  0  0  0  0  0  0  0
  -27.8172   -1.9210   -8.3244 C   0  0  0  0  0  0  0  0  0  0  0  0
  -27.9631   -1.7601   -6.9571 N   0  0  0  0  0  0  0  0  0  0  0  0
  -27.6144   -0.6226   -6.1425 C   0  0  0  0  0  0  0  0  0  0  0  0
  -27.2202   -1.0046   -9.1317 N   0  0  0  0  0  0  0  0  0  0  0  0
  -27.1546   -0.0316   -8.8650 H   0  0  0  0  0  0  0  0  0  0  0  0
  -26.7823   -1.2576  -10.4571 C   0  0  0  0  0  0  0  0  0  0  0  0
  -27.7300   -1.4576  -11.4712 C   0  0  0  0  0  0  0  0  0  0  0  0
  -27.3434   -1.8711  -12.7530 C   0  0  0  0  0  0  0  0  0  0  0  0
  -25.9984   -2.0842  -13.0481 C   0  0  0  0  0  0  0  0  0  0  0  0
  -25.0233   -1.8612  -12.0707 C   0  0  0  0  0  0  0  0  0  0  0  0
  -25.4314   -1.4465  -10.7905 C   0  0  0  0  0  0  0  0  0  0  0  0
  -23.5577   -2.0696  -12.3549 C   0  0  0  0  0  0  0  0  0  0  0  0
  -22.7612   -1.8615  -11.2661 F   0  0  0  0  0  0  0  0  0  0  0  0
  -23.2795   -3.3361  -12.7738 F   0  0  0  0  0  0  0  0  0  0  0  0
  -23.0778   -1.2399  -13.3224 F   0  0  0  0  0  0  0  0  0  0  0  0
  -30.7363   -6.3943   -5.9745 O   0  0  0  0  0  0  0  0  0  0  0  0
  -31.2063  -11.7447   -8.6705 C   0  0  0  0  0  0  0  0  0  0  0  0
  -31.3600  -10.4207   -8.1205 N   0  0  0  0  0  0  0  0  0  0  0  0
  -32.5539   -9.7866   -8.1856 N   0  0  0  0  0  0  0  0  0  0  0  0
  -32.3203   -8.6234   -7.5669 C   0  0  0  0  0  0  0  0  0  0  0  0
  -30.9926   -8.5038   -7.1215 C   0  0  0  0  0  0  0  0  0  0  0  0
  -30.1984   -7.5926   -6.4380 C   0  0  0  0  0  0  0  0  0  0  0  0
  -28.8866   -7.8781   -6.2299 N   0  0  0  0  0  0  0  0  0  0  0  0
  -28.4324   -9.0812   -6.6295 C   0  0  0  0  0  0  0  0  0  0  0  0
  -29.1102  -10.0508   -7.2682 N   0  0  0  0  0  0  0  0  0  0  0  0
  -30.3878   -9.6939   -7.4969 C   0  0  0  0  0  0  0  0  0  0  0  0
 24 25  1  0  0  0
 25 26  1  0  0  0
 25 33  1  0  0  0
 26 27  2  0  0  0
 27 28  1  0  0  0
 28 29  1  0  0  0
 28 33  2  0  0  0
 29 23  1  0  0  0
 29 30  2  0  0  0
 23  1  1  0  0  0
  1  2  1  0  0  0
  1  6  2  0  0  0
  2  3  2  0  0  0
  3  4  1  0  0  0
  4  5  2  0  0  0
  4  9  1  0  0  0
  5  6  1  0  0  0
  5  7  1  0  0  0
  7  8  2  0  0  0
  8 11  1  0  0  0
  8  9  1  0  0  0
 11 13  1  0  0  0
 11 12  1  0  0  0
 13 14  1  0  0  0
 13 18  2  0  0  0
 14 15  2  0  0  0
 15 16  1  0  0  0
 16 17  2  0  0  0
 17 19  1  0  0  0
 17 18  1  0  0  0
 19 20  1  0  0  0
 19 21  1  0  0  0
 19 22  1  0  0  0
  9 10  1  0  0  0
 30 31  1  0  0  0
 31 32  2  0  0  0
 32 33  1  0  0  0
M  END
> <minimizedAffinity>
-10.37204

$$$$
