CHEMBL491429


 32 35  0  0  0  0  0  0  0  0999 V2000
  -26.6703   -1.3797  -12.2602 C   0  0  0  0  0  0  0  0  0  0  0  0
  -27.2125   -1.8676  -13.4600 C   0  0  0  0  0  0  0  0  0  0  0  0
  -28.8795   -2.2927  -13.6286 Cl  0  0  0  0  0  0  0  0  0  0  0  0
  -26.4246   -1.9664  -14.6211 C   0  0  0  0  0  0  0  0  0  0  0  0
  -25.0821   -1.5620  -14.6298 C   0  0  0  0  0  0  0  0  0  0  0  0
  -24.5467   -1.0090  -13.4528 C   0  0  0  0  0  0  0  0  0  0  0  0
  -23.3166   -0.4204  -13.0414 C   0  0  0  0  0  0  0  0  0  0  0  0
  -23.3847   -0.0528  -11.7538 N   0  0  0  0  0  0  0  0  0  0  0  0
  -24.6330   -0.4036  -11.3050 O   0  0  0  0  0  0  0  0  0  0  0  0
  -25.3487   -0.9441  -12.3223 C   0  0  0  0  0  0  0  0  0  0  0  0
  -28.3247   -0.6784  -10.8207 O   0  0  0  0  0  0  0  0  0  0  0  0
  -27.3896   -1.4530  -10.9789 C   0  0  0  0  0  0  0  0  0  0  0  0
  -26.9659   -2.3929  -10.0521 N   0  0  0  0  0  0  0  0  0  0  0  0
  -26.1345   -2.9390  -10.2506 H   0  0  0  0  0  0  0  0  0  0  0  0
  -27.5602   -2.5682   -8.7752 C   0  0  0  0  0  0  0  0  0  0  0  0
  -28.1747   -3.7265   -8.3290 C   0  0  0  0  0  0  0  0  0  0  0  0
  -28.7887   -3.8528   -7.1295 N   0  0  0  0  0  0  0  0  0  0  0  0
  -28.7750   -2.7643   -6.3519 C   0  0  0  0  0  0  0  0  0  0  0  0
  -28.1820   -1.5970   -6.6457 N   0  0  0  0  0  0  0  0  0  0  0  0
  -27.5779   -1.5344   -7.8552 C   0  0  0  0  0  0  0  0  0  0  0  0
  -22.2495   -0.2582  -13.8692 N   0  0  0  0  0  0  0  0  0  0  0  0
  -21.8852   -1.0467  -14.3903 H   0  0  0  0  0  0  0  0  0  0  0  0
  -21.5664    0.9488  -14.1336 C   0  0  0  0  0  0  0  0  0  0  0  0
  -22.2515    2.1676  -14.1072 C   0  0  0  0  0  0  0  0  0  0  0  0
  -21.6141    3.3509  -14.4959 C   0  0  0  0  0  0  0  0  0  0  0  0
  -20.2831    3.3297  -14.9165 C   0  0  0  0  0  0  0  0  0  0  0  0
  -19.5735    2.1252  -14.9436 C   0  0  0  0  0  0  0  0  0  0  0  0
  -20.2261    0.9504  -14.5447 C   0  0  0  0  0  0  0  0  0  0  0  0
  -18.1409    2.0468  -15.4028 C   0  0  0  0  0  0  0  0  0  0  0  0
  -17.7701    0.8069  -15.8265 F   0  0  0  0  0  0  0  0  0  0  0  0
  -17.8831    2.8891  -16.4426 F   0  0  0  0  0  0  0  0  0  0  0  0
  -17.2569    2.3862  -14.4234 F   0  0  0  0  0  0  0  0  0  0  0  0
 11 12  2  0  0  0
 12 13  1  0  0  0
 12  1  1  0  0  0
 13 15  1  0  0  0
 13 14  1  0  0  0
 15 16  1  0  0  0
 15 20  2  0  0  0
 16 17  2  0  0  0
 17 18  1  0  0  0
 18 19  2  0  0  0
 19 20  1  0  0  0
  1  2  1  0  0  0
  1 10  2  0  0  0
  2  3  1  0  0  0
  2  4  2  0  0  0
  4  5  1  0  0  0
  5  6  2  0  0  0
  6  7  1  0  0  0
  6 10  1  0  0  0
  7 21  1  0  0  0
  7  8  2  0  0  0
 21 23  1  0  0  0
 21 22  1  0  0  0
 23 24  1  0  0  0
 23 28  2  0  0  0
 24 25  2  0  0  0
 25 26  1  0  0  0
 26 27  2  0  0  0
 27 29  1  0  0  0
 27 28  1  0  0  0
 29 30  1  0  0  0
 29 31  1  0  0  0
 29 32  1  0  0  0
  8  9  1  0  0  0
  9 10  1  0  0  0
M  END
> <minimizedAffinity>
-10.93960

$$$$
