CHEMBL1945171


 33 36  0  0  0  0  0  0  0  0999 V2000
  -27.9955   -1.9389   -9.2377 C   0  0  0  0  0  0  0  0  0  0  0  0
  -27.6060   -1.0525   -8.3087 N   0  0  0  0  0  0  0  0  0  0  0  0
  -27.6102   -1.4642   -7.0268 C   0  0  0  0  0  0  0  0  0  0  0  0
  -27.9779   -2.7291   -6.6289 C   0  0  0  0  0  0  0  0  0  0  0  0
  -28.3730   -3.5807   -7.6353 C   0  0  0  0  0  0  0  0  0  0  0  0
  -28.3604   -3.1964   -8.9293 N   0  0  0  0  0  0  0  0  0  0  0  0
  -28.8495   -4.9544   -7.3568 C   0  0  0  0  0  0  0  0  0  0  0  0
  -28.4018   -6.0230   -8.1591 C   0  0  0  0  0  0  0  0  0  0  0  0
  -28.8146   -7.3382   -7.9181 C   0  0  0  0  0  0  0  0  0  0  0  0
  -29.7553   -7.5969   -6.9270 C   0  0  0  0  0  0  0  0  0  0  0  0
  -30.3041   -9.2046   -6.6510 Cl  0  0  0  0  0  0  0  0  0  0  0  0
  -30.2649   -6.5584   -6.1584 C   0  0  0  0  0  0  0  0  0  0  0  0
  -29.7629   -5.2585   -6.3165 C   0  0  0  0  0  0  0  0  0  0  0  0
  -30.1939   -4.3348   -5.3392 N   0  0  0  0  0  0  0  0  0  0  0  0
  -29.4121   -3.3908   -4.7278 C   0  0  0  0  0  0  0  0  0  0  0  0
  -30.0144   -2.5963   -3.3824 S   0  0  0  0  0  0  0  0  0  0  0  0
  -27.9925   -3.1666   -5.2039 C   0  0  0  0  0  0  0  0  0  0  0  0
  -31.0469   -4.5495   -4.8297 H   0  0  0  0  0  0  0  0  0  0  0  0
  -28.0278   -1.4521  -10.5528 N   0  0  0  0  0  0  0  0  0  0  0  0
  -28.9833   -1.4902  -10.8746 H   0  0  0  0  0  0  0  0  0  0  0  0
  -28.6472   -2.4163  -13.2874 C   0  0  0  0  0  0  0  0  0  0  0  0
  -27.2986   -1.9113  -12.8614 C   0  0  0  0  0  0  0  0  0  0  0  0
  -26.2519   -1.9543  -13.8094 C   0  0  0  0  0  0  0  0  0  0  0  0
  -24.9752   -1.4850  -13.5042 C   0  0  0  0  0  0  0  0  0  0  0  0
  -24.7258   -0.9324  -12.2533 C   0  0  0  0  0  0  0  0  0  0  0  0
  -25.7528   -0.9121  -11.3059 C   0  0  0  0  0  0  0  0  0  0  0  0
  -27.0345   -1.4378  -11.5542 C   0  0  0  0  0  0  0  0  0  0  0  0
  -23.3650   -0.4069  -11.8714 C   0  0  0  0  0  0  0  0  0  0  0  0
  -22.4543   -0.2884  -13.0962 C   0  0  0  0  0  0  0  0  0  0  0  0
  -22.4882    1.1081  -13.7293 C   0  0  0  0  0  0  0  0  0  0  0  0
  -21.1652    1.6789  -14.0228 N   0  0  0  0  0  0  0  0  0  0  0  0
  -20.4664    0.9162  -15.0473 C   0  0  0  0  0  0  0  0  0  0  0  0
  -21.2847    3.0727  -14.4588 C   0  0  0  0  0  0  0  0  0  0  0  0
 21 22  1  0  0  0
 22 23  1  0  0  0
 22 27  2  0  0  0
 23 24  2  0  0  0
 24 25  1  0  0  0
 25 28  1  0  0  0
 25 26  2  0  0  0
 28 29  1  0  0  0
 29 30  1  0  0  0
 30 31  1  0  0  0
 31 32  1  0  0  0
 31 33  1  0  0  0
 26 27  1  0  0  0
 27 19  1  0  0  0
 19  1  1  0  0  0
 19 20  1  0  0  0
  1  2  1  0  0  0
  1  6  2  0  0  0
  2  3  2  0  0  0
  3  4  1  0  0  0
  4  5  2  0  0  0
  4 17  1  0  0  0
  5  6  1  0  0  0
  5  7  1  0  0  0
  7  8  1  0  0  0
  7 13  2  0  0  0
  8  9  2  0  0  0
  9 10  1  0  0  0
 10 11  1  0  0  0
 10 12  2  0  0  0
 12 13  1  0  0  0
 13 14  1  0  0  0
 14 15  1  0  0  0
 14 18  1  0  0  0
 15 16  2  0  0  0
 15 17  1  0  0  0
M  END
> <minimizedAffinity>
-10.15337

$$$$
