CHEMBL221468


 27 29  0  0  0  0  0  0  0  0999 V2000
  -27.3364   -1.6171  -10.5300 C   0  0  0  0  0  0  0  0  0  0  0  0
  -28.0297   -1.6120  -11.7344 C   0  0  0  0  0  0  0  0  0  0  0  0
  -27.2972   -1.6368  -12.9107 C   0  0  0  0  0  0  0  0  0  0  0  0
  -25.9431   -1.6131  -12.9701 N   0  0  0  0  0  0  0  0  0  0  0  0
  -25.2642   -1.5713  -11.8059 C   0  0  0  0  0  0  0  0  0  0  0  0
  -25.9345   -1.6341  -10.5896 C   0  0  0  0  0  0  0  0  0  0  0  0
  -23.8758   -1.4323  -11.9135 N   0  0  0  0  0  0  0  0  0  0  0  0
  -23.4513   -2.3221  -11.6808 H   0  0  0  0  0  0  0  0  0  0  0  0
  -23.2225   -0.6136  -12.7707 C   0  0  0  0  0  0  0  0  0  0  0  0
  -22.4141   -0.9780  -13.7468 N   0  0  0  0  0  0  0  0  0  0  0  0
  -21.8822    0.1387  -14.3792 C   0  0  0  0  0  0  0  0  0  0  0  0
  -22.2672    1.3519  -13.8641 C   0  0  0  0  0  0  0  0  0  0  0  0
  -23.3974    1.1042  -12.6058 S   0  0  0  0  0  0  0  0  0  0  0  0
  -21.8008    2.6220  -14.3095 C   0  0  0  0  0  0  0  0  0  0  0  0
  -21.3782    3.6390  -14.6728 N   0  0  0  0  0  0  0  0  0  0  0  0
  -28.0479   -1.5893   -9.1905 C   0  0  0  0  0  0  0  0  0  0  0  0
  -31.2721   -5.7628   -4.0746 C   0  0  0  0  0  0  0  0  0  0  0  0
  -30.5856   -5.2865   -5.2667 N   0  0  0  0  0  0  0  0  0  0  0  0
  -30.1814   -6.3263   -6.1947 C   0  0  0  0  0  0  0  0  0  0  0  0
  -30.2088   -3.9529   -5.2502 C   0  0  0  0  0  0  0  0  0  0  0  0
  -30.4298   -3.2768   -4.2376 O   0  0  0  0  0  0  0  0  0  0  0  0
  -29.5832   -3.3699   -6.3288 N   0  0  0  0  0  0  0  0  0  0  0  0
  -29.4351   -3.8581   -7.6935 C   0  0  0  0  0  0  0  0  0  0  0  0
  -27.9509   -3.8026   -8.0873 C   0  0  0  0  0  0  0  0  0  0  0  0
  -27.4273   -2.4179   -8.1338 N   0  0  0  0  0  0  0  0  0  0  0  0
  -27.6582   -1.8163   -6.7867 C   0  0  0  0  0  0  0  0  0  0  0  0
  -29.0907   -1.9834   -6.2006 C   0  0  0  0  0  0  0  0  0  0  0  0
 17 18  1  0  0  0
 18 19  1  0  0  0
 18 20  1  0  0  0
 20 21  2  0  0  0
 20 22  1  0  0  0
 22 23  1  0  0  0
 22 27  1  0  0  0
 23 24  1  0  0  0
 24 25  1  0  0  0
 25 16  1  0  0  0
 25 26  1  0  0  0
 16  1  1  0  0  0
  1  2  1  0  0  0
  1  6  2  0  0  0
  2  3  2  0  0  0
  3  4  1  0  0  0
  4  5  2  0  0  0
  5  7  1  0  0  0
  5  6  1  0  0  0
  7  9  1  0  0  0
  7  8  1  0  0  0
  9 10  2  0  0  0
  9 13  1  0  0  0
 10 11  1  0  0  0
 11 12  2  0  0  0
 12 14  1  0  0  0
 12 13  1  0  0  0
 14 15  3  0  0  0
 26 27  1  0  0  0
M  END
> <minimizedAffinity>
-8.01862

$$$$
