CHEMBL3968139


 37 41  0  0  0  0  0  0  0  0999 V2000
  -28.5201   -8.8184   -5.5135 N   0  0  0  0  0  0  0  0  0  0  0  0
  -28.6415   -7.3854   -5.1457 C   0  0  0  0  0  0  0  0  0  0  0  0
  -28.6976   -6.6743   -6.3021 C   0  0  0  0  0  0  0  0  0  0  0  0
  -28.9115   -5.4525   -6.2912 C   0  0  0  0  0  0  0  0  0  0  0  0
  -29.0720   -4.8054   -5.1987 C   0  0  0  0  0  0  0  0  0  0  0  0
  -28.8507   -3.7148   -5.4020 N   0  0  0  0  0  0  0  0  0  0  0  0
  -28.6161   -2.6237   -5.6278 C   0  0  0  0  0  0  0  0  0  0  0  0
  -29.2968   -2.0128   -4.6725 C   0  0  0  0  0  0  0  0  0  0  0  0
  -29.5496   -3.2494   -3.4622 N   0  0  0  0  0  0  0  0  0  0  0  0
  -29.1845   -4.8915   -3.9238 C   0  0  0  0  0  0  0  0  0  0  0  0
  -28.8605   -6.5408   -3.7975 C   0  0  0  0  0  0  0  0  0  0  0  0
  -29.4418   -0.3279   -5.4898 C   0  0  0  0  0  0  0  0  0  0  0  0
  -28.4381    0.6645   -6.1349 C   0  0  0  0  0  0  0  0  0  0  0  0
  -29.1064    1.7559   -6.6756 N   0  0  0  0  0  0  0  0  0  0  0  0
  -30.4082    1.6102   -6.4770 N   0  0  0  0  0  0  0  0  0  0  0  0
  -31.4547    2.5563   -7.0559 C   0  0  0  0  0  0  0  0  0  0  0  0
  -30.6242    0.4262   -5.7605 C   0  0  0  0  0  0  0  0  0  0  0  0
  -29.1497  -10.1818   -9.1574 C   0  0  0  0  0  0  0  0  0  0  0  0
  -30.4256  -10.5316   -9.0234 C   0  0  0  0  0  0  0  0  0  0  0  0
  -31.1198  -10.4084   -7.8331 C   0  0  0  0  0  0  0  0  0  0  0  0
  -30.5153   -9.8640   -6.6794 C   0  0  0  0  0  0  0  0  0  0  0  0
  -29.2344   -9.3552   -6.7325 C   0  0  0  0  0  0  0  0  0  0  0  0
  -28.6510   -9.4421   -8.0545 C   0  0  0  0  0  0  0  0  0  0  0  0
  -28.8892  -10.4222  -11.6831 C   0  0  0  0  0  0  0  0  0  0  0  0
  -28.5030  -10.5693  -10.3378 O   0  0  0  0  0  0  0  0  0  0  0  0
  -32.3528  -10.9158   -7.8000 O   0  0  0  0  0  0  0  0  0  0  0  0
  -32.9863  -11.1550   -6.6133 C   0  0  0  0  0  0  0  0  0  0  0  0
  -28.1215   -9.7912   -4.4630 C   0  0  0  0  0  0  0  0  0  0  0  0
  -26.6574   -9.8207   -4.1727 C   0  0  0  0  0  0  0  0  0  0  0  0
  -25.7581  -10.8789   -4.7372 C   0  0  0  0  0  0  0  0  0  0  0  0
  -24.8095  -10.3824   -5.7715 N   0  0  0  0  0  0  0  0  0  0  0  0
  -24.5487  -11.4132   -6.7944 C   0  0  0  0  0  0  0  0  0  0  0  0
  -25.5516  -11.4402   -7.9443 C   0  0  0  0  0  0  0  0  0  0  0  0
  -23.0853  -11.3929   -7.1935 C   0  0  0  0  0  0  0  0  0  0  0  0
  -22.5455  -10.1898   -6.4762 C   0  0  0  0  0  0  0  0  0  0  0  0
  -23.4660  -10.0258   -5.2612 C   0  0  0  0  0  0  0  0  0  0  0  0
  -22.9788  -10.9120   -4.1045 C   0  0  0  0  0  0  0  0  0  0  0  0
 24 25  1  0  0  0
 25 18  1  0  0  0
 18 19  1  0  0  0
 18 23  2  0  0  0
 19 20  2  0  0  0
 20 26  1  0  0  0
 20 21  1  0  0  0
 26 27  1  0  0  0
 21 22  2  0  0  0
 22  1  1  0  0  0
 22 23  1  0  0  0
  1 28  1  0  0  0
  1  2  1  0  0  0
 28 29  1  0  0  0
 29 30  1  0  0  0
 30 31  1  0  0  0
 31 32  1  0  0  0
 31 36  1  0  0  0
 32 33  1  0  0  0
 32 34  1  0  0  0
 34 35  1  0  0  0
 35 36  1  0  0  0
 36 37  1  0  0  0
  2  3  1  0  0  0
  2 11  2  0  0  0
  3  4  2  0  0  0
  4  5  1  0  0  0
  5  6  1  0  0  0
  5 10  2  0  0  0
  6  7  2  0  0  0
  7  8  1  0  0  0
  8 12  1  0  0  0
  8  9  2  0  0  0
 12 13  1  0  0  0
 12 17  2  0  0  0
 13 14  2  0  0  0
 14 15  1  0  0  0
 15 16  1  0  0  0
 15 17  1  0  0  0
  9 10  1  0  0  0
 10 11  1  0  0  0
M  END
> <minimizedAffinity>
-8.57374

$$$$
