CHEMBL3961400


 43 48  0  0  0  0  0  0  0  0999 V2000
  -15.1118    2.1120  -15.4055 N   0  0  0  0  0  0  0  0  0  0  0  0
  -16.5857    2.0689  -15.3180 C   0  0  0  0  0  0  0  0  0  0  0  0
  -17.2266    2.8375  -16.3021 C   0  0  0  0  0  0  0  0  0  0  0  0
  -18.5030    3.2291  -16.1878 C   0  0  0  0  0  0  0  0  0  0  0  0
  -19.2669    2.7729  -15.1757 C   0  0  0  0  0  0  0  0  0  0  0  0
  -20.4349    3.3870  -15.0111 N   0  0  0  0  0  0  0  0  0  0  0  0
  -21.3499    2.9392  -14.1703 C   0  0  0  0  0  0  0  0  0  0  0  0
  -21.1892    1.6578  -13.6484 C   0  0  0  0  0  0  0  0  0  0  0  0
  -19.8997    1.1035  -13.6168 N   0  0  0  0  0  0  0  0  0  0  0  0
  -18.8688    1.7199  -14.3392 C   0  0  0  0  0  0  0  0  0  0  0  0
  -17.4454    1.3770  -14.3552 C   0  0  0  0  0  0  0  0  0  0  0  0
  -22.5078    0.9025  -13.6927 C   0  0  0  0  0  0  0  0  0  0  0  0
  -22.7758   -0.0906  -14.6635 C   0  0  0  0  0  0  0  0  0  0  0  0
  -23.8471   -0.7951  -14.3247 N   0  0  0  0  0  0  0  0  0  0  0  0
  -24.3019   -0.3073  -13.1953 N   0  0  0  0  0  0  0  0  0  0  0  0
  -25.3909   -0.9684  -12.4965 C   0  0  0  0  0  0  0  0  0  0  0  0
  -23.5432    0.7499  -12.7805 C   0  0  0  0  0  0  0  0  0  0  0  0
  -13.9369    3.0594  -18.9438 C   0  0  0  0  0  0  0  0  0  0  0  0
  -13.8031    1.8002  -19.5336 C   0  0  0  0  0  0  0  0  0  0  0  0
  -14.0252    0.6445  -18.7912 C   0  0  0  0  0  0  0  0  0  0  0  0
  -14.4625    0.7349  -17.4504 C   0  0  0  0  0  0  0  0  0  0  0  0
  -14.5796    1.9700  -16.7857 C   0  0  0  0  0  0  0  0  0  0  0  0
  -14.2746    3.1360  -17.5772 C   0  0  0  0  0  0  0  0  0  0  0  0
  -13.5323    5.4759  -19.1254 C   0  0  0  0  0  0  0  0  0  0  0  0
  -13.7494    4.2106  -19.6543 O   0  0  0  0  0  0  0  0  0  0  0  0
  -13.8076   -0.5438  -19.4068 O   0  0  0  0  0  0  0  0  0  0  0  0
  -13.4779   -1.7182  -18.7607 C   0  0  0  0  0  0  0  0  0  0  0  0
  -14.3133    1.8214  -14.1934 C   0  0  0  0  0  0  0  0  0  0  0  0
  -13.9952    0.3197  -13.8283 C   0  0  0  0  0  0  0  0  0  0  0  0
  -12.7155   -0.2954  -14.4107 C   0  0  0  0  0  0  0  0  0  0  0  0
  -12.3571   -1.5812  -13.7202 N   0  0  0  0  0  0  0  0  0  0  0  0
  -12.2615   -2.6650  -14.7039 C   0  0  0  0  0  0  0  0  0  0  0  0
  -13.6665   -3.2327  -14.7922 C   0  0  0  0  0  0  0  0  0  0  0  0
  -14.0124   -3.4064  -13.3226 C   0  0  0  0  0  0  0  0  0  0  0  0
  -13.4382   -2.0604  -12.8081 C   0  0  0  0  0  0  0  0  0  0  0  0
  -13.3820   -4.6193  -12.7317 N   0  0  0  0  0  0  0  0  0  0  0  0
  -14.1953   -5.8431  -12.8714 C   0  0  0  0  0  0  0  0  0  0  0  0
  -15.3611   -5.9625  -11.8471 C   0  0  0  0  0  0  0  0  0  0  0  0
  -16.6396   -5.1149  -12.0217 C   0  0  0  0  0  0  0  0  0  0  0  0
  -14.8997   -5.8900  -10.5108 O   0  0  0  0  0  0  0  0  0  0  0  0
  -14.0419   -4.7786  -10.2497 C   0  0  0  0  0  0  0  0  0  0  0  0
  -14.7772   -3.4919   -9.8629 C   0  0  0  0  0  0  0  0  0  0  0  0
  -12.9226   -4.5731  -11.3158 C   0  0  0  0  0  0  0  0  0  0  0  0
 24 25  1  0  0  0
 25 18  1  0  0  0
 18 19  1  0  0  0
 18 23  2  0  0  0
 19 20  2  0  0  0
 20 26  1  0  0  0
 20 21  1  0  0  0
 26 27  1  0  0  0
 21 22  2  0  0  0
 22  1  1  0  0  0
 22 23  1  0  0  0
  1 28  1  0  0  0
  1  2  1  0  0  0
 28 29  1  0  0  0
 29 30  1  0  0  0
 30 31  1  0  0  0
 31 32  1  0  0  0
 31 35  1  0  0  0
 32 33  1  0  0  0
 33 34  1  0  0  0
 34 36  1  0  0  0
 34 35  1  0  0  0
 36 37  1  0  0  0
 36 43  1  0  0  0
 37 38  1  0  0  0
 38 40  1  0  0  0
 38 39  1  0  0  0
 40 41  1  0  0  0
 41 43  1  0  0  0
 41 42  1  0  0  0
  2  3  1  0  0  0
  2 11  2  0  0  0
  3  4  2  0  0  0
  4  5  1  0  0  0
  5  6  1  0  0  0
  5 10  2  0  0  0
  6  7  2  0  0  0
  7  8  1  0  0  0
  8 12  1  0  0  0
  8  9  2  0  0  0
 12 13  1  0  0  0
 12 17  2  0  0  0
 13 14  2  0  0  0
 14 15  1  0  0  0
 15 16  1  0  0  0
 15 17  1  0  0  0
  9 10  1  0  0  0
 10 11  1  0  0  0
M  END
> <minimizedAffinity>
-8.32362

$$$$
