CHEMBL479079


 33 36  0  0  0  0  0  0  0  0999 V2000
  -27.3786   -1.5201   -9.5037 C   0  0  0  0  0  0  0  0  0  0  0  0
  -28.3476   -1.5584  -10.4253 N   0  0  0  0  0  0  0  0  0  0  0  0
  -27.9334   -1.5799  -11.7099 C   0  0  0  0  0  0  0  0  0  0  0  0
  -26.6087   -1.5692  -12.1058 C   0  0  0  0  0  0  0  0  0  0  0  0
  -25.6806   -1.5432  -11.0985 C   0  0  0  0  0  0  0  0  0  0  0  0
  -26.0748   -1.5216   -9.8158 N   0  0  0  0  0  0  0  0  0  0  0  0
  -27.7493   -1.4615   -8.1569 N   0  0  0  0  0  0  0  0  0  0  0  0
  -27.1365   -0.8039   -7.6911 H   0  0  0  0  0  0  0  0  0  0  0  0
  -28.9706   -4.8654   -7.1866 C   0  0  0  0  0  0  0  0  0  0  0  0
  -28.5914   -3.7572   -7.9506 C   0  0  0  0  0  0  0  0  0  0  0  0
  -28.0875   -2.5847   -7.3704 C   0  0  0  0  0  0  0  0  0  0  0  0
  -27.8929   -2.5542   -5.9908 C   0  0  0  0  0  0  0  0  0  0  0  0
  -28.2953   -3.6365   -5.1967 C   0  0  0  0  0  0  0  0  0  0  0  0
  -28.8245   -4.8060   -5.7883 C   0  0  0  0  0  0  0  0  0  0  0  0
  -28.7019   -7.0780   -8.0498 C   0  0  0  0  0  0  0  0  0  0  0  0
  -29.5497   -5.9741   -7.7506 O   0  0  0  0  0  0  0  0  0  0  0  0
  -28.1536   -3.6452   -3.8275 O   0  0  0  0  0  0  0  0  0  0  0  0
  -29.0333   -2.7829   -3.1159 C   0  0  0  0  0  0  0  0  0  0  0  0
  -29.2145   -5.7822   -4.9021 O   0  0  0  0  0  0  0  0  0  0  0  0
  -30.5988   -5.8614   -4.5938 C   0  0  0  0  0  0  0  0  0  0  0  0
  -24.3014   -1.6000  -11.4038 N   0  0  0  0  0  0  0  0  0  0  0  0
  -23.9273   -2.5357  -11.3242 H   0  0  0  0  0  0  0  0  0  0  0  0
  -23.6330   -0.7845  -12.3497 C   0  0  0  0  0  0  0  0  0  0  0  0
  -22.8187   -1.3286  -13.3564 C   0  0  0  0  0  0  0  0  0  0  0  0
  -22.0034   -0.5069  -14.1762 C   0  0  0  0  0  0  0  0  0  0  0  0
  -22.1154    0.8947  -14.0660 C   0  0  0  0  0  0  0  0  0  0  0  0
  -21.4386    2.0999  -14.4265 C   0  0  0  0  0  0  0  0  0  0  0  0
  -19.9862    2.3894  -14.4957 C   0  0  0  0  0  0  0  0  0  0  0  0
  -22.2236    3.1786  -14.2712 N   0  0  0  0  0  0  0  0  0  0  0  0
  -23.1797    2.7116  -13.4641 N   0  0  0  0  0  0  0  0  0  0  0  0
  -23.0744    1.3949  -13.1904 C   0  0  0  0  0  0  0  0  0  0  0  0
  -23.7202    0.6092  -12.2451 C   0  0  0  0  0  0  0  0  0  0  0  0
  -23.8429    3.3562  -13.0975 H   0  0  0  0  0  0  0  0  0  0  0  0
 15 16  1  0  0  0
 16  9  1  0  0  0
  9 10  1  0  0  0
  9 14  2  0  0  0
 10 11  2  0  0  0
 11  7  1  0  0  0
 11 12  1  0  0  0
  7  1  1  0  0  0
  7  8  1  0  0  0
  1  2  1  0  0  0
  1  6  2  0  0  0
  2  3  2  0  0  0
  3  4  1  0  0  0
  4  5  2  0  0  0
  5 21  1  0  0  0
  5  6  1  0  0  0
 21 23  1  0  0  0
 21 22  1  0  0  0
 23 24  1  0  0  0
 23 32  2  0  0  0
 24 25  2  0  0  0
 25 26  1  0  0  0
 26 27  1  0  0  0
 26 31  2  0  0  0
 27 28  1  0  0  0
 27 29  2  0  0  0
 29 30  1  0  0  0
 30 31  1  0  0  0
 30 33  1  0  0  0
 31 32  1  0  0  0
 12 13  2  0  0  0
 13 17  1  0  0  0
 13 14  1  0  0  0
 17 18  1  0  0  0
 14 19  1  0  0  0
 19 20  1  0  0  0
M  END
> <minimizedAffinity>
-9.28756

$$$$
