CHEMBL247468


 40 45  0  0  0  0  0  0  0  0999 V2000
  -28.1402   -9.4259   -5.7118 C   0  0  0  0  0  0  0  0  0  0  0  0
  -27.8783   -8.3194   -4.9086 C   0  0  0  0  0  0  0  0  0  0  0  0
  -26.6407   -8.4324   -4.3462 O   0  0  0  0  0  0  0  0  0  0  0  0
  -26.0652   -9.5705   -4.8136 C   0  0  0  0  0  0  0  0  0  0  0  0
  -24.8335   -9.9472   -4.4572 N   0  0  0  0  0  0  0  0  0  0  0  0
  -24.4766  -11.0864   -5.0488 C   0  0  0  0  0  0  0  0  0  0  0  0
  -25.2027  -11.8232   -5.9115 N   0  0  0  0  0  0  0  0  0  0  0  0
  -26.4389  -11.4092   -6.2569 C   0  0  0  0  0  0  0  0  0  0  0  0
  -26.9336  -10.2226   -5.6840 C   0  0  0  0  0  0  0  0  0  0  0  0
  -31.9527  -10.0654   -7.5486 C   0  0  0  0  0  0  0  0  0  0  0  0
  -31.4304  -11.0040   -6.6659 C   0  0  0  0  0  0  0  0  0  0  0  0
  -30.1408  -10.8409   -6.1573 C   0  0  0  0  0  0  0  0  0  0  0  0
  -29.4260   -9.6571   -6.3735 C   0  0  0  0  0  0  0  0  0  0  0  0
  -29.9824   -8.7078   -7.2452 C   0  0  0  0  0  0  0  0  0  0  0  0
  -31.2049   -8.9403   -7.8794 C   0  0  0  0  0  0  0  0  0  0  0  0
  -28.6013   -7.1005   -4.5582 C   0  0  0  0  0  0  0  0  0  0  0  0
  -29.8114   -7.1573   -3.8588 C   0  0  0  0  0  0  0  0  0  0  0  0
  -30.5017   -5.9965   -3.5461 C   0  0  0  0  0  0  0  0  0  0  0  0
  -30.0058   -4.7385   -3.9096 C   0  0  0  0  0  0  0  0  0  0  0  0
  -28.8274   -4.6616   -4.6425 C   0  0  0  0  0  0  0  0  0  0  0  0
  -28.1197   -5.8307   -4.9345 C   0  0  0  0  0  0  0  0  0  0  0  0
  -30.6138   -3.5401   -3.5727 O   0  0  0  0  0  0  0  0  0  0  0  0
  -29.6396   -2.4928   -3.4781 C   0  0  0  0  0  0  0  0  0  0  0  0
  -29.7444   -1.3948   -4.5515 C   0  0  0  0  0  0  0  0  0  0  0  0
  -28.3973   -0.8754   -4.8681 N   0  0  0  0  0  0  0  0  0  0  0  0
  -28.3117    0.5855   -4.8898 C   0  0  0  0  0  0  0  0  0  0  0  0
  -28.4719    0.9782   -6.3454 C   0  0  0  0  0  0  0  0  0  0  0  0
  -27.8292   -0.1613   -7.1081 C   0  0  0  0  0  0  0  0  0  0  0  0
  -27.8369   -1.3377   -6.1467 C   0  0  0  0  0  0  0  0  0  0  0  0
  -27.1473  -12.1066   -7.2209 N   0  0  0  0  0  0  0  0  0  0  0  0
  -27.5949  -12.9246   -6.8307 H   0  0  0  0  0  0  0  0  0  0  0  0
  -26.5351  -12.4292   -8.5018 C   0  0  0  0  0  0  0  0  0  0  0  0
  -27.5568  -12.0789   -9.6170 C   0  0  0  0  0  0  0  0  0  0  0  0
  -28.1680  -10.7386   -9.5161 N   0  0  0  0  0  0  0  0  0  0  0  0
  -29.3059  -10.6152  -10.4578 C   0  0  0  0  0  0  0  0  0  0  0  0
  -28.9068  -10.4618  -11.9479 C   0  0  0  0  0  0  0  0  0  0  0  0
  -27.9028   -9.4104  -12.1959 N   0  0  0  0  0  0  0  0  0  0  0  0
  -26.7653   -9.5753  -11.2753 C   0  0  0  0  0  0  0  0  0  0  0  0
  -27.2119   -9.6493   -9.7993 C   0  0  0  0  0  0  0  0  0  0  0  0
  -28.3388   -8.5113  -11.9873 H   0  0  0  0  0  0  0  0  0  0  0  0
 10 11  1  0  0  0
 10 15  2  0  0  0
 11 12  2  0  0  0
 12 13  1  0  0  0
 13  1  1  0  0  0
 13 14  2  0  0  0
  1  2  2  0  0  0
  1  9  1  0  0  0
  2 16  1  0  0  0
  2  3  1  0  0  0
 16 17  1  0  0  0
 16 21  2  0  0  0
 17 18  2  0  0  0
 18 19  1  0  0  0
 19 22  1  0  0  0
 19 20  2  0  0  0
 22 23  1  0  0  0
 23 24  1  0  0  0
 24 25  1  0  0  0
 25 26  1  0  0  0
 25 29  1  0  0  0
 26 27  1  0  0  0
 27 28  1  0  0  0
 28 29  1  0  0  0
 20 21  1  0  0  0
  3  4  1  0  0  0
  4  5  1  0  0  0
  4  9  2  0  0  0
  5  6  2  0  0  0
  6  7  1  0  0  0
  7  8  2  0  0  0
  8 30  1  0  0  0
  8  9  1  0  0  0
 30 32  1  0  0  0
 30 31  1  0  0  0
 32 33  1  0  0  0
 33 34  1  0  0  0
 34 35  1  0  0  0
 34 39  1  0  0  0
 35 36  1  0  0  0
 36 37  1  0  0  0
 37 38  1  0  0  0
 37 40  1  0  0  0
 38 39  1  0  0  0
 14 15  1  0  0  0
M  END
> <minimizedAffinity>
-7.85897

$$$$
