CHEMBL3966540


 38 41  0  0  0  0  0  0  0  0999 V2000
  -27.2317   -2.0192   -4.9320 C   0  0  0  0  0  0  0  0  0  0  0  0
  -28.0213   -3.2571   -5.2592 C   0  0  0  0  0  0  0  0  0  0  0  0
  -28.1196   -4.2296   -4.2378 C   0  0  0  0  0  0  0  0  0  0  0  0
  -28.9177   -5.3659   -4.3790 C   0  0  0  0  0  0  0  0  0  0  0  0
  -29.5784   -5.5750   -5.5788 C   0  0  0  0  0  0  0  0  0  0  0  0
  -29.4604   -4.6389   -6.6151 C   0  0  0  0  0  0  0  0  0  0  0  0
  -28.6942   -3.4662   -6.4834 C   0  0  0  0  0  0  0  0  0  0  0  0
  -28.5637   -2.5318   -7.5522 N   0  0  0  0  0  0  0  0  0  0  0  0
  -27.8846   -2.7452   -8.7433 C   0  0  0  0  0  0  0  0  0  0  0  0
  -27.4159   -3.8119   -9.1174 O   0  0  0  0  0  0  0  0  0  0  0  0
  -27.7159   -1.5713   -9.4786 N   0  0  0  0  0  0  0  0  0  0  0  0
  -29.1035   -1.6821   -7.4889 H   0  0  0  0  0  0  0  0  0  0  0  0
  -27.6049   -0.7444   -8.9089 H   0  0  0  0  0  0  0  0  0  0  0  0
  -27.0006   -1.5873  -10.7087 C   0  0  0  0  0  0  0  0  0  0  0  0
  -27.7085   -1.7865  -11.8963 C   0  0  0  0  0  0  0  0  0  0  0  0
  -27.0414   -1.7104  -13.1207 C   0  0  0  0  0  0  0  0  0  0  0  0
  -27.9334   -1.8506  -14.5869 Cl  0  0  0  0  0  0  0  0  0  0  0  0
  -25.6640   -1.5009  -13.1759 C   0  0  0  0  0  0  0  0  0  0  0  0
  -24.9277   -1.3590  -11.9919 C   0  0  0  0  0  0  0  0  0  0  0  0
  -25.6126   -1.3883  -10.7625 C   0  0  0  0  0  0  0  0  0  0  0  0
  -23.4290   -1.1802  -12.0311 C   0  0  0  0  0  0  0  0  0  0  0  0
  -22.7647   -2.0255  -11.1917 F   0  0  0  0  0  0  0  0  0  0  0  0
  -22.8975   -1.3908  -13.2647 F   0  0  0  0  0  0  0  0  0  0  0  0
  -23.0485    0.0744  -11.6625 F   0  0  0  0  0  0  0  0  0  0  0  0
  -29.0295   -6.3445   -3.4149 O   0  0  0  0  0  0  0  0  0  0  0  0
  -28.6193   -7.6341   -3.7414 C   0  0  0  0  0  0  0  0  0  0  0  0
  -27.3873   -7.7619   -4.3496 C   0  0  0  0  0  0  0  0  0  0  0  0
  -27.0117   -9.0483   -4.6744 C   0  0  0  0  0  0  0  0  0  0  0  0
  -27.7853  -10.1027   -4.3896 N   0  0  0  0  0  0  0  0  0  0  0  0
  -28.9651   -9.8686   -3.8156 C   0  0  0  0  0  0  0  0  0  0  0  0
  -29.4387   -8.6690   -3.4878 N   0  0  0  0  0  0  0  0  0  0  0  0
  -25.7804   -9.2468   -5.3280 N   0  0  0  0  0  0  0  0  0  0  0  0
  -24.6334   -9.6936   -4.6874 C   0  0  0  0  0  0  0  0  0  0  0  0
  -24.5143   -9.9809   -3.5071 O   0  0  0  0  0  0  0  0  0  0  0  0
  -25.7368   -9.0684   -6.3153 H   0  0  0  0  0  0  0  0  0  0  0  0
  -23.4508   -9.8007   -5.5900 C   0  0  0  0  0  0  0  0  0  0  0  0
  -23.3272  -10.9734   -6.5399 C   0  0  0  0  0  0  0  0  0  0  0  0
  -22.4407  -10.8947   -5.3319 C   0  0  0  0  0  0  0  0  0  0  0  0
  1  2  1  0  0  0
  2  3  1  0  0  0
  2  7  2  0  0  0
  3  4  2  0  0  0
  4 25  1  0  0  0
  4  5  1  0  0  0
 25 26  1  0  0  0
 26 27  1  0  0  0
 26 31  2  0  0  0
 27 28  2  0  0  0
 28 32  1  0  0  0
 28 29  1  0  0  0
 32 33  1  0  0  0
 32 35  1  0  0  0
 33 34  2  0  0  0
 33 36  1  0  0  0
 36 37  1  0  0  0
 36 38  1  0  0  0
 37 38  1  0  0  0
 29 30  2  0  0  0
 30 31  1  0  0  0
  5  6  2  0  0  0
  6  7  1  0  0  0
  7  8  1  0  0  0
  8  9  1  0  0  0
  8 12  1  0  0  0
  9 10  2  0  0  0
  9 11  1  0  0  0
 11 14  1  0  0  0
 11 13  1  0  0  0
 14 15  1  0  0  0
 14 20  2  0  0  0
 15 16  2  0  0  0
 16 17  1  0  0  0
 16 18  1  0  0  0
 18 19  2  0  0  0
 19 21  1  0  0  0
 19 20  1  0  0  0
 21 22  1  0  0  0
 21 23  1  0  0  0
 21 24  1  0  0  0
M  END
> <minimizedAffinity>
-9.91699

$$$$
