CHEMBL4779166


 32 34  0  0  0  0  0  0  0  0999 V2000
  -28.5949   -2.6233   -7.2983 C   0  0  0  0  0  0  0  0  0  0  0  0
  -28.4013   -3.7451   -8.0921 C   0  0  0  0  0  0  0  0  0  0  0  0
  -29.0335   -5.0901   -8.1598 C   0  0  0  0  0  0  0  0  0  0  0  0
  -27.4346   -3.4380   -9.0169 N   0  0  0  0  0  0  0  0  0  0  0  0
  -27.0058   -2.1413   -8.9177 C   0  0  0  0  0  0  0  0  0  0  0  0
  -27.7187   -1.5937   -7.8468 C   0  0  0  0  0  0  0  0  0  0  0  0
  -27.6373   -0.1971   -7.3229 C   0  0  0  0  0  0  0  0  0  0  0  0
  -27.1202   -4.1007   -9.7169 H   0  0  0  0  0  0  0  0  0  0  0  0
  -26.0219   -1.6024   -9.8174 C   0  0  0  0  0  0  0  0  0  0  0  0
  -26.0435   -1.5235  -11.1633 C   0  0  0  0  0  0  0  0  0  0  0  0
  -27.1099   -1.9737  -12.1482 C   0  0  0  0  0  0  0  0  0  0  0  0
  -28.1813   -2.5073  -11.9239 O   0  0  0  0  0  0  0  0  0  0  0  0
  -26.6305   -1.6638  -13.4022 N   0  0  0  0  0  0  0  0  0  0  0  0
  -25.3831   -1.0668  -13.3357 C   0  0  0  0  0  0  0  0  0  0  0  0
  -24.6378   -0.6427  -14.4217 C   0  0  0  0  0  0  0  0  0  0  0  0
  -23.4070   -0.0717  -14.1419 C   0  0  0  0  0  0  0  0  0  0  0  0
  -22.6416    0.3542  -15.1549 F   0  0  0  0  0  0  0  0  0  0  0  0
  -22.9495    0.0697  -12.8252 C   0  0  0  0  0  0  0  0  0  0  0  0
  -23.7283   -0.3691  -11.7364 C   0  0  0  0  0  0  0  0  0  0  0  0
  -24.9614   -0.9465  -12.0075 C   0  0  0  0  0  0  0  0  0  0  0  0
  -27.1512   -1.8603  -14.2431 H   0  0  0  0  0  0  0  0  0  0  0  0
  -29.0050   -2.4500   -4.9092 N   0  0  0  0  0  0  0  0  0  0  0  0
  -29.5442   -2.4547   -6.1826 C   0  0  0  0  0  0  0  0  0  0  0  0
  -30.7489   -2.3020   -6.3731 O   0  0  0  0  0  0  0  0  0  0  0  0
  -28.0122   -2.2833   -4.8104 H   0  0  0  0  0  0  0  0  0  0  0  0
  -29.8416   -2.2311   -3.7445 C   0  0  0  0  0  0  0  0  0  0  0  0
  -30.4592   -3.5223   -3.1597 C   0  0  0  0  0  0  0  0  0  0  0  0
  -30.2824   -4.7669   -3.9472 N   0  0  0  0  0  0  0  0  0  0  0  0
  -28.2109   -5.9917   -4.7163 C   0  0  0  0  0  0  0  0  0  0  0  0
  -29.0610   -5.4896   -3.5518 C   0  0  0  0  0  0  0  0  0  0  0  0
  -31.5028   -5.6019   -3.8910 C   0  0  0  0  0  0  0  0  0  0  0  0
  -32.4732   -5.3395   -2.7376 C   0  0  0  0  0  0  0  0  0  0  0  0
 29 30  1  0  0  0
 30 28  1  0  0  0
 28 31  1  0  0  0
 28 27  1  0  0  0
 31 32  1  0  0  0
 27 26  1  0  0  0
 26 22  1  0  0  0
 22 23  1  0  0  0
 22 25  1  0  0  0
 23 24  2  0  0  0
 23  1  1  0  0  0
  1  2  2  0  0  0
  1  6  1  0  0  0
  2  3  1  0  0  0
  2  4  1  0  0  0
  4  5  1  0  0  0
  4  8  1  0  0  0
  5  9  1  0  0  0
  5  6  2  0  0  0
  9 10  2  0  0  0
 10 11  1  0  0  0
 10 20  1  0  0  0
 11 12  2  0  0  0
 11 13  1  0  0  0
 13 14  1  0  0  0
 13 21  1  0  0  0
 14 15  1  0  0  0
 14 20  2  0  0  0
 15 16  2  0  0  0
 16 17  1  0  0  0
 16 18  1  0  0  0
 18 19  2  0  0  0
 19 20  1  0  0  0
  6  7  1  0  0  0
M  END
> <minimizedAffinity>
-6.98655

$$$$
