CHEMBL3946852


 32 35  0  0  0  0  0  0  0  0999 V2000
  -27.3836   -1.6343   -9.5757 C   0  0  0  0  0  0  0  0  0  0  0  0
  -28.1851   -1.9912  -10.5898 N   0  0  0  0  0  0  0  0  0  0  0  0
  -27.6211   -2.0533  -11.8155 C   0  0  0  0  0  0  0  0  0  0  0  0
  -26.2948   -1.7752  -12.0695 C   0  0  0  0  0  0  0  0  0  0  0  0
  -25.5450   -1.4343  -10.9572 C   0  0  0  0  0  0  0  0  0  0  0  0
  -26.0787   -1.3530   -9.7244 N   0  0  0  0  0  0  0  0  0  0  0  0
  -24.0780   -1.1024  -11.0762 C   0  0  0  0  0  0  0  0  0  0  0  0
  -23.5046   -1.7225  -12.3434 C   0  0  0  0  0  0  0  0  0  0  0  0
  -24.3440   -1.3442  -13.4831 N   0  0  0  0  0  0  0  0  0  0  0  0
  -24.0115   -0.4430  -14.4995 C   0  0  0  0  0  0  0  0  0  0  0  0
  -24.7421   -0.2844  -15.4770 O   0  0  0  0  0  0  0  0  0  0  0  0
  -25.6915   -1.9015  -13.4390 C   0  0  0  0  0  0  0  0  0  0  0  0
  -22.7398    0.3512  -14.4362 C   0  0  0  0  0  0  0  0  0  0  0  0
  -22.7749    1.6333  -13.8955 C   0  0  0  0  0  0  0  0  0  0  0  0
  -21.5955    2.3730  -13.8700 C   0  0  0  0  0  0  0  0  0  0  0  0
  -20.4241    1.8102  -14.3624 C   0  0  0  0  0  0  0  0  0  0  0  0
  -20.4716    0.5150  -14.8476 C   0  0  0  0  0  0  0  0  0  0  0  0
  -21.5962   -0.2312  -14.8849 N   0  0  0  0  0  0  0  0  0  0  0  0
  -27.9532   -1.5633   -8.2982 N   0  0  0  0  0  0  0  0  0  0  0  0
  -27.5046   -0.7987   -7.8092 H   0  0  0  0  0  0  0  0  0  0  0  0
  -28.9856   -4.9917   -7.2035 C   0  0  0  0  0  0  0  0  0  0  0  0
  -28.7081   -3.8829   -8.0143 C   0  0  0  0  0  0  0  0  0  0  0  0
  -28.2290   -2.6789   -7.4807 C   0  0  0  0  0  0  0  0  0  0  0  0
  -27.9606   -2.6102   -6.1136 C   0  0  0  0  0  0  0  0  0  0  0  0
  -28.2637   -3.6908   -5.2766 C   0  0  0  0  0  0  0  0  0  0  0  0
  -28.7557   -4.8979   -5.8188 C   0  0  0  0  0  0  0  0  0  0  0  0
  -28.6784   -7.1917   -8.0759 C   0  0  0  0  0  0  0  0  0  0  0  0
  -29.5552   -6.1371   -7.6984 O   0  0  0  0  0  0  0  0  0  0  0  0
  -28.0584   -3.6543   -3.9160 O   0  0  0  0  0  0  0  0  0  0  0  0
  -28.9662   -2.8359   -3.1856 C   0  0  0  0  0  0  0  0  0  0  0  0
  -29.0374   -5.8809   -4.8972 O   0  0  0  0  0  0  0  0  0  0  0  0
  -30.4015   -6.0428   -4.5311 C   0  0  0  0  0  0  0  0  0  0  0  0
 27 28  1  0  0  0
 28 21  1  0  0  0
 21 22  1  0  0  0
 21 26  2  0  0  0
 22 23  2  0  0  0
 23 19  1  0  0  0
 23 24  1  0  0  0
 19  1  1  0  0  0
 19 20  1  0  0  0
  1  2  1  0  0  0
  1  6  2  0  0  0
  2  3  2  0  0  0
  3  4  1  0  0  0
  4  5  2  0  0  0
  4 12  1  0  0  0
  5  6  1  0  0  0
  5  7  1  0  0  0
  7  8  1  0  0  0
  8  9  1  0  0  0
  9 10  1  0  0  0
  9 12  1  0  0  0
 10 11  2  0  0  0
 10 13  1  0  0  0
 13 14  1  0  0  0
 13 18  2  0  0  0
 14 15  2  0  0  0
 15 16  1  0  0  0
 16 17  2  0  0  0
 17 18  1  0  0  0
 24 25  2  0  0  0
 25 29  1  0  0  0
 25 26  1  0  0  0
 29 30  1  0  0  0
 26 31  1  0  0  0
 31 32  1  0  0  0
M  END
> <minimizedAffinity>
-8.33493

$$$$
