CHEMBL3975323


 48 51  0  0  0  0  0  0  0  0999 V2000
  -28.8102   -7.7514   -4.3833 C   0  0  0  0  0  0  0  0  0  0  0  0
  -30.1285   -7.5675   -4.0187 C   0  0  0  0  0  0  0  0  0  0  0  0
  -30.4559   -6.2014   -3.8145 C   0  0  0  0  0  0  0  0  0  0  0  0
  -31.6551   -5.7381   -3.3729 N   0  0  0  0  0  0  0  0  0  0  0  0
  -31.7277   -4.4100   -3.1633 C   0  0  0  0  0  0  0  0  0  0  0  0
  -30.7086   -3.5091   -3.3963 C   0  0  0  0  0  0  0  0  0  0  0  0
  -29.5192   -3.9793   -3.9381 C   0  0  0  0  0  0  0  0  0  0  0  0
  -29.3831   -5.3629   -4.1013 C   0  0  0  0  0  0  0  0  0  0  0  0
  -28.0183   -6.2582   -4.6239 S   0  0  0  0  0  0  0  0  0  0  0  0
  -28.5815   -9.8234   -5.5601 N   0  0  0  0  0  0  0  0  0  0  0  0
  -28.1219   -9.0188   -4.5349 C   0  0  0  0  0  0  0  0  0  0  0  0
  -27.1757   -9.3475   -3.8268 O   0  0  0  0  0  0  0  0  0  0  0  0
  -29.4831   -9.5960   -5.9644 H   0  0  0  0  0  0  0  0  0  0  0  0
  -28.0197  -11.1309   -5.7737 C   0  0  0  0  0  0  0  0  0  0  0  0
  -28.7678  -11.9333   -6.8541 C   0  0  0  0  0  0  0  0  0  0  0  0
  -29.1234  -11.1848   -8.0826 N   0  0  0  0  0  0  0  0  0  0  0  0
  -30.5879  -11.1694   -8.3276 C   0  0  0  0  0  0  0  0  0  0  0  0
  -31.1886   -9.7720   -8.2151 C   0  0  0  0  0  0  0  0  0  0  0  0
  -32.3583   -9.5046   -8.4588 O   0  0  0  0  0  0  0  0  0  0  0  0
  -30.6983   -7.5416   -7.6109 C   0  0  0  0  0  0  0  0  0  0  0  0
  -30.2439   -8.8792   -7.8100 O   0  0  0  0  0  0  0  0  0  0  0  0
  -28.3973  -11.7633   -9.2449 C   0  0  0  0  0  0  0  0  0  0  0  0
  -27.9354  -10.7141  -10.2401 C   0  0  0  0  0  0  0  0  0  0  0  0
  -28.6822  -10.1524  -11.0404 O   0  0  0  0  0  0  0  0  0  0  0  0
  -26.6029  -10.4682  -10.1200 O   0  0  0  0  0  0  0  0  0  0  0  0
  -25.9640  -11.2763   -9.1326 C   0  0  0  0  0  0  0  0  0  0  0  0
  -28.4439   -3.1730   -4.2208 O   0  0  0  0  0  0  0  0  0  0  0  0
  -28.3344   -2.6121   -5.4679 C   0  0  0  0  0  0  0  0  0  0  0  0
  -28.5886   -3.4870   -6.5195 C   0  0  0  0  0  0  0  0  0  0  0  0
  -28.5000   -3.0403   -7.8349 C   0  0  0  0  0  0  0  0  0  0  0  0
  -28.1798   -1.7066   -8.1147 C   0  0  0  0  0  0  0  0  0  0  0  0
  -27.9257   -0.8427   -7.0503 C   0  0  0  0  0  0  0  0  0  0  0  0
  -27.5979    0.4362   -7.2929 F   0  0  0  0  0  0  0  0  0  0  0  0
  -28.0354   -1.2738   -5.7320 C   0  0  0  0  0  0  0  0  0  0  0  0
  -28.1173   -1.2057   -9.4359 N   0  0  0  0  0  0  0  0  0  0  0  0
  -27.0859   -1.5137  -10.2928 C   0  0  0  0  0  0  0  0  0  0  0  0
  -26.1929   -2.3154  -10.0263 O   0  0  0  0  0  0  0  0  0  0  0  0
  -27.1442   -0.8050  -11.4832 N   0  0  0  0  0  0  0  0  0  0  0  0
  -29.0000   -0.9459   -9.8658 H   0  0  0  0  0  0  0  0  0  0  0  0
  -27.4367    0.1578  -11.3618 H   0  0  0  0  0  0  0  0  0  0  0  0
  -26.0731   -0.9938  -12.3957 C   0  0  0  0  0  0  0  0  0  0  0  0
  -24.8094   -0.4493  -12.1361 C   0  0  0  0  0  0  0  0  0  0  0  0
  -23.8291   -0.4179  -13.1332 C   0  0  0  0  0  0  0  0  0  0  0  0
  -22.5159    0.2624  -12.8798 C   0  0  0  0  0  0  0  0  0  0  0  0
  -24.1243   -0.9571  -14.3921 C   0  0  0  0  0  0  0  0  0  0  0  0
  -25.3622   -1.5622  -14.6319 C   0  0  0  0  0  0  0  0  0  0  0  0
  -26.3215   -1.5966  -13.6253 C   0  0  0  0  0  0  0  0  0  0  0  0
  -27.5313   -2.1176  -13.8825 F   0  0  0  0  0  0  0  0  0  0  0  0
 20 21  1  0  0  0
 21 18  1  0  0  0
 18 19  2  0  0  0
 18 17  1  0  0  0
 17 16  1  0  0  0
 16 15  1  0  0  0
 16 22  1  0  0  0
 15 14  1  0  0  0
 14 10  1  0  0  0
 10 11  1  0  0  0
 10 13  1  0  0  0
 11 12  2  0  0  0
 11  1  1  0  0  0
  1  2  2  0  0  0
  1  9  1  0  0  0
  2  3  1  0  0  0
  3  4  1  0  0  0
  3  8  2  0  0  0
  4  5  2  0  0  0
  5  6  1  0  0  0
  6  7  2  0  0  0
  7 27  1  0  0  0
  7  8  1  0  0  0
 27 28  1  0  0  0
 28 29  1  0  0  0
 28 34  2  0  0  0
 29 30  2  0  0  0
 30 31  1  0  0  0
 31 35  1  0  0  0
 31 32  2  0  0  0
 35 36  1  0  0  0
 35 39  1  0  0  0
 36 37  2  0  0  0
 36 38  1  0  0  0
 38 41  1  0  0  0
 38 40  1  0  0  0
 41 42  1  0  0  0
 41 47  2  0  0  0
 42 43  2  0  0  0
 43 44  1  0  0  0
 43 45  1  0  0  0
 45 46  2  0  0  0
 46 47  1  0  0  0
 47 48  1  0  0  0
 32 33  1  0  0  0
 32 34  1  0  0  0
  8  9  1  0  0  0
 22 23  1  0  0  0
 23 24  2  0  0  0
 23 25  1  0  0  0
 25 26  1  0  0  0
M  END
> <minimizedAffinity>
-9.35409

$$$$
