CHEMBL3612231


 29 32  0  0  0  0  0  0  0  0999 V2000
  -20.1966    1.2566  -14.9489 C   0  0  0  0  0  0  0  0  0  0  0  0
  -20.4762    2.6266  -14.9348 C   0  0  0  0  0  0  0  0  0  0  0  0
  -19.4698    3.5648  -15.1670 C   0  0  0  0  0  0  0  0  0  0  0  0
  -18.1638    3.1451  -15.3953 C   0  0  0  0  0  0  0  0  0  0  0  0
  -17.8566    1.7838  -15.3729 C   0  0  0  0  0  0  0  0  0  0  0  0
  -18.8755    0.8449  -15.1687 C   0  0  0  0  0  0  0  0  0  0  0  0
  -22.8243    1.4706  -13.6736 O   0  0  0  0  0  0  0  0  0  0  0  0
  -22.3847    0.4030  -14.0816 C   0  0  0  0  0  0  0  0  0  0  0  0
  -23.0176   -0.8210  -13.9067 N   0  0  0  0  0  0  0  0  0  0  0  0
  -21.1711    0.2527  -14.7370 N   0  0  0  0  0  0  0  0  0  0  0  0
  -22.4815   -1.6434  -14.1317 H   0  0  0  0  0  0  0  0  0  0  0  0
  -20.9832   -0.6477  -15.1507 H   0  0  0  0  0  0  0  0  0  0  0  0
  -24.2220   -1.0359  -13.1950 C   0  0  0  0  0  0  0  0  0  0  0  0
  -24.3285   -0.9415  -11.8017 C   0  0  0  0  0  0  0  0  0  0  0  0
  -25.5259   -1.2510  -11.1485 C   0  0  0  0  0  0  0  0  0  0  0  0
  -26.6366   -1.6435  -11.8860 C   0  0  0  0  0  0  0  0  0  0  0  0
  -26.5445   -1.6987  -13.2706 C   0  0  0  0  0  0  0  0  0  0  0  0
  -27.6137   -2.0743  -13.9852 F   0  0  0  0  0  0  0  0  0  0  0  0
  -25.3572   -1.3889  -13.9314 C   0  0  0  0  0  0  0  0  0  0  0  0
  -16.1762    1.2485  -15.6396 S   0  0  0  0  0  0  0  0  0  0  0  0
  -15.3901    2.7748  -16.1106 C   0  0  0  0  0  0  0  0  0  0  0  0
  -15.8748    3.5488  -17.1661 C   0  0  0  0  0  0  0  0  0  0  0  0
  -15.1966    4.6963  -17.5268 C   0  0  0  0  0  0  0  0  0  0  0  0
  -14.0757    5.1485  -16.9411 N   0  0  0  0  0  0  0  0  0  0  0  0
  -13.5971    4.3955  -15.9150 C   0  0  0  0  0  0  0  0  0  0  0  0
  -12.4163    4.7021  -15.1777 C   0  0  0  0  0  0  0  0  0  0  0  0
  -12.1550    3.7791  -14.1940 C   0  0  0  0  0  0  0  0  0  0  0  0
  -13.3271    2.5396  -14.1551 S   0  0  0  0  0  0  0  0  0  0  0  0
  -14.2146    3.2203  -15.4733 C   0  0  0  0  0  0  0  0  0  0  0  0
  7  8  2  0  0  0
  8  9  1  0  0  0
  8 10  1  0  0  0
  9 13  1  0  0  0
  9 11  1  0  0  0
 13 14  1  0  0  0
 13 19  2  0  0  0
 14 15  2  0  0  0
 15 16  1  0  0  0
 16 17  2  0  0  0
 17 18  1  0  0  0
 17 19  1  0  0  0
 10  1  1  0  0  0
 10 12  1  0  0  0
  1  2  1  0  0  0
  1  6  2  0  0  0
  2  3  2  0  0  0
  3  4  1  0  0  0
  4  5  2  0  0  0
  5 20  1  0  0  0
  5  6  1  0  0  0
 20 21  1  0  0  0
 21 22  1  0  0  0
 21 29  2  0  0  0
 22 23  2  0  0  0
 23 24  1  0  0  0
 24 25  2  0  0  0
 25 26  1  0  0  0
 25 29  1  0  0  0
 26 27  2  0  0  0
 27 28  1  0  0  0
 28 29  1  0  0  0
M  END
> <minimizedAffinity>
-9.88465

$$$$
