CHEMBL3656127


 38 42  0  0  0  0  0  0  0  0999 V2000
  -12.1746   -0.7082  -13.8837 C   0  0  0  0  0  0  0  0  0  0  0  0
  -12.9909    0.3558  -13.4843 C   0  0  0  0  0  0  0  0  0  0  0  0
  -13.9678    0.8636  -14.3412 C   0  0  0  0  0  0  0  0  0  0  0  0
  -14.0995    0.3491  -15.6315 C   0  0  0  0  0  0  0  0  0  0  0  0
  -13.2910   -0.7206  -16.0300 C   0  0  0  0  0  0  0  0  0  0  0  0
  -12.3111   -1.2347  -15.1687 C   0  0  0  0  0  0  0  0  0  0  0  0
  -10.8159   -2.6913  -11.1680 N   0  0  0  0  0  0  0  0  0  0  0  0
  -11.7667   -2.2553  -12.0709 C   0  0  0  0  0  0  0  0  0  0  0  0
  -12.9077   -2.6778  -12.1629 O   0  0  0  0  0  0  0  0  0  0  0  0
  -11.2681   -1.2977  -12.9624 N   0  0  0  0  0  0  0  0  0  0  0  0
   -9.8681   -2.3873  -11.3126 H   0  0  0  0  0  0  0  0  0  0  0  0
  -10.3506   -1.5112  -13.3204 H   0  0  0  0  0  0  0  0  0  0  0  0
  -11.5223   -3.7130   -6.3646 C   0  0  0  0  0  0  0  0  0  0  0  0
  -11.3598   -4.1779   -7.7836 C   0  0  0  0  0  0  0  0  0  0  0  0
  -11.3615   -5.5471   -8.0641 C   0  0  0  0  0  0  0  0  0  0  0  0
  -11.2491   -5.9861   -9.3760 C   0  0  0  0  0  0  0  0  0  0  0  0
  -11.1159   -5.0643  -10.4127 C   0  0  0  0  0  0  0  0  0  0  0  0
  -11.1617   -5.5734  -11.6504 F   0  0  0  0  0  0  0  0  0  0  0  0
  -11.0417   -3.6841  -10.1686 C   0  0  0  0  0  0  0  0  0  0  0  0
  -11.2001   -3.2522   -8.8381 C   0  0  0  0  0  0  0  0  0  0  0  0
  -15.0323    0.7868  -16.5476 O   0  0  0  0  0  0  0  0  0  0  0  0
  -15.8841    1.8151  -16.2112 C   0  0  0  0  0  0  0  0  0  0  0  0
  -15.5567    3.1637  -16.2939 C   0  0  0  0  0  0  0  0  0  0  0  0
  -16.5006    4.0900  -15.8884 C   0  0  0  0  0  0  0  0  0  0  0  0
  -17.7419    3.7670  -15.4582 N   0  0  0  0  0  0  0  0  0  0  0  0
  -18.0558    2.4503  -15.4467 C   0  0  0  0  0  0  0  0  0  0  0  0
  -17.1678    1.4504  -15.8188 C   0  0  0  0  0  0  0  0  0  0  0  0
  -19.4096    2.1457  -14.9955 C   0  0  0  0  0  0  0  0  0  0  0  0
  -20.0353    0.9384  -14.7479 C   0  0  0  0  0  0  0  0  0  0  0  0
  -21.3669    1.1852  -14.3122 C   0  0  0  0  0  0  0  0  0  0  0  0
  -21.5146    2.5642  -14.3057 C   0  0  0  0  0  0  0  0  0  0  0  0
  -20.3331    3.1255  -14.7160 N   0  0  0  0  0  0  0  0  0  0  0  0
  -20.1378    4.1172  -14.7997 H   0  0  0  0  0  0  0  0  0  0  0  0
  -22.3384    0.1700  -13.9196 C   0  0  0  0  0  0  0  0  0  0  0  0
  -22.1557   -1.0242  -14.1382 O   0  0  0  0  0  0  0  0  0  0  0  0
  -23.4489    0.6888  -13.2596 N   0  0  0  0  0  0  0  0  0  0  0  0
  -24.5362   -0.1496  -12.8627 C   0  0  0  0  0  0  0  0  0  0  0  0
  -23.6393    0.5047  -11.8599 C   0  0  0  0  0  0  0  0  0  0  0  0
 13 14  1  0  0  0
 14 15  1  0  0  0
 14 20  2  0  0  0
 15 16  2  0  0  0
 16 17  1  0  0  0
 17 18  1  0  0  0
 17 19  2  0  0  0
 19  7  1  0  0  0
 19 20  1  0  0  0
  7  8  1  0  0  0
  7 11  1  0  0  0
  8  9  2  0  0  0
  8 10  1  0  0  0
 10  1  1  0  0  0
 10 12  1  0  0  0
  1  2  1  0  0  0
  1  6  2  0  0  0
  2  3  2  0  0  0
  3  4  1  0  0  0
  4 21  1  0  0  0
  4  5  2  0  0  0
 21 22  1  0  0  0
 22 23  1  0  0  0
 22 27  2  0  0  0
 23 24  2  0  0  0
 24 25  1  0  0  0
 25 26  2  0  0  0
 26 28  1  0  0  0
 26 27  1  0  0  0
 28 29  2  0  0  0
 28 32  1  0  0  0
 29 30  1  0  0  0
 30 34  1  0  0  0
 30 31  2  0  0  0
 34 35  2  0  0  0
 34 36  1  0  0  0
 36 37  1  0  0  0
 36 38  1  0  0  0
 37 38  1  0  0  0
 31 32  1  0  0  0
 32 33  1  0  0  0
  5  6  1  0  0  0
M  END
> <minimizedAffinity>
-8.31508

$$$$
