CHEMBL381577


 31 34  0  0  0  0  0  0  0  0999 V2000
  -28.0016   -2.0680   -9.5131 C   0  0  0  0  0  0  0  0  0  0  0  0
  -27.0002   -1.5848   -8.8091 N   0  0  0  0  0  0  0  0  0  0  0  0
  -27.2486   -1.8983   -7.4858 N   0  0  0  0  0  0  0  0  0  0  0  0
  -28.3674   -2.5916   -7.4649 C   0  0  0  0  0  0  0  0  0  0  0  0
  -28.9031   -2.7303   -8.7262 O   0  0  0  0  0  0  0  0  0  0  0  0
  -29.1018   -3.2332   -6.3653 C   0  0  0  0  0  0  0  0  0  0  0  0
  -29.4511   -2.4351   -5.2576 C   0  0  0  0  0  0  0  0  0  0  0  0
  -30.1334   -2.9889   -4.1912 C   0  0  0  0  0  0  0  0  0  0  0  0
  -30.4799   -4.2809   -4.1362 N   0  0  0  0  0  0  0  0  0  0  0  0
  -30.1422   -5.0450   -5.1970 C   0  0  0  0  0  0  0  0  0  0  0  0
  -29.4833   -4.5968   -6.3492 C   0  0  0  0  0  0  0  0  0  0  0  0
  -29.1489   -5.5960   -7.4487 C   0  0  0  0  0  0  0  0  0  0  0  0
  -29.0350   -7.0670   -6.9957 C   0  0  0  0  0  0  0  0  0  0  0  0
  -30.1833   -7.9287   -7.4574 C   0  0  0  0  0  0  0  0  0  0  0  0
  -29.9702   -8.9675   -8.3688 C   0  0  0  0  0  0  0  0  0  0  0  0
  -31.0478   -9.7527   -8.7488 C   0  0  0  0  0  0  0  0  0  0  0  0
  -32.3051   -9.5726   -8.2924 N   0  0  0  0  0  0  0  0  0  0  0  0
  -32.4905   -8.5613   -7.4178 C   0  0  0  0  0  0  0  0  0  0  0  0
  -31.4774   -7.7224   -6.9765 C   0  0  0  0  0  0  0  0  0  0  0  0
  -28.1650   -2.0456  -10.8523 N   0  0  0  0  0  0  0  0  0  0  0  0
  -29.0294   -2.4688  -11.1731 H   0  0  0  0  0  0  0  0  0  0  0  0
  -24.8662   -1.4416  -12.4818 C   0  0  0  0  0  0  0  0  0  0  0  0
  -25.2063   -1.5162  -13.8362 C   0  0  0  0  0  0  0  0  0  0  0  0
  -26.5225   -1.7712  -14.2129 C   0  0  0  0  0  0  0  0  0  0  0  0
  -27.5135   -1.9473  -13.2412 C   0  0  0  0  0  0  0  0  0  0  0  0
  -27.2192   -1.8530  -11.8769 C   0  0  0  0  0  0  0  0  0  0  0  0
  -25.8802   -1.6153  -11.5168 C   0  0  0  0  0  0  0  0  0  0  0  0
  -23.2307    0.0920  -11.6116 F   0  0  0  0  0  0  0  0  0  0  0  0
  -23.4441   -1.1811  -12.0512 C   0  0  0  0  0  0  0  0  0  0  0  0
  -22.5490   -1.3806  -13.0578 F   0  0  0  0  0  0  0  0  0  0  0  0
  -23.0500   -1.9961  -11.0339 F   0  0  0  0  0  0  0  0  0  0  0  0
 28 29  1  0  0  0
 29 30  1  0  0  0
 29 31  1  0  0  0
 29 22  1  0  0  0
 22 23  1  0  0  0
 22 27  2  0  0  0
 23 24  2  0  0  0
 24 25  1  0  0  0
 25 26  2  0  0  0
 26 20  1  0  0  0
 26 27  1  0  0  0
 20  1  1  0  0  0
 20 21  1  0  0  0
  1  2  2  0  0  0
  1  5  1  0  0  0
  2  3  1  0  0  0
  3  4  2  0  0  0
  4  6  1  0  0  0
  4  5  1  0  0  0
  6  7  1  0  0  0
  6 11  2  0  0  0
  7  8  2  0  0  0
  8  9  1  0  0  0
  9 10  2  0  0  0
 10 11  1  0  0  0
 11 12  1  0  0  0
 12 13  1  0  0  0
 13 14  1  0  0  0
 14 15  1  0  0  0
 14 19  2  0  0  0
 15 16  2  0  0  0
 16 17  1  0  0  0
 17 18  2  0  0  0
 18 19  1  0  0  0
M  END
> <minimizedAffinity>
-10.52831

$$$$
