CHEMBL3690462


 35 38  0  0  0  0  0  0  0  0999 V2000
  -30.4789   -7.7842   -7.0275 C   0  0  0  0  0  0  0  0  0  0  0  0
  -29.4223   -6.9032   -7.5453 C   0  0  0  0  0  0  0  0  0  0  0  0
  -29.1483   -5.7408   -6.9374 C   0  0  0  0  0  0  0  0  0  0  0  0
  -29.8994   -5.3491   -5.8316 N   0  0  0  0  0  0  0  0  0  0  0  0
  -29.8638   -4.1859   -5.0753 C   0  0  0  0  0  0  0  0  0  0  0  0
  -30.7602   -4.4347   -4.0452 C   0  0  0  0  0  0  0  0  0  0  0  0
  -31.3937   -5.6394   -4.1869 N   0  0  0  0  0  0  0  0  0  0  0  0
  -30.8906   -6.1596   -5.2834 C   0  0  0  0  0  0  0  0  0  0  0  0
  -31.1833   -7.3932   -5.9370 C   0  0  0  0  0  0  0  0  0  0  0  0
  -29.9089  -10.7332   -9.0819 C   0  0  0  0  0  0  0  0  0  0  0  0
  -30.9133  -11.6221   -8.7411 C   0  0  0  0  0  0  0  0  0  0  0  0
  -31.8904  -11.1940   -7.8510 C   0  0  0  0  0  0  0  0  0  0  0  0
  -31.8114   -9.9153   -7.3113 C   0  0  0  0  0  0  0  0  0  0  0  0
  -30.7458   -9.0954   -7.6783 C   0  0  0  0  0  0  0  0  0  0  0  0
  -29.8004   -9.4918   -8.5721 N   0  0  0  0  0  0  0  0  0  0  0  0
  -28.9231  -11.2054   -9.9280 O   0  0  0  0  0  0  0  0  0  0  0  0
  -28.9065  -10.2073  -12.0967 C   0  0  0  0  0  0  0  0  0  0  0  0
  -28.3173  -10.1649  -10.6977 C   0  0  0  0  0  0  0  0  0  0  0  0
  -29.0553   -2.9890   -5.3349 C   0  0  0  0  0  0  0  0  0  0  0  0
  -28.5682   -2.2438   -4.2548 C   0  0  0  0  0  0  0  0  0  0  0  0
  -27.8637   -1.0635   -4.4721 C   0  0  0  0  0  0  0  0  0  0  0  0
  -27.6002   -0.6332   -5.7717 C   0  0  0  0  0  0  0  0  0  0  0  0
  -28.0342   -1.3727   -6.8709 C   0  0  0  0  0  0  0  0  0  0  0  0
  -28.7977   -2.5263   -6.6405 C   0  0  0  0  0  0  0  0  0  0  0  0
  -27.7446   -1.0188   -8.2112 N   0  0  0  0  0  0  0  0  0  0  0  0
  -27.3356   -1.8736   -9.2103 C   0  0  0  0  0  0  0  0  0  0  0  0
  -27.1583   -3.0809   -9.1212 O   0  0  0  0  0  0  0  0  0  0  0  0
  -27.0668   -1.2130  -10.3876 N   0  0  0  0  0  0  0  0  0  0  0  0
  -27.8423   -0.0456   -8.4587 H   0  0  0  0  0  0  0  0  0  0  0  0
  -27.6405   -0.4113  -10.5989 H   0  0  0  0  0  0  0  0  0  0  0  0
  -26.6003   -2.0157  -11.5281 C   0  0  0  0  0  0  0  0  0  0  0  0
  -25.3908   -1.4629  -12.2972 C   0  0  0  0  0  0  0  0  0  0  0  0
  -24.2419   -2.0919  -11.9579 F   0  0  0  0  0  0  0  0  0  0  0  0
  -25.5651   -1.6629  -13.6287 F   0  0  0  0  0  0  0  0  0  0  0  0
  -25.2197   -0.1382  -12.1117 F   0  0  0  0  0  0  0  0  0  0  0  0
 17 18  1  0  0  0
 18 16  1  0  0  0
 16 10  1  0  0  0
 10 11  1  0  0  0
 10 15  2  0  0  0
 11 12  2  0  0  0
 12 13  1  0  0  0
 13 14  2  0  0  0
 14  1  1  0  0  0
 14 15  1  0  0  0
  1  2  1  0  0  0
  1  9  2  0  0  0
  2  3  2  0  0  0
  3  4  1  0  0  0
  4  5  1  0  0  0
  4  8  1  0  0  0
  5 19  1  0  0  0
  5  6  2  0  0  0
 19 20  1  0  0  0
 19 24  2  0  0  0
 20 21  2  0  0  0
 21 22  1  0  0  0
 22 23  2  0  0  0
 23 25  1  0  0  0
 23 24  1  0  0  0
 25 26  1  0  0  0
 25 29  1  0  0  0
 26 27  2  0  0  0
 26 28  1  0  0  0
 28 31  1  0  0  0
 28 30  1  0  0  0
 31 32  1  0  0  0
 32 33  1  0  0  0
 32 34  1  0  0  0
 32 35  1  0  0  0
  6  7  1  0  0  0
  7  8  2  0  0  0
  8  9  1  0  0  0
M  END
> <minimizedAffinity>
-9.59099

$$$$
