CHEMBL1969523


 31 33  0  0  0  0  0  0  0  0999 V2000
  -16.6981    0.9940  -13.5203 N   0  0  0  0  0  0  0  0  0  0  0  0
  -16.5135    1.6960  -12.8000 H   0  0  0  0  0  0  0  0  0  0  0  0
  -19.8691    1.4405  -15.0824 C   0  0  0  0  0  0  0  0  0  0  0  0
  -19.8591    2.6797  -15.5883 N   0  0  0  0  0  0  0  0  0  0  0  0
  -18.7345    3.3929  -15.4029 C   0  0  0  0  0  0  0  0  0  0  0  0
  -17.6330    2.9176  -14.7344 C   0  0  0  0  0  0  0  0  0  0  0  0
  -17.7301    1.6303  -14.2549 C   0  0  0  0  0  0  0  0  0  0  0  0
  -18.8261    0.8895  -14.4311 N   0  0  0  0  0  0  0  0  0  0  0  0
  -21.0521    0.7082  -15.2314 N   0  0  0  0  0  0  0  0  0  0  0  0
  -21.4396    0.9525  -16.1350 H   0  0  0  0  0  0  0  0  0  0  0  0
  -23.4472   -2.3001  -12.1391 C   0  0  0  0  0  0  0  0  0  0  0  0
  -23.2505   -0.9342  -12.7235 C   0  0  0  0  0  0  0  0  0  0  0  0
  -23.9982    0.1568  -12.2655 C   0  0  0  0  0  0  0  0  0  0  0  0
  -23.7969    1.4245  -12.8059 C   0  0  0  0  0  0  0  0  0  0  0  0
  -22.8275    1.6156  -13.7894 C   0  0  0  0  0  0  0  0  0  0  0  0
  -22.0379    0.5479  -14.2368 C   0  0  0  0  0  0  0  0  0  0  0  0
  -22.2926   -0.7320  -13.7288 C   0  0  0  0  0  0  0  0  0  0  0  0
  -15.6876    0.3757  -14.0893 C   0  0  0  0  0  0  0  0  0  0  0  0
  -14.9106   -0.7379  -13.8934 C   0  0  0  0  0  0  0  0  0  0  0  0
  -14.0362   -0.3936  -15.0419 C   0  0  0  0  0  0  0  0  0  0  0  0
  -13.0777   -0.8499  -15.6125 O   0  0  0  0  0  0  0  0  0  0  0  0
  -14.8766    0.8043  -15.2571 C   0  0  0  0  0  0  0  0  0  0  0  0
  -14.8152    1.7122  -16.0498 O   0  0  0  0  0  0  0  0  0  0  0  0
  -14.7641   -1.7590  -13.0637 N   0  0  0  0  0  0  0  0  0  0  0  0
  -13.8073   -1.9595  -12.7737 H   0  0  0  0  0  0  0  0  0  0  0  0
  -15.5461   -3.0140  -13.1457 C   0  0  0  0  0  0  0  0  0  0  0  0
  -14.9240   -3.9188  -14.2226 C   0  0  0  0  0  0  0  0  0  0  0  0
  -15.6108   -3.7037  -11.7271 C   0  0  0  0  0  0  0  0  0  0  0  0
  -16.6650   -4.8296  -11.7457 C   0  0  0  0  0  0  0  0  0  0  0  0
  -14.2541   -4.3491  -11.3677 C   0  0  0  0  0  0  0  0  0  0  0  0
  -15.9662   -2.7178  -10.5902 C   0  0  0  0  0  0  0  0  0  0  0  0
 11 12  1  0  0  0
 12 13  1  0  0  0
 12 17  2  0  0  0
 13 14  2  0  0  0
 14 15  1  0  0  0
 15 16  2  0  0  0
 16  9  1  0  0  0
 16 17  1  0  0  0
  9  3  1  0  0  0
  9 10  1  0  0  0
  3  4  1  0  0  0
  3  8  2  0  0  0
  4  5  2  0  0  0
  5  6  1  0  0  0
  6  7  2  0  0  0
  7  1  1  0  0  0
  7  8  1  0  0  0
  1 18  1  0  0  0
  1  2  1  0  0  0
 18 19  2  0  0  0
 18 22  1  0  0  0
 19 24  1  0  0  0
 19 20  1  0  0  0
 24 26  1  0  0  0
 24 25  1  0  0  0
 26 27  1  0  0  0
 26 28  1  0  0  0
 28 29  1  0  0  0
 28 30  1  0  0  0
 28 31  1  0  0  0
 20 21  2  0  0  0
 20 22  1  0  0  0
 22 23  2  0  0  0
M  END
> <minimizedAffinity>
-8.10713

$$$$
