CHEMBL3980939


 37 40  0  0  0  0  0  0  0  0999 V2000
  -27.3024   11.7021  -15.4925 C   0  0  0  0  0  0  0  0  0  0  0  0
  -27.2293   12.6400  -14.4580 C   0  0  0  0  0  0  0  0  0  0  0  0
  -27.9528   12.4545  -13.2767 C   0  0  0  0  0  0  0  0  0  0  0  0
  -28.8202   11.3653  -13.1385 C   0  0  0  0  0  0  0  0  0  0  0  0
  -28.9173   10.4373  -14.1817 C   0  0  0  0  0  0  0  0  0  0  0  0
  -28.1748   10.6208  -15.3532 C   0  0  0  0  0  0  0  0  0  0  0  0
  -28.2470    9.6988  -16.3266 F   0  0  0  0  0  0  0  0  0  0  0  0
  -24.3644   11.7090  -17.6327 N   0  0  0  0  0  0  0  0  0  0  0  0
  -25.0882   11.5541  -16.4665 C   0  0  0  0  0  0  0  0  0  0  0  0
  -24.5939   11.2414  -15.3840 O   0  0  0  0  0  0  0  0  0  0  0  0
  -26.4466   11.7933  -16.6281 N   0  0  0  0  0  0  0  0  0  0  0  0
  -24.7397   12.3704  -18.2988 H   0  0  0  0  0  0  0  0  0  0  0  0
  -26.8321   11.4340  -17.4935 H   0  0  0  0  0  0  0  0  0  0  0  0
  -20.9049   11.4520  -18.9988 C   0  0  0  0  0  0  0  0  0  0  0  0
  -20.2077   10.9759  -17.8781 C   0  0  0  0  0  0  0  0  0  0  0  0
  -20.8864   10.6860  -16.7029 C   0  0  0  0  0  0  0  0  0  0  0  0
  -22.2638   10.8941  -16.6308 C   0  0  0  0  0  0  0  0  0  0  0  0
  -22.9858   11.4025  -17.7206 C   0  0  0  0  0  0  0  0  0  0  0  0
  -22.3027   11.6325  -18.9215 C   0  0  0  0  0  0  0  0  0  0  0  0
  -21.0158   12.6504  -21.1822 C   0  0  0  0  0  0  0  0  0  0  0  0
  -20.1334   11.8454  -20.2387 C   0  0  0  0  0  0  0  0  0  0  0  0
  -19.6574   10.7657  -20.9232 F   0  0  0  0  0  0  0  0  0  0  0  0
  -19.0349   12.6051  -19.9517 F   0  0  0  0  0  0  0  0  0  0  0  0
  -29.5445   11.1037  -11.9890 O   0  0  0  0  0  0  0  0  0  0  0  0
  -30.8792   11.4660  -11.9219 C   0  0  0  0  0  0  0  0  0  0  0  0
  -31.3596   12.4107  -11.0215 C   0  0  0  0  0  0  0  0  0  0  0  0
  -32.7110   12.6589  -11.0143 C   0  0  0  0  0  0  0  0  0  0  0  0
  -33.5708   12.0855  -11.8720 N   0  0  0  0  0  0  0  0  0  0  0  0
  -33.1115   11.2279  -12.8000 C   0  0  0  0  0  0  0  0  0  0  0  0
  -31.7585   10.8905  -12.8551 C   0  0  0  0  0  0  0  0  0  0  0  0
  -34.0227   10.7000  -13.7425 N   0  0  0  0  0  0  0  0  0  0  0  0
  -34.4350    9.3778  -13.7269 C   0  0  0  0  0  0  0  0  0  0  0  0
  -34.0017    8.4823  -13.0121 O   0  0  0  0  0  0  0  0  0  0  0  0
  -34.4222   11.3261  -14.4215 H   0  0  0  0  0  0  0  0  0  0  0  0
  -35.5144    8.9618  -14.6702 C   0  0  0  0  0  0  0  0  0  0  0  0
  -35.7631    7.6243  -15.3059 C   0  0  0  0  0  0  0  0  0  0  0  0
  -35.1441    8.7245  -16.1162 C   0  0  0  0  0  0  0  0  0  0  0  0
 20 21  1  0  0  0
 21 22  1  0  0  0
 21 23  1  0  0  0
 21 14  1  0  0  0
 14 15  1  0  0  0
 14 19  2  0  0  0
 15 16  2  0  0  0
 16 17  1  0  0  0
 17 18  2  0  0  0
 18  8  1  0  0  0
 18 19  1  0  0  0
  8  9  1  0  0  0
  8 12  1  0  0  0
  9 10  2  0  0  0
  9 11  1  0  0  0
 11  1  1  0  0  0
 11 13  1  0  0  0
  1  2  1  0  0  0
  1  6  2  0  0  0
  2  3  2  0  0  0
  3  4  1  0  0  0
  4 24  1  0  0  0
  4  5  2  0  0  0
 24 25  1  0  0  0
 25 26  1  0  0  0
 25 30  2  0  0  0
 26 27  2  0  0  0
 27 28  1  0  0  0
 28 29  2  0  0  0
 29 31  1  0  0  0
 29 30  1  0  0  0
 31 32  1  0  0  0
 31 34  1  0  0  0
 32 33  2  0  0  0
 32 35  1  0  0  0
 35 36  1  0  0  0
 35 37  1  0  0  0
 36 37  1  0  0  0
  5  6  1  0  0  0
  6  7  1  0  0  0
M  END
> <minimizedAffinity>
-6.12569

$$$$
