CHEMBL1940867


 22 24  0  0  0  0  0  0  0  0999 V2000
  -29.6705   -2.5383   -4.0993 C   0  0  0  0  0  0  0  0  0  0  0  0
  -29.2697   -1.3919   -4.9899 C   0  0  0  0  0  0  0  0  0  0  0  0
  -29.4319   -0.0716   -4.5426 C   0  0  0  0  0  0  0  0  0  0  0  0
  -29.0625    0.9954   -5.3565 C   0  0  0  0  0  0  0  0  0  0  0  0
  -28.5206    0.7475   -6.6162 C   0  0  0  0  0  0  0  0  0  0  0  0
  -28.3498   -0.5698   -7.0717 C   0  0  0  0  0  0  0  0  0  0  0  0
  -27.7924   -0.8525   -8.3348 C   0  0  0  0  0  0  0  0  0  0  0  0
  -27.6264   -2.1731   -8.7752 C   0  0  0  0  0  0  0  0  0  0  0  0
  -28.0927   -3.1555   -7.8997 C   0  0  0  0  0  0  0  0  0  0  0  0
  -28.1442   -4.8419   -8.2675 Cl  0  0  0  0  0  0  0  0  0  0  0  0
  -28.6130   -2.9235   -6.6742 N   0  0  0  0  0  0  0  0  0  0  0  0
  -28.7354   -1.6545   -6.2558 C   0  0  0  0  0  0  0  0  0  0  0  0
  -27.0432   -2.3841  -10.1148 C   0  0  0  0  0  0  0  0  0  0  0  0
  -27.0740   -1.4764  -11.1048 C   0  0  0  0  0  0  0  0  0  0  0  0
  -26.4522   -1.7207  -12.4435 C   0  0  0  0  0  0  0  0  0  0  0  0
  -27.1295   -2.1910  -13.3546 O   0  0  0  0  0  0  0  0  0  0  0  0
  -25.0508   -1.3385  -12.5609 C   0  0  0  0  0  0  0  0  0  0  0  0
  -24.0585   -1.3514  -11.5919 C   0  0  0  0  0  0  0  0  0  0  0  0
  -22.8129   -0.8531  -12.0779 C   0  0  0  0  0  0  0  0  0  0  0  0
  -22.9132   -0.4922  -13.3958 C   0  0  0  0  0  0  0  0  0  0  0  0
  -21.6641    0.1847  -14.3631 Cl  0  0  0  0  0  0  0  0  0  0  0  0
  -24.4420   -0.7705  -14.0616 S   0  0  0  0  0  0  0  0  0  0  0  0
  1  2  1  0  0  0
  2  3  1  0  0  0
  2 12  2  0  0  0
  3  4  2  0  0  0
  4  5  1  0  0  0
  5  6  2  0  0  0
  6  7  1  0  0  0
  6 12  1  0  0  0
  7  8  2  0  0  0
  8 13  1  0  0  0
  8  9  1  0  0  0
 13 14  2  0  0  0
 14 15  1  0  0  0
 15 16  2  0  0  0
 15 17  1  0  0  0
 17 18  2  0  0  0
 17 22  1  0  0  0
 18 19  1  0  0  0
 19 20  2  0  0  0
 20 21  1  0  0  0
 20 22  1  0  0  0
  9 10  1  0  0  0
  9 11  2  0  0  0
 11 12  1  0  0  0
M  END
> <minimizedAffinity>
-9.00810

$$$$
