CHEMBL257787


 31 36  0  0  0  0  0  0  0  0999 V2000
  -14.3562   -2.6795  -12.4374 C   0  0  0  0  0  0  0  0  0  0  0  0
  -13.0652   -2.7775  -12.9510 C   0  0  0  0  0  0  0  0  0  0  0  0
  -12.5977   -1.8021  -13.8086 C   0  0  0  0  0  0  0  0  0  0  0  0
  -13.4643   -0.7528  -14.0840 C   0  0  0  0  0  0  0  0  0  0  0  0
  -13.1226    0.4394  -14.6479 N   0  0  0  0  0  0  0  0  0  0  0  0
  -14.2145    1.2311  -14.7703 C   0  0  0  0  0  0  0  0  0  0  0  0
  -14.3546    2.5680  -15.0694 C   0  0  0  0  0  0  0  0  0  0  0  0
  -15.3254    2.7820  -16.0808 C   0  0  0  0  0  0  0  0  0  0  0  0
  -16.5342    2.2130  -15.5911 C   0  0  0  0  0  0  0  0  0  0  0  0
  -16.5234    1.0995  -14.5872 C   0  0  0  0  0  0  0  0  0  0  0  0
  -15.2700    0.4401  -14.4522 C   0  0  0  0  0  0  0  0  0  0  0  0
  -14.8366   -0.6924  -13.7427 C   0  0  0  0  0  0  0  0  0  0  0  0
  -15.2869   -1.6947  -12.8568 C   0  0  0  0  0  0  0  0  0  0  0  0
  -17.6953    1.0342  -13.7521 C   0  0  0  0  0  0  0  0  0  0  0  0
  -18.4580    2.0968  -14.3786 N   0  0  0  0  0  0  0  0  0  0  0  0
  -17.8213    2.8089  -15.4101 C   0  0  0  0  0  0  0  0  0  0  0  0
  -18.3570    3.8162  -15.9063 O   0  0  0  0  0  0  0  0  0  0  0  0
  -14.6259    3.4114  -17.2779 C   0  0  0  0  0  0  0  0  0  0  0  0
  -14.8219    4.0338  -18.5173 C   0  0  0  0  0  0  0  0  0  0  0  0
  -13.5425    4.4160  -18.9979 N   0  0  0  0  0  0  0  0  0  0  0  0
  -13.0515    5.4914  -19.8283 C   0  0  0  0  0  0  0  0  0  0  0  0
  -12.5637    3.7980  -18.3481 N   0  0  0  0  0  0  0  0  0  0  0  0
  -13.1665    3.4731  -17.2348 C   0  0  0  0  0  0  0  0  0  0  0  0
  -12.3359    3.3075  -16.0243 C   0  0  0  0  0  0  0  0  0  0  0  0
  -13.2580    3.5601  -14.8739 C   0  0  0  0  0  0  0  0  0  0  0  0
  -12.1831    0.6877  -14.9171 H   0  0  0  0  0  0  0  0  0  0  0  0
  -19.2770    2.5111  -13.9017 H   0  0  0  0  0  0  0  0  0  0  0  0
  -14.7876   -3.2446  -10.1235 N   0  0  0  0  0  0  0  0  0  0  0  0
  -14.6475   -3.6252  -11.3552 C   0  0  0  0  0  0  0  0  0  0  0  0
  -13.6964   -4.9660   -9.0916 C   0  0  0  0  0  0  0  0  0  0  0  0
  -14.9707   -4.3923   -9.3335 O   0  0  0  0  0  0  0  0  0  0  0  0
 30 31  1  0  0  0
 31 28  1  0  0  0
 28 29  2  0  0  0
 29  1  1  0  0  0
  1  2  1  0  0  0
  1 13  2  0  0  0
  2  3  2  0  0  0
  3  4  1  0  0  0
  4  5  1  0  0  0
  4 12  2  0  0  0
  5  6  1  0  0  0
  5 26  1  0  0  0
  6  7  1  0  0  0
  6 11  2  0  0  0
  7  8  2  0  0  0
  7 25  1  0  0  0
  8  9  1  0  0  0
  8 18  1  0  0  0
  9 10  2  0  0  0
  9 16  1  0  0  0
 10 11  1  0  0  0
 10 14  1  0  0  0
 11 12  1  0  0  0
 12 13  1  0  0  0
 14 15  1  0  0  0
 15 16  1  0  0  0
 15 27  1  0  0  0
 16 17  2  0  0  0
 18 19  2  0  0  0
 18 23  1  0  0  0
 19 20  1  0  0  0
 20 21  1  0  0  0
 20 22  1  0  0  0
 22 23  2  0  0  0
 23 24  1  0  0  0
 24 25  1  0  0  0
M  END
> <minimizedAffinity>
-7.27990

$$$$
