CHEMBL3690493


 34 37  0  0  0  0  0  0  0  0999 V2000
  -27.0485   11.7846  -14.9727 C   0  0  0  0  0  0  0  0  0  0  0  0
  -28.2137   11.7705  -15.8650 C   0  0  0  0  0  0  0  0  0  0  0  0
  -29.4511   11.8946  -15.3601 C   0  0  0  0  0  0  0  0  0  0  0  0
  -29.6284   12.0138  -13.9801 N   0  0  0  0  0  0  0  0  0  0  0  0
  -30.7806   12.0177  -13.1972 C   0  0  0  0  0  0  0  0  0  0  0  0
  -30.3100   12.3013  -11.9233 C   0  0  0  0  0  0  0  0  0  0  0  0
  -28.9428   12.3634  -11.8761 N   0  0  0  0  0  0  0  0  0  0  0  0
  -28.5507   12.1271  -13.1069 C   0  0  0  0  0  0  0  0  0  0  0  0
  -27.2404   11.9693  -13.6440 C   0  0  0  0  0  0  0  0  0  0  0  0
  -23.7411   11.1674  -18.7182 C   0  0  0  0  0  0  0  0  0  0  0  0
  -24.0702   11.2476  -17.2608 C   0  0  0  0  0  0  0  0  0  0  0  0
  -25.3911   11.4523  -16.8485 C   0  0  0  0  0  0  0  0  0  0  0  0
  -25.6822   11.5521  -15.4919 C   0  0  0  0  0  0  0  0  0  0  0  0
  -24.7050   11.4152  -14.5652 N   0  0  0  0  0  0  0  0  0  0  0  0
  -23.4068   11.2049  -14.9542 N   0  0  0  0  0  0  0  0  0  0  0  0
  -23.1101   11.1315  -16.2665 C   0  0  0  0  0  0  0  0  0  0  0  0
  -21.4444   10.8810  -16.5943 Cl  0  0  0  0  0  0  0  0  0  0  0  0
  -32.1442   11.6894  -13.6380 C   0  0  0  0  0  0  0  0  0  0  0  0
  -32.8455   12.5532  -14.4905 C   0  0  0  0  0  0  0  0  0  0  0  0
  -34.1212   12.2400  -14.9422 C   0  0  0  0  0  0  0  0  0  0  0  0
  -34.7007   11.0285  -14.5900 C   0  0  0  0  0  0  0  0  0  0  0  0
  -34.0261   10.1272  -13.7638 C   0  0  0  0  0  0  0  0  0  0  0  0
  -32.7483   10.4653  -13.2909 C   0  0  0  0  0  0  0  0  0  0  0  0
  -34.5777    8.8760  -13.4019 N   0  0  0  0  0  0  0  0  0  0  0  0
  -34.8883    8.4740  -12.1248 C   0  0  0  0  0  0  0  0  0  0  0  0
  -34.6890    9.0889  -11.0911 O   0  0  0  0  0  0  0  0  0  0  0  0
  -35.4332    7.2119  -12.0882 N   0  0  0  0  0  0  0  0  0  0  0  0
  -34.6083    8.1631  -14.1139 H   0  0  0  0  0  0  0  0  0  0  0  0
  -36.0347    6.9760  -12.8656 H   0  0  0  0  0  0  0  0  0  0  0  0
  -35.8169    6.6752  -10.7751 C   0  0  0  0  0  0  0  0  0  0  0  0
  -35.0779    5.4047  -10.3287 C   0  0  0  0  0  0  0  0  0  0  0  0
  -35.8000    4.6879   -9.4360 F   0  0  0  0  0  0  0  0  0  0  0  0
  -34.8691    4.5967  -11.3987 F   0  0  0  0  0  0  0  0  0  0  0  0
  -33.8735    5.6681   -9.7840 F   0  0  0  0  0  0  0  0  0  0  0  0
 10 11  1  0  0  0
 11 12  1  0  0  0
 11 16  2  0  0  0
 12 13  2  0  0  0
 13  1  1  0  0  0
 13 14  1  0  0  0
  1  2  1  0  0  0
  1  9  2  0  0  0
  2  3  2  0  0  0
  3  4  1  0  0  0
  4  5  1  0  0  0
  4  8  1  0  0  0
  5 18  1  0  0  0
  5  6  2  0  0  0
 18 19  1  0  0  0
 18 23  2  0  0  0
 19 20  2  0  0  0
 20 21  1  0  0  0
 21 22  2  0  0  0
 22 24  1  0  0  0
 22 23  1  0  0  0
 24 25  1  0  0  0
 24 28  1  0  0  0
 25 26  2  0  0  0
 25 27  1  0  0  0
 27 30  1  0  0  0
 27 29  1  0  0  0
 30 31  1  0  0  0
 31 32  1  0  0  0
 31 33  1  0  0  0
 31 34  1  0  0  0
  6  7  1  0  0  0
  7  8  2  0  0  0
  8  9  1  0  0  0
 14 15  2  0  0  0
 15 16  1  0  0  0
 16 17  1  0  0  0
M  END
> <minimizedAffinity>
-6.44299

$$$$
