CHEMBL1076198


 47 51  0  0  0  0  0  0  0  0999 V2000
  -26.5067  -10.8878   -3.9221 C   0  0  0  0  0  0  0  0  0  0  0  0
  -26.4211  -11.8230   -2.9829 N   0  0  0  0  0  0  0  0  0  0  0  0
  -25.0721  -11.8679   -2.7348 C   0  0  0  0  0  0  0  0  0  0  0  0
  -24.3792  -12.3044   -1.6009 C   0  0  0  0  0  0  0  0  0  0  0  0
  -23.0019  -12.0565   -1.5321 C   0  0  0  0  0  0  0  0  0  0  0  0
  -22.3210  -11.4511   -2.5940 C   0  0  0  0  0  0  0  0  0  0  0  0
  -22.9826  -11.0929   -3.7719 C   0  0  0  0  0  0  0  0  0  0  0  0
  -24.3660  -11.3023   -3.7921 C   0  0  0  0  0  0  0  0  0  0  0  0
  -25.3690  -11.0456   -4.7212 N   0  0  0  0  0  0  0  0  0  0  0  0
  -25.2849  -11.2081   -6.1286 C   0  0  0  0  0  0  0  0  0  0  0  0
  -26.0980  -10.4039   -6.9262 C   0  0  0  0  0  0  0  0  0  0  0  0
  -26.0339  -10.5655   -8.2967 C   0  0  0  0  0  0  0  0  0  0  0  0
  -25.2286  -11.4873   -8.8393 N   0  0  0  0  0  0  0  0  0  0  0  0
  -24.4413  -12.1827   -7.9949 C   0  0  0  0  0  0  0  0  0  0  0  0
  -24.4046  -12.0757   -6.6592 N   0  0  0  0  0  0  0  0  0  0  0  0
  -26.8527   -9.7392   -9.0936 N   0  0  0  0  0  0  0  0  0  0  0  0
  -26.8612  -10.0873  -10.0492 H   0  0  0  0  0  0  0  0  0  0  0  0
  -28.1910   -9.4860   -8.5652 C   0  0  0  0  0  0  0  0  0  0  0  0
  -29.2226  -10.3838   -9.2610 C   0  0  0  0  0  0  0  0  0  0  0  0
  -30.6437   -9.9439   -8.8902 C   0  0  0  0  0  0  0  0  0  0  0  0
  -31.5741  -11.0970   -8.4870 C   0  0  0  0  0  0  0  0  0  0  0  0
  -32.7162  -10.7146   -7.6402 N   0  0  0  0  0  0  0  0  0  0  0  0
  -32.6539  -11.3278   -6.3117 C   0  0  0  0  0  0  0  0  0  0  0  0
  -32.7624   -9.2545   -7.5020 C   0  0  0  0  0  0  0  0  0  0  0  0
  -26.9855   -9.6662   -3.5531 N   0  0  0  0  0  0  0  0  0  0  0  0
  -27.2648   -9.7283   -2.5724 H   0  0  0  0  0  0  0  0  0  0  0  0
  -29.2726  -10.9555   -4.6574 C   0  0  0  0  0  0  0  0  0  0  0  0
  -29.0406   -9.4730   -4.8158 C   0  0  0  0  0  0  0  0  0  0  0  0
  -29.9059   -8.7206   -5.6264 C   0  0  0  0  0  0  0  0  0  0  0  0
  -29.6814   -7.3590   -5.8291 C   0  0  0  0  0  0  0  0  0  0  0  0
  -28.5950   -6.7415   -5.2023 C   0  0  0  0  0  0  0  0  0  0  0  0
  -27.7366   -7.4823   -4.3792 C   0  0  0  0  0  0  0  0  0  0  0  0
  -27.9455   -8.8431   -4.1765 C   0  0  0  0  0  0  0  0  0  0  0  0
  -28.2219   -5.3314   -5.4755 C   0  0  0  0  0  0  0  0  0  0  0  0
  -27.5634   -4.7515   -4.6156 O   0  0  0  0  0  0  0  0  0  0  0  0
  -28.6963   -4.7763   -6.6531 N   0  0  0  0  0  0  0  0  0  0  0  0
  -29.3660   -5.3147   -7.1821 H   0  0  0  0  0  0  0  0  0  0  0  0
  -28.4953   -3.4348   -7.0538 C   0  0  0  0  0  0  0  0  0  0  0  0
  -27.9278   -3.0798   -8.2809 C   0  0  0  0  0  0  0  0  0  0  0  0
  -27.6844   -1.7447   -8.6018 C   0  0  0  0  0  0  0  0  0  0  0  0
  -28.0098   -0.7408   -7.6957 C   0  0  0  0  0  0  0  0  0  0  0  0
  -28.6021   -1.0655   -6.4673 C   0  0  0  0  0  0  0  0  0  0  0  0
  -28.8645   -2.4171   -6.1654 C   0  0  0  0  0  0  0  0  0  0  0  0
  -28.9296    0.0134   -5.4668 C   0  0  0  0  0  0  0  0  0  0  0  0
  -29.4161   -0.4629   -4.2865 F   0  0  0  0  0  0  0  0  0  0  0  0
  -27.8465    0.7731   -5.1448 F   0  0  0  0  0  0  0  0  0  0  0  0
  -29.8699    0.8831   -5.9313 F   0  0  0  0  0  0  0  0  0  0  0  0
 27 28  1  0  0  0
 28 29  1  0  0  0
 28 33  2  0  0  0
 29 30  2  0  0  0
 30 31  1  0  0  0
 31 34  1  0  0  0
 31 32  2  0  0  0
 34 35  2  0  0  0
 34 36  1  0  0  0
 36 38  1  0  0  0
 36 37  1  0  0  0
 38 39  1  0  0  0
 38 43  2  0  0  0
 39 40  2  0  0  0
 40 41  1  0  0  0
 41 42  2  0  0  0
 42 44  1  0  0  0
 42 43  1  0  0  0
 44 45  1  0  0  0
 44 46  1  0  0  0
 44 47  1  0  0  0
 32 33  1  0  0  0
 33 25  1  0  0  0
 25  1  1  0  0  0
 25 26  1  0  0  0
  1  2  2  0  0  0
  1  9  1  0  0  0
  2  3  1  0  0  0
  3  4  1  0  0  0
  3  8  2  0  0  0
  4  5  2  0  0  0
  5  6  1  0  0  0
  6  7  2  0  0  0
  7  8  1  0  0  0
  8  9  1  0  0  0
  9 10  1  0  0  0
 10 11  1  0  0  0
 10 15  2  0  0  0
 11 12  2  0  0  0
 12 16  1  0  0  0
 12 13  1  0  0  0
 16 18  1  0  0  0
 16 17  1  0  0  0
 18 19  1  0  0  0
 19 20  1  0  0  0
 20 21  1  0  0  0
 21 22  1  0  0  0
 22 23  1  0  0  0
 22 24  1  0  0  0
 13 14  2  0  0  0
 14 15  1  0  0  0
M  END
> <minimizedAffinity>
-8.58671

$$$$
