CHEMBL3928457


 33 36  0  0  0  0  0  0  0  0999 V2000
  -13.3024   -0.5458  -13.9018 C   0  0  0  0  0  0  0  0  0  0  0  0
  -12.3115    0.3474  -13.4931 C   0  0  0  0  0  0  0  0  0  0  0  0
  -12.4642    1.7079  -13.7356 C   0  0  0  0  0  0  0  0  0  0  0  0
  -13.6109    2.1751  -14.3815 C   0  0  0  0  0  0  0  0  0  0  0  0
  -14.6093    1.2966  -14.8215 C   0  0  0  0  0  0  0  0  0  0  0  0
  -14.4442   -0.0725  -14.5745 C   0  0  0  0  0  0  0  0  0  0  0  0
  -15.7881    1.7489  -15.4741 N   0  0  0  0  0  0  0  0  0  0  0  0
  -17.0523    1.7180  -14.9082 C   0  0  0  0  0  0  0  0  0  0  0  0
  -17.2801    1.4026  -13.7440 O   0  0  0  0  0  0  0  0  0  0  0  0
  -18.0598    2.0611  -15.8095 N   0  0  0  0  0  0  0  0  0  0  0  0
  -15.6775    2.3178  -16.3027 H   0  0  0  0  0  0  0  0  0  0  0  0
  -17.9063    1.7061  -16.7428 H   0  0  0  0  0  0  0  0  0  0  0  0
  -19.4002    2.0097  -15.3392 C   0  0  0  0  0  0  0  0  0  0  0  0
  -20.0532    3.1801  -14.9318 C   0  0  0  0  0  0  0  0  0  0  0  0
  -21.2857    3.1140  -14.2825 C   0  0  0  0  0  0  0  0  0  0  0  0
  -21.8756    1.8758  -14.0444 C   0  0  0  0  0  0  0  0  0  0  0  0
  -21.2559    0.7102  -14.4996 C   0  0  0  0  0  0  0  0  0  0  0  0
  -20.0293    0.7752  -15.1708 C   0  0  0  0  0  0  0  0  0  0  0  0
  -13.0844   -3.1221  -13.3988 C   0  0  0  0  0  0  0  0  0  0  0  0
  -13.1754   -1.9441  -13.6007 C   0  0  0  0  0  0  0  0  0  0  0  0
  -14.4486   -3.4546  -10.5105 N   0  0  0  0  0  0  0  0  0  0  0  0
  -14.1005   -4.7094  -10.8119 C   0  0  0  0  0  0  0  0  0  0  0  0
  -14.3329   -5.7202   -9.9787 N   0  0  0  0  0  0  0  0  0  0  0  0
  -13.8590   -6.7888  -10.6342 N   0  0  0  0  0  0  0  0  0  0  0  0
  -13.3175   -6.5061  -11.8579 C   0  0  0  0  0  0  0  0  0  0  0  0
  -12.7304   -7.3363  -12.8163 C   0  0  0  0  0  0  0  0  0  0  0  0
  -12.2576   -6.7315  -13.9846 C   0  0  0  0  0  0  0  0  0  0  0  0
  -12.3762   -5.3533  -14.1791 C   0  0  0  0  0  0  0  0  0  0  0  0
  -12.9760   -4.5392  -13.2067 C   0  0  0  0  0  0  0  0  0  0  0  0
  -13.4571   -5.1254  -12.0149 C   0  0  0  0  0  0  0  0  0  0  0  0
  -14.8106   -3.2596   -9.5861 H   0  0  0  0  0  0  0  0  0  0  0  0
  -14.1676   -2.6606  -11.0664 H   0  0  0  0  0  0  0  0  0  0  0  0
  -13.9349   -7.6956  -10.1869 H   0  0  0  0  0  0  0  0  0  0  0  0
 21 22  1  0  0  0
 21 31  1  0  0  0
 21 32  1  0  0  0
 22 23  2  0  0  0
 22 30  1  0  0  0
 23 24  1  0  0  0
 24 25  1  0  0  0
 24 33  1  0  0  0
 25 26  1  0  0  0
 25 30  2  0  0  0
 26 27  2  0  0  0
 27 28  1  0  0  0
 28 29  2  0  0  0
 29 19  1  0  0  0
 29 30  1  0  0  0
 19 20  3  0  0  0
 20  1  1  0  0  0
  1  2  1  0  0  0
  1  6  2  0  0  0
  2  3  2  0  0  0
  3  4  1  0  0  0
  4  5  2  0  0  0
  5  7  1  0  0  0
  5  6  1  0  0  0
  7  8  1  0  0  0
  7 11  1  0  0  0
  8  9  2  0  0  0
  8 10  1  0  0  0
 10 13  1  0  0  0
 10 12  1  0  0  0
 13 14  1  0  0  0
 13 18  2  0  0  0
 14 15  2  0  0  0
 15 16  1  0  0  0
 16 17  2  0  0  0
 17 18  1  0  0  0
M  END
> <minimizedAffinity>
-8.33269

$$$$
