CHEMBL199561


 27 29  0  0  0  0  0  0  0  0999 V2000
  -31.8404   -9.6901   -7.9232 C   0  0  0  0  0  0  0  0  0  0  0  0
  -30.4578   -9.7291   -8.5636 C   0  0  0  0  0  0  0  0  0  0  0  0
  -29.6081  -10.7600   -8.3427 C   0  0  0  0  0  0  0  0  0  0  0  0
  -28.9049  -10.8006   -6.9620 C   0  0  0  0  0  0  0  0  0  0  0  0
  -29.1204   -9.4491   -6.2886 C   0  0  0  0  0  0  0  0  0  0  0  0
  -28.8122   -8.2983   -7.2916 C   0  0  0  0  0  0  0  0  0  0  0  0
  -29.7700   -8.3683   -8.5203 C   0  0  0  0  0  0  0  0  0  0  0  0
  -28.9833   -6.9835   -6.6011 C   0  0  0  0  0  0  0  0  0  0  0  0
  -28.6646   -5.7707   -7.1934 C   0  0  0  0  0  0  0  0  0  0  0  0
  -27.8536   -5.7064   -8.2937 O   0  0  0  0  0  0  0  0  0  0  0  0
  -29.0172   -4.5715   -6.5917 C   0  0  0  0  0  0  0  0  0  0  0  0
  -29.7064   -4.5933   -5.3634 C   0  0  0  0  0  0  0  0  0  0  0  0
  -30.1159   -5.8238   -4.8331 C   0  0  0  0  0  0  0  0  0  0  0  0
  -29.5767   -6.9784   -5.3440 C   0  0  0  0  0  0  0  0  0  0  0  0
  -29.5295   -8.0395   -4.4642 O   0  0  0  0  0  0  0  0  0  0  0  0
  -28.6299   -9.1126   -4.8747 C   0  0  0  0  0  0  0  0  0  0  0  0
  -27.1702   -8.6569   -4.6827 C   0  0  0  0  0  0  0  0  0  0  0  0
  -28.8945  -10.2596   -3.8918 C   0  0  0  0  0  0  0  0  0  0  0  0
  -27.0679   -6.2377   -8.0800 H   0  0  0  0  0  0  0  0  0  0  0  0
  -29.5915   -3.4368   -4.3608 C   0  0  0  0  0  0  0  0  0  0  0  0
  -30.7471   -3.3907   -3.3442 C   0  0  0  0  0  0  0  0  0  0  0  0
  -28.2673   -3.4866   -3.5767 C   0  0  0  0  0  0  0  0  0  0  0  0
  -29.6629   -2.2037   -5.3248 C   0  0  0  0  0  0  0  0  0  0  0  0
  -28.9421   -0.9321   -4.9036 C   0  0  0  0  0  0  0  0  0  0  0  0
  -28.1040   -0.4436   -6.0828 C   0  0  0  0  0  0  0  0  0  0  0  0
  -28.7407    0.7909   -6.6825 C   0  0  0  0  0  0  0  0  0  0  0  0
  -30.3929    1.2154   -5.7542 Br  0  0  0  0  0  0  0  0  0  0  0  0
  1  2  1  0  0  0
  2  3  2  0  0  0
  2  7  1  0  0  0
  3  4  1  0  0  0
  4  5  1  0  0  0
  5  6  1  0  0  0
  5 16  1  0  0  0
  6  7  1  0  0  0
  6  8  1  0  0  0
  8  9  1  0  0  0
  8 14  2  0  0  0
  9 10  1  0  0  0
  9 11  2  0  0  0
 10 19  1  0  0  0
 11 12  1  0  0  0
 12 20  1  0  0  0
 12 13  2  0  0  0
 20 21  1  0  0  0
 20 22  1  0  0  0
 20 23  1  0  0  0
 23 24  1  0  0  0
 24 25  1  0  0  0
 25 26  1  0  0  0
 26 27  1  0  0  0
 13 14  1  0  0  0
 14 15  1  0  0  0
 15 16  1  0  0  0
 16 17  1  0  0  0
 16 18  1  0  0  0
M  END
> <minimizedAffinity>
-8.42919

$$$$
