CHEMBL3889493


 37 41  0  0  0  0  0  0  0  0999 V2000
  -29.3754   -5.5641   -6.1104 C   0  0  0  0  0  0  0  0  0  0  0  0
  -29.7520   -6.4740   -7.0942 C   0  0  0  0  0  0  0  0  0  0  0  0
  -29.6452   -7.8213   -6.8384 C   0  0  0  0  0  0  0  0  0  0  0  0
  -28.8795   -8.3140   -5.8100 C   0  0  0  0  0  0  0  0  0  0  0  0
  -29.0283   -9.6168   -5.5960 N   0  0  0  0  0  0  0  0  0  0  0  0
  -28.0488  -10.2151   -4.9186 C   0  0  0  0  0  0  0  0  0  0  0  0
  -26.8963   -9.5357   -4.5830 C   0  0  0  0  0  0  0  0  0  0  0  0
  -26.8716   -8.1496   -4.5813 N   0  0  0  0  0  0  0  0  0  0  0  0
  -27.9635   -7.4714   -5.1660 C   0  0  0  0  0  0  0  0  0  0  0  0
  -28.3589   -6.0407   -5.2184 C   0  0  0  0  0  0  0  0  0  0  0  0
  -25.6844  -10.3706   -4.6688 C   0  0  0  0  0  0  0  0  0  0  0  0
  -25.4490  -11.7588   -4.5838 C   0  0  0  0  0  0  0  0  0  0  0  0
  -24.2032  -12.1066   -4.9452 N   0  0  0  0  0  0  0  0  0  0  0  0
  -23.6093  -10.9338   -5.2676 N   0  0  0  0  0  0  0  0  0  0  0  0
  -24.5037   -9.8999   -5.2455 C   0  0  0  0  0  0  0  0  0  0  0  0
  -22.1588  -10.9145   -5.4403 C   0  0  0  0  0  0  0  0  0  0  0  0
  -21.5612  -11.2213   -6.8286 C   0  0  0  0  0  0  0  0  0  0  0  0
  -22.5799  -11.6011   -7.7621 O   0  0  0  0  0  0  0  0  0  0  0  0
  -22.9884  -10.7937   -8.1240 H   0  0  0  0  0  0  0  0  0  0  0  0
  -20.8199   -9.9860   -7.3944 C   0  0  0  0  0  0  0  0  0  0  0  0
  -21.4277   -8.7649   -6.9726 O   0  0  0  0  0  0  0  0  0  0  0  0
  -22.3934   -8.8553   -7.0519 H   0  0  0  0  0  0  0  0  0  0  0  0
  -30.1574   -4.3096   -6.0442 N   0  0  0  0  0  0  0  0  0  0  0  0
  -28.6778   -0.7310   -6.2432 C   0  0  0  0  0  0  0  0  0  0  0  0
  -27.7976   -0.8810   -7.3141 C   0  0  0  0  0  0  0  0  0  0  0  0
  -27.7819   -2.0694   -8.0267 C   0  0  0  0  0  0  0  0  0  0  0  0
  -28.6783   -3.0947   -7.6755 C   0  0  0  0  0  0  0  0  0  0  0  0
  -29.4914   -3.0559   -6.5098 C   0  0  0  0  0  0  0  0  0  0  0  0
  -29.5075   -1.8126   -5.8407 C   0  0  0  0  0  0  0  0  0  0  0  0
  -30.0215    1.1244   -5.5433 C   0  0  0  0  0  0  0  0  0  0  0  0
  -28.7759    0.4212   -5.4908 O   0  0  0  0  0  0  0  0  0  0  0  0
  -26.9107   -2.3703   -9.0423 O   0  0  0  0  0  0  0  0  0  0  0  0
  -27.0953   -1.7015  -10.2884 C   0  0  0  0  0  0  0  0  0  0  0  0
  -30.6968   -4.1685   -4.6525 C   0  0  0  0  0  0  0  0  0  0  0  0
  -31.5747   -5.2768   -4.0993 C   0  0  0  0  0  0  0  0  0  0  0  0
  -32.2210   -5.1148   -2.7486 C   0  0  0  0  0  0  0  0  0  0  0  0
  -31.2871   -6.2636   -2.9858 C   0  0  0  0  0  0  0  0  0  0  0  0
 30 31  1  0  0  0
 31 24  1  0  0  0
 24 25  1  0  0  0
 24 29  2  0  0  0
 25 26  2  0  0  0
 26 32  1  0  0  0
 26 27  1  0  0  0
 32 33  1  0  0  0
 27 28  2  0  0  0
 28 23  1  0  0  0
 28 29  1  0  0  0
 23 34  1  0  0  0
 23  1  1  0  0  0
 34 35  1  0  0  0
 35 36  1  0  0  0
 35 37  1  0  0  0
 36 37  1  0  0  0
  1  2  1  0  0  0
  1 10  2  0  0  0
  2  3  2  0  0  0
  3  4  1  0  0  0
  4  5  1  0  0  0
  4  9  2  0  0  0
  5  6  2  0  0  0
  6  7  1  0  0  0
  7 11  1  0  0  0
  7  8  2  0  0  0
 11 12  1  0  0  0
 11 15  2  0  0  0
 12 13  2  0  0  0
 13 14  1  0  0  0
 14 16  1  0  0  0
 14 15  1  0  0  0
 16 17  1  0  0  0
 17 18  1  0  0  0
 17 20  1  0  0  0
 18 19  1  0  0  0
 20 21  1  0  0  0
 21 22  1  0  0  0
  8  9  1  0  0  0
  9 10  1  0  0  0
M  END
> <minimizedAffinity>
-8.52275

$$$$
