CHEMBL1241681


 27 31  0  0  0  0  0  0  0  0999 V2000
  -29.1173   -5.8265   -3.2638 N   0  0  0  0  0  0  0  0  0  0  0  0
  -28.9987   -6.9165   -4.0888 C   0  0  0  0  0  0  0  0  0  0  0  0
  -29.0144   -8.1398   -3.5312 N   0  0  0  0  0  0  0  0  0  0  0  0
  -28.8967   -9.2125   -4.3421 C   0  0  0  0  0  0  0  0  0  0  0  0
  -28.7830   -9.2374   -5.6850 N   0  0  0  0  0  0  0  0  0  0  0  0
  -28.7639   -7.9945   -6.1963 C   0  0  0  0  0  0  0  0  0  0  0  0
  -28.8465   -6.8174   -5.4730 C   0  0  0  0  0  0  0  0  0  0  0  0
  -28.7764   -5.7788   -6.4171 C   0  0  0  0  0  0  0  0  0  0  0  0
  -28.6977   -6.2739   -7.6795 N   0  0  0  0  0  0  0  0  0  0  0  0
  -28.6672   -7.6241   -7.5178 N   0  0  0  0  0  0  0  0  0  0  0  0
  -29.2349   -5.9580   -2.2816 H   0  0  0  0  0  0  0  0  0  0  0  0
  -29.1934   -4.9112   -3.6251 H   0  0  0  0  0  0  0  0  0  0  0  0
  -28.8772   -4.3308   -6.1660 C   0  0  0  0  0  0  0  0  0  0  0  0
  -30.1581   -3.8003   -6.2589 C   0  0  0  0  0  0  0  0  0  0  0  0
  -30.3540   -2.4922   -6.0027 C   0  0  0  0  0  0  0  0  0  0  0  0
  -29.2830   -1.7636   -5.6930 C   0  0  0  0  0  0  0  0  0  0  0  0
  -29.5080   -0.5154   -5.4859 N   0  0  0  0  0  0  0  0  0  0  0  0
  -29.7784    0.7142   -5.3005 C   0  0  0  0  0  0  0  0  0  0  0  0
  -28.4720    0.7185   -4.9750 C   0  0  0  0  0  0  0  0  0  0  0  0
  -27.4261   -0.5682   -5.0459 C   0  0  0  0  0  0  0  0  0  0  0  0
  -27.9616   -1.9957   -5.4783 C   0  0  0  0  0  0  0  0  0  0  0  0
  -27.7772   -3.4576   -5.7419 C   0  0  0  0  0  0  0  0  0  0  0  0
  -28.5576   -8.5174   -8.6669 C   0  0  0  0  0  0  0  0  0  0  0  0
  -29.7840   -9.4173   -8.8779 C   0  0  0  0  0  0  0  0  0  0  0  0
  -29.2983  -10.6184   -9.6915 C   0  0  0  0  0  0  0  0  0  0  0  0
  -27.7756  -10.6210   -9.5988 C   0  0  0  0  0  0  0  0  0  0  0  0
  -27.4106   -9.5347   -8.5887 C   0  0  0  0  0  0  0  0  0  0  0  0
  1  2  1  0  0  0
  1 11  1  0  0  0
  1 12  1  0  0  0
  2  3  1  0  0  0
  2  7  2  0  0  0
  3  4  2  0  0  0
  4  5  1  0  0  0
  5  6  2  0  0  0
  6  7  1  0  0  0
  6 10  1  0  0  0
  7  8  1  0  0  0
  8 13  1  0  0  0
  8  9  2  0  0  0
 13 14  1  0  0  0
 13 22  2  0  0  0
 14 15  2  0  0  0
 15 16  1  0  0  0
 16 17  1  0  0  0
 16 21  2  0  0  0
 17 18  2  0  0  0
 18 19  1  0  0  0
 19 20  2  0  0  0
 20 21  1  0  0  0
 21 22  1  0  0  0
  9 10  1  0  0  0
 10 23  1  0  0  0
 23 24  1  0  0  0
 23 27  1  0  0  0
 24 25  1  0  0  0
 25 26  1  0  0  0
 26 27  1  0  0  0
M  END
> <minimizedAffinity>
-9.06264

$$$$
