CHEMBL3954009


 36 38  0  0  0  0  0  0  0  0999 V2000
  -30.7373   -9.4060   -7.1076 C   0  0  0  0  0  0  0  0  0  0  0  0
  -31.6899   -8.4198   -7.3560 C   0  0  0  0  0  0  0  0  0  0  0  0
  -31.6714   -7.2252   -6.6391 C   0  0  0  0  0  0  0  0  0  0  0  0
  -30.7064   -6.9822   -5.6573 C   0  0  0  0  0  0  0  0  0  0  0  0
  -29.7599   -7.9815   -5.3983 C   0  0  0  0  0  0  0  0  0  0  0  0
  -29.7757   -9.1871   -6.1156 C   0  0  0  0  0  0  0  0  0  0  0  0
  -30.6287   -5.7654   -4.9406 N   0  0  0  0  0  0  0  0  0  0  0  0
  -29.9949   -4.6216   -5.3822 C   0  0  0  0  0  0  0  0  0  0  0  0
  -29.5156   -4.4555   -6.4976 O   0  0  0  0  0  0  0  0  0  0  0  0
  -29.9203   -3.6401   -4.3967 N   0  0  0  0  0  0  0  0  0  0  0  0
  -31.1578   -5.6960   -4.0849 H   0  0  0  0  0  0  0  0  0  0  0  0
  -29.7352   -3.9997   -3.4667 H   0  0  0  0  0  0  0  0  0  0  0  0
  -29.2884   -2.4053   -4.7017 C   0  0  0  0  0  0  0  0  0  0  0  0
  -30.0362   -1.2697   -5.0367 C   0  0  0  0  0  0  0  0  0  0  0  0
  -29.4033   -0.0837   -5.4431 C   0  0  0  0  0  0  0  0  0  0  0  0
  -28.0002   -0.0567   -5.5129 C   0  0  0  0  0  0  0  0  0  0  0  0
  -27.2498   -1.1795   -5.1516 C   0  0  0  0  0  0  0  0  0  0  0  0
  -27.8971   -2.3370   -4.7278 C   0  0  0  0  0  0  0  0  0  0  0  0
  -27.1686   -3.4187   -4.4124 F   0  0  0  0  0  0  0  0  0  0  0  0
  -30.2109    1.1386   -5.8077 C   0  0  0  0  0  0  0  0  0  0  0  0
  -31.4232    0.8572   -6.3593 F   0  0  0  0  0  0  0  0  0  0  0  0
  -30.4727    1.9192   -4.7211 F   0  0  0  0  0  0  0  0  0  0  0  0
  -29.5702    1.9451   -6.6977 F   0  0  0  0  0  0  0  0  0  0  0  0
  -31.7034  -11.6305   -7.5945 C   0  0  0  0  0  0  0  0  0  0  0  0
  -30.8065  -10.6632   -7.8787 C   0  0  0  0  0  0  0  0  0  0  0  0
  -29.8058  -10.9672   -8.9276 C   0  0  0  0  0  0  0  0  0  0  0  0
  -29.5527  -10.0357   -9.9405 C   0  0  0  0  0  0  0  0  0  0  0  0
  -28.5569  -10.2836  -10.8862 C   0  0  0  0  0  0  0  0  0  0  0  0
  -27.8109  -11.4587  -10.8267 C   0  0  0  0  0  0  0  0  0  0  0  0
  -28.0684  -12.3974   -9.8291 C   0  0  0  0  0  0  0  0  0  0  0  0
  -29.0652  -12.1544   -8.8816 C   0  0  0  0  0  0  0  0  0  0  0  0
  -32.4014  -11.8476   -5.3295 N   0  0  0  0  0  0  0  0  0  0  0  0
  -32.7909  -11.5314   -6.5913 C   0  0  0  0  0  0  0  0  0  0  0  0
  -33.9484  -11.2245   -6.8407 O   0  0  0  0  0  0  0  0  0  0  0  0
  -33.0995  -11.7700   -4.6007 H   0  0  0  0  0  0  0  0  0  0  0  0
  -31.4466  -12.0431   -5.0632 H   0  0  0  0  0  0  0  0  0  0  0  0
 32 33  1  0  0  0
 32 35  1  0  0  0
 32 36  1  0  0  0
 33 34  2  0  0  0
 33 24  1  0  0  0
 24 25  2  0  0  0
 25 26  1  0  0  0
 25  1  1  0  0  0
 26 27  1  0  0  0
 26 31  2  0  0  0
 27 28  2  0  0  0
 28 29  1  0  0  0
 29 30  2  0  0  0
 30 31  1  0  0  0
  1  2  1  0  0  0
  1  6  2  0  0  0
  2  3  2  0  0  0
  3  4  1  0  0  0
  4  7  1  0  0  0
  4  5  2  0  0  0
  7  8  1  0  0  0
  7 11  1  0  0  0
  8  9  2  0  0  0
  8 10  1  0  0  0
 10 13  1  0  0  0
 10 12  1  0  0  0
 13 14  1  0  0  0
 13 18  2  0  0  0
 14 15  2  0  0  0
 15 20  1  0  0  0
 15 16  1  0  0  0
 20 21  1  0  0  0
 20 22  1  0  0  0
 20 23  1  0  0  0
 16 17  2  0  0  0
 17 18  1  0  0  0
 18 19  1  0  0  0
  5  6  1  0  0  0
M  END
> <minimizedAffinity>
-9.88034

$$$$
