CHEMBL4794661


 45 49  0  0  0  0  0  0  0  0999 V2000
  -28.2875   -9.3253   -3.4359 C   0  0  0  0  0  0  0  0  0  0  0  0
  -29.0133   -9.9455   -4.3688 N   0  0  0  0  0  0  0  0  0  0  0  0
  -28.5480  -11.1402   -4.8019 C   0  0  0  0  0  0  0  0  0  0  0  0
  -27.3892  -11.7085   -4.3177 C   0  0  0  0  0  0  0  0  0  0  0  0
  -26.7459  -11.0137   -3.3493 C   0  0  0  0  0  0  0  0  0  0  0  0
  -27.1991   -9.8467   -2.8769 N   0  0  0  0  0  0  0  0  0  0  0  0
  -28.9271   -5.7524   -3.6156 N   0  0  0  0  0  0  0  0  0  0  0  0
  -28.3210   -6.9585   -3.9526 C   0  0  0  0  0  0  0  0  0  0  0  0
  -27.5672   -7.0760   -4.9126 O   0  0  0  0  0  0  0  0  0  0  0  0
  -28.6608   -8.0086   -3.1293 N   0  0  0  0  0  0  0  0  0  0  0  0
  -29.3026   -5.6596   -2.6858 H   0  0  0  0  0  0  0  0  0  0  0  0
  -29.3478   -7.9286   -2.4006 H   0  0  0  0  0  0  0  0  0  0  0  0
  -28.8914   -3.4713   -6.5981 C   0  0  0  0  0  0  0  0  0  0  0  0
  -29.0267   -4.5996   -5.8049 C   0  0  0  0  0  0  0  0  0  0  0  0
  -28.8446   -4.5702   -4.4137 C   0  0  0  0  0  0  0  0  0  0  0  0
  -28.5849   -3.3293   -3.8078 C   0  0  0  0  0  0  0  0  0  0  0  0
  -28.4699   -2.1781   -4.5976 C   0  0  0  0  0  0  0  0  0  0  0  0
  -28.6216   -2.2568   -5.9937 C   0  0  0  0  0  0  0  0  0  0  0  0
  -27.8867   -2.9600   -8.6934 C   0  0  0  0  0  0  0  0  0  0  0  0
  -29.0147   -3.4511   -7.9666 O   0  0  0  0  0  0  0  0  0  0  0  0
  -28.1963   -0.8997   -4.1743 O   0  0  0  0  0  0  0  0  0  0  0  0
  -27.8157    0.0514   -5.1597 C   0  0  0  0  0  0  0  0  0  0  0  0
  -29.2003  -11.8383   -5.8480 N   0  0  0  0  0  0  0  0  0  0  0  0
  -28.8058  -12.7684   -5.9325 H   0  0  0  0  0  0  0  0  0  0  0  0
  -29.6022  -11.3012   -7.0830 C   0  0  0  0  0  0  0  0  0  0  0  0
  -28.8130  -11.5064   -8.2191 C   0  0  0  0  0  0  0  0  0  0  0  0
  -29.1999  -11.0058   -9.4581 C   0  0  0  0  0  0  0  0  0  0  0  0
  -30.4107  -10.3148   -9.5718 C   0  0  0  0  0  0  0  0  0  0  0  0
  -31.2334  -10.1329   -8.4594 C   0  0  0  0  0  0  0  0  0  0  0  0
  -30.8198  -10.6271   -7.2239 C   0  0  0  0  0  0  0  0  0  0  0  0
  -28.4925  -11.1280  -10.6240 O   0  0  0  0  0  0  0  0  0  0  0  0
  -28.9242  -10.3308  -11.7200 C   0  0  0  0  0  0  0  0  0  0  0  0
  -32.4535   -9.5169   -8.4445 O   0  0  0  0  0  0  0  0  0  0  0  0
  -32.7531   -8.7074   -7.3170 C   0  0  0  0  0  0  0  0  0  0  0  0
  -25.0916  -11.4750   -2.8528 S   0  0  0  0  0  0  0  0  0  0  0  0
  -24.2322  -10.6260   -4.1267 C   0  0  0  0  0  0  0  0  0  0  0  0
  -24.7252   -9.5733   -4.8637 C   0  0  0  0  0  0  0  0  0  0  0  0
  -23.7559   -9.2469   -5.7723 N   0  0  0  0  0  0  0  0  0  0  0  0
  -22.9129  -10.3249   -5.9234 C   0  0  0  0  0  0  0  0  0  0  0  0
  -22.0685  -10.6946   -6.9743 C   0  0  0  0  0  0  0  0  0  0  0  0
  -21.2590  -11.8165   -6.7734 C   0  0  0  0  0  0  0  0  0  0  0  0
  -21.2197  -12.4622   -5.5377 C   0  0  0  0  0  0  0  0  0  0  0  0
  -22.0944  -12.0940   -4.5092 C   0  0  0  0  0  0  0  0  0  0  0  0
  -23.0289  -11.0684   -4.7478 C   0  0  0  0  0  0  0  0  0  0  0  0
  -23.7189   -8.3954   -6.3158 H   0  0  0  0  0  0  0  0  0  0  0  0
 19 20  1  0  0  0
 20 13  1  0  0  0
 13 14  1  0  0  0
 13 18  2  0  0  0
 14 15  2  0  0  0
 15  7  1  0  0  0
 15 16  1  0  0  0
  7  8  1  0  0  0
  7 11  1  0  0  0
  8  9  2  0  0  0
  8 10  1  0  0  0
 10  1  1  0  0  0
 10 12  1  0  0  0
  1  2  1  0  0  0
  1  6  2  0  0  0
  2  3  2  0  0  0
  3 23  1  0  0  0
  3  4  1  0  0  0
 23 25  1  0  0  0
 23 24  1  0  0  0
 25 26  1  0  0  0
 25 30  2  0  0  0
 26 27  2  0  0  0
 27 31  1  0  0  0
 27 28  1  0  0  0
 31 32  1  0  0  0
 28 29  2  0  0  0
 29 33  1  0  0  0
 29 30  1  0  0  0
 33 34  1  0  0  0
  4  5  2  0  0  0
  5 35  1  0  0  0
  5  6  1  0  0  0
 35 36  1  0  0  0
 36 37  2  0  0  0
 36 44  1  0  0  0
 37 38  1  0  0  0
 38 39  1  0  0  0
 38 45  1  0  0  0
 39 40  1  0  0  0
 39 44  2  0  0  0
 40 41  2  0  0  0
 41 42  1  0  0  0
 42 43  2  0  0  0
 43 44  1  0  0  0
 16 17  2  0  0  0
 17 21  1  0  0  0
 17 18  1  0  0  0
 21 22  1  0  0  0
M  END
> <minimizedAffinity>
-8.87766

$$$$
