CHEMBL2031897


 39 43  0  0  0  0  0  0  0  0999 V2000
  -15.2126   -1.3691  -12.1735 C   0  0  0  0  0  0  0  0  0  0  0  0
  -16.1432   -0.3629  -12.3735 C   0  0  0  0  0  0  0  0  0  0  0  0
  -15.8586    0.6521  -13.2952 C   0  0  0  0  0  0  0  0  0  0  0  0
  -14.6526    0.6541  -13.9970 C   0  0  0  0  0  0  0  0  0  0  0  0
  -13.7780   -0.3952  -13.7025 C   0  0  0  0  0  0  0  0  0  0  0  0
  -14.0368   -1.4195  -12.8368 N   0  0  0  0  0  0  0  0  0  0  0  0
  -14.2864    1.6266  -14.9749 N   0  0  0  0  0  0  0  0  0  0  0  0
  -14.8128    1.7467  -16.2534 C   0  0  0  0  0  0  0  0  0  0  0  0
  -15.7027    1.0281  -16.6969 O   0  0  0  0  0  0  0  0  0  0  0  0
  -13.5439    2.2786  -14.7191 H   0  0  0  0  0  0  0  0  0  0  0  0
  -14.2578    2.8409  -17.1035 C   0  0  0  0  0  0  0  0  0  0  0  0
  -13.7400    2.7550  -18.3514 C   0  0  0  0  0  0  0  0  0  0  0  0
  -13.4225    1.5155  -19.1242 C   0  0  0  0  0  0  0  0  0  0  0  0
  -13.4734    4.0142  -18.8980 N   0  0  0  0  0  0  0  0  0  0  0  0
  -12.4593    4.2827  -19.9174 C   0  0  0  0  0  0  0  0  0  0  0  0
  -13.5934    4.9416  -17.8463 N   0  0  0  0  0  0  0  0  0  0  0  0
  -14.1610    4.2903  -16.7431 C   0  0  0  0  0  0  0  0  0  0  0  0
  -14.5297    4.7396  -15.6665 O   0  0  0  0  0  0  0  0  0  0  0  0
  -13.6321    6.3330  -18.0662 C   0  0  0  0  0  0  0  0  0  0  0  0
  -12.5721    7.1245  -17.6094 C   0  0  0  0  0  0  0  0  0  0  0  0
  -12.5450    8.4944  -17.8825 C   0  0  0  0  0  0  0  0  0  0  0  0
  -13.5980    9.0901  -18.5756 C   0  0  0  0  0  0  0  0  0  0  0  0
  -14.6658    8.3135  -19.0226 C   0  0  0  0  0  0  0  0  0  0  0  0
  -14.6721    6.9364  -18.7871 C   0  0  0  0  0  0  0  0  0  0  0  0
  -15.5487   -2.3120  -11.1970 O   0  0  0  0  0  0  0  0  0  0  0  0
  -12.1832   -6.1341  -10.4081 C   0  0  0  0  0  0  0  0  0  0  0  0
  -13.3340   -6.6418  -11.0395 C   0  0  0  0  0  0  0  0  0  0  0  0
  -14.4194   -5.8413  -11.3687 C   0  0  0  0  0  0  0  0  0  0  0  0
  -15.4323   -6.3814  -12.0705 N   0  0  0  0  0  0  0  0  0  0  0  0
  -16.4352   -5.5694  -12.4637 C   0  0  0  0  0  0  0  0  0  0  0  0
  -16.4746   -4.2157  -12.1999 C   0  0  0  0  0  0  0  0  0  0  0  0
  -15.4288   -3.6606  -11.4654 C   0  0  0  0  0  0  0  0  0  0  0  0
  -14.3975   -4.4923  -10.9814 C   0  0  0  0  0  0  0  0  0  0  0  0
  -13.3474   -4.0541  -10.1543 C   0  0  0  0  0  0  0  0  0  0  0  0
  -12.2143   -4.8304   -9.9145 C   0  0  0  0  0  0  0  0  0  0  0  0
  -11.0260   -8.1159  -10.9911 C   0  0  0  0  0  0  0  0  0  0  0  0
  -11.0532   -6.8927  -10.2503 O   0  0  0  0  0  0  0  0  0  0  0  0
  -11.2760   -4.1197   -9.2249 O   0  0  0  0  0  0  0  0  0  0  0  0
  -11.6783   -3.1690   -8.2592 C   0  0  0  0  0  0  0  0  0  0  0  0
 36 37  1  0  0  0
 37 26  1  0  0  0
 26 27  1  0  0  0
 26 35  2  0  0  0
 27 28  2  0  0  0
 28 29  1  0  0  0
 28 33  1  0  0  0
 29 30  2  0  0  0
 30 31  1  0  0  0
 31 32  2  0  0  0
 32 25  1  0  0  0
 32 33  1  0  0  0
 25  1  1  0  0  0
  1  2  1  0  0  0
  1  6  2  0  0  0
  2  3  2  0  0  0
  3  4  1  0  0  0
  4  7  1  0  0  0
  4  5  2  0  0  0
  7  8  1  0  0  0
  7 10  1  0  0  0
  8  9  2  0  0  0
  8 11  1  0  0  0
 11 12  2  0  0  0
 11 17  1  0  0  0
 12 13  1  0  0  0
 12 14  1  0  0  0
 14 15  1  0  0  0
 14 16  1  0  0  0
 16 19  1  0  0  0
 16 17  1  0  0  0
 19 20  1  0  0  0
 19 24  2  0  0  0
 20 21  2  0  0  0
 21 22  1  0  0  0
 22 23  2  0  0  0
 23 24  1  0  0  0
 17 18  2  0  0  0
  5  6  1  0  0  0
 33 34  2  0  0  0
 34 35  1  0  0  0
 35 38  1  0  0  0
 38 39  1  0  0  0
M  END
> <minimizedAffinity>
-7.77409

$$$$
