CHEMBL1683647


 25 27  0  0  0  0  0  0  0  0999 V2000
  -26.1432   -9.6878   -3.8856 C   0  0  0  0  0  0  0  0  0  0  0  0
  -27.6407   -9.9030   -3.9885 C   0  0  0  0  0  0  0  0  0  0  0  0
  -28.0810  -10.7490   -4.9471 C   0  0  0  0  0  0  0  0  0  0  0  0
  -28.5899  -10.1581   -6.2597 C   0  0  0  0  0  0  0  0  0  0  0  0
  -28.5126   -8.6186   -6.2248 C   0  0  0  0  0  0  0  0  0  0  0  0
  -29.2590   -8.1671   -4.9474 C   0  0  0  0  0  0  0  0  0  0  0  0
  -28.4433   -8.6354   -3.7098 C   0  0  0  0  0  0  0  0  0  0  0  0
  -29.5141   -6.6838   -4.9690 C   0  0  0  0  0  0  0  0  0  0  0  0
  -30.1354   -6.0386   -3.8980 C   0  0  0  0  0  0  0  0  0  0  0  0
  -30.5918   -6.7706   -2.8419 O   0  0  0  0  0  0  0  0  0  0  0  0
  -30.2851   -4.6605   -3.8826 C   0  0  0  0  0  0  0  0  0  0  0  0
  -29.6996   -3.8777   -4.8841 C   0  0  0  0  0  0  0  0  0  0  0  0
  -29.1491   -4.5176   -6.0006 C   0  0  0  0  0  0  0  0  0  0  0  0
  -29.1241   -5.9117   -6.0657 C   0  0  0  0  0  0  0  0  0  0  0  0
  -28.6985   -6.4458   -7.2564 O   0  0  0  0  0  0  0  0  0  0  0  0
  -29.0165   -7.8507   -7.4614 C   0  0  0  0  0  0  0  0  0  0  0  0
  -28.2096   -8.2389   -8.7173 C   0  0  0  0  0  0  0  0  0  0  0  0
  -30.5259   -7.9934   -7.7505 C   0  0  0  0  0  0  0  0  0  0  0  0
  -30.5981   -6.1914   -2.0613 H   0  0  0  0  0  0  0  0  0  0  0  0
  -29.6432   -2.3810   -4.7319 C   0  0  0  0  0  0  0  0  0  0  0  0
  -28.2687   -1.9706   -4.2028 C   0  0  0  0  0  0  0  0  0  0  0  0
  -27.5678   -0.9718   -5.1146 C   0  0  0  0  0  0  0  0  0  0  0  0
  -28.1393    0.4293   -4.9102 C   0  0  0  0  0  0  0  0  0  0  0  0
  -28.6384    1.0016   -6.2227 C   0  0  0  0  0  0  0  0  0  0  0  0
  -30.5423    1.3725   -6.0992 Br  0  0  0  0  0  0  0  0  0  0  0  0
  1  2  1  0  0  0
  2  3  2  0  0  0
  2  7  1  0  0  0
  3  4  1  0  0  0
  4  5  1  0  0  0
  5  6  1  0  0  0
  5 16  1  0  0  0
  6  7  1  0  0  0
  6  8  1  0  0  0
  8  9  1  0  0  0
  8 14  2  0  0  0
  9 10  1  0  0  0
  9 11  2  0  0  0
 10 19  1  0  0  0
 11 12  1  0  0  0
 12 20  1  0  0  0
 12 13  2  0  0  0
 20 21  1  0  0  0
 21 22  1  0  0  0
 22 23  1  0  0  0
 23 24  1  0  0  0
 24 25  1  0  0  0
 13 14  1  0  0  0
 14 15  1  0  0  0
 15 16  1  0  0  0
 16 17  1  0  0  0
 16 18  1  0  0  0
M  END
> <minimizedAffinity>
-8.14629

$$$$
