CHEMBL3397937


 34 37  0  0  0  0  0  0  0  0999 V2000
  -14.2074   -0.0862  -13.8986 O   0  0  0  0  0  0  0  0  0  0  0  0
  -15.3713   -0.3574  -14.1763 C   0  0  0  0  0  0  0  0  0  0  0  0
  -15.9730   -1.6023  -14.0981 N   0  0  0  0  0  0  0  0  0  0  0  0
  -16.8751   -1.7113  -14.5469 H   0  0  0  0  0  0  0  0  0  0  0  0
  -15.3502   -2.7863  -13.6581 C   0  0  0  0  0  0  0  0  0  0  0  0
  -14.2282   -3.3345  -14.2831 C   0  0  0  0  0  0  0  0  0  0  0  0
  -13.7061   -4.5601  -13.8686 C   0  0  0  0  0  0  0  0  0  0  0  0
  -14.3042   -5.2637  -12.8245 C   0  0  0  0  0  0  0  0  0  0  0  0
  -15.3822   -4.6755  -12.1549 C   0  0  0  0  0  0  0  0  0  0  0  0
  -15.9689   -5.2896  -11.1167 F   0  0  0  0  0  0  0  0  0  0  0  0
  -15.9019   -3.4467  -12.5579 C   0  0  0  0  0  0  0  0  0  0  0  0
  -13.7565   -6.4903  -12.5646 O   0  0  0  0  0  0  0  0  0  0  0  0
  -13.4495   -6.7229  -11.1852 C   0  0  0  0  0  0  0  0  0  0  0  0
  -12.0936   -6.0759  -10.8491 C   0  0  0  0  0  0  0  0  0  0  0  0
  -11.9125   -5.7647   -9.4154 N   0  0  0  0  0  0  0  0  0  0  0  0
  -13.0681   -5.0021   -8.8853 C   0  0  0  0  0  0  0  0  0  0  0  0
  -13.1135   -3.5284   -9.3370 C   0  0  0  0  0  0  0  0  0  0  0  0
  -11.8846   -2.8421   -9.0625 O   0  0  0  0  0  0  0  0  0  0  0  0
  -10.7702   -3.5305   -9.6444 C   0  0  0  0  0  0  0  0  0  0  0  0
  -10.6965   -4.9727   -9.1244 C   0  0  0  0  0  0  0  0  0  0  0  0
  -16.2170    0.7239  -14.7371 C   0  0  0  0  0  0  0  0  0  0  0  0
  -15.6363    1.6277  -15.6266 C   0  0  0  0  0  0  0  0  0  0  0  0
  -16.4092    2.6391  -16.1845 C   0  0  0  0  0  0  0  0  0  0  0  0
  -17.7665    2.7329  -15.8649 C   0  0  0  0  0  0  0  0  0  0  0  0
  -18.3874    1.8153  -14.9942 C   0  0  0  0  0  0  0  0  0  0  0  0
  -17.5738    0.8308  -14.4070 C   0  0  0  0  0  0  0  0  0  0  0  0
  -19.8526    1.8063  -14.7803 C   0  0  0  0  0  0  0  0  0  0  0  0
  -20.5714    0.5952  -14.8019 C   0  0  0  0  0  0  0  0  0  0  0  0
  -21.9289    0.5419  -14.4729 C   0  0  0  0  0  0  0  0  0  0  0  0
  -22.5988    1.6999  -14.0941 C   0  0  0  0  0  0  0  0  0  0  0  0
  -21.9095    2.9056  -14.0778 C   0  0  0  0  0  0  0  0  0  0  0  0
  -22.5119    4.0597  -13.6729 O   0  0  0  0  0  0  0  0  0  0  0  0
  -20.5660    2.9698  -14.4415 C   0  0  0  0  0  0  0  0  0  0  0  0
  -23.3872    3.8408  -13.3124 H   0  0  0  0  0  0  0  0  0  0  0  0
  1  2  2  0  0  0
  2  3  1  0  0  0
  2 21  1  0  0  0
  3  5  1  0  0  0
  3  4  1  0  0  0
  5  6  1  0  0  0
  5 11  2  0  0  0
  6  7  2  0  0  0
  7  8  1  0  0  0
  8 12  1  0  0  0
  8  9  2  0  0  0
 12 13  1  0  0  0
 13 14  1  0  0  0
 14 15  1  0  0  0
 15 16  1  0  0  0
 15 20  1  0  0  0
 16 17  1  0  0  0
 17 18  1  0  0  0
 18 19  1  0  0  0
 19 20  1  0  0  0
  9 10  1  0  0  0
  9 11  1  0  0  0
 21 22  1  0  0  0
 21 26  2  0  0  0
 22 23  2  0  0  0
 23 24  1  0  0  0
 24 25  2  0  0  0
 25 27  1  0  0  0
 25 26  1  0  0  0
 27 28  1  0  0  0
 27 33  2  0  0  0
 28 29  2  0  0  0
 29 30  1  0  0  0
 30 31  2  0  0  0
 31 32  1  0  0  0
 31 33  1  0  0  0
 32 34  1  0  0  0
M  END
> <minimizedAffinity>
-9.56979

$$$$
