CHEMBL1993661


 35 37  0  0  0  0  0  0  0  0999 V2000
  -28.4834   -8.6980   -6.1181 C   0  0  0  0  0  0  0  0  0  0  0  0
  -28.6297   -7.5756   -6.8667 N   0  0  0  0  0  0  0  0  0  0  0  0
  -29.2418   -6.5136   -6.3276 C   0  0  0  0  0  0  0  0  0  0  0  0
  -29.6272   -6.4677   -5.0463 N   0  0  0  0  0  0  0  0  0  0  0  0
  -29.3785   -7.5527   -4.2872 C   0  0  0  0  0  0  0  0  0  0  0  0
  -28.8011   -8.7040   -4.7688 C   0  0  0  0  0  0  0  0  0  0  0  0
  -28.5956  -10.0706   -3.7534 Cl  0  0  0  0  0  0  0  0  0  0  0  0
  -27.9929   -9.8777   -6.7661 N   0  0  0  0  0  0  0  0  0  0  0  0
  -28.3339  -10.7072   -6.2671 H   0  0  0  0  0  0  0  0  0  0  0  0
  -29.3173  -10.6073   -8.7563 C   0  0  0  0  0  0  0  0  0  0  0  0
  -29.3840  -10.8438  -10.1416 C   0  0  0  0  0  0  0  0  0  0  0  0
  -28.3079  -10.5229  -10.9670 C   0  0  0  0  0  0  0  0  0  0  0  0
  -27.1801   -9.9289  -10.4221 C   0  0  0  0  0  0  0  0  0  0  0  0
  -27.1110   -9.7077   -9.0477 C   0  0  0  0  0  0  0  0  0  0  0  0
  -28.1453  -10.0976   -8.1702 C   0  0  0  0  0  0  0  0  0  0  0  0
  -30.8082  -10.8472   -7.8163 S   0  0  0  0  0  0  0  0  0  0  0  0
  -30.4693  -11.5037   -6.5700 O   0  0  0  0  0  0  0  0  0  0  0  0
  -31.7820  -11.4172   -8.7254 O   0  0  0  0  0  0  0  0  0  0  0  0
  -32.7556   -9.0203   -7.4365 C   0  0  0  0  0  0  0  0  0  0  0  0
  -31.3214   -9.2872   -7.4535 N   0  0  0  0  0  0  0  0  0  0  0  0
  -30.7775   -8.8872   -6.6888 H   0  0  0  0  0  0  0  0  0  0  0  0
  -29.4710   -5.4329   -7.1766 N   0  0  0  0  0  0  0  0  0  0  0  0
  -30.2804   -5.6110   -7.7554 H   0  0  0  0  0  0  0  0  0  0  0  0
  -29.1391   -4.0801   -6.9971 C   0  0  0  0  0  0  0  0  0  0  0  0
  -28.3352   -3.4456   -7.9490 C   0  0  0  0  0  0  0  0  0  0  0  0
  -27.8762   -2.1259   -7.7748 C   0  0  0  0  0  0  0  0  0  0  0  0
  -28.2550   -1.4002   -6.6219 C   0  0  0  0  0  0  0  0  0  0  0  0
  -29.1241   -2.0140   -5.6959 C   0  0  0  0  0  0  0  0  0  0  0  0
  -29.5260   -3.3448   -5.8786 C   0  0  0  0  0  0  0  0  0  0  0  0
  -27.0618   -1.5107   -8.6918 O   0  0  0  0  0  0  0  0  0  0  0  0
  -27.1214   -1.9286  -10.0490 C   0  0  0  0  0  0  0  0  0  0  0  0
  -27.8367   -0.1404   -6.2802 O   0  0  0  0  0  0  0  0  0  0  0  0
  -28.6286    0.9949   -6.5836 C   0  0  0  0  0  0  0  0  0  0  0  0
  -29.6197   -1.4754   -4.5311 O   0  0  0  0  0  0  0  0  0  0  0  0
  -29.8215   -2.3569   -3.4336 C   0  0  0  0  0  0  0  0  0  0  0  0
 19 20  1  0  0  0
 20 16  1  0  0  0
 20 21  1  0  0  0
 16 17  2  0  0  0
 16 18  2  0  0  0
 16 10  1  0  0  0
 10 11  1  0  0  0
 10 15  2  0  0  0
 11 12  2  0  0  0
 12 13  1  0  0  0
 13 14  2  0  0  0
 14 15  1  0  0  0
 15  8  1  0  0  0
  8  1  1  0  0  0
  8  9  1  0  0  0
  1  2  1  0  0  0
  1  6  2  0  0  0
  2  3  2  0  0  0
  3 22  1  0  0  0
  3  4  1  0  0  0
 22 24  1  0  0  0
 22 23  1  0  0  0
 24 25  1  0  0  0
 24 29  2  0  0  0
 25 26  2  0  0  0
 26 30  1  0  0  0
 26 27  1  0  0  0
 30 31  1  0  0  0
 27 32  1  0  0  0
 27 28  2  0  0  0
 32 33  1  0  0  0
 28 34  1  0  0  0
 28 29  1  0  0  0
 34 35  1  0  0  0
  4  5  2  0  0  0
  5  6  1  0  0  0
  6  7  1  0  0  0
M  END
> <minimizedAffinity>
-7.86708

$$$$
