CHEMBL3797507


 40 44  0  0  0  0  0  0  0  0999 V2000
  -23.3528   -1.1720  -13.4541 N   0  0  0  0  0  0  0  0  0  0  0  0
  -22.8485   -2.0292  -13.6381 H   0  0  0  0  0  0  0  0  0  0  0  0
  -27.2723   -1.6878  -10.1515 C   0  0  0  0  0  0  0  0  0  0  0  0
  -25.9035   -1.4842   -9.9656 C   0  0  0  0  0  0  0  0  0  0  0  0
  -25.0349   -1.3719  -11.0521 C   0  0  0  0  0  0  0  0  0  0  0  0
  -25.5283   -1.4623  -12.3729 C   0  0  0  0  0  0  0  0  0  0  0  0
  -24.7541   -1.3671  -13.5457 C   0  0  0  0  0  0  0  0  0  0  0  0
  -25.3279   -1.4064  -14.7629 N   0  0  0  0  0  0  0  0  0  0  0  0
  -26.6494   -1.5543  -14.8229 C   0  0  0  0  0  0  0  0  0  0  0  0
  -27.4688   -1.6879  -13.7800 N   0  0  0  0  0  0  0  0  0  0  0  0
  -26.9028   -1.6416  -12.5701 C   0  0  0  0  0  0  0  0  0  0  0  0
  -27.7397   -1.7615  -11.4657 C   0  0  0  0  0  0  0  0  0  0  0  0
  -28.3724   -2.9547   -6.3388 N   0  0  0  0  0  0  0  0  0  0  0  0
  -27.5720   -1.7296   -6.5993 C   0  0  0  0  0  0  0  0  0  0  0  0
  -27.9755   -0.9400   -7.8672 C   0  0  0  0  0  0  0  0  0  0  0  0
  -28.1136   -1.8053   -9.0542 N   0  0  0  0  0  0  0  0  0  0  0  0
  -28.7852   -3.1025   -8.8478 C   0  0  0  0  0  0  0  0  0  0  0  0
  -28.2873   -3.7914   -7.5577 C   0  0  0  0  0  0  0  0  0  0  0  0
  -30.5264   -3.7741   -5.3602 C   0  0  0  0  0  0  0  0  0  0  0  0
  -29.7571   -2.6083   -5.9735 C   0  0  0  0  0  0  0  0  0  0  0  0
  -22.6616   -0.0589  -13.7938 C   0  0  0  0  0  0  0  0  0  0  0  0
  -21.3686   -0.0410  -14.3633 C   0  0  0  0  0  0  0  0  0  0  0  0
  -20.9818    1.2804  -14.3974 C   0  0  0  0  0  0  0  0  0  0  0  0
  -22.0960    1.9717  -14.0086 N   0  0  0  0  0  0  0  0  0  0  0  0
  -23.1221    1.1845  -13.6290 N   0  0  0  0  0  0  0  0  0  0  0  0
  -22.2175    2.9766  -13.9418 H   0  0  0  0  0  0  0  0  0  0  0  0
  -19.6628    1.9261  -14.6854 C   0  0  0  0  0  0  0  0  0  0  0  0
  -18.5637    0.9025  -15.0124 C   0  0  0  0  0  0  0  0  0  0  0  0
  -17.1481    1.4711  -15.0511 C   0  0  0  0  0  0  0  0  0  0  0  0
  -16.0381    0.7069  -14.5885 C   0  0  0  0  0  0  0  0  0  0  0  0
  -16.3779   -0.8155  -13.8187 Cl  0  0  0  0  0  0  0  0  0  0  0  0
  -14.7239    1.1891  -14.7506 C   0  0  0  0  0  0  0  0  0  0  0  0
  -14.5302    2.4460  -15.3537 C   0  0  0  0  0  0  0  0  0  0  0  0
  -15.5973    3.2376  -15.7692 C   0  0  0  0  0  0  0  0  0  0  0  0
  -16.9064    2.7499  -15.6038 C   0  0  0  0  0  0  0  0  0  0  0  0
  -18.2364    3.7635  -16.0909 Cl  0  0  0  0  0  0  0  0  0  0  0  0
  -13.5149    0.6339  -14.4263 O   0  0  0  0  0  0  0  0  0  0  0  0
  -12.6040    1.2746  -13.5519 C   0  0  0  0  0  0  0  0  0  0  0  0
  -15.4613    4.4727  -16.3492 O   0  0  0  0  0  0  0  0  0  0  0  0
  -15.0792    4.5400  -17.7173 C   0  0  0  0  0  0  0  0  0  0  0  0
 19 20  1  0  0  0
 20 13  1  0  0  0
 13 14  1  0  0  0
 13 18  1  0  0  0
 14 15  1  0  0  0
 15 16  1  0  0  0
 16  3  1  0  0  0
 16 17  1  0  0  0
  3  4  1  0  0  0
  3 12  2  0  0  0
  4  5  2  0  0  0
  5  6  1  0  0  0
  6  7  1  0  0  0
  6 11  2  0  0  0
  7  1  1  0  0  0
  7  8  2  0  0  0
  1 21  1  0  0  0
  1  2  1  0  0  0
 21 22  1  0  0  0
 21 25  2  0  0  0
 22 23  2  0  0  0
 23 27  1  0  0  0
 23 24  1  0  0  0
 27 28  1  0  0  0
 28 29  1  0  0  0
 29 30  1  0  0  0
 29 35  2  0  0  0
 30 31  1  0  0  0
 30 32  2  0  0  0
 32 37  1  0  0  0
 32 33  1  0  0  0
 37 38  1  0  0  0
 33 34  2  0  0  0
 34 39  1  0  0  0
 34 35  1  0  0  0
 39 40  1  0  0  0
 35 36  1  0  0  0
 24 25  1  0  0  0
 24 26  1  0  0  0
  8  9  1  0  0  0
  9 10  2  0  0  0
 10 11  1  0  0  0
 11 12  1  0  0  0
 17 18  1  0  0  0
M  END
> <minimizedAffinity>
-8.81126

$$$$
