CHEMBL3221262


 34 36  0  0  0  0  0  0  0  0999 V2000
  -24.7276   -1.4516  -12.8576 C   0  0  0  0  0  0  0  0  0  0  0  0
  -26.0143   -1.5416  -13.3987 C   0  0  0  0  0  0  0  0  0  0  0  0
  -27.1137   -1.8268  -12.5810 C   0  0  0  0  0  0  0  0  0  0  0  0
  -28.7042   -1.9355  -13.3250 Cl  0  0  0  0  0  0  0  0  0  0  0  0
  -26.9249   -2.0436  -11.1989 C   0  0  0  0  0  0  0  0  0  0  0  0
  -25.6214   -1.9333  -10.6690 C   0  0  0  0  0  0  0  0  0  0  0  0
  -24.5337   -1.6403  -11.4857 C   0  0  0  0  0  0  0  0  0  0  0  0
  -22.9387   -1.4813  -10.7614 Cl  0  0  0  0  0  0  0  0  0  0  0  0
  -21.9981    0.3378  -14.5090 N   0  0  0  0  0  0  0  0  0  0  0  0
  -23.0786    0.0896  -13.7221 C   0  0  0  0  0  0  0  0  0  0  0  0
  -23.5420    0.9831  -13.0219 O   0  0  0  0  0  0  0  0  0  0  0  0
  -23.6292   -1.1494  -13.6962 N   0  0  0  0  0  0  0  0  0  0  0  0
  -21.6124   -0.4241  -15.0913 H   0  0  0  0  0  0  0  0  0  0  0  0
  -23.2109   -1.9125  -14.2488 H   0  0  0  0  0  0  0  0  0  0  0  0
  -21.3526    1.6330  -14.5067 C   0  0  0  0  0  0  0  0  0  0  0  0
  -19.9648    1.5642  -15.1544 C   0  0  0  0  0  0  0  0  0  0  0  0
  -17.9023    2.8903  -15.8903 C   0  0  0  0  0  0  0  0  0  0  0  0
  -19.3151    2.9487  -15.3055 C   0  0  0  0  0  0  0  0  0  0  0  0
  -28.0311   -2.3122  -10.3349 N   0  0  0  0  0  0  0  0  0  0  0  0
  -28.8930   -2.7003  -10.7429 H   0  0  0  0  0  0  0  0  0  0  0  0
  -27.9813   -2.0308   -8.9354 C   0  0  0  0  0  0  0  0  0  0  0  0
  -27.7550   -0.7494   -8.5334 N   0  0  0  0  0  0  0  0  0  0  0  0
  -27.6998   -0.4055   -7.2237 C   0  0  0  0  0  0  0  0  0  0  0  0
  -27.9004   -1.3456   -6.2722 N   0  0  0  0  0  0  0  0  0  0  0  0
  -28.1437   -2.6385   -6.6045 C   0  0  0  0  0  0  0  0  0  0  0  0
  -28.3922   -3.5705   -5.6007 C   0  0  0  0  0  0  0  0  0  0  0  0
  -28.6781   -4.9207   -5.9037 C   0  0  0  0  0  0  0  0  0  0  0  0
  -28.6859   -5.3206   -7.2772 C   0  0  0  0  0  0  0  0  0  0  0  0
  -28.4331   -4.3680   -8.2710 C   0  0  0  0  0  0  0  0  0  0  0  0
  -28.1706   -3.0291   -7.9560 C   0  0  0  0  0  0  0  0  0  0  0  0
  -28.9510   -5.8053   -4.9036 O   0  0  0  0  0  0  0  0  0  0  0  0
  -30.0328   -5.7160   -4.0360 C   0  0  0  0  0  0  0  0  0  0  0  0
  -28.9360   -6.5726   -7.7501 O   0  0  0  0  0  0  0  0  0  0  0  0
  -30.0717   -7.3437   -7.7014 C   0  0  0  0  0  0  0  0  0  0  0  0
 17 18  1  0  0  0
 18 16  1  0  0  0
 16 15  1  0  0  0
 15  9  1  0  0  0
  9 10  1  0  0  0
  9 13  1  0  0  0
 10 11  2  0  0  0
 10 12  1  0  0  0
 12  1  1  0  0  0
 12 14  1  0  0  0
  1  2  1  0  0  0
  1  7  2  0  0  0
  2  3  2  0  0  0
  3  4  1  0  0  0
  3  5  1  0  0  0
  5 19  1  0  0  0
  5  6  2  0  0  0
 19 21  1  0  0  0
 19 20  1  0  0  0
 21 22  1  0  0  0
 21 30  2  0  0  0
 22 23  2  0  0  0
 23 24  1  0  0  0
 24 25  2  0  0  0
 25 26  1  0  0  0
 25 30  1  0  0  0
 26 27  2  0  0  0
 27 31  1  0  0  0
 27 28  1  0  0  0
 31 32  1  0  0  0
 28 33  1  0  0  0
 28 29  2  0  0  0
 33 34  1  0  0  0
 29 30  1  0  0  0
  6  7  1  0  0  0
  7  8  1  0  0  0
M  END
> <minimizedAffinity>
-8.33394

$$$$
