CHEMBL4171943


 31 33  0  0  0  0  0  0  0  0999 V2000
  -19.8024    1.4619  -14.8299 C   0  0  0  0  0  0  0  0  0  0  0  0
  -19.6233    2.7773  -15.2667 C   0  0  0  0  0  0  0  0  0  0  0  0
  -18.4128    3.2095  -15.8075 C   0  0  0  0  0  0  0  0  0  0  0  0
  -17.3160    2.3602  -15.9122 C   0  0  0  0  0  0  0  0  0  0  0  0
  -17.4642    1.0448  -15.4576 C   0  0  0  0  0  0  0  0  0  0  0  0
  -18.6917    0.6036  -14.9287 C   0  0  0  0  0  0  0  0  0  0  0  0
  -23.5471    0.1790  -13.2902 C   0  0  0  0  0  0  0  0  0  0  0  0
  -22.7387   -0.7479  -13.9274 C   0  0  0  0  0  0  0  0  0  0  0  0
  -21.5263   -0.3216  -14.4598 C   0  0  0  0  0  0  0  0  0  0  0  0
  -21.1226    1.0158  -14.3414 C   0  0  0  0  0  0  0  0  0  0  0  0
  -22.0454    1.8681  -13.7370 C   0  0  0  0  0  0  0  0  0  0  0  0
  -23.2581    1.4925  -13.2458 N   0  0  0  0  0  0  0  0  0  0  0  0
  -24.7156   -1.1336  -11.6142 C   0  0  0  0  0  0  0  0  0  0  0  0
  -23.7422   -1.7441  -11.1973 O   0  0  0  0  0  0  0  0  0  0  0  0
  -24.7161   -0.2006  -12.6303 N   0  0  0  0  0  0  0  0  0  0  0  0
  -25.4349    0.5065  -12.6385 H   0  0  0  0  0  0  0  0  0  0  0  0
  -27.1557   -1.2788  -11.7362 C   0  0  0  0  0  0  0  0  0  0  0  0
  -26.0518   -1.2860  -10.9798 C   0  0  0  0  0  0  0  0  0  0  0  0
  -16.0768    2.7522  -16.4832 N   0  0  0  0  0  0  0  0  0  0  0  0
  -15.6543    4.0641  -16.6210 C   0  0  0  0  0  0  0  0  0  0  0  0
  -16.2316    5.0438  -16.1561 O   0  0  0  0  0  0  0  0  0  0  0  0
  -14.5056    4.1727  -17.3988 N   0  0  0  0  0  0  0  0  0  0  0  0
  -15.4160    2.0283  -16.7034 H   0  0  0  0  0  0  0  0  0  0  0  0
  -14.4425    3.4906  -18.1410 H   0  0  0  0  0  0  0  0  0  0  0  0
  -13.9813    5.4602  -17.6801 C   0  0  0  0  0  0  0  0  0  0  0  0
  -12.8700    5.9605  -16.9859 C   0  0  0  0  0  0  0  0  0  0  0  0
  -12.4523    7.2783  -17.1750 C   0  0  0  0  0  0  0  0  0  0  0  0
  -13.1483    8.0887  -18.0596 C   0  0  0  0  0  0  0  0  0  0  0  0
  -12.7821    9.3675  -18.2093 F   0  0  0  0  0  0  0  0  0  0  0  0
  -14.2294    7.5952  -18.7844 C   0  0  0  0  0  0  0  0  0  0  0  0
  -14.6349    6.2668  -18.6147 C   0  0  0  0  0  0  0  0  0  0  0  0
 17 18  2  0  0  0
 18 13  1  0  0  0
 13 14  2  0  0  0
 13 15  1  0  0  0
 15  7  1  0  0  0
 15 16  1  0  0  0
  7  8  1  0  0  0
  7 12  2  0  0  0
  8  9  2  0  0  0
  9 10  1  0  0  0
 10  1  1  0  0  0
 10 11  2  0  0  0
  1  2  1  0  0  0
  1  6  2  0  0  0
  2  3  2  0  0  0
  3  4  1  0  0  0
  4 19  1  0  0  0
  4  5  2  0  0  0
 19 20  1  0  0  0
 19 23  1  0  0  0
 20 21  2  0  0  0
 20 22  1  0  0  0
 22 25  1  0  0  0
 22 24  1  0  0  0
 25 26  1  0  0  0
 25 31  2  0  0  0
 26 27  2  0  0  0
 27 28  1  0  0  0
 28 29  1  0  0  0
 28 30  2  0  0  0
 30 31  1  0  0  0
  5  6  1  0  0  0
 11 12  1  0  0  0
M  END
> <minimizedAffinity>
-8.70460

$$$$
