CHEMBL150405


 35 40  0  0  0  0  0  0  0  0999 V2000
  -28.7983   -4.8400   -4.2124 C   0  0  0  0  0  0  0  0  0  0  0  0
  -29.9949   -4.9254   -4.9261 C   0  0  0  0  0  0  0  0  0  0  0  0
  -30.2977   -6.0206   -5.7293 C   0  0  0  0  0  0  0  0  0  0  0  0
  -29.3283   -7.0268   -5.8225 C   0  0  0  0  0  0  0  0  0  0  0  0
  -28.1768   -7.0196   -5.0272 C   0  0  0  0  0  0  0  0  0  0  0  0
  -27.9100   -5.9330   -4.1988 C   0  0  0  0  0  0  0  0  0  0  0  0
  -27.6071   -8.2338   -5.3002 C   0  0  0  0  0  0  0  0  0  0  0  0
  -26.8060   -9.0299   -4.4460 C   0  0  0  0  0  0  0  0  0  0  0  0
  -26.9174  -10.4738   -4.6558 C   0  0  0  0  0  0  0  0  0  0  0  0
  -27.6071  -10.9491   -5.7874 C   0  0  0  0  0  0  0  0  0  0  0  0
  -27.5298  -10.0068   -6.8177 C   0  0  0  0  0  0  0  0  0  0  0  0
  -28.0686   -8.8032   -6.4551 C   0  0  0  0  0  0  0  0  0  0  0  0
  -29.3483   -8.2414   -6.5523 N   0  0  0  0  0  0  0  0  0  0  0  0
  -27.4141  -10.7373   -8.0840 C   0  0  0  0  0  0  0  0  0  0  0  0
  -28.4647  -11.7683   -7.7915 C   0  0  0  0  0  0  0  0  0  0  0  0
  -29.4644  -12.0008   -8.7318 C   0  0  0  0  0  0  0  0  0  0  0  0
  -30.7174  -12.3104   -8.2460 C   0  0  0  0  0  0  0  0  0  0  0  0
  -30.9050  -12.4660   -6.8576 C   0  0  0  0  0  0  0  0  0  0  0  0
  -29.8458  -12.2902   -5.9088 C   0  0  0  0  0  0  0  0  0  0  0  0
  -28.5769  -11.9103   -6.3623 C   0  0  0  0  0  0  0  0  0  0  0  0
  -25.6552  -11.0227   -4.1618 C   0  0  0  0  0  0  0  0  0  0  0  0
  -25.1650  -12.1510   -4.2252 O   0  0  0  0  0  0  0  0  0  0  0  0
  -24.9491   -9.9218   -3.6589 N   0  0  0  0  0  0  0  0  0  0  0  0
  -25.5869   -8.6197   -3.7709 C   0  0  0  0  0  0  0  0  0  0  0  0
  -23.9470  -10.0089   -3.6083 H   0  0  0  0  0  0  0  0  0  0  0  0
  -28.4195   -3.5474   -3.5306 C   0  0  0  0  0  0  0  0  0  0  0  0
  -29.1722   -2.1279   -4.3171 S   0  0  0  0  0  0  0  0  0  0  0  0
  -27.9686   -2.1566   -6.7376 C   0  0  0  0  0  0  0  0  0  0  0  0
  -27.7437   -1.6117   -5.3388 C   0  0  0  0  0  0  0  0  0  0  0  0
  -27.6113   -0.0910   -5.3449 C   0  0  0  0  0  0  0  0  0  0  0  0
  -30.5521   -9.0458   -6.7335 C   0  0  0  0  0  0  0  0  0  0  0  0
  -31.5528   -8.7750   -7.8500 C   0  0  0  0  0  0  0  0  0  0  0  0
  -32.9703   -8.7956   -7.3364 C   0  0  0  0  0  0  0  0  0  0  0  0
  -33.4734  -10.1287   -7.3396 O   0  0  0  0  0  0  0  0  0  0  0  0
  -33.5234  -10.4249   -8.2665 H   0  0  0  0  0  0  0  0  0  0  0  0
 28 29  1  0  0  0
 29 30  1  0  0  0
 29 27  1  0  0  0
 27 26  1  0  0  0
 26  1  1  0  0  0
  1  2  1  0  0  0
  1  6  2  0  0  0
  2  3  2  0  0  0
  3  4  1  0  0  0
  4  5  2  0  0  0
  4 13  1  0  0  0
  5  6  1  0  0  0
  5  7  1  0  0  0
  7  8  1  0  0  0
  7 12  2  0  0  0
  8  9  2  0  0  0
  8 24  1  0  0  0
  9 10  1  0  0  0
  9 21  1  0  0  0
 10 11  2  0  0  0
 10 20  1  0  0  0
 11 12  1  0  0  0
 11 14  1  0  0  0
 12 13  1  0  0  0
 13 31  1  0  0  0
 31 32  1  0  0  0
 32 33  1  0  0  0
 33 34  1  0  0  0
 34 35  1  0  0  0
 14 15  1  0  0  0
 15 16  1  0  0  0
 15 20  2  0  0  0
 16 17  2  0  0  0
 17 18  1  0  0  0
 18 19  2  0  0  0
 19 20  1  0  0  0
 21 22  2  0  0  0
 21 23  1  0  0  0
 23 24  1  0  0  0
 23 25  1  0  0  0
M  END
> <minimizedAffinity>
-7.75643

$$$$
