CHEMBL250228


 26 28  0  0  0  0  0  0  0  0999 V2000
  -30.3264   -5.8292   -4.6278 C   0  0  0  0  0  0  0  0  0  0  0  0
  -31.5574   -6.0146   -3.9716 C   0  0  0  0  0  0  0  0  0  0  0  0
  -32.1278   -4.9646   -3.2678 C   0  0  0  0  0  0  0  0  0  0  0  0
  -31.4323   -3.7764   -3.2101 C   0  0  0  0  0  0  0  0  0  0  0  0
  -30.2192   -3.5893   -3.7738 N   0  0  0  0  0  0  0  0  0  0  0  0
  -29.6508   -4.6020   -4.4786 C   0  0  0  0  0  0  0  0  0  0  0  0
  -28.7957   -7.5744   -5.0100 O   0  0  0  0  0  0  0  0  0  0  0  0
  -29.7576   -6.9455   -5.4501 C   0  0  0  0  0  0  0  0  0  0  0  0
  -30.3748   -7.1350   -6.6847 N   0  0  0  0  0  0  0  0  0  0  0  0
  -31.0592   -6.4602   -6.9712 H   0  0  0  0  0  0  0  0  0  0  0  0
  -30.0219   -8.0655   -7.6826 C   0  0  0  0  0  0  0  0  0  0  0  0
  -30.8261   -9.1506   -8.0581 C   0  0  0  0  0  0  0  0  0  0  0  0
  -30.3649  -10.0818   -8.9914 C   0  0  0  0  0  0  0  0  0  0  0  0
  -29.1143   -9.9234   -9.5760 C   0  0  0  0  0  0  0  0  0  0  0  0
  -28.5289  -11.1118  -10.6776 Cl  0  0  0  0  0  0  0  0  0  0  0  0
  -28.3217   -8.8272   -9.2598 C   0  0  0  0  0  0  0  0  0  0  0  0
  -28.7799   -7.8953   -8.3199 C   0  0  0  0  0  0  0  0  0  0  0  0
  -28.4664   -4.3058   -5.1506 N   0  0  0  0  0  0  0  0  0  0  0  0
  -27.9874   -5.1281   -5.5178 H   0  0  0  0  0  0  0  0  0  0  0  0
  -27.5963   -3.2665   -4.6083 C   0  0  0  0  0  0  0  0  0  0  0  0
  -27.7808   -1.9164   -5.2758 C   0  0  0  0  0  0  0  0  0  0  0  0
  -27.8211   -1.8020   -6.6695 C   0  0  0  0  0  0  0  0  0  0  0  0
  -28.0107   -0.5492   -7.2381 C   0  0  0  0  0  0  0  0  0  0  0  0
  -28.1800    0.5825   -6.5242 N   0  0  0  0  0  0  0  0  0  0  0  0
  -28.1516    0.4591   -5.1817 C   0  0  0  0  0  0  0  0  0  0  0  0
  -27.9637   -0.7513   -4.5196 C   0  0  0  0  0  0  0  0  0  0  0  0
  7  8  2  0  0  0
  8  9  1  0  0  0
  8  1  1  0  0  0
  9 11  1  0  0  0
  9 10  1  0  0  0
 11 12  1  0  0  0
 11 17  2  0  0  0
 12 13  2  0  0  0
 13 14  1  0  0  0
 14 15  1  0  0  0
 14 16  2  0  0  0
 16 17  1  0  0  0
  1  2  1  0  0  0
  1  6  2  0  0  0
  2  3  2  0  0  0
  3  4  1  0  0  0
  4  5  2  0  0  0
  5  6  1  0  0  0
  6 18  1  0  0  0
 18 20  1  0  0  0
 18 19  1  0  0  0
 20 21  1  0  0  0
 21 22  1  0  0  0
 21 26  2  0  0  0
 22 23  2  0  0  0
 23 24  1  0  0  0
 24 25  2  0  0  0
 25 26  1  0  0  0
M  END
> <minimizedAffinity>
-7.74101

$$$$
