CHEMBL401897


 36 41  0  0  0  0  0  0  0  0999 V2000
  -29.7158   -5.0323   -5.8119 N   0  0  0  0  0  0  0  0  0  0  0  0
  -29.1883   -4.0732   -6.7174 C   0  0  0  0  0  0  0  0  0  0  0  0
  -29.4112   -2.6886   -6.8715 C   0  0  0  0  0  0  0  0  0  0  0  0
  -28.7676   -2.0077   -7.9309 C   0  0  0  0  0  0  0  0  0  0  0  0
  -27.9007   -2.6668   -8.8103 C   0  0  0  0  0  0  0  0  0  0  0  0
  -27.7154   -4.0428   -8.6635 C   0  0  0  0  0  0  0  0  0  0  0  0
  -28.3800   -4.7489   -7.6415 C   0  0  0  0  0  0  0  0  0  0  0  0
  -28.5917   -6.0708   -7.3012 C   0  0  0  0  0  0  0  0  0  0  0  0
  -28.3210   -7.1150   -8.1934 C   0  0  0  0  0  0  0  0  0  0  0  0
  -29.0155   -8.3182   -7.9410 C   0  0  0  0  0  0  0  0  0  0  0  0
  -29.8408   -8.5178   -6.8374 C   0  0  0  0  0  0  0  0  0  0  0  0
  -29.5525   -7.6458   -5.7347 C   0  0  0  0  0  0  0  0  0  0  0  0
  -29.2673   -6.3211   -6.1342 C   0  0  0  0  0  0  0  0  0  0  0  0
  -28.8592   -8.4020   -4.5349 C   0  0  0  0  0  0  0  0  0  0  0  0
  -28.3524   -9.8651   -4.9052 C   0  0  0  0  0  0  0  0  0  0  0  0
  -29.5085  -10.5654   -5.5286 C   0  0  0  0  0  0  0  0  0  0  0  0
  -30.1506  -11.6436   -5.0791 N   0  0  0  0  0  0  0  0  0  0  0  0
  -31.3444  -11.5631   -5.7220 N   0  0  0  0  0  0  0  0  0  0  0  0
  -32.4123  -12.4651   -5.3630 C   0  0  0  0  0  0  0  0  0  0  0  0
  -31.4807  -10.4325   -6.4910 C   0  0  0  0  0  0  0  0  0  0  0  0
  -30.2344   -9.8594   -6.4993 C   0  0  0  0  0  0  0  0  0  0  0  0
  -28.5999   -9.2577   -8.9490 C   0  0  0  0  0  0  0  0  0  0  0  0
  -28.8458  -10.4463   -9.1494 O   0  0  0  0  0  0  0  0  0  0  0  0
  -27.6886   -8.5612   -9.7342 N   0  0  0  0  0  0  0  0  0  0  0  0
  -27.4822   -7.1749   -9.3871 C   0  0  0  0  0  0  0  0  0  0  0  0
  -27.1883   -9.0428  -10.4648 H   0  0  0  0  0  0  0  0  0  0  0  0
  -27.1622   -1.9737   -9.9214 C   0  0  0  0  0  0  0  0  0  0  0  0
  -27.9780   -1.2725  -10.9893 C   0  0  0  0  0  0  0  0  0  0  0  0
  -25.8531   -1.9478   -9.9312 N   0  0  0  0  0  0  0  0  0  0  0  0
  -25.3872   -1.2314  -11.0535 O   0  0  0  0  0  0  0  0  0  0  0  0
  -24.0452   -1.6049  -11.3805 C   0  0  0  0  0  0  0  0  0  0  0  0
  -23.9449   -1.7740  -12.9090 C   0  0  0  0  0  0  0  0  0  0  0  0
  -25.3065   -1.5997  -13.5887 C   0  0  0  0  0  0  0  0  0  0  0  0
  -22.9343   -0.8058  -13.5228 C   0  0  0  0  0  0  0  0  0  0  0  0
  -30.2866   -4.1253   -3.5664 C   0  0  0  0  0  0  0  0  0  0  0  0
  -30.7918   -4.7379   -4.8686 C   0  0  0  0  0  0  0  0  0  0  0  0
 35 36  1  0  0  0
 36  1  1  0  0  0
  1  2  1  0  0  0
  1 13  1  0  0  0
  2  3  1  0  0  0
  2  7  2  0  0  0
  3  4  2  0  0  0
  4  5  1  0  0  0
  5 27  1  0  0  0
  5  6  2  0  0  0
 27 28  1  0  0  0
 27 29  2  0  0  0
 29 30  1  0  0  0
 30 31  1  0  0  0
 31 32  1  0  0  0
 32 33  1  0  0  0
 32 34  1  0  0  0
  6  7  1  0  0  0
  7  8  1  0  0  0
  8  9  1  0  0  0
  8 13  2  0  0  0
  9 10  2  0  0  0
  9 25  1  0  0  0
 10 11  1  0  0  0
 10 22  1  0  0  0
 11 12  2  0  0  0
 11 21  1  0  0  0
 12 13  1  0  0  0
 12 14  1  0  0  0
 14 15  1  0  0  0
 15 16  1  0  0  0
 16 17  2  0  0  0
 16 21  1  0  0  0
 17 18  1  0  0  0
 18 19  1  0  0  0
 18 20  1  0  0  0
 20 21  2  0  0  0
 22 23  2  0  0  0
 22 24  1  0  0  0
 24 25  1  0  0  0
 24 26  1  0  0  0
M  END
> <minimizedAffinity>
-8.11631

$$$$
