CHEMBL4100372


 35 39  0  0  0  0  0  0  0  0999 V2000
  -29.7943   -7.6624   -4.6788 N   0  0  0  0  0  0  0  0  0  0  0  0
  -29.8118   -8.5428   -5.7492 C   0  0  0  0  0  0  0  0  0  0  0  0
  -29.4849   -8.2598   -6.8979 O   0  0  0  0  0  0  0  0  0  0  0  0
  -30.1816   -9.8318   -5.3876 N   0  0  0  0  0  0  0  0  0  0  0  0
  -29.8679   -8.0587   -3.7537 H   0  0  0  0  0  0  0  0  0  0  0  0
  -30.8544   -9.9068   -4.6390 H   0  0  0  0  0  0  0  0  0  0  0  0
  -28.8074   -3.5098   -5.0024 C   0  0  0  0  0  0  0  0  0  0  0  0
  -30.0483   -4.0003   -5.4031 C   0  0  0  0  0  0  0  0  0  0  0  0
  -30.3597   -5.3579   -5.3455 C   0  0  0  0  0  0  0  0  0  0  0  0
  -29.4854   -6.2808   -4.7776 C   0  0  0  0  0  0  0  0  0  0  0  0
  -28.2769   -5.7992   -4.2678 C   0  0  0  0  0  0  0  0  0  0  0  0
  -27.9370   -4.4346   -4.3936 C   0  0  0  0  0  0  0  0  0  0  0  0
  -27.9719   -3.2374   -8.4653 C   0  0  0  0  0  0  0  0  0  0  0  0
  -27.9116   -1.9042   -7.8057 C   0  0  0  0  0  0  0  0  0  0  0  0
  -27.6002   -0.8548   -8.5869 N   0  0  0  0  0  0  0  0  0  0  0  0
  -27.5977    0.1760   -7.7431 N   0  0  0  0  0  0  0  0  0  0  0  0
  -27.8941   -0.1471   -6.4550 C   0  0  0  0  0  0  0  0  0  0  0  0
  -27.9451    0.7312   -5.4383 N   0  0  0  0  0  0  0  0  0  0  0  0
  -28.2792    0.1562   -4.2684 C   0  0  0  0  0  0  0  0  0  0  0  0
  -28.5502   -1.1920   -4.0843 C   0  0  0  0  0  0  0  0  0  0  0  0
  -28.4840   -2.0858   -5.1718 C   0  0  0  0  0  0  0  0  0  0  0  0
  -28.1313   -1.5204   -6.4327 C   0  0  0  0  0  0  0  0  0  0  0  0
  -27.3727    1.1052   -8.0890 H   0  0  0  0  0  0  0  0  0  0  0  0
  -30.3737  -10.7749   -6.4386 C   0  0  0  0  0  0  0  0  0  0  0  0
  -31.6559  -10.8630   -7.0177 C   0  0  0  0  0  0  0  0  0  0  0  0
  -31.8946  -11.7031   -8.1000 C   0  0  0  0  0  0  0  0  0  0  0  0
  -30.8544  -12.4651   -8.6077 C   0  0  0  0  0  0  0  0  0  0  0  0
  -29.5910  -12.4064   -8.0093 C   0  0  0  0  0  0  0  0  0  0  0  0
  -29.3092  -11.5805   -6.9008 C   0  0  0  0  0  0  0  0  0  0  0  0
  -28.0433  -11.5987   -6.3503 N   0  0  0  0  0  0  0  0  0  0  0  0
  -27.7078  -12.4659   -5.2142 C   0  0  0  0  0  0  0  0  0  0  0  0
  -27.0943  -11.6038   -4.0966 C   0  0  0  0  0  0  0  0  0  0  0  0
  -25.9732  -10.8268   -4.5571 O   0  0  0  0  0  0  0  0  0  0  0  0
  -26.3574   -9.9783   -5.6570 C   0  0  0  0  0  0  0  0  0  0  0  0
  -26.9078  -10.8039   -6.8294 C   0  0  0  0  0  0  0  0  0  0  0  0
 13 14  1  0  0  0
 14 15  2  0  0  0
 14 22  1  0  0  0
 15 16  1  0  0  0
 16 17  1  0  0  0
 16 23  1  0  0  0
 17 18  1  0  0  0
 17 22  2  0  0  0
 18 19  2  0  0  0
 19 20  1  0  0  0
 20 21  2  0  0  0
 21  7  1  0  0  0
 21 22  1  0  0  0
  7  8  1  0  0  0
  7 12  2  0  0  0
  8  9  2  0  0  0
  9 10  1  0  0  0
 10  1  1  0  0  0
 10 11  2  0  0  0
  1  2  1  0  0  0
  1  5  1  0  0  0
  2  3  2  0  0  0
  2  4  1  0  0  0
  4 24  1  0  0  0
  4  6  1  0  0  0
 24 25  1  0  0  0
 24 29  2  0  0  0
 25 26  2  0  0  0
 26 27  1  0  0  0
 27 28  2  0  0  0
 28 29  1  0  0  0
 29 30  1  0  0  0
 30 31  1  0  0  0
 30 35  1  0  0  0
 31 32  1  0  0  0
 32 33  1  0  0  0
 33 34  1  0  0  0
 34 35  1  0  0  0
 11 12  1  0  0  0
M  END
> <minimizedAffinity>
-7.19938

$$$$
