CHEMBL3542344


 31 33  0  0  0  0  0  0  0  0999 V2000
  -29.8361   -4.5453   -5.7114 C   0  0  0  0  0  0  0  0  0  0  0  0
  -30.5545   -5.5171   -5.0210 C   0  0  0  0  0  0  0  0  0  0  0  0
  -31.3846   -5.4975   -3.7914 C   0  0  0  0  0  0  0  0  0  0  0  0
  -30.4599   -6.6892   -5.7327 N   0  0  0  0  0  0  0  0  0  0  0  0
  -29.7245   -6.5098   -6.8708 C   0  0  0  0  0  0  0  0  0  0  0  0
  -29.3196   -5.1820   -6.8957 C   0  0  0  0  0  0  0  0  0  0  0  0
  -28.4918   -4.5084   -7.9443 C   0  0  0  0  0  0  0  0  0  0  0  0
  -30.9094   -7.5577   -5.4580 H   0  0  0  0  0  0  0  0  0  0  0  0
  -29.4900   -7.5605   -7.7899 C   0  0  0  0  0  0  0  0  0  0  0  0
  -28.8755   -8.7388   -7.6144 C   0  0  0  0  0  0  0  0  0  0  0  0
  -28.2228   -9.3897   -6.4245 C   0  0  0  0  0  0  0  0  0  0  0  0
  -28.1108   -8.9418   -5.2885 O   0  0  0  0  0  0  0  0  0  0  0  0
  -27.7644  -10.6168   -6.8784 N   0  0  0  0  0  0  0  0  0  0  0  0
  -28.0575  -10.7996   -8.2282 C   0  0  0  0  0  0  0  0  0  0  0  0
  -27.7509  -11.8885   -9.0202 C   0  0  0  0  0  0  0  0  0  0  0  0
  -28.1477  -11.8389  -10.3617 C   0  0  0  0  0  0  0  0  0  0  0  0
  -28.8270  -10.7208  -10.8622 C   0  0  0  0  0  0  0  0  0  0  0  0
  -29.1930  -10.6935  -12.1512 F   0  0  0  0  0  0  0  0  0  0  0  0
  -29.1303   -9.6313  -10.0553 C   0  0  0  0  0  0  0  0  0  0  0  0
  -28.7362   -9.6862   -8.7302 C   0  0  0  0  0  0  0  0  0  0  0  0
  -27.2789  -11.2745   -6.2865 H   0  0  0  0  0  0  0  0  0  0  0  0
  -28.5561   -2.8553   -4.5932 N   0  0  0  0  0  0  0  0  0  0  0  0
  -29.6566   -3.1373   -5.3615 C   0  0  0  0  0  0  0  0  0  0  0  0
  -30.4277   -2.2599   -5.7528 O   0  0  0  0  0  0  0  0  0  0  0  0
  -27.8859   -3.5934   -4.4351 H   0  0  0  0  0  0  0  0  0  0  0  0
  -28.2227   -1.4928   -4.2430 C   0  0  0  0  0  0  0  0  0  0  0  0
  -27.4285   -0.7705   -5.3395 C   0  0  0  0  0  0  0  0  0  0  0  0
  -27.7952    0.6496   -5.4168 N   0  0  0  0  0  0  0  0  0  0  0  0
  -28.1551    0.9625   -4.5165 H   0  0  0  0  0  0  0  0  0  0  0  0
  -30.1458    1.1815   -5.8100 C   0  0  0  0  0  0  0  0  0  0  0  0
  -28.7997    0.8824   -6.4521 C   0  0  0  0  0  0  0  0  0  0  0  0
 30 31  1  0  0  0
 31 28  1  0  0  0
 28 27  1  0  0  0
 28 29  1  0  0  0
 27 26  1  0  0  0
 26 22  1  0  0  0
 22 23  1  0  0  0
 22 25  1  0  0  0
 23 24  2  0  0  0
 23  1  1  0  0  0
  1  2  2  0  0  0
  1  6  1  0  0  0
  2  3  1  0  0  0
  2  4  1  0  0  0
  4  5  1  0  0  0
  4  8  1  0  0  0
  5  9  1  0  0  0
  5  6  2  0  0  0
  9 10  2  0  0  0
 10 11  1  0  0  0
 10 20  1  0  0  0
 11 12  2  0  0  0
 11 13  1  0  0  0
 13 14  1  0  0  0
 13 21  1  0  0  0
 14 15  1  0  0  0
 14 20  2  0  0  0
 15 16  2  0  0  0
 16 17  1  0  0  0
 17 18  1  0  0  0
 17 19  2  0  0  0
 19 20  1  0  0  0
  6  7  1  0  0  0
M  END
> <minimizedAffinity>
-8.26343

$$$$
