CHEMBL3633758


 30 32  0  0  0  0  0  0  0  0999 V2000
  -30.5898   -8.1124   -7.4694 C   0  0  0  0  0  0  0  0  0  0  0  0
  -31.3738   -7.6167   -6.4236 C   0  0  0  0  0  0  0  0  0  0  0  0
  -30.9657   -6.5708   -5.6173 C   0  0  0  0  0  0  0  0  0  0  0  0
  -31.7933   -6.1972   -4.6401 N   0  0  0  0  0  0  0  0  0  0  0  0
  -31.3868   -5.1913   -3.8650 C   0  0  0  0  0  0  0  0  0  0  0  0
  -30.2425   -4.5288   -3.9945 N   0  0  0  0  0  0  0  0  0  0  0  0
  -29.4178   -4.9022   -4.9948 C   0  0  0  0  0  0  0  0  0  0  0  0
  -29.7307   -5.9647   -5.8628 C   0  0  0  0  0  0  0  0  0  0  0  0
  -28.9227   -6.4453   -6.9261 C   0  0  0  0  0  0  0  0  0  0  0  0
  -29.3638   -7.4849   -7.7510 C   0  0  0  0  0  0  0  0  0  0  0  0
  -31.3165  -10.3981   -7.6678 C   0  0  0  0  0  0  0  0  0  0  0  0
  -31.0103   -9.1410   -8.2641 O   0  0  0  0  0  0  0  0  0  0  0  0
  -28.2128   -4.1690   -5.1750 N   0  0  0  0  0  0  0  0  0  0  0  0
  -27.5035   -4.7929   -5.5462 H   0  0  0  0  0  0  0  0  0  0  0  0
  -28.1748   -2.8897   -5.7800 C   0  0  0  0  0  0  0  0  0  0  0  0
  -28.0642   -2.7669   -7.1742 C   0  0  0  0  0  0  0  0  0  0  0  0
  -27.9429   -1.5183   -7.7817 C   0  0  0  0  0  0  0  0  0  0  0  0
  -27.9450   -0.3683   -6.9984 C   0  0  0  0  0  0  0  0  0  0  0  0
  -28.0904   -0.4775   -5.6162 C   0  0  0  0  0  0  0  0  0  0  0  0
  -28.0904    0.9477   -4.6495 Cl  0  0  0  0  0  0  0  0  0  0  0  0
  -28.2158   -1.7272   -5.0044 C   0  0  0  0  0  0  0  0  0  0  0  0
  -28.5013   -7.8098   -8.7772 O   0  0  0  0  0  0  0  0  0  0  0  0
  -27.4919   -8.7525   -8.3937 C   0  0  0  0  0  0  0  0  0  0  0  0
  -27.7771  -10.1366   -8.9695 C   0  0  0  0  0  0  0  0  0  0  0  0
  -27.9835   -9.9992  -10.4613 C   0  0  0  0  0  0  0  0  0  0  0  0
  -27.0711   -9.9999  -11.2867 O   0  0  0  0  0  0  0  0  0  0  0  0
  -29.2927   -9.8888  -10.8612 N   0  0  0  0  0  0  0  0  0  0  0  0
  -29.4504   -9.6372  -12.2480 O   0  0  0  0  0  0  0  0  0  0  0  0
  -30.0231   -9.5254  -10.2587 H   0  0  0  0  0  0  0  0  0  0  0  0
  -28.5218   -9.6564  -12.5779 H   0  0  0  0  0  0  0  0  0  0  0  0
 11 12  1  0  0  0
 12  1  1  0  0  0
  1  2  1  0  0  0
  1 10  2  0  0  0
  2  3  2  0  0  0
  3  4  1  0  0  0
  3  8  1  0  0  0
  4  5  2  0  0  0
  5  6  1  0  0  0
  6  7  2  0  0  0
  7 13  1  0  0  0
  7  8  1  0  0  0
 13 15  1  0  0  0
 13 14  1  0  0  0
 15 16  1  0  0  0
 15 21  2  0  0  0
 16 17  2  0  0  0
 17 18  1  0  0  0
 18 19  2  0  0  0
 19 20  1  0  0  0
 19 21  1  0  0  0
  8  9  2  0  0  0
  9 10  1  0  0  0
 10 22  1  0  0  0
 22 23  1  0  0  0
 23 24  1  0  0  0
 24 25  1  0  0  0
 25 26  2  0  0  0
 25 27  1  0  0  0
 27 28  1  0  0  0
 27 29  1  0  0  0
 28 30  1  0  0  0
M  END
> <minimizedAffinity>
-7.96904

$$$$
