CHEMBL1255097


 42 46  0  0  0  0  0  0  0  0999 V2000
  -14.3003    0.7703  -14.0098 N   0  0  0  0  0  0  0  0  0  0  0  0
  -14.2873   -0.5312  -13.5627 C   0  0  0  0  0  0  0  0  0  0  0  0
  -13.3895   -0.8788  -12.7946 O   0  0  0  0  0  0  0  0  0  0  0  0
  -15.2965   -1.3456  -14.0207 N   0  0  0  0  0  0  0  0  0  0  0  0
  -13.6921    1.3548  -13.4481 H   0  0  0  0  0  0  0  0  0  0  0  0
  -15.6182   -1.1251  -14.9541 H   0  0  0  0  0  0  0  0  0  0  0  0
  -15.3962   -2.7061  -13.6446 C   0  0  0  0  0  0  0  0  0  0  0  0
  -16.2221   -3.0994  -12.5898 C   0  0  0  0  0  0  0  0  0  0  0  0
  -16.2881   -4.4413  -12.2071 C   0  0  0  0  0  0  0  0  0  0  0  0
  -15.4893   -5.3956  -12.8372 C   0  0  0  0  0  0  0  0  0  0  0  0
  -14.6981   -5.0222  -13.9287 C   0  0  0  0  0  0  0  0  0  0  0  0
  -14.6683   -3.6845  -14.3412 C   0  0  0  0  0  0  0  0  0  0  0  0
  -13.6550   -3.2511  -15.6750 Cl  0  0  0  0  0  0  0  0  0  0  0  0
  -15.4848   -6.7312  -12.4929 O   0  0  0  0  0  0  0  0  0  0  0  0
  -14.3893   -7.5001  -12.8561 C   0  0  0  0  0  0  0  0  0  0  0  0
  -14.4787   -8.3645  -13.8872 N   0  0  0  0  0  0  0  0  0  0  0  0
  -13.3795   -9.0708  -14.2165 C   0  0  0  0  0  0  0  0  0  0  0  0
  -12.1864   -9.0580  -13.6278 N   0  0  0  0  0  0  0  0  0  0  0  0
  -12.1235   -8.2140  -12.5639 C   0  0  0  0  0  0  0  0  0  0  0  0
  -11.0412   -7.9548  -11.7022 C   0  0  0  0  0  0  0  0  0  0  0  0
  -11.4619   -7.0291  -10.7797 C   0  0  0  0  0  0  0  0  0  0  0  0
  -12.7721   -6.7146  -11.0607 N   0  0  0  0  0  0  0  0  0  0  0  0
  -13.5682   -5.7722  -10.3130 C   0  0  0  0  0  0  0  0  0  0  0  0
  -13.1974   -7.4397  -12.1540 C   0  0  0  0  0  0  0  0  0  0  0  0
  -16.1403    3.1040  -16.1779 C   0  0  0  0  0  0  0  0  0  0  0  0
  -15.1195    2.5124  -15.4300 C   0  0  0  0  0  0  0  0  0  0  0  0
  -15.3780    1.3810  -14.6575 C   0  0  0  0  0  0  0  0  0  0  0  0
  -16.6741    0.8867  -14.5192 C   0  0  0  0  0  0  0  0  0  0  0  0
  -17.7258    1.4998  -15.2161 C   0  0  0  0  0  0  0  0  0  0  0  0
  -17.4359    2.5705  -16.0814 C   0  0  0  0  0  0  0  0  0  0  0  0
  -19.1586    1.0597  -15.0338 C   0  0  0  0  0  0  0  0  0  0  0  0
  -19.4110   -0.1954  -15.4952 F   0  0  0  0  0  0  0  0  0  0  0  0
  -19.5267    1.0538  -13.7208 F   0  0  0  0  0  0  0  0  0  0  0  0
  -20.0458    1.8791  -15.6623 F   0  0  0  0  0  0  0  0  0  0  0  0
  -15.8308    4.2753  -17.0882 C   0  0  0  0  0  0  0  0  0  0  0  0
  -13.2158    8.0453  -18.4082 C   0  0  0  0  0  0  0  0  0  0  0  0
  -13.4236    6.6214  -18.6525 N   0  0  0  0  0  0  0  0  0  0  0  0
  -13.1603    5.8316  -17.4389 C   0  0  0  0  0  0  0  0  0  0  0  0
  -13.4278    4.3272  -17.6755 C   0  0  0  0  0  0  0  0  0  0  0  0
  -14.8061    4.0152  -18.1125 N   0  0  0  0  0  0  0  0  0  0  0  0
  -15.0743    4.8366  -19.3217 C   0  0  0  0  0  0  0  0  0  0  0  0
  -14.7811    6.3537  -19.1617 C   0  0  0  0  0  0  0  0  0  0  0  0
 36 37  1  0  0  0
 37 38  1  0  0  0
 37 42  1  0  0  0
 38 39  1  0  0  0
 39 40  1  0  0  0
 40 35  1  0  0  0
 40 41  1  0  0  0
 35 25  1  0  0  0
 25 26  1  0  0  0
 25 30  2  0  0  0
 26 27  2  0  0  0
 27  1  1  0  0  0
 27 28  1  0  0  0
  1  2  1  0  0  0
  1  5  1  0  0  0
  2  3  2  0  0  0
  2  4  1  0  0  0
  4  7  1  0  0  0
  4  6  1  0  0  0
  7  8  1  0  0  0
  7 12  2  0  0  0
  8  9  2  0  0  0
  9 10  1  0  0  0
 10 14  1  0  0  0
 10 11  2  0  0  0
 14 15  1  0  0  0
 15 16  1  0  0  0
 15 24  2  0  0  0
 16 17  2  0  0  0
 17 18  1  0  0  0
 18 19  2  0  0  0
 19 20  1  0  0  0
 19 24  1  0  0  0
 20 21  2  0  0  0
 21 22  1  0  0  0
 22 23  1  0  0  0
 22 24  1  0  0  0
 11 12  1  0  0  0
 12 13  1  0  0  0
 28 29  2  0  0  0
 29 31  1  0  0  0
 29 30  1  0  0  0
 31 32  1  0  0  0
 31 33  1  0  0  0
 31 34  1  0  0  0
 41 42  1  0  0  0
M  END
> <minimizedAffinity>
-9.47628

$$$$
