CHEMBL4798527


 44 48  0  0  0  0  0  0  0  0999 V2000
  -25.2428   -0.9902  -15.9895 C   0  0  0  0  0  0  0  0  0  0  0  0
  -25.5515   -1.3364  -14.5592 C   0  0  0  0  0  0  0  0  0  0  0  0
  -26.8351   -1.7905  -14.2378 C   0  0  0  0  0  0  0  0  0  0  0  0
  -27.1833   -2.0882  -12.9202 C   0  0  0  0  0  0  0  0  0  0  0  0
  -26.2601   -1.9628  -11.8828 C   0  0  0  0  0  0  0  0  0  0  0  0
  -24.9651   -1.5125  -12.1984 C   0  0  0  0  0  0  0  0  0  0  0  0
  -24.6072   -1.1897  -13.5285 C   0  0  0  0  0  0  0  0  0  0  0  0
  -26.6018   -2.2463  -10.5283 N   0  0  0  0  0  0  0  0  0  0  0  0
  -27.6188   -1.6157   -9.8124 C   0  0  0  0  0  0  0  0  0  0  0  0
  -28.4089   -0.7926  -10.2582 O   0  0  0  0  0  0  0  0  0  0  0  0
  -26.1309   -3.0299  -10.0970 H   0  0  0  0  0  0  0  0  0  0  0  0
  -27.8128   -2.0116   -8.3855 C   0  0  0  0  0  0  0  0  0  0  0  0
  -27.6081   -1.1460   -7.3136 C   0  0  0  0  0  0  0  0  0  0  0  0
  -27.8523   -1.5915   -6.0075 C   0  0  0  0  0  0  0  0  0  0  0  0
  -28.2936   -2.9042   -5.7465 C   0  0  0  0  0  0  0  0  0  0  0  0
  -28.5006   -3.3332   -4.3185 C   0  0  0  0  0  0  0  0  0  0  0  0
  -28.5188   -3.7841   -6.8236 C   0  0  0  0  0  0  0  0  0  0  0  0
  -28.2878   -3.3114   -8.1326 C   0  0  0  0  0  0  0  0  0  0  0  0
  -28.9848   -5.2206   -6.6711 C   0  0  0  0  0  0  0  0  0  0  0  0
  -28.1660   -6.0222   -5.9342 F   0  0  0  0  0  0  0  0  0  0  0  0
  -30.2084   -5.3108   -6.0797 F   0  0  0  0  0  0  0  0  0  0  0  0
  -29.1072   -5.8460   -7.8765 F   0  0  0  0  0  0  0  0  0  0  0  0
  -23.2927   -0.6785  -13.8206 C   0  0  0  0  0  0  0  0  0  0  0  0
  -22.1935   -0.2540  -14.0870 C   0  0  0  0  0  0  0  0  0  0  0  0
  -20.9509    0.3797  -14.4105 C   0  0  0  0  0  0  0  0  0  0  0  0
  -19.8471   -0.3497  -14.6341 N   0  0  0  0  0  0  0  0  0  0  0  0
  -18.8999    0.5922  -14.9162 N   0  0  0  0  0  0  0  0  0  0  0  0
  -19.4006    1.8754  -14.9006 C   0  0  0  0  0  0  0  0  0  0  0  0
  -18.7411    3.0198  -15.1568 N   0  0  0  0  0  0  0  0  0  0  0  0
  -19.5506    4.0890  -15.0390 C   0  0  0  0  0  0  0  0  0  0  0  0
  -20.8581    4.1155  -14.7057 N   0  0  0  0  0  0  0  0  0  0  0  0
  -21.4733    2.9489  -14.4362 C   0  0  0  0  0  0  0  0  0  0  0  0
  -22.8063    3.0085  -14.0650 N   0  0  0  0  0  0  0  0  0  0  0  0
  -20.7371    1.7649  -14.5503 C   0  0  0  0  0  0  0  0  0  0  0  0
  -23.2333    3.8989  -14.2848 H   0  0  0  0  0  0  0  0  0  0  0  0
  -23.3621    2.1756  -14.1856 H   0  0  0  0  0  0  0  0  0  0  0  0
  -17.5034    0.2111  -15.1531 C   0  0  0  0  0  0  0  0  0  0  0  0
  -16.7718    1.2428  -16.0327 C   0  0  0  0  0  0  0  0  0  0  0  0
  -15.3030    0.8789  -16.2600 C   0  0  0  0  0  0  0  0  0  0  0  0
  -14.5678    0.6706  -14.9383 C   0  0  0  0  0  0  0  0  0  0  0  0
  -13.2158    0.3028  -15.1872 O   0  0  0  0  0  0  0  0  0  0  0  0
  -15.2599   -0.4027  -14.1004 C   0  0  0  0  0  0  0  0  0  0  0  0
  -16.7310   -0.0593  -13.8469 C   0  0  0  0  0  0  0  0  0  0  0  0
  -13.1998   -0.5877  -15.5759 H   0  0  0  0  0  0  0  0  0  0  0  0
  1  2  1  0  0  0
  2  3  1  0  0  0
  2  7  2  0  0  0
  3  4  2  0  0  0
  4  5  1  0  0  0
  5  8  1  0  0  0
  5  6  2  0  0  0
  8  9  1  0  0  0
  8 11  1  0  0  0
  9 10  2  0  0  0
  9 12  1  0  0  0
 12 13  1  0  0  0
 12 18  2  0  0  0
 13 14  2  0  0  0
 14 15  1  0  0  0
 15 16  1  0  0  0
 15 17  2  0  0  0
 17 19  1  0  0  0
 17 18  1  0  0  0
 19 20  1  0  0  0
 19 21  1  0  0  0
 19 22  1  0  0  0
  6  7  1  0  0  0
  7 23  1  0  0  0
 23 24  3  0  0  0
 24 25  1  0  0  0
 25 26  2  0  0  0
 25 34  1  0  0  0
 26 27  1  0  0  0
 27 28  1  0  0  0
 37 38  1  0  0  0
 37 43  1  0  0  0
 37 27  1  0  0  0
 38 39  1  0  0  0
 39 40  1  0  0  0
 40 41  1  0  0  0
 40 42  1  0  0  0
 41 44  1  0  0  0
 42 43  1  0  0  0
 28 29  1  0  0  0
 28 34  2  0  0  0
 29 30  2  0  0  0
 30 31  1  0  0  0
 31 32  2  0  0  0
 32 33  1  0  0  0
 32 34  1  0  0  0
 33 35  1  0  0  0
 33 36  1  0  0  0
M  END
> <minimizedAffinity>
-10.49106

$$$$
