CHEMBL3694718


 32 36  0  0  0  0  0  0  0  0999 V2000
  -15.4067   -1.7968  -12.9574 C   0  0  0  0  0  0  0  0  0  0  0  0
  -14.5500   -2.7077  -13.6921 C   0  0  0  0  0  0  0  0  0  0  0  0
  -13.9951   -3.7419  -13.0398 C   0  0  0  0  0  0  0  0  0  0  0  0
  -14.2877   -3.9533  -11.6843 N   0  0  0  0  0  0  0  0  0  0  0  0
  -13.9012   -4.9635  -10.8021 C   0  0  0  0  0  0  0  0  0  0  0  0
  -14.4900   -4.5979   -9.6001 C   0  0  0  0  0  0  0  0  0  0  0  0
  -15.2190   -3.4465   -9.7024 N   0  0  0  0  0  0  0  0  0  0  0  0
  -15.1041   -3.0825  -10.9575 C   0  0  0  0  0  0  0  0  0  0  0  0
  -15.6638   -1.9687  -11.6480 C   0  0  0  0  0  0  0  0  0  0  0  0
  -13.0974   -6.1562  -11.1078 C   0  0  0  0  0  0  0  0  0  0  0  0
  -11.8618   -6.3717  -10.4844 C   0  0  0  0  0  0  0  0  0  0  0  0
  -11.0987   -7.4943  -10.7743 C   0  0  0  0  0  0  0  0  0  0  0  0
  -11.5334   -8.3910  -11.7432 C   0  0  0  0  0  0  0  0  0  0  0  0
  -12.7429   -8.1922  -12.4205 C   0  0  0  0  0  0  0  0  0  0  0  0
  -13.5231   -7.0793  -12.0872 C   0  0  0  0  0  0  0  0  0  0  0  0
  -13.1702   -9.0649  -13.4520 N   0  0  0  0  0  0  0  0  0  0  0  0
  -12.8661   -8.9170  -14.7914 C   0  0  0  0  0  0  0  0  0  0  0  0
  -12.0994   -8.0863  -15.2694 O   0  0  0  0  0  0  0  0  0  0  0  0
  -13.4721   -9.8653  -15.5903 N   0  0  0  0  0  0  0  0  0  0  0  0
  -13.5821   -9.9408  -13.1736 H   0  0  0  0  0  0  0  0  0  0  0  0
  -14.2978  -10.3335  -15.2469 H   0  0  0  0  0  0  0  0  0  0  0  0
  -13.1957   -9.8911  -16.9990 C   0  0  0  0  0  0  0  0  0  0  0  0
  -13.8170  -10.9309  -17.8925 C   0  0  0  0  0  0  0  0  0  0  0  0
  -12.3427  -10.9550  -17.6174 C   0  0  0  0  0  0  0  0  0  0  0  0
  -16.4641    0.4459  -14.3087 C   0  0  0  0  0  0  0  0  0  0  0  0
  -15.9759   -0.5896  -13.6848 C   0  0  0  0  0  0  0  0  0  0  0  0
  -19.4349    0.9778  -14.9139 C   0  0  0  0  0  0  0  0  0  0  0  0
  -18.3157    1.8147  -15.2658 N   0  0  0  0  0  0  0  0  0  0  0  0
  -18.3870    3.0029  -15.9379 C   0  0  0  0  0  0  0  0  0  0  0  0
  -17.1964    3.5323  -16.1074 N   0  0  0  0  0  0  0  0  0  0  0  0
  -16.3238    2.6488  -15.5208 C   0  0  0  0  0  0  0  0  0  0  0  0
  -16.9961    1.5701  -14.9906 C   0  0  0  0  0  0  0  0  0  0  0  0
 27 28  1  0  0  0
 28 29  1  0  0  0
 28 32  1  0  0  0
 29 30  2  0  0  0
 30 31  1  0  0  0
 31 32  2  0  0  0
 32 25  1  0  0  0
 25 26  3  0  0  0
 26  1  1  0  0  0
  1  2  1  0  0  0
  1  9  2  0  0  0
  2  3  2  0  0  0
  3  4  1  0  0  0
  4  5  1  0  0  0
  4  8  1  0  0  0
  5 10  1  0  0  0
  5  6  2  0  0  0
 10 11  1  0  0  0
 10 15  2  0  0  0
 11 12  2  0  0  0
 12 13  1  0  0  0
 13 14  2  0  0  0
 14 16  1  0  0  0
 14 15  1  0  0  0
 16 17  1  0  0  0
 16 20  1  0  0  0
 17 18  2  0  0  0
 17 19  1  0  0  0
 19 22  1  0  0  0
 19 21  1  0  0  0
 22 23  1  0  0  0
 22 24  1  0  0  0
 23 24  1  0  0  0
  6  7  1  0  0  0
  7  8  2  0  0  0
  8  9  1  0  0  0
M  END
> <minimizedAffinity>
-8.09969

$$$$
