CHEMBL3828009


 32 35  0  0  0  0  0  0  0  0999 V2000
  -26.9097   -1.5690   -9.8933 C   0  0  0  0  0  0  0  0  0  0  0  0
  -27.9497   -2.1765  -10.5961 C   0  0  0  0  0  0  0  0  0  0  0  0
  -27.9052   -2.2832  -11.9877 C   0  0  0  0  0  0  0  0  0  0  0  0
  -26.7795   -1.7647  -12.6337 C   0  0  0  0  0  0  0  0  0  0  0  0
  -26.4608   -1.7146  -13.9579 N   0  0  0  0  0  0  0  0  0  0  0  0
  -25.2985   -1.1215  -14.2217 N   0  0  0  0  0  0  0  0  0  0  0  0
  -24.8150   -0.7577  -13.0216 C   0  0  0  0  0  0  0  0  0  0  0  0
  -25.7093   -1.1642  -11.9739 C   0  0  0  0  0  0  0  0  0  0  0  0
  -25.7696   -1.0893  -10.5668 C   0  0  0  0  0  0  0  0  0  0  0  0
  -27.0087   -2.0640  -14.7372 H   0  0  0  0  0  0  0  0  0  0  0  0
  -23.5679   -0.0264  -12.9010 C   0  0  0  0  0  0  0  0  0  0  0  0
  -23.1352    0.7725  -13.8911 C   0  0  0  0  0  0  0  0  0  0  0  0
  -21.9848    1.6018  -14.0122 C   0  0  0  0  0  0  0  0  0  0  0  0
  -21.7505    2.9911  -13.9789 C   0  0  0  0  0  0  0  0  0  0  0  0
  -20.4491    3.2990  -14.1320 N   0  0  0  0  0  0  0  0  0  0  0  0
  -19.8555    2.0963  -14.2893 N   0  0  0  0  0  0  0  0  0  0  0  0
  -20.7368    1.0573  -14.2149 C   0  0  0  0  0  0  0  0  0  0  0  0
  -18.4232    1.9284  -14.4650 C   0  0  0  0  0  0  0  0  0  0  0  0
  -17.7755    2.7018  -15.6052 C   0  0  0  0  0  0  0  0  0  0  0  0
  -17.8815    4.1086  -15.4119 O   0  0  0  0  0  0  0  0  0  0  0  0
  -18.8444    4.2971  -15.4247 H   0  0  0  0  0  0  0  0  0  0  0  0
  -26.8834   -1.4071   -8.5349 O   0  0  0  0  0  0  0  0  0  0  0  0
  -28.2533    0.2251   -7.2605 C   0  0  0  0  0  0  0  0  0  0  0  0
  -28.1233   -1.1924   -7.8405 C   0  0  0  0  0  0  0  0  0  0  0  0
  -28.2050   -2.2417   -6.7358 C   0  0  0  0  0  0  0  0  0  0  0  0
  -28.8128   -3.4938   -6.9588 C   0  0  0  0  0  0  0  0  0  0  0  0
  -29.4943   -3.9687   -8.4735 Cl  0  0  0  0  0  0  0  0  0  0  0  0
  -28.8858   -4.4174   -5.9155 C   0  0  0  0  0  0  0  0  0  0  0  0
  -28.4118   -4.1988   -4.6707 N   0  0  0  0  0  0  0  0  0  0  0  0
  -27.8214   -3.0015   -4.4684 C   0  0  0  0  0  0  0  0  0  0  0  0
  -27.6888   -2.0135   -5.4430 C   0  0  0  0  0  0  0  0  0  0  0  0
  -26.8759   -0.5652   -4.9665 Cl  0  0  0  0  0  0  0  0  0  0  0  0
 23 24  1  0  0  0
 24 22  1  0  0  0
 24 25  1  0  0  0
 22  1  1  0  0  0
  1  2  1  0  0  0
  1  9  2  0  0  0
  2  3  2  0  0  0
  3  4  1  0  0  0
  4  5  1  0  0  0
  4  8  2  0  0  0
  5  6  1  0  0  0
  5 10  1  0  0  0
  6  7  2  0  0  0
  7 11  1  0  0  0
  7  8  1  0  0  0
 11 12  2  0  0  0
 12 13  1  0  0  0
 13 14  1  0  0  0
 13 17  2  0  0  0
 14 15  2  0  0  0
 15 16  1  0  0  0
 16 18  1  0  0  0
 16 17  1  0  0  0
 18 19  1  0  0  0
 19 20  1  0  0  0
 20 21  1  0  0  0
  8  9  1  0  0  0
 25 26  1  0  0  0
 25 31  2  0  0  0
 26 27  1  0  0  0
 26 28  2  0  0  0
 28 29  1  0  0  0
 29 30  2  0  0  0
 30 31  1  0  0  0
 31 32  1  0  0  0
M  END
> <minimizedAffinity>
-8.51536

$$$$
