CHEMBL412291


 36 40  0  0  0  0  0  0  0  0999 V2000
  -27.2701   -1.7753  -10.5436 C   0  0  0  0  0  0  0  0  0  0  0  0
  -25.9549   -1.5458  -10.1654 C   0  0  0  0  0  0  0  0  0  0  0  0
  -25.0150   -1.1855  -11.1388 C   0  0  0  0  0  0  0  0  0  0  0  0
  -25.3124   -1.2137  -12.5275 C   0  0  0  0  0  0  0  0  0  0  0  0
  -24.4369   -0.8223  -13.5860 C   0  0  0  0  0  0  0  0  0  0  0  0
  -24.8568   -0.9166  -14.9280 C   0  0  0  0  0  0  0  0  0  0  0  0
  -26.1220   -1.3863  -15.2488 C   0  0  0  0  0  0  0  0  0  0  0  0
  -27.0010   -1.7333  -14.2309 C   0  0  0  0  0  0  0  0  0  0  0  0
  -26.6218   -1.6371  -12.8814 C   0  0  0  0  0  0  0  0  0  0  0  0
  -27.5818   -1.8973  -11.8954 C   0  0  0  0  0  0  0  0  0  0  0  0
  -23.0832   -0.2088  -13.4068 C   0  0  0  0  0  0  0  0  0  0  0  0
  -22.5022   -0.4186  -12.3459 O   0  0  0  0  0  0  0  0  0  0  0  0
  -22.6328    0.6148  -14.4212 N   0  0  0  0  0  0  0  0  0  0  0  0
  -23.2884    0.8257  -15.1624 H   0  0  0  0  0  0  0  0  0  0  0  0
  -21.4107    1.3250  -14.4523 C   0  0  0  0  0  0  0  0  0  0  0  0
  -21.2807    2.6776  -14.1153 C   0  0  0  0  0  0  0  0  0  0  0  0
  -20.0557    3.3394  -14.2625 C   0  0  0  0  0  0  0  0  0  0  0  0
  -18.9439    2.6479  -14.7327 C   0  0  0  0  0  0  0  0  0  0  0  0
  -19.0617    1.2945  -15.0195 C   0  0  0  0  0  0  0  0  0  0  0  0
  -17.9924    0.6208  -15.4635 F   0  0  0  0  0  0  0  0  0  0  0  0
  -20.2753    0.6269  -14.8738 C   0  0  0  0  0  0  0  0  0  0  0  0
  -28.3382   -1.8267   -9.6792 O   0  0  0  0  0  0  0  0  0  0  0  0
  -29.0531   -5.2223   -5.7699 C   0  0  0  0  0  0  0  0  0  0  0  0
  -28.5295   -4.0110   -5.2878 C   0  0  0  0  0  0  0  0  0  0  0  0
  -28.1988   -2.9503   -6.1221 C   0  0  0  0  0  0  0  0  0  0  0  0
  -27.8438   -1.7886   -5.5494 N   0  0  0  0  0  0  0  0  0  0  0  0
  -27.6261   -0.7205   -6.3428 C   0  0  0  0  0  0  0  0  0  0  0  0
  -27.7740   -0.7456   -7.7105 C   0  0  0  0  0  0  0  0  0  0  0  0
  -28.1485   -1.9478   -8.3117 C   0  0  0  0  0  0  0  0  0  0  0  0
  -28.2962   -3.1176   -7.5130 C   0  0  0  0  0  0  0  0  0  0  0  0
  -28.5703   -4.4244   -7.9798 C   0  0  0  0  0  0  0  0  0  0  0  0
  -29.0450   -5.4419   -7.1444 C   0  0  0  0  0  0  0  0  0  0  0  0
  -30.9003   -6.0566   -4.5279 C   0  0  0  0  0  0  0  0  0  0  0  0
  -29.5370   -6.1910   -4.9333 O   0  0  0  0  0  0  0  0  0  0  0  0
  -29.4838   -6.5132   -7.8688 O   0  0  0  0  0  0  0  0  0  0  0  0
  -28.5981   -7.5729   -8.1867 C   0  0  0  0  0  0  0  0  0  0  0  0
 33 34  1  0  0  0
 34 23  1  0  0  0
 23 24  1  0  0  0
 23 32  2  0  0  0
 24 25  2  0  0  0
 25 26  1  0  0  0
 25 30  1  0  0  0
 26 27  2  0  0  0
 27 28  1  0  0  0
 28 29  2  0  0  0
 29 22  1  0  0  0
 29 30  1  0  0  0
 22  1  1  0  0  0
  1  2  1  0  0  0
  1 10  2  0  0  0
  2  3  2  0  0  0
  3  4  1  0  0  0
  4  5  1  0  0  0
  4  9  2  0  0  0
  5 11  1  0  0  0
  5  6  2  0  0  0
 11 12  2  0  0  0
 11 13  1  0  0  0
 13 15  1  0  0  0
 13 14  1  0  0  0
 15 16  1  0  0  0
 15 21  2  0  0  0
 16 17  2  0  0  0
 17 18  1  0  0  0
 18 19  2  0  0  0
 19 20  1  0  0  0
 19 21  1  0  0  0
  6  7  1  0  0  0
  7  8  2  0  0  0
  8  9  1  0  0  0
  9 10  1  0  0  0
 30 31  2  0  0  0
 31 32  1  0  0  0
 32 35  1  0  0  0
 35 36  1  0  0  0
M  END
> <minimizedAffinity>
-11.72370

$$$$
