CHEMBL3904745


 40 44  0  0  0  0  0  0  0  0999 V2000
  -28.7372  -10.1923   -5.5150 N   0  0  0  0  0  0  0  0  0  0  0  0
  -28.6652   -8.7853   -5.2402 C   0  0  0  0  0  0  0  0  0  0  0  0
  -28.8489   -8.4616   -3.9101 C   0  0  0  0  0  0  0  0  0  0  0  0
  -29.4490   -7.2775   -3.5449 C   0  0  0  0  0  0  0  0  0  0  0  0
  -29.5933   -6.2582   -4.4541 C   0  0  0  0  0  0  0  0  0  0  0  0
  -30.3071   -5.2702   -3.9447 N   0  0  0  0  0  0  0  0  0  0  0  0
  -30.2153   -4.0950   -4.5597 C   0  0  0  0  0  0  0  0  0  0  0  0
  -29.3764   -3.9090   -5.6305 C   0  0  0  0  0  0  0  0  0  0  0  0
  -28.7688   -4.9842   -6.2709 N   0  0  0  0  0  0  0  0  0  0  0  0
  -28.9297   -6.2816   -5.6875 C   0  0  0  0  0  0  0  0  0  0  0  0
  -28.5548   -7.6591   -6.1163 C   0  0  0  0  0  0  0  0  0  0  0  0
  -29.1131   -2.4949   -5.9471 C   0  0  0  0  0  0  0  0  0  0  0  0
  -27.9575   -1.8538   -6.4817 C   0  0  0  0  0  0  0  0  0  0  0  0
  -28.0016   -0.5156   -6.3793 N   0  0  0  0  0  0  0  0  0  0  0  0
  -29.1682   -0.2921   -5.7532 N   0  0  0  0  0  0  0  0  0  0  0  0
  -29.7720    1.0207   -5.7459 C   0  0  0  0  0  0  0  0  0  0  0  0
  -29.7538   -1.4429   -5.3032 C   0  0  0  0  0  0  0  0  0  0  0  0
  -29.5883  -10.7032   -6.6025 C   0  0  0  0  0  0  0  0  0  0  0  0
  -30.9561  -11.0556   -6.4133 C   0  0  0  0  0  0  0  0  0  0  0  0
  -31.7954  -11.4606   -7.4650 C   0  0  0  0  0  0  0  0  0  0  0  0
  -31.2810  -11.5339   -8.7515 C   0  0  0  0  0  0  0  0  0  0  0  0
  -29.9498  -11.2010   -8.9887 C   0  0  0  0  0  0  0  0  0  0  0  0
  -29.1130  -10.8261   -7.9208 C   0  0  0  0  0  0  0  0  0  0  0  0
  -33.1187  -11.8030   -7.3784 O   0  0  0  0  0  0  0  0  0  0  0  0
  -33.6237  -12.2018   -6.1127 C   0  0  0  0  0  0  0  0  0  0  0  0
  -29.3743  -11.2152  -10.2303 O   0  0  0  0  0  0  0  0  0  0  0  0
  -28.0035  -10.8115  -10.2478 C   0  0  0  0  0  0  0  0  0  0  0  0
  -27.6253  -11.1403   -5.1930 C   0  0  0  0  0  0  0  0  0  0  0  0
  -27.3568  -11.3721   -3.6847 C   0  0  0  0  0  0  0  0  0  0  0  0
  -23.0038  -10.9707   -3.3844 C   0  0  0  0  0  0  0  0  0  0  0  0
  -23.7599  -12.0161   -2.5648 C   0  0  0  0  0  0  0  0  0  0  0  0
  -25.1724  -12.2799   -3.1001 C   0  0  0  0  0  0  0  0  0  0  0  0
  -25.9659  -11.0401   -3.2279 N   0  0  0  0  0  0  0  0  0  0  0  0
  -25.2730  -10.0826   -4.1073 C   0  0  0  0  0  0  0  0  0  0  0  0
  -23.8729   -9.7342   -3.5855 C   0  0  0  0  0  0  0  0  0  0  0  0
  -22.4635  -11.5380   -4.6902 C   0  0  0  0  0  0  0  0  0  0  0  0
  -21.6728  -12.4658   -4.7798 O   0  0  0  0  0  0  0  0  0  0  0  0
  -22.8592  -10.7440   -5.7272 O   0  0  0  0  0  0  0  0  0  0  0  0
  -21.0459  -10.2129   -7.1813 C   0  0  0  0  0  0  0  0  0  0  0  0
  -22.2928  -11.0627   -7.0062 C   0  0  0  0  0  0  0  0  0  0  0  0
 39 40  1  0  0  0
 40 38  1  0  0  0
 38 36  1  0  0  0
 36 37  2  0  0  0
 36 30  1  0  0  0
 30 31  1  0  0  0
 30 35  1  0  0  0
 31 32  1  0  0  0
 32 33  1  0  0  0
 33 29  1  0  0  0
 33 34  1  0  0  0
 29 28  1  0  0  0
 28  1  1  0  0  0
  1 18  1  0  0  0
  1  2  1  0  0  0
 18 19  1  0  0  0
 18 23  2  0  0  0
 19 20  2  0  0  0
 20 24  1  0  0  0
 20 21  1  0  0  0
 24 25  1  0  0  0
 21 22  2  0  0  0
 22 26  1  0  0  0
 22 23  1  0  0  0
 26 27  1  0  0  0
  2  3  1  0  0  0
  2 11  2  0  0  0
  3  4  2  0  0  0
  4  5  1  0  0  0
  5  6  1  0  0  0
  5 10  2  0  0  0
  6  7  2  0  0  0
  7  8  1  0  0  0
  8 12  1  0  0  0
  8  9  2  0  0  0
 12 13  1  0  0  0
 12 17  2  0  0  0
 13 14  2  0  0  0
 14 15  1  0  0  0
 15 16  1  0  0  0
 15 17  1  0  0  0
  9 10  1  0  0  0
 10 11  1  0  0  0
 34 35  1  0  0  0
M  END
> <minimizedAffinity>
-7.84429

$$$$
