CHEMBL2006564


 29 32  0  0  0  0  0  0  0  0999 V2000
  -27.3256   -1.6680   -9.6242 C   0  0  0  0  0  0  0  0  0  0  0  0
  -26.0050   -1.5224   -9.8868 N   0  0  0  0  0  0  0  0  0  0  0  0
  -25.5556   -1.5578  -11.1763 C   0  0  0  0  0  0  0  0  0  0  0  0
  -26.5095   -1.7543  -12.1893 C   0  0  0  0  0  0  0  0  0  0  0  0
  -26.4180   -1.8409  -13.5654 N   0  0  0  0  0  0  0  0  0  0  0  0
  -27.6570   -2.0288  -13.9733 C   0  0  0  0  0  0  0  0  0  0  0  0
  -28.5375   -2.0771  -12.9270 N   0  0  0  0  0  0  0  0  0  0  0  0
  -27.8176   -1.9060  -11.7828 C   0  0  0  0  0  0  0  0  0  0  0  0
  -28.2912   -1.8785  -10.5404 N   0  0  0  0  0  0  0  0  0  0  0  0
  -29.5371   -2.2054  -12.9718 H   0  0  0  0  0  0  0  0  0  0  0  0
  -27.7032   -1.5419   -8.2824 N   0  0  0  0  0  0  0  0  0  0  0  0
  -27.1764   -0.7878   -7.8609 H   0  0  0  0  0  0  0  0  0  0  0  0
  -28.7482   -4.7306   -5.7183 C   0  0  0  0  0  0  0  0  0  0  0  0
  -28.2680   -3.5350   -5.1778 C   0  0  0  0  0  0  0  0  0  0  0  0
  -27.9199   -2.4757   -6.0217 C   0  0  0  0  0  0  0  0  0  0  0  0
  -28.0492   -2.5880   -7.4125 C   0  0  0  0  0  0  0  0  0  0  0  0
  -28.5889   -3.7655   -7.9385 C   0  0  0  0  0  0  0  0  0  0  0  0
  -28.9053   -4.8407   -7.1027 C   0  0  0  0  0  0  0  0  0  0  0  0
  -29.0504   -5.8384   -4.8859 N   0  0  0  0  0  0  0  0  0  0  0  0
  -30.1318   -5.8865   -4.0108 C   0  0  0  0  0  0  0  0  0  0  0  0
  -31.2743   -4.9130   -4.2108 C   0  0  0  0  0  0  0  0  0  0  0  0
  -30.2316   -6.7481   -3.1317 O   0  0  0  0  0  0  0  0  0  0  0  0
  -28.3725   -8.0998   -5.6926 C   0  0  0  0  0  0  0  0  0  0  0  0
  -28.0399   -6.9028   -4.8080 C   0  0  0  0  0  0  0  0  0  0  0  0
  -24.2002   -1.3681  -11.5015 N   0  0  0  0  0  0  0  0  0  0  0  0
  -23.6028   -1.8716  -10.8481 H   0  0  0  0  0  0  0  0  0  0  0  0
  -23.7284   -0.1298  -12.1045 C   0  0  0  0  0  0  0  0  0  0  0  0
  -23.4047   -0.1004  -13.5747 C   0  0  0  0  0  0  0  0  0  0  0  0
  -22.3042    0.0231  -12.5629 C   0  0  0  0  0  0  0  0  0  0  0  0
 23 24  1  0  0  0
 24 19  1  0  0  0
 19 20  1  0  0  0
 19 13  1  0  0  0
 20 21  1  0  0  0
 20 22  2  0  0  0
 13 14  1  0  0  0
 13 18  2  0  0  0
 14 15  2  0  0  0
 15 16  1  0  0  0
 16 11  1  0  0  0
 16 17  2  0  0  0
 11  1  1  0  0  0
 11 12  1  0  0  0
  1  2  1  0  0  0
  1  9  2  0  0  0
  2  3  2  0  0  0
  3 25  1  0  0  0
  3  4  1  0  0  0
 25 27  1  0  0  0
 25 26  1  0  0  0
 27 28  1  0  0  0
 27 29  1  0  0  0
 28 29  1  0  0  0
  4  5  1  0  0  0
  4  8  2  0  0  0
  5  6  2  0  0  0
  6  7  1  0  0  0
  7  8  1  0  0  0
  7 10  1  0  0  0
  8  9  1  0  0  0
 17 18  1  0  0  0
M  END
> <minimizedAffinity>
-8.31516

$$$$
