CHEMBL1683649


 27 29  0  0  0  0  0  0  0  0999 V2000
  -31.0263  -10.0900   -8.2070 C   0  0  0  0  0  0  0  0  0  0  0  0
  -29.5889   -9.8990   -8.6852 C   0  0  0  0  0  0  0  0  0  0  0  0
  -28.5898  -10.6663   -8.1762 C   0  0  0  0  0  0  0  0  0  0  0  0
  -28.1907  -10.3658   -6.7077 C   0  0  0  0  0  0  0  0  0  0  0  0
  -28.7575   -8.9857   -6.3500 C   0  0  0  0  0  0  0  0  0  0  0  0
  -28.4251   -8.0035   -7.5015 C   0  0  0  0  0  0  0  0  0  0  0  0
  -29.2058   -8.4239   -8.7939 C   0  0  0  0  0  0  0  0  0  0  0  0
  -28.8058   -6.6069   -7.1168 C   0  0  0  0  0  0  0  0  0  0  0  0
  -28.4249   -5.5182   -7.8982 C   0  0  0  0  0  0  0  0  0  0  0  0
  -27.4470   -5.6354   -8.8442 O   0  0  0  0  0  0  0  0  0  0  0  0
  -28.8822   -4.2499   -7.6055 C   0  0  0  0  0  0  0  0  0  0  0  0
  -29.6529   -4.0625   -6.4454 C   0  0  0  0  0  0  0  0  0  0  0  0
  -30.0958   -5.1562   -5.6968 C   0  0  0  0  0  0  0  0  0  0  0  0
  -29.5699   -6.4000   -5.9639 C   0  0  0  0  0  0  0  0  0  0  0  0
  -29.7089   -7.3246   -4.9635 O   0  0  0  0  0  0  0  0  0  0  0  0
  -28.6577   -8.3550   -4.9602 C   0  0  0  0  0  0  0  0  0  0  0  0
  -29.0603   -9.3860   -3.8946 C   0  0  0  0  0  0  0  0  0  0  0  0
  -27.3372   -7.7028   -4.5201 C   0  0  0  0  0  0  0  0  0  0  0  0
  -26.6747   -6.0017   -8.3535 H   0  0  0  0  0  0  0  0  0  0  0  0
  -29.5193   -2.7709   -5.7160 C   0  0  0  0  0  0  0  0  0  0  0  0
  -28.4203   -2.5953   -4.6946 C   0  0  0  0  0  0  0  0  0  0  0  0
  -27.5368   -1.4643   -5.2248 C   0  0  0  0  0  0  0  0  0  0  0  0
  -28.2294   -0.5965   -6.2567 C   0  0  0  0  0  0  0  0  0  0  0  0
  -28.6696    0.7366   -5.6734 C   0  0  0  0  0  0  0  0  0  0  0  0
  -28.6069    1.7437   -6.5727 F   0  0  0  0  0  0  0  0  0  0  0  0
  -29.9428    0.6628   -5.2319 F   0  0  0  0  0  0  0  0  0  0  0  0
  -27.8898    1.0811   -4.6248 F   0  0  0  0  0  0  0  0  0  0  0  0
  1  2  1  0  0  0
  2  3  2  0  0  0
  2  7  1  0  0  0
  3  4  1  0  0  0
  4  5  1  0  0  0
  5  6  1  0  0  0
  5 16  1  0  0  0
  6  7  1  0  0  0
  6  8  1  0  0  0
  8  9  1  0  0  0
  8 14  2  0  0  0
  9 10  1  0  0  0
  9 11  2  0  0  0
 10 19  1  0  0  0
 11 12  1  0  0  0
 12 20  1  0  0  0
 12 13  2  0  0  0
 20 21  1  0  0  0
 21 22  1  0  0  0
 22 23  1  0  0  0
 23 24  1  0  0  0
 24 25  1  0  0  0
 24 26  1  0  0  0
 24 27  1  0  0  0
 13 14  1  0  0  0
 14 15  1  0  0  0
 15 16  1  0  0  0
 16 17  1  0  0  0
 16 18  1  0  0  0
M  END
> <minimizedAffinity>
-8.77877

$$$$
