CHEMBL3099467


 42 45  0  0  0  0  0  0  0  0999 V2000
  -28.9457   -4.3864   -7.0822 C   0  0  0  0  0  0  0  0  0  0  0  0
  -28.8136   -3.6898   -8.2982 C   0  0  0  0  0  0  0  0  0  0  0  0
  -28.2954   -2.4083   -8.4500 C   0  0  0  0  0  0  0  0  0  0  0  0
  -27.9335   -1.7347   -7.2919 C   0  0  0  0  0  0  0  0  0  0  0  0
  -28.0891   -2.3564   -6.0299 C   0  0  0  0  0  0  0  0  0  0  0  0
  -28.5864   -3.6827   -5.9120 C   0  0  0  0  0  0  0  0  0  0  0  0
  -29.3004   -8.0388   -8.2071 C   0  0  0  0  0  0  0  0  0  0  0  0
  -28.7779   -6.7715   -7.9243 C   0  0  0  0  0  0  0  0  0  0  0  0
  -29.4883   -5.7788   -7.1913 C   0  0  0  0  0  0  0  0  0  0  0  0
  -30.7544   -6.1377   -6.7228 C   0  0  0  0  0  0  0  0  0  0  0  0
  -31.2605   -7.4288   -6.9316 C   0  0  0  0  0  0  0  0  0  0  0  0
  -30.5244   -8.3906   -7.6442 C   0  0  0  0  0  0  0  0  0  0  0  0
  -31.0840   -9.7682   -7.7460 C   0  0  0  0  0  0  0  0  0  0  0  0
  -30.4727  -10.8872   -6.9324 C   0  0  0  0  0  0  0  0  0  0  0  0
  -32.0815   -9.9656   -8.4369 O   0  0  0  0  0  0  0  0  0  0  0  0
  -27.3588   -8.7143   -9.4299 C   0  0  0  0  0  0  0  0  0  0  0  0
  -28.7310   -8.9070   -9.1020 O   0  0  0  0  0  0  0  0  0  0  0  0
  -28.1287   -1.8156   -9.7314 N   0  0  0  0  0  0  0  0  0  0  0  0
  -26.9099   -1.6414  -10.3703 C   0  0  0  0  0  0  0  0  0  0  0  0
  -25.8129   -1.9788   -9.9122 O   0  0  0  0  0  0  0  0  0  0  0  0
  -26.9954   -1.0082  -11.6001 N   0  0  0  0  0  0  0  0  0  0  0  0
  -28.9600   -1.5384  -10.2306 H   0  0  0  0  0  0  0  0  0  0  0  0
  -27.6441   -0.2362  -11.6123 H   0  0  0  0  0  0  0  0  0  0  0  0
  -25.7769   -0.8261  -12.3193 C   0  0  0  0  0  0  0  0  0  0  0  0
  -24.7424   -0.0846  -11.7265 C   0  0  0  0  0  0  0  0  0  0  0  0
  -23.5724    0.2102  -12.4310 C   0  0  0  0  0  0  0  0  0  0  0  0
  -23.4000   -0.2712  -13.7261 C   0  0  0  0  0  0  0  0  0  0  0  0
  -24.4355   -0.9910  -14.3264 C   0  0  0  0  0  0  0  0  0  0  0  0
  -25.6335   -1.2799  -13.6387 C   0  0  0  0  0  0  0  0  0  0  0  0
  -26.7603   -1.9396  -14.3780 C   0  0  0  0  0  0  0  0  0  0  0  0
  -22.2750   -0.0870  -14.4928 O   0  0  0  0  0  0  0  0  0  0  0  0
  -21.4373    1.0034  -14.0826 C   0  0  0  0  0  0  0  0  0  0  0  0
  -20.2919    1.2130  -15.0909 C   0  0  0  0  0  0  0  0  0  0  0  0
  -18.9987    1.5182  -14.4434 N   0  0  0  0  0  0  0  0  0  0  0  0
  -18.6262    2.9393  -14.4923 C   0  0  0  0  0  0  0  0  0  0  0  0
  -17.7863    3.0833  -15.7426 C   0  0  0  0  0  0  0  0  0  0  0  0
  -16.9590    1.8180  -15.7092 C   0  0  0  0  0  0  0  0  0  0  0  0
  -17.8867    0.7812  -15.0798 C   0  0  0  0  0  0  0  0  0  0  0  0
  -27.6328   -1.7188   -4.9010 O   0  0  0  0  0  0  0  0  0  0  0  0
  -27.6561   -0.2957   -4.9501 C   0  0  0  0  0  0  0  0  0  0  0  0
  -28.7128   -4.3668   -4.7243 O   0  0  0  0  0  0  0  0  0  0  0  0
  -29.8425   -4.0492   -3.9047 C   0  0  0  0  0  0  0  0  0  0  0  0
 16 17  1  0  0  0
 17  7  1  0  0  0
  7  8  1  0  0  0
  7 12  2  0  0  0
  8  9  2  0  0  0
  9  1  1  0  0  0
  9 10  1  0  0  0
  1  2  1  0  0  0
  1  6  2  0  0  0
  2  3  2  0  0  0
  3 18  1  0  0  0
  3  4  1  0  0  0
 18 19  1  0  0  0
 18 22  1  0  0  0
 19 20  2  0  0  0
 19 21  1  0  0  0
 21 24  1  0  0  0
 21 23  1  0  0  0
 24 25  1  0  0  0
 24 29  2  0  0  0
 25 26  2  0  0  0
 26 27  1  0  0  0
 27 31  1  0  0  0
 27 28  2  0  0  0
 31 32  1  0  0  0
 32 33  1  0  0  0
 33 34  1  0  0  0
 34 35  1  0  0  0
 34 38  1  0  0  0
 35 36  1  0  0  0
 36 37  1  0  0  0
 37 38  1  0  0  0
 28 29  1  0  0  0
 29 30  1  0  0  0
  4  5  2  0  0  0
  5 39  1  0  0  0
  5  6  1  0  0  0
 39 40  1  0  0  0
  6 41  1  0  0  0
 41 42  1  0  0  0
 10 11  2  0  0  0
 11 12  1  0  0  0
 12 13  1  0  0  0
 13 14  1  0  0  0
 13 15  2  0  0  0
M  END
> <minimizedAffinity>
-10.74685

$$$$
