CHEMBL2022851


 40 44  0  0  0  0  0  0  0  0999 V2000
  -12.7912    7.2621  -17.6521 C   0  0  0  0  0  0  0  0  0  0  0  0
  -12.1054    7.3861  -16.4552 C   0  0  0  0  0  0  0  0  0  0  0  0
  -12.0979    6.4756  -15.4734 N   0  0  0  0  0  0  0  0  0  0  0  0
  -12.8153    5.3449  -15.6036 C   0  0  0  0  0  0  0  0  0  0  0  0
  -12.6674    4.4893  -14.5235 N   0  0  0  0  0  0  0  0  0  0  0  0
  -13.6150    5.1129  -16.7667 C   0  0  0  0  0  0  0  0  0  0  0  0
  -14.5405    4.0233  -17.1314 C   0  0  0  0  0  0  0  0  0  0  0  0
  -15.0909    4.2155  -18.3795 C   0  0  0  0  0  0  0  0  0  0  0  0
  -14.5025    5.5924  -19.1555 S   0  0  0  0  0  0  0  0  0  0  0  0
  -13.5604    6.0847  -17.7902 C   0  0  0  0  0  0  0  0  0  0  0  0
  -11.9165    4.8132  -13.9230 H   0  0  0  0  0  0  0  0  0  0  0  0
  -12.6564    3.5048  -14.7527 H   0  0  0  0  0  0  0  0  0  0  0  0
  -14.9420    2.8480  -16.3503 C   0  0  0  0  0  0  0  0  0  0  0  0
  -14.0891    1.7540  -16.2631 C   0  0  0  0  0  0  0  0  0  0  0  0
  -14.5154    0.5626  -15.6872 C   0  0  0  0  0  0  0  0  0  0  0  0
  -15.7457    0.4783  -15.0304 C   0  0  0  0  0  0  0  0  0  0  0  0
  -16.5731    1.5967  -15.0242 C   0  0  0  0  0  0  0  0  0  0  0  0
  -16.1820    2.7704  -15.6925 C   0  0  0  0  0  0  0  0  0  0  0  0
  -16.1536   -0.7027  -14.3828 N   0  0  0  0  0  0  0  0  0  0  0  0
  -15.4444   -1.3000  -13.3591 C   0  0  0  0  0  0  0  0  0  0  0  0
  -14.4526   -0.8172  -12.8184 O   0  0  0  0  0  0  0  0  0  0  0  0
  -15.9640   -2.5359  -13.0132 N   0  0  0  0  0  0  0  0  0  0  0  0
  -17.1319   -0.9744  -14.4677 H   0  0  0  0  0  0  0  0  0  0  0  0
  -16.3204   -3.0729  -13.7907 H   0  0  0  0  0  0  0  0  0  0  0  0
  -15.4311   -3.2538  -11.9196 C   0  0  0  0  0  0  0  0  0  0  0  0
  -15.5546   -2.7784  -10.6043 C   0  0  0  0  0  0  0  0  0  0  0  0
  -14.9868   -3.4760   -9.5390 C   0  0  0  0  0  0  0  0  0  0  0  0
  -14.2868   -4.6521   -9.7863 C   0  0  0  0  0  0  0  0  0  0  0  0
  -14.1734   -5.1199  -11.0914 C   0  0  0  0  0  0  0  0  0  0  0  0
  -13.4700   -6.2369  -11.3283 F   0  0  0  0  0  0  0  0  0  0  0  0
  -14.7550   -4.4474  -12.1596 C   0  0  0  0  0  0  0  0  0  0  0  0
  -13.2395   10.0632  -19.8717 N   0  0  0  0  0  0  0  0  0  0  0  0
  -13.6247    9.3308  -18.7883 C   0  0  0  0  0  0  0  0  0  0  0  0
  -12.7151    8.2954  -18.6665 C   0  0  0  0  0  0  0  0  0  0  0  0
  -11.8249    8.5092  -19.7427 C   0  0  0  0  0  0  0  0  0  0  0  0
  -12.1437    9.5783  -20.4791 N   0  0  0  0  0  0  0  0  0  0  0  0
  -13.9114   11.2291  -20.4160 C   0  0  0  0  0  0  0  0  0  0  0  0
  -16.1258   12.4551  -20.6467 C   0  0  0  0  0  0  0  0  0  0  0  0
  -15.4404   11.1036  -20.4341 C   0  0  0  0  0  0  0  0  0  0  0  0
  -15.8619   10.1294  -21.5361 C   0  0  0  0  0  0  0  0  0  0  0  0
 38 39  1  0  0  0
 39 40  1  0  0  0
 39 37  1  0  0  0
 37 32  1  0  0  0
 32 33  1  0  0  0
 32 36  1  0  0  0
 33 34  2  0  0  0
 34  1  1  0  0  0
 34 35  1  0  0  0
  1  2  1  0  0  0
  1 10  2  0  0  0
  2  3  2  0  0  0
  3  4  1  0  0  0
  4  5  1  0  0  0
  4  6  2  0  0  0
  5 11  1  0  0  0
  5 12  1  0  0  0
  6  7  1  0  0  0
  6 10  1  0  0  0
  7 13  1  0  0  0
  7  8  2  0  0  0
 13 14  1  0  0  0
 13 18  2  0  0  0
 14 15  2  0  0  0
 15 16  1  0  0  0
 16 19  1  0  0  0
 16 17  2  0  0  0
 19 20  1  0  0  0
 19 23  1  0  0  0
 20 21  2  0  0  0
 20 22  1  0  0  0
 22 25  1  0  0  0
 22 24  1  0  0  0
 25 26  1  0  0  0
 25 31  2  0  0  0
 26 27  2  0  0  0
 27 28  1  0  0  0
 28 29  2  0  0  0
 29 30  1  0  0  0
 29 31  1  0  0  0
 17 18  1  0  0  0
  8  9  1  0  0  0
  9 10  1  0  0  0
 35 36  2  0  0  0
M  END
> <minimizedAffinity>
-7.17152

$$$$
