CHEMBL3969472


 37 41  0  0  0  0  0  0  0  0999 V2000
  -28.9457   -5.5411   -7.0670 C   0  0  0  0  0  0  0  0  0  0  0  0
  -28.7330   -4.5184   -8.0067 C   0  0  0  0  0  0  0  0  0  0  0  0
  -28.3788   -3.1980   -7.6019 C   0  0  0  0  0  0  0  0  0  0  0  0
  -28.1298   -2.0905   -8.4277 C   0  0  0  0  0  0  0  0  0  0  0  0
  -27.7616   -0.8849   -7.9324 N   0  0  0  0  0  0  0  0  0  0  0  0
  -27.6534   -0.7793   -6.6096 C   0  0  0  0  0  0  0  0  0  0  0  0
  -27.8764   -1.7519   -5.7354 N   0  0  0  0  0  0  0  0  0  0  0  0
  -28.2217   -2.9326   -6.2487 C   0  0  0  0  0  0  0  0  0  0  0  0
  -28.4110   -3.9510   -5.3474 C   0  0  0  0  0  0  0  0  0  0  0  0
  -28.7551   -5.2670   -5.7082 C   0  0  0  0  0  0  0  0  0  0  0  0
  -28.2382   -7.3575   -8.4194 C   0  0  0  0  0  0  0  0  0  0  0  0
  -29.2540   -6.7457   -7.6351 O   0  0  0  0  0  0  0  0  0  0  0  0
  -28.2649   -2.2255   -9.8335 N   0  0  0  0  0  0  0  0  0  0  0  0
  -29.1737   -1.8748  -10.1182 H   0  0  0  0  0  0  0  0  0  0  0  0
  -27.2368   -1.9173  -10.7491 C   0  0  0  0  0  0  0  0  0  0  0  0
  -25.9489   -1.5959  -10.2928 C   0  0  0  0  0  0  0  0  0  0  0  0
  -24.9378   -1.2425  -11.1849 C   0  0  0  0  0  0  0  0  0  0  0  0
  -25.2001   -1.2113  -12.5538 C   0  0  0  0  0  0  0  0  0  0  0  0
  -23.9146   -0.7400  -13.6054 Cl  0  0  0  0  0  0  0  0  0  0  0  0
  -26.4745   -1.5494  -13.0239 C   0  0  0  0  0  0  0  0  0  0  0  0
  -26.8727   -1.5292  -14.7059 Cl  0  0  0  0  0  0  0  0  0  0  0  0
  -27.4856   -1.9083  -12.1240 C   0  0  0  0  0  0  0  0  0  0  0  0
  -28.8599   -6.2705   -4.7571 O   0  0  0  0  0  0  0  0  0  0  0  0
  -27.6276   -6.9872   -4.5824 C   0  0  0  0  0  0  0  0  0  0  0  0
  -27.7049   -8.4940   -4.7189 C   0  0  0  0  0  0  0  0  0  0  0  0
  -29.1453   -8.9898   -4.6099 C   0  0  0  0  0  0  0  0  0  0  0  0
  -29.1169  -10.4466   -4.7055 N   0  0  0  0  0  0  0  0  0  0  0  0
  -29.6217  -11.2380   -5.7302 C   0  0  0  0  0  0  0  0  0  0  0  0
  -29.5512  -12.4645   -5.6751 O   0  0  0  0  0  0  0  0  0  0  0  0
  -28.3341  -11.0584   -3.6278 C   0  0  0  0  0  0  0  0  0  0  0  0
  -26.9213  -10.4562   -3.5786 C   0  0  0  0  0  0  0  0  0  0  0  0
  -26.9366   -9.0240   -3.6069 O   0  0  0  0  0  0  0  0  0  0  0  0
  -30.2797  -10.6019   -6.8679 C   0  0  0  0  0  0  0  0  0  0  0  0
  -31.4750   -9.8315   -6.9992 C   0  0  0  0  0  0  0  0  0  0  0  0
  -31.6266   -9.5543   -8.3375 C   0  0  0  0  0  0  0  0  0  0  0  0
  -30.5591  -10.0114   -9.0347 O   0  0  0  0  0  0  0  0  0  0  0  0
  -29.7347  -10.6090   -8.1391 C   0  0  0  0  0  0  0  0  0  0  0  0
 11 12  1  0  0  0
 12  1  1  0  0  0
  1  2  1  0  0  0
  1 10  2  0  0  0
  2  3  2  0  0  0
  3  4  1  0  0  0
  3  8  1  0  0  0
  4 13  1  0  0  0
  4  5  2  0  0  0
 13 15  1  0  0  0
 13 14  1  0  0  0
 15 16  1  0  0  0
 15 22  2  0  0  0
 16 17  2  0  0  0
 17 18  1  0  0  0
 18 19  1  0  0  0
 18 20  2  0  0  0
 20 21  1  0  0  0
 20 22  1  0  0  0
  5  6  1  0  0  0
  6  7  2  0  0  0
  7  8  1  0  0  0
  8  9  2  0  0  0
  9 10  1  0  0  0
 10 23  1  0  0  0
 23 24  1  0  0  0
 24 25  1  0  0  0
 25 26  1  0  0  0
 25 32  1  0  0  0
 26 27  1  0  0  0
 27 28  1  0  0  0
 27 30  1  0  0  0
 28 29  2  0  0  0
 28 33  1  0  0  0
 33 34  1  0  0  0
 33 37  2  0  0  0
 34 35  2  0  0  0
 35 36  1  0  0  0
 36 37  1  0  0  0
 30 31  1  0  0  0
 31 32  1  0  0  0
M  END
> <minimizedAffinity>
-8.75278

$$$$
