CHEMBL97889


 14 15  0  0  0  0  0  0  0  0999 V2000
  -28.0126   -3.4739   -4.8175 N   0  0  0  0  0  0  0  0  0  0  0  0
  -27.0276   -3.7051   -4.7573 H   0  0  0  0  0  0  0  0  0  0  0  0
  -31.1189   -7.5510   -6.9612 Br  0  0  0  0  0  0  0  0  0  0  0  0
  -30.2481   -6.2394   -5.9601 C   0  0  0  0  0  0  0  0  0  0  0  0
  -30.6596   -5.8097   -4.7292 C   0  0  0  0  0  0  0  0  0  0  0  0
  -29.8806   -4.8106   -4.1846 N   0  0  0  0  0  0  0  0  0  0  0  0
  -28.9039   -4.4694   -5.0041 C   0  0  0  0  0  0  0  0  0  0  0  0
  -28.8492   -5.4178   -6.4560 S   0  0  0  0  0  0  0  0  0  0  0  0
  -28.1374   -2.1614   -5.2832 C   0  0  0  0  0  0  0  0  0  0  0  0
  -28.8167   -1.1584   -4.5916 C   0  0  0  0  0  0  0  0  0  0  0  0
  -28.9884    0.0932   -5.1722 C   0  0  0  0  0  0  0  0  0  0  0  0
  -28.4477    0.3357   -6.4215 C   0  0  0  0  0  0  0  0  0  0  0  0
  -27.7399   -0.6876   -7.0269 C   0  0  0  0  0  0  0  0  0  0  0  0
  -27.5736   -1.9186   -6.4871 N   0  0  0  0  0  0  0  0  0  0  0  0
  3  4  1  0  0  0
  4  5  2  0  0  0
  4  8  1  0  0  0
  5  6  1  0  0  0
  6  7  2  0  0  0
  7  1  1  0  0  0
  7  8  1  0  0  0
  1  9  1  0  0  0
  1  2  1  0  0  0
  9 10  1  0  0  0
  9 14  2  0  0  0
 10 11  2  0  0  0
 11 12  1  0  0  0
 12 13  2  0  0  0
 13 14  1  0  0  0
M  END
> <minimizedAffinity>
-5.43007

$$$$
