CHEMBL3690516


 39 42  0  0  0  0  0  0  0  0999 V2000
  -27.3204   -1.3448   -9.2288 C   0  0  0  0  0  0  0  0  0  0  0  0
  -27.2184   -0.2515   -8.3779 C   0  0  0  0  0  0  0  0  0  0  0  0
  -27.7428   -0.5026   -7.1399 N   0  0  0  0  0  0  0  0  0  0  0  0
  -28.1597   -1.7465   -7.1926 C   0  0  0  0  0  0  0  0  0  0  0  0
  -28.7938   -2.5477   -6.1997 C   0  0  0  0  0  0  0  0  0  0  0  0
  -29.0952   -3.8469   -6.4389 C   0  0  0  0  0  0  0  0  0  0  0  0
  -28.7595   -4.4270   -7.7456 C   0  0  0  0  0  0  0  0  0  0  0  0
  -28.1584   -3.6782   -8.6831 C   0  0  0  0  0  0  0  0  0  0  0  0
  -27.8818   -2.3337   -8.4266 N   0  0  0  0  0  0  0  0  0  0  0  0
  -29.6986   -4.6589   -5.3549 C   0  0  0  0  0  0  0  0  0  0  0  0
  -30.8617   -4.2476   -4.8157 N   0  0  0  0  0  0  0  0  0  0  0  0
  -31.3470   -5.0082   -3.8163 C   0  0  0  0  0  0  0  0  0  0  0  0
  -30.7149   -6.1341   -3.3521 C   0  0  0  0  0  0  0  0  0  0  0  0
  -31.2115   -6.8312   -2.3207 F   0  0  0  0  0  0  0  0  0  0  0  0
  -29.5087   -6.4735   -3.9428 C   0  0  0  0  0  0  0  0  0  0  0  0
  -29.0031   -5.7476   -4.9580 N   0  0  0  0  0  0  0  0  0  0  0  0
  -28.7362   -7.4738   -3.3586 N   0  0  0  0  0  0  0  0  0  0  0  0
  -28.7286   -7.4986   -2.3447 H   0  0  0  0  0  0  0  0  0  0  0  0
  -28.5123   -8.7285   -4.0694 C   0  0  0  0  0  0  0  0  0  0  0  0
  -27.0530   -8.7690   -4.5462 C   0  0  0  0  0  0  0  0  0  0  0  0
  -26.4007   -7.5381   -4.2131 O   0  0  0  0  0  0  0  0  0  0  0  0
  -27.0092   -6.8431   -4.5339 H   0  0  0  0  0  0  0  0  0  0  0  0
  -25.2389   -1.3468  -12.4166 C   0  0  0  0  0  0  0  0  0  0  0  0
  -26.1973   -1.7480  -13.3424 C   0  0  0  0  0  0  0  0  0  0  0  0
  -27.5072   -1.9996  -12.9343 C   0  0  0  0  0  0  0  0  0  0  0  0
  -27.8707   -1.8434  -11.5974 C   0  0  0  0  0  0  0  0  0  0  0  0
  -26.9253   -1.4567  -10.6387 C   0  0  0  0  0  0  0  0  0  0  0  0
  -25.6047   -1.2389  -11.0662 C   0  0  0  0  0  0  0  0  0  0  0  0
  -23.9842    1.2917  -13.0003 O   0  0  0  0  0  0  0  0  0  0  0  0
  -23.3864    0.2210  -13.0051 C   0  0  0  0  0  0  0  0  0  0  0  0
  -22.0290    0.1579  -13.2547 N   0  0  0  0  0  0  0  0  0  0  0  0
  -23.9066   -1.0210  -12.7552 N   0  0  0  0  0  0  0  0  0  0  0  0
  -21.6998   -0.7032  -13.6628 H   0  0  0  0  0  0  0  0  0  0  0  0
  -23.2476   -1.7910  -12.7635 H   0  0  0  0  0  0  0  0  0  0  0  0
  -21.3402    1.3778  -13.6905 C   0  0  0  0  0  0  0  0  0  0  0  0
  -20.2170    1.1534  -14.7131 C   0  0  0  0  0  0  0  0  0  0  0  0
  -18.9921    1.2464  -14.1430 F   0  0  0  0  0  0  0  0  0  0  0  0
  -20.3074   -0.0435  -15.3255 F   0  0  0  0  0  0  0  0  0  0  0  0
  -20.2703    2.1090  -15.6745 F   0  0  0  0  0  0  0  0  0  0  0  0
 29 30  2  0  0  0
 30 31  1  0  0  0
 30 32  1  0  0  0
 31 35  1  0  0  0
 31 33  1  0  0  0
 35 36  1  0  0  0
 36 37  1  0  0  0
 36 38  1  0  0  0
 36 39  1  0  0  0
 32 23  1  0  0  0
 32 34  1  0  0  0
 23 24  1  0  0  0
 23 28  2  0  0  0
 24 25  2  0  0  0
 25 26  1  0  0  0
 26 27  2  0  0  0
 27  1  1  0  0  0
 27 28  1  0  0  0
  1  2  2  0  0  0
  1  9  1  0  0  0
  2  3  1  0  0  0
  3  4  2  0  0  0
  4  5  1  0  0  0
  4  9  1  0  0  0
  5  6  2  0  0  0
  6 10  1  0  0  0
  6  7  1  0  0  0
 10 11  1  0  0  0
 10 16  2  0  0  0
 11 12  2  0  0  0
 12 13  1  0  0  0
 13 14  1  0  0  0
 13 15  2  0  0  0
 15 17  1  0  0  0
 15 16  1  0  0  0
 17 19  1  0  0  0
 17 18  1  0  0  0
 19 20  1  0  0  0
 20 21  1  0  0  0
 21 22  1  0  0  0
  7  8  2  0  0  0
  8  9  1  0  0  0
M  END
> <minimizedAffinity>
-8.90700

$$$$
