CHEMBL45214


 25 28  0  0  0  0  0  0  0  0999 V2000
  -29.6663   -4.7395   -6.0457 C   0  0  0  0  0  0  0  0  0  0  0  0
  -29.3836   -3.8287   -7.0411 C   0  0  0  0  0  0  0  0  0  0  0  0
  -28.6558   -4.3172   -8.0939 C   0  0  0  0  0  0  0  0  0  0  0  0
  -28.2813   -5.6002   -8.1940 N   0  0  0  0  0  0  0  0  0  0  0  0
  -28.6260   -6.4344   -7.2039 C   0  0  0  0  0  0  0  0  0  0  0  0
  -29.2885   -6.0353   -6.1155 N   0  0  0  0  0  0  0  0  0  0  0  0
  -30.1857   -3.1106   -4.1686 C   0  0  0  0  0  0  0  0  0  0  0  0
  -30.8860   -3.1550   -3.0417 N   0  0  0  0  0  0  0  0  0  0  0  0
  -31.5930   -4.3216   -3.0654 C   0  0  0  0  0  0  0  0  0  0  0  0
  -31.3370   -5.0170   -4.2188 C   0  0  0  0  0  0  0  0  0  0  0  0
  -30.3631   -4.2980   -4.8840 N   0  0  0  0  0  0  0  0  0  0  0  0
  -27.9410    0.3748   -5.2633 C   0  0  0  0  0  0  0  0  0  0  0  0
  -29.3114    0.3092   -5.5077 C   0  0  0  0  0  0  0  0  0  0  0  0
  -30.0304   -0.8427   -5.1730 C   0  0  0  0  0  0  0  0  0  0  0  0
  -29.3886   -1.9437   -4.5907 C   0  0  0  0  0  0  0  0  0  0  0  0
  -27.9929   -1.8934   -4.4481 C   0  0  0  0  0  0  0  0  0  0  0  0
  -27.2782   -0.7309   -4.7433 C   0  0  0  0  0  0  0  0  0  0  0  0
  -28.2836   -7.7861   -7.2900 N   0  0  0  0  0  0  0  0  0  0  0  0
  -28.6043   -8.2637   -6.4567 H   0  0  0  0  0  0  0  0  0  0  0  0
  -28.3086   -8.5668   -8.4623 C   0  0  0  0  0  0  0  0  0  0  0  0
  -29.5040   -9.1550   -8.8773 C   0  0  0  0  0  0  0  0  0  0  0  0
  -29.4896   -9.9601  -10.0069 C   0  0  0  0  0  0  0  0  0  0  0  0
  -28.3911  -10.1944  -10.7555 N   0  0  0  0  0  0  0  0  0  0  0  0
  -27.2522   -9.6005  -10.3513 C   0  0  0  0  0  0  0  0  0  0  0  0
  -27.1633   -8.7925   -9.2321 C   0  0  0  0  0  0  0  0  0  0  0  0
 12 13  1  0  0  0
 12 17  2  0  0  0
 13 14  2  0  0  0
 14 15  1  0  0  0
 15  7  1  0  0  0
 15 16  2  0  0  0
  7  8  2  0  0  0
  7 11  1  0  0  0
  8  9  1  0  0  0
  9 10  2  0  0  0
 10 11  1  0  0  0
 11  1  1  0  0  0
  1  2  1  0  0  0
  1  6  2  0  0  0
  2  3  2  0  0  0
  3  4  1  0  0  0
  4  5  2  0  0  0
  5 18  1  0  0  0
  5  6  1  0  0  0
 18 20  1  0  0  0
 18 19  1  0  0  0
 20 21  1  0  0  0
 20 25  2  0  0  0
 21 22  2  0  0  0
 22 23  1  0  0  0
 23 24  2  0  0  0
 24 25  1  0  0  0
 16 17  1  0  0  0
M  END
> <minimizedAffinity>
-8.14457

$$$$
