CHEMBL3690391


 31 33  0  0  0  0  0  0  0  0999 V2000
  -28.9956   11.5241  -14.7246 C   0  0  0  0  0  0  0  0  0  0  0  0
  -29.5042   10.7368  -15.7540 C   0  0  0  0  0  0  0  0  0  0  0  0
  -28.6407   10.0625  -16.6183 C   0  0  0  0  0  0  0  0  0  0  0  0
  -27.2585   10.1730  -16.4633 C   0  0  0  0  0  0  0  0  0  0  0  0
  -26.7169   10.9854  -15.4604 C   0  0  0  0  0  0  0  0  0  0  0  0
  -27.6056   11.6676  -14.6110 C   0  0  0  0  0  0  0  0  0  0  0  0
  -25.2613   11.1602  -15.3661 C   0  0  0  0  0  0  0  0  0  0  0  0
  -24.4633   11.2795  -14.2359 C   0  0  0  0  0  0  0  0  0  0  0  0
  -23.1305   11.3381  -14.5410 N   0  0  0  0  0  0  0  0  0  0  0  0
  -23.0777   11.2658  -15.8512 C   0  0  0  0  0  0  0  0  0  0  0  0
  -21.9594   11.2421  -16.7346 C   0  0  0  0  0  0  0  0  0  0  0  0
  -22.1517   11.1816  -18.0670 C   0  0  0  0  0  0  0  0  0  0  0  0
  -23.4951   11.1675  -18.6275 C   0  0  0  0  0  0  0  0  0  0  0  0
  -24.5512   11.2065  -17.8011 C   0  0  0  0  0  0  0  0  0  0  0  0
  -24.3533   11.2120  -16.4182 N   0  0  0  0  0  0  0  0  0  0  0  0
  -21.0534   11.1535  -18.9705 C   0  0  0  0  0  0  0  0  0  0  0  0
  -20.1474   11.1346  -19.7544 C   0  0  0  0  0  0  0  0  0  0  0  0
  -19.0441   11.1081  -20.7149 C   0  0  0  0  0  0  0  0  0  0  0  0
  -19.3349   10.1967  -21.7640 O   0  0  0  0  0  0  0  0  0  0  0  0
  -19.4892    9.3311  -21.3501 H   0  0  0  0  0  0  0  0  0  0  0  0
  -29.9907   10.6140  -12.0755 O   0  0  0  0  0  0  0  0  0  0  0  0
  -30.2240   11.7125  -12.5601 C   0  0  0  0  0  0  0  0  0  0  0  0
  -30.9829   12.6470  -11.8849 N   0  0  0  0  0  0  0  0  0  0  0  0
  -29.7958   12.1941  -13.7733 N   0  0  0  0  0  0  0  0  0  0  0  0
  -31.5001   13.2910  -12.4663 H   0  0  0  0  0  0  0  0  0  0  0  0
  -30.0255   13.1552  -13.9747 H   0  0  0  0  0  0  0  0  0  0  0  0
  -31.6492   12.2384  -10.6421 C   0  0  0  0  0  0  0  0  0  0  0  0
  -33.0109   11.5566  -10.8355 C   0  0  0  0  0  0  0  0  0  0  0  0
  -33.6314   11.9842  -11.9608 F   0  0  0  0  0  0  0  0  0  0  0  0
  -32.9130   10.2138  -10.8928 F   0  0  0  0  0  0  0  0  0  0  0  0
  -33.8319   11.8626   -9.8000 F   0  0  0  0  0  0  0  0  0  0  0  0
 21 22  2  0  0  0
 22 23  1  0  0  0
 22 24  1  0  0  0
 23 27  1  0  0  0
 23 25  1  0  0  0
 27 28  1  0  0  0
 28 29  1  0  0  0
 28 30  1  0  0  0
 28 31  1  0  0  0
 24  1  1  0  0  0
 24 26  1  0  0  0
  1  2  1  0  0  0
  1  6  2  0  0  0
  2  3  2  0  0  0
  3  4  1  0  0  0
  4  5  2  0  0  0
  5  7  1  0  0  0
  5  6  1  0  0  0
  7  8  2  0  0  0
  7 15  1  0  0  0
  8  9  1  0  0  0
  9 10  2  0  0  0
 10 11  1  0  0  0
 10 15  1  0  0  0
 11 12  2  0  0  0
 12 16  1  0  0  0
 12 13  1  0  0  0
 16 17  3  0  0  0
 17 18  1  0  0  0
 18 19  1  0  0  0
 19 20  1  0  0  0
 13 14  2  0  0  0
 14 15  1  0  0  0
M  END
> <minimizedAffinity>
-6.17192

$$$$
