CHEMBL3612324


 30 33  0  0  0  0  0  0  0  0999 V2000
  -19.5229    1.3881  -15.3580 C   0  0  0  0  0  0  0  0  0  0  0  0
  -19.2425    2.7588  -15.4249 C   0  0  0  0  0  0  0  0  0  0  0  0
  -17.9254    3.2272  -15.3196 C   0  0  0  0  0  0  0  0  0  0  0  0
  -16.8689    2.3301  -15.1414 C   0  0  0  0  0  0  0  0  0  0  0  0
  -17.1495    0.9595  -15.0905 C   0  0  0  0  0  0  0  0  0  0  0  0
  -18.4712    0.4899  -15.1734 C   0  0  0  0  0  0  0  0  0  0  0  0
  -22.8585    0.0810  -14.6969 N   0  0  0  0  0  0  0  0  0  0  0  0
  -21.5741    0.5260  -14.4087 C   0  0  0  0  0  0  0  0  0  0  0  0
  -21.1009    0.6146  -13.2797 O   0  0  0  0  0  0  0  0  0  0  0  0
  -20.8505    0.9029  -15.5374 N   0  0  0  0  0  0  0  0  0  0  0  0
  -23.1001   -0.0384  -15.6667 H   0  0  0  0  0  0  0  0  0  0  0  0
  -21.3968    1.3593  -16.2536 H   0  0  0  0  0  0  0  0  0  0  0  0
  -25.8262   -1.0612  -11.8679 C   0  0  0  0  0  0  0  0  0  0  0  0
  -24.8375   -0.1549  -11.5031 C   0  0  0  0  0  0  0  0  0  0  0  0
  -23.8560    0.2149  -12.4250 C   0  0  0  0  0  0  0  0  0  0  0  0
  -23.8245   -0.3017  -13.7247 C   0  0  0  0  0  0  0  0  0  0  0  0
  -24.8159   -1.2349  -14.0777 C   0  0  0  0  0  0  0  0  0  0  0  0
  -25.8127   -1.6079  -13.1533 C   0  0  0  0  0  0  0  0  0  0  0  0
  -27.6863   -1.6831  -10.1646 N   0  0  0  0  0  0  0  0  0  0  0  0
  -26.8482   -1.4130  -10.9206 C   0  0  0  0  0  0  0  0  0  0  0  0
  -15.1802    2.9128  -15.0783 S   0  0  0  0  0  0  0  0  0  0  0  0
  -14.8283    3.2457  -16.7926 C   0  0  0  0  0  0  0  0  0  0  0  0
  -15.0539    4.5095  -17.3393 C   0  0  0  0  0  0  0  0  0  0  0  0
  -14.7862    4.7233  -18.6773 C   0  0  0  0  0  0  0  0  0  0  0  0
  -14.3142    3.7998  -19.5302 N   0  0  0  0  0  0  0  0  0  0  0  0
  -14.1093    2.5613  -19.0077 C   0  0  0  0  0  0  0  0  0  0  0  0
  -13.5978    1.4563  -19.7500 C   0  0  0  0  0  0  0  0  0  0  0  0
  -13.4967    0.3155  -18.9904 C   0  0  0  0  0  0  0  0  0  0  0  0
  -14.0208    0.5704  -17.3853 S   0  0  0  0  0  0  0  0  0  0  0  0
  -14.3636    2.2414  -17.6685 C   0  0  0  0  0  0  0  0  0  0  0  0
 19 20  3  0  0  0
 20 13  1  0  0  0
 13 14  1  0  0  0
 13 18  2  0  0  0
 14 15  2  0  0  0
 15 16  1  0  0  0
 16  7  1  0  0  0
 16 17  2  0  0  0
  7  8  1  0  0  0
  7 11  1  0  0  0
  8  9  2  0  0  0
  8 10  1  0  0  0
 10  1  1  0  0  0
 10 12  1  0  0  0
  1  2  1  0  0  0
  1  6  2  0  0  0
  2  3  2  0  0  0
  3  4  1  0  0  0
  4 21  1  0  0  0
  4  5  2  0  0  0
 21 22  1  0  0  0
 22 23  1  0  0  0
 22 30  2  0  0  0
 23 24  2  0  0  0
 24 25  1  0  0  0
 25 26  2  0  0  0
 26 27  1  0  0  0
 26 30  1  0  0  0
 27 28  2  0  0  0
 28 29  1  0  0  0
 29 30  1  0  0  0
  5  6  1  0  0  0
 17 18  1  0  0  0
M  END
> <minimizedAffinity>
-8.00845

$$$$
