CHEMBL248713


 32 36  0  0  0  0  0  0  0  0999 V2000
  -29.3736   -4.9093   -7.1074 C   0  0  0  0  0  0  0  0  0  0  0  0
  -29.7249   -4.2835   -5.9020 C   0  0  0  0  0  0  0  0  0  0  0  0
  -29.4791   -2.9847   -5.5343 N   0  0  0  0  0  0  0  0  0  0  0  0
  -28.8284   -2.2953   -6.4923 C   0  0  0  0  0  0  0  0  0  0  0  0
  -28.4149   -0.9904   -6.4616 N   0  0  0  0  0  0  0  0  0  0  0  0
  -27.7255   -0.5967   -7.5712 N   0  0  0  0  0  0  0  0  0  0  0  0
  -27.7732   -1.6898   -8.3479 C   0  0  0  0  0  0  0  0  0  0  0  0
  -28.4249   -2.7736   -7.7185 C   0  0  0  0  0  0  0  0  0  0  0  0
  -28.6846   -4.1141   -8.0244 C   0  0  0  0  0  0  0  0  0  0  0  0
  -28.5588   -0.3316   -5.7063 H   0  0  0  0  0  0  0  0  0  0  0  0
  -27.1600   -1.8294   -9.6989 C   0  0  0  0  0  0  0  0  0  0  0  0
  -25.8795   -1.5996   -9.9170 N   0  0  0  0  0  0  0  0  0  0  0  0
  -25.7265   -1.5916  -11.2697 C   0  0  0  0  0  0  0  0  0  0  0  0
  -24.5799   -1.2956  -12.0110 C   0  0  0  0  0  0  0  0  0  0  0  0
  -24.7083   -1.2703  -13.3941 C   0  0  0  0  0  0  0  0  0  0  0  0
  -23.6382   -0.9555  -14.1371 F   0  0  0  0  0  0  0  0  0  0  0  0
  -25.9202   -1.5446  -14.0253 C   0  0  0  0  0  0  0  0  0  0  0  0
  -27.0705   -1.8713  -13.2898 C   0  0  0  0  0  0  0  0  0  0  0  0
  -26.9320   -1.8806  -11.9021 C   0  0  0  0  0  0  0  0  0  0  0  0
  -27.8137   -2.1142  -10.8674 N   0  0  0  0  0  0  0  0  0  0  0  0
  -28.8004   -2.3145  -10.9381 H   0  0  0  0  0  0  0  0  0  0  0  0
  -29.0043   -8.5017   -8.3024 C   0  0  0  0  0  0  0  0  0  0  0  0
  -30.3046   -8.9290   -8.0768 C   0  0  0  0  0  0  0  0  0  0  0  0
  -31.2857   -8.1457   -7.5709 N   0  0  0  0  0  0  0  0  0  0  0  0
  -30.9553   -6.8667   -7.2655 C   0  0  0  0  0  0  0  0  0  0  0  0
  -29.6957   -6.3053   -7.4542 C   0  0  0  0  0  0  0  0  0  0  0  0
  -28.7169   -7.1690   -7.9854 C   0  0  0  0  0  0  0  0  0  0  0  0
  -27.9671   -9.4098   -8.9097 C   0  0  0  0  0  0  0  0  0  0  0  0
  -27.2728   -8.7900  -10.0410 N   0  0  0  0  0  0  0  0  0  0  0  0
  -27.7655   -7.9436  -10.3235 H   0  0  0  0  0  0  0  0  0  0  0  0
  -27.9663  -10.9913  -10.8691 C   0  0  0  0  0  0  0  0  0  0  0  0
  -27.2049   -9.7112  -11.1770 C   0  0  0  0  0  0  0  0  0  0  0  0
 31 32  1  0  0  0
 32 29  1  0  0  0
 29 28  1  0  0  0
 29 30  1  0  0  0
 28 22  1  0  0  0
 22 23  1  0  0  0
 22 27  2  0  0  0
 23 24  2  0  0  0
 24 25  1  0  0  0
 25 26  2  0  0  0
 26  1  1  0  0  0
 26 27  1  0  0  0
  1  2  1  0  0  0
  1  9  2  0  0  0
  2  3  2  0  0  0
  3  4  1  0  0  0
  4  5  1  0  0  0
  4  8  2  0  0  0
  5  6  1  0  0  0
  5 10  1  0  0  0
  6  7  2  0  0  0
  7 11  1  0  0  0
  7  8  1  0  0  0
 11 12  2  0  0  0
 11 20  1  0  0  0
 12 13  1  0  0  0
 13 14  1  0  0  0
 13 19  2  0  0  0
 14 15  2  0  0  0
 15 16  1  0  0  0
 15 17  1  0  0  0
 17 18  2  0  0  0
 18 19  1  0  0  0
 19 20  1  0  0  0
 20 21  1  0  0  0
  8  9  1  0  0  0
M  END
> <minimizedAffinity>
-10.29125

$$$$
