CHEMBL1985491


 33 36  0  0  0  0  0  0  0  0999 V2000
  -29.5747   -5.6475   -4.6820 C   0  0  0  0  0  0  0  0  0  0  0  0
  -28.3421   -6.2150   -4.3627 C   0  0  0  0  0  0  0  0  0  0  0  0
  -27.9692   -7.4512   -4.9069 C   0  0  0  0  0  0  0  0  0  0  0  0
  -28.8154   -8.1712   -5.7756 C   0  0  0  0  0  0  0  0  0  0  0  0
  -30.0735   -7.5907   -6.0353 C   0  0  0  0  0  0  0  0  0  0  0  0
  -30.4612   -6.3583   -5.4852 C   0  0  0  0  0  0  0  0  0  0  0  0
  -28.4445   -9.5183   -6.2843 C   0  0  0  0  0  0  0  0  0  0  0  0
  -28.3399  -10.6222   -5.3930 C   0  0  0  0  0  0  0  0  0  0  0  0
  -28.1625  -11.9356   -5.8327 C   0  0  0  0  0  0  0  0  0  0  0  0
  -28.1746  -12.2323   -7.1893 C   0  0  0  0  0  0  0  0  0  0  0  0
  -28.2698  -11.1632   -8.0821 C   0  0  0  0  0  0  0  0  0  0  0  0
  -28.3056   -9.8253   -7.6724 C   0  0  0  0  0  0  0  0  0  0  0  0
  -28.0347   -9.1331   -8.8924 C   0  0  0  0  0  0  0  0  0  0  0  0
  -27.4499   -7.9226   -9.0066 N   0  0  0  0  0  0  0  0  0  0  0  0
  -28.1621   -9.8983   -9.9681 N   0  0  0  0  0  0  0  0  0  0  0  0
  -28.3011  -11.1252   -9.4536 N   0  0  0  0  0  0  0  0  0  0  0  0
  -28.2697  -12.2567  -10.3527 C   0  0  0  0  0  0  0  0  0  0  0  0
  -26.5674   -8.0600   -9.5128 H   0  0  0  0  0  0  0  0  0  0  0  0
  -27.9432   -7.3232   -9.6566 H   0  0  0  0  0  0  0  0  0  0  0  0
  -29.7434   -2.0276   -4.4936 N   0  0  0  0  0  0  0  0  0  0  0  0
  -29.4123   -3.2631   -5.0284 C   0  0  0  0  0  0  0  0  0  0  0  0
  -28.8041   -3.4403   -6.0573 O   0  0  0  0  0  0  0  0  0  0  0  0
  -29.8950   -4.3242   -4.2596 N   0  0  0  0  0  0  0  0  0  0  0  0
  -30.3978   -2.0274   -3.7309 H   0  0  0  0  0  0  0  0  0  0  0  0
  -30.8396   -4.1895   -3.9401 H   0  0  0  0  0  0  0  0  0  0  0  0
  -31.4253    2.0665   -6.6934 C   0  0  0  0  0  0  0  0  0  0  0  0
  -30.2734    1.2287   -6.2139 C   0  0  0  0  0  0  0  0  0  0  0  0
  -28.9574    1.6547   -6.4473 C   0  0  0  0  0  0  0  0  0  0  0  0
  -27.8921    0.9056   -5.9699 C   0  0  0  0  0  0  0  0  0  0  0  0
  -28.1272   -0.2866   -5.2818 C   0  0  0  0  0  0  0  0  0  0  0  0
  -27.0500   -0.8634   -4.7359 F   0  0  0  0  0  0  0  0  0  0  0  0
  -29.4299   -0.7787   -5.0932 C   0  0  0  0  0  0  0  0  0  0  0  0
  -30.4993    0.0138   -5.5403 C   0  0  0  0  0  0  0  0  0  0  0  0
 26 27  1  0  0  0
 27 28  1  0  0  0
 27 33  2  0  0  0
 28 29  2  0  0  0
 29 30  1  0  0  0
 30 31  1  0  0  0
 30 32  2  0  0  0
 32 20  1  0  0  0
 32 33  1  0  0  0
 20 21  1  0  0  0
 20 24  1  0  0  0
 21 22  2  0  0  0
 21 23  1  0  0  0
 23  1  1  0  0  0
 23 25  1  0  0  0
  1  2  1  0  0  0
  1  6  2  0  0  0
  2  3  2  0  0  0
  3  4  1  0  0  0
  4  7  1  0  0  0
  4  5  2  0  0  0
  7  8  1  0  0  0
  7 12  2  0  0  0
  8  9  2  0  0  0
  9 10  1  0  0  0
 10 11  2  0  0  0
 11 12  1  0  0  0
 11 16  1  0  0  0
 12 13  1  0  0  0
 13 14  1  0  0  0
 13 15  2  0  0  0
 14 18  1  0  0  0
 14 19  1  0  0  0
 15 16  1  0  0  0
 16 17  1  0  0  0
  5  6  1  0  0  0
M  END
> <minimizedAffinity>
-8.82350

$$$$
