CHEMBL3953630


 43 47  0  0  0  0  0  0  0  0999 V2000
  -26.2525   -0.8979   -9.2570 O   0  0  0  0  0  0  0  0  0  0  0  0
  -26.7929   -1.8657   -9.7767 C   0  0  0  0  0  0  0  0  0  0  0  0
  -27.7887   -2.6145   -9.1674 N   0  0  0  0  0  0  0  0  0  0  0  0
  -26.4567   -2.3662  -11.0285 N   0  0  0  0  0  0  0  0  0  0  0  0
  -28.0769   -3.4623   -9.6306 H   0  0  0  0  0  0  0  0  0  0  0  0
  -27.0656   -3.0666  -11.4257 H   0  0  0  0  0  0  0  0  0  0  0  0
  -25.3861   -1.9177  -11.8421 C   0  0  0  0  0  0  0  0  0  0  0  0
  -24.0760   -1.7678  -11.3683 C   0  0  0  0  0  0  0  0  0  0  0  0
  -23.0456   -1.3331  -12.2027 C   0  0  0  0  0  0  0  0  0  0  0  0
  -23.3097   -0.9911  -13.5257 C   0  0  0  0  0  0  0  0  0  0  0  0
  -24.6028   -1.1814  -14.0181 C   0  0  0  0  0  0  0  0  0  0  0  0
  -24.8792   -0.9170  -15.3004 F   0  0  0  0  0  0  0  0  0  0  0  0
  -25.6364   -1.6388  -13.1928 C   0  0  0  0  0  0  0  0  0  0  0  0
  -22.3411   -0.5199  -14.3880 O   0  0  0  0  0  0  0  0  0  0  0  0
  -22.0151    0.8261  -14.3602 C   0  0  0  0  0  0  0  0  0  0  0  0
  -22.8012    1.7906  -13.7391 C   0  0  0  0  0  0  0  0  0  0  0  0
  -22.3520    3.0921  -13.7495 C   0  0  0  0  0  0  0  0  0  0  0  0
  -21.2241    3.4783  -14.3730 N   0  0  0  0  0  0  0  0  0  0  0  0
  -20.4942    2.5588  -15.0303 C   0  0  0  0  0  0  0  0  0  0  0  0
  -20.8579    1.2141  -15.0403 C   0  0  0  0  0  0  0  0  0  0  0  0
  -19.3335    2.9580  -15.7079 N   0  0  0  0  0  0  0  0  0  0  0  0
  -18.0541    2.6249  -15.3140 C   0  0  0  0  0  0  0  0  0  0  0  0
  -17.7090    1.9914  -14.3271 O   0  0  0  0  0  0  0  0  0  0  0  0
  -19.4505    3.5157  -16.5383 H   0  0  0  0  0  0  0  0  0  0  0  0
  -16.9989    3.1013  -16.2645 C   0  0  0  0  0  0  0  0  0  0  0  0
  -15.5551    3.0705  -15.8145 C   0  0  0  0  0  0  0  0  0  0  0  0
  -16.2469    4.3886  -15.9993 C   0  0  0  0  0  0  0  0  0  0  0  0
  -28.3184   -2.3887   -7.8713 C   0  0  0  0  0  0  0  0  0  0  0  0
  -28.7817   -3.4129   -7.0359 C   0  0  0  0  0  0  0  0  0  0  0  0
  -29.2598   -3.1432   -5.7500 C   0  0  0  0  0  0  0  0  0  0  0  0
  -29.3160   -1.8209   -5.3095 C   0  0  0  0  0  0  0  0  0  0  0  0
  -28.8749   -0.7732   -6.1274 C   0  0  0  0  0  0  0  0  0  0  0  0
  -28.3617   -1.0703   -7.4035 C   0  0  0  0  0  0  0  0  0  0  0  0
  -29.6402   -4.1891   -4.8844 N   0  0  0  0  0  0  0  0  0  0  0  0
  -30.8777   -4.9181   -5.0016 C   0  0  0  0  0  0  0  0  0  0  0  0
  -30.8919   -5.7772   -3.7499 C   0  0  0  0  0  0  0  0  0  0  0  0
  -29.4213   -6.0882   -3.5248 C   0  0  0  0  0  0  0  0  0  0  0  0
  -28.7299   -4.8557   -4.0539 C   0  0  0  0  0  0  0  0  0  0  0  0
  -27.5552   -4.5882   -3.8517 O   0  0  0  0  0  0  0  0  0  0  0  0
  -28.9324    0.6515   -5.6399 C   0  0  0  0  0  0  0  0  0  0  0  0
  -30.1707    1.0523   -5.2410 F   0  0  0  0  0  0  0  0  0  0  0  0
  -28.1056    0.8682   -4.5804 F   0  0  0  0  0  0  0  0  0  0  0  0
  -28.5464    1.5398   -6.5986 F   0  0  0  0  0  0  0  0  0  0  0  0
  1  2  2  0  0  0
  2  3  1  0  0  0
  2  4  1  0  0  0
  3 28  1  0  0  0
  3  5  1  0  0  0
 28 29  1  0  0  0
 28 33  2  0  0  0
 29 30  2  0  0  0
 30 34  1  0  0  0
 30 31  1  0  0  0
 34 35  1  0  0  0
 34 38  1  0  0  0
 35 36  1  0  0  0
 36 37  1  0  0  0
 37 38  1  0  0  0
 38 39  2  0  0  0
 31 32  2  0  0  0
 32 40  1  0  0  0
 32 33  1  0  0  0
 40 41  1  0  0  0
 40 42  1  0  0  0
 40 43  1  0  0  0
  4  7  1  0  0  0
  4  6  1  0  0  0
  7  8  1  0  0  0
  7 13  2  0  0  0
  8  9  2  0  0  0
  9 10  1  0  0  0
 10 14  1  0  0  0
 10 11  2  0  0  0
 14 15  1  0  0  0
 15 16  1  0  0  0
 15 20  2  0  0  0
 16 17  2  0  0  0
 17 18  1  0  0  0
 18 19  2  0  0  0
 19 21  1  0  0  0
 19 20  1  0  0  0
 21 22  1  0  0  0
 21 24  1  0  0  0
 22 23  2  0  0  0
 22 25  1  0  0  0
 25 26  1  0  0  0
 25 27  1  0  0  0
 26 27  1  0  0  0
 11 12  1  0  0  0
 11 13  1  0  0  0
M  END
> <minimizedAffinity>
-13.03921

$$$$
