CHEMBL1171837


 40 44  0  0  0  0  0  0  0  0999 V2000
  -26.4441   -1.6098  -10.2710 C   0  0  0  0  0  0  0  0  0  0  0  0
  -25.5810   -1.4881   -9.4041 O   0  0  0  0  0  0  0  0  0  0  0  0
  -27.7509   -2.0374  -10.0569 N   0  0  0  0  0  0  0  0  0  0  0  0
  -28.2820   -2.3352  -10.8652 H   0  0  0  0  0  0  0  0  0  0  0  0
  -25.0984   -0.9032  -15.8711 C   0  0  0  0  0  0  0  0  0  0  0  0
  -25.3701   -1.0926  -14.4027 C   0  0  0  0  0  0  0  0  0  0  0  0
  -26.4589   -1.8809  -14.0134 C   0  0  0  0  0  0  0  0  0  0  0  0
  -26.7751   -2.0260  -12.6660 C   0  0  0  0  0  0  0  0  0  0  0  0
  -26.0064   -1.3963  -11.6767 C   0  0  0  0  0  0  0  0  0  0  0  0
  -24.8871   -0.6419  -12.0478 C   0  0  0  0  0  0  0  0  0  0  0  0
  -24.5779   -0.4750  -13.4128 C   0  0  0  0  0  0  0  0  0  0  0  0
  -23.4743    0.3665  -13.7918 C   0  0  0  0  0  0  0  0  0  0  0  0
  -22.5781    1.1000  -14.1177 C   0  0  0  0  0  0  0  0  0  0  0  0
  -21.5029    1.9710  -14.4363 C   0  0  0  0  0  0  0  0  0  0  0  0
  -21.5213    3.3477  -14.4374 C   0  0  0  0  0  0  0  0  0  0  0  0
  -20.3107    3.8765  -14.8046 N   0  0  0  0  0  0  0  0  0  0  0  0
  -19.5382    2.8260  -15.0345 C   0  0  0  0  0  0  0  0  0  0  0  0
  -18.1909    2.7553  -15.4409 C   0  0  0  0  0  0  0  0  0  0  0  0
  -17.6268    1.5563  -15.6090 C   0  0  0  0  0  0  0  0  0  0  0  0
  -18.4715    0.3604  -15.3518 C   0  0  0  0  0  0  0  0  0  0  0  0
  -19.7108    0.3669  -14.9747 N   0  0  0  0  0  0  0  0  0  0  0  0
  -20.2198    1.6318  -14.8208 N   0  0  0  0  0  0  0  0  0  0  0  0
  -28.2623   -2.4027   -8.7809 C   0  0  0  0  0  0  0  0  0  0  0  0
  -29.0543   -3.5341   -8.5894 C   0  0  0  0  0  0  0  0  0  0  0  0
  -29.6536   -3.7944   -7.3587 C   0  0  0  0  0  0  0  0  0  0  0  0
  -29.4832   -2.9233   -6.2728 C   0  0  0  0  0  0  0  0  0  0  0  0
  -28.6434   -1.7978   -6.4213 C   0  0  0  0  0  0  0  0  0  0  0  0
  -28.0114   -1.5755   -7.6771 C   0  0  0  0  0  0  0  0  0  0  0  0
  -28.4219   -0.7693   -5.3220 C   0  0  0  0  0  0  0  0  0  0  0  0
  -29.5153   -0.1487   -4.8091 F   0  0  0  0  0  0  0  0  0  0  0  0
  -27.8184   -1.3292   -4.2323 F   0  0  0  0  0  0  0  0  0  0  0  0
  -27.5844    0.2302   -5.7259 F   0  0  0  0  0  0  0  0  0  0  0  0
  -30.2483   -3.2226   -4.9997 C   0  0  0  0  0  0  0  0  0  0  0  0
  -29.7995   -4.4470   -4.3403 N   0  0  0  0  0  0  0  0  0  0  0  0
  -30.8041   -5.5145   -4.2673 C   0  0  0  0  0  0  0  0  0  0  0  0
  -30.2529   -6.7363   -3.4945 C   0  0  0  0  0  0  0  0  0  0  0  0
  -28.9981   -7.2953   -4.0374 N   0  0  0  0  0  0  0  0  0  0  0  0
  -29.2357   -8.0049   -5.2912 C   0  0  0  0  0  0  0  0  0  0  0  0
  -28.0176   -6.2024   -4.2079 C   0  0  0  0  0  0  0  0  0  0  0  0
  -28.5542   -4.9509   -4.9430 C   0  0  0  0  0  0  0  0  0  0  0  0
  5  6  1  0  0  0
  6  7  1  0  0  0
  6 11  2  0  0  0
  7  8  2  0  0  0
  8  9  1  0  0  0
  9  1  1  0  0  0
  9 10  2  0  0  0
  1  2  2  0  0  0
  1  3  1  0  0  0
  3 23  1  0  0  0
  3  4  1  0  0  0
 23 24  1  0  0  0
 23 28  2  0  0  0
 24 25  2  0  0  0
 25 26  1  0  0  0
 26 33  1  0  0  0
 26 27  2  0  0  0
 33 34  1  0  0  0
 34 35  1  0  0  0
 34 40  1  0  0  0
 35 36  1  0  0  0
 36 37  1  0  0  0
 37 38  1  0  0  0
 37 39  1  0  0  0
 39 40  1  0  0  0
 27 29  1  0  0  0
 27 28  1  0  0  0
 29 30  1  0  0  0
 29 31  1  0  0  0
 29 32  1  0  0  0
 10 11  1  0  0  0
 11 12  1  0  0  0
 12 13  3  0  0  0
 13 14  1  0  0  0
 14 15  2  0  0  0
 14 22  1  0  0  0
 15 16  1  0  0  0
 16 17  2  0  0  0
 17 18  1  0  0  0
 17 22  1  0  0  0
 18 19  2  0  0  0
 19 20  1  0  0  0
 20 21  2  0  0  0
 21 22  1  0  0  0
M  END
> <minimizedAffinity>
-11.55637

$$$$
