CHEMBL373882


 45 48  0  0  0  0  0  0  0  0999 V2000
  -28.4286   -3.3512   -4.5812 C   0  0  0  0  0  0  0  0  0  0  0  0
  -29.7345   -2.9250   -4.3061 C   0  0  0  0  0  0  0  0  0  0  0  0
  -30.7144   -3.8461   -3.9415 C   0  0  0  0  0  0  0  0  0  0  0  0
  -30.4123   -5.2047   -3.9107 C   0  0  0  0  0  0  0  0  0  0  0  0
  -31.3851   -6.0523   -3.5437 F   0  0  0  0  0  0  0  0  0  0  0  0
  -29.1389   -5.6667   -4.2513 C   0  0  0  0  0  0  0  0  0  0  0  0
  -28.1409   -4.7255   -4.5874 C   0  0  0  0  0  0  0  0  0  0  0  0
  -28.8120   -7.1258   -4.2267 C   0  0  0  0  0  0  0  0  0  0  0  0
  -29.1571   -7.7791   -3.2428 O   0  0  0  0  0  0  0  0  0  0  0  0
  -28.0310   -7.5978   -5.2795 N   0  0  0  0  0  0  0  0  0  0  0  0
  -27.4955   -6.8998   -5.7783 H   0  0  0  0  0  0  0  0  0  0  0  0
  -27.5442   -8.9289   -5.3457 C   0  0  0  0  0  0  0  0  0  0  0  0
  -26.2805   -9.1457   -4.7618 C   0  0  0  0  0  0  0  0  0  0  0  0
  -25.7514  -10.4376   -4.6298 C   0  0  0  0  0  0  0  0  0  0  0  0
  -26.4843  -11.5088   -5.1440 C   0  0  0  0  0  0  0  0  0  0  0  0
  -27.7056  -11.2889   -5.7877 C   0  0  0  0  0  0  0  0  0  0  0  0
  -28.2688  -10.0016   -5.9248 C   0  0  0  0  0  0  0  0  0  0  0  0
  -24.4455  -10.6934   -3.9237 C   0  0  0  0  0  0  0  0  0  0  0  0
  -23.3575  -10.2264   -4.5980 F   0  0  0  0  0  0  0  0  0  0  0  0
  -24.3939  -10.1134   -2.6909 F   0  0  0  0  0  0  0  0  0  0  0  0
  -24.2134  -12.0201   -3.7174 F   0  0  0  0  0  0  0  0  0  0  0  0
  -29.4439   -9.8280   -6.6620 N   0  0  0  0  0  0  0  0  0  0  0  0
  -30.5945  -10.6846   -6.3971 C   0  0  0  0  0  0  0  0  0  0  0  0
  -29.3776   -9.2177   -8.0004 C   0  0  0  0  0  0  0  0  0  0  0  0
  -29.9104  -10.1397   -9.1065 C   0  0  0  0  0  0  0  0  0  0  0  0
  -28.7691  -10.9741   -9.7152 C   0  0  0  0  0  0  0  0  0  0  0  0
  -27.4651  -10.2827   -9.7511 N   0  0  0  0  0  0  0  0  0  0  0  0
  -26.3709  -11.1298   -9.2731 C   0  0  0  0  0  0  0  0  0  0  0  0
  -27.1705   -9.8303  -11.1154 C   0  0  0  0  0  0  0  0  0  0  0  0
  -27.4135   -2.4579   -4.8922 O   0  0  0  0  0  0  0  0  0  0  0  0
  -28.0399   -0.8555   -6.6024 C   0  0  0  0  0  0  0  0  0  0  0  0
  -28.4946    0.4629   -6.8526 C   0  0  0  0  0  0  0  0  0  0  0  0
  -28.6772    1.3838   -5.8267 C   0  0  0  0  0  0  0  0  0  0  0  0
  -28.3703    0.9827   -4.5480 C   0  0  0  0  0  0  0  0  0  0  0  0
  -27.9152   -0.2483   -4.2499 N   0  0  0  0  0  0  0  0  0  0  0  0
  -27.7869   -1.1608   -5.2599 C   0  0  0  0  0  0  0  0  0  0  0  0
  -26.8062   -2.2292   -9.6886 C   0  0  0  0  0  0  0  0  0  0  0  0
  -27.2766   -3.4675   -9.7087 N   0  0  0  0  0  0  0  0  0  0  0  0
  -28.0656   -3.7867   -8.6861 C   0  0  0  0  0  0  0  0  0  0  0  0
  -28.4083   -2.9933   -7.6700 N   0  0  0  0  0  0  0  0  0  0  0  0
  -27.8809   -1.7732   -7.7421 C   0  0  0  0  0  0  0  0  0  0  0  0
  -27.0880   -1.3495   -8.7389 N   0  0  0  0  0  0  0  0  0  0  0  0
  -26.5091   -1.5200  -11.9674 C   0  0  0  0  0  0  0  0  0  0  0  0
  -25.9314   -1.7849  -10.6700 N   0  0  0  0  0  0  0  0  0  0  0  0
  -25.3690   -1.0449  -10.2704 H   0  0  0  0  0  0  0  0  0  0  0  0
 43 44  1  0  0  0
 44 37  1  0  0  0
 44 45  1  0  0  0
 37 38  1  0  0  0
 37 42  2  0  0  0
 38 39  2  0  0  0
 39 40  1  0  0  0
 40 41  2  0  0  0
 41 31  1  0  0  0
 41 42  1  0  0  0
 31 32  1  0  0  0
 31 36  2  0  0  0
 32 33  2  0  0  0
 33 34  1  0  0  0
 34 35  2  0  0  0
 35 36  1  0  0  0
 36 30  1  0  0  0
 30  1  1  0  0  0
  1  2  1  0  0  0
  1  7  2  0  0  0
  2  3  2  0  0  0
  3  4  1  0  0  0
  4  5  1  0  0  0
  4  6  2  0  0  0
  6  8  1  0  0  0
  6  7  1  0  0  0
  8  9  2  0  0  0
  8 10  1  0  0  0
 10 12  1  0  0  0
 10 11  1  0  0  0
 12 13  1  0  0  0
 12 17  2  0  0  0
 13 14  2  0  0  0
 14 18  1  0  0  0
 14 15  1  0  0  0
 18 19  1  0  0  0
 18 20  1  0  0  0
 18 21  1  0  0  0
 15 16  2  0  0  0
 16 17  1  0  0  0
 17 22  1  0  0  0
 22 23  1  0  0  0
 22 24  1  0  0  0
 24 25  1  0  0  0
 25 26  1  0  0  0
 26 27  1  0  0  0
 27 28  1  0  0  0
 27 29  1  0  0  0
M  END
> <minimizedAffinity>
-8.40407

$$$$
