CHEMBL2031913


 43 48  0  0  0  0  0  0  0  0999 V2000
  -17.0780    2.5399  -14.8485 N   0  0  0  0  0  0  0  0  0  0  0  0
  -16.0042    2.1342  -15.6237 C   0  0  0  0  0  0  0  0  0  0  0  0
  -16.0718    1.3340  -16.5534 O   0  0  0  0  0  0  0  0  0  0  0  0
  -16.9152    3.2908  -14.1797 H   0  0  0  0  0  0  0  0  0  0  0  0
  -21.1061    1.1108  -15.1146 C   0  0  0  0  0  0  0  0  0  0  0  0
  -20.0409    0.2319  -15.2519 C   0  0  0  0  0  0  0  0  0  0  0  0
  -18.7207    0.6900  -15.1244 C   0  0  0  0  0  0  0  0  0  0  0  0
  -18.4142    2.0471  -14.9640 C   0  0  0  0  0  0  0  0  0  0  0  0
  -19.4865    2.9432  -14.9141 C   0  0  0  0  0  0  0  0  0  0  0  0
  -20.8134    2.4731  -14.9806 C   0  0  0  0  0  0  0  0  0  0  0  0
  -21.8106    3.3636  -14.8748 F   0  0  0  0  0  0  0  0  0  0  0  0
  -22.4381    0.7392  -15.0689 O   0  0  0  0  0  0  0  0  0  0  0  0
  -26.6711   -1.9269  -13.7486 C   0  0  0  0  0  0  0  0  0  0  0  0
  -26.2599   -1.4089  -14.9673 C   0  0  0  0  0  0  0  0  0  0  0  0
  -24.9957   -0.8431  -15.0844 C   0  0  0  0  0  0  0  0  0  0  0  0
  -24.1499   -0.6892  -13.9655 C   0  0  0  0  0  0  0  0  0  0  0  0
  -22.9368    0.0428  -13.9776 C   0  0  0  0  0  0  0  0  0  0  0  0
  -22.1243    0.0523  -12.8481 C   0  0  0  0  0  0  0  0  0  0  0  0
  -22.5738   -0.6071  -11.7200 C   0  0  0  0  0  0  0  0  0  0  0  0
  -23.7655   -1.2382  -11.6442 N   0  0  0  0  0  0  0  0  0  0  0  0
  -24.5440   -1.2702  -12.7407 C   0  0  0  0  0  0  0  0  0  0  0  0
  -25.7925   -1.8805  -12.6610 C   0  0  0  0  0  0  0  0  0  0  0  0
  -28.7662   -1.7843  -12.6492 C   0  0  0  0  0  0  0  0  0  0  0  0
  -27.8888   -2.5046  -13.5111 O   0  0  0  0  0  0  0  0  0  0  0  0
  -14.6829    2.7361  -15.3374 C   0  0  0  0  0  0  0  0  0  0  0  0
  -13.5237    2.0950  -15.0422 C   0  0  0  0  0  0  0  0  0  0  0  0
  -12.4200    2.9508  -15.1982 N   0  0  0  0  0  0  0  0  0  0  0  0
  -11.0964    2.8203  -14.6003 C   0  0  0  0  0  0  0  0  0  0  0  0
  -12.9397    4.2515  -15.3420 N   0  0  0  0  0  0  0  0  0  0  0  0
  -14.3289    4.1718  -15.4767 C   0  0  0  0  0  0  0  0  0  0  0  0
  -15.1502    5.0535  -15.6769 O   0  0  0  0  0  0  0  0  0  0  0  0
  -13.3426    0.6455  -14.5894 C   0  0  0  0  0  0  0  0  0  0  0  0
  -13.0522   -0.2931  -15.7626 C   0  0  0  0  0  0  0  0  0  0  0  0
  -12.9613   -1.7371  -15.2919 C   0  0  0  0  0  0  0  0  0  0  0  0
  -14.1415   -2.1132  -14.5894 O   0  0  0  0  0  0  0  0  0  0  0  0
  -14.2988   -1.3824  -13.3786 C   0  0  0  0  0  0  0  0  0  0  0  0
  -14.4323    0.1133  -13.6375 C   0  0  0  0  0  0  0  0  0  0  0  0
  -12.1621    5.3526  -15.7455 C   0  0  0  0  0  0  0  0  0  0  0  0
  -11.8047    5.4609  -17.0937 C   0  0  0  0  0  0  0  0  0  0  0  0
  -11.0929    6.5727  -17.5486 C   0  0  0  0  0  0  0  0  0  0  0  0
  -10.6969    7.5627  -16.6508 C   0  0  0  0  0  0  0  0  0  0  0  0
  -11.0312    7.4527  -15.3015 C   0  0  0  0  0  0  0  0  0  0  0  0
  -11.7788    6.3596  -14.8520 C   0  0  0  0  0  0  0  0  0  0  0  0
 23 24  1  0  0  0
 24 13  1  0  0  0
 13 14  1  0  0  0
 13 22  2  0  0  0
 14 15  2  0  0  0
 15 16  1  0  0  0
 16 17  1  0  0  0
 16 21  2  0  0  0
 17 12  1  0  0  0
 17 18  2  0  0  0
 12  5  1  0  0  0
  5  6  1  0  0  0
  5 10  2  0  0  0
  6  7  2  0  0  0
  7  8  1  0  0  0
  8  1  1  0  0  0
  8  9  2  0  0  0
  1  2  1  0  0  0
  1  4  1  0  0  0
  2  3  2  0  0  0
  2 25  1  0  0  0
 25 26  2  0  0  0
 25 30  1  0  0  0
 26 32  1  0  0  0
 26 27  1  0  0  0
 32 33  1  0  0  0
 32 37  1  0  0  0
 33 34  1  0  0  0
 34 35  1  0  0  0
 35 36  1  0  0  0
 36 37  1  0  0  0
 27 28  1  0  0  0
 27 29  1  0  0  0
 29 38  1  0  0  0
 29 30  1  0  0  0
 38 39  1  0  0  0
 38 43  2  0  0  0
 39 40  2  0  0  0
 40 41  1  0  0  0
 41 42  2  0  0  0
 42 43  1  0  0  0
 30 31  2  0  0  0
  9 10  1  0  0  0
 10 11  1  0  0  0
 18 19  1  0  0  0
 19 20  2  0  0  0
 20 21  1  0  0  0
 21 22  1  0  0  0
M  END
> <minimizedAffinity>
-8.68928

$$$$
