CHEMBL300853


 41 45  0  0  0  0  0  0  0  0999 V2000
  -12.5546   -7.3184  -15.4519 C   0  0  0  0  0  0  0  0  0  0  0  0
  -12.9922   -8.6206  -15.3755 N   0  0  0  0  0  0  0  0  0  0  0  0
  -12.9475   -9.1929  -16.6139 C   0  0  0  0  0  0  0  0  0  0  0  0
  -12.5183   -8.2480  -17.5212 C   0  0  0  0  0  0  0  0  0  0  0  0
  -12.2368   -7.0378  -16.7846 C   0  0  0  0  0  0  0  0  0  0  0  0
  -12.3210   -8.6347  -18.9541 C   0  0  0  0  0  0  0  0  0  0  0  0
  -12.8396  -10.0207  -19.3385 C   0  0  0  0  0  0  0  0  0  0  0  0
  -12.5705  -11.0391  -18.2316 C   0  0  0  0  0  0  0  0  0  0  0  0
  -13.2662  -10.6178  -16.9234 C   0  0  0  0  0  0  0  0  0  0  0  0
  -13.2439   -9.0989  -14.5228 H   0  0  0  0  0  0  0  0  0  0  0  0
  -13.1439   -4.1988  -10.2740 C   0  0  0  0  0  0  0  0  0  0  0  0
  -14.5184   -4.0014  -10.0236 C   0  0  0  0  0  0  0  0  0  0  0  0
  -15.4607   -4.4655  -10.9497 C   0  0  0  0  0  0  0  0  0  0  0  0
  -14.9847   -5.1213  -12.0730 C   0  0  0  0  0  0  0  0  0  0  0  0
  -13.6229   -5.3388  -12.3306 C   0  0  0  0  0  0  0  0  0  0  0  0
  -12.6789   -4.8753  -11.4244 C   0  0  0  0  0  0  0  0  0  0  0  0
  -13.5760   -6.0776  -13.6159 C   0  0  0  0  0  0  0  0  0  0  0  0
  -12.4881   -6.5598  -14.2466 C   0  0  0  0  0  0  0  0  0  0  0  0
  -15.0094   -6.2382  -14.0707 C   0  0  0  0  0  0  0  0  0  0  0  0
  -15.4540   -6.7416  -15.0882 O   0  0  0  0  0  0  0  0  0  0  0  0
  -15.7719   -5.6463  -13.0841 N   0  0  0  0  0  0  0  0  0  0  0  0
  -16.7799   -5.6094  -13.1382 H   0  0  0  0  0  0  0  0  0  0  0  0
  -11.9939   -3.5993   -9.0421 S   0  0  0  0  0  0  0  0  0  0  0  0
  -12.7855   -3.1121   -7.9267 O   0  0  0  0  0  0  0  0  0  0  0  0
  -11.0686   -2.7350   -9.7396 O   0  0  0  0  0  0  0  0  0  0  0  0
  -11.7366   -5.6618   -7.2539 C   0  0  0  0  0  0  0  0  0  0  0  0
  -11.1162   -5.0616   -8.5029 C   0  0  0  0  0  0  0  0  0  0  0  0
  -11.6199   -5.7271  -17.2172 C   0  0  0  0  0  0  0  0  0  0  0  0
  -12.5134   -4.4951  -17.2990 C   0  0  0  0  0  0  0  0  0  0  0  0
  -12.2010   -3.4488  -16.2326 C   0  0  0  0  0  0  0  0  0  0  0  0
  -13.3210   -2.5102  -16.0663 N   0  0  0  0  0  0  0  0  0  0  0  0
  -12.9453   -1.1311  -16.4450 C   0  0  0  0  0  0  0  0  0  0  0  0
  -11.9520   -0.4622  -15.4690 C   0  0  0  0  0  0  0  0  0  0  0  0
  -12.3260   -0.5228  -14.0231 N   0  0  0  0  0  0  0  0  0  0  0  0
  -12.7233   -1.9220  -13.6993 C   0  0  0  0  0  0  0  0  0  0  0  0
  -13.7749   -2.5240  -14.6682 C   0  0  0  0  0  0  0  0  0  0  0  0
  -13.4941    0.3519  -13.7161 C   0  0  0  0  0  0  0  0  0  0  0  0
  -13.0517    1.7073  -13.1916 C   0  0  0  0  0  0  0  0  0  0  0  0
  -12.6932    1.9126  -12.0423 O   0  0  0  0  0  0  0  0  0  0  0  0
  -13.0483    2.6590  -14.1579 O   0  0  0  0  0  0  0  0  0  0  0  0
  -13.4073    2.2416  -14.9766 H   0  0  0  0  0  0  0  0  0  0  0  0
 26 27  1  0  0  0
 27 23  1  0  0  0
 23 24  2  0  0  0
 23 25  2  0  0  0
 23 11  1  0  0  0
 11 12  1  0  0  0
 11 16  2  0  0  0
 12 13  2  0  0  0
 13 14  1  0  0  0
 14 15  2  0  0  0
 14 21  1  0  0  0
 15 16  1  0  0  0
 15 17  1  0  0  0
 17 18  2  0  0  0
 17 19  1  0  0  0
 18  1  1  0  0  0
  1  2  1  0  0  0
  1  5  2  0  0  0
  2  3  1  0  0  0
  2 10  1  0  0  0
  3  4  2  0  0  0
  3  9  1  0  0  0
  4  5  1  0  0  0
  4  6  1  0  0  0
  5 28  1  0  0  0
 28 29  1  0  0  0
 29 30  1  0  0  0
 30 31  1  0  0  0
 31 32  1  0  0  0
 31 36  1  0  0  0
 32 33  1  0  0  0
 33 34  1  0  0  0
 34 37  1  0  0  0
 34 35  1  0  0  0
 37 38  1  0  0  0
 38 39  2  0  0  0
 38 40  1  0  0  0
 40 41  1  0  0  0
 35 36  1  0  0  0
  6  7  1  0  0  0
  7  8  1  0  0  0
  8  9  1  0  0  0
 19 20  2  0  0  0
 19 21  1  0  0  0
 21 22  1  0  0  0
M  END
> <minimizedAffinity>
-6.39262

$$$$
