CHEMBL3966748


 33 36  0  0  0  0  0  0  0  0999 V2000
  -17.2032    2.1255  -15.5174 N   0  0  0  0  0  0  0  0  0  0  0  0
  -18.6406    1.9250  -15.4682 C   0  0  0  0  0  0  0  0  0  0  0  0
  -19.3644    3.1080  -15.5441 C   0  0  0  0  0  0  0  0  0  0  0  0
  -20.6165    3.1870  -14.9698 C   0  0  0  0  0  0  0  0  0  0  0  0
  -21.2757    2.0851  -14.4946 C   0  0  0  0  0  0  0  0  0  0  0  0
  -22.3915    2.4216  -13.8498 N   0  0  0  0  0  0  0  0  0  0  0  0
  -23.2057    1.4286  -13.4896 C   0  0  0  0  0  0  0  0  0  0  0  0
  -22.9530    0.1131  -13.8148 C   0  0  0  0  0  0  0  0  0  0  0  0
  -21.7427   -0.2551  -14.3708 N   0  0  0  0  0  0  0  0  0  0  0  0
  -20.8022    0.7713  -14.6939 C   0  0  0  0  0  0  0  0  0  0  0  0
  -19.3937    0.7398  -15.1469 C   0  0  0  0  0  0  0  0  0  0  0  0
  -24.1257   -0.7683  -13.6321 C   0  0  0  0  0  0  0  0  0  0  0  0
  -25.0447   -1.2554  -14.6091 C   0  0  0  0  0  0  0  0  0  0  0  0
  -26.2205   -1.6402  -14.0906 N   0  0  0  0  0  0  0  0  0  0  0  0
  -26.1081   -1.3381  -12.7901 N   0  0  0  0  0  0  0  0  0  0  0  0
  -24.9108   -0.7467  -12.4846 C   0  0  0  0  0  0  0  0  0  0  0  0
  -26.9160   -1.4808  -12.1890 H   0  0  0  0  0  0  0  0  0  0  0  0
  -15.3122   -0.1792  -13.2232 C   0  0  0  0  0  0  0  0  0  0  0  0
  -14.2093   -0.5107  -14.0114 C   0  0  0  0  0  0  0  0  0  0  0  0
  -14.0653    0.0592  -15.2731 C   0  0  0  0  0  0  0  0  0  0  0  0
  -15.0270    0.9690  -15.7395 C   0  0  0  0  0  0  0  0  0  0  0  0
  -16.1451    1.3485  -14.9761 C   0  0  0  0  0  0  0  0  0  0  0  0
  -16.2563    0.7602  -13.6987 C   0  0  0  0  0  0  0  0  0  0  0  0
  -15.5885   -2.1747  -11.9284 C   0  0  0  0  0  0  0  0  0  0  0  0
  -15.5860   -0.7472  -12.0007 O   0  0  0  0  0  0  0  0  0  0  0  0
  -13.0558   -0.2125  -16.1597 O   0  0  0  0  0  0  0  0  0  0  0  0
  -12.3642    0.9005  -16.7161 C   0  0  0  0  0  0  0  0  0  0  0  0
  -16.9195    3.6057  -15.7146 C   0  0  0  0  0  0  0  0  0  0  0  0
  -16.1165    4.0535  -16.9557 C   0  0  0  0  0  0  0  0  0  0  0  0
  -14.6556    4.4928  -16.7945 C   0  0  0  0  0  0  0  0  0  0  0  0
  -14.2996    4.9113  -15.4406 N   0  0  0  0  0  0  0  0  0  0  0  0
  -14.7012    5.8226  -15.2431 H   0  0  0  0  0  0  0  0  0  0  0  0
  -13.2855    5.0421  -15.3901 H   0  0  0  0  0  0  0  0  0  0  0  0
 24 25  1  0  0  0
 25 18  1  0  0  0
 18 19  1  0  0  0
 18 23  2  0  0  0
 19 20  2  0  0  0
 20 26  1  0  0  0
 20 21  1  0  0  0
 26 27  1  0  0  0
 21 22  2  0  0  0
 22  1  1  0  0  0
 22 23  1  0  0  0
  1 28  1  0  0  0
  1  2  1  0  0  0
 28 29  1  0  0  0
 29 30  1  0  0  0
 30 31  1  0  0  0
 31 32  1  0  0  0
 31 33  1  0  0  0
  2  3  1  0  0  0
  2 11  2  0  0  0
  3  4  2  0  0  0
  4  5  1  0  0  0
  5  6  1  0  0  0
  5 10  2  0  0  0
  6  7  2  0  0  0
  7  8  1  0  0  0
  8 12  1  0  0  0
  8  9  2  0  0  0
 12 13  1  0  0  0
 12 16  2  0  0  0
 13 14  2  0  0  0
 14 15  1  0  0  0
 15 16  1  0  0  0
 15 17  1  0  0  0
  9 10  1  0  0  0
 10 11  1  0  0  0
M  END
> <minimizedAffinity>
-8.57635

$$$$
