CHEMBL2113176


 35 38  0  0  0  0  0  0  0  0999 V2000
  -28.0378   -2.2646  -10.2306 N   0  0  0  0  0  0  0  0  0  0  0  0
  -28.9076   -1.8745  -10.5987 H   0  0  0  0  0  0  0  0  0  0  0  0
  -28.6134   -5.1709   -6.0623 C   0  0  0  0  0  0  0  0  0  0  0  0
  -28.4198   -3.8211   -5.6819 C   0  0  0  0  0  0  0  0  0  0  0  0
  -28.1864   -2.7840   -6.5906 C   0  0  0  0  0  0  0  0  0  0  0  0
  -27.9358   -1.5474   -6.1402 N   0  0  0  0  0  0  0  0  0  0  0  0
  -27.6867   -0.6097   -7.0615 C   0  0  0  0  0  0  0  0  0  0  0  0
  -27.6951   -0.7852   -8.3858 N   0  0  0  0  0  0  0  0  0  0  0  0
  -27.9735   -2.0255   -8.8271 C   0  0  0  0  0  0  0  0  0  0  0  0
  -28.1983   -3.0945   -7.9465 C   0  0  0  0  0  0  0  0  0  0  0  0
  -28.3962   -4.4387   -8.3405 C   0  0  0  0  0  0  0  0  0  0  0  0
  -28.6016   -5.4844   -7.4244 C   0  0  0  0  0  0  0  0  0  0  0  0
  -28.6062   -6.6798   -8.0811 O   0  0  0  0  0  0  0  0  0  0  0  0
  -29.6279   -7.6392   -7.8809 C   0  0  0  0  0  0  0  0  0  0  0  0
  -28.7323   -5.9628   -4.9449 O   0  0  0  0  0  0  0  0  0  0  0  0
  -29.7443   -5.6403   -4.0145 C   0  0  0  0  0  0  0  0  0  0  0  0
  -31.1254   -6.1515   -4.4014 C   0  0  0  0  0  0  0  0  0  0  0  0
  -31.5475   -4.0517   -3.3655 C   0  0  0  0  0  0  0  0  0  0  0  0
  -32.0438   -5.3430   -3.6585 O   0  0  0  0  0  0  0  0  0  0  0  0
  -26.9670   -1.9713  -11.0743 C   0  0  0  0  0  0  0  0  0  0  0  0
  -25.6896   -1.8406  -10.6976 C   0  0  0  0  0  0  0  0  0  0  0  0
  -24.6007   -1.4915  -11.6252 C   0  0  0  0  0  0  0  0  0  0  0  0
  -23.4599   -1.3879  -11.1911 O   0  0  0  0  0  0  0  0  0  0  0  0
  -24.9591   -1.2724  -13.0623 C   0  0  0  0  0  0  0  0  0  0  0  0
  -26.2272   -1.4435  -13.4516 C   0  0  0  0  0  0  0  0  0  0  0  0
  -27.2998   -1.8386  -12.5262 C   0  0  0  0  0  0  0  0  0  0  0  0
  -28.4424   -2.0418  -12.9275 O   0  0  0  0  0  0  0  0  0  0  0  0
  -24.0404   -0.8694  -14.0178 O   0  0  0  0  0  0  0  0  0  0  0  0
  -22.6672   -0.7928  -13.6235 C   0  0  0  0  0  0  0  0  0  0  0  0
  -22.1013    0.5360  -14.0511 C   0  0  0  0  0  0  0  0  0  0  0  0
  -20.8666    0.6075  -14.7070 C   0  0  0  0  0  0  0  0  0  0  0  0
  -20.3634    1.8435  -15.1028 C   0  0  0  0  0  0  0  0  0  0  0  0
  -21.1044    2.9760  -14.8118 C   0  0  0  0  0  0  0  0  0  0  0  0
  -22.2819    2.9527  -14.1546 N   0  0  0  0  0  0  0  0  0  0  0  0
  -22.7496    1.7386  -13.7858 C   0  0  0  0  0  0  0  0  0  0  0  0
 18 19  1  0  0  0
 19 17  1  0  0  0
 17 16  1  0  0  0
 16 15  1  0  0  0
 15  3  1  0  0  0
  3  4  1  0  0  0
  3 12  2  0  0  0
  4  5  2  0  0  0
  5  6  1  0  0  0
  5 10  1  0  0  0
  6  7  2  0  0  0
  7  8  1  0  0  0
  8  9  2  0  0  0
  9  1  1  0  0  0
  9 10  1  0  0  0
  1 20  1  0  0  0
  1  2  1  0  0  0
 20 21  2  0  0  0
 20 26  1  0  0  0
 21 22  1  0  0  0
 22 23  2  0  0  0
 22 24  1  0  0  0
 24 28  1  0  0  0
 24 25  2  0  0  0
 28 29  1  0  0  0
 29 30  1  0  0  0
 30 31  1  0  0  0
 30 35  2  0  0  0
 31 32  2  0  0  0
 32 33  1  0  0  0
 33 34  2  0  0  0
 34 35  1  0  0  0
 25 26  1  0  0  0
 26 27  2  0  0  0
 10 11  2  0  0  0
 11 12  1  0  0  0
 12 13  1  0  0  0
 13 14  1  0  0  0
M  END
> <minimizedAffinity>
-9.28413

$$$$
