CHEMBL523559


 36 40  0  0  0  0  0  0  0  0999 V2000
  -29.0210   -7.2415   -4.8084 C   0  0  0  0  0  0  0  0  0  0  0  0
  -27.7959   -7.7156   -4.2718 C   0  0  0  0  0  0  0  0  0  0  0  0
  -27.4906   -9.0838   -4.2040 C   0  0  0  0  0  0  0  0  0  0  0  0
  -28.4623  -10.0179   -4.5626 C   0  0  0  0  0  0  0  0  0  0  0  0
  -29.7058   -9.5958   -5.0069 C   0  0  0  0  0  0  0  0  0  0  0  0
  -29.9927   -8.2266   -5.1679 C   0  0  0  0  0  0  0  0  0  0  0  0
  -31.3602   -7.9233   -5.7366 C   0  0  0  0  0  0  0  0  0  0  0  0
  -29.6253   -2.9132   -5.1697 C   0  0  0  0  0  0  0  0  0  0  0  0
  -29.1187   -3.5028   -4.0161 C   0  0  0  0  0  0  0  0  0  0  0  0
  -28.8859   -4.8809   -3.9582 C   0  0  0  0  0  0  0  0  0  0  0  0
  -29.2253   -5.7635   -5.0042 C   0  0  0  0  0  0  0  0  0  0  0  0
  -29.7516   -5.1598   -6.1816 C   0  0  0  0  0  0  0  0  0  0  0  0
  -30.1219   -5.8995   -7.4457 C   0  0  0  0  0  0  0  0  0  0  0  0
  -29.9156   -3.7497   -6.2510 C   0  0  0  0  0  0  0  0  0  0  0  0
  -28.7743    1.6318   -6.5324 C   0  0  0  0  0  0  0  0  0  0  0  0
  -29.4267    0.5376   -5.7975 C   0  0  0  0  0  0  0  0  0  0  0  0
  -30.3901    0.5912   -4.9049 N   0  0  0  0  0  0  0  0  0  0  0  0
  -30.6330   -0.7096   -4.5235 N   0  0  0  0  0  0  0  0  0  0  0  0
  -29.7999   -1.4678   -5.2084 C   0  0  0  0  0  0  0  0  0  0  0  0
  -28.9956   -0.7392   -6.0479 O   0  0  0  0  0  0  0  0  0  0  0  0
  -26.1280   -9.6161   -3.9101 C   0  0  0  0  0  0  0  0  0  0  0  0
  -25.6539   -9.3329   -2.8123 O   0  0  0  0  0  0  0  0  0  0  0  0
  -25.4962  -10.3663   -4.8912 N   0  0  0  0  0  0  0  0  0  0  0  0
  -25.8928  -10.3657   -5.8202 H   0  0  0  0  0  0  0  0  0  0  0  0
  -24.2423  -11.0176   -4.7365 C   0  0  0  0  0  0  0  0  0  0  0  0
  -23.9655  -11.8687   -3.6657 C   0  0  0  0  0  0  0  0  0  0  0  0
  -22.7167  -12.4644   -3.5385 C   0  0  0  0  0  0  0  0  0  0  0  0
  -21.7424  -12.2385   -4.5030 C   0  0  0  0  0  0  0  0  0  0  0  0
  -21.9846  -11.4332   -5.6267 C   0  0  0  0  0  0  0  0  0  0  0  0
  -23.2478  -10.8166   -5.7116 C   0  0  0  0  0  0  0  0  0  0  0  0
  -21.0172  -11.2816   -6.5955 N   0  0  0  0  0  0  0  0  0  0  0  0
  -20.5089   -9.9575   -6.9940 C   0  0  0  0  0  0  0  0  0  0  0  0
  -20.6768   -9.7722   -8.5073 C   0  0  0  0  0  0  0  0  0  0  0  0
  -20.0298  -10.8312   -9.2350 O   0  0  0  0  0  0  0  0  0  0  0  0
  -20.5993  -12.1030   -8.8729 C   0  0  0  0  0  0  0  0  0  0  0  0
  -20.4587  -12.4027   -7.3642 C   0  0  0  0  0  0  0  0  0  0  0  0
 15 16  1  0  0  0
 16 17  2  0  0  0
 16 20  1  0  0  0
 17 18  1  0  0  0
 18 19  2  0  0  0
 19  8  1  0  0  0
 19 20  1  0  0  0
  8  9  1  0  0  0
  8 14  2  0  0  0
  9 10  2  0  0  0
 10 11  1  0  0  0
 11  1  1  0  0  0
 11 12  2  0  0  0
  1  2  1  0  0  0
  1  6  2  0  0  0
  2  3  2  0  0  0
  3 21  1  0  0  0
  3  4  1  0  0  0
 21 22  2  0  0  0
 21 23  1  0  0  0
 23 25  1  0  0  0
 23 24  1  0  0  0
 25 26  1  0  0  0
 25 30  2  0  0  0
 26 27  2  0  0  0
 27 28  1  0  0  0
 28 29  2  0  0  0
 29 31  1  0  0  0
 29 30  1  0  0  0
 31 32  1  0  0  0
 31 36  1  0  0  0
 32 33  1  0  0  0
 33 34  1  0  0  0
 34 35  1  0  0  0
 35 36  1  0  0  0
  4  5  2  0  0  0
  5  6  1  0  0  0
  6  7  1  0  0  0
 12 13  1  0  0  0
 12 14  1  0  0  0
M  END
> <minimizedAffinity>
-0.11363

$$$$
