CHEMBL255404


 32 37  0  0  0  0  0  0  0  0999 V2000
  -23.2997  -11.0121   -4.6222 C   0  0  0  0  0  0  0  0  0  0  0  0
  -23.8975  -10.6015   -3.4285 C   0  0  0  0  0  0  0  0  0  0  0  0
  -25.2257  -10.1988   -3.4008 C   0  0  0  0  0  0  0  0  0  0  0  0
  -25.9326  -10.2035   -4.5929 C   0  0  0  0  0  0  0  0  0  0  0  0
  -25.3608  -10.5449   -5.8383 C   0  0  0  0  0  0  0  0  0  0  0  0
  -24.0089  -10.9536   -5.8375 C   0  0  0  0  0  0  0  0  0  0  0  0
  -26.4119  -10.3728   -6.7491 C   0  0  0  0  0  0  0  0  0  0  0  0
  -26.5550  -10.5841   -8.1479 C   0  0  0  0  0  0  0  0  0  0  0  0
  -27.8841  -10.2668   -8.7419 C   0  0  0  0  0  0  0  0  0  0  0  0
  -29.0087   -9.9051   -7.9232 C   0  0  0  0  0  0  0  0  0  0  0  0
  -28.7687  -10.5341   -6.6872 C   0  0  0  0  0  0  0  0  0  0  0  0
  -27.5825  -10.2405   -6.0874 C   0  0  0  0  0  0  0  0  0  0  0  0
  -27.2826   -9.9520   -4.7977 N   0  0  0  0  0  0  0  0  0  0  0  0
  -29.3851  -11.9435   -6.6318 C   0  0  0  0  0  0  0  0  0  0  0  0
  -30.7988  -11.6522   -6.2322 C   0  0  0  0  0  0  0  0  0  0  0  0
  -31.3479  -10.7383   -7.2847 C   0  0  0  0  0  0  0  0  0  0  0  0
  -32.6212  -10.3879   -7.2065 N   0  0  0  0  0  0  0  0  0  0  0  0
  -32.5532   -9.0724   -7.4248 N   0  0  0  0  0  0  0  0  0  0  0  0
  -33.5630   -8.3090   -6.7138 C   0  0  0  0  0  0  0  0  0  0  0  0
  -31.3222   -8.6812   -7.9744 C   0  0  0  0  0  0  0  0  0  0  0  0
  -30.5135   -9.8362   -8.0918 C   0  0  0  0  0  0  0  0  0  0  0  0
  -27.8105  -10.7081  -10.1188 C   0  0  0  0  0  0  0  0  0  0  0  0
  -28.6209  -10.7383  -11.0351 O   0  0  0  0  0  0  0  0  0  0  0  0
  -26.5248  -11.2600  -10.2561 N   0  0  0  0  0  0  0  0  0  0  0  0
  -25.6659  -11.2627   -9.0843 C   0  0  0  0  0  0  0  0  0  0  0  0
  -26.3136  -11.8063  -11.0810 H   0  0  0  0  0  0  0  0  0  0  0  0
  -21.3009  -12.0218   -5.9115 C   0  0  0  0  0  0  0  0  0  0  0  0
  -21.9143  -11.5665   -4.6085 C   0  0  0  0  0  0  0  0  0  0  0  0
  -21.2931  -11.6343   -3.5505 O   0  0  0  0  0  0  0  0  0  0  0  0
  -28.2821   -9.3384   -3.9328 C   0  0  0  0  0  0  0  0  0  0  0  0
  -29.0361   -8.1740   -4.5615 C   0  0  0  0  0  0  0  0  0  0  0  0
  -29.1940  -10.3653   -3.2772 C   0  0  0  0  0  0  0  0  0  0  0  0
 27 28  1  0  0  0
 28 29  2  0  0  0
 28  1  1  0  0  0
  1  2  1  0  0  0
  1  6  2  0  0  0
  2  3  2  0  0  0
  3  4  1  0  0  0
  4  5  2  0  0  0
  4 13  1  0  0  0
  5  6  1  0  0  0
  5  7  1  0  0  0
  7  8  1  0  0  0
  7 12  2  0  0  0
  8  9  2  0  0  0
  8 25  1  0  0  0
  9 10  1  0  0  0
  9 22  1  0  0  0
 10 11  2  0  0  0
 10 21  1  0  0  0
 11 12  1  0  0  0
 11 14  1  0  0  0
 12 13  1  0  0  0
 13 30  1  0  0  0
 30 31  1  0  0  0
 30 32  1  0  0  0
 14 15  1  0  0  0
 15 16  1  0  0  0
 16 17  2  0  0  0
 16 21  1  0  0  0
 17 18  1  0  0  0
 18 19  1  0  0  0
 18 20  1  0  0  0
 20 21  2  0  0  0
 22 23  2  0  0  0
 22 24  1  0  0  0
 24 25  1  0  0  0
 24 26  1  0  0  0
M  END
> <minimizedAffinity>
-7.19659

$$$$
