CHEMBL215847


 41 45  0  0  0  0  0  0  0  0999 V2000
  -27.0781  -10.8067   -7.8173 C   0  0  0  0  0  0  0  0  0  0  0  0
  -26.6842  -11.5748   -8.8943 C   0  0  0  0  0  0  0  0  0  0  0  0
  -26.5855  -10.9120  -10.0827 C   0  0  0  0  0  0  0  0  0  0  0  0
  -26.8822   -9.6127  -10.2209 N   0  0  0  0  0  0  0  0  0  0  0  0
  -27.2556   -8.9281   -9.1319 C   0  0  0  0  0  0  0  0  0  0  0  0
  -27.3254   -9.4821   -7.9193 N   0  0  0  0  0  0  0  0  0  0  0  0
  -27.1991  -11.4354   -6.5464 N   0  0  0  0  0  0  0  0  0  0  0  0
  -28.4626  -11.9863   -6.2019 C   0  0  0  0  0  0  0  0  0  0  0  0
  -28.8029  -12.4109   -5.1074 O   0  0  0  0  0  0  0  0  0  0  0  0
  -24.0031  -10.9780   -3.6948 C   0  0  0  0  0  0  0  0  0  0  0  0
  -24.9293   -9.9567   -3.8891 C   0  0  0  0  0  0  0  0  0  0  0  0
  -25.9670  -10.0908   -4.8333 C   0  0  0  0  0  0  0  0  0  0  0  0
  -26.1055  -11.2441   -5.6174 C   0  0  0  0  0  0  0  0  0  0  0  0
  -25.1054  -12.2277   -5.4512 C   0  0  0  0  0  0  0  0  0  0  0  0
  -24.1009  -12.1171   -4.4814 C   0  0  0  0  0  0  0  0  0  0  0  0
  -21.7271  -11.4908   -3.2659 C   0  0  0  0  0  0  0  0  0  0  0  0
  -22.9700  -10.9776   -2.8016 O   0  0  0  0  0  0  0  0  0  0  0  0
  -29.3575  -12.0096   -7.2889 O   0  0  0  0  0  0  0  0  0  0  0  0
  -30.6416  -11.3976   -7.2164 C   0  0  0  0  0  0  0  0  0  0  0  0
  -31.5130  -11.5647   -6.1251 C   0  0  0  0  0  0  0  0  0  0  0  0
  -31.3090  -12.4646   -4.9400 C   0  0  0  0  0  0  0  0  0  0  0  0
  -32.7103  -10.8202   -6.1084 C   0  0  0  0  0  0  0  0  0  0  0  0
  -33.0044   -9.8900   -7.0985 C   0  0  0  0  0  0  0  0  0  0  0  0
  -32.1110   -9.6939   -8.1459 C   0  0  0  0  0  0  0  0  0  0  0  0
  -30.9401  -10.4635   -8.2383 C   0  0  0  0  0  0  0  0  0  0  0  0
  -30.0639  -10.2940   -9.4486 C   0  0  0  0  0  0  0  0  0  0  0  0
  -27.5368   -7.5671   -9.2522 N   0  0  0  0  0  0  0  0  0  0  0  0
  -27.0678   -7.1216  -10.0252 H   0  0  0  0  0  0  0  0  0  0  0  0
  -28.2479   -6.7730   -8.3492 C   0  0  0  0  0  0  0  0  0  0  0  0
  -28.0129   -5.3998   -8.2547 C   0  0  0  0  0  0  0  0  0  0  0  0
  -28.5947   -4.6344   -7.2480 C   0  0  0  0  0  0  0  0  0  0  0  0
  -29.4351   -5.2022   -6.2871 C   0  0  0  0  0  0  0  0  0  0  0  0
  -29.7132   -6.5692   -6.4189 C   0  0  0  0  0  0  0  0  0  0  0  0
  -29.1203   -7.3491   -7.4270 C   0  0  0  0  0  0  0  0  0  0  0  0
  -29.9774   -4.4039   -5.3027 N   0  0  0  0  0  0  0  0  0  0  0  0
  -29.6768   -2.9730   -5.2072 C   0  0  0  0  0  0  0  0  0  0  0  0
  -29.6458   -2.5721   -3.7140 C   0  0  0  0  0  0  0  0  0  0  0  0
  -30.9237   -2.8833   -3.0327 N   0  0  0  0  0  0  0  0  0  0  0  0
  -30.8850   -2.4588   -1.6390 C   0  0  0  0  0  0  0  0  0  0  0  0
  -31.1683   -4.3410   -3.1378 C   0  0  0  0  0  0  0  0  0  0  0  0
  -31.2141   -4.8165   -4.6085 C   0  0  0  0  0  0  0  0  0  0  0  0
 16 17  1  0  0  0
 17 10  1  0  0  0
 10 11  1  0  0  0
 10 15  2  0  0  0
 11 12  2  0  0  0
 12 13  1  0  0  0
 13  7  1  0  0  0
 13 14  2  0  0  0
  7  8  1  0  0  0
  7  1  1  0  0  0
  8  9  2  0  0  0
  8 18  1  0  0  0
 18 19  1  0  0  0
 19 20  1  0  0  0
 19 25  2  0  0  0
 20 21  1  0  0  0
 20 22  2  0  0  0
 22 23  1  0  0  0
 23 24  2  0  0  0
 24 25  1  0  0  0
 25 26  1  0  0  0
  1  2  1  0  0  0
  1  6  2  0  0  0
  2  3  2  0  0  0
  3  4  1  0  0  0
  4  5  2  0  0  0
  5 27  1  0  0  0
  5  6  1  0  0  0
 27 29  1  0  0  0
 27 28  1  0  0  0
 29 30  1  0  0  0
 29 34  2  0  0  0
 30 31  2  0  0  0
 31 32  1  0  0  0
 32 35  1  0  0  0
 32 33  2  0  0  0
 35 36  1  0  0  0
 35 41  1  0  0  0
 36 37  1  0  0  0
 37 38  1  0  0  0
 38 39  1  0  0  0
 38 40  1  0  0  0
 40 41  1  0  0  0
 33 34  1  0  0  0
 14 15  1  0  0  0
M  END
> <minimizedAffinity>
-7.09026

$$$$
