CHEMBL3969112


 42 46  0  0  0  0  0  0  0  0999 V2000
  -28.0541   -2.8413   -8.3792 N   0  0  0  0  0  0  0  0  0  0  0  0
  -27.3683   -1.9927   -9.3467 C   0  0  0  0  0  0  0  0  0  0  0  0
  -28.1745   -1.6600  -10.4206 C   0  0  0  0  0  0  0  0  0  0  0  0
  -27.5746   -1.4929  -11.6292 C   0  0  0  0  0  0  0  0  0  0  0  0
  -26.2380   -1.4283  -11.8414 C   0  0  0  0  0  0  0  0  0  0  0  0
  -25.9534   -1.6040  -13.1259 N   0  0  0  0  0  0  0  0  0  0  0  0
  -24.7841   -1.1490  -13.5598 C   0  0  0  0  0  0  0  0  0  0  0  0
  -23.9599   -0.3952  -12.7629 C   0  0  0  0  0  0  0  0  0  0  0  0
  -24.1383   -0.4741  -11.3643 N   0  0  0  0  0  0  0  0  0  0  0  0
  -25.3528   -1.1297  -10.8178 C   0  0  0  0  0  0  0  0  0  0  0  0
  -25.9721   -1.6144   -9.4912 C   0  0  0  0  0  0  0  0  0  0  0  0
  -23.2109    0.6165  -13.5951 C   0  0  0  0  0  0  0  0  0  0  0  0
  -23.2588    2.0223  -13.7608 C   0  0  0  0  0  0  0  0  0  0  0  0
  -22.1856    2.5382  -14.3920 N   0  0  0  0  0  0  0  0  0  0  0  0
  -21.3799    1.4799  -14.6350 N   0  0  0  0  0  0  0  0  0  0  0  0
  -21.9476    0.3234  -14.1558 C   0  0  0  0  0  0  0  0  0  0  0  0
  -20.1302    1.6691  -15.3982 C   0  0  0  0  0  0  0  0  0  0  0  0
  -19.3873    3.0128  -15.2441 C   0  0  0  0  0  0  0  0  0  0  0  0
  -19.1384    0.5323  -15.1289 C   0  0  0  0  0  0  0  0  0  0  0  0
  -30.2559   -3.1010   -5.2752 C   0  0  0  0  0  0  0  0  0  0  0  0
  -29.6840   -2.1079   -4.4989 C   0  0  0  0  0  0  0  0  0  0  0  0
  -28.6377   -1.3384   -5.0112 C   0  0  0  0  0  0  0  0  0  0  0  0
  -28.1438   -1.5711   -6.3016 C   0  0  0  0  0  0  0  0  0  0  0  0
  -28.6327   -2.5991   -7.1036 C   0  0  0  0  0  0  0  0  0  0  0  0
  -29.7509   -3.3170   -6.5726 C   0  0  0  0  0  0  0  0  0  0  0  0
  -31.3168   -4.2870   -3.4965 C   0  0  0  0  0  0  0  0  0  0  0  0
  -31.2987   -3.9037   -4.8751 O   0  0  0  0  0  0  0  0  0  0  0  0
  -28.0073   -0.3251   -4.3413 O   0  0  0  0  0  0  0  0  0  0  0  0
  -28.1314    0.9675   -4.9182 C   0  0  0  0  0  0  0  0  0  0  0  0
  -27.9452   -4.2982   -8.7823 C   0  0  0  0  0  0  0  0  0  0  0  0
  -28.7952   -5.1051   -7.8001 C   0  0  0  0  0  0  0  0  0  0  0  0
  -28.3239   -6.4113   -7.2951 N   0  0  0  0  0  0  0  0  0  0  0  0
  -28.9828   -6.7675   -6.0305 C   0  0  0  0  0  0  0  0  0  0  0  0
  -28.9646   -8.2627   -5.6993 C   0  0  0  0  0  0  0  0  0  0  0  0
  -29.4085   -9.1634   -6.8665 C   0  0  0  0  0  0  0  0  0  0  0  0
  -28.5099   -8.8137   -8.0560 C   0  0  0  0  0  0  0  0  0  0  0  0
  -28.5678   -7.3449   -8.4092 C   0  0  0  0  0  0  0  0  0  0  0  0
  -30.9535   -9.2415   -7.1347 C   0  0  0  0  0  0  0  0  0  0  0  0
  -31.8073   -7.9740   -7.0023 C   0  0  0  0  0  0  0  0  0  0  0  0
  -31.2372   -9.8452   -8.5190 C   0  0  0  0  0  0  0  0  0  0  0  0
  -31.4903  -10.1831   -6.1868 O   0  0  0  0  0  0  0  0  0  0  0  0
  -31.4873   -9.7630   -5.3102 H   0  0  0  0  0  0  0  0  0  0  0  0
 26 27  1  0  0  0
 27 20  1  0  0  0
 20 21  1  0  0  0
 20 25  2  0  0  0
 21 22  2  0  0  0
 22 28  1  0  0  0
 22 23  1  0  0  0
 28 29  1  0  0  0
 23 24  2  0  0  0
 24  1  1  0  0  0
 24 25  1  0  0  0
  1 30  1  0  0  0
  1  2  1  0  0  0
 30 31  1  0  0  0
 31 32  1  0  0  0
 32 33  1  0  0  0
 32 37  1  0  0  0
 33 34  1  0  0  0
 34 35  1  0  0  0
 35 38  1  0  0  0
 35 36  1  0  0  0
 38 39  1  0  0  0
 38 40  1  0  0  0
 38 41  1  0  0  0
 41 42  1  0  0  0
 36 37  1  0  0  0
  2  3  1  0  0  0
  2 11  2  0  0  0
  3  4  2  0  0  0
  4  5  1  0  0  0
  5  6  1  0  0  0
  5 10  2  0  0  0
  6  7  2  0  0  0
  7  8  1  0  0  0
  8 12  1  0  0  0
  8  9  2  0  0  0
 12 13  1  0  0  0
 12 16  2  0  0  0
 13 14  2  0  0  0
 14 15  1  0  0  0
 15 17  1  0  0  0
 15 16  1  0  0  0
 17 18  1  0  0  0
 17 19  1  0  0  0
  9 10  1  0  0  0
 10 11  1  0  0  0
M  END
> <minimizedAffinity>
-8.91230

$$$$
