CHEMBL3946590


 34 38  0  0  0  0  0  0  0  0999 V2000
  -28.6791  -10.3094   -4.3324 C   0  0  0  0  0  0  0  0  0  0  0  0
  -29.1478   -9.2152   -5.0623 C   0  0  0  0  0  0  0  0  0  0  0  0
  -28.6821   -8.9203   -6.3574 C   0  0  0  0  0  0  0  0  0  0  0  0
  -29.1470   -7.8223   -7.1024 C   0  0  0  0  0  0  0  0  0  0  0  0
  -28.7896   -7.6298   -8.3810 N   0  0  0  0  0  0  0  0  0  0  0  0
  -27.9216   -8.5158   -8.8860 C   0  0  0  0  0  0  0  0  0  0  0  0
  -27.3616   -9.5552   -8.2363 N   0  0  0  0  0  0  0  0  0  0  0  0
  -27.7496   -9.7548   -6.9686 C   0  0  0  0  0  0  0  0  0  0  0  0
  -27.2422  -10.8144   -6.2097 C   0  0  0  0  0  0  0  0  0  0  0  0
  -27.6606  -11.0866   -4.8871 C   0  0  0  0  0  0  0  0  0  0  0  0
  -30.1743  -11.7168   -3.1367 C   0  0  0  0  0  0  0  0  0  0  0  0
  -29.2156  -10.6594   -3.1239 O   0  0  0  0  0  0  0  0  0  0  0  0
  -29.9735   -6.8663   -6.4344 N   0  0  0  0  0  0  0  0  0  0  0  0
  -30.3942   -7.3400   -5.6334 H   0  0  0  0  0  0  0  0  0  0  0  0
  -29.5809   -5.5604   -6.0654 C   0  0  0  0  0  0  0  0  0  0  0  0
  -29.0554   -4.6695   -7.0043 C   0  0  0  0  0  0  0  0  0  0  0  0
  -28.6461   -3.3896   -6.6166 C   0  0  0  0  0  0  0  0  0  0  0  0
  -28.0207   -2.3500   -7.8461 Cl  0  0  0  0  0  0  0  0  0  0  0  0
  -28.7567   -2.9960   -5.2762 C   0  0  0  0  0  0  0  0  0  0  0  0
  -28.1166   -1.3239   -4.6446 Br  0  0  0  0  0  0  0  0  0  0  0  0
  -29.3368   -3.8561   -4.3420 C   0  0  0  0  0  0  0  0  0  0  0  0
  -29.7575   -5.1168   -4.7484 C   0  0  0  0  0  0  0  0  0  0  0  0
  -30.3234   -5.9371   -3.8489 F   0  0  0  0  0  0  0  0  0  0  0  0
  -27.0962  -12.2060   -4.3374 O   0  0  0  0  0  0  0  0  0  0  0  0
  -25.7026  -12.2386   -3.9833 C   0  0  0  0  0  0  0  0  0  0  0  0
  -25.2920  -11.0267   -3.1582 C   0  0  0  0  0  0  0  0  0  0  0  0
  -23.9292  -10.6653   -3.6774 C   0  0  0  0  0  0  0  0  0  0  0  0
  -22.8874  -10.9739   -2.7381 O   0  0  0  0  0  0  0  0  0  0  0  0
  -21.7580  -11.3380   -3.5451 C   0  0  0  0  0  0  0  0  0  0  0  0
  -22.3410  -12.1914   -4.6612 C   0  0  0  0  0  0  0  0  0  0  0  0
  -23.6905  -11.5156   -4.9115 C   0  0  0  0  0  0  0  0  0  0  0  0
  -24.7592  -12.4660   -5.0390 O   0  0  0  0  0  0  0  0  0  0  0  0
  -21.4700  -12.1686   -5.7930 O   0  0  0  0  0  0  0  0  0  0  0  0
  -21.5822  -10.9623   -6.5394 C   0  0  0  0  0  0  0  0  0  0  0  0
 11 12  1  0  0  0
 12  1  1  0  0  0
  1  2  1  0  0  0
  1 10  2  0  0  0
  2  3  2  0  0  0
  3  4  1  0  0  0
  3  8  1  0  0  0
  4 13  1  0  0  0
  4  5  2  0  0  0
 13 15  1  0  0  0
 13 14  1  0  0  0
 15 16  1  0  0  0
 15 22  2  0  0  0
 16 17  2  0  0  0
 17 18  1  0  0  0
 17 19  1  0  0  0
 19 20  1  0  0  0
 19 21  2  0  0  0
 21 22  1  0  0  0
 22 23  1  0  0  0
  5  6  1  0  0  0
  6  7  2  0  0  0
  7  8  1  0  0  0
  8  9  2  0  0  0
  9 10  1  0  0  0
 10 24  1  0  0  0
 24 25  1  0  0  0
 25 26  1  0  0  0
 25 32  1  0  0  0
 26 27  1  0  0  0
 27 28  1  0  0  0
 27 31  1  0  0  0
 28 29  1  0  0  0
 29 30  1  0  0  0
 30 33  1  0  0  0
 30 31  1  0  0  0
 33 34  1  0  0  0
 31 32  1  0  0  0
M  END
> <minimizedAffinity>
-7.88468

$$$$
