CHEMBL396056


 40 43  0  0  0  0  0  0  0  0999 V2000
  -23.4618   -1.1383  -13.4642 C   0  0  0  0  0  0  0  0  0  0  0  0
  -23.2451   -1.2787  -12.0988 C   0  0  0  0  0  0  0  0  0  0  0  0
  -24.2882   -1.6726  -11.2652 C   0  0  0  0  0  0  0  0  0  0  0  0
  -25.5835   -1.8587  -11.7568 C   0  0  0  0  0  0  0  0  0  0  0  0
  -25.8232   -1.5844  -13.1089 C   0  0  0  0  0  0  0  0  0  0  0  0
  -24.7635   -1.2271  -13.9602 C   0  0  0  0  0  0  0  0  0  0  0  0
  -26.6451   -2.3506  -10.9564 N   0  0  0  0  0  0  0  0  0  0  0  0
  -26.9531   -1.9049   -9.6816 C   0  0  0  0  0  0  0  0  0  0  0  0
  -26.4294   -0.9518   -9.1180 O   0  0  0  0  0  0  0  0  0  0  0  0
  -27.9138   -2.6909   -9.0589 N   0  0  0  0  0  0  0  0  0  0  0  0
  -27.2512   -3.0514  -11.3617 H   0  0  0  0  0  0  0  0  0  0  0  0
  -27.8195   -3.6838   -9.2341 H   0  0  0  0  0  0  0  0  0  0  0  0
  -28.3156   -2.3528   -7.7383 C   0  0  0  0  0  0  0  0  0  0  0  0
  -28.4383   -1.0165   -7.3332 C   0  0  0  0  0  0  0  0  0  0  0  0
  -28.7256   -0.6914   -5.9980 C   0  0  0  0  0  0  0  0  0  0  0  0
  -28.8848   -1.7318   -5.0677 C   0  0  0  0  0  0  0  0  0  0  0  0
  -28.7928   -3.0664   -5.4729 C   0  0  0  0  0  0  0  0  0  0  0  0
  -28.5325   -3.3676   -6.8073 C   0  0  0  0  0  0  0  0  0  0  0  0
  -28.4129   -4.6507   -7.1800 F   0  0  0  0  0  0  0  0  0  0  0  0
  -28.8525    0.7488   -5.5616 C   0  0  0  0  0  0  0  0  0  0  0  0
  -30.1136    1.1063   -5.1943 F   0  0  0  0  0  0  0  0  0  0  0  0
  -28.0620    1.0269   -4.4868 F   0  0  0  0  0  0  0  0  0  0  0  0
  -28.4797    1.6260   -6.5336 F   0  0  0  0  0  0  0  0  0  0  0  0
  -22.4416   -0.8966  -14.3575 O   0  0  0  0  0  0  0  0  0  0  0  0
  -18.5731    3.3251  -15.2418 C   0  0  0  0  0  0  0  0  0  0  0  0
  -18.6971    2.0317  -15.4227 N   0  0  0  0  0  0  0  0  0  0  0  0
  -19.9457    1.6959  -14.9672 C   0  0  0  0  0  0  0  0  0  0  0  0
  -20.5779    0.4439  -14.9173 C   0  0  0  0  0  0  0  0  0  0  0  0
  -21.8713    0.3670  -14.3869 C   0  0  0  0  0  0  0  0  0  0  0  0
  -22.4991    1.5187  -13.8831 C   0  0  0  0  0  0  0  0  0  0  0  0
  -21.8974    2.7818  -13.9629 C   0  0  0  0  0  0  0  0  0  0  0  0
  -20.6132    2.8219  -14.5021 C   0  0  0  0  0  0  0  0  0  0  0  0
  -19.7220    3.8461  -14.6998 N   0  0  0  0  0  0  0  0  0  0  0  0
  -19.8782    4.8140  -14.4680 H   0  0  0  0  0  0  0  0  0  0  0  0
  -16.2968    3.6162  -15.9319 C   0  0  0  0  0  0  0  0  0  0  0  0
  -15.9948    2.4558  -16.1635 O   0  0  0  0  0  0  0  0  0  0  0  0
  -17.4932    4.1233  -15.5101 N   0  0  0  0  0  0  0  0  0  0  0  0
  -17.5361    5.1232  -15.3987 H   0  0  0  0  0  0  0  0  0  0  0  0
  -14.1058    4.3762  -15.6213 C   0  0  0  0  0  0  0  0  0  0  0  0
  -15.4283    4.6585  -16.0834 O   0  0  0  0  0  0  0  0  0  0  0  0
 39 40  1  0  0  0
 40 35  1  0  0  0
 35 36  2  0  0  0
 35 37  1  0  0  0
 37 25  1  0  0  0
 37 38  1  0  0  0
 25 26  2  0  0  0
 25 33  1  0  0  0
 26 27  1  0  0  0
 27 28  1  0  0  0
 27 32  2  0  0  0
 28 29  2  0  0  0
 29 24  1  0  0  0
 29 30  1  0  0  0
 24  1  1  0  0  0
  1  2  1  0  0  0
  1  6  2  0  0  0
  2  3  2  0  0  0
  3  4  1  0  0  0
  4  7  1  0  0  0
  4  5  2  0  0  0
  7  8  1  0  0  0
  7 11  1  0  0  0
  8  9  2  0  0  0
  8 10  1  0  0  0
 10 13  1  0  0  0
 10 12  1  0  0  0
 13 14  1  0  0  0
 13 18  2  0  0  0
 14 15  2  0  0  0
 15 20  1  0  0  0
 15 16  1  0  0  0
 20 21  1  0  0  0
 20 22  1  0  0  0
 20 23  1  0  0  0
 16 17  2  0  0  0
 17 18  1  0  0  0
 18 19  1  0  0  0
  5  6  1  0  0  0
 30 31  2  0  0  0
 31 32  1  0  0  0
 32 33  1  0  0  0
 33 34  1  0  0  0
M  END
> <minimizedAffinity>
-12.24324

$$$$
