CHEMBL380944


 22 24  0  0  0  0  0  0  0  0999 V2000
  -29.1222   -7.1394   -3.8350 C   0  0  0  0  0  0  0  0  0  0  0  0
  -29.6579   -7.2004   -5.1071 C   0  0  0  0  0  0  0  0  0  0  0  0
  -29.7969   -8.4180   -5.7336 C   0  0  0  0  0  0  0  0  0  0  0  0
  -29.2687   -9.5124   -5.1675 N   0  0  0  0  0  0  0  0  0  0  0  0
  -28.6709   -9.3558   -3.9744 C   0  0  0  0  0  0  0  0  0  0  0  0
  -28.5823   -8.2217   -3.2620 N   0  0  0  0  0  0  0  0  0  0  0  0
  -30.4668   -8.5050   -6.9390 N   0  0  0  0  0  0  0  0  0  0  0  0
  -31.8523   -8.0348   -7.1023 C   0  0  0  0  0  0  0  0  0  0  0  0
  -32.7837   -9.1785   -7.5643 C   0  0  0  0  0  0  0  0  0  0  0  0
  -32.2876   -9.9015   -8.7509 N   0  0  0  0  0  0  0  0  0  0  0  0
  -30.9352  -10.4206   -8.4467 C   0  0  0  0  0  0  0  0  0  0  0  0
  -29.9289   -9.3324   -8.0175 C   0  0  0  0  0  0  0  0  0  0  0  0
  -32.2015   -9.2302   -9.5142 H   0  0  0  0  0  0  0  0  0  0  0  0
  -29.1635   -5.9631   -3.0664 N   0  0  0  0  0  0  0  0  0  0  0  0
  -29.8850   -6.0493   -2.3612 H   0  0  0  0  0  0  0  0  0  0  0  0
  -29.0611   -2.4960   -4.5050 C   0  0  0  0  0  0  0  0  0  0  0  0
  -27.8309   -3.0916   -4.6299 C   0  0  0  0  0  0  0  0  0  0  0  0
  -27.7432   -4.3432   -4.0776 N   0  0  0  0  0  0  0  0  0  0  0  0
  -28.8967   -4.7336   -3.5747 C   0  0  0  0  0  0  0  0  0  0  0  0
  -30.1288   -3.5273   -3.6571 S   0  0  0  0  0  0  0  0  0  0  0  0
  -29.7072   -0.1756   -5.4224 N   0  0  0  0  0  0  0  0  0  0  0  0
  -29.4012   -1.2134   -5.0121 C   0  0  0  0  0  0  0  0  0  0  0  0
 21 22  3  0  0  0
 22 16  1  0  0  0
 16 17  2  0  0  0
 16 20  1  0  0  0
 17 18  1  0  0  0
 18 19  2  0  0  0
 19 14  1  0  0  0
 19 20  1  0  0  0
 14  1  1  0  0  0
 14 15  1  0  0  0
  1  2  1  0  0  0
  1  6  2  0  0  0
  2  3  2  0  0  0
  3  7  1  0  0  0
  3  4  1  0  0  0
  7  8  1  0  0  0
  7 12  1  0  0  0
  8  9  1  0  0  0
  9 10  1  0  0  0
 10 11  1  0  0  0
 10 13  1  0  0  0
 11 12  1  0  0  0
  4  5  2  0  0  0
  5  6  1  0  0  0
M  END
> <minimizedAffinity>
-6.83972

$$$$
