CHEMBL1241864


 29 33  0  0  0  0  0  0  0  0999 V2000
  -29.3232   -2.5670  -12.2133 N   0  0  0  0  0  0  0  0  0  0  0  0
  -28.1514   -2.0984  -12.7734 C   0  0  0  0  0  0  0  0  0  0  0  0
  -28.1380   -2.0528  -14.1208 N   0  0  0  0  0  0  0  0  0  0  0  0
  -27.0124   -1.6586  -14.7428 C   0  0  0  0  0  0  0  0  0  0  0  0
  -25.8571   -1.2758  -14.1943 N   0  0  0  0  0  0  0  0  0  0  0  0
  -25.9168   -1.3160  -12.8496 C   0  0  0  0  0  0  0  0  0  0  0  0
  -27.0028   -1.6951  -12.0714 C   0  0  0  0  0  0  0  0  0  0  0  0
  -26.5379   -1.5593  -10.7262 C   0  0  0  0  0  0  0  0  0  0  0  0
  -25.2572   -1.1460  -10.6914 N   0  0  0  0  0  0  0  0  0  0  0  0
  -24.9063   -1.0061  -11.9851 N   0  0  0  0  0  0  0  0  0  0  0  0
  -30.0907   -2.5706  -12.8758 H   0  0  0  0  0  0  0  0  0  0  0  0
  -29.5319   -2.3604  -11.2526 H   0  0  0  0  0  0  0  0  0  0  0  0
  -27.2168   -1.8293   -9.4573 C   0  0  0  0  0  0  0  0  0  0  0  0
  -27.6140   -3.1525   -9.1795 C   0  0  0  0  0  0  0  0  0  0  0  0
  -28.2951   -3.4665   -8.0073 C   0  0  0  0  0  0  0  0  0  0  0  0
  -28.5192   -2.4622   -7.0785 C   0  0  0  0  0  0  0  0  0  0  0  0
  -29.1793   -2.7914   -5.8673 N   0  0  0  0  0  0  0  0  0  0  0  0
  -28.7217   -2.1442   -4.7348 C   0  0  0  0  0  0  0  0  0  0  0  0
  -28.6568   -2.6676   -3.6306 O   0  0  0  0  0  0  0  0  0  0  0  0
  -28.4061   -0.7066   -4.9308 C   0  0  0  0  0  0  0  0  0  0  0  0
  -28.1301   -0.2227   -6.1519 C   0  0  0  0  0  0  0  0  0  0  0  0
  -28.0351   -1.1595   -7.2762 C   0  0  0  0  0  0  0  0  0  0  0  0
  -27.4088   -0.8362   -8.4841 C   0  0  0  0  0  0  0  0  0  0  0  0
  -30.1415   -2.4758   -5.9769 H   0  0  0  0  0  0  0  0  0  0  0  0
  -23.5888   -0.5170  -12.3338 C   0  0  0  0  0  0  0  0  0  0  0  0
  -23.5357    0.9562  -12.7491 C   0  0  0  0  0  0  0  0  0  0  0  0
  -22.2579    1.0860  -13.5800 C   0  0  0  0  0  0  0  0  0  0  0  0
  -21.8297   -0.3325  -13.9528 C   0  0  0  0  0  0  0  0  0  0  0  0
  -22.9727   -1.2400  -13.5253 C   0  0  0  0  0  0  0  0  0  0  0  0
  1  2  1  0  0  0
  1 11  1  0  0  0
  1 12  1  0  0  0
  2  3  1  0  0  0
  2  7  2  0  0  0
  3  4  2  0  0  0
  4  5  1  0  0  0
  5  6  2  0  0  0
  6  7  1  0  0  0
  6 10  1  0  0  0
  7  8  1  0  0  0
  8 13  1  0  0  0
  8  9  2  0  0  0
 13 14  1  0  0  0
 13 23  2  0  0  0
 14 15  2  0  0  0
 15 16  1  0  0  0
 16 17  1  0  0  0
 16 22  2  0  0  0
 17 18  1  0  0  0
 17 24  1  0  0  0
 18 19  2  0  0  0
 18 20  1  0  0  0
 20 21  2  0  0  0
 21 22  1  0  0  0
 22 23  1  0  0  0
  9 10  1  0  0  0
 10 25  1  0  0  0
 25 26  1  0  0  0
 25 29  1  0  0  0
 26 27  1  0  0  0
 27 28  1  0  0  0
 28 29  1  0  0  0
M  END
> <minimizedAffinity>
-8.08090

$$$$
