CHEMBL1682346


 25 28  0  0  0  0  0  0  0  0999 V2000
  -11.1887   -4.6808  -11.4017 N   0  0  0  0  0  0  0  0  0  0  0  0
  -12.4447   -5.1171  -11.2194 C   0  0  0  0  0  0  0  0  0  0  0  0
  -12.7348   -6.3260  -10.7494 N   0  0  0  0  0  0  0  0  0  0  0  0
  -14.0792   -6.3512  -10.7452 N   0  0  0  0  0  0  0  0  0  0  0  0
  -14.6676   -5.1954  -11.1837 C   0  0  0  0  0  0  0  0  0  0  0  0
  -16.0067   -4.8240  -11.3294 C   0  0  0  0  0  0  0  0  0  0  0  0
  -16.2583   -3.5370  -11.8274 C   0  0  0  0  0  0  0  0  0  0  0  0
  -15.2172   -2.6620  -12.1716 C   0  0  0  0  0  0  0  0  0  0  0  0
  -13.8818   -3.0672  -11.9951 C   0  0  0  0  0  0  0  0  0  0  0  0
  -13.6073   -4.3549  -11.5013 C   0  0  0  0  0  0  0  0  0  0  0  0
  -10.4529   -5.2286  -10.9712 H   0  0  0  0  0  0  0  0  0  0  0  0
  -10.9863   -3.6938  -11.4693 H   0  0  0  0  0  0  0  0  0  0  0  0
  -14.5418   -7.1936  -10.4236 H   0  0  0  0  0  0  0  0  0  0  0  0
  -15.5216   -1.3621  -12.7344 C   0  0  0  0  0  0  0  0  0  0  0  0
  -15.6055   -1.0579  -14.0755 C   0  0  0  0  0  0  0  0  0  0  0  0
  -15.9768    0.2531  -14.0908 N   0  0  0  0  0  0  0  0  0  0  0  0
  -16.1181    0.7376  -12.8422 N   0  0  0  0  0  0  0  0  0  0  0  0
  -15.8378   -0.2495  -11.9996 N   0  0  0  0  0  0  0  0  0  0  0  0
  -16.3188    1.0642  -15.2472 C   0  0  0  0  0  0  0  0  0  0  0  0
  -17.7522    1.5328  -15.2065 C   0  0  0  0  0  0  0  0  0  0  0  0
  -18.0580    2.9011  -15.2647 C   0  0  0  0  0  0  0  0  0  0  0  0
  -19.3853    3.3331  -15.2196 C   0  0  0  0  0  0  0  0  0  0  0  0
  -20.4201    2.4046  -15.1254 C   0  0  0  0  0  0  0  0  0  0  0  0
  -20.1309    1.0428  -15.0892 C   0  0  0  0  0  0  0  0  0  0  0  0
  -18.8061    0.6082  -15.1350 C   0  0  0  0  0  0  0  0  0  0  0  0
  1  2  1  0  0  0
  1 11  1  0  0  0
  1 12  1  0  0  0
  2  3  2  0  0  0
  2 10  1  0  0  0
  3  4  1  0  0  0
  4  5  1  0  0  0
  4 13  1  0  0  0
  5  6  1  0  0  0
  5 10  2  0  0  0
  6  7  2  0  0  0
  7  8  1  0  0  0
  8 14  1  0  0  0
  8  9  2  0  0  0
 14 15  2  0  0  0
 14 18  1  0  0  0
 15 16  1  0  0  0
 16 19  1  0  0  0
 16 17  1  0  0  0
 19 20  1  0  0  0
 20 21  1  0  0  0
 20 25  2  0  0  0
 21 22  2  0  0  0
 22 23  1  0  0  0
 23 24  2  0  0  0
 24 25  1  0  0  0
 17 18  2  0  0  0
  9 10  1  0  0  0
M  END
> <minimizedAffinity>
-8.53404

$$$$
