CHEMBL3545365


 40 44  0  0  0  0  0  0  0  0999 V2000
  -24.5478   -1.7187  -12.6001 C   0  0  0  0  0  0  0  0  0  0  0  0
  -23.4678   -1.3575  -11.7936 C   0  0  0  0  0  0  0  0  0  0  0  0
  -22.5576   -0.4069  -12.2350 C   0  0  0  0  0  0  0  0  0  0  0  0
  -21.6966    0.0524  -11.3204 F   0  0  0  0  0  0  0  0  0  0  0  0
  -22.6392    0.1354  -13.5247 C   0  0  0  0  0  0  0  0  0  0  0  0
  -23.6670   -0.3084  -14.3680 C   0  0  0  0  0  0  0  0  0  0  0  0
  -24.6044   -1.2330  -13.9048 C   0  0  0  0  0  0  0  0  0  0  0  0
  -25.5813   -1.6315  -14.7328 F   0  0  0  0  0  0  0  0  0  0  0  0
  -21.7862    1.1375  -14.0298 N   0  0  0  0  0  0  0  0  0  0  0  0
  -20.6329    0.9593  -14.7639 C   0  0  0  0  0  0  0  0  0  0  0  0
  -20.1859   -0.0736  -15.2374 O   0  0  0  0  0  0  0  0  0  0  0  0
  -22.0465    2.0994  -13.8343 H   0  0  0  0  0  0  0  0  0  0  0  0
  -19.8825    2.2316  -15.0197 C   0  0  0  0  0  0  0  0  0  0  0  0
  -20.2767    3.4707  -14.2058 C   0  0  0  0  0  0  0  0  0  0  0  0
  -20.6625    3.3803  -15.6462 C   0  0  0  0  0  0  0  0  0  0  0  0
  -18.4220    2.0343  -15.2566 C   0  0  0  0  0  0  0  0  0  0  0  0
  -17.9069    2.6562  -16.1789 O   0  0  0  0  0  0  0  0  0  0  0  0
  -17.7698    1.1411  -14.4220 N   0  0  0  0  0  0  0  0  0  0  0  0
  -18.3316    0.4541  -13.9354 H   0  0  0  0  0  0  0  0  0  0  0  0
  -16.3864    0.9064  -14.5476 C   0  0  0  0  0  0  0  0  0  0  0  0
  -15.7518    1.0044  -15.7960 C   0  0  0  0  0  0  0  0  0  0  0  0
  -14.4074    0.6616  -15.9327 C   0  0  0  0  0  0  0  0  0  0  0  0
  -13.7100    0.2038  -14.8235 C   0  0  0  0  0  0  0  0  0  0  0  0
  -12.4388   -0.1951  -14.9637 F   0  0  0  0  0  0  0  0  0  0  0  0
  -14.3161    0.1423  -13.5710 C   0  0  0  0  0  0  0  0  0  0  0  0
  -15.6506    0.5287  -13.4226 C   0  0  0  0  0  0  0  0  0  0  0  0
  -25.5700   -2.5349  -12.1773 O   0  0  0  0  0  0  0  0  0  0  0  0
  -27.6362   -1.8628   -9.1900 C   0  0  0  0  0  0  0  0  0  0  0  0
  -26.5812   -2.3592   -9.9419 C   0  0  0  0  0  0  0  0  0  0  0  0
  -26.5079   -2.0242  -11.2965 C   0  0  0  0  0  0  0  0  0  0  0  0
  -27.4053   -1.1130  -11.8339 C   0  0  0  0  0  0  0  0  0  0  0  0
  -28.3870   -0.6269  -10.9983 C   0  0  0  0  0  0  0  0  0  0  0  0
  -28.5226   -0.9988   -9.7118 N   0  0  0  0  0  0  0  0  0  0  0  0
  -27.6697   -0.2904   -6.7235 O   0  0  0  0  0  0  0  0  0  0  0  0
  -27.7820   -1.5081   -6.7614 C   0  0  0  0  0  0  0  0  0  0  0  0
  -27.7798   -2.3256   -7.8679 N   0  0  0  0  0  0  0  0  0  0  0  0
  -27.9461   -3.3079   -7.7390 H   0  0  0  0  0  0  0  0  0  0  0  0
  -27.9745   -2.2568   -5.4741 C   0  0  0  0  0  0  0  0  0  0  0  0
  -28.9641   -3.4014   -5.4136 C   0  0  0  0  0  0  0  0  0  0  0  0
  -29.2787   -2.1069   -4.7179 C   0  0  0  0  0  0  0  0  0  0  0  0
 34 35  2  0  0  0
 35 36  1  0  0  0
 35 38  1  0  0  0
 36 28  1  0  0  0
 36 37  1  0  0  0
 28 29  1  0  0  0
 28 33  2  0  0  0
 29 30  2  0  0  0
 30 27  1  0  0  0
 30 31  1  0  0  0
 27  1  1  0  0  0
  1  2  1  0  0  0
  1  7  2  0  0  0
  2  3  2  0  0  0
  3  4  1  0  0  0
  3  5  1  0  0  0
  5  9  1  0  0  0
  5  6  2  0  0  0
  9 10  1  0  0  0
  9 12  1  0  0  0
 10 11  2  0  0  0
 10 13  1  0  0  0
 13 16  1  0  0  0
 13 14  1  0  0  0
 13 15  1  0  0  0
 16 17  2  0  0  0
 16 18  1  0  0  0
 18 20  1  0  0  0
 18 19  1  0  0  0
 20 21  1  0  0  0
 20 26  2  0  0  0
 21 22  2  0  0  0
 22 23  1  0  0  0
 23 24  1  0  0  0
 23 25  2  0  0  0
 25 26  1  0  0  0
 14 15  1  0  0  0
  6  7  1  0  0  0
  7  8  1  0  0  0
 31 32  2  0  0  0
 32 33  1  0  0  0
 38 39  1  0  0  0
 38 40  1  0  0  0
 39 40  1  0  0  0
M  END
> <minimizedAffinity>
-9.42586

$$$$
