CHEMBL1992673


 16 18  0  0  0  0  0  0  0  0999 V2000
  -29.6855   -6.5343   -7.5421 O   0  0  0  0  0  0  0  0  0  0  0  0
  -29.5953   -5.4510   -6.9815 C   0  0  0  0  0  0  0  0  0  0  0  0
  -28.8882   -4.3671   -7.4728 N   0  0  0  0  0  0  0  0  0  0  0  0
  -28.7735   -3.1136   -6.8425 C   0  0  0  0  0  0  0  0  0  0  0  0
  -28.0296   -2.1026   -7.4462 C   0  0  0  0  0  0  0  0  0  0  0  0
  -27.9213   -0.8624   -6.8132 C   0  0  0  0  0  0  0  0  0  0  0  0
  -28.5552   -0.6433   -5.5868 C   0  0  0  0  0  0  0  0  0  0  0  0
  -28.4084    0.8920   -4.8237 Cl  0  0  0  0  0  0  0  0  0  0  0  0
  -29.3021   -1.6527   -4.9782 C   0  0  0  0  0  0  0  0  0  0  0  0
  -29.4111   -2.8928   -5.6096 C   0  0  0  0  0  0  0  0  0  0  0  0
  -30.1629   -4.0009   -5.0579 C   0  0  0  0  0  0  0  0  0  0  0  0
  -30.8549   -4.1020   -3.9436 N   0  0  0  0  0  0  0  0  0  0  0  0
  -31.3224   -5.3871   -3.9936 C   0  0  0  0  0  0  0  0  0  0  0  0
  -30.9664   -6.0935   -5.0682 N   0  0  0  0  0  0  0  0  0  0  0  0
  -30.2172   -5.1903   -5.7498 N   0  0  0  0  0  0  0  0  0  0  0  0
  -28.4279   -4.5249   -8.3617 H   0  0  0  0  0  0  0  0  0  0  0  0
  1  2  2  0  0  0
  2  3  1  0  0  0
  2 15  1  0  0  0
  3  4  1  0  0  0
  3 16  1  0  0  0
  4  5  1  0  0  0
  4 10  2  0  0  0
  5  6  2  0  0  0
  6  7  1  0  0  0
  7  8  1  0  0  0
  7  9  2  0  0  0
  9 10  1  0  0  0
 10 11  1  0  0  0
 11 12  2  0  0  0
 11 15  1  0  0  0
 12 13  1  0  0  0
 13 14  2  0  0  0
 14 15  1  0  0  0
M  END
> <minimizedAffinity>
-6.85089

$$$$
