CHEMBL3953910


 46 50  0  0  0  0  0  0  0  0999 V2000
  -12.5905   -1.9749  -12.6566 N   0  0  0  0  0  0  0  0  0  0  0  0
  -13.7721   -1.5664  -13.2649 C   0  0  0  0  0  0  0  0  0  0  0  0
  -14.7967   -2.2331  -13.3212 O   0  0  0  0  0  0  0  0  0  0  0  0
  -13.6705   -0.3008  -13.8323 N   0  0  0  0  0  0  0  0  0  0  0  0
  -12.0037   -1.2348  -12.2956 H   0  0  0  0  0  0  0  0  0  0  0  0
  -12.7637   -0.0866  -14.2236 H   0  0  0  0  0  0  0  0  0  0  0  0
  -14.8006    0.3083  -14.4433 C   0  0  0  0  0  0  0  0  0  0  0  0
  -14.8503    0.5434  -15.8254 C   0  0  0  0  0  0  0  0  0  0  0  0
  -15.9345    1.2110  -16.4090 C   0  0  0  0  0  0  0  0  0  0  0  0
  -17.0170    1.6073  -15.6205 C   0  0  0  0  0  0  0  0  0  0  0  0
  -16.9568    1.3804  -14.2448 C   0  0  0  0  0  0  0  0  0  0  0  0
  -17.9455    1.8190  -13.4495 F   0  0  0  0  0  0  0  0  0  0  0  0
  -15.8752    0.7159  -13.6544 C   0  0  0  0  0  0  0  0  0  0  0  0
  -18.1186    2.2796  -16.1183 O   0  0  0  0  0  0  0  0  0  0  0  0
  -19.2868    2.3258  -15.3804 C   0  0  0  0  0  0  0  0  0  0  0  0
  -19.8007    3.4956  -14.8280 C   0  0  0  0  0  0  0  0  0  0  0  0
  -20.9474    3.3997  -14.0752 C   0  0  0  0  0  0  0  0  0  0  0  0
  -21.6237    2.2545  -13.9007 N   0  0  0  0  0  0  0  0  0  0  0  0
  -21.1765    1.1326  -14.4921 C   0  0  0  0  0  0  0  0  0  0  0  0
  -20.0036    1.1286  -15.2425 C   0  0  0  0  0  0  0  0  0  0  0  0
  -21.9183   -0.0555  -14.3483 N   0  0  0  0  0  0  0  0  0  0  0  0
  -22.4443   -0.4844  -13.1384 C   0  0  0  0  0  0  0  0  0  0  0  0
  -22.3339    0.0483  -12.0475 O   0  0  0  0  0  0  0  0  0  0  0  0
  -22.0729   -0.6133  -15.1724 H   0  0  0  0  0  0  0  0  0  0  0  0
  -23.2249   -1.7659  -13.2256 C   0  0  0  0  0  0  0  0  0  0  0  0
  -24.7182   -1.6995  -13.4803 C   0  0  0  0  0  0  0  0  0  0  0  0
  -24.2129   -2.1046  -12.1267 C   0  0  0  0  0  0  0  0  0  0  0  0
  -12.1684   -5.6949  -12.3915 C   0  0  0  0  0  0  0  0  0  0  0  0
  -12.1539   -4.3839  -12.8989 C   0  0  0  0  0  0  0  0  0  0  0  0
  -12.4121   -3.2708  -12.0973 C   0  0  0  0  0  0  0  0  0  0  0  0
  -12.5567   -3.4627  -10.7211 C   0  0  0  0  0  0  0  0  0  0  0  0
  -12.5181   -4.7616  -10.1678 C   0  0  0  0  0  0  0  0  0  0  0  0
  -12.3348   -5.8705  -11.0147 C   0  0  0  0  0  0  0  0  0  0  0  0
  -12.7381   -5.0039   -8.6939 C   0  0  0  0  0  0  0  0  0  0  0  0
  -13.9607   -5.5276   -8.4010 F   0  0  0  0  0  0  0  0  0  0  0  0
  -11.8264   -5.8707   -8.1702 F   0  0  0  0  0  0  0  0  0  0  0  0
  -12.6323   -3.8635   -7.9575 F   0  0  0  0  0  0  0  0  0  0  0  0
  -11.4369   -6.4957  -14.6368 C   0  0  0  0  0  0  0  0  0  0  0  0
  -12.1983   -6.8918  -13.3560 C   0  0  0  0  0  0  0  0  0  0  0  0
  -13.6036   -7.3116  -13.6073 N   0  0  0  0  0  0  0  0  0  0  0  0
  -13.7136   -8.6987  -14.1230 C   0  0  0  0  0  0  0  0  0  0  0  0
  -13.2770   -8.8511  -15.5947 C   0  0  0  0  0  0  0  0  0  0  0  0
  -14.0853   -8.0189  -16.4995 N   0  0  0  0  0  0  0  0  0  0  0  0
  -14.0797   -6.6212  -16.0297 C   0  0  0  0  0  0  0  0  0  0  0  0
  -14.3710   -6.4393  -14.5187 C   0  0  0  0  0  0  0  0  0  0  0  0
  -15.0461   -8.3617  -16.4558 H   0  0  0  0  0  0  0  0  0  0  0  0
 38 39  1  0  0  0
 39 28  1  0  0  0
 39 40  1  0  0  0
 28 29  1  0  0  0
 28 33  2  0  0  0
 29 30  2  0  0  0
 30  1  1  0  0  0
 30 31  1  0  0  0
  1  2  1  0  0  0
  1  5  1  0  0  0
  2  3  2  0  0  0
  2  4  1  0  0  0
  4  7  1  0  0  0
  4  6  1  0  0  0
  7  8  1  0  0  0
  7 13  2  0  0  0
  8  9  2  0  0  0
  9 10  1  0  0  0
 10 14  1  0  0  0
 10 11  2  0  0  0
 14 15  1  0  0  0
 15 16  1  0  0  0
 15 20  2  0  0  0
 16 17  2  0  0  0
 17 18  1  0  0  0
 18 19  2  0  0  0
 19 21  1  0  0  0
 19 20  1  0  0  0
 21 22  1  0  0  0
 21 24  1  0  0  0
 22 23  2  0  0  0
 22 25  1  0  0  0
 25 26  1  0  0  0
 25 27  1  0  0  0
 26 27  1  0  0  0
 11 12  1  0  0  0
 11 13  1  0  0  0
 31 32  2  0  0  0
 32 34  1  0  0  0
 32 33  1  0  0  0
 34 35  1  0  0  0
 34 36  1  0  0  0
 34 37  1  0  0  0
 40 41  1  0  0  0
 40 45  1  0  0  0
 41 42  1  0  0  0
 42 43  1  0  0  0
 43 44  1  0  0  0
 43 46  1  0  0  0
 44 45  1  0  0  0
M  END
> <minimizedAffinity>
-9.53809

$$$$
