CHEMBL2023485


 36 39  0  0  0  0  0  0  0  0999 V2000
  -25.0730   -1.4796  -12.4449 C   0  0  0  0  0  0  0  0  0  0  0  0
  -24.7399   -1.4034  -11.0716 C   0  0  0  0  0  0  0  0  0  0  0  0
  -25.7025   -1.5119  -10.0561 C   0  0  0  0  0  0  0  0  0  0  0  0
  -27.0339   -1.7552  -10.3775 C   0  0  0  0  0  0  0  0  0  0  0  0
  -27.3686   -1.8039  -11.7406 C   0  0  0  0  0  0  0  0  0  0  0  0
  -26.4178   -1.6760  -12.7791 C   0  0  0  0  0  0  0  0  0  0  0  0
  -26.9920   -1.6374  -14.0199 O   0  0  0  0  0  0  0  0  0  0  0  0
  -28.2607   -2.2386  -14.2436 C   0  0  0  0  0  0  0  0  0  0  0  0
  -23.9321   -1.3245  -13.4301 C   0  0  0  0  0  0  0  0  0  0  0  0
  -22.1812    0.1353  -14.2992 N   0  0  0  0  0  0  0  0  0  0  0  0
  -23.3198    0.0736  -13.5204 C   0  0  0  0  0  0  0  0  0  0  0  0
  -23.8244    0.9911  -12.8760 O   0  0  0  0  0  0  0  0  0  0  0  0
  -21.8986   -0.6766  -14.8245 H   0  0  0  0  0  0  0  0  0  0  0  0
  -19.6239    2.4789  -15.0467 C   0  0  0  0  0  0  0  0  0  0  0  0
  -20.0881    1.1851  -15.0435 C   0  0  0  0  0  0  0  0  0  0  0  0
  -21.3874    1.2456  -14.4817 C   0  0  0  0  0  0  0  0  0  0  0  0
  -21.7022    2.4930  -14.1549 N   0  0  0  0  0  0  0  0  0  0  0  0
  -20.6362    3.2208  -14.5041 N   0  0  0  0  0  0  0  0  0  0  0  0
  -20.6692    4.2216  -14.3417 H   0  0  0  0  0  0  0  0  0  0  0  0
  -17.2863    2.0127  -15.7539 C   0  0  0  0  0  0  0  0  0  0  0  0
  -18.3419    3.0775  -15.4988 C   0  0  0  0  0  0  0  0  0  0  0  0
  -28.1081   -1.8108   -9.5157 O   0  0  0  0  0  0  0  0  0  0  0  0
  -28.0733   -1.6759   -8.1368 C   0  0  0  0  0  0  0  0  0  0  0  0
  -27.6328   -0.5497   -7.4463 C   0  0  0  0  0  0  0  0  0  0  0  0
  -27.6582   -0.5673   -6.0636 C   0  0  0  0  0  0  0  0  0  0  0  0
  -28.0304   -1.6285   -5.3326 N   0  0  0  0  0  0  0  0  0  0  0  0
  -28.3992   -2.7368   -5.9794 C   0  0  0  0  0  0  0  0  0  0  0  0
  -28.7129   -3.8268   -5.1869 C   0  0  0  0  0  0  0  0  0  0  0  0
  -29.1192   -5.0557   -5.7115 C   0  0  0  0  0  0  0  0  0  0  0  0
  -29.1910   -5.1949   -7.1036 C   0  0  0  0  0  0  0  0  0  0  0  0
  -28.8728   -4.0856   -7.9205 C   0  0  0  0  0  0  0  0  0  0  0  0
  -28.4598   -2.8348   -7.3838 C   0  0  0  0  0  0  0  0  0  0  0  0
  -29.3875   -6.1261   -4.8980 O   0  0  0  0  0  0  0  0  0  0  0  0
  -30.6704   -6.1567   -4.2766 C   0  0  0  0  0  0  0  0  0  0  0  0
  -29.5466   -6.3104   -7.8202 O   0  0  0  0  0  0  0  0  0  0  0  0
  -28.5221   -7.2056   -8.2394 C   0  0  0  0  0  0  0  0  0  0  0  0
 20 21  1  0  0  0
 21 14  1  0  0  0
 14 15  2  0  0  0
 14 18  1  0  0  0
 15 16  1  0  0  0
 16 10  1  0  0  0
 16 17  2  0  0  0
 10 11  1  0  0  0
 10 13  1  0  0  0
 11 12  2  0  0  0
 11  9  1  0  0  0
  9  1  1  0  0  0
  1  2  1  0  0  0
  1  6  2  0  0  0
  2  3  2  0  0  0
  3  4  1  0  0  0
  4 22  1  0  0  0
  4  5  2  0  0  0
 22 23  1  0  0  0
 23 24  1  0  0  0
 23 32  2  0  0  0
 24 25  2  0  0  0
 25 26  1  0  0  0
 26 27  2  0  0  0
 27 28  1  0  0  0
 27 32  1  0  0  0
 28 29  2  0  0  0
 29 33  1  0  0  0
 29 30  1  0  0  0
 33 34  1  0  0  0
 30 35  1  0  0  0
 30 31  2  0  0  0
 35 36  1  0  0  0
 31 32  1  0  0  0
  5  6  1  0  0  0
  6  7  1  0  0  0
  7  8  1  0  0  0
 17 18  1  0  0  0
 18 19  1  0  0  0
M  END
> <minimizedAffinity>
-9.42939

$$$$
