CHEMBL1082958


 43 47  0  0  0  0  0  0  0  0999 V2000
  -26.7502   -1.8279  -11.5317 C   0  0  0  0  0  0  0  0  0  0  0  0
  -27.3570   -2.2096  -12.7434 C   0  0  0  0  0  0  0  0  0  0  0  0
  -26.6797   -1.8169  -13.8221 N   0  0  0  0  0  0  0  0  0  0  0  0
  -25.6094   -1.1354  -13.3139 N   0  0  0  0  0  0  0  0  0  0  0  0
  -24.5677   -0.5156  -14.0564 C   0  0  0  0  0  0  0  0  0  0  0  0
  -24.6804   -0.5416  -15.4463 N   0  0  0  0  0  0  0  0  0  0  0  0
  -23.5454    0.0385  -13.3695 C   0  0  0  0  0  0  0  0  0  0  0  0
  -23.6654    0.0111  -11.8822 C   0  0  0  0  0  0  0  0  0  0  0  0
  -24.6181   -0.5317  -11.1929 N   0  0  0  0  0  0  0  0  0  0  0  0
  -25.6096   -1.1424  -11.9149 C   0  0  0  0  0  0  0  0  0  0  0  0
  -25.3295   -1.2686  -15.7585 H   0  0  0  0  0  0  0  0  0  0  0  0
  -23.7968   -0.5220  -15.9457 H   0  0  0  0  0  0  0  0  0  0  0  0
  -28.2427   -2.4052   -7.5511 C   0  0  0  0  0  0  0  0  0  0  0  0
  -27.9839   -1.1270   -8.0594 C   0  0  0  0  0  0  0  0  0  0  0  0
  -27.4608   -0.9356   -9.3362 C   0  0  0  0  0  0  0  0  0  0  0  0
  -27.1779   -2.0263  -10.1577 C   0  0  0  0  0  0  0  0  0  0  0  0
  -27.3540   -3.3128   -9.6391 C   0  0  0  0  0  0  0  0  0  0  0  0
  -27.8728   -3.4958   -8.3476 C   0  0  0  0  0  0  0  0  0  0  0  0
  -28.7838   -2.5980   -3.4043 N   0  0  0  0  0  0  0  0  0  0  0  0
  -28.5745   -1.3769   -4.2207 C   0  0  0  0  0  0  0  0  0  0  0  0
  -29.3211   -1.4111   -5.5679 C   0  0  0  0  0  0  0  0  0  0  0  0
  -28.8984   -2.5786   -6.3487 N   0  0  0  0  0  0  0  0  0  0  0  0
  -28.9298   -3.8756   -5.6576 C   0  0  0  0  0  0  0  0  0  0  0  0
  -28.3625   -3.7666   -4.2119 C   0  0  0  0  0  0  0  0  0  0  0  0
  -30.1821   -2.6440   -2.9307 C   0  0  0  0  0  0  0  0  0  0  0  0
  -30.8042   -4.0238   -2.6722 C   0  0  0  0  0  0  0  0  0  0  0  0
  -31.7441   -5.7111   -4.0126 C   0  0  0  0  0  0  0  0  0  0  0  0
  -31.7831   -4.3364   -3.6603 O   0  0  0  0  0  0  0  0  0  0  0  0
  -22.3950    0.6977  -13.9823 C   0  0  0  0  0  0  0  0  0  0  0  0
  -22.3001    2.0822  -13.9384 C   0  0  0  0  0  0  0  0  0  0  0  0
  -21.1864    2.7230  -14.4839 C   0  0  0  0  0  0  0  0  0  0  0  0
  -20.1575    1.9911  -15.0850 C   0  0  0  0  0  0  0  0  0  0  0  0
  -20.2558    0.5972  -15.1271 C   0  0  0  0  0  0  0  0  0  0  0  0
  -21.3734   -0.0493  -14.5786 C   0  0  0  0  0  0  0  0  0  0  0  0
  -19.0254    2.6013  -15.6588 N   0  0  0  0  0  0  0  0  0  0  0  0
  -17.7332    2.4627  -15.2274 C   0  0  0  0  0  0  0  0  0  0  0  0
  -17.3397    1.7894  -14.2861 O   0  0  0  0  0  0  0  0  0  0  0  0
  -19.1571    3.2941  -16.3825 H   0  0  0  0  0  0  0  0  0  0  0  0
  -16.9171    3.2693  -15.9605 O   0  0  0  0  0  0  0  0  0  0  0  0
  -15.5461    2.8351  -15.9785 C   0  0  0  0  0  0  0  0  0  0  0  0
  -14.5788    3.8369  -16.6313 C   0  0  0  0  0  0  0  0  0  0  0  0
  -15.3108    4.8132  -17.5491 C   0  0  0  0  0  0  0  0  0  0  0  0
  -13.8070    4.5840  -15.5439 C   0  0  0  0  0  0  0  0  0  0  0  0
 27 28  1  0  0  0
 28 26  1  0  0  0
 26 25  1  0  0  0
 25 19  1  0  0  0
 19 20  1  0  0  0
 19 24  1  0  0  0
 20 21  1  0  0  0
 21 22  1  0  0  0
 22 13  1  0  0  0
 22 23  1  0  0  0
 13 14  1  0  0  0
 13 18  2  0  0  0
 14 15  2  0  0  0
 15 16  1  0  0  0
 16  1  1  0  0  0
 16 17  2  0  0  0
  1  2  1  0  0  0
  1 10  2  0  0  0
  2  3  2  0  0  0
  3  4  1  0  0  0
  4  5  1  0  0  0
  4 10  1  0  0  0
  5  6  1  0  0  0
  5  7  2  0  0  0
  6 11  1  0  0  0
  6 12  1  0  0  0
  7 29  1  0  0  0
  7  8  1  0  0  0
 29 30  1  0  0  0
 29 34  2  0  0  0
 30 31  2  0  0  0
 31 32  1  0  0  0
 32 35  1  0  0  0
 32 33  2  0  0  0
 35 36  1  0  0  0
 35 38  1  0  0  0
 36 37  2  0  0  0
 36 39  1  0  0  0
 39 40  1  0  0  0
 40 41  1  0  0  0
 41 42  1  0  0  0
 41 43  1  0  0  0
 33 34  1  0  0  0
  8  9  2  0  0  0
  9 10  1  0  0  0
 17 18  1  0  0  0
 23 24  1  0  0  0
M  END
> <minimizedAffinity>
-9.13627

$$$$
