CHEMBL1910892


 31 35  0  0  0  0  0  0  0  0999 V2000
  -23.3866    0.1488  -13.6980 C   0  0  0  0  0  0  0  0  0  0  0  0
  -22.2698   -0.6091  -14.0667 C   0  0  0  0  0  0  0  0  0  0  0  0
  -21.0828    0.0140  -14.4275 C   0  0  0  0  0  0  0  0  0  0  0  0
  -21.0472    1.4167  -14.4031 C   0  0  0  0  0  0  0  0  0  0  0  0
  -20.0793    2.4292  -14.6881 C   0  0  0  0  0  0  0  0  0  0  0  0
  -20.6878    3.6468  -14.4266 C   0  0  0  0  0  0  0  0  0  0  0  0
  -21.9738    3.4085  -14.0259 N   0  0  0  0  0  0  0  0  0  0  0  0
  -22.2152    2.0617  -14.0089 C   0  0  0  0  0  0  0  0  0  0  0  0
  -23.3862    1.5083  -13.6573 N   0  0  0  0  0  0  0  0  0  0  0  0
  -22.6656    4.1001  -13.7797 H   0  0  0  0  0  0  0  0  0  0  0  0
  -28.2840   -2.2216  -12.1849 O   0  0  0  0  0  0  0  0  0  0  0  0
  -27.0996   -1.6779  -12.5769 C   0  0  0  0  0  0  0  0  0  0  0  0
  -26.6178   -1.8413  -13.8712 C   0  0  0  0  0  0  0  0  0  0  0  0
  -25.4004   -1.2608  -14.2293 C   0  0  0  0  0  0  0  0  0  0  0  0
  -24.6484   -0.5046  -13.3083 C   0  0  0  0  0  0  0  0  0  0  0  0
  -25.1608   -0.3758  -12.0029 C   0  0  0  0  0  0  0  0  0  0  0  0
  -26.3771   -0.9506  -11.6405 C   0  0  0  0  0  0  0  0  0  0  0  0
  -28.6505   -2.7323  -12.9254 H   0  0  0  0  0  0  0  0  0  0  0  0
  -18.7194    2.3138  -15.1894 C   0  0  0  0  0  0  0  0  0  0  0  0
  -18.0017    1.1238  -15.0377 C   0  0  0  0  0  0  0  0  0  0  0  0
  -16.7086    0.9922  -15.5536 C   0  0  0  0  0  0  0  0  0  0  0  0
  -16.0756    2.0507  -16.2180 C   0  0  0  0  0  0  0  0  0  0  0  0
  -16.8074    3.2408  -16.3541 C   0  0  0  0  0  0  0  0  0  0  0  0
  -18.1027    3.3749  -15.8594 C   0  0  0  0  0  0  0  0  0  0  0  0
  -14.8000    1.9561  -16.7299 N   0  0  0  0  0  0  0  0  0  0  0  0
  -14.0988    3.0907  -17.3417 C   0  0  0  0  0  0  0  0  0  0  0  0
  -13.7451    2.8098  -18.8179 C   0  0  0  0  0  0  0  0  0  0  0  0
  -13.0459    1.5234  -19.0309 N   0  0  0  0  0  0  0  0  0  0  0  0
  -13.8757    0.4392  -18.4621 C   0  0  0  0  0  0  0  0  0  0  0  0
  -14.2111    0.6300  -16.9647 C   0  0  0  0  0  0  0  0  0  0  0  0
  -12.1691    1.5518  -18.5108 H   0  0  0  0  0  0  0  0  0  0  0  0
 11 12  1  0  0  0
 11 18  1  0  0  0
 12 13  1  0  0  0
 12 17  2  0  0  0
 13 14  2  0  0  0
 14 15  1  0  0  0
 15  1  1  0  0  0
 15 16  2  0  0  0
  1  2  1  0  0  0
  1  9  2  0  0  0
  2  3  2  0  0  0
  3  4  1  0  0  0
  4  5  1  0  0  0
  4  8  2  0  0  0
  5 19  1  0  0  0
  5  6  2  0  0  0
 19 20  1  0  0  0
 19 24  2  0  0  0
 20 21  2  0  0  0
 21 22  1  0  0  0
 22 25  1  0  0  0
 22 23  2  0  0  0
 25 26  1  0  0  0
 25 30  1  0  0  0
 26 27  1  0  0  0
 27 28  1  0  0  0
 28 29  1  0  0  0
 28 31  1  0  0  0
 29 30  1  0  0  0
 23 24  1  0  0  0
  6  7  1  0  0  0
  7  8  1  0  0  0
  7 10  1  0  0  0
  8  9  1  0  0  0
 16 17  1  0  0  0
M  END
> <minimizedAffinity>
-10.72354

$$$$
