CHEMBL3403515


 22 25  0  0  0  0  0  0  0  0999 V2000
  -19.9648    2.2286  -15.2688 C   0  0  0  0  0  0  0  0  0  0  0  0
  -19.5048    0.9210  -15.0559 C   0  0  0  0  0  0  0  0  0  0  0  0
  -18.1316    0.6281  -15.0636 C   0  0  0  0  0  0  0  0  0  0  0  0
  -17.2294    1.6500  -15.2930 C   0  0  0  0  0  0  0  0  0  0  0  0
  -17.6994    2.9500  -15.4999 C   0  0  0  0  0  0  0  0  0  0  0  0
  -19.0488    3.2585  -15.4881 C   0  0  0  0  0  0  0  0  0  0  0  0
  -16.5513    3.8795  -15.6792 C   0  0  0  0  0  0  0  0  0  0  0  0
  -15.4008    2.8855  -15.8984 C   0  0  0  0  0  0  0  0  0  0  0  0
  -15.8280    1.5726  -15.3993 N   0  0  0  0  0  0  0  0  0  0  0  0
  -14.9510    0.5040  -15.2468 C   0  0  0  0  0  0  0  0  0  0  0  0
  -13.9768    0.2906  -16.1788 N   0  0  0  0  0  0  0  0  0  0  0  0
  -13.1575   -0.7803  -16.0897 C   0  0  0  0  0  0  0  0  0  0  0  0
  -12.1737   -0.9797  -17.2050 C   0  0  0  0  0  0  0  0  0  0  0  0
  -13.1591   -1.7053  -15.1212 N   0  0  0  0  0  0  0  0  0  0  0  0
  -14.0985   -1.4625  -14.2007 C   0  0  0  0  0  0  0  0  0  0  0  0
  -14.2883   -2.2669  -13.1115 O   0  0  0  0  0  0  0  0  0  0  0  0
  -15.3098   -1.7323  -12.3887 C   0  0  0  0  0  0  0  0  0  0  0  0
  -15.7201   -2.4257  -11.1516 C   0  0  0  0  0  0  0  0  0  0  0  0
  -15.7722   -0.5930  -12.9974 C   0  0  0  0  0  0  0  0  0  0  0  0
  -15.0117   -0.4171  -14.1833 C   0  0  0  0  0  0  0  0  0  0  0  0
  -21.7664    3.2486  -14.1074 C   0  0  0  0  0  0  0  0  0  0  0  0
  -21.2742    2.6266  -15.2884 O   0  0  0  0  0  0  0  0  0  0  0  0
 21 22  1  0  0  0
 22  1  1  0  0  0
  1  2  1  0  0  0
  1  6  2  0  0  0
  2  3  2  0  0  0
  3  4  1  0  0  0
  4  5  2  0  0  0
  4  9  1  0  0  0
  5  6  1  0  0  0
  5  7  1  0  0  0
  7  8  1  0  0  0
  8  9  1  0  0  0
  9 10  1  0  0  0
 10 11  1  0  0  0
 10 20  2  0  0  0
 11 12  2  0  0  0
 12 13  1  0  0  0
 12 14  1  0  0  0
 14 15  2  0  0  0
 15 16  1  0  0  0
 15 20  1  0  0  0
 16 17  1  0  0  0
 17 18  1  0  0  0
 17 19  2  0  0  0
 19 20  1  0  0  0
M  END
> <minimizedAffinity>
-7.27238

$$$$
