CHEMBL2086749


 39 44  0  0  0  0  0  0  0  0999 V2000
  -29.2824   -2.1742   -3.8515 C   0  0  0  0  0  0  0  0  0  0  0  0
  -29.3774   -2.6806   -2.5459 C   0  0  0  0  0  0  0  0  0  0  0  0
  -29.4903   -4.0513   -2.3244 C   0  0  0  0  0  0  0  0  0  0  0  0
  -29.4813   -4.8831   -3.4291 C   0  0  0  0  0  0  0  0  0  0  0  0
  -29.3528   -4.4283   -4.7458 C   0  0  0  0  0  0  0  0  0  0  0  0
  -29.2471   -3.0554   -4.9572 C   0  0  0  0  0  0  0  0  0  0  0  0
  -29.3677   -5.6537   -5.6045 C   0  0  0  0  0  0  0  0  0  0  0  0
  -29.2352   -5.8208   -6.9455 C   0  0  0  0  0  0  0  0  0  0  0  0
  -29.4988   -6.8226   -4.6406 C   0  0  0  0  0  0  0  0  0  0  0  0
  -29.4643   -8.0148   -4.8645 O   0  0  0  0  0  0  0  0  0  0  0  0
  -29.5784   -6.2631   -3.3804 N   0  0  0  0  0  0  0  0  0  0  0  0
  -29.6535   -6.8254   -2.5485 H   0  0  0  0  0  0  0  0  0  0  0  0
  -29.2091   -7.1340   -7.5391 C   0  0  0  0  0  0  0  0  0  0  0  0
  -28.2513   -7.8993   -8.0459 N   0  0  0  0  0  0  0  0  0  0  0  0
  -28.8691   -9.0867   -8.4347 C   0  0  0  0  0  0  0  0  0  0  0  0
  -28.3652  -10.2483   -9.0740 C   0  0  0  0  0  0  0  0  0  0  0  0
  -29.2626  -11.2889   -9.3816 C   0  0  0  0  0  0  0  0  0  0  0  0
  -30.6141  -11.1863   -9.0312 C   0  0  0  0  0  0  0  0  0  0  0  0
  -31.1217  -10.0703   -8.3708 C   0  0  0  0  0  0  0  0  0  0  0  0
  -30.2173   -9.0478   -8.1029 C   0  0  0  0  0  0  0  0  0  0  0  0
  -30.3910   -7.8335   -7.5025 N   0  0  0  0  0  0  0  0  0  0  0  0
  -31.2562   -7.4955   -7.1153 H   0  0  0  0  0  0  0  0  0  0  0  0
  -28.9871  -12.4651  -10.0264 O   0  0  0  0  0  0  0  0  0  0  0  0
  -28.0537  -12.4657  -11.0927 C   0  0  0  0  0  0  0  0  0  0  0  0
  -28.9355   -4.6539   -7.8054 C   0  0  0  0  0  0  0  0  0  0  0  0
  -29.9872   -3.8484   -8.2729 C   0  0  0  0  0  0  0  0  0  0  0  0
  -29.7180   -2.6925   -9.0035 C   0  0  0  0  0  0  0  0  0  0  0  0
  -28.3991   -2.3406   -9.2813 C   0  0  0  0  0  0  0  0  0  0  0  0
  -27.3500   -3.1470   -8.8372 C   0  0  0  0  0  0  0  0  0  0  0  0
  -27.6146   -4.3004   -8.0965 C   0  0  0  0  0  0  0  0  0  0  0  0
  -29.2161   -0.8339   -4.1487 O   0  0  0  0  0  0  0  0  0  0  0  0
  -28.9052    1.4571   -6.7967 N   0  0  0  0  0  0  0  0  0  0  0  0
  -29.0294    1.8393   -5.3812 C   0  0  0  0  0  0  0  0  0  0  0  0
  -27.9174    1.2338   -4.5291 C   0  0  0  0  0  0  0  0  0  0  0  0
  -27.9568   -0.2933   -4.6084 C   0  0  0  0  0  0  0  0  0  0  0  0
  -27.7730   -0.6692   -6.0826 C   0  0  0  0  0  0  0  0  0  0  0  0
  -28.8366   -0.0088   -6.9627 C   0  0  0  0  0  0  0  0  0  0  0  0
  -31.3087    2.2136   -6.7753 C   0  0  0  0  0  0  0  0  0  0  0  0
  -30.0405    1.9736   -7.5882 C   0  0  0  0  0  0  0  0  0  0  0  0
 38 39  1  0  0  0
 39 32  1  0  0  0
 32 33  1  0  0  0
 32 37  1  0  0  0
 33 34  1  0  0  0
 34 35  1  0  0  0
 35 31  1  0  0  0
 35 36  1  0  0  0
 31  1  1  0  0  0
  1  2  1  0  0  0
  1  6  2  0  0  0
  2  3  2  0  0  0
  3  4  1  0  0  0
  4  5  2  0  0  0
  4 11  1  0  0  0
  5  6  1  0  0  0
  5  7  1  0  0  0
  7  8  2  0  0  0
  7  9  1  0  0  0
  8 25  1  0  0  0
  8 13  1  0  0  0
 25 26  1  0  0  0
 25 30  2  0  0  0
 26 27  2  0  0  0
 27 28  1  0  0  0
 28 29  2  0  0  0
 29 30  1  0  0  0
 13 14  2  0  0  0
 13 21  1  0  0  0
 14 15  1  0  0  0
 15 16  1  0  0  0
 15 20  2  0  0  0
 16 17  2  0  0  0
 17 23  1  0  0  0
 17 18  1  0  0  0
 23 24  1  0  0  0
 18 19  2  0  0  0
 19 20  1  0  0  0
 20 21  1  0  0  0
 21 22  1  0  0  0
  9 10  2  0  0  0
  9 11  1  0  0  0
 11 12  1  0  0  0
 36 37  1  0  0  0
M  END
> <minimizedAffinity>
-2.46891

$$$$
