CHEMBL2332840


 34 37  0  0  0  0  0  0  0  0999 V2000
  -21.6282    0.3013  -15.3857 O   0  0  0  0  0  0  0  0  0  0  0  0
  -21.5665    0.7703  -14.2553 C   0  0  0  0  0  0  0  0  0  0  0  0
  -20.4723    1.4631  -13.7569 N   0  0  0  0  0  0  0  0  0  0  0  0
  -22.5749    0.6413  -13.3122 N   0  0  0  0  0  0  0  0  0  0  0  0
  -20.4573    1.6556  -12.7674 H   0  0  0  0  0  0  0  0  0  0  0  0
  -22.4659    1.1592  -12.4542 H   0  0  0  0  0  0  0  0  0  0  0  0
  -23.7754   -0.0925  -13.4698 C   0  0  0  0  0  0  0  0  0  0  0  0
  -24.2485   -0.5597  -14.6956 C   0  0  0  0  0  0  0  0  0  0  0  0
  -25.4482   -1.2677  -14.7793 C   0  0  0  0  0  0  0  0  0  0  0  0
  -26.1946   -1.5453  -13.6330 C   0  0  0  0  0  0  0  0  0  0  0  0
  -27.6677   -2.4083  -13.8697 Cl  0  0  0  0  0  0  0  0  0  0  0  0
  -25.7336   -1.1232  -12.3840 C   0  0  0  0  0  0  0  0  0  0  0  0
  -24.5240   -0.3833  -12.3235 C   0  0  0  0  0  0  0  0  0  0  0  0
  -26.4234   -1.4240  -11.0793 C   0  0  0  0  0  0  0  0  0  0  0  0
  -26.6632   -2.7298  -10.7985 F   0  0  0  0  0  0  0  0  0  0  0  0
  -25.7053   -0.9513  -10.0185 F   0  0  0  0  0  0  0  0  0  0  0  0
  -27.6356   -0.8032  -10.9949 F   0  0  0  0  0  0  0  0  0  0  0  0
  -19.2700    1.7155  -14.4626 C   0  0  0  0  0  0  0  0  0  0  0  0
  -19.0590    2.8630  -15.2298 C   0  0  0  0  0  0  0  0  0  0  0  0
  -17.8857    3.0316  -15.9674 C   0  0  0  0  0  0  0  0  0  0  0  0
  -16.8709    2.0801  -15.9043 C   0  0  0  0  0  0  0  0  0  0  0  0
  -17.0654    0.9318  -15.1340 C   0  0  0  0  0  0  0  0  0  0  0  0
  -18.2536    0.7549  -14.4084 C   0  0  0  0  0  0  0  0  0  0  0  0
  -15.6983    2.1556  -16.6229 O   0  0  0  0  0  0  0  0  0  0  0  0
  -14.7271    3.0585  -16.2100 C   0  0  0  0  0  0  0  0  0  0  0  0
  -13.9500    2.7875  -15.1295 N   0  0  0  0  0  0  0  0  0  0  0  0
  -13.0377    3.7046  -14.7564 C   0  0  0  0  0  0  0  0  0  0  0  0
  -12.7570    4.8794  -15.3489 N   0  0  0  0  0  0  0  0  0  0  0  0
  -13.5204    5.0703  -16.4363 C   0  0  0  0  0  0  0  0  0  0  0  0
  -13.4877    6.1412  -17.2819 N   0  0  0  0  0  0  0  0  0  0  0  0
  -14.3760    6.0577  -18.2949 N   0  0  0  0  0  0  0  0  0  0  0  0
  -14.9914    4.8901  -18.0691 C   0  0  0  0  0  0  0  0  0  0  0  0
  -14.5007    4.2282  -16.9252 C   0  0  0  0  0  0  0  0  0  0  0  0
  -12.8824    6.9516  -17.2158 H   0  0  0  0  0  0  0  0  0  0  0  0
  1  2  2  0  0  0
  2  3  1  0  0  0
  2  4  1  0  0  0
  3 18  1  0  0  0
  3  5  1  0  0  0
 18 19  1  0  0  0
 18 23  2  0  0  0
 19 20  2  0  0  0
 20 21  1  0  0  0
 21 24  1  0  0  0
 21 22  2  0  0  0
 24 25  1  0  0  0
 25 26  1  0  0  0
 25 33  2  0  0  0
 26 27  2  0  0  0
 27 28  1  0  0  0
 28 29  2  0  0  0
 29 30  1  0  0  0
 29 33  1  0  0  0
 30 31  1  0  0  0
 30 34  1  0  0  0
 31 32  2  0  0  0
 32 33  1  0  0  0
 22 23  1  0  0  0
  4  7  1  0  0  0
  4  6  1  0  0  0
  7  8  1  0  0  0
  7 13  2  0  0  0
  8  9  2  0  0  0
  9 10  1  0  0  0
 10 11  1  0  0  0
 10 12  2  0  0  0
 12 14  1  0  0  0
 12 13  1  0  0  0
 14 15  1  0  0  0
 14 16  1  0  0  0
 14 17  1  0  0  0
M  END
> <minimizedAffinity>
-9.22075

$$$$
