CHEMBL3633688


 35 39  0  0  0  0  0  0  0  0999 V2000
  -25.6654   -0.7897  -12.5411 C   0  0  0  0  0  0  0  0  0  0  0  0
  -25.1876   -1.3466  -13.7274 C   0  0  0  0  0  0  0  0  0  0  0  0
  -23.9813   -0.9101  -14.2850 C   0  0  0  0  0  0  0  0  0  0  0  0
  -23.2017    0.0849  -13.6663 C   0  0  0  0  0  0  0  0  0  0  0  0
  -23.7298    0.6796  -12.5073 C   0  0  0  0  0  0  0  0  0  0  0  0
  -24.9612    0.2684  -11.9631 C   0  0  0  0  0  0  0  0  0  0  0  0
  -21.8279    0.3723  -14.1464 C   0  0  0  0  0  0  0  0  0  0  0  0
  -21.1516   -0.4104  -15.1061 C   0  0  0  0  0  0  0  0  0  0  0  0
  -19.8386   -0.0976  -15.5579 C   0  0  0  0  0  0  0  0  0  0  0  0
  -19.2688    1.1255  -15.1458 C   0  0  0  0  0  0  0  0  0  0  0  0
  -18.1188    1.9457  -15.3754 C   0  0  0  0  0  0  0  0  0  0  0  0
  -18.5414    3.2240  -15.4528 N   0  0  0  0  0  0  0  0  0  0  0  0
  -19.5159    3.2099  -14.5206 N   0  0  0  0  0  0  0  0  0  0  0  0
  -20.0586    1.9584  -14.3664 C   0  0  0  0  0  0  0  0  0  0  0  0
  -21.2194    1.5625  -13.7135 C   0  0  0  0  0  0  0  0  0  0  0  0
  -19.8396    4.0816  -14.1344 H   0  0  0  0  0  0  0  0  0  0  0  0
  -16.7560    1.9251  -14.7680 C   0  0  0  0  0  0  0  0  0  0  0  0
  -15.5163    2.1628  -15.3069 C   0  0  0  0  0  0  0  0  0  0  0  0
  -14.5628    1.5406  -14.5323 N   0  0  0  0  0  0  0  0  0  0  0  0
  -15.1730    0.9392  -13.5182 N   0  0  0  0  0  0  0  0  0  0  0  0
  -16.4833    1.1977  -13.6385 N   0  0  0  0  0  0  0  0  0  0  0  0
  -17.1510    0.7282  -13.0374 H   0  0  0  0  0  0  0  0  0  0  0  0
  -27.9078   -2.1762  -10.0359 N   0  0  0  0  0  0  0  0  0  0  0  0
  -26.7082   -1.7025  -10.5391 C   0  0  0  0  0  0  0  0  0  0  0  0
  -25.6771   -1.5839   -9.8858 O   0  0  0  0  0  0  0  0  0  0  0  0
  -26.8015   -1.3256  -11.8781 N   0  0  0  0  0  0  0  0  0  0  0  0
  -28.5894   -2.4884  -10.7144 H   0  0  0  0  0  0  0  0  0  0  0  0
  -27.6975   -0.9422  -12.1424 H   0  0  0  0  0  0  0  0  0  0  0  0
  -27.6376   -0.7345   -5.2976 C   0  0  0  0  0  0  0  0  0  0  0  0
  -28.0347   -1.7499   -6.3305 C   0  0  0  0  0  0  0  0  0  0  0  0
  -28.6504   -2.9422   -5.9386 C   0  0  0  0  0  0  0  0  0  0  0  0
  -29.0148   -3.8888   -6.8832 C   0  0  0  0  0  0  0  0  0  0  0  0
  -28.7658   -3.6515   -8.2373 C   0  0  0  0  0  0  0  0  0  0  0  0
  -28.1735   -2.4614   -8.6669 C   0  0  0  0  0  0  0  0  0  0  0  0
  -27.7943   -1.5177   -7.7017 C   0  0  0  0  0  0  0  0  0  0  0  0
 29 30  1  0  0  0
 30 31  1  0  0  0
 30 35  2  0  0  0
 31 32  2  0  0  0
 32 33  1  0  0  0
 33 34  2  0  0  0
 34 23  1  0  0  0
 34 35  1  0  0  0
 23 24  1  0  0  0
 23 27  1  0  0  0
 24 25  2  0  0  0
 24 26  1  0  0  0
 26  1  1  0  0  0
 26 28  1  0  0  0
  1  2  1  0  0  0
  1  6  2  0  0  0
  2  3  2  0  0  0
  3  4  1  0  0  0
  4  7  1  0  0  0
  4  5  2  0  0  0
  7  8  1  0  0  0
  7 15  2  0  0  0
  8  9  2  0  0  0
  9 10  1  0  0  0
 10 11  1  0  0  0
 10 14  2  0  0  0
 11 17  1  0  0  0
 11 12  2  0  0  0
 17 18  2  0  0  0
 17 21  1  0  0  0
 18 19  1  0  0  0
 19 20  2  0  0  0
 20 21  1  0  0  0
 21 22  1  0  0  0
 12 13  1  0  0  0
 13 14  1  0  0  0
 13 16  1  0  0  0
 14 15  1  0  0  0
  5  6  1  0  0  0
M  END
> <minimizedAffinity>
-11.12980

$$$$
