CHEMBL3940661


 28 30  0  0  0  0  0  0  0  0999 V2000
  -30.2658   -6.4195   -5.4728 C   0  0  0  0  0  0  0  0  0  0  0  0
  -29.6139   -6.6695   -4.3357 N   0  0  0  0  0  0  0  0  0  0  0  0
  -29.1760   -5.5778   -3.6602 C   0  0  0  0  0  0  0  0  0  0  0  0
  -29.3906   -4.2768   -4.0498 C   0  0  0  0  0  0  0  0  0  0  0  0
  -28.9091   -2.9291   -2.8202 Br  0  0  0  0  0  0  0  0  0  0  0  0
  -30.0305   -4.1111   -5.2786 C   0  0  0  0  0  0  0  0  0  0  0  0
  -30.4026   -5.2092   -5.9823 N   0  0  0  0  0  0  0  0  0  0  0  0
  -30.8622   -7.5159   -6.1112 N   0  0  0  0  0  0  0  0  0  0  0  0
  -31.2924   -8.1050   -5.4112 H   0  0  0  0  0  0  0  0  0  0  0  0
  -29.2488   -9.5870   -9.4153 C   0  0  0  0  0  0  0  0  0  0  0  0
  -28.5151   -8.5719   -8.8091 C   0  0  0  0  0  0  0  0  0  0  0  0
  -29.0448   -7.8949   -7.7125 C   0  0  0  0  0  0  0  0  0  0  0  0
  -30.3164   -8.2067   -7.2078 C   0  0  0  0  0  0  0  0  0  0  0  0
  -31.0241   -9.2616   -7.8016 C   0  0  0  0  0  0  0  0  0  0  0  0
  -30.5025   -9.9443   -8.9132 C   0  0  0  0  0  0  0  0  0  0  0  0
  -26.9384   -9.6911  -10.9436 C   0  0  0  0  0  0  0  0  0  0  0  0
  -28.5650  -10.4010  -10.8496 S   0  0  0  0  0  0  0  0  0  0  0  0
  -29.3536   -9.9129  -12.0861 N   0  0  0  0  0  0  0  0  0  0  0  0
  -28.4148  -11.7978  -10.5086 O   0  0  0  0  0  0  0  0  0  0  0  0
  -29.0776  -10.4354  -12.9174 H   0  0  0  0  0  0  0  0  0  0  0  0
  -30.3801   -2.8509   -5.7851 N   0  0  0  0  0  0  0  0  0  0  0  0
  -31.2412   -2.8213   -6.2999 H   0  0  0  0  0  0  0  0  0  0  0  0
  -29.5945   -1.6751   -5.8604 C   0  0  0  0  0  0  0  0  0  0  0  0
  -30.0107   -0.4609   -5.3081 C   0  0  0  0  0  0  0  0  0  0  0  0
  -29.3261    0.7268   -5.5537 C   0  0  0  0  0  0  0  0  0  0  0  0
  -28.1793    0.7096   -6.3397 C   0  0  0  0  0  0  0  0  0  0  0  0
  -27.6905   -0.5011   -6.8254 C   0  0  0  0  0  0  0  0  0  0  0  0
  -28.3950   -1.6881   -6.5873 C   0  0  0  0  0  0  0  0  0  0  0  0
 16 17  1  0  0  0
 17 18  2  0  0  0
 17 19  2  0  0  0
 17 10  1  0  0  0
 18 20  1  0  0  0
 10 11  1  0  0  0
 10 15  2  0  0  0
 11 12  2  0  0  0
 12 13  1  0  0  0
 13  8  1  0  0  0
 13 14  2  0  0  0
  8  1  1  0  0  0
  8  9  1  0  0  0
  1  2  1  0  0  0
  1  7  2  0  0  0
  2  3  2  0  0  0
  3  4  1  0  0  0
  4  5  1  0  0  0
  4  6  2  0  0  0
  6 21  1  0  0  0
  6  7  1  0  0  0
 21 23  1  0  0  0
 21 22  1  0  0  0
 23 24  1  0  0  0
 23 28  2  0  0  0
 24 25  2  0  0  0
 25 26  1  0  0  0
 26 27  2  0  0  0
 27 28  1  0  0  0
 14 15  1  0  0  0
M  END
> <minimizedAffinity>
-8.39617

$$$$
