CHEMBL3943917


 44 48  0  0  0  0  0  0  0  0999 V2000
  -14.4254    3.1591  -16.3207 N   0  0  0  0  0  0  0  0  0  0  0  0
  -14.2204    1.9973  -15.4048 C   0  0  0  0  0  0  0  0  0  0  0  0
  -13.3124    2.2836  -14.4043 C   0  0  0  0  0  0  0  0  0  0  0  0
  -12.7725    1.3366  -13.6225 C   0  0  0  0  0  0  0  0  0  0  0  0
  -13.0885    0.0263  -13.7273 C   0  0  0  0  0  0  0  0  0  0  0  0
  -12.3309   -0.7444  -12.9606 N   0  0  0  0  0  0  0  0  0  0  0  0
  -12.4711   -2.0433  -12.8454 C   0  0  0  0  0  0  0  0  0  0  0  0
  -13.4953   -2.7054  -13.4678 C   0  0  0  0  0  0  0  0  0  0  0  0
  -14.2961   -1.9241  -14.3972 N   0  0  0  0  0  0  0  0  0  0  0  0
  -14.0803   -0.4977  -14.5652 C   0  0  0  0  0  0  0  0  0  0  0  0
  -14.6994    0.5617  -15.4802 C   0  0  0  0  0  0  0  0  0  0  0  0
  -13.5607   -4.1807  -12.8460 C   0  0  0  0  0  0  0  0  0  0  0  0
  -12.9749   -4.7251  -11.7169 C   0  0  0  0  0  0  0  0  0  0  0  0
  -13.1837   -6.0736  -11.6708 N   0  0  0  0  0  0  0  0  0  0  0  0
  -13.8988   -6.4794  -12.7124 N   0  0  0  0  0  0  0  0  0  0  0  0
  -14.2043   -5.3584  -13.4353 C   0  0  0  0  0  0  0  0  0  0  0  0
  -14.1030   -7.9609  -13.0017 C   0  0  0  0  0  0  0  0  0  0  0  0
  -13.5834   -8.5444  -14.3421 C   0  0  0  0  0  0  0  0  0  0  0  0
  -13.5969   -8.8582  -11.8534 C   0  0  0  0  0  0  0  0  0  0  0  0
  -12.5487    2.7457  -19.5968 C   0  0  0  0  0  0  0  0  0  0  0  0
  -12.5380    4.0733  -20.0430 C   0  0  0  0  0  0  0  0  0  0  0  0
  -13.0860    5.1016  -19.2564 C   0  0  0  0  0  0  0  0  0  0  0  0
  -13.6993    4.7807  -18.0342 C   0  0  0  0  0  0  0  0  0  0  0  0
  -13.6874    3.4649  -17.5267 C   0  0  0  0  0  0  0  0  0  0  0  0
  -13.0854    2.4520  -18.3198 C   0  0  0  0  0  0  0  0  0  0  0  0
  -12.1302   -0.1038  -21.2909 H   0  0  0  0  0  0  0  0  0  0  0  0
  -12.8283    0.6348  -20.8437 C   0  0  0  0  0  0  0  0  0  0  0  0
  -13.5588    0.9414  -21.6228 H   0  0  0  0  0  0  0  0  0  0  0  0
  -13.3576    0.1157  -20.0122 H   0  0  0  0  0  0  0  0  0  0  0  0
  -12.0973    1.7241  -20.3831 O   0  0  0  0  0  0  0  0  0  0  0  0
  -13.0291    6.4030  -19.6483 O   0  0  0  0  0  0  0  0  0  0  0  0
  -11.8834    7.1776  -19.6129 C   0  0  0  0  0  0  0  0  0  0  0  0
  -11.4317    7.1507  -18.5948 H   0  0  0  0  0  0  0  0  0  0  0  0
  -11.1511    6.7966  -20.3549 H   0  0  0  0  0  0  0  0  0  0  0  0
  -12.1282    8.2328  -19.8448 H   0  0  0  0  0  0  0  0  0  0  0  0
  -15.5198    4.1409  -15.9471 C   0  0  0  0  0  0  0  0  0  0  0  0
  -16.9504    3.6342  -15.7522 C   0  0  0  0  0  0  0  0  0  0  0  0
  -18.0393    3.1333  -15.4277 C   0  0  0  0  0  0  0  0  0  0  0  0
  -19.3656    2.5555  -15.0606 C   0  0  0  0  0  0  0  0  0  0  0  0
  -19.6432    1.1647  -15.1004 C   0  0  0  0  0  0  0  0  0  0  0  0
  -20.9174    0.6839  -14.7246 C   0  0  0  0  0  0  0  0  0  0  0  0
  -21.8872    1.5471  -14.3301 N   0  0  0  0  0  0  0  0  0  0  0  0
  -21.6679    2.8848  -14.2928 C   0  0  0  0  0  0  0  0  0  0  0  0
  -20.4145    3.4082  -14.6580 C   0  0  0  0  0  0  0  0  0  0  0  0
 26 27  1  0  0  0
 27 28  1  0  0  0
 27 29  1  0  0  0
 27 30  1  0  0  0
 30 20  1  0  0  0
 20 21  1  0  0  0
 20 25  2  0  0  0
 21 22  2  0  0  0
 22 31  1  0  0  0
 22 23  1  0  0  0
 31 32  1  0  0  0
 32 33  1  0  0  0
 32 34  1  0  0  0
 32 35  1  0  0  0
 23 24  2  0  0  0
 24  1  1  0  0  0
 24 25  1  0  0  0
  1 36  1  0  0  0
  1  2  1  0  0  0
 36 37  1  0  0  0
 37 38  3  0  0  0
 38 39  1  0  0  0
 39 40  1  0  0  0
 39 44  2  0  0  0
 40 41  2  0  0  0
 41 42  1  0  0  0
 42 43  2  0  0  0
 43 44  1  0  0  0
  2  3  1  0  0  0
  2 11  2  0  0  0
  3  4  2  0  0  0
  4  5  1  0  0  0
  5  6  1  0  0  0
  5 10  2  0  0  0
  6  7  2  0  0  0
  7  8  1  0  0  0
  8 12  1  0  0  0
  8  9  2  0  0  0
 12 13  1  0  0  0
 12 16  2  0  0  0
 13 14  2  0  0  0
 14 15  1  0  0  0
 15 17  1  0  0  0
 15 16  1  0  0  0
 17 18  1  0  0  0
 17 19  1  0  0  0
  9 10  1  0  0  0
 10 11  1  0  0  0
M  ISO 1  26   2
M  ISO 1  28   2
M  ISO 1  29   2
M  ISO 1  33   2
M  ISO 1  34   2
M  ISO 1  35   2
M  END
> <minimizedAffinity>
-7.77969

$$$$
