CHEMBL394020


 30 32  0  0  0  0  0  0  0  0999 V2000
  -27.6377   -0.6313   -6.3527 C   0  0  0  0  0  0  0  0  0  0  0  0
  -28.5444   -1.7492   -6.2262 N   0  0  0  0  0  0  0  0  0  0  0  0
  -29.4434   -1.9145   -5.2115 C   0  0  0  0  0  0  0  0  0  0  0  0
  -30.1848   -2.9836   -5.3950 N   0  0  0  0  0  0  0  0  0  0  0  0
  -29.7153   -3.5443   -6.5447 C   0  0  0  0  0  0  0  0  0  0  0  0
  -28.7197   -2.7843   -7.1225 C   0  0  0  0  0  0  0  0  0  0  0  0
  -28.0084   -2.9623   -8.3633 C   0  0  0  0  0  0  0  0  0  0  0  0
  -27.5833   -4.0613   -8.7078 O   0  0  0  0  0  0  0  0  0  0  0  0
  -27.7906   -1.7767   -9.0584 N   0  0  0  0  0  0  0  0  0  0  0  0
  -27.9796   -0.9305   -8.5370 H   0  0  0  0  0  0  0  0  0  0  0  0
  -27.1662   -1.6451  -10.3161 C   0  0  0  0  0  0  0  0  0  0  0  0
  -27.8912   -1.5667  -11.5039 C   0  0  0  0  0  0  0  0  0  0  0  0
  -27.2349   -1.4950  -12.7348 C   0  0  0  0  0  0  0  0  0  0  0  0
  -25.8333   -1.4981  -12.8102 C   0  0  0  0  0  0  0  0  0  0  0  0
  -25.1088   -1.5302  -11.6138 C   0  0  0  0  0  0  0  0  0  0  0  0
  -23.3811   -1.5328  -11.5979 Cl  0  0  0  0  0  0  0  0  0  0  0  0
  -25.7716   -1.5855  -10.3761 C   0  0  0  0  0  0  0  0  0  0  0  0
  -25.1682   -1.4724  -14.1604 C   0  0  0  0  0  0  0  0  0  0  0  0
  -24.4761   -2.6187  -14.4320 F   0  0  0  0  0  0  0  0  0  0  0  0
  -26.0493   -1.3346  -15.1886 F   0  0  0  0  0  0  0  0  0  0  0  0
  -24.2590   -0.4684  -14.2906 F   0  0  0  0  0  0  0  0  0  0  0  0
  -30.1863   -4.7068   -7.0170 N   0  0  0  0  0  0  0  0  0  0  0  0
  -30.5925   -4.7854   -7.9433 H   0  0  0  0  0  0  0  0  0  0  0  0
  -30.2069   -5.9135   -6.2192 C   0  0  0  0  0  0  0  0  0  0  0  0
  -30.1627   -7.1477   -7.0802 C   0  0  0  0  0  0  0  0  0  0  0  0
  -31.2660   -8.0042   -7.1395 C   0  0  0  0  0  0  0  0  0  0  0  0
  -31.2208   -9.0921   -7.9960 C   0  0  0  0  0  0  0  0  0  0  0  0
  -30.1654   -9.3828   -8.7868 N   0  0  0  0  0  0  0  0  0  0  0  0
  -29.1080   -8.5478   -8.7142 C   0  0  0  0  0  0  0  0  0  0  0  0
  -29.0577   -7.4342   -7.8882 C   0  0  0  0  0  0  0  0  0  0  0  0
  1  2  1  0  0  0
  2  3  1  0  0  0
  2  6  1  0  0  0
  3  4  2  0  0  0
  4  5  1  0  0  0
  5 22  1  0  0  0
  5  6  2  0  0  0
 22 24  1  0  0  0
 22 23  1  0  0  0
 24 25  1  0  0  0
 25 26  1  0  0  0
 25 30  2  0  0  0
 26 27  2  0  0  0
 27 28  1  0  0  0
 28 29  2  0  0  0
 29 30  1  0  0  0
  6  7  1  0  0  0
  7  8  2  0  0  0
  7  9  1  0  0  0
  9 11  1  0  0  0
  9 10  1  0  0  0
 11 12  1  0  0  0
 11 17  2  0  0  0
 12 13  2  0  0  0
 13 14  1  0  0  0
 14 18  1  0  0  0
 14 15  2  0  0  0
 18 19  1  0  0  0
 18 20  1  0  0  0
 18 21  1  0  0  0
 15 16  1  0  0  0
 15 17  1  0  0  0
M  END
> <minimizedAffinity>
-8.80622

$$$$
