CHEMBL380397


 41 46  0  0  0  0  0  0  0  0999 V2000
  -22.1439    1.2330  -14.0249 C   0  0  0  0  0  0  0  0  0  0  0  0
  -22.0584    2.6517  -14.0077 C   0  0  0  0  0  0  0  0  0  0  0  0
  -20.9223    3.3301  -14.4420 C   0  0  0  0  0  0  0  0  0  0  0  0
  -19.8612    2.5625  -14.8409 C   0  0  0  0  0  0  0  0  0  0  0  0
  -19.8805    1.1400  -14.8072 C   0  0  0  0  0  0  0  0  0  0  0  0
  -21.0320    0.4688  -14.4254 C   0  0  0  0  0  0  0  0  0  0  0  0
  -18.5318    0.5129  -15.2110 C   0  0  0  0  0  0  0  0  0  0  0  0
  -17.8073    1.7871  -15.4946 C   0  0  0  0  0  0  0  0  0  0  0  0
  -16.5444    2.2811  -15.8487 C   0  0  0  0  0  0  0  0  0  0  0  0
  -16.5552    3.6304  -15.9285 N   0  0  0  0  0  0  0  0  0  0  0  0
  -17.8192    3.9807  -15.5830 N   0  0  0  0  0  0  0  0  0  0  0  0
  -18.5676    2.9024  -15.2991 C   0  0  0  0  0  0  0  0  0  0  0  0
  -18.0668    4.9638  -15.5599 H   0  0  0  0  0  0  0  0  0  0  0  0
  -15.3099    1.4783  -16.0844 C   0  0  0  0  0  0  0  0  0  0  0  0
  -14.8911    1.0361  -17.3214 C   0  0  0  0  0  0  0  0  0  0  0  0
  -13.6657    0.3120  -17.2428 C   0  0  0  0  0  0  0  0  0  0  0  0
  -13.2027    0.2218  -15.9463 C   0  0  0  0  0  0  0  0  0  0  0  0
  -14.2344    1.0200  -14.8472 S   0  0  0  0  0  0  0  0  0  0  0  0
  -11.9792   -0.4432  -15.4360 C   0  0  0  0  0  0  0  0  0  0  0  0
  -12.2276   -0.9016  -14.0880 N   0  0  0  0  0  0  0  0  0  0  0  0
  -12.6725   -2.1928  -13.9565 C   0  0  0  0  0  0  0  0  0  0  0  0
  -12.8823   -2.8982  -14.9340 O   0  0  0  0  0  0  0  0  0  0  0  0
  -12.8933   -2.5360  -12.6429 N   0  0  0  0  0  0  0  0  0  0  0  0
  -11.5887   -0.5820  -13.3758 H   0  0  0  0  0  0  0  0  0  0  0  0
  -13.0111   -1.7548  -12.0134 H   0  0  0  0  0  0  0  0  0  0  0  0
  -13.4014   -3.7893  -12.2352 C   0  0  0  0  0  0  0  0  0  0  0  0
  -12.5709   -4.8650  -11.9028 C   0  0  0  0  0  0  0  0  0  0  0  0
  -13.1137   -6.1179  -11.6256 C   0  0  0  0  0  0  0  0  0  0  0  0
  -12.0688   -7.4408  -11.2799 Cl  0  0  0  0  0  0  0  0  0  0  0  0
  -14.4892   -6.3095  -11.6459 C   0  0  0  0  0  0  0  0  0  0  0  0
  -15.3188   -5.2251  -11.9173 C   0  0  0  0  0  0  0  0  0  0  0  0
  -17.0256   -5.4505  -11.9441 Cl  0  0  0  0  0  0  0  0  0  0  0  0
  -14.7862   -3.9630  -12.1973 C   0  0  0  0  0  0  0  0  0  0  0  0
  -23.4461    0.5588  -13.6291 C   0  0  0  0  0  0  0  0  0  0  0  0
  -26.6121   -1.7751  -10.9043 C   0  0  0  0  0  0  0  0  0  0  0  0
  -25.5310   -1.9756  -11.8649 N   0  0  0  0  0  0  0  0  0  0  0  0
  -25.8600   -1.3607  -13.1608 C   0  0  0  0  0  0  0  0  0  0  0  0
  -24.6988   -1.5104  -14.1692 C   0  0  0  0  0  0  0  0  0  0  0  0
  -23.4215   -0.9135  -13.7191 N   0  0  0  0  0  0  0  0  0  0  0  0
  -23.1044   -1.5108  -12.3984 C   0  0  0  0  0  0  0  0  0  0  0  0
  -24.2524   -1.4461  -11.3532 C   0  0  0  0  0  0  0  0  0  0  0  0
 35 36  1  0  0  0
 36 37  1  0  0  0
 36 41  1  0  0  0
 37 38  1  0  0  0
 38 39  1  0  0  0
 39 34  1  0  0  0
 39 40  1  0  0  0
 34  1  1  0  0  0
  1  2  1  0  0  0
  1  6  2  0  0  0
  2  3  2  0  0  0
  3  4  1  0  0  0
  4  5  2  0  0  0
  4 12  1  0  0  0
  5  6  1  0  0  0
  5  7  1  0  0  0
  7  8  1  0  0  0
  8  9  1  0  0  0
  8 12  2  0  0  0
  9 14  1  0  0  0
  9 10  2  0  0  0
 14 15  2  0  0  0
 14 18  1  0  0  0
 15 16  1  0  0  0
 16 17  2  0  0  0
 17 19  1  0  0  0
 17 18  1  0  0  0
 19 20  1  0  0  0
 20 21  1  0  0  0
 20 24  1  0  0  0
 21 22  2  0  0  0
 21 23  1  0  0  0
 23 26  1  0  0  0
 23 25  1  0  0  0
 26 27  1  0  0  0
 26 33  2  0  0  0
 27 28  2  0  0  0
 28 29  1  0  0  0
 28 30  1  0  0  0
 30 31  2  0  0  0
 31 32  1  0  0  0
 31 33  1  0  0  0
 10 11  1  0  0  0
 11 12  1  0  0  0
 11 13  1  0  0  0
 40 41  1  0  0  0
M  END
> <minimizedAffinity>
-11.30099

$$$$
