CHEMBL500952


 35 39  0  0  0  0  0  0  0  0999 V2000
  -12.3713   -7.8250  -12.4767 C   0  0  0  0  0  0  0  0  0  0  0  0
  -12.1652   -7.2631  -13.7513 C   0  0  0  0  0  0  0  0  0  0  0  0
  -12.3244   -5.8864  -13.9722 C   0  0  0  0  0  0  0  0  0  0  0  0
  -12.7208   -5.0827  -12.9172 C   0  0  0  0  0  0  0  0  0  0  0  0
  -12.9085   -5.6668  -11.6558 C   0  0  0  0  0  0  0  0  0  0  0  0
  -12.7281   -7.0129  -11.3997 C   0  0  0  0  0  0  0  0  0  0  0  0
  -13.3907   -4.7356  -10.7478 N   0  0  0  0  0  0  0  0  0  0  0  0
  -13.6734   -3.5352  -11.3767 C   0  0  0  0  0  0  0  0  0  0  0  0
  -14.4239   -2.6862  -10.9366 O   0  0  0  0  0  0  0  0  0  0  0  0
  -13.0445   -3.6428  -12.7599 C   0  0  0  0  0  0  0  0  0  0  0  0
  -12.8489   -2.5879  -13.5814 C   0  0  0  0  0  0  0  0  0  0  0  0
  -13.7371   -4.9420   -9.8227 H   0  0  0  0  0  0  0  0  0  0  0  0
  -12.5542   -2.8282  -15.0152 C   0  0  0  0  0  0  0  0  0  0  0  0
  -13.5527   -3.3477  -15.8540 C   0  0  0  0  0  0  0  0  0  0  0  0
  -13.2598   -3.6762  -17.1787 C   0  0  0  0  0  0  0  0  0  0  0  0
  -11.9759   -3.4662  -17.6791 C   0  0  0  0  0  0  0  0  0  0  0  0
  -10.9974   -2.8871  -16.8707 C   0  0  0  0  0  0  0  0  0  0  0  0
  -11.2855   -2.5602  -15.5435 C   0  0  0  0  0  0  0  0  0  0  0  0
  -12.1923  -10.3887  -12.1460 N   0  0  0  0  0  0  0  0  0  0  0  0
  -12.2613   -9.2436  -12.2945 C   0  0  0  0  0  0  0  0  0  0  0  0
  -12.9133   -1.2284  -13.2969 N   0  0  0  0  0  0  0  0  0  0  0  0
  -12.0395   -0.8133  -12.9934 H   0  0  0  0  0  0  0  0  0  0  0  0
  -13.9209   -0.3225  -13.6801 C   0  0  0  0  0  0  0  0  0  0  0  0
  -15.0995   -0.1627  -12.9391 C   0  0  0  0  0  0  0  0  0  0  0  0
  -16.2305    0.4185  -13.5167 C   0  0  0  0  0  0  0  0  0  0  0  0
  -16.1876    0.8836  -14.8352 C   0  0  0  0  0  0  0  0  0  0  0  0
  -14.9539    0.9040  -15.5018 C   0  0  0  0  0  0  0  0  0  0  0  0
  -13.8289    0.3087  -14.9240 C   0  0  0  0  0  0  0  0  0  0  0  0
  -17.4747    1.1770  -15.5803 C   0  0  0  0  0  0  0  0  0  0  0  0
  -18.6411    1.5001  -14.7302 N   0  0  0  0  0  0  0  0  0  0  0  0
  -18.8606    2.9530  -14.7175 C   0  0  0  0  0  0  0  0  0  0  0  0
  -20.1903    3.3782  -14.0979 C   0  0  0  0  0  0  0  0  0  0  0  0
  -21.3549    2.6430  -14.7393 C   0  0  0  0  0  0  0  0  0  0  0  0
  -21.1412    1.1464  -14.5854 C   0  0  0  0  0  0  0  0  0  0  0  0
  -19.8023    0.7150  -15.1870 C   0  0  0  0  0  0  0  0  0  0  0  0
 19 20  3  0  0  0
 20  1  1  0  0  0
  1  2  1  0  0  0
  1  6  2  0  0  0
  2  3  2  0  0  0
  3  4  1  0  0  0
  4  5  2  0  0  0
  4 10  1  0  0  0
  5  6  1  0  0  0
  5  7  1  0  0  0
  7  8  1  0  0  0
  7 12  1  0  0  0
  8  9  2  0  0  0
  8 10  1  0  0  0
 10 11  2  0  0  0
 11 21  1  0  0  0
 11 13  1  0  0  0
 21 23  1  0  0  0
 21 22  1  0  0  0
 23 24  1  0  0  0
 23 28  2  0  0  0
 24 25  2  0  0  0
 25 26  1  0  0  0
 26 29  1  0  0  0
 26 27  2  0  0  0
 29 30  1  0  0  0
 30 31  1  0  0  0
 30 35  1  0  0  0
 31 32  1  0  0  0
 32 33  1  0  0  0
 33 34  1  0  0  0
 34 35  1  0  0  0
 27 28  1  0  0  0
 13 14  1  0  0  0
 13 18  2  0  0  0
 14 15  2  0  0  0
 15 16  1  0  0  0
 16 17  2  0  0  0
 17 18  1  0  0  0
M  END
> <minimizedAffinity>
-7.47513

$$$$
