CHEMBL205984


 28 31  0  0  0  0  0  0  0  0999 V2000
  -28.8091   -8.3991   -5.7744 C   0  0  0  0  0  0  0  0  0  0  0  0
  -29.0638   -8.8202   -7.0963 C   0  0  0  0  0  0  0  0  0  0  0  0
  -29.9976   -8.1598   -7.8927 C   0  0  0  0  0  0  0  0  0  0  0  0
  -30.7236   -7.1005   -7.3664 C   0  0  0  0  0  0  0  0  0  0  0  0
  -30.5013   -6.6887   -6.0523 C   0  0  0  0  0  0  0  0  0  0  0  0
  -29.5351   -7.3144   -5.2349 C   0  0  0  0  0  0  0  0  0  0  0  0
  -28.2157   -9.9073   -4.0757 O   0  0  0  0  0  0  0  0  0  0  0  0
  -27.8129   -9.1773   -4.9717 C   0  0  0  0  0  0  0  0  0  0  0  0
  -26.4888   -9.0051   -5.3495 N   0  0  0  0  0  0  0  0  0  0  0  0
  -26.3060   -8.3452   -6.0950 H   0  0  0  0  0  0  0  0  0  0  0  0
  -25.3509   -9.6366   -4.8020 C   0  0  0  0  0  0  0  0  0  0  0  0
  -25.2253   -9.9817   -3.4558 C   0  0  0  0  0  0  0  0  0  0  0  0
  -24.0664  -10.6089   -2.9852 C   0  0  0  0  0  0  0  0  0  0  0  0
  -23.0175  -10.9002   -3.8572 C   0  0  0  0  0  0  0  0  0  0  0  0
  -21.6260  -11.6913   -3.2103 Cl  0  0  0  0  0  0  0  0  0  0  0  0
  -23.1285  -10.5514   -5.2052 C   0  0  0  0  0  0  0  0  0  0  0  0
  -21.8671  -10.8599   -6.3467 Cl  0  0  0  0  0  0  0  0  0  0  0  0
  -24.2916   -9.9248   -5.6735 C   0  0  0  0  0  0  0  0  0  0  0  0
  -29.3228   -6.7439   -3.8448 C   0  0  0  0  0  0  0  0  0  0  0  0
  -29.2245   -5.2674   -3.8624 N   0  0  0  0  0  0  0  0  0  0  0  0
  -30.3229   -4.4683   -3.5190 C   0  0  0  0  0  0  0  0  0  0  0  0
  -30.3718   -3.1303   -3.6263 C   0  0  0  0  0  0  0  0  0  0  0  0
  -29.1680   -2.4865   -4.1669 C   0  0  0  0  0  0  0  0  0  0  0  0
  -28.9075   -1.2458   -4.4280 N   0  0  0  0  0  0  0  0  0  0  0  0
  -27.6111   -1.3004   -4.9368 C   0  0  0  0  0  0  0  0  0  0  0  0
  -27.0410   -2.4711   -5.0028 N   0  0  0  0  0  0  0  0  0  0  0  0
  -28.0059   -3.3042   -4.5176 C   0  0  0  0  0  0  0  0  0  0  0  0
  -28.0801   -4.6244   -4.3574 C   0  0  0  0  0  0  0  0  0  0  0  0
  7  8  2  0  0  0
  8  9  1  0  0  0
  8  1  1  0  0  0
  9 11  1  0  0  0
  9 10  1  0  0  0
 11 12  1  0  0  0
 11 18  2  0  0  0
 12 13  2  0  0  0
 13 14  1  0  0  0
 14 15  1  0  0  0
 14 16  2  0  0  0
 16 17  1  0  0  0
 16 18  1  0  0  0
  1  2  1  0  0  0
  1  6  2  0  0  0
  2  3  2  0  0  0
  3  4  1  0  0  0
  4  5  2  0  0  0
  5  6  1  0  0  0
  6 19  1  0  0  0
 19 20  1  0  0  0
 20 21  1  0  0  0
 20 28  1  0  0  0
 21 22  2  0  0  0
 22 23  1  0  0  0
 23 24  2  0  0  0
 23 27  1  0  0  0
 24 25  1  0  0  0
 25 26  2  0  0  0
 26 27  1  0  0  0
 27 28  2  0  0  0
M  END
> <minimizedAffinity>
-8.80774

$$$$
