CHEMBL3978313


 39 43  0  0  0  0  0  0  0  0999 V2000
  -15.5383    1.7388  -15.9309 N   0  0  0  0  0  0  0  0  0  0  0  0
  -16.9099    1.9771  -15.5734 C   0  0  0  0  0  0  0  0  0  0  0  0
  -17.3674    3.2936  -15.6053 C   0  0  0  0  0  0  0  0  0  0  0  0
  -18.6626    3.6580  -15.3594 C   0  0  0  0  0  0  0  0  0  0  0  0
  -19.6011    2.7580  -14.9857 C   0  0  0  0  0  0  0  0  0  0  0  0
  -20.7336    3.3816  -14.7067 N   0  0  0  0  0  0  0  0  0  0  0  0
  -21.7357    2.6191  -14.2731 C   0  0  0  0  0  0  0  0  0  0  0  0
  -21.6290    1.2508  -14.1499 C   0  0  0  0  0  0  0  0  0  0  0  0
  -20.4423    0.5891  -14.4525 N   0  0  0  0  0  0  0  0  0  0  0  0
  -19.3351    1.3730  -14.8717 C   0  0  0  0  0  0  0  0  0  0  0  0
  -17.9277    1.0191  -15.2092 C   0  0  0  0  0  0  0  0  0  0  0  0
  -22.8528    0.6209  -13.6455 C   0  0  0  0  0  0  0  0  0  0  0  0
  -23.1998    0.2303  -12.3232 C   0  0  0  0  0  0  0  0  0  0  0  0
  -24.1920   -0.6715  -12.2812 N   0  0  0  0  0  0  0  0  0  0  0  0
  -24.4690   -0.8962  -13.5761 N   0  0  0  0  0  0  0  0  0  0  0  0
  -25.6138   -1.6867  -13.9664 C   0  0  0  0  0  0  0  0  0  0  0  0
  -23.5991   -0.2634  -14.4188 C   0  0  0  0  0  0  0  0  0  0  0  0
  -14.8756    1.6350  -17.1981 C   0  0  0  0  0  0  0  0  0  0  0  0
  -14.4486    0.4170  -17.7415 C   0  0  0  0  0  0  0  0  0  0  0  0
  -13.7171    0.3933  -18.9484 C   0  0  0  0  0  0  0  0  0  0  0  0
  -13.4063    1.5818  -19.6261 C   0  0  0  0  0  0  0  0  0  0  0  0
  -13.7923    2.7979  -19.0975 C   0  0  0  0  0  0  0  0  0  0  0  0
  -14.5028    2.8068  -17.8993 C   0  0  0  0  0  0  0  0  0  0  0  0
  -13.2308   -0.7169  -19.5884 O   0  0  0  0  0  0  0  0  0  0  0  0
  -13.4109   -1.9695  -18.9503 C   0  0  0  0  0  0  0  0  0  0  0  0
  -13.5494    4.0378  -19.6162 O   0  0  0  0  0  0  0  0  0  0  0  0
  -14.1463    5.1447  -18.9587 C   0  0  0  0  0  0  0  0  0  0  0  0
  -14.5188    1.6043  -14.8133 C   0  0  0  0  0  0  0  0  0  0  0  0
  -14.8709   -0.6629  -13.4247 C   0  0  0  0  0  0  0  0  0  0  0  0
  -14.6267    0.3459  -14.0501 C   0  0  0  0  0  0  0  0  0  0  0  0
  -15.3105   -3.1005  -13.4103 C   0  0  0  0  0  0  0  0  0  0  0  0
  -15.6805   -4.1987  -12.6277 C   0  0  0  0  0  0  0  0  0  0  0  0
  -16.0628   -4.0281  -11.2971 C   0  0  0  0  0  0  0  0  0  0  0  0
  -16.0326   -2.7530  -10.7611 C   0  0  0  0  0  0  0  0  0  0  0  0
  -15.6269   -1.6636  -11.4454 N   0  0  0  0  0  0  0  0  0  0  0  0
  -15.2585   -1.8633  -12.7368 C   0  0  0  0  0  0  0  0  0  0  0  0
  -14.0760   -4.3861  -15.0830 C   0  0  0  0  0  0  0  0  0  0  0  0
  -14.8938   -3.2336  -14.7496 N   0  0  0  0  0  0  0  0  0  0  0  0
  -15.6883   -3.1432  -15.3839 H   0  0  0  0  0  0  0  0  0  0  0  0
 37 38  1  0  0  0
 38 31  1  0  0  0
 38 39  1  0  0  0
 31 32  1  0  0  0
 31 36  2  0  0  0
 32 33  2  0  0  0
 33 34  1  0  0  0
 34 35  2  0  0  0
 35 36  1  0  0  0
 36 29  1  0  0  0
 29 30  3  0  0  0
 30 28  1  0  0  0
 28  1  1  0  0  0
  1 18  1  0  0  0
  1  2  1  0  0  0
 18 19  1  0  0  0
 18 23  2  0  0  0
 19 20  2  0  0  0
 20 24  1  0  0  0
 20 21  1  0  0  0
 24 25  1  0  0  0
 21 22  2  0  0  0
 22 26  1  0  0  0
 22 23  1  0  0  0
 26 27  1  0  0  0
  2  3  1  0  0  0
  2 11  2  0  0  0
  3  4  2  0  0  0
  4  5  1  0  0  0
  5  6  1  0  0  0
  5 10  2  0  0  0
  6  7  2  0  0  0
  7  8  1  0  0  0
  8 12  1  0  0  0
  8  9  2  0  0  0
 12 13  1  0  0  0
 12 17  2  0  0  0
 13 14  2  0  0  0
 14 15  1  0  0  0
 15 16  1  0  0  0
 15 17  1  0  0  0
  9 10  1  0  0  0
 10 11  1  0  0  0
M  END
> <minimizedAffinity>
-9.48486

$$$$
