CHEMBL3968883


 29 32  0  0  0  0  0  0  0  0999 V2000
  -18.1943    3.0906  -15.4882 C   0  0  0  0  0  0  0  0  0  0  0  0
  -18.1543    1.6938  -15.5220 C   0  0  0  0  0  0  0  0  0  0  0  0
  -19.2518    0.9278  -15.1029 C   0  0  0  0  0  0  0  0  0  0  0  0
  -20.4092    1.5471  -14.6349 C   0  0  0  0  0  0  0  0  0  0  0  0
  -20.4576    2.9411  -14.5828 C   0  0  0  0  0  0  0  0  0  0  0  0
  -19.3587    3.7066  -15.0084 C   0  0  0  0  0  0  0  0  0  0  0  0
  -15.3206    2.4939  -15.6257 O   0  0  0  0  0  0  0  0  0  0  0  0
  -15.7682    3.6002  -15.8940 C   0  0  0  0  0  0  0  0  0  0  0  0
  -14.9875    4.7086  -16.2057 N   0  0  0  0  0  0  0  0  0  0  0  0
  -17.1215    3.9231  -15.8936 N   0  0  0  0  0  0  0  0  0  0  0  0
  -15.4554    5.5999  -16.2429 H   0  0  0  0  0  0  0  0  0  0  0  0
  -17.3739    4.8238  -16.2685 H   0  0  0  0  0  0  0  0  0  0  0  0
  -13.5720    4.7524  -16.2495 C   0  0  0  0  0  0  0  0  0  0  0  0
  -12.8131    4.3185  -17.3401 C   0  0  0  0  0  0  0  0  0  0  0  0
  -11.4153    4.3605  -17.3030 C   0  0  0  0  0  0  0  0  0  0  0  0
  -10.7590    4.8406  -16.1742 C   0  0  0  0  0  0  0  0  0  0  0  0
  -11.5017    5.2894  -15.0854 C   0  0  0  0  0  0  0  0  0  0  0  0
  -12.9006    5.2540  -15.1261 C   0  0  0  0  0  0  0  0  0  0  0  0
  -21.5421    0.7534  -14.2543 C   0  0  0  0  0  0  0  0  0  0  0  0
  -22.5400    0.1441  -13.9604 C   0  0  0  0  0  0  0  0  0  0  0  0
  -23.7949   -0.4798  -13.6122 C   0  0  0  0  0  0  0  0  0  0  0  0
  -24.7067   -0.9861  -14.6672 C   0  0  0  0  0  0  0  0  0  0  0  0
  -25.8514   -1.5500  -14.2635 C   0  0  0  0  0  0  0  0  0  0  0  0
  -26.1254   -1.6341  -12.8802 C   0  0  0  0  0  0  0  0  0  0  0  0
  -27.1598   -2.1285  -12.2329 N   0  0  0  0  0  0  0  0  0  0  0  0
  -26.8734   -1.9378  -10.9048 C   0  0  0  0  0  0  0  0  0  0  0  0
  -25.6533   -1.3218  -10.7450 C   0  0  0  0  0  0  0  0  0  0  0  0
  -25.1724   -1.1213  -12.0107 N   0  0  0  0  0  0  0  0  0  0  0  0
  -23.9817   -0.5267  -12.3316 N   0  0  0  0  0  0  0  0  0  0  0  0
  7  8  2  0  0  0
  8  9  1  0  0  0
  8 10  1  0  0  0
  9 13  1  0  0  0
  9 11  1  0  0  0
 13 14  1  0  0  0
 13 18  2  0  0  0
 14 15  2  0  0  0
 15 16  1  0  0  0
 16 17  2  0  0  0
 17 18  1  0  0  0
 10  1  1  0  0  0
 10 12  1  0  0  0
  1  2  1  0  0  0
  1  6  2  0  0  0
  2  3  2  0  0  0
  3  4  1  0  0  0
  4 19  1  0  0  0
  4  5  2  0  0  0
 19 20  3  0  0  0
 20 21  1  0  0  0
 21 22  1  0  0  0
 21 29  2  0  0  0
 22 23  2  0  0  0
 23 24  1  0  0  0
 24 25  2  0  0  0
 24 28  1  0  0  0
 25 26  1  0  0  0
 26 27  2  0  0  0
 27 28  1  0  0  0
 28 29  1  0  0  0
  5  6  1  0  0  0
M  END
> <minimizedAffinity>
-9.97033

$$$$
