CHEMBL3671539


 37 39  0  0  0  0  0  0  0  0999 V2000
  -28.6733   -4.8162   -5.4146 C   0  0  0  0  0  0  0  0  0  0  0  0
  -28.3010   -6.1003   -5.0157 C   0  0  0  0  0  0  0  0  0  0  0  0
  -28.5499   -7.2070   -5.8546 C   0  0  0  0  0  0  0  0  0  0  0  0
  -28.2848   -8.5419   -5.5035 C   0  0  0  0  0  0  0  0  0  0  0  0
  -28.5243   -9.5624   -6.3430 N   0  0  0  0  0  0  0  0  0  0  0  0
  -29.0664   -9.2471   -7.5231 C   0  0  0  0  0  0  0  0  0  0  0  0
  -29.3767   -8.0169   -7.9511 N   0  0  0  0  0  0  0  0  0  0  0  0
  -29.1092   -7.0039   -7.1228 C   0  0  0  0  0  0  0  0  0  0  0  0
  -29.4010   -5.7027   -7.5268 C   0  0  0  0  0  0  0  0  0  0  0  0
  -29.1688   -4.5952   -6.7036 C   0  0  0  0  0  0  0  0  0  0  0  0
  -29.8532   -3.5734   -3.6764 C   0  0  0  0  0  0  0  0  0  0  0  0
  -29.7805   -2.9369   -2.6301 O   0  0  0  0  0  0  0  0  0  0  0  0
  -28.7264   -3.8096   -4.4323 N   0  0  0  0  0  0  0  0  0  0  0  0
  -27.9022   -3.6983   -3.8498 H   0  0  0  0  0  0  0  0  0  0  0  0
  -31.7670   -5.0584   -3.3831 C   0  0  0  0  0  0  0  0  0  0  0  0
  -31.1304   -4.1690   -4.1548 C   0  0  0  0  0  0  0  0  0  0  0  0
  -27.8071   -8.8304   -4.2064 N   0  0  0  0  0  0  0  0  0  0  0  0
  -28.5591   -8.8174   -3.5253 H   0  0  0  0  0  0  0  0  0  0  0  0
  -26.7536   -9.6892   -3.8308 C   0  0  0  0  0  0  0  0  0  0  0  0
  -25.4226   -9.2593   -3.7995 C   0  0  0  0  0  0  0  0  0  0  0  0
  -24.4293  -10.0514   -3.2151 C   0  0  0  0  0  0  0  0  0  0  0  0
  -24.7606  -11.2868   -2.6622 C   0  0  0  0  0  0  0  0  0  0  0  0
  -23.4381  -12.2943   -1.7641 Br  0  0  0  0  0  0  0  0  0  0  0  0
  -26.0667  -11.7604   -2.7257 C   0  0  0  0  0  0  0  0  0  0  0  0
  -27.0469  -10.9561   -3.3005 C   0  0  0  0  0  0  0  0  0  0  0  0
  -28.3155  -11.3984   -3.3227 F   0  0  0  0  0  0  0  0  0  0  0  0
  -29.5125   -3.3802   -7.2477 O   0  0  0  0  0  0  0  0  0  0  0  0
  -28.6427   -2.9133   -8.2874 C   0  0  0  0  0  0  0  0  0  0  0  0
  -27.5114   -2.0577   -7.7115 C   0  0  0  0  0  0  0  0  0  0  0  0
  -28.0295   -0.9018   -6.9896 N   0  0  0  0  0  0  0  0  0  0  0  0
  -27.7186   -0.7008   -5.6626 C   0  0  0  0  0  0  0  0  0  0  0  0
  -26.9474   -1.4228   -5.0347 O   0  0  0  0  0  0  0  0  0  0  0  0
  -28.7247   -0.3168   -7.4380 H   0  0  0  0  0  0  0  0  0  0  0  0
  -28.4245    0.4845   -5.0368 C   0  0  0  0  0  0  0  0  0  0  0  0
  -29.5528    0.9799   -5.9290 C   0  0  0  0  0  0  0  0  0  0  0  0
  -29.0588    1.8834   -6.9118 O   0  0  0  0  0  0  0  0  0  0  0  0
  -28.8083    2.6971   -6.4273 H   0  0  0  0  0  0  0  0  0  0  0  0
 15 16  2  0  0  0
 16 11  1  0  0  0
 11 12  2  0  0  0
 11 13  1  0  0  0
 13  1  1  0  0  0
 13 14  1  0  0  0
  1  2  1  0  0  0
  1 10  2  0  0  0
  2  3  2  0  0  0
  3  4  1  0  0  0
  3  8  1  0  0  0
  4 17  1  0  0  0
  4  5  2  0  0  0
 17 19  1  0  0  0
 17 18  1  0  0  0
 19 20  1  0  0  0
 19 25  2  0  0  0
 20 21  2  0  0  0
 21 22  1  0  0  0
 22 23  1  0  0  0
 22 24  2  0  0  0
 24 25  1  0  0  0
 25 26  1  0  0  0
  5  6  1  0  0  0
  6  7  2  0  0  0
  7  8  1  0  0  0
  8  9  2  0  0  0
  9 10  1  0  0  0
 10 27  1  0  0  0
 27 28  1  0  0  0
 28 29  1  0  0  0
 29 30  1  0  0  0
 30 31  1  0  0  0
 30 33  1  0  0  0
 31 32  2  0  0  0
 31 34  1  0  0  0
 34 35  1  0  0  0
 35 36  1  0  0  0
 36 37  1  0  0  0
M  END
> <minimizedAffinity>
-8.32985

$$$$
