CHEMBL498265


 39 42  0  0  0  0  0  0  0  0999 V2000
  -24.7792  -11.0035   -4.1743 C   0  0  0  0  0  0  0  0  0  0  0  0
  -24.9277  -11.1695   -5.5692 C   0  0  0  0  0  0  0  0  0  0  0  0
  -25.9700  -10.5371   -6.2715 C   0  0  0  0  0  0  0  0  0  0  0  0
  -26.8653   -9.7496   -5.5691 C   0  0  0  0  0  0  0  0  0  0  0  0
  -26.6943   -9.5842   -4.1877 C   0  0  0  0  0  0  0  0  0  0  0  0
  -25.6645  -10.1748   -3.4743 C   0  0  0  0  0  0  0  0  0  0  0  0
  -27.6972   -8.7849   -3.6553 N   0  0  0  0  0  0  0  0  0  0  0  0
  -28.5971   -8.3913   -4.6310 C   0  0  0  0  0  0  0  0  0  0  0  0
  -29.6551   -7.8158   -4.4609 O   0  0  0  0  0  0  0  0  0  0  0  0
  -28.0431   -8.9339   -5.9288 C   0  0  0  0  0  0  0  0  0  0  0  0
  -28.6097   -8.6177   -7.1162 C   0  0  0  0  0  0  0  0  0  0  0  0
  -27.8247   -8.5729   -2.6752 H   0  0  0  0  0  0  0  0  0  0  0  0
  -28.2797   -9.3887   -8.3361 C   0  0  0  0  0  0  0  0  0  0  0  0
  -28.9586  -10.5936   -8.5820 C   0  0  0  0  0  0  0  0  0  0  0  0
  -28.7331  -11.3113   -9.7540 C   0  0  0  0  0  0  0  0  0  0  0  0
  -27.8273  -10.8298  -10.7011 C   0  0  0  0  0  0  0  0  0  0  0  0
  -27.1409   -9.6378  -10.4599 C   0  0  0  0  0  0  0  0  0  0  0  0
  -27.3635   -8.9261   -9.2808 C   0  0  0  0  0  0  0  0  0  0  0  0
  -23.7340  -11.7146   -3.3859 C   0  0  0  0  0  0  0  0  0  0  0  0
  -23.7264  -11.7481   -2.1664 O   0  0  0  0  0  0  0  0  0  0  0  0
  -21.5378  -11.7563   -4.1759 C   0  0  0  0  0  0  0  0  0  0  0  0
  -22.8455  -12.3331   -4.2028 O   0  0  0  0  0  0  0  0  0  0  0  0
  -29.6420   -7.6946   -7.3314 N   0  0  0  0  0  0  0  0  0  0  0  0
  -30.3896   -7.8572   -6.6453 H   0  0  0  0  0  0  0  0  0  0  0  0
  -29.4258   -6.2768   -7.3150 C   0  0  0  0  0  0  0  0  0  0  0  0
  -28.3206   -5.6394   -7.8953 C   0  0  0  0  0  0  0  0  0  0  0  0
  -28.1218   -4.2470   -7.7765 C   0  0  0  0  0  0  0  0  0  0  0  0
  -29.0338   -3.4438   -7.0870 C   0  0  0  0  0  0  0  0  0  0  0  0
  -30.2007   -4.0657   -6.6163 C   0  0  0  0  0  0  0  0  0  0  0  0
  -30.3953   -5.4546   -6.7307 C   0  0  0  0  0  0  0  0  0  0  0  0
  -28.7368   -2.0918   -6.7464 N   0  0  0  0  0  0  0  0  0  0  0  0
  -28.0037   -1.1928   -7.5294 C   0  0  0  0  0  0  0  0  0  0  0  0
  -27.6570   -1.5188   -8.9586 C   0  0  0  0  0  0  0  0  0  0  0  0
  -27.7031   -0.0683   -7.1090 O   0  0  0  0  0  0  0  0  0  0  0  0
  -29.0665   -1.5746   -5.3954 C   0  0  0  0  0  0  0  0  0  0  0  0
  -28.1548   -1.9211   -4.2005 C   0  0  0  0  0  0  0  0  0  0  0  0
  -28.6985   -2.8741   -3.2023 N   0  0  0  0  0  0  0  0  0  0  0  0
  -30.1625   -2.8456   -3.1369 C   0  0  0  0  0  0  0  0  0  0  0  0
  -28.2573   -4.2259   -3.5759 C   0  0  0  0  0  0  0  0  0  0  0  0
 21 22  1  0  0  0
 22 19  1  0  0  0
 19 20  2  0  0  0
 19  1  1  0  0  0
  1  2  1  0  0  0
  1  6  2  0  0  0
  2  3  2  0  0  0
  3  4  1  0  0  0
  4  5  2  0  0  0
  4 10  1  0  0  0
  5  6  1  0  0  0
  5  7  1  0  0  0
  7  8  1  0  0  0
  7 12  1  0  0  0
  8  9  2  0  0  0
  8 10  1  0  0  0
 10 11  2  0  0  0
 11 23  1  0  0  0
 11 13  1  0  0  0
 23 25  1  0  0  0
 23 24  1  0  0  0
 25 26  1  0  0  0
 25 30  2  0  0  0
 26 27  2  0  0  0
 27 28  1  0  0  0
 28 31  1  0  0  0
 28 29  2  0  0  0
 31 35  1  0  0  0
 31 32  1  0  0  0
 35 36  1  0  0  0
 36 37  1  0  0  0
 37 38  1  0  0  0
 37 39  1  0  0  0
 32 33  1  0  0  0
 32 34  2  0  0  0
 29 30  1  0  0  0
 13 14  1  0  0  0
 13 18  2  0  0  0
 14 15  2  0  0  0
 15 16  1  0  0  0
 16 17  2  0  0  0
 17 18  1  0  0  0
M  END
> <minimizedAffinity>
-8.43799

$$$$
