CHEMBL3925826


 37 41  0  0  0  0  0  0  0  0999 V2000
  -22.1816   -0.3834  -14.1576 O   0  0  0  0  0  0  0  0  0  0  0  0
  -23.4103   -0.4800  -13.5042 C   0  0  0  0  0  0  0  0  0  0  0  0
  -23.5917   -0.1613  -12.1540 C   0  0  0  0  0  0  0  0  0  0  0  0
  -24.8378   -0.3590  -11.5125 C   0  0  0  0  0  0  0  0  0  0  0  0
  -25.8929   -0.9896  -12.2039 C   0  0  0  0  0  0  0  0  0  0  0  0
  -27.1999   -1.4989  -11.8863 C   0  0  0  0  0  0  0  0  0  0  0  0
  -27.7914   -2.0014  -12.9802 N   0  0  0  0  0  0  0  0  0  0  0  0
  -26.8730   -1.8608  -13.9518 N   0  0  0  0  0  0  0  0  0  0  0  0
  -25.6933   -1.2975  -13.5476 C   0  0  0  0  0  0  0  0  0  0  0  0
  -24.4756   -1.0520  -14.2269 C   0  0  0  0  0  0  0  0  0  0  0  0
  -27.1135   -2.1986  -14.8770 H   0  0  0  0  0  0  0  0  0  0  0  0
  -27.7941   -1.5363  -10.5692 C   0  0  0  0  0  0  0  0  0  0  0  0
  -27.3764   -2.3143   -9.5495 C   0  0  0  0  0  0  0  0  0  0  0  0
  -27.9488   -2.3567   -8.1857 C   0  0  0  0  0  0  0  0  0  0  0  0
  -27.7787   -1.3150   -7.2648 C   0  0  0  0  0  0  0  0  0  0  0  0
  -28.3877   -1.3601   -6.0042 C   0  0  0  0  0  0  0  0  0  0  0  0
  -29.1838   -2.4456   -5.6482 C   0  0  0  0  0  0  0  0  0  0  0  0
  -29.3662   -3.4899   -6.5520 C   0  0  0  0  0  0  0  0  0  0  0  0
  -28.7567   -3.4435   -7.8115 C   0  0  0  0  0  0  0  0  0  0  0  0
  -19.4942    2.0015  -15.1718 C   0  0  0  0  0  0  0  0  0  0  0  0
  -20.1236    3.2125  -14.8952 C   0  0  0  0  0  0  0  0  0  0  0  0
  -21.4285    3.2393  -14.3746 C   0  0  0  0  0  0  0  0  0  0  0  0
  -22.1386    2.0629  -14.1201 C   0  0  0  0  0  0  0  0  0  0  0  0
  -21.5377    0.8294  -14.3460 C   0  0  0  0  0  0  0  0  0  0  0  0
  -20.2234    0.8129  -14.8903 C   0  0  0  0  0  0  0  0  0  0  0  0
  -16.9457    1.6362  -15.1084 C   0  0  0  0  0  0  0  0  0  0  0  0
  -16.8145    1.3350  -13.9284 O   0  0  0  0  0  0  0  0  0  0  0  0
  -18.1791    1.9063  -15.7339 N   0  0  0  0  0  0  0  0  0  0  0  0
  -18.1447    2.0207  -16.7360 H   0  0  0  0  0  0  0  0  0  0  0  0
  -15.2481    2.8544  -16.6329 N   0  0  0  0  0  0  0  0  0  0  0  0
  -14.0995    2.5916  -17.2974 N   0  0  0  0  0  0  0  0  0  0  0  0
  -13.9711    1.2706  -17.2658 C   0  0  0  0  0  0  0  0  0  0  0  0
  -12.8518    0.6045  -17.9737 C   0  0  0  0  0  0  0  0  0  0  0  0
  -14.9937    0.6841  -16.4961 C   0  0  0  0  0  0  0  0  0  0  0  0
  -15.7825    1.7247  -16.0131 C   0  0  0  0  0  0  0  0  0  0  0  0
  -15.0572    5.1334  -17.7191 C   0  0  0  0  0  0  0  0  0  0  0  0
  -15.7063    4.2411  -16.6421 C   0  0  0  0  0  0  0  0  0  0  0  0
 36 37  1  0  0  0
 37 30  1  0  0  0
 30 31  1  0  0  0
 30 35  1  0  0  0
 31 32  2  0  0  0
 32 33  1  0  0  0
 32 34  1  0  0  0
 34 35  2  0  0  0
 35 26  1  0  0  0
 26 27  2  0  0  0
 26 28  1  0  0  0
 28 20  1  0  0  0
 28 29  1  0  0  0
 20 21  1  0  0  0
 20 25  2  0  0  0
 21 22  2  0  0  0
 22 23  1  0  0  0
 23 24  2  0  0  0
 24  1  1  0  0  0
 24 25  1  0  0  0
  1  2  1  0  0  0
  2  3  1  0  0  0
  2 10  2  0  0  0
  3  4  2  0  0  0
  4  5  1  0  0  0
  5  6  1  0  0  0
  5  9  2  0  0  0
  6 12  1  0  0  0
  6  7  2  0  0  0
 12 13  2  0  0  0
 13 14  1  0  0  0
 14 15  1  0  0  0
 14 19  2  0  0  0
 15 16  2  0  0  0
 16 17  1  0  0  0
 17 18  2  0  0  0
 18 19  1  0  0  0
  7  8  1  0  0  0
  8  9  1  0  0  0
  8 11  1  0  0  0
  9 10  1  0  0  0
M  END
> <minimizedAffinity>
-11.62210

$$$$
