CHEMBL3656083


 46 49  0  0  0  0  0  0  0  0999 V2000
  -29.0626   -3.6661   -6.9108 C   0  0  0  0  0  0  0  0  0  0  0  0
  -28.6288   -2.8200   -5.8963 C   0  0  0  0  0  0  0  0  0  0  0  0
  -27.8618   -1.7233   -6.2431 C   0  0  0  0  0  0  0  0  0  0  0  0
  -27.4618   -1.4467   -7.5043 N   0  0  0  0  0  0  0  0  0  0  0  0
  -27.8420   -2.3195   -8.4672 C   0  0  0  0  0  0  0  0  0  0  0  0
  -28.6264   -3.4414   -8.2129 C   0  0  0  0  0  0  0  0  0  0  0  0
  -27.3775   -1.9875   -9.8119 C   0  0  0  0  0  0  0  0  0  0  0  0
  -26.1223   -2.0793  -10.3904 C   0  0  0  0  0  0  0  0  0  0  0  0
  -26.1850   -1.6022  -11.7337 C   0  0  0  0  0  0  0  0  0  0  0  0
  -27.5121   -1.2555  -11.9385 C   0  0  0  0  0  0  0  0  0  0  0  0
  -28.2164   -1.5005  -10.7895 N   0  0  0  0  0  0  0  0  0  0  0  0
  -29.2091   -1.3498  -10.6519 H   0  0  0  0  0  0  0  0  0  0  0  0
  -25.1248   -1.4697  -12.7322 C   0  0  0  0  0  0  0  0  0  0  0  0
  -25.2793   -1.8003  -13.9046 O   0  0  0  0  0  0  0  0  0  0  0  0
  -23.9452   -0.9332  -12.2618 N   0  0  0  0  0  0  0  0  0  0  0  0
  -23.8696   -0.6550  -11.2931 H   0  0  0  0  0  0  0  0  0  0  0  0
  -22.8043   -0.7003  -13.1176 C   0  0  0  0  0  0  0  0  0  0  0  0
  -22.6824    0.7652  -13.5431 C   0  0  0  0  0  0  0  0  0  0  0  0
  -21.5101    1.0420  -14.4832 C   0  0  0  0  0  0  0  0  0  0  0  0
  -21.1428    2.5063  -14.5093 C   0  0  0  0  0  0  0  0  0  0  0  0
  -21.9003    3.3886  -14.1088 O   0  0  0  0  0  0  0  0  0  0  0  0
  -19.8770    2.7721  -14.9596 N   0  0  0  0  0  0  0  0  0  0  0  0
  -19.4992    4.1305  -15.0248 O   0  0  0  0  0  0  0  0  0  0  0  0
  -19.2544    2.0974  -15.3902 H   0  0  0  0  0  0  0  0  0  0  0  0
  -20.2881    4.5888  -14.6605 H   0  0  0  0  0  0  0  0  0  0  0  0
  -29.8819   -4.7588   -6.7062 O   0  0  0  0  0  0  0  0  0  0  0  0
  -28.2357   -8.3664   -5.3357 C   0  0  0  0  0  0  0  0  0  0  0  0
  -28.6171   -7.3874   -4.4124 C   0  0  0  0  0  0  0  0  0  0  0  0
  -29.1975   -6.1906   -4.8385 C   0  0  0  0  0  0  0  0  0  0  0  0
  -29.3420   -5.9255   -6.2013 C   0  0  0  0  0  0  0  0  0  0  0  0
  -28.9738   -6.9067   -7.1283 C   0  0  0  0  0  0  0  0  0  0  0  0
  -28.3993   -8.1171   -6.7007 C   0  0  0  0  0  0  0  0  0  0  0  0
  -26.0231  -11.0147   -4.1817 N   0  0  0  0  0  0  0  0  0  0  0  0
  -26.4039   -9.7320   -4.5511 C   0  0  0  0  0  0  0  0  0  0  0  0
  -25.6781   -8.7538   -4.5461 O   0  0  0  0  0  0  0  0  0  0  0  0
  -27.7623   -9.6291   -4.8741 N   0  0  0  0  0  0  0  0  0  0  0  0
  -26.7506  -11.6934   -4.0457 H   0  0  0  0  0  0  0  0  0  0  0  0
  -28.3734  -10.1231   -4.2411 H   0  0  0  0  0  0  0  0  0  0  0  0
  -21.3237  -11.9228   -5.5506 C   0  0  0  0  0  0  0  0  0  0  0  0
  -22.3827  -11.8442   -4.4841 C   0  0  0  0  0  0  0  0  0  0  0  0
  -22.0539  -12.1917   -3.1707 C   0  0  0  0  0  0  0  0  0  0  0  0
  -23.0127  -12.1057   -2.1711 C   0  0  0  0  0  0  0  0  0  0  0  0
  -24.3065  -11.6876   -2.4762 C   0  0  0  0  0  0  0  0  0  0  0  0
  -25.1191  -11.5110   -1.4272 F   0  0  0  0  0  0  0  0  0  0  0  0
  -24.6957  -11.3812   -3.7910 C   0  0  0  0  0  0  0  0  0  0  0  0
  -23.7020  -11.4359   -4.7884 C   0  0  0  0  0  0  0  0  0  0  0  0
 39 40  1  0  0  0
 40 41  1  0  0  0
 40 46  2  0  0  0
 41 42  2  0  0  0
 42 43  1  0  0  0
 43 44  1  0  0  0
 43 45  2  0  0  0
 45 33  1  0  0  0
 45 46  1  0  0  0
 33 34  1  0  0  0
 33 37  1  0  0  0
 34 35  2  0  0  0
 34 36  1  0  0  0
 36 27  1  0  0  0
 36 38  1  0  0  0
 27 28  1  0  0  0
 27 32  2  0  0  0
 28 29  2  0  0  0
 29 30  1  0  0  0
 30 26  1  0  0  0
 30 31  2  0  0  0
 26  1  1  0  0  0
  1  2  1  0  0  0
  1  6  2  0  0  0
  2  3  2  0  0  0
  3  4  1  0  0  0
  4  5  2  0  0  0
  5  7  1  0  0  0
  5  6  1  0  0  0
  7  8  2  0  0  0
  7 11  1  0  0  0
  8  9  1  0  0  0
  9 13  1  0  0  0
  9 10  2  0  0  0
 13 14  2  0  0  0
 13 15  1  0  0  0
 15 17  1  0  0  0
 15 16  1  0  0  0
 17 18  1  0  0  0
 18 19  1  0  0  0
 19 20  1  0  0  0
 20 21  2  0  0  0
 20 22  1  0  0  0
 22 23  1  0  0  0
 22 24  1  0  0  0
 23 25  1  0  0  0
 10 11  1  0  0  0
 11 12  1  0  0  0
 31 32  1  0  0  0
M  END
> <minimizedAffinity>
-10.35052

$$$$
