CHEMBL3956824


 40 45  0  0  0  0  0  0  0  0999 V2000
  -14.0471    3.7466  -16.1569 O   0  0  0  0  0  0  0  0  0  0  0  0
  -14.7313    2.8039  -16.5582 C   0  0  0  0  0  0  0  0  0  0  0  0
  -15.9601    2.4221  -15.7939 C   0  0  0  0  0  0  0  0  0  0  0  0
  -15.9786    1.5563  -14.6867 C   0  0  0  0  0  0  0  0  0  0  0  0
  -17.1873    1.2011  -14.0411 C   0  0  0  0  0  0  0  0  0  0  0  0
  -18.3466    1.9152  -14.3992 C   0  0  0  0  0  0  0  0  0  0  0  0
  -19.7624    1.9477  -14.1073 C   0  0  0  0  0  0  0  0  0  0  0  0
  -20.1230    3.2384  -14.1379 N   0  0  0  0  0  0  0  0  0  0  0  0
  -19.3350    3.7028  -15.1111 N   0  0  0  0  0  0  0  0  0  0  0  0
  -18.2233    2.9275  -15.3136 C   0  0  0  0  0  0  0  0  0  0  0  0
  -17.1299    3.1030  -16.1547 C   0  0  0  0  0  0  0  0  0  0  0  0
  -19.5438    4.5987  -15.5352 H   0  0  0  0  0  0  0  0  0  0  0  0
  -20.8060    1.0618  -14.6219 C   0  0  0  0  0  0  0  0  0  0  0  0
  -22.0813    1.1182  -14.1717 C   0  0  0  0  0  0  0  0  0  0  0  0
  -22.8009   -0.0672  -13.6533 C   0  0  0  0  0  0  0  0  0  0  0  0
  -22.5713   -0.5295  -12.3402 C   0  0  0  0  0  0  0  0  0  0  0  0
  -23.4302   -1.4508  -11.7361 C   0  0  0  0  0  0  0  0  0  0  0  0
  -24.5352   -1.9306  -12.4307 C   0  0  0  0  0  0  0  0  0  0  0  0
  -24.7651   -1.5000  -13.7382 C   0  0  0  0  0  0  0  0  0  0  0  0
  -23.9107   -0.5671  -14.3402 C   0  0  0  0  0  0  0  0  0  0  0  0
  -14.2465    2.0651  -17.7460 C   0  0  0  0  0  0  0  0  0  0  0  0
  -13.4980    2.7858  -18.6818 C   0  0  0  0  0  0  0  0  0  0  0  0
  -12.9751    2.1379  -19.7984 C   0  0  0  0  0  0  0  0  0  0  0  0
  -13.1786    0.7693  -19.9605 C   0  0  0  0  0  0  0  0  0  0  0  0
  -13.9306    0.0353  -19.0373 C   0  0  0  0  0  0  0  0  0  0  0  0
  -14.5144    0.7061  -17.9542 C   0  0  0  0  0  0  0  0  0  0  0  0
  -14.1132   -1.3628  -19.1310 N   0  0  0  0  0  0  0  0  0  0  0  0
  -13.1143   -2.3275  -19.0444 C   0  0  0  0  0  0  0  0  0  0  0  0
  -11.9205   -2.1220  -18.8531 O   0  0  0  0  0  0  0  0  0  0  0  0
  -15.0692   -1.6964  -19.1108 H   0  0  0  0  0  0  0  0  0  0  0  0
  -13.5791   -3.7300  -19.0746 C   0  0  0  0  0  0  0  0  0  0  0  0
  -14.0096   -4.2903  -20.2910 C   0  0  0  0  0  0  0  0  0  0  0  0
  -14.3364   -5.6442  -20.3806 C   0  0  0  0  0  0  0  0  0  0  0  0
  -14.1368   -6.5002  -19.2942 C   0  0  0  0  0  0  0  0  0  0  0  0
  -13.7595   -5.9096  -18.0838 C   0  0  0  0  0  0  0  0  0  0  0  0
  -13.4219   -6.4584  -16.8686 N   0  0  0  0  0  0  0  0  0  0  0  0
  -13.6513   -5.5263  -15.8922 C   0  0  0  0  0  0  0  0  0  0  0  0
  -13.5865   -4.2995  -16.5127 C   0  0  0  0  0  0  0  0  0  0  0  0
  -13.6008   -4.5327  -17.9202 C   0  0  0  0  0  0  0  0  0  0  0  0
  -13.0749   -7.3964  -16.7240 H   0  0  0  0  0  0  0  0  0  0  0  0
  1  2  2  0  0  0
  2 21  1  0  0  0
  2  3  1  0  0  0
 21 22  1  0  0  0
 21 26  2  0  0  0
 22 23  2  0  0  0
 23 24  1  0  0  0
 24 25  2  0  0  0
 25 27  1  0  0  0
 25 26  1  0  0  0
 27 28  1  0  0  0
 27 30  1  0  0  0
 28 29  2  0  0  0
 28 31  1  0  0  0
 31 32  1  0  0  0
 31 39  2  0  0  0
 32 33  2  0  0  0
 33 34  1  0  0  0
 34 35  2  0  0  0
 35 36  1  0  0  0
 35 39  1  0  0  0
 36 37  1  0  0  0
 36 40  1  0  0  0
 37 38  2  0  0  0
 38 39  1  0  0  0
  3  4  1  0  0  0
  3 11  2  0  0  0
  4  5  2  0  0  0
  5  6  1  0  0  0
  6  7  1  0  0  0
  6 10  2  0  0  0
  7 13  1  0  0  0
  7  8  2  0  0  0
 13 14  2  0  0  0
 14 15  1  0  0  0
 15 16  1  0  0  0
 15 20  2  0  0  0
 16 17  2  0  0  0
 17 18  1  0  0  0
 18 19  2  0  0  0
 19 20  1  0  0  0
  8  9  1  0  0  0
  9 10  1  0  0  0
  9 12  1  0  0  0
 10 11  1  0  0  0
M  END
> <minimizedAffinity>
-11.18292

$$$$
