CHEMBL115480


 31 35  0  0  0  0  0  0  0  0999 V2000
  -21.5487    3.7888  -14.0273 O   0  0  0  0  0  0  0  0  0  0  0  0
  -20.7439    2.9174  -14.3925 C   0  0  0  0  0  0  0  0  0  0  0  0
  -19.3811    3.3125  -14.8183 C   0  0  0  0  0  0  0  0  0  0  0  0
  -18.4627    2.4123  -15.2287 C   0  0  0  0  0  0  0  0  0  0  0  0
  -18.8699    1.0085  -15.2325 C   0  0  0  0  0  0  0  0  0  0  0  0
  -20.0864    0.6371  -14.8624 C   0  0  0  0  0  0  0  0  0  0  0  0
  -21.0358    1.5593  -14.4639 N   0  0  0  0  0  0  0  0  0  0  0  0
  -17.1485    2.8533  -15.6978 C   0  0  0  0  0  0  0  0  0  0  0  0
  -16.0162    1.8654  -15.9216 C   0  0  0  0  0  0  0  0  0  0  0  0
  -14.7539    2.1529  -16.1012 N   0  0  0  0  0  0  0  0  0  0  0  0
  -14.4940    3.4957  -16.3066 C   0  0  0  0  0  0  0  0  0  0  0  0
  -13.4523    4.1764  -16.9622 C   0  0  0  0  0  0  0  0  0  0  0  0
  -14.1468    4.1822  -18.2183 C   0  0  0  0  0  0  0  0  0  0  0  0
  -15.4124    4.5986  -18.0177 N   0  0  0  0  0  0  0  0  0  0  0  0
  -15.5942    4.2962  -16.6879 N   0  0  0  0  0  0  0  0  0  0  0  0
  -16.8286    4.0967  -16.0989 C   0  0  0  0  0  0  0  0  0  0  0  0
  -12.9644    5.5383  -16.5216 C   0  0  0  0  0  0  0  0  0  0  0  0
  -12.7048    6.5985  -17.4053 C   0  0  0  0  0  0  0  0  0  0  0  0
  -11.9840    7.7218  -16.9631 C   0  0  0  0  0  0  0  0  0  0  0  0
  -11.5225    7.8020  -15.6461 C   0  0  0  0  0  0  0  0  0  0  0  0
  -11.8237    6.7882  -14.7482 C   0  0  0  0  0  0  0  0  0  0  0  0
  -12.5617    5.6860  -15.1784 C   0  0  0  0  0  0  0  0  0  0  0  0
  -22.3970    1.0973  -14.1595 C   0  0  0  0  0  0  0  0  0  0  0  0
  -22.4473   -0.3588  -13.7007 C   0  0  0  0  0  0  0  0  0  0  0  0
  -23.2855   -0.6122  -12.4376 C   0  0  0  0  0  0  0  0  0  0  0  0
  -24.7430   -0.6877  -12.6609 N   0  0  0  0  0  0  0  0  0  0  0  0
  -25.0838   -1.5783  -13.7828 C   0  0  0  0  0  0  0  0  0  0  0  0
  -26.5932   -1.6218  -14.0230 C   0  0  0  0  0  0  0  0  0  0  0  0
  -27.3408   -2.0467  -12.7674 C   0  0  0  0  0  0  0  0  0  0  0  0
  -26.9364   -1.1627  -11.5948 C   0  0  0  0  0  0  0  0  0  0  0  0
  -25.4163   -1.1291  -11.4249 C   0  0  0  0  0  0  0  0  0  0  0  0
  1  2  2  0  0  0
  2  3  1  0  0  0
  2  7  1  0  0  0
  3  4  2  0  0  0
  4  8  1  0  0  0
  4  5  1  0  0  0
  8  9  1  0  0  0
  8 16  2  0  0  0
  9 10  2  0  0  0
 10 11  1  0  0  0
 11 12  2  0  0  0
 11 15  1  0  0  0
 12 17  1  0  0  0
 12 13  1  0  0  0
 17 18  1  0  0  0
 17 22  2  0  0  0
 18 19  2  0  0  0
 19 20  1  0  0  0
 20 21  2  0  0  0
 21 22  1  0  0  0
 13 14  2  0  0  0
 14 15  1  0  0  0
 15 16  1  0  0  0
  5  6  2  0  0  0
  6  7  1  0  0  0
  7 23  1  0  0  0
 23 24  1  0  0  0
 24 25  1  0  0  0
 25 26  1  0  0  0
 26 27  1  0  0  0
 26 31  1  0  0  0
 27 28  1  0  0  0
 28 29  1  0  0  0
 29 30  1  0  0  0
 30 31  1  0  0  0
M  END
> <minimizedAffinity>
-9.81263

$$$$
