CHEMBL3099466


 43 46  0  0  0  0  0  0  0  0999 V2000
  -28.2800   -1.9192   -9.5778 N   0  0  0  0  0  0  0  0  0  0  0  0
  -27.0704   -1.8066  -10.2523 C   0  0  0  0  0  0  0  0  0  0  0  0
  -26.0071   -2.2827   -9.8743 O   0  0  0  0  0  0  0  0  0  0  0  0
  -27.1761   -1.0329  -11.4003 N   0  0  0  0  0  0  0  0  0  0  0  0
  -29.0626   -1.3933   -9.9346 H   0  0  0  0  0  0  0  0  0  0  0  0
  -27.8067   -0.2525  -11.3172 H   0  0  0  0  0  0  0  0  0  0  0  0
  -26.0310   -0.8370  -12.2179 C   0  0  0  0  0  0  0  0  0  0  0  0
  -24.9444   -0.1037  -11.7215 C   0  0  0  0  0  0  0  0  0  0  0  0
  -23.8321    0.1598  -12.5177 C   0  0  0  0  0  0  0  0  0  0  0  0
  -23.7815   -0.3145  -13.8285 C   0  0  0  0  0  0  0  0  0  0  0  0
  -24.8638   -1.0472  -14.3271 C   0  0  0  0  0  0  0  0  0  0  0  0
  -25.9937   -1.3289  -13.5309 C   0  0  0  0  0  0  0  0  0  0  0  0
  -27.1760   -2.0172  -14.1504 C   0  0  0  0  0  0  0  0  0  0  0  0
  -22.7578   -0.0711  -14.7112 O   0  0  0  0  0  0  0  0  0  0  0  0
  -21.5208    0.3145  -14.0960 C   0  0  0  0  0  0  0  0  0  0  0  0
  -21.1657    1.7651  -14.4710 C   0  0  0  0  0  0  0  0  0  0  0  0
  -19.7074    2.0092  -14.5592 N   0  0  0  0  0  0  0  0  0  0  0  0
  -18.9822    0.8267  -15.0518 C   0  0  0  0  0  0  0  0  0  0  0  0
  -17.4746    1.0705  -15.1140 C   0  0  0  0  0  0  0  0  0  0  0  0
  -17.1472    2.2817  -15.9734 C   0  0  0  0  0  0  0  0  0  0  0  0
  -17.9414    3.4910  -15.4963 C   0  0  0  0  0  0  0  0  0  0  0  0
  -19.4386    3.1802  -15.4123 C   0  0  0  0  0  0  0  0  0  0  0  0
  -29.0593   -4.6469   -7.1009 C   0  0  0  0  0  0  0  0  0  0  0  0
  -29.0272   -3.8572   -8.2694 C   0  0  0  0  0  0  0  0  0  0  0  0
  -28.4504   -2.5924   -8.3430 C   0  0  0  0  0  0  0  0  0  0  0  0
  -28.0025   -2.0082   -7.1652 C   0  0  0  0  0  0  0  0  0  0  0  0
  -28.0733   -2.7186   -5.9540 C   0  0  0  0  0  0  0  0  0  0  0  0
  -28.5800   -4.0458   -5.9132 C   0  0  0  0  0  0  0  0  0  0  0  0
  -29.3669   -8.2856   -8.2792 C   0  0  0  0  0  0  0  0  0  0  0  0
  -28.8707   -7.0054   -7.9960 C   0  0  0  0  0  0  0  0  0  0  0  0
  -29.5930   -6.0399   -7.2435 C   0  0  0  0  0  0  0  0  0  0  0  0
  -30.8369   -6.4397   -6.7431 C   0  0  0  0  0  0  0  0  0  0  0  0
  -31.3191   -7.7394   -6.9585 C   0  0  0  0  0  0  0  0  0  0  0  0
  -30.5878   -8.6675   -7.7164 C   0  0  0  0  0  0  0  0  0  0  0  0
  -31.1614  -10.0369   -7.8600 C   0  0  0  0  0  0  0  0  0  0  0  0
  -30.4836  -11.2080   -7.1906 C   0  0  0  0  0  0  0  0  0  0  0  0
  -32.2188  -10.1882   -8.4720 O   0  0  0  0  0  0  0  0  0  0  0  0
  -27.3628   -9.0698   -9.3167 C   0  0  0  0  0  0  0  0  0  0  0  0
  -28.7758   -9.1489   -9.1620 O   0  0  0  0  0  0  0  0  0  0  0  0
  -27.5211   -2.1768   -4.8174 O   0  0  0  0  0  0  0  0  0  0  0  0
  -27.8485   -0.8068   -4.5940 C   0  0  0  0  0  0  0  0  0  0  0  0
  -28.5861   -4.8372   -4.7879 O   0  0  0  0  0  0  0  0  0  0  0  0
  -29.6358   -4.6357   -3.8475 C   0  0  0  0  0  0  0  0  0  0  0  0
 38 39  1  0  0  0
 39 29  1  0  0  0
 29 30  1  0  0  0
 29 34  2  0  0  0
 30 31  2  0  0  0
 31 23  1  0  0  0
 31 32  1  0  0  0
 23 24  1  0  0  0
 23 28  2  0  0  0
 24 25  2  0  0  0
 25  1  1  0  0  0
 25 26  1  0  0  0
  1  2  1  0  0  0
  1  5  1  0  0  0
  2  3  2  0  0  0
  2  4  1  0  0  0
  4  7  1  0  0  0
  4  6  1  0  0  0
  7  8  1  0  0  0
  7 12  2  0  0  0
  8  9  2  0  0  0
  9 10  1  0  0  0
 10 14  1  0  0  0
 10 11  2  0  0  0
 14 15  1  0  0  0
 15 16  1  0  0  0
 16 17  1  0  0  0
 17 18  1  0  0  0
 17 22  1  0  0  0
 18 19  1  0  0  0
 19 20  1  0  0  0
 20 21  1  0  0  0
 21 22  1  0  0  0
 11 12  1  0  0  0
 12 13  1  0  0  0
 26 27  2  0  0  0
 27 40  1  0  0  0
 27 28  1  0  0  0
 40 41  1  0  0  0
 28 42  1  0  0  0
 42 43  1  0  0  0
 32 33  2  0  0  0
 33 34  1  0  0  0
 34 35  1  0  0  0
 35 36  1  0  0  0
 35 37  2  0  0  0
M  END
> <minimizedAffinity>
-10.57270

$$$$
