CHEMBL2407900


 39 44  0  0  0  0  0  0  0  0999 V2000
  -15.4628    3.7572  -17.4542 C   0  0  0  0  0  0  0  0  0  0  0  0
  -14.6942    2.5870  -17.4354 C   0  0  0  0  0  0  0  0  0  0  0  0
  -14.9765    1.5512  -16.5347 C   0  0  0  0  0  0  0  0  0  0  0  0
  -16.0590    1.6967  -15.6419 C   0  0  0  0  0  0  0  0  0  0  0  0
  -16.6985    0.8930  -14.6452 C   0  0  0  0  0  0  0  0  0  0  0  0
  -17.7200    1.5486  -14.0761 N   0  0  0  0  0  0  0  0  0  0  0  0
  -17.7268    2.7401  -14.6862 N   0  0  0  0  0  0  0  0  0  0  0  0
  -16.7773    2.8871  -15.6578 C   0  0  0  0  0  0  0  0  0  0  0  0
  -16.5073    3.9417  -16.5378 C   0  0  0  0  0  0  0  0  0  0  0  0
  -18.4306    3.4158  -14.4047 H   0  0  0  0  0  0  0  0  0  0  0  0
  -11.9907    6.1381  -15.3822 C   0  0  0  0  0  0  0  0  0  0  0  0
  -11.4972    7.4036  -15.7525 C   0  0  0  0  0  0  0  0  0  0  0  0
  -11.9100    8.0201  -16.9374 C   0  0  0  0  0  0  0  0  0  0  0  0
  -12.8336    7.3484  -17.7095 C   0  0  0  0  0  0  0  0  0  0  0  0
  -13.3778    6.1160  -17.3302 C   0  0  0  0  0  0  0  0  0  0  0  0
  -12.9560    5.4980  -16.1654 C   0  0  0  0  0  0  0  0  0  0  0  0
  -14.3276    5.7534  -18.3874 C   0  0  0  0  0  0  0  0  0  0  0  0
  -15.2110    4.7487  -18.5004 C   0  0  0  0  0  0  0  0  0  0  0  0
  -14.2508    6.8281  -19.4393 C   0  0  0  0  0  0  0  0  0  0  0  0
  -14.8618    6.8825  -20.4887 O   0  0  0  0  0  0  0  0  0  0  0  0
  -13.3497    7.7542  -18.9381 N   0  0  0  0  0  0  0  0  0  0  0  0
  -13.1077    8.6010  -19.4297 H   0  0  0  0  0  0  0  0  0  0  0  0
  -11.2820    4.2186  -14.2050 C   0  0  0  0  0  0  0  0  0  0  0  0
  -11.4851    5.6305  -14.2143 O   0  0  0  0  0  0  0  0  0  0  0  0
  -16.3150   -0.4444  -14.2983 C   0  0  0  0  0  0  0  0  0  0  0  0
  -15.2996   -0.7665  -13.4776 C   0  0  0  0  0  0  0  0  0  0  0  0
  -14.9188   -2.1454  -13.1526 C   0  0  0  0  0  0  0  0  0  0  0  0
  -15.8606   -3.1222  -12.8505 C   0  0  0  0  0  0  0  0  0  0  0  0
  -15.4391   -4.4096  -12.5496 C   0  0  0  0  0  0  0  0  0  0  0  0
  -14.0830   -4.7373  -12.5689 C   0  0  0  0  0  0  0  0  0  0  0  0
  -13.1573   -3.8242  -12.9207 N   0  0  0  0  0  0  0  0  0  0  0  0
  -13.5888   -2.5620  -13.1934 C   0  0  0  0  0  0  0  0  0  0  0  0
  -13.7372   -6.0455  -12.2933 N   0  0  0  0  0  0  0  0  0  0  0  0
  -12.9404   -6.3605  -11.1074 C   0  0  0  0  0  0  0  0  0  0  0  0
  -12.1871   -7.6890  -11.4032 C   0  0  0  0  0  0  0  0  0  0  0  0
  -13.0910   -8.8092  -11.7831 N   0  0  0  0  0  0  0  0  0  0  0  0
  -12.3174   -9.9859  -12.1730 C   0  0  0  0  0  0  0  0  0  0  0  0
  -13.9726   -8.3920  -12.8999 C   0  0  0  0  0  0  0  0  0  0  0  0
  -14.7305   -7.0825  -12.5993 C   0  0  0  0  0  0  0  0  0  0  0  0
 23 24  1  0  0  0
 24 11  1  0  0  0
 11 12  1  0  0  0
 11 16  2  0  0  0
 12 13  2  0  0  0
 13 14  1  0  0  0
 14 15  2  0  0  0
 14 21  1  0  0  0
 15 16  1  0  0  0
 15 17  1  0  0  0
 17 18  2  0  0  0
 17 19  1  0  0  0
 18  1  1  0  0  0
  1  2  1  0  0  0
  1  9  2  0  0  0
  2  3  2  0  0  0
  3  4  1  0  0  0
  4  5  1  0  0  0
  4  8  2  0  0  0
  5 25  1  0  0  0
  5  6  2  0  0  0
 25 26  2  0  0  0
 26 27  1  0  0  0
 27 28  1  0  0  0
 27 32  2  0  0  0
 28 29  2  0  0  0
 29 30  1  0  0  0
 30 33  1  0  0  0
 30 31  2  0  0  0
 33 34  1  0  0  0
 33 39  1  0  0  0
 34 35  1  0  0  0
 35 36  1  0  0  0
 36 37  1  0  0  0
 36 38  1  0  0  0
 38 39  1  0  0  0
 31 32  1  0  0  0
  6  7  1  0  0  0
  7  8  1  0  0  0
  7 10  1  0  0  0
  8  9  1  0  0  0
 19 20  2  0  0  0
 19 21  1  0  0  0
 21 22  1  0  0  0
M  END
> <minimizedAffinity>
-8.54046

$$$$
