CHEMBL3933442


 32 35  0  0  0  0  0  0  0  0999 V2000
  -28.0787  -10.1933   -5.7953 N   0  0  0  0  0  0  0  0  0  0  0  0
  -28.4630   -8.7995   -6.1111 C   0  0  0  0  0  0  0  0  0  0  0  0
  -28.7786   -8.6485   -7.4513 C   0  0  0  0  0  0  0  0  0  0  0  0
  -28.9003   -7.4477   -8.0231 C   0  0  0  0  0  0  0  0  0  0  0  0
  -28.7527   -6.2984   -7.3151 C   0  0  0  0  0  0  0  0  0  0  0  0
  -28.7187   -5.2195   -8.0769 N   0  0  0  0  0  0  0  0  0  0  0  0
  -28.6255   -4.0051   -7.5942 C   0  0  0  0  0  0  0  0  0  0  0  0
  -28.6759   -3.7420   -6.2300 C   0  0  0  0  0  0  0  0  0  0  0  0
  -28.5885   -4.8890   -5.3721 N   0  0  0  0  0  0  0  0  0  0  0  0
  -28.5870   -6.2143   -5.9211 C   0  0  0  0  0  0  0  0  0  0  0  0
  -28.4306   -7.5524   -5.2640 C   0  0  0  0  0  0  0  0  0  0  0  0
  -28.8741   -2.1638   -6.0224 C   0  0  0  0  0  0  0  0  0  0  0  0
  -27.9023   -1.2844   -6.5710 C   0  0  0  0  0  0  0  0  0  0  0  0
  -28.2011   -0.0144   -6.3550 N   0  0  0  0  0  0  0  0  0  0  0  0
  -29.3341    0.0388   -5.7046 N   0  0  0  0  0  0  0  0  0  0  0  0
  -29.8778    1.3655   -5.3895 C   0  0  0  0  0  0  0  0  0  0  0  0
  -29.8079   -1.2398   -5.4746 C   0  0  0  0  0  0  0  0  0  0  0  0
  -24.5476  -10.6878   -4.5116 C   0  0  0  0  0  0  0  0  0  0  0  0
  -24.8003  -11.4128   -3.3344 C   0  0  0  0  0  0  0  0  0  0  0  0
  -26.1096  -11.7393   -2.9798 C   0  0  0  0  0  0  0  0  0  0  0  0
  -27.1901  -11.3154   -3.7689 C   0  0  0  0  0  0  0  0  0  0  0  0
  -26.9743  -10.5804   -4.9506 C   0  0  0  0  0  0  0  0  0  0  0  0
  -25.6316  -10.3085   -5.3258 C   0  0  0  0  0  0  0  0  0  0  0  0
  -22.8918   -9.9978   -6.1648 C   0  0  0  0  0  0  0  0  0  0  0  0
  -23.2879  -10.3217   -4.8788 O   0  0  0  0  0  0  0  0  0  0  0  0
  -28.9999  -11.2833   -6.2861 C   0  0  0  0  0  0  0  0  0  0  0  0
  -28.4256  -12.2492   -7.3973 C   0  0  0  0  0  0  0  0  0  0  0  0
  -29.0384  -11.9976   -8.7366 N   0  0  0  0  0  0  0  0  0  0  0  0
  -29.6175  -11.1292   -8.6706 H   0  0  0  0  0  0  0  0  0  0  0  0
  -28.0616  -11.7890   -9.8474 C   0  0  0  0  0  0  0  0  0  0  0  0
  -28.5998  -10.8545  -10.9431 C   0  0  0  0  0  0  0  0  0  0  0  0
  -26.7371  -11.1791   -9.3240 C   0  0  0  0  0  0  0  0  0  0  0  0
 24 25  1  0  0  0
 25 18  1  0  0  0
 18 19  1  0  0  0
 18 23  2  0  0  0
 19 20  2  0  0  0
 20 21  1  0  0  0
 21 22  2  0  0  0
 22  1  1  0  0  0
 22 23  1  0  0  0
  1 26  1  0  0  0
  1  2  1  0  0  0
 26 27  1  0  0  0
 27 28  1  0  0  0
 28 30  1  0  0  0
 28 29  1  0  0  0
 30 31  1  0  0  0
 30 32  1  0  0  0
  2  3  1  0  0  0
  2 11  2  0  0  0
  3  4  2  0  0  0
  4  5  1  0  0  0
  5  6  1  0  0  0
  5 10  2  0  0  0
  6  7  2  0  0  0
  7  8  1  0  0  0
  8 12  1  0  0  0
  8  9  2  0  0  0
 12 13  1  0  0  0
 12 17  2  0  0  0
 13 14  2  0  0  0
 14 15  1  0  0  0
 15 16  1  0  0  0
 15 17  1  0  0  0
  9 10  1  0  0  0
 10 11  1  0  0  0
M  END
> <minimizedAffinity>
-6.93986

$$$$
