CHEMBL3939717


 32 35  0  0  0  0  0  0  0  0999 V2000
  -27.4987   -9.4551   -4.6532 C   0  0  0  0  0  0  0  0  0  0  0  0
  -28.3259   -8.3491   -4.8812 C   0  0  0  0  0  0  0  0  0  0  0  0
  -29.3508   -8.3944   -5.8563 C   0  0  0  0  0  0  0  0  0  0  0  0
  -30.2648   -7.3685   -6.1312 C   0  0  0  0  0  0  0  0  0  0  0  0
  -31.2504   -7.5106   -7.0410 N   0  0  0  0  0  0  0  0  0  0  0  0
  -31.3267   -8.6781   -7.6769 C   0  0  0  0  0  0  0  0  0  0  0  0
  -30.5052   -9.7110   -7.5016 N   0  0  0  0  0  0  0  0  0  0  0  0
  -29.5336   -9.5555   -6.6008 C   0  0  0  0  0  0  0  0  0  0  0  0
  -28.6673  -10.6115   -6.4160 C   0  0  0  0  0  0  0  0  0  0  0  0
  -27.6061  -10.5685   -5.4985 C   0  0  0  0  0  0  0  0  0  0  0  0
  -25.3591   -8.7747   -3.8978 C   0  0  0  0  0  0  0  0  0  0  0  0
  -26.5772   -9.4851   -3.6383 O   0  0  0  0  0  0  0  0  0  0  0  0
  -30.1840   -6.1415   -5.4171 N   0  0  0  0  0  0  0  0  0  0  0  0
  -29.7845   -6.3118   -4.4998 H   0  0  0  0  0  0  0  0  0  0  0  0
  -29.7275   -4.9478   -6.0165 C   0  0  0  0  0  0  0  0  0  0  0  0
  -29.0481   -4.9945   -7.2426 C   0  0  0  0  0  0  0  0  0  0  0  0
  -28.4734   -3.8475   -7.7909 C   0  0  0  0  0  0  0  0  0  0  0  0
  -28.5862   -2.6317   -7.1223 C   0  0  0  0  0  0  0  0  0  0  0  0
  -27.7953   -1.2630   -7.8164 Cl  0  0  0  0  0  0  0  0  0  0  0  0
  -29.3070   -2.5604   -5.9235 C   0  0  0  0  0  0  0  0  0  0  0  0
  -29.4956   -1.0813   -5.0482 Cl  0  0  0  0  0  0  0  0  0  0  0  0
  -29.8839   -3.7150   -5.3771 C   0  0  0  0  0  0  0  0  0  0  0  0
  -26.6692  -11.5828   -5.4013 O   0  0  0  0  0  0  0  0  0  0  0  0
  -25.7136  -11.5797   -6.4833 C   0  0  0  0  0  0  0  0  0  0  0  0
  -24.2715  -11.5131   -6.0966 C   0  0  0  0  0  0  0  0  0  0  0  0
  -23.6407  -12.0779   -5.0078 C   0  0  0  0  0  0  0  0  0  0  0  0
  -21.9682  -11.6999   -5.0343 S   0  0  0  0  0  0  0  0  0  0  0  0
  -22.1986  -10.8081   -6.4822 C   0  0  0  0  0  0  0  0  0  0  0  0
  -23.4341  -10.7822   -6.9381 N   0  0  0  0  0  0  0  0  0  0  0  0
  -21.0441  -10.1444   -7.1699 C   0  0  0  0  0  0  0  0  0  0  0  0
  -21.2740   -8.7316   -7.1865 O   0  0  0  0  0  0  0  0  0  0  0  0
  -22.2405   -8.6212   -7.2786 H   0  0  0  0  0  0  0  0  0  0  0  0
 11 12  1  0  0  0
 12  1  1  0  0  0
  1  2  1  0  0  0
  1 10  2  0  0  0
  2  3  2  0  0  0
  3  4  1  0  0  0
  3  8  1  0  0  0
  4 13  1  0  0  0
  4  5  2  0  0  0
 13 15  1  0  0  0
 13 14  1  0  0  0
 15 16  1  0  0  0
 15 22  2  0  0  0
 16 17  2  0  0  0
 17 18  1  0  0  0
 18 19  1  0  0  0
 18 20  2  0  0  0
 20 21  1  0  0  0
 20 22  1  0  0  0
  5  6  1  0  0  0
  6  7  2  0  0  0
  7  8  1  0  0  0
  8  9  2  0  0  0
  9 10  1  0  0  0
 10 23  1  0  0  0
 23 24  1  0  0  0
 24 25  1  0  0  0
 25 26  2  0  0  0
 25 29  1  0  0  0
 26 27  1  0  0  0
 27 28  1  0  0  0
 28 30  1  0  0  0
 28 29  2  0  0  0
 30 31  1  0  0  0
 31 32  1  0  0  0
M  END
> <minimizedAffinity>
-7.78385

$$$$
