CHEMBL272183


 33 36  0  0  0  0  0  0  0  0999 V2000
  -22.7061   -0.4520  -13.5339 C   0  0  0  0  0  0  0  0  0  0  0  0
  -23.9238   -0.6670  -14.1994 C   0  0  0  0  0  0  0  0  0  0  0  0
  -25.0186   -1.2691  -13.5698 C   0  0  0  0  0  0  0  0  0  0  0  0
  -24.9306   -1.7361  -12.2618 C   0  0  0  0  0  0  0  0  0  0  0  0
  -23.7212   -1.5655  -11.5888 C   0  0  0  0  0  0  0  0  0  0  0  0
  -22.6505   -0.8889  -12.2017 C   0  0  0  0  0  0  0  0  0  0  0  0
  -23.3555    2.8948  -13.1871 N   0  0  0  0  0  0  0  0  0  0  0  0
  -22.2444    2.8543  -13.9437 C   0  0  0  0  0  0  0  0  0  0  0  0
  -21.6817    3.9725  -14.4203 N   0  0  0  0  0  0  0  0  0  0  0  0
  -20.5474    3.5651  -15.0842 O   0  0  0  0  0  0  0  0  0  0  0  0
  -20.4404    2.2193  -15.0274 C   0  0  0  0  0  0  0  0  0  0  0  0
  -19.3956    1.4945  -15.5963 C   0  0  0  0  0  0  0  0  0  0  0  0
  -19.4529    0.1154  -15.4574 C   0  0  0  0  0  0  0  0  0  0  0  0
  -20.5257   -0.4807  -14.7938 C   0  0  0  0  0  0  0  0  0  0  0  0
  -21.5993    0.2586  -14.2107 C   0  0  0  0  0  0  0  0  0  0  0  0
  -21.5201    1.6781  -14.3349 C   0  0  0  0  0  0  0  0  0  0  0  0
  -23.6625    3.8164  -12.8967 H   0  0  0  0  0  0  0  0  0  0  0  0
  -23.4834    2.1923  -12.4647 H   0  0  0  0  0  0  0  0  0  0  0  0
  -26.0119   -2.3299  -11.5683 N   0  0  0  0  0  0  0  0  0  0  0  0
  -26.4624   -1.9612  -10.3136 C   0  0  0  0  0  0  0  0  0  0  0  0
  -26.0612   -0.9973   -9.6717 O   0  0  0  0  0  0  0  0  0  0  0  0
  -27.4028   -2.8571   -9.8131 N   0  0  0  0  0  0  0  0  0  0  0  0
  -26.5280   -3.0511  -12.0493 H   0  0  0  0  0  0  0  0  0  0  0  0
  -27.2448   -3.8179  -10.0829 H   0  0  0  0  0  0  0  0  0  0  0  0
  -27.9544   -2.6413   -8.5263 C   0  0  0  0  0  0  0  0  0  0  0  0
  -28.7557   -3.6141   -7.9122 C   0  0  0  0  0  0  0  0  0  0  0  0
  -29.3868   -3.3580   -6.6948 C   0  0  0  0  0  0  0  0  0  0  0  0
  -29.2244   -2.1199   -6.0796 C   0  0  0  0  0  0  0  0  0  0  0  0
  -28.4034   -1.1557   -6.6821 C   0  0  0  0  0  0  0  0  0  0  0  0
  -27.7415   -1.4187   -7.8921 C   0  0  0  0  0  0  0  0  0  0  0  0
  -28.2682    0.1655   -6.0583 N   0  0  0  0  0  0  0  0  0  0  0  0
  -28.7621    1.1368   -6.6480 O   0  0  0  0  0  0  0  0  0  0  0  0
  -27.6657    0.2317   -4.9769 O   0  0  0  0  0  0  0  0  0  0  0  0
  7  8  1  0  0  0
  7 17  1  0  0  0
  7 18  1  0  0  0
  8  9  2  0  0  0
  8 16  1  0  0  0
  9 10  1  0  0  0
 10 11  1  0  0  0
 11 12  1  0  0  0
 11 16  2  0  0  0
 12 13  2  0  0  0
 13 14  1  0  0  0
 14 15  2  0  0  0
 15  1  1  0  0  0
 15 16  1  0  0  0
  1  2  1  0  0  0
  1  6  2  0  0  0
  2  3  2  0  0  0
  3  4  1  0  0  0
  4 19  1  0  0  0
  4  5  2  0  0  0
 19 20  1  0  0  0
 19 23  1  0  0  0
 20 21  2  0  0  0
 20 22  1  0  0  0
 22 25  1  0  0  0
 22 24  1  0  0  0
 25 26  1  0  0  0
 25 30  2  0  0  0
 26 27  2  0  0  0
 27 28  1  0  0  0
 28 29  2  0  0  0
 29 31  1  0  0  0
 29 30  1  0  0  0
 31 32  2  0  0  0
 31 33  1  0  0  0
  5  6  1  0  0  0
M  CHG 1  31   1
M  CHG 1  33  -1
M  END
> <minimizedAffinity>
-10.59294

$$$$
