CHEMBL4217462


 35 38  0  0  0  0  0  0  0  0999 V2000
  -24.6114   -0.3878  -13.1474 C   0  0  0  0  0  0  0  0  0  0  0  0
  -24.9498   -0.4762  -11.7850 C   0  0  0  0  0  0  0  0  0  0  0  0
  -26.0329   -1.2449  -11.3549 C   0  0  0  0  0  0  0  0  0  0  0  0
  -26.8216   -1.8838  -12.3156 C   0  0  0  0  0  0  0  0  0  0  0  0
  -26.4755   -1.8306  -13.6717 C   0  0  0  0  0  0  0  0  0  0  0  0
  -25.3514   -1.1107  -14.1003 C   0  0  0  0  0  0  0  0  0  0  0  0
  -24.9599   -1.1371  -15.5533 C   0  0  0  0  0  0  0  0  0  0  0  0
  -19.3618    1.4838  -15.0858 C   0  0  0  0  0  0  0  0  0  0  0  0
  -20.0746    0.3101  -14.9843 C   0  0  0  0  0  0  0  0  0  0  0  0
  -21.2755    0.6648  -14.4139 N   0  0  0  0  0  0  0  0  0  0  0  0
  -22.3595   -0.1275  -14.0426 C   0  0  0  0  0  0  0  0  0  0  0  0
  -23.4592    0.4553  -13.5156 C   0  0  0  0  0  0  0  0  0  0  0  0
  -23.4674    1.9147  -13.3756 C   0  0  0  0  0  0  0  0  0  0  0  0
  -22.4071    2.6677  -13.7262 C   0  0  0  0  0  0  0  0  0  0  0  0
  -21.2453    2.0437  -14.2530 C   0  0  0  0  0  0  0  0  0  0  0  0
  -20.0932    2.5419  -14.6369 N   0  0  0  0  0  0  0  0  0  0  0  0
  -15.6982    1.7837  -15.6321 C   0  0  0  0  0  0  0  0  0  0  0  0
  -16.9437    1.4594  -14.8477 C   0  0  0  0  0  0  0  0  0  0  0  0
  -16.8566    1.1106  -13.6755 O   0  0  0  0  0  0  0  0  0  0  0  0
  -18.0932    1.6041  -15.6032 N   0  0  0  0  0  0  0  0  0  0  0  0
  -18.0174    1.7611  -16.5964 H   0  0  0  0  0  0  0  0  0  0  0  0
  -26.3712   -1.4230   -9.9922 N   0  0  0  0  0  0  0  0  0  0  0  0
  -27.6324   -1.7330   -9.5028 C   0  0  0  0  0  0  0  0  0  0  0  0
  -28.6510   -1.8854  -10.1678 O   0  0  0  0  0  0  0  0  0  0  0  0
  -25.6766   -1.1275   -9.3188 H   0  0  0  0  0  0  0  0  0  0  0  0
  -27.7534   -1.8030   -8.0174 C   0  0  0  0  0  0  0  0  0  0  0  0
  -27.5103   -0.6397   -7.2824 C   0  0  0  0  0  0  0  0  0  0  0  0
  -27.6242   -0.6576   -5.8965 C   0  0  0  0  0  0  0  0  0  0  0  0
  -27.9933   -1.8341   -5.2385 C   0  0  0  0  0  0  0  0  0  0  0  0
  -28.2636   -3.0208   -5.9461 C   0  0  0  0  0  0  0  0  0  0  0  0
  -28.1457   -2.9761   -7.3530 C   0  0  0  0  0  0  0  0  0  0  0  0
  -28.7589   -4.2876   -5.2209 C   0  0  0  0  0  0  0  0  0  0  0  0
  -27.8894   -4.4902   -3.9644 C   0  0  0  0  0  0  0  0  0  0  0  0
  -30.2389   -4.1730   -4.7896 C   0  0  0  0  0  0  0  0  0  0  0  0
  -28.6581   -5.5645   -6.0889 C   0  0  0  0  0  0  0  0  0  0  0  0
 17 18  1  0  0  0
 18 19  2  0  0  0
 18 20  1  0  0  0
 20  8  1  0  0  0
 20 21  1  0  0  0
  8  9  2  0  0  0
  8 16  1  0  0  0
  9 10  1  0  0  0
 10 11  1  0  0  0
 10 15  1  0  0  0
 11 12  2  0  0  0
 12  1  1  0  0  0
 12 13  1  0  0  0
  1  2  1  0  0  0
  1  6  2  0  0  0
  2  3  2  0  0  0
  3 22  1  0  0  0
  3  4  1  0  0  0
 22 23  1  0  0  0
 22 25  1  0  0  0
 23 24  2  0  0  0
 23 26  1  0  0  0
 26 27  1  0  0  0
 26 31  2  0  0  0
 27 28  2  0  0  0
 28 29  1  0  0  0
 29 30  2  0  0  0
 30 32  1  0  0  0
 30 31  1  0  0  0
 32 33  1  0  0  0
 32 34  1  0  0  0
 32 35  1  0  0  0
  4  5  2  0  0  0
  5  6  1  0  0  0
  6  7  1  0  0  0
 13 14  2  0  0  0
 14 15  1  0  0  0
 15 16  2  0  0  0
M  END
> <minimizedAffinity>
-11.03076

$$$$
