CHEMBL69358


 40 43  0  0  0  0  0  0  0  0999 V2000
  -14.8261   -0.5787  -14.1979 C   0  0  0  0  0  0  0  0  0  0  0  0
  -14.1549    0.5852  -14.2345 C   0  0  0  0  0  0  0  0  0  0  0  0
  -12.8163    0.9450  -13.6401 C   0  0  0  0  0  0  0  0  0  0  0  0
  -12.0851    0.2510  -12.9585 O   0  0  0  0  0  0  0  0  0  0  0  0
  -12.5815    2.2452  -14.0265 N   0  0  0  0  0  0  0  0  0  0  0  0
  -13.6264    2.7519  -14.7805 C   0  0  0  0  0  0  0  0  0  0  0  0
  -13.6343    4.0053  -15.2387 N   0  0  0  0  0  0  0  0  0  0  0  0
  -14.7571    4.3196  -15.8894 C   0  0  0  0  0  0  0  0  0  0  0  0
  -15.8132    3.5037  -16.0701 N   0  0  0  0  0  0  0  0  0  0  0  0
  -15.7553    2.2473  -15.5655 C   0  0  0  0  0  0  0  0  0  0  0  0
  -14.6226    1.8043  -14.9283 C   0  0  0  0  0  0  0  0  0  0  0  0
  -11.7787    2.7927  -13.7619 H   0  0  0  0  0  0  0  0  0  0  0  0
  -13.4626   -3.8691  -13.4446 C   0  0  0  0  0  0  0  0  0  0  0  0
  -14.2797   -3.6908  -12.3463 C   0  0  0  0  0  0  0  0  0  0  0  0
  -14.9229   -2.4343  -12.4479 C   0  0  0  0  0  0  0  0  0  0  0  0
  -15.9113   -1.9252  -11.4575 C   0  0  0  0  0  0  0  0  0  0  0  0
  -14.4703   -1.8353  -13.6195 C   0  0  0  0  0  0  0  0  0  0  0  0
  -13.5701   -2.7154  -14.1914 N   0  0  0  0  0  0  0  0  0  0  0  0
  -13.0803   -2.5571  -15.0651 H   0  0  0  0  0  0  0  0  0  0  0  0
  -12.5184   -5.4182  -15.0473 N   0  0  0  0  0  0  0  0  0  0  0  0
  -12.7100   -5.0727  -13.7261 C   0  0  0  0  0  0  0  0  0  0  0  0
  -12.2543   -5.7739  -12.8223 O   0  0  0  0  0  0  0  0  0  0  0  0
  -12.6348   -4.7343  -15.7847 H   0  0  0  0  0  0  0  0  0  0  0  0
  -11.7252   -6.6006  -15.3266 C   0  0  0  0  0  0  0  0  0  0  0  0
  -12.4668   -7.6959  -16.1085 C   0  0  0  0  0  0  0  0  0  0  0  0
  -12.6076   -8.9917  -15.4052 N   0  0  0  0  0  0  0  0  0  0  0  0
  -12.6787   -9.2998  -12.8992 C   0  0  0  0  0  0  0  0  0  0  0  0
  -13.3965   -8.8526  -14.1682 C   0  0  0  0  0  0  0  0  0  0  0  0
  -13.1152  -10.0305  -16.3221 C   0  0  0  0  0  0  0  0  0  0  0  0
  -13.0171   -9.7331  -17.8184 C   0  0  0  0  0  0  0  0  0  0  0  0
  -16.8997    1.4330  -15.6945 N   0  0  0  0  0  0  0  0  0  0  0  0
  -16.8567    0.9040  -16.5604 H   0  0  0  0  0  0  0  0  0  0  0  0
  -18.2050    1.8503  -15.3481 C   0  0  0  0  0  0  0  0  0  0  0  0
  -18.5612    3.2043  -15.3999 C   0  0  0  0  0  0  0  0  0  0  0  0
  -19.8674    3.6055  -15.0960 C   0  0  0  0  0  0  0  0  0  0  0  0
  -20.8280    2.6541  -14.7647 C   0  0  0  0  0  0  0  0  0  0  0  0
  -22.0714    3.0639  -14.4739 F   0  0  0  0  0  0  0  0  0  0  0  0
  -20.5041    1.3046  -14.7470 C   0  0  0  0  0  0  0  0  0  0  0  0
  -21.6833    0.1116  -14.3612 Cl  0  0  0  0  0  0  0  0  0  0  0  0
  -19.2042    0.9055  -15.0510 C   0  0  0  0  0  0  0  0  0  0  0  0
 27 28  1  0  0  0
 28 26  1  0  0  0
 26 29  1  0  0  0
 26 25  1  0  0  0
 29 30  1  0  0  0
 25 24  1  0  0  0
 24 20  1  0  0  0
 20 21  1  0  0  0
 20 23  1  0  0  0
 21 22  2  0  0  0
 21 13  1  0  0  0
 13 14  2  0  0  0
 13 18  1  0  0  0
 14 15  1  0  0  0
 15 16  1  0  0  0
 15 17  2  0  0  0
 17  1  1  0  0  0
 17 18  1  0  0  0
  1  2  2  0  0  0
  2  3  1  0  0  0
  2 11  1  0  0  0
  3  4  2  0  0  0
  3  5  1  0  0  0
  5  6  1  0  0  0
  5 12  1  0  0  0
  6  7  1  0  0  0
  6 11  2  0  0  0
  7  8  2  0  0  0
  8  9  1  0  0  0
  9 10  2  0  0  0
 10 31  1  0  0  0
 10 11  1  0  0  0
 31 33  1  0  0  0
 31 32  1  0  0  0
 33 34  1  0  0  0
 33 40  2  0  0  0
 34 35  2  0  0  0
 35 36  1  0  0  0
 36 37  1  0  0  0
 36 38  2  0  0  0
 38 39  1  0  0  0
 38 40  1  0  0  0
 18 19  1  0  0  0
M  END
> <minimizedAffinity>
-8.07170

$$$$
