CHEMBL3922509


 35 39  0  0  0  0  0  0  0  0999 V2000
  -16.1808    2.3077  -16.0309 C   0  0  0  0  0  0  0  0  0  0  0  0
  -16.0891    1.5553  -14.8446 C   0  0  0  0  0  0  0  0  0  0  0  0
  -17.2417    1.2065  -14.0974 C   0  0  0  0  0  0  0  0  0  0  0  0
  -18.4649    1.8031  -14.4568 C   0  0  0  0  0  0  0  0  0  0  0  0
  -19.8356    1.8799  -14.0207 C   0  0  0  0  0  0  0  0  0  0  0  0
  -20.1494    3.1939  -14.0935 N   0  0  0  0  0  0  0  0  0  0  0  0
  -19.5115    3.5419  -15.2403 N   0  0  0  0  0  0  0  0  0  0  0  0
  -18.4365    2.7344  -15.4888 C   0  0  0  0  0  0  0  0  0  0  0  0
  -17.4109    2.8539  -16.4147 C   0  0  0  0  0  0  0  0  0  0  0  0
  -19.7687    4.4072  -15.6868 H   0  0  0  0  0  0  0  0  0  0  0  0
  -14.8653    3.9672  -17.0554 O   0  0  0  0  0  0  0  0  0  0  0  0
  -15.0134    2.7627  -16.8446 C   0  0  0  0  0  0  0  0  0  0  0  0
  -13.9690    1.8579  -17.3586 C   0  0  0  0  0  0  0  0  0  0  0  0
  -12.6501    2.3297  -17.3447 C   0  0  0  0  0  0  0  0  0  0  0  0
  -11.6212    1.5217  -17.8084 C   0  0  0  0  0  0  0  0  0  0  0  0
  -11.9042    0.2350  -18.2679 C   0  0  0  0  0  0  0  0  0  0  0  0
  -13.2129   -0.2503  -18.2903 C   0  0  0  0  0  0  0  0  0  0  0  0
  -14.2578    0.5921  -17.8694 C   0  0  0  0  0  0  0  0  0  0  0  0
  -13.5498   -1.5593  -18.6773 N   0  0  0  0  0  0  0  0  0  0  0  0
  -13.2472   -2.7282  -17.9928 C   0  0  0  0  0  0  0  0  0  0  0  0
  -12.6119   -2.7946  -16.9469 O   0  0  0  0  0  0  0  0  0  0  0  0
  -14.1661   -1.6624  -19.4795 H   0  0  0  0  0  0  0  0  0  0  0  0
  -13.7928   -3.9240  -18.6009 C   0  0  0  0  0  0  0  0  0  0  0  0
  -14.3239   -4.1364  -19.8543 C   0  0  0  0  0  0  0  0  0  0  0  0
  -14.6879   -5.4946  -19.8536 C   0  0  0  0  0  0  0  0  0  0  0  0
  -14.4025   -6.0849  -18.6912 N   0  0  0  0  0  0  0  0  0  0  0  0
  -13.8438   -5.0927  -17.8995 O   0  0  0  0  0  0  0  0  0  0  0  0
  -20.9534    1.0438  -14.4567 C   0  0  0  0  0  0  0  0  0  0  0  0
  -22.1751    1.0921  -13.8894 C   0  0  0  0  0  0  0  0  0  0  0  0
  -22.9039   -0.1265  -13.4619 C   0  0  0  0  0  0  0  0  0  0  0  0
  -22.6953   -0.6882  -12.1871 C   0  0  0  0  0  0  0  0  0  0  0  0
  -23.5651   -1.6567  -11.6716 C   0  0  0  0  0  0  0  0  0  0  0  0
  -24.6575   -2.0767  -12.4237 C   0  0  0  0  0  0  0  0  0  0  0  0
  -24.8663   -1.5450  -13.6965 C   0  0  0  0  0  0  0  0  0  0  0  0
  -23.9982   -0.5733  -14.2107 C   0  0  0  0  0  0  0  0  0  0  0  0
 11 12  2  0  0  0
 12 13  1  0  0  0
 12  1  1  0  0  0
 13 14  1  0  0  0
 13 18  2  0  0  0
 14 15  2  0  0  0
 15 16  1  0  0  0
 16 17  2  0  0  0
 17 19  1  0  0  0
 17 18  1  0  0  0
 19 20  1  0  0  0
 19 22  1  0  0  0
 20 21  2  0  0  0
 20 23  1  0  0  0
 23 24  2  0  0  0
 23 27  1  0  0  0
 24 25  1  0  0  0
 25 26  2  0  0  0
 26 27  1  0  0  0
  1  2  1  0  0  0
  1  9  2  0  0  0
  2  3  2  0  0  0
  3  4  1  0  0  0
  4  5  1  0  0  0
  4  8  2  0  0  0
  5 28  1  0  0  0
  5  6  2  0  0  0
 28 29  2  0  0  0
 29 30  1  0  0  0
 30 31  1  0  0  0
 30 35  2  0  0  0
 31 32  2  0  0  0
 32 33  1  0  0  0
 33 34  2  0  0  0
 34 35  1  0  0  0
  6  7  1  0  0  0
  7  8  1  0  0  0
  7 10  1  0  0  0
  8  9  1  0  0  0
M  END
> <minimizedAffinity>
-10.18659

$$$$
