CHEMBL3690413


 38 42  0  0  0  0  0  0  0  0999 V2000
  -23.9874   -0.2961  -13.8890 C   0  0  0  0  0  0  0  0  0  0  0  0
  -24.6535   -1.1053  -14.7978 C   0  0  0  0  0  0  0  0  0  0  0  0
  -25.6453   -1.8453  -14.2087 N   0  0  0  0  0  0  0  0  0  0  0  0
  -25.6228   -1.5052  -12.9394 C   0  0  0  0  0  0  0  0  0  0  0  0
  -26.4278   -1.9488  -11.8431 C   0  0  0  0  0  0  0  0  0  0  0  0
  -26.2366   -1.4460  -10.6023 C   0  0  0  0  0  0  0  0  0  0  0  0
  -25.2093   -0.4312  -10.3798 C   0  0  0  0  0  0  0  0  0  0  0  0
  -24.4683    0.0058  -11.4090 C   0  0  0  0  0  0  0  0  0  0  0  0
  -24.6494   -0.5403  -12.6839 N   0  0  0  0  0  0  0  0  0  0  0  0
  -20.5670    1.0943  -14.8015 C   0  0  0  0  0  0  0  0  0  0  0  0
  -20.8160    2.4626  -14.7031 C   0  0  0  0  0  0  0  0  0  0  0  0
  -22.0443    2.9246  -14.2386 C   0  0  0  0  0  0  0  0  0  0  0  0
  -23.0479    2.0214  -13.9007 C   0  0  0  0  0  0  0  0  0  0  0  0
  -22.8781    0.6460  -14.0995 C   0  0  0  0  0  0  0  0  0  0  0  0
  -21.6069    0.1919  -14.5072 C   0  0  0  0  0  0  0  0  0  0  0  0
  -17.8159    1.9958  -14.0975 O   0  0  0  0  0  0  0  0  0  0  0  0
  -18.0680    1.0293  -14.8036 C   0  0  0  0  0  0  0  0  0  0  0  0
  -17.0580    0.2394  -15.3107 N   0  0  0  0  0  0  0  0  0  0  0  0
  -19.3108    0.5651  -15.1773 N   0  0  0  0  0  0  0  0  0  0  0  0
  -17.2625   -0.2287  -16.1851 H   0  0  0  0  0  0  0  0  0  0  0  0
  -19.3264   -0.2823  -15.7234 H   0  0  0  0  0  0  0  0  0  0  0  0
  -15.6647    0.6651  -15.1202 C   0  0  0  0  0  0  0  0  0  0  0  0
  -15.0366    1.3964  -16.3151 C   0  0  0  0  0  0  0  0  0  0  0  0
  -15.7417    2.4993  -16.6597 F   0  0  0  0  0  0  0  0  0  0  0  0
  -13.7617    1.7675  -16.0823 F   0  0  0  0  0  0  0  0  0  0  0  0
  -15.0310    0.5839  -17.4016 F   0  0  0  0  0  0  0  0  0  0  0  0
  -27.0809   -1.9254   -9.4979 C   0  0  0  0  0  0  0  0  0  0  0  0
  -27.4842   -3.2523   -9.4214 C   0  0  0  0  0  0  0  0  0  0  0  0
  -28.2266   -3.6782   -8.3180 C   0  0  0  0  0  0  0  0  0  0  0  0
  -28.5677   -2.7841   -7.3002 C   0  0  0  0  0  0  0  0  0  0  0  0
  -28.1975   -1.4878   -7.3823 N   0  0  0  0  0  0  0  0  0  0  0  0
  -27.4610   -1.0928   -8.4529 C   0  0  0  0  0  0  0  0  0  0  0  0
  -29.3253   -3.2092   -6.2225 N   0  0  0  0  0  0  0  0  0  0  0  0
  -29.6660   -2.2584   -5.1665 C   0  0  0  0  0  0  0  0  0  0  0  0
  -28.9818   -2.6084   -3.8474 C   0  0  0  0  0  0  0  0  0  0  0  0
  -29.2022   -4.0720   -3.4759 C   0  0  0  0  0  0  0  0  0  0  0  0
  -28.7444   -4.9791   -4.6127 C   0  0  0  0  0  0  0  0  0  0  0  0
  -29.4540   -4.6327   -5.9223 C   0  0  0  0  0  0  0  0  0  0  0  0
 16 17  2  0  0  0
 17 18  1  0  0  0
 17 19  1  0  0  0
 18 22  1  0  0  0
 18 20  1  0  0  0
 22 23  1  0  0  0
 23 24  1  0  0  0
 23 25  1  0  0  0
 23 26  1  0  0  0
 19 10  1  0  0  0
 19 21  1  0  0  0
 10 11  1  0  0  0
 10 15  2  0  0  0
 11 12  2  0  0  0
 12 13  1  0  0  0
 13 14  2  0  0  0
 14  1  1  0  0  0
 14 15  1  0  0  0
  1  2  2  0  0  0
  1  9  1  0  0  0
  2  3  1  0  0  0
  3  4  2  0  0  0
  4  5  1  0  0  0
  4  9  1  0  0  0
  5  6  2  0  0  0
  6 27  1  0  0  0
  6  7  1  0  0  0
 27 28  1  0  0  0
 27 32  2  0  0  0
 28 29  2  0  0  0
 29 30  1  0  0  0
 30 33  1  0  0  0
 30 31  2  0  0  0
 33 34  1  0  0  0
 33 38  1  0  0  0
 34 35  1  0  0  0
 35 36  1  0  0  0
 36 37  1  0  0  0
 37 38  1  0  0  0
 31 32  1  0  0  0
  7  8  2  0  0  0
  8  9  1  0  0  0
M  END
> <minimizedAffinity>
-9.48146

$$$$
