CHEMBL2386808


 47 51  0  0  0  0  0  0  0  0999 V2000
  -12.7952    2.9664  -15.7412 C   0  0  0  0  0  0  0  0  0  0  0  0
  -14.0722    3.3562  -15.4433 C   0  0  0  0  0  0  0  0  0  0  0  0
  -14.8863    2.2036  -15.6450 C   0  0  0  0  0  0  0  0  0  0  0  0
  -14.1317    1.1516  -16.0193 N   0  0  0  0  0  0  0  0  0  0  0  0
  -12.8803    1.6400  -16.0584 N   0  0  0  0  0  0  0  0  0  0  0  0
  -12.1104    1.0448  -16.3357 H   0  0  0  0  0  0  0  0  0  0  0  0
  -16.3380    2.1038  -15.5041 C   0  0  0  0  0  0  0  0  0  0  0  0
  -16.9420    0.8764  -15.1988 C   0  0  0  0  0  0  0  0  0  0  0  0
  -18.3257    0.7776  -15.0541 C   0  0  0  0  0  0  0  0  0  0  0  0
  -19.1430    1.9035  -15.2252 C   0  0  0  0  0  0  0  0  0  0  0  0
  -18.5427    3.1337  -15.5160 C   0  0  0  0  0  0  0  0  0  0  0  0
  -17.1554    3.2324  -15.6563 C   0  0  0  0  0  0  0  0  0  0  0  0
  -20.6389    1.7761  -15.1149 C   0  0  0  0  0  0  0  0  0  0  0  0
  -21.0722    1.2971  -13.8184 N   0  0  0  0  0  0  0  0  0  0  0  0
  -22.2077    0.5137  -13.7255 C   0  0  0  0  0  0  0  0  0  0  0  0
  -22.8470    0.1800  -14.7105 O   0  0  0  0  0  0  0  0  0  0  0  0
  -22.5293    0.2458  -12.4122 N   0  0  0  0  0  0  0  0  0  0  0  0
  -20.3540    1.1468  -13.1267 H   0  0  0  0  0  0  0  0  0  0  0  0
  -22.1513    0.8564  -11.7083 H   0  0  0  0  0  0  0  0  0  0  0  0
  -23.6038   -0.5506  -12.0547 C   0  0  0  0  0  0  0  0  0  0  0  0
  -24.9372   -0.0867  -11.9297 C   0  0  0  0  0  0  0  0  0  0  0  0
  -25.6716   -1.1980  -11.5759 C   0  0  0  0  0  0  0  0  0  0  0  0
  -24.8214   -2.2550  -11.4666 O   0  0  0  0  0  0  0  0  0  0  0  0
  -23.5399   -1.8512  -11.7602 N   0  0  0  0  0  0  0  0  0  0  0  0
  -27.1210   -1.4791  -11.2908 C   0  0  0  0  0  0  0  0  0  0  0  0
  -27.2638   -2.3548  -10.0335 C   0  0  0  0  0  0  0  0  0  0  0  0
  -27.8841   -0.1610  -11.0602 C   0  0  0  0  0  0  0  0  0  0  0  0
  -27.7487   -2.2201  -12.4849 C   0  0  0  0  0  0  0  0  0  0  0  0
  -11.6338    3.6623  -15.7746 N   0  0  0  0  0  0  0  0  0  0  0  0
  -10.7751    3.1707  -15.5455 H   0  0  0  0  0  0  0  0  0  0  0  0
  -10.8010    7.4799  -12.9871 C   0  0  0  0  0  0  0  0  0  0  0  0
  -11.1884    6.9284  -14.3226 C   0  0  0  0  0  0  0  0  0  0  0  0
  -11.2178    5.5910  -14.4266 N   0  0  0  0  0  0  0  0  0  0  0  0
  -11.5412    5.0594  -15.6141 C   0  0  0  0  0  0  0  0  0  0  0  0
  -11.8442    5.8664  -16.6809 C   0  0  0  0  0  0  0  0  0  0  0  0
  -11.7520    7.2357  -16.5106 C   0  0  0  0  0  0  0  0  0  0  0  0
  -11.4481    7.7837  -15.3253 N   0  0  0  0  0  0  0  0  0  0  0  0
  -11.9882    8.0222  -17.6325 N   0  0  0  0  0  0  0  0  0  0  0  0
  -12.5592    7.4003  -18.8310 C   0  0  0  0  0  0  0  0  0  0  0  0
  -12.3092    8.3744  -20.0236 C   0  0  0  0  0  0  0  0  0  0  0  0
  -12.7898    9.7807  -19.8304 N   0  0  0  0  0  0  0  0  0  0  0  0
  -12.2845   10.2684  -18.5219 C   0  0  0  0  0  0  0  0  0  0  0  0
  -12.5793    9.3339  -17.3316 C   0  0  0  0  0  0  0  0  0  0  0  0
  -14.2645    9.8364  -19.9315 C   0  0  0  0  0  0  0  0  0  0  0  0
  -14.7873   11.0408  -20.7358 C   0  0  0  0  0  0  0  0  0  0  0  0
  -15.5679   11.9043  -19.9164 O   0  0  0  0  0  0  0  0  0  0  0  0
  -16.1623   11.3191  -19.4082 H   0  0  0  0  0  0  0  0  0  0  0  0
 31 32  1  0  0  0
 32 33  1  0  0  0
 32 37  2  0  0  0
 33 34  2  0  0  0
 34 29  1  0  0  0
 34 35  1  0  0  0
 29  1  1  0  0  0
 29 30  1  0  0  0
  1  2  2  0  0  0
  1  5  1  0  0  0
  2  3  1  0  0  0
  3  7  1  0  0  0
  3  4  2  0  0  0
  7  8  1  0  0  0
  7 12  2  0  0  0
  8  9  2  0  0  0
  9 10  1  0  0  0
 10 13  1  0  0  0
 10 11  2  0  0  0
 13 14  1  0  0  0
 14 15  1  0  0  0
 14 18  1  0  0  0
 15 16  2  0  0  0
 15 17  1  0  0  0
 17 20  1  0  0  0
 17 19  1  0  0  0
 20 21  1  0  0  0
 20 24  2  0  0  0
 21 22  2  0  0  0
 22 25  1  0  0  0
 22 23  1  0  0  0
 25 26  1  0  0  0
 25 27  1  0  0  0
 25 28  1  0  0  0
 23 24  1  0  0  0
 11 12  1  0  0  0
  4  5  1  0  0  0
  5  6  1  0  0  0
 35 36  2  0  0  0
 36 38  1  0  0  0
 36 37  1  0  0  0
 38 39  1  0  0  0
 38 43  1  0  0  0
 39 40  1  0  0  0
 40 41  1  0  0  0
 41 44  1  0  0  0
 41 42  1  0  0  0
 44 45  1  0  0  0
 45 46  1  0  0  0
 46 47  1  0  0  0
 42 43  1  0  0  0
M  END
> <minimizedAffinity>
-8.33298

$$$$
