CHEMBL4649259


 43 48  0  0  0  0  0  0  0  0999 V2000
  -24.1424  -11.4390   -4.4743 C   0  0  0  0  0  0  0  0  0  0  0  0
  -24.6592  -11.8126   -5.7346 C   0  0  0  0  0  0  0  0  0  0  0  0
  -25.7778  -11.1607   -6.2920 C   0  0  0  0  0  0  0  0  0  0  0  0
  -26.3915  -10.1355   -5.5828 C   0  0  0  0  0  0  0  0  0  0  0  0
  -25.8395   -9.7682   -4.3470 C   0  0  0  0  0  0  0  0  0  0  0  0
  -24.7349  -10.3870   -3.7804 C   0  0  0  0  0  0  0  0  0  0  0  0
  -26.5694   -8.7427   -3.7628 N   0  0  0  0  0  0  0  0  0  0  0  0
  -27.6634   -8.3915   -4.5350 C   0  0  0  0  0  0  0  0  0  0  0  0
  -28.4975   -7.5654   -4.2165 O   0  0  0  0  0  0  0  0  0  0  0  0
  -27.5928   -9.2704   -5.7703 C   0  0  0  0  0  0  0  0  0  0  0  0
  -28.5402   -9.2074   -6.7414 C   0  0  0  0  0  0  0  0  0  0  0  0
  -26.3855   -8.3265   -2.8679 H   0  0  0  0  0  0  0  0  0  0  0  0
  -28.4844  -10.1446   -7.8920 C   0  0  0  0  0  0  0  0  0  0  0  0
  -27.7491   -9.7629   -9.0269 C   0  0  0  0  0  0  0  0  0  0  0  0
  -27.5407  -10.6480  -10.0782 C   0  0  0  0  0  0  0  0  0  0  0  0
  -28.0955  -11.9251  -10.0234 C   0  0  0  0  0  0  0  0  0  0  0  0
  -28.8530  -12.3052   -8.9201 C   0  0  0  0  0  0  0  0  0  0  0  0
  -29.0525  -11.4247   -7.8478 C   0  0  0  0  0  0  0  0  0  0  0  0
  -23.0037  -12.1469   -3.8202 C   0  0  0  0  0  0  0  0  0  0  0  0
  -21.9433  -12.3688   -4.3890 O   0  0  0  0  0  0  0  0  0  0  0  0
  -22.3076  -12.0135   -1.5924 C   0  0  0  0  0  0  0  0  0  0  0  0
  -23.2888  -12.4628   -2.5319 O   0  0  0  0  0  0  0  0  0  0  0  0
  -29.6790   -8.3584   -6.7785 N   0  0  0  0  0  0  0  0  0  0  0  0
  -30.2262   -8.5027   -5.9304 H   0  0  0  0  0  0  0  0  0  0  0  0
  -29.5193   -6.9479   -6.9434 C   0  0  0  0  0  0  0  0  0  0  0  0
  -28.6056   -6.4394   -7.8615 C   0  0  0  0  0  0  0  0  0  0  0  0
  -28.3032   -5.0610   -7.9250 C   0  0  0  0  0  0  0  0  0  0  0  0
  -28.9604   -4.0791   -7.1682 C   0  0  0  0  0  0  0  0  0  0  0  0
  -29.9912   -4.5814   -6.3619 C   0  0  0  0  0  0  0  0  0  0  0  0
  -30.2644   -5.9885   -6.2447 C   0  0  0  0  0  0  0  0  0  0  0  0
  -28.5810   -2.6467   -7.2711 N   0  0  0  0  0  0  0  0  0  0  0  0
  -28.8385   -1.6266   -6.2947 C   0  0  0  0  0  0  0  0  0  0  0  0
  -29.5158   -1.6444   -4.9614 C   0  0  0  0  0  0  0  0  0  0  0  0
  -28.2979   -0.4312   -6.7255 C   0  0  0  0  0  0  0  0  0  0  0  0
  -27.5842   -0.6733   -7.8787 C   0  0  0  0  0  0  0  0  0  0  0  0
  -27.9047   -1.9464   -8.3292 C   0  0  0  0  0  0  0  0  0  0  0  0
  -27.5541   -2.3367   -9.7466 C   0  0  0  0  0  0  0  0  0  0  0  0
  -26.9675   -1.2466  -10.5431 N   0  0  0  0  0  0  0  0  0  0  0  0
  -27.6586   -1.0798  -11.8350 C   0  0  0  0  0  0  0  0  0  0  0  0
  -27.0981   -1.9141  -12.9981 C   0  0  0  0  0  0  0  0  0  0  0  0
  -25.7184   -1.6271  -13.2188 O   0  0  0  0  0  0  0  0  0  0  0  0
  -24.9387   -1.8855  -12.0516 C   0  0  0  0  0  0  0  0  0  0  0  0
  -25.5053   -1.2381  -10.7670 C   0  0  0  0  0  0  0  0  0  0  0  0
 21 22  1  0  0  0
 22 19  1  0  0  0
 19 20  2  0  0  0
 19  1  1  0  0  0
  1  2  1  0  0  0
  1  6  2  0  0  0
  2  3  2  0  0  0
  3  4  1  0  0  0
  4  5  2  0  0  0
  4 10  1  0  0  0
  5  6  1  0  0  0
  5  7  1  0  0  0
  7  8  1  0  0  0
  7 12  1  0  0  0
  8  9  2  0  0  0
  8 10  1  0  0  0
 10 11  2  0  0  0
 11 23  1  0  0  0
 11 13  1  0  0  0
 23 25  1  0  0  0
 23 24  1  0  0  0
 25 26  1  0  0  0
 25 30  2  0  0  0
 26 27  2  0  0  0
 27 28  1  0  0  0
 28 31  1  0  0  0
 28 29  2  0  0  0
 31 32  1  0  0  0
 31 36  1  0  0  0
 32 33  1  0  0  0
 32 34  2  0  0  0
 34 35  1  0  0  0
 35 36  2  0  0  0
 36 37  1  0  0  0
 37 38  1  0  0  0
 38 39  1  0  0  0
 38 43  1  0  0  0
 39 40  1  0  0  0
 40 41  1  0  0  0
 41 42  1  0  0  0
 42 43  1  0  0  0
 29 30  1  0  0  0
 13 14  1  0  0  0
 13 18  2  0  0  0
 14 15  2  0  0  0
 15 16  1  0  0  0
 16 17  2  0  0  0
 17 18  1  0  0  0
M  END
> <minimizedAffinity>
-9.24179

$$$$
