CHEMBL469456


 37 41  0  0  0  0  0  0  0  0999 V2000
  -22.5493    0.6698  -13.7551 C   0  0  0  0  0  0  0  0  0  0  0  0
  -21.5939   -0.1156  -14.4003 C   0  0  0  0  0  0  0  0  0  0  0  0
  -20.5337    0.4855  -15.0845 C   0  0  0  0  0  0  0  0  0  0  0  0
  -20.4122    1.8776  -15.1464 C   0  0  0  0  0  0  0  0  0  0  0  0
  -21.3301    2.6625  -14.4423 C   0  0  0  0  0  0  0  0  0  0  0  0
  -22.4009    2.0626  -13.7605 C   0  0  0  0  0  0  0  0  0  0  0  0
  -26.8914   -1.7716  -11.1437 C   0  0  0  0  0  0  0  0  0  0  0  0
  -27.5710   -2.2678  -12.2831 C   0  0  0  0  0  0  0  0  0  0  0  0
  -26.8626   -1.8656  -13.3924 C   0  0  0  0  0  0  0  0  0  0  0  0
  -25.7464   -1.1638  -12.9790 N   0  0  0  0  0  0  0  0  0  0  0  0
  -24.7133   -0.5875  -13.7642 C   0  0  0  0  0  0  0  0  0  0  0  0
  -24.7929   -0.6901  -15.1530 N   0  0  0  0  0  0  0  0  0  0  0  0
  -23.7028    0.0308  -13.1096 C   0  0  0  0  0  0  0  0  0  0  0  0
  -23.8273    0.0713  -11.6189 C   0  0  0  0  0  0  0  0  0  0  0  0
  -24.7709   -0.4505  -10.8987 N   0  0  0  0  0  0  0  0  0  0  0  0
  -25.7600   -1.0998  -11.5828 C   0  0  0  0  0  0  0  0  0  0  0  0
  -25.2289   -1.5476  -15.4795 H   0  0  0  0  0  0  0  0  0  0  0  0
  -23.9135   -0.5000  -15.6283 H   0  0  0  0  0  0  0  0  0  0  0  0
  -28.2435   -1.1515   -6.3797 C   0  0  0  0  0  0  0  0  0  0  0  0
  -27.9570   -1.6994   -7.6829 N   0  0  0  0  0  0  0  0  0  0  0  0
  -27.5307   -1.0159   -8.7845 C   0  0  0  0  0  0  0  0  0  0  0  0
  -27.3587   -1.9592   -9.7733 C   0  0  0  0  0  0  0  0  0  0  0  0
  -27.7203   -3.1786   -9.1644 C   0  0  0  0  0  0  0  0  0  0  0  0
  -28.0898   -3.0225   -7.8868 N   0  0  0  0  0  0  0  0  0  0  0  0
  -19.3922    2.5170  -15.8934 N   0  0  0  0  0  0  0  0  0  0  0  0
  -18.0422    2.4067  -15.6065 C   0  0  0  0  0  0  0  0  0  0  0  0
  -17.5666    1.6515  -14.7595 O   0  0  0  0  0  0  0  0  0  0  0  0
  -17.2739    3.2616  -16.3833 N   0  0  0  0  0  0  0  0  0  0  0  0
  -19.6125    2.7804  -16.8437 H   0  0  0  0  0  0  0  0  0  0  0  0
  -17.7127    4.1514  -16.5782 H   0  0  0  0  0  0  0  0  0  0  0  0
  -15.8595    3.2547  -16.3020 C   0  0  0  0  0  0  0  0  0  0  0  0
  -15.1114    2.1347  -16.6922 C   0  0  0  0  0  0  0  0  0  0  0  0
  -13.7173    2.1357  -16.5822 C   0  0  0  0  0  0  0  0  0  0  0  0
  -13.0668    3.2519  -16.0645 C   0  0  0  0  0  0  0  0  0  0  0  0
  -13.8148    4.3602  -15.6799 C   0  0  0  0  0  0  0  0  0  0  0  0
  -13.1902    5.4202  -15.1511 F   0  0  0  0  0  0  0  0  0  0  0  0
  -15.2007    4.3823  -15.8166 C   0  0  0  0  0  0  0  0  0  0  0  0
 19 20  1  0  0  0
 20 21  1  0  0  0
 20 24  1  0  0  0
 21 22  2  0  0  0
 22  7  1  0  0  0
 22 23  1  0  0  0
  7  8  1  0  0  0
  7 16  2  0  0  0
  8  9  2  0  0  0
  9 10  1  0  0  0
 10 11  1  0  0  0
 10 16  1  0  0  0
 11 12  1  0  0  0
 11 13  2  0  0  0
 12 17  1  0  0  0
 12 18  1  0  0  0
 13  1  1  0  0  0
 13 14  1  0  0  0
  1  2  1  0  0  0
  1  6  2  0  0  0
  2  3  2  0  0  0
  3  4  1  0  0  0
  4 25  1  0  0  0
  4  5  2  0  0  0
 25 26  1  0  0  0
 25 29  1  0  0  0
 26 27  2  0  0  0
 26 28  1  0  0  0
 28 31  1  0  0  0
 28 30  1  0  0  0
 31 32  1  0  0  0
 31 37  2  0  0  0
 32 33  2  0  0  0
 33 34  1  0  0  0
 34 35  2  0  0  0
 35 36  1  0  0  0
 35 37  1  0  0  0
  5  6  1  0  0  0
 14 15  2  0  0  0
 15 16  1  0  0  0
 23 24  2  0  0  0
M  END
> <minimizedAffinity>
-9.67484

$$$$
