CHEMBL3955638


 27 30  0  0  0  0  0  0  0  0999 V2000
  -17.7171    1.2207  -15.1473 C   0  0  0  0  0  0  0  0  0  0  0  0
  -17.7124    2.5544  -15.5698 C   0  0  0  0  0  0  0  0  0  0  0  0
  -18.8933    3.2937  -15.6268 C   0  0  0  0  0  0  0  0  0  0  0  0
  -20.0988    2.7033  -15.2577 C   0  0  0  0  0  0  0  0  0  0  0  0
  -20.1251    1.3621  -14.8654 C   0  0  0  0  0  0  0  0  0  0  0  0
  -18.9421    0.6107  -14.8457 C   0  0  0  0  0  0  0  0  0  0  0  0
  -16.2830    0.7007  -12.6603 O   0  0  0  0  0  0  0  0  0  0  0  0
  -15.9008    0.2781  -13.7458 C   0  0  0  0  0  0  0  0  0  0  0  0
  -16.5256    0.4750  -14.9699 N   0  0  0  0  0  0  0  0  0  0  0  0
  -16.2432   -0.1236  -15.7365 H   0  0  0  0  0  0  0  0  0  0  0  0
  -14.6979   -0.5902  -13.7468 C   0  0  0  0  0  0  0  0  0  0  0  0
  -14.8446   -1.9038  -13.2783 C   0  0  0  0  0  0  0  0  0  0  0  0
  -13.7348   -2.7387  -13.1657 C   0  0  0  0  0  0  0  0  0  0  0  0
  -12.4735   -2.2609  -13.5148 C   0  0  0  0  0  0  0  0  0  0  0  0
  -12.3227   -0.9539  -13.9856 C   0  0  0  0  0  0  0  0  0  0  0  0
  -13.4339   -0.1138  -14.1060 C   0  0  0  0  0  0  0  0  0  0  0  0
  -21.3609    0.7902  -14.4171 C   0  0  0  0  0  0  0  0  0  0  0  0
  -22.4136    0.2982  -14.1132 C   0  0  0  0  0  0  0  0  0  0  0  0
  -23.6648   -0.3491  -13.8021 C   0  0  0  0  0  0  0  0  0  0  0  0
  -24.5558   -0.8437  -14.8765 C   0  0  0  0  0  0  0  0  0  0  0  0
  -25.6970   -1.4300  -14.4923 C   0  0  0  0  0  0  0  0  0  0  0  0
  -25.9869   -1.5380  -13.1139 C   0  0  0  0  0  0  0  0  0  0  0  0
  -27.0156   -2.0646  -12.4835 N   0  0  0  0  0  0  0  0  0  0  0  0
  -26.7540   -1.8729  -11.1500 C   0  0  0  0  0  0  0  0  0  0  0  0
  -25.5551   -1.2233  -10.9687 C   0  0  0  0  0  0  0  0  0  0  0  0
  -25.0577   -1.0145  -12.2262 N   0  0  0  0  0  0  0  0  0  0  0  0
  -23.8707   -0.4091  -12.5252 N   0  0  0  0  0  0  0  0  0  0  0  0
  7  8  2  0  0  0
  8  9  1  0  0  0
  8 11  1  0  0  0
  9  1  1  0  0  0
  9 10  1  0  0  0
  1  2  1  0  0  0
  1  6  2  0  0  0
  2  3  2  0  0  0
  3  4  1  0  0  0
  4  5  2  0  0  0
  5 17  1  0  0  0
  5  6  1  0  0  0
 17 18  3  0  0  0
 18 19  1  0  0  0
 19 20  1  0  0  0
 19 27  2  0  0  0
 20 21  2  0  0  0
 21 22  1  0  0  0
 22 23  2  0  0  0
 22 26  1  0  0  0
 23 24  1  0  0  0
 24 25  2  0  0  0
 25 26  1  0  0  0
 26 27  1  0  0  0
 11 12  1  0  0  0
 11 16  2  0  0  0
 12 13  2  0  0  0
 13 14  1  0  0  0
 14 15  2  0  0  0
 15 16  1  0  0  0
M  END
> <minimizedAffinity>
-9.94074

$$$$
