CHEMBL380316


 29 33  0  0  0  0  0  0  0  0999 V2000
  -24.9408   -1.5719  -12.3141 C   0  0  0  0  0  0  0  0  0  0  0  0
  -24.4687   -1.5054  -11.0554 N   0  0  0  0  0  0  0  0  0  0  0  0
  -25.3087   -1.5700   -9.9873 N   0  0  0  0  0  0  0  0  0  0  0  0
  -26.6473   -1.5906  -10.1455 C   0  0  0  0  0  0  0  0  0  0  0  0
  -27.2041   -1.6820  -11.4509 C   0  0  0  0  0  0  0  0  0  0  0  0
  -28.5940   -1.6923  -11.7509 C   0  0  0  0  0  0  0  0  0  0  0  0
  -29.0904   -1.9207  -13.0375 C   0  0  0  0  0  0  0  0  0  0  0  0
  -28.2091   -2.0812  -14.0896 C   0  0  0  0  0  0  0  0  0  0  0  0
  -26.8396   -1.9602  -13.8588 C   0  0  0  0  0  0  0  0  0  0  0  0
  -26.3130   -1.7586  -12.5546 C   0  0  0  0  0  0  0  0  0  0  0  0
  -27.4128   -1.5540   -8.8596 C   0  0  0  0  0  0  0  0  0  0  0  0
  -27.7049   -0.3020   -8.2706 C   0  0  0  0  0  0  0  0  0  0  0  0
  -28.3041   -0.1874   -7.0207 C   0  0  0  0  0  0  0  0  0  0  0  0
  -28.7201   -1.3282   -6.3554 C   0  0  0  0  0  0  0  0  0  0  0  0
  -28.5690   -2.5879   -6.9466 C   0  0  0  0  0  0  0  0  0  0  0  0
  -29.0818   -3.7219   -6.3097 C   0  0  0  0  0  0  0  0  0  0  0  0
  -29.0206   -4.9787   -6.7959 N   0  0  0  0  0  0  0  0  0  0  0  0
  -28.3974   -5.1192   -7.9768 C   0  0  0  0  0  0  0  0  0  0  0  0
  -27.8240   -4.0664   -8.6794 C   0  0  0  0  0  0  0  0  0  0  0  0
  -27.9110   -2.7358   -8.1949 C   0  0  0  0  0  0  0  0  0  0  0  0
  -24.0284   -1.4126  -13.3911 N   0  0  0  0  0  0  0  0  0  0  0  0
  -23.5254   -2.2790  -13.5445 H   0  0  0  0  0  0  0  0  0  0  0  0
  -20.7694    3.4669  -14.3477 Cl  0  0  0  0  0  0  0  0  0  0  0  0
  -21.7264    2.0592  -14.1011 C   0  0  0  0  0  0  0  0  0  0  0  0
  -21.2353    0.8083  -14.4675 C   0  0  0  0  0  0  0  0  0  0  0  0
  -22.0033   -0.3421  -14.2412 C   0  0  0  0  0  0  0  0  0  0  0  0
  -23.2532   -0.2530  -13.6165 C   0  0  0  0  0  0  0  0  0  0  0  0
  -23.7521    1.0263  -13.3147 C   0  0  0  0  0  0  0  0  0  0  0  0
  -22.9915    2.1755  -13.5398 C   0  0  0  0  0  0  0  0  0  0  0  0
 23 24  1  0  0  0
 24 25  1  0  0  0
 24 29  2  0  0  0
 25 26  2  0  0  0
 26 27  1  0  0  0
 27 21  1  0  0  0
 27 28  2  0  0  0
 21  1  1  0  0  0
 21 22  1  0  0  0
  1  2  1  0  0  0
  1 10  2  0  0  0
  2  3  2  0  0  0
  3  4  1  0  0  0
  4 11  1  0  0  0
  4  5  2  0  0  0
 11 12  1  0  0  0
 11 20  2  0  0  0
 12 13  2  0  0  0
 13 14  1  0  0  0
 14 15  2  0  0  0
 15 16  1  0  0  0
 15 20  1  0  0  0
 16 17  2  0  0  0
 17 18  1  0  0  0
 18 19  2  0  0  0
 19 20  1  0  0  0
  5  6  1  0  0  0
  5 10  1  0  0  0
  6  7  2  0  0  0
  7  8  1  0  0  0
  8  9  2  0  0  0
  9 10  1  0  0  0
 28 29  1  0  0  0
M  END
> <minimizedAffinity>
-7.97054

$$$$
