CHEMBL3967739


 34 37  0  0  0  0  0  0  0  0999 V2000
  -27.1097   -1.4694  -10.8105 N   0  0  0  0  0  0  0  0  0  0  0  0
  -25.8075   -1.1114  -11.4271 C   0  0  0  0  0  0  0  0  0  0  0  0
  -25.5136    0.2062  -11.3478 C   0  0  0  0  0  0  0  0  0  0  0  0
  -24.4706    0.6287  -12.1207 C   0  0  0  0  0  0  0  0  0  0  0  0
  -23.7832   -0.1833  -13.0071 C   0  0  0  0  0  0  0  0  0  0  0  0
  -23.6606    0.5971  -14.0374 N   0  0  0  0  0  0  0  0  0  0  0  0
  -22.4498    1.0273  -14.1094 C   0  0  0  0  0  0  0  0  0  0  0  0
  -21.4790    0.1444  -14.3195 C   0  0  0  0  0  0  0  0  0  0  0  0
  -21.9605   -1.1968  -13.9636 N   0  0  0  0  0  0  0  0  0  0  0  0
  -23.3995   -1.4335  -13.0875 C   0  0  0  0  0  0  0  0  0  0  0  0
  -24.7680   -1.9460  -12.2291 C   0  0  0  0  0  0  0  0  0  0  0  0
  -20.2419    1.0662  -14.8340 C   0  0  0  0  0  0  0  0  0  0  0  0
  -20.2408    2.5524  -15.1437 C   0  0  0  0  0  0  0  0  0  0  0  0
  -19.0701    3.0797  -15.5071 N   0  0  0  0  0  0  0  0  0  0  0  0
  -18.2404    2.0257  -15.4830 N   0  0  0  0  0  0  0  0  0  0  0  0
  -16.8092    2.2441  -15.6743 C   0  0  0  0  0  0  0  0  0  0  0  0
  -18.9125    0.8313  -15.1641 C   0  0  0  0  0  0  0  0  0  0  0  0
  -28.0641   -1.7070   -7.0935 C   0  0  0  0  0  0  0  0  0  0  0  0
  -28.2716   -3.0700   -7.0082 C   0  0  0  0  0  0  0  0  0  0  0  0
  -28.0085   -3.8754   -8.1130 C   0  0  0  0  0  0  0  0  0  0  0  0
  -27.5372   -3.3168   -9.3022 C   0  0  0  0  0  0  0  0  0  0  0  0
  -27.4045   -1.9468   -9.4876 C   0  0  0  0  0  0  0  0  0  0  0  0
  -27.5904   -1.1573   -8.3063 C   0  0  0  0  0  0  0  0  0  0  0  0
  -27.4091   -0.7888   -4.9832 C   0  0  0  0  0  0  0  0  0  0  0  0
  -28.3331   -0.8211   -6.0746 O   0  0  0  0  0  0  0  0  0  0  0  0
  -28.2183   -5.2296   -8.1513 O   0  0  0  0  0  0  0  0  0  0  0  0
  -29.2593   -5.6788   -7.2954 C   0  0  0  0  0  0  0  0  0  0  0  0
  -28.2347   -1.6413  -11.8503 C   0  0  0  0  0  0  0  0  0  0  0  0
  -27.6600   -2.2345  -13.1632 C   0  0  0  0  0  0  0  0  0  0  0  0
  -28.4939   -3.3106  -13.6245 O   0  0  0  0  0  0  0  0  0  0  0  0
  -29.4178   -3.0548  -13.4520 H   0  0  0  0  0  0  0  0  0  0  0  0
  -27.5153   -1.2730  -14.3473 C   0  0  0  0  0  0  0  0  0  0  0  0
  -26.3528   -1.5605  -15.1185 O   0  0  0  0  0  0  0  0  0  0  0  0
  -25.5972   -1.5445  -14.5026 H   0  0  0  0  0  0  0  0  0  0  0  0
 24 25  1  0  0  0
 25 18  1  0  0  0
 18 19  1  0  0  0
 18 23  2  0  0  0
 19 20  2  0  0  0
 20 26  1  0  0  0
 20 21  1  0  0  0
 26 27  1  0  0  0
 21 22  2  0  0  0
 22  1  1  0  0  0
 22 23  1  0  0  0
  1 28  1  0  0  0
  1  2  1  0  0  0
 28 29  1  0  0  0
 29 30  1  0  0  0
 29 32  1  0  0  0
 30 31  1  0  0  0
 32 33  1  0  0  0
 33 34  1  0  0  0
  2  3  1  0  0  0
  2 11  2  0  0  0
  3  4  2  0  0  0
  4  5  1  0  0  0
  5  6  1  0  0  0
  5 10  2  0  0  0
  6  7  2  0  0  0
  7  8  1  0  0  0
  8 12  1  0  0  0
  8  9  2  0  0  0
 12 13  1  0  0  0
 12 17  2  0  0  0
 13 14  2  0  0  0
 14 15  1  0  0  0
 15 16  1  0  0  0
 15 17  1  0  0  0
  9 10  1  0  0  0
 10 11  1  0  0  0
M  END
> <minimizedAffinity>
-6.59599

$$$$
