CHEMBL3952493


 35 39  0  0  0  0  0  0  0  0999 V2000
  -28.4744   -3.1600   -7.8481 C   0  0  0  0  0  0  0  0  0  0  0  0
  -29.0005   -2.8205   -6.5981 C   0  0  0  0  0  0  0  0  0  0  0  0
  -28.8583   -1.5111   -6.0791 C   0  0  0  0  0  0  0  0  0  0  0  0
  -29.3903   -1.0578   -4.8653 C   0  0  0  0  0  0  0  0  0  0  0  0
  -29.2688    0.2220   -4.4643 N   0  0  0  0  0  0  0  0  0  0  0  0
  -28.6064    1.0530   -5.2695 C   0  0  0  0  0  0  0  0  0  0  0  0
  -28.0470    0.7246   -6.4333 N   0  0  0  0  0  0  0  0  0  0  0  0
  -28.1853   -0.5434   -6.8221 C   0  0  0  0  0  0  0  0  0  0  0  0
  -27.6143   -0.9118   -8.0214 C   0  0  0  0  0  0  0  0  0  0  0  0
  -27.6835   -2.2207   -8.5237 C   0  0  0  0  0  0  0  0  0  0  0  0
  -28.6433   -5.5019   -7.5399 C   0  0  0  0  0  0  0  0  0  0  0  0
  -28.6981   -4.3808   -8.4295 O   0  0  0  0  0  0  0  0  0  0  0  0
  -30.0957   -1.9664   -4.0306 N   0  0  0  0  0  0  0  0  0  0  0  0
  -31.0894   -1.7653   -4.0788 H   0  0  0  0  0  0  0  0  0  0  0  0
  -29.7986   -3.3431   -3.9764 C   0  0  0  0  0  0  0  0  0  0  0  0
  -28.5262   -3.7713   -3.5728 C   0  0  0  0  0  0  0  0  0  0  0  0
  -28.1744   -5.1189   -3.6118 C   0  0  0  0  0  0  0  0  0  0  0  0
  -29.1078   -6.0614   -4.0471 C   0  0  0  0  0  0  0  0  0  0  0  0
  -28.5978   -7.7084   -4.1321 Cl  0  0  0  0  0  0  0  0  0  0  0  0
  -30.3969   -5.6497   -4.4122 C   0  0  0  0  0  0  0  0  0  0  0  0
  -31.6010   -6.7648   -4.9548 Cl  0  0  0  0  0  0  0  0  0  0  0  0
  -30.7440   -4.2948   -4.3678 C   0  0  0  0  0  0  0  0  0  0  0  0
  -26.9942   -2.6137   -9.6553 O   0  0  0  0  0  0  0  0  0  0  0  0
  -26.1719   -1.5699  -10.2091 C   0  0  0  0  0  0  0  0  0  0  0  0
  -26.1769   -1.4646  -11.7133 C   0  0  0  0  0  0  0  0  0  0  0  0
  -27.2723   -1.8723  -12.4798 C   0  0  0  0  0  0  0  0  0  0  0  0
  -27.1870   -1.8458  -13.8677 C   0  0  0  0  0  0  0  0  0  0  0  0
  -28.2266   -2.2696  -14.5980 F   0  0  0  0  0  0  0  0  0  0  0  0
  -26.0361   -1.4065  -14.5161 C   0  0  0  0  0  0  0  0  0  0  0  0
  -24.9303   -0.9938  -13.7670 C   0  0  0  0  0  0  0  0  0  0  0  0
  -24.9962   -1.0598  -12.3718 C   0  0  0  0  0  0  0  0  0  0  0  0
  -23.9117   -0.7424  -11.5913 O   0  0  0  0  0  0  0  0  0  0  0  0
  -22.6918   -0.6632  -12.3308 C   0  0  0  0  0  0  0  0  0  0  0  0
  -22.8035    0.1145  -13.5133 O   0  0  0  0  0  0  0  0  0  0  0  0
  -23.6714   -0.5329  -14.4370 C   0  0  0  0  0  0  0  0  0  0  0  0
 11 12  1  0  0  0
 12  1  1  0  0  0
  1  2  1  0  0  0
  1 10  2  0  0  0
  2  3  2  0  0  0
  3  4  1  0  0  0
  3  8  1  0  0  0
  4 13  1  0  0  0
  4  5  2  0  0  0
 13 15  1  0  0  0
 13 14  1  0  0  0
 15 16  1  0  0  0
 15 22  2  0  0  0
 16 17  2  0  0  0
 17 18  1  0  0  0
 18 19  1  0  0  0
 18 20  2  0  0  0
 20 21  1  0  0  0
 20 22  1  0  0  0
  5  6  1  0  0  0
  6  7  2  0  0  0
  7  8  1  0  0  0
  8  9  2  0  0  0
  9 10  1  0  0  0
 10 23  1  0  0  0
 23 24  1  0  0  0
 24 25  1  0  0  0
 25 26  1  0  0  0
 25 31  2  0  0  0
 26 27  2  0  0  0
 27 28  1  0  0  0
 27 29  1  0  0  0
 29 30  2  0  0  0
 30 31  1  0  0  0
 30 35  1  0  0  0
 31 32  1  0  0  0
 32 33  1  0  0  0
 33 34  1  0  0  0
 34 35  1  0  0  0
M  END
> <minimizedAffinity>
-9.94831

$$$$
