CHEMBL1095036


 51 56  0  0  0  0  0  0  0  0999 V2000
  -17.2202    0.1539  -15.1869 C   0  0  0  0  0  0  0  0  0  0  0  0
  -17.4626   -0.8002  -14.2045 C   0  0  0  0  0  0  0  0  0  0  0  0
  -16.4042   -1.3412  -13.4823 C   0  0  0  0  0  0  0  0  0  0  0  0
  -15.0934   -0.8967  -13.6746 C   0  0  0  0  0  0  0  0  0  0  0  0
  -14.8587    0.1057  -14.6203 C   0  0  0  0  0  0  0  0  0  0  0  0
  -15.9206    0.6179  -15.3665 C   0  0  0  0  0  0  0  0  0  0  0  0
  -15.6671    1.5811  -16.2690 F   0  0  0  0  0  0  0  0  0  0  0  0
  -14.0044   -1.3828  -12.9199 N   0  0  0  0  0  0  0  0  0  0  0  0
  -13.6009   -2.7060  -12.8586 C   0  0  0  0  0  0  0  0  0  0  0  0
  -13.9961   -3.6321  -13.5539 O   0  0  0  0  0  0  0  0  0  0  0  0
  -13.5592   -0.7174  -12.3057 H   0  0  0  0  0  0  0  0  0  0  0  0
  -12.6215   -2.9633  -11.8212 C   0  0  0  0  0  0  0  0  0  0  0  0
  -11.2495   -2.6937  -11.8069 C   0  0  0  0  0  0  0  0  0  0  0  0
  -10.6988   -2.9836  -10.6335 N   0  0  0  0  0  0  0  0  0  0  0  0
  -11.6860   -3.5883   -9.9094 N   0  0  0  0  0  0  0  0  0  0  0  0
  -12.8905   -3.5269  -10.5827 C   0  0  0  0  0  0  0  0  0  0  0  0
  -11.3599   -4.1269   -8.6361 C   0  0  0  0  0  0  0  0  0  0  0  0
  -11.2724   -3.2580   -7.5368 C   0  0  0  0  0  0  0  0  0  0  0  0
  -10.9748   -3.7624   -6.2648 C   0  0  0  0  0  0  0  0  0  0  0  0
  -10.7312   -5.1197   -6.0875 C   0  0  0  0  0  0  0  0  0  0  0  0
  -10.7856   -5.9829   -7.1832 C   0  0  0  0  0  0  0  0  0  0  0  0
  -11.0838   -5.4826   -8.4525 C   0  0  0  0  0  0  0  0  0  0  0  0
  -14.1889   -3.8695   -9.9623 C   0  0  0  0  0  0  0  0  0  0  0  0
  -14.1803   -5.0728   -9.3353 F   0  0  0  0  0  0  0  0  0  0  0  0
  -14.5806   -2.9638   -9.0346 F   0  0  0  0  0  0  0  0  0  0  0  0
  -15.1765   -3.9585  -10.8898 F   0  0  0  0  0  0  0  0  0  0  0  0
  -18.1934    0.7053  -15.9812 O   0  0  0  0  0  0  0  0  0  0  0  0
  -22.2786    0.9177  -13.8612 C   0  0  0  0  0  0  0  0  0  0  0  0
  -22.0685    2.2820  -13.7973 C   0  0  0  0  0  0  0  0  0  0  0  0
  -20.8378    2.6838  -14.3939 C   0  0  0  0  0  0  0  0  0  0  0  0
  -20.3904    3.9646  -14.4795 N   0  0  0  0  0  0  0  0  0  0  0  0
  -19.1917    4.1234  -15.0704 C   0  0  0  0  0  0  0  0  0  0  0  0
  -18.4103    3.1028  -15.5774 C   0  0  0  0  0  0  0  0  0  0  0  0
  -18.8936    1.7971  -15.5212 C   0  0  0  0  0  0  0  0  0  0  0  0
  -20.1283    1.5994  -14.8972 C   0  0  0  0  0  0  0  0  0  0  0  0
  -20.9763    0.1345  -14.6525 S   0  0  0  0  0  0  0  0  0  0  0  0
  -25.7099   -1.2843  -12.5366 C   0  0  0  0  0  0  0  0  0  0  0  0
  -25.0155   -0.4416  -11.6566 C   0  0  0  0  0  0  0  0  0  0  0  0
  -23.8942    0.2661  -12.0890 C   0  0  0  0  0  0  0  0  0  0  0  0
  -23.4297    0.1332  -13.4030 C   0  0  0  0  0  0  0  0  0  0  0  0
  -24.1042   -0.7450  -14.2664 C   0  0  0  0  0  0  0  0  0  0  0  0
  -25.2361   -1.4377  -13.8422 C   0  0  0  0  0  0  0  0  0  0  0  0
  -26.9505   -2.0143  -12.0945 C   0  0  0  0  0  0  0  0  0  0  0  0
  -26.7796   -2.5591  -10.7466 N   0  0  0  0  0  0  0  0  0  0  0  0
  -26.8615   -3.5734  -10.7928 H   0  0  0  0  0  0  0  0  0  0  0  0
  -27.7990   -2.0126   -9.8492 C   0  0  0  0  0  0  0  0  0  0  0  0
  -27.1722   -1.5962   -8.5292 C   0  0  0  0  0  0  0  0  0  0  0  0
  -29.0407   -0.7511   -6.6468 C   0  0  0  0  0  0  0  0  0  0  0  0
  -28.1701   -2.2001   -7.1820 S   0  0  0  0  0  0  0  0  0  0  0  0
  -27.2798   -2.5981   -6.1090 O   0  0  0  0  0  0  0  0  0  0  0  0
  -29.1477   -3.1258   -7.7220 O   0  0  0  0  0  0  0  0  0  0  0  0
 48 49  1  0  0  0
 49 50  2  0  0  0
 49 51  2  0  0  0
 49 47  1  0  0  0
 47 46  1  0  0  0
 46 44  1  0  0  0
 44 43  1  0  0  0
 44 45  1  0  0  0
 43 37  1  0  0  0
 37 38  1  0  0  0
 37 42  2  0  0  0
 38 39  2  0  0  0
 39 40  1  0  0  0
 40 28  1  0  0  0
 40 41  2  0  0  0
 28 29  2  0  0  0
 28 36  1  0  0  0
 29 30  1  0  0  0
 30 31  1  0  0  0
 30 35  2  0  0  0
 31 32  2  0  0  0
 32 33  1  0  0  0
 33 34  2  0  0  0
 34 27  1  0  0  0
 34 35  1  0  0  0
 27  1  1  0  0  0
  1  2  1  0  0  0
  1  6  2  0  0  0
  2  3  2  0  0  0
  3  4  1  0  0  0
  4  8  1  0  0  0
  4  5  2  0  0  0
  8  9  1  0  0  0
  8 11  1  0  0  0
  9 10  2  0  0  0
  9 12  1  0  0  0
 12 13  1  0  0  0
 12 16  2  0  0  0
 13 14  2  0  0  0
 14 15  1  0  0  0
 15 17  1  0  0  0
 15 16  1  0  0  0
 17 18  1  0  0  0
 17 22  2  0  0  0
 18 19  2  0  0  0
 19 20  1  0  0  0
 20 21  2  0  0  0
 21 22  1  0  0  0
 16 23  1  0  0  0
 23 24  1  0  0  0
 23 25  1  0  0  0
 23 26  1  0  0  0
  5  6  1  0  0  0
  6  7  1  0  0  0
 35 36  1  0  0  0
 41 42  1  0  0  0
M  END
> <minimizedAffinity>
-8.10807

$$$$
