CHEMBL605841


 27 30  0  0  0  0  0  0  0  0999 V2000
  -29.5308   -2.7154   -2.5200 O   0  0  0  0  0  0  0  0  0  0  0  0
  -29.4635   -2.9335   -3.7298 C   0  0  0  0  0  0  0  0  0  0  0  0
  -30.5274   -3.7365   -4.4459 C   0  0  0  0  0  0  0  0  0  0  0  0
  -29.9366   -4.9536   -5.0614 C   0  0  0  0  0  0  0  0  0  0  0  0
  -30.2046   -6.2250   -4.6063 C   0  0  0  0  0  0  0  0  0  0  0  0
  -29.6357   -7.3328   -5.1089 N   0  0  0  0  0  0  0  0  0  0  0  0
  -28.7923   -7.1630   -6.1348 C   0  0  0  0  0  0  0  0  0  0  0  0
  -28.4871   -5.9589   -6.6531 N   0  0  0  0  0  0  0  0  0  0  0  0
  -29.0362   -4.8586   -6.1000 C   0  0  0  0  0  0  0  0  0  0  0  0
  -28.6127   -3.5584   -6.6650 C   0  0  0  0  0  0  0  0  0  0  0  0
  -28.4774   -3.4232   -8.0626 C   0  0  0  0  0  0  0  0  0  0  0  0
  -28.0662   -2.2224   -8.6477 C   0  0  0  0  0  0  0  0  0  0  0  0
  -27.7222   -1.1415   -7.8463 C   0  0  0  0  0  0  0  0  0  0  0  0
  -27.8039   -1.2565   -6.4611 C   0  0  0  0  0  0  0  0  0  0  0  0
  -28.2976   -2.4303   -5.8697 C   0  0  0  0  0  0  0  0  0  0  0  0
  -28.4636   -2.3702   -4.4718 N   0  0  0  0  0  0  0  0  0  0  0  0
  -27.9309   -1.6820   -3.9523 H   0  0  0  0  0  0  0  0  0  0  0  0
  -28.1866   -8.3148   -6.6322 N   0  0  0  0  0  0  0  0  0  0  0  0
  -27.7124   -8.8294   -5.9060 H   0  0  0  0  0  0  0  0  0  0  0  0
  -28.4338   -8.9749   -7.8417 C   0  0  0  0  0  0  0  0  0  0  0  0
  -27.3703   -9.2607   -8.7068 C   0  0  0  0  0  0  0  0  0  0  0  0
  -27.6039   -9.8121   -9.9725 C   0  0  0  0  0  0  0  0  0  0  0  0
  -28.9083  -10.0931  -10.3661 C   0  0  0  0  0  0  0  0  0  0  0  0
  -29.1914  -10.5930  -11.6016 O   0  0  0  0  0  0  0  0  0  0  0  0
  -29.9729   -9.8531   -9.5128 C   0  0  0  0  0  0  0  0  0  0  0  0
  -29.7340   -9.2862   -8.2633 C   0  0  0  0  0  0  0  0  0  0  0  0
  -28.3833  -10.5579  -12.1380 H   0  0  0  0  0  0  0  0  0  0  0  0
  1  2  2  0  0  0
  2  3  1  0  0  0
  2 16  1  0  0  0
  3  4  1  0  0  0
  4  5  1  0  0  0
  4  9  2  0  0  0
  5  6  2  0  0  0
  6  7  1  0  0  0
  7 18  1  0  0  0
  7  8  2  0  0  0
 18 20  1  0  0  0
 18 19  1  0  0  0
 20 21  1  0  0  0
 20 26  2  0  0  0
 21 22  2  0  0  0
 22 23  1  0  0  0
 23 24  1  0  0  0
 23 25  2  0  0  0
 24 27  1  0  0  0
 25 26  1  0  0  0
  8  9  1  0  0  0
  9 10  1  0  0  0
 10 11  1  0  0  0
 10 15  2  0  0  0
 11 12  2  0  0  0
 12 13  1  0  0  0
 13 14  2  0  0  0
 14 15  1  0  0  0
 15 16  1  0  0  0
 16 17  1  0  0  0
M  END
> <minimizedAffinity>
-8.88756

$$$$
