CHEMBL3656099


 44 47  0  0  0  0  0  0  0  0999 V2000
  -21.8843    0.6680  -14.2933 C   0  0  0  0  0  0  0  0  0  0  0  0
  -22.6552    1.7458  -13.8696 C   0  0  0  0  0  0  0  0  0  0  0  0
  -22.1097    3.0127  -13.9675 C   0  0  0  0  0  0  0  0  0  0  0  0
  -20.8557    3.2628  -14.4023 N   0  0  0  0  0  0  0  0  0  0  0  0
  -20.1037    2.1909  -14.7520 C   0  0  0  0  0  0  0  0  0  0  0  0
  -20.5742    0.8853  -14.7083 C   0  0  0  0  0  0  0  0  0  0  0  0
  -18.7472    2.5185  -15.1794 C   0  0  0  0  0  0  0  0  0  0  0  0
  -17.6600    1.7223  -15.4930 C   0  0  0  0  0  0  0  0  0  0  0  0
  -16.5497    2.5551  -15.8315 C   0  0  0  0  0  0  0  0  0  0  0  0
  -17.0162    3.8549  -15.7232 C   0  0  0  0  0  0  0  0  0  0  0  0
  -18.3281    3.8225  -15.3352 N   0  0  0  0  0  0  0  0  0  0  0  0
  -18.9285    4.6218  -15.1711 H   0  0  0  0  0  0  0  0  0  0  0  0
  -15.1838    2.1915  -16.2093 C   0  0  0  0  0  0  0  0  0  0  0  0
  -14.9310    1.2296  -16.9285 O   0  0  0  0  0  0  0  0  0  0  0  0
  -14.2055    3.0230  -15.7064 N   0  0  0  0  0  0  0  0  0  0  0  0
  -14.4624    3.8011  -15.1158 H   0  0  0  0  0  0  0  0  0  0  0  0
  -12.8034    2.8348  -15.9955 C   0  0  0  0  0  0  0  0  0  0  0  0
  -12.0410    2.2377  -14.8099 C   0  0  0  0  0  0  0  0  0  0  0  0
  -11.8750    3.1916  -13.6296 C   0  0  0  0  0  0  0  0  0  0  0  0
  -12.5184    2.6523  -12.3793 C   0  0  0  0  0  0  0  0  0  0  0  0
  -13.1512    1.6079  -12.3431 O   0  0  0  0  0  0  0  0  0  0  0  0
  -12.2898    3.4066  -11.2834 O   0  0  0  0  0  0  0  0  0  0  0  0
  -11.7637    4.2115  -11.4510 H   0  0  0  0  0  0  0  0  0  0  0  0
  -22.3154   -0.6404  -14.2763 O   0  0  0  0  0  0  0  0  0  0  0  0
  -25.8067   -1.6612  -12.2164 C   0  0  0  0  0  0  0  0  0  0  0  0
  -25.8512   -1.5232  -13.6084 C   0  0  0  0  0  0  0  0  0  0  0  0
  -24.7000   -1.1990  -14.3260 C   0  0  0  0  0  0  0  0  0  0  0  0
  -23.5033   -0.9549  -13.6514 C   0  0  0  0  0  0  0  0  0  0  0  0
  -23.4566   -1.0957  -12.2605 C   0  0  0  0  0  0  0  0  0  0  0  0
  -24.6117   -1.4226  -11.5375 C   0  0  0  0  0  0  0  0  0  0  0  0
  -28.0680   -2.5632   -9.5350 N   0  0  0  0  0  0  0  0  0  0  0  0
  -26.9570   -1.9887  -10.1228 C   0  0  0  0  0  0  0  0  0  0  0  0
  -26.0819   -1.3702   -9.5231 O   0  0  0  0  0  0  0  0  0  0  0  0
  -26.9494   -2.1137  -11.5078 N   0  0  0  0  0  0  0  0  0  0  0  0
  -28.8055   -2.8673  -10.1555 H   0  0  0  0  0  0  0  0  0  0  0  0
  -27.8413   -1.9226  -11.9381 H   0  0  0  0  0  0  0  0  0  0  0  0
  -27.8457   -0.1003   -5.2465 C   0  0  0  0  0  0  0  0  0  0  0  0
  -28.2026   -1.3408   -6.0156 C   0  0  0  0  0  0  0  0  0  0  0  0
  -28.7081   -2.4544   -5.3383 C   0  0  0  0  0  0  0  0  0  0  0  0
  -29.0725   -3.5909   -6.0493 C   0  0  0  0  0  0  0  0  0  0  0  0
  -28.9155   -3.6309   -7.4342 C   0  0  0  0  0  0  0  0  0  0  0  0
  -29.4249   -4.7060   -8.0485 F   0  0  0  0  0  0  0  0  0  0  0  0
  -28.3459   -2.5581   -8.1384 C   0  0  0  0  0  0  0  0  0  0  0  0
  -28.0265   -1.3990   -7.4145 C   0  0  0  0  0  0  0  0  0  0  0  0
 37 38  1  0  0  0
 38 39  1  0  0  0
 38 44  2  0  0  0
 39 40  2  0  0  0
 40 41  1  0  0  0
 41 42  1  0  0  0
 41 43  2  0  0  0
 43 31  1  0  0  0
 43 44  1  0  0  0
 31 32  1  0  0  0
 31 35  1  0  0  0
 32 33  2  0  0  0
 32 34  1  0  0  0
 34 25  1  0  0  0
 34 36  1  0  0  0
 25 26  1  0  0  0
 25 30  2  0  0  0
 26 27  2  0  0  0
 27 28  1  0  0  0
 28 24  1  0  0  0
 28 29  2  0  0  0
 24  1  1  0  0  0
  1  2  1  0  0  0
  1  6  2  0  0  0
  2  3  2  0  0  0
  3  4  1  0  0  0
  4  5  2  0  0  0
  5  7  1  0  0  0
  5  6  1  0  0  0
  7  8  2  0  0  0
  7 11  1  0  0  0
  8  9  1  0  0  0
  9 13  1  0  0  0
  9 10  2  0  0  0
 13 14  2  0  0  0
 13 15  1  0  0  0
 15 17  1  0  0  0
 15 16  1  0  0  0
 17 18  1  0  0  0
 18 19  1  0  0  0
 19 20  1  0  0  0
 20 21  2  0  0  0
 20 22  1  0  0  0
 22 23  1  0  0  0
 10 11  1  0  0  0
 11 12  1  0  0  0
 29 30  1  0  0  0
M  END
> <minimizedAffinity>
-12.11423

$$$$
