CHEMBL279574


 24 26  0  0  0  0  0  0  0  0999 V2000
  -16.2234    1.1229  -15.0207 C   0  0  0  0  0  0  0  0  0  0  0  0
  -15.0246    1.6699  -15.2450 N   0  0  0  0  0  0  0  0  0  0  0  0
  -13.9646    1.0433  -14.6979 C   0  0  0  0  0  0  0  0  0  0  0  0
  -14.0447   -0.1202  -13.9584 C   0  0  0  0  0  0  0  0  0  0  0  0
  -15.3066   -0.6610  -13.8056 C   0  0  0  0  0  0  0  0  0  0  0  0
  -16.3832   -0.0297  -14.3423 N   0  0  0  0  0  0  0  0  0  0  0  0
  -15.6415   -1.8893  -13.0235 C   0  0  0  0  0  0  0  0  0  0  0  0
  -15.9698   -3.0944  -13.6806 C   0  0  0  0  0  0  0  0  0  0  0  0
  -16.3479   -4.2484  -12.9821 C   0  0  0  0  0  0  0  0  0  0  0  0
  -16.4093   -4.2307  -11.5956 C   0  0  0  0  0  0  0  0  0  0  0  0
  -16.0558   -3.0735  -10.9128 C   0  0  0  0  0  0  0  0  0  0  0  0
  -15.6559   -1.9299  -11.6171 C   0  0  0  0  0  0  0  0  0  0  0  0
  -17.3202    1.8358  -15.5083 N   0  0  0  0  0  0  0  0  0  0  0  0
  -17.0029    2.7114  -15.9021 H   0  0  0  0  0  0  0  0  0  0  0  0
  -21.3872    1.8801  -14.3191 C   0  0  0  0  0  0  0  0  0  0  0  0
  -20.8221    0.7217  -14.8349 C   0  0  0  0  0  0  0  0  0  0  0  0
  -19.4782    0.7048  -15.2063 C   0  0  0  0  0  0  0  0  0  0  0  0
  -18.6561    1.8258  -15.0761 C   0  0  0  0  0  0  0  0  0  0  0  0
  -19.2371    2.9933  -14.5654 C   0  0  0  0  0  0  0  0  0  0  0  0
  -20.5867    3.0156  -14.1808 C   0  0  0  0  0  0  0  0  0  0  0  0
  -23.2882    0.8566  -13.3470 C   0  0  0  0  0  0  0  0  0  0  0  0
  -22.6909    2.0127  -13.9278 O   0  0  0  0  0  0  0  0  0  0  0  0
  -12.8511   -0.6378  -13.3813 C   0  0  0  0  0  0  0  0  0  0  0  0
  -11.8658   -1.0280  -12.9039 N   0  0  0  0  0  0  0  0  0  0  0  0
 21 22  1  0  0  0
 22 15  1  0  0  0
 15 16  1  0  0  0
 15 20  2  0  0  0
 16 17  2  0  0  0
 17 18  1  0  0  0
 18 13  1  0  0  0
 18 19  2  0  0  0
 13  1  1  0  0  0
 13 14  1  0  0  0
  1  2  1  0  0  0
  1  6  2  0  0  0
  2  3  2  0  0  0
  3  4  1  0  0  0
  4 23  1  0  0  0
  4  5  2  0  0  0
 23 24  3  0  0  0
  5  7  1  0  0  0
  5  6  1  0  0  0
  7  8  1  0  0  0
  7 12  2  0  0  0
  8  9  2  0  0  0
  9 10  1  0  0  0
 10 11  2  0  0  0
 11 12  1  0  0  0
 19 20  1  0  0  0
M  END
> <minimizedAffinity>
-8.24185

$$$$
