CHEMBL3897523


 36 40  0  0  0  0  0  0  0  0999 V2000
  -27.9291   -2.1528   -9.0216 N   0  0  0  0  0  0  0  0  0  0  0  0
  -27.0206   -1.8290  -10.0949 C   0  0  0  0  0  0  0  0  0  0  0  0
  -25.8348   -1.2759   -9.7417 C   0  0  0  0  0  0  0  0  0  0  0  0
  -25.0594   -0.8317  -10.7530 C   0  0  0  0  0  0  0  0  0  0  0  0
  -25.3452   -0.7999  -12.0813 C   0  0  0  0  0  0  0  0  0  0  0  0
  -24.8719    0.3181  -12.4603 N   0  0  0  0  0  0  0  0  0  0  0  0
  -23.6336    0.1700  -12.7758 C   0  0  0  0  0  0  0  0  0  0  0  0
  -23.4982   -0.2661  -13.9777 C   0  0  0  0  0  0  0  0  0  0  0  0
  -24.9468   -1.0287  -14.2344 N   0  0  0  0  0  0  0  0  0  0  0  0
  -26.0890   -1.4872  -12.9560 C   0  0  0  0  0  0  0  0  0  0  0  0
  -27.2137   -1.9286  -11.6323 C   0  0  0  0  0  0  0  0  0  0  0  0
  -22.0141    0.6834  -14.4664 C   0  0  0  0  0  0  0  0  0  0  0  0
  -21.4195    2.1980  -14.2963 C   0  0  0  0  0  0  0  0  0  0  0  0
  -20.0963    2.3792  -14.6168 N   0  0  0  0  0  0  0  0  0  0  0  0
  -19.6360    1.1548  -14.9194 N   0  0  0  0  0  0  0  0  0  0  0  0
  -18.1830    0.9350  -15.2596 C   0  0  0  0  0  0  0  0  0  0  0  0
  -20.7334    0.2076  -14.7806 C   0  0  0  0  0  0  0  0  0  0  0  0
  -28.7152    0.5626   -6.4817 C   0  0  0  0  0  0  0  0  0  0  0  0
  -28.2933   -0.0326   -5.3402 C   0  0  0  0  0  0  0  0  0  0  0  0
  -27.7178   -1.2966   -5.3782 C   0  0  0  0  0  0  0  0  0  0  0  0
  -27.5706   -1.9905   -6.5891 C   0  0  0  0  0  0  0  0  0  0  0  0
  -28.0227   -1.4624   -7.7778 C   0  0  0  0  0  0  0  0  0  0  0  0
  -28.4530   -0.1242   -7.6632 C   0  0  0  0  0  0  0  0  0  0  0  0
  -30.8047    1.6711   -6.4792 C   0  0  0  0  0  0  0  0  0  0  0  0
  -29.3808    1.7507   -6.5552 O   0  0  0  0  0  0  0  0  0  0  0  0
  -27.3134   -1.9573   -4.2543 O   0  0  0  0  0  0  0  0  0  0  0  0
  -28.3730   -2.5902   -3.5430 C   0  0  0  0  0  0  0  0  0  0  0  0
  -28.4499   -3.6379   -9.0181 C   0  0  0  0  0  0  0  0  0  0  0  0
  -29.1339   -4.1764   -7.7498 C   0  0  0  0  0  0  0  0  0  0  0  0
  -29.5122   -4.6686   -6.7030 C   0  0  0  0  0  0  0  0  0  0  0  0
  -29.7845   -5.3387   -5.4151 C   0  0  0  0  0  0  0  0  0  0  0  0
  -28.8319   -6.2141   -4.9188 C   0  0  0  0  0  0  0  0  0  0  0  0
  -29.1654   -7.0659   -3.8737 C   0  0  0  0  0  0  0  0  0  0  0  0
  -30.2698   -6.9367   -3.1145 N   0  0  0  0  0  0  0  0  0  0  0  0
  -31.0956   -5.9300   -3.4568 C   0  0  0  0  0  0  0  0  0  0  0  0
  -30.9484   -5.1806   -4.6353 C   0  0  0  0  0  0  0  0  0  0  0  0
 24 25  1  0  0  0
 25 18  1  0  0  0
 18 19  1  0  0  0
 18 23  2  0  0  0
 19 20  2  0  0  0
 20 26  1  0  0  0
 20 21  1  0  0  0
 26 27  1  0  0  0
 21 22  2  0  0  0
 22  1  1  0  0  0
 22 23  1  0  0  0
  1 28  1  0  0  0
  1  2  1  0  0  0
 28 29  1  0  0  0
 29 30  3  0  0  0
 30 31  1  0  0  0
 31 32  1  0  0  0
 31 36  2  0  0  0
 32 33  2  0  0  0
 33 34  1  0  0  0
 34 35  2  0  0  0
 35 36  1  0  0  0
  2  3  1  0  0  0
  2 11  2  0  0  0
  3  4  2  0  0  0
  4  5  1  0  0  0
  5  6  1  0  0  0
  5 10  2  0  0  0
  6  7  2  0  0  0
  7  8  1  0  0  0
  8 12  1  0  0  0
  8  9  2  0  0  0
 12 13  1  0  0  0
 12 17  2  0  0  0
 13 14  2  0  0  0
 14 15  1  0  0  0
 15 16  1  0  0  0
 15 17  1  0  0  0
  9 10  1  0  0  0
 10 11  1  0  0  0
M  END
> <minimizedAffinity>
-8.63814

$$$$
