CHEMBL3740385


 43 48  0  0  0  0  0  0  0  0999 V2000
  -11.8526   -4.0415  -12.4744 C   0  0  0  0  0  0  0  0  0  0  0  0
  -11.7690   -3.4388  -11.2386 C   0  0  0  0  0  0  0  0  0  0  0  0
  -11.9517   -4.4125  -10.2932 N   0  0  0  0  0  0  0  0  0  0  0  0
  -12.5084   -5.5227  -10.8382 N   0  0  0  0  0  0  0  0  0  0  0  0
  -12.4956   -5.2906  -12.1719 C   0  0  0  0  0  0  0  0  0  0  0  0
  -11.6303   -4.3253   -8.9090 C   0  0  0  0  0  0  0  0  0  0  0  0
  -11.7802   -3.1143   -8.2102 C   0  0  0  0  0  0  0  0  0  0  0  0
  -11.4837   -3.0461   -6.8449 C   0  0  0  0  0  0  0  0  0  0  0  0
  -11.0264   -4.1816   -6.1803 C   0  0  0  0  0  0  0  0  0  0  0  0
  -10.6968   -4.1003   -4.4939 Cl  0  0  0  0  0  0  0  0  0  0  0  0
  -10.8400   -5.3761   -6.8708 C   0  0  0  0  0  0  0  0  0  0  0  0
  -11.1348   -5.4499   -8.2360 C   0  0  0  0  0  0  0  0  0  0  0  0
  -13.1405   -6.2383  -13.1179 C   0  0  0  0  0  0  0  0  0  0  0  0
  -13.9382   -7.0853  -12.7395 O   0  0  0  0  0  0  0  0  0  0  0  0
  -12.7208   -6.0739  -14.4304 N   0  0  0  0  0  0  0  0  0  0  0  0
  -12.0543   -5.3199  -14.5674 H   0  0  0  0  0  0  0  0  0  0  0  0
  -13.0485   -6.8951  -15.5328 C   0  0  0  0  0  0  0  0  0  0  0  0
  -12.9035   -8.2854  -15.5342 C   0  0  0  0  0  0  0  0  0  0  0  0
  -13.1924   -9.0363  -16.6726 C   0  0  0  0  0  0  0  0  0  0  0  0
  -13.6280   -8.4188  -17.8363 C   0  0  0  0  0  0  0  0  0  0  0  0
  -13.7833   -7.0350  -17.8516 C   0  0  0  0  0  0  0  0  0  0  0  0
  -13.5085   -6.2802  -16.7074 C   0  0  0  0  0  0  0  0  0  0  0  0
  -11.6390   -3.4261  -13.7802 C   0  0  0  0  0  0  0  0  0  0  0  0
  -10.8447   -3.9807  -14.5250 O   0  0  0  0  0  0  0  0  0  0  0  0
  -10.7179   -0.6644  -15.6309 C   0  0  0  0  0  0  0  0  0  0  0  0
  -11.9772   -1.1046  -14.9688 C   0  0  0  0  0  0  0  0  0  0  0  0
  -13.0243   -0.2260  -15.0537 N   0  0  0  0  0  0  0  0  0  0  0  0
  -14.1663   -0.7016  -14.4720 C   0  0  0  0  0  0  0  0  0  0  0  0
  -13.8422   -1.9607  -13.9486 C   0  0  0  0  0  0  0  0  0  0  0  0
  -12.4016   -2.2124  -14.2199 C   0  0  0  0  0  0  0  0  0  0  0  0
  -12.9673    0.6755  -15.5069 H   0  0  0  0  0  0  0  0  0  0  0  0
  -15.3894    0.1280  -14.5095 C   0  0  0  0  0  0  0  0  0  0  0  0
  -16.1244    0.3745  -13.3347 C   0  0  0  0  0  0  0  0  0  0  0  0
  -17.2565    1.1946  -13.3490 C   0  0  0  0  0  0  0  0  0  0  0  0
  -17.6561    1.8054  -14.5332 C   0  0  0  0  0  0  0  0  0  0  0  0
  -16.9510    1.5614  -15.7080 C   0  0  0  0  0  0  0  0  0  0  0  0
  -15.8490    0.7017  -15.7007 C   0  0  0  0  0  0  0  0  0  0  0  0
  -14.8525   -2.8247  -13.2926 C   0  0  0  0  0  0  0  0  0  0  0  0
  -15.1421   -2.6941  -11.9223 C   0  0  0  0  0  0  0  0  0  0  0  0
  -16.0378   -3.5577  -11.2783 C   0  0  0  0  0  0  0  0  0  0  0  0
  -16.7481   -4.4996  -12.0142 C   0  0  0  0  0  0  0  0  0  0  0  0
  -16.5132   -4.6160  -13.3780 C   0  0  0  0  0  0  0  0  0  0  0  0
  -15.5306   -3.8299  -13.9912 C   0  0  0  0  0  0  0  0  0  0  0  0
 25 26  1  0  0  0
 26 27  1  0  0  0
 26 30  2  0  0  0
 27 28  1  0  0  0
 27 31  1  0  0  0
 28 32  1  0  0  0
 28 29  2  0  0  0
 32 33  1  0  0  0
 32 37  2  0  0  0
 33 34  2  0  0  0
 34 35  1  0  0  0
 35 36  2  0  0  0
 36 37  1  0  0  0
 29 38  1  0  0  0
 29 30  1  0  0  0
 38 39  1  0  0  0
 38 43  2  0  0  0
 39 40  2  0  0  0
 40 41  1  0  0  0
 41 42  2  0  0  0
 42 43  1  0  0  0
 30 23  1  0  0  0
 23 24  2  0  0  0
 23  1  1  0  0  0
  1  2  2  0  0  0
  1  5  1  0  0  0
  2  3  1  0  0  0
  3  6  1  0  0  0
  3  4  1  0  0  0
  6  7  1  0  0  0
  6 12  2  0  0  0
  7  8  2  0  0  0
  8  9  1  0  0  0
  9 10  1  0  0  0
  9 11  2  0  0  0
 11 12  1  0  0  0
  4  5  2  0  0  0
  5 13  1  0  0  0
 13 14  2  0  0  0
 13 15  1  0  0  0
 15 17  1  0  0  0
 15 16  1  0  0  0
 17 18  1  0  0  0
 17 22  2  0  0  0
 18 19  2  0  0  0
 19 20  1  0  0  0
 20 21  2  0  0  0
 21 22  1  0  0  0
M  END
> <minimizedAffinity>
-8.25311

$$$$
