CHEMBL3972427


 34 37  0  0  0  0  0  0  0  0999 V2000
  -29.8341   -9.2561   -6.2755 C   0  0  0  0  0  0  0  0  0  0  0  0
  -30.7519   -8.3849   -6.8830 C   0  0  0  0  0  0  0  0  0  0  0  0
  -30.7985   -7.0148   -6.5481 C   0  0  0  0  0  0  0  0  0  0  0  0
  -30.0198   -6.5687   -5.4654 C   0  0  0  0  0  0  0  0  0  0  0  0
  -29.5433   -5.3339   -4.8923 C   0  0  0  0  0  0  0  0  0  0  0  0
  -29.2823   -5.5573   -3.5928 N   0  0  0  0  0  0  0  0  0  0  0  0
  -28.9047   -6.8342   -3.6159 N   0  0  0  0  0  0  0  0  0  0  0  0
  -29.3021   -7.5071   -4.7406 C   0  0  0  0  0  0  0  0  0  0  0  0
  -29.0946   -8.8228   -5.1696 C   0  0  0  0  0  0  0  0  0  0  0  0
  -28.3804   -7.1993   -2.8221 H   0  0  0  0  0  0  0  0  0  0  0  0
  -28.7071   -4.3334   -5.5307 C   0  0  0  0  0  0  0  0  0  0  0  0
  -28.0826   -3.3601   -4.8404 C   0  0  0  0  0  0  0  0  0  0  0  0
  -28.0045   -1.9575   -5.3122 C   0  0  0  0  0  0  0  0  0  0  0  0
  -28.5233   -0.9425   -4.5135 C   0  0  0  0  0  0  0  0  0  0  0  0
  -28.6687    0.3375   -5.0497 C   0  0  0  0  0  0  0  0  0  0  0  0
  -28.3073    0.5701   -6.3717 C   0  0  0  0  0  0  0  0  0  0  0  0
  -27.8003   -0.4948   -7.0967 C   0  0  0  0  0  0  0  0  0  0  0  0
  -27.6357   -1.7430   -6.5965 N   0  0  0  0  0  0  0  0  0  0  0  0
  -29.6510  -10.9637   -6.8070 S   0  0  0  0  0  0  0  0  0  0  0  0
  -27.2202  -10.7655   -8.2819 C   0  0  0  0  0  0  0  0  0  0  0  0
  -26.5362  -10.5598   -9.5013 C   0  0  0  0  0  0  0  0  0  0  0  0
  -27.2255  -10.4656  -10.7081 C   0  0  0  0  0  0  0  0  0  0  0  0
  -28.6091  -10.5882  -10.7139 C   0  0  0  0  0  0  0  0  0  0  0  0
  -29.2990  -10.7506   -9.5067 C   0  0  0  0  0  0  0  0  0  0  0  0
  -28.6311  -10.8041   -8.2775 C   0  0  0  0  0  0  0  0  0  0  0  0
  -26.2604  -12.1465   -6.6217 O   0  0  0  0  0  0  0  0  0  0  0  0
  -26.3402  -11.0219   -7.1104 C   0  0  0  0  0  0  0  0  0  0  0  0
  -25.7271   -9.9377   -6.5440 N   0  0  0  0  0  0  0  0  0  0  0  0
  -25.6828   -9.0588   -7.0566 H   0  0  0  0  0  0  0  0  0  0  0  0
  -24.9355  -10.0761   -5.3162 C   0  0  0  0  0  0  0  0  0  0  0  0
  -25.5470   -9.4788   -4.0448 C   0  0  0  0  0  0  0  0  0  0  0  0
  -26.6353  -10.1574   -3.6223 F   0  0  0  0  0  0  0  0  0  0  0  0
  -24.6413   -9.5178   -3.0348 F   0  0  0  0  0  0  0  0  0  0  0  0
  -25.8983   -8.1858   -4.2147 F   0  0  0  0  0  0  0  0  0  0  0  0
 26 27  2  0  0  0
 27 28  1  0  0  0
 27 20  1  0  0  0
 28 30  1  0  0  0
 28 29  1  0  0  0
 30 31  1  0  0  0
 31 32  1  0  0  0
 31 33  1  0  0  0
 31 34  1  0  0  0
 20 21  1  0  0  0
 20 25  2  0  0  0
 21 22  2  0  0  0
 22 23  1  0  0  0
 23 24  2  0  0  0
 24 25  1  0  0  0
 25 19  1  0  0  0
 19  1  1  0  0  0
  1  2  1  0  0  0
  1  9  2  0  0  0
  2  3  2  0  0  0
  3  4  1  0  0  0
  4  5  1  0  0  0
  4  8  2  0  0  0
  5 11  1  0  0  0
  5  6  2  0  0  0
 11 12  2  0  0  0
 12 13  1  0  0  0
 13 14  1  0  0  0
 13 18  2  0  0  0
 14 15  2  0  0  0
 15 16  1  0  0  0
 16 17  2  0  0  0
 17 18  1  0  0  0
  6  7  1  0  0  0
  7  8  1  0  0  0
  7 10  1  0  0  0
  8  9  1  0  0  0
M  END
> <minimizedAffinity>
-8.89924

$$$$
