CHEMBL4211614


 49 54  0  0  0  0  0  0  0  0999 V2000
  -27.5678   -2.0671   -9.3123 C   0  0  0  0  0  0  0  0  0  0  0  0
  -27.5556   -3.4588   -9.4413 C   0  0  0  0  0  0  0  0  0  0  0  0
  -27.9141   -4.2838   -8.3680 C   0  0  0  0  0  0  0  0  0  0  0  0
  -28.4008   -3.7229   -7.1903 C   0  0  0  0  0  0  0  0  0  0  0  0
  -28.5430   -2.3399   -7.0940 C   0  0  0  0  0  0  0  0  0  0  0  0
  -28.0905   -1.5264   -8.1345 C   0  0  0  0  0  0  0  0  0  0  0  0
  -28.1586   -0.1952   -7.9789 F   0  0  0  0  0  0  0  0  0  0  0  0
  -28.8304   -4.5178   -6.1225 N   0  0  0  0  0  0  0  0  0  0  0  0
  -29.8024   -5.5009   -6.2068 C   0  0  0  0  0  0  0  0  0  0  0  0
  -30.4021   -5.8835   -7.2011 O   0  0  0  0  0  0  0  0  0  0  0  0
  -28.2891   -4.4716   -5.2647 H   0  0  0  0  0  0  0  0  0  0  0  0
  -30.0945   -6.1049   -4.8763 C   0  0  0  0  0  0  0  0  0  0  0  0
  -31.6339   -5.9830   -4.7045 C   0  0  0  0  0  0  0  0  0  0  0  0
  -30.8491   -5.7195   -3.5381 C   0  0  0  0  0  0  0  0  0  0  0  0
  -28.8273   -6.6082   -4.2649 C   0  0  0  0  0  0  0  0  0  0  0  0
  -27.9895   -5.8361   -3.8334 O   0  0  0  0  0  0  0  0  0  0  0  0
  -28.8053   -7.9943   -4.3293 N   0  0  0  0  0  0  0  0  0  0  0  0
  -29.6493   -8.4253   -4.7066 H   0  0  0  0  0  0  0  0  0  0  0  0
  -27.7635   -8.8810   -4.0493 C   0  0  0  0  0  0  0  0  0  0  0  0
  -26.4120   -8.5436   -4.1828 C   0  0  0  0  0  0  0  0  0  0  0  0
  -25.4320   -9.5054   -3.9422 C   0  0  0  0  0  0  0  0  0  0  0  0
  -25.8027  -10.7939   -3.5745 C   0  0  0  0  0  0  0  0  0  0  0  0
  -24.8613  -11.7216   -3.3735 F   0  0  0  0  0  0  0  0  0  0  0  0
  -27.1408  -11.1390   -3.4177 C   0  0  0  0  0  0  0  0  0  0  0  0
  -28.1241  -10.1771   -3.6474 C   0  0  0  0  0  0  0  0  0  0  0  0
  -27.1730   -1.1696  -10.2717 O   0  0  0  0  0  0  0  0  0  0  0  0
  -24.2723   -0.3815  -10.9473 C   0  0  0  0  0  0  0  0  0  0  0  0
  -24.8172   -0.7383  -12.2995 C   0  0  0  0  0  0  0  0  0  0  0  0
  -24.1266   -0.6430  -13.5103 C   0  0  0  0  0  0  0  0  0  0  0  0
  -25.0914   -1.2045  -14.8190 S   0  0  0  0  0  0  0  0  0  0  0  0
  -26.4118   -1.5345  -13.8176 C   0  0  0  0  0  0  0  0  0  0  0  0
  -27.5422   -2.0257  -14.3567 N   0  0  0  0  0  0  0  0  0  0  0  0
  -28.4969   -2.2059  -13.4425 C   0  0  0  0  0  0  0  0  0  0  0  0
  -28.4212   -1.9561  -12.1278 N   0  0  0  0  0  0  0  0  0  0  0  0
  -27.2503   -1.4927  -11.6260 C   0  0  0  0  0  0  0  0  0  0  0  0
  -26.1715   -1.2408  -12.4791 C   0  0  0  0  0  0  0  0  0  0  0  0
  -22.7657   -0.1605  -13.7656 C   0  0  0  0  0  0  0  0  0  0  0  0
  -21.8039   -0.8903  -13.9811 O   0  0  0  0  0  0  0  0  0  0  0  0
  -22.5963    1.2081  -13.7407 N   0  0  0  0  0  0  0  0  0  0  0  0
  -23.4067    1.7774  -13.5269 H   0  0  0  0  0  0  0  0  0  0  0  0
  -21.3067    1.8441  -13.9339 C   0  0  0  0  0  0  0  0  0  0  0  0
  -20.7963    1.5236  -15.3284 C   0  0  0  0  0  0  0  0  0  0  0  0
  -19.3296    1.0796  -15.3803 C   0  0  0  0  0  0  0  0  0  0  0  0
  -18.5107    1.9578  -14.5307 N   0  0  0  0  0  0  0  0  0  0  0  0
  -18.0070    3.1701  -15.2123 C   0  0  0  0  0  0  0  0  0  0  0  0
  -16.8075    2.9086  -16.1293 C   0  0  0  0  0  0  0  0  0  0  0  0
  -15.7184    2.3768  -15.3712 O   0  0  0  0  0  0  0  0  0  0  0  0
  -16.0971    1.1368  -14.7624 C   0  0  0  0  0  0  0  0  0  0  0  0
  -17.3683    1.2635  -13.8983 C   0  0  0  0  0  0  0  0  0  0  0  0
 27 28  1  0  0  0
 28 29  2  0  0  0
 28 36  1  0  0  0
 29 37  1  0  0  0
 29 30  1  0  0  0
 37 38  2  0  0  0
 37 39  1  0  0  0
 39 41  1  0  0  0
 39 40  1  0  0  0
 41 42  1  0  0  0
 42 43  1  0  0  0
 43 44  1  0  0  0
 44 45  1  0  0  0
 44 49  1  0  0  0
 45 46  1  0  0  0
 46 47  1  0  0  0
 47 48  1  0  0  0
 48 49  1  0  0  0
 30 31  1  0  0  0
 31 32  1  0  0  0
 31 36  2  0  0  0
 32 33  2  0  0  0
 33 34  1  0  0  0
 34 35  2  0  0  0
 35 26  1  0  0  0
 35 36  1  0  0  0
 26  1  1  0  0  0
  1  2  1  0  0  0
  1  6  2  0  0  0
  2  3  2  0  0  0
  3  4  1  0  0  0
  4  8  1  0  0  0
  4  5  2  0  0  0
  8  9  1  0  0  0
  8 11  1  0  0  0
  9 10  2  0  0  0
  9 12  1  0  0  0
 12 15  1  0  0  0
 12 13  1  0  0  0
 12 14  1  0  0  0
 15 16  2  0  0  0
 15 17  1  0  0  0
 17 19  1  0  0  0
 17 18  1  0  0  0
 19 20  1  0  0  0
 19 25  2  0  0  0
 20 21  2  0  0  0
 21 22  1  0  0  0
 22 23  1  0  0  0
 22 24  2  0  0  0
 24 25  1  0  0  0
 13 14  1  0  0  0
  5  6  1  0  0  0
  6  7  1  0  0  0
M  END
> <minimizedAffinity>
-8.27553

$$$$
