CHEMBL566621


 32 35  0  0  0  0  0  0  0  0999 V2000
  -28.0241   -2.2861   -8.5628 C   0  0  0  0  0  0  0  0  0  0  0  0
  -28.4659   -3.5294   -8.1096 C   0  0  0  0  0  0  0  0  0  0  0  0
  -28.6030   -3.7796   -6.7438 C   0  0  0  0  0  0  0  0  0  0  0  0
  -28.2939   -2.7874   -5.8171 C   0  0  0  0  0  0  0  0  0  0  0  0
  -27.7278   -1.5936   -6.2682 C   0  0  0  0  0  0  0  0  0  0  0  0
  -27.3239   -0.6493   -5.4053 F   0  0  0  0  0  0  0  0  0  0  0  0
  -27.6082   -1.3301   -7.6311 C   0  0  0  0  0  0  0  0  0  0  0  0
  -26.8580   -1.6854  -10.6809 C   0  0  0  0  0  0  0  0  0  0  0  0
  -25.6995   -1.7010  -10.2581 O   0  0  0  0  0  0  0  0  0  0  0  0
  -27.9848   -1.9381   -9.9242 N   0  0  0  0  0  0  0  0  0  0  0  0
  -28.8621   -2.0438  -10.4428 H   0  0  0  0  0  0  0  0  0  0  0  0
  -27.0869   -1.3248  -12.1331 C   0  0  0  0  0  0  0  0  0  0  0  0
  -25.7090   -1.8384  -14.0054 O   0  0  0  0  0  0  0  0  0  0  0  0
  -25.8580   -1.1613  -12.9908 C   0  0  0  0  0  0  0  0  0  0  0  0
  -24.9773   -0.2051  -12.5236 N   0  0  0  0  0  0  0  0  0  0  0  0
  -25.1214    0.1608  -11.5884 H   0  0  0  0  0  0  0  0  0  0  0  0
  -23.7799    0.1876  -13.1629 C   0  0  0  0  0  0  0  0  0  0  0  0
  -22.8313   -0.7257  -13.6308 C   0  0  0  0  0  0  0  0  0  0  0  0
  -21.6367   -0.2791  -14.2041 C   0  0  0  0  0  0  0  0  0  0  0  0
  -21.3905    1.0828  -14.3249 C   0  0  0  0  0  0  0  0  0  0  0  0
  -22.3467    2.0018  -13.8954 C   0  0  0  0  0  0  0  0  0  0  0  0
  -23.5430    1.5542  -13.3266 C   0  0  0  0  0  0  0  0  0  0  0  0
  -28.5402   -3.1114   -4.5069 O   0  0  0  0  0  0  0  0  0  0  0  0
  -29.5512   -3.9877   -4.1866 C   0  0  0  0  0  0  0  0  0  0  0  0
  -30.8792   -3.6261   -3.9574 C   0  0  0  0  0  0  0  0  0  0  0  0
  -31.7798   -4.5961   -3.5613 C   0  0  0  0  0  0  0  0  0  0  0  0
  -31.5070   -5.9069   -3.4392 N   0  0  0  0  0  0  0  0  0  0  0  0
  -30.2386   -6.2741   -3.7646 C   0  0  0  0  0  0  0  0  0  0  0  0
  -29.7530   -7.6139   -3.7574 C   0  0  0  0  0  0  0  0  0  0  0  0
  -28.4410   -7.7015   -4.1608 C   0  0  0  0  0  0  0  0  0  0  0  0
  -27.7743   -6.1679   -4.5049 S   0  0  0  0  0  0  0  0  0  0  0  0
  -29.2549   -5.3608   -4.1429 C   0  0  0  0  0  0  0  0  0  0  0  0
 13 14  2  0  0  0
 14 12  1  0  0  0
 14 15  1  0  0  0
 12  8  1  0  0  0
  8  9  2  0  0  0
  8 10  1  0  0  0
 10  1  1  0  0  0
 10 11  1  0  0  0
  1  2  1  0  0  0
  1  7  2  0  0  0
  2  3  2  0  0  0
  3  4  1  0  0  0
  4 23  1  0  0  0
  4  5  2  0  0  0
 23 24  1  0  0  0
 24 25  1  0  0  0
 24 32  2  0  0  0
 25 26  2  0  0  0
 26 27  1  0  0  0
 27 28  2  0  0  0
 28 29  1  0  0  0
 28 32  1  0  0  0
 29 30  2  0  0  0
 30 31  1  0  0  0
 31 32  1  0  0  0
  5  6  1  0  0  0
  5  7  1  0  0  0
 15 17  1  0  0  0
 15 16  1  0  0  0
 17 18  1  0  0  0
 17 22  2  0  0  0
 18 19  2  0  0  0
 19 20  1  0  0  0
 20 21  2  0  0  0
 21 22  1  0  0  0
M  END
> <minimizedAffinity>
-9.86047

$$$$
