CHEMBL1255010


 27 30  0  0  0  0  0  0  0  0999 V2000
  -29.4600   -4.0712   -6.9580 C   0  0  0  0  0  0  0  0  0  0  0  0
  -29.5689   -3.0321   -6.0290 C   0  0  0  0  0  0  0  0  0  0  0  0
  -28.8285   -1.8725   -6.1948 C   0  0  0  0  0  0  0  0  0  0  0  0
  -28.0117   -1.7229   -7.3141 C   0  0  0  0  0  0  0  0  0  0  0  0
  -27.9173   -2.7233   -8.2883 C   0  0  0  0  0  0  0  0  0  0  0  0
  -28.6571   -3.9037   -8.1017 C   0  0  0  0  0  0  0  0  0  0  0  0
  -27.1024   -2.5964   -9.4520 N   0  0  0  0  0  0  0  0  0  0  0  0
  -27.3362   -1.7114  -10.5000 C   0  0  0  0  0  0  0  0  0  0  0  0
  -28.2608   -0.9056  -10.5705 O   0  0  0  0  0  0  0  0  0  0  0  0
  -26.2686   -3.1627   -9.4765 H   0  0  0  0  0  0  0  0  0  0  0  0
  -26.3856   -1.7131  -11.6493 C   0  0  0  0  0  0  0  0  0  0  0  0
  -26.7778   -1.7812  -12.9896 C   0  0  0  0  0  0  0  0  0  0  0  0
  -25.8168   -1.6622  -14.0024 C   0  0  0  0  0  0  0  0  0  0  0  0
  -24.4697   -1.4732  -13.6850 C   0  0  0  0  0  0  0  0  0  0  0  0
  -24.0706   -1.4141  -12.3539 C   0  0  0  0  0  0  0  0  0  0  0  0
  -25.0232   -1.5357  -11.3442 C   0  0  0  0  0  0  0  0  0  0  0  0
  -30.1643   -5.2561   -6.8406 O   0  0  0  0  0  0  0  0  0  0  0  0
  -28.6125   -7.5096   -8.2837 C   0  0  0  0  0  0  0  0  0  0  0  0
  -28.6531   -7.9577   -6.9094 N   0  0  0  0  0  0  0  0  0  0  0  0
  -28.1188   -9.1429   -6.4646 C   0  0  0  0  0  0  0  0  0  0  0  0
  -28.3323   -9.2201   -5.1055 C   0  0  0  0  0  0  0  0  0  0  0  0
  -29.0124   -8.0424   -4.7188 C   0  0  0  0  0  0  0  0  0  0  0  0
  -29.4318   -7.6773   -3.4907 N   0  0  0  0  0  0  0  0  0  0  0  0
  -30.0316   -6.4823   -3.4680 C   0  0  0  0  0  0  0  0  0  0  0  0
  -30.2603   -5.6566   -4.5015 N   0  0  0  0  0  0  0  0  0  0  0  0
  -29.8847   -6.0596   -5.7376 C   0  0  0  0  0  0  0  0  0  0  0  0
  -29.2092   -7.2668   -5.8574 C   0  0  0  0  0  0  0  0  0  0  0  0
 18 19  1  0  0  0
 19 20  1  0  0  0
 19 27  1  0  0  0
 20 21  2  0  0  0
 21 22  1  0  0  0
 22 23  1  0  0  0
 22 27  2  0  0  0
 23 24  2  0  0  0
 24 25  1  0  0  0
 25 26  2  0  0  0
 26 17  1  0  0  0
 26 27  1  0  0  0
 17  1  1  0  0  0
  1  2  1  0  0  0
  1  6  2  0  0  0
  2  3  2  0  0  0
  3  4  1  0  0  0
  4  5  2  0  0  0
  5  7  1  0  0  0
  5  6  1  0  0  0
  7  8  1  0  0  0
  7 10  1  0  0  0
  8  9  2  0  0  0
  8 11  1  0  0  0
 11 12  1  0  0  0
 11 16  2  0  0  0
 12 13  2  0  0  0
 13 14  1  0  0  0
 14 15  2  0  0  0
 15 16  1  0  0  0
M  END
> <minimizedAffinity>
-9.58268

$$$$
