CHEMBL3660280


 40 43  0  0  0  0  0  0  0  0999 V2000
  -29.8035   -5.4150   -5.8494 C   0  0  0  0  0  0  0  0  0  0  0  0
  -29.8988   -5.9151   -4.5573 C   0  0  0  0  0  0  0  0  0  0  0  0
  -29.3552   -7.1606   -4.2459 C   0  0  0  0  0  0  0  0  0  0  0  0
  -28.7571   -7.9725   -5.2174 C   0  0  0  0  0  0  0  0  0  0  0  0
  -28.7790   -7.5190   -6.5414 C   0  0  0  0  0  0  0  0  0  0  0  0
  -29.2938   -6.2428   -6.8535 C   0  0  0  0  0  0  0  0  0  0  0  0
  -28.1340   -9.2165   -4.9073 N   0  0  0  0  0  0  0  0  0  0  0  0
  -26.7658   -9.3799   -4.7406 C   0  0  0  0  0  0  0  0  0  0  0  0
  -25.9536   -8.4694   -4.8679 O   0  0  0  0  0  0  0  0  0  0  0  0
  -26.3774  -10.6775   -4.4333 N   0  0  0  0  0  0  0  0  0  0  0  0
  -28.7197  -10.0368   -4.8853 H   0  0  0  0  0  0  0  0  0  0  0  0
  -26.9768  -11.4218   -4.7430 H   0  0  0  0  0  0  0  0  0  0  0  0
  -25.0229  -11.0070   -4.1286 C   0  0  0  0  0  0  0  0  0  0  0  0
  -24.5788  -11.1749   -2.8080 C   0  0  0  0  0  0  0  0  0  0  0  0
  -23.2308  -11.3649   -2.5137 C   0  0  0  0  0  0  0  0  0  0  0  0
  -22.3145  -11.4501   -3.5438 C   0  0  0  0  0  0  0  0  0  0  0  0
  -21.0229  -11.6138   -3.2276 F   0  0  0  0  0  0  0  0  0  0  0  0
  -22.7224  -11.3766   -4.8734 C   0  0  0  0  0  0  0  0  0  0  0  0
  -24.0905  -11.1528   -5.1629 C   0  0  0  0  0  0  0  0  0  0  0  0
  -21.7175  -11.5358   -5.9758 C   0  0  0  0  0  0  0  0  0  0  0  0
  -20.7518  -12.4652   -5.7550 F   0  0  0  0  0  0  0  0  0  0  0  0
  -22.3094  -11.8940   -7.1511 F   0  0  0  0  0  0  0  0  0  0  0  0
  -21.0579  -10.3716   -6.2421 F   0  0  0  0  0  0  0  0  0  0  0  0
  -30.2221   -4.1461   -6.1988 O   0  0  0  0  0  0  0  0  0  0  0  0
  -27.9641   -2.0708   -8.2579 C   0  0  0  0  0  0  0  0  0  0  0  0
  -28.9736   -2.9748   -7.9513 C   0  0  0  0  0  0  0  0  0  0  0  0
  -29.2820   -3.2196   -6.6158 C   0  0  0  0  0  0  0  0  0  0  0  0
  -28.6426   -2.4726   -5.6354 C   0  0  0  0  0  0  0  0  0  0  0  0
  -27.6760   -1.5588   -6.0339 C   0  0  0  0  0  0  0  0  0  0  0  0
  -27.3062   -1.3513   -7.3208 N   0  0  0  0  0  0  0  0  0  0  0  0
  -26.3525   -1.4300  -11.5544 C   0  0  0  0  0  0  0  0  0  0  0  0
  -27.6643   -1.7282  -11.8838 C   0  0  0  0  0  0  0  0  0  0  0  0
  -28.3536   -1.9996  -10.7251 N   0  0  0  0  0  0  0  0  0  0  0  0
  -27.5187   -1.8797   -9.6352 C   0  0  0  0  0  0  0  0  0  0  0  0
  -26.2770   -1.5309  -10.1368 C   0  0  0  0  0  0  0  0  0  0  0  0
  -29.3340   -2.2397  -10.6474 H   0  0  0  0  0  0  0  0  0  0  0  0
  -25.2460   -1.0731  -12.4311 C   0  0  0  0  0  0  0  0  0  0  0  0
  -25.3324   -1.1263  -13.6530 O   0  0  0  0  0  0  0  0  0  0  0  0
  -23.1228   -1.7070  -11.7102 C   0  0  0  0  0  0  0  0  0  0  0  0
  -24.1223   -0.6885  -11.7599 O   0  0  0  0  0  0  0  0  0  0  0  0
 39 40  1  0  0  0
 40 37  1  0  0  0
 37 38  2  0  0  0
 37 31  1  0  0  0
 31 32  2  0  0  0
 31 35  1  0  0  0
 32 33  1  0  0  0
 33 34  1  0  0  0
 33 36  1  0  0  0
 34 25  1  0  0  0
 34 35  2  0  0  0
 25 26  1  0  0  0
 25 30  2  0  0  0
 26 27  2  0  0  0
 27 24  1  0  0  0
 27 28  1  0  0  0
 24  1  1  0  0  0
  1  2  1  0  0  0
  1  6  2  0  0  0
  2  3  2  0  0  0
  3  4  1  0  0  0
  4  7  1  0  0  0
  4  5  2  0  0  0
  7  8  1  0  0  0
  7 11  1  0  0  0
  8  9  2  0  0  0
  8 10  1  0  0  0
 10 13  1  0  0  0
 10 12  1  0  0  0
 13 14  1  0  0  0
 13 19  2  0  0  0
 14 15  2  0  0  0
 15 16  1  0  0  0
 16 17  1  0  0  0
 16 18  2  0  0  0
 18 20  1  0  0  0
 18 19  1  0  0  0
 20 21  1  0  0  0
 20 22  1  0  0  0
 20 23  1  0  0  0
  5  6  1  0  0  0
 28 29  2  0  0  0
 29 30  1  0  0  0
M  END
> <minimizedAffinity>
-9.27758

$$$$
