CHEMBL3950910


 34 37  0  0  0  0  0  0  0  0999 V2000
  -14.7686    0.3079  -14.7556 N   0  0  0  0  0  0  0  0  0  0  0  0
  -14.7162   -1.0259  -14.1726 C   0  0  0  0  0  0  0  0  0  0  0  0
  -15.6037   -1.2045  -13.0919 C   0  0  0  0  0  0  0  0  0  0  0  0
  -15.3244   -2.1186  -12.1085 C   0  0  0  0  0  0  0  0  0  0  0  0
  -14.2749   -2.9964  -12.2076 C   0  0  0  0  0  0  0  0  0  0  0  0
  -14.0342   -3.6786  -11.0837 N   0  0  0  0  0  0  0  0  0  0  0  0
  -13.1692   -4.6910  -11.1657 C   0  0  0  0  0  0  0  0  0  0  0  0
  -12.6124   -5.0832  -12.3712 C   0  0  0  0  0  0  0  0  0  0  0  0
  -12.7499   -4.3039  -13.4942 N   0  0  0  0  0  0  0  0  0  0  0  0
  -13.5641   -3.1661  -13.4212 C   0  0  0  0  0  0  0  0  0  0  0  0
  -13.7708   -2.0705  -14.3851 C   0  0  0  0  0  0  0  0  0  0  0  0
  -12.0316   -6.4341  -12.3775 C   0  0  0  0  0  0  0  0  0  0  0  0
  -10.7962   -6.8713  -12.9279 C   0  0  0  0  0  0  0  0  0  0  0  0
  -10.6987   -8.2046  -13.0116 N   0  0  0  0  0  0  0  0  0  0  0  0
  -11.8748   -8.6362  -12.5279 N   0  0  0  0  0  0  0  0  0  0  0  0
  -12.0780  -10.0387  -12.2420 C   0  0  0  0  0  0  0  0  0  0  0  0
  -12.7555   -7.6155  -12.2839 C   0  0  0  0  0  0  0  0  0  0  0  0
  -16.8380    3.2627  -15.8086 C   0  0  0  0  0  0  0  0  0  0  0  0
  -18.1271    2.7310  -15.7726 C   0  0  0  0  0  0  0  0  0  0  0  0
  -18.3240    1.4253  -15.3313 C   0  0  0  0  0  0  0  0  0  0  0  0
  -17.2259    0.6521  -14.9216 C   0  0  0  0  0  0  0  0  0  0  0  0
  -15.9093    1.1427  -14.9447 C   0  0  0  0  0  0  0  0  0  0  0  0
  -15.7455    2.4775  -15.3746 C   0  0  0  0  0  0  0  0  0  0  0  0
  -15.2282    4.7069  -16.8422 C   0  0  0  0  0  0  0  0  0  0  0  0
  -16.5306    4.5151  -16.2846 O   0  0  0  0  0  0  0  0  0  0  0  0
  -19.5293    0.7731  -15.2901 O   0  0  0  0  0  0  0  0  0  0  0  0
  -20.6806    1.5576  -14.9969 C   0  0  0  0  0  0  0  0  0  0  0  0
  -13.7365    0.3496  -15.8688 C   0  0  0  0  0  0  0  0  0  0  0  0
  -14.2110    0.2075  -17.3334 C   0  0  0  0  0  0  0  0  0  0  0  0
  -13.2584   -0.3806  -18.4040 C   0  0  0  0  0  0  0  0  0  0  0  0
  -12.1506    0.5737  -18.8604 C   0  0  0  0  0  0  0  0  0  0  0  0
  -12.5821   -1.6409  -17.8271 C   0  0  0  0  0  0  0  0  0  0  0  0
  -13.9900   -0.7916  -19.5542 O   0  0  0  0  0  0  0  0  0  0  0  0
  -14.6461   -0.1021  -19.7641 H   0  0  0  0  0  0  0  0  0  0  0  0
 24 25  1  0  0  0
 25 18  1  0  0  0
 18 19  1  0  0  0
 18 23  2  0  0  0
 19 20  2  0  0  0
 20 26  1  0  0  0
 20 21  1  0  0  0
 26 27  1  0  0  0
 21 22  2  0  0  0
 22  1  1  0  0  0
 22 23  1  0  0  0
  1 28  1  0  0  0
  1  2  1  0  0  0
 28 29  1  0  0  0
 29 30  1  0  0  0
 30 31  1  0  0  0
 30 32  1  0  0  0
 30 33  1  0  0  0
 33 34  1  0  0  0
  2  3  1  0  0  0
  2 11  2  0  0  0
  3  4  2  0  0  0
  4  5  1  0  0  0
  5  6  1  0  0  0
  5 10  2  0  0  0
  6  7  2  0  0  0
  7  8  1  0  0  0
  8 12  1  0  0  0
  8  9  2  0  0  0
 12 13  1  0  0  0
 12 17  2  0  0  0
 13 14  2  0  0  0
 14 15  1  0  0  0
 15 16  1  0  0  0
 15 17  1  0  0  0
  9 10  1  0  0  0
 10 11  1  0  0  0
M  END
> <minimizedAffinity>
-6.53293

$$$$
