CHEMBL233827


 28 30  0  0  0  0  0  0  0  0999 V2000
  -27.1758   -6.0138   -4.3395 O   0  0  0  0  0  0  0  0  0  0  0  0
  -28.3010   -6.4637   -4.5230 C   0  0  0  0  0  0  0  0  0  0  0  0
  -29.4220   -5.6974   -4.8298 N   0  0  0  0  0  0  0  0  0  0  0  0
  -30.3076   -6.1969   -4.8353 H   0  0  0  0  0  0  0  0  0  0  0  0
  -29.4626   -4.2949   -4.9796 C   0  0  0  0  0  0  0  0  0  0  0  0
  -29.4120   -3.6594   -6.2215 C   0  0  0  0  0  0  0  0  0  0  0  0
  -29.3905   -2.2627   -6.3231 C   0  0  0  0  0  0  0  0  0  0  0  0
  -29.4668   -1.4762   -5.1801 C   0  0  0  0  0  0  0  0  0  0  0  0
  -29.5222   -2.1068   -3.9330 C   0  0  0  0  0  0  0  0  0  0  0  0
  -29.5382   -3.5042   -3.8297 C   0  0  0  0  0  0  0  0  0  0  0  0
  -29.4772   -0.1164   -5.1318 O   0  0  0  0  0  0  0  0  0  0  0  0
  -28.2597    0.6042   -5.2625 C   0  0  0  0  0  0  0  0  0  0  0  0
  -27.1773   -0.1817   -5.4420 F   0  0  0  0  0  0  0  0  0  0  0  0
  -28.3607    1.4083   -6.3457 F   0  0  0  0  0  0  0  0  0  0  0  0
  -28.0665    1.3834   -4.1773 F   0  0  0  0  0  0  0  0  0  0  0  0
  -28.5848   -7.8672   -4.3726 C   0  0  0  0  0  0  0  0  0  0  0  0
  -28.9855   -8.4287   -3.2454 N   0  0  0  0  0  0  0  0  0  0  0  0
  -29.1255   -9.7648   -3.5139 N   0  0  0  0  0  0  0  0  0  0  0  0
  -28.7999  -10.0334   -4.7686 N   0  0  0  0  0  0  0  0  0  0  0  0
  -28.4784   -8.8490   -5.3234 N   0  0  0  0  0  0  0  0  0  0  0  0
  -28.0028   -8.7712   -6.6952 C   0  0  0  0  0  0  0  0  0  0  0  0
  -28.9676   -8.0299   -7.6351 C   0  0  0  0  0  0  0  0  0  0  0  0
  -30.3919   -8.5341   -7.6258 C   0  0  0  0  0  0  0  0  0  0  0  0
  -31.4129   -7.7435   -7.0919 C   0  0  0  0  0  0  0  0  0  0  0  0
  -32.7259   -8.1849   -7.1760 C   0  0  0  0  0  0  0  0  0  0  0  0
  -33.0850   -9.3526   -7.7437 N   0  0  0  0  0  0  0  0  0  0  0  0
  -32.0888  -10.1064   -8.2527 C   0  0  0  0  0  0  0  0  0  0  0  0
  -30.7481   -9.7517   -8.2188 C   0  0  0  0  0  0  0  0  0  0  0  0
  1  2  2  0  0  0
  2  3  1  0  0  0
  2 16  1  0  0  0
  3  5  1  0  0  0
  3  4  1  0  0  0
  5  6  1  0  0  0
  5 10  2  0  0  0
  6  7  2  0  0  0
  7  8  1  0  0  0
  8 11  1  0  0  0
  8  9  2  0  0  0
 11 12  1  0  0  0
 12 13  1  0  0  0
 12 14  1  0  0  0
 12 15  1  0  0  0
  9 10  1  0  0  0
 16 17  2  0  0  0
 16 20  1  0  0  0
 17 18  1  0  0  0
 18 19  2  0  0  0
 19 20  1  0  0  0
 20 21  1  0  0  0
 21 22  1  0  0  0
 22 23  1  0  0  0
 23 24  1  0  0  0
 23 28  2  0  0  0
 24 25  2  0  0  0
 25 26  1  0  0  0
 26 27  2  0  0  0
 27 28  1  0  0  0
M  END
> <minimizedAffinity>
-8.22894

$$$$
