CHEMBL2208034


 36 40  0  0  0  0  0  0  0  0999 V2000
  -17.3166    2.8170  -15.4239 C   0  0  0  0  0  0  0  0  0  0  0  0
  -17.0367    4.0464  -15.9909 C   0  0  0  0  0  0  0  0  0  0  0  0
  -15.7241    4.2931  -16.3021 C   0  0  0  0  0  0  0  0  0  0  0  0
  -14.7347    3.4150  -16.0791 N   0  0  0  0  0  0  0  0  0  0  0  0
  -15.0838    2.2391  -15.5350 C   0  0  0  0  0  0  0  0  0  0  0  0
  -16.3433    1.9162  -15.1889 N   0  0  0  0  0  0  0  0  0  0  0  0
  -21.3487    1.5804  -14.4427 C   0  0  0  0  0  0  0  0  0  0  0  0
  -20.3958    0.6703  -14.8989 C   0  0  0  0  0  0  0  0  0  0  0  0
  -19.0938    1.0758  -15.1934 C   0  0  0  0  0  0  0  0  0  0  0  0
  -18.6932    2.4119  -15.0678 C   0  0  0  0  0  0  0  0  0  0  0  0
  -19.6578    3.3260  -14.6048 C   0  0  0  0  0  0  0  0  0  0  0  0
  -20.9755    2.9208  -14.3101 C   0  0  0  0  0  0  0  0  0  0  0  0
  -22.2887    0.0727  -12.1326 O   0  0  0  0  0  0  0  0  0  0  0  0
  -23.0392    0.3977  -13.0560 C   0  0  0  0  0  0  0  0  0  0  0  0
  -22.6745    1.1883  -14.1387 N   0  0  0  0  0  0  0  0  0  0  0  0
  -23.4143    1.6099  -14.6864 H   0  0  0  0  0  0  0  0  0  0  0  0
  -24.5258   -0.0276  -13.0269 C   0  0  0  0  0  0  0  0  0  0  0  0
  -24.8281   -1.2891  -13.8124 C   0  0  0  0  0  0  0  0  0  0  0  0
  -24.3771   -2.4021  -12.8814 C   0  0  0  0  0  0  0  0  0  0  0  0
  -24.5385   -1.8277  -11.4819 C   0  0  0  0  0  0  0  0  0  0  0  0
  -24.9097   -0.4157  -11.6470 N   0  0  0  0  0  0  0  0  0  0  0  0
  -24.3425    0.1440  -10.9985 H   0  0  0  0  0  0  0  0  0  0  0  0
  -14.0431    1.3389  -15.3137 N   0  0  0  0  0  0  0  0  0  0  0  0
  -13.4427    1.3485  -16.1308 H   0  0  0  0  0  0  0  0  0  0  0  0
  -14.1139    0.0853  -14.6856 C   0  0  0  0  0  0  0  0  0  0  0  0
  -13.4745   -1.0511  -15.1830 C   0  0  0  0  0  0  0  0  0  0  0  0
  -13.5748   -2.2829  -14.5216 C   0  0  0  0  0  0  0  0  0  0  0  0
  -14.3294   -2.4349  -13.3540 C   0  0  0  0  0  0  0  0  0  0  0  0
  -14.9537   -1.2805  -12.8586 C   0  0  0  0  0  0  0  0  0  0  0  0
  -14.8400   -0.0408  -13.5020 C   0  0  0  0  0  0  0  0  0  0  0  0
  -14.4499   -3.6450  -12.7059 N   0  0  0  0  0  0  0  0  0  0  0  0
  -15.4982   -4.6280  -13.0136 C   0  0  0  0  0  0  0  0  0  0  0  0
  -16.3734   -4.8804  -11.7790 C   0  0  0  0  0  0  0  0  0  0  0  0
  -15.5801   -5.2721  -10.6446 O   0  0  0  0  0  0  0  0  0  0  0  0
  -14.6347   -4.2379  -10.3212 C   0  0  0  0  0  0  0  0  0  0  0  0
  -13.6769   -3.9467  -11.4907 C   0  0  0  0  0  0  0  0  0  0  0  0
 13 14  2  0  0  0
 14 15  1  0  0  0
 15  7  1  0  0  0
 15 16  1  0  0  0
  7  8  1  0  0  0
  7 12  2  0  0  0
  8  9  2  0  0  0
  9 10  1  0  0  0
 10  1  1  0  0  0
 10 11  2  0  0  0
  1  2  1  0  0  0
  1  6  2  0  0  0
  2  3  2  0  0  0
  3  4  1  0  0  0
  4  5  2  0  0  0
  5 23  1  0  0  0
  5  6  1  0  0  0
 23 25  1  0  0  0
 23 24  1  0  0  0
 25 26  1  0  0  0
 25 30  2  0  0  0
 26 27  2  0  0  0
 27 28  1  0  0  0
 28 31  1  0  0  0
 28 29  2  0  0  0
 31 32  1  0  0  0
 31 36  1  0  0  0
 32 33  1  0  0  0
 33 34  1  0  0  0
 34 35  1  0  0  0
 35 36  1  0  0  0
 29 30  1  0  0  0
 11 12  1  0  0  0
 17 18  1  0  0  0
 17 21  1  0  0  0
 17 14  1  0  0  0
 18 19  1  0  0  0
 19 20  1  0  0  0
 20 21  1  0  0  0
 21 22  1  0  0  0
M  END
> <minimizedAffinity>
-9.68257

$$$$
