CHEMBL3963620


 36 40  0  0  0  0  0  0  0  0999 V2000
  -28.7391   -5.4522   -7.0877 C   0  0  0  0  0  0  0  0  0  0  0  0
  -28.5468   -4.4360   -8.0324 C   0  0  0  0  0  0  0  0  0  0  0  0
  -28.2856   -3.0986   -7.6395 C   0  0  0  0  0  0  0  0  0  0  0  0
  -28.1161   -2.0034   -8.4999 C   0  0  0  0  0  0  0  0  0  0  0  0
  -27.8384   -0.7677   -8.0383 N   0  0  0  0  0  0  0  0  0  0  0  0
  -27.7355   -0.6177   -6.7177 C   0  0  0  0  0  0  0  0  0  0  0  0
  -27.8784   -1.5862   -5.8139 N   0  0  0  0  0  0  0  0  0  0  0  0
  -28.1473   -2.8042   -6.2850 C   0  0  0  0  0  0  0  0  0  0  0  0
  -28.2948   -3.8233   -5.3660 C   0  0  0  0  0  0  0  0  0  0  0  0
  -28.6302   -5.1384   -5.7318 C   0  0  0  0  0  0  0  0  0  0  0  0
  -27.9980   -7.1933   -8.5541 C   0  0  0  0  0  0  0  0  0  0  0  0
  -28.9665   -6.6741   -7.6533 O   0  0  0  0  0  0  0  0  0  0  0  0
  -28.2445   -2.1810   -9.9030 N   0  0  0  0  0  0  0  0  0  0  0  0
  -29.1540   -1.8463  -10.2044 H   0  0  0  0  0  0  0  0  0  0  0  0
  -27.2074   -1.8971  -10.8180 C   0  0  0  0  0  0  0  0  0  0  0  0
  -25.9170   -1.6017  -10.3550 C   0  0  0  0  0  0  0  0  0  0  0  0
  -24.8972   -1.2540  -11.2389 C   0  0  0  0  0  0  0  0  0  0  0  0
  -25.1541   -1.2038  -12.6080 C   0  0  0  0  0  0  0  0  0  0  0  0
  -23.8611   -0.7259  -13.6483 Cl  0  0  0  0  0  0  0  0  0  0  0  0
  -26.4294   -1.5261  -13.0870 C   0  0  0  0  0  0  0  0  0  0  0  0
  -26.8177   -1.4876  -14.7713 Cl  0  0  0  0  0  0  0  0  0  0  0  0
  -27.4492   -1.8811  -12.1945 C   0  0  0  0  0  0  0  0  0  0  0  0
  -28.8219   -6.1196   -4.7859 O   0  0  0  0  0  0  0  0  0  0  0  0
  -29.6610   -7.1985   -5.2320 C   0  0  0  0  0  0  0  0  0  0  0  0
  -28.9890   -8.5269   -5.2316 C   0  0  0  0  0  0  0  0  0  0  0  0
  -29.5099   -9.7469   -5.6130 C   0  0  0  0  0  0  0  0  0  0  0  0
  -28.3319  -10.9704   -5.4097 S   0  0  0  0  0  0  0  0  0  0  0  0
  -27.1983   -9.7919   -4.8628 C   0  0  0  0  0  0  0  0  0  0  0  0
  -27.6761   -8.5694   -4.7941 N   0  0  0  0  0  0  0  0  0  0  0  0
  -25.8293  -10.1587   -4.4687 C   0  0  0  0  0  0  0  0  0  0  0  0
  -24.7272   -9.9402   -5.3085 C   0  0  0  0  0  0  0  0  0  0  0  0
  -23.4399  -10.3054   -4.9066 C   0  0  0  0  0  0  0  0  0  0  0  0
  -23.2384  -10.8842   -3.6570 C   0  0  0  0  0  0  0  0  0  0  0  0
  -21.6532  -11.3481   -3.1792 Cl  0  0  0  0  0  0  0  0  0  0  0  0
  -24.3130  -11.0874   -2.7965 C   0  0  0  0  0  0  0  0  0  0  0  0
  -25.6019  -10.7204   -3.1993 C   0  0  0  0  0  0  0  0  0  0  0  0
 11 12  1  0  0  0
 12  1  1  0  0  0
  1  2  1  0  0  0
  1 10  2  0  0  0
  2  3  2  0  0  0
  3  4  1  0  0  0
  3  8  1  0  0  0
  4 13  1  0  0  0
  4  5  2  0  0  0
 13 15  1  0  0  0
 13 14  1  0  0  0
 15 16  1  0  0  0
 15 22  2  0  0  0
 16 17  2  0  0  0
 17 18  1  0  0  0
 18 19  1  0  0  0
 18 20  2  0  0  0
 20 21  1  0  0  0
 20 22  1  0  0  0
  5  6  1  0  0  0
  6  7  2  0  0  0
  7  8  1  0  0  0
  8  9  2  0  0  0
  9 10  1  0  0  0
 10 23  1  0  0  0
 23 24  1  0  0  0
 24 25  1  0  0  0
 25 26  2  0  0  0
 25 29  1  0  0  0
 26 27  1  0  0  0
 27 28  1  0  0  0
 28 30  1  0  0  0
 28 29  2  0  0  0
 30 31  1  0  0  0
 30 36  2  0  0  0
 31 32  2  0  0  0
 32 33  1  0  0  0
 33 34  1  0  0  0
 33 35  2  0  0  0
 35 36  1  0  0  0
M  END
> <minimizedAffinity>
-9.25696

$$$$
