CHEMBL256825


 32 35  0  0  0  0  0  0  0  0999 V2000
  -13.2560   -3.0868  -11.6075 C   0  0  0  0  0  0  0  0  0  0  0  0
  -14.6521   -3.0985  -11.4491 C   0  0  0  0  0  0  0  0  0  0  0  0
  -15.4972   -2.4363  -12.3495 C   0  0  0  0  0  0  0  0  0  0  0  0
  -14.9688   -1.7172  -13.4228 C   0  0  0  0  0  0  0  0  0  0  0  0
  -13.5909   -1.7268  -13.6187 C   0  0  0  0  0  0  0  0  0  0  0  0
  -12.7570   -2.4292  -12.7406 C   0  0  0  0  0  0  0  0  0  0  0  0
  -12.8884   -6.2873  -12.7484 N   0  0  0  0  0  0  0  0  0  0  0  0
  -12.2621   -6.2849  -11.5606 C   0  0  0  0  0  0  0  0  0  0  0  0
  -11.7508   -7.4088  -11.0679 N   0  0  0  0  0  0  0  0  0  0  0  0
  -11.1833   -7.0279   -9.9192 N   0  0  0  0  0  0  0  0  0  0  0  0
  -11.3034   -5.6936   -9.6491 C   0  0  0  0  0  0  0  0  0  0  0  0
  -10.8342   -4.9366   -8.5802 C   0  0  0  0  0  0  0  0  0  0  0  0
  -11.1558   -3.5946   -8.6402 C   0  0  0  0  0  0  0  0  0  0  0  0
  -11.8924   -3.0243   -9.6154 N   0  0  0  0  0  0  0  0  0  0  0  0
  -12.3832   -3.7845  -10.6479 C   0  0  0  0  0  0  0  0  0  0  0  0
  -12.0533   -5.1598  -10.7003 C   0  0  0  0  0  0  0  0  0  0  0  0
  -12.8278   -7.1508  -13.2779 H   0  0  0  0  0  0  0  0  0  0  0  0
  -12.8725   -5.4593  -13.3344 H   0  0  0  0  0  0  0  0  0  0  0  0
  -10.7234   -7.7349   -9.3575 H   0  0  0  0  0  0  0  0  0  0  0  0
  -15.7656   -1.0319  -14.3615 N   0  0  0  0  0  0  0  0  0  0  0  0
  -16.6346   -0.0000  -14.0678 C   0  0  0  0  0  0  0  0  0  0  0  0
  -16.6695    0.6098  -13.0086 O   0  0  0  0  0  0  0  0  0  0  0  0
  -17.5003    0.2321  -15.1293 N   0  0  0  0  0  0  0  0  0  0  0  0
  -15.5153   -1.1245  -15.3355 H   0  0  0  0  0  0  0  0  0  0  0  0
  -17.7556   -0.6058  -15.6322 H   0  0  0  0  0  0  0  0  0  0  0  0
  -18.4693    1.2568  -15.0710 C   0  0  0  0  0  0  0  0  0  0  0  0
  -18.1041    2.5486  -15.4593 C   0  0  0  0  0  0  0  0  0  0  0  0
  -19.0538    3.5728  -15.4560 C   0  0  0  0  0  0  0  0  0  0  0  0
  -20.3532    3.3197  -15.0152 C   0  0  0  0  0  0  0  0  0  0  0  0
  -20.7035    2.0382  -14.5939 C   0  0  0  0  0  0  0  0  0  0  0  0
  -22.2972    1.7363  -14.0176 Cl  0  0  0  0  0  0  0  0  0  0  0  0
  -19.7713    1.0037  -14.6300 C   0  0  0  0  0  0  0  0  0  0  0  0
  7  8  1  0  0  0
  7 17  1  0  0  0
  7 18  1  0  0  0
  8  9  2  0  0  0
  8 16  1  0  0  0
  9 10  1  0  0  0
 10 11  1  0  0  0
 10 19  1  0  0  0
 11 12  1  0  0  0
 11 16  2  0  0  0
 12 13  2  0  0  0
 13 14  1  0  0  0
 14 15  2  0  0  0
 15  1  1  0  0  0
 15 16  1  0  0  0
  1  2  1  0  0  0
  1  6  2  0  0  0
  2  3  2  0  0  0
  3  4  1  0  0  0
  4 20  1  0  0  0
  4  5  2  0  0  0
 20 21  1  0  0  0
 20 24  1  0  0  0
 21 22  2  0  0  0
 21 23  1  0  0  0
 23 26  1  0  0  0
 23 25  1  0  0  0
 26 27  1  0  0  0
 26 32  2  0  0  0
 27 28  2  0  0  0
 28 29  1  0  0  0
 29 30  2  0  0  0
 30 31  1  0  0  0
 30 32  1  0  0  0
  5  6  1  0  0  0
M  END
> <minimizedAffinity>
-8.88536

$$$$
