CHEMBL270302


 34 37  0  0  0  0  0  0  0  0999 V2000
  -22.9711   -0.5894  -13.3861 C   0  0  0  0  0  0  0  0  0  0  0  0
  -22.7506   -1.0954  -12.1019 C   0  0  0  0  0  0  0  0  0  0  0  0
  -23.7787   -1.6804  -11.3613 C   0  0  0  0  0  0  0  0  0  0  0  0
  -25.0473   -1.8622  -11.9086 C   0  0  0  0  0  0  0  0  0  0  0  0
  -25.2602   -1.4635  -13.2285 C   0  0  0  0  0  0  0  0  0  0  0  0
  -24.2375   -0.8186  -13.9485 C   0  0  0  0  0  0  0  0  0  0  0  0
  -23.7057    2.7213  -13.0455 N   0  0  0  0  0  0  0  0  0  0  0  0
  -22.5612    2.7049  -13.7523 C   0  0  0  0  0  0  0  0  0  0  0  0
  -21.9609    3.8391  -14.1298 N   0  0  0  0  0  0  0  0  0  0  0  0
  -20.8460    3.4632  -14.8393 O   0  0  0  0  0  0  0  0  0  0  0  0
  -20.7662    2.1107  -14.8753 C   0  0  0  0  0  0  0  0  0  0  0  0
  -19.7463    1.4053  -15.5124 C   0  0  0  0  0  0  0  0  0  0  0  0
  -19.8122    0.0166  -15.4373 C   0  0  0  0  0  0  0  0  0  0  0  0
  -20.8606   -0.6078  -14.7502 C   0  0  0  0  0  0  0  0  0  0  0  0
  -21.8982    0.1208  -14.1102 C   0  0  0  0  0  0  0  0  0  0  0  0
  -21.8308    1.5469  -14.1878 C   0  0  0  0  0  0  0  0  0  0  0  0
  -24.1537    3.6171  -12.8915 H   0  0  0  0  0  0  0  0  0  0  0  0
  -24.3475    1.9378  -13.0533 H   0  0  0  0  0  0  0  0  0  0  0  0
  -26.1014   -2.4742  -11.1938 N   0  0  0  0  0  0  0  0  0  0  0  0
  -26.6588   -1.9764  -10.0278 C   0  0  0  0  0  0  0  0  0  0  0  0
  -26.4593   -0.8545   -9.5764 O   0  0  0  0  0  0  0  0  0  0  0  0
  -27.4346   -2.9321   -9.3849 N   0  0  0  0  0  0  0  0  0  0  0  0
  -26.6000   -3.2268  -11.6465 H   0  0  0  0  0  0  0  0  0  0  0  0
  -27.1030   -3.8779   -9.5410 H   0  0  0  0  0  0  0  0  0  0  0  0
  -28.0211   -2.6574   -8.1204 C   0  0  0  0  0  0  0  0  0  0  0  0
  -28.0376   -1.3385   -7.6362 C   0  0  0  0  0  0  0  0  0  0  0  0
  -28.5615   -1.0383   -6.3793 C   0  0  0  0  0  0  0  0  0  0  0  0
  -29.0979   -2.0515   -5.5958 C   0  0  0  0  0  0  0  0  0  0  0  0
  -29.1059   -3.3621   -6.0714 C   0  0  0  0  0  0  0  0  0  0  0  0
  -28.5649   -3.6859   -7.3345 C   0  0  0  0  0  0  0  0  0  0  0  0
  -28.5075   -5.1406   -7.7181 C   0  0  0  0  0  0  0  0  0  0  0  0
  -27.5771   -5.4292   -8.6769 F   0  0  0  0  0  0  0  0  0  0  0  0
  -28.2080   -5.9491   -6.6631 F   0  0  0  0  0  0  0  0  0  0  0  0
  -29.6897   -5.5974   -8.2148 F   0  0  0  0  0  0  0  0  0  0  0  0
  7  8  1  0  0  0
  7 17  1  0  0  0
  7 18  1  0  0  0
  8  9  2  0  0  0
  8 16  1  0  0  0
  9 10  1  0  0  0
 10 11  1  0  0  0
 11 12  1  0  0  0
 11 16  2  0  0  0
 12 13  2  0  0  0
 13 14  1  0  0  0
 14 15  2  0  0  0
 15  1  1  0  0  0
 15 16  1  0  0  0
  1  2  1  0  0  0
  1  6  2  0  0  0
  2  3  2  0  0  0
  3  4  1  0  0  0
  4 19  1  0  0  0
  4  5  2  0  0  0
 19 20  1  0  0  0
 19 23  1  0  0  0
 20 21  2  0  0  0
 20 22  1  0  0  0
 22 25  1  0  0  0
 22 24  1  0  0  0
 25 26  1  0  0  0
 25 30  2  0  0  0
 26 27  2  0  0  0
 27 28  1  0  0  0
 28 29  2  0  0  0
 29 30  1  0  0  0
 30 31  1  0  0  0
 31 32  1  0  0  0
 31 33  1  0  0  0
 31 34  1  0  0  0
  5  6  1  0  0  0
M  END
> <minimizedAffinity>
-10.32650

$$$$
