CHEMBL377302


 27 30  0  0  0  0  0  0  0  0999 V2000
  -13.0441    2.9087  -15.5539 C   0  0  0  0  0  0  0  0  0  0  0  0
  -12.8447    2.2205  -14.3695 C   0  0  0  0  0  0  0  0  0  0  0  0
  -13.9888    1.5627  -14.0449 N   0  0  0  0  0  0  0  0  0  0  0  0
  -14.1426    0.7872  -12.9617 N   0  0  0  0  0  0  0  0  0  0  0  0
  -15.3045    0.2251  -12.8647 C   0  0  0  0  0  0  0  0  0  0  0  0
  -16.3407    0.3371  -13.7509 N   0  0  0  0  0  0  0  0  0  0  0  0
  -16.1572    1.0731  -14.7951 C   0  0  0  0  0  0  0  0  0  0  0  0
  -14.9324    1.7767  -15.0057 C   0  0  0  0  0  0  0  0  0  0  0  0
  -14.3948    2.6155  -15.9784 C   0  0  0  0  0  0  0  0  0  0  0  0
  -12.0102    3.6886  -16.2357 C   0  0  0  0  0  0  0  0  0  0  0  0
  -11.5220    3.3773  -17.3138 O   0  0  0  0  0  0  0  0  0  0  0  0
  -11.5851    4.7363  -15.4698 O   0  0  0  0  0  0  0  0  0  0  0  0
  -11.7840    6.9743  -14.6676 C   0  0  0  0  0  0  0  0  0  0  0  0
  -12.5061    5.8248  -15.3506 C   0  0  0  0  0  0  0  0  0  0  0  0
  -15.0215    3.0810  -17.2624 C   0  0  0  0  0  0  0  0  0  0  0  0
  -15.5767    4.4938  -17.1857 C   0  0  0  0  0  0  0  0  0  0  0  0
  -17.0849    1.2399  -15.8068 O   0  0  0  0  0  0  0  0  0  0  0  0
  -18.3576    1.7636  -15.4714 C   0  0  0  0  0  0  0  0  0  0  0  0
  -18.5766    3.1405  -15.4024 C   0  0  0  0  0  0  0  0  0  0  0  0
  -19.8138    3.6471  -14.9980 C   0  0  0  0  0  0  0  0  0  0  0  0
  -20.8010    2.7257  -14.6336 C   0  0  0  0  0  0  0  0  0  0  0  0
  -22.0832    2.9392  -14.1784 N   0  0  0  0  0  0  0  0  0  0  0  0
  -22.7005    1.7436  -13.9265 C   0  0  0  0  0  0  0  0  0  0  0  0
  -21.8111    0.7381  -14.2290 C   0  0  0  0  0  0  0  0  0  0  0  0
  -20.6004    1.3443  -14.6755 C   0  0  0  0  0  0  0  0  0  0  0  0
  -19.3498    0.8480  -15.1021 C   0  0  0  0  0  0  0  0  0  0  0  0
  -22.4967    3.8508  -14.0391 H   0  0  0  0  0  0  0  0  0  0  0  0
 13 14  1  0  0  0
 14 12  1  0  0  0
 12 10  1  0  0  0
 10 11  2  0  0  0
 10  1  1  0  0  0
  1  2  2  0  0  0
  1  9  1  0  0  0
  2  3  1  0  0  0
  3  4  1  0  0  0
  3  8  1  0  0  0
  4  5  2  0  0  0
  5  6  1  0  0  0
  6  7  2  0  0  0
  7 17  1  0  0  0
  7  8  1  0  0  0
 17 18  1  0  0  0
 18 19  1  0  0  0
 18 26  2  0  0  0
 19 20  2  0  0  0
 20 21  1  0  0  0
 21 22  1  0  0  0
 21 25  2  0  0  0
 22 23  1  0  0  0
 22 27  1  0  0  0
 23 24  2  0  0  0
 24 25  1  0  0  0
 25 26  1  0  0  0
  8  9  2  0  0  0
  9 15  1  0  0  0
 15 16  1  0  0  0
M  END
> <minimizedAffinity>
-7.76910

$$$$
