CHEMBL460077


 35 39  0  0  0  0  0  0  0  0999 V2000
  -30.5024   -5.8794   -4.8013 C   0  0  0  0  0  0  0  0  0  0  0  0
  -29.4686   -6.2757   -4.0208 N   0  0  0  0  0  0  0  0  0  0  0  0
  -28.9334   -7.2458   -4.7609 N   0  0  0  0  0  0  0  0  0  0  0  0
  -27.6514   -7.8787   -4.5781 C   0  0  0  0  0  0  0  0  0  0  0  0
  -29.6632   -7.6010   -5.8428 C   0  0  0  0  0  0  0  0  0  0  0  0
  -29.2428   -8.5475   -6.7678 C   0  0  0  0  0  0  0  0  0  0  0  0
  -30.1614   -9.2165   -7.5266 C   0  0  0  0  0  0  0  0  0  0  0  0
  -31.4465   -8.6109   -7.5483 C   0  0  0  0  0  0  0  0  0  0  0  0
  -31.8239   -7.4236   -6.6950 C   0  0  0  0  0  0  0  0  0  0  0  0
  -30.8644   -6.9405   -5.7565 C   0  0  0  0  0  0  0  0  0  0  0  0
  -30.5690   -4.5249   -5.0712 N   0  0  0  0  0  0  0  0  0  0  0  0
  -31.4575   -4.4334   -5.5493 H   0  0  0  0  0  0  0  0  0  0  0  0
  -27.9484   -2.2300   -7.5241 C   0  0  0  0  0  0  0  0  0  0  0  0
  -28.1679   -1.9080   -6.1809 C   0  0  0  0  0  0  0  0  0  0  0  0
  -29.0246   -2.6691   -5.3806 C   0  0  0  0  0  0  0  0  0  0  0  0
  -29.6808   -3.7791   -5.8932 C   0  0  0  0  0  0  0  0  0  0  0  0
  -29.4696   -4.0990   -7.2536 C   0  0  0  0  0  0  0  0  0  0  0  0
  -28.5836   -3.3506   -8.0520 C   0  0  0  0  0  0  0  0  0  0  0  0
  -27.2042   -1.9389   -9.7601 C   0  0  0  0  0  0  0  0  0  0  0  0
  -27.2119   -1.4791   -8.4085 O   0  0  0  0  0  0  0  0  0  0  0  0
  -29.6538  -10.5386   -7.7306 O   0  0  0  0  0  0  0  0  0  0  0  0
  -28.6341  -10.9457   -8.6976 C   0  0  0  0  0  0  0  0  0  0  0  0
  -28.2925  -10.4179  -10.2838 C   0  0  0  0  0  0  0  0  0  0  0  0
  -27.0586  -10.3258  -10.8952 C   0  0  0  0  0  0  0  0  0  0  0  0
  -26.7842  -10.8811   -9.8585 N   0  0  0  0  0  0  0  0  0  0  0  0
  -26.3946  -11.4277   -8.7697 C   0  0  0  0  0  0  0  0  0  0  0  0
  -25.0927  -11.6348   -8.6176 C   0  0  0  0  0  0  0  0  0  0  0  0
  -24.6709  -11.9065   -7.3704 C   0  0  0  0  0  0  0  0  0  0  0  0
  -25.6454  -11.9785   -6.3324 C   0  0  0  0  0  0  0  0  0  0  0  0
  -27.0391  -11.7130   -6.6003 C   0  0  0  0  0  0  0  0  0  0  0  0
  -27.4610  -11.4322   -7.9265 C   0  0  0  0  0  0  0  0  0  0  0  0
  -23.3207  -12.0335   -7.1997 O   0  0  0  0  0  0  0  0  0  0  0  0
  -22.6460  -10.8351   -6.7739 C   0  0  0  0  0  0  0  0  0  0  0  0
  -25.3359  -12.2880   -5.0272 O   0  0  0  0  0  0  0  0  0  0  0  0
  -25.3857  -11.1576   -4.1502 C   0  0  0  0  0  0  0  0  0  0  0  0
 19 20  1  0  0  0
 20 13  1  0  0  0
 13 14  1  0  0  0
 13 18  2  0  0  0
 14 15  2  0  0  0
 15 16  1  0  0  0
 16 11  1  0  0  0
 16 17  2  0  0  0
 11  1  1  0  0  0
 11 12  1  0  0  0
  1  2  2  0  0  0
  1 10  1  0  0  0
  2  3  1  0  0  0
  3  4  1  0  0  0
  3  5  1  0  0  0
  5  6  1  0  0  0
  5 10  2  0  0  0
  6  7  2  0  0  0
  7 21  1  0  0  0
  7  8  1  0  0  0
 21 22  1  0  0  0
 22 23  1  0  0  0
 22 31  2  0  0  0
 23 24  2  0  0  0
 24 25  1  0  0  0
 25 26  2  0  0  0
 26 27  1  0  0  0
 26 31  1  0  0  0
 27 28  2  0  0  0
 28 32  1  0  0  0
 28 29  1  0  0  0
 32 33  1  0  0  0
 29 34  1  0  0  0
 29 30  2  0  0  0
 34 35  1  0  0  0
 30 31  1  0  0  0
  8  9  2  0  0  0
  9 10  1  0  0  0
 17 18  1  0  0  0
M  END
> <minimizedAffinity>
-8.17610

$$$$
