CHEMBL3928261


 36 40  0  0  0  0  0  0  0  0999 V2000
  -17.0067    2.0906  -15.4024 N   0  0  0  0  0  0  0  0  0  0  0  0
  -18.4818    2.0008  -15.3997 C   0  0  0  0  0  0  0  0  0  0  0  0
  -19.1617    3.2386  -15.4452 C   0  0  0  0  0  0  0  0  0  0  0  0
  -20.4430    3.3924  -15.0270 C   0  0  0  0  0  0  0  0  0  0  0  0
  -21.1614    2.3277  -14.5943 C   0  0  0  0  0  0  0  0  0  0  0  0
  -22.3444    2.6103  -14.0086 N   0  0  0  0  0  0  0  0  0  0  0  0
  -23.1457    1.6530  -13.5531 C   0  0  0  0  0  0  0  0  0  0  0  0
  -22.8272    0.3272  -13.7846 C   0  0  0  0  0  0  0  0  0  0  0  0
  -21.5888   -0.0062  -14.3480 N   0  0  0  0  0  0  0  0  0  0  0  0
  -20.6934    1.0111  -14.7009 C   0  0  0  0  0  0  0  0  0  0  0  0
  -19.2916    0.8192  -15.1114 C   0  0  0  0  0  0  0  0  0  0  0  0
  -24.0095   -0.5550  -13.5252 C   0  0  0  0  0  0  0  0  0  0  0  0
  -24.7877   -1.2178  -14.4635 C   0  0  0  0  0  0  0  0  0  0  0  0
  -25.9114   -1.6811  -13.8687 N   0  0  0  0  0  0  0  0  0  0  0  0
  -25.8783   -1.3235  -12.5932 N   0  0  0  0  0  0  0  0  0  0  0  0
  -26.9283   -1.6302  -11.6202 C   0  0  0  0  0  0  0  0  0  0  0  0
  -24.7560   -0.6188  -12.3490 C   0  0  0  0  0  0  0  0  0  0  0  0
  -15.5131   -0.3938  -12.9664 C   0  0  0  0  0  0  0  0  0  0  0  0
  -14.4154   -0.8477  -13.6873 C   0  0  0  0  0  0  0  0  0  0  0  0
  -14.0961   -0.3060  -14.9333 C   0  0  0  0  0  0  0  0  0  0  0  0
  -14.9111    0.7108  -15.4532 C   0  0  0  0  0  0  0  0  0  0  0  0
  -16.0572    1.1839  -14.7622 C   0  0  0  0  0  0  0  0  0  0  0  0
  -16.3377    0.6319  -13.4973 C   0  0  0  0  0  0  0  0  0  0  0  0
  -15.6933   -2.3590  -11.5314 C   0  0  0  0  0  0  0  0  0  0  0  0
  -15.7391   -1.0110  -11.7820 O   0  0  0  0  0  0  0  0  0  0  0  0
  -13.0436   -0.7663  -15.6660 O   0  0  0  0  0  0  0  0  0  0  0  0
  -12.4375   -0.0953  -16.7161 C   0  0  0  0  0  0  0  0  0  0  0  0
  -16.5178    3.1467  -16.3435 C   0  0  0  0  0  0  0  0  0  0  0  0
  -15.7518    4.3884  -15.9050 C   0  0  0  0  0  0  0  0  0  0  0  0
  -14.2161    4.3388  -15.9415 C   0  0  0  0  0  0  0  0  0  0  0  0
  -13.6195    5.1820  -17.0141 N   0  0  0  0  0  0  0  0  0  0  0  0
  -14.5423    5.7123  -18.0344 C   0  0  0  0  0  0  0  0  0  0  0  0
  -14.6755    4.7721  -19.2598 C   0  0  0  0  0  0  0  0  0  0  0  0
  -13.4097    4.4693  -19.8140 O   0  0  0  0  0  0  0  0  0  0  0  0
  -12.5885    3.8310  -18.8508 C   0  0  0  0  0  0  0  0  0  0  0  0
  -12.3533    4.7455  -17.6338 C   0  0  0  0  0  0  0  0  0  0  0  0
 24 25  1  0  0  0
 25 18  1  0  0  0
 18 19  1  0  0  0
 18 23  2  0  0  0
 19 20  2  0  0  0
 20 26  1  0  0  0
 20 21  1  0  0  0
 26 27  1  0  0  0
 21 22  2  0  0  0
 22  1  1  0  0  0
 22 23  1  0  0  0
  1 28  1  0  0  0
  1  2  1  0  0  0
 28 29  1  0  0  0
 29 30  1  0  0  0
 30 31  1  0  0  0
 31 32  1  0  0  0
 31 36  1  0  0  0
 32 33  1  0  0  0
 33 34  1  0  0  0
 34 35  1  0  0  0
 35 36  1  0  0  0
  2  3  1  0  0  0
  2 11  2  0  0  0
  3  4  2  0  0  0
  4  5  1  0  0  0
  5  6  1  0  0  0
  5 10  2  0  0  0
  6  7  2  0  0  0
  7  8  1  0  0  0
  8 12  1  0  0  0
  8  9  2  0  0  0
 12 13  1  0  0  0
 12 17  2  0  0  0
 13 14  2  0  0  0
 14 15  1  0  0  0
 15 16  1  0  0  0
 15 17  1  0  0  0
  9 10  1  0  0  0
 10 11  1  0  0  0
M  END
> <minimizedAffinity>
-9.06987

$$$$
