CHEMBL3910921


 43 47  0  0  0  0  0  0  0  0999 V2000
  -12.9695   -2.2078  -14.4347 N   0  0  0  0  0  0  0  0  0  0  0  0
  -12.9468   -3.3652  -15.2607 C   0  0  0  0  0  0  0  0  0  0  0  0
  -11.7392   -4.0171  -15.2058 C   0  0  0  0  0  0  0  0  0  0  0  0
  -11.4697   -5.1945  -15.7655 C   0  0  0  0  0  0  0  0  0  0  0  0
  -12.2551   -5.6498  -16.7344 C   0  0  0  0  0  0  0  0  0  0  0  0
  -11.4731   -6.5051  -17.2159 N   0  0  0  0  0  0  0  0  0  0  0  0
  -11.9898   -7.6688  -17.4650 C   0  0  0  0  0  0  0  0  0  0  0  0
  -13.2925   -7.8690  -17.7911 C   0  0  0  0  0  0  0  0  0  0  0  0
  -14.1778   -6.7715  -17.5556 N   0  0  0  0  0  0  0  0  0  0  0  0
  -13.6448   -5.5007  -16.8186 C   0  0  0  0  0  0  0  0  0  0  0  0
  -13.9157   -4.0992  -16.0787 C   0  0  0  0  0  0  0  0  0  0  0  0
  -13.4104   -9.3605  -18.1174 C   0  0  0  0  0  0  0  0  0  0  0  0
  -13.1857  -10.3602  -17.0680 C   0  0  0  0  0  0  0  0  0  0  0  0
  -12.6003  -11.4855  -17.4572 N   0  0  0  0  0  0  0  0  0  0  0  0
  -12.4728  -11.3331  -18.7763 N   0  0  0  0  0  0  0  0  0  0  0  0
  -11.9057  -12.4646  -19.4885 C   0  0  0  0  0  0  0  0  0  0  0  0
  -12.8785  -10.0694  -19.2125 C   0  0  0  0  0  0  0  0  0  0  0  0
  -13.4755   -0.2386  -17.3046 C   0  0  0  0  0  0  0  0  0  0  0  0
  -12.5896   -0.8689  -16.5189 C   0  0  0  0  0  0  0  0  0  0  0  0
  -12.6035   -0.7764  -15.0255 C   0  0  0  0  0  0  0  0  0  0  0  0
  -13.4006    0.5172  -14.5205 C   0  0  0  0  0  0  0  0  0  0  0  0
  -14.5027    1.0233  -15.4585 C   0  0  0  0  0  0  0  0  0  0  0  0
  -14.5055    0.6260  -16.7461 C   0  0  0  0  0  0  0  0  0  0  0  0
  -13.4516   -2.0238  -18.9016 C   0  0  0  0  0  0  0  0  0  0  0  0
  -13.5401   -0.6382  -18.6221 O   0  0  0  0  0  0  0  0  0  0  0  0
  -15.6910    1.5509  -14.9578 O   0  0  0  0  0  0  0  0  0  0  0  0
  -16.4580    0.7747  -14.0471 C   0  0  0  0  0  0  0  0  0  0  0  0
  -14.1904   -2.0575  -13.5904 C   0  0  0  0  0  0  0  0  0  0  0  0
  -13.9283   -2.7882  -12.2667 C   0  0  0  0  0  0  0  0  0  0  0  0
  -14.2859   -4.2182  -12.1527 N   0  0  0  0  0  0  0  0  0  0  0  0
  -15.3989   -4.3737  -11.1665 C   0  0  0  0  0  0  0  0  0  0  0  0
  -15.8817   -3.0294  -10.5653 C   0  0  0  0  0  0  0  0  0  0  0  0
  -16.6613   -5.0127  -11.7599 C   0  0  0  0  0  0  0  0  0  0  0  0
  -13.0968   -5.0778  -11.8690 C   0  0  0  0  0  0  0  0  0  0  0  0
  -13.1481   -6.5370  -12.3263 C   0  0  0  0  0  0  0  0  0  0  0  0
  -13.9476   -6.8769  -13.4378 C   0  0  0  0  0  0  0  0  0  0  0  0
  -13.8627   -8.1157  -14.0691 C   0  0  0  0  0  0  0  0  0  0  0  0
  -12.9744   -9.0556  -13.5781 C   0  0  0  0  0  0  0  0  0  0  0  0
  -12.2763   -8.7779  -12.4056 C   0  0  0  0  0  0  0  0  0  0  0  0
  -12.4171   -7.5709  -11.7192 C   0  0  0  0  0  0  0  0  0  0  0  0
  -11.6518   -7.3873  -10.5548 N   0  0  0  0  0  0  0  0  0  0  0  0
  -11.4213   -8.2549  -10.0797 H   0  0  0  0  0  0  0  0  0  0  0  0
  -12.0782   -6.7341   -9.9071 H   0  0  0  0  0  0  0  0  0  0  0  0
 24 25  1  0  0  0
 25 18  1  0  0  0
 18 19  2  0  0  0
 18 23  1  0  0  0
 19 20  1  0  0  0
 20  1  1  0  0  0
 20 21  1  0  0  0
  1 28  1  0  0  0
  1  2  1  0  0  0
 28 29  1  0  0  0
 29 30  1  0  0  0
 30 34  1  0  0  0
 30 31  1  0  0  0
 34 35  1  0  0  0
 35 36  1  0  0  0
 35 40  2  0  0  0
 36 37  2  0  0  0
 37 38  1  0  0  0
 38 39  2  0  0  0
 39 40  1  0  0  0
 40 41  1  0  0  0
 41 42  1  0  0  0
 41 43  1  0  0  0
 31 32  1  0  0  0
 31 33  1  0  0  0
  2  3  1  0  0  0
  2 11  2  0  0  0
  3  4  2  0  0  0
  4  5  1  0  0  0
  5  6  1  0  0  0
  5 10  2  0  0  0
  6  7  2  0  0  0
  7  8  1  0  0  0
  8 12  1  0  0  0
  8  9  2  0  0  0
 12 13  1  0  0  0
 12 17  2  0  0  0
 13 14  2  0  0  0
 14 15  1  0  0  0
 15 16  1  0  0  0
 15 17  1  0  0  0
  9 10  1  0  0  0
 10 11  1  0  0  0
 21 22  1  0  0  0
 22 26  1  0  0  0
 22 23  2  0  0  0
 26 27  1  0  0  0
M  END
> <minimizedAffinity>
-6.42150

$$$$
