CHEMBL1982660


 28 30  0  0  0  0  0  0  0  0999 V2000
  -26.4144   -2.5467  -10.5948 N   0  0  0  0  0  0  0  0  0  0  0  0
  -27.4194   -2.1769   -9.7239 C   0  0  0  0  0  0  0  0  0  0  0  0
  -28.3522   -1.4438  -10.0341 O   0  0  0  0  0  0  0  0  0  0  0  0
  -27.2161   -2.6716   -8.4515 N   0  0  0  0  0  0  0  0  0  0  0  0
  -25.5823   -2.9373  -10.1847 H   0  0  0  0  0  0  0  0  0  0  0  0
  -26.2651   -2.8168   -8.1528 H   0  0  0  0  0  0  0  0  0  0  0  0
  -22.7691   -0.4528  -13.5226 C   0  0  0  0  0  0  0  0  0  0  0  0
  -22.8022   -0.8028  -12.1801 C   0  0  0  0  0  0  0  0  0  0  0  0
  -23.9630   -1.3516  -11.6389 C   0  0  0  0  0  0  0  0  0  0  0  0
  -25.1179   -1.5577  -12.4308 C   0  0  0  0  0  0  0  0  0  0  0  0
  -26.3358   -2.0805  -11.9354 C   0  0  0  0  0  0  0  0  0  0  0  0
  -27.4472   -2.1409  -12.7675 C   0  0  0  0  0  0  0  0  0  0  0  0
  -27.3133   -1.7154  -14.0717 C   0  0  0  0  0  0  0  0  0  0  0  0
  -26.1611   -1.2493  -14.5939 N   0  0  0  0  0  0  0  0  0  0  0  0
  -25.0905   -1.1596  -13.7861 C   0  0  0  0  0  0  0  0  0  0  0  0
  -23.9149   -0.6320  -14.3038 C   0  0  0  0  0  0  0  0  0  0  0  0
  -21.5403    1.4990  -14.0863 C   0  0  0  0  0  0  0  0  0  0  0  0
  -21.6973    0.0878  -14.1779 O   0  0  0  0  0  0  0  0  0  0  0  0
  -28.0549   -2.3079   -7.3911 C   0  0  0  0  0  0  0  0  0  0  0  0
  -29.0123   -3.1772   -6.8820 C   0  0  0  0  0  0  0  0  0  0  0  0
  -29.8981   -2.7153   -5.9219 C   0  0  0  0  0  0  0  0  0  0  0  0
  -29.8094   -1.3910   -5.5044 C   0  0  0  0  0  0  0  0  0  0  0  0
  -28.8042   -0.5788   -6.0339 C   0  0  0  0  0  0  0  0  0  0  0  0
  -27.8964   -1.0469   -6.9451 N   0  0  0  0  0  0  0  0  0  0  0  0
  -28.7483    0.8908   -5.6365 C   0  0  0  0  0  0  0  0  0  0  0  0
  -27.7963    1.1577   -4.6924 F   0  0  0  0  0  0  0  0  0  0  0  0
  -28.4654    1.7189   -6.6816 F   0  0  0  0  0  0  0  0  0  0  0  0
  -29.9201    1.3433   -5.1028 F   0  0  0  0  0  0  0  0  0  0  0  0
 17 18  1  0  0  0
 18  7  1  0  0  0
  7  8  1  0  0  0
  7 16  2  0  0  0
  8  9  2  0  0  0
  9 10  1  0  0  0
 10 11  1  0  0  0
 10 15  2  0  0  0
 11  1  1  0  0  0
 11 12  2  0  0  0
  1  2  1  0  0  0
  1  5  1  0  0  0
  2  3  2  0  0  0
  2  4  1  0  0  0
  4 19  1  0  0  0
  4  6  1  0  0  0
 19 20  1  0  0  0
 19 24  2  0  0  0
 20 21  2  0  0  0
 21 22  1  0  0  0
 22 23  2  0  0  0
 23 25  1  0  0  0
 23 24  1  0  0  0
 25 26  1  0  0  0
 25 27  1  0  0  0
 25 28  1  0  0  0
 12 13  1  0  0  0
 13 14  2  0  0  0
 14 15  1  0  0  0
 15 16  1  0  0  0
M  END
> <minimizedAffinity>
-10.50823

$$$$
