CHEMBL4448596


 38 44  0  0  0  0  0  0  0  0999 V2000
  -28.1921   -2.5706   -8.2823 C   0  0  0  0  0  0  0  0  0  0  0  0
  -26.9932   -1.8373   -8.2271 C   0  0  0  0  0  0  0  0  0  0  0  0
  -26.3471   -1.3581   -9.3793 C   0  0  0  0  0  0  0  0  0  0  0  0
  -26.9035   -1.6327  -10.6424 C   0  0  0  0  0  0  0  0  0  0  0  0
  -26.5644   -1.3814  -12.0151 C   0  0  0  0  0  0  0  0  0  0  0  0
  -27.5282   -1.8389  -12.8340 N   0  0  0  0  0  0  0  0  0  0  0  0
  -28.4282   -2.3971  -12.0133 N   0  0  0  0  0  0  0  0  0  0  0  0
  -28.1056   -2.3220  -10.6873 C   0  0  0  0  0  0  0  0  0  0  0  0
  -28.7725   -2.7864   -9.5451 C   0  0  0  0  0  0  0  0  0  0  0  0
  -29.2486   -2.8253  -12.4229 H   0  0  0  0  0  0  0  0  0  0  0  0
  -27.9213   -7.3835   -8.7112 C   0  0  0  0  0  0  0  0  0  0  0  0
  -29.1211   -8.1220   -8.6691 C   0  0  0  0  0  0  0  0  0  0  0  0
  -30.2175   -7.6753   -7.9347 C   0  0  0  0  0  0  0  0  0  0  0  0
  -30.0839   -6.4611   -7.2986 C   0  0  0  0  0  0  0  0  0  0  0  0
  -28.9226   -5.6708   -7.3538 C   0  0  0  0  0  0  0  0  0  0  0  0
  -27.8102   -6.1679   -8.0193 C   0  0  0  0  0  0  0  0  0  0  0  0
  -29.1918   -4.4117   -6.5753 C   0  0  0  0  0  0  0  0  0  0  0  0
  -28.1096   -3.6376   -5.8834 C   0  0  0  0  0  0  0  0  0  0  0  0
  -28.8893   -2.9844   -7.0067 C   0  0  0  0  0  0  0  0  0  0  0  0
  -30.5576   -4.6513   -5.9691 C   0  0  0  0  0  0  0  0  0  0  0  0
  -31.1251   -3.9014   -5.1877 O   0  0  0  0  0  0  0  0  0  0  0  0
  -31.0335   -5.8401   -6.4854 N   0  0  0  0  0  0  0  0  0  0  0  0
  -31.9336   -6.2171   -6.2431 H   0  0  0  0  0  0  0  0  0  0  0  0
  -27.1069   -9.3317   -9.8107 C   0  0  0  0  0  0  0  0  0  0  0  0
  -26.9453   -7.9581   -9.4808 O   0  0  0  0  0  0  0  0  0  0  0  0
  -25.3577   -0.7569  -12.5571 C   0  0  0  0  0  0  0  0  0  0  0  0
  -24.8954   -1.0909  -13.8305 C   0  0  0  0  0  0  0  0  0  0  0  0
  -23.7595   -0.4759  -14.3570 C   0  0  0  0  0  0  0  0  0  0  0  0
  -23.0507    0.5056  -13.6513 C   0  0  0  0  0  0  0  0  0  0  0  0
  -23.5317    0.8474  -12.3824 C   0  0  0  0  0  0  0  0  0  0  0  0
  -24.6665    0.2251  -11.8397 C   0  0  0  0  0  0  0  0  0  0  0  0
  -21.9757    1.1285  -14.2441 N   0  0  0  0  0  0  0  0  0  0  0  0
  -21.0211    0.4188  -15.1038 C   0  0  0  0  0  0  0  0  0  0  0  0
  -19.6034    0.9976  -14.8653 C   0  0  0  0  0  0  0  0  0  0  0  0
  -19.5406    2.4669  -15.0596 N   0  0  0  0  0  0  0  0  0  0  0  0
  -18.1990    2.9680  -14.7799 C   0  0  0  0  0  0  0  0  0  0  0  0
  -20.5311    3.1174  -14.1706 C   0  0  0  0  0  0  0  0  0  0  0  0
  -21.9619    2.5906  -14.4089 C   0  0  0  0  0  0  0  0  0  0  0  0
 24 25  1  0  0  0
 25 11  1  0  0  0
 11 12  1  0  0  0
 11 16  2  0  0  0
 12 13  2  0  0  0
 13 14  1  0  0  0
 14 15  2  0  0  0
 14 22  1  0  0  0
 15 16  1  0  0  0
 17 15  1  0  0  0
 17 18  1  0  0  0
 17 19  1  0  0  0
 17 20  1  0  0  0
 18 19  1  0  0  0
 19  1  1  0  0  0
  1  2  1  0  0  0
  1  9  2  0  0  0
  2  3  2  0  0  0
  3  4  1  0  0  0
  4  5  1  0  0  0
  4  8  2  0  0  0
  5 26  1  0  0  0
  5  6  2  0  0  0
 26 27  1  0  0  0
 26 31  2  0  0  0
 27 28  2  0  0  0
 28 29  1  0  0  0
 29 32  1  0  0  0
 29 30  2  0  0  0
 32 33  1  0  0  0
 32 38  1  0  0  0
 33 34  1  0  0  0
 34 35  1  0  0  0
 35 36  1  0  0  0
 35 37  1  0  0  0
 37 38  1  0  0  0
 30 31  1  0  0  0
  6  7  1  0  0  0
  7  8  1  0  0  0
  7 10  1  0  0  0
  8  9  1  0  0  0
 20 21  2  0  0  0
 20 22  1  0  0  0
 22 23  1  0  0  0
M  END
> <minimizedAffinity>
-7.21174

$$$$
