CHEMBL3752916


 27 29  0  0  0  0  0  0  0  0999 V2000
  -27.6761   -1.8015   -8.6248 C   0  0  0  0  0  0  0  0  0  0  0  0
  -27.9669   -3.0691   -8.1094 C   0  0  0  0  0  0  0  0  0  0  0  0
  -28.5242   -3.2301   -6.8461 C   0  0  0  0  0  0  0  0  0  0  0  0
  -28.7932   -2.0902   -6.0761 C   0  0  0  0  0  0  0  0  0  0  0  0
  -28.4802   -0.8042   -6.5577 C   0  0  0  0  0  0  0  0  0  0  0  0
  -27.9370   -0.6720   -7.8463 C   0  0  0  0  0  0  0  0  0  0  0  0
  -26.9341   -1.7418  -13.4990 C   0  0  0  0  0  0  0  0  0  0  0  0
  -26.7264   -1.6849  -12.0763 N   0  0  0  0  0  0  0  0  0  0  0  0
  -25.5340   -1.5694  -11.4256 C   0  0  0  0  0  0  0  0  0  0  0  0
  -25.6996   -1.5373  -10.1209 N   0  0  0  0  0  0  0  0  0  0  0  0
  -27.0525   -1.6821   -9.9263 C   0  0  0  0  0  0  0  0  0  0  0  0
  -27.7108   -1.7509  -11.1362 C   0  0  0  0  0  0  0  0  0  0  0  0
  -28.7942   -4.4943   -6.2933 N   0  0  0  0  0  0  0  0  0  0  0  0
  -28.3949   -4.9948   -5.0740 C   0  0  0  0  0  0  0  0  0  0  0  0
  -27.6592   -4.4348   -4.2624 O   0  0  0  0  0  0  0  0  0  0  0  0
  -28.9081   -6.2053   -4.7120 N   0  0  0  0  0  0  0  0  0  0  0  0
  -29.3974   -5.1114   -6.8325 H   0  0  0  0  0  0  0  0  0  0  0  0
  -28.6948   -6.5128   -3.7746 H   0  0  0  0  0  0  0  0  0  0  0  0
  -29.6916   -6.9972   -5.4943 C   0  0  0  0  0  0  0  0  0  0  0  0
  -30.9069   -6.7360   -5.9161 N   0  0  0  0  0  0  0  0  0  0  0  0
  -31.3420   -7.7960   -6.6847 C   0  0  0  0  0  0  0  0  0  0  0  0
  -30.4684   -8.8590   -6.7800 C   0  0  0  0  0  0  0  0  0  0  0  0
  -29.0139   -8.4871   -5.9458 S   0  0  0  0  0  0  0  0  0  0  0  0
  -28.6667    0.4265   -5.7063 C   0  0  0  0  0  0  0  0  0  0  0  0
  -27.8286    0.4777   -4.6322 F   0  0  0  0  0  0  0  0  0  0  0  0
  -28.4431    1.5780   -6.4001 F   0  0  0  0  0  0  0  0  0  0  0  0
  -29.9258    0.5342   -5.1997 F   0  0  0  0  0  0  0  0  0  0  0  0
  7  8  1  0  0  0
  8  9  1  0  0  0
  8 12  1  0  0  0
  9 10  2  0  0  0
 10 11  1  0  0  0
 11  1  1  0  0  0
 11 12  2  0  0  0
  1  2  1  0  0  0
  1  6  2  0  0  0
  2  3  2  0  0  0
  3 13  1  0  0  0
  3  4  1  0  0  0
 13 14  1  0  0  0
 13 17  1  0  0  0
 14 15  2  0  0  0
 14 16  1  0  0  0
 16 19  1  0  0  0
 16 18  1  0  0  0
 19 20  2  0  0  0
 19 23  1  0  0  0
 20 21  1  0  0  0
 21 22  2  0  0  0
 22 23  1  0  0  0
  4  5  2  0  0  0
  5 24  1  0  0  0
  5  6  1  0  0  0
 24 25  1  0  0  0
 24 26  1  0  0  0
 24 27  1  0  0  0
M  END
> <minimizedAffinity>
-8.77328

$$$$
