CHEMBL3900059


 37 41  0  0  0  0  0  0  0  0999 V2000
  -28.3840   -0.4396   -6.4553 C   0  0  0  0  0  0  0  0  0  0  0  0
  -27.8899   -0.8068   -7.7078 C   0  0  0  0  0  0  0  0  0  0  0  0
  -27.8066   -2.1568   -8.0945 C   0  0  0  0  0  0  0  0  0  0  0  0
  -27.2043   -2.5901   -9.2816 C   0  0  0  0  0  0  0  0  0  0  0  0
  -27.2047   -3.8789   -9.6560 N   0  0  0  0  0  0  0  0  0  0  0  0
  -27.7607   -4.7405   -8.7972 C   0  0  0  0  0  0  0  0  0  0  0  0
  -28.3126   -4.4409   -7.6149 N   0  0  0  0  0  0  0  0  0  0  0  0
  -28.3367   -3.1490   -7.2752 C   0  0  0  0  0  0  0  0  0  0  0  0
  -28.9099   -2.7663   -6.0717 C   0  0  0  0  0  0  0  0  0  0  0  0
  -28.9772   -1.4240   -5.6551 C   0  0  0  0  0  0  0  0  0  0  0  0
  -29.3213    1.7181   -6.4931 C   0  0  0  0  0  0  0  0  0  0  0  0
  -28.2866    0.8531   -5.9997 O   0  0  0  0  0  0  0  0  0  0  0  0
  -26.5045   -1.6454  -10.0627 N   0  0  0  0  0  0  0  0  0  0  0  0
  -25.8236   -1.1400   -9.5019 H   0  0  0  0  0  0  0  0  0  0  0  0
  -26.1674   -1.7105  -11.4262 C   0  0  0  0  0  0  0  0  0  0  0  0
  -27.1487   -1.7589  -12.4190 C   0  0  0  0  0  0  0  0  0  0  0  0
  -26.8078   -1.6010  -13.7624 C   0  0  0  0  0  0  0  0  0  0  0  0
  -25.4720   -1.4085  -14.1353 C   0  0  0  0  0  0  0  0  0  0  0  0
  -25.1464   -1.1075  -15.8036 Cl  0  0  0  0  0  0  0  0  0  0  0  0
  -24.4718   -1.4188  -13.1640 C   0  0  0  0  0  0  0  0  0  0  0  0
  -22.7962   -1.2211  -13.5598 Cl  0  0  0  0  0  0  0  0  0  0  0  0
  -24.8267   -1.5567  -11.8215 C   0  0  0  0  0  0  0  0  0  0  0  0
  -23.8850   -1.5165  -10.8588 F   0  0  0  0  0  0  0  0  0  0  0  0
  -29.5957   -1.0507   -4.4798 O   0  0  0  0  0  0  0  0  0  0  0  0
  -30.6506   -1.9464   -4.0608 C   0  0  0  0  0  0  0  0  0  0  0  0
  -30.2400   -2.7193   -2.7934 C   0  0  0  0  0  0  0  0  0  0  0  0
  -28.9184   -3.4974   -3.0318 C   0  0  0  0  0  0  0  0  0  0  0  0
  -29.1072   -4.6867   -3.8892 N   0  0  0  0  0  0  0  0  0  0  0  0
  -27.8445   -5.4356   -4.0279 C   0  0  0  0  0  0  0  0  0  0  0  0
  -28.0065   -6.6453   -4.9540 C   0  0  0  0  0  0  0  0  0  0  0  0
  -29.1451   -7.5545   -4.5044 C   0  0  0  0  0  0  0  0  0  0  0  0
  -30.4185   -6.7464   -4.2788 C   0  0  0  0  0  0  0  0  0  0  0  0
  -30.1567   -5.5797   -3.3165 C   0  0  0  0  0  0  0  0  0  0  0  0
  -31.4690   -4.8256   -3.0019 C   0  0  0  0  0  0  0  0  0  0  0  0
  -32.5862   -5.3054   -3.1540 O   0  0  0  0  0  0  0  0  0  0  0  0
  -31.3223   -3.6061   -2.3819 N   0  0  0  0  0  0  0  0  0  0  0  0
  -32.2182   -3.1564   -2.2218 H   0  0  0  0  0  0  0  0  0  0  0  0
 11 12  1  0  0  0
 12  1  1  0  0  0
  1  2  1  0  0  0
  1 10  2  0  0  0
  2  3  2  0  0  0
  3  4  1  0  0  0
  3  8  1  0  0  0
  4 13  1  0  0  0
  4  5  2  0  0  0
 13 15  1  0  0  0
 13 14  1  0  0  0
 15 16  1  0  0  0
 15 22  2  0  0  0
 16 17  2  0  0  0
 17 18  1  0  0  0
 18 19  1  0  0  0
 18 20  2  0  0  0
 20 21  1  0  0  0
 20 22  1  0  0  0
 22 23  1  0  0  0
  5  6  1  0  0  0
  6  7  2  0  0  0
  7  8  1  0  0  0
  8  9  2  0  0  0
  9 10  1  0  0  0
 10 24  1  0  0  0
 24 25  1  0  0  0
 26 27  1  0  0  0
 26 36  1  0  0  0
 26 25  1  0  0  0
 27 28  1  0  0  0
 28 29  1  0  0  0
 28 33  1  0  0  0
 29 30  1  0  0  0
 30 31  1  0  0  0
 31 32  1  0  0  0
 32 33  1  0  0  0
 33 34  1  0  0  0
 34 35  2  0  0  0
 34 36  1  0  0  0
 36 37  1  0  0  0
M  END
> <minimizedAffinity>
-7.63211

$$$$
