CHEMBL1999811


 27 29  0  0  0  0  0  0  0  0999 V2000
  -13.7115   -1.6784  -14.6871 O   0  0  0  0  0  0  0  0  0  0  0  0
  -14.7453   -1.1141  -14.3463 C   0  0  0  0  0  0  0  0  0  0  0  0
  -14.9442    0.2210  -14.6505 N   0  0  0  0  0  0  0  0  0  0  0  0
  -15.7981   -1.6606  -13.6574 N   0  0  0  0  0  0  0  0  0  0  0  0
  -14.2096    0.6860  -15.1716 H   0  0  0  0  0  0  0  0  0  0  0  0
  -16.5575   -1.0021  -13.5065 H   0  0  0  0  0  0  0  0  0  0  0  0
  -15.9528   -2.9705  -13.1802 C   0  0  0  0  0  0  0  0  0  0  0  0
  -16.5514   -4.0205  -13.9035 C   0  0  0  0  0  0  0  0  0  0  0  0
  -16.7098   -5.3337  -13.3935 C   0  0  0  0  0  0  0  0  0  0  0  0
  -16.2821   -5.7203  -12.1131 C   0  0  0  0  0  0  0  0  0  0  0  0
  -15.6597   -4.7134  -11.3395 C   0  0  0  0  0  0  0  0  0  0  0  0
  -15.1720   -4.8705  -10.0990 N   0  0  0  0  0  0  0  0  0  0  0  0
  -14.5488   -3.3988   -9.6507 S   0  0  0  0  0  0  0  0  0  0  0  0
  -14.8746   -2.4896  -11.0025 N   0  0  0  0  0  0  0  0  0  0  0  0
  -15.4872   -3.3123  -11.8760 C   0  0  0  0  0  0  0  0  0  0  0  0
  -16.1030    0.8674  -14.3315 N   0  0  0  0  0  0  0  0  0  0  0  0
  -16.9195    1.0481  -15.3240 C   0  0  0  0  0  0  0  0  0  0  0  0
  -18.2370    1.6816  -15.1188 C   0  0  0  0  0  0  0  0  0  0  0  0
  -19.3849    0.8811  -15.0381 C   0  0  0  0  0  0  0  0  0  0  0  0
  -20.6414    1.4689  -14.8994 C   0  0  0  0  0  0  0  0  0  0  0  0
  -20.7422    2.8554  -14.8365 C   0  0  0  0  0  0  0  0  0  0  0  0
  -21.9539    3.4704  -14.7233 O   0  0  0  0  0  0  0  0  0  0  0  0
  -19.6099    3.6636  -14.8953 C   0  0  0  0  0  0  0  0  0  0  0  0
  -18.3537    3.0739  -15.0378 C   0  0  0  0  0  0  0  0  0  0  0  0
  -17.2376    3.8612  -15.1078 O   0  0  0  0  0  0  0  0  0  0  0  0
  -22.6513    2.7933  -14.7432 H   0  0  0  0  0  0  0  0  0  0  0  0
  -17.5060    4.7942  -15.0377 H   0  0  0  0  0  0  0  0  0  0  0  0
  1  2  2  0  0  0
  2  3  1  0  0  0
  2  4  1  0  0  0
  3 16  1  0  0  0
  3  5  1  0  0  0
 16 17  2  0  0  0
 17 18  1  0  0  0
 18 19  1  0  0  0
 18 24  2  0  0  0
 19 20  2  0  0  0
 20 21  1  0  0  0
 21 22  1  0  0  0
 21 23  2  0  0  0
 22 26  1  0  0  0
 23 24  1  0  0  0
 24 25  1  0  0  0
 25 27  1  0  0  0
  4  7  1  0  0  0
  4  6  1  0  0  0
  7  8  2  0  0  0
  7 15  1  0  0  0
  8  9  1  0  0  0
  9 10  2  0  0  0
 10 11  1  0  0  0
 11 12  2  0  0  0
 11 15  1  0  0  0
 12 13  1  0  0  0
 13 14  1  0  0  0
 14 15  2  0  0  0
M  END
> <minimizedAffinity>
-9.17142

$$$$
