CHEMBL3690385


 32 35  0  0  0  0  0  0  0  0999 V2000
  -29.1640   -6.4002   -3.8887 C   0  0  0  0  0  0  0  0  0  0  0  0
  -30.4939   -6.4806   -3.4878 C   0  0  0  0  0  0  0  0  0  0  0  0
  -31.3938   -5.4841   -3.6553 N   0  0  0  0  0  0  0  0  0  0  0  0
  -30.9417   -4.3528   -4.2379 C   0  0  0  0  0  0  0  0  0  0  0  0
  -29.6250   -4.1312   -4.6403 C   0  0  0  0  0  0  0  0  0  0  0  0
  -28.7387   -5.2039   -4.4826 C   0  0  0  0  0  0  0  0  0  0  0  0
  -29.2061   -2.8763   -5.2756 C   0  0  0  0  0  0  0  0  0  0  0  0
  -28.8883   -1.6516   -4.7057 C   0  0  0  0  0  0  0  0  0  0  0  0
  -28.2929   -0.8071   -5.6036 N   0  0  0  0  0  0  0  0  0  0  0  0
  -28.2668   -1.4765   -6.7345 C   0  0  0  0  0  0  0  0  0  0  0  0
  -27.6481   -1.1798   -7.9846 C   0  0  0  0  0  0  0  0  0  0  0  0
  -27.8037   -1.9983   -9.0526 C   0  0  0  0  0  0  0  0  0  0  0  0
  -28.7261   -3.1394   -8.9396 C   0  0  0  0  0  0  0  0  0  0  0  0
  -29.2504   -3.4611   -7.7449 C   0  0  0  0  0  0  0  0  0  0  0  0
  -28.9521   -2.6803   -6.6291 N   0  0  0  0  0  0  0  0  0  0  0  0
  -27.0099   -1.7164  -10.2764 C   0  0  0  0  0  0  0  0  0  0  0  0
  -27.5839   -1.7174  -11.5426 C   0  0  0  0  0  0  0  0  0  0  0  0
  -26.7684   -1.5282  -12.6534 C   0  0  0  0  0  0  0  0  0  0  0  0
  -25.4158   -1.3535  -12.4473 C   0  0  0  0  0  0  0  0  0  0  0  0
  -24.8717   -1.3499  -11.2177 N   0  0  0  0  0  0  0  0  0  0  0  0
  -25.6771   -1.5330  -10.1263 N   0  0  0  0  0  0  0  0  0  0  0  0
  -28.1383   -8.3304   -5.8722 O   0  0  0  0  0  0  0  0  0  0  0  0
  -27.7989   -8.3144   -4.6981 C   0  0  0  0  0  0  0  0  0  0  0  0
  -26.9035   -9.2302   -4.1882 N   0  0  0  0  0  0  0  0  0  0  0  0
  -28.2158   -7.4314   -3.7305 N   0  0  0  0  0  0  0  0  0  0  0  0
  -27.0148   -9.4504   -3.2086 H   0  0  0  0  0  0  0  0  0  0  0  0
  -27.7893   -7.5238   -2.8214 H   0  0  0  0  0  0  0  0  0  0  0  0
  -26.4646  -10.3383   -5.0434 C   0  0  0  0  0  0  0  0  0  0  0  0
  -25.0092  -10.2522   -5.5252 C   0  0  0  0  0  0  0  0  0  0  0  0
  -24.9312  -10.0661   -6.8641 F   0  0  0  0  0  0  0  0  0  0  0  0
  -24.3250   -9.2602   -4.9214 F   0  0  0  0  0  0  0  0  0  0  0  0
  -24.3644  -11.4148   -5.2566 F   0  0  0  0  0  0  0  0  0  0  0  0
 22 23  2  0  0  0
 23 24  1  0  0  0
 23 25  1  0  0  0
 24 28  1  0  0  0
 24 26  1  0  0  0
 28 29  1  0  0  0
 29 30  1  0  0  0
 29 31  1  0  0  0
 29 32  1  0  0  0
 25  1  1  0  0  0
 25 27  1  0  0  0
  1  2  1  0  0  0
  1  6  2  0  0  0
  2  3  2  0  0  0
  3  4  1  0  0  0
  4  5  2  0  0  0
  5  7  1  0  0  0
  5  6  1  0  0  0
  7  8  2  0  0  0
  7 15  1  0  0  0
  8  9  1  0  0  0
  9 10  2  0  0  0
 10 11  1  0  0  0
 10 15  1  0  0  0
 11 12  2  0  0  0
 12 16  1  0  0  0
 12 13  1  0  0  0
 16 17  1  0  0  0
 16 21  2  0  0  0
 17 18  2  0  0  0
 18 19  1  0  0  0
 19 20  2  0  0  0
 20 21  1  0  0  0
 13 14  2  0  0  0
 14 15  1  0  0  0
M  END
> <minimizedAffinity>
-9.10398

$$$$
