CHEMBL2086754


 39 44  0  0  0  0  0  0  0  0999 V2000
  -29.5010   -8.9173   -6.7051 C   0  0  0  0  0  0  0  0  0  0  0  0
  -28.7389   -9.1080   -7.8732 C   0  0  0  0  0  0  0  0  0  0  0  0
  -28.1458   -8.0329   -8.5314 C   0  0  0  0  0  0  0  0  0  0  0  0
  -28.3121   -6.7815   -7.9781 C   0  0  0  0  0  0  0  0  0  0  0  0
  -29.0162   -6.5472   -6.7926 C   0  0  0  0  0  0  0  0  0  0  0  0
  -29.5945   -7.6271   -6.1417 C   0  0  0  0  0  0  0  0  0  0  0  0
  -28.9649   -5.0817   -6.5625 C   0  0  0  0  0  0  0  0  0  0  0  0
  -29.4169   -4.3278   -5.5322 C   0  0  0  0  0  0  0  0  0  0  0  0
  -28.2380   -4.5033   -7.7697 C   0  0  0  0  0  0  0  0  0  0  0  0
  -28.0786   -3.3425   -8.0919 O   0  0  0  0  0  0  0  0  0  0  0  0
  -27.8481   -5.5938   -8.5227 N   0  0  0  0  0  0  0  0  0  0  0  0
  -27.3542   -5.4951   -9.3961 H   0  0  0  0  0  0  0  0  0  0  0  0
  -29.1542   -2.9242   -5.5125 C   0  0  0  0  0  0  0  0  0  0  0  0
  -28.1009   -2.2573   -5.0832 N   0  0  0  0  0  0  0  0  0  0  0  0
  -28.3965   -0.9305   -5.2880 C   0  0  0  0  0  0  0  0  0  0  0  0
  -27.6169    0.2101   -5.0477 C   0  0  0  0  0  0  0  0  0  0  0  0
  -28.1579    1.4692   -5.3392 C   0  0  0  0  0  0  0  0  0  0  0  0
  -29.4519    1.5908   -5.8526 C   0  0  0  0  0  0  0  0  0  0  0  0
  -30.2462    0.4642   -6.0983 C   0  0  0  0  0  0  0  0  0  0  0  0
  -29.6769   -0.7779   -5.8072 C   0  0  0  0  0  0  0  0  0  0  0  0
  -30.1380   -2.0626   -5.9381 N   0  0  0  0  0  0  0  0  0  0  0  0
  -31.0360   -2.3322   -6.3076 H   0  0  0  0  0  0  0  0  0  0  0  0
  -30.0888   -4.9387   -4.3629 C   0  0  0  0  0  0  0  0  0  0  0  0
  -31.4028   -4.5740   -4.0443 C   0  0  0  0  0  0  0  0  0  0  0  0
  -32.0559   -5.1610   -2.9577 C   0  0  0  0  0  0  0  0  0  0  0  0
  -31.4081   -6.1265   -2.1791 C   0  0  0  0  0  0  0  0  0  0  0  0
  -32.0973   -6.7586   -1.0056 C   0  0  0  0  0  0  0  0  0  0  0  0
  -30.1040   -6.5111   -2.5156 C   0  0  0  0  0  0  0  0  0  0  0  0
  -29.4467   -5.9216   -3.5994 C   0  0  0  0  0  0  0  0  0  0  0  0
  -30.1158   -9.9724   -6.0175 N   0  0  0  0  0  0  0  0  0  0  0  0
  -29.9705   -9.8422   -5.0158 H   0  0  0  0  0  0  0  0  0  0  0  0
  -32.5896  -12.4656   -6.8757 N   0  0  0  0  0  0  0  0  0  0  0  0
  -31.9530  -11.5550   -7.8471 C   0  0  0  0  0  0  0  0  0  0  0  0
  -30.4315  -11.6711   -7.8223 C   0  0  0  0  0  0  0  0  0  0  0  0
  -29.8739  -11.3713   -6.4273 C   0  0  0  0  0  0  0  0  0  0  0  0
  -30.5585  -12.3119   -5.4323 C   0  0  0  0  0  0  0  0  0  0  0  0
  -32.0840  -12.2152   -5.5160 C   0  0  0  0  0  0  0  0  0  0  0  0
  -34.5555  -10.9729   -6.3848 C   0  0  0  0  0  0  0  0  0  0  0  0
  -34.0525  -12.2926   -6.9580 C   0  0  0  0  0  0  0  0  0  0  0  0
 38 39  1  0  0  0
 39 32  1  0  0  0
 32 33  1  0  0  0
 32 37  1  0  0  0
 33 34  1  0  0  0
 34 35  1  0  0  0
 35 30  1  0  0  0
 35 36  1  0  0  0
 30  1  1  0  0  0
 30 31  1  0  0  0
  1  2  1  0  0  0
  1  6  2  0  0  0
  2  3  2  0  0  0
  3  4  1  0  0  0
  4  5  2  0  0  0
  4 11  1  0  0  0
  5  6  1  0  0  0
  5  7  1  0  0  0
  7  8  2  0  0  0
  7  9  1  0  0  0
  8 23  1  0  0  0
  8 13  1  0  0  0
 23 24  1  0  0  0
 23 29  2  0  0  0
 24 25  2  0  0  0
 25 26  1  0  0  0
 26 27  1  0  0  0
 26 28  2  0  0  0
 28 29  1  0  0  0
 13 14  2  0  0  0
 13 21  1  0  0  0
 14 15  1  0  0  0
 15 16  1  0  0  0
 15 20  2  0  0  0
 16 17  2  0  0  0
 17 18  1  0  0  0
 18 19  2  0  0  0
 19 20  1  0  0  0
 20 21  1  0  0  0
 21 22  1  0  0  0
  9 10  2  0  0  0
  9 11  1  0  0  0
 11 12  1  0  0  0
 36 37  1  0  0  0
M  END
> <minimizedAffinity>
-5.53025

$$$$
