CHEMBL3943632


 42 46  0  0  0  0  0  0  0  0999 V2000
  -28.9996   -0.7513   -5.6226 C   0  0  0  0  0  0  0  0  0  0  0  0
  -28.3315   -0.8627   -6.8522 C   0  0  0  0  0  0  0  0  0  0  0  0
  -28.1195   -2.1173   -7.4755 C   0  0  0  0  0  0  0  0  0  0  0  0
  -27.4266   -2.3454   -8.6764 C   0  0  0  0  0  0  0  0  0  0  0  0
  -27.3036   -3.5774   -9.2112 N   0  0  0  0  0  0  0  0  0  0  0  0
  -27.8650   -4.5868   -8.5464 C   0  0  0  0  0  0  0  0  0  0  0  0
  -28.5408   -4.4833   -7.4025 N   0  0  0  0  0  0  0  0  0  0  0  0
  -28.6551   -3.2590   -6.8873 C   0  0  0  0  0  0  0  0  0  0  0  0
  -29.3420   -3.1348   -5.6962 C   0  0  0  0  0  0  0  0  0  0  0  0
  -29.4928   -1.9098   -5.0137 C   0  0  0  0  0  0  0  0  0  0  0  0
  -30.1787    1.3309   -5.7214 C   0  0  0  0  0  0  0  0  0  0  0  0
  -29.1175    0.5421   -5.2022 O   0  0  0  0  0  0  0  0  0  0  0  0
  -26.8135   -1.2555   -9.3543 N   0  0  0  0  0  0  0  0  0  0  0  0
  -26.1216   -0.8341   -8.7498 H   0  0  0  0  0  0  0  0  0  0  0  0
  -26.4198   -1.3043  -10.7111 C   0  0  0  0  0  0  0  0  0  0  0  0
  -27.3783   -1.4525  -11.7248 C   0  0  0  0  0  0  0  0  0  0  0  0
  -27.0037   -1.5548  -13.0637 C   0  0  0  0  0  0  0  0  0  0  0  0
  -25.6564   -1.4992  -13.4129 C   0  0  0  0  0  0  0  0  0  0  0  0
  -25.2545   -1.6635  -15.0847 Cl  0  0  0  0  0  0  0  0  0  0  0  0
  -24.6893   -1.3241  -12.4164 C   0  0  0  0  0  0  0  0  0  0  0  0
  -22.9996   -1.2483  -12.7779 Cl  0  0  0  0  0  0  0  0  0  0  0  0
  -25.0742   -1.2158  -11.0715 C   0  0  0  0  0  0  0  0  0  0  0  0
  -30.1250   -1.8325   -3.7888 O   0  0  0  0  0  0  0  0  0  0  0  0
  -29.7015   -2.8448   -2.8598 C   0  0  0  0  0  0  0  0  0  0  0  0
  -30.1730   -4.2064   -3.2572 C   0  0  0  0  0  0  0  0  0  0  0  0
  -29.3403   -5.1390   -3.6771 N   0  0  0  0  0  0  0  0  0  0  0  0
  -30.0393   -6.2104   -4.2004 C   0  0  0  0  0  0  0  0  0  0  0  0
  -31.4132   -6.0981   -4.1081 C   0  0  0  0  0  0  0  0  0  0  0  0
  -31.8371   -4.5985   -3.3847 S   0  0  0  0  0  0  0  0  0  0  0  0
  -29.3325   -7.3624   -4.7462 C   0  0  0  0  0  0  0  0  0  0  0  0
  -29.8662   -8.0273   -5.8580 C   0  0  0  0  0  0  0  0  0  0  0  0
  -29.1768   -9.0807   -6.4609 C   0  0  0  0  0  0  0  0  0  0  0  0
  -27.9445   -9.4901   -5.9478 C   0  0  0  0  0  0  0  0  0  0  0  0
  -27.2686  -10.4913   -6.5967 O   0  0  0  0  0  0  0  0  0  0  0  0
  -27.4152   -8.8788   -4.8004 C   0  0  0  0  0  0  0  0  0  0  0  0
  -28.1251   -7.8203   -4.2032 C   0  0  0  0  0  0  0  0  0  0  0  0
  -27.7522  -10.7200   -7.4103 H   0  0  0  0  0  0  0  0  0  0  0  0
  -26.1173   -9.2573   -4.1643 C   0  0  0  0  0  0  0  0  0  0  0  0
  -25.3389   -8.2581   -3.6610 N   0  0  0  0  0  0  0  0  0  0  0  0
  -25.7584  -10.4267   -4.0820 O   0  0  0  0  0  0  0  0  0  0  0  0
  -25.6236   -7.2872   -3.7402 H   0  0  0  0  0  0  0  0  0  0  0  0
  -24.4565   -8.4922   -3.2305 H   0  0  0  0  0  0  0  0  0  0  0  0
 11 12  1  0  0  0
 12  1  1  0  0  0
  1  2  1  0  0  0
  1 10  2  0  0  0
  2  3  2  0  0  0
  3  4  1  0  0  0
  3  8  1  0  0  0
  4 13  1  0  0  0
  4  5  2  0  0  0
 13 15  1  0  0  0
 13 14  1  0  0  0
 15 16  1  0  0  0
 15 22  2  0  0  0
 16 17  2  0  0  0
 17 18  1  0  0  0
 18 19  1  0  0  0
 18 20  2  0  0  0
 20 21  1  0  0  0
 20 22  1  0  0  0
  5  6  1  0  0  0
  6  7  2  0  0  0
  7  8  1  0  0  0
  8  9  2  0  0  0
  9 10  1  0  0  0
 10 23  1  0  0  0
 23 24  1  0  0  0
 24 25  1  0  0  0
 25 26  2  0  0  0
 25 29  1  0  0  0
 26 27  1  0  0  0
 27 30  1  0  0  0
 27 28  2  0  0  0
 30 31  1  0  0  0
 30 36  2  0  0  0
 31 32  2  0  0  0
 32 33  1  0  0  0
 33 34  1  0  0  0
 33 35  2  0  0  0
 34 37  1  0  0  0
 35 38  1  0  0  0
 35 36  1  0  0  0
 38 39  1  0  0  0
 38 40  2  0  0  0
 39 41  1  0  0  0
 39 42  1  0  0  0
 28 29  1  0  0  0
M  END
> <minimizedAffinity>
-9.36614

$$$$
