CHEMBL92564


 23 26  0  0  0  0  0  0  0  0999 V2000
  -18.3180    2.3691  -15.4294 C   0  0  0  0  0  0  0  0  0  0  0  0
  -18.6930    0.9509  -15.1428 C   0  0  0  0  0  0  0  0  0  0  0  0
  -19.8242    0.5374  -14.6560 N   0  0  0  0  0  0  0  0  0  0  0  0
  -20.7630    1.5070  -14.4012 C   0  0  0  0  0  0  0  0  0  0  0  0
  -22.0570    1.4516  -13.9145 C   0  0  0  0  0  0  0  0  0  0  0  0
  -22.4997    2.7892  -13.9350 C   0  0  0  0  0  0  0  0  0  0  0  0
  -21.5656    3.6479  -14.3485 N   0  0  0  0  0  0  0  0  0  0  0  0
  -20.5042    2.8624  -14.6514 N   0  0  0  0  0  0  0  0  0  0  0  0
  -19.2738    3.2699  -15.1569 C   0  0  0  0  0  0  0  0  0  0  0  0
  -14.4835    3.4246  -16.9844 C   0  0  0  0  0  0  0  0  0  0  0  0
  -14.8074    2.0857  -16.7632 C   0  0  0  0  0  0  0  0  0  0  0  0
  -16.0666    1.7399  -16.2579 C   0  0  0  0  0  0  0  0  0  0  0  0
  -17.0130    2.7302  -15.9742 C   0  0  0  0  0  0  0  0  0  0  0  0
  -16.6920    4.0703  -16.2065 C   0  0  0  0  0  0  0  0  0  0  0  0
  -15.4340    4.4111  -16.7103 C   0  0  0  0  0  0  0  0  0  0  0  0
  -13.2317    5.2761  -17.7957 C   0  0  0  0  0  0  0  0  0  0  0  0
  -13.2898    3.8963  -17.4554 O   0  0  0  0  0  0  0  0  0  0  0  0
  -22.7742    0.2562  -13.5171 C   0  0  0  0  0  0  0  0  0  0  0  0
  -22.5359   -0.3808  -12.3024 C   0  0  0  0  0  0  0  0  0  0  0  0
  -23.2741   -1.5154  -11.9790 C   0  0  0  0  0  0  0  0  0  0  0  0
  -24.2253   -1.9844  -12.8744 C   0  0  0  0  0  0  0  0  0  0  0  0
  -24.4066   -1.2885  -14.0582 C   0  0  0  0  0  0  0  0  0  0  0  0
  -23.7151   -0.1759  -14.3939 N   0  0  0  0  0  0  0  0  0  0  0  0
 16 17  1  0  0  0
 17 10  1  0  0  0
 10 11  1  0  0  0
 10 15  2  0  0  0
 11 12  2  0  0  0
 12 13  1  0  0  0
 13  1  1  0  0  0
 13 14  2  0  0  0
  1  2  1  0  0  0
  1  9  2  0  0  0
  2  3  2  0  0  0
  3  4  1  0  0  0
  4  5  2  0  0  0
  4  8  1  0  0  0
  5 18  1  0  0  0
  5  6  1  0  0  0
 18 19  1  0  0  0
 18 23  2  0  0  0
 19 20  2  0  0  0
 20 21  1  0  0  0
 21 22  2  0  0  0
 22 23  1  0  0  0
  6  7  2  0  0  0
  7  8  1  0  0  0
  8  9  1  0  0  0
 14 15  1  0  0  0
M  END
> <minimizedAffinity>
-9.01527

$$$$
