CHEMBL3925481


 37 41  0  0  0  0  0  0  0  0999 V2000
  -28.4953   -6.0250   -5.6457 C   0  0  0  0  0  0  0  0  0  0  0  0
  -28.5138   -4.6764   -5.6439 C   0  0  0  0  0  0  0  0  0  0  0  0
  -27.6651   -4.2232   -4.5079 C   0  0  0  0  0  0  0  0  0  0  0  0
  -27.2827   -3.0851   -4.2839 O   0  0  0  0  0  0  0  0  0  0  0  0
  -27.2779   -5.3179   -3.8306 N   0  0  0  0  0  0  0  0  0  0  0  0
  -27.6038   -6.4197   -4.5199 C   0  0  0  0  0  0  0  0  0  0  0  0
  -27.1542   -7.5297   -4.2993 O   0  0  0  0  0  0  0  0  0  0  0  0
  -26.5644   -5.2881   -3.1190 H   0  0  0  0  0  0  0  0  0  0  0  0
  -28.9213   -3.6902   -6.5881 C   0  0  0  0  0  0  0  0  0  0  0  0
  -28.4348   -3.7707   -7.8774 C   0  0  0  0  0  0  0  0  0  0  0  0
  -28.0233   -2.4965   -8.1985 N   0  0  0  0  0  0  0  0  0  0  0  0
  -28.5627   -1.5902   -7.3016 C   0  0  0  0  0  0  0  0  0  0  0  0
  -28.3805   -0.2021   -7.1874 C   0  0  0  0  0  0  0  0  0  0  0  0
  -29.0585    0.4697   -6.1721 C   0  0  0  0  0  0  0  0  0  0  0  0
  -29.8875   -0.2221   -5.2960 C   0  0  0  0  0  0  0  0  0  0  0  0
  -29.9732   -1.6217   -5.3455 C   0  0  0  0  0  0  0  0  0  0  0  0
  -29.2797   -2.3284   -6.3509 C   0  0  0  0  0  0  0  0  0  0  0  0
  -26.8767   -2.1847   -9.0431 C   0  0  0  0  0  0  0  0  0  0  0  0
  -27.0778   -2.3991  -10.5469 C   0  0  0  0  0  0  0  0  0  0  0  0
  -27.1348   -1.1369  -11.3161 N   0  0  0  0  0  0  0  0  0  0  0  0
  -27.9524   -1.3142  -12.5398 C   0  0  0  0  0  0  0  0  0  0  0  0
  -27.2722   -2.1653  -13.6313 C   0  0  0  0  0  0  0  0  0  0  0  0
  -25.9665   -1.6756  -13.9646 O   0  0  0  0  0  0  0  0  0  0  0  0
  -25.1374   -1.5605  -12.8018 C   0  0  0  0  0  0  0  0  0  0  0  0
  -25.7993   -0.6568  -11.7499 C   0  0  0  0  0  0  0  0  0  0  0  0
  -28.9462   -8.3774   -8.6157 C   0  0  0  0  0  0  0  0  0  0  0  0
  -28.4124   -7.4037   -7.7488 C   0  0  0  0  0  0  0  0  0  0  0  0
  -29.0942   -6.9779   -6.5959 C   0  0  0  0  0  0  0  0  0  0  0  0
  -30.3479   -7.5360   -6.3364 C   0  0  0  0  0  0  0  0  0  0  0  0
  -30.9136   -8.4692   -7.2106 C   0  0  0  0  0  0  0  0  0  0  0  0
  -30.2080   -8.9223   -8.3378 C   0  0  0  0  0  0  0  0  0  0  0  0
  -27.0560   -9.4090   -9.6585 C   0  0  0  0  0  0  0  0  0  0  0  0
  -28.3147   -8.7560   -9.7731 O   0  0  0  0  0  0  0  0  0  0  0  0
  -32.1510   -9.0275   -6.9737 O   0  0  0  0  0  0  0  0  0  0  0  0
  -33.2377   -8.1012   -6.9320 C   0  0  0  0  0  0  0  0  0  0  0  0
  -30.8747   -9.8407   -9.1165 O   0  0  0  0  0  0  0  0  0  0  0  0
  -30.5880  -11.2152   -8.8864 C   0  0  0  0  0  0  0  0  0  0  0  0
 32 33  1  0  0  0
 33 26  1  0  0  0
 26 27  1  0  0  0
 26 31  2  0  0  0
 27 28  2  0  0  0
 28  1  1  0  0  0
 28 29  1  0  0  0
  1  2  2  0  0  0
  1  6  1  0  0  0
  2  9  1  0  0  0
  2  3  1  0  0  0
  9 10  2  0  0  0
  9 17  1  0  0  0
 10 11  1  0  0  0
 11 18  1  0  0  0
 11 12  1  0  0  0
 18 19  1  0  0  0
 19 20  1  0  0  0
 20 21  1  0  0  0
 20 25  1  0  0  0
 21 22  1  0  0  0
 22 23  1  0  0  0
 23 24  1  0  0  0
 24 25  1  0  0  0
 12 13  1  0  0  0
 12 17  2  0  0  0
 13 14  2  0  0  0
 14 15  1  0  0  0
 15 16  2  0  0  0
 16 17  1  0  0  0
  3  4  2  0  0  0
  3  5  1  0  0  0
  5  6  1  0  0  0
  5  8  1  0  0  0
  6  7  2  0  0  0
 29 30  2  0  0  0
 30 34  1  0  0  0
 30 31  1  0  0  0
 34 35  1  0  0  0
 31 36  1  0  0  0
 36 37  1  0  0  0
M  END
> <minimizedAffinity>
-7.94336

$$$$
