CHEMBL445871


 43 48  0  0  0  0  0  0  0  0999 V2000
  -20.0194    2.0509  -14.9504 C   0  0  0  0  0  0  0  0  0  0  0  0
  -20.2441    0.6453  -15.2276 C   0  0  0  0  0  0  0  0  0  0  0  0
  -21.3109   -0.1360  -14.5912 C   0  0  0  0  0  0  0  0  0  0  0  0
  -22.3152    0.5072  -13.8543 C   0  0  0  0  0  0  0  0  0  0  0  0
  -22.2221    1.9041  -13.8729 C   0  0  0  0  0  0  0  0  0  0  0  0
  -21.1167    2.6467  -14.3749 C   0  0  0  0  0  0  0  0  0  0  0  0
  -21.1583    3.9751  -14.2506 F   0  0  0  0  0  0  0  0  0  0  0  0
  -23.3932   -0.1751  -13.1543 N   0  0  0  0  0  0  0  0  0  0  0  0
  -24.6537   -0.4931  -13.7063 C   0  0  0  0  0  0  0  0  0  0  0  0
  -25.0148   -0.2360  -14.8534 O   0  0  0  0  0  0  0  0  0  0  0  0
  -25.4879   -1.2572  -12.8960 N   0  0  0  0  0  0  0  0  0  0  0  0
  -26.7788   -1.7569  -13.3792 C   0  0  0  0  0  0  0  0  0  0  0  0
  -27.2467   -2.6222  -12.2151 C   0  0  0  0  0  0  0  0  0  0  0  0
  -26.7652   -1.8503  -11.1019 N   0  0  0  0  0  0  0  0  0  0  0  0
  -25.6343   -1.0829  -11.4938 C   0  0  0  0  0  0  0  0  0  0  0  0
  -24.8787   -0.4590  -10.7658 O   0  0  0  0  0  0  0  0  0  0  0  0
  -23.2478   -0.4631  -12.1898 H   0  0  0  0  0  0  0  0  0  0  0  0
  -27.2029   -1.9749   -9.7759 C   0  0  0  0  0  0  0  0  0  0  0  0
  -27.6986   -3.2091   -9.3447 C   0  0  0  0  0  0  0  0  0  0  0  0
  -28.1577   -3.3656   -8.0363 C   0  0  0  0  0  0  0  0  0  0  0  0
  -28.3247   -2.2447   -7.2299 C   0  0  0  0  0  0  0  0  0  0  0  0
  -27.9287   -0.9935   -7.7000 C   0  0  0  0  0  0  0  0  0  0  0  0
  -27.2281   -0.8850   -8.9063 C   0  0  0  0  0  0  0  0  0  0  0  0
  -18.6980    2.5996  -14.6649 O   0  0  0  0  0  0  0  0  0  0  0  0
  -14.9193    0.0042  -14.4079 C   0  0  0  0  0  0  0  0  0  0  0  0
  -14.3160    1.0966  -14.9532 C   0  0  0  0  0  0  0  0  0  0  0  0
  -15.3003    1.9464  -15.3901 C   0  0  0  0  0  0  0  0  0  0  0  0
  -14.8040    3.0575  -15.8502 N   0  0  0  0  0  0  0  0  0  0  0  0
  -15.3753    4.1206  -16.2801 C   0  0  0  0  0  0  0  0  0  0  0  0
  -16.7300    3.8836  -16.0907 C   0  0  0  0  0  0  0  0  0  0  0  0
  -17.4929    2.6290  -15.4642 C   0  0  0  0  0  0  0  0  0  0  0  0
  -16.6139    1.6108  -15.1981 C   0  0  0  0  0  0  0  0  0  0  0  0
  -16.6206    0.0308  -14.4474 S   0  0  0  0  0  0  0  0  0  0  0  0
  -13.6039   -2.6181  -12.4716 N   0  0  0  0  0  0  0  0  0  0  0  0
  -12.4796   -2.0830  -13.0174 C   0  0  0  0  0  0  0  0  0  0  0  0
  -12.7679   -1.1050  -13.8394 N   0  0  0  0  0  0  0  0  0  0  0  0
  -14.1163   -1.0118  -13.7675 C   0  0  0  0  0  0  0  0  0  0  0  0
  -14.6790   -1.9269  -12.9104 C   0  0  0  0  0  0  0  0  0  0  0  0
  -13.7015   -3.7354  -11.5789 C   0  0  0  0  0  0  0  0  0  0  0  0
  -15.0926   -3.7951  -10.9525 C   0  0  0  0  0  0  0  0  0  0  0  0
  -16.7158   -5.2310  -11.9667 C   0  0  0  0  0  0  0  0  0  0  0  0
  -15.6368   -5.1593  -10.9799 N   0  0  0  0  0  0  0  0  0  0  0  0
  -14.5986   -6.1375  -11.3178 C   0  0  0  0  0  0  0  0  0  0  0  0
 41 42  1  0  0  0
 42 43  1  0  0  0
 42 40  1  0  0  0
 40 39  1  0  0  0
 39 34  1  0  0  0
 34 35  1  0  0  0
 34 38  1  0  0  0
 35 36  2  0  0  0
 36 37  1  0  0  0
 37 25  1  0  0  0
 37 38  2  0  0  0
 25 26  2  0  0  0
 25 33  1  0  0  0
 26 27  1  0  0  0
 27 28  1  0  0  0
 27 32  2  0  0  0
 28 29  2  0  0  0
 29 30  1  0  0  0
 30 31  2  0  0  0
 31 24  1  0  0  0
 31 32  1  0  0  0
 24  1  1  0  0  0
  1  2  1  0  0  0
  1  6  2  0  0  0
  2  3  2  0  0  0
  3  4  1  0  0  0
  4  8  1  0  0  0
  4  5  2  0  0  0
  8  9  1  0  0  0
  8 17  1  0  0  0
  9 10  2  0  0  0
  9 11  1  0  0  0
 11 12  1  0  0  0
 11 15  1  0  0  0
 12 13  1  0  0  0
 13 14  1  0  0  0
 14 18  1  0  0  0
 14 15  1  0  0  0
 18 19  1  0  0  0
 18 23  2  0  0  0
 19 20  2  0  0  0
 20 21  1  0  0  0
 21 22  2  0  0  0
 22 23  1  0  0  0
 15 16  2  0  0  0
  5  6  1  0  0  0
  6  7  1  0  0  0
 32 33  1  0  0  0
M  END
> <minimizedAffinity>
-8.66446

$$$$
