CHEMBL1934331


 41 45  0  0  0  0  0  0  0  0999 V2000
  -15.5877    1.7609  -16.3201 N   0  0  0  0  0  0  0  0  0  0  0  0
  -15.6170    1.0985  -17.0896 H   0  0  0  0  0  0  0  0  0  0  0  0
  -12.7379   -1.1569  -13.2827 C   0  0  0  0  0  0  0  0  0  0  0  0
  -13.9133   -1.4449  -13.9647 C   0  0  0  0  0  0  0  0  0  0  0  0
  -14.4456   -0.4904  -14.8342 C   0  0  0  0  0  0  0  0  0  0  0  0
  -13.8036    0.7623  -15.0127 C   0  0  0  0  0  0  0  0  0  0  0  0
  -14.2884    1.8429  -15.7748 C   0  0  0  0  0  0  0  0  0  0  0  0
  -13.5752    2.9632  -15.9734 N   0  0  0  0  0  0  0  0  0  0  0  0
  -12.3726    3.0256  -15.3889 C   0  0  0  0  0  0  0  0  0  0  0  0
  -11.8422    2.0927  -14.5944 N   0  0  0  0  0  0  0  0  0  0  0  0
  -12.5592    0.9827  -14.4136 C   0  0  0  0  0  0  0  0  0  0  0  0
  -12.0472    0.0221  -13.5693 C   0  0  0  0  0  0  0  0  0  0  0  0
  -12.3257   -2.0638  -12.3381 O   0  0  0  0  0  0  0  0  0  0  0  0
  -13.1271   -3.2537  -12.3099 C   0  0  0  0  0  0  0  0  0  0  0  0
  -17.1863   -5.6555  -12.1473 C   0  0  0  0  0  0  0  0  0  0  0  0
  -16.1806   -5.0222  -11.2907 N   0  0  0  0  0  0  0  0  0  0  0  0
  -14.8797   -5.6814  -11.4710 C   0  0  0  0  0  0  0  0  0  0  0  0
  -13.7909   -5.0295  -10.6153 C   0  0  0  0  0  0  0  0  0  0  0  0
  -13.6652   -3.5277  -10.8995 C   0  0  0  0  0  0  0  0  0  0  0  0
  -15.0455   -2.8775  -10.7195 C   0  0  0  0  0  0  0  0  0  0  0  0
  -16.1327   -3.5770  -11.5465 C   0  0  0  0  0  0  0  0  0  0  0  0
  -16.8260    1.9322  -15.6698 C   0  0  0  0  0  0  0  0  0  0  0  0
  -17.4611    0.8101  -15.1310 C   0  0  0  0  0  0  0  0  0  0  0  0
  -18.7845    0.8740  -14.7010 C   0  0  0  0  0  0  0  0  0  0  0  0
  -19.5351    2.0455  -14.8118 C   0  0  0  0  0  0  0  0  0  0  0  0
  -18.8735    3.1886  -15.2836 C   0  0  0  0  0  0  0  0  0  0  0  0
  -19.5436    4.3418  -15.4131 F   0  0  0  0  0  0  0  0  0  0  0  0
  -17.5463    3.1305  -15.7084 C   0  0  0  0  0  0  0  0  0  0  0  0
  -20.9230    2.1056  -14.5184 N   0  0  0  0  0  0  0  0  0  0  0  0
  -21.6803    1.0091  -14.1207 C   0  0  0  0  0  0  0  0  0  0  0  0
  -21.2397   -0.1219  -13.9422 O   0  0  0  0  0  0  0  0  0  0  0  0
  -23.0321    1.2972  -13.9989 N   0  0  0  0  0  0  0  0  0  0  0  0
  -21.3929    2.9704  -14.7381 H   0  0  0  0  0  0  0  0  0  0  0  0
  -23.3809    1.9381  -14.6965 H   0  0  0  0  0  0  0  0  0  0  0  0
  -23.9274    0.2743  -13.5900 C   0  0  0  0  0  0  0  0  0  0  0  0
  -24.4463   -0.6001  -14.5492 C   0  0  0  0  0  0  0  0  0  0  0  0
  -25.3310   -1.6175  -14.1724 C   0  0  0  0  0  0  0  0  0  0  0  0
  -25.7312   -1.7380  -12.8425 C   0  0  0  0  0  0  0  0  0  0  0  0
  -25.2124   -0.8653  -11.8932 C   0  0  0  0  0  0  0  0  0  0  0  0
  -25.6065   -0.9760  -10.6176 F   0  0  0  0  0  0  0  0  0  0  0  0
  -24.3017    0.1270  -12.2496 C   0  0  0  0  0  0  0  0  0  0  0  0
 15 16  1  0  0  0
 16 17  1  0  0  0
 16 21  1  0  0  0
 17 18  1  0  0  0
 18 19  1  0  0  0
 19 14  1  0  0  0
 19 20  1  0  0  0
 14 13  1  0  0  0
 13  3  1  0  0  0
  3  4  1  0  0  0
  3 12  2  0  0  0
  4  5  2  0  0  0
  5  6  1  0  0  0
  6  7  1  0  0  0
  6 11  2  0  0  0
  7  1  1  0  0  0
  7  8  2  0  0  0
  1 22  1  0  0  0
  1  2  1  0  0  0
 22 23  1  0  0  0
 22 28  2  0  0  0
 23 24  2  0  0  0
 24 25  1  0  0  0
 25 29  1  0  0  0
 25 26  2  0  0  0
 29 30  1  0  0  0
 29 33  1  0  0  0
 30 31  2  0  0  0
 30 32  1  0  0  0
 32 35  1  0  0  0
 32 34  1  0  0  0
 35 36  1  0  0  0
 35 41  2  0  0  0
 36 37  2  0  0  0
 37 38  1  0  0  0
 38 39  2  0  0  0
 39 40  1  0  0  0
 39 41  1  0  0  0
 26 27  1  0  0  0
 26 28  1  0  0  0
  8  9  1  0  0  0
  9 10  2  0  0  0
 10 11  1  0  0  0
 11 12  1  0  0  0
 20 21  1  0  0  0
M  END
> <minimizedAffinity>
-9.79817

$$$$
