CHEMBL603082


 42 45  0  0  0  0  0  0  0  0999 V2000
  -14.8566   -2.3038  -13.2513 C   0  0  0  0  0  0  0  0  0  0  0  0
  -13.9808   -2.8649  -12.3131 C   0  0  0  0  0  0  0  0  0  0  0  0
  -14.1620   -4.1799  -11.8585 C   0  0  0  0  0  0  0  0  0  0  0  0
  -15.2255   -4.9425  -12.3400 C   0  0  0  0  0  0  0  0  0  0  0  0
  -16.1594   -4.3392  -13.1836 C   0  0  0  0  0  0  0  0  0  0  0  0
  -17.2588   -5.0020  -13.5738 F   0  0  0  0  0  0  0  0  0  0  0  0
  -15.9736   -3.0388  -13.6521 C   0  0  0  0  0  0  0  0  0  0  0  0
  -16.0038    0.2575  -12.3944 O   0  0  0  0  0  0  0  0  0  0  0  0
  -15.2923    0.1414  -13.3804 C   0  0  0  0  0  0  0  0  0  0  0  0
  -14.6829   -1.0212  -13.8147 N   0  0  0  0  0  0  0  0  0  0  0  0
  -13.9441   -0.9266  -14.5032 H   0  0  0  0  0  0  0  0  0  0  0  0
  -14.9665    1.3390  -14.2494 C   0  0  0  0  0  0  0  0  0  0  0  0
  -15.7245    1.2645  -15.5867 C   0  0  0  0  0  0  0  0  0  0  0  0
  -14.7355    1.3118  -16.7910 C   0  0  0  0  0  0  0  0  0  0  0  0
  -14.8561    0.2550  -17.6243 F   0  0  0  0  0  0  0  0  0  0  0  0
  -14.8832    2.4434  -17.5156 F   0  0  0  0  0  0  0  0  0  0  0  0
  -13.4500    1.3065  -16.3432 F   0  0  0  0  0  0  0  0  0  0  0  0
  -16.7217    2.3811  -15.6226 N   0  0  0  0  0  0  0  0  0  0  0  0
  -16.5951    2.9726  -16.4511 H   0  0  0  0  0  0  0  0  0  0  0  0
  -18.0794    2.1678  -15.3712 C   0  0  0  0  0  0  0  0  0  0  0  0
  -18.6556    0.9085  -15.1652 C   0  0  0  0  0  0  0  0  0  0  0  0
  -20.0222    0.7751  -14.8910 C   0  0  0  0  0  0  0  0  0  0  0  0
  -20.8140    1.9062  -14.7727 C   0  0  0  0  0  0  0  0  0  0  0  0
  -22.1210    1.7771  -14.5096 F   0  0  0  0  0  0  0  0  0  0  0  0
  -20.2637    3.1703  -14.9107 C   0  0  0  0  0  0  0  0  0  0  0  0
  -18.9014    3.2965  -15.1987 C   0  0  0  0  0  0  0  0  0  0  0  0
  -15.3248   -6.2510  -11.9171 O   0  0  0  0  0  0  0  0  0  0  0  0
  -14.3973   -7.1548  -12.4417 C   0  0  0  0  0  0  0  0  0  0  0  0
  -14.5481   -7.5055  -13.7688 C   0  0  0  0  0  0  0  0  0  0  0  0
  -13.6009   -8.3736  -14.2733 C   0  0  0  0  0  0  0  0  0  0  0  0
  -12.5944   -8.8299  -13.5175 N   0  0  0  0  0  0  0  0  0  0  0  0
  -12.5505   -8.4441  -12.2420 C   0  0  0  0  0  0  0  0  0  0  0  0
  -13.4329   -7.6462  -11.6437 N   0  0  0  0  0  0  0  0  0  0  0  0
  -13.7135   -8.7912  -15.6137 N   0  0  0  0  0  0  0  0  0  0  0  0
  -13.4567   -7.9872  -16.7006 C   0  0  0  0  0  0  0  0  0  0  0  0
  -13.1546   -6.7969  -16.6516 O   0  0  0  0  0  0  0  0  0  0  0  0
  -13.5583   -8.6117  -17.9301 N   0  0  0  0  0  0  0  0  0  0  0  0
  -13.8459   -9.9946  -18.2566 C   0  0  0  0  0  0  0  0  0  0  0  0
  -13.2618  -10.1668  -19.6503 C   0  0  0  0  0  0  0  0  0  0  0  0
  -13.4589   -8.8017  -20.2967 C   0  0  0  0  0  0  0  0  0  0  0  0
  -13.3838   -7.8188  -19.1366 C   0  0  0  0  0  0  0  0  0  0  0  0
  -14.0368   -9.7251  -15.7857 H   0  0  0  0  0  0  0  0  0  0  0  0
  8  9  2  0  0  0
  9 12  1  0  0  0
  9 10  1  0  0  0
 12 13  1  0  0  0
 13 18  1  0  0  0
 13 14  1  0  0  0
 18 20  1  0  0  0
 18 19  1  0  0  0
 20 21  1  0  0  0
 20 26  2  0  0  0
 21 22  2  0  0  0
 22 23  1  0  0  0
 23 24  1  0  0  0
 23 25  2  0  0  0
 25 26  1  0  0  0
 14 15  1  0  0  0
 14 16  1  0  0  0
 14 17  1  0  0  0
 10  1  1  0  0  0
 10 11  1  0  0  0
  1  2  1  0  0  0
  1  7  2  0  0  0
  2  3  2  0  0  0
  3  4  1  0  0  0
  4 27  1  0  0  0
  4  5  2  0  0  0
 27 28  1  0  0  0
 28 29  1  0  0  0
 28 33  2  0  0  0
 29 30  2  0  0  0
 30 34  1  0  0  0
 30 31  1  0  0  0
 34 35  1  0  0  0
 34 42  1  0  0  0
 35 36  2  0  0  0
 35 37  1  0  0  0
 37 38  1  0  0  0
 37 41  1  0  0  0
 38 39  1  0  0  0
 39 40  1  0  0  0
 40 41  1  0  0  0
 31 32  2  0  0  0
 32 33  1  0  0  0
  5  6  1  0  0  0
  5  7  1  0  0  0
M  END
> <minimizedAffinity>
-9.33068

$$$$
