CHEMBL2325100


 28 32  0  0  0  0  0  0  0  0999 V2000
  -29.0591   -4.8820   -5.4719 C   0  0  0  0  0  0  0  0  0  0  0  0
  -30.0813   -5.4885   -6.0023 N   0  0  0  0  0  0  0  0  0  0  0  0
  -29.7945   -6.8637   -5.9760 N   0  0  0  0  0  0  0  0  0  0  0  0
  -28.3734   -7.0702   -5.7251 C   0  0  0  0  0  0  0  0  0  0  0  0
  -27.9820   -5.8053   -4.9866 C   0  0  0  0  0  0  0  0  0  0  0  0
  -27.9347   -8.2377   -4.8648 C   0  0  0  0  0  0  0  0  0  0  0  0
  -28.9555   -9.0115   -4.2907 C   0  0  0  0  0  0  0  0  0  0  0  0
  -28.6669  -10.2273   -3.6872 C   0  0  0  0  0  0  0  0  0  0  0  0
  -27.3413  -10.6324   -3.5314 C   0  0  0  0  0  0  0  0  0  0  0  0
  -27.0515  -11.8483   -2.9148 C   0  0  0  0  0  0  0  0  0  0  0  0
  -25.8217  -12.0275   -2.3022 C   0  0  0  0  0  0  0  0  0  0  0  0
  -24.7765  -11.1702   -2.6230 C   0  0  0  0  0  0  0  0  0  0  0  0
  -24.9843  -10.1251   -3.5315 C   0  0  0  0  0  0  0  0  0  0  0  0
  -26.2888   -9.7853   -3.9323 C   0  0  0  0  0  0  0  0  0  0  0  0
  -26.5987   -8.6340   -4.6877 C   0  0  0  0  0  0  0  0  0  0  0  0
  -28.4232    0.8749   -4.8615 C   0  0  0  0  0  0  0  0  0  0  0  0
  -28.5827   -0.6145   -4.9478 C   0  0  0  0  0  0  0  0  0  0  0  0
  -27.5332   -1.4928   -4.6425 C   0  0  0  0  0  0  0  0  0  0  0  0
  -27.6827   -2.8811   -4.7975 C   0  0  0  0  0  0  0  0  0  0  0  0
  -28.8884   -3.4141   -5.2465 C   0  0  0  0  0  0  0  0  0  0  0  0
  -29.9493   -2.5318   -5.5130 C   0  0  0  0  0  0  0  0  0  0  0  0
  -29.7996   -1.1512   -5.3667 C   0  0  0  0  0  0  0  0  0  0  0  0
  -30.5114   -7.7612   -6.8026 C   0  0  0  0  0  0  0  0  0  0  0  0
  -29.8915   -8.5688   -7.7765 C   0  0  0  0  0  0  0  0  0  0  0  0
  -30.5966   -9.5301   -8.5216 C   0  0  0  0  0  0  0  0  0  0  0  0
  -31.9652   -9.6985   -8.3157 C   0  0  0  0  0  0  0  0  0  0  0  0
  -32.6096   -8.9028   -7.3792 C   0  0  0  0  0  0  0  0  0  0  0  0
  -31.8937   -7.9450   -6.6354 C   0  0  0  0  0  0  0  0  0  0  0  0
 16 17  1  0  0  0
 17 18  1  0  0  0
 17 22  2  0  0  0
 18 19  2  0  0  0
 19 20  1  0  0  0
 20  1  1  0  0  0
 20 21  2  0  0  0
  1  2  2  0  0  0
  1  5  1  0  0  0
  2  3  1  0  0  0
  3 23  1  0  0  0
  3  4  1  0  0  0
 23 24  1  0  0  0
 23 28  2  0  0  0
 24 25  2  0  0  0
 25 26  1  0  0  0
 26 27  2  0  0  0
 27 28  1  0  0  0
  4  6  1  0  0  0
  4  5  1  0  0  0
  6  7  1  0  0  0
  6 15  2  0  0  0
  7  8  2  0  0  0
  8  9  1  0  0  0
  9 10  1  0  0  0
  9 14  2  0  0  0
 10 11  2  0  0  0
 11 12  1  0  0  0
 12 13  2  0  0  0
 13 14  1  0  0  0
 14 15  1  0  0  0
 21 22  1  0  0  0
M  END
> <minimizedAffinity>
-9.45201

$$$$
