CHEMBL179061


 34 37  0  0  0  0  0  0  0  0999 V2000
  -22.9501   -0.6380  -13.4213 C   0  0  0  0  0  0  0  0  0  0  0  0
  -22.7430   -0.8448  -12.0633 C   0  0  0  0  0  0  0  0  0  0  0  0
  -23.7385   -1.4623  -11.3047 C   0  0  0  0  0  0  0  0  0  0  0  0
  -24.9820   -1.7889  -11.8567 C   0  0  0  0  0  0  0  0  0  0  0  0
  -25.2369   -1.4152  -13.1819 C   0  0  0  0  0  0  0  0  0  0  0  0
  -24.2204   -0.8454  -13.9609 C   0  0  0  0  0  0  0  0  0  0  0  0
  -25.9730   -2.5241  -11.1595 N   0  0  0  0  0  0  0  0  0  0  0  0
  -26.5853   -2.1350   -9.9826 C   0  0  0  0  0  0  0  0  0  0  0  0
  -26.4432   -1.0393   -9.4459 O   0  0  0  0  0  0  0  0  0  0  0  0
  -27.3603   -3.1419   -9.4245 N   0  0  0  0  0  0  0  0  0  0  0  0
  -26.2721   -3.3999  -11.5633 H   0  0  0  0  0  0  0  0  0  0  0  0
  -26.9963   -4.0711   -9.5602 H   0  0  0  0  0  0  0  0  0  0  0  0
  -28.0455   -2.9025   -8.1974 C   0  0  0  0  0  0  0  0  0  0  0  0
  -28.0792   -1.6059   -7.6621 C   0  0  0  0  0  0  0  0  0  0  0  0
  -28.7124   -1.3512   -6.4445 C   0  0  0  0  0  0  0  0  0  0  0  0
  -29.3310   -2.3920   -5.7613 C   0  0  0  0  0  0  0  0  0  0  0  0
  -29.3037   -3.6879   -6.2833 C   0  0  0  0  0  0  0  0  0  0  0  0
  -28.6573   -3.9591   -7.5062 C   0  0  0  0  0  0  0  0  0  0  0  0
  -28.5209   -5.3888   -7.9485 C   0  0  0  0  0  0  0  0  0  0  0  0
  -21.9615   -0.2795  -14.3071 O   0  0  0  0  0  0  0  0  0  0  0  0
  -17.5708    2.5086  -15.1270 C   0  0  0  0  0  0  0  0  0  0  0  0
  -18.6664    3.3390  -14.8550 C   0  0  0  0  0  0  0  0  0  0  0  0
  -19.9451    2.8473  -14.6291 C   0  0  0  0  0  0  0  0  0  0  0  0
  -20.9173    3.7462  -14.4250 N   0  0  0  0  0  0  0  0  0  0  0  0
  -22.1726    3.3023  -14.2321 C   0  0  0  0  0  0  0  0  0  0  0  0
  -22.5078    1.9694  -14.1878 C   0  0  0  0  0  0  0  0  0  0  0  0
  -21.4948    1.0251  -14.3686 C   0  0  0  0  0  0  0  0  0  0  0  0
  -20.1640    1.4546  -14.6526 C   0  0  0  0  0  0  0  0  0  0  0  0
  -19.0459    0.6278  -14.9468 C   0  0  0  0  0  0  0  0  0  0  0  0
  -17.7512    1.1302  -15.0998 C   0  0  0  0  0  0  0  0  0  0  0  0
  -16.3811    4.2795  -16.1073 C   0  0  0  0  0  0  0  0  0  0  0  0
  -16.3373    3.0101  -15.4541 O   0  0  0  0  0  0  0  0  0  0  0  0
  -16.7972    0.1680  -15.2887 O   0  0  0  0  0  0  0  0  0  0  0  0
  -16.0498   -0.2192  -14.1368 C   0  0  0  0  0  0  0  0  0  0  0  0
 31 32  1  0  0  0
 32 21  1  0  0  0
 21 22  1  0  0  0
 21 30  2  0  0  0
 22 23  2  0  0  0
 23 24  1  0  0  0
 23 28  1  0  0  0
 24 25  2  0  0  0
 25 26  1  0  0  0
 26 27  2  0  0  0
 27 20  1  0  0  0
 27 28  1  0  0  0
 20  1  1  0  0  0
  1  2  1  0  0  0
  1  6  2  0  0  0
  2  3  2  0  0  0
  3  4  1  0  0  0
  4  7  1  0  0  0
  4  5  2  0  0  0
  7  8  1  0  0  0
  7 11  1  0  0  0
  8  9  2  0  0  0
  8 10  1  0  0  0
 10 13  1  0  0  0
 10 12  1  0  0  0
 13 14  1  0  0  0
 13 18  2  0  0  0
 14 15  2  0  0  0
 15 16  1  0  0  0
 16 17  2  0  0  0
 17 18  1  0  0  0
 18 19  1  0  0  0
  5  6  1  0  0  0
 28 29  2  0  0  0
 29 30  1  0  0  0
 30 33  1  0  0  0
 33 34  1  0  0  0
M  END
> <minimizedAffinity>
-11.07761

$$$$
