CHEMBL3986607


 34 38  0  0  0  0  0  0  0  0999 V2000
  -29.1166   -8.6301   -5.7544 N   0  0  0  0  0  0  0  0  0  0  0  0
  -28.9998   -7.2043   -5.5096 C   0  0  0  0  0  0  0  0  0  0  0  0
  -29.9645   -6.4509   -6.1014 C   0  0  0  0  0  0  0  0  0  0  0  0
  -29.9204   -5.1218   -5.9317 C   0  0  0  0  0  0  0  0  0  0  0  0
  -28.9203   -4.4272   -5.3941 C   0  0  0  0  0  0  0  0  0  0  0  0
  -28.6763   -3.4639   -6.1508 N   0  0  0  0  0  0  0  0  0  0  0  0
  -29.2820   -2.4027   -5.6874 C   0  0  0  0  0  0  0  0  0  0  0  0
  -28.8242   -1.6556   -4.6954 C   0  0  0  0  0  0  0  0  0  0  0  0
  -28.0638   -2.8839   -4.1029 N   0  0  0  0  0  0  0  0  0  0  0  0
  -28.0816   -4.6197   -4.3982 C   0  0  0  0  0  0  0  0  0  0  0  0
  -28.0573   -6.3677   -4.6750 C   0  0  0  0  0  0  0  0  0  0  0  0
  -29.3626   -0.2678   -5.6723 C   0  0  0  0  0  0  0  0  0  0  0  0
  -30.5978    0.6826   -5.6783 C   0  0  0  0  0  0  0  0  0  0  0  0
  -30.5072    1.8133   -6.4064 N   0  0  0  0  0  0  0  0  0  0  0  0
  -29.2949    1.7416   -6.9396 N   0  0  0  0  0  0  0  0  0  0  0  0
  -28.6049    0.5740   -6.5322 C   0  0  0  0  0  0  0  0  0  0  0  0
  -29.0127    2.5109   -7.5688 H   0  0  0  0  0  0  0  0  0  0  0  0
  -29.5306  -10.2250   -9.1844 C   0  0  0  0  0  0  0  0  0  0  0  0
  -30.5699  -11.0900   -8.8995 C   0  0  0  0  0  0  0  0  0  0  0  0
  -31.2193  -11.0215   -7.6655 C   0  0  0  0  0  0  0  0  0  0  0  0
  -30.7939  -10.1185   -6.6925 C   0  0  0  0  0  0  0  0  0  0  0  0
  -29.6838   -9.3102   -6.8748 C   0  0  0  0  0  0  0  0  0  0  0  0
  -29.2104   -9.2531   -8.2146 C   0  0  0  0  0  0  0  0  0  0  0  0
  -28.6444  -10.0652  -12.8907 C   0  0  0  0  0  0  0  0  0  0  0  0
  -29.3147   -9.9079  -11.6168 N   0  0  0  0  0  0  0  0  0  0  0  0
  -28.7428  -10.4197  -10.4664 C   0  0  0  0  0  0  0  0  0  0  0  0
  -27.6329  -10.9423  -10.4911 O   0  0  0  0  0  0  0  0  0  0  0  0
  -30.1867   -9.3997  -11.5688 H   0  0  0  0  0  0  0  0  0  0  0  0
  -32.2632  -11.8244   -7.2937 O   0  0  0  0  0  0  0  0  0  0  0  0
  -33.2117  -11.1755   -6.4560 C   0  0  0  0  0  0  0  0  0  0  0  0
  -28.8230   -9.4934   -4.5191 C   0  0  0  0  0  0  0  0  0  0  0  0
  -27.5170  -10.2462   -4.6353 C   0  0  0  0  0  0  0  0  0  0  0  0
  -26.4895  -10.2519   -3.4990 C   0  0  0  0  0  0  0  0  0  0  0  0
  -26.1566   -9.5907   -4.8042 C   0  0  0  0  0  0  0  0  0  0  0  0
 24 25  1  0  0  0
 25 26  1  0  0  0
 25 28  1  0  0  0
 26 27  2  0  0  0
 26 18  1  0  0  0
 18 19  1  0  0  0
 18 23  2  0  0  0
 19 20  2  0  0  0
 20 29  1  0  0  0
 20 21  1  0  0  0
 29 30  1  0  0  0
 21 22  2  0  0  0
 22  1  1  0  0  0
 22 23  1  0  0  0
  1 31  1  0  0  0
  1  2  1  0  0  0
 31 32  1  0  0  0
 32 33  1  0  0  0
 32 34  1  0  0  0
 33 34  1  0  0  0
  2  3  1  0  0  0
  2 11  2  0  0  0
  3  4  2  0  0  0
  4  5  1  0  0  0
  5  6  1  0  0  0
  5 10  2  0  0  0
  6  7  2  0  0  0
  7  8  1  0  0  0
  8 12  1  0  0  0
  8  9  2  0  0  0
 12 13  1  0  0  0
 12 16  2  0  0  0
 13 14  2  0  0  0
 14 15  1  0  0  0
 15 16  1  0  0  0
 15 17  1  0  0  0
  9 10  1  0  0  0
 10 11  1  0  0  0
M  END
> <minimizedAffinity>
-8.91791

$$$$
