CHEMBL4095789


 40 46  0  0  0  0  0  0  0  0999 V2000
  -26.8832   -2.5286  -10.2423 N   0  0  0  0  0  0  0  0  0  0  0  0
  -27.0438   -3.4671  -10.5842 H   0  0  0  0  0  0  0  0  0  0  0  0
  -27.8149   -0.0557   -6.4641 N   0  0  0  0  0  0  0  0  0  0  0  0
  -27.8087   -1.0803   -7.3395 C   0  0  0  0  0  0  0  0  0  0  0  0
  -27.1288   -1.0811   -8.4614 N   0  0  0  0  0  0  0  0  0  0  0  0
  -27.4541   -2.2642   -9.0491 C   0  0  0  0  0  0  0  0  0  0  0  0
  -28.2858   -3.0169   -8.3352 N   0  0  0  0  0  0  0  0  0  0  0  0
  -28.4940   -2.2970   -7.2033 N   0  0  0  0  0  0  0  0  0  0  0  0
  -27.3910    0.8094   -6.7870 H   0  0  0  0  0  0  0  0  0  0  0  0
  -28.6165    0.0715   -5.8501 H   0  0  0  0  0  0  0  0  0  0  0  0
  -29.2304   -2.8088   -6.0661 C   0  0  0  0  0  0  0  0  0  0  0  0
  -29.2878   -2.0056   -4.9663 N   0  0  0  0  0  0  0  0  0  0  0  0
  -29.7869   -2.5556   -3.8585 C   0  0  0  0  0  0  0  0  0  0  0  0
  -30.2099   -3.8160   -3.7220 N   0  0  0  0  0  0  0  0  0  0  0  0
  -30.1852   -4.5894   -4.8087 C   0  0  0  0  0  0  0  0  0  0  0  0
  -30.5811   -5.9174   -4.6521 C   0  0  0  0  0  0  0  0  0  0  0  0
  -30.6023   -6.8155   -5.7199 C   0  0  0  0  0  0  0  0  0  0  0  0
  -30.2855   -6.3574   -6.9769 C   0  0  0  0  0  0  0  0  0  0  0  0
  -30.3420   -7.1845   -8.0275 F   0  0  0  0  0  0  0  0  0  0  0  0
  -29.8945   -5.0391   -7.1631 C   0  0  0  0  0  0  0  0  0  0  0  0
  -29.7601   -4.1304   -6.0706 C   0  0  0  0  0  0  0  0  0  0  0  0
  -25.9900   -1.7831  -11.0381 C   0  0  0  0  0  0  0  0  0  0  0  0
  -26.4123   -0.8840  -12.0144 C   0  0  0  0  0  0  0  0  0  0  0  0
  -25.4926   -0.2166  -12.8382 C   0  0  0  0  0  0  0  0  0  0  0  0
  -24.1075   -0.4237  -12.7452 C   0  0  0  0  0  0  0  0  0  0  0  0
  -23.6837   -1.3119  -11.7487 C   0  0  0  0  0  0  0  0  0  0  0  0
  -24.6071   -1.9863  -10.9188 C   0  0  0  0  0  0  0  0  0  0  0  0
  -23.2505    0.2809  -13.5994 N   0  0  0  0  0  0  0  0  0  0  0  0
  -22.9708    1.7063  -13.3502 C   0  0  0  0  0  0  0  0  0  0  0  0
  -22.2764    2.3465  -14.5874 C   0  0  0  0  0  0  0  0  0  0  0  0
  -21.0349    1.6710  -15.0596 N   0  0  0  0  0  0  0  0  0  0  0  0
  -21.3774    0.2432  -15.2662 C   0  0  0  0  0  0  0  0  0  0  0  0
  -22.0679   -0.4769  -14.0775 C   0  0  0  0  0  0  0  0  0  0  0  0
  -19.8940    1.8798  -14.1554 C   0  0  0  0  0  0  0  0  0  0  0  0
  -19.3276    3.3283  -14.1965 C   0  0  0  0  0  0  0  0  0  0  0  0
  -17.8124    3.1245  -14.3767 C   0  0  0  0  0  0  0  0  0  0  0  0
  -17.5473    2.6814  -15.8254 C   0  0  0  0  0  0  0  0  0  0  0  0
  -18.0416    1.2294  -15.8317 C   0  0  0  0  0  0  0  0  0  0  0  0
  -18.6011    1.0424  -14.4097 C   0  0  0  0  0  0  0  0  0  0  0  0
  -17.5706    1.8357  -13.5963 C   0  0  0  0  0  0  0  0  0  0  0  0
  3  4  1  0  0  0
  3  9  1  0  0  0
  3 10  1  0  0  0
  4  5  2  0  0  0
  4  8  1  0  0  0
  5  6  1  0  0  0
  6  1  1  0  0  0
  6  7  2  0  0  0
  1 22  1  0  0  0
  1  2  1  0  0  0
 22 23  1  0  0  0
 22 27  2  0  0  0
 23 24  2  0  0  0
 24 25  1  0  0  0
 25 28  1  0  0  0
 25 26  2  0  0  0
 28 29  1  0  0  0
 28 33  1  0  0  0
 29 30  1  0  0  0
 30 31  1  0  0  0
 31 34  1  0  0  0
 31 32  1  0  0  0
 34 35  1  0  0  0
 34 39  1  0  0  0
 35 36  1  0  0  0
 36 37  1  0  0  0
 36 40  1  0  0  0
 37 38  1  0  0  0
 38 39  1  0  0  0
 39 40  1  0  0  0
 32 33  1  0  0  0
 26 27  1  0  0  0
  7  8  1  0  0  0
  8 11  1  0  0  0
 11 12  1  0  0  0
 11 21  2  0  0  0
 12 13  2  0  0  0
 13 14  1  0  0  0
 14 15  2  0  0  0
 15 16  1  0  0  0
 15 21  1  0  0  0
 16 17  2  0  0  0
 17 18  1  0  0  0
 18 19  1  0  0  0
 18 20  2  0  0  0
 20 21  1  0  0  0
M  END
> <minimizedAffinity>
-10.15873

$$$$
