CHEMBL3944780


 36 40  0  0  0  0  0  0  0  0999 V2000
  -13.5740   -2.1558  -14.0227 C   0  0  0  0  0  0  0  0  0  0  0  0
  -13.1133   -2.9788  -12.9911 C   0  0  0  0  0  0  0  0  0  0  0  0
  -13.8272   -3.0892  -11.7725 C   0  0  0  0  0  0  0  0  0  0  0  0
  -13.4748   -3.9097  -10.6931 C   0  0  0  0  0  0  0  0  0  0  0  0
  -14.2478   -4.0244   -9.5947 N   0  0  0  0  0  0  0  0  0  0  0  0
  -15.3622   -3.3013   -9.5625 C   0  0  0  0  0  0  0  0  0  0  0  0
  -15.7757   -2.4652  -10.5149 N   0  0  0  0  0  0  0  0  0  0  0  0
  -15.0091   -2.3695  -11.6008 C   0  0  0  0  0  0  0  0  0  0  0  0
  -15.4069   -1.5009  -12.5986 C   0  0  0  0  0  0  0  0  0  0  0  0
  -14.6761   -1.3245  -13.7822 C   0  0  0  0  0  0  0  0  0  0  0  0
  -12.4643   -3.3699  -15.7235 C   0  0  0  0  0  0  0  0  0  0  0  0
  -12.9752   -2.1178  -15.2551 O   0  0  0  0  0  0  0  0  0  0  0  0
  -12.2687   -4.6653  -10.7533 N   0  0  0  0  0  0  0  0  0  0  0  0
  -11.6932   -4.4269   -9.9476 H   0  0  0  0  0  0  0  0  0  0  0  0
  -12.2385   -6.0394  -11.0704 C   0  0  0  0  0  0  0  0  0  0  0  0
  -11.1761   -6.8406  -10.6213 C   0  0  0  0  0  0  0  0  0  0  0  0
  -11.0736   -8.1750  -11.0063 C   0  0  0  0  0  0  0  0  0  0  0  0
  -12.0423   -8.7329  -11.8389 C   0  0  0  0  0  0  0  0  0  0  0  0
  -11.8263  -10.3742  -12.3302 Cl  0  0  0  0  0  0  0  0  0  0  0  0
  -13.1307   -7.9571  -12.2560 C   0  0  0  0  0  0  0  0  0  0  0  0
  -14.3733   -8.5865  -13.2797 Cl  0  0  0  0  0  0  0  0  0  0  0  0
  -13.2322   -6.6172  -11.8627 C   0  0  0  0  0  0  0  0  0  0  0  0
  -14.9979   -0.3594  -14.7219 O   0  0  0  0  0  0  0  0  0  0  0  0
  -15.2807    0.9209  -14.1287 C   0  0  0  0  0  0  0  0  0  0  0  0
  -16.2824    1.7693  -14.8345 C   0  0  0  0  0  0  0  0  0  0  0  0
  -16.1034    2.9032  -15.5934 C   0  0  0  0  0  0  0  0  0  0  0  0
  -17.6131    3.4189  -16.2276 S   0  0  0  0  0  0  0  0  0  0  0  0
  -18.4241    2.1492  -15.3749 C   0  0  0  0  0  0  0  0  0  0  0  0
  -17.6052    1.3683  -14.7096 N   0  0  0  0  0  0  0  0  0  0  0  0
  -19.7725    1.9944  -15.3304 N   0  0  0  0  0  0  0  0  0  0  0  0
  -20.6272    3.1854  -15.3298 C   0  0  0  0  0  0  0  0  0  0  0  0
  -21.5813    3.1852  -14.1215 C   0  0  0  0  0  0  0  0  0  0  0  0
  -22.3805    1.9450  -14.0293 N   0  0  0  0  0  0  0  0  0  0  0  0
  -21.4462    0.8030  -13.9368 C   0  0  0  0  0  0  0  0  0  0  0  0
  -20.4285    0.7091  -15.1041 C   0  0  0  0  0  0  0  0  0  0  0  0
  -22.9107    1.8504  -14.8961 H   0  0  0  0  0  0  0  0  0  0  0  0
 11 12  1  0  0  0
 12  1  1  0  0  0
  1  2  1  0  0  0
  1 10  2  0  0  0
  2  3  2  0  0  0
  3  4  1  0  0  0
  3  8  1  0  0  0
  4 13  1  0  0  0
  4  5  2  0  0  0
 13 15  1  0  0  0
 13 14  1  0  0  0
 15 16  1  0  0  0
 15 22  2  0  0  0
 16 17  2  0  0  0
 17 18  1  0  0  0
 18 19  1  0  0  0
 18 20  2  0  0  0
 20 21  1  0  0  0
 20 22  1  0  0  0
  5  6  1  0  0  0
  6  7  2  0  0  0
  7  8  1  0  0  0
  8  9  2  0  0  0
  9 10  1  0  0  0
 10 23  1  0  0  0
 23 24  1  0  0  0
 24 25  1  0  0  0
 25 26  2  0  0  0
 25 29  1  0  0  0
 26 27  1  0  0  0
 27 28  1  0  0  0
 28 30  1  0  0  0
 28 29  2  0  0  0
 30 31  1  0  0  0
 30 35  1  0  0  0
 31 32  1  0  0  0
 32 33  1  0  0  0
 33 34  1  0  0  0
 33 36  1  0  0  0
 34 35  1  0  0  0
M  END
> <minimizedAffinity>
-7.69857

$$$$
