CHEMBL3930504


 29 32  0  0  0  0  0  0  0  0999 V2000
  -16.3633    1.8095  -15.5386 C   0  0  0  0  0  0  0  0  0  0  0  0
  -17.0538    0.6182  -15.2877 C   0  0  0  0  0  0  0  0  0  0  0  0
  -18.4357    0.6188  -15.0344 C   0  0  0  0  0  0  0  0  0  0  0  0
  -19.1364    1.8429  -15.0434 C   0  0  0  0  0  0  0  0  0  0  0  0
  -20.4896    2.2724  -14.8615 C   0  0  0  0  0  0  0  0  0  0  0  0
  -20.5933    3.6049  -14.9822 N   0  0  0  0  0  0  0  0  0  0  0  0
  -19.3429    4.0152  -15.2269 N   0  0  0  0  0  0  0  0  0  0  0  0
  -18.4196    3.0106  -15.2822 C   0  0  0  0  0  0  0  0  0  0  0  0
  -17.0416    3.0383  -15.5239 C   0  0  0  0  0  0  0  0  0  0  0  0
  -19.1804    5.0086  -15.3520 H   0  0  0  0  0  0  0  0  0  0  0  0
  -14.5856    1.2659  -17.0435 C   0  0  0  0  0  0  0  0  0  0  0  0
  -14.9115    1.7748  -15.8397 C   0  0  0  0  0  0  0  0  0  0  0  0
  -13.8560    2.2398  -14.8937 C   0  0  0  0  0  0  0  0  0  0  0  0
  -13.3493    1.4129  -13.8805 C   0  0  0  0  0  0  0  0  0  0  0  0
  -12.3555    1.8703  -13.0132 C   0  0  0  0  0  0  0  0  0  0  0  0
  -11.8306    3.1526  -13.1658 C   0  0  0  0  0  0  0  0  0  0  0  0
  -12.2615    3.9735  -14.2070 C   0  0  0  0  0  0  0  0  0  0  0  0
  -11.8191    5.3018  -14.2843 N   0  0  0  0  0  0  0  0  0  0  0  0
  -13.3057    3.5281  -15.0276 C   0  0  0  0  0  0  0  0  0  0  0  0
  -10.8859    5.4404  -13.9090 H   0  0  0  0  0  0  0  0  0  0  0  0
  -11.9233    5.7102  -15.2083 H   0  0  0  0  0  0  0  0  0  0  0  0
  -21.6092    1.4166  -14.5751 C   0  0  0  0  0  0  0  0  0  0  0  0
  -21.6673    0.5903  -13.5137 C   0  0  0  0  0  0  0  0  0  0  0  0
  -22.7547   -0.3445  -13.1843 C   0  0  0  0  0  0  0  0  0  0  0  0
  -22.8616   -0.9782  -11.9399 C   0  0  0  0  0  0  0  0  0  0  0  0
  -23.9634   -1.7873  -11.6448 C   0  0  0  0  0  0  0  0  0  0  0  0
  -24.9748   -1.9658  -12.5861 C   0  0  0  0  0  0  0  0  0  0  0  0
  -24.8835   -1.3406  -13.8267 C   0  0  0  0  0  0  0  0  0  0  0  0
  -23.7814   -0.5334  -14.1218 C   0  0  0  0  0  0  0  0  0  0  0  0
 11 12  2  0  0  0
 12 13  1  0  0  0
 12  1  1  0  0  0
 13 14  1  0  0  0
 13 19  2  0  0  0
 14 15  2  0  0  0
 15 16  1  0  0  0
 16 17  2  0  0  0
 17 18  1  0  0  0
 17 19  1  0  0  0
 18 20  1  0  0  0
 18 21  1  0  0  0
  1  2  1  0  0  0
  1  9  2  0  0  0
  2  3  2  0  0  0
  3  4  1  0  0  0
  4  5  1  0  0  0
  4  8  2  0  0  0
  5 22  1  0  0  0
  5  6  2  0  0  0
 22 23  2  0  0  0
 23 24  1  0  0  0
 24 25  1  0  0  0
 24 29  2  0  0  0
 25 26  2  0  0  0
 26 27  1  0  0  0
 27 28  2  0  0  0
 28 29  1  0  0  0
  6  7  1  0  0  0
  7  8  1  0  0  0
  7 10  1  0  0  0
  8  9  1  0  0  0
M  END
> <minimizedAffinity>
-10.70105

$$$$
