CHEMBL409734


 44 48  0  0  0  0  0  0  0  0999 V2000
  -14.5740    0.0564  -13.5441 C   0  0  0  0  0  0  0  0  0  0  0  0
  -14.9910    0.2697  -12.4106 O   0  0  0  0  0  0  0  0  0  0  0  0
  -15.2754    0.2814  -14.7127 N   0  0  0  0  0  0  0  0  0  0  0  0
  -14.8429   -0.0031  -15.5795 H   0  0  0  0  0  0  0  0  0  0  0  0
  -11.9299   -2.6414  -13.6437 C   0  0  0  0  0  0  0  0  0  0  0  0
  -10.7867   -1.9038  -13.9363 C   0  0  0  0  0  0  0  0  0  0  0  0
  -10.8367   -0.5154  -14.0767 C   0  0  0  0  0  0  0  0  0  0  0  0
  -12.0375    0.1893  -13.9251 C   0  0  0  0  0  0  0  0  0  0  0  0
  -11.9635    1.6892  -13.9942 C   0  0  0  0  0  0  0  0  0  0  0  0
  -13.2146   -0.5509  -13.6982 C   0  0  0  0  0  0  0  0  0  0  0  0
  -13.1498   -1.9585  -13.5518 C   0  0  0  0  0  0  0  0  0  0  0  0
  -12.3598   -4.6896  -12.2860 C   0  0  0  0  0  0  0  0  0  0  0  0
  -12.8520   -4.1256  -11.3073 O   0  0  0  0  0  0  0  0  0  0  0  0
  -11.9156   -4.0392  -13.4256 N   0  0  0  0  0  0  0  0  0  0  0  0
  -11.6327   -4.6337  -14.1991 H   0  0  0  0  0  0  0  0  0  0  0  0
  -13.0042   -7.0695  -13.0899 C   0  0  0  0  0  0  0  0  0  0  0  0
  -12.8426   -8.4544  -12.9164 C   0  0  0  0  0  0  0  0  0  0  0  0
  -11.9834   -8.9719  -11.9435 C   0  0  0  0  0  0  0  0  0  0  0  0
  -11.2677   -8.1104  -11.1234 C   0  0  0  0  0  0  0  0  0  0  0  0
  -11.4208   -6.7340  -11.2764 C   0  0  0  0  0  0  0  0  0  0  0  0
  -12.2898   -6.1916  -12.2476 C   0  0  0  0  0  0  0  0  0  0  0  0
  -15.2322   -6.7543  -13.8886 C   0  0  0  0  0  0  0  0  0  0  0  0
  -13.8330   -6.5193  -14.0370 O   0  0  0  0  0  0  0  0  0  0  0  0
  -16.5857    0.7946  -14.8140 C   0  0  0  0  0  0  0  0  0  0  0  0
  -16.9610    2.0986  -14.5992 C   0  0  0  0  0  0  0  0  0  0  0  0
  -18.2402    2.5228  -14.6640 N   0  0  0  0  0  0  0  0  0  0  0  0
  -19.1965    1.6238  -14.9546 C   0  0  0  0  0  0  0  0  0  0  0  0
  -18.9378    0.3310  -15.1953 N   0  0  0  0  0  0  0  0  0  0  0  0
  -17.6389   -0.0452  -15.1294 C   0  0  0  0  0  0  0  0  0  0  0  0
  -20.5306    2.0299  -14.9795 N   0  0  0  0  0  0  0  0  0  0  0  0
  -20.5986    3.0367  -14.9836 H   0  0  0  0  0  0  0  0  0  0  0  0
  -21.6171    1.3516  -14.4079 C   0  0  0  0  0  0  0  0  0  0  0  0
  -22.6406    2.0310  -13.7473 C   0  0  0  0  0  0  0  0  0  0  0  0
  -23.6712    1.3370  -13.1174 C   0  0  0  0  0  0  0  0  0  0  0  0
  -23.7242   -0.0614  -13.1120 C   0  0  0  0  0  0  0  0  0  0  0  0
  -22.7231   -0.7366  -13.8200 C   0  0  0  0  0  0  0  0  0  0  0  0
  -21.6871   -0.0415  -14.4671 C   0  0  0  0  0  0  0  0  0  0  0  0
  -24.7708   -0.6911  -12.4651 N   0  0  0  0  0  0  0  0  0  0  0  0
  -25.9583   -1.1685  -13.1807 C   0  0  0  0  0  0  0  0  0  0  0  0
  -27.1645   -1.1411  -12.2075 C   0  0  0  0  0  0  0  0  0  0  0  0
  -26.9333   -1.9275  -10.9708 N   0  0  0  0  0  0  0  0  0  0  0  0
  -28.0685   -1.7951  -10.0610 C   0  0  0  0  0  0  0  0  0  0  0  0
  -25.6912   -1.4553  -10.3130 C   0  0  0  0  0  0  0  0  0  0  0  0
  -24.4689   -1.4850  -11.2572 C   0  0  0  0  0  0  0  0  0  0  0  0
 22 23  1  0  0  0
 23 16  1  0  0  0
 16 17  1  0  0  0
 16 21  2  0  0  0
 17 18  2  0  0  0
 18 19  1  0  0  0
 19 20  2  0  0  0
 20 21  1  0  0  0
 21 12  1  0  0  0
 12 13  2  0  0  0
 12 14  1  0  0  0
 14  5  1  0  0  0
 14 15  1  0  0  0
  5  6  1  0  0  0
  5 11  2  0  0  0
  6  7  2  0  0  0
  7  8  1  0  0  0
  8  9  1  0  0  0
  8 10  2  0  0  0
 10  1  1  0  0  0
 10 11  1  0  0  0
  1  2  2  0  0  0
  1  3  1  0  0  0
  3 24  1  0  0  0
  3  4  1  0  0  0
 24 25  1  0  0  0
 24 29  2  0  0  0
 25 26  2  0  0  0
 26 27  1  0  0  0
 27 30  1  0  0  0
 27 28  2  0  0  0
 30 32  1  0  0  0
 30 31  1  0  0  0
 32 33  1  0  0  0
 32 37  2  0  0  0
 33 34  2  0  0  0
 34 35  1  0  0  0
 35 38  1  0  0  0
 35 36  2  0  0  0
 38 39  1  0  0  0
 38 44  1  0  0  0
 39 40  1  0  0  0
 40 41  1  0  0  0
 41 42  1  0  0  0
 41 43  1  0  0  0
 43 44  1  0  0  0
 36 37  1  0  0  0
 28 29  1  0  0  0
M  END
> <minimizedAffinity>
-8.39643

$$$$
