CHEMBL223478


 41 45  0  0  0  0  0  0  0  0999 V2000
  -16.4869    2.7981  -15.5918 C   0  0  0  0  0  0  0  0  0  0  0  0
  -16.2965    4.0459  -16.2307 C   0  0  0  0  0  0  0  0  0  0  0  0
  -15.0422    4.6470  -16.3420 C   0  0  0  0  0  0  0  0  0  0  0  0
  -13.9135    4.0871  -15.7390 C   0  0  0  0  0  0  0  0  0  0  0  0
  -14.0922    2.8212  -15.1771 C   0  0  0  0  0  0  0  0  0  0  0  0
  -13.2047    2.0092  -14.5277 N   0  0  0  0  0  0  0  0  0  0  0  0
  -13.6782    0.7872  -14.2468 N   0  0  0  0  0  0  0  0  0  0  0  0
  -14.9401    0.8408  -14.6575 C   0  0  0  0  0  0  0  0  0  0  0  0
  -15.7359   -0.2427  -14.6375 N   0  0  0  0  0  0  0  0  0  0  0  0
  -15.3078    2.1344  -15.1503 C   0  0  0  0  0  0  0  0  0  0  0  0
  -12.2501    2.2329  -14.2744 H   0  0  0  0  0  0  0  0  0  0  0  0
  -15.2758   -1.1323  -14.4785 H   0  0  0  0  0  0  0  0  0  0  0  0
  -16.5036   -0.3015  -15.2976 H   0  0  0  0  0  0  0  0  0  0  0  0
  -20.4724    1.1508  -15.1736 C   0  0  0  0  0  0  0  0  0  0  0  0
  -20.2374    2.5252  -15.0715 C   0  0  0  0  0  0  0  0  0  0  0  0
  -18.9542    3.0573  -15.2152 C   0  0  0  0  0  0  0  0  0  0  0  0
  -17.8393    2.2306  -15.3846 C   0  0  0  0  0  0  0  0  0  0  0  0
  -18.0761    0.8435  -15.3056 C   0  0  0  0  0  0  0  0  0  0  0  0
  -19.3750    0.3049  -15.2396 C   0  0  0  0  0  0  0  0  0  0  0  0
  -23.6920   -0.3601  -14.3286 N   0  0  0  0  0  0  0  0  0  0  0  0
  -22.4966    0.2786  -14.0870 C   0  0  0  0  0  0  0  0  0  0  0  0
  -22.0837    0.5594  -12.9697 O   0  0  0  0  0  0  0  0  0  0  0  0
  -21.7857    0.6102  -15.2300 N   0  0  0  0  0  0  0  0  0  0  0  0
  -23.9934   -0.4603  -15.2853 H   0  0  0  0  0  0  0  0  0  0  0  0
  -22.3251    0.8057  -16.0590 H   0  0  0  0  0  0  0  0  0  0  0  0
  -28.1069   -2.2665  -13.0834 C   0  0  0  0  0  0  0  0  0  0  0  0
  -26.7284   -1.8126  -12.7041 C   0  0  0  0  0  0  0  0  0  0  0  0
  -26.3191   -1.8992  -11.3695 C   0  0  0  0  0  0  0  0  0  0  0  0
  -25.0465   -1.4862  -11.0068 C   0  0  0  0  0  0  0  0  0  0  0  0
  -24.1784   -0.9835  -11.9713 C   0  0  0  0  0  0  0  0  0  0  0  0
  -24.5559   -0.8735  -13.3171 C   0  0  0  0  0  0  0  0  0  0  0  0
  -25.8410   -1.3032  -13.6773 C   0  0  0  0  0  0  0  0  0  0  0  0
  -12.6749    4.6779  -15.6690 O   0  0  0  0  0  0  0  0  0  0  0  0
  -11.9195    4.5665  -16.8828 C   0  0  0  0  0  0  0  0  0  0  0  0
  -11.4299    5.9387  -17.3719 C   0  0  0  0  0  0  0  0  0  0  0  0
  -12.3418    7.0415  -17.0027 N   0  0  0  0  0  0  0  0  0  0  0  0
  -12.9354    7.6843  -18.1975 C   0  0  0  0  0  0  0  0  0  0  0  0
  -11.9837    8.6403  -18.9430 C   0  0  0  0  0  0  0  0  0  0  0  0
  -11.4268    9.6307  -18.0697 O   0  0  0  0  0  0  0  0  0  0  0  0
  -10.7608    9.0170  -16.9609 C   0  0  0  0  0  0  0  0  0  0  0  0
  -11.7236    8.1087  -16.1824 C   0  0  0  0  0  0  0  0  0  0  0  0
 26 27  1  0  0  0
 27 28  1  0  0  0
 27 32  2  0  0  0
 28 29  2  0  0  0
 29 30  1  0  0  0
 30 31  2  0  0  0
 31 20  1  0  0  0
 31 32  1  0  0  0
 20 21  1  0  0  0
 20 24  1  0  0  0
 21 22  2  0  0  0
 21 23  1  0  0  0
 23 14  1  0  0  0
 23 25  1  0  0  0
 14 15  1  0  0  0
 14 19  2  0  0  0
 15 16  2  0  0  0
 16 17  1  0  0  0
 17  1  1  0  0  0
 17 18  2  0  0  0
  1  2  1  0  0  0
  1 10  2  0  0  0
  2  3  2  0  0  0
  3  4  1  0  0  0
  4 33  1  0  0  0
  4  5  2  0  0  0
 33 34  1  0  0  0
 34 35  1  0  0  0
 35 36  1  0  0  0
 36 37  1  0  0  0
 36 41  1  0  0  0
 37 38  1  0  0  0
 38 39  1  0  0  0
 39 40  1  0  0  0
 40 41  1  0  0  0
  5  6  1  0  0  0
  5 10  1  0  0  0
  6  7  1  0  0  0
  6 11  1  0  0  0
  7  8  2  0  0  0
  8  9  1  0  0  0
  8 10  1  0  0  0
  9 12  1  0  0  0
  9 13  1  0  0  0
 18 19  1  0  0  0
M  END
> <minimizedAffinity>
-9.18967

$$$$
