CHEMBL3690532


 38 42  0  0  0  0  0  0  0  0999 V2000
  -29.7639   -3.8920   -4.9139 C   0  0  0  0  0  0  0  0  0  0  0  0
  -30.5073   -4.1081   -3.7615 C   0  0  0  0  0  0  0  0  0  0  0  0
  -31.1500   -5.3179   -3.7798 N   0  0  0  0  0  0  0  0  0  0  0  0
  -30.8012   -5.8753   -4.9133 C   0  0  0  0  0  0  0  0  0  0  0  0
  -31.1437   -7.1439   -5.4674 C   0  0  0  0  0  0  0  0  0  0  0  0
  -30.6264   -7.5562   -6.6512 C   0  0  0  0  0  0  0  0  0  0  0  0
  -29.7109   -6.6597   -7.3740 C   0  0  0  0  0  0  0  0  0  0  0  0
  -29.3603   -5.4806   -6.8433 C   0  0  0  0  0  0  0  0  0  0  0  0
  -29.9186   -5.0708   -5.6357 N   0  0  0  0  0  0  0  0  0  0  0  0
  -30.9076   -8.9254   -7.1547 C   0  0  0  0  0  0  0  0  0  0  0  0
  -31.9494   -9.5779   -6.6022 N   0  0  0  0  0  0  0  0  0  0  0  0
  -32.3051  -10.7345   -7.1928 C   0  0  0  0  0  0  0  0  0  0  0  0
  -31.6607  -11.2577   -8.2888 C   0  0  0  0  0  0  0  0  0  0  0  0
  -32.1108  -12.3800   -8.8589 F   0  0  0  0  0  0  0  0  0  0  0  0
  -30.5854  -10.5338   -8.7725 C   0  0  0  0  0  0  0  0  0  0  0  0
  -30.2022   -9.3701   -8.2098 N   0  0  0  0  0  0  0  0  0  0  0  0
  -29.8541  -10.8790   -9.9170 N   0  0  0  0  0  0  0  0  0  0  0  0
  -30.4635  -11.4776  -10.4727 H   0  0  0  0  0  0  0  0  0  0  0  0
  -29.0518   -9.9090  -10.6506 C   0  0  0  0  0  0  0  0  0  0  0  0
  -28.7968  -10.1922  -12.1084 C   0  0  0  0  0  0  0  0  0  0  0  0
  -27.6589  -10.1860  -11.1335 C   0  0  0  0  0  0  0  0  0  0  0  0
  -28.1344   -1.1928   -7.0361 C   0  0  0  0  0  0  0  0  0  0  0  0
  -27.5241   -0.4264   -6.0470 C   0  0  0  0  0  0  0  0  0  0  0  0
  -27.6314   -0.7936   -4.7045 C   0  0  0  0  0  0  0  0  0  0  0  0
  -28.3434   -1.9367   -4.3396 C   0  0  0  0  0  0  0  0  0  0  0  0
  -28.9818   -2.7156   -5.3110 C   0  0  0  0  0  0  0  0  0  0  0  0
  -28.8873   -2.3109   -6.6530 C   0  0  0  0  0  0  0  0  0  0  0  0
  -26.9971   -2.8436   -9.2336 O   0  0  0  0  0  0  0  0  0  0  0  0
  -27.5011   -1.7423   -9.3870 C   0  0  0  0  0  0  0  0  0  0  0  0
  -27.6086   -1.1673  -10.6389 N   0  0  0  0  0  0  0  0  0  0  0  0
  -28.0371   -0.9271   -8.4174 N   0  0  0  0  0  0  0  0  0  0  0  0
  -27.6090   -0.1576  -10.6608 H   0  0  0  0  0  0  0  0  0  0  0  0
  -28.4507   -0.0675   -8.7407 H   0  0  0  0  0  0  0  0  0  0  0  0
  -26.9451   -1.8283  -11.7693 C   0  0  0  0  0  0  0  0  0  0  0  0
  -25.5415   -1.2972  -12.0915 C   0  0  0  0  0  0  0  0  0  0  0  0
  -25.2574   -1.3952  -13.4119 F   0  0  0  0  0  0  0  0  0  0  0  0
  -25.3775   -0.0126  -11.7190 F   0  0  0  0  0  0  0  0  0  0  0  0
  -24.6083   -2.0340  -11.4385 F   0  0  0  0  0  0  0  0  0  0  0  0
 28 29  2  0  0  0
 29 30  1  0  0  0
 29 31  1  0  0  0
 30 34  1  0  0  0
 30 32  1  0  0  0
 34 35  1  0  0  0
 35 36  1  0  0  0
 35 37  1  0  0  0
 35 38  1  0  0  0
 31 22  1  0  0  0
 31 33  1  0  0  0
 22 23  1  0  0  0
 22 27  2  0  0  0
 23 24  2  0  0  0
 24 25  1  0  0  0
 25 26  2  0  0  0
 26  1  1  0  0  0
 26 27  1  0  0  0
  1  2  2  0  0  0
  1  9  1  0  0  0
  2  3  1  0  0  0
  3  4  2  0  0  0
  4  5  1  0  0  0
  4  9  1  0  0  0
  5  6  2  0  0  0
  6 10  1  0  0  0
  6  7  1  0  0  0
 10 11  1  0  0  0
 10 16  2  0  0  0
 11 12  2  0  0  0
 12 13  1  0  0  0
 13 14  1  0  0  0
 13 15  2  0  0  0
 15 17  1  0  0  0
 15 16  1  0  0  0
 17 19  1  0  0  0
 17 18  1  0  0  0
 19 20  1  0  0  0
 19 21  1  0  0  0
 20 21  1  0  0  0
  7  8  2  0  0  0
  8  9  1  0  0  0
M  END
> <minimizedAffinity>
-9.95351

$$$$
