CHEMBL509032


 44 48  0  0  0  0  0  0  0  0999 V2000
  -14.5264    2.3156  -15.7259 N   0  0  0  0  0  0  0  0  0  0  0  0
  -14.2787    3.0660  -16.3553 H   0  0  0  0  0  0  0  0  0  0  0  0
  -13.5407    1.3316  -15.6411 C   0  0  0  0  0  0  0  0  0  0  0  0
  -12.7850    1.0809  -16.7130 N   0  0  0  0  0  0  0  0  0  0  0  0
  -12.0263   -0.0388  -16.6511 C   0  0  0  0  0  0  0  0  0  0  0  0
  -11.9960   -0.9032  -15.5748 C   0  0  0  0  0  0  0  0  0  0  0  0
  -11.0525   -2.3355  -15.6311 Cl  0  0  0  0  0  0  0  0  0  0  0  0
  -12.7394   -0.5208  -14.4729 C   0  0  0  0  0  0  0  0  0  0  0  0
  -13.4761    0.6032  -14.5087 N   0  0  0  0  0  0  0  0  0  0  0  0
  -12.7916   -1.3159  -13.3010 N   0  0  0  0  0  0  0  0  0  0  0  0
  -11.8428   -1.5472  -12.9898 H   0  0  0  0  0  0  0  0  0  0  0  0
  -13.7465   -2.3262  -13.0251 C   0  0  0  0  0  0  0  0  0  0  0  0
  -15.0358   -2.1918  -13.5817 C   0  0  0  0  0  0  0  0  0  0  0  0
  -16.0844   -3.0476  -13.2396 C   0  0  0  0  0  0  0  0  0  0  0  0
  -15.8672   -4.0807  -12.3381 C   0  0  0  0  0  0  0  0  0  0  0  0
  -14.5971   -4.2656  -11.7934 C   0  0  0  0  0  0  0  0  0  0  0  0
  -13.5401   -3.3988  -12.1353 C   0  0  0  0  0  0  0  0  0  0  0  0
  -11.9819   -3.6696  -11.3046 S   0  0  0  0  0  0  0  0  0  0  0  0
  -11.1990   -4.5737  -12.1235 O   0  0  0  0  0  0  0  0  0  0  0  0
  -11.4760   -2.3453  -10.9901 O   0  0  0  0  0  0  0  0  0  0  0  0
  -12.3544   -4.4916   -9.7398 C   0  0  0  0  0  0  0  0  0  0  0  0
  -11.2802   -5.4869   -9.3270 C   0  0  0  0  0  0  0  0  0  0  0  0
  -12.5381   -3.4482   -8.6324 C   0  0  0  0  0  0  0  0  0  0  0  0
  -16.8412    3.1479  -15.7031 C   0  0  0  0  0  0  0  0  0  0  0  0
  -18.2086    2.9087  -15.4574 C   0  0  0  0  0  0  0  0  0  0  0  0
  -18.6958    1.6266  -15.1643 C   0  0  0  0  0  0  0  0  0  0  0  0
  -17.7726    0.5813  -15.1450 C   0  0  0  0  0  0  0  0  0  0  0  0
  -16.4207    0.8047  -15.3652 C   0  0  0  0  0  0  0  0  0  0  0  0
  -15.9216    2.0864  -15.6251 C   0  0  0  0  0  0  0  0  0  0  0  0
  -20.0245    1.3423  -14.8572 N   0  0  0  0  0  0  0  0  0  0  0  0
  -20.5402   -0.0150  -15.0240 C   0  0  0  0  0  0  0  0  0  0  0  0
  -22.0528    0.0832  -15.2308 C   0  0  0  0  0  0  0  0  0  0  0  0
  -22.7891    0.7859  -14.0618 C   0  0  0  0  0  0  0  0  0  0  0  0
  -22.0783    2.1467  -13.8161 C   0  0  0  0  0  0  0  0  0  0  0  0
  -20.5600    2.0255  -13.6715 C   0  0  0  0  0  0  0  0  0  0  0  0
  -22.9000    0.0244  -12.7929 N   0  0  0  0  0  0  0  0  0  0  0  0
  -23.0818   -1.4392  -12.9199 C   0  0  0  0  0  0  0  0  0  0  0  0
  -24.5029   -1.9114  -13.3097 C   0  0  0  0  0  0  0  0  0  0  0  0
  -25.5004   -1.4404  -12.3367 N   0  0  0  0  0  0  0  0  0  0  0  0
  -26.8442   -1.8960  -12.6788 C   0  0  0  0  0  0  0  0  0  0  0  0
  -25.4318    0.0262  -12.2449 C   0  0  0  0  0  0  0  0  0  0  0  0
  -23.9990    0.5354  -11.9224 C   0  0  0  0  0  0  0  0  0  0  0  0
  -15.7702    4.5004  -17.3418 C   0  0  0  0  0  0  0  0  0  0  0  0
  -16.3164    4.3754  -16.0340 O   0  0  0  0  0  0  0  0  0  0  0  0
 43 44  1  0  0  0
 44 24  1  0  0  0
 24 25  1  0  0  0
 24 29  2  0  0  0
 25 26  2  0  0  0
 26 30  1  0  0  0
 26 27  1  0  0  0
 30 31  1  0  0  0
 30 35  1  0  0  0
 31 32  1  0  0  0
 32 33  1  0  0  0
 33 36  1  0  0  0
 33 34  1  0  0  0
 36 37  1  0  0  0
 36 42  1  0  0  0
 37 38  1  0  0  0
 38 39  1  0  0  0
 39 40  1  0  0  0
 39 41  1  0  0  0
 41 42  1  0  0  0
 34 35  1  0  0  0
 27 28  2  0  0  0
 28 29  1  0  0  0
 29  1  1  0  0  0
  1  3  1  0  0  0
  1  2  1  0  0  0
  3  4  1  0  0  0
  3  9  2  0  0  0
  4  5  2  0  0  0
  5  6  1  0  0  0
  6  7  1  0  0  0
  6  8  2  0  0  0
  8 10  1  0  0  0
  8  9  1  0  0  0
 10 12  1  0  0  0
 10 11  1  0  0  0
 12 13  1  0  0  0
 12 17  2  0  0  0
 13 14  2  0  0  0
 14 15  1  0  0  0
 15 16  2  0  0  0
 16 17  1  0  0  0
 17 18  1  0  0  0
 18 19  2  0  0  0
 18 20  2  0  0  0
 18 21  1  0  0  0
 21 22  1  0  0  0
 21 23  1  0  0  0
M  END
> <minimizedAffinity>
-7.75577

$$$$
