CHEMBL3893373


 35 38  0  0  0  0  0  0  0  0999 V2000
  -18.3983    2.0238  -15.4824 C   0  0  0  0  0  0  0  0  0  0  0  0
  -19.0970    3.2383  -15.5017 C   0  0  0  0  0  0  0  0  0  0  0  0
  -20.3716    3.4005  -14.9877 C   0  0  0  0  0  0  0  0  0  0  0  0
  -21.0752    2.3688  -14.4651 C   0  0  0  0  0  0  0  0  0  0  0  0
  -22.2127    2.7793  -13.9024 N   0  0  0  0  0  0  0  0  0  0  0  0
  -23.0946    1.8330  -13.6166 C   0  0  0  0  0  0  0  0  0  0  0  0
  -22.8805    0.5140  -13.9471 C   0  0  0  0  0  0  0  0  0  0  0  0
  -21.6305    0.0751  -14.3773 N   0  0  0  0  0  0  0  0  0  0  0  0
  -20.6375    1.0352  -14.6164 C   0  0  0  0  0  0  0  0  0  0  0  0
  -19.2121    0.9200  -15.0477 C   0  0  0  0  0  0  0  0  0  0  0  0
  -24.1121   -0.2494  -14.1598 C   0  0  0  0  0  0  0  0  0  0  0  0
  -24.7105   -0.8431  -15.2937 C   0  0  0  0  0  0  0  0  0  0  0  0
  -25.7467   -1.6437  -14.9865 N   0  0  0  0  0  0  0  0  0  0  0  0
  -25.8065   -1.5911  -13.6412 N   0  0  0  0  0  0  0  0  0  0  0  0
  -24.7693   -0.8743  -13.1061 C   0  0  0  0  0  0  0  0  0  0  0  0
  -26.9795   -2.0411  -12.9078 C   0  0  0  0  0  0  0  0  0  0  0  0
  -27.0378   -1.7237  -11.4168 C   0  0  0  0  0  0  0  0  0  0  0  0
  -26.7094   -2.8564  -10.6178 O   0  0  0  0  0  0  0  0  0  0  0  0
  -27.5430   -3.3367  -10.4623 H   0  0  0  0  0  0  0  0  0  0  0  0
  -17.0062    2.0517  -15.8937 N   0  0  0  0  0  0  0  0  0  0  0  0
  -15.8511    1.2549  -15.5387 C   0  0  0  0  0  0  0  0  0  0  0  0
  -14.8189    0.9695  -16.4905 C   0  0  0  0  0  0  0  0  0  0  0  0
  -13.7599    0.0679  -16.2653 C   0  0  0  0  0  0  0  0  0  0  0  0
  -13.6476   -0.5240  -15.0236 C   0  0  0  0  0  0  0  0  0  0  0  0
  -14.5528   -0.1719  -14.0205 C   0  0  0  0  0  0  0  0  0  0  0  0
  -15.6490    0.6851  -14.2826 C   0  0  0  0  0  0  0  0  0  0  0  0
  -12.8032   -0.3047  -17.1814 O   0  0  0  0  0  0  0  0  0  0  0  0
  -13.1773   -0.3676  -18.5564 C   0  0  0  0  0  0  0  0  0  0  0  0
  -14.4801   -0.6583  -12.7385 O   0  0  0  0  0  0  0  0  0  0  0  0
  -15.4917   -1.6083  -12.4017 C   0  0  0  0  0  0  0  0  0  0  0  0
  -16.6033    3.2740  -16.6966 C   0  0  0  0  0  0  0  0  0  0  0  0
  -15.8951    4.3518  -15.8494 C   0  0  0  0  0  0  0  0  0  0  0  0
  -13.5396    4.7807  -15.6120 C   0  0  0  0  0  0  0  0  0  0  0  0
  -14.6753    4.8419  -16.5251 N   0  0  0  0  0  0  0  0  0  0  0  0
  -14.4701    4.2505  -17.3321 H   0  0  0  0  0  0  0  0  0  0  0  0
 33 34  1  0  0  0
 34 32  1  0  0  0
 34 35  1  0  0  0
 32 31  1  0  0  0
 31 20  1  0  0  0
 20 21  1  0  0  0
 20  1  1  0  0  0
 21 22  1  0  0  0
 21 26  2  0  0  0
 22 23  2  0  0  0
 23 27  1  0  0  0
 23 24  1  0  0  0
 27 28  1  0  0  0
 24 25  2  0  0  0
 25 29  1  0  0  0
 25 26  1  0  0  0
 29 30  1  0  0  0
  1  2  1  0  0  0
  1 10  2  0  0  0
  2  3  2  0  0  0
  3  4  1  0  0  0
  4  5  1  0  0  0
  4  9  2  0  0  0
  5  6  2  0  0  0
  6  7  1  0  0  0
  7 11  1  0  0  0
  7  8  2  0  0  0
 11 12  1  0  0  0
 11 15  2  0  0  0
 12 13  2  0  0  0
 13 14  1  0  0  0
 14 16  1  0  0  0
 14 15  1  0  0  0
 16 17  1  0  0  0
 17 18  1  0  0  0
 18 19  1  0  0  0
  8  9  1  0  0  0
  9 10  1  0  0  0
M  END
> <minimizedAffinity>
-8.34471

$$$$
