CHEMBL2113190


 36 39  0  0  0  0  0  0  0  0999 V2000
  -30.4013   -6.1325   -5.9015 N   0  0  0  0  0  0  0  0  0  0  0  0
  -30.2763   -5.8147   -6.8674 H   0  0  0  0  0  0  0  0  0  0  0  0
  -28.1131   -1.5479   -5.7396 C   0  0  0  0  0  0  0  0  0  0  0  0
  -28.9326   -1.7243   -4.5984 C   0  0  0  0  0  0  0  0  0  0  0  0
  -29.7283   -2.8460   -4.3785 C   0  0  0  0  0  0  0  0  0  0  0  0
  -30.5293   -2.8944   -3.3061 N   0  0  0  0  0  0  0  0  0  0  0  0
  -31.2858   -3.9883   -3.1637 C   0  0  0  0  0  0  0  0  0  0  0  0
  -31.2919   -5.0506   -3.9740 N   0  0  0  0  0  0  0  0  0  0  0  0
  -30.4677   -5.0024   -5.0382 C   0  0  0  0  0  0  0  0  0  0  0  0
  -29.6689   -3.8780   -5.3117 C   0  0  0  0  0  0  0  0  0  0  0  0
  -28.8604   -3.7201   -6.4608 C   0  0  0  0  0  0  0  0  0  0  0  0
  -28.0781   -2.5736   -6.6927 C   0  0  0  0  0  0  0  0  0  0  0  0
  -27.5203   -2.6381   -7.9363 O   0  0  0  0  0  0  0  0  0  0  0  0
  -27.7136   -1.6175   -8.8988 C   0  0  0  0  0  0  0  0  0  0  0  0
  -27.5164   -0.3104   -5.7088 O   0  0  0  0  0  0  0  0  0  0  0  0
  -28.3229    0.8039   -5.3925 C   0  0  0  0  0  0  0  0  0  0  0  0
  -29.1713    1.3076   -6.5522 C   0  0  0  0  0  0  0  0  0  0  0  0
  -31.3900    2.0992   -6.8852 C   0  0  0  0  0  0  0  0  0  0  0  0
  -30.4971    1.4204   -6.0239 O   0  0  0  0  0  0  0  0  0  0  0  0
  -29.5764   -7.2202   -5.6234 C   0  0  0  0  0  0  0  0  0  0  0  0
  -29.2765   -7.6727   -4.4062 C   0  0  0  0  0  0  0  0  0  0  0  0
  -28.3689   -8.8016   -4.1611 C   0  0  0  0  0  0  0  0  0  0  0  0
  -28.2106   -9.2082   -3.0132 O   0  0  0  0  0  0  0  0  0  0  0  0
  -27.6646   -9.3902   -5.3403 C   0  0  0  0  0  0  0  0  0  0  0  0
  -28.0215   -9.0034   -6.5696 C   0  0  0  0  0  0  0  0  0  0  0  0
  -29.0230   -7.9480   -6.8143 C   0  0  0  0  0  0  0  0  0  0  0  0
  -29.3628   -7.6456   -7.9532 O   0  0  0  0  0  0  0  0  0  0  0  0
  -26.6755  -10.3512   -5.2027 O   0  0  0  0  0  0  0  0  0  0  0  0
  -25.3274   -9.8624   -5.2811 C   0  0  0  0  0  0  0  0  0  0  0  0
  -24.5029  -10.5558   -4.2280 C   0  0  0  0  0  0  0  0  0  0  0  0
  -25.0850  -11.0079   -3.0372 C   0  0  0  0  0  0  0  0  0  0  0  0
  -24.3078  -11.6505   -2.0702 C   0  0  0  0  0  0  0  0  0  0  0  0
  -22.9412  -11.8440   -2.2810 C   0  0  0  0  0  0  0  0  0  0  0  0
  -22.3499  -11.3841   -3.4540 C   0  0  0  0  0  0  0  0  0  0  0  0
  -23.1295  -10.7466   -4.4157 C   0  0  0  0  0  0  0  0  0  0  0  0
  -22.5384  -10.3102   -5.5373 F   0  0  0  0  0  0  0  0  0  0  0  0
 18 19  1  0  0  0
 19 17  1  0  0  0
 17 16  1  0  0  0
 16 15  1  0  0  0
 15  3  1  0  0  0
  3  4  1  0  0  0
  3 12  2  0  0  0
  4  5  2  0  0  0
  5  6  1  0  0  0
  5 10  1  0  0  0
  6  7  2  0  0  0
  7  8  1  0  0  0
  8  9  2  0  0  0
  9  1  1  0  0  0
  9 10  1  0  0  0
  1 20  1  0  0  0
  1  2  1  0  0  0
 20 21  2  0  0  0
 20 26  1  0  0  0
 21 22  1  0  0  0
 22 23  2  0  0  0
 22 24  1  0  0  0
 24 28  1  0  0  0
 24 25  2  0  0  0
 28 29  1  0  0  0
 29 30  1  0  0  0
 30 31  1  0  0  0
 30 35  2  0  0  0
 31 32  2  0  0  0
 32 33  1  0  0  0
 33 34  2  0  0  0
 34 35  1  0  0  0
 35 36  1  0  0  0
 25 26  1  0  0  0
 26 27  2  0  0  0
 10 11  2  0  0  0
 11 12  1  0  0  0
 12 13  1  0  0  0
 13 14  1  0  0  0
M  END
> <minimizedAffinity>
-8.58081

$$$$
