CHEMBL4780987


 36 40  0  0  0  0  0  0  0  0999 V2000
  -28.3511   -7.8878   -4.7191 C   0  0  0  0  0  0  0  0  0  0  0  0
  -29.1186   -8.4421   -5.6568 N   0  0  0  0  0  0  0  0  0  0  0  0
  -29.8920   -7.5971   -6.3531 C   0  0  0  0  0  0  0  0  0  0  0  0
  -29.8351   -6.2301   -6.2018 C   0  0  0  0  0  0  0  0  0  0  0  0
  -28.9621   -5.7363   -5.2556 C   0  0  0  0  0  0  0  0  0  0  0  0
  -28.2684   -6.5740   -4.4728 N   0  0  0  0  0  0  0  0  0  0  0  0
  -26.2130  -10.4091   -3.4550 O   0  0  0  0  0  0  0  0  0  0  0  0
  -26.6545   -9.6495   -4.3149 C   0  0  0  0  0  0  0  0  0  0  0  0
  -26.1823   -9.5348   -5.6000 N   0  0  0  0  0  0  0  0  0  0  0  0
  -27.6211   -8.7665   -3.9422 N   0  0  0  0  0  0  0  0  0  0  0  0
  -26.6043   -8.7891   -6.1441 H   0  0  0  0  0  0  0  0  0  0  0  0
  -27.7929   -8.7061   -2.9519 H   0  0  0  0  0  0  0  0  0  0  0  0
  -25.0914  -10.2167   -6.1759 C   0  0  0  0  0  0  0  0  0  0  0  0
  -23.7623   -9.8897   -5.9025 C   0  0  0  0  0  0  0  0  0  0  0  0
  -22.7181  -10.5667   -6.5382 C   0  0  0  0  0  0  0  0  0  0  0  0
  -23.0010  -11.5747   -7.4541 C   0  0  0  0  0  0  0  0  0  0  0  0
  -21.7148  -12.3779   -8.2659 Cl  0  0  0  0  0  0  0  0  0  0  0  0
  -24.3213  -11.9280   -7.7212 C   0  0  0  0  0  0  0  0  0  0  0  0
  -25.3644  -11.2569   -7.0738 C   0  0  0  0  0  0  0  0  0  0  0  0
  -28.8681   -4.3768   -5.0296 N   0  0  0  0  0  0  0  0  0  0  0  0
  -28.1004   -3.8848   -3.8888 C   0  0  0  0  0  0  0  0  0  0  0  0
  -28.8452   -2.6663   -3.3402 C   0  0  0  0  0  0  0  0  0  0  0  0
  -29.0892   -1.6143   -4.4265 C   0  0  0  0  0  0  0  0  0  0  0  0
  -29.7020   -2.2213   -5.6934 C   0  0  0  0  0  0  0  0  0  0  0  0
  -28.9177   -3.4467   -6.1571 C   0  0  0  0  0  0  0  0  0  0  0  0
  -31.1412   -8.3133   -7.4039 S   0  0  0  0  0  0  0  0  0  0  0  0
  -30.3823   -9.7713   -7.9935 C   0  0  0  0  0  0  0  0  0  0  0  0
  -30.8385  -11.0628   -7.8511 C   0  0  0  0  0  0  0  0  0  0  0  0
  -29.9584  -11.8864   -8.5014 N   0  0  0  0  0  0  0  0  0  0  0  0
  -28.9419  -11.1535   -9.0684 C   0  0  0  0  0  0  0  0  0  0  0  0
  -27.8436  -11.5758   -9.8256 C   0  0  0  0  0  0  0  0  0  0  0  0
  -26.9582  -10.5966  -10.2877 C   0  0  0  0  0  0  0  0  0  0  0  0
  -27.1680   -9.2496  -10.0047 C   0  0  0  0  0  0  0  0  0  0  0  0
  -28.2712   -8.8439   -9.2459 C   0  0  0  0  0  0  0  0  0  0  0  0
  -29.1818   -9.8111   -8.7650 C   0  0  0  0  0  0  0  0  0  0  0  0
  -30.0504  -12.8910   -8.5757 H   0  0  0  0  0  0  0  0  0  0  0  0
  7  8  2  0  0  0
  8  9  1  0  0  0
  8 10  1  0  0  0
  9 13  1  0  0  0
  9 11  1  0  0  0
 13 14  1  0  0  0
 13 19  2  0  0  0
 14 15  2  0  0  0
 15 16  1  0  0  0
 16 17  1  0  0  0
 16 18  2  0  0  0
 18 19  1  0  0  0
 10  1  1  0  0  0
 10 12  1  0  0  0
  1  2  1  0  0  0
  1  6  2  0  0  0
  2  3  2  0  0  0
  3 26  1  0  0  0
  3  4  1  0  0  0
 26 27  1  0  0  0
 27 28  2  0  0  0
 27 35  1  0  0  0
 28 29  1  0  0  0
 29 30  1  0  0  0
 29 36  1  0  0  0
 30 31  1  0  0  0
 30 35  2  0  0  0
 31 32  2  0  0  0
 32 33  1  0  0  0
 33 34  2  0  0  0
 34 35  1  0  0  0
  4  5  2  0  0  0
  5 20  1  0  0  0
  5  6  1  0  0  0
 20 21  1  0  0  0
 20 25  1  0  0  0
 21 22  1  0  0  0
 22 23  1  0  0  0
 23 24  1  0  0  0
 24 25  1  0  0  0
M  END
> <minimizedAffinity>
-9.34713

$$$$
