CHEMBL4474232


 38 42  0  0  0  0  0  0  0  0999 V2000
  -17.4758    2.6058  -14.4444 N   0  0  0  0  0  0  0  0  0  0  0  0
  -17.3662    3.4804  -13.9363 H   0  0  0  0  0  0  0  0  0  0  0  0
  -16.3691    2.3124  -15.2692 C   0  0  0  0  0  0  0  0  0  0  0  0
  -16.2359    3.0838  -16.3876 N   0  0  0  0  0  0  0  0  0  0  0  0
  -15.2723    2.8162  -17.2832 C   0  0  0  0  0  0  0  0  0  0  0  0
  -14.3832    1.7851  -17.1330 C   0  0  0  0  0  0  0  0  0  0  0  0
  -14.5149    0.9796  -16.0057 C   0  0  0  0  0  0  0  0  0  0  0  0
  -13.6613   -0.1859  -15.9010 C   0  0  0  0  0  0  0  0  0  0  0  0
  -13.8069   -1.0179  -14.8757 C   0  0  0  0  0  0  0  0  0  0  0  0
  -14.6885   -0.8234  -13.8151 N   0  0  0  0  0  0  0  0  0  0  0  0
  -15.5442    0.3388  -13.8206 C   0  0  0  0  0  0  0  0  0  0  0  0
  -16.2756    0.6974  -12.8947 O   0  0  0  0  0  0  0  0  0  0  0  0
  -15.4948    1.2337  -15.0354 C   0  0  0  0  0  0  0  0  0  0  0  0
  -14.6953   -1.7996  -12.7183 C   0  0  0  0  0  0  0  0  0  0  0  0
  -15.8223   -2.0548  -11.9244 C   0  0  0  0  0  0  0  0  0  0  0  0
  -15.8029   -3.0409  -10.9193 C   0  0  0  0  0  0  0  0  0  0  0  0
  -14.6587   -3.7992  -10.7018 C   0  0  0  0  0  0  0  0  0  0  0  0
  -14.6532   -4.7427   -9.7501 F   0  0  0  0  0  0  0  0  0  0  0  0
  -13.5237   -3.5704  -11.4466 C   0  0  0  0  0  0  0  0  0  0  0  0
  -13.5417   -2.5776  -12.4332 C   0  0  0  0  0  0  0  0  0  0  0  0
  -21.4161    0.9934  -14.7176 C   0  0  0  0  0  0  0  0  0  0  0  0
  -20.3048    0.2399  -15.1067 C   0  0  0  0  0  0  0  0  0  0  0  0
  -19.0021    0.7689  -14.9997 C   0  0  0  0  0  0  0  0  0  0  0  0
  -18.7806    2.0635  -14.5071 C   0  0  0  0  0  0  0  0  0  0  0  0
  -19.9062    2.7909  -14.0938 C   0  0  0  0  0  0  0  0  0  0  0  0
  -21.1982    2.2774  -14.2213 C   0  0  0  0  0  0  0  0  0  0  0  0
  -22.2212    3.0676  -13.8625 F   0  0  0  0  0  0  0  0  0  0  0  0
  -22.6564    0.4195  -14.9256 O   0  0  0  0  0  0  0  0  0  0  0  0
  -26.3511   -2.1862  -13.1361 N   0  0  0  0  0  0  0  0  0  0  0  0
  -25.0915   -1.5896  -13.0471 C   0  0  0  0  0  0  0  0  0  0  0  0
  -24.5245   -1.6705  -11.8257 N   0  0  0  0  0  0  0  0  0  0  0  0
  -23.3213   -1.0824  -11.6568 C   0  0  0  0  0  0  0  0  0  0  0  0
  -22.6458   -0.4056  -12.6533 C   0  0  0  0  0  0  0  0  0  0  0  0
  -23.2641   -0.2724  -13.8955 C   0  0  0  0  0  0  0  0  0  0  0  0
  -24.4932   -0.9059  -14.1163 C   0  0  0  0  0  0  0  0  0  0  0  0
  -25.2455   -0.8784  -15.6750 Cl  0  0  0  0  0  0  0  0  0  0  0  0
  -26.5233   -2.6768  -12.2614 H   0  0  0  0  0  0  0  0  0  0  0  0
  -26.4435   -2.7771  -13.9535 H   0  0  0  0  0  0  0  0  0  0  0  0
 29 30  1  0  0  0
 29 37  1  0  0  0
 29 38  1  0  0  0
 30 31  1  0  0  0
 30 35  2  0  0  0
 31 32  2  0  0  0
 32 33  1  0  0  0
 33 34  2  0  0  0
 34 28  1  0  0  0
 34 35  1  0  0  0
 28 21  1  0  0  0
 21 22  1  0  0  0
 21 26  2  0  0  0
 22 23  2  0  0  0
 23 24  1  0  0  0
 24  1  1  0  0  0
 24 25  2  0  0  0
  1  3  1  0  0  0
  1  2  1  0  0  0
  3  4  1  0  0  0
  3 13  2  0  0  0
  4  5  2  0  0  0
  5  6  1  0  0  0
  6  7  2  0  0  0
  7  8  1  0  0  0
  7 13  1  0  0  0
  8  9  2  0  0  0
  9 10  1  0  0  0
 10 14  1  0  0  0
 10 11  1  0  0  0
 14 15  1  0  0  0
 14 20  2  0  0  0
 15 16  2  0  0  0
 16 17  1  0  0  0
 17 18  1  0  0  0
 17 19  2  0  0  0
 19 20  1  0  0  0
 11 12  2  0  0  0
 11 13  1  0  0  0
 25 26  1  0  0  0
 26 27  1  0  0  0
 35 36  1  0  0  0
M  END
> <minimizedAffinity>
-10.09513

$$$$
