CHEMBL1241482


 33 37  0  0  0  0  0  0  0  0999 V2000
  -29.9135   -2.9662   -5.0018 N   0  0  0  0  0  0  0  0  0  0  0  0
  -29.2357   -2.0733   -5.8246 C   0  0  0  0  0  0  0  0  0  0  0  0
  -29.2301   -0.7871   -5.4112 N   0  0  0  0  0  0  0  0  0  0  0  0
  -28.5777    0.1274   -6.1525 C   0  0  0  0  0  0  0  0  0  0  0  0
  -27.8808   -0.0724   -7.2793 N   0  0  0  0  0  0  0  0  0  0  0  0
  -27.9148   -1.3645   -7.6517 C   0  0  0  0  0  0  0  0  0  0  0  0
  -28.5763   -2.4042   -7.0163 C   0  0  0  0  0  0  0  0  0  0  0  0
  -28.3629   -3.5390   -7.8661 C   0  0  0  0  0  0  0  0  0  0  0  0
  -27.5768   -3.2208   -8.9122 N   0  0  0  0  0  0  0  0  0  0  0  0
  -27.2995   -1.9109   -8.7394 N   0  0  0  0  0  0  0  0  0  0  0  0
  -30.1156   -2.5387   -4.1037 H   0  0  0  0  0  0  0  0  0  0  0  0
  -29.5185   -3.8974   -4.9606 H   0  0  0  0  0  0  0  0  0  0  0  0
  -28.8916   -4.9048   -7.7588 C   0  0  0  0  0  0  0  0  0  0  0  0
  -30.2134   -5.1405   -7.3465 C   0  0  0  0  0  0  0  0  0  0  0  0
  -30.7081   -6.4418   -7.2289 C   0  0  0  0  0  0  0  0  0  0  0  0
  -29.8981   -7.5095   -7.5830 C   0  0  0  0  0  0  0  0  0  0  0  0
  -30.3696   -8.7617   -7.4977 F   0  0  0  0  0  0  0  0  0  0  0  0
  -28.6046   -7.2939   -8.0458 C   0  0  0  0  0  0  0  0  0  0  0  0
  -27.8213   -8.3381   -8.4441 O   0  0  0  0  0  0  0  0  0  0  0  0
  -28.0920   -6.0019   -8.1242 C   0  0  0  0  0  0  0  0  0  0  0  0
  -28.3712   -9.1421   -8.3891 H   0  0  0  0  0  0  0  0  0  0  0  0
  -26.5111   -1.1997   -9.7357 C   0  0  0  0  0  0  0  0  0  0  0  0
  -26.9401   -1.4782  -11.1307 C   0  0  0  0  0  0  0  0  0  0  0  0
  -28.2175   -1.9440  -11.3319 O   0  0  0  0  0  0  0  0  0  0  0  0
  -28.2963   -2.1489  -12.6710 C   0  0  0  0  0  0  0  0  0  0  0  0
  -27.2020   -1.8769  -13.3389 N   0  0  0  0  0  0  0  0  0  0  0  0
  -26.3257   -1.4287  -12.3702 C   0  0  0  0  0  0  0  0  0  0  0  0
  -24.9621   -1.0317  -12.6838 C   0  0  0  0  0  0  0  0  0  0  0  0
  -23.9891   -0.8352  -11.6962 C   0  0  0  0  0  0  0  0  0  0  0  0
  -22.6885   -0.4537  -12.0389 C   0  0  0  0  0  0  0  0  0  0  0  0
  -22.3502   -0.2419  -13.3719 C   0  0  0  0  0  0  0  0  0  0  0  0
  -23.3121   -0.4081  -14.3645 C   0  0  0  0  0  0  0  0  0  0  0  0
  -24.6092   -0.8012  -14.0223 C   0  0  0  0  0  0  0  0  0  0  0  0
  1  2  1  0  0  0
  1 11  1  0  0  0
  1 12  1  0  0  0
  2  3  1  0  0  0
  2  7  2  0  0  0
  3  4  2  0  0  0
  4  5  1  0  0  0
  5  6  2  0  0  0
  6  7  1  0  0  0
  6 10  1  0  0  0
  7  8  1  0  0  0
  8 13  1  0  0  0
  8  9  2  0  0  0
 13 14  1  0  0  0
 13 20  2  0  0  0
 14 15  2  0  0  0
 15 16  1  0  0  0
 16 17  1  0  0  0
 16 18  2  0  0  0
 18 19  1  0  0  0
 18 20  1  0  0  0
 19 21  1  0  0  0
  9 10  1  0  0  0
 10 22  1  0  0  0
 22 23  1  0  0  0
 23 24  1  0  0  0
 23 27  2  0  0  0
 24 25  1  0  0  0
 25 26  2  0  0  0
 26 27  1  0  0  0
 27 28  1  0  0  0
 28 29  1  0  0  0
 28 33  2  0  0  0
 29 30  2  0  0  0
 30 31  1  0  0  0
 31 32  2  0  0  0
 32 33  1  0  0  0
M  END
> <minimizedAffinity>
-9.66486

$$$$
