CHEMBL3648116


 29 30  0  0  0  0  0  0  0  0999 V2000
  -28.5521   -3.3256   -6.6708 C   0  0  0  0  0  0  0  0  0  0  0  0
  -28.5154   -3.3545   -8.0215 N   0  0  0  0  0  0  0  0  0  0  0  0
  -28.1187   -2.2435   -8.6680 C   0  0  0  0  0  0  0  0  0  0  0  0
  -27.7800   -1.1059   -8.0422 N   0  0  0  0  0  0  0  0  0  0  0  0
  -27.8625   -1.0888   -6.7013 C   0  0  0  0  0  0  0  0  0  0  0  0
  -28.2666   -2.1679   -5.9595 C   0  0  0  0  0  0  0  0  0  0  0  0
  -28.2920   -2.0596   -4.0737 Br  0  0  0  0  0  0  0  0  0  0  0  0
  -28.8254   -4.4976   -5.9692 N   0  0  0  0  0  0  0  0  0  0  0  0
  -28.4508   -4.4780   -5.0211 H   0  0  0  0  0  0  0  0  0  0  0  0
  -29.9953   -6.4051   -6.9790 C   0  0  0  0  0  0  0  0  0  0  0  0
  -30.1241   -5.1703   -6.0755 C   0  0  0  0  0  0  0  0  0  0  0  0
  -30.5978   -5.5390   -4.6188 C   0  0  0  0  0  0  0  0  0  0  0  0
  -29.4419   -6.0130   -3.7284 C   0  0  0  0  0  0  0  0  0  0  0  0
  -31.3334   -4.3871   -3.9172 C   0  0  0  0  0  0  0  0  0  0  0  0
  -31.5457   -6.6236   -4.7105 O   0  0  0  0  0  0  0  0  0  0  0  0
  -31.0560   -7.4292   -4.9507 H   0  0  0  0  0  0  0  0  0  0  0  0
  -28.0809   -2.3112  -10.0619 N   0  0  0  0  0  0  0  0  0  0  0  0
  -28.6744   -3.0595  -10.3870 H   0  0  0  0  0  0  0  0  0  0  0  0
  -27.1155   -1.8364  -10.9639 C   0  0  0  0  0  0  0  0  0  0  0  0
  -27.3269   -1.7918  -12.3483 C   0  0  0  0  0  0  0  0  0  0  0  0
  -26.3259   -1.3838  -13.2322 C   0  0  0  0  0  0  0  0  0  0  0  0
  -25.0789   -1.0166  -12.7373 C   0  0  0  0  0  0  0  0  0  0  0  0
  -24.8314   -1.0512  -11.3621 C   0  0  0  0  0  0  0  0  0  0  0  0
  -25.8468   -1.4674  -10.4867 C   0  0  0  0  0  0  0  0  0  0  0  0
  -23.7951   -0.5661  -13.8890 S   0  0  0  0  0  0  0  0  0  0  0  0
  -23.4714    1.1385  -13.5119 C   0  0  0  0  0  0  0  0  0  0  0  0
  -22.5587   -1.3959  -13.4907 N   0  0  0  0  0  0  0  0  0  0  0  0
  -24.3927   -0.5678  -15.2144 O   0  0  0  0  0  0  0  0  0  0  0  0
  -22.1799   -1.1596  -12.5741 H   0  0  0  0  0  0  0  0  0  0  0  0
 11 12  1  0  0  0
 11  8  1  0  0  0
 11 10  1  0  0  0
  8  1  1  0  0  0
  8  9  1  0  0  0
  1  2  1  0  0  0
  1  6  2  0  0  0
  2  3  2  0  0  0
  3 17  1  0  0  0
  3  4  1  0  0  0
 17 19  1  0  0  0
 17 18  1  0  0  0
 19 20  1  0  0  0
 19 24  2  0  0  0
 20 21  2  0  0  0
 21 22  1  0  0  0
 22 25  1  0  0  0
 22 23  2  0  0  0
 25 26  1  0  0  0
 25 27  2  0  0  0
 25 28  2  0  0  0
 27 29  1  0  0  0
 23 24  1  0  0  0
  4  5  2  0  0  0
  5  6  1  0  0  0
  6  7  1  0  0  0
 12 13  1  0  0  0
 12 14  1  0  0  0
 12 15  1  0  0  0
 15 16  1  0  0  0
M  END
> <minimizedAffinity>
-8.07158

$$$$
