CHEMBL3933398


 39 43  0  0  0  0  0  0  0  0999 V2000
  -29.2384  -10.0745   -6.2519 C   0  0  0  0  0  0  0  0  0  0  0  0
  -28.1797  -10.8347   -6.7690 C   0  0  0  0  0  0  0  0  0  0  0  0
  -27.6797  -10.6158   -8.0804 C   0  0  0  0  0  0  0  0  0  0  0  0
  -26.6266  -11.2972   -8.7056 C   0  0  0  0  0  0  0  0  0  0  0  0
  -26.1979  -10.9807   -9.9489 N   0  0  0  0  0  0  0  0  0  0  0  0
  -26.8314   -9.9983  -10.5818 C   0  0  0  0  0  0  0  0  0  0  0  0
  -27.8517   -9.3029  -10.0984 N   0  0  0  0  0  0  0  0  0  0  0  0
  -28.2471   -9.6255   -8.8682 C   0  0  0  0  0  0  0  0  0  0  0  0
  -29.2741   -8.8733   -8.3388 C   0  0  0  0  0  0  0  0  0  0  0  0
  -29.7804   -9.0510   -7.0362 C   0  0  0  0  0  0  0  0  0  0  0  0
  -28.6297  -10.0584   -3.9549 C   0  0  0  0  0  0  0  0  0  0  0  0
  -29.5729  -10.3971   -4.9644 O   0  0  0  0  0  0  0  0  0  0  0  0
  -25.9721  -12.3507   -8.0179 N   0  0  0  0  0  0  0  0  0  0  0  0
  -25.7905  -13.1110   -8.6686 H   0  0  0  0  0  0  0  0  0  0  0  0
  -24.9290  -12.1459   -7.0944 C   0  0  0  0  0  0  0  0  0  0  0  0
  -25.1009  -12.4658   -5.7401 C   0  0  0  0  0  0  0  0  0  0  0  0
  -24.0942  -12.2205   -4.8100 C   0  0  0  0  0  0  0  0  0  0  0  0
  -22.8853  -11.6576   -5.2228 C   0  0  0  0  0  0  0  0  0  0  0  0
  -21.6885  -11.3532   -4.0218 Cl  0  0  0  0  0  0  0  0  0  0  0  0
  -22.6932  -11.3568   -6.5777 C   0  0  0  0  0  0  0  0  0  0  0  0
  -21.2263  -10.6536   -7.1643 Cl  0  0  0  0  0  0  0  0  0  0  0  0
  -23.7057  -11.6061   -7.5088 C   0  0  0  0  0  0  0  0  0  0  0  0
  -30.7528   -8.2118   -6.5219 O   0  0  0  0  0  0  0  0  0  0  0  0
  -30.5584   -6.8437   -6.9013 C   0  0  0  0  0  0  0  0  0  0  0  0
  -30.0338   -5.9414   -5.8057 C   0  0  0  0  0  0  0  0  0  0  0  0
  -29.0918   -4.8615   -6.3426 C   0  0  0  0  0  0  0  0  0  0  0  0
  -28.5443   -4.0447   -5.2115 N   0  0  0  0  0  0  0  0  0  0  0  0
  -27.8610   -4.9620   -4.2364 C   0  0  0  0  0  0  0  0  0  0  0  0
  -28.7960   -6.0838   -3.7729 C   0  0  0  0  0  0  0  0  0  0  0  0
  -29.3307   -6.8089   -4.8846 O   0  0  0  0  0  0  0  0  0  0  0  0
  -29.6079   -2.9171   -4.4726 S   0  0  0  0  0  0  0  0  0  0  0  0
  -30.9771   -3.3261   -4.7231 O   0  0  0  0  0  0  0  0  0  0  0  0
  -29.1411   -2.7187   -3.1237 O   0  0  0  0  0  0  0  0  0  0  0  0
  -29.3093   -1.4098   -5.3567 C   0  0  0  0  0  0  0  0  0  0  0  0
  -30.1422   -0.3054   -5.1730 C   0  0  0  0  0  0  0  0  0  0  0  0
  -29.8034    0.9130   -5.7673 C   0  0  0  0  0  0  0  0  0  0  0  0
  -28.6388    1.0193   -6.5293 C   0  0  0  0  0  0  0  0  0  0  0  0
  -27.8182   -0.0937   -6.7208 C   0  0  0  0  0  0  0  0  0  0  0  0
  -28.1482   -1.3138   -6.1338 C   0  0  0  0  0  0  0  0  0  0  0  0
 11 12  1  0  0  0
 12  1  1  0  0  0
  1  2  1  0  0  0
  1 10  2  0  0  0
  2  3  2  0  0  0
  3  4  1  0  0  0
  3  8  1  0  0  0
  4 13  1  0  0  0
  4  5  2  0  0  0
 13 15  1  0  0  0
 13 14  1  0  0  0
 15 16  1  0  0  0
 15 22  2  0  0  0
 16 17  2  0  0  0
 17 18  1  0  0  0
 18 19  1  0  0  0
 18 20  2  0  0  0
 20 21  1  0  0  0
 20 22  1  0  0  0
  5  6  1  0  0  0
  6  7  2  0  0  0
  7  8  1  0  0  0
  8  9  2  0  0  0
  9 10  1  0  0  0
 10 23  1  0  0  0
 23 24  1  0  0  0
 24 25  1  0  0  0
 25 26  1  0  0  0
 25 30  1  0  0  0
 26 27  1  0  0  0
 27 31  1  0  0  0
 27 28  1  0  0  0
 31 32  2  0  0  0
 31 33  2  0  0  0
 31 34  1  0  0  0
 34 35  1  0  0  0
 34 39  2  0  0  0
 35 36  2  0  0  0
 36 37  1  0  0  0
 37 38  2  0  0  0
 38 39  1  0  0  0
 28 29  1  0  0  0
 29 30  1  0  0  0
M  END
> <minimizedAffinity>
-8.73550

$$$$
