CHEMBL3747226


 35 39  0  0  0  0  0  0  0  0999 V2000
  -20.8841   -0.4165  -15.1209 O   0  0  0  0  0  0  0  0  0  0  0  0
  -21.2219    0.6992  -14.7223 C   0  0  0  0  0  0  0  0  0  0  0  0
  -22.4450    1.1012  -14.2309 N   0  0  0  0  0  0  0  0  0  0  0  0
  -20.2853    1.7329  -14.6132 N   0  0  0  0  0  0  0  0  0  0  0  0
  -20.5745    3.1114  -14.8237 C   0  0  0  0  0  0  0  0  0  0  0  0
  -19.4793    3.7458  -14.2502 C   0  0  0  0  0  0  0  0  0  0  0  0
  -18.4546    2.9490  -14.8336 C   0  0  0  0  0  0  0  0  0  0  0  0
  -17.2800    3.1926  -15.5426 C   0  0  0  0  0  0  0  0  0  0  0  0
  -16.4557    2.1047  -15.8378 C   0  0  0  0  0  0  0  0  0  0  0  0
  -16.7707    0.8184  -15.3893 C   0  0  0  0  0  0  0  0  0  0  0  0
  -18.0325    0.5390  -14.8591 C   0  0  0  0  0  0  0  0  0  0  0  0
  -18.8953    1.6305  -14.7108 C   0  0  0  0  0  0  0  0  0  0  0  0
  -22.4647    1.9582  -13.6733 H   0  0  0  0  0  0  0  0  0  0  0  0
  -23.5463    0.2359  -14.1182 C   0  0  0  0  0  0  0  0  0  0  0  0
  -24.1832   -0.3419  -15.2177 C   0  0  0  0  0  0  0  0  0  0  0  0
  -25.1953   -1.2844  -15.0274 C   0  0  0  0  0  0  0  0  0  0  0  0
  -25.5565   -1.6709  -13.7363 C   0  0  0  0  0  0  0  0  0  0  0  0
  -24.9334   -1.0834  -12.6280 C   0  0  0  0  0  0  0  0  0  0  0  0
  -23.9632   -0.0903  -12.8334 C   0  0  0  0  0  0  0  0  0  0  0  0
  -25.2065   -1.5371  -11.2191 C   0  0  0  0  0  0  0  0  0  0  0  0
  -26.0286   -2.6165  -11.1318 F   0  0  0  0  0  0  0  0  0  0  0  0
  -24.0584   -1.8868  -10.5709 F   0  0  0  0  0  0  0  0  0  0  0  0
  -25.7756   -0.5610  -10.4600 F   0  0  0  0  0  0  0  0  0  0  0  0
  -15.3273    2.4399  -16.5379 O   0  0  0  0  0  0  0  0  0  0  0  0
  -14.3289    3.1691  -15.9159 C   0  0  0  0  0  0  0  0  0  0  0  0
  -13.6776    2.6537  -14.8649 N   0  0  0  0  0  0  0  0  0  0  0  0
  -12.7348    3.4508  -14.3513 C   0  0  0  0  0  0  0  0  0  0  0  0
  -12.3652    4.6532  -14.8310 N   0  0  0  0  0  0  0  0  0  0  0  0
  -13.0200    5.1084  -15.9311 C   0  0  0  0  0  0  0  0  0  0  0  0
  -14.0408    4.3885  -16.4978 C   0  0  0  0  0  0  0  0  0  0  0  0
  -14.8784    4.9201  -17.5988 C   0  0  0  0  0  0  0  0  0  0  0  0
  -14.3464    6.1417  -18.3312 C   0  0  0  0  0  0  0  0  0  0  0  0
  -13.2867    6.9259  -17.7307 N   0  0  0  0  0  0  0  0  0  0  0  0
  -12.6214    6.4452  -16.5146 C   0  0  0  0  0  0  0  0  0  0  0  0
  -13.5754    7.8956  -17.6152 H   0  0  0  0  0  0  0  0  0  0  0  0
  1  2  2  0  0  0
  2  3  1  0  0  0
  2  4  1  0  0  0
  3 14  1  0  0  0
  3 13  1  0  0  0
 14 15  1  0  0  0
 14 19  2  0  0  0
 15 16  2  0  0  0
 16 17  1  0  0  0
 17 18  2  0  0  0
 18 20  1  0  0  0
 18 19  1  0  0  0
 20 21  1  0  0  0
 20 22  1  0  0  0
 20 23  1  0  0  0
  4  5  1  0  0  0
  4 12  1  0  0  0
  5  6  2  0  0  0
  6  7  1  0  0  0
  7  8  1  0  0  0
  7 12  2  0  0  0
  8  9  2  0  0  0
  9 24  1  0  0  0
  9 10  1  0  0  0
 24 25  1  0  0  0
 25 26  1  0  0  0
 25 30  2  0  0  0
 26 27  2  0  0  0
 27 28  1  0  0  0
 28 29  2  0  0  0
 29 30  1  0  0  0
 29 34  1  0  0  0
 30 31  1  0  0  0
 31 32  1  0  0  0
 32 33  1  0  0  0
 33 34  1  0  0  0
 33 35  1  0  0  0
 10 11  2  0  0  0
 11 12  1  0  0  0
M  END
> <minimizedAffinity>
-9.36145

$$$$
