CHEMBL503524


 45 51  0  0  0  0  0  0  0  0999 V2000
  -14.6049    0.4865  -16.6891 C   0  0  0  0  0  0  0  0  0  0  0  0
  -14.4147    0.2953  -18.0528 C   0  0  0  0  0  0  0  0  0  0  0  0
  -13.3034   -0.4026  -18.5132 C   0  0  0  0  0  0  0  0  0  0  0  0
  -12.3646   -0.8902  -17.6090 C   0  0  0  0  0  0  0  0  0  0  0  0
  -12.4967   -0.5815  -16.2541 C   0  0  0  0  0  0  0  0  0  0  0  0
  -11.5786   -0.9691  -15.3580 F   0  0  0  0  0  0  0  0  0  0  0  0
  -13.6176    0.0939  -15.7833 C   0  0  0  0  0  0  0  0  0  0  0  0
  -15.4715    3.2892  -16.6783 O   0  0  0  0  0  0  0  0  0  0  0  0
  -16.1150    2.3840  -16.1481 C   0  0  0  0  0  0  0  0  0  0  0  0
  -15.7821    1.0438  -16.1803 N   0  0  0  0  0  0  0  0  0  0  0  0
  -17.2984    2.6560  -15.5012 N   0  0  0  0  0  0  0  0  0  0  0  0
  -17.8502    3.9801  -15.3558 C   0  0  0  0  0  0  0  0  0  0  0  0
  -19.3563    3.7392  -15.4277 C   0  0  0  0  0  0  0  0  0  0  0  0
  -19.4779    2.3753  -14.9739 N   0  0  0  0  0  0  0  0  0  0  0  0
  -18.2618    1.7101  -15.1762 C   0  0  0  0  0  0  0  0  0  0  0  0
  -18.0412    0.4965  -15.1308 O   0  0  0  0  0  0  0  0  0  0  0  0
  -16.5444    0.3947  -15.9712 H   0  0  0  0  0  0  0  0  0  0  0  0
  -20.6677    1.7258  -14.6353 C   0  0  0  0  0  0  0  0  0  0  0  0
  -21.7380    2.4672  -14.0980 C   0  0  0  0  0  0  0  0  0  0  0  0
  -22.9124    1.8688  -13.6997 C   0  0  0  0  0  0  0  0  0  0  0  0
  -23.0489    0.4863  -13.8268 C   0  0  0  0  0  0  0  0  0  0  0  0
  -22.0203   -0.2669  -14.3768 C   0  0  0  0  0  0  0  0  0  0  0  0
  -20.8344    0.3446  -14.8068 C   0  0  0  0  0  0  0  0  0  0  0  0
  -11.3385   -1.5955  -18.1745 O   0  0  0  0  0  0  0  0  0  0  0  0
  -11.5787   -2.7092  -18.9392 C   0  0  0  0  0  0  0  0  0  0  0  0
  -11.3115   -2.8241  -20.3015 C   0  0  0  0  0  0  0  0  0  0  0  0
  -11.6148   -4.0059  -20.9488 C   0  0  0  0  0  0  0  0  0  0  0  0
  -12.0707   -5.1231  -20.3553 N   0  0  0  0  0  0  0  0  0  0  0  0
  -12.2565   -5.0320  -19.0101 C   0  0  0  0  0  0  0  0  0  0  0  0
  -12.6514   -6.1078  -18.1685 C   0  0  0  0  0  0  0  0  0  0  0  0
  -12.7886   -5.7154  -16.8557 C   0  0  0  0  0  0  0  0  0  0  0  0
  -12.4440   -4.0683  -16.6319 S   0  0  0  0  0  0  0  0  0  0  0  0
  -12.0509   -3.8572  -18.2920 C   0  0  0  0  0  0  0  0  0  0  0  0
  -13.2195   -6.6062  -15.7514 C   0  0  0  0  0  0  0  0  0  0  0  0
  -13.6886   -6.1764  -14.5332 C   0  0  0  0  0  0  0  0  0  0  0  0
  -13.8885   -7.3102  -13.8103 N   0  0  0  0  0  0  0  0  0  0  0  0
  -13.5307   -8.3684  -14.5944 C   0  0  0  0  0  0  0  0  0  0  0  0
  -13.1605   -7.9748  -15.7921 N   0  0  0  0  0  0  0  0  0  0  0  0
  -14.3983   -7.3472  -12.4486 C   0  0  0  0  0  0  0  0  0  0  0  0
  -14.2788   -5.9944  -11.7440 C   0  0  0  0  0  0  0  0  0  0  0  0
  -15.4981   -5.5180  -11.0618 N   0  0  0  0  0  0  0  0  0  0  0  0
  -16.6056   -5.4536  -12.0437 C   0  0  0  0  0  0  0  0  0  0  0  0
  -16.3486   -4.1603  -12.7981 C   0  0  0  0  0  0  0  0  0  0  0  0
  -15.9462   -3.2183  -11.6788 C   0  0  0  0  0  0  0  0  0  0  0  0
  -15.3681   -4.1229  -10.5905 C   0  0  0  0  0  0  0  0  0  0  0  0
  8  9  2  0  0  0
  9 10  1  0  0  0
  9 11  1  0  0  0
 10  1  1  0  0  0
 10 17  1  0  0  0
  1  2  1  0  0  0
  1  7  2  0  0  0
  2  3  2  0  0  0
  3  4  1  0  0  0
  4 24  1  0  0  0
  4  5  2  0  0  0
 24 25  1  0  0  0
 25 26  1  0  0  0
 25 33  2  0  0  0
 26 27  2  0  0  0
 27 28  1  0  0  0
 28 29  2  0  0  0
 29 30  1  0  0  0
 29 33  1  0  0  0
 30 31  2  0  0  0
 31 34  1  0  0  0
 31 32  1  0  0  0
 34 35  2  0  0  0
 34 38  1  0  0  0
 35 36  1  0  0  0
 36 39  1  0  0  0
 36 37  1  0  0  0
 39 40  1  0  0  0
 40 41  1  0  0  0
 41 42  1  0  0  0
 41 45  1  0  0  0
 42 43  1  0  0  0
 43 44  1  0  0  0
 44 45  1  0  0  0
 37 38  2  0  0  0
 32 33  1  0  0  0
  5  6  1  0  0  0
  5  7  1  0  0  0
 11 12  1  0  0  0
 11 15  1  0  0  0
 12 13  1  0  0  0
 13 14  1  0  0  0
 14 18  1  0  0  0
 14 15  1  0  0  0
 18 19  1  0  0  0
 18 23  2  0  0  0
 19 20  2  0  0  0
 20 21  1  0  0  0
 21 22  2  0  0  0
 22 23  1  0  0  0
 15 16  2  0  0  0
M  END
> <minimizedAffinity>
-8.85110

$$$$
