CHEMBL2086738


 32 36  0  0  0  0  0  0  0  0999 V2000
  -13.3178   -0.4410  -14.4352 O   0  0  0  0  0  0  0  0  0  0  0  0
  -13.7316    0.5237  -15.0451 C   0  0  0  0  0  0  0  0  0  0  0  0
  -12.9810    1.2686  -15.9424 N   0  0  0  0  0  0  0  0  0  0  0  0
  -13.7422    2.2536  -16.5714 C   0  0  0  0  0  0  0  0  0  0  0  0
  -13.3347    3.1688  -17.5399 C   0  0  0  0  0  0  0  0  0  0  0  0
  -14.2788    4.0922  -18.0049 C   0  0  0  0  0  0  0  0  0  0  0  0
  -15.5858    4.0886  -17.5021 C   0  0  0  0  0  0  0  0  0  0  0  0
  -15.9782    3.1572  -16.5330 C   0  0  0  0  0  0  0  0  0  0  0  0
  -15.0585    2.2231  -16.0767 C   0  0  0  0  0  0  0  0  0  0  0  0
  -15.1310    1.1125  -15.0901 C   0  0  0  0  0  0  0  0  0  0  0  0
  -16.1852    0.6281  -14.3853 C   0  0  0  0  0  0  0  0  0  0  0  0
  -11.9849    1.1155  -16.0370 H   0  0  0  0  0  0  0  0  0  0  0  0
  -16.0219   -0.5057  -13.5195 C   0  0  0  0  0  0  0  0  0  0  0  0
  -15.8351   -0.6167  -12.2196 N   0  0  0  0  0  0  0  0  0  0  0  0
  -15.7569   -1.9733  -11.9709 C   0  0  0  0  0  0  0  0  0  0  0  0
  -15.5174   -2.6709  -10.7760 C   0  0  0  0  0  0  0  0  0  0  0  0
  -15.4365   -4.0707  -10.8180 C   0  0  0  0  0  0  0  0  0  0  0  0
  -15.6173   -4.7670  -12.0171 C   0  0  0  0  0  0  0  0  0  0  0  0
  -15.9046   -4.0916  -13.2062 C   0  0  0  0  0  0  0  0  0  0  0  0
  -15.9561   -2.7002  -13.1371 C   0  0  0  0  0  0  0  0  0  0  0  0
  -16.1813   -1.7458  -14.0895 N   0  0  0  0  0  0  0  0  0  0  0  0
  -16.3953   -1.9245  -15.0572 H   0  0  0  0  0  0  0  0  0  0  0  0
  -17.5513    1.1703  -14.5749 C   0  0  0  0  0  0  0  0  0  0  0  0
  -18.5199    0.3967  -15.2347 C   0  0  0  0  0  0  0  0  0  0  0  0
  -19.8272    0.8646  -15.3679 C   0  0  0  0  0  0  0  0  0  0  0  0
  -20.1755    2.1102  -14.8499 C   0  0  0  0  0  0  0  0  0  0  0  0
  -19.2184    2.8889  -14.1979 C   0  0  0  0  0  0  0  0  0  0  0  0
  -17.9101    2.4196  -14.0535 C   0  0  0  0  0  0  0  0  0  0  0  0
  -11.9657    3.2569  -18.0959 C   0  0  0  0  0  0  0  0  0  0  0  0
  -11.1708    2.3351  -18.0380 O   0  0  0  0  0  0  0  0  0  0  0  0
  -11.6602    4.4666  -18.6115 O   0  0  0  0  0  0  0  0  0  0  0  0
  -12.2822    5.1766  -18.3660 H   0  0  0  0  0  0  0  0  0  0  0  0
  1  2  2  0  0  0
  2  3  1  0  0  0
  2 10  1  0  0  0
  3  4  1  0  0  0
  3 12  1  0  0  0
  4  5  1  0  0  0
  4  9  2  0  0  0
  5 29  1  0  0  0
  5  6  2  0  0  0
 29 30  2  0  0  0
 29 31  1  0  0  0
 31 32  1  0  0  0
  6  7  1  0  0  0
  7  8  2  0  0  0
  8  9  1  0  0  0
  9 10  1  0  0  0
 10 11  2  0  0  0
 11 23  1  0  0  0
 11 13  1  0  0  0
 23 24  1  0  0  0
 23 28  2  0  0  0
 24 25  2  0  0  0
 25 26  1  0  0  0
 26 27  2  0  0  0
 27 28  1  0  0  0
 13 14  2  0  0  0
 13 21  1  0  0  0
 14 15  1  0  0  0
 15 16  1  0  0  0
 15 20  2  0  0  0
 16 17  2  0  0  0
 17 18  1  0  0  0
 18 19  2  0  0  0
 19 20  1  0  0  0
 20 21  1  0  0  0
 21 22  1  0  0  0
M  END
> <minimizedAffinity>
-8.75764

$$$$
