CHEMBL189408


 41 44  0  0  0  0  0  0  0  0999 V2000
  -13.6322    2.8104  -17.2100 C   0  0  0  0  0  0  0  0  0  0  0  0
  -14.3113    1.6243  -16.6695 N   0  0  0  0  0  0  0  0  0  0  0  0
  -15.5696    1.8266  -16.0720 C   0  0  0  0  0  0  0  0  0  0  0  0
  -16.4018    2.8853  -16.4372 C   0  0  0  0  0  0  0  0  0  0  0  0
  -17.6665    3.0414  -15.8662 C   0  0  0  0  0  0  0  0  0  0  0  0
  -18.1487    2.1421  -14.9145 C   0  0  0  0  0  0  0  0  0  0  0  0
  -17.3210    1.0882  -14.5228 C   0  0  0  0  0  0  0  0  0  0  0  0
  -16.0455    0.9402  -15.0899 C   0  0  0  0  0  0  0  0  0  0  0  0
  -19.4356    2.2451  -14.3372 N   0  0  0  0  0  0  0  0  0  0  0  0
  -20.4533    1.3276  -14.4795 C   0  0  0  0  0  0  0  0  0  0  0  0
  -20.4049    0.2782  -15.1108 O   0  0  0  0  0  0  0  0  0  0  0  0
  -21.6044    1.6949  -13.8082 N   0  0  0  0  0  0  0  0  0  0  0  0
  -19.6045    3.0211  -13.7164 H   0  0  0  0  0  0  0  0  0  0  0  0
  -21.7559    2.6825  -13.6712 H   0  0  0  0  0  0  0  0  0  0  0  0
  -22.7683    0.8459  -14.0235 C   0  0  0  0  0  0  0  0  0  0  0  0
  -22.9486   -0.2294  -12.9612 C   0  0  0  0  0  0  0  0  0  0  0  0
  -24.3695   -0.7402  -12.9286 C   0  0  0  0  0  0  0  0  0  0  0  0
  -25.1316   -0.6365  -11.7565 C   0  0  0  0  0  0  0  0  0  0  0  0
  -26.4493   -1.0967  -11.7243 C   0  0  0  0  0  0  0  0  0  0  0  0
  -27.0150   -1.6747  -12.8587 C   0  0  0  0  0  0  0  0  0  0  0  0
  -26.2576   -1.8094  -14.0207 C   0  0  0  0  0  0  0  0  0  0  0  0
  -24.9389   -1.3501  -14.0551 C   0  0  0  0  0  0  0  0  0  0  0  0
  -13.8579    0.4206  -17.2699 C   0  0  0  0  0  0  0  0  0  0  0  0
  -14.0484    0.1707  -18.6157 C   0  0  0  0  0  0  0  0  0  0  0  0
  -13.5836   -1.0273  -19.1055 C   0  0  0  0  0  0  0  0  0  0  0  0
  -12.9692   -1.9457  -18.3436 N   0  0  0  0  0  0  0  0  0  0  0  0
  -12.8228   -1.6407  -17.0514 C   0  0  0  0  0  0  0  0  0  0  0  0
  -13.2338   -0.4870  -16.5016 N   0  0  0  0  0  0  0  0  0  0  0  0
  -12.2225   -2.6077  -16.2391 N   0  0  0  0  0  0  0  0  0  0  0  0
  -11.3740   -2.9121  -16.6997 H   0  0  0  0  0  0  0  0  0  0  0  0
  -12.8960   -3.6387  -15.5584 C   0  0  0  0  0  0  0  0  0  0  0  0
  -13.3255   -4.7632  -16.2647 C   0  0  0  0  0  0  0  0  0  0  0  0
  -13.9820   -5.8040  -15.6044 C   0  0  0  0  0  0  0  0  0  0  0  0
  -14.2362   -5.7212  -14.2330 C   0  0  0  0  0  0  0  0  0  0  0  0
  -13.8566   -4.5855  -13.5104 C   0  0  0  0  0  0  0  0  0  0  0  0
  -13.1985   -3.5514  -14.1909 C   0  0  0  0  0  0  0  0  0  0  0  0
  -14.1780   -4.4399  -12.0473 C   0  0  0  0  0  0  0  0  0  0  0  0
  -15.8821   -3.9789  -11.7632 S   0  0  0  0  0  0  0  0  0  0  0  0
  -15.8228   -2.7707  -10.4677 C   0  0  0  0  0  0  0  0  0  0  0  0
  -16.3372   -3.2851  -12.9568 O   0  0  0  0  0  0  0  0  0  0  0  0
  -16.6198   -5.1286  -11.2730 O   0  0  0  0  0  0  0  0  0  0  0  0
  1  2  1  0  0  0
  2  3  1  0  0  0
  2 23  1  0  0  0
  3  4  1  0  0  0
  3  8  2  0  0  0
  4  5  2  0  0  0
  5  6  1  0  0  0
  6  9  1  0  0  0
  6  7  2  0  0  0
  9 10  1  0  0  0
  9 13  1  0  0  0
 10 11  2  0  0  0
 10 12  1  0  0  0
 12 15  1  0  0  0
 12 14  1  0  0  0
 15 16  1  0  0  0
 16 17  1  0  0  0
 17 18  1  0  0  0
 17 22  2  0  0  0
 18 19  2  0  0  0
 19 20  1  0  0  0
 20 21  2  0  0  0
 21 22  1  0  0  0
  7  8  1  0  0  0
 23 24  1  0  0  0
 23 28  2  0  0  0
 24 25  2  0  0  0
 25 26  1  0  0  0
 26 27  2  0  0  0
 27 29  1  0  0  0
 27 28  1  0  0  0
 29 31  1  0  0  0
 29 30  1  0  0  0
 31 32  1  0  0  0
 31 36  2  0  0  0
 32 33  2  0  0  0
 33 34  1  0  0  0
 34 35  2  0  0  0
 35 37  1  0  0  0
 35 36  1  0  0  0
 37 38  1  0  0  0
 38 39  1  0  0  0
 38 40  2  0  0  0
 38 41  2  0  0  0
M  END
> <minimizedAffinity>
-9.29328

$$$$
