CHEMBL1254096


 34 38  0  0  0  0  0  0  0  0999 V2000
  -19.1792    1.9534  -14.5419 C   0  0  0  0  0  0  0  0  0  0  0  0
  -18.0949    1.0965  -14.3503 C   0  0  0  0  0  0  0  0  0  0  0  0
  -16.8577    1.3644  -14.9365 C   0  0  0  0  0  0  0  0  0  0  0  0
  -16.6554    2.5038  -15.7247 C   0  0  0  0  0  0  0  0  0  0  0  0
  -17.7580    3.3401  -15.9367 C   0  0  0  0  0  0  0  0  0  0  0  0
  -19.0111    3.0607  -15.3761 C   0  0  0  0  0  0  0  0  0  0  0  0
  -15.3857    2.8283  -16.2178 N   0  0  0  0  0  0  0  0  0  0  0  0
  -14.8222    4.1829  -15.9595 C   0  0  0  0  0  0  0  0  0  0  0  0
  -14.5032    4.9897  -17.2380 C   0  0  0  0  0  0  0  0  0  0  0  0
  -13.7731    4.1604  -18.1786 N   0  0  0  0  0  0  0  0  0  0  0  0
  -12.9635    4.4841  -19.2233 C   0  0  0  0  0  0  0  0  0  0  0  0
  -12.5906    3.2890  -19.8278 C   0  0  0  0  0  0  0  0  0  0  0  0
  -13.2093    2.2255  -19.1176 C   0  0  0  0  0  0  0  0  0  0  0  0
  -13.2090    0.8895  -19.3011 N   0  0  0  0  0  0  0  0  0  0  0  0
  -13.9907    0.2468  -18.4070 C   0  0  0  0  0  0  0  0  0  0  0  0
  -14.7224    0.7638  -17.3920 N   0  0  0  0  0  0  0  0  0  0  0  0
  -14.6729    2.0976  -17.1903 C   0  0  0  0  0  0  0  0  0  0  0  0
  -13.9113    2.8077  -18.0943 C   0  0  0  0  0  0  0  0  0  0  0  0
  -21.3742    0.3293  -15.4091 O   0  0  0  0  0  0  0  0  0  0  0  0
  -21.4359    0.9480  -14.3483 C   0  0  0  0  0  0  0  0  0  0  0  0
  -20.4242    1.7714  -13.8873 N   0  0  0  0  0  0  0  0  0  0  0  0
  -22.4999    0.8699  -13.4797 N   0  0  0  0  0  0  0  0  0  0  0  0
  -20.4224    1.9667  -12.9004 H   0  0  0  0  0  0  0  0  0  0  0  0
  -22.4262    1.4335  -12.6578 H   0  0  0  0  0  0  0  0  0  0  0  0
  -23.6300    0.0345  -13.6096 C   0  0  0  0  0  0  0  0  0  0  0  0
  -24.0257   -0.5552  -14.8113 C   0  0  0  0  0  0  0  0  0  0  0  0
  -25.1572   -1.3671  -14.8693 C   0  0  0  0  0  0  0  0  0  0  0  0
  -25.8943   -1.6117  -13.7156 C   0  0  0  0  0  0  0  0  0  0  0  0
  -25.4943   -1.0630  -12.4880 C   0  0  0  0  0  0  0  0  0  0  0  0
  -24.3651   -0.2263  -12.4517 C   0  0  0  0  0  0  0  0  0  0  0  0
  -26.2525   -1.3845  -11.2245 C   0  0  0  0  0  0  0  0  0  0  0  0
  -26.4928   -2.7162  -11.0676 F   0  0  0  0  0  0  0  0  0  0  0  0
  -25.5871   -0.9917  -10.1023 F   0  0  0  0  0  0  0  0  0  0  0  0
  -27.4691   -0.7758  -11.1661 F   0  0  0  0  0  0  0  0  0  0  0  0
 19 20  2  0  0  0
 20 21  1  0  0  0
 20 22  1  0  0  0
 21  1  1  0  0  0
 21 23  1  0  0  0
  1  2  1  0  0  0
  1  6  2  0  0  0
  2  3  2  0  0  0
  3  4  1  0  0  0
  4  7  1  0  0  0
  4  5  2  0  0  0
  7  8  1  0  0  0
  7 17  1  0  0  0
  8  9  1  0  0  0
  9 10  1  0  0  0
 10 11  1  0  0  0
 10 18  1  0  0  0
 11 12  2  0  0  0
 12 13  1  0  0  0
 13 14  1  0  0  0
 13 18  2  0  0  0
 14 15  2  0  0  0
 15 16  1  0  0  0
 16 17  2  0  0  0
 17 18  1  0  0  0
  5  6  1  0  0  0
 22 25  1  0  0  0
 22 24  1  0  0  0
 25 26  1  0  0  0
 25 30  2  0  0  0
 26 27  2  0  0  0
 27 28  1  0  0  0
 28 29  2  0  0  0
 29 31  1  0  0  0
 29 30  1  0  0  0
 31 32  1  0  0  0
 31 33  1  0  0  0
 31 34  1  0  0  0
M  END
> <minimizedAffinity>
-9.57056

$$$$
