CHEMBL3648071


 28 29  0  0  0  0  0  0  0  0999 V2000
  -29.1401   -3.1345   -5.5775 C   0  0  0  0  0  0  0  0  0  0  0  0
  -29.1220   -3.9285   -6.6738 N   0  0  0  0  0  0  0  0  0  0  0  0
  -28.9202   -5.2443   -6.4880 C   0  0  0  0  0  0  0  0  0  0  0  0
  -28.6243   -5.7879   -5.2963 N   0  0  0  0  0  0  0  0  0  0  0  0
  -28.6300   -4.9806   -4.2263 C   0  0  0  0  0  0  0  0  0  0  0  0
  -28.9307   -3.6470   -4.3018 C   0  0  0  0  0  0  0  0  0  0  0  0
  -29.0017   -2.6171   -2.7205 Br  0  0  0  0  0  0  0  0  0  0  0  0
  -29.4375   -1.7685   -5.7156 N   0  0  0  0  0  0  0  0  0  0  0  0
  -30.3373   -1.6716   -6.1916 H   0  0  0  0  0  0  0  0  0  0  0  0
  -28.4201   -0.8710   -6.2730 C   0  0  0  0  0  0  0  0  0  0  0  0
  -27.2818   -0.7623   -5.2562 C   0  0  0  0  0  0  0  0  0  0  0  0
  -30.2092    0.8411   -5.5734 C   0  0  0  0  0  0  0  0  0  0  0  0
  -29.0811    0.5102   -6.5434 C   0  0  0  0  0  0  0  0  0  0  0  0
  -28.0839    1.5406   -6.4407 O   0  0  0  0  0  0  0  0  0  0  0  0
  -27.7725    1.5564   -5.5184 H   0  0  0  0  0  0  0  0  0  0  0  0
  -29.0567   -6.0921   -7.5900 N   0  0  0  0  0  0  0  0  0  0  0  0
  -28.8895   -5.6088   -8.4563 H   0  0  0  0  0  0  0  0  0  0  0  0
  -29.8206   -7.2714   -7.6555 C   0  0  0  0  0  0  0  0  0  0  0  0
  -31.1776   -7.2977   -7.2939 C   0  0  0  0  0  0  0  0  0  0  0  0
  -31.8887   -8.4952   -7.2128 C   0  0  0  0  0  0  0  0  0  0  0  0
  -31.2408   -9.6927   -7.4965 C   0  0  0  0  0  0  0  0  0  0  0  0
  -29.9051   -9.6922   -7.9130 C   0  0  0  0  0  0  0  0  0  0  0  0
  -29.2047   -8.4802   -8.0032 C   0  0  0  0  0  0  0  0  0  0  0  0
  -32.1054  -11.2294   -7.2279 S   0  0  0  0  0  0  0  0  0  0  0  0
  -30.8809  -12.2795   -6.4923 C   0  0  0  0  0  0  0  0  0  0  0  0
  -33.1852  -10.9169   -6.1731 N   0  0  0  0  0  0  0  0  0  0  0  0
  -32.3758  -11.8018   -8.5313 O   0  0  0  0  0  0  0  0  0  0  0  0
  -32.8345  -10.8839   -5.2176 H   0  0  0  0  0  0  0  0  0  0  0  0
 12 13  1  0  0  0
 13 14  1  0  0  0
 13 10  1  0  0  0
 14 15  1  0  0  0
 10 11  1  0  0  0
 10  8  1  0  0  0
  8  1  1  0  0  0
  8  9  1  0  0  0
  1  2  1  0  0  0
  1  6  2  0  0  0
  2  3  2  0  0  0
  3 16  1  0  0  0
  3  4  1  0  0  0
 16 18  1  0  0  0
 16 17  1  0  0  0
 18 19  1  0  0  0
 18 23  2  0  0  0
 19 20  2  0  0  0
 20 21  1  0  0  0
 21 24  1  0  0  0
 21 22  2  0  0  0
 24 25  1  0  0  0
 24 26  2  0  0  0
 24 27  2  0  0  0
 26 28  1  0  0  0
 22 23  1  0  0  0
  4  5  2  0  0  0
  5  6  1  0  0  0
  6  7  1  0  0  0
M  END
> <minimizedAffinity>
-7.81113

$$$$
