CHEMBL570573


 40 45  0  0  0  0  0  0  0  0999 V2000
  -14.3979   -5.4035  -13.0371 C   0  0  0  0  0  0  0  0  0  0  0  0
  -14.1875   -5.5124  -14.4652 C   0  0  0  0  0  0  0  0  0  0  0  0
  -14.1592   -6.7316  -15.3555 C   0  0  0  0  0  0  0  0  0  0  0  0
  -14.1189   -4.3632  -15.2748 C   0  0  0  0  0  0  0  0  0  0  0  0
  -14.4946   -3.1473  -14.7829 C   0  0  0  0  0  0  0  0  0  0  0  0
  -14.9791   -3.0367  -13.4893 C   0  0  0  0  0  0  0  0  0  0  0  0
  -15.6496   -1.8436  -13.1625 C   0  0  0  0  0  0  0  0  0  0  0  0
  -15.8736   -1.4901  -11.8938 N   0  0  0  0  0  0  0  0  0  0  0  0
  -15.5032   -2.3936  -10.9541 C   0  0  0  0  0  0  0  0  0  0  0  0
  -15.0250   -3.6839  -11.2134 C   0  0  0  0  0  0  0  0  0  0  0  0
  -14.7911   -4.0888  -12.5432 C   0  0  0  0  0  0  0  0  0  0  0  0
  -14.1920   -6.5617  -12.2016 N   0  0  0  0  0  0  0  0  0  0  0  0
  -15.0541   -6.8967  -11.7831 H   0  0  0  0  0  0  0  0  0  0  0  0
  -11.9211   -6.9309  -11.2398 C   0  0  0  0  0  0  0  0  0  0  0  0
  -10.8006   -7.7681  -11.0296 C   0  0  0  0  0  0  0  0  0  0  0  0
  -10.8445   -9.0950  -11.3898 C   0  0  0  0  0  0  0  0  0  0  0  0
  -12.0292   -9.5397  -11.9398 C   0  0  0  0  0  0  0  0  0  0  0  0
  -13.1452   -8.7643  -12.1743 N   0  0  0  0  0  0  0  0  0  0  0  0
  -13.1036   -7.4477  -11.8522 C   0  0  0  0  0  0  0  0  0  0  0  0
  -11.2865   -3.2879  -10.8581 C   0  0  0  0  0  0  0  0  0  0  0  0
  -11.3398   -4.5325  -11.4353 C   0  0  0  0  0  0  0  0  0  0  0  0
  -11.8294   -5.5756  -10.6876 C   0  0  0  0  0  0  0  0  0  0  0  0
  -12.3488   -5.3586   -9.4433 N   0  0  0  0  0  0  0  0  0  0  0  0
  -12.3405   -4.1026   -9.0067 C   0  0  0  0  0  0  0  0  0  0  0  0
  -11.8076   -3.0502   -9.6450 N   0  0  0  0  0  0  0  0  0  0  0  0
  -11.5508   -1.7611  -12.6926 C   0  0  0  0  0  0  0  0  0  0  0  0
  -10.7042   -2.2733  -11.6374 N   0  0  0  0  0  0  0  0  0  0  0  0
  -10.3748   -1.5320  -11.0229 H   0  0  0  0  0  0  0  0  0  0  0  0
  -16.3483   -1.2210  -14.2354 N   0  0  0  0  0  0  0  0  0  0  0  0
  -16.7427   -1.9380  -14.8383 H   0  0  0  0  0  0  0  0  0  0  0  0
  -16.2982    0.0442  -14.8329 C   0  0  0  0  0  0  0  0  0  0  0  0
  -17.5136    0.7530  -14.9014 C   0  0  0  0  0  0  0  0  0  0  0  0
  -17.5679    2.0952  -15.2485 C   0  0  0  0  0  0  0  0  0  0  0  0
  -16.3770    2.6783  -15.6532 C   0  0  0  0  0  0  0  0  0  0  0  0
  -16.0780    4.3262  -16.0088 S   0  0  0  0  0  0  0  0  0  0  0  0
  -14.8372    3.7620  -17.0504 C   0  0  0  0  0  0  0  0  0  0  0  0
  -14.7117    4.4633  -18.3528 C   0  0  0  0  0  0  0  0  0  0  0  0
  -14.2899    2.6167  -16.6787 N   0  0  0  0  0  0  0  0  0  0  0  0
  -15.2024    1.9510  -15.8580 C   0  0  0  0  0  0  0  0  0  0  0  0
  -15.1306    0.6355  -15.3354 C   0  0  0  0  0  0  0  0  0  0  0  0
 26 27  1  0  0  0
 27 20  1  0  0  0
 27 28  1  0  0  0
 20 21  1  0  0  0
 20 25  2  0  0  0
 21 22  2  0  0  0
 22 14  1  0  0  0
 22 23  1  0  0  0
 14 15  1  0  0  0
 14 19  2  0  0  0
 15 16  2  0  0  0
 16 17  1  0  0  0
 17 18  2  0  0  0
 18 19  1  0  0  0
 19 12  1  0  0  0
 12  1  1  0  0  0
 12 13  1  0  0  0
  1  2  1  0  0  0
  1 11  2  0  0  0
  2  3  1  0  0  0
  2  4  2  0  0  0
  4  5  1  0  0  0
  5  6  2  0  0  0
  6  7  1  0  0  0
  6 11  1  0  0  0
  7 29  1  0  0  0
  7  8  2  0  0  0
 29 31  1  0  0  0
 29 30  1  0  0  0
 31 32  1  0  0  0
 31 40  2  0  0  0
 32 33  2  0  0  0
 33 34  1  0  0  0
 34 35  1  0  0  0
 34 39  2  0  0  0
 35 36  1  0  0  0
 36 37  1  0  0  0
 36 38  2  0  0  0
 38 39  1  0  0  0
 39 40  1  0  0  0
  8  9  1  0  0  0
  9 10  2  0  0  0
 10 11  1  0  0  0
 23 24  2  0  0  0
 24 25  1  0  0  0
M  END
> <minimizedAffinity>
-8.32677

$$$$
