CHEMBL4468005


 38 41  0  0  0  0  0  0  0  0999 V2000
  -27.5100  -11.7361   -7.2731 C   0  0  0  0  0  0  0  0  0  0  0  0
  -26.2499  -12.2296   -7.0464 N   0  0  0  0  0  0  0  0  0  0  0  0
  -25.8110  -12.2513   -5.7608 C   0  0  0  0  0  0  0  0  0  0  0  0
  -24.4784  -12.3453   -5.3808 C   0  0  0  0  0  0  0  0  0  0  0  0
  -23.8620  -11.1676   -4.9732 C   0  0  0  0  0  0  0  0  0  0  0  0
  -24.6756  -10.0515   -4.8211 C   0  0  0  0  0  0  0  0  0  0  0  0
  -26.0557  -10.2445   -4.7081 C   0  0  0  0  0  0  0  0  0  0  0  0
  -26.5839  -11.5264   -4.9147 C   0  0  0  0  0  0  0  0  0  0  0  0
  -27.9485  -11.7818   -5.0054 C   0  0  0  0  0  0  0  0  0  0  0  0
  -28.4987  -11.8961   -6.2726 C   0  0  0  0  0  0  0  0  0  0  0  0
  -29.9603  -12.0359   -6.5258 C   0  0  0  0  0  0  0  0  0  0  0  0
  -30.9237  -11.8993   -5.5004 C   0  0  0  0  0  0  0  0  0  0  0  0
  -32.3109  -12.0121   -5.7337 C   0  0  0  0  0  0  0  0  0  0  0  0
  -32.7804  -12.2768   -7.0165 C   0  0  0  0  0  0  0  0  0  0  0  0
  -31.8515  -12.4657   -8.0321 C   0  0  0  0  0  0  0  0  0  0  0  0
  -30.4699  -12.3547   -7.7956 C   0  0  0  0  0  0  0  0  0  0  0  0
  -34.0867  -12.3836   -7.3982 O   0  0  0  0  0  0  0  0  0  0  0  0
  -35.0813  -12.4655   -6.3839 C   0  0  0  0  0  0  0  0  0  0  0  0
  -27.6649  -10.4991   -8.0438 N   0  0  0  0  0  0  0  0  0  0  0  0
  -28.1986  -10.7767   -8.8768 H   0  0  0  0  0  0  0  0  0  0  0  0
  -29.3183   -6.7729   -6.7408 C   0  0  0  0  0  0  0  0  0  0  0  0
  -29.6673   -7.3648   -7.9597 C   0  0  0  0  0  0  0  0  0  0  0  0
  -29.0833   -8.5564   -8.4133 C   0  0  0  0  0  0  0  0  0  0  0  0
  -28.1274   -9.2111   -7.6559 C   0  0  0  0  0  0  0  0  0  0  0  0
  -27.7592   -8.6302   -6.4284 C   0  0  0  0  0  0  0  0  0  0  0  0
  -28.3356   -7.4314   -5.9677 C   0  0  0  0  0  0  0  0  0  0  0  0
  -29.6089   -4.2883   -6.7831 C   0  0  0  0  0  0  0  0  0  0  0  0
  -28.9354   -4.0534   -7.7715 O   0  0  0  0  0  0  0  0  0  0  0  0
  -29.9265   -5.5631   -6.3028 N   0  0  0  0  0  0  0  0  0  0  0  0
  -30.6558   -5.6078   -5.6050 H   0  0  0  0  0  0  0  0  0  0  0  0
  -30.2283   -3.0940   -6.0330 C   0  0  0  0  0  0  0  0  0  0  0  0
  -29.2724   -2.1502   -5.3987 N   0  0  0  0  0  0  0  0  0  0  0  0
  -29.5018    0.3194   -4.9941 C   0  0  0  0  0  0  0  0  0  0  0  0
  -29.3710   -0.8092   -6.0120 C   0  0  0  0  0  0  0  0  0  0  0  0
  -29.5088   -2.1167   -3.9313 C   0  0  0  0  0  0  0  0  0  0  0  0
  -30.3795   -3.2236   -3.3241 C   0  0  0  0  0  0  0  0  0  0  0  0
  -22.5365  -10.9669   -4.7445 O   0  0  0  0  0  0  0  0  0  0  0  0
  -21.6664  -12.0717   -4.9535 C   0  0  0  0  0  0  0  0  0  0  0  0
 33 34  1  0  0  0
 34 32  1  0  0  0
 32 35  1  0  0  0
 32 31  1  0  0  0
 35 36  1  0  0  0
 31 27  1  0  0  0
 27 28  2  0  0  0
 27 29  1  0  0  0
 29 21  1  0  0  0
 29 30  1  0  0  0
 21 22  1  0  0  0
 21 26  2  0  0  0
 22 23  2  0  0  0
 23 24  1  0  0  0
 24 19  1  0  0  0
 24 25  2  0  0  0
 19  1  1  0  0  0
 19 20  1  0  0  0
  1  2  1  0  0  0
  1 10  2  0  0  0
  2  3  2  0  0  0
  3  4  1  0  0  0
  3  8  1  0  0  0
  4  5  2  0  0  0
  5 37  1  0  0  0
  5  6  1  0  0  0
 37 38  1  0  0  0
  6  7  2  0  0  0
  7  8  1  0  0  0
  8  9  2  0  0  0
  9 10  1  0  0  0
 10 11  1  0  0  0
 11 12  1  0  0  0
 11 16  2  0  0  0
 12 13  2  0  0  0
 13 14  1  0  0  0
 14 17  1  0  0  0
 14 15  2  0  0  0
 17 18  1  0  0  0
 15 16  1  0  0  0
 25 26  1  0  0  0
M  END
> <minimizedAffinity>
-6.40868

$$$$
