CHEMBL215943


 41 45  0  0  0  0  0  0  0  0999 V2000
  -13.5832    1.1383  -15.1836 C   0  0  0  0  0  0  0  0  0  0  0  0
  -15.0841    1.2804  -15.2121 C   0  0  0  0  0  0  0  0  0  0  0  0
  -15.6148    2.5295  -15.6266 C   0  0  0  0  0  0  0  0  0  0  0  0
  -16.9797    2.8201  -15.5141 C   0  0  0  0  0  0  0  0  0  0  0  0
  -17.8425    1.8273  -15.0698 C   0  0  0  0  0  0  0  0  0  0  0  0
  -17.3489    0.5505  -14.7909 C   0  0  0  0  0  0  0  0  0  0  0  0
  -15.9624    0.2759  -14.7376 C   0  0  0  0  0  0  0  0  0  0  0  0
  -15.5804   -0.7330  -13.7166 C   0  0  0  0  0  0  0  0  0  0  0  0
  -14.7198   -1.7106  -14.2533 C   0  0  0  0  0  0  0  0  0  0  0  0
  -14.6571   -2.9423  -13.7037 C   0  0  0  0  0  0  0  0  0  0  0  0
  -15.3727   -3.1822  -12.6032 C   0  0  0  0  0  0  0  0  0  0  0  0
  -15.4353   -4.4491  -12.4337 N   0  0  0  0  0  0  0  0  0  0  0  0
  -15.2688   -4.8812  -11.2188 C   0  0  0  0  0  0  0  0  0  0  0  0
  -15.3820   -4.0884  -10.1458 N   0  0  0  0  0  0  0  0  0  0  0  0
  -15.7095   -2.7662  -10.4184 C   0  0  0  0  0  0  0  0  0  0  0  0
  -15.7402   -2.1924  -11.7273 C   0  0  0  0  0  0  0  0  0  0  0  0
  -15.9898   -0.9099  -12.3734 C   0  0  0  0  0  0  0  0  0  0  0  0
  -14.7848   -6.1135  -11.4367 N   0  0  0  0  0  0  0  0  0  0  0  0
  -15.6238   -6.6396  -11.6835 H   0  0  0  0  0  0  0  0  0  0  0  0
  -13.5946   -6.6298  -12.0128 C   0  0  0  0  0  0  0  0  0  0  0  0
  -12.5037   -6.7684  -10.9584 C   0  0  0  0  0  0  0  0  0  0  0  0
  -11.7495   -5.5766  -10.5904 N   0  0  0  0  0  0  0  0  0  0  0  0
  -11.6914   -5.0930   -9.2207 C   0  0  0  0  0  0  0  0  0  0  0  0
  -12.1055   -3.6180   -9.0349 C   0  0  0  0  0  0  0  0  0  0  0  0
  -11.5018   -2.7594  -10.0110 O   0  0  0  0  0  0  0  0  0  0  0  0
  -11.9066   -3.1763  -11.3211 C   0  0  0  0  0  0  0  0  0  0  0  0
  -11.4202   -4.6022  -11.6209 C   0  0  0  0  0  0  0  0  0  0  0  0
  -19.2496    2.0844  -14.6540 C   0  0  0  0  0  0  0  0  0  0  0  0
  -19.5198    3.2047  -14.2580 O   0  0  0  0  0  0  0  0  0  0  0  0
  -20.0714    0.9810  -14.7117 N   0  0  0  0  0  0  0  0  0  0  0  0
  -19.6322    0.1112  -14.9680 H   0  0  0  0  0  0  0  0  0  0  0  0
  -21.3712    0.9253  -14.1907 C   0  0  0  0  0  0  0  0  0  0  0  0
  -22.2083    2.0260  -14.0499 C   0  0  0  0  0  0  0  0  0  0  0  0
  -23.4544    1.8952  -13.4211 C   0  0  0  0  0  0  0  0  0  0  0  0
  -23.8703    0.6629  -12.9181 C   0  0  0  0  0  0  0  0  0  0  0  0
  -23.0354   -0.4561  -13.0439 C   0  0  0  0  0  0  0  0  0  0  0  0
  -21.8000   -0.3154  -13.7115 C   0  0  0  0  0  0  0  0  0  0  0  0
  -23.4312   -1.7876  -12.4765 C   0  0  0  0  0  0  0  0  0  0  0  0
  -23.1316   -1.9449  -11.1574 F   0  0  0  0  0  0  0  0  0  0  0  0
  -24.7697   -2.0240  -12.5829 F   0  0  0  0  0  0  0  0  0  0  0  0
  -22.8200   -2.8170  -13.1280 F   0  0  0  0  0  0  0  0  0  0  0  0
  1  2  1  0  0  0
  2  3  1  0  0  0
  2  7  2  0  0  0
  3  4  2  0  0  0
  4  5  1  0  0  0
  5 28  1  0  0  0
  5  6  2  0  0  0
 28 29  2  0  0  0
 28 30  1  0  0  0
 30 32  1  0  0  0
 30 31  1  0  0  0
 32 33  1  0  0  0
 32 37  2  0  0  0
 33 34  2  0  0  0
 34 35  1  0  0  0
 35 36  2  0  0  0
 36 38  1  0  0  0
 36 37  1  0  0  0
 38 39  1  0  0  0
 38 40  1  0  0  0
 38 41  1  0  0  0
  6  7  1  0  0  0
  7  8  1  0  0  0
  8  9  1  0  0  0
  8 17  2  0  0  0
  9 10  2  0  0  0
 10 11  1  0  0  0
 11 12  1  0  0  0
 11 16  2  0  0  0
 12 13  2  0  0  0
 13 18  1  0  0  0
 13 14  1  0  0  0
 18 20  1  0  0  0
 18 19  1  0  0  0
 20 21  1  0  0  0
 21 22  1  0  0  0
 22 23  1  0  0  0
 22 27  1  0  0  0
 23 24  1  0  0  0
 24 25  1  0  0  0
 25 26  1  0  0  0
 26 27  1  0  0  0
 14 15  2  0  0  0
 15 16  1  0  0  0
 16 17  1  0  0  0
M  END
> <minimizedAffinity>
-10.62391

$$$$
