CHEMBL1976420


 23 25  0  0  0  0  0  0  0  0999 V2000
  -29.4836   -6.0891   -5.6462 C   0  0  0  0  0  0  0  0  0  0  0  0
  -29.0789   -5.0342   -6.4938 C   0  0  0  0  0  0  0  0  0  0  0  0
  -28.6821   -5.6352   -7.6812 N   0  0  0  0  0  0  0  0  0  0  0  0
  -28.8044   -6.9877   -7.6246 C   0  0  0  0  0  0  0  0  0  0  0  0
  -28.5078   -7.8516   -8.6196 N   0  0  0  0  0  0  0  0  0  0  0  0
  -28.7477   -9.1288   -8.2354 C   0  0  0  0  0  0  0  0  0  0  0  0
  -29.2257   -9.4882   -6.9832 C   0  0  0  0  0  0  0  0  0  0  0  0
  -29.5141   -8.6004   -6.0079 N   0  0  0  0  0  0  0  0  0  0  0  0
  -29.2905   -7.3078   -6.3680 C   0  0  0  0  0  0  0  0  0  0  0  0
  -28.3496   -5.1603   -8.5052 H   0  0  0  0  0  0  0  0  0  0  0  0
  -29.0350   -3.5598   -6.3187 C   0  0  0  0  0  0  0  0  0  0  0  0
  -29.8187   -2.9063   -5.3602 C   0  0  0  0  0  0  0  0  0  0  0  0
  -29.7962   -1.5163   -5.1922 C   0  0  0  0  0  0  0  0  0  0  0  0
  -28.9742   -0.7070   -5.9769 C   0  0  0  0  0  0  0  0  0  0  0  0
  -28.1825   -1.3458   -6.9426 C   0  0  0  0  0  0  0  0  0  0  0  0
  -28.2140   -2.7413   -7.1102 C   0  0  0  0  0  0  0  0  0  0  0  0
  -28.9606    0.8097   -5.8159 C   0  0  0  0  0  0  0  0  0  0  0  0
  -30.3826    1.3776   -5.7386 C   0  0  0  0  0  0  0  0  0  0  0  0
  -28.1439    1.2087   -4.5835 C   0  0  0  0  0  0  0  0  0  0  0  0
  -28.3258    1.4390   -6.9378 O   0  0  0  0  0  0  0  0  0  0  0  0
  -28.8932    1.2835   -7.7118 H   0  0  0  0  0  0  0  0  0  0  0  0
  -31.5382   -5.8646   -4.0984 C   0  0  0  0  0  0  0  0  0  0  0  0
  -30.0312   -5.9794   -4.2491 C   0  0  0  0  0  0  0  0  0  0  0  0
 22 23  1  0  0  0
 23  1  1  0  0  0
  1  2  2  0  0  0
  1  9  1  0  0  0
  2 11  1  0  0  0
  2  3  1  0  0  0
 11 12  1  0  0  0
 11 16  2  0  0  0
 12 13  2  0  0  0
 13 14  1  0  0  0
 14 17  1  0  0  0
 14 15  2  0  0  0
 17 18  1  0  0  0
 17 19  1  0  0  0
 17 20  1  0  0  0
 20 21  1  0  0  0
 15 16  1  0  0  0
  3  4  1  0  0  0
  3 10  1  0  0  0
  4  5  1  0  0  0
  4  9  2  0  0  0
  5  6  2  0  0  0
  6  7  1  0  0  0
  7  8  2  0  0  0
  8  9  1  0  0  0
M  END
> <minimizedAffinity>
-8.28370

$$$$
