CHEMBL3780121


 32 35  0  0  0  0  0  0  0  0999 V2000
  -28.6467   -9.4398   -4.3454 C   0  0  0  0  0  0  0  0  0  0  0  0
  -28.9626   -8.3842   -3.5629 N   0  0  0  0  0  0  0  0  0  0  0  0
  -29.5363   -7.2696   -4.1020 N   0  0  0  0  0  0  0  0  0  0  0  0
  -29.8486   -7.2151   -5.4146 C   0  0  0  0  0  0  0  0  0  0  0  0
  -29.5147   -8.2780   -6.2774 C   0  0  0  0  0  0  0  0  0  0  0  0
  -29.7897   -8.2559   -7.6657 C   0  0  0  0  0  0  0  0  0  0  0  0
  -29.3964   -9.2941   -8.5089 C   0  0  0  0  0  0  0  0  0  0  0  0
  -28.7109  -10.3795   -7.9864 C   0  0  0  0  0  0  0  0  0  0  0  0
  -28.4479  -10.4401   -6.6163 C   0  0  0  0  0  0  0  0  0  0  0  0
  -28.8529   -9.4084   -5.7366 C   0  0  0  0  0  0  0  0  0  0  0  0
  -30.5418   -6.0818   -5.9224 N   0  0  0  0  0  0  0  0  0  0  0  0
  -31.4242   -5.9891   -5.4301 H   0  0  0  0  0  0  0  0  0  0  0  0
  -29.9682   -4.8518   -6.2980 C   0  0  0  0  0  0  0  0  0  0  0  0
  -29.3935   -4.6978   -7.5594 C   0  0  0  0  0  0  0  0  0  0  0  0
  -28.7409   -3.5057   -7.9004 C   0  0  0  0  0  0  0  0  0  0  0  0
  -28.6337   -2.4571   -6.9772 C   0  0  0  0  0  0  0  0  0  0  0  0
  -27.7698   -1.0590   -7.4995 Cl  0  0  0  0  0  0  0  0  0  0  0  0
  -29.1957   -2.5832   -5.7059 C   0  0  0  0  0  0  0  0  0  0  0  0
  -29.8537   -3.7934   -5.3862 C   0  0  0  0  0  0  0  0  0  0  0  0
  -29.1482   -1.5317   -4.6295 C   0  0  0  0  0  0  0  0  0  0  0  0
  -27.9164   -1.0851   -4.2704 F   0  0  0  0  0  0  0  0  0  0  0  0
  -29.8479   -0.4136   -4.9798 F   0  0  0  0  0  0  0  0  0  0  0  0
  -29.7242   -1.9680   -3.4709 F   0  0  0  0  0  0  0  0  0  0  0  0
  -28.1730  -10.6680   -3.6009 C   0  0  0  0  0  0  0  0  0  0  0  0
  -23.9540  -11.1184   -2.7097 C   0  0  0  0  0  0  0  0  0  0  0  0
  -24.4070   -9.9687   -3.3550 C   0  0  0  0  0  0  0  0  0  0  0  0
  -25.7649   -9.8210   -3.6740 C   0  0  0  0  0  0  0  0  0  0  0  0
  -26.6872  -10.8276   -3.3661 C   0  0  0  0  0  0  0  0  0  0  0  0
  -26.2235  -11.9733   -2.7008 C   0  0  0  0  0  0  0  0  0  0  0  0
  -24.8706  -12.1170   -2.3813 C   0  0  0  0  0  0  0  0  0  0  0  0
  -21.7095  -11.5079   -3.3819 C   0  0  0  0  0  0  0  0  0  0  0  0
  -22.6646  -11.3799   -2.3361 O   0  0  0  0  0  0  0  0  0  0  0  0
 31 32  1  0  0  0
 32 25  1  0  0  0
 25 26  1  0  0  0
 25 30  2  0  0  0
 26 27  2  0  0  0
 27 28  1  0  0  0
 28 24  1  0  0  0
 28 29  2  0  0  0
 24  1  1  0  0  0
  1  2  1  0  0  0
  1 10  2  0  0  0
  2  3  2  0  0  0
  3  4  1  0  0  0
  4 11  1  0  0  0
  4  5  2  0  0  0
 11 13  1  0  0  0
 11 12  1  0  0  0
 13 14  1  0  0  0
 13 19  2  0  0  0
 14 15  2  0  0  0
 15 16  1  0  0  0
 16 17  1  0  0  0
 16 18  2  0  0  0
 18 20  1  0  0  0
 18 19  1  0  0  0
 20 21  1  0  0  0
 20 22  1  0  0  0
 20 23  1  0  0  0
  5  6  1  0  0  0
  5 10  1  0  0  0
  6  7  2  0  0  0
  7  8  1  0  0  0
  8  9  2  0  0  0
  9 10  1  0  0  0
 29 30  1  0  0  0
M  END
> <minimizedAffinity>
-8.95800

$$$$
