CHEMBL260135


 25 28  0  0  0  0  0  0  0  0999 V2000
  -28.9471   -1.6709   -3.8263 N   0  0  0  0  0  0  0  0  0  0  0  0
  -28.4950   -1.6652   -5.0833 C   0  0  0  0  0  0  0  0  0  0  0  0
  -27.9240   -0.5727   -5.5960 N   0  0  0  0  0  0  0  0  0  0  0  0
  -27.5963   -0.9456   -6.8437 N   0  0  0  0  0  0  0  0  0  0  0  0
  -27.9442   -2.2224   -7.1393 C   0  0  0  0  0  0  0  0  0  0  0  0
  -27.7295   -2.8368   -8.3052 N   0  0  0  0  0  0  0  0  0  0  0  0
  -28.1674   -4.0784   -8.4045 N   0  0  0  0  0  0  0  0  0  0  0  0
  -28.8110   -4.7065   -7.3712 C   0  0  0  0  0  0  0  0  0  0  0  0
  -29.0319   -4.0886   -6.1050 C   0  0  0  0  0  0  0  0  0  0  0  0
  -28.5596   -2.7529   -6.0181 C   0  0  0  0  0  0  0  0  0  0  0  0
  -28.7128   -0.8571   -3.2614 H   0  0  0  0  0  0  0  0  0  0  0  0
  -28.9870   -2.5314   -3.2912 H   0  0  0  0  0  0  0  0  0  0  0  0
  -27.1404   -0.2763   -7.4547 H   0  0  0  0  0  0  0  0  0  0  0  0
  -29.2106   -6.0992   -7.7230 C   0  0  0  0  0  0  0  0  0  0  0  0
  -28.2739   -6.9892   -8.2869 C   0  0  0  0  0  0  0  0  0  0  0  0
  -28.5794   -8.3385   -8.4967 C   0  0  0  0  0  0  0  0  0  0  0  0
  -29.8274   -8.8338   -8.1346 C   0  0  0  0  0  0  0  0  0  0  0  0
  -30.7931   -7.9652   -7.6392 C   0  0  0  0  0  0  0  0  0  0  0  0
  -30.5003   -6.6067   -7.4840 C   0  0  0  0  0  0  0  0  0  0  0  0
  -29.7097   -4.7249   -4.9556 C   0  0  0  0  0  0  0  0  0  0  0  0
  -29.1209   -5.7869   -4.2384 C   0  0  0  0  0  0  0  0  0  0  0  0
  -29.8402   -6.5088   -3.2794 C   0  0  0  0  0  0  0  0  0  0  0  0
  -31.1309   -6.1207   -2.9384 C   0  0  0  0  0  0  0  0  0  0  0  0
  -31.7083   -5.0247   -3.5696 C   0  0  0  0  0  0  0  0  0  0  0  0
  -31.0187   -4.3614   -4.5877 C   0  0  0  0  0  0  0  0  0  0  0  0
  1  2  1  0  0  0
  1 11  1  0  0  0
  1 12  1  0  0  0
  2  3  2  0  0  0
  2 10  1  0  0  0
  3  4  1  0  0  0
  4  5  1  0  0  0
  4 13  1  0  0  0
  5  6  1  0  0  0
  5 10  2  0  0  0
  6  7  2  0  0  0
  7  8  1  0  0  0
  8 14  1  0  0  0
  8  9  2  0  0  0
 14 15  1  0  0  0
 14 19  2  0  0  0
 15 16  2  0  0  0
 16 17  1  0  0  0
 17 18  2  0  0  0
 18 19  1  0  0  0
  9 20  1  0  0  0
  9 10  1  0  0  0
 20 21  1  0  0  0
 20 25  2  0  0  0
 21 22  2  0  0  0
 22 23  1  0  0  0
 23 24  2  0  0  0
 24 25  1  0  0  0
M  END
> <minimizedAffinity>
-7.98833

$$$$
