CHEMBL597592


 40 44  0  0  0  0  0  0  0  0999 V2000
  -27.1596   -2.7707   -9.1477 N   0  0  0  0  0  0  0  0  0  0  0  0
  -26.9983   -2.0390  -10.3793 C   0  0  0  0  0  0  0  0  0  0  0  0
  -27.4381   -0.9030  -10.4511 O   0  0  0  0  0  0  0  0  0  0  0  0
  -26.2742   -2.7327  -11.3460 N   0  0  0  0  0  0  0  0  0  0  0  0
  -26.6601   -3.6299   -8.9968 H   0  0  0  0  0  0  0  0  0  0  0  0
  -26.2461   -3.7414  -11.3032 H   0  0  0  0  0  0  0  0  0  0  0  0
  -25.7500   -2.1125  -12.5250 C   0  0  0  0  0  0  0  0  0  0  0  0
  -26.5918   -1.7953  -13.6002 C   0  0  0  0  0  0  0  0  0  0  0  0
  -26.1071   -1.2123  -14.7694 C   0  0  0  0  0  0  0  0  0  0  0  0
  -24.7578   -0.9188  -14.8895 C   0  0  0  0  0  0  0  0  0  0  0  0
  -23.8903   -1.1944  -13.8301 C   0  0  0  0  0  0  0  0  0  0  0  0
  -24.3854   -1.7653  -12.6290 C   0  0  0  0  0  0  0  0  0  0  0  0
  -22.6238   -0.7121  -14.0687 O   0  0  0  0  0  0  0  0  0  0  0  0
  -22.3171    0.6140  -14.1095 C   0  0  0  0  0  0  0  0  0  0  0  0
  -22.9764    1.6580  -13.4657 C   0  0  0  0  0  0  0  0  0  0  0  0
  -22.6140    3.0061  -13.7077 C   0  0  0  0  0  0  0  0  0  0  0  0
  -21.5538    3.3369  -14.5537 C   0  0  0  0  0  0  0  0  0  0  0  0
  -20.7663    2.2873  -14.9446 C   0  0  0  0  0  0  0  0  0  0  0  0
  -19.4225    2.3163  -15.3058 N   0  0  0  0  0  0  0  0  0  0  0  0
  -18.9206    1.0099  -15.2088 C   0  0  0  0  0  0  0  0  0  0  0  0
  -17.7460    0.6897  -15.1730 O   0  0  0  0  0  0  0  0  0  0  0  0
  -20.0245    0.1631  -15.0230 N   0  0  0  0  0  0  0  0  0  0  0  0
  -21.1398    0.9612  -14.7455 C   0  0  0  0  0  0  0  0  0  0  0  0
  -18.8219    3.1236  -15.2472 H   0  0  0  0  0  0  0  0  0  0  0  0
  -19.9243   -0.8053  -14.7622 H   0  0  0  0  0  0  0  0  0  0  0  0
  -28.7383   -0.7496   -6.5806 C   0  0  0  0  0  0  0  0  0  0  0  0
  -27.8455   -0.8617   -7.6817 C   0  0  0  0  0  0  0  0  0  0  0  0
  -27.8320   -2.1846   -8.0449 C   0  0  0  0  0  0  0  0  0  0  0  0
  -28.6214   -2.8324   -7.0945 N   0  0  0  0  0  0  0  0  0  0  0  0
  -29.2839   -1.9399   -6.3086 N   0  0  0  0  0  0  0  0  0  0  0  0
  -28.7079   -4.2201   -6.8009 C   0  0  0  0  0  0  0  0  0  0  0  0
  -28.3558   -4.7096   -5.5354 C   0  0  0  0  0  0  0  0  0  0  0  0
  -28.5112   -6.0677   -5.2488 C   0  0  0  0  0  0  0  0  0  0  0  0
  -29.0031   -6.9379   -6.2203 C   0  0  0  0  0  0  0  0  0  0  0  0
  -29.3693   -6.4524   -7.4759 C   0  0  0  0  0  0  0  0  0  0  0  0
  -29.2390   -5.0931   -7.7622 C   0  0  0  0  0  0  0  0  0  0  0  0
  -30.4932    0.2803   -5.0398 C   0  0  0  0  0  0  0  0  0  0  0  0
  -29.1415    0.4830   -5.7556 C   0  0  0  0  0  0  0  0  0  0  0  0
  -29.2777    1.7331   -6.6567 C   0  0  0  0  0  0  0  0  0  0  0  0
  -28.0804    0.7890   -4.6754 C   0  0  0  0  0  0  0  0  0  0  0  0
 37 38  1  0  0  0
 38 39  1  0  0  0
 38 40  1  0  0  0
 38 26  1  0  0  0
 26 27  1  0  0  0
 26 30  2  0  0  0
 27 28  2  0  0  0
 28  1  1  0  0  0
 28 29  1  0  0  0
  1  2  1  0  0  0
  1  5  1  0  0  0
  2  3  2  0  0  0
  2  4  1  0  0  0
  4  7  1  0  0  0
  4  6  1  0  0  0
  7  8  1  0  0  0
  7 12  2  0  0  0
  8  9  2  0  0  0
  9 10  1  0  0  0
 10 11  2  0  0  0
 11 13  1  0  0  0
 11 12  1  0  0  0
 13 14  1  0  0  0
 14 15  1  0  0  0
 14 23  2  0  0  0
 15 16  2  0  0  0
 16 17  1  0  0  0
 17 18  2  0  0  0
 18 19  1  0  0  0
 18 23  1  0  0  0
 19 20  1  0  0  0
 19 24  1  0  0  0
 20 21  2  0  0  0
 20 22  1  0  0  0
 22 23  1  0  0  0
 22 25  1  0  0  0
 29 31  1  0  0  0
 29 30  1  0  0  0
 31 32  1  0  0  0
 31 36  2  0  0  0
 32 33  2  0  0  0
 33 34  1  0  0  0
 34 35  2  0  0  0
 35 36  1  0  0  0
M  END
> <minimizedAffinity>
-10.96198

$$$$
