CHEMBL3937184


 37 41  0  0  0  0  0  0  0  0999 V2000
  -29.4972   -8.7133   -5.0867 C   0  0  0  0  0  0  0  0  0  0  0  0
  -29.0029   -9.0155   -3.8117 C   0  0  0  0  0  0  0  0  0  0  0  0
  -28.4194  -10.2580   -3.5380 C   0  0  0  0  0  0  0  0  0  0  0  0
  -28.3393  -11.2260   -4.5346 C   0  0  0  0  0  0  0  0  0  0  0  0
  -28.9446  -10.9682   -5.7667 C   0  0  0  0  0  0  0  0  0  0  0  0
  -28.9805  -11.9050   -6.7254 F   0  0  0  0  0  0  0  0  0  0  0  0
  -29.4970   -9.7187   -6.0548 C   0  0  0  0  0  0  0  0  0  0  0  0
  -28.0641   -6.1930   -5.0686 O   0  0  0  0  0  0  0  0  0  0  0  0
  -29.2200   -6.2710   -5.4637 C   0  0  0  0  0  0  0  0  0  0  0  0
  -29.9723   -7.4337   -5.4626 N   0  0  0  0  0  0  0  0  0  0  0  0
  -29.9165   -5.2069   -6.0141 N   0  0  0  0  0  0  0  0  0  0  0  0
  -30.8321   -7.4029   -5.9918 H   0  0  0  0  0  0  0  0  0  0  0  0
  -30.9231   -5.1955   -5.9108 H   0  0  0  0  0  0  0  0  0  0  0  0
  -29.3201   -3.9876   -6.4204 C   0  0  0  0  0  0  0  0  0  0  0  0
  -29.4098   -2.8195   -5.6584 C   0  0  0  0  0  0  0  0  0  0  0  0
  -28.8101   -1.6086   -6.0490 C   0  0  0  0  0  0  0  0  0  0  0  0
  -28.0821   -1.6046   -7.2466 C   0  0  0  0  0  0  0  0  0  0  0  0
  -27.9615   -2.7679   -8.0174 C   0  0  0  0  0  0  0  0  0  0  0  0
  -28.5723   -3.9476   -7.5949 C   0  0  0  0  0  0  0  0  0  0  0  0
  -28.4391   -5.0569   -8.3397 F   0  0  0  0  0  0  0  0  0  0  0  0
  -28.9377   -0.4110   -5.1393 C   0  0  0  0  0  0  0  0  0  0  0  0
  -29.9278    0.6673   -5.5341 C   0  0  0  0  0  0  0  0  0  0  0  0
  -28.4608    0.9678   -5.5110 C   0  0  0  0  0  0  0  0  0  0  0  0
  -27.7033  -12.3975   -4.1927 O   0  0  0  0  0  0  0  0  0  0  0  0
  -26.4623  -12.3522   -3.5930 C   0  0  0  0  0  0  0  0  0  0  0  0
  -26.2479  -12.3735   -2.2194 C   0  0  0  0  0  0  0  0  0  0  0  0
  -24.9532  -12.2355   -1.7715 C   0  0  0  0  0  0  0  0  0  0  0  0
  -23.8910  -12.1497   -2.5916 N   0  0  0  0  0  0  0  0  0  0  0  0
  -24.0915  -12.2077   -3.9183 C   0  0  0  0  0  0  0  0  0  0  0  0
  -25.3660  -12.3163   -4.4594 C   0  0  0  0  0  0  0  0  0  0  0  0
  -22.9907  -12.1533   -4.7898 N   0  0  0  0  0  0  0  0  0  0  0  0
  -22.5735  -11.0017   -5.4253 C   0  0  0  0  0  0  0  0  0  0  0  0
  -23.0736   -9.8877   -5.3621 O   0  0  0  0  0  0  0  0  0  0  0  0
  -22.4766  -13.0071   -4.9438 H   0  0  0  0  0  0  0  0  0  0  0  0
  -21.3480  -11.1869   -6.2733 C   0  0  0  0  0  0  0  0  0  0  0  0
  -21.0385  -10.1578   -7.3374 C   0  0  0  0  0  0  0  0  0  0  0  0
  -21.4999  -11.5286   -7.7376 C   0  0  0  0  0  0  0  0  0  0  0  0
  8  9  2  0  0  0
  9 10  1  0  0  0
  9 11  1  0  0  0
 10  1  1  0  0  0
 10 12  1  0  0  0
  1  2  1  0  0  0
  1  7  2  0  0  0
  2  3  2  0  0  0
  3  4  1  0  0  0
  4 24  1  0  0  0
  4  5  2  0  0  0
 24 25  1  0  0  0
 25 26  1  0  0  0
 25 30  2  0  0  0
 26 27  2  0  0  0
 27 28  1  0  0  0
 28 29  2  0  0  0
 29 31  1  0  0  0
 29 30  1  0  0  0
 31 32  1  0  0  0
 31 34  1  0  0  0
 32 33  2  0  0  0
 32 35  1  0  0  0
 35 36  1  0  0  0
 35 37  1  0  0  0
 36 37  1  0  0  0
  5  6  1  0  0  0
  5  7  1  0  0  0
 11 14  1  0  0  0
 11 13  1  0  0  0
 14 15  1  0  0  0
 14 19  2  0  0  0
 15 16  2  0  0  0
 16 21  1  0  0  0
 16 17  1  0  0  0
 21 22  1  0  0  0
 21 23  1  0  0  0
 22 23  1  0  0  0
 17 18  2  0  0  0
 18 19  1  0  0  0
 19 20  1  0  0  0
M  END
> <minimizedAffinity>
-8.72338

$$$$
