CHEMBL237570


 34 38  0  0  0  0  0  0  0  0999 V2000
  -28.1149   -3.0178   -8.0286 C   0  0  0  0  0  0  0  0  0  0  0  0
  -28.6310   -2.4791   -6.8551 C   0  0  0  0  0  0  0  0  0  0  0  0
  -28.8724   -3.4629   -5.9221 N   0  0  0  0  0  0  0  0  0  0  0  0
  -28.5776   -4.6193   -6.4847 C   0  0  0  0  0  0  0  0  0  0  0  0
  -28.1833   -4.3978   -7.8000 N   0  0  0  0  0  0  0  0  0  0  0  0
  -27.9108   -5.4212   -8.7863 C   0  0  0  0  0  0  0  0  0  0  0  0
  -24.5253   -0.5067  -12.8861 C   0  0  0  0  0  0  0  0  0  0  0  0
  -23.7016   -1.1547  -11.9671 C   0  0  0  0  0  0  0  0  0  0  0  0
  -24.2598   -1.8187  -10.8758 C   0  0  0  0  0  0  0  0  0  0  0  0
  -25.6443   -1.8167  -10.6702 C   0  0  0  0  0  0  0  0  0  0  0  0
  -26.1999   -2.4826   -9.5708 C   0  0  0  0  0  0  0  0  0  0  0  0
  -27.5539   -2.3764   -9.2414 C   0  0  0  0  0  0  0  0  0  0  0  0
  -28.3744   -1.6544  -10.1209 C   0  0  0  0  0  0  0  0  0  0  0  0
  -27.8588   -1.0837  -11.2931 C   0  0  0  0  0  0  0  0  0  0  0  0
  -26.4833   -1.1315  -11.5658 C   0  0  0  0  0  0  0  0  0  0  0  0
  -25.9105   -0.5097  -12.6893 C   0  0  0  0  0  0  0  0  0  0  0  0
  -22.8017    0.7491  -13.9238 C   0  0  0  0  0  0  0  0  0  0  0  0
  -24.0984    0.1652  -13.9983 O   0  0  0  0  0  0  0  0  0  0  0  0
  -28.7186   -5.9409   -5.8187 C   0  0  0  0  0  0  0  0  0  0  0  0
  -27.8297   -6.3182   -4.7942 C   0  0  0  0  0  0  0  0  0  0  0  0
  -27.8266   -7.6088   -4.2571 C   0  0  0  0  0  0  0  0  0  0  0  0
  -28.7832   -8.5360   -4.6571 C   0  0  0  0  0  0  0  0  0  0  0  0
  -29.7605   -8.1380   -5.5748 C   0  0  0  0  0  0  0  0  0  0  0  0
  -29.7277   -6.8613   -6.1799 C   0  0  0  0  0  0  0  0  0  0  0  0
  -30.7921   -6.5370   -7.1957 C   0  0  0  0  0  0  0  0  0  0  0  0
  -28.7899  -10.2007   -3.9479 S   0  0  0  0  0  0  0  0  0  0  0  0
  -29.0537  -11.1410   -5.4728 C   0  0  0  0  0  0  0  0  0  0  0  0
  -27.3226  -10.4957   -3.4673 O   0  0  0  0  0  0  0  0  0  0  0  0
  -28.8859   -1.0712   -6.5524 C   0  0  0  0  0  0  0  0  0  0  0  0
  -28.0072   -0.0537   -6.9367 C   0  0  0  0  0  0  0  0  0  0  0  0
  -28.2689    1.2481   -6.5394 C   0  0  0  0  0  0  0  0  0  0  0  0
  -29.3597    1.6096   -5.8357 N   0  0  0  0  0  0  0  0  0  0  0  0
  -30.2271    0.6233   -5.5205 C   0  0  0  0  0  0  0  0  0  0  0  0
  -30.0374   -0.7107   -5.8491 C   0  0  0  0  0  0  0  0  0  0  0  0
 17 18  1  0  0  0
 18  7  1  0  0  0
  7  8  1  0  0  0
  7 16  2  0  0  0
  8  9  2  0  0  0
  9 10  1  0  0  0
 10 11  1  0  0  0
 10 15  2  0  0  0
 11 12  2  0  0  0
 12  1  1  0  0  0
 12 13  1  0  0  0
  1  2  2  0  0  0
  1  5  1  0  0  0
  2 29  1  0  0  0
  2  3  1  0  0  0
 29 30  1  0  0  0
 29 34  2  0  0  0
 30 31  2  0  0  0
 31 32  1  0  0  0
 32 33  2  0  0  0
 33 34  1  0  0  0
  3  4  2  0  0  0
  4 19  1  0  0  0
  4  5  1  0  0  0
 19 20  1  0  0  0
 19 24  2  0  0  0
 20 21  2  0  0  0
 21 22  1  0  0  0
 22 26  1  0  0  0
 22 23  2  0  0  0
 26 27  1  0  0  0
 26 28  1  0  0  0
 23 24  1  0  0  0
 24 25  1  0  0  0
  5  6  1  0  0  0
 13 14  2  0  0  0
 14 15  1  0  0  0
 15 16  1  0  0  0
M  CHG 1  26   1
M  CHG 1  28  -1
M  END
> <minimizedAffinity>
-5.85995

$$$$
