CHEMBL4457815


 38 41  0  0  0  0  0  0  0  0999 V2000
  -28.7667   -2.9227   -6.0275 C   0  0  0  0  0  0  0  0  0  0  0  0
  -27.9129   -3.3840   -5.0005 C   0  0  0  0  0  0  0  0  0  0  0  0
  -28.2765   -4.4626   -4.1964 C   0  0  0  0  0  0  0  0  0  0  0  0
  -29.5059   -5.0898   -4.4205 C   0  0  0  0  0  0  0  0  0  0  0  0
  -30.3904   -4.5724   -5.3688 C   0  0  0  0  0  0  0  0  0  0  0  0
  -30.0447   -3.4776   -6.1488 C   0  0  0  0  0  0  0  0  0  0  0  0
  -27.4128   -1.3028   -8.9589 N   0  0  0  0  0  0  0  0  0  0  0  0
  -27.7747   -2.3649   -8.1514 C   0  0  0  0  0  0  0  0  0  0  0  0
  -27.6376   -3.5500   -8.4610 O   0  0  0  0  0  0  0  0  0  0  0  0
  -28.3243   -1.9492   -6.9463 N   0  0  0  0  0  0  0  0  0  0  0  0
  -27.1269   -0.4641   -8.4730 H   0  0  0  0  0  0  0  0  0  0  0  0
  -28.8944   -1.1166   -7.0301 H   0  0  0  0  0  0  0  0  0  0  0  0
  -25.1655   -1.8273  -11.8756 C   0  0  0  0  0  0  0  0  0  0  0  0
  -26.0861   -1.8973  -12.9247 C   0  0  0  0  0  0  0  0  0  0  0  0
  -27.4411   -1.7125  -12.6707 C   0  0  0  0  0  0  0  0  0  0  0  0
  -27.8849   -1.4851  -11.3713 C   0  0  0  0  0  0  0  0  0  0  0  0
  -26.9835   -1.4558  -10.3000 C   0  0  0  0  0  0  0  0  0  0  0  0
  -25.6185   -1.5848  -10.5699 C   0  0  0  0  0  0  0  0  0  0  0  0
  -23.0298   -0.8086  -12.1055 C   0  0  0  0  0  0  0  0  0  0  0  0
  -23.8119   -1.9950  -12.0032 O   0  0  0  0  0  0  0  0  0  0  0  0
  -29.8365   -6.2897   -3.6284 C   0  0  0  0  0  0  0  0  0  0  0  0
  -30.9686   -6.4404   -3.1821 O   0  0  0  0  0  0  0  0  0  0  0  0
  -28.7749   -7.1783   -3.4983 N   0  0  0  0  0  0  0  0  0  0  0  0
  -27.8513   -6.8754   -3.8013 H   0  0  0  0  0  0  0  0  0  0  0  0
  -29.0630   -8.5107   -3.6154 N   0  0  0  0  0  0  0  0  0  0  0  0
  -28.1628   -9.2455   -4.1864 C   0  0  0  0  0  0  0  0  0  0  0  0
  -26.7150   -8.9030   -4.5536 C   0  0  0  0  0  0  0  0  0  0  0  0
  -26.0420   -8.0290   -4.0525 O   0  0  0  0  0  0  0  0  0  0  0  0
  -26.4234   -9.7001   -5.6393 N   0  0  0  0  0  0  0  0  0  0  0  0
  -27.5666  -10.3930   -6.0248 C   0  0  0  0  0  0  0  0  0  0  0  0
  -27.8868  -10.8085   -7.2978 C   0  0  0  0  0  0  0  0  0  0  0  0
  -29.1935  -11.2732   -7.5079 C   0  0  0  0  0  0  0  0  0  0  0  0
  -30.1064  -11.4177   -6.4387 C   0  0  0  0  0  0  0  0  0  0  0  0
  -29.7792  -10.9482   -5.1693 C   0  0  0  0  0  0  0  0  0  0  0  0
  -28.5308  -10.3831   -5.0229 C   0  0  0  0  0  0  0  0  0  0  0  0
  -25.5494   -9.6524   -6.1426 H   0  0  0  0  0  0  0  0  0  0  0  0
  -31.3813  -11.9011   -6.5540 O   0  0  0  0  0  0  0  0  0  0  0  0
  -32.3648  -10.9600   -6.9621 C   0  0  0  0  0  0  0  0  0  0  0  0
 19 20  1  0  0  0
 20 13  1  0  0  0
 13 14  1  0  0  0
 13 18  2  0  0  0
 14 15  2  0  0  0
 15 16  1  0  0  0
 16 17  2  0  0  0
 17  7  1  0  0  0
 17 18  1  0  0  0
  7  8  1  0  0  0
  7 11  1  0  0  0
  8  9  2  0  0  0
  8 10  1  0  0  0
 10  1  1  0  0  0
 10 12  1  0  0  0
  1  2  1  0  0  0
  1  6  2  0  0  0
  2  3  2  0  0  0
  3  4  1  0  0  0
  4 21  1  0  0  0
  4  5  2  0  0  0
 21 22  2  0  0  0
 21 23  1  0  0  0
 23 25  1  0  0  0
 23 24  1  0  0  0
 25 26  2  0  0  0
 26 27  1  0  0  0
 26 35  1  0  0  0
 27 28  2  0  0  0
 27 29  1  0  0  0
 29 30  1  0  0  0
 29 36  1  0  0  0
 30 31  1  0  0  0
 30 35  2  0  0  0
 31 32  2  0  0  0
 32 33  1  0  0  0
 33 37  1  0  0  0
 33 34  2  0  0  0
 37 38  1  0  0  0
 34 35  1  0  0  0
  5  6  1  0  0  0
M  END
> <minimizedAffinity>
-9.13331

$$$$
