CHEMBL420609


 30 33  0  0  0  0  0  0  0  0999 V2000
  -29.8447   -7.4153   -7.2158 C   0  0  0  0  0  0  0  0  0  0  0  0
  -31.1150   -7.7116   -7.6554 N   0  0  0  0  0  0  0  0  0  0  0  0
  -31.4400   -8.9873   -7.2894 C   0  0  0  0  0  0  0  0  0  0  0  0
  -30.3740   -9.5346   -6.6044 C   0  0  0  0  0  0  0  0  0  0  0  0
  -29.3326   -8.5458   -6.5802 C   0  0  0  0  0  0  0  0  0  0  0  0
  -30.4670  -10.8886   -5.9667 C   0  0  0  0  0  0  0  0  0  0  0  0
  -31.6923  -11.6826   -6.4663 C   0  0  0  0  0  0  0  0  0  0  0  0
  -32.9537  -10.8098   -6.5686 C   0  0  0  0  0  0  0  0  0  0  0  0
  -32.7534   -9.6413   -7.5496 C   0  0  0  0  0  0  0  0  0  0  0  0
  -31.7368   -7.0640   -8.1192 H   0  0  0  0  0  0  0  0  0  0  0  0
  -28.3506   -1.0169   -6.2835 C   0  0  0  0  0  0  0  0  0  0  0  0
  -27.9420   -1.6777   -7.4578 C   0  0  0  0  0  0  0  0  0  0  0  0
  -28.2824   -3.0264   -7.6939 C   0  0  0  0  0  0  0  0  0  0  0  0
  -29.0377   -3.6973   -6.7460 C   0  0  0  0  0  0  0  0  0  0  0  0
  -29.4549   -3.0147   -5.5996 C   0  0  0  0  0  0  0  0  0  0  0  0
  -29.1300   -1.6962   -5.3437 C   0  0  0  0  0  0  0  0  0  0  0  0
  -30.2290   -3.8386   -4.7925 N   0  0  0  0  0  0  0  0  0  0  0  0
  -30.3824   -5.0999   -5.3443 C   0  0  0  0  0  0  0  0  0  0  0  0
  -31.0628   -5.9967   -4.8815 O   0  0  0  0  0  0  0  0  0  0  0  0
  -29.5707   -5.0702   -6.6221 C   0  0  0  0  0  0  0  0  0  0  0  0
  -29.3448   -6.1054   -7.4525 C   0  0  0  0  0  0  0  0  0  0  0  0
  -30.6665   -3.5730   -3.9237 H   0  0  0  0  0  0  0  0  0  0  0  0
  -28.8540    1.3022   -6.5198 C   0  0  0  0  0  0  0  0  0  0  0  0
  -28.0610    0.2756   -5.9396 O   0  0  0  0  0  0  0  0  0  0  0  0
  -27.9884   -8.6530   -5.9125 C   0  0  0  0  0  0  0  0  0  0  0  0
  -27.8538   -7.7656   -4.6780 C   0  0  0  0  0  0  0  0  0  0  0  0
  -28.6959   -8.2668   -3.5317 C   0  0  0  0  0  0  0  0  0  0  0  0
  -28.8848   -9.4366   -3.2425 O   0  0  0  0  0  0  0  0  0  0  0  0
  -29.2447   -7.2511   -2.8208 O   0  0  0  0  0  0  0  0  0  0  0  0
  -29.0070   -6.3659   -3.1568 H   0  0  0  0  0  0  0  0  0  0  0  0
 23 24  1  0  0  0
 24 11  1  0  0  0
 11 12  1  0  0  0
 11 16  2  0  0  0
 12 13  2  0  0  0
 13 14  1  0  0  0
 14 15  2  0  0  0
 14 20  1  0  0  0
 15 16  1  0  0  0
 15 17  1  0  0  0
 17 18  1  0  0  0
 17 22  1  0  0  0
 18 19  2  0  0  0
 18 20  1  0  0  0
 20 21  2  0  0  0
 21  1  1  0  0  0
  1  2  1  0  0  0
  1  5  2  0  0  0
  2  3  1  0  0  0
  2 10  1  0  0  0
  3  4  2  0  0  0
  3  9  1  0  0  0
  4  5  1  0  0  0
  4  6  1  0  0  0
  5 25  1  0  0  0
 25 26  1  0  0  0
 26 27  1  0  0  0
 27 28  2  0  0  0
 27 29  1  0  0  0
 29 30  1  0  0  0
  6  7  1  0  0  0
  7  8  1  0  0  0
  8  9  1  0  0  0
M  END
> <minimizedAffinity>
-8.25227

$$$$
