CHEMBL372174


 32 35  0  0  0  0  0  0  0  0999 V2000
  -17.1185    2.0330  -15.2079 C   0  0  0  0  0  0  0  0  0  0  0  0
  -17.6022    0.7350  -15.3781 C   0  0  0  0  0  0  0  0  0  0  0  0
  -18.9691    0.4606  -15.3924 C   0  0  0  0  0  0  0  0  0  0  0  0
  -19.9123    1.4455  -15.1026 C   0  0  0  0  0  0  0  0  0  0  0  0
  -19.4445    2.7327  -14.8364 C   0  0  0  0  0  0  0  0  0  0  0  0
  -18.0737    3.0275  -14.9304 C   0  0  0  0  0  0  0  0  0  0  0  0
  -15.8518    4.1086  -17.2359 C   0  0  0  0  0  0  0  0  0  0  0  0
  -15.1670    3.2369  -16.2294 C   0  0  0  0  0  0  0  0  0  0  0  0
  -13.4644    3.3934  -16.1203 S   0  0  0  0  0  0  0  0  0  0  0  0
  -13.3615    2.2742  -14.8572 C   0  0  0  0  0  0  0  0  0  0  0  0
  -12.1579    2.0236  -14.3162 N   0  0  0  0  0  0  0  0  0  0  0  0
  -12.2160    1.1251  -13.3404 C   0  0  0  0  0  0  0  0  0  0  0  0
  -13.3007    0.4783  -12.9049 N   0  0  0  0  0  0  0  0  0  0  0  0
  -14.4918    0.7412  -13.4779 C   0  0  0  0  0  0  0  0  0  0  0  0
  -15.5355   -0.0144  -12.9657 N   0  0  0  0  0  0  0  0  0  0  0  0
  -14.5817    1.7121  -14.5106 C   0  0  0  0  0  0  0  0  0  0  0  0
  -15.6725    2.3023  -15.3283 C   0  0  0  0  0  0  0  0  0  0  0  0
  -15.1807   -0.7538  -12.3702 H   0  0  0  0  0  0  0  0  0  0  0  0
  -16.2435   -0.2873  -13.6342 H   0  0  0  0  0  0  0  0  0  0  0  0
  -21.3074    1.2053  -15.0797 N   0  0  0  0  0  0  0  0  0  0  0  0
  -21.9957    0.6152  -14.0407 C   0  0  0  0  0  0  0  0  0  0  0  0
  -21.5015    0.2756  -12.9709 O   0  0  0  0  0  0  0  0  0  0  0  0
  -23.3323    0.3753  -14.3523 N   0  0  0  0  0  0  0  0  0  0  0  0
  -21.8511    1.5570  -15.8531 H   0  0  0  0  0  0  0  0  0  0  0  0
  -23.4876    0.1250  -15.3180 H   0  0  0  0  0  0  0  0  0  0  0  0
  -24.1288   -0.2995  -13.3936 C   0  0  0  0  0  0  0  0  0  0  0  0
  -24.9331   -1.3852  -13.7659 C   0  0  0  0  0  0  0  0  0  0  0  0
  -25.8544   -1.9213  -12.8647 C   0  0  0  0  0  0  0  0  0  0  0  0
  -25.9636   -1.3707  -11.5926 C   0  0  0  0  0  0  0  0  0  0  0  0
  -27.1606   -1.9638  -10.5091 Cl  0  0  0  0  0  0  0  0  0  0  0  0
  -25.1283   -0.3230  -11.1993 C   0  0  0  0  0  0  0  0  0  0  0  0
  -24.1877    0.1991  -12.0935 C   0  0  0  0  0  0  0  0  0  0  0  0
  7  8  1  0  0  0
  8  9  1  0  0  0
  8 17  2  0  0  0
  9 10  1  0  0  0
 10 11  1  0  0  0
 10 16  2  0  0  0
 11 12  2  0  0  0
 12 13  1  0  0  0
 13 14  2  0  0  0
 14 15  1  0  0  0
 14 16  1  0  0  0
 15 18  1  0  0  0
 15 19  1  0  0  0
 16 17  1  0  0  0
 17  1  1  0  0  0
  1  2  1  0  0  0
  1  6  2  0  0  0
  2  3  2  0  0  0
  3  4  1  0  0  0
  4 20  1  0  0  0
  4  5  2  0  0  0
 20 21  1  0  0  0
 20 24  1  0  0  0
 21 22  2  0  0  0
 21 23  1  0  0  0
 23 26  1  0  0  0
 23 25  1  0  0  0
 26 27  1  0  0  0
 26 32  2  0  0  0
 27 28  2  0  0  0
 28 29  1  0  0  0
 29 30  1  0  0  0
 29 31  2  0  0  0
 31 32  1  0  0  0
  5  6  1  0  0  0
M  END
> <minimizedAffinity>
-9.21714

$$$$
