CHEMBL1076203


 50 55  0  0  0  0  0  0  0  0999 V2000
  -22.3578   -0.3147  -13.2705 C   0  0  0  0  0  0  0  0  0  0  0  0
  -22.7190    0.3626  -12.1866 N   0  0  0  0  0  0  0  0  0  0  0  0
  -22.7678    1.6511  -12.6601 C   0  0  0  0  0  0  0  0  0  0  0  0
  -23.4786    2.7621  -12.1927 C   0  0  0  0  0  0  0  0  0  0  0  0
  -23.4822    3.9232  -12.9794 C   0  0  0  0  0  0  0  0  0  0  0  0
  -22.7469    4.0025  -14.1651 C   0  0  0  0  0  0  0  0  0  0  0  0
  -21.9716    2.9306  -14.6047 C   0  0  0  0  0  0  0  0  0  0  0  0
  -22.0323    1.7661  -13.8345 C   0  0  0  0  0  0  0  0  0  0  0  0
  -21.4553    0.5072  -13.9502 N   0  0  0  0  0  0  0  0  0  0  0  0
  -20.1983    0.2293  -14.5510 C   0  0  0  0  0  0  0  0  0  0  0  0
  -20.0729   -0.7380  -15.4561 N   0  0  0  0  0  0  0  0  0  0  0  0
  -18.8338   -0.8427  -15.9467 C   0  0  0  0  0  0  0  0  0  0  0  0
  -17.7766   -0.0926  -15.6273 N   0  0  0  0  0  0  0  0  0  0  0  0
  -17.9975    0.8186  -14.6926 C   0  0  0  0  0  0  0  0  0  0  0  0
  -19.1721    0.9697  -14.1051 N   0  0  0  0  0  0  0  0  0  0  0  0
  -17.0182    1.7159  -14.2860 N   0  0  0  0  0  0  0  0  0  0  0  0
  -17.3692    2.2054  -13.4681 H   0  0  0  0  0  0  0  0  0  0  0  0
  -15.6681    1.1894  -14.1348 C   0  0  0  0  0  0  0  0  0  0  0  0
  -15.6692    0.1819  -12.9760 C   0  0  0  0  0  0  0  0  0  0  0  0
  -15.1709   -1.2153  -13.3818 C   0  0  0  0  0  0  0  0  0  0  0  0
  -15.9428   -2.3424  -12.8289 N   0  0  0  0  0  0  0  0  0  0  0  0
  -15.8206   -3.5716  -13.6397 C   0  0  0  0  0  0  0  0  0  0  0  0
  -16.5501   -4.7843  -13.0118 C   0  0  0  0  0  0  0  0  0  0  0  0
  -16.1805   -5.0861  -11.6166 N   0  0  0  0  0  0  0  0  0  0  0  0
  -14.8594   -5.7022  -11.5262 C   0  0  0  0  0  0  0  0  0  0  0  0
  -16.2648   -3.8437  -10.8242 C   0  0  0  0  0  0  0  0  0  0  0  0
  -15.5280   -2.6257  -11.4365 C   0  0  0  0  0  0  0  0  0  0  0  0
  -23.3433   -0.9845  -13.9388 N   0  0  0  0  0  0  0  0  0  0  0  0
  -23.4794   -0.5338  -14.8479 H   0  0  0  0  0  0  0  0  0  0  0  0
  -25.3957   -1.2914  -15.9363 C   0  0  0  0  0  0  0  0  0  0  0  0
  -25.6653   -1.4468  -14.4602 C   0  0  0  0  0  0  0  0  0  0  0  0
  -26.9851   -1.6669  -14.0335 C   0  0  0  0  0  0  0  0  0  0  0  0
  -27.2654   -1.7901  -12.6731 C   0  0  0  0  0  0  0  0  0  0  0  0
  -26.2328   -1.7063  -11.7313 C   0  0  0  0  0  0  0  0  0  0  0  0
  -24.9119   -1.5251  -12.1496 C   0  0  0  0  0  0  0  0  0  0  0  0
  -24.6213   -1.3867  -13.5013 C   0  0  0  0  0  0  0  0  0  0  0  0
  -26.5769   -1.8158  -10.2882 C   0  0  0  0  0  0  0  0  0  0  0  0
  -25.7507   -1.4163   -9.4776 O   0  0  0  0  0  0  0  0  0  0  0  0
  -27.7930   -2.4214  -10.0051 N   0  0  0  0  0  0  0  0  0  0  0  0
  -28.2711   -2.8899  -10.7627 H   0  0  0  0  0  0  0  0  0  0  0  0
  -28.3282   -2.6228   -8.7080 C   0  0  0  0  0  0  0  0  0  0  0  0
  -29.1084   -3.7268   -8.3773 C   0  0  0  0  0  0  0  0  0  0  0  0
  -29.6560   -3.8586   -7.1008 C   0  0  0  0  0  0  0  0  0  0  0  0
  -29.4330   -2.8752   -6.1397 C   0  0  0  0  0  0  0  0  0  0  0  0
  -28.6365   -1.7624   -6.4427 C   0  0  0  0  0  0  0  0  0  0  0  0
  -28.0633   -1.6584   -7.7256 C   0  0  0  0  0  0  0  0  0  0  0  0
  -28.4239   -0.6734   -5.4205 C   0  0  0  0  0  0  0  0  0  0  0  0
  -29.1531    0.4526   -5.6588 F   0  0  0  0  0  0  0  0  0  0  0  0
  -28.7525   -1.0688   -4.1564 F   0  0  0  0  0  0  0  0  0  0  0  0
  -27.1253   -0.2671   -5.3565 F   0  0  0  0  0  0  0  0  0  0  0  0
 30 31  1  0  0  0
 31 32  1  0  0  0
 31 36  2  0  0  0
 32 33  2  0  0  0
 33 34  1  0  0  0
 34 37  1  0  0  0
 34 35  2  0  0  0
 37 38  2  0  0  0
 37 39  1  0  0  0
 39 41  1  0  0  0
 39 40  1  0  0  0
 41 42  1  0  0  0
 41 46  2  0  0  0
 42 43  2  0  0  0
 43 44  1  0  0  0
 44 45  2  0  0  0
 45 47  1  0  0  0
 45 46  1  0  0  0
 47 48  1  0  0  0
 47 49  1  0  0  0
 47 50  1  0  0  0
 35 36  1  0  0  0
 36 28  1  0  0  0
 28  1  1  0  0  0
 28 29  1  0  0  0
  1  2  2  0  0  0
  1  9  1  0  0  0
  2  3  1  0  0  0
  3  4  1  0  0  0
  3  8  2  0  0  0
  4  5  2  0  0  0
  5  6  1  0  0  0
  6  7  2  0  0  0
  7  8  1  0  0  0
  8  9  1  0  0  0
  9 10  1  0  0  0
 10 11  1  0  0  0
 10 15  2  0  0  0
 11 12  2  0  0  0
 12 13  1  0  0  0
 13 14  2  0  0  0
 14 16  1  0  0  0
 14 15  1  0  0  0
 16 18  1  0  0  0
 16 17  1  0  0  0
 18 19  1  0  0  0
 19 20  1  0  0  0
 20 21  1  0  0  0
 21 22  1  0  0  0
 21 27  1  0  0  0
 22 23  1  0  0  0
 23 24  1  0  0  0
 24 25  1  0  0  0
 24 26  1  0  0  0
 26 27  1  0  0  0
M  END
> <minimizedAffinity>
-2.69328

$$$$
