CHEMBL3935457


 35 39  0  0  0  0  0  0  0  0999 V2000
  -28.1886   -2.2405   -8.6384 N   0  0  0  0  0  0  0  0  0  0  0  0
  -27.2822   -1.9568   -9.7429 C   0  0  0  0  0  0  0  0  0  0  0  0
  -26.0388   -1.4621   -9.4004 C   0  0  0  0  0  0  0  0  0  0  0  0
  -25.2219   -1.1323  -10.3641 C   0  0  0  0  0  0  0  0  0  0  0  0
  -25.6732   -1.1318  -11.6207 C   0  0  0  0  0  0  0  0  0  0  0  0
  -25.0058   -0.0410  -12.0118 N   0  0  0  0  0  0  0  0  0  0  0  0
  -23.9404   -0.2082  -12.6214 C   0  0  0  0  0  0  0  0  0  0  0  0
  -24.0023   -0.5189  -13.8682 C   0  0  0  0  0  0  0  0  0  0  0  0
  -25.4973   -1.1426  -13.9735 N   0  0  0  0  0  0  0  0  0  0  0  0
  -26.4112   -1.5477  -12.5221 C   0  0  0  0  0  0  0  0  0  0  0  0
  -27.5419   -2.0485  -11.2721 C   0  0  0  0  0  0  0  0  0  0  0  0
  -22.5662    0.4012  -14.4147 C   0  0  0  0  0  0  0  0  0  0  0  0
  -22.1444    1.9052  -14.2725 C   0  0  0  0  0  0  0  0  0  0  0  0
  -20.8508    2.2170  -14.5366 N   0  0  0  0  0  0  0  0  0  0  0  0
  -20.2778    1.0433  -14.8519 N   0  0  0  0  0  0  0  0  0  0  0  0
  -18.7991    0.9693  -15.0996 C   0  0  0  0  0  0  0  0  0  0  0  0
  -21.2955    0.0057  -14.8253 C   0  0  0  0  0  0  0  0  0  0  0  0
  -28.9874    0.6217   -6.2421 C   0  0  0  0  0  0  0  0  0  0  0  0
  -28.6400    0.0594   -5.0551 C   0  0  0  0  0  0  0  0  0  0  0  0
  -28.1296   -1.2411   -5.0270 C   0  0  0  0  0  0  0  0  0  0  0  0
  -27.9643   -1.9895   -6.2047 C   0  0  0  0  0  0  0  0  0  0  0  0
  -28.3029   -1.4711   -7.4491 C   0  0  0  0  0  0  0  0  0  0  0  0
  -28.7100   -0.1073   -7.4002 C   0  0  0  0  0  0  0  0  0  0  0  0
  -31.0274    1.8004   -6.4833 C   0  0  0  0  0  0  0  0  0  0  0  0
  -29.6108    1.8184   -6.4520 O   0  0  0  0  0  0  0  0  0  0  0  0
  -27.8484   -1.9061   -3.8622 O   0  0  0  0  0  0  0  0  0  0  0  0
  -28.8951   -2.7585   -3.4126 C   0  0  0  0  0  0  0  0  0  0  0  0
  -28.4030   -3.7568   -8.5439 C   0  0  0  0  0  0  0  0  0  0  0  0
  -29.7449   -4.2123   -7.9488 C   0  0  0  0  0  0  0  0  0  0  0  0
  -29.8467   -5.4786   -7.2518 N   0  0  0  0  0  0  0  0  0  0  0  0
  -29.3704   -6.1487   -7.8499 H   0  0  0  0  0  0  0  0  0  0  0  0
  -29.2313   -5.4559   -5.9563 C   0  0  0  0  0  0  0  0  0  0  0  0
  -30.2305   -6.1383   -5.0667 C   0  0  0  0  0  0  0  0  0  0  0  0
  -31.2835   -5.4516   -4.1902 C   0  0  0  0  0  0  0  0  0  0  0  0
  -30.3592   -6.4953   -3.5984 C   0  0  0  0  0  0  0  0  0  0  0  0
 24 25  1  0  0  0
 25 18  1  0  0  0
 18 19  1  0  0  0
 18 23  2  0  0  0
 19 20  2  0  0  0
 20 26  1  0  0  0
 20 21  1  0  0  0
 26 27  1  0  0  0
 21 22  2  0  0  0
 22  1  1  0  0  0
 22 23  1  0  0  0
  1 28  1  0  0  0
  1  2  1  0  0  0
 28 29  1  0  0  0
 29 30  1  0  0  0
 30 32  1  0  0  0
 30 31  1  0  0  0
 32 33  1  0  0  0
 33 34  1  0  0  0
 33 35  1  0  0  0
 34 35  1  0  0  0
  2  3  1  0  0  0
  2 11  2  0  0  0
  3  4  2  0  0  0
  4  5  1  0  0  0
  5  6  1  0  0  0
  5 10  2  0  0  0
  6  7  2  0  0  0
  7  8  1  0  0  0
  8 12  1  0  0  0
  8  9  2  0  0  0
 12 13  1  0  0  0
 12 17  2  0  0  0
 13 14  2  0  0  0
 14 15  1  0  0  0
 15 16  1  0  0  0
 15 17  1  0  0  0
  9 10  1  0  0  0
 10 11  1  0  0  0
M  END
> <minimizedAffinity>
-7.13015

$$$$
