CHEMBL2349006


 34 38  0  0  0  0  0  0  0  0999 V2000
  -27.1491   -1.4011  -10.9367 C   0  0  0  0  0  0  0  0  0  0  0  0
  -28.0158   -1.6525  -12.0049 C   0  0  0  0  0  0  0  0  0  0  0  0
  -27.5239   -1.9258  -13.2804 C   0  0  0  0  0  0  0  0  0  0  0  0
  -26.1545   -1.9374  -13.5082 C   0  0  0  0  0  0  0  0  0  0  0  0
  -25.2811   -1.6130  -12.4715 C   0  0  0  0  0  0  0  0  0  0  0  0
  -25.7664   -1.3450  -11.1823 C   0  0  0  0  0  0  0  0  0  0  0  0
  -27.3492   -3.4010   -8.7810 O   0  0  0  0  0  0  0  0  0  0  0  0
  -27.7012   -2.2333   -8.6532 C   0  0  0  0  0  0  0  0  0  0  0  0
  -27.6251   -1.2292   -9.6126 N   0  0  0  0  0  0  0  0  0  0  0  0
  -27.7530   -0.2749   -9.3020 H   0  0  0  0  0  0  0  0  0  0  0  0
  -28.1854   -1.8157   -7.3133 C   0  0  0  0  0  0  0  0  0  0  0  0
  -28.9667   -2.7206   -6.5746 C   0  0  0  0  0  0  0  0  0  0  0  0
  -29.4349   -2.3762   -5.3056 C   0  0  0  0  0  0  0  0  0  0  0  0
  -29.1342   -1.1219   -4.7799 C   0  0  0  0  0  0  0  0  0  0  0  0
  -28.3853   -0.2209   -5.5320 C   0  0  0  0  0  0  0  0  0  0  0  0
  -28.1161    0.9905   -5.0281 F   0  0  0  0  0  0  0  0  0  0  0  0
  -27.9100   -0.5492   -6.7965 C   0  0  0  0  0  0  0  0  0  0  0  0
  -23.8773   -1.6968  -12.6596 O   0  0  0  0  0  0  0  0  0  0  0  0
  -23.1608   -0.6177  -13.1817 C   0  0  0  0  0  0  0  0  0  0  0  0
  -23.8096    0.6410  -12.7407 C   0  0  0  0  0  0  0  0  0  0  0  0
  -23.2470    1.7838  -13.1588 C   0  0  0  0  0  0  0  0  0  0  0  0
  -22.0955    1.7254  -13.9745 C   0  0  0  0  0  0  0  0  0  0  0  0
  -21.3623    2.6774  -14.5013 N   0  0  0  0  0  0  0  0  0  0  0  0
  -20.3569    2.0441  -15.1713 C   0  0  0  0  0  0  0  0  0  0  0  0
  -20.4731    0.6778  -15.0494 C   0  0  0  0  0  0  0  0  0  0  0  0
  -21.5988    0.4746  -14.2920 N   0  0  0  0  0  0  0  0  0  0  0  0
  -22.1053   -0.7366  -13.9232 N   0  0  0  0  0  0  0  0  0  0  0  0
  -19.3667    2.7090  -15.8613 N   0  0  0  0  0  0  0  0  0  0  0  0
  -18.0266    2.5882  -15.5706 C   0  0  0  0  0  0  0  0  0  0  0  0
  -17.5097    1.9219  -14.6823 O   0  0  0  0  0  0  0  0  0  0  0  0
  -19.6636    3.3209  -16.6072 H   0  0  0  0  0  0  0  0  0  0  0  0
  -17.1430    3.4126  -16.4610 C   0  0  0  0  0  0  0  0  0  0  0  0
  -15.6583    3.1235  -16.5268 C   0  0  0  0  0  0  0  0  0  0  0  0
  -16.1468    4.3644  -15.8394 C   0  0  0  0  0  0  0  0  0  0  0  0
  7  8  2  0  0  0
  8  9  1  0  0  0
  8 11  1  0  0  0
  9  1  1  0  0  0
  9 10  1  0  0  0
  1  2  1  0  0  0
  1  6  2  0  0  0
  2  3  2  0  0  0
  3  4  1  0  0  0
  4  5  2  0  0  0
  5 18  1  0  0  0
  5  6  1  0  0  0
 18 19  1  0  0  0
 19 20  1  0  0  0
 19 27  2  0  0  0
 20 21  2  0  0  0
 21 22  1  0  0  0
 22 23  2  0  0  0
 22 26  1  0  0  0
 23 24  1  0  0  0
 24 28  1  0  0  0
 24 25  2  0  0  0
 28 29  1  0  0  0
 28 31  1  0  0  0
 29 30  2  0  0  0
 29 32  1  0  0  0
 32 33  1  0  0  0
 32 34  1  0  0  0
 33 34  1  0  0  0
 25 26  1  0  0  0
 26 27  1  0  0  0
 11 12  1  0  0  0
 11 17  2  0  0  0
 12 13  2  0  0  0
 13 14  1  0  0  0
 14 15  2  0  0  0
 15 16  1  0  0  0
 15 17  1  0  0  0
M  END
> <minimizedAffinity>
-10.56858

$$$$
