CHEMBL2112040


 36 41  0  0  0  0  0  0  0  0999 V2000
  -13.0346   -2.4068  -12.9772 C   0  0  0  0  0  0  0  0  0  0  0  0
  -11.7190   -1.9642  -13.1099 C   0  0  0  0  0  0  0  0  0  0  0  0
  -11.3963   -0.8560  -13.9022 C   0  0  0  0  0  0  0  0  0  0  0  0
  -12.4380   -0.2024  -14.5510 C   0  0  0  0  0  0  0  0  0  0  0  0
  -13.7853   -0.5965  -14.3622 C   0  0  0  0  0  0  0  0  0  0  0  0
  -14.0922   -1.6866  -13.5431 C   0  0  0  0  0  0  0  0  0  0  0  0
  -14.4587    0.3519  -15.0744 C   0  0  0  0  0  0  0  0  0  0  0  0
  -15.7871    0.8281  -14.9110 C   0  0  0  0  0  0  0  0  0  0  0  0
  -15.9972    2.2141  -15.3552 C   0  0  0  0  0  0  0  0  0  0  0  0
  -14.9513    2.8646  -16.0243 C   0  0  0  0  0  0  0  0  0  0  0  0
  -14.3081    1.8958  -16.7979 C   0  0  0  0  0  0  0  0  0  0  0  0
  -13.6885    0.9639  -16.0294 C   0  0  0  0  0  0  0  0  0  0  0  0
  -12.4392    0.9264  -15.3869 N   0  0  0  0  0  0  0  0  0  0  0  0
  -14.1450    2.3955  -18.1682 C   0  0  0  0  0  0  0  0  0  0  0  0
  -13.6653    3.7574  -17.7726 C   0  0  0  0  0  0  0  0  0  0  0  0
  -12.4177    4.1752  -18.2439 C   0  0  0  0  0  0  0  0  0  0  0  0
  -11.6510    4.9554  -17.4050 C   0  0  0  0  0  0  0  0  0  0  0  0
  -12.1810    5.3584  -16.1644 C   0  0  0  0  0  0  0  0  0  0  0  0
  -13.4757    4.9448  -15.7081 C   0  0  0  0  0  0  0  0  0  0  0  0
  -14.2643    4.0904  -16.4979 C   0  0  0  0  0  0  0  0  0  0  0  0
  -17.4259    2.3159  -15.5455 C   0  0  0  0  0  0  0  0  0  0  0  0
  -18.1352    3.1687  -16.0733 O   0  0  0  0  0  0  0  0  0  0  0  0
  -17.9458    1.0513  -15.1890 N   0  0  0  0  0  0  0  0  0  0  0  0
  -16.9924    0.0546  -14.7332 C   0  0  0  0  0  0  0  0  0  0  0  0
  -18.8303    0.7702  -15.5948 H   0  0  0  0  0  0  0  0  0  0  0  0
  -13.3268   -3.6894  -12.2576 C   0  0  0  0  0  0  0  0  0  0  0  0
  -13.6542   -3.3214  -10.9187 O   0  0  0  0  0  0  0  0  0  0  0  0
  -14.9188   -3.8110  -10.4758 C   0  0  0  0  0  0  0  0  0  0  0  0
  -15.9612   -2.7044  -10.5980 C   0  0  0  0  0  0  0  0  0  0  0  0
  -16.7020   -5.1154  -11.7673 C   0  0  0  0  0  0  0  0  0  0  0  0
  -15.2416   -5.0237  -11.3602 C   0  0  0  0  0  0  0  0  0  0  0  0
  -11.6274    2.1180  -15.1066 C   0  0  0  0  0  0  0  0  0  0  0  0
  -11.4334    2.5997  -13.6665 C   0  0  0  0  0  0  0  0  0  0  0  0
  -12.7455    2.7776  -12.9020 C   0  0  0  0  0  0  0  0  0  0  0  0
  -12.5154    2.5673  -11.5109 O   0  0  0  0  0  0  0  0  0  0  0  0
  -12.2551    1.6379  -11.3864 H   0  0  0  0  0  0  0  0  0  0  0  0
 30 31  1  0  0  0
 28 27  1  0  0  0
 28 29  1  0  0  0
 28 31  1  0  0  0
 27 26  1  0  0  0
 26  1  1  0  0  0
  1  2  1  0  0  0
  1  6  2  0  0  0
  2  3  2  0  0  0
  3  4  1  0  0  0
  4  5  2  0  0  0
  4 13  1  0  0  0
  5  6  1  0  0  0
  5  7  1  0  0  0
  7  8  1  0  0  0
  7 12  2  0  0  0
  8  9  2  0  0  0
  8 24  1  0  0  0
  9 10  1  0  0  0
  9 21  1  0  0  0
 10 11  2  0  0  0
 10 20  1  0  0  0
 11 12  1  0  0  0
 11 14  1  0  0  0
 12 13  1  0  0  0
 13 32  1  0  0  0
 32 33  1  0  0  0
 33 34  1  0  0  0
 34 35  1  0  0  0
 35 36  1  0  0  0
 14 15  1  0  0  0
 15 16  1  0  0  0
 15 20  2  0  0  0
 16 17  2  0  0  0
 17 18  1  0  0  0
 18 19  2  0  0  0
 19 20  1  0  0  0
 21 22  2  0  0  0
 21 23  1  0  0  0
 23 24  1  0  0  0
 23 25  1  0  0  0
M  END
> <minimizedAffinity>
-7.27032

$$$$
