CHEMBL4282387


 49 54  0  0  0  0  0  0  0  0999 V2000
  -29.6237   -7.4882   -6.6355 C   0  0  0  0  0  0  0  0  0  0  0  0
  -28.7663   -7.1159   -7.6726 C   0  0  0  0  0  0  0  0  0  0  0  0
  -28.4923   -5.7752   -7.8989 C   0  0  0  0  0  0  0  0  0  0  0  0
  -29.1364   -4.7870   -7.1555 C   0  0  0  0  0  0  0  0  0  0  0  0
  -30.0045   -5.1563   -6.1219 C   0  0  0  0  0  0  0  0  0  0  0  0
  -30.2581   -6.5091   -5.8802 C   0  0  0  0  0  0  0  0  0  0  0  0
  -31.1414   -6.8471   -4.9311 F   0  0  0  0  0  0  0  0  0  0  0  0
  -28.9604   -3.4222   -7.4375 N   0  0  0  0  0  0  0  0  0  0  0  0
  -28.1777   -2.5538   -6.7015 C   0  0  0  0  0  0  0  0  0  0  0  0
  -27.5066   -2.8042   -5.7100 O   0  0  0  0  0  0  0  0  0  0  0  0
  -29.3659   -3.0691   -8.2958 H   0  0  0  0  0  0  0  0  0  0  0  0
  -28.1674   -1.1498   -7.2183 C   0  0  0  0  0  0  0  0  0  0  0  0
  -27.4566   -0.0603   -6.4142 C   0  0  0  0  0  0  0  0  0  0  0  0
  -28.9473   -0.1198   -6.4173 C   0  0  0  0  0  0  0  0  0  0  0  0
  -28.0012   -1.0920   -8.6984 C   0  0  0  0  0  0  0  0  0  0  0  0
  -28.6778   -0.2600   -9.3073 O   0  0  0  0  0  0  0  0  0  0  0  0
  -27.0678   -1.9343   -9.2683 N   0  0  0  0  0  0  0  0  0  0  0  0
  -26.9160   -2.8353   -8.8419 H   0  0  0  0  0  0  0  0  0  0  0  0
  -26.6293   -1.7138  -10.5931 C   0  0  0  0  0  0  0  0  0  0  0  0
  -27.5310   -1.8207  -11.6630 C   0  0  0  0  0  0  0  0  0  0  0  0
  -27.0794   -1.7667  -12.9784 C   0  0  0  0  0  0  0  0  0  0  0  0
  -25.7251   -1.5924  -13.2183 C   0  0  0  0  0  0  0  0  0  0  0  0
  -25.2720   -1.6196  -14.4783 F   0  0  0  0  0  0  0  0  0  0  0  0
  -24.8300   -1.3998  -12.1681 C   0  0  0  0  0  0  0  0  0  0  0  0
  -25.2860   -1.4257  -10.8457 C   0  0  0  0  0  0  0  0  0  0  0  0
  -29.9018   -8.8422   -6.3789 O   0  0  0  0  0  0  0  0  0  0  0  0
  -28.6201   -8.8135   -3.6907 C   0  0  0  0  0  0  0  0  0  0  0  0
  -27.9216   -9.9270   -4.3953 C   0  0  0  0  0  0  0  0  0  0  0  0
  -26.9758  -10.9026   -3.9137 C   0  0  0  0  0  0  0  0  0  0  0  0
  -26.5819  -11.6586   -4.9956 C   0  0  0  0  0  0  0  0  0  0  0  0
  -27.2586  -11.2276   -6.0999 N   0  0  0  0  0  0  0  0  0  0  0  0
  -27.1456  -11.7347   -7.3437 N   0  0  0  0  0  0  0  0  0  0  0  0
  -27.8976  -11.1564   -8.2320 C   0  0  0  0  0  0  0  0  0  0  0  0
  -28.7901  -10.1430   -8.0086 N   0  0  0  0  0  0  0  0  0  0  0  0
  -28.9151   -9.7263   -6.7987 C   0  0  0  0  0  0  0  0  0  0  0  0
  -28.0961  -10.2139   -5.7438 C   0  0  0  0  0  0  0  0  0  0  0  0
  -26.4348  -11.1759   -2.6932 O   0  0  0  0  0  0  0  0  0  0  0  0
  -25.3992  -12.1592   -2.6896 C   0  0  0  0  0  0  0  0  0  0  0  0
  -24.0182  -11.5724   -2.3165 C   0  0  0  0  0  0  0  0  0  0  0  0
  -23.7808  -11.6982   -0.9064 O   0  0  0  0  0  0  0  0  0  0  0  0
  -23.8631  -12.6461   -0.6957 H   0  0  0  0  0  0  0  0  0  0  0  0
  -22.7918  -12.1325   -3.0892 C   0  0  0  0  0  0  0  0  0  0  0  0
  -22.8089  -11.9423   -4.5455 N   0  0  0  0  0  0  0  0  0  0  0  0
  -22.9658  -10.5398   -4.9601 C   0  0  0  0  0  0  0  0  0  0  0  0
  -23.2207  -10.5102   -6.4796 C   0  0  0  0  0  0  0  0  0  0  0  0
  -22.0764  -10.9862   -7.2757 N   0  0  0  0  0  0  0  0  0  0  0  0
  -21.0047   -9.9948   -7.2918 C   0  0  0  0  0  0  0  0  0  0  0  0
  -21.6305  -12.3005   -6.7556 C   0  0  0  0  0  0  0  0  0  0  0  0
  -21.5856  -12.4642   -5.2044 C   0  0  0  0  0  0  0  0  0  0  0  0
 27 28  1  0  0  0
 28 29  1  0  0  0
 28 36  2  0  0  0
 29 37  1  0  0  0
 29 30  2  0  0  0
 37 38  1  0  0  0
 38 39  1  0  0  0
 39 40  1  0  0  0
 39 42  1  0  0  0
 40 41  1  0  0  0
 42 43  1  0  0  0
 43 44  1  0  0  0
 43 49  1  0  0  0
 44 45  1  0  0  0
 45 46  1  0  0  0
 46 47  1  0  0  0
 46 48  1  0  0  0
 48 49  1  0  0  0
 30 31  1  0  0  0
 31 32  1  0  0  0
 31 36  1  0  0  0
 32 33  2  0  0  0
 33 34  1  0  0  0
 34 35  2  0  0  0
 35 26  1  0  0  0
 35 36  1  0  0  0
 26  1  1  0  0  0
  1  2  1  0  0  0
  1  6  2  0  0  0
  2  3  2  0  0  0
  3  4  1  0  0  0
  4  8  1  0  0  0
  4  5  2  0  0  0
  8  9  1  0  0  0
  8 11  1  0  0  0
  9 10  2  0  0  0
  9 12  1  0  0  0
 12 15  1  0  0  0
 12 13  1  0  0  0
 12 14  1  0  0  0
 15 16  2  0  0  0
 15 17  1  0  0  0
 17 19  1  0  0  0
 17 18  1  0  0  0
 19 20  1  0  0  0
 19 25  2  0  0  0
 20 21  2  0  0  0
 21 22  1  0  0  0
 22 23  1  0  0  0
 22 24  2  0  0  0
 24 25  1  0  0  0
 13 14  1  0  0  0
  5  6  1  0  0  0
  6  7  1  0  0  0
M  END
> <minimizedAffinity>
-9.11552

$$$$
