CHEMBL259461


 35 39  0  0  0  0  0  0  0  0999 V2000
  -14.8341   -0.7354  -14.3497 C   0  0  0  0  0  0  0  0  0  0  0  0
  -15.9046   -0.6273  -13.4726 C   0  0  0  0  0  0  0  0  0  0  0  0
  -16.8719    0.3649  -13.6890 C   0  0  0  0  0  0  0  0  0  0  0  0
  -16.7103    1.3847  -14.6638 C   0  0  0  0  0  0  0  0  0  0  0  0
  -17.6555    2.4096  -14.9916 C   0  0  0  0  0  0  0  0  0  0  0  0
  -17.3509    3.3637  -15.9846 C   0  0  0  0  0  0  0  0  0  0  0  0
  -16.1406    3.3306  -16.6659 C   0  0  0  0  0  0  0  0  0  0  0  0
  -15.2320    2.3207  -16.3899 C   0  0  0  0  0  0  0  0  0  0  0  0
  -15.5058    1.3460  -15.4200 C   0  0  0  0  0  0  0  0  0  0  0  0
  -14.5958    0.2885  -15.2607 C   0  0  0  0  0  0  0  0  0  0  0  0
  -19.0573    2.5206  -14.4690 C   0  0  0  0  0  0  0  0  0  0  0  0
  -19.3711    3.5981  -13.9684 O   0  0  0  0  0  0  0  0  0  0  0  0
  -19.8733    1.4103  -14.5563 N   0  0  0  0  0  0  0  0  0  0  0  0
  -19.5171    0.5461  -14.9293 H   0  0  0  0  0  0  0  0  0  0  0  0
  -21.1959    1.4098  -14.1324 C   0  0  0  0  0  0  0  0  0  0  0  0
  -21.8502    0.3006  -13.5347 C   0  0  0  0  0  0  0  0  0  0  0  0
  -23.1315    0.7386  -13.2951 C   0  0  0  0  0  0  0  0  0  0  0  0
  -24.3565    0.1441  -12.7344 C   0  0  0  0  0  0  0  0  0  0  0  0
  -23.2397    2.0269  -13.7039 O   0  0  0  0  0  0  0  0  0  0  0  0
  -22.0410    2.4395  -14.2335 N   0  0  0  0  0  0  0  0  0  0  0  0
  -14.0077   -1.8308  -14.4497 O   0  0  0  0  0  0  0  0  0  0  0  0
  -13.5764   -4.3515   -9.9024 C   0  0  0  0  0  0  0  0  0  0  0  0
  -12.3688   -3.7057  -10.2258 C   0  0  0  0  0  0  0  0  0  0  0  0
  -12.1890   -3.0100  -11.4128 C   0  0  0  0  0  0  0  0  0  0  0  0
  -11.0513   -2.3085  -11.5632 N   0  0  0  0  0  0  0  0  0  0  0  0
  -10.9136   -1.5370  -12.6587 C   0  0  0  0  0  0  0  0  0  0  0  0
  -11.8920   -1.3953  -13.6169 C   0  0  0  0  0  0  0  0  0  0  0  0
  -13.0725   -2.1200  -13.4671 C   0  0  0  0  0  0  0  0  0  0  0  0
  -13.2124   -3.0227  -12.3748 C   0  0  0  0  0  0  0  0  0  0  0  0
  -14.2993   -3.8980  -12.1418 C   0  0  0  0  0  0  0  0  0  0  0  0
  -14.5490   -4.4686  -10.8925 C   0  0  0  0  0  0  0  0  0  0  0  0
  -12.6528   -5.1630   -7.8729 C   0  0  0  0  0  0  0  0  0  0  0  0
  -13.8092   -4.8854   -8.6635 O   0  0  0  0  0  0  0  0  0  0  0  0
  -15.7920   -5.0352  -10.8348 O   0  0  0  0  0  0  0  0  0  0  0  0
  -16.5654   -5.1559  -12.0179 C   0  0  0  0  0  0  0  0  0  0  0  0
 32 33  1  0  0  0
 33 22  1  0  0  0
 22 23  1  0  0  0
 22 31  2  0  0  0
 23 24  2  0  0  0
 24 25  1  0  0  0
 24 29  1  0  0  0
 25 26  2  0  0  0
 26 27  1  0  0  0
 27 28  2  0  0  0
 28 21  1  0  0  0
 28 29  1  0  0  0
 21  1  1  0  0  0
  1  2  1  0  0  0
  1 10  2  0  0  0
  2  3  2  0  0  0
  3  4  1  0  0  0
  4  5  1  0  0  0
  4  9  2  0  0  0
  5 11  1  0  0  0
  5  6  2  0  0  0
 11 12  2  0  0  0
 11 13  1  0  0  0
 13 15  1  0  0  0
 13 14  1  0  0  0
 15 16  1  0  0  0
 15 20  2  0  0  0
 16 17  2  0  0  0
 17 18  1  0  0  0
 17 19  1  0  0  0
 19 20  1  0  0  0
  6  7  1  0  0  0
  7  8  2  0  0  0
  8  9  1  0  0  0
  9 10  1  0  0  0
 29 30  2  0  0  0
 30 31  1  0  0  0
 31 34  1  0  0  0
 34 35  1  0  0  0
M  END
> <minimizedAffinity>
-9.32425

$$$$
