CHEMBL321359


 18 20  0  0  0  0  0  0  0  0999 V2000
  -30.9812   -6.4476   -4.9099 C   0  0  0  0  0  0  0  0  0  0  0  0
  -30.7771   -5.1951   -4.4775 C   0  0  0  0  0  0  0  0  0  0  0  0
  -31.5305   -4.6888   -3.2754 C   0  0  0  0  0  0  0  0  0  0  0  0
  -32.3983   -5.2640   -2.6449 O   0  0  0  0  0  0  0  0  0  0  0  0
  -31.0145   -3.4267   -3.0313 N   0  0  0  0  0  0  0  0  0  0  0  0
  -30.0358   -3.0928   -3.9637 C   0  0  0  0  0  0  0  0  0  0  0  0
  -29.2996   -1.9252   -3.9998 C   0  0  0  0  0  0  0  0  0  0  0  0
  -28.3675   -1.7879   -5.0297 C   0  0  0  0  0  0  0  0  0  0  0  0
  -28.2151   -2.7962   -5.9985 C   0  0  0  0  0  0  0  0  0  0  0  0
  -28.9728   -3.9722   -5.9402 C   0  0  0  0  0  0  0  0  0  0  0  0
  -29.8708   -4.1221   -4.8995 C   0  0  0  0  0  0  0  0  0  0  0  0
  -31.3297   -2.8452   -2.2713 H   0  0  0  0  0  0  0  0  0  0  0  0
  -28.3743   -7.8983   -4.6733 C   0  0  0  0  0  0  0  0  0  0  0  0
  -29.1165   -7.6720   -5.8963 N   0  0  0  0  0  0  0  0  0  0  0  0
  -28.7046   -8.1130   -7.1319 C   0  0  0  0  0  0  0  0  0  0  0  0
  -29.6608   -7.7599   -8.0556 C   0  0  0  0  0  0  0  0  0  0  0  0
  -30.6805   -7.0722   -7.3596 C   0  0  0  0  0  0  0  0  0  0  0  0
  -30.3170   -7.0064   -6.0279 C   0  0  0  0  0  0  0  0  0  0  0  0
 13 14  1  0  0  0
 14 15  1  0  0  0
 14 18  1  0  0  0
 15 16  2  0  0  0
 16 17  1  0  0  0
 17 18  2  0  0  0
 18  1  1  0  0  0
  1  2  2  0  0  0
  2  3  1  0  0  0
  2 11  1  0  0  0
  3  4  2  0  0  0
  3  5  1  0  0  0
  5  6  1  0  0  0
  5 12  1  0  0  0
  6  7  1  0  0  0
  6 11  2  0  0  0
  7  8  2  0  0  0
  8  9  1  0  0  0
  9 10  2  0  0  0
 10 11  1  0  0  0
M  END
> <minimizedAffinity>
-7.01613

$$$$
