CHEMBL225036


 31 35  0  0  0  0  0  0  0  0999 V2000
  -13.4207    1.8171  -14.1287 C   0  0  0  0  0  0  0  0  0  0  0  0
  -13.7322    0.8594  -13.2286 N   0  0  0  0  0  0  0  0  0  0  0  0
  -13.4150   -0.2597  -13.9119 N   0  0  0  0  0  0  0  0  0  0  0  0
  -12.6223    0.0355  -15.0013 C   0  0  0  0  0  0  0  0  0  0  0  0
  -12.1517    1.2996  -14.6457 C   0  0  0  0  0  0  0  0  0  0  0  0
  -11.1027    1.7113  -15.5896 C   0  0  0  0  0  0  0  0  0  0  0  0
  -11.8819    1.2875  -16.8102 C   0  0  0  0  0  0  0  0  0  0  0  0
  -12.0955    2.1869  -17.8495 C   0  0  0  0  0  0  0  0  0  0  0  0
  -13.3185    2.0884  -18.4964 C   0  0  0  0  0  0  0  0  0  0  0  0
  -14.0719    0.8939  -18.3830 C   0  0  0  0  0  0  0  0  0  0  0  0
  -13.7963   -0.0699  -17.3753 C   0  0  0  0  0  0  0  0  0  0  0  0
  -12.7469    0.1798  -16.5071 C   0  0  0  0  0  0  0  0  0  0  0  0
  -13.3131   -1.0776  -13.3209 H   0  0  0  0  0  0  0  0  0  0  0  0
  -16.9247    2.2142  -15.4410 C   0  0  0  0  0  0  0  0  0  0  0  0
  -15.8472    1.5770  -14.8813 C   0  0  0  0  0  0  0  0  0  0  0  0
  -14.6220    2.3557  -14.8922 C   0  0  0  0  0  0  0  0  0  0  0  0
  -14.8071    3.4948  -15.6324 C   0  0  0  0  0  0  0  0  0  0  0  0
  -16.4315    3.6260  -16.2524 S   0  0  0  0  0  0  0  0  0  0  0  0
  -19.4439    1.2263  -15.1232 C   0  0  0  0  0  0  0  0  0  0  0  0
  -18.2610    1.7171  -15.3678 C   0  0  0  0  0  0  0  0  0  0  0  0
  -20.8230    0.6543  -14.8379 C   0  0  0  0  0  0  0  0  0  0  0  0
  -22.8044    0.9930  -13.6308 C   0  0  0  0  0  0  0  0  0  0  0  0
  -21.4915    1.4742  -13.8866 O   0  0  0  0  0  0  0  0  0  0  0  0
  -13.9888    3.3931  -18.8982 C   0  0  0  0  0  0  0  0  0  0  0  0
  -13.2515    4.6365  -18.7591 N   0  0  0  0  0  0  0  0  0  0  0  0
  -12.5061    4.9325  -19.9847 C   0  0  0  0  0  0  0  0  0  0  0  0
  -11.7732    6.2753  -19.8146 C   0  0  0  0  0  0  0  0  0  0  0  0
  -12.6718    7.4287  -19.5949 N   0  0  0  0  0  0  0  0  0  0  0  0
  -13.4360    7.7410  -20.8022 C   0  0  0  0  0  0  0  0  0  0  0  0
  -13.5649    7.1342  -18.4548 C   0  0  0  0  0  0  0  0  0  0  0  0
  -14.2261    5.7332  -18.5004 C   0  0  0  0  0  0  0  0  0  0  0  0
 22 23  1  0  0  0
 23 21  1  0  0  0
 21 19  1  0  0  0
 19 20  3  0  0  0
 20 14  1  0  0  0
 14 15  2  0  0  0
 14 18  1  0  0  0
 15 16  1  0  0  0
 16  1  1  0  0  0
 16 17  2  0  0  0
  1  2  2  0  0  0
  1  5  1  0  0  0
  2  3  1  0  0  0
  3  4  1  0  0  0
  3 13  1  0  0  0
  4  5  2  0  0  0
  4 12  1  0  0  0
  5  6  1  0  0  0
  6  7  1  0  0  0
  7  8  1  0  0  0
  7 12  2  0  0  0
  8  9  2  0  0  0
  9 24  1  0  0  0
  9 10  1  0  0  0
 24 25  1  0  0  0
 25 26  1  0  0  0
 25 31  1  0  0  0
 26 27  1  0  0  0
 27 28  1  0  0  0
 28 29  1  0  0  0
 28 30  1  0  0  0
 30 31  1  0  0  0
 10 11  2  0  0  0
 11 12  1  0  0  0
 17 18  1  0  0  0
M  END
> <minimizedAffinity>
-5.70762

$$$$
