CHEMBL382647


 28 31  0  0  0  0  0  0  0  0999 V2000
  -32.8225   -7.9308   -7.3572 O   0  0  0  0  0  0  0  0  0  0  0  0
  -31.8864   -8.6583   -7.0336 C   0  0  0  0  0  0  0  0  0  0  0  0
  -30.7740   -8.1930   -6.3549 N   0  0  0  0  0  0  0  0  0  0  0  0
  -29.9934   -8.8314   -6.2769 H   0  0  0  0  0  0  0  0  0  0  0  0
  -30.5683   -6.8687   -5.9115 C   0  0  0  0  0  0  0  0  0  0  0  0
  -31.0772   -6.3667   -4.7126 C   0  0  0  0  0  0  0  0  0  0  0  0
  -30.8898   -5.0256   -4.3508 C   0  0  0  0  0  0  0  0  0  0  0  0
  -30.1992   -4.1403   -5.1804 C   0  0  0  0  0  0  0  0  0  0  0  0
  -29.6562   -4.6715   -6.3615 C   0  0  0  0  0  0  0  0  0  0  0  0
  -29.8206   -6.0166   -6.7197 C   0  0  0  0  0  0  0  0  0  0  0  0
  -30.0174   -2.8081   -4.8701 N   0  0  0  0  0  0  0  0  0  0  0  0
  -29.9506   -1.7519   -5.8952 C   0  0  0  0  0  0  0  0  0  0  0  0
  -28.5329   -1.1779   -6.0242 C   0  0  0  0  0  0  0  0  0  0  0  0
  -28.0161   -0.7522   -4.7527 O   0  0  0  0  0  0  0  0  0  0  0  0
  -27.9632   -1.8668   -3.8484 C   0  0  0  0  0  0  0  0  0  0  0  0
  -29.3591   -2.4597   -3.5951 C   0  0  0  0  0  0  0  0  0  0  0  0
  -31.8788  -10.0691   -7.3933 C   0  0  0  0  0  0  0  0  0  0  0  0
  -32.8480  -11.2404   -6.5962 S   0  0  0  0  0  0  0  0  0  0  0  0
  -32.2114  -12.4548   -7.6164 C   0  0  0  0  0  0  0  0  0  0  0  0
  -31.3252  -12.0595   -8.5019 N   0  0  0  0  0  0  0  0  0  0  0  0
  -31.1287  -10.6883   -8.3920 C   0  0  0  0  0  0  0  0  0  0  0  0
  -30.1215  -10.0326   -9.2964 C   0  0  0  0  0  0  0  0  0  0  0  0
  -29.2304  -11.0103  -10.0629 C   0  0  0  0  0  0  0  0  0  0  0  0
  -28.3809  -10.3053  -11.0633 C   0  0  0  0  0  0  0  0  0  0  0  0
  -27.1264   -9.6862  -10.8658 C   0  0  0  0  0  0  0  0  0  0  0  0
  -26.6527   -9.1304  -11.9830 N   0  0  0  0  0  0  0  0  0  0  0  0
  -27.6136   -9.3789  -12.9494 O   0  0  0  0  0  0  0  0  0  0  0  0
  -28.6370  -10.0749  -12.3951 C   0  0  0  0  0  0  0  0  0  0  0  0
  1  2  2  0  0  0
  2  3  1  0  0  0
  2 17  1  0  0  0
  3  5  1  0  0  0
  3  4  1  0  0  0
  5  6  1  0  0  0
  5 10  2  0  0  0
  6  7  2  0  0  0
  7  8  1  0  0  0
  8 11  1  0  0  0
  8  9  2  0  0  0
 11 12  1  0  0  0
 11 16  1  0  0  0
 12 13  1  0  0  0
 13 14  1  0  0  0
 14 15  1  0  0  0
 15 16  1  0  0  0
  9 10  1  0  0  0
 17 18  1  0  0  0
 17 21  2  0  0  0
 18 19  1  0  0  0
 19 20  2  0  0  0
 20 21  1  0  0  0
 21 22  1  0  0  0
 22 23  1  0  0  0
 23 24  1  0  0  0
 24 25  1  0  0  0
 24 28  2  0  0  0
 25 26  2  0  0  0
 26 27  1  0  0  0
 27 28  1  0  0  0
M  END
> <minimizedAffinity>
-7.66325

$$$$
