CHEMBL2180882


 30 33  0  0  0  0  0  0  0  0999 V2000
  -14.9333   -4.9917  -12.5921 C   0  0  0  0  0  0  0  0  0  0  0  0
  -14.4721   -3.8842  -11.9941 C   0  0  0  0  0  0  0  0  0  0  0  0
  -15.5681   -3.3451  -11.1661 C   0  0  0  0  0  0  0  0  0  0  0  0
  -15.5339   -2.3596  -10.4567 O   0  0  0  0  0  0  0  0  0  0  0  0
  -16.6330   -4.1648  -11.3403 N   0  0  0  0  0  0  0  0  0  0  0  0
  -16.3340   -5.1775  -12.1847 C   0  0  0  0  0  0  0  0  0  0  0  0
  -17.0747   -6.0731  -12.5370 O   0  0  0  0  0  0  0  0  0  0  0  0
  -17.5250   -4.0375  -10.8978 H   0  0  0  0  0  0  0  0  0  0  0  0
  -13.1799   -3.3118  -12.1034 C   0  0  0  0  0  0  0  0  0  0  0  0
  -12.1547   -3.5367  -11.2115 C   0  0  0  0  0  0  0  0  0  0  0  0
  -11.1004   -2.7380  -11.5785 N   0  0  0  0  0  0  0  0  0  0  0  0
  -11.4316   -1.9968  -12.6893 C   0  0  0  0  0  0  0  0  0  0  0  0
  -10.6969   -1.0479  -13.3891 C   0  0  0  0  0  0  0  0  0  0  0  0
  -11.2546   -0.4421  -14.4609 N   0  0  0  0  0  0  0  0  0  0  0  0
  -12.5125   -0.7761  -14.8209 C   0  0  0  0  0  0  0  0  0  0  0  0
  -13.3031   -1.7098  -14.1664 C   0  0  0  0  0  0  0  0  0  0  0  0
  -12.7336   -2.3458  -13.0528 C   0  0  0  0  0  0  0  0  0  0  0  0
  -10.2146   -2.6819  -11.0938 H   0  0  0  0  0  0  0  0  0  0  0  0
  -13.8441   -6.7701  -15.7184 C   0  0  0  0  0  0  0  0  0  0  0  0
  -14.4404   -5.8379  -14.8602 C   0  0  0  0  0  0  0  0  0  0  0  0
  -14.1688   -5.8485  -13.4883 C   0  0  0  0  0  0  0  0  0  0  0  0
  -13.2921   -6.7986  -12.9641 C   0  0  0  0  0  0  0  0  0  0  0  0
  -12.6992   -7.7477  -13.8012 C   0  0  0  0  0  0  0  0  0  0  0  0
  -12.9345   -7.7090  -15.1926 C   0  0  0  0  0  0  0  0  0  0  0  0
  -13.7903   -5.8579  -17.9321 C   0  0  0  0  0  0  0  0  0  0  0  0
  -14.1965   -6.8855  -17.0383 O   0  0  0  0  0  0  0  0  0  0  0  0
  -11.8621   -8.7276  -13.3198 O   0  0  0  0  0  0  0  0  0  0  0  0
  -12.3947   -9.4982  -12.2432 C   0  0  0  0  0  0  0  0  0  0  0  0
  -12.2868   -8.6787  -15.9276 O   0  0  0  0  0  0  0  0  0  0  0  0
  -13.0434   -9.8429  -16.2455 C   0  0  0  0  0  0  0  0  0  0  0  0
 25 26  1  0  0  0
 26 19  1  0  0  0
 19 20  1  0  0  0
 19 24  2  0  0  0
 20 21  2  0  0  0
 21  1  1  0  0  0
 21 22  1  0  0  0
  1  2  2  0  0  0
  1  6  1  0  0  0
  2  9  1  0  0  0
  2  3  1  0  0  0
  9 10  2  0  0  0
  9 17  1  0  0  0
 10 11  1  0  0  0
 11 12  1  0  0  0
 11 18  1  0  0  0
 12 13  1  0  0  0
 12 17  2  0  0  0
 13 14  2  0  0  0
 14 15  1  0  0  0
 15 16  2  0  0  0
 16 17  1  0  0  0
  3  4  2  0  0  0
  3  5  1  0  0  0
  5  6  1  0  0  0
  5  8  1  0  0  0
  6  7  2  0  0  0
 22 23  2  0  0  0
 23 27  1  0  0  0
 23 24  1  0  0  0
 27 28  1  0  0  0
 24 29  1  0  0  0
 29 30  1  0  0  0
M  END
> <minimizedAffinity>
-6.35086

$$$$
