CHEMBL1929553


 30 33  0  0  0  0  0  0  0  0999 V2000
  -27.3797   -2.0887   -9.2868 C   0  0  0  0  0  0  0  0  0  0  0  0
  -26.1659   -1.7160   -9.8410 C   0  0  0  0  0  0  0  0  0  0  0  0
  -26.3622   -1.5822  -11.2456 C   0  0  0  0  0  0  0  0  0  0  0  0
  -25.5523   -1.4394  -12.3814 C   0  0  0  0  0  0  0  0  0  0  0  0
  -26.1563   -1.5362  -13.5956 N   0  0  0  0  0  0  0  0  0  0  0  0
  -27.4723   -1.7585  -13.6788 C   0  0  0  0  0  0  0  0  0  0  0  0
  -27.9616   -2.0017  -14.9461 N   0  0  0  0  0  0  0  0  0  0  0  0
  -28.3357   -1.8051  -12.6609 N   0  0  0  0  0  0  0  0  0  0  0  0
  -27.7166   -1.7470  -11.4750 C   0  0  0  0  0  0  0  0  0  0  0  0
  -28.3335   -1.9216  -10.2676 N   0  0  0  0  0  0  0  0  0  0  0  0
  -27.3163   -1.6488  -15.6384 H   0  0  0  0  0  0  0  0  0  0  0  0
  -28.9351   -1.7511  -15.0186 H   0  0  0  0  0  0  0  0  0  0  0  0
  -29.3252   -2.0829  -10.1717 H   0  0  0  0  0  0  0  0  0  0  0  0
  -24.1618   -1.2732  -12.3026 N   0  0  0  0  0  0  0  0  0  0  0  0
  -23.6519   -2.1248  -12.1164 H   0  0  0  0  0  0  0  0  0  0  0  0
  -23.3921   -0.2689  -12.9160 C   0  0  0  0  0  0  0  0  0  0  0  0
  -23.7622    1.0790  -12.7512 C   0  0  0  0  0  0  0  0  0  0  0  0
  -23.0533    2.0946  -13.3953 C   0  0  0  0  0  0  0  0  0  0  0  0
  -21.9682    1.7768  -14.2131 C   0  0  0  0  0  0  0  0  0  0  0  0
  -21.1002    3.0263  -15.0146 Cl  0  0  0  0  0  0  0  0  0  0  0  0
  -21.5867    0.4525  -14.3880 C   0  0  0  0  0  0  0  0  0  0  0  0
  -22.3031   -0.5608  -13.7492 C   0  0  0  0  0  0  0  0  0  0  0  0
  -27.7153   -2.6497   -7.9408 C   0  0  0  0  0  0  0  0  0  0  0  0
  -29.7569   -3.2839   -5.7503 C   0  0  0  0  0  0  0  0  0  0  0  0
  -29.2395   -1.8931   -5.9967 C   0  0  0  0  0  0  0  0  0  0  0  0
  -29.7495   -0.8501   -5.1983 C   0  0  0  0  0  0  0  0  0  0  0  0
  -29.3261    0.4655   -5.3747 C   0  0  0  0  0  0  0  0  0  0  0  0
  -28.3927    0.7606   -6.3590 C   0  0  0  0  0  0  0  0  0  0  0  0
  -27.8865   -0.2580   -7.1688 C   0  0  0  0  0  0  0  0  0  0  0  0
  -28.2936   -1.5967   -7.0032 C   0  0  0  0  0  0  0  0  0  0  0  0
 24 25  1  0  0  0
 25 26  1  0  0  0
 25 30  2  0  0  0
 26 27  2  0  0  0
 27 28  1  0  0  0
 28 29  2  0  0  0
 29 30  1  0  0  0
 30 23  1  0  0  0
 23  1  1  0  0  0
  1  2  2  0  0  0
  1 10  1  0  0  0
  2  3  1  0  0  0
  3  4  1  0  0  0
  3  9  2  0  0  0
  4 14  1  0  0  0
  4  5  2  0  0  0
 14 16  1  0  0  0
 14 15  1  0  0  0
 16 17  1  0  0  0
 16 22  2  0  0  0
 17 18  2  0  0  0
 18 19  1  0  0  0
 19 20  1  0  0  0
 19 21  2  0  0  0
 21 22  1  0  0  0
  5  6  1  0  0  0
  6  7  1  0  0  0
  6  8  2  0  0  0
  7 11  1  0  0  0
  7 12  1  0  0  0
  8  9  1  0  0  0
  9 10  1  0  0  0
 10 13  1  0  0  0
M  END
> <minimizedAffinity>
-9.41224

$$$$
