CHEMBL3923645


 36 41  0  0  0  0  0  0  0  0999 V2000
  -29.6734   -8.1797   -5.6903 C   0  0  0  0  0  0  0  0  0  0  0  0
  -28.9235   -9.2681   -6.1399 C   0  0  0  0  0  0  0  0  0  0  0  0
  -27.6057   -9.4862   -5.6826 C   0  0  0  0  0  0  0  0  0  0  0  0
  -26.7791  -10.5356   -6.1047 C   0  0  0  0  0  0  0  0  0  0  0  0
  -25.5374  -10.7067   -5.6108 N   0  0  0  0  0  0  0  0  0  0  0  0
  -25.1183   -9.8209   -4.7065 C   0  0  0  0  0  0  0  0  0  0  0  0
  -25.8210   -8.7850   -4.2407 N   0  0  0  0  0  0  0  0  0  0  0  0
  -27.0537   -8.6285   -4.7300 C   0  0  0  0  0  0  0  0  0  0  0  0
  -27.8098   -7.5602   -4.2781 C   0  0  0  0  0  0  0  0  0  0  0  0
  -29.1008   -7.3002   -4.7569 C   0  0  0  0  0  0  0  0  0  0  0  0
  -31.3484   -8.4611   -7.3616 C   0  0  0  0  0  0  0  0  0  0  0  0
  -30.9594   -7.9265   -6.0984 O   0  0  0  0  0  0  0  0  0  0  0  0
  -27.2478  -11.4447   -7.0945 N   0  0  0  0  0  0  0  0  0  0  0  0
  -27.8991  -12.0932   -6.6651 H   0  0  0  0  0  0  0  0  0  0  0  0
  -27.6429  -11.0442   -8.3878 C   0  0  0  0  0  0  0  0  0  0  0  0
  -28.7684  -11.6255   -8.9895 C   0  0  0  0  0  0  0  0  0  0  0  0
  -29.1060  -11.3269  -10.3072 C   0  0  0  0  0  0  0  0  0  0  0  0
  -28.3314  -10.4284  -11.0380 C   0  0  0  0  0  0  0  0  0  0  0  0
  -28.8034  -10.1497  -12.8552 Br  0  0  0  0  0  0  0  0  0  0  0  0
  -27.2424   -9.7965  -10.4276 C   0  0  0  0  0  0  0  0  0  0  0  0
  -26.2425   -8.6581  -11.2626 Cl  0  0  0  0  0  0  0  0  0  0  0  0
  -26.9063  -10.0957   -9.1019 C   0  0  0  0  0  0  0  0  0  0  0  0
  -29.8222   -6.1822   -4.4110 O   0  0  0  0  0  0  0  0  0  0  0  0
  -30.1805   -5.2677   -5.4626 C   0  0  0  0  0  0  0  0  0  0  0  0
  -30.7994   -3.9797   -4.9221 C   0  0  0  0  0  0  0  0  0  0  0  0
  -29.7177   -3.1236   -4.5273 O   0  0  0  0  0  0  0  0  0  0  0  0
  -28.6196   -3.4070   -5.4101 C   0  0  0  0  0  0  0  0  0  0  0  0
  -28.8951   -4.7467   -6.0902 C   0  0  0  0  0  0  0  0  0  0  0  0
  -29.0515   -4.4758   -7.4947 O   0  0  0  0  0  0  0  0  0  0  0  0
  -28.3048   -3.2740   -7.7470 C   0  0  0  0  0  0  0  0  0  0  0  0
  -28.5887   -2.3681   -6.5473 C   0  0  0  0  0  0  0  0  0  0  0  0
  -27.6137   -1.2620   -6.4331 N   0  0  0  0  0  0  0  0  0  0  0  0
  -27.4423   -0.7382   -5.0692 C   0  0  0  0  0  0  0  0  0  0  0  0
  -28.4976    0.3312   -4.9012 C   0  0  0  0  0  0  0  0  0  0  0  0
  -28.6009    0.9504   -6.2798 C   0  0  0  0  0  0  0  0  0  0  0  0
  -28.0346   -0.0957   -7.2385 C   0  0  0  0  0  0  0  0  0  0  0  0
 11 12  1  0  0  0
 12  1  1  0  0  0
  1  2  1  0  0  0
  1 10  2  0  0  0
  2  3  2  0  0  0
  3  4  1  0  0  0
  3  8  1  0  0  0
  4 13  1  0  0  0
  4  5  2  0  0  0
 13 15  1  0  0  0
 13 14  1  0  0  0
 15 16  1  0  0  0
 15 22  2  0  0  0
 16 17  2  0  0  0
 17 18  1  0  0  0
 18 19  1  0  0  0
 18 20  2  0  0  0
 20 21  1  0  0  0
 20 22  1  0  0  0
  5  6  1  0  0  0
  6  7  2  0  0  0
  7  8  1  0  0  0
  8  9  2  0  0  0
  9 10  1  0  0  0
 10 23  1  0  0  0
 24 25  1  0  0  0
 24 28  1  0  0  0
 24 23  1  0  0  0
 25 26  1  0  0  0
 26 27  1  0  0  0
 27 28  1  0  0  0
 27 31  1  0  0  0
 28 29  1  0  0  0
 29 30  1  0  0  0
 30 31  1  0  0  0
 31 32  1  0  0  0
 32 33  1  0  0  0
 32 36  1  0  0  0
 33 34  1  0  0  0
 34 35  1  0  0  0
 35 36  1  0  0  0
M  END
> <minimizedAffinity>
-8.23116

$$$$
