CHEMBL396265


 34 38  0  0  0  0  0  0  0  0999 V2000
  -27.0183   -2.1055   -9.7714 C   0  0  0  0  0  0  0  0  0  0  0  0
  -28.0657   -1.7850  -10.6496 C   0  0  0  0  0  0  0  0  0  0  0  0
  -27.8180   -1.3529  -11.9548 C   0  0  0  0  0  0  0  0  0  0  0  0
  -26.4798   -1.2022  -12.3096 C   0  0  0  0  0  0  0  0  0  0  0  0
  -25.8748   -0.8543  -13.4884 N   0  0  0  0  0  0  0  0  0  0  0  0
  -24.5169   -0.8145  -13.2936 C   0  0  0  0  0  0  0  0  0  0  0  0
  -24.2256   -1.1535  -12.0558 N   0  0  0  0  0  0  0  0  0  0  0  0
  -25.4228   -1.4172  -11.4341 C   0  0  0  0  0  0  0  0  0  0  0  0
  -25.6852   -1.8651  -10.1280 C   0  0  0  0  0  0  0  0  0  0  0  0
  -26.3462   -0.6581  -14.3558 H   0  0  0  0  0  0  0  0  0  0  0  0
  -23.7219   -0.4284  -14.3175 N   0  0  0  0  0  0  0  0  0  0  0  0
  -23.9050   -0.7526  -15.2588 H   0  0  0  0  0  0  0  0  0  0  0  0
  -22.6963    0.5377  -14.2566 C   0  0  0  0  0  0  0  0  0  0  0  0
  -22.9252    1.8743  -13.9060 C   0  0  0  0  0  0  0  0  0  0  0  0
  -21.8984    2.8222  -13.9502 C   0  0  0  0  0  0  0  0  0  0  0  0
  -20.6259    2.4423  -14.3608 C   0  0  0  0  0  0  0  0  0  0  0  0
  -19.3699    3.6135  -14.4538 Cl  0  0  0  0  0  0  0  0  0  0  0  0
  -20.3686    1.1197  -14.7092 C   0  0  0  0  0  0  0  0  0  0  0  0
  -21.3986    0.1741  -14.6545 C   0  0  0  0  0  0  0  0  0  0  0  0
  -27.2656   -2.6761   -8.5324 O   0  0  0  0  0  0  0  0  0  0  0  0
  -30.0131   -3.4386   -4.3015 C   0  0  0  0  0  0  0  0  0  0  0  0
  -29.8534   -2.0684   -4.5369 C   0  0  0  0  0  0  0  0  0  0  0  0
  -29.1761   -1.5782   -5.6372 C   0  0  0  0  0  0  0  0  0  0  0  0
  -29.0427   -0.2528   -5.7299 N   0  0  0  0  0  0  0  0  0  0  0  0
  -28.3722    0.2144   -6.7839 C   0  0  0  0  0  0  0  0  0  0  0  0
  -27.8243   -0.5262   -7.7436 N   0  0  0  0  0  0  0  0  0  0  0  0
  -27.9307   -1.8666   -7.6028 C   0  0  0  0  0  0  0  0  0  0  0  0
  -28.6383   -2.4810   -6.5625 C   0  0  0  0  0  0  0  0  0  0  0  0
  -28.8415   -3.8707   -6.3686 C   0  0  0  0  0  0  0  0  0  0  0  0
  -29.5597   -4.3484   -5.2635 C   0  0  0  0  0  0  0  0  0  0  0  0
  -31.9198   -4.4089   -3.3045 C   0  0  0  0  0  0  0  0  0  0  0  0
  -30.5894   -3.9086   -3.1482 O   0  0  0  0  0  0  0  0  0  0  0  0
  -29.6828   -5.7121   -5.2138 O   0  0  0  0  0  0  0  0  0  0  0  0
  -28.5350   -6.4232   -4.7512 C   0  0  0  0  0  0  0  0  0  0  0  0
 31 32  1  0  0  0
 32 21  1  0  0  0
 21 22  1  0  0  0
 21 30  2  0  0  0
 22 23  2  0  0  0
 23 24  1  0  0  0
 23 28  1  0  0  0
 24 25  2  0  0  0
 25 26  1  0  0  0
 26 27  2  0  0  0
 27 20  1  0  0  0
 27 28  1  0  0  0
 20  1  1  0  0  0
  1  2  1  0  0  0
  1  9  2  0  0  0
  2  3  2  0  0  0
  3  4  1  0  0  0
  4  5  1  0  0  0
  4  8  2  0  0  0
  5  6  1  0  0  0
  5 10  1  0  0  0
  6 11  1  0  0  0
  6  7  2  0  0  0
 11 13  1  0  0  0
 11 12  1  0  0  0
 13 14  1  0  0  0
 13 19  2  0  0  0
 14 15  2  0  0  0
 15 16  1  0  0  0
 16 17  1  0  0  0
 16 18  2  0  0  0
 18 19  1  0  0  0
  7  8  1  0  0  0
  8  9  1  0  0  0
 28 29  2  0  0  0
 29 30  1  0  0  0
 30 33  1  0  0  0
 33 34  1  0  0  0
M  END
> <minimizedAffinity>
-9.42565

$$$$
