CHEMBL393596


 41 46  0  0  0  0  0  0  0  0999 V2000
  -28.4082   -2.2702   -7.5723 C   0  0  0  0  0  0  0  0  0  0  0  0
  -27.7747   -1.4682   -8.5228 C   0  0  0  0  0  0  0  0  0  0  0  0
  -27.6440   -0.1953   -8.0666 O   0  0  0  0  0  0  0  0  0  0  0  0
  -28.2198   -0.1419   -6.8349 C   0  0  0  0  0  0  0  0  0  0  0  0
  -28.3029    1.0071   -6.1407 N   0  0  0  0  0  0  0  0  0  0  0  0
  -28.9071    0.8600   -4.9483 C   0  0  0  0  0  0  0  0  0  0  0  0
  -29.3874   -0.3315   -4.4278 C   0  0  0  0  0  0  0  0  0  0  0  0
  -29.2505   -1.5256   -5.1559 C   0  0  0  0  0  0  0  0  0  0  0  0
  -28.6718   -1.4065   -6.4488 C   0  0  0  0  0  0  0  0  0  0  0  0
  -29.4102   -6.4010   -8.0952 C   0  0  0  0  0  0  0  0  0  0  0  0
  -30.4063   -5.4805   -7.7845 C   0  0  0  0  0  0  0  0  0  0  0  0
  -30.0953   -4.1213   -7.6838 C   0  0  0  0  0  0  0  0  0  0  0  0
  -28.7701   -3.6730   -7.7990 C   0  0  0  0  0  0  0  0  0  0  0  0
  -27.7750   -4.6243   -8.0665 C   0  0  0  0  0  0  0  0  0  0  0  0
  -28.0971   -5.9706   -8.2579 C   0  0  0  0  0  0  0  0  0  0  0  0
  -27.2697   -1.7024   -9.8722 C   0  0  0  0  0  0  0  0  0  0  0  0
  -25.8926   -1.8408  -10.0643 C   0  0  0  0  0  0  0  0  0  0  0  0
  -25.3401   -1.7575  -11.3386 C   0  0  0  0  0  0  0  0  0  0  0  0
  -26.1609   -1.6191  -12.4601 C   0  0  0  0  0  0  0  0  0  0  0  0
  -27.5453   -1.5925  -12.2868 C   0  0  0  0  0  0  0  0  0  0  0  0
  -28.1011   -1.6384  -10.9988 C   0  0  0  0  0  0  0  0  0  0  0  0
  -25.6953   -1.4639  -13.7437 O   0  0  0  0  0  0  0  0  0  0  0  0
  -24.2960   -1.1619  -13.8161 C   0  0  0  0  0  0  0  0  0  0  0  0
  -24.0148    0.2780  -13.3672 C   0  0  0  0  0  0  0  0  0  0  0  0
  -22.9616    0.9356  -14.1786 N   0  0  0  0  0  0  0  0  0  0  0  0
  -22.6731    2.2974  -13.6986 C   0  0  0  0  0  0  0  0  0  0  0  0
  -21.5862    2.9799  -14.5279 C   0  0  0  0  0  0  0  0  0  0  0  0
  -20.3138    2.1484  -14.5505 C   0  0  0  0  0  0  0  0  0  0  0  0
  -20.6253    0.7337  -15.0197 C   0  0  0  0  0  0  0  0  0  0  0  0
  -21.7436    0.1068  -14.1833 C   0  0  0  0  0  0  0  0  0  0  0  0
  -29.5799   -2.7541   -4.5720 N   0  0  0  0  0  0  0  0  0  0  0  0
  -30.5854   -2.9028   -4.5328 H   0  0  0  0  0  0  0  0  0  0  0  0
  -28.9040   -3.1671   -3.3385 C   0  0  0  0  0  0  0  0  0  0  0  0
  -28.2194   -4.5341   -3.5831 C   0  0  0  0  0  0  0  0  0  0  0  0
  -28.8229   -5.3818   -4.6312 N   0  0  0  0  0  0  0  0  0  0  0  0
  -30.2334   -5.6858   -4.2854 C   0  0  0  0  0  0  0  0  0  0  0  0
  -30.4106   -6.7188   -3.1451 C   0  0  0  0  0  0  0  0  0  0  0  0
  -29.6528   -7.9667   -3.3523 N   0  0  0  0  0  0  0  0  0  0  0  0
  -28.2492   -7.6596   -3.6732 C   0  0  0  0  0  0  0  0  0  0  0  0
  -28.1084   -6.6574   -4.8395 C   0  0  0  0  0  0  0  0  0  0  0  0
  -30.0569   -8.4444   -4.1587 H   0  0  0  0  0  0  0  0  0  0  0  0
 10 11  1  0  0  0
 10 15  2  0  0  0
 11 12  2  0  0  0
 12 13  1  0  0  0
 13  1  1  0  0  0
 13 14  2  0  0  0
  1  2  2  0  0  0
  1  9  1  0  0  0
  2 16  1  0  0  0
  2  3  1  0  0  0
 16 17  1  0  0  0
 16 21  2  0  0  0
 17 18  2  0  0  0
 18 19  1  0  0  0
 19 22  1  0  0  0
 19 20  2  0  0  0
 22 23  1  0  0  0
 23 24  1  0  0  0
 24 25  1  0  0  0
 25 26  1  0  0  0
 25 30  1  0  0  0
 26 27  1  0  0  0
 27 28  1  0  0  0
 28 29  1  0  0  0
 29 30  1  0  0  0
 20 21  1  0  0  0
  3  4  1  0  0  0
  4  5  1  0  0  0
  4  9  2  0  0  0
  5  6  2  0  0  0
  6  7  1  0  0  0
  7  8  2  0  0  0
  8 31  1  0  0  0
  8  9  1  0  0  0
 31 33  1  0  0  0
 31 32  1  0  0  0
 33 34  1  0  0  0
 34 35  1  0  0  0
 35 36  1  0  0  0
 35 40  1  0  0  0
 36 37  1  0  0  0
 37 38  1  0  0  0
 38 39  1  0  0  0
 38 41  1  0  0  0
 39 40  1  0  0  0
 14 15  1  0  0  0
M  END
> <minimizedAffinity>
-8.66217

$$$$
