CHEMBL461293


 41 45  0  0  0  0  0  0  0  0999 V2000
  -25.8303   -2.0036  -10.0930 N   0  0  0  0  0  0  0  0  0  0  0  0
  -27.1936   -1.8019   -9.9306 C   0  0  0  0  0  0  0  0  0  0  0  0
  -27.8935   -1.1763  -10.7243 O   0  0  0  0  0  0  0  0  0  0  0  0
  -25.3084   -2.3408   -9.2828 H   0  0  0  0  0  0  0  0  0  0  0  0
  -23.6135   -0.8113  -13.5196 C   0  0  0  0  0  0  0  0  0  0  0  0
  -24.8971   -1.3318  -13.6705 C   0  0  0  0  0  0  0  0  0  0  0  0
  -25.6398   -1.7096  -12.5443 C   0  0  0  0  0  0  0  0  0  0  0  0
  -25.0904   -1.6641  -11.2555 C   0  0  0  0  0  0  0  0  0  0  0  0
  -23.7572   -1.2716  -11.1209 C   0  0  0  0  0  0  0  0  0  0  0  0
  -23.0419   -0.8302  -12.2433 C   0  0  0  0  0  0  0  0  0  0  0  0
  -21.7917   -0.3777  -12.0660 F   0  0  0  0  0  0  0  0  0  0  0  0
  -22.8670   -0.2420  -14.5330 O   0  0  0  0  0  0  0  0  0  0  0  0
  -18.2468    2.0529  -15.0163 C   0  0  0  0  0  0  0  0  0  0  0  0
  -18.6644    0.7688  -15.3296 C   0  0  0  0  0  0  0  0  0  0  0  0
  -20.0069    0.4352  -15.2121 C   0  0  0  0  0  0  0  0  0  0  0  0
  -20.9464    1.3381  -14.6686 C   0  0  0  0  0  0  0  0  0  0  0  0
  -22.2920    1.0089  -14.3728 C   0  0  0  0  0  0  0  0  0  0  0  0
  -23.1664    2.0002  -13.9359 C   0  0  0  0  0  0  0  0  0  0  0  0
  -22.6607    3.2679  -13.7325 C   0  0  0  0  0  0  0  0  0  0  0  0
  -21.3640    3.5974  -13.9174 N   0  0  0  0  0  0  0  0  0  0  0  0
  -20.5215    2.6519  -14.3708 C   0  0  0  0  0  0  0  0  0  0  0  0
  -19.1799    2.9800  -14.5459 C   0  0  0  0  0  0  0  0  0  0  0  0
  -16.7888    3.6675  -15.9105 C   0  0  0  0  0  0  0  0  0  0  0  0
  -16.9534    2.4876  -15.1253 O   0  0  0  0  0  0  0  0  0  0  0  0
  -27.8074   -2.3660   -8.7018 C   0  0  0  0  0  0  0  0  0  0  0  0
  -28.4186   -1.7043   -7.6927 C   0  0  0  0  0  0  0  0  0  0  0  0
  -28.5887   -0.2236   -7.5466 C   0  0  0  0  0  0  0  0  0  0  0  0
  -28.9446   -2.5796   -6.7340 N   0  0  0  0  0  0  0  0  0  0  0  0
  -28.5339   -3.8703   -7.0872 N   0  0  0  0  0  0  0  0  0  0  0  0
  -27.8960   -3.8082   -8.3343 C   0  0  0  0  0  0  0  0  0  0  0  0
  -27.4953   -4.7097   -9.0567 O   0  0  0  0  0  0  0  0  0  0  0  0
  -29.0734   -5.0510   -6.5354 C   0  0  0  0  0  0  0  0  0  0  0  0
  -30.1983   -5.6107   -7.1436 C   0  0  0  0  0  0  0  0  0  0  0  0
  -30.7145   -6.8273   -6.7018 C   0  0  0  0  0  0  0  0  0  0  0  0
  -30.1377   -7.4709   -5.6088 C   0  0  0  0  0  0  0  0  0  0  0  0
  -29.0402   -6.9013   -4.9637 C   0  0  0  0  0  0  0  0  0  0  0  0
  -28.4952   -5.7009   -5.4356 C   0  0  0  0  0  0  0  0  0  0  0  0
  -29.4020   -2.2457   -5.3764 C   0  0  0  0  0  0  0  0  0  0  0  0
  -28.3535   -2.2949   -4.2738 C   0  0  0  0  0  0  0  0  0  0  0  0
  -28.7194   -2.8633   -2.9292 C   0  0  0  0  0  0  0  0  0  0  0  0
  -27.1863   -1.9548   -4.4996 O   0  0  0  0  0  0  0  0  0  0  0  0
 23 24  1  0  0  0
 24 13  1  0  0  0
 13 14  1  0  0  0
 13 22  2  0  0  0
 14 15  2  0  0  0
 15 16  1  0  0  0
 16 17  1  0  0  0
 16 21  2  0  0  0
 17 12  1  0  0  0
 17 18  2  0  0  0
 12  5  1  0  0  0
  5  6  1  0  0  0
  5 10  2  0  0  0
  6  7  2  0  0  0
  7  8  1  0  0  0
  8  1  1  0  0  0
  8  9  2  0  0  0
  1  2  1  0  0  0
  1  4  1  0  0  0
  2  3  2  0  0  0
  2 25  1  0  0  0
 25 26  2  0  0  0
 25 30  1  0  0  0
 26 27  1  0  0  0
 26 28  1  0  0  0
 28 38  1  0  0  0
 28 29  1  0  0  0
 38 39  1  0  0  0
 39 40  1  0  0  0
 39 41  2  0  0  0
 29 32  1  0  0  0
 29 30  1  0  0  0
 32 33  1  0  0  0
 32 37  2  0  0  0
 33 34  2  0  0  0
 34 35  1  0  0  0
 35 36  2  0  0  0
 36 37  1  0  0  0
 30 31  2  0  0  0
  9 10  1  0  0  0
 10 11  1  0  0  0
 18 19  1  0  0  0
 19 20  2  0  0  0
 20 21  1  0  0  0
 21 22  1  0  0  0
M  END
> <minimizedAffinity>
-10.42681

$$$$
