CHEMBL3930516


 38 41  0  0  0  0  0  0  0  0999 V2000
  -21.3343    1.6744  -14.8558 C   0  0  0  0  0  0  0  0  0  0  0  0
  -22.1930    2.5723  -14.2068 C   0  0  0  0  0  0  0  0  0  0  0  0
  -23.0816    2.1286  -13.2200 C   0  0  0  0  0  0  0  0  0  0  0  0
  -23.1232    0.7789  -12.8714 C   0  0  0  0  0  0  0  0  0  0  0  0
  -22.3410   -0.1235  -13.6013 C   0  0  0  0  0  0  0  0  0  0  0  0
  -22.3923   -1.4393  -13.3470 F   0  0  0  0  0  0  0  0  0  0  0  0
  -21.4495    0.3128  -14.5877 C   0  0  0  0  0  0  0  0  0  0  0  0
  -18.1271    2.7528  -16.1725 N   0  0  0  0  0  0  0  0  0  0  0  0
  -19.0411    2.3778  -15.2084 C   0  0  0  0  0  0  0  0  0  0  0  0
  -18.7747    2.2198  -14.0171 O   0  0  0  0  0  0  0  0  0  0  0  0
  -20.3072    2.1305  -15.7252 N   0  0  0  0  0  0  0  0  0  0  0  0
  -18.5021    3.0634  -17.0520 H   0  0  0  0  0  0  0  0  0  0  0  0
  -20.3094    1.7538  -16.6619 H   0  0  0  0  0  0  0  0  0  0  0  0
  -14.4837    2.1451  -15.3519 C   0  0  0  0  0  0  0  0  0  0  0  0
  -15.8556    1.9244  -15.5971 C   0  0  0  0  0  0  0  0  0  0  0  0
  -16.7381    2.9538  -15.9518 C   0  0  0  0  0  0  0  0  0  0  0  0
  -16.2160    4.2396  -16.1069 C   0  0  0  0  0  0  0  0  0  0  0  0
  -14.8607    4.4867  -15.8508 C   0  0  0  0  0  0  0  0  0  0  0  0
  -14.0032    3.4525  -15.4550 C   0  0  0  0  0  0  0  0  0  0  0  0
  -12.3708    3.8748  -15.0886 Cl  0  0  0  0  0  0  0  0  0  0  0  0
  -13.1738    0.9540  -13.5492 C   0  0  0  0  0  0  0  0  0  0  0  0
  -13.6190    0.9507  -15.0043 C   0  0  0  0  0  0  0  0  0  0  0  0
  -12.5077    0.8411  -15.7877 F   0  0  0  0  0  0  0  0  0  0  0  0
  -14.2852   -0.2305  -15.2066 F   0  0  0  0  0  0  0  0  0  0  0  0
  -24.0041    0.4383  -11.8642 O   0  0  0  0  0  0  0  0  0  0  0  0
  -25.0155   -0.4751  -12.0931 C   0  0  0  0  0  0  0  0  0  0  0  0
  -25.5843   -0.7215  -13.3367 C   0  0  0  0  0  0  0  0  0  0  0  0
  -26.6281   -1.6184  -13.3962 C   0  0  0  0  0  0  0  0  0  0  0  0
  -27.0785   -2.3085  -12.3332 N   0  0  0  0  0  0  0  0  0  0  0  0
  -26.4887   -2.1291  -11.1412 C   0  0  0  0  0  0  0  0  0  0  0  0
  -25.4426   -1.2226  -10.9836 C   0  0  0  0  0  0  0  0  0  0  0  0
  -26.9401   -2.8717  -10.0302 N   0  0  0  0  0  0  0  0  0  0  0  0
  -27.7407   -2.3461   -9.0331 C   0  0  0  0  0  0  0  0  0  0  0  0
  -28.1528   -1.1930   -8.9418 O   0  0  0  0  0  0  0  0  0  0  0  0
  -26.6337   -3.8266   -9.9496 H   0  0  0  0  0  0  0  0  0  0  0  0
  -28.1424   -3.2652   -7.9239 C   0  0  0  0  0  0  0  0  0  0  0  0
  -29.5397   -3.8392   -7.8957 C   0  0  0  0  0  0  0  0  0  0  0  0
  -29.0628   -2.9601   -6.7740 C   0  0  0  0  0  0  0  0  0  0  0  0
 21 22  1  0  0  0
 22 23  1  0  0  0
 22 24  1  0  0  0
 22 14  1  0  0  0
 14 15  1  0  0  0
 14 19  2  0  0  0
 15 16  2  0  0  0
 16  8  1  0  0  0
 16 17  1  0  0  0
  8  9  1  0  0  0
  8 12  1  0  0  0
  9 10  2  0  0  0
  9 11  1  0  0  0
 11  1  1  0  0  0
 11 13  1  0  0  0
  1  2  1  0  0  0
  1  7  2  0  0  0
  2  3  2  0  0  0
  3  4  1  0  0  0
  4 25  1  0  0  0
  4  5  2  0  0  0
 25 26  1  0  0  0
 26 27  1  0  0  0
 26 31  2  0  0  0
 27 28  2  0  0  0
 28 29  1  0  0  0
 29 30  2  0  0  0
 30 32  1  0  0  0
 30 31  1  0  0  0
 32 33  1  0  0  0
 32 35  1  0  0  0
 33 34  2  0  0  0
 33 36  1  0  0  0
 36 37  1  0  0  0
 36 38  1  0  0  0
 37 38  1  0  0  0
  5  6  1  0  0  0
  5  7  1  0  0  0
 17 18  2  0  0  0
 18 19  1  0  0  0
 19 20  1  0  0  0
M  END
> <minimizedAffinity>
-9.34225

$$$$
