CHEMBL498105


 34 37  0  0  0  0  0  0  0  0999 V2000
  -14.4772    4.1533  -18.0555 C   0  0  0  0  0  0  0  0  0  0  0  0
  -15.8374    3.9358  -17.7350 C   0  0  0  0  0  0  0  0  0  0  0  0
  -16.2113    3.0976  -16.6653 C   0  0  0  0  0  0  0  0  0  0  0  0
  -15.2163    2.4670  -15.9371 C   0  0  0  0  0  0  0  0  0  0  0  0
  -13.8764    2.7218  -16.2619 C   0  0  0  0  0  0  0  0  0  0  0  0
  -13.4785    3.5539  -17.2862 C   0  0  0  0  0  0  0  0  0  0  0  0
  -13.0184    1.9815  -15.4662 N   0  0  0  0  0  0  0  0  0  0  0  0
  -13.7164    1.1403  -14.6245 C   0  0  0  0  0  0  0  0  0  0  0  0
  -13.2180    0.2281  -13.9931 O   0  0  0  0  0  0  0  0  0  0  0  0
  -15.1759    1.5232  -14.7992 C   0  0  0  0  0  0  0  0  0  0  0  0
  -16.1317    1.0221  -13.9833 C   0  0  0  0  0  0  0  0  0  0  0  0
  -12.0174    1.9150  -15.5717 H   0  0  0  0  0  0  0  0  0  0  0  0
  -17.5638    1.1444  -14.3293 C   0  0  0  0  0  0  0  0  0  0  0  0
  -18.2695    2.2936  -13.9423 C   0  0  0  0  0  0  0  0  0  0  0  0
  -19.6083    2.4568  -14.3018 C   0  0  0  0  0  0  0  0  0  0  0  0
  -20.2534    1.4762  -15.0548 C   0  0  0  0  0  0  0  0  0  0  0  0
  -19.5536    0.3397  -15.4546 C   0  0  0  0  0  0  0  0  0  0  0  0
  -18.2149    0.1697  -15.0943 C   0  0  0  0  0  0  0  0  0  0  0  0
  -14.0289    4.9581  -19.2245 C   0  0  0  0  0  0  0  0  0  0  0  0
  -12.8889    4.9272  -19.6583 O   0  0  0  0  0  0  0  0  0  0  0  0
  -14.8044    7.0686  -19.8363 C   0  0  0  0  0  0  0  0  0  0  0  0
  -15.0593    5.6649  -19.7490 O   0  0  0  0  0  0  0  0  0  0  0  0
  -15.9177    0.3169  -12.8054 N   0  0  0  0  0  0  0  0  0  0  0  0
  -15.4747    0.8374  -12.0554 H   0  0  0  0  0  0  0  0  0  0  0  0
  -15.7704   -1.0879  -12.6884 C   0  0  0  0  0  0  0  0  0  0  0  0
  -15.7134   -1.9453  -13.7965 C   0  0  0  0  0  0  0  0  0  0  0  0
  -15.7875   -3.3333  -13.6488 C   0  0  0  0  0  0  0  0  0  0  0  0
  -15.8999   -3.9073  -12.3784 C   0  0  0  0  0  0  0  0  0  0  0  0
  -15.8919   -3.0625  -11.2610 C   0  0  0  0  0  0  0  0  0  0  0  0
  -15.8338   -1.6708  -11.4162 C   0  0  0  0  0  0  0  0  0  0  0  0
  -16.1182   -5.3981  -12.2186 C   0  0  0  0  0  0  0  0  0  0  0  0
  -15.0308   -6.2405  -12.7499 N   0  0  0  0  0  0  0  0  0  0  0  0
  -14.2948   -6.9113  -11.6764 C   0  0  0  0  0  0  0  0  0  0  0  0
  -15.5895   -7.2428  -13.6621 C   0  0  0  0  0  0  0  0  0  0  0  0
 21 22  1  0  0  0
 22 19  1  0  0  0
 19 20  2  0  0  0
 19  1  1  0  0  0
  1  2  1  0  0  0
  1  6  2  0  0  0
  2  3  2  0  0  0
  3  4  1  0  0  0
  4  5  2  0  0  0
  4 10  1  0  0  0
  5  6  1  0  0  0
  5  7  1  0  0  0
  7  8  1  0  0  0
  7 12  1  0  0  0
  8  9  2  0  0  0
  8 10  1  0  0  0
 10 11  2  0  0  0
 11 23  1  0  0  0
 11 13  1  0  0  0
 23 25  1  0  0  0
 23 24  1  0  0  0
 25 26  1  0  0  0
 25 30  2  0  0  0
 26 27  2  0  0  0
 27 28  1  0  0  0
 28 31  1  0  0  0
 28 29  2  0  0  0
 31 32  1  0  0  0
 32 33  1  0  0  0
 32 34  1  0  0  0
 29 30  1  0  0  0
 13 14  1  0  0  0
 13 18  2  0  0  0
 14 15  2  0  0  0
 15 16  1  0  0  0
 16 17  2  0  0  0
 17 18  1  0  0  0
M  END
> <minimizedAffinity>
-7.77997

$$$$
