CHEMBL3939133


 34 37  0  0  0  0  0  0  0  0999 V2000
  -29.7770   -7.3776   -5.6123 C   0  0  0  0  0  0  0  0  0  0  0  0
  -29.2962   -8.6650   -5.8543 C   0  0  0  0  0  0  0  0  0  0  0  0
  -28.0182   -9.0756   -5.4064 C   0  0  0  0  0  0  0  0  0  0  0  0
  -27.4462  -10.3270   -5.6479 C   0  0  0  0  0  0  0  0  0  0  0  0
  -26.2617  -10.6886   -5.1175 N   0  0  0  0  0  0  0  0  0  0  0  0
  -25.6290   -9.7771   -4.3770 C   0  0  0  0  0  0  0  0  0  0  0  0
  -26.0508   -8.5342   -4.1406 N   0  0  0  0  0  0  0  0  0  0  0  0
  -27.2410   -8.2035   -4.6520 C   0  0  0  0  0  0  0  0  0  0  0  0
  -27.7478   -6.9489   -4.3976 C   0  0  0  0  0  0  0  0  0  0  0  0
  -29.0209   -6.5312   -4.7912 C   0  0  0  0  0  0  0  0  0  0  0  0
  -31.6556   -7.7993   -7.0319 C   0  0  0  0  0  0  0  0  0  0  0  0
  -30.9585   -6.9223   -6.1387 O   0  0  0  0  0  0  0  0  0  0  0  0
  -28.1151  -11.2264   -6.5298 N   0  0  0  0  0  0  0  0  0  0  0  0
  -28.9409  -11.5858   -6.0594 H   0  0  0  0  0  0  0  0  0  0  0  0
  -28.3474  -10.9340   -7.8906 C   0  0  0  0  0  0  0  0  0  0  0  0
  -29.4633  -11.4824   -8.5384 C   0  0  0  0  0  0  0  0  0  0  0  0
  -29.6695  -11.2760   -9.9004 C   0  0  0  0  0  0  0  0  0  0  0  0
  -28.7635  -10.5053  -10.6261 C   0  0  0  0  0  0  0  0  0  0  0  0
  -29.0452  -10.3400  -12.3241 Cl  0  0  0  0  0  0  0  0  0  0  0  0
  -27.6692   -9.9217   -9.9835 C   0  0  0  0  0  0  0  0  0  0  0  0
  -26.5125   -8.9510  -10.8250 Cl  0  0  0  0  0  0  0  0  0  0  0  0
  -27.4709  -10.1258   -8.6166 C   0  0  0  0  0  0  0  0  0  0  0  0
  -29.4919   -5.2991   -4.3953 O   0  0  0  0  0  0  0  0  0  0  0  0
  -28.5420   -4.4945   -3.6403 C   0  0  0  0  0  0  0  0  0  0  0  0
  -28.1101   -3.2474   -4.4265 C   0  0  0  0  0  0  0  0  0  0  0  0
  -29.1958   -2.6935   -5.3808 C   0  0  0  0  0  0  0  0  0  0  0  0
  -28.7927   -2.8463   -6.8680 C   0  0  0  0  0  0  0  0  0  0  0  0
  -27.8263   -1.8071   -7.2602 N   0  0  0  0  0  0  0  0  0  0  0  0
  -27.3243   -2.0175   -8.6125 C   0  0  0  0  0  0  0  0  0  0  0  0
  -28.5263   -0.5166   -7.1474 C   0  0  0  0  0  0  0  0  0  0  0  0
  -28.9644   -0.2467   -5.6854 C   0  0  0  0  0  0  0  0  0  0  0  0
  -27.7642    0.1754   -4.8408 C   0  0  0  0  0  0  0  0  0  0  0  0
  -29.9535    0.9331   -5.6802 C   0  0  0  0  0  0  0  0  0  0  0  0
  -29.6522   -1.3607   -5.0662 O   0  0  0  0  0  0  0  0  0  0  0  0
 11 12  1  0  0  0
 12  1  1  0  0  0
  1  2  1  0  0  0
  1 10  2  0  0  0
  2  3  2  0  0  0
  3  4  1  0  0  0
  3  8  1  0  0  0
  4 13  1  0  0  0
  4  5  2  0  0  0
 13 15  1  0  0  0
 13 14  1  0  0  0
 15 16  1  0  0  0
 15 22  2  0  0  0
 16 17  2  0  0  0
 17 18  1  0  0  0
 18 19  1  0  0  0
 18 20  2  0  0  0
 20 21  1  0  0  0
 20 22  1  0  0  0
  5  6  1  0  0  0
  6  7  2  0  0  0
  7  8  1  0  0  0
  8  9  2  0  0  0
  9 10  1  0  0  0
 10 23  1  0  0  0
 23 24  1  0  0  0
 24 25  1  0  0  0
 25 26  1  0  0  0
 26 27  1  0  0  0
 26 34  1  0  0  0
 27 28  1  0  0  0
 28 29  1  0  0  0
 28 30  1  0  0  0
 30 31  1  0  0  0
 31 32  1  0  0  0
 31 33  1  0  0  0
 31 34  1  0  0  0
M  END
> <minimizedAffinity>
-7.99106

$$$$
