CHEMBL3656067


 51 54  0  0  0  0  0  0  0  0999 V2000
  -13.6031    0.1788  -18.7516 C   0  0  0  0  0  0  0  0  0  0  0  0
  -14.1372    0.8337  -17.6474 C   0  0  0  0  0  0  0  0  0  0  0  0
  -14.0823    2.2222  -17.5974 C   0  0  0  0  0  0  0  0  0  0  0  0
  -13.6087    2.9170  -18.7032 C   0  0  0  0  0  0  0  0  0  0  0  0
  -13.1387    2.1823  -19.7826 C   0  0  0  0  0  0  0  0  0  0  0  0
  -13.1030    0.8287  -19.8269 N   0  0  0  0  0  0  0  0  0  0  0  0
  -13.2137   -3.4990  -18.3164 C   0  0  0  0  0  0  0  0  0  0  0  0
  -13.4867   -3.3621  -19.6662 C   0  0  0  0  0  0  0  0  0  0  0  0
  -13.6468   -2.0205  -19.9397 N   0  0  0  0  0  0  0  0  0  0  0  0
  -13.5071   -1.2761  -18.7894 C   0  0  0  0  0  0  0  0  0  0  0  0
  -13.2322   -2.1798  -17.7816 C   0  0  0  0  0  0  0  0  0  0  0  0
  -13.8272   -1.6090  -20.8479 H   0  0  0  0  0  0  0  0  0  0  0  0
  -13.3902   -4.6907  -16.2267 N   0  0  0  0  0  0  0  0  0  0  0  0
  -12.9311   -4.6850  -17.5198 C   0  0  0  0  0  0  0  0  0  0  0  0
  -12.2836   -5.6217  -17.9806 O   0  0  0  0  0  0  0  0  0  0  0  0
  -13.8604   -3.8784  -15.8456 H   0  0  0  0  0  0  0  0  0  0  0  0
  -13.0916   -5.8216  -15.3435 C   0  0  0  0  0  0  0  0  0  0  0  0
  -14.2619   -6.8088  -15.4150 C   0  0  0  0  0  0  0  0  0  0  0  0
  -15.3431   -6.6455  -14.8621 O   0  0  0  0  0  0  0  0  0  0  0  0
  -13.1396   -8.9027  -15.5466 C   0  0  0  0  0  0  0  0  0  0  0  0
  -13.9122   -7.8790  -16.1758 O   0  0  0  0  0  0  0  0  0  0  0  0
  -12.8194   -5.3300  -13.9102 C   0  0  0  0  0  0  0  0  0  0  0  0
  -12.8032   -3.8158  -13.7182 C   0  0  0  0  0  0  0  0  0  0  0  0
  -13.4243   -3.3519  -12.4220 C   0  0  0  0  0  0  0  0  0  0  0  0
  -13.0910   -2.3135  -11.8691 O   0  0  0  0  0  0  0  0  0  0  0  0
  -14.3519   -4.2379  -11.9749 O   0  0  0  0  0  0  0  0  0  0  0  0
  -15.7630   -3.8942  -12.0198 C   0  0  0  0  0  0  0  0  0  0  0  0
  -16.6386   -5.1447  -11.8678 C   0  0  0  0  0  0  0  0  0  0  0  0
  -16.0087   -2.9772  -10.8111 C   0  0  0  0  0  0  0  0  0  0  0  0
  -16.1013   -3.1034  -13.2902 C   0  0  0  0  0  0  0  0  0  0  0  0
  -14.5032    2.9650  -16.5077 O   0  0  0  0  0  0  0  0  0  0  0  0
  -15.7734    2.7803  -16.0093 C   0  0  0  0  0  0  0  0  0  0  0  0
  -16.9076    3.3922  -16.5430 C   0  0  0  0  0  0  0  0  0  0  0  0
  -18.1551    3.2267  -15.9395 C   0  0  0  0  0  0  0  0  0  0  0  0
  -18.3144    2.4038  -14.8230 C   0  0  0  0  0  0  0  0  0  0  0  0
  -17.1906    1.7093  -14.3630 C   0  0  0  0  0  0  0  0  0  0  0  0
  -17.3100    0.8722  -13.3205 F   0  0  0  0  0  0  0  0  0  0  0  0
  -15.9251    1.8986  -14.9369 C   0  0  0  0  0  0  0  0  0  0  0  0
  -19.5546    2.2623  -14.1426 N   0  0  0  0  0  0  0  0  0  0  0  0
  -20.3646    1.1363  -14.1886 C   0  0  0  0  0  0  0  0  0  0  0  0
  -20.0937    0.1051  -14.7942 O   0  0  0  0  0  0  0  0  0  0  0  0
  -21.5657    1.3164  -13.5168 N   0  0  0  0  0  0  0  0  0  0  0  0
  -19.9016    3.0863  -13.6698 H   0  0  0  0  0  0  0  0  0  0  0  0
  -21.9270    2.2576  -13.5457 H   0  0  0  0  0  0  0  0  0  0  0  0
  -22.5361    0.2818  -13.5021 C   0  0  0  0  0  0  0  0  0  0  0  0
  -22.5543   -0.6008  -12.4225 C   0  0  0  0  0  0  0  0  0  0  0  0
  -23.5473   -1.5787  -12.3373 C   0  0  0  0  0  0  0  0  0  0  0  0
  -24.4897   -1.7176  -13.3576 C   0  0  0  0  0  0  0  0  0  0  0  0
  -24.4568   -0.8712  -14.4700 C   0  0  0  0  0  0  0  0  0  0  0  0
  -25.4336   -1.0458  -15.5966 C   0  0  0  0  0  0  0  0  0  0  0  0
  -23.4840    0.1393  -14.5264 C   0  0  0  0  0  0  0  0  0  0  0  0
 20 21  1  0  0  0
 21 18  1  0  0  0
 18 19  2  0  0  0
 17 13  1  0  0  0
 17 22  1  0  0  0
 17 18  1  0  0  0
 22 23  1  0  0  0
 23 24  1  0  0  0
 24 25  2  0  0  0
 24 26  1  0  0  0
 26 27  1  0  0  0
 27 28  1  0  0  0
 27 29  1  0  0  0
 27 30  1  0  0  0
 13 14  1  0  0  0
 13 16  1  0  0  0
 14 15  2  0  0  0
 14  7  1  0  0  0
  7  8  2  0  0  0
  7 11  1  0  0  0
  8  9  1  0  0  0
  9 10  1  0  0  0
  9 12  1  0  0  0
 10  1  1  0  0  0
 10 11  2  0  0  0
  1  2  1  0  0  0
  1  6  2  0  0  0
  2  3  2  0  0  0
  3 31  1  0  0  0
  3  4  1  0  0  0
 31 32  1  0  0  0
 32 33  1  0  0  0
 32 38  2  0  0  0
 33 34  2  0  0  0
 34 35  1  0  0  0
 35 39  1  0  0  0
 35 36  2  0  0  0
 39 40  1  0  0  0
 39 43  1  0  0  0
 40 41  2  0  0  0
 40 42  1  0  0  0
 42 45  1  0  0  0
 42 44  1  0  0  0
 45 46  1  0  0  0
 45 51  2  0  0  0
 46 47  2  0  0  0
 47 48  1  0  0  0
 48 49  2  0  0  0
 49 50  1  0  0  0
 49 51  1  0  0  0
 36 37  1  0  0  0
 36 38  1  0  0  0
  4  5  2  0  0  0
  5  6  1  0  0  0
M  END
> <minimizedAffinity>
-8.82243

$$$$
