CHEMBL150581


 23 25  0  0  0  0  0  0  0  0999 V2000
  -27.7898   -1.6467   -5.5339 C   0  0  0  0  0  0  0  0  0  0  0  0
  -28.0824   -2.5158   -4.4669 C   0  0  0  0  0  0  0  0  0  0  0  0
  -28.5519   -3.8044   -4.6603 C   0  0  0  0  0  0  0  0  0  0  0  0
  -28.6951   -4.5991   -3.5944 N   0  0  0  0  0  0  0  0  0  0  0  0
  -29.0402   -5.8675   -3.8387 C   0  0  0  0  0  0  0  0  0  0  0  0
  -29.2454   -6.4026   -5.0431 N   0  0  0  0  0  0  0  0  0  0  0  0
  -29.1164   -5.5889   -6.1069 C   0  0  0  0  0  0  0  0  0  0  0  0
  -28.7992   -4.2311   -5.9655 C   0  0  0  0  0  0  0  0  0  0  0  0
  -28.6472   -3.3214   -7.0334 C   0  0  0  0  0  0  0  0  0  0  0  0
  -28.1399   -2.0357   -6.8333 C   0  0  0  0  0  0  0  0  0  0  0  0
  -28.0702    0.6258   -4.9474 C   0  0  0  0  0  0  0  0  0  0  0  0
  -27.1860   -0.4388   -5.3167 O   0  0  0  0  0  0  0  0  0  0  0  0
  -29.2065   -6.1561   -7.4043 N   0  0  0  0  0  0  0  0  0  0  0  0
  -29.3579   -5.4435   -8.1124 H   0  0  0  0  0  0  0  0  0  0  0  0
  -29.8863   -7.3614   -7.6900 C   0  0  0  0  0  0  0  0  0  0  0  0
  -31.1981   -7.5728   -7.2392 C   0  0  0  0  0  0  0  0  0  0  0  0
  -31.9057   -8.7158   -7.6000 C   0  0  0  0  0  0  0  0  0  0  0  0
  -31.2994   -9.6812   -8.4080 C   0  0  0  0  0  0  0  0  0  0  0  0
  -29.9763   -9.5134   -8.8184 C   0  0  0  0  0  0  0  0  0  0  0  0
  -29.2792   -8.3657   -8.4484 C   0  0  0  0  0  0  0  0  0  0  0  0
  -28.0101   -8.2103   -8.8582 F   0  0  0  0  0  0  0  0  0  0  0  0
  -28.0326   -1.3535   -8.0124 O   0  0  0  0  0  0  0  0  0  0  0  0
  -27.6269   -2.0335   -9.1864 C   0  0  0  0  0  0  0  0  0  0  0  0
 11 12  1  0  0  0
 12  1  1  0  0  0
  1  2  1  0  0  0
  1 10  2  0  0  0
  2  3  2  0  0  0
  3  4  1  0  0  0
  3  8  1  0  0  0
  4  5  2  0  0  0
  5  6  1  0  0  0
  6  7  2  0  0  0
  7 13  1  0  0  0
  7  8  1  0  0  0
 13 15  1  0  0  0
 13 14  1  0  0  0
 15 16  1  0  0  0
 15 20  2  0  0  0
 16 17  2  0  0  0
 17 18  1  0  0  0
 18 19  2  0  0  0
 19 20  1  0  0  0
 20 21  1  0  0  0
  8  9  2  0  0  0
  9 10  1  0  0  0
 10 22  1  0  0  0
 22 23  1  0  0  0
M  END
> <minimizedAffinity>
-7.57259

$$$$
