CHEMBL4797262


 36 40  0  0  0  0  0  0  0  0999 V2000
  -28.9485   -8.5993   -5.4008 C   0  0  0  0  0  0  0  0  0  0  0  0
  -27.8798   -8.3448   -4.6504 N   0  0  0  0  0  0  0  0  0  0  0  0
  -26.7984   -9.1032   -4.8967 C   0  0  0  0  0  0  0  0  0  0  0  0
  -26.7470  -10.0305   -5.9160 C   0  0  0  0  0  0  0  0  0  0  0  0
  -27.8754  -10.1729   -6.6961 C   0  0  0  0  0  0  0  0  0  0  0  0
  -28.9908   -9.4908   -6.4050 N   0  0  0  0  0  0  0  0  0  0  0  0
  -31.3525   -6.1803   -4.4225 O   0  0  0  0  0  0  0  0  0  0  0  0
  -30.2412   -6.5837   -4.7667 C   0  0  0  0  0  0  0  0  0  0  0  0
  -29.1432   -5.7962   -4.9998 N   0  0  0  0  0  0  0  0  0  0  0  0
  -30.0995   -7.9097   -5.0620 N   0  0  0  0  0  0  0  0  0  0  0  0
  -28.3275   -6.2971   -5.3391 H   0  0  0  0  0  0  0  0  0  0  0  0
  -30.9549   -8.4385   -5.1225 H   0  0  0  0  0  0  0  0  0  0  0  0
  -29.0450   -4.3970   -4.9373 C   0  0  0  0  0  0  0  0  0  0  0  0
  -28.3737   -3.7191   -3.9208 C   0  0  0  0  0  0  0  0  0  0  0  0
  -28.3134   -2.3219   -3.9261 C   0  0  0  0  0  0  0  0  0  0  0  0
  -28.9351   -1.6011   -4.9427 C   0  0  0  0  0  0  0  0  0  0  0  0
  -28.8725    0.1171   -4.9371 Cl  0  0  0  0  0  0  0  0  0  0  0  0
  -29.6100   -2.2655   -5.9623 C   0  0  0  0  0  0  0  0  0  0  0  0
  -29.6594   -3.6615   -5.9605 C   0  0  0  0  0  0  0  0  0  0  0  0
  -27.8572  -10.9814   -7.8156 N   0  0  0  0  0  0  0  0  0  0  0  0
  -26.6403  -11.0635   -8.6425 C   0  0  0  0  0  0  0  0  0  0  0  0
  -26.8215  -10.3818  -10.0034 C   0  0  0  0  0  0  0  0  0  0  0  0
  -28.0102  -10.8311  -10.6720 O   0  0  0  0  0  0  0  0  0  0  0  0
  -29.1667  -10.5495   -9.8713 C   0  0  0  0  0  0  0  0  0  0  0  0
  -29.1122  -11.2772   -8.5183 C   0  0  0  0  0  0  0  0  0  0  0  0
  -25.3778   -8.8565   -3.8469 S   0  0  0  0  0  0  0  0  0  0  0  0
  -24.4786  -10.3512   -4.0393 C   0  0  0  0  0  0  0  0  0  0  0  0
  -24.5677  -11.4845   -3.2631 C   0  0  0  0  0  0  0  0  0  0  0  0
  -23.6781  -12.4029   -3.7561 N   0  0  0  0  0  0  0  0  0  0  0  0
  -23.0088  -11.8842   -4.8411 C   0  0  0  0  0  0  0  0  0  0  0  0
  -22.0226  -12.4653   -5.6489 C   0  0  0  0  0  0  0  0  0  0  0  0
  -21.4926  -11.6915   -6.6838 C   0  0  0  0  0  0  0  0  0  0  0  0
  -21.9288  -10.3868   -6.8980 C   0  0  0  0  0  0  0  0  0  0  0  0
  -22.9183   -9.8213   -6.0834 C   0  0  0  0  0  0  0  0  0  0  0  0
  -23.4792  -10.5826   -5.0334 C   0  0  0  0  0  0  0  0  0  0  0  0
  -23.5183  -13.3245   -3.3729 H   0  0  0  0  0  0  0  0  0  0  0  0
  7  8  2  0  0  0
  8  9  1  0  0  0
  8 10  1  0  0  0
  9 13  1  0  0  0
  9 11  1  0  0  0
 13 14  1  0  0  0
 13 19  2  0  0  0
 14 15  2  0  0  0
 15 16  1  0  0  0
 16 17  1  0  0  0
 16 18  2  0  0  0
 18 19  1  0  0  0
 10  1  1  0  0  0
 10 12  1  0  0  0
  1  2  1  0  0  0
  1  6  2  0  0  0
  2  3  2  0  0  0
  3 26  1  0  0  0
  3  4  1  0  0  0
 26 27  1  0  0  0
 27 28  2  0  0  0
 27 35  1  0  0  0
 28 29  1  0  0  0
 29 30  1  0  0  0
 29 36  1  0  0  0
 30 31  1  0  0  0
 30 35  2  0  0  0
 31 32  2  0  0  0
 32 33  1  0  0  0
 33 34  2  0  0  0
 34 35  1  0  0  0
  4  5  2  0  0  0
  5 20  1  0  0  0
  5  6  1  0  0  0
 20 21  1  0  0  0
 20 25  1  0  0  0
 21 22  1  0  0  0
 22 23  1  0  0  0
 23 24  1  0  0  0
 24 25  1  0  0  0
M  END
> <minimizedAffinity>
-9.27650

$$$$
