CHEMBL214665


 32 36  0  0  0  0  0  0  0  0999 V2000
  -15.4581    0.5720  -14.0303 C   0  0  0  0  0  0  0  0  0  0  0  0
  -15.8881   -0.7232  -13.7666 C   0  0  0  0  0  0  0  0  0  0  0  0
  -15.0052   -1.7041  -13.3298 C   0  0  0  0  0  0  0  0  0  0  0  0
  -13.5896   -1.4195  -13.3477 C   0  0  0  0  0  0  0  0  0  0  0  0
  -12.4994   -2.3149  -13.1256 C   0  0  0  0  0  0  0  0  0  0  0  0
  -11.2123   -1.9168  -13.1354 N   0  0  0  0  0  0  0  0  0  0  0  0
  -10.9772   -0.6396  -13.4350 C   0  0  0  0  0  0  0  0  0  0  0  0
  -11.9012    0.2818  -13.6958 N   0  0  0  0  0  0  0  0  0  0  0  0
  -13.1735   -0.1139  -13.6646 C   0  0  0  0  0  0  0  0  0  0  0  0
  -14.1039    0.8582  -13.9776 C   0  0  0  0  0  0  0  0  0  0  0  0
  -17.5401    0.9376  -15.0852 C   0  0  0  0  0  0  0  0  0  0  0  0
  -16.4424    1.4694  -14.3456 O   0  0  0  0  0  0  0  0  0  0  0  0
  -12.7414   -3.6938  -12.9214 N   0  0  0  0  0  0  0  0  0  0  0  0
  -12.7061   -3.9097  -11.9295 H   0  0  0  0  0  0  0  0  0  0  0  0
  -12.4213   -4.7996  -13.7385 C   0  0  0  0  0  0  0  0  0  0  0  0
  -12.7803   -4.9664  -15.0933 C   0  0  0  0  0  0  0  0  0  0  0  0
  -13.7085   -3.8043  -15.9835 Cl  0  0  0  0  0  0  0  0  0  0  0  0
  -12.4971   -6.1728  -15.7889 C   0  0  0  0  0  0  0  0  0  0  0  0
  -11.8625   -7.2389  -15.1503 C   0  0  0  0  0  0  0  0  0  0  0  0
  -11.4964   -7.0581  -13.8368 C   0  0  0  0  0  0  0  0  0  0  0  0
  -11.7572   -5.8841  -13.1603 C   0  0  0  0  0  0  0  0  0  0  0  0
  -11.3092   -5.9385  -11.8675 O   0  0  0  0  0  0  0  0  0  0  0  0
  -10.6976   -7.2471  -11.8423 C   0  0  0  0  0  0  0  0  0  0  0  0
  -10.8760   -7.9876  -13.0626 O   0  0  0  0  0  0  0  0  0  0  0  0
  -15.3798   -2.9515  -12.9398 O   0  0  0  0  0  0  0  0  0  0  0  0
  -16.1679   -3.3830  -11.8155 C   0  0  0  0  0  0  0  0  0  0  0  0
  -16.0193   -2.8430  -10.3910 C   0  0  0  0  0  0  0  0  0  0  0  0
  -14.7944   -3.3888   -9.6555 C   0  0  0  0  0  0  0  0  0  0  0  0
  -14.7206   -4.8552   -9.6779 N   0  0  0  0  0  0  0  0  0  0  0  0
  -13.4411   -5.2804   -9.0929 C   0  0  0  0  0  0  0  0  0  0  0  0
  -14.8601   -5.4088  -11.0303 C   0  0  0  0  0  0  0  0  0  0  0  0
  -16.1174   -4.9142  -11.7463 C   0  0  0  0  0  0  0  0  0  0  0  0
 11 12  1  0  0  0
 12  1  1  0  0  0
  1  2  1  0  0  0
  1 10  2  0  0  0
  2  3  2  0  0  0
  3 25  1  0  0  0
  3  4  1  0  0  0
 25 26  1  0  0  0
 26 27  1  0  0  0
 26 32  1  0  0  0
 27 28  1  0  0  0
 28 29  1  0  0  0
 29 30  1  0  0  0
 29 31  1  0  0  0
 31 32  1  0  0  0
  4  5  1  0  0  0
  4  9  2  0  0  0
  5 13  1  0  0  0
  5  6  2  0  0  0
 13 15  1  0  0  0
 13 14  1  0  0  0
 15 16  1  0  0  0
 15 21  2  0  0  0
 16 17  1  0  0  0
 16 18  2  0  0  0
 18 19  1  0  0  0
 19 20  2  0  0  0
 20 21  1  0  0  0
 20 24  1  0  0  0
 21 22  1  0  0  0
 22 23  1  0  0  0
 23 24  1  0  0  0
  6  7  1  0  0  0
  7  8  2  0  0  0
  8  9  1  0  0  0
  9 10  1  0  0  0
M  END
> <minimizedAffinity>
-6.86243

$$$$
