CHEMBL381104


 24 27  0  0  0  0  0  0  0  0999 V2000
  -30.8429   -8.7512   -7.3688 C   0  0  0  0  0  0  0  0  0  0  0  0
  -30.9237   -7.3254   -7.2631 C   0  0  0  0  0  0  0  0  0  0  0  0
  -29.9352   -6.9233   -6.3867 C   0  0  0  0  0  0  0  0  0  0  0  0
  -29.4698   -5.6907   -5.8609 C   0  0  0  0  0  0  0  0  0  0  0  0
  -28.4854   -5.6448   -5.0258 N   0  0  0  0  0  0  0  0  0  0  0  0
  -27.8805   -6.8319   -4.7041 C   0  0  0  0  0  0  0  0  0  0  0  0
  -28.2029   -8.0107   -5.1371 N   0  0  0  0  0  0  0  0  0  0  0  0
  -29.2501   -8.0255   -5.9780 N   0  0  0  0  0  0  0  0  0  0  0  0
  -29.7842   -9.1351   -6.5625 C   0  0  0  0  0  0  0  0  0  0  0  0
  -31.6505   -9.6888   -8.1435 C   0  0  0  0  0  0  0  0  0  0  0  0
  -32.8582   -9.5633   -8.2909 O   0  0  0  0  0  0  0  0  0  0  0  0
  -31.4758  -11.9987   -8.4290 C   0  0  0  0  0  0  0  0  0  0  0  0
  -30.9148  -10.7062   -8.6742 O   0  0  0  0  0  0  0  0  0  0  0  0
  -30.1438   -4.5829   -6.3580 O   0  0  0  0  0  0  0  0  0  0  0  0
  -29.4415   -3.3563   -6.4463 C   0  0  0  0  0  0  0  0  0  0  0  0
  -28.5337   -3.1199   -7.4815 C   0  0  0  0  0  0  0  0  0  0  0  0
  -27.8840   -1.8919   -7.5993 C   0  0  0  0  0  0  0  0  0  0  0  0
  -28.2167   -0.8975   -6.6776 C   0  0  0  0  0  0  0  0  0  0  0  0
  -27.7549    0.3952   -6.5759 N   0  0  0  0  0  0  0  0  0  0  0  0
  -28.3775    1.0385   -5.5423 C   0  0  0  0  0  0  0  0  0  0  0  0
  -29.2437    0.1439   -4.9500 C   0  0  0  0  0  0  0  0  0  0  0  0
  -29.1491   -1.0902   -5.6560 C   0  0  0  0  0  0  0  0  0  0  0  0
  -29.7763   -2.3504   -5.5320 C   0  0  0  0  0  0  0  0  0  0  0  0
  -27.0657    0.8046   -7.1919 H   0  0  0  0  0  0  0  0  0  0  0  0
 12 13  1  0  0  0
 13 10  1  0  0  0
 10 11  2  0  0  0
 10  1  1  0  0  0
  1  2  1  0  0  0
  1  9  2  0  0  0
  2  3  2  0  0  0
  3  4  1  0  0  0
  3  8  1  0  0  0
  4 14  1  0  0  0
  4  5  2  0  0  0
 14 15  1  0  0  0
 15 16  1  0  0  0
 15 23  2  0  0  0
 16 17  2  0  0  0
 17 18  1  0  0  0
 18 19  1  0  0  0
 18 22  2  0  0  0
 19 20  1  0  0  0
 19 24  1  0  0  0
 20 21  2  0  0  0
 21 22  1  0  0  0
 22 23  1  0  0  0
  5  6  1  0  0  0
  6  7  2  0  0  0
  7  8  1  0  0  0
  8  9  1  0  0  0
M  END
> <minimizedAffinity>
-7.94242

$$$$
