CHEMBL3892005


 40 44  0  0  0  0  0  0  0  0999 V2000
  -15.4632    1.6171  -15.2674 N   0  0  0  0  0  0  0  0  0  0  0  0
  -16.8777    1.7823  -15.4332 C   0  0  0  0  0  0  0  0  0  0  0  0
  -17.2751    2.9825  -16.0244 C   0  0  0  0  0  0  0  0  0  0  0  0
  -18.5396    3.4866  -15.7991 C   0  0  0  0  0  0  0  0  0  0  0  0
  -19.4814    2.7754  -15.0973 C   0  0  0  0  0  0  0  0  0  0  0  0
  -20.5900    3.4585  -14.7878 N   0  0  0  0  0  0  0  0  0  0  0  0
  -21.5698    2.7658  -14.1943 C   0  0  0  0  0  0  0  0  0  0  0  0
  -21.4909    1.4012  -14.0036 C   0  0  0  0  0  0  0  0  0  0  0  0
  -20.3256    0.7099  -14.2315 N   0  0  0  0  0  0  0  0  0  0  0  0
  -19.2502    1.4284  -14.7289 C   0  0  0  0  0  0  0  0  0  0  0  0
  -17.9018    0.9614  -14.8945 C   0  0  0  0  0  0  0  0  0  0  0  0
  -22.7303    0.7173  -13.6806 C   0  0  0  0  0  0  0  0  0  0  0  0
  -23.4918    0.7454  -12.4843 C   0  0  0  0  0  0  0  0  0  0  0  0
  -24.4737   -0.1645  -12.4750 N   0  0  0  0  0  0  0  0  0  0  0  0
  -24.3434   -0.7707  -13.6675 N   0  0  0  0  0  0  0  0  0  0  0  0
  -25.4193   -1.5696  -14.2037 C   0  0  0  0  0  0  0  0  0  0  0  0
  -23.2059   -0.4054  -14.3334 C   0  0  0  0  0  0  0  0  0  0  0  0
  -13.6919    0.8812  -18.4837 C   0  0  0  0  0  0  0  0  0  0  0  0
  -12.4928    1.5435  -18.2757 C   0  0  0  0  0  0  0  0  0  0  0  0
  -12.2060    2.0843  -17.0196 C   0  0  0  0  0  0  0  0  0  0  0  0
  -13.1563    2.0248  -15.9904 C   0  0  0  0  0  0  0  0  0  0  0  0
  -14.4101    1.4525  -16.1985 C   0  0  0  0  0  0  0  0  0  0  0  0
  -14.5977    0.7735  -17.4276 C   0  0  0  0  0  0  0  0  0  0  0  0
  -13.1610    0.3742  -20.7381 C   0  0  0  0  0  0  0  0  0  0  0  0
  -14.1013    0.3277  -19.6671 O   0  0  0  0  0  0  0  0  0  0  0  0
  -11.0409    2.7210  -16.6834 O   0  0  0  0  0  0  0  0  0  0  0  0
  -10.9691    4.1094  -16.9877 C   0  0  0  0  0  0  0  0  0  0  0  0
  -15.1759    1.2559  -13.8383 C   0  0  0  0  0  0  0  0  0  0  0  0
  -14.9728   -0.2424  -13.5874 C   0  0  0  0  0  0  0  0  0  0  0  0
  -14.1036   -0.8299  -14.2355 O   0  0  0  0  0  0  0  0  0  0  0  0
  -15.8338   -0.8314  -12.6958 N   0  0  0  0  0  0  0  0  0  0  0  0
  -16.6225   -0.3285  -12.3260 H   0  0  0  0  0  0  0  0  0  0  0  0
  -15.8079   -2.1569  -12.3207 C   0  0  0  0  0  0  0  0  0  0  0  0
  -16.1676   -3.0377  -13.2655 N   0  0  0  0  0  0  0  0  0  0  0  0
  -16.1112   -4.3383  -12.9206 C   0  0  0  0  0  0  0  0  0  0  0  0
  -15.7469   -4.7742  -11.6766 C   0  0  0  0  0  0  0  0  0  0  0  0
  -15.4347   -3.7819  -10.7820 C   0  0  0  0  0  0  0  0  0  0  0  0
  -15.4541   -2.4834  -11.0867 N   0  0  0  0  0  0  0  0  0  0  0  0
  -15.0891   -4.1447   -9.4945 O   0  0  0  0  0  0  0  0  0  0  0  0
  -13.7473   -3.7626   -9.1693 C   0  0  0  0  0  0  0  0  0  0  0  0
 24 25  1  0  0  0
 25 18  1  0  0  0
 18 19  1  0  0  0
 18 23  2  0  0  0
 19 20  2  0  0  0
 20 26  1  0  0  0
 20 21  1  0  0  0
 26 27  1  0  0  0
 21 22  2  0  0  0
 22  1  1  0  0  0
 22 23  1  0  0  0
  1 28  1  0  0  0
  1  2  1  0  0  0
 28 29  1  0  0  0
 29 30  2  0  0  0
 29 31  1  0  0  0
 31 33  1  0  0  0
 31 32  1  0  0  0
 33 34  1  0  0  0
 33 38  2  0  0  0
 34 35  2  0  0  0
 35 36  1  0  0  0
 36 37  2  0  0  0
 37 39  1  0  0  0
 37 38  1  0  0  0
 39 40  1  0  0  0
  2  3  1  0  0  0
  2 11  2  0  0  0
  3  4  2  0  0  0
  4  5  1  0  0  0
  5  6  1  0  0  0
  5 10  2  0  0  0
  6  7  2  0  0  0
  7  8  1  0  0  0
  8 12  1  0  0  0
  8  9  2  0  0  0
 12 13  1  0  0  0
 12 17  2  0  0  0
 13 14  2  0  0  0
 14 15  1  0  0  0
 15 16  1  0  0  0
 15 17  1  0  0  0
  9 10  1  0  0  0
 10 11  1  0  0  0
M  END
> <minimizedAffinity>
-9.03756

$$$$
