CHEMBL3287315


 44 48  0  0  0  0  0  0  0  0999 V2000
  -29.7896   -8.2216   -6.3899 C   0  0  0  0  0  0  0  0  0  0  0  0
  -29.5447   -7.6864   -5.1220 C   0  0  0  0  0  0  0  0  0  0  0  0
  -29.0831   -6.3779   -4.9796 C   0  0  0  0  0  0  0  0  0  0  0  0
  -28.8047   -5.5964   -6.0997 C   0  0  0  0  0  0  0  0  0  0  0  0
  -29.0000   -6.1451   -7.3739 C   0  0  0  0  0  0  0  0  0  0  0  0
  -29.4814   -7.4522   -7.5089 C   0  0  0  0  0  0  0  0  0  0  0  0
  -29.6496   -7.9515   -8.7427 F   0  0  0  0  0  0  0  0  0  0  0  0
  -28.3574   -4.2654   -6.0032 N   0  0  0  0  0  0  0  0  0  0  0  0
  -29.1335   -3.1261   -6.1084 C   0  0  0  0  0  0  0  0  0  0  0  0
  -30.3500   -3.0501   -6.2061 O   0  0  0  0  0  0  0  0  0  0  0  0
  -27.3603   -4.1277   -5.8812 H   0  0  0  0  0  0  0  0  0  0  0  0
  -28.3448   -1.8532   -6.0978 C   0  0  0  0  0  0  0  0  0  0  0  0
  -27.2195   -1.6967   -5.0673 C   0  0  0  0  0  0  0  0  0  0  0  0
  -28.4987   -0.9461   -4.8826 C   0  0  0  0  0  0  0  0  0  0  0  0
  -28.0518   -1.3335   -7.4660 C   0  0  0  0  0  0  0  0  0  0  0  0
  -28.2037   -0.1313   -7.6531 O   0  0  0  0  0  0  0  0  0  0  0  0
  -27.6423   -2.2528   -8.4166 N   0  0  0  0  0  0  0  0  0  0  0  0
  -27.8637   -3.2283   -8.2655 H   0  0  0  0  0  0  0  0  0  0  0  0
  -27.2627   -1.8414   -9.7110 C   0  0  0  0  0  0  0  0  0  0  0  0
  -28.2122   -1.7098  -10.7321 C   0  0  0  0  0  0  0  0  0  0  0  0
  -27.8156   -1.4017  -12.0331 C   0  0  0  0  0  0  0  0  0  0  0  0
  -26.4637   -1.2410  -12.3226 C   0  0  0  0  0  0  0  0  0  0  0  0
  -25.5170   -1.3346  -11.3006 C   0  0  0  0  0  0  0  0  0  0  0  0
  -25.9175   -1.5990   -9.9863 C   0  0  0  0  0  0  0  0  0  0  0  0
  -30.3122   -9.4909   -6.5637 O   0  0  0  0  0  0  0  0  0  0  0  0
  -27.8154  -11.9418   -5.8753 C   0  0  0  0  0  0  0  0  0  0  0  0
  -27.4446  -12.3693   -7.0879 N   0  0  0  0  0  0  0  0  0  0  0  0
  -28.1332  -11.8731   -8.1427 C   0  0  0  0  0  0  0  0  0  0  0  0
  -29.1393  -10.9393   -8.0429 C   0  0  0  0  0  0  0  0  0  0  0  0
  -29.3858  -10.5081   -6.7709 C   0  0  0  0  0  0  0  0  0  0  0  0
  -28.7597  -11.0171   -5.7039 N   0  0  0  0  0  0  0  0  0  0  0  0
  -27.1798  -12.4660   -4.7486 N   0  0  0  0  0  0  0  0  0  0  0  0
  -27.8348  -12.9374   -4.1440 H   0  0  0  0  0  0  0  0  0  0  0  0
  -23.5327  -11.7257   -4.4576 C   0  0  0  0  0  0  0  0  0  0  0  0
  -23.4596  -11.2302   -3.1494 C   0  0  0  0  0  0  0  0  0  0  0  0
  -24.6036  -11.1482   -2.3720 C   0  0  0  0  0  0  0  0  0  0  0  0
  -25.8237  -11.5712   -2.8926 C   0  0  0  0  0  0  0  0  0  0  0  0
  -25.9408  -12.0980   -4.1882 C   0  0  0  0  0  0  0  0  0  0  0  0
  -24.7752  -12.1585   -4.9659 C   0  0  0  0  0  0  0  0  0  0  0  0
  -22.2894  -11.7720   -5.3013 C   0  0  0  0  0  0  0  0  0  0  0  0
  -20.8302  -10.3059   -7.1277 C   0  0  0  0  0  0  0  0  0  0  0  0
  -22.5086  -10.7608   -6.7611 S   0  0  0  0  0  0  0  0  0  0  0  0
  -23.2049   -9.5407   -6.3987 O   0  0  0  0  0  0  0  0  0  0  0  0
  -22.9540  -11.5957   -7.8607 O   0  0  0  0  0  0  0  0  0  0  0  0
 41 42  1  0  0  0
 42 43  2  0  0  0
 42 44  2  0  0  0
 42 40  1  0  0  0
 40 34  1  0  0  0
 34 35  1  0  0  0
 34 39  2  0  0  0
 35 36  2  0  0  0
 36 37  1  0  0  0
 37 38  2  0  0  0
 38 32  1  0  0  0
 38 39  1  0  0  0
 32 26  1  0  0  0
 32 33  1  0  0  0
 26 27  1  0  0  0
 26 31  2  0  0  0
 27 28  2  0  0  0
 28 29  1  0  0  0
 29 30  2  0  0  0
 30 25  1  0  0  0
 30 31  1  0  0  0
 25  1  1  0  0  0
  1  2  1  0  0  0
  1  6  2  0  0  0
  2  3  2  0  0  0
  3  4  1  0  0  0
  4  8  1  0  0  0
  4  5  2  0  0  0
  8  9  1  0  0  0
  8 11  1  0  0  0
  9 10  2  0  0  0
  9 12  1  0  0  0
 12 15  1  0  0  0
 12 13  1  0  0  0
 12 14  1  0  0  0
 15 16  2  0  0  0
 15 17  1  0  0  0
 17 19  1  0  0  0
 17 18  1  0  0  0
 19 20  1  0  0  0
 19 24  2  0  0  0
 20 21  2  0  0  0
 21 22  1  0  0  0
 22 23  2  0  0  0
 23 24  1  0  0  0
 13 14  1  0  0  0
  5  6  1  0  0  0
  6  7  1  0  0  0
M  END
> <minimizedAffinity>
-8.46693

$$$$
