CHEMBL202389


 38 41  0  0  0  0  0  0  0  0999 V2000
  -27.6626   -2.6186   -8.3318 C   0  0  0  0  0  0  0  0  0  0  0  0
  -27.5162   -3.9158   -8.6453 C   0  0  0  0  0  0  0  0  0  0  0  0
  -28.3810   -4.9664   -8.0792 C   0  0  0  0  0  0  0  0  0  0  0  0
  -28.3207   -6.1155   -8.5097 O   0  0  0  0  0  0  0  0  0  0  0  0
  -29.3639   -4.6030   -7.0043 C   0  0  0  0  0  0  0  0  0  0  0  0
  -29.4002   -3.3160   -6.6311 C   0  0  0  0  0  0  0  0  0  0  0  0
  -28.5889   -2.2468   -7.2372 C   0  0  0  0  0  0  0  0  0  0  0  0
  -28.6972   -1.0944   -6.8342 O   0  0  0  0  0  0  0  0  0  0  0  0
  -30.1139   -5.6760   -6.5323 N   0  0  0  0  0  0  0  0  0  0  0  0
  -31.0197   -5.7424   -6.9928 H   0  0  0  0  0  0  0  0  0  0  0  0
  -30.0000   -6.3483   -5.2996 C   0  0  0  0  0  0  0  0  0  0  0  0
  -30.5744   -5.7827   -4.2210 N   0  0  0  0  0  0  0  0  0  0  0  0
  -30.3673   -6.3412   -3.0305 C   0  0  0  0  0  0  0  0  0  0  0  0
  -29.6464   -7.4329   -2.8078 N   0  0  0  0  0  0  0  0  0  0  0  0
  -29.0724   -7.9905   -3.8714 C   0  0  0  0  0  0  0  0  0  0  0  0
  -28.2839   -9.0975   -3.6294 C   0  0  0  0  0  0  0  0  0  0  0  0
  -27.5653   -9.7582   -4.6321 C   0  0  0  0  0  0  0  0  0  0  0  0
  -27.6979   -9.3117   -5.9527 C   0  0  0  0  0  0  0  0  0  0  0  0
  -28.5177   -8.1985   -6.2141 C   0  0  0  0  0  0  0  0  0  0  0  0
  -29.1996   -7.5055   -5.1764 C   0  0  0  0  0  0  0  0  0  0  0  0
  -27.1185   -9.8107   -7.0890 O   0  0  0  0  0  0  0  0  0  0  0  0
  -27.8071   -9.6790   -8.3243 C   0  0  0  0  0  0  0  0  0  0  0  0
  -26.7367  -10.8187   -4.3557 O   0  0  0  0  0  0  0  0  0  0  0  0
  -25.7926  -10.6367   -3.2981 C   0  0  0  0  0  0  0  0  0  0  0  0
  -24.6410   -9.7616   -3.7673 C   0  0  0  0  0  0  0  0  0  0  0  0
  -23.8471  -10.5251   -4.6751 O   0  0  0  0  0  0  0  0  0  0  0  0
  -23.6916   -9.8673   -5.9226 C   0  0  0  0  0  0  0  0  0  0  0  0
  -26.9577   -1.5726   -8.9167 O   0  0  0  0  0  0  0  0  0  0  0  0
  -24.9972   -1.7920  -11.9986 C   0  0  0  0  0  0  0  0  0  0  0  0
  -26.0169   -1.7256  -12.9563 C   0  0  0  0  0  0  0  0  0  0  0  0
  -27.3512   -1.5421  -12.5858 C   0  0  0  0  0  0  0  0  0  0  0  0
  -27.6919   -1.4333  -11.2434 C   0  0  0  0  0  0  0  0  0  0  0  0
  -26.7051   -1.5723  -10.2686 C   0  0  0  0  0  0  0  0  0  0  0  0
  -25.3632   -1.6827  -10.6485 C   0  0  0  0  0  0  0  0  0  0  0  0
  -23.6369   -1.8339  -12.3352 N   0  0  0  0  0  0  0  0  0  0  0  0
  -23.4790   -2.3011  -13.2248 H   0  0  0  0  0  0  0  0  0  0  0  0
  -22.5687   -0.0089  -13.5470 C   0  0  0  0  0  0  0  0  0  0  0  0
  -22.8463   -0.6168  -12.1820 C   0  0  0  0  0  0  0  0  0  0  0  0
 37 38  1  0  0  0
 38 35  1  0  0  0
 35 29  1  0  0  0
 35 36  1  0  0  0
 29 30  1  0  0  0
 29 34  2  0  0  0
 30 31  2  0  0  0
 31 32  1  0  0  0
 32 33  2  0  0  0
 33 28  1  0  0  0
 33 34  1  0  0  0
 28  1  1  0  0  0
  1  2  2  0  0  0
  1  7  1  0  0  0
  2  3  1  0  0  0
  3  4  2  0  0  0
  3  5  1  0  0  0
  5  9  1  0  0  0
  5  6  2  0  0  0
  9 11  1  0  0  0
  9 10  1  0  0  0
 11 12  1  0  0  0
 11 20  2  0  0  0
 12 13  2  0  0  0
 13 14  1  0  0  0
 14 15  2  0  0  0
 15 16  1  0  0  0
 15 20  1  0  0  0
 16 17  2  0  0  0
 17 23  1  0  0  0
 17 18  1  0  0  0
 23 24  1  0  0  0
 24 25  1  0  0  0
 25 26  1  0  0  0
 26 27  1  0  0  0
 18 21  1  0  0  0
 18 19  2  0  0  0
 21 22  1  0  0  0
 19 20  1  0  0  0
  6  7  1  0  0  0
  7  8  2  0  0  0
M  END
> <minimizedAffinity>
-7.71860

$$$$
