CHEMBL3656074


 50 54  0  0  0  0  0  0  0  0999 V2000
  -28.0934   -1.9624   -8.9839 C   0  0  0  0  0  0  0  0  0  0  0  0
  -27.7529   -0.8782   -8.1736 C   0  0  0  0  0  0  0  0  0  0  0  0
  -27.6761   -1.0880   -6.8081 C   0  0  0  0  0  0  0  0  0  0  0  0
  -27.9560   -2.2637   -6.2069 N   0  0  0  0  0  0  0  0  0  0  0  0
  -28.3408   -3.2844   -7.0106 C   0  0  0  0  0  0  0  0  0  0  0  0
  -28.4267   -3.1748   -8.3923 C   0  0  0  0  0  0  0  0  0  0  0  0
  -28.6638   -4.5195   -6.3043 C   0  0  0  0  0  0  0  0  0  0  0  0
  -28.8818   -5.8096   -6.7576 C   0  0  0  0  0  0  0  0  0  0  0  0
  -29.1931   -6.6506   -5.6459 C   0  0  0  0  0  0  0  0  0  0  0  0
  -29.1295   -5.8298   -4.5326 C   0  0  0  0  0  0  0  0  0  0  0  0
  -28.8128   -4.5613   -4.9362 N   0  0  0  0  0  0  0  0  0  0  0  0
  -28.7036   -3.7490   -4.3401 H   0  0  0  0  0  0  0  0  0  0  0  0
  -29.5295   -8.0746   -5.6092 C   0  0  0  0  0  0  0  0  0  0  0  0
  -30.3622   -8.5741   -6.3591 O   0  0  0  0  0  0  0  0  0  0  0  0
  -28.8267   -8.8046   -4.6761 N   0  0  0  0  0  0  0  0  0  0  0  0
  -28.1821   -8.3373   -4.0588 H   0  0  0  0  0  0  0  0  0  0  0  0
  -29.0140  -10.2276   -4.5009 C   0  0  0  0  0  0  0  0  0  0  0  0
  -27.8273  -11.0444   -5.0180 C   0  0  0  0  0  0  0  0  0  0  0  0
  -27.9013  -11.4260   -6.5015 C   0  0  0  0  0  0  0  0  0  0  0  0
  -27.1934  -10.4425   -7.4210 C   0  0  0  0  0  0  0  0  0  0  0  0
  -26.0635  -10.0298   -7.1599 O   0  0  0  0  0  0  0  0  0  0  0  0
  -27.8733  -10.0289   -8.5581 N   0  0  0  0  0  0  0  0  0  0  0  0
  -29.1822  -10.5105   -9.0026 C   0  0  0  0  0  0  0  0  0  0  0  0
  -29.0870  -11.1291  -10.3988 C   0  0  0  0  0  0  0  0  0  0  0  0
  -28.4189  -10.1784  -11.3919 C   0  0  0  0  0  0  0  0  0  0  0  0
  -27.0628   -9.6964  -10.8696 C   0  0  0  0  0  0  0  0  0  0  0  0
  -26.5119   -8.7520  -11.7833 O   0  0  0  0  0  0  0  0  0  0  0  0
  -27.2163   -9.0895   -9.4682 C   0  0  0  0  0  0  0  0  0  0  0  0
  -27.1151   -7.9931  -11.8443 H   0  0  0  0  0  0  0  0  0  0  0  0
  -28.1748   -1.8985  -10.3557 O   0  0  0  0  0  0  0  0  0  0  0  0
  -24.8108   -1.2950  -12.7639 C   0  0  0  0  0  0  0  0  0  0  0  0
  -24.6526   -1.3610  -11.3752 C   0  0  0  0  0  0  0  0  0  0  0  0
  -25.7526   -1.5789  -10.5457 C   0  0  0  0  0  0  0  0  0  0  0  0
  -27.0320   -1.6764  -11.0946 C   0  0  0  0  0  0  0  0  0  0  0  0
  -27.1912   -1.6144  -12.4828 C   0  0  0  0  0  0  0  0  0  0  0  0
  -26.0869   -1.3976  -13.3184 C   0  0  0  0  0  0  0  0  0  0  0  0
  -21.9044   -0.0156  -14.5057 N   0  0  0  0  0  0  0  0  0  0  0  0
  -22.9183   -0.0309  -13.5647 C   0  0  0  0  0  0  0  0  0  0  0  0
  -23.1209    0.8382  -12.7310 O   0  0  0  0  0  0  0  0  0  0  0  0
  -23.6728   -1.2027  -13.6066 N   0  0  0  0  0  0  0  0  0  0  0  0
  -21.7318   -0.8734  -15.0059 H   0  0  0  0  0  0  0  0  0  0  0  0
  -23.1197   -2.0421  -13.6945 H   0  0  0  0  0  0  0  0  0  0  0  0
  -17.2295    1.3081  -15.4517 C   0  0  0  0  0  0  0  0  0  0  0  0
  -18.6443    1.6851  -15.1175 C   0  0  0  0  0  0  0  0  0  0  0  0
  -18.9718    3.0280  -14.9079 C   0  0  0  0  0  0  0  0  0  0  0  0
  -20.2849    3.3854  -14.6313 C   0  0  0  0  0  0  0  0  0  0  0  0
  -21.2720    2.4067  -14.5417 C   0  0  0  0  0  0  0  0  0  0  0  0
  -22.5272    2.8531  -14.4122 F   0  0  0  0  0  0  0  0  0  0  0  0
  -20.9695    1.0427  -14.6771 C   0  0  0  0  0  0  0  0  0  0  0  0
  -19.6460    0.6989  -15.0037 C   0  0  0  0  0  0  0  0  0  0  0  0
 43 44  1  0  0  0
 44 45  1  0  0  0
 44 50  2  0  0  0
 45 46  2  0  0  0
 46 47  1  0  0  0
 47 48  1  0  0  0
 47 49  2  0  0  0
 49 37  1  0  0  0
 49 50  1  0  0  0
 37 38  1  0  0  0
 37 41  1  0  0  0
 38 39  2  0  0  0
 38 40  1  0  0  0
 40 31  1  0  0  0
 40 42  1  0  0  0
 31 32  1  0  0  0
 31 36  2  0  0  0
 32 33  2  0  0  0
 33 34  1  0  0  0
 34 30  1  0  0  0
 34 35  2  0  0  0
 30  1  1  0  0  0
  1  2  1  0  0  0
  1  6  2  0  0  0
  2  3  2  0  0  0
  3  4  1  0  0  0
  4  5  2  0  0  0
  5  7  1  0  0  0
  5  6  1  0  0  0
  7  8  2  0  0  0
  7 11  1  0  0  0
  8  9  1  0  0  0
  9 13  1  0  0  0
  9 10  2  0  0  0
 13 14  2  0  0  0
 13 15  1  0  0  0
 15 17  1  0  0  0
 15 16  1  0  0  0
 17 18  1  0  0  0
 18 19  1  0  0  0
 19 20  1  0  0  0
 20 21  2  0  0  0
 20 22  1  0  0  0
 22 23  1  0  0  0
 22 28  1  0  0  0
 23 24  1  0  0  0
 24 25  1  0  0  0
 25 26  1  0  0  0
 26 27  1  0  0  0
 26 28  1  0  0  0
 27 29  1  0  0  0
 10 11  1  0  0  0
 11 12  1  0  0  0
 35 36  1  0  0  0
M  END
> <minimizedAffinity>
-11.88137

$$$$
