CHEMBL47110


 27 30  0  0  0  0  0  0  0  0999 V2000
  -28.0616   -3.1085   -8.2314 C   0  0  0  0  0  0  0  0  0  0  0  0
  -27.8475   -4.3383   -8.7199 N   0  0  0  0  0  0  0  0  0  0  0  0
  -28.2208   -5.3936   -7.9837 C   0  0  0  0  0  0  0  0  0  0  0  0
  -28.8223   -5.2747   -6.7613 C   0  0  0  0  0  0  0  0  0  0  0  0
  -29.0437   -3.9785   -6.3470 C   0  0  0  0  0  0  0  0  0  0  0  0
  -28.6124   -2.8998   -7.0328 N   0  0  0  0  0  0  0  0  0  0  0  0
  -29.8108   -3.7655   -5.1665 N   0  0  0  0  0  0  0  0  0  0  0  0
  -30.6377   -4.6962   -4.5697 C   0  0  0  0  0  0  0  0  0  0  0  0
  -31.0684   -4.1226   -3.4036 C   0  0  0  0  0  0  0  0  0  0  0  0
  -30.5881   -2.8508   -3.2839 N   0  0  0  0  0  0  0  0  0  0  0  0
  -29.8801   -2.6108   -4.3852 C   0  0  0  0  0  0  0  0  0  0  0  0
  -29.3408   -1.2931   -4.7555 C   0  0  0  0  0  0  0  0  0  0  0  0
  -30.1352   -0.3376   -5.3805 C   0  0  0  0  0  0  0  0  0  0  0  0
  -29.5790    0.9069   -5.6741 C   0  0  0  0  0  0  0  0  0  0  0  0
  -28.2575    1.1655   -5.3268 C   0  0  0  0  0  0  0  0  0  0  0  0
  -27.5276    0.1489   -4.7408 C   0  0  0  0  0  0  0  0  0  0  0  0
  -28.0281   -1.0788   -4.4946 N   0  0  0  0  0  0  0  0  0  0  0  0
  -27.7738   -1.9647   -8.9809 N   0  0  0  0  0  0  0  0  0  0  0  0
  -28.3903   -1.2215   -8.6870 H   0  0  0  0  0  0  0  0  0  0  0  0
  -23.6771   -1.1822  -11.6374 C   0  0  0  0  0  0  0  0  0  0  0  0
  -25.1486   -1.4510  -11.6003 C   0  0  0  0  0  0  0  0  0  0  0  0
  -25.9073   -1.6076  -12.7581 C   0  0  0  0  0  0  0  0  0  0  0  0
  -27.2844   -1.8516  -12.6713 C   0  0  0  0  0  0  0  0  0  0  0  0
  -28.1088   -2.0097  -13.9149 C   0  0  0  0  0  0  0  0  0  0  0  0
  -27.8941   -1.9564  -11.4075 C   0  0  0  0  0  0  0  0  0  0  0  0
  -27.1453   -1.8299  -10.2280 C   0  0  0  0  0  0  0  0  0  0  0  0
  -25.7798   -1.5503  -10.3570 C   0  0  0  0  0  0  0  0  0  0  0  0
 20 21  1  0  0  0
 21 22  1  0  0  0
 21 27  2  0  0  0
 22 23  2  0  0  0
 23 24  1  0  0  0
 23 25  1  0  0  0
 25 26  2  0  0  0
 26 18  1  0  0  0
 26 27  1  0  0  0
 18  1  1  0  0  0
 18 19  1  0  0  0
  1  2  1  0  0  0
  1  6  2  0  0  0
  2  3  2  0  0  0
  3  4  1  0  0  0
  4  5  2  0  0  0
  5  7  1  0  0  0
  5  6  1  0  0  0
  7  8  1  0  0  0
  7 11  1  0  0  0
  8  9  2  0  0  0
  9 10  1  0  0  0
 10 11  2  0  0  0
 11 12  1  0  0  0
 12 13  1  0  0  0
 12 17  2  0  0  0
 13 14  2  0  0  0
 14 15  1  0  0  0
 15 16  2  0  0  0
 16 17  1  0  0  0
M  END
> <minimizedAffinity>
-8.92305

$$$$
