CHEMBL378941


 35 38  0  0  0  0  0  0  0  0999 V2000
  -23.3537   -1.0646  -13.3956 C   0  0  0  0  0  0  0  0  0  0  0  0
  -23.1290   -1.3821  -12.0507 C   0  0  0  0  0  0  0  0  0  0  0  0
  -24.1744   -1.8145  -11.2403 C   0  0  0  0  0  0  0  0  0  0  0  0
  -25.4760   -1.9377  -11.7349 C   0  0  0  0  0  0  0  0  0  0  0  0
  -25.7093   -1.6132  -13.0754 C   0  0  0  0  0  0  0  0  0  0  0  0
  -24.6549   -1.1815  -13.8989 C   0  0  0  0  0  0  0  0  0  0  0  0
  -26.5569   -2.4056  -10.9551 N   0  0  0  0  0  0  0  0  0  0  0  0
  -26.9206   -1.9128   -9.7126 C   0  0  0  0  0  0  0  0  0  0  0  0
  -26.4566   -0.9161   -9.1772 O   0  0  0  0  0  0  0  0  0  0  0  0
  -27.8644   -2.7264   -9.0956 N   0  0  0  0  0  0  0  0  0  0  0  0
  -27.1870   -3.0612  -11.3866 H   0  0  0  0  0  0  0  0  0  0  0  0
  -27.7531   -3.7105   -9.2927 H   0  0  0  0  0  0  0  0  0  0  0  0
  -28.3755   -2.3940   -7.8204 C   0  0  0  0  0  0  0  0  0  0  0  0
  -28.9112   -3.4052   -7.0250 C   0  0  0  0  0  0  0  0  0  0  0  0
  -29.3537   -3.1154   -5.7322 C   0  0  0  0  0  0  0  0  0  0  0  0
  -29.3131   -1.8053   -5.2514 C   0  0  0  0  0  0  0  0  0  0  0  0
  -28.8186   -0.7685   -6.0546 C   0  0  0  0  0  0  0  0  0  0  0  0
  -28.3340   -1.0807   -7.3356 C   0  0  0  0  0  0  0  0  0  0  0  0
  -28.8090    0.6609   -5.5731 C   0  0  0  0  0  0  0  0  0  0  0  0
  -27.9760    0.8687   -4.5131 F   0  0  0  0  0  0  0  0  0  0  0  0
  -28.4187    1.5463   -6.5296 F   0  0  0  0  0  0  0  0  0  0  0  0
  -30.0389    1.0760   -5.1564 F   0  0  0  0  0  0  0  0  0  0  0  0
  -22.1945   -0.6393  -14.2605 C   0  0  0  0  0  0  0  0  0  0  0  0
  -19.2187   -0.1679  -15.5062 N   0  0  0  0  0  0  0  0  0  0  0  0
  -19.5659    1.1308  -15.1877 C   0  0  0  0  0  0  0  0  0  0  0  0
  -18.6269    2.0638  -15.4461 N   0  0  0  0  0  0  0  0  0  0  0  0
  -18.9065    3.3551  -15.2044 C   0  0  0  0  0  0  0  0  0  0  0  0
  -20.0400    3.8626  -14.7159 N   0  0  0  0  0  0  0  0  0  0  0  0
  -20.9409    2.9021  -14.4565 C   0  0  0  0  0  0  0  0  0  0  0  0
  -22.4833    3.2328  -13.8288 S   0  0  0  0  0  0  0  0  0  0  0  0
  -22.9780    1.6593  -13.7475 N   0  0  0  0  0  0  0  0  0  0  0  0
  -22.0108    0.8589  -14.2130 C   0  0  0  0  0  0  0  0  0  0  0  0
  -20.7972    1.5352  -14.6432 C   0  0  0  0  0  0  0  0  0  0  0  0
  -18.2266   -0.2685  -15.6904 H   0  0  0  0  0  0  0  0  0  0  0  0
  -19.6877   -0.9452  -15.0736 H   0  0  0  0  0  0  0  0  0  0  0  0
 24 25  1  0  0  0
 24 34  1  0  0  0
 24 35  1  0  0  0
 25 26  1  0  0  0
 25 33  2  0  0  0
 26 27  2  0  0  0
 27 28  1  0  0  0
 28 29  2  0  0  0
 29 30  1  0  0  0
 29 33  1  0  0  0
 30 31  1  0  0  0
 31 32  2  0  0  0
 32 23  1  0  0  0
 32 33  1  0  0  0
 23  1  1  0  0  0
  1  2  1  0  0  0
  1  6  2  0  0  0
  2  3  2  0  0  0
  3  4  1  0  0  0
  4  7  1  0  0  0
  4  5  2  0  0  0
  7  8  1  0  0  0
  7 11  1  0  0  0
  8  9  2  0  0  0
  8 10  1  0  0  0
 10 13  1  0  0  0
 10 12  1  0  0  0
 13 14  1  0  0  0
 13 18  2  0  0  0
 14 15  2  0  0  0
 15 16  1  0  0  0
 16 17  2  0  0  0
 17 19  1  0  0  0
 17 18  1  0  0  0
 19 20  1  0  0  0
 19 21  1  0  0  0
 19 22  1  0  0  0
  5  6  1  0  0  0
M  END
> <minimizedAffinity>
-11.62799

$$$$
