CHEMBL1681931


 28 29  0  0  0  0  0  0  0  0999 V2000
  -15.2616   -4.4563  -12.3021 C   0  0  0  0  0  0  0  0  0  0  0  0
  -15.7346   -3.8129  -11.1540 C   0  0  0  0  0  0  0  0  0  0  0  0
  -15.9012   -2.4237  -11.1410 C   0  0  0  0  0  0  0  0  0  0  0  0
  -15.6063   -1.6701  -12.2783 C   0  0  0  0  0  0  0  0  0  0  0  0
  -15.1811   -2.3158  -13.4444 C   0  0  0  0  0  0  0  0  0  0  0  0
  -14.9716   -3.6951  -13.4426 C   0  0  0  0  0  0  0  0  0  0  0  0
  -14.4170   -4.4477  -14.8990 Cl  0  0  0  0  0  0  0  0  0  0  0  0
  -12.7550   -8.5637  -11.6921 C   0  0  0  0  0  0  0  0  0  0  0  0
  -13.9134   -7.7960  -12.0809 N   0  0  0  0  0  0  0  0  0  0  0  0
  -13.8442   -6.4206  -12.0276 C   0  0  0  0  0  0  0  0  0  0  0  0
  -12.8339   -5.8086  -11.6985 O   0  0  0  0  0  0  0  0  0  0  0  0
  -15.0666   -5.8570  -12.3220 N   0  0  0  0  0  0  0  0  0  0  0  0
  -14.4723   -8.1535  -12.8438 H   0  0  0  0  0  0  0  0  0  0  0  0
  -15.8395   -6.4052  -11.9616 H   0  0  0  0  0  0  0  0  0  0  0  0
  -15.8249   -0.3086  -12.1871 O   0  0  0  0  0  0  0  0  0  0  0  0
  -15.1519    0.5163  -13.0833 C   0  0  0  0  0  0  0  0  0  0  0  0
  -13.8893    0.8830  -12.7754 N   0  0  0  0  0  0  0  0  0  0  0  0
  -13.2428    1.5803  -13.7150 C   0  0  0  0  0  0  0  0  0  0  0  0
  -13.7416    1.9428  -14.9039 N   0  0  0  0  0  0  0  0  0  0  0  0
  -15.0189    1.5974  -15.1547 C   0  0  0  0  0  0  0  0  0  0  0  0
  -15.5261    2.1026  -16.3508 N   0  0  0  0  0  0  0  0  0  0  0  0
  -15.7928    0.8922  -14.2467 C   0  0  0  0  0  0  0  0  0  0  0  0
  -14.7685    2.4448  -16.9301 H   0  0  0  0  0  0  0  0  0  0  0  0
  -16.1500    1.4385  -16.8098 H   0  0  0  0  0  0  0  0  0  0  0  0
  -17.1880    0.5232  -14.5054 C   0  0  0  0  0  0  0  0  0  0  0  0
  -18.0359    1.3672  -15.0027 N   0  0  0  0  0  0  0  0  0  0  0  0
  -19.2879    0.7505  -15.1211 O   0  0  0  0  0  0  0  0  0  0  0  0
  -20.2391    1.5225  -14.3959 C   0  0  0  0  0  0  0  0  0  0  0  0
  8  9  1  0  0  0
  9 10  1  0  0  0
  9 13  1  0  0  0
 10 11  2  0  0  0
 10 12  1  0  0  0
 12  1  1  0  0  0
 12 14  1  0  0  0
  1  2  1  0  0  0
  1  6  2  0  0  0
  2  3  2  0  0  0
  3  4  1  0  0  0
  4 15  1  0  0  0
  4  5  2  0  0  0
 15 16  1  0  0  0
 16 17  1  0  0  0
 16 22  2  0  0  0
 17 18  2  0  0  0
 18 19  1  0  0  0
 19 20  2  0  0  0
 20 21  1  0  0  0
 20 22  1  0  0  0
 21 23  1  0  0  0
 21 24  1  0  0  0
 22 25  1  0  0  0
 25 26  2  0  0  0
 26 27  1  0  0  0
 27 28  1  0  0  0
  5  6  1  0  0  0
  6  7  1  0  0  0
M  END
> <minimizedAffinity>
-6.79871

$$$$
