CHEMBL3918739


 34 38  0  0  0  0  0  0  0  0999 V2000
  -29.7262   -6.7778   -5.7702 N   0  0  0  0  0  0  0  0  0  0  0  0
  -29.3590   -5.3828   -6.1011 C   0  0  0  0  0  0  0  0  0  0  0  0
  -29.6180   -4.2694   -5.2586 C   0  0  0  0  0  0  0  0  0  0  0  0
  -29.2157   -2.9794   -5.5504 C   0  0  0  0  0  0  0  0  0  0  0  0
  -28.5842   -2.7020   -6.7348 C   0  0  0  0  0  0  0  0  0  0  0  0
  -28.2279   -1.4273   -7.0084 N   0  0  0  0  0  0  0  0  0  0  0  0
  -27.6654   -1.1011   -8.1915 C   0  0  0  0  0  0  0  0  0  0  0  0
  -27.4551   -2.0941   -9.1548 C   0  0  0  0  0  0  0  0  0  0  0  0
  -27.7908   -3.3901   -8.8650 N   0  0  0  0  0  0  0  0  0  0  0  0
  -28.3549   -3.7208   -7.6644 C   0  0  0  0  0  0  0  0  0  0  0  0
  -28.7190   -5.0558   -7.3503 C   0  0  0  0  0  0  0  0  0  0  0  0
  -26.9196   -1.7323  -10.4808 C   0  0  0  0  0  0  0  0  0  0  0  0
  -27.6223   -1.6397  -11.6634 C   0  0  0  0  0  0  0  0  0  0  0  0
  -26.7813   -1.2512  -12.6426 N   0  0  0  0  0  0  0  0  0  0  0  0
  -25.5772   -1.0989  -12.1128 N   0  0  0  0  0  0  0  0  0  0  0  0
  -25.6206   -1.3800  -10.8012 C   0  0  0  0  0  0  0  0  0  0  0  0
  -24.7308   -0.7982  -12.6446 H   0  0  0  0  0  0  0  0  0  0  0  0
  -27.3888   -9.6899   -6.7600 C   0  0  0  0  0  0  0  0  0  0  0  0
  -26.7933   -9.9804   -5.5284 C   0  0  0  0  0  0  0  0  0  0  0  0
  -27.1221   -9.2572   -4.4175 C   0  0  0  0  0  0  0  0  0  0  0  0
  -26.5398   -9.5481   -3.2281 F   0  0  0  0  0  0  0  0  0  0  0  0
  -28.0617   -8.2466   -4.4957 C   0  0  0  0  0  0  0  0  0  0  0  0
  -28.7178   -7.8679   -5.7020 C   0  0  0  0  0  0  0  0  0  0  0  0
  -28.3222   -8.6230   -6.8479 C   0  0  0  0  0  0  0  0  0  0  0  0
  -25.8627  -11.0583   -8.0535 C   0  0  0  0  0  0  0  0  0  0  0  0
  -27.0903  -10.4390   -7.8574 O   0  0  0  0  0  0  0  0  0  0  0  0
  -31.1737   -7.0797   -5.8993 C   0  0  0  0  0  0  0  0  0  0  0  0
  -31.7238   -7.7299   -7.2057 C   0  0  0  0  0  0  0  0  0  0  0  0
  -32.9780   -8.6177   -7.1073 C   0  0  0  0  0  0  0  0  0  0  0  0
  -32.7499   -9.9376   -7.7705 N   0  0  0  0  0  0  0  0  0  0  0  0
  -32.7175  -11.0865   -6.8426 C   0  0  0  0  0  0  0  0  0  0  0  0
  -31.2605  -11.2792   -6.4862 C   0  0  0  0  0  0  0  0  0  0  0  0
  -30.6492  -11.1561   -7.8562 C   0  0  0  0  0  0  0  0  0  0  0  0
  -31.4307   -9.9827   -8.4537 C   0  0  0  0  0  0  0  0  0  0  0  0
 25 26  1  0  0  0
 26 18  1  0  0  0
 18 19  1  0  0  0
 18 24  2  0  0  0
 19 20  2  0  0  0
 20 21  1  0  0  0
 20 22  1  0  0  0
 22 23  2  0  0  0
 23  1  1  0  0  0
 23 24  1  0  0  0
  1 27  1  0  0  0
  1  2  1  0  0  0
 27 28  1  0  0  0
 28 29  1  0  0  0
 29 30  1  0  0  0
 30 31  1  0  0  0
 30 34  1  0  0  0
 31 32  1  0  0  0
 32 33  1  0  0  0
 33 34  1  0  0  0
  2  3  1  0  0  0
  2 11  2  0  0  0
  3  4  2  0  0  0
  4  5  1  0  0  0
  5  6  1  0  0  0
  5 10  2  0  0  0
  6  7  2  0  0  0
  7  8  1  0  0  0
  8 12  1  0  0  0
  8  9  2  0  0  0
 12 13  1  0  0  0
 12 16  2  0  0  0
 13 14  2  0  0  0
 14 15  1  0  0  0
 15 16  1  0  0  0
 15 17  1  0  0  0
  9 10  1  0  0  0
 10 11  1  0  0  0
M  END
> <minimizedAffinity>
-7.99818

$$$$
