CHEMBL150825


 27 29  0  0  0  0  0  0  0  0999 V2000
  -27.8597   -1.8156   -5.5769 C   0  0  0  0  0  0  0  0  0  0  0  0
  -28.4230   -2.5362   -4.5161 C   0  0  0  0  0  0  0  0  0  0  0  0
  -29.1115   -3.7168   -4.7054 C   0  0  0  0  0  0  0  0  0  0  0  0
  -29.6226   -4.3248   -3.6232 N   0  0  0  0  0  0  0  0  0  0  0  0
  -30.3105   -5.4780   -3.7405 N   0  0  0  0  0  0  0  0  0  0  0  0
  -30.4989   -5.9902   -4.9682 C   0  0  0  0  0  0  0  0  0  0  0  0
  -30.0326   -5.3918   -6.1380 C   0  0  0  0  0  0  0  0  0  0  0  0
  -29.2633   -4.2223   -6.0042 C   0  0  0  0  0  0  0  0  0  0  0  0
  -28.6765   -3.5158   -7.0855 C   0  0  0  0  0  0  0  0  0  0  0  0
  -27.9845   -2.3117   -6.8808 C   0  0  0  0  0  0  0  0  0  0  0  0
  -30.2936   -5.9554   -7.4159 N   0  0  0  0  0  0  0  0  0  0  0  0
  -30.0261   -5.3092   -8.1609 H   0  0  0  0  0  0  0  0  0  0  0  0
  -30.0157   -7.2970   -7.7734 C   0  0  0  0  0  0  0  0  0  0  0  0
  -28.7267   -7.6926   -8.1633 C   0  0  0  0  0  0  0  0  0  0  0  0
  -28.4815   -8.9993   -8.5874 C   0  0  0  0  0  0  0  0  0  0  0  0
  -29.5155   -9.9330   -8.5814 C   0  0  0  0  0  0  0  0  0  0  0  0
  -29.2198  -11.5279   -9.1508 Cl  0  0  0  0  0  0  0  0  0  0  0  0
  -30.7836   -9.5825   -8.1262 C   0  0  0  0  0  0  0  0  0  0  0  0
  -31.0184   -8.2734   -7.7181 C   0  0  0  0  0  0  0  0  0  0  0  0
  -32.2472   -7.9295   -7.3018 F   0  0  0  0  0  0  0  0  0  0  0  0
  -27.3945   -1.5901   -7.8870 O   0  0  0  0  0  0  0  0  0  0  0  0
  -27.6238   -2.0385   -9.2191 C   0  0  0  0  0  0  0  0  0  0  0  0
  -27.2009   -0.6125   -5.3969 O   0  0  0  0  0  0  0  0  0  0  0  0
  -28.0308    0.4585   -4.9474 C   0  0  0  0  0  0  0  0  0  0  0  0
  -28.7998    1.1168   -6.0807 C   0  0  0  0  0  0  0  0  0  0  0  0
  -31.0128    1.8004   -6.5719 C   0  0  0  0  0  0  0  0  0  0  0  0
  -30.1895    0.9668   -5.7753 O   0  0  0  0  0  0  0  0  0  0  0  0
 26 27  1  0  0  0
 27 25  1  0  0  0
 25 24  1  0  0  0
 24 23  1  0  0  0
 23  1  1  0  0  0
  1  2  1  0  0  0
  1 10  2  0  0  0
  2  3  2  0  0  0
  3  4  1  0  0  0
  3  8  1  0  0  0
  4  5  2  0  0  0
  5  6  1  0  0  0
  6  7  2  0  0  0
  7 11  1  0  0  0
  7  8  1  0  0  0
 11 13  1  0  0  0
 11 12  1  0  0  0
 13 14  1  0  0  0
 13 19  2  0  0  0
 14 15  2  0  0  0
 15 16  1  0  0  0
 16 17  1  0  0  0
 16 18  2  0  0  0
 18 19  1  0  0  0
 19 20  1  0  0  0
  8  9  2  0  0  0
  9 10  1  0  0  0
 10 21  1  0  0  0
 21 22  1  0  0  0
M  END
> <minimizedAffinity>
-7.64064

$$$$
