CHEMBL4217207


 31 34  0  0  0  0  0  0  0  0999 V2000
  -17.0696    1.9236  -15.9162 C   0  0  0  0  0  0  0  0  0  0  0  0
  -17.8305    3.0961  -15.9422 C   0  0  0  0  0  0  0  0  0  0  0  0
  -19.1232    3.1108  -15.4185 C   0  0  0  0  0  0  0  0  0  0  0  0
  -19.6851    1.9287  -14.9175 C   0  0  0  0  0  0  0  0  0  0  0  0
  -18.9494    0.7420  -14.9636 C   0  0  0  0  0  0  0  0  0  0  0  0
  -17.6451    0.7370  -15.4630 C   0  0  0  0  0  0  0  0  0  0  0  0
  -21.0256    1.9484  -14.3134 C   0  0  0  0  0  0  0  0  0  0  0  0
  -21.9302    2.8490  -14.5748 N   0  0  0  0  0  0  0  0  0  0  0  0
  -22.9644    2.5873  -13.7613 N   0  0  0  0  0  0  0  0  0  0  0  0
  -22.8535    1.3569  -12.9882 C   0  0  0  0  0  0  0  0  0  0  0  0
  -21.4499    0.8796  -13.3390 C   0  0  0  0  0  0  0  0  0  0  0  0
  -23.8881    2.8414  -14.1023 H   0  0  0  0  0  0  0  0  0  0  0  0
  -23.9154    0.3141  -13.2671 C   0  0  0  0  0  0  0  0  0  0  0  0
  -24.0004   -0.3529  -14.5001 C   0  0  0  0  0  0  0  0  0  0  0  0
  -24.8907   -1.4160  -14.6779 C   0  0  0  0  0  0  0  0  0  0  0  0
  -25.7191   -1.8193  -13.6317 C   0  0  0  0  0  0  0  0  0  0  0  0
  -25.6720   -1.1390  -12.4184 C   0  0  0  0  0  0  0  0  0  0  0  0
  -26.7785   -1.6960  -10.9890 Br  0  0  0  0  0  0  0  0  0  0  0  0
  -24.7885   -0.0739  -12.2354 C   0  0  0  0  0  0  0  0  0  0  0  0
  -15.7683    1.8495  -16.3595 O   0  0  0  0  0  0  0  0  0  0  0  0
  -13.2034    4.1359  -15.0096 C   0  0  0  0  0  0  0  0  0  0  0  0
  -14.2513    3.7090  -15.8155 C   0  0  0  0  0  0  0  0  0  0  0  0
  -14.7544    2.4222  -15.6167 C   0  0  0  0  0  0  0  0  0  0  0  0
  -14.2535    1.6490  -14.5764 C   0  0  0  0  0  0  0  0  0  0  0  0
  -13.2294    2.1733  -13.8022 C   0  0  0  0  0  0  0  0  0  0  0  0
  -12.6786    3.3905  -13.9997 N   0  0  0  0  0  0  0  0  0  0  0  0
  -11.1359    7.2404  -14.3281 C   0  0  0  0  0  0  0  0  0  0  0  0
  -11.7862    5.9634  -14.2244 N   0  0  0  0  0  0  0  0  0  0  0  0
  -12.5743    5.4754  -15.2464 C   0  0  0  0  0  0  0  0  0  0  0  0
  -12.7501    6.0764  -16.3074 O   0  0  0  0  0  0  0  0  0  0  0  0
  -11.5780    5.3393  -13.4494 H   0  0  0  0  0  0  0  0  0  0  0  0
 27 28  1  0  0  0
 28 29  1  0  0  0
 28 31  1  0  0  0
 29 30  2  0  0  0
 29 21  1  0  0  0
 21 22  1  0  0  0
 21 26  2  0  0  0
 22 23  2  0  0  0
 23 20  1  0  0  0
 23 24  1  0  0  0
 20  1  1  0  0  0
  1  2  1  0  0  0
  1  6  2  0  0  0
  2  3  2  0  0  0
  3  4  1  0  0  0
  4  7  1  0  0  0
  4  5  2  0  0  0
  7  8  2  0  0  0
  7 11  1  0  0  0
  8  9  1  0  0  0
  9 10  1  0  0  0
  9 12  1  0  0  0
 10 13  1  0  0  0
 10 11  1  0  0  0
 13 14  1  0  0  0
 13 19  2  0  0  0
 14 15  2  0  0  0
 15 16  1  0  0  0
 16 17  2  0  0  0
 17 18  1  0  0  0
 17 19  1  0  0  0
  5  6  1  0  0  0
 24 25  2  0  0  0
 25 26  1  0  0  0
M  END
> <minimizedAffinity>
-9.69219

$$$$
