CHEMBL4550702


 29 32  0  0  0  0  0  0  0  0999 V2000
  -23.4834    0.2765  -13.5938 C   0  0  0  0  0  0  0  0  0  0  0  0
  -22.1917   -0.4590  -13.8264 C   0  0  0  0  0  0  0  0  0  0  0  0
  -21.0409    0.0575  -14.1441 N   0  0  0  0  0  0  0  0  0  0  0  0
  -21.0100    1.4202  -14.2760 C   0  0  0  0  0  0  0  0  0  0  0  0
  -20.0143    2.3095  -14.6303 C   0  0  0  0  0  0  0  0  0  0  0  0
  -20.6258    3.5769  -14.5583 C   0  0  0  0  0  0  0  0  0  0  0  0
  -21.9077    3.5219  -14.1979 N   0  0  0  0  0  0  0  0  0  0  0  0
  -22.1512    2.1985  -14.0390 N   0  0  0  0  0  0  0  0  0  0  0  0
  -23.3644    1.6100  -13.7041 C   0  0  0  0  0  0  0  0  0  0  0  0
  -27.5139   -1.5204  -11.3516 C   0  0  0  0  0  0  0  0  0  0  0  0
  -26.4725   -1.2180  -12.3031 N   0  0  0  0  0  0  0  0  0  0  0  0
  -25.4258   -0.3549  -12.1384 C   0  0  0  0  0  0  0  0  0  0  0  0
  -24.6812   -0.4327  -13.2966 C   0  0  0  0  0  0  0  0  0  0  0  0
  -25.3823   -1.3568  -14.1010 C   0  0  0  0  0  0  0  0  0  0  0  0
  -26.4707   -1.8374  -13.4964 N   0  0  0  0  0  0  0  0  0  0  0  0
  -18.6156    2.0683  -15.0077 C   0  0  0  0  0  0  0  0  0  0  0  0
  -17.9150    2.8088  -15.9363 C   0  0  0  0  0  0  0  0  0  0  0  0
  -16.3114    2.2661  -16.1367 S   0  0  0  0  0  0  0  0  0  0  0  0
  -16.5126    1.0180  -14.9761 C   0  0  0  0  0  0  0  0  0  0  0  0
  -17.7995    1.0268  -14.4602 C   0  0  0  0  0  0  0  0  0  0  0  0
  -15.4192    0.1133  -14.6353 C   0  0  0  0  0  0  0  0  0  0  0  0
  -14.2525    0.2944  -14.9756 O   0  0  0  0  0  0  0  0  0  0  0  0
  -15.7780   -0.9990  -13.8990 N   0  0  0  0  0  0  0  0  0  0  0  0
  -16.7224   -1.0270  -13.5331 H   0  0  0  0  0  0  0  0  0  0  0  0
  -14.7924   -1.9535  -13.3994 C   0  0  0  0  0  0  0  0  0  0  0  0
  -15.1533   -2.6668  -12.0896 C   0  0  0  0  0  0  0  0  0  0  0  0
  -14.0607   -3.0553  -11.3952 F   0  0  0  0  0  0  0  0  0  0  0  0
  -15.8551   -1.8304  -11.2839 F   0  0  0  0  0  0  0  0  0  0  0  0
  -15.9226   -3.7548  -12.3047 F   0  0  0  0  0  0  0  0  0  0  0  0
 10 11  1  0  0  0
 11 12  1  0  0  0
 11 15  1  0  0  0
 12 13  2  0  0  0
 13  1  1  0  0  0
 13 14  1  0  0  0
  1  2  1  0  0  0
  1  9  2  0  0  0
  2  3  2  0  0  0
  3  4  1  0  0  0
  4  5  2  0  0  0
  4  8  1  0  0  0
  5 16  1  0  0  0
  5  6  1  0  0  0
 16 17  2  0  0  0
 16 20  1  0  0  0
 17 18  1  0  0  0
 18 19  1  0  0  0
 19 21  1  0  0  0
 19 20  2  0  0  0
 21 22  2  0  0  0
 21 23  1  0  0  0
 23 25  1  0  0  0
 23 24  1  0  0  0
 25 26  1  0  0  0
 26 27  1  0  0  0
 26 28  1  0  0  0
 26 29  1  0  0  0
  6  7  2  0  0  0
  7  8  1  0  0  0
  8  9  1  0  0  0
 14 15  2  0  0  0
M  END
> <minimizedAffinity>
-8.57135

$$$$
