CHEMBL3690427


 35 38  0  0  0  0  0  0  0  0999 V2000
  -29.6836   -5.7196   -6.5982 C   0  0  0  0  0  0  0  0  0  0  0  0
  -29.6897   -4.6501   -7.5873 C   0  0  0  0  0  0  0  0  0  0  0  0
  -29.7733   -3.3715   -7.1803 C   0  0  0  0  0  0  0  0  0  0  0  0
  -29.8116   -3.0731   -5.8123 N   0  0  0  0  0  0  0  0  0  0  0  0
  -29.8430   -1.8549   -5.1294 C   0  0  0  0  0  0  0  0  0  0  0  0
  -29.9056   -2.2293   -3.7942 C   0  0  0  0  0  0  0  0  0  0  0  0
  -29.8952   -3.5859   -3.6268 N   0  0  0  0  0  0  0  0  0  0  0  0
  -29.8212   -4.0791   -4.8423 C   0  0  0  0  0  0  0  0  0  0  0  0
  -29.7576   -5.4347   -5.2824 C   0  0  0  0  0  0  0  0  0  0  0  0
  -29.7840   -0.4991   -5.7019 C   0  0  0  0  0  0  0  0  0  0  0  0
  -28.5816    0.2158   -5.7477 C   0  0  0  0  0  0  0  0  0  0  0  0
  -28.5310    1.4993   -6.2825 C   0  0  0  0  0  0  0  0  0  0  0  0
  -29.6947    2.1106   -6.7377 C   0  0  0  0  0  0  0  0  0  0  0  0
  -30.9214    1.4478   -6.6798 C   0  0  0  0  0  0  0  0  0  0  0  0
  -30.9579    0.1422   -6.1582 C   0  0  0  0  0  0  0  0  0  0  0  0
  -32.1324    2.0636   -7.0884 N   0  0  0  0  0  0  0  0  0  0  0  0
  -32.4638    2.3800   -8.3876 C   0  0  0  0  0  0  0  0  0  0  0  0
  -31.8424    2.0611   -9.3972 O   0  0  0  0  0  0  0  0  0  0  0  0
  -33.5859    3.1658   -8.4841 N   0  0  0  0  0  0  0  0  0  0  0  0
  -32.8372    2.2031   -6.3831 H   0  0  0  0  0  0  0  0  0  0  0  0
  -34.2682    3.1164   -7.7427 H   0  0  0  0  0  0  0  0  0  0  0  0
  -34.0603    3.5380   -9.8259 C   0  0  0  0  0  0  0  0  0  0  0  0
  -34.4746    5.0060  -10.0141 C   0  0  0  0  0  0  0  0  0  0  0  0
  -33.5605    5.8642   -9.5062 F   0  0  0  0  0  0  0  0  0  0  0  0
  -34.5790    5.2866  -11.3383 F   0  0  0  0  0  0  0  0  0  0  0  0
  -35.6703    5.2810   -9.4532 F   0  0  0  0  0  0  0  0  0  0  0  0
  -29.5740   -8.2034   -7.4443 C   0  0  0  0  0  0  0  0  0  0  0  0
  -29.6278   -7.0694   -7.0507 C   0  0  0  0  0  0  0  0  0  0  0  0
  -28.0976  -12.3186   -9.8182 C   0  0  0  0  0  0  0  0  0  0  0  0
  -28.8836  -11.4041   -8.9520 C   0  0  0  0  0  0  0  0  0  0  0  0
  -29.9578  -11.7330   -8.2633 N   0  0  0  0  0  0  0  0  0  0  0  0
  -30.3512  -10.5872   -7.6199 C   0  0  0  0  0  0  0  0  0  0  0  0
  -29.5105   -9.5426   -7.9157 C   0  0  0  0  0  0  0  0  0  0  0  0
  -28.5734  -10.0742   -8.7656 N   0  0  0  0  0  0  0  0  0  0  0  0
  -27.4558   -9.3851   -9.3646 C   0  0  0  0  0  0  0  0  0  0  0  0
 29 30  1  0  0  0
 30 31  2  0  0  0
 30 34  1  0  0  0
 31 32  1  0  0  0
 32 33  2  0  0  0
 33 27  1  0  0  0
 33 34  1  0  0  0
 27 28  3  0  0  0
 28  1  1  0  0  0
  1  2  1  0  0  0
  1  9  2  0  0  0
  2  3  2  0  0  0
  3  4  1  0  0  0
  4  5  1  0  0  0
  4  8  1  0  0  0
  5 10  1  0  0  0
  5  6  2  0  0  0
 10 11  1  0  0  0
 10 15  2  0  0  0
 11 12  2  0  0  0
 12 13  1  0  0  0
 13 14  2  0  0  0
 14 16  1  0  0  0
 14 15  1  0  0  0
 16 17  1  0  0  0
 16 20  1  0  0  0
 17 18  2  0  0  0
 17 19  1  0  0  0
 19 22  1  0  0  0
 19 21  1  0  0  0
 22 23  1  0  0  0
 23 24  1  0  0  0
 23 25  1  0  0  0
 23 26  1  0  0  0
  6  7  1  0  0  0
  7  8  2  0  0  0
  8  9  1  0  0  0
 34 35  1  0  0  0
M  END
> <minimizedAffinity>
-7.40910

$$$$
