CHEMBL4084090


 30 33  0  0  0  0  0  0  0  0999 V2000
  -28.6277   -5.5067   -5.3108 C   0  0  0  0  0  0  0  0  0  0  0  0
  -27.8159   -6.3901   -4.6552 N   0  0  0  0  0  0  0  0  0  0  0  0
  -28.4235   -7.4875   -4.1611 C   0  0  0  0  0  0  0  0  0  0  0  0
  -27.6122   -8.4723   -3.6148 N   0  0  0  0  0  0  0  0  0  0  0  0
  -29.7342   -7.7648   -4.2616 N   0  0  0  0  0  0  0  0  0  0  0  0
  -30.3290   -7.0015   -5.2035 C   0  0  0  0  0  0  0  0  0  0  0  0
  -31.4347   -7.3590   -5.9430 N   0  0  0  0  0  0  0  0  0  0  0  0
  -30.8064   -7.9700   -7.0118 C   0  0  0  0  0  0  0  0  0  0  0  0
  -31.1361   -9.1746   -7.6602 C   0  0  0  0  0  0  0  0  0  0  0  0
  -30.2827   -9.6130   -8.6577 C   0  0  0  0  0  0  0  0  0  0  0  0
  -29.1936   -8.8332   -9.0305 C   0  0  0  0  0  0  0  0  0  0  0  0
  -28.4103   -9.2685  -10.0734 O   0  0  0  0  0  0  0  0  0  0  0  0
  -28.8492   -7.6269   -8.3474 C   0  0  0  0  0  0  0  0  0  0  0  0
  -29.6608   -7.1807   -7.2508 C   0  0  0  0  0  0  0  0  0  0  0  0
  -29.6157   -6.1883   -6.1001 C   0  0  0  0  0  0  0  0  0  0  0  0
  -26.6526   -8.2570   -3.8453 H   0  0  0  0  0  0  0  0  0  0  0  0
  -27.9454   -9.3608   -3.9769 H   0  0  0  0  0  0  0  0  0  0  0  0
  -32.1125   -6.6504   -6.1765 H   0  0  0  0  0  0  0  0  0  0  0  0
  -28.8031  -10.0668  -10.4588 H   0  0  0  0  0  0  0  0  0  0  0  0
  -28.9520   -4.4037   -4.4601 N   0  0  0  0  0  0  0  0  0  0  0  0
  -28.0517   -3.9997   -4.2040 H   0  0  0  0  0  0  0  0  0  0  0  0
  -29.9054   -3.3768   -4.8786 C   0  0  0  0  0  0  0  0  0  0  0  0
  -27.8930   -1.0037   -7.1934 C   0  0  0  0  0  0  0  0  0  0  0  0
  -28.0938    0.2480   -6.6193 C   0  0  0  0  0  0  0  0  0  0  0  0
  -28.8848    0.3498   -5.4680 C   0  0  0  0  0  0  0  0  0  0  0  0
  -29.4776   -0.7910   -4.8749 C   0  0  0  0  0  0  0  0  0  0  0  0
  -29.2842   -2.0675   -5.4179 C   0  0  0  0  0  0  0  0  0  0  0  0
  -28.4790   -2.1391   -6.5864 C   0  0  0  0  0  0  0  0  0  0  0  0
  -27.6046   -2.3183   -9.1856 C   0  0  0  0  0  0  0  0  0  0  0  0
  -27.1754   -1.2558   -8.3329 O   0  0  0  0  0  0  0  0  0  0  0  0
 29 30  1  0  0  0
 30 23  1  0  0  0
 23 24  1  0  0  0
 23 28  2  0  0  0
 24 25  2  0  0  0
 25 26  1  0  0  0
 26 27  2  0  0  0
 27 22  1  0  0  0
 27 28  1  0  0  0
 22 20  1  0  0  0
 20  1  1  0  0  0
 20 21  1  0  0  0
  1  2  1  0  0  0
  1 15  2  0  0  0
  2  3  2  0  0  0
  3  4  1  0  0  0
  3  5  1  0  0  0
  4 16  1  0  0  0
  4 17  1  0  0  0
  5  6  2  0  0  0
  6  7  1  0  0  0
  6 15  1  0  0  0
  7  8  1  0  0  0
  7 18  1  0  0  0
  8  9  1  0  0  0
  8 14  2  0  0  0
  9 10  2  0  0  0
 10 11  1  0  0  0
 11 12  1  0  0  0
 11 13  2  0  0  0
 12 19  1  0  0  0
 13 14  1  0  0  0
 14 15  1  0  0  0
M  END
> <minimizedAffinity>
-8.78639

$$$$
