CHEMBL420528


 33 37  0  0  0  0  0  0  0  0999 V2000
  -30.4349   -9.5762   -7.0527 C   0  0  0  0  0  0  0  0  0  0  0  0
  -29.6560  -10.0112   -5.9754 C   0  0  0  0  0  0  0  0  0  0  0  0
  -29.1346   -9.0900   -5.0559 C   0  0  0  0  0  0  0  0  0  0  0  0
  -29.4227   -7.7367   -5.2735 C   0  0  0  0  0  0  0  0  0  0  0  0
  -28.9781   -6.6008   -4.6334 N   0  0  0  0  0  0  0  0  0  0  0  0
  -29.4742   -5.4677   -5.2464 C   0  0  0  0  0  0  0  0  0  0  0  0
  -30.3296   -5.9033   -6.2390 C   0  0  0  0  0  0  0  0  0  0  0  0
  -30.2504   -7.3076   -6.3051 C   0  0  0  0  0  0  0  0  0  0  0  0
  -30.7778   -8.2340   -7.2061 C   0  0  0  0  0  0  0  0  0  0  0  0
  -28.2941   -6.5816   -3.8868 H   0  0  0  0  0  0  0  0  0  0  0  0
  -29.0409   -4.1062   -4.9381 C   0  0  0  0  0  0  0  0  0  0  0  0
  -29.8346   -3.0291   -5.3352 C   0  0  0  0  0  0  0  0  0  0  0  0
  -29.3715   -1.7214   -5.2109 C   0  0  0  0  0  0  0  0  0  0  0  0
  -30.1392   -0.6466   -5.6838 C   0  0  0  0  0  0  0  0  0  0  0  0
  -29.6409    0.6480   -5.6095 C   0  0  0  0  0  0  0  0  0  0  0  0
  -28.3868    0.8656   -5.0492 C   0  0  0  0  0  0  0  0  0  0  0  0
  -27.6364   -0.2124   -4.5614 C   0  0  0  0  0  0  0  0  0  0  0  0
  -28.1009   -1.5171   -4.6341 C   0  0  0  0  0  0  0  0  0  0  0  0
  -27.3388   -2.5335   -4.1855 N   0  0  0  0  0  0  0  0  0  0  0  0
  -27.8220   -3.7789   -4.3561 C   0  0  0  0  0  0  0  0  0  0  0  0
  -26.9524   -4.7332   -3.9226 O   0  0  0  0  0  0  0  0  0  0  0  0
  -26.2283   -4.1544   -3.6210 H   0  0  0  0  0  0  0  0  0  0  0  0
  -32.3494  -10.6981   -8.4343 O   0  0  0  0  0  0  0  0  0  0  0  0
  -30.9101  -10.7331   -8.3009 S   0  0  0  0  0  0  0  0  0  0  0  0
  -30.1877  -11.9533   -8.0292 O   0  0  0  0  0  0  0  0  0  0  0  0
  -30.2357  -10.1283   -9.7304 N   0  0  0  0  0  0  0  0  0  0  0  0
  -30.1370   -9.1149   -9.6514 H   0  0  0  0  0  0  0  0  0  0  0  0
  -29.1044  -10.8605  -10.3477 C   0  0  0  0  0  0  0  0  0  0  0  0
  -27.8245  -10.5336   -9.5890 C   0  0  0  0  0  0  0  0  0  0  0  0
  -27.2429   -9.3520  -10.3374 C   0  0  0  0  0  0  0  0  0  0  0  0
  -27.5444   -9.6022  -11.7467 N   0  0  0  0  0  0  0  0  0  0  0  0
  -28.7767  -10.4154  -11.7821 C   0  0  0  0  0  0  0  0  0  0  0  0
  -26.7864  -10.1443  -12.1624 H   0  0  0  0  0  0  0  0  0  0  0  0
 23 24  2  0  0  0
 24 25  2  0  0  0
 24 26  1  0  0  0
 24  1  1  0  0  0
 26 28  1  0  0  0
 26 27  1  0  0  0
 28 29  1  0  0  0
 28 32  1  0  0  0
 29 30  1  0  0  0
 30 31  1  0  0  0
 31 32  1  0  0  0
 31 33  1  0  0  0
  1  2  1  0  0  0
  1  9  2  0  0  0
  2  3  2  0  0  0
  3  4  1  0  0  0
  4  5  1  0  0  0
  4  8  2  0  0  0
  5  6  1  0  0  0
  5 10  1  0  0  0
  6 11  1  0  0  0
  6  7  2  0  0  0
 11 12  1  0  0  0
 11 20  2  0  0  0
 12 13  2  0  0  0
 13 14  1  0  0  0
 13 18  1  0  0  0
 14 15  2  0  0  0
 15 16  1  0  0  0
 16 17  2  0  0  0
 17 18  1  0  0  0
 18 19  2  0  0  0
 19 20  1  0  0  0
 20 21  1  0  0  0
 21 22  1  0  0  0
  7  8  1  0  0  0
  8  9  1  0  0  0
M  END
> <minimizedAffinity>
-9.73910

$$$$
