CHEMBL4640401


 82 90  0  0  0  0  0  0  0  0999 V2000
  -26.8427   -2.2765   -9.3942 N   0  0  0  0  0  0  0  0  0  0  0  0
  -27.2564   -3.6554   -9.1203 C   0  0  0  0  0  0  0  0  0  0  0  0
  -28.4858   -3.8683   -8.1984 C   0  0  0  0  0  0  0  0  0  0  0  0
  -28.7267   -2.8100   -7.1868 N   0  0  0  0  0  0  0  0  0  0  0  0
  -29.9587   -2.8720   -6.5167 C   0  0  0  0  0  0  0  0  0  0  0  0
  -30.7500   -3.7998   -6.6735 O   0  0  0  0  0  0  0  0  0  0  0  0
  -28.0585   -1.5020   -7.3369 C   0  0  0  0  0  0  0  0  0  0  0  0
  -26.7816   -1.4888   -8.1721 C   0  0  0  0  0  0  0  0  0  0  0  0
  -27.1942   -1.6044  -10.6608 C   0  0  0  0  0  0  0  0  0  0  0  0
  -23.8893   -0.0091  -13.0976 C   0  0  0  0  0  0  0  0  0  0  0  0
  -23.9865    0.1582  -11.7424 C   0  0  0  0  0  0  0  0  0  0  0  0
  -25.0479   -0.3687  -11.0457 C   0  0  0  0  0  0  0  0  0  0  0  0
  -26.1286   -1.0296  -11.5874 C   0  0  0  0  0  0  0  0  0  0  0  0
  -26.1172   -1.1146  -12.9967 C   0  0  0  0  0  0  0  0  0  0  0  0
  -24.9832   -0.6117  -13.7381 C   0  0  0  0  0  0  0  0  0  0  0  0
  -22.3525    1.6903  -14.0653 C   0  0  0  0  0  0  0  0  0  0  0  0
  -23.0451    2.6937  -13.9345 O   0  0  0  0  0  0  0  0  0  0  0  0
  -22.6985    0.3629  -13.7683 N   0  0  0  0  0  0  0  0  0  0  0  0
  -22.0061   -0.3598  -13.8915 H   0  0  0  0  0  0  0  0  0  0  0  0
  -17.0311    2.9258  -15.9125 C   0  0  0  0  0  0  0  0  0  0  0  0
  -18.4147    2.5631  -15.4565 C   0  0  0  0  0  0  0  0  0  0  0  0
  -19.4910    3.3917  -15.7925 C   0  0  0  0  0  0  0  0  0  0  0  0
  -20.7674    3.0872  -15.3315 C   0  0  0  0  0  0  0  0  0  0  0  0
  -20.9818    1.9511  -14.5331 C   0  0  0  0  0  0  0  0  0  0  0  0
  -19.9338    1.0933  -14.2368 C   0  0  0  0  0  0  0  0  0  0  0  0
  -18.6526    1.4066  -14.6889 C   0  0  0  0  0  0  0  0  0  0  0  0
  -17.5963    0.5266  -14.3103 C   0  0  0  0  0  0  0  0  0  0  0  0
  -16.6860   -0.1650  -13.9467 C   0  0  0  0  0  0  0  0  0  0  0  0
  -15.5913   -0.9333  -13.4905 C   0  0  0  0  0  0  0  0  0  0  0  0
  -15.5677   -1.8530  -12.4635 C   0  0  0  0  0  0  0  0  0  0  0  0
  -14.3216   -2.4089  -12.3235 N   0  0  0  0  0  0  0  0  0  0  0  0
  -13.5856   -1.8507  -13.2602 C   0  0  0  0  0  0  0  0  0  0  0  0
  -12.2324   -2.0243  -13.6092 C   0  0  0  0  0  0  0  0  0  0  0  0
  -11.7207   -1.3184  -14.6241 C   0  0  0  0  0  0  0  0  0  0  0  0
  -12.6290   -0.3849  -15.3322 C   0  0  0  0  0  0  0  0  0  0  0  0
  -13.8786   -0.1832  -15.0654 N   0  0  0  0  0  0  0  0  0  0  0  0
  -14.3322   -0.9449  -14.0182 N   0  0  0  0  0  0  0  0  0  0  0  0
  -27.2543   -1.7376  -13.7821 C   0  0  0  0  0  0  0  0  0  0  0  0
  -28.4966   -1.2980  -13.4409 F   0  0  0  0  0  0  0  0  0  0  0  0
  -27.1419   -1.5113  -15.1205 F   0  0  0  0  0  0  0  0  0  0  0  0
  -27.2970   -3.0921  -13.6380 F   0  0  0  0  0  0  0  0  0  0  0  0
  -30.2193   -1.7613   -5.5138 C   0  0  0  0  0  0  0  0  0  0  0  0
  -29.3888   -1.8730   -4.2500 C   0  0  0  0  0  0  0  0  0  0  0  0
  -30.2136   -2.6049   -3.2014 C   0  0  0  0  0  0  0  0  0  0  0  0
  -30.2693   -4.0579   -3.4236 C   0  0  0  0  0  0  0  0  0  0  0  0
  -29.2114   -4.9135   -3.5638 C   0  0  0  0  0  0  0  0  0  0  0  0
  -29.7935   -6.1283   -3.7420 N   0  0  0  0  0  0  0  0  0  0  0  0
  -31.1318   -6.0409   -3.7062 N   0  0  0  0  0  0  0  0  0  0  0  0
  -31.4368   -4.7628   -3.5262 N   0  0  0  0  0  0  0  0  0  0  0  0
  -29.1615   -7.4192   -3.8924 C   0  0  0  0  0  0  0  0  0  0  0  0
  -29.4034   -8.0064   -5.2766 C   0  0  0  0  0  0  0  0  0  0  0  0
  -28.8940   -7.1477   -6.3068 O   0  0  0  0  0  0  0  0  0  0  0  0
  -29.6085   -7.2278   -7.5434 C   0  0  0  0  0  0  0  0  0  0  0  0
  -31.0965   -7.3761   -7.2544 C   0  0  0  0  0  0  0  0  0  0  0  0
  -31.5572   -8.6372   -7.7521 O   0  0  0  0  0  0  0  0  0  0  0  0
  -32.8793   -8.9571   -7.3038 C   0  0  0  0  0  0  0  0  0  0  0  0
  -32.9467  -10.4430   -6.9677 C   0  0  0  0  0  0  0  0  0  0  0  0
  -32.3996  -11.2154   -8.0510 O   0  0  0  0  0  0  0  0  0  0  0  0
  -31.8153  -12.4641   -7.6288 C   0  0  0  0  0  0  0  0  0  0  0  0
  -30.3279  -12.3664   -7.8637 C   0  0  0  0  0  0  0  0  0  0  0  0
  -29.6143  -11.2125   -7.3471 N   0  0  0  0  0  0  0  0  0  0  0  0
  -30.2983  -10.5111   -7.0472 H   0  0  0  0  0  0  0  0  0  0  0  0
  -28.7885  -10.6246   -8.3578 C   0  0  0  0  0  0  0  0  0  0  0  0
  -29.3072  -10.5344   -9.6492 C   0  0  0  0  0  0  0  0  0  0  0  0
  -28.4497  -10.4164  -10.7591 C   0  0  0  0  0  0  0  0  0  0  0  0
  -27.0713  -10.6321  -10.6062 C   0  0  0  0  0  0  0  0  0  0  0  0
  -26.5900  -10.7298   -9.3161 C   0  0  0  0  0  0  0  0  0  0  0  0
  -27.4116  -10.4480   -8.2546 C   0  0  0  0  0  0  0  0  0  0  0  0
  -26.5190  -10.3752   -7.1143 C   0  0  0  0  0  0  0  0  0  0  0  0
  -26.6053   -9.5742   -6.2014 O   0  0  0  0  0  0  0  0  0  0  0  0
  -25.5209  -11.2538   -7.3495 N   0  0  0  0  0  0  0  0  0  0  0  0
  -25.4158  -11.4194   -8.7057 C   0  0  0  0  0  0  0  0  0  0  0  0
  -24.6610  -12.1372   -9.3307 O   0  0  0  0  0  0  0  0  0  0  0  0
  -25.0344  -12.0311   -6.2062 C   0  0  0  0  0  0  0  0  0  0  0  0
  -25.9573  -12.3207   -5.0456 C   0  0  0  0  0  0  0  0  0  0  0  0
  -26.2239  -11.0917   -4.2061 C   0  0  0  0  0  0  0  0  0  0  0  0
  -24.9664  -10.3129   -3.8810 C   0  0  0  0  0  0  0  0  0  0  0  0
  -24.9341   -9.4779   -2.9809 O   0  0  0  0  0  0  0  0  0  0  0  0
  -23.8446  -10.5713   -4.6273 N   0  0  0  0  0  0  0  0  0  0  0  0
  -23.7276  -11.4167   -5.7022 C   0  0  0  0  0  0  0  0  0  0  0  0
  -22.6483  -11.5729   -6.2709 O   0  0  0  0  0  0  0  0  0  0  0  0
  -23.0084  -10.0761   -4.3474 H   0  0  0  0  0  0  0  0  0  0  0  0
 20 21  1  0  0  0
 21 22  1  0  0  0
 21 26  2  0  0  0
 22 23  2  0  0  0
 23 24  1  0  0  0
 24 16  1  0  0  0
 24 25  2  0  0  0
 16 17  2  0  0  0
 16 18  1  0  0  0
 18 10  1  0  0  0
 18 19  1  0  0  0
 10 11  1  0  0  0
 10 15  2  0  0  0
 11 12  2  0  0  0
 12 13  1  0  0  0
 13  9  1  0  0  0
 13 14  2  0  0  0
  9  1  1  0  0  0
  1  2  1  0  0  0
  1  8  1  0  0  0
  2  3  1  0  0  0
  3  4  1  0  0  0
  4  5  1  0  0  0
  4  7  1  0  0  0
  5  6  2  0  0  0
  5 42  1  0  0  0
 42 43  1  0  0  0
 43 44  1  0  0  0
 44 45  1  0  0  0
 45 46  2  0  0  0
 45 49  1  0  0  0
 46 47  1  0  0  0
 47 50  1  0  0  0
 47 48  1  0  0  0
 50 51  1  0  0  0
 51 52  1  0  0  0
 52 53  1  0  0  0
 53 54  1  0  0  0
 54 55  1  0  0  0
 55 56  1  0  0  0
 56 57  1  0  0  0
 57 58  1  0  0  0
 58 59  1  0  0  0
 59 60  1  0  0  0
 60 61  1  0  0  0
 61 63  1  0  0  0
 61 62  1  0  0  0
 63 64  1  0  0  0
 63 68  2  0  0  0
 64 65  2  0  0  0
 65 66  1  0  0  0
 66 67  2  0  0  0
 67 68  1  0  0  0
 67 72  1  0  0  0
 68 69  1  0  0  0
 69 70  2  0  0  0
 69 71  1  0  0  0
 71 74  1  0  0  0
 71 72  1  0  0  0
 74 75  1  0  0  0
 74 80  1  0  0  0
 75 76  1  0  0  0
 76 77  1  0  0  0
 77 78  2  0  0  0
 77 79  1  0  0  0
 79 80  1  0  0  0
 79 82  1  0  0  0
 80 81  2  0  0  0
 72 73  2  0  0  0
 48 49  2  0  0  0
  7  8  1  0  0  0
 14 38  1  0  0  0
 14 15  1  0  0  0
 38 39  1  0  0  0
 38 40  1  0  0  0
 38 41  1  0  0  0
 25 26  1  0  0  0
 26 27  1  0  0  0
 27 28  3  0  0  0
 28 29  1  0  0  0
 29 30  2  0  0  0
 29 37  1  0  0  0
 30 31  1  0  0  0
 31 32  2  0  0  0
 32 33  1  0  0  0
 32 37  1  0  0  0
 33 34  2  0  0  0
 34 35  1  0  0  0
 35 36  2  0  0  0
 36 37  1  0  0  0
M  END
> <minimizedAffinity>
-9.48492

$$$$
