CHEMBL379320


 26 28  0  0  0  0  0  0  0  0999 V2000
  -17.4962    2.5480  -14.9322 S   0  0  0  0  0  0  0  0  0  0  0  0
  -16.1876    1.4060  -14.6715 C   0  0  0  0  0  0  0  0  0  0  0  0
  -15.0181    1.2585  -15.3815 C   0  0  0  0  0  0  0  0  0  0  0  0
  -14.1785    0.2560  -14.9525 N   0  0  0  0  0  0  0  0  0  0  0  0
  -14.6816   -0.3692  -13.9100 C   0  0  0  0  0  0  0  0  0  0  0  0
  -16.1947    0.2795  -13.3747 S   0  0  0  0  0  0  0  0  0  0  0  0
  -14.1381   -1.4363  -13.2799 N   0  0  0  0  0  0  0  0  0  0  0  0
  -13.2742   -1.3074  -12.7671 H   0  0  0  0  0  0  0  0  0  0  0  0
  -14.8500   -2.4944  -12.7045 C   0  0  0  0  0  0  0  0  0  0  0  0
  -15.6035   -3.4064  -13.4402 C   0  0  0  0  0  0  0  0  0  0  0  0
  -16.3816   -4.3575  -12.7857 C   0  0  0  0  0  0  0  0  0  0  0  0
  -16.3623   -4.4062  -11.4024 C   0  0  0  0  0  0  0  0  0  0  0  0
  -15.5421   -3.5120  -10.7388 C   0  0  0  0  0  0  0  0  0  0  0  0
  -14.7900   -2.5688  -11.3551 N   0  0  0  0  0  0  0  0  0  0  0  0
  -18.7920    1.4900  -15.6432 C   0  0  0  0  0  0  0  0  0  0  0  0
  -22.1869    0.9204  -13.9718 C   0  0  0  0  0  0  0  0  0  0  0  0
  -22.6271    2.2361  -13.7919 C   0  0  0  0  0  0  0  0  0  0  0  0
  -21.8468    3.3015  -14.2436 C   0  0  0  0  0  0  0  0  0  0  0  0
  -20.6159    3.0597  -14.8589 C   0  0  0  0  0  0  0  0  0  0  0  0
  -20.1415    1.7488  -15.0218 C   0  0  0  0  0  0  0  0  0  0  0  0
  -20.9437    0.6822  -14.5813 C   0  0  0  0  0  0  0  0  0  0  0  0
  -23.4094   -1.8064  -11.6414 C   0  0  0  0  0  0  0  0  0  0  0  0
  -22.6989   -0.6881  -12.2055 N   0  0  0  0  0  0  0  0  0  0  0  0
  -22.9766   -0.2468  -13.4825 C   0  0  0  0  0  0  0  0  0  0  0  0
  -23.8323   -0.7545  -14.2003 O   0  0  0  0  0  0  0  0  0  0  0  0
  -22.1211   -0.1287  -11.5943 H   0  0  0  0  0  0  0  0  0  0  0  0
 22 23  1  0  0  0
 23 24  1  0  0  0
 23 26  1  0  0  0
 24 25  2  0  0  0
 24 16  1  0  0  0
 16 17  1  0  0  0
 16 21  2  0  0  0
 17 18  2  0  0  0
 18 19  1  0  0  0
 19 20  2  0  0  0
 20 15  1  0  0  0
 20 21  1  0  0  0
 15  1  1  0  0  0
  1  2  1  0  0  0
  2  3  2  0  0  0
  2  6  1  0  0  0
  3  4  1  0  0  0
  4  5  2  0  0  0
  5  7  1  0  0  0
  5  6  1  0  0  0
  7  9  1  0  0  0
  7  8  1  0  0  0
  9 10  1  0  0  0
  9 14  2  0  0  0
 10 11  2  0  0  0
 11 12  1  0  0  0
 12 13  2  0  0  0
 13 14  1  0  0  0
M  END
> <minimizedAffinity>
-8.27477

$$$$
