CHEMBL3935597


 32 35  0  0  0  0  0  0  0  0999 V2000
  -15.3142    1.4725  -15.9788 N   0  0  0  0  0  0  0  0  0  0  0  0
  -16.6218    1.9991  -15.7759 C   0  0  0  0  0  0  0  0  0  0  0  0
  -16.9511    3.3350  -16.0206 C   0  0  0  0  0  0  0  0  0  0  0  0
  -18.2233    3.8338  -15.7139 C   0  0  0  0  0  0  0  0  0  0  0  0
  -19.2098    3.0280  -15.1692 C   0  0  0  0  0  0  0  0  0  0  0  0
  -20.4050    3.5662  -14.8661 N   0  0  0  0  0  0  0  0  0  0  0  0
  -21.3291    2.7212  -14.3514 C   0  0  0  0  0  0  0  0  0  0  0  0
  -21.0897    1.3702  -14.1469 C   0  0  0  0  0  0  0  0  0  0  0  0
  -19.8773    0.8302  -14.4383 N   0  0  0  0  0  0  0  0  0  0  0  0
  -18.9340    1.6605  -14.9490 C   0  0  0  0  0  0  0  0  0  0  0  0
  -17.6592    1.1831  -15.2668 C   0  0  0  0  0  0  0  0  0  0  0  0
  -22.1283    0.4871  -13.6444 C   0  0  0  0  0  0  0  0  0  0  0  0
  -22.3727   -0.0121  -12.3429 C   0  0  0  0  0  0  0  0  0  0  0  0
  -23.4596   -0.7863  -12.2762 N   0  0  0  0  0  0  0  0  0  0  0  0
  -23.9242   -0.7843  -13.5387 N   0  0  0  0  0  0  0  0  0  0  0  0
  -25.1282   -1.5072  -13.8612 C   0  0  0  0  0  0  0  0  0  0  0  0
  -23.1618   -0.0430  -14.3958 C   0  0  0  0  0  0  0  0  0  0  0  0
  -14.2502    1.5347  -15.0230 C   0  0  0  0  0  0  0  0  0  0  0  0
  -13.8375    0.3872  -14.3008 C   0  0  0  0  0  0  0  0  0  0  0  0
  -14.5440   -0.7490  -14.4305 F   0  0  0  0  0  0  0  0  0  0  0  0
  -12.7322    0.3963  -13.4345 C   0  0  0  0  0  0  0  0  0  0  0  0
  -12.0473    1.5937  -13.2156 C   0  0  0  0  0  0  0  0  0  0  0  0
  -12.4433    2.7571  -13.8664 C   0  0  0  0  0  0  0  0  0  0  0  0
  -13.5157    2.7088  -14.7719 C   0  0  0  0  0  0  0  0  0  0  0  0
  -13.7802    3.8359  -15.4532 F   0  0  0  0  0  0  0  0  0  0  0  0
  -12.2132   -0.6651  -12.7396 O   0  0  0  0  0  0  0  0  0  0  0  0
  -10.8652   -1.0370  -13.0069 C   0  0  0  0  0  0  0  0  0  0  0  0
  -11.8630    3.9892  -13.7228 O   0  0  0  0  0  0  0  0  0  0  0  0
  -10.8178    4.1155  -12.7697 C   0  0  0  0  0  0  0  0  0  0  0  0
  -14.9794    0.9548  -17.3343 C   0  0  0  0  0  0  0  0  0  0  0  0
  -13.4713    2.8029  -18.8457 C   0  0  0  0  0  0  0  0  0  0  0  0
  -14.1677    1.9496  -18.1478 C   0  0  0  0  0  0  0  0  0  0  0  0
 31 32  3  0  0  0
 32 30  1  0  0  0
 30  1  1  0  0  0
  1  2  1  0  0  0
  1 18  1  0  0  0
  2  3  1  0  0  0
  2 11  2  0  0  0
  3  4  2  0  0  0
  4  5  1  0  0  0
  5  6  1  0  0  0
  5 10  2  0  0  0
  6  7  2  0  0  0
  7  8  1  0  0  0
  8 12  1  0  0  0
  8  9  2  0  0  0
 12 13  1  0  0  0
 12 17  2  0  0  0
 13 14  2  0  0  0
 14 15  1  0  0  0
 15 16  1  0  0  0
 15 17  1  0  0  0
  9 10  1  0  0  0
 10 11  1  0  0  0
 18 19  1  0  0  0
 18 24  2  0  0  0
 19 20  1  0  0  0
 19 21  2  0  0  0
 21 26  1  0  0  0
 21 22  1  0  0  0
 26 27  1  0  0  0
 22 23  2  0  0  0
 23 28  1  0  0  0
 23 24  1  0  0  0
 28 29  1  0  0  0
 24 25  1  0  0  0
M  END
> <minimizedAffinity>
-8.01069

$$$$
