CHEMBL3323612


 30 34  0  0  0  0  0  0  0  0999 V2000
  -26.6219   -1.8520  -10.2691 C   0  0  0  0  0  0  0  0  0  0  0  0
  -27.0388   -2.0062  -11.5084 N   0  0  0  0  0  0  0  0  0  0  0  0
  -25.9921   -1.6339  -12.3101 C   0  0  0  0  0  0  0  0  0  0  0  0
  -25.9270   -1.5609  -13.7010 C   0  0  0  0  0  0  0  0  0  0  0  0
  -24.7292   -1.1330  -14.2830 C   0  0  0  0  0  0  0  0  0  0  0  0
  -23.5857   -0.8335  -13.5177 C   0  0  0  0  0  0  0  0  0  0  0  0
  -23.6644   -0.8761  -12.1144 C   0  0  0  0  0  0  0  0  0  0  0  0
  -24.8826   -1.2831  -11.5536 C   0  0  0  0  0  0  0  0  0  0  0  0
  -25.3093   -1.4341  -10.2574 N   0  0  0  0  0  0  0  0  0  0  0  0
  -24.7526   -1.2737   -9.4325 H   0  0  0  0  0  0  0  0  0  0  0  0
  -29.8228   -2.8517   -5.2952 Cl  0  0  0  0  0  0  0  0  0  0  0  0
  -28.9059   -2.5171   -6.7197 C   0  0  0  0  0  0  0  0  0  0  0  0
  -28.7699   -3.5428   -7.6600 C   0  0  0  0  0  0  0  0  0  0  0  0
  -28.0363   -3.3355   -8.8323 C   0  0  0  0  0  0  0  0  0  0  0  0
  -27.4287   -2.0981   -9.0753 C   0  0  0  0  0  0  0  0  0  0  0  0
  -27.5623   -1.0770   -8.1210 C   0  0  0  0  0  0  0  0  0  0  0  0
  -28.3006   -1.2786   -6.9518 C   0  0  0  0  0  0  0  0  0  0  0  0
  -28.4249    0.0361   -5.8385 Cl  0  0  0  0  0  0  0  0  0  0  0  0
  -22.3944   -0.3912  -14.1426 N   0  0  0  0  0  0  0  0  0  0  0  0
  -22.1183   -0.9384  -14.9517 H   0  0  0  0  0  0  0  0  0  0  0  0
  -21.9520    0.9565  -14.2482 C   0  0  0  0  0  0  0  0  0  0  0  0
  -22.8224    2.0058  -13.9370 C   0  0  0  0  0  0  0  0  0  0  0  0
  -22.3396    3.2959  -13.9645 C   0  0  0  0  0  0  0  0  0  0  0  0
  -21.0770    3.6140  -14.3063 N   0  0  0  0  0  0  0  0  0  0  0  0
  -20.2487    2.6177  -14.6597 C   0  0  0  0  0  0  0  0  0  0  0  0
  -18.9448    2.9461  -15.0026 C   0  0  0  0  0  0  0  0  0  0  0  0
  -18.0158    1.9776  -15.3869 C   0  0  0  0  0  0  0  0  0  0  0  0
  -18.3945    0.6433  -15.4380 C   0  0  0  0  0  0  0  0  0  0  0  0
  -19.6941    0.2832  -15.0817 C   0  0  0  0  0  0  0  0  0  0  0  0
  -20.6376    1.2593  -14.6795 C   0  0  0  0  0  0  0  0  0  0  0  0
 11 12  1  0  0  0
 12 13  1  0  0  0
 12 17  2  0  0  0
 13 14  2  0  0  0
 14 15  1  0  0  0
 15  1  1  0  0  0
 15 16  2  0  0  0
  1  2  2  0  0  0
  1  9  1  0  0  0
  2  3  1  0  0  0
  3  4  1  0  0  0
  3  8  2  0  0  0
  4  5  2  0  0  0
  5  6  1  0  0  0
  6 19  1  0  0  0
  6  7  2  0  0  0
 19 21  1  0  0  0
 19 20  1  0  0  0
 21 22  1  0  0  0
 21 30  2  0  0  0
 22 23  2  0  0  0
 23 24  1  0  0  0
 24 25  2  0  0  0
 25 26  1  0  0  0
 25 30  1  0  0  0
 26 27  2  0  0  0
 27 28  1  0  0  0
 28 29  2  0  0  0
 29 30  1  0  0  0
  7  8  1  0  0  0
  8  9  1  0  0  0
  9 10  1  0  0  0
 16 17  1  0  0  0
 17 18  1  0  0  0
M  END
> <minimizedAffinity>
-11.57008

$$$$
