CHEMBL3656035


 37 40  0  0  0  0  0  0  0  0999 V2000
  -17.6813    0.9068  -15.7365 O   0  0  0  0  0  0  0  0  0  0  0  0
  -15.2303   -0.4383  -13.3841 C   0  0  0  0  0  0  0  0  0  0  0  0
  -14.1940    0.4974  -13.4784 C   0  0  0  0  0  0  0  0  0  0  0  0
  -14.3476    1.6300  -14.2871 C   0  0  0  0  0  0  0  0  0  0  0  0
  -15.5173    1.8187  -15.0249 C   0  0  0  0  0  0  0  0  0  0  0  0
  -16.5168    0.8452  -15.0062 C   0  0  0  0  0  0  0  0  0  0  0  0
  -16.3889   -0.2542  -14.1570 C   0  0  0  0  0  0  0  0  0  0  0  0
  -14.2580   -2.6534  -12.9261 N   0  0  0  0  0  0  0  0  0  0  0  0
  -15.1558   -1.6695  -12.5415 C   0  0  0  0  0  0  0  0  0  0  0  0
  -15.8436   -1.6955  -11.5268 O   0  0  0  0  0  0  0  0  0  0  0  0
  -13.5313   -2.3814  -13.5712 H   0  0  0  0  0  0  0  0  0  0  0  0
  -15.0949   -7.5183  -13.1725 C   0  0  0  0  0  0  0  0  0  0  0  0
  -14.5212   -6.3378  -12.4406 C   0  0  0  0  0  0  0  0  0  0  0  0
  -13.8529   -6.5230  -11.2267 C   0  0  0  0  0  0  0  0  0  0  0  0
  -13.3408   -5.4259  -10.5420 C   0  0  0  0  0  0  0  0  0  0  0  0
  -13.4790   -4.1420  -11.0686 C   0  0  0  0  0  0  0  0  0  0  0  0
  -13.0676   -3.1320  -10.2919 F   0  0  0  0  0  0  0  0  0  0  0  0
  -14.1044   -3.9238  -12.3046 C   0  0  0  0  0  0  0  0  0  0  0  0
  -14.6473   -5.0376  -12.9696 C   0  0  0  0  0  0  0  0  0  0  0  0
  -18.7926    1.5305  -15.2158 C   0  0  0  0  0  0  0  0  0  0  0  0
  -18.9381    2.9053  -15.0643 C   0  0  0  0  0  0  0  0  0  0  0  0
  -20.0992    3.3742  -14.4753 C   0  0  0  0  0  0  0  0  0  0  0  0
  -21.1170    2.5803  -14.0783 N   0  0  0  0  0  0  0  0  0  0  0  0
  -20.9803    1.2513  -14.3024 C   0  0  0  0  0  0  0  0  0  0  0  0
  -19.8474    0.6906  -14.8727 C   0  0  0  0  0  0  0  0  0  0  0  0
  -22.1136    0.4470  -13.8585 C   0  0  0  0  0  0  0  0  0  0  0  0
  -22.3999   -0.1657  -12.6498 C   0  0  0  0  0  0  0  0  0  0  0  0
  -23.6787   -0.7971  -12.7407 C   0  0  0  0  0  0  0  0  0  0  0  0
  -24.1222   -0.5570  -14.0301 C   0  0  0  0  0  0  0  0  0  0  0  0
  -23.1761    0.1770  -14.6912 N   0  0  0  0  0  0  0  0  0  0  0  0
  -23.2247    0.5029  -15.6496 H   0  0  0  0  0  0  0  0  0  0  0  0
  -24.4242   -1.5492  -11.7360 C   0  0  0  0  0  0  0  0  0  0  0  0
  -23.9334   -1.9389  -10.6772 O   0  0  0  0  0  0  0  0  0  0  0  0
  -25.7322   -1.8204  -12.0584 N   0  0  0  0  0  0  0  0  0  0  0  0
  -26.4729   -2.6168  -11.1533 O   0  0  0  0  0  0  0  0  0  0  0  0
  -26.1602   -1.6197  -12.9514 H   0  0  0  0  0  0  0  0  0  0  0  0
  -25.8142   -2.7858  -10.4428 H   0  0  0  0  0  0  0  0  0  0  0  0
 12 13  1  0  0  0
 13 14  1  0  0  0
 13 19  2  0  0  0
 14 15  2  0  0  0
 15 16  1  0  0  0
 16 17  1  0  0  0
 16 18  2  0  0  0
 18  8  1  0  0  0
 18 19  1  0  0  0
  8  9  1  0  0  0
  8 11  1  0  0  0
  9 10  2  0  0  0
  9  2  1  0  0  0
  2  3  1  0  0  0
  2  7  2  0  0  0
  3  4  2  0  0  0
  4  5  1  0  0  0
  5  6  2  0  0  0
  6  1  1  0  0  0
  6  7  1  0  0  0
  1 20  1  0  0  0
 20 21  1  0  0  0
 20 25  2  0  0  0
 21 22  2  0  0  0
 22 23  1  0  0  0
 23 24  2  0  0  0
 24 26  1  0  0  0
 24 25  1  0  0  0
 26 27  2  0  0  0
 26 30  1  0  0  0
 27 28  1  0  0  0
 28 32  1  0  0  0
 28 29  2  0  0  0
 32 33  2  0  0  0
 32 34  1  0  0  0
 34 35  1  0  0  0
 34 36  1  0  0  0
 35 37  1  0  0  0
 29 30  1  0  0  0
 30 31  1  0  0  0
M  END
> <minimizedAffinity>
-9.73706

$$$$
