CHEMBL3979195


 38 41  0  0  0  0  0  0  0  0999 V2000
  -12.0296   -2.9866  -14.3295 C   0  0  0  0  0  0  0  0  0  0  0  0
  -11.8115   -1.8205  -13.5642 C   0  0  0  0  0  0  0  0  0  0  0  0
  -12.5493   -0.6679  -13.7143 C   0  0  0  0  0  0  0  0  0  0  0  0
  -12.3223    0.3594  -12.8933 N   0  0  0  0  0  0  0  0  0  0  0  0
  -13.0931    1.4322  -13.0659 C   0  0  0  0  0  0  0  0  0  0  0  0
  -14.0777    1.5526  -13.9595 N   0  0  0  0  0  0  0  0  0  0  0  0
  -14.2940    0.5148  -14.7870 C   0  0  0  0  0  0  0  0  0  0  0  0
  -13.5108   -0.6407  -14.7183 C   0  0  0  0  0  0  0  0  0  0  0  0
  -13.6454   -1.7411  -15.5805 C   0  0  0  0  0  0  0  0  0  0  0  0
  -12.9388   -2.9293  -15.3924 C   0  0  0  0  0  0  0  0  0  0  0  0
  -15.3460    0.5688  -15.7462 N   0  0  0  0  0  0  0  0  0  0  0  0
  -15.5082   -0.3658  -16.1127 H   0  0  0  0  0  0  0  0  0  0  0  0
  -16.5414    1.3079  -15.6430 C   0  0  0  0  0  0  0  0  0  0  0  0
  -16.5818    2.6837  -15.8924 C   0  0  0  0  0  0  0  0  0  0  0  0
  -17.7579    3.4132  -15.7307 C   0  0  0  0  0  0  0  0  0  0  0  0
  -18.9317    2.7626  -15.3697 C   0  0  0  0  0  0  0  0  0  0  0  0
  -20.3382    3.7300  -15.1108 Cl  0  0  0  0  0  0  0  0  0  0  0  0
  -18.9342    1.3722  -15.2197 C   0  0  0  0  0  0  0  0  0  0  0  0
  -20.3637    0.4853  -14.8265 Cl  0  0  0  0  0  0  0  0  0  0  0  0
  -17.7454    0.6480  -15.3746 C   0  0  0  0  0  0  0  0  0  0  0  0
  -13.3371   -3.8241  -16.3293 O   0  0  0  0  0  0  0  0  0  0  0  0
  -13.2193   -3.6385  -17.7217 C   0  0  0  0  0  0  0  0  0  0  0  0
  -11.3830   -4.1585  -14.0396 O   0  0  0  0  0  0  0  0  0  0  0  0
  -11.8787   -4.9083  -12.8971 C   0  0  0  0  0  0  0  0  0  0  0  0
  -14.2332   -7.0246  -13.8988 N   0  0  0  0  0  0  0  0  0  0  0  0
  -14.3570   -7.7306  -12.6072 C   0  0  0  0  0  0  0  0  0  0  0  0
  -13.4563   -7.1473  -11.5099 C   0  0  0  0  0  0  0  0  0  0  0  0
  -12.0793   -7.1504  -11.9039 O   0  0  0  0  0  0  0  0  0  0  0  0
  -11.8567   -6.4382  -13.1384 C   0  0  0  0  0  0  0  0  0  0  0  0
  -12.8032   -6.9615  -14.2483 C   0  0  0  0  0  0  0  0  0  0  0  0
  -14.9366   -5.7388  -13.9023 C   0  0  0  0  0  0  0  0  0  0  0  0
  -16.2980   -5.7824  -13.1954 C   0  0  0  0  0  0  0  0  0  0  0  0
  -16.5385   -4.4898  -12.4200 C   0  0  0  0  0  0  0  0  0  0  0  0
  -15.8229   -3.2993  -13.0363 C   0  0  0  0  0  0  0  0  0  0  0  0
  -15.3119   -2.3731  -11.9600 C   0  0  0  0  0  0  0  0  0  0  0  0
  -15.6265   -1.1935  -11.8228 O   0  0  0  0  0  0  0  0  0  0  0  0
  -14.9144   -3.1989   -9.8156 C   0  0  0  0  0  0  0  0  0  0  0  0
  -14.4484   -3.0450  -11.1563 O   0  0  0  0  0  0  0  0  0  0  0  0
 37 38  1  0  0  0
 38 35  1  0  0  0
 35 36  2  0  0  0
 35 34  1  0  0  0
 34 33  1  0  0  0
 33 32  1  0  0  0
 32 31  1  0  0  0
 31 25  1  0  0  0
 25 26  1  0  0  0
 25 30  1  0  0  0
 26 27  1  0  0  0
 27 28  1  0  0  0
 28 29  1  0  0  0
 29 24  1  0  0  0
 29 30  1  0  0  0
 24 23  1  0  0  0
 23  1  1  0  0  0
  1  2  1  0  0  0
  1 10  2  0  0  0
  2  3  2  0  0  0
  3  4  1  0  0  0
  3  8  1  0  0  0
  4  5  2  0  0  0
  5  6  1  0  0  0
  6  7  2  0  0  0
  7 11  1  0  0  0
  7  8  1  0  0  0
 11 13  1  0  0  0
 11 12  1  0  0  0
 13 14  1  0  0  0
 13 20  2  0  0  0
 14 15  2  0  0  0
 15 16  1  0  0  0
 16 17  1  0  0  0
 16 18  2  0  0  0
 18 19  1  0  0  0
 18 20  1  0  0  0
  8  9  2  0  0  0
  9 10  1  0  0  0
 10 21  1  0  0  0
 21 22  1  0  0  0
M  END
> <minimizedAffinity>
-7.27090

$$$$
