CHEMBL3221555


 30 32  0  0  0  0  0  0  0  0999 V2000
  -29.9001   -5.9513   -7.4698 N   0  0  0  0  0  0  0  0  0  0  0  0
  -29.9402   -5.3651   -8.3162 H   0  0  0  0  0  0  0  0  0  0  0  0
  -29.8270   -5.3377   -6.1852 C   0  0  0  0  0  0  0  0  0  0  0  0
  -30.3471   -5.9994   -5.1158 N   0  0  0  0  0  0  0  0  0  0  0  0
  -30.3268   -5.4805   -3.8680 C   0  0  0  0  0  0  0  0  0  0  0  0
  -29.7513   -4.2728   -3.6459 N   0  0  0  0  0  0  0  0  0  0  0  0
  -29.2066   -3.5661   -4.6691 C   0  0  0  0  0  0  0  0  0  0  0  0
  -28.5870   -2.3487   -4.4037 C   0  0  0  0  0  0  0  0  0  0  0  0
  -27.9785   -1.5916   -5.4331 C   0  0  0  0  0  0  0  0  0  0  0  0
  -28.0273   -2.1012   -6.7707 C   0  0  0  0  0  0  0  0  0  0  0  0
  -28.6528   -3.3243   -7.0125 C   0  0  0  0  0  0  0  0  0  0  0  0
  -29.2398   -4.0724   -5.9825 C   0  0  0  0  0  0  0  0  0  0  0  0
  -27.3548   -0.4157   -5.1432 O   0  0  0  0  0  0  0  0  0  0  0  0
  -27.9975    0.8078   -5.0066 C   0  0  0  0  0  0  0  0  0  0  0  0
  -27.4928   -1.4982   -7.8656 O   0  0  0  0  0  0  0  0  0  0  0  0
  -27.4423   -1.9094   -9.1772 C   0  0  0  0  0  0  0  0  0  0  0  0
  -28.7975   -9.4767   -8.0140 C   0  0  0  0  0  0  0  0  0  0  0  0
  -28.7673   -8.0830   -7.8724 C   0  0  0  0  0  0  0  0  0  0  0  0
  -29.9450   -7.3674   -7.6257 C   0  0  0  0  0  0  0  0  0  0  0  0
  -31.1575   -8.0723   -7.4960 C   0  0  0  0  0  0  0  0  0  0  0  0
  -31.1921   -9.4563   -7.6149 C   0  0  0  0  0  0  0  0  0  0  0  0
  -30.0205  -10.1757   -7.8777 C   0  0  0  0  0  0  0  0  0  0  0  0
  -30.0987  -11.6713   -8.0160 C   0  0  0  0  0  0  0  0  0  0  0  0
  -27.1418  -10.2951   -9.5775 C   0  0  0  0  0  0  0  0  0  0  0  0
  -26.0842  -10.8751   -9.7832 O   0  0  0  0  0  0  0  0  0  0  0  0
  -27.5910  -10.1590   -8.3081 N   0  0  0  0  0  0  0  0  0  0  0  0
  -27.0537  -10.5664   -7.5280 H   0  0  0  0  0  0  0  0  0  0  0  0
  -27.8684   -9.7955  -10.6121 O   0  0  0  0  0  0  0  0  0  0  0  0
  -28.7605  -10.0141  -12.8002 C   0  0  0  0  0  0  0  0  0  0  0  0
  -28.7543  -10.5359  -11.3670 C   0  0  0  0  0  0  0  0  0  0  0  0
 29 30  1  0  0  0
 30 28  1  0  0  0
 28 24  1  0  0  0
 24 25  2  0  0  0
 24 26  1  0  0  0
 26 17  1  0  0  0
 26 27  1  0  0  0
 17 18  1  0  0  0
 17 22  2  0  0  0
 18 19  2  0  0  0
 19  1  1  0  0  0
 19 20  1  0  0  0
  1  3  1  0  0  0
  1  2  1  0  0  0
  3  4  1  0  0  0
  3 12  2  0  0  0
  4  5  2  0  0  0
  5  6  1  0  0  0
  6  7  2  0  0  0
  7  8  1  0  0  0
  7 12  1  0  0  0
  8  9  2  0  0  0
  9 13  1  0  0  0
  9 10  1  0  0  0
 13 14  1  0  0  0
 10 15  1  0  0  0
 10 11  2  0  0  0
 15 16  1  0  0  0
 11 12  1  0  0  0
 20 21  2  0  0  0
 21 22  1  0  0  0
 22 23  1  0  0  0
M  END
> <minimizedAffinity>
-7.90677

$$$$
