CHEMBL447616


 47 53  0  0  0  0  0  0  0  0999 V2000
  -23.1511    0.6984  -13.1256 O   0  0  0  0  0  0  0  0  0  0  0  0
  -26.5720   -1.5107  -11.0271 C   0  0  0  0  0  0  0  0  0  0  0  0
  -26.9511   -1.9417  -12.2849 C   0  0  0  0  0  0  0  0  0  0  0  0
  -26.1129   -1.4373  -13.3243 C   0  0  0  0  0  0  0  0  0  0  0  0
  -26.2463   -1.7141  -14.6490 N   0  0  0  0  0  0  0  0  0  0  0  0
  -25.3031   -1.1832  -15.4501 C   0  0  0  0  0  0  0  0  0  0  0  0
  -24.2443   -0.3974  -15.0314 C   0  0  0  0  0  0  0  0  0  0  0  0
  -24.1519   -0.0616  -13.6822 C   0  0  0  0  0  0  0  0  0  0  0  0
  -25.1049   -0.6208  -12.8233 C   0  0  0  0  0  0  0  0  0  0  0  0
  -25.2360   -0.4403  -11.1295 S   0  0  0  0  0  0  0  0  0  0  0  0
  -28.4309   -2.3093   -7.2400 C   0  0  0  0  0  0  0  0  0  0  0  0
  -27.8816   -1.0525   -7.5170 C   0  0  0  0  0  0  0  0  0  0  0  0
  -27.2635   -0.7989   -8.7367 C   0  0  0  0  0  0  0  0  0  0  0  0
  -27.1595   -1.7996   -9.7147 C   0  0  0  0  0  0  0  0  0  0  0  0
  -27.6568   -3.0758   -9.4122 C   0  0  0  0  0  0  0  0  0  0  0  0
  -28.2971   -3.3245   -8.1939 C   0  0  0  0  0  0  0  0  0  0  0  0
  -29.1607   -2.5417   -5.9341 C   0  0  0  0  0  0  0  0  0  0  0  0
  -32.0909   -5.1239   -3.1866 C   0  0  0  0  0  0  0  0  0  0  0  0
  -30.6802   -4.8890   -3.4815 N   0  0  0  0  0  0  0  0  0  0  0  0
  -30.3752   -5.2236   -4.8832 C   0  0  0  0  0  0  0  0  0  0  0  0
  -28.9037   -4.9088   -5.2379 C   0  0  0  0  0  0  0  0  0  0  0  0
  -28.5089   -3.4987   -5.0217 N   0  0  0  0  0  0  0  0  0  0  0  0
  -28.8390   -3.1653   -3.6131 C   0  0  0  0  0  0  0  0  0  0  0  0
  -30.2962   -3.4955   -3.1888 C   0  0  0  0  0  0  0  0  0  0  0  0
  -22.0138    0.9734  -13.8367 C   0  0  0  0  0  0  0  0  0  0  0  0
  -21.2448    0.0146  -14.4900 C   0  0  0  0  0  0  0  0  0  0  0  0
  -20.0456    0.3836  -15.0971 C   0  0  0  0  0  0  0  0  0  0  0  0
  -19.6304    1.7174  -15.1040 C   0  0  0  0  0  0  0  0  0  0  0  0
  -20.4634    2.6933  -14.5534 C   0  0  0  0  0  0  0  0  0  0  0  0
  -21.6470    2.3150  -13.9285 C   0  0  0  0  0  0  0  0  0  0  0  0
  -22.4283    3.2663  -13.3951 F   0  0  0  0  0  0  0  0  0  0  0  0
  -18.4004    2.1387  -15.6315 N   0  0  0  0  0  0  0  0  0  0  0  0
  -17.1917    1.4825  -15.5669 C   0  0  0  0  0  0  0  0  0  0  0  0
  -16.9856    0.4027  -15.0166 O   0  0  0  0  0  0  0  0  0  0  0  0
  -16.1633    2.1450  -16.2111 N   0  0  0  0  0  0  0  0  0  0  0  0
  -14.8718    1.5222  -16.3488 C   0  0  0  0  0  0  0  0  0  0  0  0
  -14.1256    2.4739  -17.2549 C   0  0  0  0  0  0  0  0  0  0  0  0
  -14.7374    3.7466  -16.9581 N   0  0  0  0  0  0  0  0  0  0  0  0
  -16.0293    3.5374  -16.4250 C   0  0  0  0  0  0  0  0  0  0  0  0
  -16.9126    4.3638  -16.2286 O   0  0  0  0  0  0  0  0  0  0  0  0
  -18.3686    3.0642  -16.0548 H   0  0  0  0  0  0  0  0  0  0  0  0
  -14.0871    4.9790  -17.1528 C   0  0  0  0  0  0  0  0  0  0  0  0
  -13.0096    5.3621  -16.3462 C   0  0  0  0  0  0  0  0  0  0  0  0
  -12.2925    6.5286  -16.6275 C   0  0  0  0  0  0  0  0  0  0  0  0
  -12.6676    7.3418  -17.6942 C   0  0  0  0  0  0  0  0  0  0  0  0
  -13.7627    6.9922  -18.4790 C   0  0  0  0  0  0  0  0  0  0  0  0
  -14.4604    5.8124  -18.2155 C   0  0  0  0  0  0  0  0  0  0  0  0
 18 19  1  0  0  0
 19 20  1  0  0  0
 19 24  1  0  0  0
 20 21  1  0  0  0
 21 22  1  0  0  0
 22 17  1  0  0  0
 22 23  1  0  0  0
 17 11  1  0  0  0
 11 12  1  0  0  0
 11 16  2  0  0  0
 12 13  2  0  0  0
 13 14  1  0  0  0
 14  2  1  0  0  0
 14 15  2  0  0  0
  2  3  2  0  0  0
  2 10  1  0  0  0
  3  4  1  0  0  0
  4  5  1  0  0  0
  4  9  2  0  0  0
  5  6  2  0  0  0
  6  7  1  0  0  0
  7  8  2  0  0  0
  8  1  1  0  0  0
  8  9  1  0  0  0
  1 25  1  0  0  0
 25 26  1  0  0  0
 25 30  2  0  0  0
 26 27  2  0  0  0
 27 28  1  0  0  0
 28 32  1  0  0  0
 28 29  2  0  0  0
 32 33  1  0  0  0
 32 41  1  0  0  0
 33 34  2  0  0  0
 33 35  1  0  0  0
 35 36  1  0  0  0
 35 39  1  0  0  0
 36 37  1  0  0  0
 37 38  1  0  0  0
 38 42  1  0  0  0
 38 39  1  0  0  0
 42 43  1  0  0  0
 42 47  2  0  0  0
 43 44  2  0  0  0
 44 45  1  0  0  0
 45 46  2  0  0  0
 46 47  1  0  0  0
 39 40  2  0  0  0
 29 30  1  0  0  0
 30 31  1  0  0  0
  9 10  1  0  0  0
 15 16  1  0  0  0
 23 24  1  0  0  0
M  END
> <minimizedAffinity>
-10.74255

$$$$
