CHEMBL4782392


 37 41  0  0  0  0  0  0  0  0999 V2000
  -16.0247    2.0634  -15.9800 C   0  0  0  0  0  0  0  0  0  0  0  0
  -15.4138    1.3188  -15.0579 N   0  0  0  0  0  0  0  0  0  0  0  0
  -16.2170    0.7311  -14.1547 C   0  0  0  0  0  0  0  0  0  0  0  0
  -17.5910    0.8645  -14.1802 C   0  0  0  0  0  0  0  0  0  0  0  0
  -18.1524    1.6393  -15.1758 C   0  0  0  0  0  0  0  0  0  0  0  0
  -17.3477    2.2889  -16.0364 N   0  0  0  0  0  0  0  0  0  0  0  0
  -14.0521    4.6181  -17.5869 N   0  0  0  0  0  0  0  0  0  0  0  0
  -14.9217    4.0656  -16.6363 C   0  0  0  0  0  0  0  0  0  0  0  0
  -15.2884    4.6193  -15.6052 O   0  0  0  0  0  0  0  0  0  0  0  0
  -15.2616    2.7576  -16.9394 N   0  0  0  0  0  0  0  0  0  0  0  0
  -13.8418    4.0522  -18.3966 H   0  0  0  0  0  0  0  0  0  0  0  0
  -14.4405    2.2170  -17.1567 H   0  0  0  0  0  0  0  0  0  0  0  0
  -14.8276    6.8254  -19.4801 C   0  0  0  0  0  0  0  0  0  0  0  0
  -13.7754    6.9404  -18.4063 C   0  0  0  0  0  0  0  0  0  0  0  0
  -13.1046    8.1882  -18.3199 C   0  0  0  0  0  0  0  0  0  0  0  0
  -12.1070    8.4016  -17.3733 C   0  0  0  0  0  0  0  0  0  0  0  0
  -11.2819    9.9091  -17.3075 Cl  0  0  0  0  0  0  0  0  0  0  0  0
  -11.7786    7.3969  -16.4841 C   0  0  0  0  0  0  0  0  0  0  0  0
  -12.4373    6.1690  -16.5540 C   0  0  0  0  0  0  0  0  0  0  0  0
  -13.4300    5.9025  -17.5137 C   0  0  0  0  0  0  0  0  0  0  0  0
  -19.5206    1.7989  -15.3013 N   0  0  0  0  0  0  0  0  0  0  0  0
  -20.2054    3.0976  -15.3436 C   0  0  0  0  0  0  0  0  0  0  0  0
  -21.2005    3.2327  -14.1757 C   0  0  0  0  0  0  0  0  0  0  0  0
  -22.1079    2.1230  -14.1142 O   0  0  0  0  0  0  0  0  0  0  0  0
  -21.3749    0.9003  -13.9331 C   0  0  0  0  0  0  0  0  0  0  0  0
  -20.4175    0.6476  -15.1068 C   0  0  0  0  0  0  0  0  0  0  0  0
  -15.4769   -0.1827  -12.8024 S   0  0  0  0  0  0  0  0  0  0  0  0
  -15.0871   -1.7521  -13.4762 C   0  0  0  0  0  0  0  0  0  0  0  0
  -14.3136   -2.0163  -14.5810 C   0  0  0  0  0  0  0  0  0  0  0  0
  -14.2272   -3.3723  -14.7244 N   0  0  0  0  0  0  0  0  0  0  0  0
  -14.9546   -4.0063  -13.7432 C   0  0  0  0  0  0  0  0  0  0  0  0
  -15.1355   -5.3748  -13.5055 C   0  0  0  0  0  0  0  0  0  0  0  0
  -15.9336   -5.7476  -12.4232 C   0  0  0  0  0  0  0  0  0  0  0  0
  -16.5307   -4.7861  -11.6115 C   0  0  0  0  0  0  0  0  0  0  0  0
  -16.3341   -3.4193  -11.8584 C   0  0  0  0  0  0  0  0  0  0  0  0
  -15.5242   -3.0104  -12.9439 C   0  0  0  0  0  0  0  0  0  0  0  0
  -13.6939   -3.8460  -15.4411 H   0  0  0  0  0  0  0  0  0  0  0  0
 13 14  1  0  0  0
 14 15  1  0  0  0
 14 20  2  0  0  0
 15 16  2  0  0  0
 16 17  1  0  0  0
 16 18  1  0  0  0
 18 19  2  0  0  0
 19 20  1  0  0  0
 20  7  1  0  0  0
  7  8  1  0  0  0
  7 11  1  0  0  0
  8  9  2  0  0  0
  8 10  1  0  0  0
 10  1  1  0  0  0
 10 12  1  0  0  0
  1  2  1  0  0  0
  1  6  2  0  0  0
  2  3  2  0  0  0
  3 27  1  0  0  0
  3  4  1  0  0  0
 27 28  1  0  0  0
 28 29  2  0  0  0
 28 36  1  0  0  0
 29 30  1  0  0  0
 30 31  1  0  0  0
 30 37  1  0  0  0
 31 32  1  0  0  0
 31 36  2  0  0  0
 32 33  2  0  0  0
 33 34  1  0  0  0
 34 35  2  0  0  0
 35 36  1  0  0  0
  4  5  2  0  0  0
  5 21  1  0  0  0
  5  6  1  0  0  0
 21 22  1  0  0  0
 21 26  1  0  0  0
 22 23  1  0  0  0
 23 24  1  0  0  0
 24 25  1  0  0  0
 25 26  1  0  0  0
M  END
> <minimizedAffinity>
-8.88521

$$$$
