CHEMBL183803


 33 36  0  0  0  0  0  0  0  0999 V2000
  -20.8161    1.8775  -14.9532 C   0  0  0  0  0  0  0  0  0  0  0  0
  -20.8121    0.4833  -14.8877 C   0  0  0  0  0  0  0  0  0  0  0  0
  -21.8416   -0.2025  -14.2347 C   0  0  0  0  0  0  0  0  0  0  0  0
  -22.8904    0.4810  -13.5970 C   0  0  0  0  0  0  0  0  0  0  0  0
  -22.8196    1.8872  -13.6048 C   0  0  0  0  0  0  0  0  0  0  0  0
  -21.8010    2.5825  -14.2742 C   0  0  0  0  0  0  0  0  0  0  0  0
  -24.0014   -0.2592  -12.9465 C   0  0  0  0  0  0  0  0  0  0  0  0
  -23.9831   -0.5101  -11.5544 C   0  0  0  0  0  0  0  0  0  0  0  0
  -25.0084   -1.2183  -10.8892 C   0  0  0  0  0  0  0  0  0  0  0  0
  -26.1337   -1.6709  -11.5717 C   0  0  0  0  0  0  0  0  0  0  0  0
  -27.0723   -2.4825  -10.9311 N   0  0  0  0  0  0  0  0  0  0  0  0
  -26.1218   -1.4692  -12.9436 C   0  0  0  0  0  0  0  0  0  0  0  0
  -25.1020   -0.7822  -13.6306 C   0  0  0  0  0  0  0  0  0  0  0  0
  -25.4255   -0.7823  -15.0932 C   0  0  0  0  0  0  0  0  0  0  0  0
  -26.6650   -1.5100  -15.1634 N   0  0  0  0  0  0  0  0  0  0  0  0
  -27.1374   -1.8757  -13.9258 C   0  0  0  0  0  0  0  0  0  0  0  0
  -28.2113   -2.3922  -13.6857 O   0  0  0  0  0  0  0  0  0  0  0  0
  -27.2261   -2.2738   -9.9513 H   0  0  0  0  0  0  0  0  0  0  0  0
  -27.9440   -2.5717  -11.4612 H   0  0  0  0  0  0  0  0  0  0  0  0
  -27.2377   -1.6135  -15.9901 H   0  0  0  0  0  0  0  0  0  0  0  0
  -17.7443    3.2646  -16.2742 N   0  0  0  0  0  0  0  0  0  0  0  0
  -18.5411    2.5631  -15.3967 C   0  0  0  0  0  0  0  0  0  0  0  0
  -18.1307    1.9400  -14.4156 O   0  0  0  0  0  0  0  0  0  0  0  0
  -19.8824    2.5794  -15.7541 N   0  0  0  0  0  0  0  0  0  0  0  0
  -18.2097    3.8982  -16.9085 H   0  0  0  0  0  0  0  0  0  0  0  0
  -20.0447    2.5676  -16.7502 H   0  0  0  0  0  0  0  0  0  0  0  0
  -13.4235    0.8607  -16.6353 C   0  0  0  0  0  0  0  0  0  0  0  0
  -14.1964    2.1268  -16.4087 C   0  0  0  0  0  0  0  0  0  0  0  0
  -13.5115    3.3239  -16.1728 C   0  0  0  0  0  0  0  0  0  0  0  0
  -14.2176    4.4992  -15.9626 C   0  0  0  0  0  0  0  0  0  0  0  0
  -15.6113    4.4905  -15.9859 C   0  0  0  0  0  0  0  0  0  0  0  0
  -16.3263    3.3124  -16.2342 C   0  0  0  0  0  0  0  0  0  0  0  0
  -15.6048    2.1278  -16.4383 C   0  0  0  0  0  0  0  0  0  0  0  0
 27 28  1  0  0  0
 28 29  1  0  0  0
 28 33  2  0  0  0
 29 30  2  0  0  0
 30 31  1  0  0  0
 31 32  2  0  0  0
 32 21  1  0  0  0
 32 33  1  0  0  0
 21 22  1  0  0  0
 21 25  1  0  0  0
 22 23  2  0  0  0
 22 24  1  0  0  0
 24  1  1  0  0  0
 24 26  1  0  0  0
  1  2  1  0  0  0
  1  6  2  0  0  0
  2  3  2  0  0  0
  3  4  1  0  0  0
  4  7  1  0  0  0
  4  5  2  0  0  0
  7  8  1  0  0  0
  7 13  2  0  0  0
  8  9  2  0  0  0
  9 10  1  0  0  0
 10 11  1  0  0  0
 10 12  2  0  0  0
 11 18  1  0  0  0
 11 19  1  0  0  0
 12 13  1  0  0  0
 12 16  1  0  0  0
 13 14  1  0  0  0
 14 15  1  0  0  0
 15 16  1  0  0  0
 15 20  1  0  0  0
 16 17  2  0  0  0
  5  6  1  0  0  0
M  END
> <minimizedAffinity>
-9.83227

$$$$
