CHEMBL3892155


 42 45  0  0  0  0  0  0  0  0999 V2000
  -28.6261   -9.4629   -5.5311 N   0  0  0  0  0  0  0  0  0  0  0  0
  -28.8960   -8.0373   -5.7831 C   0  0  0  0  0  0  0  0  0  0  0  0
  -29.3981   -7.8222   -7.0607 C   0  0  0  0  0  0  0  0  0  0  0  0
  -29.3588   -6.6157   -7.6516 C   0  0  0  0  0  0  0  0  0  0  0  0
  -28.8666   -5.5311   -7.0012 C   0  0  0  0  0  0  0  0  0  0  0  0
  -28.7148   -4.4712   -7.7766 N   0  0  0  0  0  0  0  0  0  0  0  0
  -28.3207   -3.3028   -7.3305 C   0  0  0  0  0  0  0  0  0  0  0  0
  -28.1958   -3.0765   -5.9623 C   0  0  0  0  0  0  0  0  0  0  0  0
  -28.2457   -4.2104   -5.1102 N   0  0  0  0  0  0  0  0  0  0  0  0
  -28.5367   -5.5000   -5.6380 C   0  0  0  0  0  0  0  0  0  0  0  0
  -28.5206   -6.8396   -4.9819 C   0  0  0  0  0  0  0  0  0  0  0  0
  -28.3161   -1.5525   -5.6672 C   0  0  0  0  0  0  0  0  0  0  0  0
  -27.7102   -0.6954   -4.7438 C   0  0  0  0  0  0  0  0  0  0  0  0
  -28.4214    0.4719   -4.6778 N   0  0  0  0  0  0  0  0  0  0  0  0
  -29.4179    0.4201   -5.5499 N   0  0  0  0  0  0  0  0  0  0  0  0
  -29.3459   -0.7337   -6.1985 C   0  0  0  0  0  0  0  0  0  0  0  0
  -30.5468    1.3742   -5.6617 C   0  0  0  0  0  0  0  0  0  0  0  0
  -30.7259    1.9599   -7.1068 C   0  0  0  0  0  0  0  0  0  0  0  0
  -32.1630    2.3529   -7.4998 C   0  0  0  0  0  0  0  0  0  0  0  0
  -32.1689    3.3148   -8.5973 N   0  0  0  0  0  0  0  0  0  0  0  0
  -31.6737    4.1857   -8.2931 H   0  0  0  0  0  0  0  0  0  0  0  0
  -33.1523    3.5716   -8.8347 H   0  0  0  0  0  0  0  0  0  0  0  0
  -25.0078  -10.6369   -5.8896 C   0  0  0  0  0  0  0  0  0  0  0  0
  -24.8101  -11.1457   -4.5918 C   0  0  0  0  0  0  0  0  0  0  0  0
  -25.8369  -11.1475   -3.6627 C   0  0  0  0  0  0  0  0  0  0  0  0
  -27.0806  -10.6210   -4.0192 C   0  0  0  0  0  0  0  0  0  0  0  0
  -27.3492  -10.1123   -5.3045 C   0  0  0  0  0  0  0  0  0  0  0  0
  -26.2920  -10.1333   -6.2523 C   0  0  0  0  0  0  0  0  0  0  0  0
  -22.6289  -10.4984   -6.4480 C   0  0  0  0  0  0  0  0  0  0  0  0
  -23.9772  -10.5987   -6.7845 O   0  0  0  0  0  0  0  0  0  0  0  0
  -25.5964  -11.6580   -2.4265 O   0  0  0  0  0  0  0  0  0  0  0  0
  -24.3456  -11.8532   -1.8758 C   0  0  0  0  0  0  0  0  0  0  0  0
  -29.8492  -10.3500   -5.4927 C   0  0  0  0  0  0  0  0  0  0  0  0
  -29.9793  -11.3693   -6.6822 C   0  0  0  0  0  0  0  0  0  0  0  0
  -31.1081  -11.0040   -7.6927 C   0  0  0  0  0  0  0  0  0  0  0  0
  -30.7211  -11.3324   -9.0840 N   0  0  0  0  0  0  0  0  0  0  0  0
  -31.0279  -10.5526   -9.7169 H   0  0  0  0  0  0  0  0  0  0  0  0
  -29.2616  -11.5167   -9.2568 C   0  0  0  0  0  0  0  0  0  0  0  0
  -28.6190  -10.3763  -10.0890 C   0  0  0  0  0  0  0  0  0  0  0  0
  -27.8479   -9.5365   -9.3043 F   0  0  0  0  0  0  0  0  0  0  0  0
  -27.8129  -10.9055  -11.0844 F   0  0  0  0  0  0  0  0  0  0  0  0
  -29.6036   -9.6151  -10.6990 F   0  0  0  0  0  0  0  0  0  0  0  0
 29 30  1  0  0  0
 30 23  1  0  0  0
 23 24  1  0  0  0
 23 28  2  0  0  0
 24 25  2  0  0  0
 25 31  1  0  0  0
 25 26  1  0  0  0
 31 32  1  0  0  0
 26 27  2  0  0  0
 27  1  1  0  0  0
 27 28  1  0  0  0
  1 33  1  0  0  0
  1  2  1  0  0  0
 33 34  1  0  0  0
 34 35  1  0  0  0
 35 36  1  0  0  0
 36 38  1  0  0  0
 36 37  1  0  0  0
 38 39  1  0  0  0
 39 40  1  0  0  0
 39 41  1  0  0  0
 39 42  1  0  0  0
  2  3  1  0  0  0
  2 11  2  0  0  0
  3  4  2  0  0  0
  4  5  1  0  0  0
  5  6  1  0  0  0
  5 10  2  0  0  0
  6  7  2  0  0  0
  7  8  1  0  0  0
  8 12  1  0  0  0
  8  9  2  0  0  0
 12 13  1  0  0  0
 12 16  2  0  0  0
 13 14  2  0  0  0
 14 15  1  0  0  0
 15 17  1  0  0  0
 15 16  1  0  0  0
 17 18  1  0  0  0
 18 19  1  0  0  0
 19 20  1  0  0  0
 20 21  1  0  0  0
 20 22  1  0  0  0
  9 10  1  0  0  0
 10 11  1  0  0  0
M  END
> <minimizedAffinity>
-7.33241

$$$$
