CHEMBL1972142


 27 30  0  0  0  0  0  0  0  0999 V2000
  -27.0198   11.1547  -15.0478 C   0  0  0  0  0  0  0  0  0  0  0  0
  -27.5154   10.6534  -16.2548 C   0  0  0  0  0  0  0  0  0  0  0  0
  -28.8785   10.4249  -16.4020 C   0  0  0  0  0  0  0  0  0  0  0  0
  -29.7463   10.6913  -15.3420 C   0  0  0  0  0  0  0  0  0  0  0  0
  -29.2776   11.1821  -14.1062 C   0  0  0  0  0  0  0  0  0  0  0  0
  -27.8983   11.4357  -13.9924 C   0  0  0  0  0  0  0  0  0  0  0  0
  -30.1853   11.3559  -12.9510 C   0  0  0  0  0  0  0  0  0  0  0  0
  -29.7603   12.0235  -11.7911 C   0  0  0  0  0  0  0  0  0  0  0  0
  -30.4965   12.3134  -10.6882 N   0  0  0  0  0  0  0  0  0  0  0  0
  -31.7682   11.9029  -10.8020 C   0  0  0  0  0  0  0  0  0  0  0  0
  -32.7289   12.1014   -9.8493 N   0  0  0  0  0  0  0  0  0  0  0  0
  -33.9209   11.5781  -10.2789 C   0  0  0  0  0  0  0  0  0  0  0  0
  -33.7135   11.0228  -11.5254 C   0  0  0  0  0  0  0  0  0  0  0  0
  -32.3490   11.2276  -11.8671 C   0  0  0  0  0  0  0  0  0  0  0  0
  -31.5264   10.9301  -12.9701 C   0  0  0  0  0  0  0  0  0  0  0  0
  -32.5555   12.5795   -8.9781 H   0  0  0  0  0  0  0  0  0  0  0  0
  -25.1200   12.0460  -13.9901 O   0  0  0  0  0  0  0  0  0  0  0  0
  -25.5575   11.3843  -14.9271 C   0  0  0  0  0  0  0  0  0  0  0  0
  -24.7616   10.8566  -15.9222 N   0  0  0  0  0  0  0  0  0  0  0  0
  -25.1828   10.5611  -16.7931 H   0  0  0  0  0  0  0  0  0  0  0  0
  -23.3453   11.1386  -15.9335 C   0  0  0  0  0  0  0  0  0  0  0  0
  -22.8170   11.3254  -17.3307 C   0  0  0  0  0  0  0  0  0  0  0  0
  -23.6556   11.7780  -18.3583 C   0  0  0  0  0  0  0  0  0  0  0  0
  -23.1390   12.0444  -19.6278 C   0  0  0  0  0  0  0  0  0  0  0  0
  -21.7818   11.8576  -19.8838 C   0  0  0  0  0  0  0  0  0  0  0  0
  -20.9410   11.3913  -18.8753 C   0  0  0  0  0  0  0  0  0  0  0  0
  -21.4554   11.1252  -17.6055 C   0  0  0  0  0  0  0  0  0  0  0  0
 17 18  2  0  0  0
 18 19  1  0  0  0
 18  1  1  0  0  0
 19 21  1  0  0  0
 19 20  1  0  0  0
 21 22  1  0  0  0
 22 23  1  0  0  0
 22 27  2  0  0  0
 23 24  2  0  0  0
 24 25  1  0  0  0
 25 26  2  0  0  0
 26 27  1  0  0  0
  1  2  1  0  0  0
  1  6  2  0  0  0
  2  3  2  0  0  0
  3  4  1  0  0  0
  4  5  2  0  0  0
  5  7  1  0  0  0
  5  6  1  0  0  0
  7  8  1  0  0  0
  7 15  2  0  0  0
  8  9  2  0  0  0
  9 10  1  0  0  0
 10 11  1  0  0  0
 10 14  2  0  0  0
 11 12  1  0  0  0
 11 16  1  0  0  0
 12 13  2  0  0  0
 13 14  1  0  0  0
 14 15  1  0  0  0
M  END
> <minimizedAffinity>
-6.28225

$$$$
