CHEMBL1242294


 25 28  0  0  0  0  0  0  0  0999 V2000
  -29.1216   -9.6754   -9.1894 N   0  0  0  0  0  0  0  0  0  0  0  0
  -28.6892   -8.4586   -8.7944 N   0  0  0  0  0  0  0  0  0  0  0  0
  -29.6333   -8.0227   -7.9381 C   0  0  0  0  0  0  0  0  0  0  0  0
  -30.7093   -8.9663   -7.8375 C   0  0  0  0  0  0  0  0  0  0  0  0
  -31.9557   -9.0975   -7.2055 C   0  0  0  0  0  0  0  0  0  0  0  0
  -32.5750   -8.1214   -6.4359 N   0  0  0  0  0  0  0  0  0  0  0  0
  -32.6504  -10.2435   -7.3638 N   0  0  0  0  0  0  0  0  0  0  0  0
  -32.1322  -11.2115   -8.1407 C   0  0  0  0  0  0  0  0  0  0  0  0
  -30.9814  -11.1858   -8.8266 N   0  0  0  0  0  0  0  0  0  0  0  0
  -30.3170  -10.0332   -8.6309 C   0  0  0  0  0  0  0  0  0  0  0  0
  -32.3934   -7.1722   -6.7391 H   0  0  0  0  0  0  0  0  0  0  0  0
  -33.5531   -8.3543   -6.3019 H   0  0  0  0  0  0  0  0  0  0  0  0
  -29.4581   -6.7311   -7.2576 C   0  0  0  0  0  0  0  0  0  0  0  0
  -30.1053   -5.5789   -7.7171 C   0  0  0  0  0  0  0  0  0  0  0  0
  -29.9365   -4.3340   -7.0987 C   0  0  0  0  0  0  0  0  0  0  0  0
  -29.1550   -4.2919   -5.9432 C   0  0  0  0  0  0  0  0  0  0  0  0
  -28.8644   -3.2376   -5.1075 N   0  0  0  0  0  0  0  0  0  0  0  0
  -28.1163   -3.6702   -4.0454 C   0  0  0  0  0  0  0  0  0  0  0  0
  -27.8768   -5.0146   -4.2197 C   0  0  0  0  0  0  0  0  0  0  0  0
  -28.5296   -5.4210   -5.4169 C   0  0  0  0  0  0  0  0  0  0  0  0
  -28.6663   -6.6508   -6.0954 C   0  0  0  0  0  0  0  0  0  0  0  0
  -29.1928   -2.2915   -5.2439 H   0  0  0  0  0  0  0  0  0  0  0  0
  -28.8807  -10.2877  -11.5694 C   0  0  0  0  0  0  0  0  0  0  0  0
  -28.3471  -10.4581  -10.1471 C   0  0  0  0  0  0  0  0  0  0  0  0
  -26.8557  -10.1326  -10.0724 C   0  0  0  0  0  0  0  0  0  0  0  0
 23 24  1  0  0  0
 24 25  1  0  0  0
 24  1  1  0  0  0
  1  2  1  0  0  0
  1 10  1  0  0  0
  2  3  2  0  0  0
  3 13  1  0  0  0
  3  4  1  0  0  0
 13 14  1  0  0  0
 13 21  2  0  0  0
 14 15  2  0  0  0
 15 16  1  0  0  0
 16 17  1  0  0  0
 16 20  2  0  0  0
 17 18  1  0  0  0
 17 22  1  0  0  0
 18 19  2  0  0  0
 19 20  1  0  0  0
 20 21  1  0  0  0
  4  5  1  0  0  0
  4 10  2  0  0  0
  5  6  1  0  0  0
  5  7  2  0  0  0
  6 11  1  0  0  0
  6 12  1  0  0  0
  7  8  1  0  0  0
  8  9  2  0  0  0
  9 10  1  0  0  0
M  END
> <minimizedAffinity>
-7.88385

$$$$
