CHEMBL2349004


 30 34  0  0  0  0  0  0  0  0999 V2000
  -29.8388   -6.0439   -5.7613 C   0  0  0  0  0  0  0  0  0  0  0  0
  -30.4887   -5.9419   -4.4320 C   0  0  0  0  0  0  0  0  0  0  0  0
  -30.0773   -6.8105   -3.4989 C   0  0  0  0  0  0  0  0  0  0  0  0
  -29.1098   -7.7824   -3.8380 C   0  0  0  0  0  0  0  0  0  0  0  0
  -28.5575   -8.7394   -3.1274 N   0  0  0  0  0  0  0  0  0  0  0  0
  -27.7149   -9.3902   -3.9799 C   0  0  0  0  0  0  0  0  0  0  0  0
  -27.7468   -8.8226   -5.2330 C   0  0  0  0  0  0  0  0  0  0  0  0
  -28.6395   -7.7864   -5.1392 N   0  0  0  0  0  0  0  0  0  0  0  0
  -28.9671   -6.9247   -6.1407 N   0  0  0  0  0  0  0  0  0  0  0  0
  -26.9494  -10.4735   -3.6182 N   0  0  0  0  0  0  0  0  0  0  0  0
  -25.6135  -10.3884   -3.2889 C   0  0  0  0  0  0  0  0  0  0  0  0
  -24.9028   -9.3899   -3.2853 O   0  0  0  0  0  0  0  0  0  0  0  0
  -27.4074  -11.3718   -3.6009 H   0  0  0  0  0  0  0  0  0  0  0  0
  -25.0097  -11.7119   -2.9279 C   0  0  0  0  0  0  0  0  0  0  0  0
  -24.8519  -12.1073   -1.4749 C   0  0  0  0  0  0  0  0  0  0  0  0
  -23.6414  -11.7459   -2.2847 C   0  0  0  0  0  0  0  0  0  0  0  0
  -30.3020   -5.0048   -6.5667 O   0  0  0  0  0  0  0  0  0  0  0  0
  -27.9427   -2.7179   -8.2903 C   0  0  0  0  0  0  0  0  0  0  0  0
  -27.9216   -1.6577   -7.3769 C   0  0  0  0  0  0  0  0  0  0  0  0
  -28.6452   -1.7146   -6.1869 C   0  0  0  0  0  0  0  0  0  0  0  0
  -29.4165   -2.8320   -5.8959 C   0  0  0  0  0  0  0  0  0  0  0  0
  -29.4644   -3.8882   -6.8068 C   0  0  0  0  0  0  0  0  0  0  0  0
  -28.7635   -3.8253   -8.0201 C   0  0  0  0  0  0  0  0  0  0  0  0
  -28.0992   -0.8853  -10.5737 O   0  0  0  0  0  0  0  0  0  0  0  0
  -27.3035   -1.8133  -10.5186 C   0  0  0  0  0  0  0  0  0  0  0  0
  -27.1534   -2.7061   -9.4672 N   0  0  0  0  0  0  0  0  0  0  0  0
  -26.3362   -3.2996   -9.4765 H   0  0  0  0  0  0  0  0  0  0  0  0
  -26.3755   -1.9588  -11.6772 C   0  0  0  0  0  0  0  0  0  0  0  0
  -25.9596   -0.8696  -12.6276 C   0  0  0  0  0  0  0  0  0  0  0  0
  -26.9115   -1.9371  -13.0885 C   0  0  0  0  0  0  0  0  0  0  0  0
 24 25  2  0  0  0
 25 26  1  0  0  0
 25 28  1  0  0  0
 26 18  1  0  0  0
 26 27  1  0  0  0
 18 19  1  0  0  0
 18 23  2  0  0  0
 19 20  2  0  0  0
 20 21  1  0  0  0
 21 22  2  0  0  0
 22 17  1  0  0  0
 22 23  1  0  0  0
 17  1  1  0  0  0
  1  2  1  0  0  0
  1  9  2  0  0  0
  2  3  2  0  0  0
  3  4  1  0  0  0
  4  5  2  0  0  0
  4  8  1  0  0  0
  5  6  1  0  0  0
  6 10  1  0  0  0
  6  7  2  0  0  0
 10 11  1  0  0  0
 10 13  1  0  0  0
 11 12  2  0  0  0
 11 14  1  0  0  0
 14 15  1  0  0  0
 14 16  1  0  0  0
 15 16  1  0  0  0
  7  8  1  0  0  0
  8  9  1  0  0  0
 28 29  1  0  0  0
 28 30  1  0  0  0
 29 30  1  0  0  0
M  END
> <minimizedAffinity>
-8.74110

$$$$
