CHEMBL4104537


 41 45  0  0  0  0  0  0  0  0999 V2000
  -27.9598   -2.5865   -9.8983 N   0  0  0  0  0  0  0  0  0  0  0  0
  -26.8180   -1.8507  -10.2537 C   0  0  0  0  0  0  0  0  0  0  0  0
  -26.0634   -1.2867   -9.4689 O   0  0  0  0  0  0  0  0  0  0  0  0
  -28.4621   -3.0895  -10.6182 H   0  0  0  0  0  0  0  0  0  0  0  0
  -26.4346   -1.7108  -11.7099 C   0  0  0  0  0  0  0  0  0  0  0  0
  -27.2271   -2.1835  -12.7556 C   0  0  0  0  0  0  0  0  0  0  0  0
  -26.8494   -1.9356  -14.0845 C   0  0  0  0  0  0  0  0  0  0  0  0
  -25.6849   -1.2075  -14.3841 C   0  0  0  0  0  0  0  0  0  0  0  0
  -25.3040   -0.9607  -16.0596 Cl  0  0  0  0  0  0  0  0  0  0  0  0
  -24.8807   -0.7076  -13.3638 C   0  0  0  0  0  0  0  0  0  0  0  0
  -25.2649   -0.9675  -12.0260 C   0  0  0  0  0  0  0  0  0  0  0  0
  -23.6828    0.0566  -13.6426 C   0  0  0  0  0  0  0  0  0  0  0  0
  -22.7059    0.7382  -13.8400 C   0  0  0  0  0  0  0  0  0  0  0  0
  -21.6553    1.6812  -14.1302 C   0  0  0  0  0  0  0  0  0  0  0  0
  -21.8296    3.0436  -13.9018 C   0  0  0  0  0  0  0  0  0  0  0  0
  -20.8331    3.9613  -13.9699 N   0  0  0  0  0  0  0  0  0  0  0  0
  -19.6140    3.5014  -14.3334 C   0  0  0  0  0  0  0  0  0  0  0  0
  -19.3495    2.1836  -14.7169 C   0  0  0  0  0  0  0  0  0  0  0  0
  -18.0949    1.7875  -15.2167 C   0  0  0  0  0  0  0  0  0  0  0  0
  -17.8796    0.4717  -15.6256 C   0  0  0  0  0  0  0  0  0  0  0  0
  -18.8955   -0.4686  -15.5010 C   0  0  0  0  0  0  0  0  0  0  0  0
  -20.1337   -0.0919  -14.9852 C   0  0  0  0  0  0  0  0  0  0  0  0
  -20.3975    1.2442  -14.6011 C   0  0  0  0  0  0  0  0  0  0  0  0
  -29.4661   -3.0160   -5.8601 C   0  0  0  0  0  0  0  0  0  0  0  0
  -29.8449   -3.8711   -6.9064 C   0  0  0  0  0  0  0  0  0  0  0  0
  -29.3517   -3.7431   -8.2073 C   0  0  0  0  0  0  0  0  0  0  0  0
  -28.4820   -2.7207   -8.5625 C   0  0  0  0  0  0  0  0  0  0  0  0
  -28.1211   -1.8199   -7.5380 C   0  0  0  0  0  0  0  0  0  0  0  0
  -28.5847   -1.9608   -6.1789 C   0  0  0  0  0  0  0  0  0  0  0  0
  -28.1075   -0.9350   -5.1625 C   0  0  0  0  0  0  0  0  0  0  0  0
  -27.2019   -0.0223   -5.6035 F   0  0  0  0  0  0  0  0  0  0  0  0
  -29.1356   -0.2060   -4.6406 F   0  0  0  0  0  0  0  0  0  0  0  0
  -27.5112   -1.5340   -4.0885 F   0  0  0  0  0  0  0  0  0  0  0  0
  -30.0547   -3.3223   -4.4816 C   0  0  0  0  0  0  0  0  0  0  0  0
  -29.4183   -7.8561   -5.9060 C   0  0  0  0  0  0  0  0  0  0  0  0
  -29.0776   -6.9193   -4.8365 N   0  0  0  0  0  0  0  0  0  0  0  0
  -28.3231   -5.7744   -5.3699 C   0  0  0  0  0  0  0  0  0  0  0  0
  -28.0151   -4.7268   -4.2738 C   0  0  0  0  0  0  0  0  0  0  0  0
  -29.2124   -4.1640   -3.6061 N   0  0  0  0  0  0  0  0  0  0  0  0
  -29.9855   -5.3282   -3.0875 C   0  0  0  0  0  0  0  0  0  0  0  0
  -30.2825   -6.4527   -4.1238 C   0  0  0  0  0  0  0  0  0  0  0  0
 35 36  1  0  0  0
 36 37  1  0  0  0
 36 41  1  0  0  0
 37 38  1  0  0  0
 38 39  1  0  0  0
 39 34  1  0  0  0
 39 40  1  0  0  0
 34 24  1  0  0  0
 24 25  1  0  0  0
 24 29  2  0  0  0
 25 26  2  0  0  0
 26 27  1  0  0  0
 27  1  1  0  0  0
 27 28  2  0  0  0
  1  2  1  0  0  0
  1  4  1  0  0  0
  2  3  2  0  0  0
  2  5  1  0  0  0
  5  6  1  0  0  0
  5 11  2  0  0  0
  6  7  2  0  0  0
  7  8  1  0  0  0
  8  9  1  0  0  0
  8 10  2  0  0  0
 10 12  1  0  0  0
 10 11  1  0  0  0
 12 13  3  0  0  0
 13 14  1  0  0  0
 14 15  1  0  0  0
 14 23  2  0  0  0
 15 16  2  0  0  0
 16 17  1  0  0  0
 17 18  2  0  0  0
 18 19  1  0  0  0
 18 23  1  0  0  0
 19 20  2  0  0  0
 20 21  1  0  0  0
 21 22  2  0  0  0
 22 23  1  0  0  0
 28 29  1  0  0  0
 29 30  1  0  0  0
 30 31  1  0  0  0
 30 32  1  0  0  0
 30 33  1  0  0  0
 40 41  1  0  0  0
M  END
> <minimizedAffinity>
-11.69931

$$$$
