CHEMBL3965529


 36 39  0  0  0  0  0  0  0  0999 V2000
  -29.2176   -5.4840   -5.4793 C   0  0  0  0  0  0  0  0  0  0  0  0
  -28.3557   -4.6782   -6.1942 C   0  0  0  0  0  0  0  0  0  0  0  0
  -28.7826   -3.3157   -6.3201 C   0  0  0  0  0  0  0  0  0  0  0  0
  -29.9251   -3.1090   -5.5819 C   0  0  0  0  0  0  0  0  0  0  0  0
  -30.4706   -4.5314   -4.7941 S   0  0  0  0  0  0  0  0  0  0  0  0
  -29.6128   -8.4638   -8.4119 N   0  0  0  0  0  0  0  0  0  0  0  0
  -30.1676   -7.7115   -7.4124 C   0  0  0  0  0  0  0  0  0  0  0  0
  -31.0677   -6.9007   -7.5537 O   0  0  0  0  0  0  0  0  0  0  0  0
  -29.5304   -7.9071   -6.1683 N   0  0  0  0  0  0  0  0  0  0  0  0
  -29.1279   -6.9131   -5.2636 C   0  0  0  0  0  0  0  0  0  0  0  0
  -28.5788   -7.5530   -4.1666 C   0  0  0  0  0  0  0  0  0  0  0  0
  -28.6938   -8.9502   -4.3454 C   0  0  0  0  0  0  0  0  0  0  0  0
  -28.3722  -10.0553   -3.5338 C   0  0  0  0  0  0  0  0  0  0  0  0
  -28.6552  -11.3479   -3.9820 C   0  0  0  0  0  0  0  0  0  0  0  0
  -29.2470  -11.5486   -5.2232 C   0  0  0  0  0  0  0  0  0  0  0  0
  -29.5695  -10.4662   -6.0469 C   0  0  0  0  0  0  0  0  0  0  0  0
  -29.2717   -9.1632   -5.5968 C   0  0  0  0  0  0  0  0  0  0  0  0
  -29.8989   -8.2439   -9.3577 H   0  0  0  0  0  0  0  0  0  0  0  0
  -28.7501   -8.9788   -8.2883 H   0  0  0  0  0  0  0  0  0  0  0  0
  -28.1765   -2.3008   -7.0716 N   0  0  0  0  0  0  0  0  0  0  0  0
  -27.7955   -2.4706   -8.3858 C   0  0  0  0  0  0  0  0  0  0  0  0
  -27.9129   -3.5342   -8.9943 O   0  0  0  0  0  0  0  0  0  0  0  0
  -27.2322   -1.3385   -8.9607 N   0  0  0  0  0  0  0  0  0  0  0  0
  -28.1100   -1.3900   -6.6482 H   0  0  0  0  0  0  0  0  0  0  0  0
  -26.8051   -0.6713   -8.3353 H   0  0  0  0  0  0  0  0  0  0  0  0
  -26.7993   -1.3284  -10.3154 C   0  0  0  0  0  0  0  0  0  0  0  0
  -27.7048   -1.2893  -11.3803 C   0  0  0  0  0  0  0  0  0  0  0  0
  -27.2801   -1.4841  -12.6897 C   0  0  0  0  0  0  0  0  0  0  0  0
  -25.9293   -1.6784  -12.9731 C   0  0  0  0  0  0  0  0  0  0  0  0
  -25.5417   -1.9776  -14.6256 Cl  0  0  0  0  0  0  0  0  0  0  0  0
  -24.9873   -1.6361  -11.9410 C   0  0  0  0  0  0  0  0  0  0  0  0
  -25.4374   -1.4247  -10.6074 C   0  0  0  0  0  0  0  0  0  0  0  0
  -23.5088   -1.8527  -12.1524 C   0  0  0  0  0  0  0  0  0  0  0  0
  -22.8670   -0.9442  -12.9306 F   0  0  0  0  0  0  0  0  0  0  0  0
  -22.8244   -1.8740  -10.9743 F   0  0  0  0  0  0  0  0  0  0  0  0
  -23.2619   -3.0605  -12.7365 F   0  0  0  0  0  0  0  0  0  0  0  0
  6  7  1  0  0  0
  6 18  1  0  0  0
  6 19  1  0  0  0
  7  8  2  0  0  0
  7  9  1  0  0  0
  9 10  1  0  0  0
  9 17  1  0  0  0
 10  1  1  0  0  0
 10 11  2  0  0  0
  1  2  2  0  0  0
  1  5  1  0  0  0
  2  3  1  0  0  0
  3 20  1  0  0  0
  3  4  2  0  0  0
 20 21  1  0  0  0
 20 24  1  0  0  0
 21 22  2  0  0  0
 21 23  1  0  0  0
 23 26  1  0  0  0
 23 25  1  0  0  0
 26 27  1  0  0  0
 26 32  2  0  0  0
 27 28  2  0  0  0
 28 29  1  0  0  0
 29 30  1  0  0  0
 29 31  2  0  0  0
 31 33  1  0  0  0
 31 32  1  0  0  0
 33 34  1  0  0  0
 33 35  1  0  0  0
 33 36  1  0  0  0
  4  5  1  0  0  0
 11 12  1  0  0  0
 12 13  1  0  0  0
 12 17  2  0  0  0
 13 14  2  0  0  0
 14 15  1  0  0  0
 15 16  2  0  0  0
 16 17  1  0  0  0
M  END
> <minimizedAffinity>
-9.85289

$$$$
