CHEMBL3975705


 26 29  0  0  0  0  0  0  0  0999 V2000
  -29.3975   -8.4710   -6.9887 C   0  0  0  0  0  0  0  0  0  0  0  0
  -30.1020   -7.5058   -7.7259 C   0  0  0  0  0  0  0  0  0  0  0  0
  -30.4858   -6.2775   -7.1355 C   0  0  0  0  0  0  0  0  0  0  0  0
  -30.3160   -6.1285   -5.7438 C   0  0  0  0  0  0  0  0  0  0  0  0
  -30.5044   -5.1595   -4.6917 C   0  0  0  0  0  0  0  0  0  0  0  0
  -30.9414   -5.8574   -3.6195 N   0  0  0  0  0  0  0  0  0  0  0  0
  -30.2316   -6.9927   -3.7441 N   0  0  0  0  0  0  0  0  0  0  0  0
  -29.8380   -7.2270   -5.0344 C   0  0  0  0  0  0  0  0  0  0  0  0
  -29.2088   -8.3230   -5.6120 C   0  0  0  0  0  0  0  0  0  0  0  0
  -30.1565   -7.6116   -2.9487 H   0  0  0  0  0  0  0  0  0  0  0  0
  -28.9771  -10.7769   -6.9125 O   0  0  0  0  0  0  0  0  0  0  0  0
  -28.9978   -9.7645   -7.6038 C   0  0  0  0  0  0  0  0  0  0  0  0
  -28.5428   -9.8170   -9.0211 C   0  0  0  0  0  0  0  0  0  0  0  0
  -27.2957   -9.3053   -9.3897 C   0  0  0  0  0  0  0  0  0  0  0  0
  -26.8746   -9.3941  -10.7272 C   0  0  0  0  0  0  0  0  0  0  0  0
  -27.6933   -9.9891  -11.6866 C   0  0  0  0  0  0  0  0  0  0  0  0
  -28.9507  -10.4908  -11.3096 C   0  0  0  0  0  0  0  0  0  0  0  0
  -29.3737  -10.4019   -9.9801 C   0  0  0  0  0  0  0  0  0  0  0  0
  -29.5962   -4.0844   -4.2987 C   0  0  0  0  0  0  0  0  0  0  0  0
  -30.0127   -2.8224   -4.0766 C   0  0  0  0  0  0  0  0  0  0  0  0
  -29.3648   -1.6426   -4.7033 C   0  0  0  0  0  0  0  0  0  0  0  0
  -30.1409   -0.5842   -5.2262 C   0  0  0  0  0  0  0  0  0  0  0  0
  -29.5582    0.6449   -5.5512 C   0  0  0  0  0  0  0  0  0  0  0  0
  -28.1922    0.8344   -5.3704 C   0  0  0  0  0  0  0  0  0  0  0  0
  -27.4071   -0.2112   -4.8843 C   0  0  0  0  0  0  0  0  0  0  0  0
  -27.9925   -1.4403   -4.5497 C   0  0  0  0  0  0  0  0  0  0  0  0
 11 12  2  0  0  0
 12 13  1  0  0  0
 12  1  1  0  0  0
 13 14  1  0  0  0
 13 18  2  0  0  0
 14 15  2  0  0  0
 15 16  1  0  0  0
 16 17  2  0  0  0
 17 18  1  0  0  0
  1  2  1  0  0  0
  1  9  2  0  0  0
  2  3  2  0  0  0
  3  4  1  0  0  0
  4  5  1  0  0  0
  4  8  2  0  0  0
  5 19  1  0  0  0
  5  6  2  0  0  0
 19 20  2  0  0  0
 20 21  1  0  0  0
 21 22  1  0  0  0
 21 26  2  0  0  0
 22 23  2  0  0  0
 23 24  1  0  0  0
 24 25  2  0  0  0
 25 26  1  0  0  0
  6  7  1  0  0  0
  7  8  1  0  0  0
  7 10  1  0  0  0
  8  9  1  0  0  0
M  END
> <minimizedAffinity>
-9.11438

$$$$
