CHEMBL4173756


 42 47  0  0  0  0  0  0  0  0999 V2000
  -30.9326   11.7677  -12.6680 C   0  0  0  0  0  0  0  0  0  0  0  0
  -29.6211   11.9780  -12.1776 C   0  0  0  0  0  0  0  0  0  0  0  0
  -28.4969   11.8147  -13.0037 C   0  0  0  0  0  0  0  0  0  0  0  0
  -28.7012   11.4061  -14.3082 C   0  0  0  0  0  0  0  0  0  0  0  0
  -30.0128   11.2558  -14.7798 C   0  0  0  0  0  0  0  0  0  0  0  0
  -31.1350   11.4363  -14.0050 C   0  0  0  0  0  0  0  0  0  0  0  0
  -30.0367   10.7622  -16.0765 N   0  0  0  0  0  0  0  0  0  0  0  0
  -28.7736   10.3664  -16.4476 C   0  0  0  0  0  0  0  0  0  0  0  0
  -28.5357    9.4925  -17.2711 O   0  0  0  0  0  0  0  0  0  0  0  0
  -27.8360   11.0076  -15.4395 C   0  0  0  0  0  0  0  0  0  0  0  0
  -26.5092   11.0877  -15.6747 C   0  0  0  0  0  0  0  0  0  0  0  0
  -30.8609   10.4210  -16.5445 H   0  0  0  0  0  0  0  0  0  0  0  0
  -25.5522   11.2767  -14.5487 C   0  0  0  0  0  0  0  0  0  0  0  0
  -24.8960   10.1504  -14.0206 C   0  0  0  0  0  0  0  0  0  0  0  0
  -23.9891   10.2738  -12.9621 C   0  0  0  0  0  0  0  0  0  0  0  0
  -23.7108   11.5290  -12.4270 C   0  0  0  0  0  0  0  0  0  0  0  0
  -24.3366   12.6585  -12.9546 C   0  0  0  0  0  0  0  0  0  0  0  0
  -25.2562   12.5354  -14.0085 C   0  0  0  0  0  0  0  0  0  0  0  0
  -32.1461   11.8147  -11.8114 C   0  0  0  0  0  0  0  0  0  0  0  0
  -32.2633   12.5457  -10.8528 O   0  0  0  0  0  0  0  0  0  0  0  0
  -33.4338    9.9504  -11.3350 C   0  0  0  0  0  0  0  0  0  0  0  0
  -33.0813   10.9548  -12.2845 O   0  0  0  0  0  0  0  0  0  0  0  0
  -25.9019   10.8735  -16.9031 N   0  0  0  0  0  0  0  0  0  0  0  0
  -26.4787   10.4363  -17.6097 H   0  0  0  0  0  0  0  0  0  0  0  0
  -24.5616   11.1076  -17.2920 C   0  0  0  0  0  0  0  0  0  0  0  0
  -23.5340   10.9526  -16.3453 C   0  0  0  0  0  0  0  0  0  0  0  0
  -22.1980   11.2753  -16.6336 C   0  0  0  0  0  0  0  0  0  0  0  0
  -21.9062   11.7249  -17.9223 C   0  0  0  0  0  0  0  0  0  0  0  0
  -20.7268   12.1526  -18.4836 N   0  0  0  0  0  0  0  0  0  0  0  0
  -20.8944   12.3854  -19.8301 C   0  0  0  0  0  0  0  0  0  0  0  0
  -22.2383   12.2406  -20.1055 C   0  0  0  0  0  0  0  0  0  0  0  0
  -22.8826   11.7991  -18.9235 C   0  0  0  0  0  0  0  0  0  0  0  0
  -24.2134   11.4626  -18.6031 C   0  0  0  0  0  0  0  0  0  0  0  0
  -19.8392   12.1865  -18.0039 H   0  0  0  0  0  0  0  0  0  0  0  0
  -19.7400   12.6269  -20.7445 C   0  0  0  0  0  0  0  0  0  0  0  0
  -18.9970   11.3812  -20.9716 N   0  0  0  0  0  0  0  0  0  0  0  0
  -18.7522   11.1239  -22.4092 C   0  0  0  0  0  0  0  0  0  0  0  0
  -17.9921    9.7967  -22.6160 C   0  0  0  0  0  0  0  0  0  0  0  0
  -16.6962    9.7176  -21.9135 N   0  0  0  0  0  0  0  0  0  0  0  0
  -15.6893   10.5467  -22.5712 C   0  0  0  0  0  0  0  0  0  0  0  0
  -16.8899   10.1040  -20.5001 C   0  0  0  0  0  0  0  0  0  0  0  0
  -17.6979   11.4069  -20.2715 C   0  0  0  0  0  0  0  0  0  0  0  0
 21 22  1  0  0  0
 22 19  1  0  0  0
 19 20  2  0  0  0
 19  1  1  0  0  0
  1  2  1  0  0  0
  1  6  2  0  0  0
  2  3  2  0  0  0
  3  4  1  0  0  0
  4  5  2  0  0  0
  4 10  1  0  0  0
  5  6  1  0  0  0
  5  7  1  0  0  0
  7  8  1  0  0  0
  7 12  1  0  0  0
  8  9  2  0  0  0
  8 10  1  0  0  0
 10 11  2  0  0  0
 11 23  1  0  0  0
 11 13  1  0  0  0
 23 25  1  0  0  0
 23 24  1  0  0  0
 25 26  1  0  0  0
 25 33  2  0  0  0
 26 27  2  0  0  0
 27 28  1  0  0  0
 28 29  1  0  0  0
 28 32  2  0  0  0
 29 30  1  0  0  0
 29 34  1  0  0  0
 30 35  1  0  0  0
 30 31  2  0  0  0
 35 36  1  0  0  0
 36 37  1  0  0  0
 36 42  1  0  0  0
 37 38  1  0  0  0
 38 39  1  0  0  0
 39 40  1  0  0  0
 39 41  1  0  0  0
 41 42  1  0  0  0
 31 32  1  0  0  0
 32 33  1  0  0  0
 13 14  1  0  0  0
 13 18  2  0  0  0
 14 15  2  0  0  0
 15 16  1  0  0  0
 16 17  2  0  0  0
 17 18  1  0  0  0
M  END
> <minimizedAffinity>
-5.11777

$$$$
