CHEMBL4210670


 39 42  0  0  0  0  0  0  0  0999 V2000
  -27.8920   -2.0816  -10.4276 N   0  0  0  0  0  0  0  0  0  0  0  0
  -26.6184   -1.6143  -10.7345 C   0  0  0  0  0  0  0  0  0  0  0  0
  -25.7231   -1.4253   -9.9165 O   0  0  0  0  0  0  0  0  0  0  0  0
  -26.4654   -1.3072  -12.0814 N   0  0  0  0  0  0  0  0  0  0  0  0
  -28.5771   -2.1079  -11.1680 H   0  0  0  0  0  0  0  0  0  0  0  0
  -27.2953   -0.9410  -12.5214 H   0  0  0  0  0  0  0  0  0  0  0  0
  -29.0374   -3.0873   -6.4443 C   0  0  0  0  0  0  0  0  0  0  0  0
  -29.4641   -3.8386   -7.5496 C   0  0  0  0  0  0  0  0  0  0  0  0
  -29.1048   -3.5109   -8.8479 C   0  0  0  0  0  0  0  0  0  0  0  0
  -28.3311   -2.3916   -9.1149 C   0  0  0  0  0  0  0  0  0  0  0  0
  -27.9731   -1.5701   -8.0363 C   0  0  0  0  0  0  0  0  0  0  0  0
  -28.2916   -1.9157   -6.6871 C   0  0  0  0  0  0  0  0  0  0  0  0
  -27.8035   -0.9781   -5.6002 C   0  0  0  0  0  0  0  0  0  0  0  0
  -26.7926   -1.4341   -4.8157 F   0  0  0  0  0  0  0  0  0  0  0  0
  -27.3699    0.2135   -6.1030 F   0  0  0  0  0  0  0  0  0  0  0  0
  -28.8098   -0.6560   -4.7334 F   0  0  0  0  0  0  0  0  0  0  0  0
  -29.4174   -3.6362   -5.0793 C   0  0  0  0  0  0  0  0  0  0  0  0
  -29.8517   -7.2957   -4.5181 N   0  0  0  0  0  0  0  0  0  0  0  0
  -29.2307   -6.6938   -5.7186 C   0  0  0  0  0  0  0  0  0  0  0  0
  -28.0781   -5.7000   -5.4147 C   0  0  0  0  0  0  0  0  0  0  0  0
  -28.4449   -4.5895   -4.5029 N   0  0  0  0  0  0  0  0  0  0  0  0
  -29.0174   -5.2123   -3.2803 C   0  0  0  0  0  0  0  0  0  0  0  0
  -30.1656   -6.2240   -3.5488 C   0  0  0  0  0  0  0  0  0  0  0  0
  -28.9281   -9.6014   -4.8544 C   0  0  0  0  0  0  0  0  0  0  0  0
  -28.9835   -8.3535   -3.9832 C   0  0  0  0  0  0  0  0  0  0  0  0
  -25.2337   -0.7621  -12.5303 C   0  0  0  0  0  0  0  0  0  0  0  0
  -24.6150    0.3054  -11.8564 C   0  0  0  0  0  0  0  0  0  0  0  0
  -23.4614    0.8982  -12.3767 C   0  0  0  0  0  0  0  0  0  0  0  0
  -22.9165    0.4395  -13.5786 C   0  0  0  0  0  0  0  0  0  0  0  0
  -23.5205   -0.6407  -14.2354 C   0  0  0  0  0  0  0  0  0  0  0  0
  -24.6579   -1.2583  -13.6998 C   0  0  0  0  0  0  0  0  0  0  0  0
  -21.7428    1.1024  -14.1588 C   0  0  0  0  0  0  0  0  0  0  0  0
  -20.6336    0.3796  -14.7624 C   0  0  0  0  0  0  0  0  0  0  0  0
  -19.5730    1.0171  -15.2760 C   0  0  0  0  0  0  0  0  0  0  0  0
  -19.5235    2.5040  -15.2381 C   0  0  0  0  0  0  0  0  0  0  0  0
  -18.5689    3.1247  -15.6902 O   0  0  0  0  0  0  0  0  0  0  0  0
  -20.6112    3.1212  -14.6663 N   0  0  0  0  0  0  0  0  0  0  0  0
  -21.6911    2.4494  -14.1391 C   0  0  0  0  0  0  0  0  0  0  0  0
  -20.5796    4.1332  -14.6427 H   0  0  0  0  0  0  0  0  0  0  0  0
 24 25  1  0  0  0
 25 18  1  0  0  0
 18 19  1  0  0  0
 18 23  1  0  0  0
 19 20  1  0  0  0
 20 21  1  0  0  0
 21 17  1  0  0  0
 21 22  1  0  0  0
 17  7  1  0  0  0
  7  8  1  0  0  0
  7 12  2  0  0  0
  8  9  2  0  0  0
  9 10  1  0  0  0
 10  1  1  0  0  0
 10 11  2  0  0  0
  1  2  1  0  0  0
  1  5  1  0  0  0
  2  3  2  0  0  0
  2  4  1  0  0  0
  4 26  1  0  0  0
  4  6  1  0  0  0
 26 27  1  0  0  0
 26 31  2  0  0  0
 27 28  2  0  0  0
 28 29  1  0  0  0
 29 32  1  0  0  0
 29 30  2  0  0  0
 32 33  1  0  0  0
 32 38  2  0  0  0
 33 34  2  0  0  0
 34 35  1  0  0  0
 35 36  2  0  0  0
 35 37  1  0  0  0
 37 38  1  0  0  0
 37 39  1  0  0  0
 30 31  1  0  0  0
 11 12  1  0  0  0
 12 13  1  0  0  0
 13 14  1  0  0  0
 13 15  1  0  0  0
 13 16  1  0  0  0
 22 23  1  0  0  0
M  END
> <minimizedAffinity>
-11.17369

$$$$
