CHEMBL183025


 40 44  0  0  0  0  0  0  0  0999 V2000
  -14.8312    1.7769  -15.0871 C   0  0  0  0  0  0  0  0  0  0  0  0
  -15.8330    2.0753  -16.0353 C   0  0  0  0  0  0  0  0  0  0  0  0
  -15.8630    3.2774  -16.7684 C   0  0  0  0  0  0  0  0  0  0  0  0
  -14.9088    4.2685  -16.5682 C   0  0  0  0  0  0  0  0  0  0  0  0
  -13.9511    3.9956  -15.6019 C   0  0  0  0  0  0  0  0  0  0  0  0
  -13.8658    2.7717  -14.9074 C   0  0  0  0  0  0  0  0  0  0  0  0
  -12.6122    2.7679  -14.0870 C   0  0  0  0  0  0  0  0  0  0  0  0
  -12.0746    4.0808  -14.2992 N   0  0  0  0  0  0  0  0  0  0  0  0
  -12.8475    4.8493  -15.1424 C   0  0  0  0  0  0  0  0  0  0  0  0
  -12.6928    6.0177  -15.4342 O   0  0  0  0  0  0  0  0  0  0  0  0
  -11.2886    4.4826  -13.7997 H   0  0  0  0  0  0  0  0  0  0  0  0
  -14.8684   -1.9904  -12.9731 C   0  0  0  0  0  0  0  0  0  0  0  0
  -14.1488   -1.8448  -14.1590 C   0  0  0  0  0  0  0  0  0  0  0  0
  -14.1282   -0.6202  -14.8292 C   0  0  0  0  0  0  0  0  0  0  0  0
  -14.8608    0.4847  -14.3619 C   0  0  0  0  0  0  0  0  0  0  0  0
  -15.6440    0.2808  -13.2112 C   0  0  0  0  0  0  0  0  0  0  0  0
  -15.6485   -0.9365  -12.5177 C   0  0  0  0  0  0  0  0  0  0  0  0
  -13.6322   -4.5392  -10.7287 N   0  0  0  0  0  0  0  0  0  0  0  0
  -13.5941   -3.3674  -11.4577 C   0  0  0  0  0  0  0  0  0  0  0  0
  -12.6691   -2.5620  -11.4500 O   0  0  0  0  0  0  0  0  0  0  0  0
  -14.7579   -3.1619  -12.1891 N   0  0  0  0  0  0  0  0  0  0  0  0
  -14.3513   -5.2048  -10.9694 H   0  0  0  0  0  0  0  0  0  0  0  0
  -15.6006   -3.4789  -11.7322 H   0  0  0  0  0  0  0  0  0  0  0  0
  -11.6574   -4.0960   -6.2201 C   0  0  0  0  0  0  0  0  0  0  0  0
  -11.6735   -4.7367   -7.5736 C   0  0  0  0  0  0  0  0  0  0  0  0
  -10.7297   -5.7218   -7.8943 C   0  0  0  0  0  0  0  0  0  0  0  0
  -10.7384   -6.3114   -9.1474 C   0  0  0  0  0  0  0  0  0  0  0  0
  -11.6895   -5.9289  -10.0915 C   0  0  0  0  0  0  0  0  0  0  0  0
  -12.6480   -4.9551   -9.8010 C   0  0  0  0  0  0  0  0  0  0  0  0
  -12.6273   -4.3559   -8.5333 C   0  0  0  0  0  0  0  0  0  0  0  0
  -14.8790    5.4806  -17.2983 N   0  0  0  0  0  0  0  0  0  0  0  0
  -14.6754    5.5864  -18.6662 C   0  0  0  0  0  0  0  0  0  0  0  0
  -14.4680    4.6518  -19.4347 O   0  0  0  0  0  0  0  0  0  0  0  0
  -14.9528    6.3267  -16.7368 H   0  0  0  0  0  0  0  0  0  0  0  0
  -14.7104    6.9543  -19.2530 C   0  0  0  0  0  0  0  0  0  0  0  0
  -13.9999    8.0326  -18.7163 C   0  0  0  0  0  0  0  0  0  0  0  0
  -14.0898    9.2915  -19.3186 C   0  0  0  0  0  0  0  0  0  0  0  0
  -14.8756    9.4747  -20.4584 C   0  0  0  0  0  0  0  0  0  0  0  0
  -15.5592    8.3975  -21.0155 C   0  0  0  0  0  0  0  0  0  0  0  0
  -15.4717    7.1400  -20.4190 C   0  0  0  0  0  0  0  0  0  0  0  0
 24 25  1  0  0  0
 25 26  1  0  0  0
 25 30  2  0  0  0
 26 27  2  0  0  0
 27 28  1  0  0  0
 28 29  2  0  0  0
 29 18  1  0  0  0
 29 30  1  0  0  0
 18 19  1  0  0  0
 18 22  1  0  0  0
 19 20  2  0  0  0
 19 21  1  0  0  0
 21 12  1  0  0  0
 21 23  1  0  0  0
 12 13  1  0  0  0
 12 17  2  0  0  0
 13 14  2  0  0  0
 14 15  1  0  0  0
 15  1  1  0  0  0
 15 16  2  0  0  0
  1  2  1  0  0  0
  1  6  2  0  0  0
  2  3  2  0  0  0
  3  4  1  0  0  0
  4 31  1  0  0  0
  4  5  2  0  0  0
 31 32  1  0  0  0
 31 34  1  0  0  0
 32 33  2  0  0  0
 32 35  1  0  0  0
 35 36  1  0  0  0
 35 40  2  0  0  0
 36 37  2  0  0  0
 37 38  1  0  0  0
 38 39  2  0  0  0
 39 40  1  0  0  0
  5  6  1  0  0  0
  5  9  1  0  0  0
  6  7  1  0  0  0
  7  8  1  0  0  0
  8  9  1  0  0  0
  8 11  1  0  0  0
  9 10  2  0  0  0
 16 17  1  0  0  0
M  END
> <minimizedAffinity>
-8.43216

$$$$
