CHEMBL3671489


 38 40  0  0  0  0  0  0  0  0999 V2000
  -14.9150   -6.2204  -14.0609 C   0  0  0  0  0  0  0  0  0  0  0  0
  -15.0501   -4.8362  -13.9669 C   0  0  0  0  0  0  0  0  0  0  0  0
  -15.2311   -4.2186  -12.7090 C   0  0  0  0  0  0  0  0  0  0  0  0
  -15.5077   -2.8582  -12.5221 C   0  0  0  0  0  0  0  0  0  0  0  0
  -15.6601   -2.3240  -11.2949 N   0  0  0  0  0  0  0  0  0  0  0  0
  -15.5719   -3.1548  -10.2554 C   0  0  0  0  0  0  0  0  0  0  0  0
  -15.3581   -4.4704  -10.3205 N   0  0  0  0  0  0  0  0  0  0  0  0
  -15.2137   -4.9935  -11.5406 C   0  0  0  0  0  0  0  0  0  0  0  0
  -15.0498   -6.3639  -11.6571 C   0  0  0  0  0  0  0  0  0  0  0  0
  -14.8872   -6.9939  -12.8968 C   0  0  0  0  0  0  0  0  0  0  0  0
  -13.5765   -6.9943  -15.9056 C   0  0  0  0  0  0  0  0  0  0  0  0
  -12.4993   -6.7132  -15.3960 O   0  0  0  0  0  0  0  0  0  0  0  0
  -14.8274   -6.7844  -15.3480 N   0  0  0  0  0  0  0  0  0  0  0  0
  -15.4622   -7.5520  -15.5330 H   0  0  0  0  0  0  0  0  0  0  0  0
  -13.3300   -8.9534  -17.3770 C   0  0  0  0  0  0  0  0  0  0  0  0
  -13.6815   -7.6711  -17.2249 C   0  0  0  0  0  0  0  0  0  0  0  0
  -15.6940   -2.0172  -13.6491 N   0  0  0  0  0  0  0  0  0  0  0  0
  -15.9960   -2.5493  -14.4600 H   0  0  0  0  0  0  0  0  0  0  0  0
  -14.8186   -0.9623  -13.9919 C   0  0  0  0  0  0  0  0  0  0  0  0
  -13.6487   -1.2099  -14.7210 C   0  0  0  0  0  0  0  0  0  0  0  0
  -12.8396   -0.1569  -15.1479 C   0  0  0  0  0  0  0  0  0  0  0  0
  -13.1850    1.1530  -14.8255 C   0  0  0  0  0  0  0  0  0  0  0  0
  -12.1397    2.5803  -15.4893 Br  0  0  0  0  0  0  0  0  0  0  0  0
  -14.3033    1.4186  -14.0398 C   0  0  0  0  0  0  0  0  0  0  0  0
  -15.1020    0.3579  -13.6208 C   0  0  0  0  0  0  0  0  0  0  0  0
  -16.1904    0.6129  -12.8770 F   0  0  0  0  0  0  0  0  0  0  0  0
  -14.6927   -8.3448  -12.7955 O   0  0  0  0  0  0  0  0  0  0  0  0
  -13.6589   -8.8154  -11.9312 C   0  0  0  0  0  0  0  0  0  0  0  0
  -12.2730   -8.8575  -12.5777 C   0  0  0  0  0  0  0  0  0  0  0  0
  -11.3337   -7.8189  -11.9640 C   0  0  0  0  0  0  0  0  0  0  0  0
  -11.7293   -7.4167  -10.6245 N   0  0  0  0  0  0  0  0  0  0  0  0
  -11.7736   -6.0884  -10.2775 C   0  0  0  0  0  0  0  0  0  0  0  0
  -11.5846   -5.1631  -11.0516 O   0  0  0  0  0  0  0  0  0  0  0  0
  -12.0804   -5.9299   -8.9509 N   0  0  0  0  0  0  0  0  0  0  0  0
  -11.4212   -8.0215   -9.8775 H   0  0  0  0  0  0  0  0  0  0  0  0
  -12.5042   -6.7180   -8.4861 H   0  0  0  0  0  0  0  0  0  0  0  0
  -12.3079   -4.6120   -8.3969 C   0  0  0  0  0  0  0  0  0  0  0  0
  -11.5170   -4.3941   -7.1184 C   0  0  0  0  0  0  0  0  0  0  0  0
 15 16  2  0  0  0
 16 11  1  0  0  0
 11 12  2  0  0  0
 11 13  1  0  0  0
 13  1  1  0  0  0
 13 14  1  0  0  0
  1  2  1  0  0  0
  1 10  2  0  0  0
  2  3  2  0  0  0
  3  4  1  0  0  0
  3  8  1  0  0  0
  4 17  1  0  0  0
  4  5  2  0  0  0
 17 19  1  0  0  0
 17 18  1  0  0  0
 19 20  1  0  0  0
 19 25  2  0  0  0
 20 21  2  0  0  0
 21 22  1  0  0  0
 22 23  1  0  0  0
 22 24  2  0  0  0
 24 25  1  0  0  0
 25 26  1  0  0  0
  5  6  1  0  0  0
  6  7  2  0  0  0
  7  8  1  0  0  0
  8  9  2  0  0  0
  9 10  1  0  0  0
 10 27  1  0  0  0
 27 28  1  0  0  0
 28 29  1  0  0  0
 29 30  1  0  0  0
 30 31  1  0  0  0
 31 32  1  0  0  0
 31 35  1  0  0  0
 32 33  2  0  0  0
 32 34  1  0  0  0
 34 37  1  0  0  0
 34 36  1  0  0  0
 37 38  1  0  0  0
M  END
> <minimizedAffinity>
-7.20168

$$$$
