CHEMBL3409416


 33 36  0  0  0  0  0  0  0  0999 V2000
  -15.0382   -5.4759  -12.2606 C   0  0  0  0  0  0  0  0  0  0  0  0
  -14.0972   -4.4725  -12.0349 C   0  0  0  0  0  0  0  0  0  0  0  0
  -14.2707   -3.1978  -12.5965 C   0  0  0  0  0  0  0  0  0  0  0  0
  -15.3856   -2.9120  -13.3918 C   0  0  0  0  0  0  0  0  0  0  0  0
  -16.2936   -3.9430  -13.6559 C   0  0  0  0  0  0  0  0  0  0  0  0
  -16.1161   -5.2204  -13.1064 C   0  0  0  0  0  0  0  0  0  0  0  0
  -15.6633   -1.6452  -13.9560 N   0  0  0  0  0  0  0  0  0  0  0  0
  -14.8034   -0.8362  -14.6447 C   0  0  0  0  0  0  0  0  0  0  0  0
  -13.6200   -1.0756  -14.8798 O   0  0  0  0  0  0  0  0  0  0  0  0
  -15.3072    0.3098  -15.1769 N   0  0  0  0  0  0  0  0  0  0  0  0
  -16.6003   -1.2724  -13.8267 H   0  0  0  0  0  0  0  0  0  0  0  0
  -14.6650    0.7982  -15.7818 H   0  0  0  0  0  0  0  0  0  0  0  0
  -16.5705    0.8187  -15.0860 C   0  0  0  0  0  0  0  0  0  0  0  0
  -17.7095    0.2063  -14.8889 N   0  0  0  0  0  0  0  0  0  0  0  0
  -18.7365    1.1546  -14.9430 C   0  0  0  0  0  0  0  0  0  0  0  0
  -20.1162    0.9183  -14.7574 C   0  0  0  0  0  0  0  0  0  0  0  0
  -21.0384    1.9559  -14.9595 C   0  0  0  0  0  0  0  0  0  0  0  0
  -20.6074    3.2252  -15.3311 C   0  0  0  0  0  0  0  0  0  0  0  0
  -19.2457    3.5040  -15.4588 C   0  0  0  0  0  0  0  0  0  0  0  0
  -18.3301    2.4589  -15.2466 C   0  0  0  0  0  0  0  0  0  0  0  0
  -16.6129    2.5078  -15.2945 S   0  0  0  0  0  0  0  0  0  0  0  0
  -14.7813   -6.7044  -11.6983 O   0  0  0  0  0  0  0  0  0  0  0  0
  -13.0335   -8.6971  -14.0889 C   0  0  0  0  0  0  0  0  0  0  0  0
  -12.0219   -9.2316  -13.3729 N   0  0  0  0  0  0  0  0  0  0  0  0
  -11.9703   -8.8962  -12.0753 C   0  0  0  0  0  0  0  0  0  0  0  0
  -12.8751   -8.0524  -11.4803 C   0  0  0  0  0  0  0  0  0  0  0  0
  -13.8492   -7.5378  -12.3116 C   0  0  0  0  0  0  0  0  0  0  0  0
  -13.9736   -7.8492  -13.6172 N   0  0  0  0  0  0  0  0  0  0  0  0
  -13.8296   -8.4124  -17.7988 C   0  0  0  0  0  0  0  0  0  0  0  0
  -13.6472   -8.1315  -16.3982 N   0  0  0  0  0  0  0  0  0  0  0  0
  -13.1167   -9.0901  -15.5472 C   0  0  0  0  0  0  0  0  0  0  0  0
  -12.7459  -10.1893  -15.9489 O   0  0  0  0  0  0  0  0  0  0  0  0
  -13.9717   -7.2586  -15.9919 H   0  0  0  0  0  0  0  0  0  0  0  0
 29 30  1  0  0  0
 30 31  1  0  0  0
 30 33  1  0  0  0
 31 32  2  0  0  0
 31 23  1  0  0  0
 23 24  1  0  0  0
 23 28  2  0  0  0
 24 25  2  0  0  0
 25 26  1  0  0  0
 26 27  2  0  0  0
 27 22  1  0  0  0
 27 28  1  0  0  0
 22  1  1  0  0  0
  1  2  1  0  0  0
  1  6  2  0  0  0
  2  3  2  0  0  0
  3  4  1  0  0  0
  4  7  1  0  0  0
  4  5  2  0  0  0
  7  8  1  0  0  0
  7 11  1  0  0  0
  8  9  2  0  0  0
  8 10  1  0  0  0
 10 13  1  0  0  0
 10 12  1  0  0  0
 13 14  2  0  0  0
 13 21  1  0  0  0
 14 15  1  0  0  0
 15 16  1  0  0  0
 15 20  2  0  0  0
 16 17  2  0  0  0
 17 18  1  0  0  0
 18 19  2  0  0  0
 19 20  1  0  0  0
 20 21  1  0  0  0
  5  6  1  0  0  0
M  END
> <minimizedAffinity>
-8.78567

$$$$
