CHEMBL2448067


 31 34  0  0  0  0  0  0  0  0999 V2000
  -28.7429   -6.5703   -5.3943 C   0  0  0  0  0  0  0  0  0  0  0  0
  -28.1992   -7.8618   -5.5306 C   0  0  0  0  0  0  0  0  0  0  0  0
  -28.4495   -8.6247   -6.6804 C   0  0  0  0  0  0  0  0  0  0  0  0
  -27.9412   -9.9359   -6.8626 C   0  0  0  0  0  0  0  0  0  0  0  0
  -28.2557  -10.6172   -7.9973 N   0  0  0  0  0  0  0  0  0  0  0  0
  -29.0361  -10.0784   -8.9656 C   0  0  0  0  0  0  0  0  0  0  0  0
  -29.5388   -8.8306   -8.8111 N   0  0  0  0  0  0  0  0  0  0  0  0
  -29.2702   -8.0982   -7.6985 C   0  0  0  0  0  0  0  0  0  0  0  0
  -29.8128   -6.8217   -7.5683 C   0  0  0  0  0  0  0  0  0  0  0  0
  -29.5585   -6.0418   -6.4359 C   0  0  0  0  0  0  0  0  0  0  0  0
  -27.5749   -4.8028   -4.1334 C   0  0  0  0  0  0  0  0  0  0  0  0
  -28.4920   -5.8178   -4.2915 O   0  0  0  0  0  0  0  0  0  0  0  0
  -27.0756  -10.5455   -5.9065 N   0  0  0  0  0  0  0  0  0  0  0  0
  -27.4736  -10.9360   -5.0443 H   0  0  0  0  0  0  0  0  0  0  0  0
  -25.6591  -10.6175   -6.0801 C   0  0  0  0  0  0  0  0  0  0  0  0
  -25.1282  -11.4731   -7.0622 C   0  0  0  0  0  0  0  0  0  0  0  0
  -23.7496  -11.5264   -7.2847 C   0  0  0  0  0  0  0  0  0  0  0  0
  -22.8871  -10.7093   -6.5475 C   0  0  0  0  0  0  0  0  0  0  0  0
  -21.1606  -10.7467   -6.8493 Cl  0  0  0  0  0  0  0  0  0  0  0  0
  -23.4017   -9.8479   -5.5810 C   0  0  0  0  0  0  0  0  0  0  0  0
  -24.7746   -9.7989   -5.3390 C   0  0  0  0  0  0  0  0  0  0  0  0
  -25.2282   -8.9017   -4.4270 F   0  0  0  0  0  0  0  0  0  0  0  0
  -30.1107   -4.7953   -6.4140 O   0  0  0  0  0  0  0  0  0  0  0  0
  -29.9304   -3.7903   -7.3425 C   0  0  0  0  0  0  0  0  0  0  0  0
  -28.4843   -3.3281   -7.3803 C   0  0  0  0  0  0  0  0  0  0  0  0
  -28.3154   -1.8348   -7.0906 C   0  0  0  0  0  0  0  0  0  0  0  0
  -28.4514   -1.5175   -5.6421 N   0  0  0  0  0  0  0  0  0  0  0  0
  -29.7444   -0.8855   -5.3038 C   0  0  0  0  0  0  0  0  0  0  0  0
  -29.5480    0.5892   -5.5714 C   0  0  0  0  0  0  0  0  0  0  0  0
  -28.2187    0.7861   -4.8908 C   0  0  0  0  0  0  0  0  0  0  0  0
  -27.4493   -0.4839   -5.2691 C   0  0  0  0  0  0  0  0  0  0  0  0
 11 12  1  0  0  0
 12  1  1  0  0  0
  1  2  1  0  0  0
  1 10  2  0  0  0
  2  3  2  0  0  0
  3  4  1  0  0  0
  3  8  1  0  0  0
  4 13  1  0  0  0
  4  5  2  0  0  0
 13 15  1  0  0  0
 13 14  1  0  0  0
 15 16  1  0  0  0
 15 21  2  0  0  0
 16 17  2  0  0  0
 17 18  1  0  0  0
 18 19  1  0  0  0
 18 20  2  0  0  0
 20 21  1  0  0  0
 21 22  1  0  0  0
  5  6  1  0  0  0
  6  7  2  0  0  0
  7  8  1  0  0  0
  8  9  2  0  0  0
  9 10  1  0  0  0
 10 23  1  0  0  0
 23 24  1  0  0  0
 24 25  1  0  0  0
 25 26  1  0  0  0
 26 27  1  0  0  0
 27 28  1  0  0  0
 27 31  1  0  0  0
 28 29  1  0  0  0
 29 30  1  0  0  0
 30 31  1  0  0  0
M  END
> <minimizedAffinity>
-7.84871

$$$$
