CHEMBL2409787


 34 38  0  0  0  0  0  0  0  0999 V2000
  -28.5844   -1.9671  -12.8650 C   0  0  0  0  0  0  0  0  0  0  0  0
  -27.0795   -1.9098  -12.9130 C   0  0  0  0  0  0  0  0  0  0  0  0
  -26.5005   -1.5864  -14.1543 C   0  0  0  0  0  0  0  0  0  0  0  0
  -25.1221   -1.4902  -14.3000 C   0  0  0  0  0  0  0  0  0  0  0  0
  -24.3003   -1.6413  -13.1888 C   0  0  0  0  0  0  0  0  0  0  0  0
  -24.8543   -2.0084  -11.9578 C   0  0  0  0  0  0  0  0  0  0  0  0
  -26.2446   -2.1613  -11.7969 C   0  0  0  0  0  0  0  0  0  0  0  0
  -26.8308   -2.5468  -10.5561 N   0  0  0  0  0  0  0  0  0  0  0  0
  -27.6547   -1.7816   -9.7339 C   0  0  0  0  0  0  0  0  0  0  0  0
  -27.9640   -0.6181   -9.9609 O   0  0  0  0  0  0  0  0  0  0  0  0
  -26.6191   -3.4773  -10.2358 H   0  0  0  0  0  0  0  0  0  0  0  0
  -28.1637   -2.4628   -8.5520 C   0  0  0  0  0  0  0  0  0  0  0  0
  -28.6986   -3.7299   -8.3725 C   0  0  0  0  0  0  0  0  0  0  0  0
  -29.0389   -3.8119   -7.0111 C   0  0  0  0  0  0  0  0  0  0  0  0
  -28.7282   -2.7046   -6.3483 N   0  0  0  0  0  0  0  0  0  0  0  0
  -28.1830   -1.9023   -7.2876 N   0  0  0  0  0  0  0  0  0  0  0  0
  -27.7345   -0.5863   -6.8859 C   0  0  0  0  0  0  0  0  0  0  0  0
  -22.9299   -1.4813  -13.2503 O   0  0  0  0  0  0  0  0  0  0  0  0
  -22.4040   -0.2596  -13.6407 C   0  0  0  0  0  0  0  0  0  0  0  0
  -23.2197    0.9071  -13.3145 C   0  0  0  0  0  0  0  0  0  0  0  0
  -22.8137    2.1606  -13.6096 C   0  0  0  0  0  0  0  0  0  0  0  0
  -21.5580    2.3633  -14.2576 C   0  0  0  0  0  0  0  0  0  0  0  0
  -20.9028    3.4388  -14.6484 N   0  0  0  0  0  0  0  0  0  0  0  0
  -19.7207    2.9272  -15.1190 C   0  0  0  0  0  0  0  0  0  0  0  0
  -19.6446    1.6010  -15.1065 N   0  0  0  0  0  0  0  0  0  0  0  0
  -20.8128    1.2266  -14.5647 N   0  0  0  0  0  0  0  0  0  0  0  0
  -21.2440   -0.0628  -14.2955 C   0  0  0  0  0  0  0  0  0  0  0  0
  -18.7436    3.7827  -15.5606 N   0  0  0  0  0  0  0  0  0  0  0  0
  -17.4078    3.4480  -15.5766 C   0  0  0  0  0  0  0  0  0  0  0  0
  -16.9084    2.4135  -15.1578 O   0  0  0  0  0  0  0  0  0  0  0  0
  -19.0581    4.7108  -15.7820 H   0  0  0  0  0  0  0  0  0  0  0  0
  -16.4590    4.4750  -16.0997 C   0  0  0  0  0  0  0  0  0  0  0  0
  -15.6655    4.2110  -17.3586 C   0  0  0  0  0  0  0  0  0  0  0  0
  -14.9551    4.4153  -16.0492 C   0  0  0  0  0  0  0  0  0  0  0  0
  1  2  1  0  0  0
  2  3  1  0  0  0
  2  7  2  0  0  0
  3  4  2  0  0  0
  4  5  1  0  0  0
  5 18  1  0  0  0
  5  6  2  0  0  0
 18 19  1  0  0  0
 19 20  1  0  0  0
 19 27  2  0  0  0
 20 21  2  0  0  0
 21 22  1  0  0  0
 22 23  2  0  0  0
 22 26  1  0  0  0
 23 24  1  0  0  0
 24 28  1  0  0  0
 24 25  2  0  0  0
 28 29  1  0  0  0
 28 31  1  0  0  0
 29 30  2  0  0  0
 29 32  1  0  0  0
 32 33  1  0  0  0
 32 34  1  0  0  0
 33 34  1  0  0  0
 25 26  1  0  0  0
 26 27  1  0  0  0
  6  7  1  0  0  0
  7  8  1  0  0  0
  8  9  1  0  0  0
  8 11  1  0  0  0
  9 10  2  0  0  0
  9 12  1  0  0  0
 12 13  2  0  0  0
 12 16  1  0  0  0
 13 14  1  0  0  0
 14 15  2  0  0  0
 15 16  1  0  0  0
 16 17  1  0  0  0
M  END
> <minimizedAffinity>
-10.22200

$$$$
