CHEMBL209806


 26 30  0  0  0  0  0  0  0  0999 V2000
  -25.0866   12.3713  -16.0281 C   0  0  0  0  0  0  0  0  0  0  0  0
  -24.6910   12.6582  -14.6936 C   0  0  0  0  0  0  0  0  0  0  0  0
  -25.5469   12.4653  -13.6087 C   0  0  0  0  0  0  0  0  0  0  0  0
  -26.8198   12.0389  -13.8927 C   0  0  0  0  0  0  0  0  0  0  0  0
  -27.2789   11.8018  -15.2160 C   0  0  0  0  0  0  0  0  0  0  0  0
  -26.4042   11.9429  -16.2868 C   0  0  0  0  0  0  0  0  0  0  0  0
  -28.7770   11.4142  -15.2712 C   0  0  0  0  0  0  0  0  0  0  0  0
  -29.0283   11.4271  -13.8013 C   0  0  0  0  0  0  0  0  0  0  0  0
  -30.0392   11.2202  -12.8576 C   0  0  0  0  0  0  0  0  0  0  0  0
  -29.5838   11.4032  -11.5975 N   0  0  0  0  0  0  0  0  0  0  0  0
  -28.2752   11.7328  -11.7603 N   0  0  0  0  0  0  0  0  0  0  0  0
  -27.9345   11.7719  -13.0597 C   0  0  0  0  0  0  0  0  0  0  0  0
  -27.7069   11.9070  -10.9394 H   0  0  0  0  0  0  0  0  0  0  0  0
  -31.4259   10.8604  -13.1767 C   0  0  0  0  0  0  0  0  0  0  0  0
  -32.1881   11.4273  -14.1807 C   0  0  0  0  0  0  0  0  0  0  0  0
  -33.7447   10.7145  -14.2064 S   0  0  0  0  0  0  0  0  0  0  0  0
  -33.2836    9.7138  -12.8896 C   0  0  0  0  0  0  0  0  0  0  0  0
  -32.0621    9.8700  -12.4379 N   0  0  0  0  0  0  0  0  0  0  0  0
  -24.0853   12.5482  -17.1609 C   0  0  0  0  0  0  0  0  0  0  0  0
  -19.8276   11.8471  -19.2911 C   0  0  0  0  0  0  0  0  0  0  0  0
  -21.1949   11.3452  -19.2002 N   0  0  0  0  0  0  0  0  0  0  0  0
  -21.5133   10.9219  -17.8269 C   0  0  0  0  0  0  0  0  0  0  0  0
  -22.9673   10.4070  -17.7325 C   0  0  0  0  0  0  0  0  0  0  0  0
  -23.9891   11.4124  -18.0994 N   0  0  0  0  0  0  0  0  0  0  0  0
  -23.6492   11.8891  -19.4653 C   0  0  0  0  0  0  0  0  0  0  0  0
  -22.1755   12.3460  -19.6634 C   0  0  0  0  0  0  0  0  0  0  0  0
 20 21  1  0  0  0
 21 22  1  0  0  0
 21 26  1  0  0  0
 22 23  1  0  0  0
 23 24  1  0  0  0
 24 19  1  0  0  0
 24 25  1  0  0  0
 19  1  1  0  0  0
  1  2  1  0  0  0
  1  6  2  0  0  0
  2  3  2  0  0  0
  3  4  1  0  0  0
  4  5  2  0  0  0
  4 12  1  0  0  0
  5  6  1  0  0  0
  5  7  1  0  0  0
  7  8  1  0  0  0
  8  9  1  0  0  0
  8 12  2  0  0  0
  9 14  1  0  0  0
  9 10  2  0  0  0
 14 15  2  0  0  0
 14 18  1  0  0  0
 15 16  1  0  0  0
 16 17  1  0  0  0
 17 18  2  0  0  0
 10 11  1  0  0  0
 11 12  1  0  0  0
 11 13  1  0  0  0
 25 26  1  0  0  0
M  END
> <minimizedAffinity>
-5.89684

$$$$
