CHEMBL365727


 39 41  0  0  0  0  0  0  0  0999 V2000
  -28.5133   -7.6839   -5.6881 C   0  0  0  0  0  0  0  0  0  0  0  0
  -28.1033   -6.6483   -4.8177 C   0  0  0  0  0  0  0  0  0  0  0  0
  -28.2573   -5.2978   -5.1554 C   0  0  0  0  0  0  0  0  0  0  0  0
  -27.8686   -4.2546   -4.3164 C   0  0  0  0  0  0  0  0  0  0  0  0
  -27.9789   -2.9475   -4.6299 N   0  0  0  0  0  0  0  0  0  0  0  0
  -28.5232   -2.6403   -5.8221 C   0  0  0  0  0  0  0  0  0  0  0  0
  -28.9419   -3.6359   -6.7064 C   0  0  0  0  0  0  0  0  0  0  0  0
  -28.7964   -4.9806   -6.3992 C   0  0  0  0  0  0  0  0  0  0  0  0
  -29.1520   -5.9428   -7.2807 N   0  0  0  0  0  0  0  0  0  0  0  0
  -29.0584   -7.2498   -6.9106 C   0  0  0  0  0  0  0  0  0  0  0  0
  -26.7209  -11.0271   -5.2270 C   0  0  0  0  0  0  0  0  0  0  0  0
  -27.5448  -11.6609   -4.2994 C   0  0  0  0  0  0  0  0  0  0  0  0
  -28.6895  -11.0125   -3.8426 C   0  0  0  0  0  0  0  0  0  0  0  0
  -29.0447   -9.7687   -4.3743 C   0  0  0  0  0  0  0  0  0  0  0  0
  -28.2214   -9.0861   -5.2924 C   0  0  0  0  0  0  0  0  0  0  0  0
  -27.0542   -9.7508   -5.7003 C   0  0  0  0  0  0  0  0  0  0  0  0
  -24.6077  -10.5815   -6.2186 C   0  0  0  0  0  0  0  0  0  0  0  0
  -25.5518  -11.5281   -5.7357 O   0  0  0  0  0  0  0  0  0  0  0  0
  -29.5307  -11.4979   -2.8767 O   0  0  0  0  0  0  0  0  0  0  0  0
  -30.6520  -12.2345   -3.3605 C   0  0  0  0  0  0  0  0  0  0  0  0
  -29.4751   -8.1596   -7.9168 N   0  0  0  0  0  0  0  0  0  0  0  0
  -28.5428   -8.5585   -8.8562 C   0  0  0  0  0  0  0  0  0  0  0  0
  -27.3811   -8.1641   -8.8905 O   0  0  0  0  0  0  0  0  0  0  0  0
  -29.0690   -9.4976   -9.7256 N   0  0  0  0  0  0  0  0  0  0  0  0
  -29.8421   -8.9973   -7.4829 H   0  0  0  0  0  0  0  0  0  0  0  0
  -30.0412   -9.3425   -9.9447 H   0  0  0  0  0  0  0  0  0  0  0  0
  -28.2638  -10.2307  -10.7348 C   0  0  0  0  0  0  0  0  0  0  0  0
  -28.0478  -11.6849  -10.2828 C   0  0  0  0  0  0  0  0  0  0  0  0
  -29.0271  -10.2708  -12.0750 C   0  0  0  0  0  0  0  0  0  0  0  0
  -26.9074   -9.5538  -10.9945 C   0  0  0  0  0  0  0  0  0  0  0  0
  -28.6383   -1.3034   -6.2295 N   0  0  0  0  0  0  0  0  0  0  0  0
  -29.6183   -1.0630   -6.3387 H   0  0  0  0  0  0  0  0  0  0  0  0
  -27.8595   -0.3216   -5.4775 C   0  0  0  0  0  0  0  0  0  0  0  0
  -28.6950    0.9411   -5.2209 C   0  0  0  0  0  0  0  0  0  0  0  0
  -29.3827    1.4413   -6.4979 C   0  0  0  0  0  0  0  0  0  0  0  0
  -30.8980    1.5370   -6.3377 C   0  0  0  0  0  0  0  0  0  0  0  0
  -31.5061    2.4275   -7.4163 C   0  0  0  0  0  0  0  0  0  0  0  0
  -32.9140    2.2425   -7.4627 O   0  0  0  0  0  0  0  0  0  0  0  0
  -33.0796    1.3184   -7.7173 H   0  0  0  0  0  0  0  0  0  0  0  0
 17 18  1  0  0  0
 18 11  1  0  0  0
 11 12  1  0  0  0
 11 16  2  0  0  0
 12 13  2  0  0  0
 13 19  1  0  0  0
 13 14  1  0  0  0
 19 20  1  0  0  0
 14 15  2  0  0  0
 15  1  1  0  0  0
 15 16  1  0  0  0
  1  2  1  0  0  0
  1 10  2  0  0  0
  2  3  2  0  0  0
  3  4  1  0  0  0
  3  8  1  0  0  0
  4  5  2  0  0  0
  5  6  1  0  0  0
  6 31  1  0  0  0
  6  7  2  0  0  0
 31 33  1  0  0  0
 31 32  1  0  0  0
 33 34  1  0  0  0
 34 35  1  0  0  0
 35 36  1  0  0  0
 36 37  1  0  0  0
 37 38  1  0  0  0
 38 39  1  0  0  0
  7  8  1  0  0  0
  8  9  2  0  0  0
  9 10  1  0  0  0
 10 21  1  0  0  0
 21 22  1  0  0  0
 21 25  1  0  0  0
 22 23  2  0  0  0
 22 24  1  0  0  0
 24 27  1  0  0  0
 24 26  1  0  0  0
 27 28  1  0  0  0
 27 29  1  0  0  0
 27 30  1  0  0  0
M  END
> <minimizedAffinity>
-8.35433

$$$$
