CHEMBL221019


 33 36  0  0  0  0  0  0  0  0999 V2000
  -27.9465   -2.3670  -13.5394 C   0  0  0  0  0  0  0  0  0  0  0  0
  -26.6025   -1.6999  -13.4209 C   0  0  0  0  0  0  0  0  0  0  0  0
  -25.8835   -1.4241  -14.5911 C   0  0  0  0  0  0  0  0  0  0  0  0
  -24.6213   -0.8407  -14.5211 C   0  0  0  0  0  0  0  0  0  0  0  0
  -24.0497   -0.5242  -13.2817 C   0  0  0  0  0  0  0  0  0  0  0  0
  -24.7644   -0.7705  -12.1049 C   0  0  0  0  0  0  0  0  0  0  0  0
  -26.0387   -1.3599  -12.1729 C   0  0  0  0  0  0  0  0  0  0  0  0
  -22.7030    0.1058  -13.3064 C   0  0  0  0  0  0  0  0  0  0  0  0
  -22.0625    0.0834  -12.2599 O   0  0  0  0  0  0  0  0  0  0  0  0
  -22.3325    0.7476  -14.4813 N   0  0  0  0  0  0  0  0  0  0  0  0
  -23.0363    0.8427  -15.2028 H   0  0  0  0  0  0  0  0  0  0  0  0
  -21.1554    1.5249  -14.6341 C   0  0  0  0  0  0  0  0  0  0  0  0
  -21.1794    2.9079  -14.8372 C   0  0  0  0  0  0  0  0  0  0  0  0
  -20.0063    3.6228  -15.0820 C   0  0  0  0  0  0  0  0  0  0  0  0
  -18.7856    2.9602  -15.1309 C   0  0  0  0  0  0  0  0  0  0  0  0
  -18.7252    1.5777  -14.9081 C   0  0  0  0  0  0  0  0  0  0  0  0
  -19.9152    0.8724  -14.6261 C   0  0  0  0  0  0  0  0  0  0  0  0
  -17.4098    0.8466  -15.0153 C   0  0  0  0  0  0  0  0  0  0  0  0
  -16.7284    1.1139  -16.1652 F   0  0  0  0  0  0  0  0  0  0  0  0
  -16.5570    1.1465  -13.9979 F   0  0  0  0  0  0  0  0  0  0  0  0
  -17.5663   -0.5066  -14.9858 F   0  0  0  0  0  0  0  0  0  0  0  0
  -26.7471   -1.6259  -10.9517 C   0  0  0  0  0  0  0  0  0  0  0  0
  -27.2910   -1.8729   -9.9092 C   0  0  0  0  0  0  0  0  0  0  0  0
  -27.8621   -2.1855   -8.6371 C   0  0  0  0  0  0  0  0  0  0  0  0
  -28.6705   -3.2922   -8.4578 C   0  0  0  0  0  0  0  0  0  0  0  0
  -29.1541   -3.6499   -7.2455 N   0  0  0  0  0  0  0  0  0  0  0  0
  -28.7948   -2.8664   -6.2074 C   0  0  0  0  0  0  0  0  0  0  0  0
  -29.2135   -3.1976   -4.9257 C   0  0  0  0  0  0  0  0  0  0  0  0
  -28.8446   -2.4304   -3.8194 C   0  0  0  0  0  0  0  0  0  0  0  0
  -28.0598   -1.2996   -4.0028 C   0  0  0  0  0  0  0  0  0  0  0  0
  -27.6414   -0.9500   -5.2887 C   0  0  0  0  0  0  0  0  0  0  0  0
  -27.9801   -1.7182   -6.3969 C   0  0  0  0  0  0  0  0  0  0  0  0
  -27.5134   -1.3735   -7.6165 N   0  0  0  0  0  0  0  0  0  0  0  0
  1  2  1  0  0  0
  2  3  1  0  0  0
  2  7  2  0  0  0
  3  4  2  0  0  0
  4  5  1  0  0  0
  5  8  1  0  0  0
  5  6  2  0  0  0
  8  9  2  0  0  0
  8 10  1  0  0  0
 10 12  1  0  0  0
 10 11  1  0  0  0
 12 13  1  0  0  0
 12 17  2  0  0  0
 13 14  2  0  0  0
 14 15  1  0  0  0
 15 16  2  0  0  0
 16 18  1  0  0  0
 16 17  1  0  0  0
 18 19  1  0  0  0
 18 20  1  0  0  0
 18 21  1  0  0  0
  6  7  1  0  0  0
  7 22  1  0  0  0
 22 23  3  0  0  0
 23 24  1  0  0  0
 24 25  1  0  0  0
 24 33  2  0  0  0
 25 26  2  0  0  0
 26 27  1  0  0  0
 27 28  1  0  0  0
 27 32  2  0  0  0
 28 29  2  0  0  0
 29 30  1  0  0  0
 30 31  2  0  0  0
 31 32  1  0  0  0
 32 33  1  0  0  0
M  END
> <minimizedAffinity>
-12.82857

$$$$
