CHEMBL515432


 43 47  0  0  0  0  0  0  0  0999 V2000
  -27.0152   -2.1437   -9.3068 N   0  0  0  0  0  0  0  0  0  0  0  0
  -27.3908   -1.7341  -10.5738 C   0  0  0  0  0  0  0  0  0  0  0  0
  -28.5440   -1.7124  -10.9951 O   0  0  0  0  0  0  0  0  0  0  0  0
  -26.0337   -2.2397   -9.0948 H   0  0  0  0  0  0  0  0  0  0  0  0
  -30.4448   -3.8152   -5.0153 C   0  0  0  0  0  0  0  0  0  0  0  0
  -29.5669   -3.4154   -6.1711 C   0  0  0  0  0  0  0  0  0  0  0  0
  -28.9612   -2.1478   -6.1142 C   0  0  0  0  0  0  0  0  0  0  0  0
  -28.1193   -1.6994   -7.1324 C   0  0  0  0  0  0  0  0  0  0  0  0
  -27.8857   -2.4937   -8.2462 C   0  0  0  0  0  0  0  0  0  0  0  0
  -28.5182   -3.7405   -8.3212 C   0  0  0  0  0  0  0  0  0  0  0  0
  -29.3523   -4.2381   -7.2991 C   0  0  0  0  0  0  0  0  0  0  0  0
  -29.9075   -5.5389   -7.3563 N   0  0  0  0  0  0  0  0  0  0  0  0
  -30.9137   -5.5695   -7.4406 H   0  0  0  0  0  0  0  0  0  0  0  0
  -29.2846   -6.7182   -7.1042 C   0  0  0  0  0  0  0  0  0  0  0  0
  -29.0389   -7.6816   -7.9636 N   0  0  0  0  0  0  0  0  0  0  0  0
  -28.3772   -8.7247   -7.3638 C   0  0  0  0  0  0  0  0  0  0  0  0
  -28.0833   -8.5697   -6.0242 C   0  0  0  0  0  0  0  0  0  0  0  0
  -28.6993   -7.0486   -5.5096 S   0  0  0  0  0  0  0  0  0  0  0  0
  -27.3731   -9.4864   -5.1289 C   0  0  0  0  0  0  0  0  0  0  0  0
  -26.3110   -9.0298   -4.3362 C   0  0  0  0  0  0  0  0  0  0  0  0
  -25.6067   -9.9162   -3.5235 C   0  0  0  0  0  0  0  0  0  0  0  0
  -25.9878  -11.2459   -3.5199 C   0  0  0  0  0  0  0  0  0  0  0  0
  -27.0066  -11.7318   -4.2577 N   0  0  0  0  0  0  0  0  0  0  0  0
  -27.6701  -10.8453   -5.0419 C   0  0  0  0  0  0  0  0  0  0  0  0
  -26.3072   -1.3012  -11.5169 C   0  0  0  0  0  0  0  0  0  0  0  0
  -26.2075   -1.7145  -12.8503 C   0  0  0  0  0  0  0  0  0  0  0  0
  -25.1390   -1.2724  -13.6410 C   0  0  0  0  0  0  0  0  0  0  0  0
  -24.1523   -0.4262  -13.1126 C   0  0  0  0  0  0  0  0  0  0  0  0
  -24.2531    0.0041  -11.7906 C   0  0  0  0  0  0  0  0  0  0  0  0
  -25.3222   -0.4351  -11.0035 C   0  0  0  0  0  0  0  0  0  0  0  0
  -23.0484    0.0113  -14.0097 C   0  0  0  0  0  0  0  0  0  0  0  0
  -22.9831   -0.5106  -15.1177 O   0  0  0  0  0  0  0  0  0  0  0  0
  -22.1492    0.9164  -13.4737 N   0  0  0  0  0  0  0  0  0  0  0  0
  -22.2196    1.1623  -12.4995 H   0  0  0  0  0  0  0  0  0  0  0  0
  -21.0191    1.4587  -14.1366 C   0  0  0  0  0  0  0  0  0  0  0  0
  -19.9409    0.6639  -14.5399 C   0  0  0  0  0  0  0  0  0  0  0  0
  -18.8487    1.2237  -15.2033 C   0  0  0  0  0  0  0  0  0  0  0  0
  -18.8360    2.5820  -15.4961 C   0  0  0  0  0  0  0  0  0  0  0  0
  -19.9189    3.3818  -15.1284 C   0  0  0  0  0  0  0  0  0  0  0  0
  -20.9965    2.8465  -14.4075 C   0  0  0  0  0  0  0  0  0  0  0  0
  -22.0980    3.6806  -14.1040 N   0  0  0  0  0  0  0  0  0  0  0  0
  -21.8624    4.6674  -14.1724 H   0  0  0  0  0  0  0  0  0  0  0  0
  -22.4944    3.4768  -13.1934 H   0  0  0  0  0  0  0  0  0  0  0  0
  5  6  1  0  0  0
  6  7  1  0  0  0
  6 11  2  0  0  0
  7  8  2  0  0  0
  8  9  1  0  0  0
  9  1  1  0  0  0
  9 10  2  0  0  0
  1  2  1  0  0  0
  1  4  1  0  0  0
  2  3  2  0  0  0
  2 25  1  0  0  0
 25 26  1  0  0  0
 25 30  2  0  0  0
 26 27  2  0  0  0
 27 28  1  0  0  0
 28 31  1  0  0  0
 28 29  2  0  0  0
 31 32  2  0  0  0
 31 33  1  0  0  0
 33 35  1  0  0  0
 33 34  1  0  0  0
 35 36  1  0  0  0
 35 40  2  0  0  0
 36 37  2  0  0  0
 37 38  1  0  0  0
 38 39  2  0  0  0
 39 40  1  0  0  0
 40 41  1  0  0  0
 41 42  1  0  0  0
 41 43  1  0  0  0
 29 30  1  0  0  0
 10 11  1  0  0  0
 11 12  1  0  0  0
 12 14  1  0  0  0
 12 13  1  0  0  0
 14 15  2  0  0  0
 14 18  1  0  0  0
 15 16  1  0  0  0
 16 17  2  0  0  0
 17 19  1  0  0  0
 17 18  1  0  0  0
 19 20  1  0  0  0
 19 24  2  0  0  0
 20 21  2  0  0  0
 21 22  1  0  0  0
 22 23  2  0  0  0
 23 24  1  0  0  0
M  END
> <minimizedAffinity>
-10.63796

$$$$
