CHEMBL1965495


 19 21  0  0  0  0  0  0  0  0999 V2000
  -30.8943   -3.0982   -2.9513 C   0  0  0  0  0  0  0  0  0  0  0  0
  -30.6642   -4.1456   -3.9827 C   0  0  0  0  0  0  0  0  0  0  0  0
  -31.1875   -5.3546   -3.7208 N   0  0  0  0  0  0  0  0  0  0  0  0
  -30.9016   -6.0730   -4.8093 N   0  0  0  0  0  0  0  0  0  0  0  0
  -30.2076   -5.3868   -5.7551 C   0  0  0  0  0  0  0  0  0  0  0  0
  -29.8476   -5.9074   -6.9379 N   0  0  0  0  0  0  0  0  0  0  0  0
  -29.1575   -5.0413   -7.6972 C   0  0  0  0  0  0  0  0  0  0  0  0
  -28.8040   -3.7405   -7.3344 C   0  0  0  0  0  0  0  0  0  0  0  0
  -29.2119   -3.2056   -6.0774 C   0  0  0  0  0  0  0  0  0  0  0  0
  -29.9744   -4.1055   -5.2539 C   0  0  0  0  0  0  0  0  0  0  0  0
  -31.2126   -7.0345   -4.8646 H   0  0  0  0  0  0  0  0  0  0  0  0
  -28.8846   -1.8226   -5.6257 C   0  0  0  0  0  0  0  0  0  0  0  0
  -27.6195   -1.4614   -5.1191 C   0  0  0  0  0  0  0  0  0  0  0  0
  -27.3236   -0.1504   -4.7199 C   0  0  0  0  0  0  0  0  0  0  0  0
  -28.2584    0.8598   -4.8961 C   0  0  0  0  0  0  0  0  0  0  0  0
  -29.5174    0.5385   -5.3809 C   0  0  0  0  0  0  0  0  0  0  0  0
  -29.8382   -0.7937   -5.6683 C   0  0  0  0  0  0  0  0  0  0  0  0
  -28.0144   -3.0299   -8.2895 C   0  0  0  0  0  0  0  0  0  0  0  0
  -27.3287   -2.4429   -9.0289 N   0  0  0  0  0  0  0  0  0  0  0  0
  1  2  1  0  0  0
  2  3  2  0  0  0
  2 10  1  0  0  0
  3  4  1  0  0  0
  4  5  1  0  0  0
  4 11  1  0  0  0
  5  6  1  0  0  0
  5 10  2  0  0  0
  6  7  2  0  0  0
  7  8  1  0  0  0
  8 18  1  0  0  0
  8  9  2  0  0  0
 18 19  3  0  0  0
  9 12  1  0  0  0
  9 10  1  0  0  0
 12 13  1  0  0  0
 12 17  2  0  0  0
 13 14  2  0  0  0
 14 15  1  0  0  0
 15 16  2  0  0  0
 16 17  1  0  0  0
M  END
> <minimizedAffinity>
-7.82339

$$$$
