CHEMBL1253915


 29 33  0  0  0  0  0  0  0  0999 V2000
  -29.3595   -5.0240   -6.2551 C   0  0  0  0  0  0  0  0  0  0  0  0
  -28.7289   -5.2126   -7.4804 C   0  0  0  0  0  0  0  0  0  0  0  0
  -28.2196   -4.1230   -8.1797 C   0  0  0  0  0  0  0  0  0  0  0  0
  -28.3898   -2.8108   -7.7198 C   0  0  0  0  0  0  0  0  0  0  0  0
  -29.0567   -2.6281   -6.5002 C   0  0  0  0  0  0  0  0  0  0  0  0
  -29.5486   -3.7257   -5.7787 C   0  0  0  0  0  0  0  0  0  0  0  0
  -27.8760   -1.6909   -8.4123 N   0  0  0  0  0  0  0  0  0  0  0  0
  -28.2683   -0.8105   -8.1063 H   0  0  0  0  0  0  0  0  0  0  0  0
  -27.2522   -1.7576   -9.6096 C   0  0  0  0  0  0  0  0  0  0  0  0
  -25.9720   -1.6662   -9.8844 N   0  0  0  0  0  0  0  0  0  0  0  0
  -25.8709   -1.6771  -11.2418 C   0  0  0  0  0  0  0  0  0  0  0  0
  -24.7326   -1.5355  -12.0440 C   0  0  0  0  0  0  0  0  0  0  0  0
  -24.8981   -1.5297  -13.4309 C   0  0  0  0  0  0  0  0  0  0  0  0
  -26.1673   -1.6793  -13.9984 C   0  0  0  0  0  0  0  0  0  0  0  0
  -27.3131   -1.8403  -13.2087 C   0  0  0  0  0  0  0  0  0  0  0  0
  -27.1201   -1.8308  -11.8274 C   0  0  0  0  0  0  0  0  0  0  0  0
  -27.9794   -1.9222  -10.7607 N   0  0  0  0  0  0  0  0  0  0  0  0
  -28.9851   -1.9819  -10.8137 H   0  0  0  0  0  0  0  0  0  0  0  0
  -29.8628   -6.0536   -5.4933 O   0  0  0  0  0  0  0  0  0  0  0  0
  -31.6814   -7.8857   -7.1190 C   0  0  0  0  0  0  0  0  0  0  0  0
  -30.6162   -8.7692   -6.6971 N   0  0  0  0  0  0  0  0  0  0  0  0
  -30.5495  -10.1067   -7.0017 C   0  0  0  0  0  0  0  0  0  0  0  0
  -29.3847  -10.6054   -6.4518 C   0  0  0  0  0  0  0  0  0  0  0  0
  -28.7369   -9.5382   -5.7942 C   0  0  0  0  0  0  0  0  0  0  0  0
  -27.5657   -9.5430   -5.1199 N   0  0  0  0  0  0  0  0  0  0  0  0
  -27.2547   -8.3555   -4.5876 C   0  0  0  0  0  0  0  0  0  0  0  0
  -27.9626   -7.2172   -4.6519 N   0  0  0  0  0  0  0  0  0  0  0  0
  -29.1064   -7.2128   -5.3743 C   0  0  0  0  0  0  0  0  0  0  0  0
  -29.5261   -8.4038   -5.9441 C   0  0  0  0  0  0  0  0  0  0  0  0
 20 21  1  0  0  0
 21 22  1  0  0  0
 21 29  1  0  0  0
 22 23  2  0  0  0
 23 24  1  0  0  0
 24 25  1  0  0  0
 24 29  2  0  0  0
 25 26  2  0  0  0
 26 27  1  0  0  0
 27 28  2  0  0  0
 28 19  1  0  0  0
 28 29  1  0  0  0
 19  1  1  0  0  0
  1  2  1  0  0  0
  1  6  2  0  0  0
  2  3  2  0  0  0
  3  4  1  0  0  0
  4  7  1  0  0  0
  4  5  2  0  0  0
  7  9  1  0  0  0
  7  8  1  0  0  0
  9 10  2  0  0  0
  9 17  1  0  0  0
 10 11  1  0  0  0
 11 12  1  0  0  0
 11 16  2  0  0  0
 12 13  2  0  0  0
 13 14  1  0  0  0
 14 15  2  0  0  0
 15 16  1  0  0  0
 16 17  1  0  0  0
 17 18  1  0  0  0
  5  6  1  0  0  0
M  END
> <minimizedAffinity>
-9.08498

$$$$
