CHEMBL231139


 32 35  0  0  0  0  0  0  0  0999 V2000
  -29.1086   -1.6951   -5.6213 C   0  0  0  0  0  0  0  0  0  0  0  0
  -28.6971   -1.3419   -4.1560 C   0  0  0  0  0  0  0  0  0  0  0  0
  -29.0747   -2.4402   -3.1417 C   0  0  0  0  0  0  0  0  0  0  0  0
  -28.3697   -3.7698   -3.4576 C   0  0  0  0  0  0  0  0  0  0  0  0
  -28.5000   -4.0615   -4.9096 C   0  0  0  0  0  0  0  0  0  0  0  0
  -28.3743   -5.3080   -5.4658 N   0  0  0  0  0  0  0  0  0  0  0  0
  -28.6736   -5.2377   -6.8040 C   0  0  0  0  0  0  0  0  0  0  0  0
  -28.9933   -3.9264   -7.0838 C   0  0  0  0  0  0  0  0  0  0  0  0
  -28.8286   -3.1564   -5.9022 C   0  0  0  0  0  0  0  0  0  0  0  0
  -28.1884   -6.1587   -4.9519 H   0  0  0  0  0  0  0  0  0  0  0  0
  -28.6982   -6.4154   -7.5852 C   0  0  0  0  0  0  0  0  0  0  0  0
  -29.6329   -7.3608   -7.4003 C   0  0  0  0  0  0  0  0  0  0  0  0
  -30.7397   -7.3331   -6.3651 C   0  0  0  0  0  0  0  0  0  0  0  0
  -30.9906   -6.5010   -5.5162 O   0  0  0  0  0  0  0  0  0  0  0  0
  -31.4423   -8.5046   -6.5688 N   0  0  0  0  0  0  0  0  0  0  0  0
  -30.8899   -9.2640   -7.5883 C   0  0  0  0  0  0  0  0  0  0  0  0
  -31.3457  -10.4952   -8.0099 C   0  0  0  0  0  0  0  0  0  0  0  0
  -30.6409  -11.1153   -9.0412 C   0  0  0  0  0  0  0  0  0  0  0  0
  -29.5068  -10.4986   -9.6232 C   0  0  0  0  0  0  0  0  0  0  0  0
  -29.0732   -9.2326   -9.1829 C   0  0  0  0  0  0  0  0  0  0  0  0
  -29.7757   -8.6262   -8.1458 C   0  0  0  0  0  0  0  0  0  0  0  0
  -32.2427   -8.7487   -6.0062 H   0  0  0  0  0  0  0  0  0  0  0  0
  -28.8512  -11.2428  -10.7343 C   0  0  0  0  0  0  0  0  0  0  0  0
  -28.2207  -12.2715  -10.5482 O   0  0  0  0  0  0  0  0  0  0  0  0
  -28.9621  -10.6624  -11.9437 O   0  0  0  0  0  0  0  0  0  0  0  0
  -29.3260   -9.7601  -11.9552 H   0  0  0  0  0  0  0  0  0  0  0  0
  -28.4336   -0.7044   -6.6041 C   0  0  0  0  0  0  0  0  0  0  0  0
  -28.5119    0.7542   -6.1516 C   0  0  0  0  0  0  0  0  0  0  0  0
  -30.6720    1.3561   -5.2232 O   0  0  0  0  0  0  0  0  0  0  0  0
  -29.8859    1.3623   -6.1595 C   0  0  0  0  0  0  0  0  0  0  0  0
  -30.1598    1.9673   -7.3423 O   0  0  0  0  0  0  0  0  0  0  0  0
  -29.4278    1.9102   -7.9861 H   0  0  0  0  0  0  0  0  0  0  0  0
 29 30  2  0  0  0
 30 31  1  0  0  0
 30 28  1  0  0  0
 31 32  1  0  0  0
 28 27  1  0  0  0
 27  1  1  0  0  0
  1  2  1  0  0  0
  1  9  1  0  0  0
  2  3  1  0  0  0
  3  4  1  0  0  0
  4  5  1  0  0  0
  5  6  1  0  0  0
  5  9  2  0  0  0
  6  7  1  0  0  0
  6 10  1  0  0  0
  7 11  1  0  0  0
  7  8  2  0  0  0
 11 12  2  0  0  0
 12 13  1  0  0  0
 12 21  1  0  0  0
 13 14  2  0  0  0
 13 15  1  0  0  0
 15 16  1  0  0  0
 15 22  1  0  0  0
 16 17  1  0  0  0
 16 21  2  0  0  0
 17 18  2  0  0  0
 18 19  1  0  0  0
 19 23  1  0  0  0
 19 20  2  0  0  0
 23 24  2  0  0  0
 23 25  1  0  0  0
 25 26  1  0  0  0
 20 21  1  0  0  0
  8  9  1  0  0  0
M  END
> <minimizedAffinity>
-9.16481

$$$$
