CHEMBL3966316


 36 39  0  0  0  0  0  0  0  0999 V2000
  -30.1840   -6.2576   -5.9676 N   0  0  0  0  0  0  0  0  0  0  0  0
  -29.7543   -4.9550   -6.3307 C   0  0  0  0  0  0  0  0  0  0  0  0
  -29.7161   -3.9515   -5.3549 C   0  0  0  0  0  0  0  0  0  0  0  0
  -29.1823   -2.6950   -5.6369 C   0  0  0  0  0  0  0  0  0  0  0  0
  -28.6579   -2.4060   -6.8829 C   0  0  0  0  0  0  0  0  0  0  0  0
  -28.0979   -1.2020   -7.0845 N   0  0  0  0  0  0  0  0  0  0  0  0
  -27.5549   -0.9965   -8.3054 C   0  0  0  0  0  0  0  0  0  0  0  0
  -27.5704   -1.9474   -9.3152 C   0  0  0  0  0  0  0  0  0  0  0  0
  -28.1611   -3.1552   -9.1231 N   0  0  0  0  0  0  0  0  0  0  0  0
  -28.7017   -3.3873   -7.9031 C   0  0  0  0  0  0  0  0  0  0  0  0
  -29.2797   -4.6237   -7.6134 C   0  0  0  0  0  0  0  0  0  0  0  0
  -26.9314   -1.6926  -10.5947 C   0  0  0  0  0  0  0  0  0  0  0  0
  -27.4673   -1.6619  -11.9046 C   0  0  0  0  0  0  0  0  0  0  0  0
  -26.5588   -1.3695  -12.8355 N   0  0  0  0  0  0  0  0  0  0  0  0
  -25.4278   -1.2065  -12.1274 N   0  0  0  0  0  0  0  0  0  0  0  0
  -24.2040   -0.8566  -12.8049 C   0  0  0  0  0  0  0  0  0  0  0  0
  -25.5969   -1.3885  -10.7842 C   0  0  0  0  0  0  0  0  0  0  0  0
  -31.9595   -9.1055   -7.6705 C   0  0  0  0  0  0  0  0  0  0  0  0
  -31.0032   -9.5239   -8.5852 C   0  0  0  0  0  0  0  0  0  0  0  0
  -29.7946   -8.8441   -8.6488 C   0  0  0  0  0  0  0  0  0  0  0  0
  -28.8648   -9.2515   -9.5234 F   0  0  0  0  0  0  0  0  0  0  0  0
  -29.5121   -7.7644   -7.8130 C   0  0  0  0  0  0  0  0  0  0  0  0
  -30.4551   -7.3110   -6.8824 C   0  0  0  0  0  0  0  0  0  0  0  0
  -31.6920   -7.9949   -6.8532 C   0  0  0  0  0  0  0  0  0  0  0  0
  -33.2380  -10.8278   -6.6695 C   0  0  0  0  0  0  0  0  0  0  0  0
  -33.1939   -9.6777   -7.5121 O   0  0  0  0  0  0  0  0  0  0  0  0
  -30.2926   -6.5503   -4.5156 C   0  0  0  0  0  0  0  0  0  0  0  0
  -29.1555   -7.4193   -3.9545 C   0  0  0  0  0  0  0  0  0  0  0  0
  -27.7607   -7.1344   -4.5177 C   0  0  0  0  0  0  0  0  0  0  0  0
  -27.1599   -8.4352   -4.8259 N   0  0  0  0  0  0  0  0  0  0  0  0
  -26.2254   -8.4965   -4.4129 H   0  0  0  0  0  0  0  0  0  0  0  0
  -27.9602   -9.5897   -4.3660 C   0  0  0  0  0  0  0  0  0  0  0  0
  -28.3539  -10.6051   -5.4704 C   0  0  0  0  0  0  0  0  0  0  0  0
  -28.0624  -11.8801   -5.1220 F   0  0  0  0  0  0  0  0  0  0  0  0
  -29.6848  -10.5555   -5.7150 F   0  0  0  0  0  0  0  0  0  0  0  0
  -27.7161  -10.3413   -6.6329 F   0  0  0  0  0  0  0  0  0  0  0  0
 25 26  1  0  0  0
 26 18  1  0  0  0
 18 19  1  0  0  0
 18 24  2  0  0  0
 19 20  2  0  0  0
 20 21  1  0  0  0
 20 22  1  0  0  0
 22 23  2  0  0  0
 23  1  1  0  0  0
 23 24  1  0  0  0
  1 27  1  0  0  0
  1  2  1  0  0  0
 27 28  1  0  0  0
 28 29  1  0  0  0
 29 30  1  0  0  0
 30 32  1  0  0  0
 30 31  1  0  0  0
 32 33  1  0  0  0
 33 34  1  0  0  0
 33 35  1  0  0  0
 33 36  1  0  0  0
  2  3  1  0  0  0
  2 11  2  0  0  0
  3  4  2  0  0  0
  4  5  1  0  0  0
  5  6  1  0  0  0
  5 10  2  0  0  0
  6  7  2  0  0  0
  7  8  1  0  0  0
  8 12  1  0  0  0
  8  9  2  0  0  0
 12 13  1  0  0  0
 12 17  2  0  0  0
 13 14  2  0  0  0
 14 15  1  0  0  0
 15 16  1  0  0  0
 15 17  1  0  0  0
  9 10  1  0  0  0
 10 11  1  0  0  0
M  END
> <minimizedAffinity>
-8.09487

$$$$
