CHEMBL249194


 32 35  0  0  0  0  0  0  0  0999 V2000
  -27.3344   -3.5864   -8.7888 O   0  0  0  0  0  0  0  0  0  0  0  0
  -27.6603   -2.4128   -8.6191 C   0  0  0  0  0  0  0  0  0  0  0  0
  -27.5051   -1.3836   -9.5338 N   0  0  0  0  0  0  0  0  0  0  0  0
  -27.7731   -0.4514   -9.2179 H   0  0  0  0  0  0  0  0  0  0  0  0
  -26.9673   -1.5004  -10.8395 C   0  0  0  0  0  0  0  0  0  0  0  0
  -27.7725   -1.6409  -11.9755 C   0  0  0  0  0  0  0  0  0  0  0  0
  -27.2158   -1.8485  -13.2348 C   0  0  0  0  0  0  0  0  0  0  0  0
  -25.8375   -1.8834  -13.3817 C   0  0  0  0  0  0  0  0  0  0  0  0
  -25.0125   -1.6109  -12.2864 C   0  0  0  0  0  0  0  0  0  0  0  0
  -25.5748   -1.4669  -11.0074 C   0  0  0  0  0  0  0  0  0  0  0  0
  -23.6382   -1.4955  -12.3845 O   0  0  0  0  0  0  0  0  0  0  0  0
  -23.1047   -0.4034  -13.0422 C   0  0  0  0  0  0  0  0  0  0  0  0
  -22.0843   -0.4908  -13.9973 C   0  0  0  0  0  0  0  0  0  0  0  0
  -21.5318    0.6678  -14.5449 C   0  0  0  0  0  0  0  0  0  0  0  0
  -22.0477    1.9144  -14.1979 C   0  0  0  0  0  0  0  0  0  0  0  0
  -23.1233    2.0013  -13.3133 C   0  0  0  0  0  0  0  0  0  0  0  0
  -23.6511    0.8437  -12.7345 C   0  0  0  0  0  0  0  0  0  0  0  0
  -28.2913   -2.0950   -7.3144 C   0  0  0  0  0  0  0  0  0  0  0  0
  -27.8363   -0.9318   -6.6696 C   0  0  0  0  0  0  0  0  0  0  0  0
  -28.3841   -0.5431   -5.4574 C   0  0  0  0  0  0  0  0  0  0  0  0
  -29.3858   -1.3306   -4.9322 C   0  0  0  0  0  0  0  0  0  0  0  0
  -29.8344   -2.4664   -5.5156 N   0  0  0  0  0  0  0  0  0  0  0  0
  -29.2828   -2.8603   -6.6915 C   0  0  0  0  0  0  0  0  0  0  0  0
  -29.7548   -4.0547   -7.2838 N   0  0  0  0  0  0  0  0  0  0  0  0
  -30.6465   -3.8294   -7.7256 H   0  0  0  0  0  0  0  0  0  0  0  0
  -29.9115   -5.1450   -6.3192 C   0  0  0  0  0  0  0  0  0  0  0  0
  -29.9488   -6.4861   -7.0165 C   0  0  0  0  0  0  0  0  0  0  0  0
  -31.0696   -7.3105   -6.8468 C   0  0  0  0  0  0  0  0  0  0  0  0
  -31.1206   -8.5252   -7.5112 C   0  0  0  0  0  0  0  0  0  0  0  0
  -30.1477   -8.9685   -8.3318 N   0  0  0  0  0  0  0  0  0  0  0  0
  -29.0800   -8.1591   -8.4960 C   0  0  0  0  0  0  0  0  0  0  0  0
  -28.9383   -6.9250   -7.8771 C   0  0  0  0  0  0  0  0  0  0  0  0
  1  2  2  0  0  0
  2  3  1  0  0  0
  2 18  1  0  0  0
  3  5  1  0  0  0
  3  4  1  0  0  0
  5  6  1  0  0  0
  5 10  2  0  0  0
  6  7  2  0  0  0
  7  8  1  0  0  0
  8  9  2  0  0  0
  9 11  1  0  0  0
  9 10  1  0  0  0
 11 12  1  0  0  0
 12 13  1  0  0  0
 12 17  2  0  0  0
 13 14  2  0  0  0
 14 15  1  0  0  0
 15 16  2  0  0  0
 16 17  1  0  0  0
 18 19  1  0  0  0
 18 23  2  0  0  0
 19 20  2  0  0  0
 20 21  1  0  0  0
 21 22  2  0  0  0
 22 23  1  0  0  0
 23 24  1  0  0  0
 24 26  1  0  0  0
 24 25  1  0  0  0
 26 27  1  0  0  0
 27 28  1  0  0  0
 27 32  2  0  0  0
 28 29  2  0  0  0
 29 30  1  0  0  0
 30 31  2  0  0  0
 31 32  1  0  0  0
M  END
> <minimizedAffinity>
-9.76425

$$$$
