CHEMBL150817


 27 29  0  0  0  0  0  0  0  0999 V2000
  -14.8163   -7.2012  -12.9630 C   0  0  0  0  0  0  0  0  0  0  0  0
  -14.9490   -6.5357  -11.7235 C   0  0  0  0  0  0  0  0  0  0  0  0
  -15.2062   -5.1733  -11.5928 C   0  0  0  0  0  0  0  0  0  0  0  0
  -15.2346   -4.6340  -10.3593 N   0  0  0  0  0  0  0  0  0  0  0  0
  -15.4699   -3.3101  -10.2392 C   0  0  0  0  0  0  0  0  0  0  0  0
  -15.7289   -2.4793  -11.3077 C   0  0  0  0  0  0  0  0  0  0  0  0
  -15.7395   -3.0302  -12.5897 C   0  0  0  0  0  0  0  0  0  0  0  0
  -15.4085   -4.4155  -12.7572 C   0  0  0  0  0  0  0  0  0  0  0  0
  -15.2739   -5.0735  -14.0007 C   0  0  0  0  0  0  0  0  0  0  0  0
  -14.9849   -6.4490  -14.1291 C   0  0  0  0  0  0  0  0  0  0  0  0
  -16.0140   -2.1831  -13.7065 N   0  0  0  0  0  0  0  0  0  0  0  0
  -17.0178   -2.1193  -13.8529 H   0  0  0  0  0  0  0  0  0  0  0  0
  -15.5098   -0.8647  -13.9009 C   0  0  0  0  0  0  0  0  0  0  0  0
  -14.1281   -0.6705  -13.7574 C   0  0  0  0  0  0  0  0  0  0  0  0
  -13.5388    0.5527  -14.0922 C   0  0  0  0  0  0  0  0  0  0  0  0
  -14.3268    1.5889  -14.5899 C   0  0  0  0  0  0  0  0  0  0  0  0
  -13.5925    3.0738  -15.0526 Cl  0  0  0  0  0  0  0  0  0  0  0  0
  -15.6978    1.4198  -14.7435 C   0  0  0  0  0  0  0  0  0  0  0  0
  -16.2762    0.1975  -14.4105 C   0  0  0  0  0  0  0  0  0  0  0  0
  -17.5892    0.0479  -14.6388 F   0  0  0  0  0  0  0  0  0  0  0  0
  -14.7756   -6.7720  -15.4398 O   0  0  0  0  0  0  0  0  0  0  0  0
  -13.5097   -7.2321  -15.8844 C   0  0  0  0  0  0  0  0  0  0  0  0
  -14.4870   -8.5197  -12.7703 O   0  0  0  0  0  0  0  0  0  0  0  0
  -13.3036   -8.8116  -12.0558 C   0  0  0  0  0  0  0  0  0  0  0  0
  -12.4745   -9.9256  -12.6806 C   0  0  0  0  0  0  0  0  0  0  0  0
  -11.0500   -8.7140  -11.2095 C   0  0  0  0  0  0  0  0  0  0  0  0
  -11.1494   -9.7508  -12.1677 O   0  0  0  0  0  0  0  0  0  0  0  0
 26 27  1  0  0  0
 27 25  1  0  0  0
 25 24  1  0  0  0
 24 23  1  0  0  0
 23  1  1  0  0  0
  1  2  1  0  0  0
  1 10  2  0  0  0
  2  3  2  0  0  0
  3  4  1  0  0  0
  3  8  1  0  0  0
  4  5  2  0  0  0
  5  6  1  0  0  0
  6  7  2  0  0  0
  7 11  1  0  0  0
  7  8  1  0  0  0
 11 13  1  0  0  0
 11 12  1  0  0  0
 13 14  1  0  0  0
 13 19  2  0  0  0
 14 15  2  0  0  0
 15 16  1  0  0  0
 16 17  1  0  0  0
 16 18  2  0  0  0
 18 19  1  0  0  0
 19 20  1  0  0  0
  8  9  2  0  0  0
  9 10  1  0  0  0
 10 21  1  0  0  0
 21 22  1  0  0  0
M  END
> <minimizedAffinity>
-7.02991

$$$$
