CHEMBL2047251


 26 29  0  0  0  0  0  0  0  0999 V2000
  -30.2508   -5.4705   -5.5486 C   0  0  0  0  0  0  0  0  0  0  0  0
  -30.9735   -5.8743   -4.4821 N   0  0  0  0  0  0  0  0  0  0  0  0
  -31.2829   -4.9829   -3.5302 C   0  0  0  0  0  0  0  0  0  0  0  0
  -32.1572   -5.4150   -2.5580 N   0  0  0  0  0  0  0  0  0  0  0  0
  -30.8267   -3.7284   -3.4682 N   0  0  0  0  0  0  0  0  0  0  0  0
  -30.1191   -3.3548   -4.5419 C   0  0  0  0  0  0  0  0  0  0  0  0
  -29.8846   -4.1579   -5.6482 C   0  0  0  0  0  0  0  0  0  0  0  0
  -29.1965   -3.4019   -6.6651 C   0  0  0  0  0  0  0  0  0  0  0  0
  -28.9685   -3.6860   -8.0000 C   0  0  0  0  0  0  0  0  0  0  0  0
  -28.2315   -2.7736   -8.7547 C   0  0  0  0  0  0  0  0  0  0  0  0
  -27.7234   -1.6072   -8.1612 C   0  0  0  0  0  0  0  0  0  0  0  0
  -28.0225   -1.2842   -6.8323 C   0  0  0  0  0  0  0  0  0  0  0  0
  -28.8093   -2.1669   -6.1093 C   0  0  0  0  0  0  0  0  0  0  0  0
  -29.4275   -2.0063   -4.7320 C   0  0  0  0  0  0  0  0  0  0  0  0
  -32.1381   -6.4229   -2.4939 H   0  0  0  0  0  0  0  0  0  0  0  0
  -32.0749   -4.8727   -1.7140 H   0  0  0  0  0  0  0  0  0  0  0  0
  -29.8610   -6.3789   -6.5596 N   0  0  0  0  0  0  0  0  0  0  0  0
  -28.8505   -6.5016   -6.5466 H   0  0  0  0  0  0  0  0  0  0  0  0
  -30.5144   -9.5755   -8.3357 C   0  0  0  0  0  0  0  0  0  0  0  0
  -31.8930   -9.7065   -8.1559 C   0  0  0  0  0  0  0  0  0  0  0  0
  -32.5957   -8.7429   -7.4408 C   0  0  0  0  0  0  0  0  0  0  0  0
  -31.9241   -7.6530   -6.9037 C   0  0  0  0  0  0  0  0  0  0  0  0
  -30.5403   -7.5135   -7.0324 C   0  0  0  0  0  0  0  0  0  0  0  0
  -29.8463   -8.4769   -7.7799 C   0  0  0  0  0  0  0  0  0  0  0  0
  -29.2026   -9.9612  -10.2704 C   0  0  0  0  0  0  0  0  0  0  0  0
  -29.7237  -10.4461   -9.0371 O   0  0  0  0  0  0  0  0  0  0  0  0
 25 26  1  0  0  0
 26 19  1  0  0  0
 19 20  1  0  0  0
 19 24  2  0  0  0
 20 21  2  0  0  0
 21 22  1  0  0  0
 22 23  2  0  0  0
 23 17  1  0  0  0
 23 24  1  0  0  0
 17  1  1  0  0  0
 17 18  1  0  0  0
  1  2  1  0  0  0
  1  7  2  0  0  0
  2  3  2  0  0  0
  3  4  1  0  0  0
  3  5  1  0  0  0
  4 15  1  0  0  0
  4 16  1  0  0  0
  5  6  2  0  0  0
  6  7  1  0  0  0
  6 14  1  0  0  0
  7  8  1  0  0  0
  8  9  1  0  0  0
  8 13  2  0  0  0
  9 10  2  0  0  0
 10 11  1  0  0  0
 11 12  2  0  0  0
 12 13  1  0  0  0
 13 14  1  0  0  0
M  END
> <minimizedAffinity>
-8.95978

$$$$
