CHEMBL2011301


 25 27  0  0  0  0  0  0  0  0999 V2000
  -29.9560   -5.1696   -4.1954 C   0  0  0  0  0  0  0  0  0  0  0  0
  -29.7846   -5.1894   -5.6151 C   0  0  0  0  0  0  0  0  0  0  0  0
  -29.5711   -3.9515   -6.0859 N   0  0  0  0  0  0  0  0  0  0  0  0
  -29.4440   -3.1552   -4.9988 N   0  0  0  0  0  0  0  0  0  0  0  0
  -29.7045   -3.8564   -3.8173 C   0  0  0  0  0  0  0  0  0  0  0  0
  -29.8092   -3.2758   -2.5818 N   0  0  0  0  0  0  0  0  0  0  0  0
  -29.9890   -2.2721   -2.5315 H   0  0  0  0  0  0  0  0  0  0  0  0
  -30.3848   -3.7559   -1.8876 H   0  0  0  0  0  0  0  0  0  0  0  0
  -29.8290   -6.3219   -6.5536 C   0  0  0  0  0  0  0  0  0  0  0  0
  -30.9496   -7.1572   -6.5985 C   0  0  0  0  0  0  0  0  0  0  0  0
  -30.9586   -8.2170   -7.4913 C   0  0  0  0  0  0  0  0  0  0  0  0
  -29.9440   -8.4998   -8.3339 N   0  0  0  0  0  0  0  0  0  0  0  0
  -28.8805   -7.6723   -8.2913 C   0  0  0  0  0  0  0  0  0  0  0  0
  -28.7873   -6.5765   -7.4484 C   0  0  0  0  0  0  0  0  0  0  0  0
  -29.1519   -1.7710   -5.1774 C   0  0  0  0  0  0  0  0  0  0  0  0
  -27.8125   -1.3517   -5.1486 C   0  0  0  0  0  0  0  0  0  0  0  0
  -27.4899   -0.0117   -5.3720 C   0  0  0  0  0  0  0  0  0  0  0  0
  -28.5010    0.9224   -5.5870 C   0  0  0  0  0  0  0  0  0  0  0  0
  -29.8371    0.5193   -5.5775 C   0  0  0  0  0  0  0  0  0  0  0  0
  -30.1647   -0.8252   -5.3767 C   0  0  0  0  0  0  0  0  0  0  0  0
  -31.6177   -6.1142   -2.7635 N   0  0  0  0  0  0  0  0  0  0  0  0
  -30.3811   -6.2544   -3.3251 C   0  0  0  0  0  0  0  0  0  0  0  0
  -29.7038   -7.2439   -3.0725 O   0  0  0  0  0  0  0  0  0  0  0  0
  -31.8827   -6.7989   -2.0687 H   0  0  0  0  0  0  0  0  0  0  0  0
  -32.0915   -5.2213   -2.7887 H   0  0  0  0  0  0  0  0  0  0  0  0
 21 22  1  0  0  0
 21 24  1  0  0  0
 21 25  1  0  0  0
 22 23  2  0  0  0
 22  1  1  0  0  0
  1  2  1  0  0  0
  1  5  2  0  0  0
  2  9  1  0  0  0
  2  3  2  0  0  0
  9 10  1  0  0  0
  9 14  2  0  0  0
 10 11  2  0  0  0
 11 12  1  0  0  0
 12 13  2  0  0  0
 13 14  1  0  0  0
  3  4  1  0  0  0
  4 15  1  0  0  0
  4  5  1  0  0  0
 15 16  1  0  0  0
 15 20  2  0  0  0
 16 17  2  0  0  0
 17 18  1  0  0  0
 18 19  2  0  0  0
 19 20  1  0  0  0
  5  6  1  0  0  0
  6  7  1  0  0  0
  6  8  1  0  0  0
M  END
> <minimizedAffinity>
-8.30658

$$$$
