CHEMBL231357


 30 33  0  0  0  0  0  0  0  0999 V2000
  -19.4051    2.5414  -15.2570 C   0  0  0  0  0  0  0  0  0  0  0  0
  -19.1830    1.1633  -15.1876 C   0  0  0  0  0  0  0  0  0  0  0  0
  -17.9006    0.6457  -15.3865 C   0  0  0  0  0  0  0  0  0  0  0  0
  -16.8173    1.4882  -15.6862 C   0  0  0  0  0  0  0  0  0  0  0  0
  -17.0631    2.8589  -15.8093 C   0  0  0  0  0  0  0  0  0  0  0  0
  -18.3325    3.3876  -15.5566 C   0  0  0  0  0  0  0  0  0  0  0  0
  -15.4694    0.9310  -15.8702 C   0  0  0  0  0  0  0  0  0  0  0  0
  -14.8664    1.0344  -17.1116 C   0  0  0  0  0  0  0  0  0  0  0  0
  -13.3407    0.3000  -17.1835 S   0  0  0  0  0  0  0  0  0  0  0  0
  -13.4063   -0.1554  -15.5287 C   0  0  0  0  0  0  0  0  0  0  0  0
  -12.4008   -0.8465  -14.8437 C   0  0  0  0  0  0  0  0  0  0  0  0
  -12.6434   -1.1069  -13.5165 C   0  0  0  0  0  0  0  0  0  0  0  0
  -13.7691   -0.7585  -12.8768 N   0  0  0  0  0  0  0  0  0  0  0  0
  -14.7543   -0.1106  -13.5360 C   0  0  0  0  0  0  0  0  0  0  0  0
  -15.8800    0.1332  -12.7584 N   0  0  0  0  0  0  0  0  0  0  0  0
  -14.6035    0.2366  -14.9096 C   0  0  0  0  0  0  0  0  0  0  0  0
  -15.7935   -0.3902  -11.8932 H   0  0  0  0  0  0  0  0  0  0  0  0
  -16.7477   -0.0007  -13.2589 H   0  0  0  0  0  0  0  0  0  0  0  0
  -20.7901    3.1001  -15.0671 C   0  0  0  0  0  0  0  0  0  0  0  0
  -21.7651    0.9438  -14.3026 N   0  0  0  0  0  0  0  0  0  0  0  0
  -21.7899    2.3270  -14.2274 C   0  0  0  0  0  0  0  0  0  0  0  0
  -22.5531    2.9759  -13.5079 O   0  0  0  0  0  0  0  0  0  0  0  0
  -20.9938    0.5160  -14.8019 H   0  0  0  0  0  0  0  0  0  0  0  0
  -25.9240   -1.7386  -14.4489 C   0  0  0  0  0  0  0  0  0  0  0  0
  -24.7025   -1.2722  -13.7121 C   0  0  0  0  0  0  0  0  0  0  0  0
  -24.4319   -1.7595  -12.4305 C   0  0  0  0  0  0  0  0  0  0  0  0
  -23.2972   -1.3264  -11.7499 C   0  0  0  0  0  0  0  0  0  0  0  0
  -22.4192   -0.4238  -12.3467 C   0  0  0  0  0  0  0  0  0  0  0  0
  -22.6509    0.0574  -13.6375 C   0  0  0  0  0  0  0  0  0  0  0  0
  -23.8141   -0.3541  -14.3054 C   0  0  0  0  0  0  0  0  0  0  0  0
 24 25  1  0  0  0
 25 26  1  0  0  0
 25 30  2  0  0  0
 26 27  2  0  0  0
 27 28  1  0  0  0
 28 29  2  0  0  0
 29 20  1  0  0  0
 29 30  1  0  0  0
 20 21  1  0  0  0
 20 23  1  0  0  0
 21 22  2  0  0  0
 21 19  1  0  0  0
 19  1  1  0  0  0
  1  2  1  0  0  0
  1  6  2  0  0  0
  2  3  2  0  0  0
  3  4  1  0  0  0
  4  7  1  0  0  0
  4  5  2  0  0  0
  7  8  2  0  0  0
  7 16  1  0  0  0
  8  9  1  0  0  0
  9 10  1  0  0  0
 10 11  1  0  0  0
 10 16  2  0  0  0
 11 12  2  0  0  0
 12 13  1  0  0  0
 13 14  2  0  0  0
 14 15  1  0  0  0
 14 16  1  0  0  0
 15 17  1  0  0  0
 15 18  1  0  0  0
  5  6  1  0  0  0
M  END
> <minimizedAffinity>
-9.95501

$$$$
