CHEMBL1681947


 34 36  0  0  0  0  0  0  0  0999 V2000
  -23.0346   -0.8222  -13.5130 C   0  0  0  0  0  0  0  0  0  0  0  0
  -22.8484   -1.1548  -12.1722 C   0  0  0  0  0  0  0  0  0  0  0  0
  -23.8846   -1.7114  -11.4290 C   0  0  0  0  0  0  0  0  0  0  0  0
  -25.1516   -1.9289  -11.9793 C   0  0  0  0  0  0  0  0  0  0  0  0
  -25.3594   -1.5099  -13.3043 C   0  0  0  0  0  0  0  0  0  0  0  0
  -26.9024   -1.7131  -14.0624 Cl  0  0  0  0  0  0  0  0  0  0  0  0
  -24.3083   -0.9594  -14.0717 C   0  0  0  0  0  0  0  0  0  0  0  0
  -26.1855   -2.5646  -11.2260 N   0  0  0  0  0  0  0  0  0  0  0  0
  -26.6225   -2.1430   -9.9817 C   0  0  0  0  0  0  0  0  0  0  0  0
  -26.1771   -1.1659   -9.3769 O   0  0  0  0  0  0  0  0  0  0  0  0
  -27.5975   -2.9511   -9.4360 N   0  0  0  0  0  0  0  0  0  0  0  0
  -26.5331   -3.4394  -11.5872 H   0  0  0  0  0  0  0  0  0  0  0  0
  -27.4706   -3.9404   -9.6042 H   0  0  0  0  0  0  0  0  0  0  0  0
  -28.1292   -2.6348   -8.1469 C   0  0  0  0  0  0  0  0  0  0  0  0
  -28.0652   -1.3273   -7.6409 C   0  0  0  0  0  0  0  0  0  0  0  0
  -28.5590   -1.0302   -6.3678 C   0  0  0  0  0  0  0  0  0  0  0  0
  -29.1153   -2.0388   -5.5840 C   0  0  0  0  0  0  0  0  0  0  0  0
  -29.1759   -3.3457   -6.0719 C   0  0  0  0  0  0  0  0  0  0  0  0
  -28.6958   -3.6405   -7.3519 C   0  0  0  0  0  0  0  0  0  0  0  0
  -28.7226   -5.2845   -7.8875 Cl  0  0  0  0  0  0  0  0  0  0  0  0
  -22.0049   -0.3124  -14.2834 O   0  0  0  0  0  0  0  0  0  0  0  0
  -20.5806    1.6073  -14.5632 C   0  0  0  0  0  0  0  0  0  0  0  0
  -20.4787    2.9916  -14.4656 C   0  0  0  0  0  0  0  0  0  0  0  0
  -19.3244    3.6935  -14.8111 N   0  0  0  0  0  0  0  0  0  0  0  0
  -21.5213    3.7776  -14.1473 N   0  0  0  0  0  0  0  0  0  0  0  0
  -22.6749    3.1615  -13.8840 C   0  0  0  0  0  0  0  0  0  0  0  0
  -22.8696    1.8425  -13.8858 N   0  0  0  0  0  0  0  0  0  0  0  0
  -21.8188    1.0744  -14.2597 C   0  0  0  0  0  0  0  0  0  0  0  0
  -18.4844    3.2251  -14.4721 H   0  0  0  0  0  0  0  0  0  0  0  0
  -19.4135    4.6613  -14.5287 H   0  0  0  0  0  0  0  0  0  0  0  0
  -18.2486    1.0131  -14.4948 N   0  0  0  0  0  0  0  0  0  0  0  0
  -19.4333    0.7796  -14.9695 C   0  0  0  0  0  0  0  0  0  0  0  0
  -16.1195    0.2123  -14.2943 C   0  0  0  0  0  0  0  0  0  0  0  0
  -17.3173    0.1378  -15.0652 O   0  0  0  0  0  0  0  0  0  0  0  0
 33 34  1  0  0  0
 34 31  1  0  0  0
 31 32  2  0  0  0
 32 22  1  0  0  0
 22 23  1  0  0  0
 22 28  2  0  0  0
 23 24  1  0  0  0
 23 25  2  0  0  0
 24 29  1  0  0  0
 24 30  1  0  0  0
 25 26  1  0  0  0
 26 27  2  0  0  0
 27 28  1  0  0  0
 28 21  1  0  0  0
 21  1  1  0  0  0
  1  2  1  0  0  0
  1  7  2  0  0  0
  2  3  2  0  0  0
  3  4  1  0  0  0
  4  8  1  0  0  0
  4  5  2  0  0  0
  8  9  1  0  0  0
  8 12  1  0  0  0
  9 10  2  0  0  0
  9 11  1  0  0  0
 11 14  1  0  0  0
 11 13  1  0  0  0
 14 15  1  0  0  0
 14 19  2  0  0  0
 15 16  2  0  0  0
 16 17  1  0  0  0
 17 18  2  0  0  0
 18 19  1  0  0  0
 19 20  1  0  0  0
  5  6  1  0  0  0
  5  7  1  0  0  0
M  END
> <minimizedAffinity>
-10.55175

$$$$
