CHEMBL3775376


 23 25  0  0  0  0  0  0  0  0999 V2000
  -28.6214   -1.7682   -4.8712 C   0  0  0  0  0  0  0  0  0  0  0  0
  -29.6123   -2.2434   -3.9890 C   0  0  0  0  0  0  0  0  0  0  0  0
  -30.2554   -3.4555   -4.1741 C   0  0  0  0  0  0  0  0  0  0  0  0
  -31.1223   -3.8563   -3.2395 N   0  0  0  0  0  0  0  0  0  0  0  0
  -31.6880   -5.0545   -3.4059 C   0  0  0  0  0  0  0  0  0  0  0  0
  -31.4501   -5.8988   -4.4097 N   0  0  0  0  0  0  0  0  0  0  0  0
  -30.5785   -5.4748   -5.3499 C   0  0  0  0  0  0  0  0  0  0  0  0
  -29.9477   -4.2173   -5.3023 C   0  0  0  0  0  0  0  0  0  0  0  0
  -29.0557   -3.6824   -6.2628 C   0  0  0  0  0  0  0  0  0  0  0  0
  -28.3783   -2.4709   -6.0556 C   0  0  0  0  0  0  0  0  0  0  0  0
  -28.5081    0.5945   -5.0453 C   0  0  0  0  0  0  0  0  0  0  0  0
  -27.9147   -0.6267   -4.5914 O   0  0  0  0  0  0  0  0  0  0  0  0
  -27.5352   -2.1862   -7.0880 O   0  0  0  0  0  0  0  0  0  0  0  0
  -27.8798   -2.5434   -8.4155 C   0  0  0  0  0  0  0  0  0  0  0  0
  -30.2589   -6.6796   -6.6320 S   0  0  0  0  0  0  0  0  0  0  0  0
  -29.2228   -7.8882   -5.8102 C   0  0  0  0  0  0  0  0  0  0  0  0
  -29.5370   -9.2521   -5.7420 C   0  0  0  0  0  0  0  0  0  0  0  0
  -28.6924  -10.1482   -5.0760 C   0  0  0  0  0  0  0  0  0  0  0  0
  -27.5153   -9.6951   -4.4854 C   0  0  0  0  0  0  0  0  0  0  0  0
  -27.1858   -8.3474   -4.5801 C   0  0  0  0  0  0  0  0  0  0  0  0
  -26.0324   -7.8645   -4.0331 O   0  0  0  0  0  0  0  0  0  0  0  0
  -28.0213   -7.4483   -5.2383 C   0  0  0  0  0  0  0  0  0  0  0  0
  -25.5464   -8.6028   -3.6193 H   0  0  0  0  0  0  0  0  0  0  0  0
 11 12  1  0  0  0
 12  1  1  0  0  0
  1  2  1  0  0  0
  1 10  2  0  0  0
  2  3  2  0  0  0
  3  4  1  0  0  0
  3  8  1  0  0  0
  4  5  2  0  0  0
  5  6  1  0  0  0
  6  7  2  0  0  0
  7 15  1  0  0  0
  7  8  1  0  0  0
 15 16  1  0  0  0
 16 17  1  0  0  0
 16 22  2  0  0  0
 17 18  2  0  0  0
 18 19  1  0  0  0
 19 20  2  0  0  0
 20 21  1  0  0  0
 20 22  1  0  0  0
 21 23  1  0  0  0
  8  9  2  0  0  0
  9 10  1  0  0  0
 10 13  1  0  0  0
 13 14  1  0  0  0
M  END
> <minimizedAffinity>
-7.23171

$$$$
