CHEMBL225261


 40 45  0  0  0  0  0  0  0  0999 V2000
  -17.2204   11.2499  -20.7316 C   0  0  0  0  0  0  0  0  0  0  0  0
  -17.9217   11.5942  -21.9195 C   0  0  0  0  0  0  0  0  0  0  0  0
  -19.2862   11.8943  -21.9185 C   0  0  0  0  0  0  0  0  0  0  0  0
  -19.9445   11.7852  -20.7213 C   0  0  0  0  0  0  0  0  0  0  0  0
  -19.2926   11.3885  -19.5236 C   0  0  0  0  0  0  0  0  0  0  0  0
  -17.9260   11.1418  -19.5196 C   0  0  0  0  0  0  0  0  0  0  0  0
  -20.2594   11.2551  -18.3322 C   0  0  0  0  0  0  0  0  0  0  0  0
  -21.5019   11.6798  -19.0395 C   0  0  0  0  0  0  0  0  0  0  0  0
  -22.8703   11.9045  -18.8295 C   0  0  0  0  0  0  0  0  0  0  0  0
  -23.4775   12.3068  -19.9659 N   0  0  0  0  0  0  0  0  0  0  0  0
  -22.4800   12.3489  -20.8880 N   0  0  0  0  0  0  0  0  0  0  0  0
  -21.3039   11.9667  -20.3599 C   0  0  0  0  0  0  0  0  0  0  0  0
  -22.6954   12.6531  -21.8311 H   0  0  0  0  0  0  0  0  0  0  0  0
  -23.5675   11.7368  -17.5483 C   0  0  0  0  0  0  0  0  0  0  0  0
  -23.0001   11.9124  -16.3037 C   0  0  0  0  0  0  0  0  0  0  0  0
  -24.1049   11.6374  -15.0339 S   0  0  0  0  0  0  0  0  0  0  0  0
  -25.3595   11.2645  -16.1339 C   0  0  0  0  0  0  0  0  0  0  0  0
  -24.9445   11.3671  -17.4444 C   0  0  0  0  0  0  0  0  0  0  0  0
  -26.6630   10.9007  -15.6912 C   0  0  0  0  0  0  0  0  0  0  0  0
  -27.7868   10.6413  -15.3789 C   0  0  0  0  0  0  0  0  0  0  0  0
  -29.1871   10.3277  -15.0916 C   0  0  0  0  0  0  0  0  0  0  0  0
  -29.8236   11.4427  -14.4750 O   0  0  0  0  0  0  0  0  0  0  0  0
  -31.0905   11.2088  -14.0074 C   0  0  0  0  0  0  0  0  0  0  0  0
  -32.2592   11.7762  -14.5233 C   0  0  0  0  0  0  0  0  0  0  0  0
  -33.4998   11.4691  -13.9656 C   0  0  0  0  0  0  0  0  0  0  0  0
  -33.5826   10.5881  -12.8926 C   0  0  0  0  0  0  0  0  0  0  0  0
  -32.4238   10.0106  -12.3759 C   0  0  0  0  0  0  0  0  0  0  0  0
  -31.1796   10.3240  -12.9293 C   0  0  0  0  0  0  0  0  0  0  0  0
  -15.7293   10.9518  -20.7798 C   0  0  0  0  0  0  0  0  0  0  0  0
  -13.7326    6.4861  -17.7631 N   0  0  0  0  0  0  0  0  0  0  0  0
  -13.0491    7.4430  -18.4385 C   0  0  0  0  0  0  0  0  0  0  0  0
  -11.8249    7.4016  -18.4625 O   0  0  0  0  0  0  0  0  0  0  0  0
  -13.8105    8.3950  -19.0602 N   0  0  0  0  0  0  0  0  0  0  0  0
  -15.2669    8.5094  -18.9760 C   0  0  0  0  0  0  0  0  0  0  0  0
  -15.8670    8.5050  -20.3922 C   0  0  0  0  0  0  0  0  0  0  0  0
  -15.3577    9.5997  -21.2502 N   0  0  0  0  0  0  0  0  0  0  0  0
  -13.8714    9.4658  -21.3033 C   0  0  0  0  0  0  0  0  0  0  0  0
  -13.1707    9.3949  -19.9221 C   0  0  0  0  0  0  0  0  0  0  0  0
  -13.1251    5.7580  -17.4098 H   0  0  0  0  0  0  0  0  0  0  0  0
  -14.5604    6.1259  -18.2106 H   0  0  0  0  0  0  0  0  0  0  0  0
 30 31  1  0  0  0
 30 39  1  0  0  0
 30 40  1  0  0  0
 31 32  2  0  0  0
 31 33  1  0  0  0
 33 34  1  0  0  0
 33 38  1  0  0  0
 34 35  1  0  0  0
 35 36  1  0  0  0
 36 29  1  0  0  0
 36 37  1  0  0  0
 29  1  1  0  0  0
  1  2  1  0  0  0
  1  6  2  0  0  0
  2  3  2  0  0  0
  3  4  1  0  0  0
  4  5  2  0  0  0
  4 12  1  0  0  0
  5  6  1  0  0  0
  5  7  1  0  0  0
  7  8  1  0  0  0
  8  9  1  0  0  0
  8 12  2  0  0  0
  9 14  1  0  0  0
  9 10  2  0  0  0
 14 15  2  0  0  0
 14 18  1  0  0  0
 15 16  1  0  0  0
 16 17  1  0  0  0
 17 19  1  0  0  0
 17 18  2  0  0  0
 19 20  3  0  0  0
 20 21  1  0  0  0
 21 22  1  0  0  0
 22 23  1  0  0  0
 23 24  1  0  0  0
 23 28  2  0  0  0
 24 25  2  0  0  0
 25 26  1  0  0  0
 26 27  2  0  0  0
 27 28  1  0  0  0
 10 11  1  0  0  0
 11 12  1  0  0  0
 11 13  1  0  0  0
 37 38  1  0  0  0
M  END
> <minimizedAffinity>
-6.70881

$$$$
