CHEMBL98653


 19 21  0  0  0  0  0  0  0  0999 V2000
  -28.6733   -3.5682   -5.7884 C   0  0  0  0  0  0  0  0  0  0  0  0
  -28.3661   -4.6168   -4.9431 C   0  0  0  0  0  0  0  0  0  0  0  0
  -28.4263   -5.8777   -5.4913 N   0  0  0  0  0  0  0  0  0  0  0  0
  -28.7768   -5.8183   -6.7545 C   0  0  0  0  0  0  0  0  0  0  0  0
  -29.1034   -4.2196   -7.3206 S   0  0  0  0  0  0  0  0  0  0  0  0
  -28.6343    0.6558   -5.0678 C   0  0  0  0  0  0  0  0  0  0  0  0
  -29.8277    0.0017   -5.3594 C   0  0  0  0  0  0  0  0  0  0  0  0
  -29.8296   -1.3773   -5.5862 C   0  0  0  0  0  0  0  0  0  0  0  0
  -28.6401   -2.1239   -5.5253 C   0  0  0  0  0  0  0  0  0  0  0  0
  -27.4478   -1.4458   -5.2297 C   0  0  0  0  0  0  0  0  0  0  0  0
  -27.4468   -0.0669   -5.0026 C   0  0  0  0  0  0  0  0  0  0  0  0
  -28.8633   -6.8582   -7.6193 N   0  0  0  0  0  0  0  0  0  0  0  0
  -27.9950   -7.1833   -8.0234 H   0  0  0  0  0  0  0  0  0  0  0  0
  -29.9287   -7.7739   -7.7048 C   0  0  0  0  0  0  0  0  0  0  0  0
  -31.1323   -7.4833   -7.0520 C   0  0  0  0  0  0  0  0  0  0  0  0
  -32.2326   -8.3304   -7.1858 C   0  0  0  0  0  0  0  0  0  0  0  0
  -32.0991   -9.4667   -7.9622 C   0  0  0  0  0  0  0  0  0  0  0  0
  -30.9584   -9.8083   -8.5888 N   0  0  0  0  0  0  0  0  0  0  0  0
  -29.9082   -8.9576   -8.4457 C   0  0  0  0  0  0  0  0  0  0  0  0
  6  7  1  0  0  0
  6 11  2  0  0  0
  7  8  2  0  0  0
  8  9  1  0  0  0
  9  1  1  0  0  0
  9 10  2  0  0  0
  1  2  2  0  0  0
  1  5  1  0  0  0
  2  3  1  0  0  0
  3  4  2  0  0  0
  4 12  1  0  0  0
  4  5  1  0  0  0
 12 14  1  0  0  0
 12 13  1  0  0  0
 14 15  1  0  0  0
 14 19  2  0  0  0
 15 16  2  0  0  0
 16 17  1  0  0  0
 17 18  2  0  0  0
 18 19  1  0  0  0
 10 11  1  0  0  0
M  END
> <minimizedAffinity>
-7.18545

$$$$
