CHEMBL3612326


 33 36  0  0  0  0  0  0  0  0999 V2000
  -27.3377   -3.6032   -9.4871 O   0  0  0  0  0  0  0  0  0  0  0  0
  -27.3965   -2.4551   -9.0629 C   0  0  0  0  0  0  0  0  0  0  0  0
  -27.8980   -2.1134   -7.8172 N   0  0  0  0  0  0  0  0  0  0  0  0
  -26.9986   -1.3407   -9.7893 N   0  0  0  0  0  0  0  0  0  0  0  0
  -28.0704   -1.1353   -7.6410 H   0  0  0  0  0  0  0  0  0  0  0  0
  -26.9746   -0.4616   -9.2991 H   0  0  0  0  0  0  0  0  0  0  0  0
  -26.5493   -1.3382  -11.1325 C   0  0  0  0  0  0  0  0  0  0  0  0
  -27.3506   -1.6871  -12.2204 C   0  0  0  0  0  0  0  0  0  0  0  0
  -26.8384   -1.6800  -13.5183 C   0  0  0  0  0  0  0  0  0  0  0  0
  -25.5195   -1.2987  -13.7643 C   0  0  0  0  0  0  0  0  0  0  0  0
  -24.9987   -1.3596  -15.4066 Cl  0  0  0  0  0  0  0  0  0  0  0  0
  -24.7011   -0.9000  -12.7039 C   0  0  0  0  0  0  0  0  0  0  0  0
  -25.2312   -0.9437  -11.3875 C   0  0  0  0  0  0  0  0  0  0  0  0
  -23.2932   -0.3907  -12.8676 C   0  0  0  0  0  0  0  0  0  0  0  0
  -22.5746   -0.1964  -11.7333 F   0  0  0  0  0  0  0  0  0  0  0  0
  -22.5449   -1.2431  -13.6283 F   0  0  0  0  0  0  0  0  0  0  0  0
  -23.2602    0.8018  -13.5307 F   0  0  0  0  0  0  0  0  0  0  0  0
  -28.4415   -3.0233   -6.8758 C   0  0  0  0  0  0  0  0  0  0  0  0
  -27.8583   -3.2842   -5.6321 C   0  0  0  0  0  0  0  0  0  0  0  0
  -28.3834   -4.2604   -4.7790 C   0  0  0  0  0  0  0  0  0  0  0  0
  -29.5275   -4.9712   -5.1424 C   0  0  0  0  0  0  0  0  0  0  0  0
  -30.1383   -4.6910   -6.3663 C   0  0  0  0  0  0  0  0  0  0  0  0
  -29.6049   -3.7182   -7.2239 C   0  0  0  0  0  0  0  0  0  0  0  0
  -30.1451   -6.2718   -4.0954 S   0  0  0  0  0  0  0  0  0  0  0  0
  -29.3592   -7.7048   -4.7937 C   0  0  0  0  0  0  0  0  0  0  0  0
  -28.1683   -8.2063   -4.2682 C   0  0  0  0  0  0  0  0  0  0  0  0
  -27.5705   -9.2921   -4.8755 C   0  0  0  0  0  0  0  0  0  0  0  0
  -28.0422   -9.9294   -5.9594 N   0  0  0  0  0  0  0  0  0  0  0  0
  -29.1994   -9.4392   -6.4790 C   0  0  0  0  0  0  0  0  0  0  0  0
  -29.8536   -9.9761   -7.6260 C   0  0  0  0  0  0  0  0  0  0  0  0
  -31.0042   -9.2945   -7.9433 C   0  0  0  0  0  0  0  0  0  0  0  0
  -31.2972   -8.0034   -6.8665 S   0  0  0  0  0  0  0  0  0  0  0  0
  -29.8790   -8.3429   -5.9377 C   0  0  0  0  0  0  0  0  0  0  0  0
  1  2  2  0  0  0
  2  3  1  0  0  0
  2  4  1  0  0  0
  3 18  1  0  0  0
  3  5  1  0  0  0
 18 19  1  0  0  0
 18 23  2  0  0  0
 19 20  2  0  0  0
 20 21  1  0  0  0
 21 24  1  0  0  0
 21 22  2  0  0  0
 24 25  1  0  0  0
 25 26  1  0  0  0
 25 33  2  0  0  0
 26 27  2  0  0  0
 27 28  1  0  0  0
 28 29  2  0  0  0
 29 30  1  0  0  0
 29 33  1  0  0  0
 30 31  2  0  0  0
 31 32  1  0  0  0
 32 33  1  0  0  0
 22 23  1  0  0  0
  4  7  1  0  0  0
  4  6  1  0  0  0
  7  8  1  0  0  0
  7 13  2  0  0  0
  8  9  2  0  0  0
  9 10  1  0  0  0
 10 11  1  0  0  0
 10 12  2  0  0  0
 12 14  1  0  0  0
 12 13  1  0  0  0
 14 15  1  0  0  0
 14 16  1  0  0  0
 14 17  1  0  0  0
M  END
> <minimizedAffinity>
-9.39665

$$$$
