CHEMBL396737


 29 32  0  0  0  0  0  0  0  0999 V2000
  -29.4244   -8.0615   -6.4441 C   0  0  0  0  0  0  0  0  0  0  0  0
  -28.3842   -7.5436   -5.6611 C   0  0  0  0  0  0  0  0  0  0  0  0
  -28.5111   -6.3125   -5.0158 C   0  0  0  0  0  0  0  0  0  0  0  0
  -29.6585   -5.5369   -5.1761 C   0  0  0  0  0  0  0  0  0  0  0  0
  -30.7242   -6.0651   -5.9061 C   0  0  0  0  0  0  0  0  0  0  0  0
  -30.6129   -7.3263   -6.5181 C   0  0  0  0  0  0  0  0  0  0  0  0
  -27.3905   -7.5305   -9.0850 N   0  0  0  0  0  0  0  0  0  0  0  0
  -27.6566   -8.8931   -9.2197 C   0  0  0  0  0  0  0  0  0  0  0  0
  -27.0348   -9.4678  -10.2754 N   0  0  0  0  0  0  0  0  0  0  0  0
  -27.1535  -10.7887  -10.4914 C   0  0  0  0  0  0  0  0  0  0  0  0
  -27.8788  -11.6370   -9.6936 C   0  0  0  0  0  0  0  0  0  0  0  0
  -28.5358  -11.0468   -8.6078 C   0  0  0  0  0  0  0  0  0  0  0  0
  -29.5055  -11.8928   -7.4694 S   0  0  0  0  0  0  0  0  0  0  0  0
  -29.8549  -10.4721   -6.6164 C   0  0  0  0  0  0  0  0  0  0  0  0
  -29.2429   -9.3458   -7.1390 C   0  0  0  0  0  0  0  0  0  0  0  0
  -28.4583   -9.6695   -8.3354 C   0  0  0  0  0  0  0  0  0  0  0  0
  -26.6188   -7.3037   -9.7079 H   0  0  0  0  0  0  0  0  0  0  0  0
  -27.2421   -7.2598   -8.1200 H   0  0  0  0  0  0  0  0  0  0  0  0
  -29.7816   -4.2475   -4.6075 N   0  0  0  0  0  0  0  0  0  0  0  0
  -29.6580   -3.0659   -5.3210 C   0  0  0  0  0  0  0  0  0  0  0  0
  -29.5963   -3.0004   -6.5467 O   0  0  0  0  0  0  0  0  0  0  0  0
  -29.5736   -1.9657   -4.4819 N   0  0  0  0  0  0  0  0  0  0  0  0
  -30.2549   -4.1738   -3.7180 H   0  0  0  0  0  0  0  0  0  0  0  0
  -29.0975   -2.1123   -3.6035 H   0  0  0  0  0  0  0  0  0  0  0  0
  -29.3954   -0.7244   -5.0590 C   0  0  0  0  0  0  0  0  0  0  0  0
  -30.2979    0.2045   -5.5180 C   0  0  0  0  0  0  0  0  0  0  0  0
  -29.6466    1.2650   -6.2132 C   0  0  0  0  0  0  0  0  0  0  0  0
  -28.2783    1.1022   -6.2296 C   0  0  0  0  0  0  0  0  0  0  0  0
  -27.7835   -0.2646   -5.3160 S   0  0  0  0  0  0  0  0  0  0  0  0
  7  8  1  0  0  0
  7 17  1  0  0  0
  7 18  1  0  0  0
  8  9  1  0  0  0
  8 16  2  0  0  0
  9 10  2  0  0  0
 10 11  1  0  0  0
 11 12  2  0  0  0
 12 13  1  0  0  0
 12 16  1  0  0  0
 13 14  1  0  0  0
 14 15  2  0  0  0
 15  1  1  0  0  0
 15 16  1  0  0  0
  1  2  1  0  0  0
  1  6  2  0  0  0
  2  3  2  0  0  0
  3  4  1  0  0  0
  4 19  1  0  0  0
  4  5  2  0  0  0
 19 20  1  0  0  0
 19 23  1  0  0  0
 20 21  2  0  0  0
 20 22  1  0  0  0
 22 25  1  0  0  0
 22 24  1  0  0  0
 25 26  2  0  0  0
 25 29  1  0  0  0
 26 27  1  0  0  0
 27 28  2  0  0  0
 28 29  1  0  0  0
  5  6  1  0  0  0
M  END
> <minimizedAffinity>
-8.12704

$$$$
