CHEMBL540203


 33 36  0  0  0  0  0  0  0  0999 V2000
  -28.6380   -3.8661   -5.7001 C   0  0  0  0  0  0  0  0  0  0  0  0
  -28.0939   -2.9895   -4.7804 C   0  0  0  0  0  0  0  0  0  0  0  0
  -27.6801   -1.8347   -5.5080 C   0  0  0  0  0  0  0  0  0  0  0  0
  -28.0487   -2.0519   -6.8163 C   0  0  0  0  0  0  0  0  0  0  0  0
  -28.5936   -3.2868   -6.9296 O   0  0  0  0  0  0  0  0  0  0  0  0
  -27.9522   -5.8134   -8.4258 N   0  0  0  0  0  0  0  0  0  0  0  0
  -28.7079   -6.6414   -7.6214 C   0  0  0  0  0  0  0  0  0  0  0  0
  -28.9537   -7.8786   -8.1022 N   0  0  0  0  0  0  0  0  0  0  0  0
  -29.6399   -8.7486   -7.3437 C   0  0  0  0  0  0  0  0  0  0  0  0
  -30.1381   -8.5522   -6.1187 N   0  0  0  0  0  0  0  0  0  0  0  0
  -29.8725   -7.3106   -5.6833 C   0  0  0  0  0  0  0  0  0  0  0  0
  -30.2510   -6.8460   -4.4593 O   0  0  0  0  0  0  0  0  0  0  0  0
  -29.8267   -5.5331   -4.3024 N   0  0  0  0  0  0  0  0  0  0  0  0
  -29.2092   -5.2214   -5.4512 C   0  0  0  0  0  0  0  0  0  0  0  0
  -29.1929   -6.3121   -6.3554 C   0  0  0  0  0  0  0  0  0  0  0  0
  -27.9320   -6.1202   -9.3903 H   0  0  0  0  0  0  0  0  0  0  0  0
  -28.0876   -4.8036   -8.3292 H   0  0  0  0  0  0  0  0  0  0  0  0
  -27.9422   -1.2712   -7.9468 N   0  0  0  0  0  0  0  0  0  0  0  0
  -27.3670   -1.7778   -9.1027 C   0  0  0  0  0  0  0  0  0  0  0  0
  -26.9736   -2.9342   -9.2205 O   0  0  0  0  0  0  0  0  0  0  0  0
  -27.2815   -0.8237  -10.1099 N   0  0  0  0  0  0  0  0  0  0  0  0
  -28.4922   -0.4288   -7.9942 H   0  0  0  0  0  0  0  0  0  0  0  0
  -27.3090    0.1413   -9.8155 H   0  0  0  0  0  0  0  0  0  0  0  0
  -26.7983   -1.0787  -11.4197 C   0  0  0  0  0  0  0  0  0  0  0  0
  -27.5790   -1.6807  -12.4120 C   0  0  0  0  0  0  0  0  0  0  0  0
  -27.0445   -1.9908  -13.6626 C   0  0  0  0  0  0  0  0  0  0  0  0
  -25.7189   -1.6855  -13.9469 C   0  0  0  0  0  0  0  0  0  0  0  0
  -24.9223   -1.0443  -12.9883 C   0  0  0  0  0  0  0  0  0  0  0  0
  -25.4786   -0.7259  -11.7306 C   0  0  0  0  0  0  0  0  0  0  0  0
  -23.4795   -0.7222  -13.2901 C   0  0  0  0  0  0  0  0  0  0  0  0
  -23.2997   -0.0767  -14.4766 F   0  0  0  0  0  0  0  0  0  0  0  0
  -22.9143    0.0751  -12.3423 F   0  0  0  0  0  0  0  0  0  0  0  0
  -22.7008   -1.8379  -13.3527 F   0  0  0  0  0  0  0  0  0  0  0  0
  6  7  1  0  0  0
  6 16  1  0  0  0
  6 17  1  0  0  0
  7  8  1  0  0  0
  7 15  2  0  0  0
  8  9  2  0  0  0
  9 10  1  0  0  0
 10 11  2  0  0  0
 11 12  1  0  0  0
 11 15  1  0  0  0
 12 13  1  0  0  0
 13 14  2  0  0  0
 14  1  1  0  0  0
 14 15  1  0  0  0
  1  2  2  0  0  0
  1  5  1  0  0  0
  2  3  1  0  0  0
  3  4  2  0  0  0
  4 18  1  0  0  0
  4  5  1  0  0  0
 18 19  1  0  0  0
 18 22  1  0  0  0
 19 20  2  0  0  0
 19 21  1  0  0  0
 21 24  1  0  0  0
 21 23  1  0  0  0
 24 25  1  0  0  0
 24 29  2  0  0  0
 25 26  2  0  0  0
 26 27  1  0  0  0
 27 28  2  0  0  0
 28 30  1  0  0  0
 28 29  1  0  0  0
 30 31  1  0  0  0
 30 32  1  0  0  0
 30 33  1  0  0  0
M  END
> <minimizedAffinity>
-10.23986

$$$$
