CHEMBL3941705


 34 38  0  0  0  0  0  0  0  0999 V2000
  -15.6784    2.3590  -16.2515 N   0  0  0  0  0  0  0  0  0  0  0  0
  -17.0156    2.4210  -15.6185 C   0  0  0  0  0  0  0  0  0  0  0  0
  -17.4070    1.2861  -15.0525 C   0  0  0  0  0  0  0  0  0  0  0  0
  -18.6740    1.2282  -14.5681 C   0  0  0  0  0  0  0  0  0  0  0  0
  -19.7011    2.1712  -14.8283 C   0  0  0  0  0  0  0  0  0  0  0  0
  -20.7045    1.4624  -15.1634 N   0  0  0  0  0  0  0  0  0  0  0  0
  -21.4734    1.2341  -14.1655 C   0  0  0  0  0  0  0  0  0  0  0  0
  -22.4038    2.1547  -14.0012 C   0  0  0  0  0  0  0  0  0  0  0  0
  -21.3328    3.3433  -14.4220 N   0  0  0  0  0  0  0  0  0  0  0  0
  -19.6825    3.4056  -15.0354 C   0  0  0  0  0  0  0  0  0  0  0  0
  -18.0332    3.4996  -15.6556 C   0  0  0  0  0  0  0  0  0  0  0  0
  -23.4469    0.6744  -13.5186 C   0  0  0  0  0  0  0  0  0  0  0  0
  -23.9127   -0.7731  -14.0597 C   0  0  0  0  0  0  0  0  0  0  0  0
  -24.6941   -1.5777  -13.2614 N   0  0  0  0  0  0  0  0  0  0  0  0
  -24.8375   -0.9031  -12.1131 N   0  0  0  0  0  0  0  0  0  0  0  0
  -25.5859   -1.5079  -10.9490 C   0  0  0  0  0  0  0  0  0  0  0  0
  -24.1222    0.3721  -12.2373 C   0  0  0  0  0  0  0  0  0  0  0  0
  -13.0797    1.3087  -13.7160 C   0  0  0  0  0  0  0  0  0  0  0  0
  -12.7921    0.0680  -14.1706 C   0  0  0  0  0  0  0  0  0  0  0  0
  -13.2055   -0.3052  -15.4338 C   0  0  0  0  0  0  0  0  0  0  0  0
  -14.0788    0.5027  -16.1617 C   0  0  0  0  0  0  0  0  0  0  0  0
  -14.5443    1.7027  -15.6605 C   0  0  0  0  0  0  0  0  0  0  0  0
  -13.7555    2.1730  -14.5886 C   0  0  0  0  0  0  0  0  0  0  0  0
  -12.2465    2.8287  -12.1435 C   0  0  0  0  0  0  0  0  0  0  0  0
  -12.8768    1.5871  -12.3908 O   0  0  0  0  0  0  0  0  0  0  0  0
  -12.7944   -1.4569  -16.0302 O   0  0  0  0  0  0  0  0  0  0  0  0
  -12.9112   -1.4474  -17.4498 C   0  0  0  0  0  0  0  0  0  0  0  0
  -15.4803    3.5088  -17.2052 C   0  0  0  0  0  0  0  0  0  0  0  0
  -14.1361    3.6605  -17.8935 C   0  0  0  0  0  0  0  0  0  0  0  0
  -13.2181    4.5826  -17.4050 C   0  0  0  0  0  0  0  0  0  0  0  0
  -12.0393    4.8378  -18.1050 C   0  0  0  0  0  0  0  0  0  0  0  0
  -11.8212    4.3008  -19.3633 C   0  0  0  0  0  0  0  0  0  0  0  0
  -12.6720    3.3168  -19.8088 C   0  0  0  0  0  0  0  0  0  0  0  0
  -13.7787    2.9356  -19.0465 C   0  0  0  0  0  0  0  0  0  0  0  0
 24 25  1  0  0  0
 25 18  1  0  0  0
 18 19  1  0  0  0
 18 23  2  0  0  0
 19 20  2  0  0  0
 20 26  1  0  0  0
 20 21  1  0  0  0
 26 27  1  0  0  0
 21 22  2  0  0  0
 22  1  1  0  0  0
 22 23  1  0  0  0
  1 28  1  0  0  0
  1  2  1  0  0  0
 28 29  1  0  0  0
 29 30  1  0  0  0
 29 34  2  0  0  0
 30 31  2  0  0  0
 31 32  1  0  0  0
 32 33  2  0  0  0
 33 34  1  0  0  0
  2  3  1  0  0  0
  2 11  2  0  0  0
  3  4  2  0  0  0
  4  5  1  0  0  0
  5  6  1  0  0  0
  5 10  2  0  0  0
  6  7  2  0  0  0
  7  8  1  0  0  0
  8 12  1  0  0  0
  8  9  2  0  0  0
 12 13  1  0  0  0
 12 17  2  0  0  0
 13 14  2  0  0  0
 14 15  1  0  0  0
 15 16  1  0  0  0
 15 17  1  0  0  0
  9 10  1  0  0  0
 10 11  1  0  0  0
M  END
> <minimizedAffinity>
-9.13038

$$$$
