CHEMBL3586065


 34 36  0  0  0  0  0  0  0  0999 V2000
  -22.4699    0.5246  -13.7079 C   0  0  0  0  0  0  0  0  0  0  0  0
  -22.7508   -0.8240  -13.9336 C   0  0  0  0  0  0  0  0  0  0  0  0
  -23.8903   -1.4308  -13.4056 C   0  0  0  0  0  0  0  0  0  0  0  0
  -24.8027   -0.7262  -12.6213 C   0  0  0  0  0  0  0  0  0  0  0  0
  -24.5413    0.6269  -12.3843 C   0  0  0  0  0  0  0  0  0  0  0  0
  -23.3936    1.2419  -12.9267 C   0  0  0  0  0  0  0  0  0  0  0  0
  -18.9284    2.1549  -15.3808 C   0  0  0  0  0  0  0  0  0  0  0  0
  -19.8190    3.0229  -14.7707 C   0  0  0  0  0  0  0  0  0  0  0  0
  -20.9829    2.4937  -14.2146 C   0  0  0  0  0  0  0  0  0  0  0  0
  -21.2309    1.1128  -14.2498 C   0  0  0  0  0  0  0  0  0  0  0  0
  -20.2642    0.3451  -14.8980 C   0  0  0  0  0  0  0  0  0  0  0  0
  -19.1487    0.8330  -15.4961 N   0  0  0  0  0  0  0  0  0  0  0  0
  -16.4988    2.2607  -15.4714 C   0  0  0  0  0  0  0  0  0  0  0  0
  -16.3266    1.5913  -14.4539 O   0  0  0  0  0  0  0  0  0  0  0  0
  -17.7428    2.5992  -15.9648 N   0  0  0  0  0  0  0  0  0  0  0  0
  -17.8390    2.7139  -16.9621 H   0  0  0  0  0  0  0  0  0  0  0  0
  -15.7956    4.0266  -17.1140 C   0  0  0  0  0  0  0  0  0  0  0  0
  -15.3106    2.8287  -16.2770 C   0  0  0  0  0  0  0  0  0  0  0  0
  -14.8029    1.7296  -17.2205 C   0  0  0  0  0  0  0  0  0  0  0  0
  -14.1675    3.3106  -15.3700 C   0  0  0  0  0  0  0  0  0  0  0  0
  -25.9591   -1.3245  -12.0520 N   0  0  0  0  0  0  0  0  0  0  0  0
  -26.1448   -1.5359  -10.6970 C   0  0  0  0  0  0  0  0  0  0  0  0
  -25.3103   -1.2748   -9.8393 O   0  0  0  0  0  0  0  0  0  0  0  0
  -27.3742   -2.1031  -10.3842 N   0  0  0  0  0  0  0  0  0  0  0  0
  -26.6944   -1.6051  -12.6886 H   0  0  0  0  0  0  0  0  0  0  0  0
  -27.8207   -2.6476  -11.1067 H   0  0  0  0  0  0  0  0  0  0  0  0
  -27.7744   -2.3491   -9.0391 C   0  0  0  0  0  0  0  0  0  0  0  0
  -28.2514   -3.5975   -8.6140 C   0  0  0  0  0  0  0  0  0  0  0  0
  -28.7717   -3.7765   -7.3316 C   0  0  0  0  0  0  0  0  0  0  0  0
  -28.7742   -2.7146   -6.4327 C   0  0  0  0  0  0  0  0  0  0  0  0
  -29.4777   -2.9832   -4.8799 Cl  0  0  0  0  0  0  0  0  0  0  0  0
  -28.2201   -1.4874   -6.8170 C   0  0  0  0  0  0  0  0  0  0  0  0
  -28.1585   -0.1367   -5.7378 Cl  0  0  0  0  0  0  0  0  0  0  0  0
  -27.7133   -1.3059   -8.1155 C   0  0  0  0  0  0  0  0  0  0  0  0
 17 18  1  0  0  0
 18 19  1  0  0  0
 18 20  1  0  0  0
 18 13  1  0  0  0
 13 14  2  0  0  0
 13 15  1  0  0  0
 15  7  1  0  0  0
 15 16  1  0  0  0
  7  8  1  0  0  0
  7 12  2  0  0  0
  8  9  2  0  0  0
  9 10  1  0  0  0
 10  1  1  0  0  0
 10 11  2  0  0  0
  1  2  1  0  0  0
  1  6  2  0  0  0
  2  3  2  0  0  0
  3  4  1  0  0  0
  4 21  1  0  0  0
  4  5  2  0  0  0
 21 22  1  0  0  0
 21 25  1  0  0  0
 22 23  2  0  0  0
 22 24  1  0  0  0
 24 27  1  0  0  0
 24 26  1  0  0  0
 27 28  1  0  0  0
 27 34  2  0  0  0
 28 29  2  0  0  0
 29 30  1  0  0  0
 30 31  1  0  0  0
 30 32  2  0  0  0
 32 33  1  0  0  0
 32 34  1  0  0  0
  5  6  1  0  0  0
 11 12  1  0  0  0
M  END
> <minimizedAffinity>
-10.42158

$$$$
