CHEMBL202109


 27 29  0  0  0  0  0  0  0  0999 V2000
  -25.4755   -1.5696   -9.9991 O   0  0  0  0  0  0  0  0  0  0  0  0
  -26.4849   -1.7194  -10.6871 C   0  0  0  0  0  0  0  0  0  0  0  0
  -27.7304   -1.9834  -10.1332 N   0  0  0  0  0  0  0  0  0  0  0  0
  -28.4553   -2.2779  -10.7749 H   0  0  0  0  0  0  0  0  0  0  0  0
  -27.9892   -2.0683   -8.7478 C   0  0  0  0  0  0  0  0  0  0  0  0
  -28.2072   -3.2829   -8.0948 C   0  0  0  0  0  0  0  0  0  0  0  0
  -28.5441   -3.3167   -6.7454 C   0  0  0  0  0  0  0  0  0  0  0  0
  -28.6568   -2.1356   -6.0139 C   0  0  0  0  0  0  0  0  0  0  0  0
  -29.1095   -2.3119   -4.3595 Cl  0  0  0  0  0  0  0  0  0  0  0  0
  -28.4081   -0.9030   -6.6282 C   0  0  0  0  0  0  0  0  0  0  0  0
  -28.0480   -0.8893   -8.0000 C   0  0  0  0  0  0  0  0  0  0  0  0
  -28.5172    0.4224   -5.9210 C   0  0  0  0  0  0  0  0  0  0  0  0
  -27.6504    0.6427   -4.9006 F   0  0  0  0  0  0  0  0  0  0  0  0
  -28.3419    1.4677   -6.7819 F   0  0  0  0  0  0  0  0  0  0  0  0
  -29.7590    0.6044   -5.3844 F   0  0  0  0  0  0  0  0  0  0  0  0
  -26.4074   -1.6690  -12.1364 C   0  0  0  0  0  0  0  0  0  0  0  0
  -27.7201   -2.0738  -13.1623 S   0  0  0  0  0  0  0  0  0  0  0  0
  -26.7500   -1.7143  -14.5260 C   0  0  0  0  0  0  0  0  0  0  0  0
  -25.5149   -1.3416  -14.2764 N   0  0  0  0  0  0  0  0  0  0  0  0
  -25.3034   -1.3072  -12.9040 C   0  0  0  0  0  0  0  0  0  0  0  0
  -23.9389   -0.9409  -12.3846 C   0  0  0  0  0  0  0  0  0  0  0  0
  -22.8317   -0.9492  -13.4347 C   0  0  0  0  0  0  0  0  0  0  0  0
  -22.3957    0.4338  -13.7804 C   0  0  0  0  0  0  0  0  0  0  0  0
  -21.1435    0.8562  -14.2796 C   0  0  0  0  0  0  0  0  0  0  0  0
  -21.0901    2.1765  -14.4668 N   0  0  0  0  0  0  0  0  0  0  0  0
  -22.3322    2.6502  -14.0779 O   0  0  0  0  0  0  0  0  0  0  0  0
  -23.1002    1.6105  -13.6678 C   0  0  0  0  0  0  0  0  0  0  0  0
  1  2  2  0  0  0
  2  3  1  0  0  0
  2 16  1  0  0  0
  3  5  1  0  0  0
  3  4  1  0  0  0
  5  6  1  0  0  0
  5 11  2  0  0  0
  6  7  2  0  0  0
  7  8  1  0  0  0
  8  9  1  0  0  0
  8 10  2  0  0  0
 10 12  1  0  0  0
 10 11  1  0  0  0
 12 13  1  0  0  0
 12 14  1  0  0  0
 12 15  1  0  0  0
 16 17  1  0  0  0
 16 20  2  0  0  0
 17 18  1  0  0  0
 18 19  2  0  0  0
 19 20  1  0  0  0
 20 21  1  0  0  0
 21 22  1  0  0  0
 22 23  1  0  0  0
 23 24  1  0  0  0
 23 27  2  0  0  0
 24 25  2  0  0  0
 25 26  1  0  0  0
 26 27  1  0  0  0
M  END
> <minimizedAffinity>
-9.39524

$$$$
