CHEMBL68430


 31 35  0  0  0  0  0  0  0  0999 V2000
  -33.1268   -7.7895   -6.0587 N   0  0  0  0  0  0  0  0  0  0  0  0
  -32.4139   -8.6427   -6.8880 C   0  0  0  0  0  0  0  0  0  0  0  0
  -33.0142   -9.8177   -7.1455 N   0  0  0  0  0  0  0  0  0  0  0  0
  -32.3937  -10.6939   -7.9490 C   0  0  0  0  0  0  0  0  0  0  0  0
  -31.2112  -10.5516   -8.5570 N   0  0  0  0  0  0  0  0  0  0  0  0
  -30.6250   -9.3725   -8.2764 C   0  0  0  0  0  0  0  0  0  0  0  0
  -31.1452   -8.3723   -7.4573 C   0  0  0  0  0  0  0  0  0  0  0  0
  -30.1680   -7.3098   -7.4341 C   0  0  0  0  0  0  0  0  0  0  0  0
  -29.1116   -7.7390   -8.2221 C   0  0  0  0  0  0  0  0  0  0  0  0
  -27.5851   -7.0210   -8.5526 Cl  0  0  0  0  0  0  0  0  0  0  0  0
  -29.4024   -8.9687   -8.7636 N   0  0  0  0  0  0  0  0  0  0  0  0
  -34.0781   -8.1110   -5.9329 H   0  0  0  0  0  0  0  0  0  0  0  0
  -33.0183   -6.8048   -6.2633 H   0  0  0  0  0  0  0  0  0  0  0  0
  -30.1800   -6.0409   -6.7058 C   0  0  0  0  0  0  0  0  0  0  0  0
  -30.1269   -4.8322   -7.4045 C   0  0  0  0  0  0  0  0  0  0  0  0
  -30.0351   -3.6177   -6.7317 C   0  0  0  0  0  0  0  0  0  0  0  0
  -30.2288   -3.5740   -5.3562 C   0  0  0  0  0  0  0  0  0  0  0  0
  -30.3043   -4.7595   -4.6359 C   0  0  0  0  0  0  0  0  0  0  0  0
  -30.2274   -5.9794   -5.3032 C   0  0  0  0  0  0  0  0  0  0  0  0
  -30.3705   -2.4082   -4.6386 O   0  0  0  0  0  0  0  0  0  0  0  0
  -29.5211   -1.3612   -4.9171 C   0  0  0  0  0  0  0  0  0  0  0  0
  -28.1296   -1.4116   -4.7609 C   0  0  0  0  0  0  0  0  0  0  0  0
  -27.3640   -0.2594   -4.9204 C   0  0  0  0  0  0  0  0  0  0  0  0
  -27.9749    0.9204   -5.3323 C   0  0  0  0  0  0  0  0  0  0  0  0
  -29.3484    0.9445   -5.5863 C   0  0  0  0  0  0  0  0  0  0  0  0
  -30.1226   -0.1929   -5.3781 C   0  0  0  0  0  0  0  0  0  0  0  0
  -28.5685   -9.7246   -9.6755 C   0  0  0  0  0  0  0  0  0  0  0  0
  -29.1990  -10.0323  -11.0323 C   0  0  0  0  0  0  0  0  0  0  0  0
  -28.3620  -11.1838  -11.5928 C   0  0  0  0  0  0  0  0  0  0  0  0
  -27.5691  -11.7646  -10.4213 C   0  0  0  0  0  0  0  0  0  0  0  0
  -28.1024  -11.0866   -9.1638 C   0  0  0  0  0  0  0  0  0  0  0  0
  1  2  1  0  0  0
  1 12  1  0  0  0
  1 13  1  0  0  0
  2  3  1  0  0  0
  2  7  2  0  0  0
  3  4  2  0  0  0
  4  5  1  0  0  0
  5  6  2  0  0  0
  6  7  1  0  0  0
  6 11  1  0  0  0
  7  8  1  0  0  0
  8 14  1  0  0  0
  8  9  2  0  0  0
 14 15  1  0  0  0
 14 19  2  0  0  0
 15 16  2  0  0  0
 16 17  1  0  0  0
 17 20  1  0  0  0
 17 18  2  0  0  0
 20 21  1  0  0  0
 21 22  1  0  0  0
 21 26  2  0  0  0
 22 23  2  0  0  0
 23 24  1  0  0  0
 24 25  2  0  0  0
 25 26  1  0  0  0
 18 19  1  0  0  0
  9 10  1  0  0  0
  9 11  1  0  0  0
 11 27  1  0  0  0
 27 28  1  0  0  0
 27 31  1  0  0  0
 28 29  1  0  0  0
 29 30  1  0  0  0
 30 31  1  0  0  0
M  END
> <minimizedAffinity>
-8.91900

$$$$
