CHEMBL495300


 35 39  0  0  0  0  0  0  0  0999 V2000
  -14.1441   -4.1510  -10.5583 N   0  0  0  0  0  0  0  0  0  0  0  0
  -14.9753   -3.0130  -10.1847 C   0  0  0  0  0  0  0  0  0  0  0  0
  -15.6036   -2.2324  -11.3507 C   0  0  0  0  0  0  0  0  0  0  0  0
  -14.6152   -1.8914  -12.4424 C   0  0  0  0  0  0  0  0  0  0  0  0
  -13.4758   -2.7156  -12.5630 C   0  0  0  0  0  0  0  0  0  0  0  0
  -12.5279   -2.4492  -13.5688 C   0  0  0  0  0  0  0  0  0  0  0  0
  -12.6942   -1.3858  -14.4489 C   0  0  0  0  0  0  0  0  0  0  0  0
  -13.8244   -0.5809  -14.3503 C   0  0  0  0  0  0  0  0  0  0  0  0
  -14.8109   -0.8386  -13.3779 C   0  0  0  0  0  0  0  0  0  0  0  0
  -13.2167   -3.9065  -11.6582 C   0  0  0  0  0  0  0  0  0  0  0  0
  -16.0280    0.0494  -13.3761 C   0  0  0  0  0  0  0  0  0  0  0  0
  -16.4142    0.5162  -12.3105 O   0  0  0  0  0  0  0  0  0  0  0  0
  -16.6001    0.2552  -14.6234 N   0  0  0  0  0  0  0  0  0  0  0  0
  -16.2142   -0.2329  -15.4157 H   0  0  0  0  0  0  0  0  0  0  0  0
  -17.7359    1.0462  -14.8807 C   0  0  0  0  0  0  0  0  0  0  0  0
  -18.9567    0.3931  -15.0492 C   0  0  0  0  0  0  0  0  0  0  0  0
  -20.1127    1.1479  -15.2573 C   0  0  0  0  0  0  0  0  0  0  0  0
  -20.0214    2.5319  -15.3031 C   0  0  0  0  0  0  0  0  0  0  0  0
  -18.7701    3.0982  -15.1505 C   0  0  0  0  0  0  0  0  0  0  0  0
  -17.6422    2.3849  -14.9449 N   0  0  0  0  0  0  0  0  0  0  0  0
  -14.8061   -5.4593  -10.5604 C   0  0  0  0  0  0  0  0  0  0  0  0
  -13.1221   -8.8828  -14.2938 C   0  0  0  0  0  0  0  0  0  0  0  0
  -14.2250   -8.1669  -14.7722 C   0  0  0  0  0  0  0  0  0  0  0  0
  -14.8808   -7.2165  -14.0073 C   0  0  0  0  0  0  0  0  0  0  0  0
  -15.9614   -6.6549  -14.5653 N   0  0  0  0  0  0  0  0  0  0  0  0
  -16.6525   -5.7590  -13.8418 C   0  0  0  0  0  0  0  0  0  0  0  0
  -16.2992   -5.3769  -12.5648 C   0  0  0  0  0  0  0  0  0  0  0  0
  -15.1512   -5.9306  -11.9714 C   0  0  0  0  0  0  0  0  0  0  0  0
  -14.4168   -6.9094  -12.7046 C   0  0  0  0  0  0  0  0  0  0  0  0
  -13.2667   -7.5977  -12.2458 C   0  0  0  0  0  0  0  0  0  0  0  0
  -12.6009   -8.5437  -13.0424 C   0  0  0  0  0  0  0  0  0  0  0  0
  -13.0603  -10.1176  -16.3131 C   0  0  0  0  0  0  0  0  0  0  0  0
  -12.5463   -9.9052  -14.9978 O   0  0  0  0  0  0  0  0  0  0  0  0
  -11.4973   -9.1057  -12.4543 O   0  0  0  0  0  0  0  0  0  0  0  0
  -11.0332   -8.4594  -11.2702 C   0  0  0  0  0  0  0  0  0  0  0  0
 32 33  1  0  0  0
 33 22  1  0  0  0
 22 23  1  0  0  0
 22 31  2  0  0  0
 23 24  2  0  0  0
 24 25  1  0  0  0
 24 29  1  0  0  0
 25 26  2  0  0  0
 26 27  1  0  0  0
 27 28  2  0  0  0
 28 21  1  0  0  0
 28 29  1  0  0  0
 21  1  1  0  0  0
  1  2  1  0  0  0
  1 10  1  0  0  0
  2  3  1  0  0  0
  3  4  1  0  0  0
  4  5  1  0  0  0
  4  9  2  0  0  0
  5  6  2  0  0  0
  5 10  1  0  0  0
  6  7  1  0  0  0
  7  8  2  0  0  0
  8  9  1  0  0  0
  9 11  1  0  0  0
 11 12  2  0  0  0
 11 13  1  0  0  0
 13 15  1  0  0  0
 13 14  1  0  0  0
 15 16  1  0  0  0
 15 20  2  0  0  0
 16 17  2  0  0  0
 17 18  1  0  0  0
 18 19  2  0  0  0
 19 20  1  0  0  0
 29 30  2  0  0  0
 30 31  1  0  0  0
 31 34  1  0  0  0
 34 35  1  0  0  0
M  END
> <minimizedAffinity>
-8.78476

$$$$
