CHEMBL3940400


 38 41  0  0  0  0  0  0  0  0999 V2000
  -14.9540   -3.6791  -11.4590 C   0  0  0  0  0  0  0  0  0  0  0  0
  -15.8354   -4.7557  -11.5533 C   0  0  0  0  0  0  0  0  0  0  0  0
  -15.4806   -6.0533  -11.4195 N   0  0  0  0  0  0  0  0  0  0  0  0
  -14.1851   -6.3186  -11.1452 C   0  0  0  0  0  0  0  0  0  0  0  0
  -13.2085   -5.3253  -11.1162 C   0  0  0  0  0  0  0  0  0  0  0  0
  -11.5441   -5.6800  -10.8481 Cl  0  0  0  0  0  0  0  0  0  0  0  0
  -13.6031   -3.9872  -11.2789 C   0  0  0  0  0  0  0  0  0  0  0  0
  -15.1678   -2.0752  -13.8099 O   0  0  0  0  0  0  0  0  0  0  0  0
  -15.4146   -1.5947  -12.7107 C   0  0  0  0  0  0  0  0  0  0  0  0
  -15.3643   -2.3206  -11.5290 N   0  0  0  0  0  0  0  0  0  0  0  0
  -15.7705   -0.2721  -12.5084 N   0  0  0  0  0  0  0  0  0  0  0  0
  -15.8655   -1.9415  -10.7383 H   0  0  0  0  0  0  0  0  0  0  0  0
  -15.6174    0.0997  -11.5826 H   0  0  0  0  0  0  0  0  0  0  0  0
  -15.9781    0.6644  -13.5519 C   0  0  0  0  0  0  0  0  0  0  0  0
  -14.9484    1.1423  -14.3633 C   0  0  0  0  0  0  0  0  0  0  0  0
  -15.1944    2.1076  -15.3406 C   0  0  0  0  0  0  0  0  0  0  0  0
  -16.4837    2.6020  -15.5418 C   0  0  0  0  0  0  0  0  0  0  0  0
  -16.6606    3.8052  -16.7634 Cl  0  0  0  0  0  0  0  0  0  0  0  0
  -17.5444    2.1171  -14.7695 C   0  0  0  0  0  0  0  0  0  0  0  0
  -17.2734    1.1348  -13.7825 C   0  0  0  0  0  0  0  0  0  0  0  0
  -18.9736    2.5764  -14.9092 C   0  0  0  0  0  0  0  0  0  0  0  0
  -19.3848    2.9423  -16.1487 F   0  0  0  0  0  0  0  0  0  0  0  0
  -19.8467    1.6087  -14.5035 F   0  0  0  0  0  0  0  0  0  0  0  0
  -19.2336    3.6501  -14.1074 F   0  0  0  0  0  0  0  0  0  0  0  0
  -13.8480   -7.6396  -10.8685 O   0  0  0  0  0  0  0  0  0  0  0  0
  -13.3775   -8.3976  -11.9275 C   0  0  0  0  0  0  0  0  0  0  0  0
  -12.4578   -9.4337  -11.7584 C   0  0  0  0  0  0  0  0  0  0  0  0
  -12.0704  -10.1404  -12.8750 C   0  0  0  0  0  0  0  0  0  0  0  0
  -12.4944   -9.8523  -14.1181 N   0  0  0  0  0  0  0  0  0  0  0  0
  -13.3508   -8.8315  -14.2875 C   0  0  0  0  0  0  0  0  0  0  0  0
  -13.8152   -8.0755  -13.2130 C   0  0  0  0  0  0  0  0  0  0  0  0
  -13.7771   -8.4995  -15.5853 N   0  0  0  0  0  0  0  0  0  0  0  0
  -12.9346   -8.0910  -16.6005 C   0  0  0  0  0  0  0  0  0  0  0  0
  -11.7171   -7.9904  -16.5797 O   0  0  0  0  0  0  0  0  0  0  0  0
  -14.7659   -8.5387  -15.7716 H   0  0  0  0  0  0  0  0  0  0  0  0
  -13.6656   -7.6967  -17.8477 C   0  0  0  0  0  0  0  0  0  0  0  0
  -13.6759   -8.6085  -19.0569 C   0  0  0  0  0  0  0  0  0  0  0  0
  -12.8613   -7.3488  -19.0817 C   0  0  0  0  0  0  0  0  0  0  0  0
  8  9  2  0  0  0
  9 10  1  0  0  0
  9 11  1  0  0  0
 10  1  1  0  0  0
 10 12  1  0  0  0
  1  2  1  0  0  0
  1  7  2  0  0  0
  2  3  2  0  0  0
  3  4  1  0  0  0
  4 25  1  0  0  0
  4  5  2  0  0  0
 25 26  1  0  0  0
 26 27  1  0  0  0
 26 31  2  0  0  0
 27 28  2  0  0  0
 28 29  1  0  0  0
 29 30  2  0  0  0
 30 32  1  0  0  0
 30 31  1  0  0  0
 32 33  1  0  0  0
 32 35  1  0  0  0
 33 34  2  0  0  0
 33 36  1  0  0  0
 36 37  1  0  0  0
 36 38  1  0  0  0
 37 38  1  0  0  0
  5  6  1  0  0  0
  5  7  1  0  0  0
 11 14  1  0  0  0
 11 13  1  0  0  0
 14 15  1  0  0  0
 14 20  2  0  0  0
 15 16  2  0  0  0
 16 17  1  0  0  0
 17 18  1  0  0  0
 17 19  2  0  0  0
 19 21  1  0  0  0
 19 20  1  0  0  0
 21 22  1  0  0  0
 21 23  1  0  0  0
 21 24  1  0  0  0
M  END
> <minimizedAffinity>
-8.70838

$$$$
