CHEMBL180807


 30 32  0  0  0  0  0  0  0  0999 V2000
  -14.5939    0.0132  -14.5963 C   0  0  0  0  0  0  0  0  0  0  0  0
  -13.9915    0.4635  -15.7546 C   0  0  0  0  0  0  0  0  0  0  0  0
  -14.6716    1.5465  -16.2180 N   0  0  0  0  0  0  0  0  0  0  0  0
  -14.3459    2.2267  -17.3227 N   0  0  0  0  0  0  0  0  0  0  0  0
  -15.1327    3.2245  -17.5657 C   0  0  0  0  0  0  0  0  0  0  0  0
  -16.2036    3.6209  -16.8161 N   0  0  0  0  0  0  0  0  0  0  0  0
  -16.5111    2.9843  -15.7206 C   0  0  0  0  0  0  0  0  0  0  0  0
  -15.7076    1.8373  -15.3776 C   0  0  0  0  0  0  0  0  0  0  0  0
  -15.6951    0.9109  -14.3341 C   0  0  0  0  0  0  0  0  0  0  0  0
  -16.5660    0.8145  -13.1258 C   0  0  0  0  0  0  0  0  0  0  0  0
  -14.9393   -2.2689  -13.9598 N   0  0  0  0  0  0  0  0  0  0  0  0
  -14.1482   -1.1420  -13.8051 C   0  0  0  0  0  0  0  0  0  0  0  0
  -13.1601   -1.1130  -13.1008 O   0  0  0  0  0  0  0  0  0  0  0  0
  -15.6013   -2.2999  -14.7185 H   0  0  0  0  0  0  0  0  0  0  0  0
  -14.6174   -3.4966  -13.2702 C   0  0  0  0  0  0  0  0  0  0  0  0
  -15.8476   -4.1846  -12.6848 C   0  0  0  0  0  0  0  0  0  0  0  0
  -16.2303   -3.5501  -11.3500 C   0  0  0  0  0  0  0  0  0  0  0  0
  -14.7326   -3.3662   -9.5408 C   0  0  0  0  0  0  0  0  0  0  0  0
  -15.1055   -2.8569  -10.8148 O   0  0  0  0  0  0  0  0  0  0  0  0
  -17.5763    3.3938  -14.9485 N   0  0  0  0  0  0  0  0  0  0  0  0
  -17.6986    4.3878  -14.8537 H   0  0  0  0  0  0  0  0  0  0  0  0
  -18.8144    2.7396  -14.8357 C   0  0  0  0  0  0  0  0  0  0  0  0
  -18.9718    1.3939  -15.1708 C   0  0  0  0  0  0  0  0  0  0  0  0
  -20.2131    0.7656  -15.0398 C   0  0  0  0  0  0  0  0  0  0  0  0
  -21.3326    1.4755  -14.5861 C   0  0  0  0  0  0  0  0  0  0  0  0
  -22.6506    0.7702  -14.4693 C   0  0  0  0  0  0  0  0  0  0  0  0
  -21.1733    2.8287  -14.2702 C   0  0  0  0  0  0  0  0  0  0  0  0
  -22.2026    3.6146  -13.8323 O   0  0  0  0  0  0  0  0  0  0  0  0
  -19.9347    3.4567  -14.4003 C   0  0  0  0  0  0  0  0  0  0  0  0
  -23.0249    3.1001  -13.8353 H   0  0  0  0  0  0  0  0  0  0  0  0
 18 19  1  0  0  0
 19 17  1  0  0  0
 17 16  1  0  0  0
 16 15  1  0  0  0
 15 11  1  0  0  0
 11 12  1  0  0  0
 11 14  1  0  0  0
 12 13  2  0  0  0
 12  1  1  0  0  0
  1  2  2  0  0  0
  1  9  1  0  0  0
  2  3  1  0  0  0
  3  4  1  0  0  0
  3  8  1  0  0  0
  4  5  2  0  0  0
  5  6  1  0  0  0
  6  7  2  0  0  0
  7 20  1  0  0  0
  7  8  1  0  0  0
 20 22  1  0  0  0
 20 21  1  0  0  0
 22 23  1  0  0  0
 22 29  2  0  0  0
 23 24  2  0  0  0
 24 25  1  0  0  0
 25 26  1  0  0  0
 25 27  2  0  0  0
 27 28  1  0  0  0
 27 29  1  0  0  0
 28 30  1  0  0  0
  8  9  2  0  0  0
  9 10  1  0  0  0
M  END
> <minimizedAffinity>
-8.01207

$$$$
