CHEMBL382584


 27 30  0  0  0  0  0  0  0  0999 V2000
  -29.7285   11.5577  -13.7294 C   0  0  0  0  0  0  0  0  0  0  0  0
  -30.5971   11.0678  -14.7324 C   0  0  0  0  0  0  0  0  0  0  0  0
  -31.9602   10.8936  -14.4985 C   0  0  0  0  0  0  0  0  0  0  0  0
  -32.4891   11.2123  -13.2576 C   0  0  0  0  0  0  0  0  0  0  0  0
  -31.6602   11.7390  -12.2675 C   0  0  0  0  0  0  0  0  0  0  0  0
  -30.2777   11.9527  -12.4842 C   0  0  0  0  0  0  0  0  0  0  0  0
  -27.5346   12.3217  -13.3192 O   0  0  0  0  0  0  0  0  0  0  0  0
  -28.2704   11.7045  -14.0770 C   0  0  0  0  0  0  0  0  0  0  0  0
  -27.8711   11.1168  -15.2734 N   0  0  0  0  0  0  0  0  0  0  0  0
  -28.5488   10.5499  -15.7644 H   0  0  0  0  0  0  0  0  0  0  0  0
  -26.5961   11.1740  -15.8816 C   0  0  0  0  0  0  0  0  0  0  0  0
  -25.8107   12.3281  -15.9517 C   0  0  0  0  0  0  0  0  0  0  0  0
  -24.5368   12.2926  -16.5227 C   0  0  0  0  0  0  0  0  0  0  0  0
  -24.0399   11.1018  -17.0467 C   0  0  0  0  0  0  0  0  0  0  0  0
  -22.2952   11.0462  -17.7701 Br  0  0  0  0  0  0  0  0  0  0  0  0
  -24.8208    9.9507  -17.0249 C   0  0  0  0  0  0  0  0  0  0  0  0
  -26.0947    9.9889  -16.4437 C   0  0  0  0  0  0  0  0  0  0  0  0
  -29.5182   12.6579  -11.3703 C   0  0  0  0  0  0  0  0  0  0  0  0
  -30.1287   12.4800  -10.0359 N   0  0  0  0  0  0  0  0  0  0  0  0
  -29.3259   12.3600   -8.8941 C   0  0  0  0  0  0  0  0  0  0  0  0
  -29.7797   12.2722   -7.6325 C   0  0  0  0  0  0  0  0  0  0  0  0
  -31.2376   12.3110   -7.4721 C   0  0  0  0  0  0  0  0  0  0  0  0
  -31.9846   12.2313   -6.4155 N   0  0  0  0  0  0  0  0  0  0  0  0
  -33.2697   12.3492   -6.9365 C   0  0  0  0  0  0  0  0  0  0  0  0
  -33.3883   12.5002   -8.2282 N   0  0  0  0  0  0  0  0  0  0  0  0
  -32.0913   12.4743   -8.6498 C   0  0  0  0  0  0  0  0  0  0  0  0
  -31.5164   12.5612   -9.8504 C   0  0  0  0  0  0  0  0  0  0  0  0
  7  8  2  0  0  0
  8  9  1  0  0  0
  8  1  1  0  0  0
  9 11  1  0  0  0
  9 10  1  0  0  0
 11 12  1  0  0  0
 11 17  2  0  0  0
 12 13  2  0  0  0
 13 14  1  0  0  0
 14 15  1  0  0  0
 14 16  2  0  0  0
 16 17  1  0  0  0
  1  2  1  0  0  0
  1  6  2  0  0  0
  2  3  2  0  0  0
  3  4  1  0  0  0
  4  5  2  0  0  0
  5  6  1  0  0  0
  6 18  1  0  0  0
 18 19  1  0  0  0
 19 20  1  0  0  0
 19 27  1  0  0  0
 20 21  2  0  0  0
 21 22  1  0  0  0
 22 23  2  0  0  0
 22 26  1  0  0  0
 23 24  1  0  0  0
 24 25  2  0  0  0
 25 26  1  0  0  0
 26 27  2  0  0  0
M  END
> <minimizedAffinity>
-4.38325

$$$$
