CHEMBL469172


 31 35  0  0  0  0  0  0  0  0999 V2000
  -28.6144   -1.1752   -5.8466 C   0  0  0  0  0  0  0  0  0  0  0  0
  -29.5273   -0.4853   -5.0192 C   0  0  0  0  0  0  0  0  0  0  0  0
  -29.9671    0.7921   -5.3500 C   0  0  0  0  0  0  0  0  0  0  0  0
  -29.4893    1.4003   -6.5000 C   0  0  0  0  0  0  0  0  0  0  0  0
  -28.6270    0.7068   -7.3552 C   0  0  0  0  0  0  0  0  0  0  0  0
  -28.1709   -0.5949   -7.0659 C   0  0  0  0  0  0  0  0  0  0  0  0
  -26.7507   -2.4769   -5.2190 O   0  0  0  0  0  0  0  0  0  0  0  0
  -27.9764   -2.4090   -5.2954 C   0  0  0  0  0  0  0  0  0  0  0  0
  -28.8127   -3.5120   -4.7940 C   0  0  0  0  0  0  0  0  0  0  0  0
  -28.8581   -3.7700   -3.4710 N   0  0  0  0  0  0  0  0  0  0  0  0
  -29.3724   -5.0015   -3.3961 N   0  0  0  0  0  0  0  0  0  0  0  0
  -29.6235   -5.5679   -4.6131 C   0  0  0  0  0  0  0  0  0  0  0  0
  -29.9127   -6.8826   -4.9827 C   0  0  0  0  0  0  0  0  0  0  0  0
  -30.1950   -7.1105   -6.3312 C   0  0  0  0  0  0  0  0  0  0  0  0
  -30.2619   -6.0552   -7.2406 C   0  0  0  0  0  0  0  0  0  0  0  0
  -29.9006   -4.7562   -6.8601 C   0  0  0  0  0  0  0  0  0  0  0  0
  -29.5016   -4.5270   -5.5293 C   0  0  0  0  0  0  0  0  0  0  0  0
  -29.4886   -5.4175   -2.4790 H   0  0  0  0  0  0  0  0  0  0  0  0
  -27.3589   -1.3087   -7.9834 N   0  0  0  0  0  0  0  0  0  0  0  0
  -26.8544   -2.0564   -7.5126 H   0  0  0  0  0  0  0  0  0  0  0  0
  -27.9736   -1.7694   -9.2245 C   0  0  0  0  0  0  0  0  0  0  0  0
  -27.0834   -1.7354  -10.4579 C   0  0  0  0  0  0  0  0  0  0  0  0
  -27.7116   -1.7795  -11.7061 C   0  0  0  0  0  0  0  0  0  0  0  0
  -26.9850   -1.6242  -12.8929 C   0  0  0  0  0  0  0  0  0  0  0  0
  -25.6244   -1.3961  -12.8814 C   0  0  0  0  0  0  0  0  0  0  0  0
  -24.9983   -1.2214  -14.0568 N   0  0  0  0  0  0  0  0  0  0  0  0
  -23.6827   -0.9427  -14.0311 C   0  0  0  0  0  0  0  0  0  0  0  0
  -22.9456   -0.8306  -12.8674 C   0  0  0  0  0  0  0  0  0  0  0  0
  -23.5977   -1.0412  -11.6522 C   0  0  0  0  0  0  0  0  0  0  0  0
  -24.9664   -1.3311  -11.6350 C   0  0  0  0  0  0  0  0  0  0  0  0
  -25.6979   -1.5262  -10.4289 C   0  0  0  0  0  0  0  0  0  0  0  0
  7  8  2  0  0  0
  8  1  1  0  0  0
  8  9  1  0  0  0
  1  2  1  0  0  0
  1  6  2  0  0  0
  2  3  2  0  0  0
  3  4  1  0  0  0
  4  5  2  0  0  0
  5  6  1  0  0  0
  6 19  1  0  0  0
 19 21  1  0  0  0
 19 20  1  0  0  0
 21 22  1  0  0  0
 22 23  1  0  0  0
 22 31  2  0  0  0
 23 24  2  0  0  0
 24 25  1  0  0  0
 25 26  1  0  0  0
 25 30  2  0  0  0
 26 27  2  0  0  0
 27 28  1  0  0  0
 28 29  2  0  0  0
 29 30  1  0  0  0
 30 31  1  0  0  0
  9 10  2  0  0  0
  9 17  1  0  0  0
 10 11  1  0  0  0
 11 12  1  0  0  0
 11 18  1  0  0  0
 12 13  1  0  0  0
 12 17  2  0  0  0
 13 14  2  0  0  0
 14 15  1  0  0  0
 15 16  2  0  0  0
 16 17  1  0  0  0
M  END
> <minimizedAffinity>
-10.68906

$$$$
