CHEMBL3921476


 38 42  0  0  0  0  0  0  0  0999 V2000
  -17.3890    1.9752  -15.7736 N   0  0  0  0  0  0  0  0  0  0  0  0
  -18.8310    1.7446  -15.5016 C   0  0  0  0  0  0  0  0  0  0  0  0
  -19.5387    2.9432  -15.4809 C   0  0  0  0  0  0  0  0  0  0  0  0
  -20.7352    3.0746  -14.9055 C   0  0  0  0  0  0  0  0  0  0  0  0
  -21.3908    2.0043  -14.4129 C   0  0  0  0  0  0  0  0  0  0  0  0
  -22.4895    2.3412  -13.7312 N   0  0  0  0  0  0  0  0  0  0  0  0
  -23.3271    1.4478  -13.2641 C   0  0  0  0  0  0  0  0  0  0  0  0
  -23.1994    0.0996  -13.5894 C   0  0  0  0  0  0  0  0  0  0  0  0
  -21.9607   -0.3140  -14.1744 N   0  0  0  0  0  0  0  0  0  0  0  0
  -20.9887    0.6631  -14.5727 C   0  0  0  0  0  0  0  0  0  0  0  0
  -19.6013    0.5136  -15.1069 C   0  0  0  0  0  0  0  0  0  0  0  0
  -24.5714   -0.6345  -13.3969 C   0  0  0  0  0  0  0  0  0  0  0  0
  -25.2866   -0.4858  -12.1764 C   0  0  0  0  0  0  0  0  0  0  0  0
  -26.4672   -1.0747  -12.2169 N   0  0  0  0  0  0  0  0  0  0  0  0
  -26.6070   -1.6201  -13.4021 N   0  0  0  0  0  0  0  0  0  0  0  0
  -27.8743   -2.2770  -13.7175 C   0  0  0  0  0  0  0  0  0  0  0  0
  -25.4851   -1.3985  -14.1652 C   0  0  0  0  0  0  0  0  0  0  0  0
  -14.0826    0.0946  -16.0517 C   0  0  0  0  0  0  0  0  0  0  0  0
  -14.0058   -0.4489  -14.7669 C   0  0  0  0  0  0  0  0  0  0  0  0
  -15.0248   -0.2611  -13.8434 C   0  0  0  0  0  0  0  0  0  0  0  0
  -16.1513    0.4919  -14.2165 C   0  0  0  0  0  0  0  0  0  0  0  0
  -16.2770    1.0826  -15.5002 C   0  0  0  0  0  0  0  0  0  0  0  0
  -15.2254    0.8663  -16.4242 C   0  0  0  0  0  0  0  0  0  0  0  0
  -12.7104   -1.3270  -17.5147 C   0  0  0  0  0  0  0  0  0  0  0  0
  -13.0291   -0.1555  -16.8654 O   0  0  0  0  0  0  0  0  0  0  0  0
  -14.8675   -0.8000  -12.6037 O   0  0  0  0  0  0  0  0  0  0  0  0
  -15.2715   -2.0597  -12.2067 C   0  0  0  0  0  0  0  0  0  0  0  0
  -17.0832    3.3415  -16.3686 C   0  0  0  0  0  0  0  0  0  0  0  0
  -15.9651    4.2982  -15.8222 C   0  0  0  0  0  0  0  0  0  0  0  0
  -14.4869    4.2214  -16.3209 C   0  0  0  0  0  0  0  0  0  0  0  0
  -13.3616    4.1159  -15.3195 N   0  0  0  0  0  0  0  0  0  0  0  0
  -12.8457    5.4844  -15.0752 C   0  0  0  0  0  0  0  0  0  0  0  0
  -11.7929    5.7369  -16.1556 C   0  0  0  0  0  0  0  0  0  0  0  0
  -11.0285    4.4507  -16.0796 C   0  0  0  0  0  0  0  0  0  0  0  0
  -12.1356    3.4050  -15.8084 C   0  0  0  0  0  0  0  0  0  0  0  0
  -11.6266    2.3419  -14.7908 C   0  0  0  0  0  0  0  0  0  0  0  0
  -12.2193    2.4041  -13.3926 C   0  0  0  0  0  0  0  0  0  0  0  0
  -12.7109    2.4557  -12.2326 N   0  0  0  0  0  0  0  0  0  0  0  0
 24 25  1  0  0  0
 25 18  1  0  0  0
 18 19  1  0  0  0
 18 23  2  0  0  0
 19 20  2  0  0  0
 20 26  1  0  0  0
 20 21  1  0  0  0
 26 27  1  0  0  0
 21 22  2  0  0  0
 22  1  1  0  0  0
 22 23  1  0  0  0
  1 28  1  0  0  0
  1  2  1  0  0  0
 28 29  1  0  0  0
 29 30  1  0  0  0
 30 31  1  0  0  0
 31 32  1  0  0  0
 31 35  1  0  0  0
 32 33  1  0  0  0
 33 34  1  0  0  0
 34 35  1  0  0  0
 35 36  1  0  0  0
 36 37  1  0  0  0
 37 38  3  0  0  0
  2  3  1  0  0  0
  2 11  2  0  0  0
  3  4  2  0  0  0
  4  5  1  0  0  0
  5  6  1  0  0  0
  5 10  2  0  0  0
  6  7  2  0  0  0
  7  8  1  0  0  0
  8 12  1  0  0  0
  8  9  2  0  0  0
 12 13  1  0  0  0
 12 17  2  0  0  0
 13 14  2  0  0  0
 14 15  1  0  0  0
 15 16  1  0  0  0
 15 17  1  0  0  0
  9 10  1  0  0  0
 10 11  1  0  0  0
M  END
> <minimizedAffinity>
-8.30727

$$$$
