CHEMBL3746735


 35 39  0  0  0  0  0  0  0  0999 V2000
  -23.0741   -0.6425  -13.1126 C   0  0  0  0  0  0  0  0  0  0  0  0
  -23.1523   -0.8680  -11.7388 C   0  0  0  0  0  0  0  0  0  0  0  0
  -24.3572   -1.2366  -11.1337 C   0  0  0  0  0  0  0  0  0  0  0  0
  -25.4821   -1.4180  -11.9552 C   0  0  0  0  0  0  0  0  0  0  0  0
  -25.3967   -1.2912  -13.3482 C   0  0  0  0  0  0  0  0  0  0  0  0
  -26.6494   -1.6685  -13.8920 C   0  0  0  0  0  0  0  0  0  0  0  0
  -27.4516   -2.0450  -12.8450 C   0  0  0  0  0  0  0  0  0  0  0  0
  -26.7771   -1.8377  -11.6531 N   0  0  0  0  0  0  0  0  0  0  0  0
  -27.3142   -2.1546  -10.3922 C   0  0  0  0  0  0  0  0  0  0  0  0
  -28.0007   -3.1618  -10.2980 O   0  0  0  0  0  0  0  0  0  0  0  0
  -27.0894   -1.1592   -9.4496 N   0  0  0  0  0  0  0  0  0  0  0  0
  -24.1804   -0.8873  -13.9307 C   0  0  0  0  0  0  0  0  0  0  0  0
  -26.8364   -0.2377   -9.7924 H   0  0  0  0  0  0  0  0  0  0  0  0
  -27.5881   -1.2650   -8.1266 C   0  0  0  0  0  0  0  0  0  0  0  0
  -27.6115   -2.4956   -7.4636 C   0  0  0  0  0  0  0  0  0  0  0  0
  -28.1789   -2.6191   -6.1972 C   0  0  0  0  0  0  0  0  0  0  0  0
  -28.7292   -1.5080   -5.5726 C   0  0  0  0  0  0  0  0  0  0  0  0
  -28.6892   -0.2512   -6.1960 C   0  0  0  0  0  0  0  0  0  0  0  0
  -28.0858   -0.1301   -7.4689 C   0  0  0  0  0  0  0  0  0  0  0  0
  -29.3166    0.9442   -5.5169 C   0  0  0  0  0  0  0  0  0  0  0  0
  -30.6028    0.7303   -5.1177 F   0  0  0  0  0  0  0  0  0  0  0  0
  -28.6398    1.3258   -4.3999 F   0  0  0  0  0  0  0  0  0  0  0  0
  -29.3585    2.0395   -6.3245 F   0  0  0  0  0  0  0  0  0  0  0  0
  -21.9228   -0.2708  -13.7675 O   0  0  0  0  0  0  0  0  0  0  0  0
  -19.2819   -0.2691  -15.7034 C   0  0  0  0  0  0  0  0  0  0  0  0
  -19.1806    0.6890  -14.5180 C   0  0  0  0  0  0  0  0  0  0  0  0
  -18.1136    1.7036  -14.7470 N   0  0  0  0  0  0  0  0  0  0  0  0
  -18.7683    3.0393  -14.7526 C   0  0  0  0  0  0  0  0  0  0  0  0
  -20.2231    2.7978  -14.4770 C   0  0  0  0  0  0  0  0  0  0  0  0
  -21.1760    3.7374  -14.3904 N   0  0  0  0  0  0  0  0  0  0  0  0
  -22.4003    3.2506  -14.1271 C   0  0  0  0  0  0  0  0  0  0  0  0
  -22.7242    1.9578  -13.9282 N   0  0  0  0  0  0  0  0  0  0  0  0
  -21.7008    1.0762  -13.9979 C   0  0  0  0  0  0  0  0  0  0  0  0
  -20.4316    1.4557  -14.3187 C   0  0  0  0  0  0  0  0  0  0  0  0
  -17.6809    1.5524  -15.6564 H   0  0  0  0  0  0  0  0  0  0  0  0
 25 26  1  0  0  0
 26 27  1  0  0  0
 26 34  1  0  0  0
 27 28  1  0  0  0
 27 35  1  0  0  0
 28 29  1  0  0  0
 29 30  1  0  0  0
 29 34  2  0  0  0
 30 31  2  0  0  0
 31 32  1  0  0  0
 32 33  2  0  0  0
 33 24  1  0  0  0
 33 34  1  0  0  0
 24  1  1  0  0  0
  1  2  1  0  0  0
  1 12  2  0  0  0
  2  3  2  0  0  0
  3  4  1  0  0  0
  4  5  2  0  0  0
  4  8  1  0  0  0
  5  6  1  0  0  0
  5 12  1  0  0  0
  6  7  2  0  0  0
  7  8  1  0  0  0
  8  9  1  0  0  0
  9 10  2  0  0  0
  9 11  1  0  0  0
 11 14  1  0  0  0
 11 13  1  0  0  0
 14 15  1  0  0  0
 14 19  2  0  0  0
 15 16  2  0  0  0
 16 17  1  0  0  0
 17 18  2  0  0  0
 18 20  1  0  0  0
 18 19  1  0  0  0
 20 21  1  0  0  0
 20 22  1  0  0  0
 20 23  1  0  0  0
M  END
> <minimizedAffinity>
-9.80330

$$$$
