CHEMBL484678


 29 33  0  0  0  0  0  0  0  0999 V2000
  -27.6267   -2.2453   -9.2931 C   0  0  0  0  0  0  0  0  0  0  0  0
  -26.3588   -1.7500   -9.4959 C   0  0  0  0  0  0  0  0  0  0  0  0
  -26.1639   -1.5888  -10.8871 C   0  0  0  0  0  0  0  0  0  0  0  0
  -25.0664   -1.1925  -11.6521 C   0  0  0  0  0  0  0  0  0  0  0  0
  -25.1934   -1.1008  -13.0408 C   0  0  0  0  0  0  0  0  0  0  0  0
  -26.3841   -1.4751  -13.6656 C   0  0  0  0  0  0  0  0  0  0  0  0
  -27.4903   -1.9034  -12.9182 C   0  0  0  0  0  0  0  0  0  0  0  0
  -27.3424   -1.9421  -11.5260 C   0  0  0  0  0  0  0  0  0  0  0  0
  -28.2128   -2.3393  -10.5398 N   0  0  0  0  0  0  0  0  0  0  0  0
  -29.1150   -2.7646  -10.7178 H   0  0  0  0  0  0  0  0  0  0  0  0
  -27.5731    0.3300   -7.4304 O   0  0  0  0  0  0  0  0  0  0  0  0
  -28.2735   -0.4045   -6.7672 C   0  0  0  0  0  0  0  0  0  0  0  0
  -28.9030   -0.0447   -5.5976 N   0  0  0  0  0  0  0  0  0  0  0  0
  -29.5517   -1.1469   -4.9417 C   0  0  0  0  0  0  0  0  0  0  0  0
  -29.2944   -2.2769   -5.8781 C   0  0  0  0  0  0  0  0  0  0  0  0
  -29.6984   -3.5978   -5.7642 C   0  0  0  0  0  0  0  0  0  0  0  0
  -29.3685   -4.4767   -6.7918 C   0  0  0  0  0  0  0  0  0  0  0  0
  -28.6660   -4.0233   -7.9223 C   0  0  0  0  0  0  0  0  0  0  0  0
  -28.2552   -2.6820   -8.0497 C   0  0  0  0  0  0  0  0  0  0  0  0
  -28.5626   -1.8374   -6.9913 C   0  0  0  0  0  0  0  0  0  0  0  0
  -28.8174    0.8929   -5.2304 H   0  0  0  0  0  0  0  0  0  0  0  0
  -24.1828   -0.6393  -13.8464 O   0  0  0  0  0  0  0  0  0  0  0  0
  -22.9997   -0.2873  -13.1160 C   0  0  0  0  0  0  0  0  0  0  0  0
  -22.2162    0.7812  -13.8205 C   0  0  0  0  0  0  0  0  0  0  0  0
  -22.6230    2.1199  -13.7087 C   0  0  0  0  0  0  0  0  0  0  0  0
  -21.8875    3.1323  -14.3196 C   0  0  0  0  0  0  0  0  0  0  0  0
  -20.7363    2.8154  -15.0361 C   0  0  0  0  0  0  0  0  0  0  0  0
  -20.3190    1.4876  -15.1406 C   0  0  0  0  0  0  0  0  0  0  0  0
  -21.0525    0.4722  -14.5303 C   0  0  0  0  0  0  0  0  0  0  0  0
 11 12  2  0  0  0
 12 13  1  0  0  0
 12 20  1  0  0  0
 13 14  1  0  0  0
 13 21  1  0  0  0
 14 15  1  0  0  0
 15 16  1  0  0  0
 15 20  2  0  0  0
 16 17  2  0  0  0
 17 18  1  0  0  0
 18 19  2  0  0  0
 19  1  1  0  0  0
 19 20  1  0  0  0
  1  2  2  0  0  0
  1  9  1  0  0  0
  2  3  1  0  0  0
  3  4  1  0  0  0
  3  8  2  0  0  0
  4  5  2  0  0  0
  5 22  1  0  0  0
  5  6  1  0  0  0
 22 23  1  0  0  0
 23 24  1  0  0  0
 24 25  1  0  0  0
 24 29  2  0  0  0
 25 26  2  0  0  0
 26 27  1  0  0  0
 27 28  2  0  0  0
 28 29  1  0  0  0
  6  7  2  0  0  0
  7  8  1  0  0  0
  8  9  1  0  0  0
  9 10  1  0  0  0
M  END
> <minimizedAffinity>
-10.17400

$$$$
