CHEMBL1922224


 31 33  0  0  0  0  0  0  0  0999 V2000
  -28.5942   -8.5945   -4.5151 C   0  0  0  0  0  0  0  0  0  0  0  0
  -28.8841   -9.6215   -5.6549 C   0  0  0  0  0  0  0  0  0  0  0  0
  -30.2619  -10.0070   -5.6899 O   0  0  0  0  0  0  0  0  0  0  0  0
  -28.5098   -9.1368   -7.0749 C   0  0  0  0  0  0  0  0  0  0  0  0
  -28.9255   -7.6822   -7.4633 C   0  0  0  0  0  0  0  0  0  0  0  0
  -29.1950   -6.7628   -6.2467 C   0  0  0  0  0  0  0  0  0  0  0  0
  -30.7032   -6.8360   -5.9255 C   0  0  0  0  0  0  0  0  0  0  0  0
  -28.2223   -7.2363   -5.1411 C   0  0  0  0  0  0  0  0  0  0  0  0
  -28.0109   -6.0355   -4.2198 C   0  0  0  0  0  0  0  0  0  0  0  0
  -28.6560   -4.8567   -4.8650 C   0  0  0  0  0  0  0  0  0  0  0  0
  -28.7489   -5.2604   -6.3439 C   0  0  0  0  0  0  0  0  0  0  0  0
  -30.6895   -9.7671   -4.8523 H   0  0  0  0  0  0  0  0  0  0  0  0
  -29.6052   -4.1856   -7.0289 C   0  0  0  0  0  0  0  0  0  0  0  0
  -28.9002   -3.5448   -8.2140 C   0  0  0  0  0  0  0  0  0  0  0  0
  -29.8736   -3.0818   -6.0230 C   0  0  0  0  0  0  0  0  0  0  0  0
  -29.4658   -1.8117   -6.1438 C   0  0  0  0  0  0  0  0  0  0  0  0
  -29.4006   -0.9294   -4.9338 C   0  0  0  0  0  0  0  0  0  0  0  0
  -29.2270    0.5703   -5.1774 C   0  0  0  0  0  0  0  0  0  0  0  0
  -28.1275    0.8755   -6.1940 C   0  0  0  0  0  0  0  0  0  0  0  0
  -30.5682    1.1190   -5.6743 C   0  0  0  0  0  0  0  0  0  0  0  0
  -27.4867   -9.1196   -3.5423 C   0  0  0  0  0  0  0  0  0  0  0  0
  -26.9362  -10.4932   -3.9471 C   0  0  0  0  0  0  0  0  0  0  0  0
  -25.0789  -11.8723   -2.0399 C   0  0  0  0  0  0  0  0  0  0  0  0
  -24.6473  -11.4254   -3.4001 C   0  0  0  0  0  0  0  0  0  0  0  0
  -23.3537  -11.6805   -3.8571 C   0  0  0  0  0  0  0  0  0  0  0  0
  -22.7918  -10.9047   -4.8733 C   0  0  0  0  0  0  0  0  0  0  0  0
  -23.5348   -9.8644   -5.4113 C   0  0  0  0  0  0  0  0  0  0  0  0
  -22.9105   -8.8893   -6.1276 O   0  0  0  0  0  0  0  0  0  0  0  0
  -24.8794   -9.7599   -5.1453 C   0  0  0  0  0  0  0  0  0  0  0  0
  -25.4695  -10.6036   -4.1875 C   0  0  0  0  0  0  0  0  0  0  0  0
  -22.3338   -8.4364   -5.4896 H   0  0  0  0  0  0  0  0  0  0  0  0
 23 24  1  0  0  0
 24 25  1  0  0  0
 24 30  2  0  0  0
 25 26  2  0  0  0
 26 27  1  0  0  0
 27 28  1  0  0  0
 27 29  2  0  0  0
 28 31  1  0  0  0
 29 30  1  0  0  0
 30 22  1  0  0  0
 22 21  1  0  0  0
 21  1  1  0  0  0
  1  2  1  0  0  0
  1  8  1  0  0  0
  2  4  1  0  0  0
  2  3  1  0  0  0
  3 12  1  0  0  0
  4  5  1  0  0  0
  5  6  1  0  0  0
  6  7  1  0  0  0
  6  8  1  0  0  0
  6 11  1  0  0  0
  8  9  1  0  0  0
  9 10  1  0  0  0
 10 11  1  0  0  0
 11 13  1  0  0  0
 13 15  1  0  0  0
 13 14  1  0  0  0
 15 16  2  0  0  0
 16 17  1  0  0  0
 17 18  1  0  0  0
 18 19  1  0  0  0
 18 20  1  0  0  0
M  END
> <minimizedAffinity>
-9.00586

$$$$
