CHEMBL3739586


 36 41  0  0  0  0  0  0  0  0999 V2000
  -15.3435    1.3087  -14.6040 N   0  0  0  0  0  0  0  0  0  0  0  0
  -14.8272    0.0347  -14.5695 C   0  0  0  0  0  0  0  0  0  0  0  0
  -13.4807    0.1692  -14.3697 C   0  0  0  0  0  0  0  0  0  0  0  0
  -12.5109   -0.8420  -14.3081 C   0  0  0  0  0  0  0  0  0  0  0  0
  -11.2712   -0.3632  -13.9970 N   0  0  0  0  0  0  0  0  0  0  0  0
  -10.9898    1.0451  -13.7633 N   0  0  0  0  0  0  0  0  0  0  0  0
  -11.9347    2.0145  -13.8603 C   0  0  0  0  0  0  0  0  0  0  0  0
  -11.5453    3.3029  -13.6269 O   0  0  0  0  0  0  0  0  0  0  0  0
  -13.2388    1.5779  -14.1777 C   0  0  0  0  0  0  0  0  0  0  0  0
  -14.3937    2.2513  -14.3598 N   0  0  0  0  0  0  0  0  0  0  0  0
  -10.6006    3.1876  -13.4243 H   0  0  0  0  0  0  0  0  0  0  0  0
  -20.7906    2.7940  -15.6316 C   0  0  0  0  0  0  0  0  0  0  0  0
  -19.3690    2.3990  -15.3621 C   0  0  0  0  0  0  0  0  0  0  0  0
  -19.0594    1.1167  -14.9072 C   0  0  0  0  0  0  0  0  0  0  0  0
  -17.7373    0.7511  -14.6593 C   0  0  0  0  0  0  0  0  0  0  0  0
  -16.6976    1.6687  -14.8601 C   0  0  0  0  0  0  0  0  0  0  0  0
  -17.0023    2.9554  -15.3232 C   0  0  0  0  0  0  0  0  0  0  0  0
  -18.3301    3.3134  -15.5775 C   0  0  0  0  0  0  0  0  0  0  0  0
  -12.7217   -2.2466  -14.5884 C   0  0  0  0  0  0  0  0  0  0  0  0
  -12.2887   -2.8379  -15.7591 C   0  0  0  0  0  0  0  0  0  0  0  0
  -12.6136   -4.1601  -15.7197 N   0  0  0  0  0  0  0  0  0  0  0  0
  -13.2046   -4.4867  -14.5183 C   0  0  0  0  0  0  0  0  0  0  0  0
  -13.2848   -3.2984  -13.7756 C   0  0  0  0  0  0  0  0  0  0  0  0
  -12.4341   -4.8212  -16.4631 H   0  0  0  0  0  0  0  0  0  0  0  0
  -13.6059   -5.8801  -14.2611 C   0  0  0  0  0  0  0  0  0  0  0  0
  -12.6495   -6.9093  -14.2763 C   0  0  0  0  0  0  0  0  0  0  0  0
  -13.0120   -8.2300  -13.9988 C   0  0  0  0  0  0  0  0  0  0  0  0
  -14.3314   -8.5365  -13.6782 C   0  0  0  0  0  0  0  0  0  0  0  0
  -15.2920   -7.5289  -13.6636 C   0  0  0  0  0  0  0  0  0  0  0  0
  -14.9355   -6.2157  -13.9801 C   0  0  0  0  0  0  0  0  0  0  0  0
  -13.8689   -3.1948  -12.4314 C   0  0  0  0  0  0  0  0  0  0  0  0
  -13.1621   -3.6093  -11.2939 C   0  0  0  0  0  0  0  0  0  0  0  0
  -13.7663   -3.6099  -10.0339 C   0  0  0  0  0  0  0  0  0  0  0  0
  -15.0628   -3.1271   -9.8818 C   0  0  0  0  0  0  0  0  0  0  0  0
  -15.7567   -2.6504  -10.9906 C   0  0  0  0  0  0  0  0  0  0  0  0
  -15.1706   -2.7016  -12.2591 C   0  0  0  0  0  0  0  0  0  0  0  0
 12 13  1  0  0  0
 13 14  1  0  0  0
 13 18  2  0  0  0
 14 15  2  0  0  0
 15 16  1  0  0  0
 16  1  1  0  0  0
 16 17  2  0  0  0
  1  2  1  0  0  0
  1 10  1  0  0  0
  2  3  2  0  0  0
  3  4  1  0  0  0
  3  9  1  0  0  0
  4 19  1  0  0  0
  4  5  2  0  0  0
 19 20  2  0  0  0
 19 23  1  0  0  0
 20 21  1  0  0  0
 21 22  1  0  0  0
 21 24  1  0  0  0
 22 25  1  0  0  0
 22 23  2  0  0  0
 25 26  1  0  0  0
 25 30  2  0  0  0
 26 27  2  0  0  0
 27 28  1  0  0  0
 28 29  2  0  0  0
 29 30  1  0  0  0
 23 31  1  0  0  0
 31 32  1  0  0  0
 31 36  2  0  0  0
 32 33  2  0  0  0
 33 34  1  0  0  0
 34 35  2  0  0  0
 35 36  1  0  0  0
  5  6  1  0  0  0
  6  7  2  0  0  0
  7  8  1  0  0  0
  7  9  1  0  0  0
  8 11  1  0  0  0
  9 10  2  0  0  0
 17 18  1  0  0  0
M  END
> <minimizedAffinity>
-8.59315

$$$$
