CHEMBL371695


 26 28  0  0  0  0  0  0  0  0999 V2000
  -28.0106   -3.4457   -8.7108 C   0  0  0  0  0  0  0  0  0  0  0  0
  -28.2121   -2.7224   -7.4337 C   0  0  0  0  0  0  0  0  0  0  0  0
  -27.5381   -1.5665   -7.2171 N   0  0  0  0  0  0  0  0  0  0  0  0
  -27.8678   -1.2144   -5.9479 N   0  0  0  0  0  0  0  0  0  0  0  0
  -28.6917   -2.1145   -5.3799 C   0  0  0  0  0  0  0  0  0  0  0  0
  -29.3795   -2.3566   -3.8991 S   0  0  0  0  0  0  0  0  0  0  0  0
  -30.0968   -3.8426   -4.4878 C   0  0  0  0  0  0  0  0  0  0  0  0
  -29.7800   -4.0857   -5.8350 C   0  0  0  0  0  0  0  0  0  0  0  0
  -28.9560   -3.0523   -6.2973 C   0  0  0  0  0  0  0  0  0  0  0  0
  -27.4579   -0.3781   -5.5502 H   0  0  0  0  0  0  0  0  0  0  0  0
  -30.9639   -4.6369   -3.6254 C   0  0  0  0  0  0  0  0  0  0  0  0
  -30.4419   -5.7928   -3.1079 N   0  0  0  0  0  0  0  0  0  0  0  0
  -32.1111   -4.3069   -3.3241 O   0  0  0  0  0  0  0  0  0  0  0  0
  -29.4730   -6.0431   -3.2551 H   0  0  0  0  0  0  0  0  0  0  0  0
  -30.9866   -6.3004   -2.4300 H   0  0  0  0  0  0  0  0  0  0  0  0
  -30.2345   -5.2176   -6.5037 N   0  0  0  0  0  0  0  0  0  0  0  0
  -29.6634   -6.4640   -6.3621 C   0  0  0  0  0  0  0  0  0  0  0  0
  -28.6415   -6.7016   -5.7273 O   0  0  0  0  0  0  0  0  0  0  0  0
  -30.7545   -5.0444   -7.3640 H   0  0  0  0  0  0  0  0  0  0  0  0
  -30.2631   -7.5516   -7.1880 C   0  0  0  0  0  0  0  0  0  0  0  0
  -31.6048   -7.8754   -6.9173 C   0  0  0  0  0  0  0  0  0  0  0  0
  -32.2227   -8.9485   -7.5592 C   0  0  0  0  0  0  0  0  0  0  0  0
  -31.5106   -9.7041   -8.4854 C   0  0  0  0  0  0  0  0  0  0  0  0
  -30.1983   -9.3567   -8.8049 C   0  0  0  0  0  0  0  0  0  0  0  0
  -29.5755   -8.2727   -8.1737 C   0  0  0  0  0  0  0  0  0  0  0  0
  -27.9826   -7.8790   -8.7208 Cl  0  0  0  0  0  0  0  0  0  0  0  0
  1  2  1  0  0  0
  2  3  2  0  0  0
  2  9  1  0  0  0
  3  4  1  0  0  0
  4  5  1  0  0  0
  4 10  1  0  0  0
  5  6  1  0  0  0
  5  9  2  0  0  0
  6  7  1  0  0  0
  7 11  1  0  0  0
  7  8  2  0  0  0
 11 12  1  0  0  0
 11 13  2  0  0  0
 12 14  1  0  0  0
 12 15  1  0  0  0
  8 16  1  0  0  0
  8  9  1  0  0  0
 16 17  1  0  0  0
 16 19  1  0  0  0
 17 18  2  0  0  0
 17 20  1  0  0  0
 20 21  1  0  0  0
 20 25  2  0  0  0
 21 22  2  0  0  0
 22 23  1  0  0  0
 23 24  2  0  0  0
 24 25  1  0  0  0
 25 26  1  0  0  0
M  END
> <minimizedAffinity>
-7.86199

$$$$
