CHEMBL2430250


 37 40  0  0  0  0  0  0  0  0999 V2000
  -29.6684   -7.6848   -6.9131 C   0  0  0  0  0  0  0  0  0  0  0  0
  -28.7480   -7.3564   -7.9017 C   0  0  0  0  0  0  0  0  0  0  0  0
  -27.9916   -8.2078   -8.8625 C   0  0  0  0  0  0  0  0  0  0  0  0
  -28.5357   -5.9815   -7.8423 N   0  0  0  0  0  0  0  0  0  0  0  0
  -29.2793   -5.4294   -6.8292 C   0  0  0  0  0  0  0  0  0  0  0  0
  -29.9650   -6.4692   -6.2328 C   0  0  0  0  0  0  0  0  0  0  0  0
  -30.8647   -6.3422   -5.0592 C   0  0  0  0  0  0  0  0  0  0  0  0
  -31.1083   -4.9212   -4.5952 C   0  0  0  0  0  0  0  0  0  0  0  0
  -30.2252   -3.8133   -5.1703 C   0  0  0  0  0  0  0  0  0  0  0  0
  -29.3446   -4.0611   -6.4001 C   0  0  0  0  0  0  0  0  0  0  0  0
  -28.7370   -2.9837   -6.9645 C   0  0  0  0  0  0  0  0  0  0  0  0
  -27.8807   -2.9157   -8.2129 C   0  0  0  0  0  0  0  0  0  0  0  0
  -27.4756   -3.8270   -8.9128 O   0  0  0  0  0  0  0  0  0  0  0  0
  -27.6341   -1.5717   -8.4300 N   0  0  0  0  0  0  0  0  0  0  0  0
  -28.1979   -0.7699   -7.4418 C   0  0  0  0  0  0  0  0  0  0  0  0
  -28.1330    0.6156   -7.3626 C   0  0  0  0  0  0  0  0  0  0  0  0
  -28.7516    1.2376   -6.2748 C   0  0  0  0  0  0  0  0  0  0  0  0
  -29.3809    0.4643   -5.3034 C   0  0  0  0  0  0  0  0  0  0  0  0
  -29.9686    1.0600   -4.2560 F   0  0  0  0  0  0  0  0  0  0  0  0
  -29.4213   -0.9239   -5.3965 C   0  0  0  0  0  0  0  0  0  0  0  0
  -28.8500   -1.5583   -6.4970 C   0  0  0  0  0  0  0  0  0  0  0  0
  -27.9021   -5.4674   -8.4493 H   0  0  0  0  0  0  0  0  0  0  0  0
  -27.0854   -1.2407   -9.2072 H   0  0  0  0  0  0  0  0  0  0  0  0
  -29.4088   -9.8041   -5.8169 N   0  0  0  0  0  0  0  0  0  0  0  0
  -30.2368   -8.9779   -6.5300 C   0  0  0  0  0  0  0  0  0  0  0  0
  -31.3507   -9.3375   -6.9041 O   0  0  0  0  0  0  0  0  0  0  0  0
  -28.5143   -9.4560   -5.5002 H   0  0  0  0  0  0  0  0  0  0  0  0
  -29.8405  -11.1175   -5.3771 C   0  0  0  0  0  0  0  0  0  0  0  0
  -29.3930  -11.3772   -3.9350 C   0  0  0  0  0  0  0  0  0  0  0  0
  -29.5233  -10.1489   -3.2002 O   0  0  0  0  0  0  0  0  0  0  0  0
  -28.7478   -9.6017   -3.4098 H   0  0  0  0  0  0  0  0  0  0  0  0
  -27.9358  -11.9122   -3.9099 C   0  0  0  0  0  0  0  0  0  0  0  0
  -26.9222  -11.0205   -4.5174 N   0  0  0  0  0  0  0  0  0  0  0  0
  -25.5047   -9.0373   -3.8485 C   0  0  0  0  0  0  0  0  0  0  0  0
  -26.0494  -10.4177   -3.4947 C   0  0  0  0  0  0  0  0  0  0  0  0
  -26.1939  -11.6858   -5.6118 C   0  0  0  0  0  0  0  0  0  0  0  0
  -26.1978  -10.9814   -6.9667 C   0  0  0  0  0  0  0  0  0  0  0  0
 34 35  1  0  0  0
 35 33  1  0  0  0
 33 36  1  0  0  0
 33 32  1  0  0  0
 36 37  1  0  0  0
 32 29  1  0  0  0
 29 30  1  0  0  0
 29 28  1  0  0  0
 30 31  1  0  0  0
 28 24  1  0  0  0
 24 25  1  0  0  0
 24 27  1  0  0  0
 25 26  2  0  0  0
 25  1  1  0  0  0
  1  2  2  0  0  0
  1  6  1  0  0  0
  2  3  1  0  0  0
  2  4  1  0  0  0
  4  5  1  0  0  0
  4 22  1  0  0  0
  5  6  2  0  0  0
  5 10  1  0  0  0
  6  7  1  0  0  0
  7  8  1  0  0  0
  8  9  1  0  0  0
  9 10  1  0  0  0
 10 11  2  0  0  0
 11 12  1  0  0  0
 11 21  1  0  0  0
 12 13  2  0  0  0
 12 14  1  0  0  0
 14 15  1  0  0  0
 14 23  1  0  0  0
 15 16  1  0  0  0
 15 21  2  0  0  0
 16 17  2  0  0  0
 17 18  1  0  0  0
 18 19  1  0  0  0
 18 20  2  0  0  0
 20 21  1  0  0  0
M  END
> <minimizedAffinity>
-8.08286

$$$$
