CHEMBL3946242


 35 39  0  0  0  0  0  0  0  0999 V2000
  -18.0824    1.0992  -15.1480 C   0  0  0  0  0  0  0  0  0  0  0  0
  -19.3802    0.6274  -14.9545 C   0  0  0  0  0  0  0  0  0  0  0  0
  -20.4312    1.5025  -14.6281 C   0  0  0  0  0  0  0  0  0  0  0  0
  -21.7256    1.0875  -14.2947 C   0  0  0  0  0  0  0  0  0  0  0  0
  -22.7112    1.9608  -14.0289 N   0  0  0  0  0  0  0  0  0  0  0  0
  -22.3816    3.2558  -14.0668 C   0  0  0  0  0  0  0  0  0  0  0  0
  -21.1776    3.7611  -14.3617 N   0  0  0  0  0  0  0  0  0  0  0  0
  -20.2105    2.8839  -14.6369 C   0  0  0  0  0  0  0  0  0  0  0  0
  -18.9389    3.3493  -14.9371 C   0  0  0  0  0  0  0  0  0  0  0  0
  -17.8581    2.4836  -15.1532 C   0  0  0  0  0  0  0  0  0  0  0  0
  -16.3596   -0.1152  -14.0953 C   0  0  0  0  0  0  0  0  0  0  0  0
  -17.0162    0.2495  -15.3138 O   0  0  0  0  0  0  0  0  0  0  0  0
  -21.9853   -0.2971  -14.1722 N   0  0  0  0  0  0  0  0  0  0  0  0
  -21.1302   -0.8421  -14.2357 H   0  0  0  0  0  0  0  0  0  0  0  0
  -23.0041   -0.9236  -13.4318 C   0  0  0  0  0  0  0  0  0  0  0  0
  -22.8294   -1.2536  -12.0827 C   0  0  0  0  0  0  0  0  0  0  0  0
  -23.9078   -1.6978  -11.3183 C   0  0  0  0  0  0  0  0  0  0  0  0
  -25.1716   -1.8106  -11.8965 C   0  0  0  0  0  0  0  0  0  0  0  0
  -26.2000   -2.1808  -11.1179 F   0  0  0  0  0  0  0  0  0  0  0  0
  -25.3668   -1.5154  -13.2405 C   0  0  0  0  0  0  0  0  0  0  0  0
  -26.9293   -1.6616  -13.9493 Cl  0  0  0  0  0  0  0  0  0  0  0  0
  -24.2860   -1.0680  -13.9972 C   0  0  0  0  0  0  0  0  0  0  0  0
  -24.4541   -0.7426  -15.2912 F   0  0  0  0  0  0  0  0  0  0  0  0
  -16.5785    2.9329  -15.3727 O   0  0  0  0  0  0  0  0  0  0  0  0
  -16.4569    4.1212  -16.1704 C   0  0  0  0  0  0  0  0  0  0  0  0
  -15.0914    4.1657  -16.8650 C   0  0  0  0  0  0  0  0  0  0  0  0
  -15.0806    5.2764  -17.9319 C   0  0  0  0  0  0  0  0  0  0  0  0
  -13.7673    5.3185  -18.5954 N   0  0  0  0  0  0  0  0  0  0  0  0
  -13.7133    6.3952  -19.5945 C   0  0  0  0  0  0  0  0  0  0  0  0
  -12.4608    6.3262  -20.4869 C   0  0  0  0  0  0  0  0  0  0  0  0
  -12.2206    5.0139  -21.0157 O   0  0  0  0  0  0  0  0  0  0  0  0
  -12.1643    4.0459  -19.9548 C   0  0  0  0  0  0  0  0  0  0  0  0
  -13.5164    3.9999  -19.2317 C   0  0  0  0  0  0  0  0  0  0  0  0
  -13.5708    2.8837  -18.1708 C   0  0  0  0  0  0  0  0  0  0  0  0
  -14.8320    2.8786  -17.4721 O   0  0  0  0  0  0  0  0  0  0  0  0
 11 12  1  0  0  0
 12  1  1  0  0  0
  1  2  1  0  0  0
  1 10  2  0  0  0
  2  3  2  0  0  0
  3  4  1  0  0  0
  3  8  1  0  0  0
  4 13  1  0  0  0
  4  5  2  0  0  0
 13 15  1  0  0  0
 13 14  1  0  0  0
 15 16  1  0  0  0
 15 22  2  0  0  0
 16 17  2  0  0  0
 17 18  1  0  0  0
 18 19  1  0  0  0
 18 20  2  0  0  0
 20 21  1  0  0  0
 20 22  1  0  0  0
 22 23  1  0  0  0
  5  6  1  0  0  0
  6  7  2  0  0  0
  7  8  1  0  0  0
  8  9  2  0  0  0
  9 10  1  0  0  0
 10 24  1  0  0  0
 24 25  1  0  0  0
 26 27  1  0  0  0
 26 35  1  0  0  0
 26 25  1  0  0  0
 27 28  1  0  0  0
 28 29  1  0  0  0
 28 33  1  0  0  0
 29 30  1  0  0  0
 30 31  1  0  0  0
 31 32  1  0  0  0
 32 33  1  0  0  0
 33 34  1  0  0  0
 34 35  1  0  0  0
M  END
> <minimizedAffinity>
-9.96742

$$$$
