CHEMBL370193


 30 33  0  0  0  0  0  0  0  0999 V2000
  -28.6467   -4.8755   -6.8421 C   0  0  0  0  0  0  0  0  0  0  0  0
  -28.1350   -5.0367   -8.0824 N   0  0  0  0  0  0  0  0  0  0  0  0
  -27.8036   -3.9502   -8.8564 N   0  0  0  0  0  0  0  0  0  0  0  0
  -27.9075   -2.6936   -8.3828 C   0  0  0  0  0  0  0  0  0  0  0  0
  -28.3956   -2.4676   -7.0795 C   0  0  0  0  0  0  0  0  0  0  0  0
  -28.4363   -1.1802   -6.4807 C   0  0  0  0  0  0  0  0  0  0  0  0
  -28.9944   -0.9657   -5.2219 C   0  0  0  0  0  0  0  0  0  0  0  0
  -29.5923   -2.0200   -4.5569 C   0  0  0  0  0  0  0  0  0  0  0  0
  -29.5502   -3.2961   -5.1122 C   0  0  0  0  0  0  0  0  0  0  0  0
  -28.8716   -3.5751   -6.3276 C   0  0  0  0  0  0  0  0  0  0  0  0
  -29.1828   -8.6645   -4.7954 C   0  0  0  0  0  0  0  0  0  0  0  0
  -29.9988   -8.3264   -5.8731 C   0  0  0  0  0  0  0  0  0  0  0  0
  -29.8687   -7.0770   -6.4899 C   0  0  0  0  0  0  0  0  0  0  0  0
  -28.8747   -6.1556   -6.1090 C   0  0  0  0  0  0  0  0  0  0  0  0
  -28.1264   -6.4846   -4.9612 C   0  0  0  0  0  0  0  0  0  0  0  0
  -28.2809   -7.7172   -4.3052 C   0  0  0  0  0  0  0  0  0  0  0  0
  -30.0207  -10.9503   -4.9373 N   0  0  0  0  0  0  0  0  0  0  0  0
  -29.3204  -10.0268   -4.2132 C   0  0  0  0  0  0  0  0  0  0  0  0
  -28.8851  -10.3018   -3.1019 O   0  0  0  0  0  0  0  0  0  0  0  0
  -30.2199  -11.8272   -4.4722 H   0  0  0  0  0  0  0  0  0  0  0  0
  -30.5898  -10.7066   -5.7354 H   0  0  0  0  0  0  0  0  0  0  0  0
  -27.5675   -1.5788   -9.2058 N   0  0  0  0  0  0  0  0  0  0  0  0
  -28.3507   -0.9313   -9.2011 H   0  0  0  0  0  0  0  0  0  0  0  0
  -26.9372   -1.6006  -10.4732 C   0  0  0  0  0  0  0  0  0  0  0  0
  -27.7303   -1.6567  -11.6323 C   0  0  0  0  0  0  0  0  0  0  0  0
  -27.1502   -1.6467  -12.9060 C   0  0  0  0  0  0  0  0  0  0  0  0
  -25.7676   -1.5523  -13.0407 C   0  0  0  0  0  0  0  0  0  0  0  0
  -24.9768   -1.4452  -11.9007 C   0  0  0  0  0  0  0  0  0  0  0  0
  -23.1001   -1.2881  -12.0729 Br  0  0  0  0  0  0  0  0  0  0  0  0
  -25.5544   -1.4493  -10.6299 C   0  0  0  0  0  0  0  0  0  0  0  0
 17 18  1  0  0  0
 17 20  1  0  0  0
 17 21  1  0  0  0
 18 19  2  0  0  0
 18 11  1  0  0  0
 11 12  1  0  0  0
 11 16  2  0  0  0
 12 13  2  0  0  0
 13 14  1  0  0  0
 14  1  1  0  0  0
 14 15  2  0  0  0
  1  2  1  0  0  0
  1 10  2  0  0  0
  2  3  2  0  0  0
  3  4  1  0  0  0
  4 22  1  0  0  0
  4  5  2  0  0  0
 22 24  1  0  0  0
 22 23  1  0  0  0
 24 25  1  0  0  0
 24 30  2  0  0  0
 25 26  2  0  0  0
 26 27  1  0  0  0
 27 28  2  0  0  0
 28 29  1  0  0  0
 28 30  1  0  0  0
  5  6  1  0  0  0
  5 10  1  0  0  0
  6  7  2  0  0  0
  7  8  1  0  0  0
  8  9  2  0  0  0
  9 10  1  0  0  0
 15 16  1  0  0  0
M  END
> <minimizedAffinity>
-9.18502

$$$$
