CHEMBL606466


 42 47  0  0  0  0  0  0  0  0999 V2000
  -29.4696   -5.5410   -7.2156 C   0  0  0  0  0  0  0  0  0  0  0  0
  -28.9400   -4.5517   -8.0338 C   0  0  0  0  0  0  0  0  0  0  0  0
  -28.7026   -3.2555   -7.5493 C   0  0  0  0  0  0  0  0  0  0  0  0
  -28.2522   -2.2130   -8.3634 C   0  0  0  0  0  0  0  0  0  0  0  0
  -27.9526   -1.0048   -7.8627 N   0  0  0  0  0  0  0  0  0  0  0  0
  -28.1420   -0.8321   -6.5504 C   0  0  0  0  0  0  0  0  0  0  0  0
  -28.6186   -1.7456   -5.6953 N   0  0  0  0  0  0  0  0  0  0  0  0
  -28.8912   -2.9533   -6.1973 C   0  0  0  0  0  0  0  0  0  0  0  0
  -29.3704   -3.9613   -5.3714 C   0  0  0  0  0  0  0  0  0  0  0  0
  -29.6645   -5.2482   -5.8518 C   0  0  0  0  0  0  0  0  0  0  0  0
  -28.7403   -7.5711   -8.2884 C   0  0  0  0  0  0  0  0  0  0  0  0
  -29.7670   -6.7813   -7.6994 O   0  0  0  0  0  0  0  0  0  0  0  0
  -28.1519   -2.4376   -9.7662 N   0  0  0  0  0  0  0  0  0  0  0  0
  -29.0568   -2.2884  -10.1985 H   0  0  0  0  0  0  0  0  0  0  0  0
  -27.0800   -1.9824  -10.5547 C   0  0  0  0  0  0  0  0  0  0  0  0
  -25.9025   -1.5586   -9.9366 C   0  0  0  0  0  0  0  0  0  0  0  0
  -24.8643   -1.0079  -10.6789 C   0  0  0  0  0  0  0  0  0  0  0  0
  -24.9751   -0.8616  -12.0680 C   0  0  0  0  0  0  0  0  0  0  0  0
  -26.1247   -1.3769  -12.6924 C   0  0  0  0  0  0  0  0  0  0  0  0
  -26.3116   -1.3343  -14.0519 O   0  0  0  0  0  0  0  0  0  0  0  0
  -27.1673   -1.9371  -11.9478 C   0  0  0  0  0  0  0  0  0  0  0  0
  -25.4843   -0.9954  -14.4566 H   0  0  0  0  0  0  0  0  0  0  0  0
  -23.9337   -0.1652  -12.8377 C   0  0  0  0  0  0  0  0  0  0  0  0
  -23.8288    1.1466  -12.9197 N   0  0  0  0  0  0  0  0  0  0  0  0
  -22.7310    1.4797  -13.7071 C   0  0  0  0  0  0  0  0  0  0  0  0
  -22.3299    2.7876  -14.0594 C   0  0  0  0  0  0  0  0  0  0  0  0
  -21.1886    2.9736  -14.8464 C   0  0  0  0  0  0  0  0  0  0  0  0
  -20.4439    1.8807  -15.2823 C   0  0  0  0  0  0  0  0  0  0  0  0
  -20.8260    0.5824  -14.9549 C   0  0  0  0  0  0  0  0  0  0  0  0
  -21.9730    0.4056  -14.1689 C   0  0  0  0  0  0  0  0  0  0  0  0
  -22.6787   -1.0524  -13.6186 S   0  0  0  0  0  0  0  0  0  0  0  0
  -30.1264   -6.0911   -4.8652 O   0  0  0  0  0  0  0  0  0  0  0  0
  -29.1538   -6.5232   -3.9244 C   0  0  0  0  0  0  0  0  0  0  0  0
  -28.0903   -7.3829   -4.5787 C   0  0  0  0  0  0  0  0  0  0  0  0
  -28.6523   -8.8049   -4.7009 C   0  0  0  0  0  0  0  0  0  0  0  0
  -27.6187   -9.8359   -4.6834 N   0  0  0  0  0  0  0  0  0  0  0  0
  -26.8885   -9.9292   -5.9589 C   0  0  0  0  0  0  0  0  0  0  0  0
  -25.8401  -11.0580   -5.9034 C   0  0  0  0  0  0  0  0  0  0  0  0
  -24.8463  -10.9177   -4.8218 N   0  0  0  0  0  0  0  0  0  0  0  0
  -23.8899   -9.8537   -5.1138 C   0  0  0  0  0  0  0  0  0  0  0  0
  -25.5527  -10.6836   -3.5442 C   0  0  0  0  0  0  0  0  0  0  0  0
  -26.6556   -9.5977   -3.5879 C   0  0  0  0  0  0  0  0  0  0  0  0
 11 12  1  0  0  0
 12  1  1  0  0  0
  1  2  1  0  0  0
  1 10  2  0  0  0
  2  3  2  0  0  0
  3  4  1  0  0  0
  3  8  1  0  0  0
  4 13  1  0  0  0
  4  5  2  0  0  0
 13 15  1  0  0  0
 13 14  1  0  0  0
 15 16  1  0  0  0
 15 21  2  0  0  0
 16 17  2  0  0  0
 17 18  1  0  0  0
 18 23  1  0  0  0
 18 19  2  0  0  0
 23 24  2  0  0  0
 23 31  1  0  0  0
 24 25  1  0  0  0
 25 26  1  0  0  0
 25 30  2  0  0  0
 26 27  2  0  0  0
 27 28  1  0  0  0
 28 29  2  0  0  0
 29 30  1  0  0  0
 30 31  1  0  0  0
 19 20  1  0  0  0
 19 21  1  0  0  0
 20 22  1  0  0  0
  5  6  1  0  0  0
  6  7  2  0  0  0
  7  8  1  0  0  0
  8  9  2  0  0  0
  9 10  1  0  0  0
 10 32  1  0  0  0
 32 33  1  0  0  0
 33 34  1  0  0  0
 34 35  1  0  0  0
 35 36  1  0  0  0
 36 37  1  0  0  0
 36 42  1  0  0  0
 37 38  1  0  0  0
 38 39  1  0  0  0
 39 40  1  0  0  0
 39 41  1  0  0  0
 41 42  1  0  0  0
M  END
> <minimizedAffinity>
-9.77842

$$$$
