CHEMBL215971


 19 22  0  0  0  0  0  0  0  0999 V2000
  -15.4213   -3.1168  -11.1318 C   0  0  0  0  0  0  0  0  0  0  0  0
  -15.3823   -1.8911  -11.7078 N   0  0  0  0  0  0  0  0  0  0  0  0
  -15.6709   -2.1743  -12.9953 N   0  0  0  0  0  0  0  0  0  0  0  0
  -16.0532   -3.4819  -13.1536 C   0  0  0  0  0  0  0  0  0  0  0  0
  -16.4224   -3.8682  -11.8655 C   0  0  0  0  0  0  0  0  0  0  0  0
  -16.8093   -5.3260  -11.8724 C   0  0  0  0  0  0  0  0  0  0  0  0
  -15.7400   -5.7437  -12.8692 C   0  0  0  0  0  0  0  0  0  0  0  0
  -14.9953   -6.9077  -12.7604 C   0  0  0  0  0  0  0  0  0  0  0  0
  -13.7536   -6.9389  -13.3843 C   0  0  0  0  0  0  0  0  0  0  0  0
  -13.3072   -5.8404  -14.1473 C   0  0  0  0  0  0  0  0  0  0  0  0
  -14.0934   -4.6888  -14.3142 C   0  0  0  0  0  0  0  0  0  0  0  0
  -15.3209   -4.6425  -13.6791 C   0  0  0  0  0  0  0  0  0  0  0  0
  -15.6821   -1.4201  -13.6728 H   0  0  0  0  0  0  0  0  0  0  0  0
  -11.8598   -5.0007   -9.5772 C   0  0  0  0  0  0  0  0  0  0  0  0
  -11.8031   -4.1889  -10.7035 C   0  0  0  0  0  0  0  0  0  0  0  0
  -12.9519   -3.5181  -11.1331 C   0  0  0  0  0  0  0  0  0  0  0  0
  -14.1863   -3.6355  -10.4598 C   0  0  0  0  0  0  0  0  0  0  0  0
  -14.2102   -4.4459   -9.3163 C   0  0  0  0  0  0  0  0  0  0  0  0
  -13.0615   -5.1287   -8.8845 C   0  0  0  0  0  0  0  0  0  0  0  0
 14 15  1  0  0  0
 14 19  2  0  0  0
 15 16  2  0  0  0
 16 17  1  0  0  0
 17  1  1  0  0  0
 17 18  2  0  0  0
  1  2  2  0  0  0
  1  5  1  0  0  0
  2  3  1  0  0  0
  3  4  1  0  0  0
  3 13  1  0  0  0
  4  5  2  0  0  0
  4 12  1  0  0  0
  5  6  1  0  0  0
  6  7  1  0  0  0
  7  8  1  0  0  0
  7 12  2  0  0  0
  8  9  2  0  0  0
  9 10  1  0  0  0
 10 11  2  0  0  0
 11 12  1  0  0  0
 18 19  1  0  0  0
M  END
> <minimizedAffinity>
-6.67569

$$$$
