CHEMBL3656103


 45 48  0  0  0  0  0  0  0  0999 V2000
  -30.4708   -6.0809   -5.4501 C   0  0  0  0  0  0  0  0  0  0  0  0
  -30.5141   -5.6051   -4.1427 C   0  0  0  0  0  0  0  0  0  0  0  0
  -29.8711   -4.4170   -3.8640 C   0  0  0  0  0  0  0  0  0  0  0  0
  -29.2597   -3.6601   -4.7983 N   0  0  0  0  0  0  0  0  0  0  0  0
  -29.2959   -4.1045   -6.0812 C   0  0  0  0  0  0  0  0  0  0  0  0
  -29.8854   -5.3073   -6.4501 C   0  0  0  0  0  0  0  0  0  0  0  0
  -28.6726   -3.1853   -7.0323 C   0  0  0  0  0  0  0  0  0  0  0  0
  -28.4677   -3.2324   -8.4031 C   0  0  0  0  0  0  0  0  0  0  0  0
  -27.8412   -2.0128   -8.8232 C   0  0  0  0  0  0  0  0  0  0  0  0
  -27.6607   -1.2744   -7.6675 C   0  0  0  0  0  0  0  0  0  0  0  0
  -28.1590   -1.9774   -6.6110 N   0  0  0  0  0  0  0  0  0  0  0  0
  -28.1833   -1.6783   -5.6413 H   0  0  0  0  0  0  0  0  0  0  0  0
  -27.4438   -1.5459  -10.1560 C   0  0  0  0  0  0  0  0  0  0  0  0
  -28.2042   -0.9032  -10.8713 O   0  0  0  0  0  0  0  0  0  0  0  0
  -26.1770   -1.9030  -10.5333 N   0  0  0  0  0  0  0  0  0  0  0  0
  -25.5657   -2.4365   -9.9400 H   0  0  0  0  0  0  0  0  0  0  0  0
  -25.5862   -1.4846  -11.9916 S   0  0  0  0  0  0  0  0  0  0  0  0
  -26.5829   -1.7918  -13.3762 C   0  0  0  0  0  0  0  0  0  0  0  0
  -25.4226   -0.0535  -12.0267 O   0  0  0  0  0  0  0  0  0  0  0  0
  -23.9515   -1.9872  -12.2996 C   0  0  0  0  0  0  0  0  0  0  0  0
  -23.0230   -1.6829  -13.4462 C   0  0  0  0  0  0  0  0  0  0  0  0
  -22.4245   -0.3039  -13.3709 C   0  0  0  0  0  0  0  0  0  0  0  0
  -22.0401    0.3448  -14.3291 O   0  0  0  0  0  0  0  0  0  0  0  0
  -22.3650    0.1698  -12.1052 O   0  0  0  0  0  0  0  0  0  0  0  0
  -22.7243   -0.4425  -11.4334 H   0  0  0  0  0  0  0  0  0  0  0  0
  -31.0263   -7.2875   -5.8229 O   0  0  0  0  0  0  0  0  0  0  0  0
  -28.4657  -10.4942   -6.6272 C   0  0  0  0  0  0  0  0  0  0  0  0
  -29.1830   -9.8564   -7.6481 C   0  0  0  0  0  0  0  0  0  0  0  0
  -30.0477   -8.7932   -7.3543 C   0  0  0  0  0  0  0  0  0  0  0  0
  -30.1908   -8.3639   -6.0366 C   0  0  0  0  0  0  0  0  0  0  0  0
  -29.4541   -8.9898   -5.0210 C   0  0  0  0  0  0  0  0  0  0  0  0
  -28.6365  -10.0852   -5.3057 C   0  0  0  0  0  0  0  0  0  0  0  0
  -25.2964  -12.2200   -6.9905 N   0  0  0  0  0  0  0  0  0  0  0  0
  -26.1481  -11.1478   -6.7701 C   0  0  0  0  0  0  0  0  0  0  0  0
  -25.7902  -10.0207   -6.4379 O   0  0  0  0  0  0  0  0  0  0  0  0
  -27.4888  -11.4854   -6.9143 N   0  0  0  0  0  0  0  0  0  0  0  0
  -25.6824  -13.0312   -7.4541 H   0  0  0  0  0  0  0  0  0  0  0  0
  -27.7056  -12.4205   -6.6006 H   0  0  0  0  0  0  0  0  0  0  0  0
  -21.4726  -12.4652   -3.8252 C   0  0  0  0  0  0  0  0  0  0  0  0
  -22.0096  -12.3245   -5.2192 C   0  0  0  0  0  0  0  0  0  0  0  0
  -21.1166  -12.1925   -6.2877 C   0  0  0  0  0  0  0  0  0  0  0  0
  -21.5959  -12.0568   -7.5820 C   0  0  0  0  0  0  0  0  0  0  0  0
  -22.9694  -12.0536   -7.8203 C   0  0  0  0  0  0  0  0  0  0  0  0
  -23.8916  -12.2041   -6.7778 C   0  0  0  0  0  0  0  0  0  0  0  0
  -23.3975  -12.3320   -5.4716 C   0  0  0  0  0  0  0  0  0  0  0  0
 39 40  1  0  0  0
 40 41  1  0  0  0
 40 45  2  0  0  0
 41 42  2  0  0  0
 42 43  1  0  0  0
 43 44  2  0  0  0
 44 33  1  0  0  0
 44 45  1  0  0  0
 33 34  1  0  0  0
 33 37  1  0  0  0
 34 35  2  0  0  0
 34 36  1  0  0  0
 36 27  1  0  0  0
 36 38  1  0  0  0
 27 28  1  0  0  0
 27 32  2  0  0  0
 28 29  2  0  0  0
 29 30  1  0  0  0
 30 26  1  0  0  0
 30 31  2  0  0  0
 26  1  1  0  0  0
  1  2  1  0  0  0
  1  6  2  0  0  0
  2  3  2  0  0  0
  3  4  1  0  0  0
  4  5  2  0  0  0
  5  7  1  0  0  0
  5  6  1  0  0  0
  7  8  2  0  0  0
  7 11  1  0  0  0
  8  9  1  0  0  0
  9 13  1  0  0  0
  9 10  2  0  0  0
 13 14  2  0  0  0
 13 15  1  0  0  0
 15 17  1  0  0  0
 15 16  1  0  0  0
 17 18  1  0  0  0
 17 19  2  0  0  0
 17 20  2  0  0  0
 20 21  1  0  0  0
 21 22  1  0  0  0
 22 23  2  0  0  0
 22 24  1  0  0  0
 24 25  1  0  0  0
 10 11  1  0  0  0
 11 12  1  0  0  0
 31 32  1  0  0  0
M  END
> <minimizedAffinity>
-9.60137

$$$$
