CHEMBL465016


 38 41  0  0  0  0  0  0  0  0999 V2000
  -29.1064   -2.6040   -5.8673 C   0  0  0  0  0  0  0  0  0  0  0  0
  -30.0469   -3.4700   -6.4692 C   0  0  0  0  0  0  0  0  0  0  0  0
  -30.0240   -4.8592   -6.2227 C   0  0  0  0  0  0  0  0  0  0  0  0
  -29.0420   -5.3727   -5.3913 C   0  0  0  0  0  0  0  0  0  0  0  0
  -28.1476   -4.4841   -4.7778 C   0  0  0  0  0  0  0  0  0  0  0  0
  -28.1609   -3.1190   -4.9775 C   0  0  0  0  0  0  0  0  0  0  0  0
  -27.2033   -5.1646   -4.0249 N   0  0  0  0  0  0  0  0  0  0  0  0
  -27.3395   -6.5303   -4.1682 C   0  0  0  0  0  0  0  0  0  0  0  0
  -26.4976   -7.3512   -3.8627 O   0  0  0  0  0  0  0  0  0  0  0  0
  -28.6386   -6.7224   -4.9360 C   0  0  0  0  0  0  0  0  0  0  0  0
  -29.1740   -7.9560   -5.0911 C   0  0  0  0  0  0  0  0  0  0  0  0
  -26.3938   -4.7553   -3.5849 H   0  0  0  0  0  0  0  0  0  0  0  0
  -30.2374   -8.1907   -6.0905 C   0  0  0  0  0  0  0  0  0  0  0  0
  -31.5447   -7.7724   -5.7966 C   0  0  0  0  0  0  0  0  0  0  0  0
  -32.5659   -7.9399   -6.7335 C   0  0  0  0  0  0  0  0  0  0  0  0
  -32.2897   -8.5281   -7.9666 C   0  0  0  0  0  0  0  0  0  0  0  0
  -30.9929   -8.9429   -8.2676 C   0  0  0  0  0  0  0  0  0  0  0  0
  -29.9655   -8.7669   -7.3343 C   0  0  0  0  0  0  0  0  0  0  0  0
  -29.0176   -1.1503   -6.1748 C   0  0  0  0  0  0  0  0  0  0  0  0
  -28.2903   -0.6984   -7.0479 O   0  0  0  0  0  0  0  0  0  0  0  0
  -29.9093    0.9582   -5.7465 C   0  0  0  0  0  0  0  0  0  0  0  0
  -29.8637   -0.4285   -5.4009 O   0  0  0  0  0  0  0  0  0  0  0  0
  -28.8085   -9.1127   -4.4096 N   0  0  0  0  0  0  0  0  0  0  0  0
  -29.2906   -9.2888   -3.5377 H   0  0  0  0  0  0  0  0  0  0  0  0
  -27.7758  -10.0051   -4.7556 C   0  0  0  0  0  0  0  0  0  0  0  0
  -27.2773  -10.9255   -3.8419 C   0  0  0  0  0  0  0  0  0  0  0  0
  -26.1183  -11.6651   -4.1082 C   0  0  0  0  0  0  0  0  0  0  0  0
  -25.4097  -11.4961   -5.2916 C   0  0  0  0  0  0  0  0  0  0  0  0
  -25.9586  -10.6591   -6.2650 C   0  0  0  0  0  0  0  0  0  0  0  0
  -27.1335   -9.9205   -5.9989 C   0  0  0  0  0  0  0  0  0  0  0  0
  -24.1428  -12.0977   -5.5183 N   0  0  0  0  0  0  0  0  0  0  0  0
  -22.9188  -11.6199   -5.0694 C   0  0  0  0  0  0  0  0  0  0  0  0
  -22.7314  -10.6668   -4.3202 O   0  0  0  0  0  0  0  0  0  0  0  0
  -24.1047  -12.8536   -6.1901 H   0  0  0  0  0  0  0  0  0  0  0  0
  -21.7133  -12.4288   -5.5651 C   0  0  0  0  0  0  0  0  0  0  0  0
  -21.3094  -12.0590   -6.9416 N   0  0  0  0  0  0  0  0  0  0  0  0
  -22.3347  -12.4627   -7.9174 C   0  0  0  0  0  0  0  0  0  0  0  0
  -21.1462  -10.6005   -7.0107 C   0  0  0  0  0  0  0  0  0  0  0  0
 21 22  1  0  0  0
 22 19  1  0  0  0
 19 20  2  0  0  0
 19  1  1  0  0  0
  1  2  1  0  0  0
  1  6  2  0  0  0
  2  3  2  0  0  0
  3  4  1  0  0  0
  4  5  2  0  0  0
  4 10  1  0  0  0
  5  6  1  0  0  0
  5  7  1  0  0  0
  7  8  1  0  0  0
  7 12  1  0  0  0
  8  9  2  0  0  0
  8 10  1  0  0  0
 10 11  2  0  0  0
 11 23  1  0  0  0
 11 13  1  0  0  0
 23 25  1  0  0  0
 23 24  1  0  0  0
 25 26  1  0  0  0
 25 30  2  0  0  0
 26 27  2  0  0  0
 27 28  1  0  0  0
 28 31  1  0  0  0
 28 29  2  0  0  0
 31 32  1  0  0  0
 31 34  1  0  0  0
 32 33  2  0  0  0
 32 35  1  0  0  0
 35 36  1  0  0  0
 36 37  1  0  0  0
 36 38  1  0  0  0
 29 30  1  0  0  0
 13 14  1  0  0  0
 13 18  2  0  0  0
 14 15  2  0  0  0
 15 16  1  0  0  0
 16 17  2  0  0  0
 17 18  1  0  0  0
M  END
> <minimizedAffinity>
-6.80789

$$$$
