CHEMBL2088096


 35 38  0  0  0  0  0  0  0  0999 V2000
  -29.2954   -6.4632   -4.4023 C   0  0  0  0  0  0  0  0  0  0  0  0
  -29.8705   -5.4804   -5.1821 C   0  0  0  0  0  0  0  0  0  0  0  0
  -29.6073   -4.2592   -4.5224 C   0  0  0  0  0  0  0  0  0  0  0  0
  -28.8549   -4.4686   -3.4402 N   0  0  0  0  0  0  0  0  0  0  0  0
  -28.6854   -5.7969   -3.3841 N   0  0  0  0  0  0  0  0  0  0  0  0
  -28.1560   -6.1620   -2.6008 H   0  0  0  0  0  0  0  0  0  0  0  0
  -30.1291   -3.0785   -4.9446 N   0  0  0  0  0  0  0  0  0  0  0  0
  -30.9402   -2.7012   -4.4756 H   0  0  0  0  0  0  0  0  0  0  0  0
  -29.4310   -2.0088   -5.5321 C   0  0  0  0  0  0  0  0  0  0  0  0
  -29.6897   -0.6965   -5.2007 C   0  0  0  0  0  0  0  0  0  0  0  0
  -29.0981    0.2612   -5.9751 C   0  0  0  0  0  0  0  0  0  0  0  0
  -28.2878   -0.0303   -7.0043 N   0  0  0  0  0  0  0  0  0  0  0  0
  -28.0052   -1.3195   -7.2057 C   0  0  0  0  0  0  0  0  0  0  0  0
  -28.5423   -2.3264   -6.4958 N   0  0  0  0  0  0  0  0  0  0  0  0
  -27.1793   -1.5788   -8.2935 N   0  0  0  0  0  0  0  0  0  0  0  0
  -26.4985   -0.8266   -8.3073 H   0  0  0  0  0  0  0  0  0  0  0  0
  -27.8694   -1.7372   -9.5627 C   0  0  0  0  0  0  0  0  0  0  0  0
  -26.9571   -1.6530  -10.7358 C   0  0  0  0  0  0  0  0  0  0  0  0
  -27.1447   -1.6656  -12.0972 C   0  0  0  0  0  0  0  0  0  0  0  0
  -25.8401   -1.5781  -12.6312 C   0  0  0  0  0  0  0  0  0  0  0  0
  -25.4247   -1.5896  -14.0514 C   0  0  0  0  0  0  0  0  0  0  0  0
  -24.9224   -1.4905  -11.6603 N   0  0  0  0  0  0  0  0  0  0  0  0
  -25.6278   -1.5398  -10.4705 O   0  0  0  0  0  0  0  0  0  0  0  0
  -29.2778   -7.9441   -4.5840 C   0  0  0  0  0  0  0  0  0  0  0  0
  -28.2587   -8.4602   -5.6066 C   0  0  0  0  0  0  0  0  0  0  0  0
  -28.8455   -9.8073   -9.1402 C   0  0  0  0  0  0  0  0  0  0  0  0
  -28.1970   -9.3880   -7.9739 C   0  0  0  0  0  0  0  0  0  0  0  0
  -28.9408   -8.9643   -6.8593 C   0  0  0  0  0  0  0  0  0  0  0  0
  -30.3413   -8.9620   -6.9299 C   0  0  0  0  0  0  0  0  0  0  0  0
  -30.9923   -9.3604   -8.0968 C   0  0  0  0  0  0  0  0  0  0  0  0
  -30.2426   -9.8055   -9.1855 C   0  0  0  0  0  0  0  0  0  0  0  0
  -26.9228   -9.7338  -10.5466 C   0  0  0  0  0  0  0  0  0  0  0  0
  -28.2370  -10.2157  -10.2964 O   0  0  0  0  0  0  0  0  0  0  0  0
  -32.3506   -9.3680   -8.2645 O   0  0  0  0  0  0  0  0  0  0  0  0
  -33.0920   -8.7518   -7.2147 C   0  0  0  0  0  0  0  0  0  0  0  0
 32 33  1  0  0  0
 33 26  1  0  0  0
 26 27  1  0  0  0
 26 31  2  0  0  0
 27 28  2  0  0  0
 28 25  1  0  0  0
 28 29  1  0  0  0
 25 24  1  0  0  0
 24  1  1  0  0  0
  1  2  2  0  0  0
  1  5  1  0  0  0
  2  3  1  0  0  0
  3  7  1  0  0  0
  3  4  2  0  0  0
  7  9  1  0  0  0
  7  8  1  0  0  0
  9 10  1  0  0  0
  9 14  2  0  0  0
 10 11  2  0  0  0
 11 12  1  0  0  0
 12 13  2  0  0  0
 13 15  1  0  0  0
 13 14  1  0  0  0
 15 17  1  0  0  0
 15 16  1  0  0  0
 17 18  1  0  0  0
 18 19  2  0  0  0
 18 23  1  0  0  0
 19 20  1  0  0  0
 20 21  1  0  0  0
 20 22  2  0  0  0
 22 23  1  0  0  0
  4  5  1  0  0  0
  5  6  1  0  0  0
 29 30  2  0  0  0
 30 34  1  0  0  0
 30 31  1  0  0  0
 34 35  1  0  0  0
M  END
> <minimizedAffinity>
-8.53349

$$$$
