CHEMBL1242572


 27 31  0  0  0  0  0  0  0  0999 V2000
  -29.3202   -6.8442   -2.9989 N   0  0  0  0  0  0  0  0  0  0  0  0
  -28.9959   -7.8691   -3.8759 C   0  0  0  0  0  0  0  0  0  0  0  0
  -28.8134   -9.0792   -3.3086 N   0  0  0  0  0  0  0  0  0  0  0  0
  -28.5392  -10.1290   -4.1021 C   0  0  0  0  0  0  0  0  0  0  0  0
  -28.4287  -10.1475   -5.4373 N   0  0  0  0  0  0  0  0  0  0  0  0
  -28.6045   -8.9188   -5.9612 C   0  0  0  0  0  0  0  0  0  0  0  0
  -28.8684   -7.7485   -5.2720 C   0  0  0  0  0  0  0  0  0  0  0  0
  -28.9222   -6.7317   -6.2834 C   0  0  0  0  0  0  0  0  0  0  0  0
  -28.7755   -7.2721   -7.5122 N   0  0  0  0  0  0  0  0  0  0  0  0
  -28.5565   -8.5834   -7.2846 N   0  0  0  0  0  0  0  0  0  0  0  0
  -29.5547   -7.2239   -2.0890 H   0  0  0  0  0  0  0  0  0  0  0  0
  -29.9777   -6.1675   -3.3686 H   0  0  0  0  0  0  0  0  0  0  0  0
  -29.1039   -5.2767   -6.1473 C   0  0  0  0  0  0  0  0  0  0  0  0
  -30.1283   -4.6127   -6.8405 C   0  0  0  0  0  0  0  0  0  0  0  0
  -30.2977   -3.2204   -6.7640 C   0  0  0  0  0  0  0  0  0  0  0  0
  -29.4629   -2.4922   -5.9052 C   0  0  0  0  0  0  0  0  0  0  0  0
  -29.3340   -1.1411   -5.5191 C   0  0  0  0  0  0  0  0  0  0  0  0
  -28.3711   -0.9589   -4.6089 N   0  0  0  0  0  0  0  0  0  0  0  0
  -27.8849   -2.1965   -4.4153 N   0  0  0  0  0  0  0  0  0  0  0  0
  -28.4845   -3.1607   -5.1802 C   0  0  0  0  0  0  0  0  0  0  0  0
  -28.2670   -4.5410   -5.2879 C   0  0  0  0  0  0  0  0  0  0  0  0
  -27.1402   -2.3214   -3.7366 H   0  0  0  0  0  0  0  0  0  0  0  0
  -28.2883   -9.4827   -8.3889 C   0  0  0  0  0  0  0  0  0  0  0  0
  -27.1323   -9.0389   -9.2872 C   0  0  0  0  0  0  0  0  0  0  0  0
  -27.3624   -9.7513  -10.6182 C   0  0  0  0  0  0  0  0  0  0  0  0
  -28.8060  -10.2532  -10.6024 C   0  0  0  0  0  0  0  0  0  0  0  0
  -29.4524   -9.6400   -9.3662 C   0  0  0  0  0  0  0  0  0  0  0  0
  1  2  1  0  0  0
  1 11  1  0  0  0
  1 12  1  0  0  0
  2  3  1  0  0  0
  2  7  2  0  0  0
  3  4  2  0  0  0
  4  5  1  0  0  0
  5  6  2  0  0  0
  6  7  1  0  0  0
  6 10  1  0  0  0
  7  8  1  0  0  0
  8 13  1  0  0  0
  8  9  2  0  0  0
 13 14  1  0  0  0
 13 21  2  0  0  0
 14 15  2  0  0  0
 15 16  1  0  0  0
 16 17  1  0  0  0
 16 20  2  0  0  0
 17 18  2  0  0  0
 18 19  1  0  0  0
 19 20  1  0  0  0
 19 22  1  0  0  0
 20 21  1  0  0  0
  9 10  1  0  0  0
 10 23  1  0  0  0
 23 24  1  0  0  0
 23 27  1  0  0  0
 24 25  1  0  0  0
 25 26  1  0  0  0
 26 27  1  0  0  0
M  END
> <minimizedAffinity>
-8.26322

$$$$
