CHEMBL452828


 30 33  0  0  0  0  0  0  0  0999 V2000
  -17.3784    2.9588  -15.6625 C   0  0  0  0  0  0  0  0  0  0  0  0
  -16.4769    3.8699  -16.0343 N   0  0  0  0  0  0  0  0  0  0  0  0
  -15.2997    3.3237  -15.7034 N   0  0  0  0  0  0  0  0  0  0  0  0
  -14.0921    4.1086  -15.8081 C   0  0  0  0  0  0  0  0  0  0  0  0
  -15.3938    2.0561  -15.1939 C   0  0  0  0  0  0  0  0  0  0  0  0
  -14.4168    1.1353  -14.8034 C   0  0  0  0  0  0  0  0  0  0  0  0
  -14.8483   -0.0227  -14.1463 C   0  0  0  0  0  0  0  0  0  0  0  0
  -16.2101   -0.3024  -14.0182 C   0  0  0  0  0  0  0  0  0  0  0  0
  -17.1814    0.5985  -14.4940 C   0  0  0  0  0  0  0  0  0  0  0  0
  -16.7592    1.8140  -15.0750 C   0  0  0  0  0  0  0  0  0  0  0  0
  -18.7179    3.0873  -15.8412 N   0  0  0  0  0  0  0  0  0  0  0  0
  -19.0278    3.5953  -16.6612 H   0  0  0  0  0  0  0  0  0  0  0  0
  -19.5356    3.3231  -14.6562 C   0  0  0  0  0  0  0  0  0  0  0  0
  -20.8153    1.1599  -14.6356 C   0  0  0  0  0  0  0  0  0  0  0  0
  -20.9056    2.6682  -14.8142 C   0  0  0  0  0  0  0  0  0  0  0  0
  -13.9609   -0.9458  -13.6243 O   0  0  0  0  0  0  0  0  0  0  0  0
  -13.7937   -2.1655  -14.2692 C   0  0  0  0  0  0  0  0  0  0  0  0
  -13.1649   -2.2665  -15.5080 C   0  0  0  0  0  0  0  0  0  0  0  0
  -13.0741   -3.5145  -16.0839 C   0  0  0  0  0  0  0  0  0  0  0  0
  -13.4877   -4.6504  -15.4790 N   0  0  0  0  0  0  0  0  0  0  0  0
  -13.9983   -4.5719  -14.2415 C   0  0  0  0  0  0  0  0  0  0  0  0
  -14.2956   -5.7405  -13.5422 C   0  0  0  0  0  0  0  0  0  0  0  0
  -14.7675   -5.7595  -12.2115 C   0  0  0  0  0  0  0  0  0  0  0  0
  -15.0264   -4.5408  -11.5816 C   0  0  0  0  0  0  0  0  0  0  0  0
  -14.7543   -3.3548  -12.2933 C   0  0  0  0  0  0  0  0  0  0  0  0
  -14.2046   -3.3380  -13.5949 C   0  0  0  0  0  0  0  0  0  0  0  0
  -14.6541   -6.9869  -11.6135 O   0  0  0  0  0  0  0  0  0  0  0  0
  -13.4982   -7.7666  -11.8919 C   0  0  0  0  0  0  0  0  0  0  0  0
  -15.4415   -4.2258  -10.3226 O   0  0  0  0  0  0  0  0  0  0  0  0
  -14.6524   -3.4897   -9.4206 C   0  0  0  0  0  0  0  0  0  0  0  0
 14 15  1  0  0  0
 15 13  1  0  0  0
 13 11  1  0  0  0
 11  1  1  0  0  0
 11 12  1  0  0  0
  1  2  2  0  0  0
  1 10  1  0  0  0
  2  3  1  0  0  0
  3  4  1  0  0  0
  3  5  1  0  0  0
  5  6  1  0  0  0
  5 10  2  0  0  0
  6  7  2  0  0  0
  7 16  1  0  0  0
  7  8  1  0  0  0
 16 17  1  0  0  0
 17 18  1  0  0  0
 17 26  2  0  0  0
 18 19  2  0  0  0
 19 20  1  0  0  0
 20 21  2  0  0  0
 21 22  1  0  0  0
 21 26  1  0  0  0
 22 23  2  0  0  0
 23 27  1  0  0  0
 23 24  1  0  0  0
 27 28  1  0  0  0
 24 29  1  0  0  0
 24 25  2  0  0  0
 29 30  1  0  0  0
 25 26  1  0  0  0
  8  9  2  0  0  0
  9 10  1  0  0  0
M  END
> <minimizedAffinity>
-6.98656

$$$$
