CHEMBL495749


 33 37  0  0  0  0  0  0  0  0999 V2000
  -28.8745   -4.7483   -5.5256 C   0  0  0  0  0  0  0  0  0  0  0  0
  -29.4761   -4.7094   -4.2447 C   0  0  0  0  0  0  0  0  0  0  0  0
  -29.7304   -3.5098   -3.5940 C   0  0  0  0  0  0  0  0  0  0  0  0
  -29.4141   -2.3302   -4.2309 C   0  0  0  0  0  0  0  0  0  0  0  0
  -28.9093   -2.3623   -5.5355 C   0  0  0  0  0  0  0  0  0  0  0  0
  -28.6182   -1.1321   -6.0932 N   0  0  0  0  0  0  0  0  0  0  0  0
  -28.1061   -0.9689   -7.3270 C   0  0  0  0  0  0  0  0  0  0  0  0
  -27.8380    0.1809   -7.6799 O   0  0  0  0  0  0  0  0  0  0  0  0
  -27.9243   -2.1800   -8.2119 C   0  0  0  0  0  0  0  0  0  0  0  0
  -28.1901   -3.4139   -7.6954 C   0  0  0  0  0  0  0  0  0  0  0  0
  -28.1192   -4.5887   -8.4301 N   0  0  0  0  0  0  0  0  0  0  0  0
  -28.6598   -3.5491   -6.2526 C   0  0  0  0  0  0  0  0  0  0  0  0
  -28.7346   -0.2810   -5.5610 H   0  0  0  0  0  0  0  0  0  0  0  0
  -27.5904   -4.5049   -9.3022 H   0  0  0  0  0  0  0  0  0  0  0  0
  -27.9025   -5.4149   -7.8757 H   0  0  0  0  0  0  0  0  0  0  0  0
  -27.4667   -1.9418   -9.5688 C   0  0  0  0  0  0  0  0  0  0  0  0
  -28.0380   -1.9154  -10.7720 N   0  0  0  0  0  0  0  0  0  0  0  0
  -27.0016   -1.7480  -11.6947 C   0  0  0  0  0  0  0  0  0  0  0  0
  -26.9852   -1.6636  -13.0982 C   0  0  0  0  0  0  0  0  0  0  0  0
  -25.7428   -1.5818  -13.7641 C   0  0  0  0  0  0  0  0  0  0  0  0
  -24.5376   -1.5774  -13.0574 C   0  0  0  0  0  0  0  0  0  0  0  0
  -24.5351   -1.6103  -11.6659 C   0  0  0  0  0  0  0  0  0  0  0  0
  -25.7830   -1.6806  -11.0487 C   0  0  0  0  0  0  0  0  0  0  0  0
  -26.1154   -1.7035   -9.7295 N   0  0  0  0  0  0  0  0  0  0  0  0
  -25.4502   -1.6467   -8.9676 H   0  0  0  0  0  0  0  0  0  0  0  0
  -28.4463   -5.9516   -6.0542 O   0  0  0  0  0  0  0  0  0  0  0  0
  -32.0119   -8.7754   -7.7204 C   0  0  0  0  0  0  0  0  0  0  0  0
  -31.0496   -8.5931   -6.6338 N   0  0  0  0  0  0  0  0  0  0  0  0
  -30.1815   -9.7724   -6.5227 C   0  0  0  0  0  0  0  0  0  0  0  0
  -29.2040   -9.6173   -5.3619 C   0  0  0  0  0  0  0  0  0  0  0  0
  -28.3598   -8.3618   -5.5259 C   0  0  0  0  0  0  0  0  0  0  0  0
  -29.2420   -7.1149   -5.7138 C   0  0  0  0  0  0  0  0  0  0  0  0
  -30.2599   -7.3641   -6.8471 C   0  0  0  0  0  0  0  0  0  0  0  0
 27 28  1  0  0  0
 28 29  1  0  0  0
 28 33  1  0  0  0
 29 30  1  0  0  0
 30 31  1  0  0  0
 31 32  1  0  0  0
 32 26  1  0  0  0
 32 33  1  0  0  0
 26  1  1  0  0  0
  1  2  1  0  0  0
  1 12  2  0  0  0
  2  3  2  0  0  0
  3  4  1  0  0  0
  4  5  2  0  0  0
  5  6  1  0  0  0
  5 12  1  0  0  0
  6  7  1  0  0  0
  6 13  1  0  0  0
  7  8  2  0  0  0
  7  9  1  0  0  0
  9 16  1  0  0  0
  9 10  2  0  0  0
 16 17  2  0  0  0
 16 24  1  0  0  0
 17 18  1  0  0  0
 18 19  1  0  0  0
 18 23  2  0  0  0
 19 20  2  0  0  0
 20 21  1  0  0  0
 21 22  2  0  0  0
 22 23  1  0  0  0
 23 24  1  0  0  0
 24 25  1  0  0  0
 10 11  1  0  0  0
 10 12  1  0  0  0
 11 14  1  0  0  0
 11 15  1  0  0  0
M  END
> <minimizedAffinity>
-9.51737

$$$$
