CHEMBL1986996


 24 25  0  0  0  0  0  0  0  0999 V2000
  -30.7264   -8.2495   -7.5812 N   0  0  0  0  0  0  0  0  0  0  0  0
  -29.4709   -8.1609   -8.1976 C   0  0  0  0  0  0  0  0  0  0  0  0
  -28.8058   -8.9538   -9.0774 C   0  0  0  0  0  0  0  0  0  0  0  0
  -28.6776   -6.6738   -7.6794 S   0  0  0  0  0  0  0  0  0  0  0  0
  -29.9120   -6.2912   -6.5448 C   0  0  0  0  0  0  0  0  0  0  0  0
  -29.8165   -5.2111   -5.7515 C   0  0  0  0  0  0  0  0  0  0  0  0
  -31.0262   -7.2645   -6.6161 C   0  0  0  0  0  0  0  0  0  0  0  0
  -32.0408   -7.1750   -5.9430 O   0  0  0  0  0  0  0  0  0  0  0  0
  -29.2113  -10.2771   -9.6168 C   0  0  0  0  0  0  0  0  0  0  0  0
  -29.0916  -11.3332   -9.0210 O   0  0  0  0  0  0  0  0  0  0  0  0
  -29.7199  -10.2660  -10.8742 O   0  0  0  0  0  0  0  0  0  0  0  0
  -29.7376   -9.4394  -11.3994 H   0  0  0  0  0  0  0  0  0  0  0  0
  -31.7457  -10.4322   -6.9593 C   0  0  0  0  0  0  0  0  0  0  0  0
  -31.7677   -9.2234   -7.8883 C   0  0  0  0  0  0  0  0  0  0  0  0
  -27.5334   -8.5313   -9.5724 C   0  0  0  0  0  0  0  0  0  0  0  0
  -26.4918   -8.2943  -10.0273 N   0  0  0  0  0  0  0  0  0  0  0  0
  -28.7544   -4.3367   -5.8217 N   0  0  0  0  0  0  0  0  0  0  0  0
  -27.9081   -4.7640   -6.1914 H   0  0  0  0  0  0  0  0  0  0  0  0
  -28.6205   -2.9697   -5.5598 C   0  0  0  0  0  0  0  0  0  0  0  0
  -27.4166   -2.3396   -5.2534 C   0  0  0  0  0  0  0  0  0  0  0  0
  -27.3823   -0.9617   -5.0055 C   0  0  0  0  0  0  0  0  0  0  0  0
  -28.5530   -0.2030   -5.0543 C   0  0  0  0  0  0  0  0  0  0  0  0
  -29.7611   -0.8151   -5.3537 C   0  0  0  0  0  0  0  0  0  0  0  0
  -29.7903   -2.1865   -5.6024 C   0  0  0  0  0  0  0  0  0  0  0  0
 13 14  1  0  0  0
 14  1  1  0  0  0
  1  2  1  0  0  0
  1  7  1  0  0  0
  2  3  2  0  0  0
  2  4  1  0  0  0
  3 15  1  0  0  0
  3  9  1  0  0  0
 15 16  3  0  0  0
  9 10  2  0  0  0
  9 11  1  0  0  0
 11 12  1  0  0  0
  4  5  1  0  0  0
  5  6  2  0  0  0
  5  7  1  0  0  0
  6 17  1  0  0  0
 17 19  1  0  0  0
 17 18  1  0  0  0
 19 20  1  0  0  0
 19 24  2  0  0  0
 20 21  2  0  0  0
 21 22  1  0  0  0
 22 23  2  0  0  0
 23 24  1  0  0  0
  7  8  2  0  0  0
M  END
> <minimizedAffinity>
-6.63730

$$$$
