CHEMBL180022


 42 45  0  0  0  0  0  0  0  0999 V2000
  -28.6447   -2.0778   -7.1028 C   0  0  0  0  0  0  0  0  0  0  0  0
  -28.9947   -2.4265   -5.7943 C   0  0  0  0  0  0  0  0  0  0  0  0
  -29.2577   -3.7308   -5.4317 C   0  0  0  0  0  0  0  0  0  0  0  0
  -29.4353   -3.9453   -4.1296 N   0  0  0  0  0  0  0  0  0  0  0  0
  -29.4959   -5.2209   -3.7163 C   0  0  0  0  0  0  0  0  0  0  0  0
  -29.4340   -6.3208   -4.5578 C   0  0  0  0  0  0  0  0  0  0  0  0
  -29.4268   -6.1143   -5.9467 C   0  0  0  0  0  0  0  0  0  0  0  0
  -29.2714   -4.7580   -6.3988 C   0  0  0  0  0  0  0  0  0  0  0  0
  -29.0813   -4.3556   -7.7486 C   0  0  0  0  0  0  0  0  0  0  0  0
  -28.7216   -3.0484   -8.1099 C   0  0  0  0  0  0  0  0  0  0  0  0
  -28.3989   -2.6804   -9.4415 N   0  0  0  0  0  0  0  0  0  0  0  0
  -27.2201   -2.0858   -9.8533 C   0  0  0  0  0  0  0  0  0  0  0  0
  -26.2940   -1.7383   -9.1288 O   0  0  0  0  0  0  0  0  0  0  0  0
  -29.1390   -2.8482  -10.1180 H   0  0  0  0  0  0  0  0  0  0  0  0
  -27.1326   -1.8797  -11.3273 C   0  0  0  0  0  0  0  0  0  0  0  0
  -25.9292   -1.5806  -11.8477 C   0  0  0  0  0  0  0  0  0  0  0  0
  -25.6144   -1.4287  -13.3035 C   0  0  0  0  0  0  0  0  0  0  0  0
  -24.1665   -1.3025  -13.5287 N   0  0  0  0  0  0  0  0  0  0  0  0
  -23.6709    0.0369  -13.2020 C   0  0  0  0  0  0  0  0  0  0  0  0
  -23.4440   -2.3037  -12.7422 C   0  0  0  0  0  0  0  0  0  0  0  0
  -29.2015   -7.5641   -3.8974 C   0  0  0  0  0  0  0  0  0  0  0  0
  -29.0989   -8.6042   -3.3863 N   0  0  0  0  0  0  0  0  0  0  0  0
  -29.5832   -7.1610   -6.9131 N   0  0  0  0  0  0  0  0  0  0  0  0
  -30.5331   -7.5300   -6.9458 H   0  0  0  0  0  0  0  0  0  0  0  0
  -28.6547   -8.1047   -7.4229 C   0  0  0  0  0  0  0  0  0  0  0  0
  -28.1476   -9.1066   -6.5761 C   0  0  0  0  0  0  0  0  0  0  0  0
  -27.2328  -10.0709   -7.0416 C   0  0  0  0  0  0  0  0  0  0  0  0
  -26.8397  -10.0885   -8.3813 C   0  0  0  0  0  0  0  0  0  0  0  0
  -27.3129   -9.0854   -9.2185 C   0  0  0  0  0  0  0  0  0  0  0  0
  -26.9043   -9.0363  -10.9004 Cl  0  0  0  0  0  0  0  0  0  0  0  0
  -28.1684   -8.0964   -8.7271 C   0  0  0  0  0  0  0  0  0  0  0  0
  -25.9898  -11.0014   -8.9407 O   0  0  0  0  0  0  0  0  0  0  0  0
  -25.5351  -12.0404   -8.0743 C   0  0  0  0  0  0  0  0  0  0  0  0
  -24.0972  -11.8279   -7.6580 C   0  0  0  0  0  0  0  0  0  0  0  0
  -23.7457  -10.9737   -6.6171 C   0  0  0  0  0  0  0  0  0  0  0  0
  -22.3983  -10.7501   -6.3536 C   0  0  0  0  0  0  0  0  0  0  0  0
  -21.4338  -11.3734   -7.1421 C   0  0  0  0  0  0  0  0  0  0  0  0
  -21.8687  -12.2055   -8.1607 C   0  0  0  0  0  0  0  0  0  0  0  0
  -23.1680  -12.4385   -8.4361 N   0  0  0  0  0  0  0  0  0  0  0  0
  -28.1944   -0.8209   -7.4422 O   0  0  0  0  0  0  0  0  0  0  0  0
  -28.9502    1.2715   -6.5072 C   0  0  0  0  0  0  0  0  0  0  0  0
  -28.0439    0.0712   -6.3239 C   0  0  0  0  0  0  0  0  0  0  0  0
 41 42  1  0  0  0
 42 40  1  0  0  0
 40  1  1  0  0  0
  1  2  1  0  0  0
  1 10  2  0  0  0
  2  3  2  0  0  0
  3  4  1  0  0  0
  3  8  1  0  0  0
  4  5  2  0  0  0
  5  6  1  0  0  0
  6 21  1  0  0  0
  6  7  2  0  0  0
 21 22  3  0  0  0
  7 23  1  0  0  0
  7  8  1  0  0  0
 23 25  1  0  0  0
 23 24  1  0  0  0
 25 26  1  0  0  0
 25 31  2  0  0  0
 26 27  2  0  0  0
 27 28  1  0  0  0
 28 32  1  0  0  0
 28 29  2  0  0  0
 32 33  1  0  0  0
 33 34  1  0  0  0
 34 35  1  0  0  0
 34 39  2  0  0  0
 35 36  2  0  0  0
 36 37  1  0  0  0
 37 38  2  0  0  0
 38 39  1  0  0  0
 29 30  1  0  0  0
 29 31  1  0  0  0
  8  9  2  0  0  0
  9 10  1  0  0  0
 10 11  1  0  0  0
 11 12  1  0  0  0
 11 14  1  0  0  0
 12 13  2  0  0  0
 12 15  1  0  0  0
 15 16  2  0  0  0
 16 17  1  0  0  0
 17 18  1  0  0  0
 18 19  1  0  0  0
 18 20  1  0  0  0
M  END
> <minimizedAffinity>
-9.11120

$$$$
