CHEMBL387829


 30 33  0  0  0  0  0  0  0  0999 V2000
  -29.6822   -8.0858   -5.9390 N   0  0  0  0  0  0  0  0  0  0  0  0
  -30.5747   -8.5461   -5.8450 H   0  0  0  0  0  0  0  0  0  0  0  0
  -30.3776   -4.6204   -4.6919 C   0  0  0  0  0  0  0  0  0  0  0  0
  -30.2716   -6.0330   -4.7430 C   0  0  0  0  0  0  0  0  0  0  0  0
  -29.6371   -6.6849   -5.8092 C   0  0  0  0  0  0  0  0  0  0  0  0
  -29.0659   -5.8797   -6.7935 C   0  0  0  0  0  0  0  0  0  0  0  0
  -29.1536   -4.4905   -6.7469 C   0  0  0  0  0  0  0  0  0  0  0  0
  -29.7888   -3.8228   -5.6865 C   0  0  0  0  0  0  0  0  0  0  0  0
  -32.1050   -4.9744   -3.1292 C   0  0  0  0  0  0  0  0  0  0  0  0
  -31.0366   -4.1465   -3.5848 O   0  0  0  0  0  0  0  0  0  0  0  0
  -29.7499   -2.3066   -5.7313 C   0  0  0  0  0  0  0  0  0  0  0  0
  -28.4497   -1.6235   -5.7598 N   0  0  0  0  0  0  0  0  0  0  0  0
  -28.1133   -0.8429   -4.5696 C   0  0  0  0  0  0  0  0  0  0  0  0
  -28.4976    0.5821   -4.9147 C   0  0  0  0  0  0  0  0  0  0  0  0
  -28.1514    0.6800   -6.3879 C   0  0  0  0  0  0  0  0  0  0  0  0
  -28.2321   -0.7498   -6.9144 C   0  0  0  0  0  0  0  0  0  0  0  0
  -28.7394   -8.9211   -6.5494 C   0  0  0  0  0  0  0  0  0  0  0  0
  -27.8247   -9.5436   -5.7936 N   0  0  0  0  0  0  0  0  0  0  0  0
  -26.8740  -10.2636   -6.3998 C   0  0  0  0  0  0  0  0  0  0  0  0
  -26.7813  -10.3976   -7.7614 C   0  0  0  0  0  0  0  0  0  0  0  0
  -27.7557   -9.7425   -8.4992 C   0  0  0  0  0  0  0  0  0  0  0  0
  -28.7408   -9.0124   -7.8895 N   0  0  0  0  0  0  0  0  0  0  0  0
  -27.8321   -9.7540   -9.9829 C   0  0  0  0  0  0  0  0  0  0  0  0
  -28.9207  -10.3608  -10.6394 C   0  0  0  0  0  0  0  0  0  0  0  0
  -29.0177  -10.3772  -12.0362 C   0  0  0  0  0  0  0  0  0  0  0  0
  -28.0218   -9.7933  -12.8127 C   0  0  0  0  0  0  0  0  0  0  0  0
  -26.9372   -9.1840  -12.1944 C   0  0  0  0  0  0  0  0  0  0  0  0
  -26.8533   -9.1520  -10.7988 C   0  0  0  0  0  0  0  0  0  0  0  0
  -25.7130  -11.1732   -8.2851 C   0  0  0  0  0  0  0  0  0  0  0  0
  -24.8205  -11.8249   -8.6525 N   0  0  0  0  0  0  0  0  0  0  0  0
  9 10  1  0  0  0
 10  3  1  0  0  0
  3  4  1  0  0  0
  3  8  2  0  0  0
  4  5  2  0  0  0
  5  1  1  0  0  0
  5  6  1  0  0  0
  1 17  1  0  0  0
  1  2  1  0  0  0
 17 18  1  0  0  0
 17 22  2  0  0  0
 18 19  2  0  0  0
 19 20  1  0  0  0
 20 29  1  0  0  0
 20 21  2  0  0  0
 29 30  3  0  0  0
 21 23  1  0  0  0
 21 22  1  0  0  0
 23 24  1  0  0  0
 23 28  2  0  0  0
 24 25  2  0  0  0
 25 26  1  0  0  0
 26 27  2  0  0  0
 27 28  1  0  0  0
  6  7  2  0  0  0
  7  8  1  0  0  0
  8 11  1  0  0  0
 11 12  1  0  0  0
 12 13  1  0  0  0
 12 16  1  0  0  0
 13 14  1  0  0  0
 14 15  1  0  0  0
 15 16  1  0  0  0
M  END
> <minimizedAffinity>
-8.05686

$$$$
