CHEMBL3946938


 41 44  0  0  0  0  0  0  0  0999 V2000
  -29.5946   -8.9512   -7.3259 N   0  0  0  0  0  0  0  0  0  0  0  0
  -29.2307   -7.7016   -6.6651 C   0  0  0  0  0  0  0  0  0  0  0  0
  -29.5875   -6.6063   -7.3774 C   0  0  0  0  0  0  0  0  0  0  0  0
  -29.4481   -5.4464   -6.8804 C   0  0  0  0  0  0  0  0  0  0  0  0
  -28.9654   -5.2474   -5.7386 C   0  0  0  0  0  0  0  0  0  0  0  0
  -28.8917   -4.1180   -5.6999 N   0  0  0  0  0  0  0  0  0  0  0  0
  -28.8414   -3.0333   -5.7086 C   0  0  0  0  0  0  0  0  0  0  0  0
  -28.5266   -2.6107   -4.6443 C   0  0  0  0  0  0  0  0  0  0  0  0
  -28.2076   -4.3279   -3.7547 N   0  0  0  0  0  0  0  0  0  0  0  0
  -28.4982   -5.8040   -4.6741 C   0  0  0  0  0  0  0  0  0  0  0  0
  -28.6102   -7.4400   -5.2700 C   0  0  0  0  0  0  0  0  0  0  0  0
  -28.6637   -0.5566   -5.2775 C   0  0  0  0  0  0  0  0  0  0  0  0
  -27.9615    0.4003   -6.2236 C   0  0  0  0  0  0  0  0  0  0  0  0
  -28.8203    1.4235   -6.7440 N   0  0  0  0  0  0  0  0  0  0  0  0
  -30.0543    1.2618   -6.2811 N   0  0  0  0  0  0  0  0  0  0  0  0
  -31.2346    2.1299   -6.7245 C   0  0  0  0  0  0  0  0  0  0  0  0
  -30.0384    0.1185   -5.4229 C   0  0  0  0  0  0  0  0  0  0  0  0
  -26.8951  -10.9502   -8.9266 C   0  0  0  0  0  0  0  0  0  0  0  0
  -27.4239  -11.0559  -10.1910 C   0  0  0  0  0  0  0  0  0  0  0  0
  -28.5758  -10.3873  -10.5838 C   0  0  0  0  0  0  0  0  0  0  0  0
  -29.2154   -9.5803   -9.6649 C   0  0  0  0  0  0  0  0  0  0  0  0
  -28.7527   -9.5064   -8.3509 C   0  0  0  0  0  0  0  0  0  0  0  0
  -27.5238  -10.1122   -8.0273 C   0  0  0  0  0  0  0  0  0  0  0  0
  -24.1373  -11.9992   -7.4124 H   0  0  0  0  0  0  0  0  0  0  0  0
  -24.9935  -11.3150   -7.5138 C   0  0  0  0  0  0  0  0  0  0  0  0
  -25.5965  -11.3724   -6.5943 H   0  0  0  0  0  0  0  0  0  0  0  0
  -24.5974  -10.2941   -7.6098 H   0  0  0  0  0  0  0  0  0  0  0  0
  -25.8093  -11.6763   -8.5631 O   0  0  0  0  0  0  0  0  0  0  0  0
  -29.0886  -10.5663  -11.8247 O   0  0  0  0  0  0  0  0  0  0  0  0
  -28.5157   -9.9804  -12.9406 C   0  0  0  0  0  0  0  0  0  0  0  0
  -28.5318   -8.8809  -12.8233 H   0  0  0  0  0  0  0  0  0  0  0  0
  -27.4576  -10.2969  -13.0508 H   0  0  0  0  0  0  0  0  0  0  0  0
  -29.0497  -10.2397  -13.8590 H   0  0  0  0  0  0  0  0  0  0  0  0
  -30.8032   -9.6723   -6.9172 C   0  0  0  0  0  0  0  0  0  0  0  0
  -30.7459  -10.7295   -7.2518 H   0  0  0  0  0  0  0  0  0  0  0  0
  -30.9056   -9.6689   -5.8171 H   0  0  0  0  0  0  0  0  0  0  0  0
  -32.0498   -9.0660   -7.5305 C   0  0  0  0  0  0  0  0  0  0  0  0
  -32.8500   -9.0602   -6.7984 H   0  0  0  0  0  0  0  0  0  0  0  0
  -31.8234   -8.0198   -7.8122 H   0  0  0  0  0  0  0  0  0  0  0  0
  -32.4922   -9.7721   -8.6454 O   0  0  0  0  0  0  0  0  0  0  0  0
  -32.7073  -10.6912   -8.3375 H   0  0  0  0  0  0  0  0  0  0  0  0
 24 25  1  0  0  0
 25 26  1  0  0  0
 25 27  1  0  0  0
 25 28  1  0  0  0
 28 18  1  0  0  0
 18 19  1  0  0  0
 18 23  2  0  0  0
 19 20  2  0  0  0
 20 29  1  0  0  0
 20 21  1  0  0  0
 29 30  1  0  0  0
 30 31  1  0  0  0
 30 32  1  0  0  0
 30 33  1  0  0  0
 21 22  2  0  0  0
 22  1  1  0  0  0
 22 23  1  0  0  0
  1  2  1  0  0  0
  1 34  1  0  0  0
  2  3  1  0  0  0
  2 11  2  0  0  0
  3  4  2  0  0  0
  4  5  1  0  0  0
  5  6  1  0  0  0
  5 10  2  0  0  0
  6  7  2  0  0  0
  7  8  1  0  0  0
  8 12  1  0  0  0
  8  9  2  0  0  0
 12 13  1  0  0  0
 12 17  2  0  0  0
 13 14  2  0  0  0
 14 15  1  0  0  0
 15 16  1  0  0  0
 15 17  1  0  0  0
  9 10  1  0  0  0
 10 11  1  0  0  0
 34 35  1  0  0  0
 34 36  1  0  0  0
 34 37  1  0  0  0
 37 38  1  0  0  0
 37 39  1  0  0  0
 37 40  1  0  0  0
 40 41  1  0  0  0
M  ISO 1  24   2
M  ISO 1  26   2
M  ISO 1  27   2
M  ISO 1  31   2
M  ISO 1  32   2
M  ISO 1  33   2
M  ISO 1  35   2
M  ISO 1  36   2
M  ISO 1  38   2
M  ISO 1  39   2
M  END
> <minimizedAffinity>
-8.71698

$$$$
