CHEMBL3401984


 34 38  0  0  0  0  0  0  0  0999 V2000
  -29.5011   -4.7030   -5.2151 C   0  0  0  0  0  0  0  0  0  0  0  0
  -29.1696   -5.6339   -6.1272 N   0  0  0  0  0  0  0  0  0  0  0  0
  -29.9693   -6.7132   -6.2318 C   0  0  0  0  0  0  0  0  0  0  0  0
  -31.0523   -6.9550   -5.4683 N   0  0  0  0  0  0  0  0  0  0  0  0
  -31.3374   -6.0154   -4.5446 C   0  0  0  0  0  0  0  0  0  0  0  0
  -30.5912   -4.8755   -4.3755 C   0  0  0  0  0  0  0  0  0  0  0  0
  -30.9601   -3.9318   -3.4977 F   0  0  0  0  0  0  0  0  0  0  0  0
  -29.7023   -7.6173   -7.3441 C   0  0  0  0  0  0  0  0  0  0  0  0
  -28.7005   -7.4082   -8.2789 C   0  0  0  0  0  0  0  0  0  0  0  0
  -28.6687   -8.4821   -9.1299 N   0  0  0  0  0  0  0  0  0  0  0  0
  -29.6301   -9.3843   -8.7683 C   0  0  0  0  0  0  0  0  0  0  0  0
  -29.8372  -10.5565   -9.3960 N   0  0  0  0  0  0  0  0  0  0  0  0
  -30.8421  -11.2791   -8.8345 C   0  0  0  0  0  0  0  0  0  0  0  0
  -31.5957  -10.8875   -7.7395 C   0  0  0  0  0  0  0  0  0  0  0  0
  -32.5672  -11.6796   -7.2674 F   0  0  0  0  0  0  0  0  0  0  0  0
  -31.3422   -9.6677   -7.1319 C   0  0  0  0  0  0  0  0  0  0  0  0
  -30.3067   -8.8797   -7.6650 C   0  0  0  0  0  0  0  0  0  0  0  0
  -28.0276   -8.6231   -9.8972 H   0  0  0  0  0  0  0  0  0  0  0  0
  -28.7095   -3.5379   -5.0985 N   0  0  0  0  0  0  0  0  0  0  0  0
  -28.6057   -3.3052   -4.1103 H   0  0  0  0  0  0  0  0  0  0  0  0
  -28.0563   -1.9818   -6.9017 C   0  0  0  0  0  0  0  0  0  0  0  0
  -27.5924   -0.5239   -6.5796 C   0  0  0  0  0  0  0  0  0  0  0  0
  -28.7375    0.5036   -6.6736 C   0  0  0  0  0  0  0  0  0  0  0  0
  -29.9538   -0.0037   -5.8936 C   0  0  0  0  0  0  0  0  0  0  0  0
  -29.5332   -1.1739   -4.9862 C   0  0  0  0  0  0  0  0  0  0  0  0
  -28.3025   -0.7402   -4.1695 C   0  0  0  0  0  0  0  0  0  0  0  0
  -27.1121   -0.5053   -5.1092 C   0  0  0  0  0  0  0  0  0  0  0  0
  -29.1794   -2.3856   -5.8955 C   0  0  0  0  0  0  0  0  0  0  0  0
  -28.4567   -2.2084   -8.3832 C   0  0  0  0  0  0  0  0  0  0  0  0
  -28.9264   -3.5423   -8.5780 O   0  0  0  0  0  0  0  0  0  0  0  0
  -28.1875   -4.1025   -8.8660 H   0  0  0  0  0  0  0  0  0  0  0  0
  -26.9206   -3.0720  -10.0677 O   0  0  0  0  0  0  0  0  0  0  0  0
  -27.3107   -1.8895   -9.3699 C   0  0  0  0  0  0  0  0  0  0  0  0
  -26.1542   -2.8408  -10.6205 H   0  0  0  0  0  0  0  0  0  0  0  0
 32 33  1  0  0  0
 32 34  1  0  0  0
 33 29  1  0  0  0
 29 30  1  0  0  0
 29 21  1  0  0  0
 30 31  1  0  0  0
 21 22  1  0  0  0
 21 28  1  0  0  0
 22 23  1  0  0  0
 22 27  1  0  0  0
 23 24  1  0  0  0
 24 25  1  0  0  0
 25 26  1  0  0  0
 25 28  1  0  0  0
 26 27  1  0  0  0
 28 19  1  0  0  0
 19  1  1  0  0  0
 19 20  1  0  0  0
  1  2  1  0  0  0
  1  6  2  0  0  0
  2  3  2  0  0  0
  3  8  1  0  0  0
  3  4  1  0  0  0
  8  9  2  0  0  0
  8 17  1  0  0  0
  9 10  1  0  0  0
 10 11  1  0  0  0
 10 18  1  0  0  0
 11 12  1  0  0  0
 11 17  2  0  0  0
 12 13  2  0  0  0
 13 14  1  0  0  0
 14 15  1  0  0  0
 14 16  2  0  0  0
 16 17  1  0  0  0
  4  5  2  0  0  0
  5  6  1  0  0  0
  6  7  1  0  0  0
M  END
> <minimizedAffinity>
-9.46694

$$$$
