CHEMBL425209


 34 37  0  0  0  0  0  0  0  0999 V2000
  -12.4420   -3.0467  -13.9696 C   0  0  0  0  0  0  0  0  0  0  0  0
  -11.4877   -3.1003  -14.9263 N   0  0  0  0  0  0  0  0  0  0  0  0
  -11.4805   -2.1203  -15.8206 C   0  0  0  0  0  0  0  0  0  0  0  0
  -12.3612   -1.1257  -15.9015 N   0  0  0  0  0  0  0  0  0  0  0  0
  -13.3091   -1.0769  -14.9580 C   0  0  0  0  0  0  0  0  0  0  0  0
  -14.2214   -0.0461  -15.0451 C   0  0  0  0  0  0  0  0  0  0  0  0
  -15.2102    0.1583  -14.0871 C   0  0  0  0  0  0  0  0  0  0  0  0
  -15.3135   -0.7413  -13.0255 C   0  0  0  0  0  0  0  0  0  0  0  0
  -14.4400   -1.8289  -12.9366 C   0  0  0  0  0  0  0  0  0  0  0  0
  -13.4104   -2.0175  -13.9163 C   0  0  0  0  0  0  0  0  0  0  0  0
  -12.4569   -4.0917  -13.0121 N   0  0  0  0  0  0  0  0  0  0  0  0
  -12.7120   -3.7055  -12.1069 H   0  0  0  0  0  0  0  0  0  0  0  0
  -14.1173   -6.8161  -14.5972 C   0  0  0  0  0  0  0  0  0  0  0  0
  -14.3456   -7.7474  -13.5998 C   0  0  0  0  0  0  0  0  0  0  0  0
  -13.9512   -7.4232  -12.3083 C   0  0  0  0  0  0  0  0  0  0  0  0
  -13.3347   -6.1980  -12.0635 C   0  0  0  0  0  0  0  0  0  0  0  0
  -13.0321   -5.7855  -10.4102 Cl  0  0  0  0  0  0  0  0  0  0  0  0
  -13.0852   -5.3343  -13.1442 C   0  0  0  0  0  0  0  0  0  0  0  0
  -13.5042   -5.6292  -14.4005 N   0  0  0  0  0  0  0  0  0  0  0  0
  -13.7958   -6.5684  -16.9019 C   0  0  0  0  0  0  0  0  0  0  0  0
  -14.5638   -7.1616  -15.8600 O   0  0  0  0  0  0  0  0  0  0  0  0
  -16.0112    1.2565  -14.2859 O   0  0  0  0  0  0  0  0  0  0  0  0
  -17.1991    0.9814  -15.0356 C   0  0  0  0  0  0  0  0  0  0  0  0
  -18.4290    1.6873  -14.4332 C   0  0  0  0  0  0  0  0  0  0  0  0
  -19.5643    1.7584  -15.3751 N   0  0  0  0  0  0  0  0  0  0  0  0
  -20.2519    3.0687  -15.3220 C   0  0  0  0  0  0  0  0  0  0  0  0
  -21.1819    3.2476  -14.1071 C   0  0  0  0  0  0  0  0  0  0  0  0
  -22.1459    2.1913  -14.0209 O   0  0  0  0  0  0  0  0  0  0  0  0
  -21.5016    0.9142  -13.9719 C   0  0  0  0  0  0  0  0  0  0  0  0
  -20.5897    0.7079  -15.1911 C   0  0  0  0  0  0  0  0  0  0  0  0
  -14.4986   -2.7501  -11.9174 O   0  0  0  0  0  0  0  0  0  0  0  0
  -15.7170   -2.9465  -11.1914 C   0  0  0  0  0  0  0  0  0  0  0  0
  -16.4294   -4.2128  -11.6642 C   0  0  0  0  0  0  0  0  0  0  0  0
  -15.3392   -3.1072   -9.7182 C   0  0  0  0  0  0  0  0  0  0  0  0
 20 21  1  0  0  0
 21 13  1  0  0  0
 13 14  1  0  0  0
 13 19  2  0  0  0
 14 15  2  0  0  0
 15 16  1  0  0  0
 16 17  1  0  0  0
 16 18  2  0  0  0
 18 11  1  0  0  0
 18 19  1  0  0  0
 11  1  1  0  0  0
 11 12  1  0  0  0
  1  2  1  0  0  0
  1 10  2  0  0  0
  2  3  2  0  0  0
  3  4  1  0  0  0
  4  5  2  0  0  0
  5  6  1  0  0  0
  5 10  1  0  0  0
  6  7  2  0  0  0
  7 22  1  0  0  0
  7  8  1  0  0  0
 22 23  1  0  0  0
 23 24  1  0  0  0
 24 25  1  0  0  0
 25 26  1  0  0  0
 25 30  1  0  0  0
 26 27  1  0  0  0
 27 28  1  0  0  0
 28 29  1  0  0  0
 29 30  1  0  0  0
  8  9  2  0  0  0
  9 31  1  0  0  0
  9 10  1  0  0  0
 31 32  1  0  0  0
 32 33  1  0  0  0
 32 34  1  0  0  0
M  END
> <minimizedAffinity>
-7.02120

$$$$
