CHEMBL192893


 23 25  0  0  0  0  0  0  0  0999 V2000
  -28.2866   -7.9914   -5.2157 N   0  0  0  0  0  0  0  0  0  0  0  0
  -28.3668   -6.6200   -5.0974 C   0  0  0  0  0  0  0  0  0  0  0  0
  -27.5956   -5.8592   -4.5401 O   0  0  0  0  0  0  0  0  0  0  0  0
  -29.5758   -6.2662   -5.9585 C   0  0  0  0  0  0  0  0  0  0  0  0
  -30.1922   -5.0768   -6.0612 C   0  0  0  0  0  0  0  0  0  0  0  0
  -29.9805   -7.4964   -6.6636 C   0  0  0  0  0  0  0  0  0  0  0  0
  -30.9270   -7.7860   -7.6292 C   0  0  0  0  0  0  0  0  0  0  0  0
  -31.0111   -9.1037   -8.1065 C   0  0  0  0  0  0  0  0  0  0  0  0
  -30.1521  -10.1045   -7.6287 C   0  0  0  0  0  0  0  0  0  0  0  0
  -29.1963   -9.8091   -6.6661 C   0  0  0  0  0  0  0  0  0  0  0  0
  -29.1394   -8.5065   -6.1910 C   0  0  0  0  0  0  0  0  0  0  0  0
  -29.7965   -3.9526   -5.3012 C   0  0  0  0  0  0  0  0  0  0  0  0
  -28.7578   -3.1810   -5.7610 N   0  0  0  0  0  0  0  0  0  0  0  0
  -28.4867   -2.1774   -4.8634 C   0  0  0  0  0  0  0  0  0  0  0  0
  -27.3572   -1.2344   -5.0468 C   0  0  0  0  0  0  0  0  0  0  0  0
  -29.4023   -2.2876   -3.8375 C   0  0  0  0  0  0  0  0  0  0  0  0
  -30.2334   -3.4123   -4.1036 C   0  0  0  0  0  0  0  0  0  0  0  0
  -31.3207   -3.9266   -3.2321 C   0  0  0  0  0  0  0  0  0  0  0  0
  -28.2300   -3.3611   -6.6037 H   0  0  0  0  0  0  0  0  0  0  0  0
  -27.1540   -8.7177   -4.8386 O   0  0  0  0  0  0  0  0  0  0  0  0
  -26.1987  -10.3553   -3.4829 C   0  0  0  0  0  0  0  0  0  0  0  0
  -27.3342   -9.3964   -3.6632 C   0  0  0  0  0  0  0  0  0  0  0  0
  -28.3237   -9.3582   -2.9417 O   0  0  0  0  0  0  0  0  0  0  0  0
 21 22  1  0  0  0
 22 23  2  0  0  0
 22 20  1  0  0  0
 20  1  1  0  0  0
  1  2  1  0  0  0
  1 11  1  0  0  0
  2  3  2  0  0  0
  2  4  1  0  0  0
  4  5  2  0  0  0
  4  6  1  0  0  0
  5 12  1  0  0  0
 12 13  1  0  0  0
 12 17  2  0  0  0
 13 14  1  0  0  0
 13 19  1  0  0  0
 14 15  1  0  0  0
 14 16  2  0  0  0
 16 17  1  0  0  0
 17 18  1  0  0  0
  6  7  1  0  0  0
  6 11  2  0  0  0
  7  8  2  0  0  0
  8  9  1  0  0  0
  9 10  2  0  0  0
 10 11  1  0  0  0
M  END
> <minimizedAffinity>
-7.25111

$$$$
