CHEMBL3893070


 35 39  0  0  0  0  0  0  0  0999 V2000
  -15.3062    0.9618  -14.7493 N   0  0  0  0  0  0  0  0  0  0  0  0
  -14.9005   -0.3361  -14.2057 C   0  0  0  0  0  0  0  0  0  0  0  0
  -13.7290   -0.7403  -14.7851 C   0  0  0  0  0  0  0  0  0  0  0  0
  -13.5325   -2.0953  -14.9269 C   0  0  0  0  0  0  0  0  0  0  0  0
  -14.2948   -3.0165  -14.3210 C   0  0  0  0  0  0  0  0  0  0  0  0
  -14.0594   -4.1295  -14.9922 N   0  0  0  0  0  0  0  0  0  0  0  0
  -14.1499   -5.2678  -14.3299 C   0  0  0  0  0  0  0  0  0  0  0  0
  -14.4734   -5.3680  -13.0003 C   0  0  0  0  0  0  0  0  0  0  0  0
  -15.0298   -4.2026  -12.4093 N   0  0  0  0  0  0  0  0  0  0  0  0
  -15.0253   -2.8505  -13.1790 C   0  0  0  0  0  0  0  0  0  0  0  0
  -15.4876   -1.3258  -13.2884 C   0  0  0  0  0  0  0  0  0  0  0  0
  -13.8340   -6.6761  -12.4818 C   0  0  0  0  0  0  0  0  0  0  0  0
  -12.7546   -6.6463  -11.4992 C   0  0  0  0  0  0  0  0  0  0  0  0
  -12.0677   -7.7674  -11.3570 N   0  0  0  0  0  0  0  0  0  0  0  0
  -12.6884   -8.6179  -12.1756 N   0  0  0  0  0  0  0  0  0  0  0  0
  -12.1447   -9.9653  -12.1907 C   0  0  0  0  0  0  0  0  0  0  0  0
  -13.7372   -8.0136  -12.8892 C   0  0  0  0  0  0  0  0  0  0  0  0
  -14.1061    4.1093  -16.4766 C   0  0  0  0  0  0  0  0  0  0  0  0
  -13.1635    4.5476  -15.5566 C   0  0  0  0  0  0  0  0  0  0  0  0
  -12.7847    3.7206  -14.5038 C   0  0  0  0  0  0  0  0  0  0  0  0
  -13.4597    2.5106  -14.2851 C   0  0  0  0  0  0  0  0  0  0  0  0
  -14.5191    2.0974  -15.1009 C   0  0  0  0  0  0  0  0  0  0  0  0
  -14.7339    2.8728  -16.2742 C   0  0  0  0  0  0  0  0  0  0  0  0
  -15.1243    4.5984  -18.5931 C   0  0  0  0  0  0  0  0  0  0  0  0
  -14.4299    5.0335  -17.4330 O   0  0  0  0  0  0  0  0  0  0  0  0
  -11.8206    4.0319  -13.5822 O   0  0  0  0  0  0  0  0  0  0  0  0
  -11.7648    3.1738  -12.4467 C   0  0  0  0  0  0  0  0  0  0  0  0
  -16.7996    1.2315  -14.4067 C   0  0  0  0  0  0  0  0  0  0  0  0
  -17.9574    1.2258  -15.4973 C   0  0  0  0  0  0  0  0  0  0  0  0
  -18.3128    2.7080  -15.8401 C   0  0  0  0  0  0  0  0  0  0  0  0
  -19.2864    3.3524  -14.8428 C   0  0  0  0  0  0  0  0  0  0  0  0
  -20.5585    2.6293  -14.8429 N   0  0  0  0  0  0  0  0  0  0  0  0
  -21.5437    3.3123  -13.9956 C   0  0  0  0  0  0  0  0  0  0  0  0
  -20.3572    1.2382  -14.4175 C   0  0  0  0  0  0  0  0  0  0  0  0
  -19.3131    0.5051  -15.2831 C   0  0  0  0  0  0  0  0  0  0  0  0
 24 25  1  0  0  0
 25 18  1  0  0  0
 18 19  1  0  0  0
 18 23  2  0  0  0
 19 20  2  0  0  0
 20 26  1  0  0  0
 20 21  1  0  0  0
 26 27  1  0  0  0
 21 22  2  0  0  0
 22  1  1  0  0  0
 22 23  1  0  0  0
  1 28  1  0  0  0
  1  2  1  0  0  0
 28 29  1  0  0  0
 29 30  1  0  0  0
 29 35  1  0  0  0
 30 31  1  0  0  0
 31 32  1  0  0  0
 32 33  1  0  0  0
 32 34  1  0  0  0
 34 35  1  0  0  0
  2  3  1  0  0  0
  2 11  2  0  0  0
  3  4  2  0  0  0
  4  5  1  0  0  0
  5  6  1  0  0  0
  5 10  2  0  0  0
  6  7  2  0  0  0
  7  8  1  0  0  0
  8 12  1  0  0  0
  8  9  2  0  0  0
 12 13  1  0  0  0
 12 17  2  0  0  0
 13 14  2  0  0  0
 14 15  1  0  0  0
 15 16  1  0  0  0
 15 17  1  0  0  0
  9 10  1  0  0  0
 10 11  1  0  0  0
M  END
> <minimizedAffinity>
-7.80246

$$$$
