CHEMBL3671521


 36 38  0  0  0  0  0  0  0  0999 V2000
  -26.6749   -9.0325   -4.8683 C   0  0  0  0  0  0  0  0  0  0  0  0
  -27.4811   -8.0331   -4.3206 C   0  0  0  0  0  0  0  0  0  0  0  0
  -28.7444   -7.7500   -4.8805 C   0  0  0  0  0  0  0  0  0  0  0  0
  -29.5548   -6.6704   -4.5039 C   0  0  0  0  0  0  0  0  0  0  0  0
  -30.7472   -6.4488   -5.0949 N   0  0  0  0  0  0  0  0  0  0  0  0
  -31.1145   -7.2797   -6.0707 C   0  0  0  0  0  0  0  0  0  0  0  0
  -30.3992   -8.3034   -6.5361 N   0  0  0  0  0  0  0  0  0  0  0  0
  -29.2167   -8.5220   -5.9507 C   0  0  0  0  0  0  0  0  0  0  0  0
  -28.4186   -9.5519   -6.4417 C   0  0  0  0  0  0  0  0  0  0  0  0
  -27.1582   -9.8377   -5.9061 C   0  0  0  0  0  0  0  0  0  0  0  0
  -24.8117  -10.1066   -3.7062 C   0  0  0  0  0  0  0  0  0  0  0  0
  -23.6027  -10.3141   -3.6741 O   0  0  0  0  0  0  0  0  0  0  0  0
  -25.3264   -9.0844   -4.4707 N   0  0  0  0  0  0  0  0  0  0  0  0
  -24.6415   -8.8148   -5.1702 H   0  0  0  0  0  0  0  0  0  0  0  0
  -25.7308  -12.2891   -3.1152 C   0  0  0  0  0  0  0  0  0  0  0  0
  -25.7828  -10.9597   -2.9708 C   0  0  0  0  0  0  0  0  0  0  0  0
  -29.0969   -5.7351   -3.5417 N   0  0  0  0  0  0  0  0  0  0  0  0
  -29.5636   -5.8725   -2.6478 H   0  0  0  0  0  0  0  0  0  0  0  0
  -28.8904   -4.3616   -3.8205 C   0  0  0  0  0  0  0  0  0  0  0  0
  -27.6929   -3.9178   -4.4004 C   0  0  0  0  0  0  0  0  0  0  0  0
  -27.5353   -2.5867   -4.7882 C   0  0  0  0  0  0  0  0  0  0  0  0
  -28.5707   -1.6802   -4.5733 C   0  0  0  0  0  0  0  0  0  0  0  0
  -28.3898    0.0986   -5.1845 Br  0  0  0  0  0  0  0  0  0  0  0  0
  -29.7423   -2.0813   -3.9345 C   0  0  0  0  0  0  0  0  0  0  0  0
  -29.8861   -3.4135   -3.5559 C   0  0  0  0  0  0  0  0  0  0  0  0
  -31.0250   -3.8023   -2.9611 F   0  0  0  0  0  0  0  0  0  0  0  0
  -26.4912  -10.8703   -6.5199 O   0  0  0  0  0  0  0  0  0  0  0  0
  -25.6043  -10.4798   -7.5748 C   0  0  0  0  0  0  0  0  0  0  0  0
  -25.6641  -11.4814   -8.7322 C   0  0  0  0  0  0  0  0  0  0  0  0
  -26.9830  -11.5151   -9.3497 N   0  0  0  0  0  0  0  0  0  0  0  0
  -27.2972  -10.6611  -10.3893 C   0  0  0  0  0  0  0  0  0  0  0  0
  -26.4703   -9.9039  -10.8884 O   0  0  0  0  0  0  0  0  0  0  0  0
  -27.7127  -12.0705   -8.9200 H   0  0  0  0  0  0  0  0  0  0  0  0
  -28.7540  -10.7207  -10.8450 C   0  0  0  0  0  0  0  0  0  0  0  0
  -29.6493   -9.9356   -9.8868 C   0  0  0  0  0  0  0  0  0  0  0  0
  -28.8941  -10.1592  -12.2629 C   0  0  0  0  0  0  0  0  0  0  0  0
 15 16  2  0  0  0
 16 11  1  0  0  0
 11 12  2  0  0  0
 11 13  1  0  0  0
 13  1  1  0  0  0
 13 14  1  0  0  0
  1  2  1  0  0  0
  1 10  2  0  0  0
  2  3  2  0  0  0
  3  4  1  0  0  0
  3  8  1  0  0  0
  4 17  1  0  0  0
  4  5  2  0  0  0
 17 19  1  0  0  0
 17 18  1  0  0  0
 19 20  1  0  0  0
 19 25  2  0  0  0
 20 21  2  0  0  0
 21 22  1  0  0  0
 22 23  1  0  0  0
 22 24  2  0  0  0
 24 25  1  0  0  0
 25 26  1  0  0  0
  5  6  1  0  0  0
  6  7  2  0  0  0
  7  8  1  0  0  0
  8  9  2  0  0  0
  9 10  1  0  0  0
 10 27  1  0  0  0
 27 28  1  0  0  0
 28 29  1  0  0  0
 29 30  1  0  0  0
 30 31  1  0  0  0
 30 33  1  0  0  0
 31 32  2  0  0  0
 31 34  1  0  0  0
 34 35  1  0  0  0
 34 36  1  0  0  0
M  END
> <minimizedAffinity>
-8.32368

$$$$
