CHEMBL240406


 29 32  0  0  0  0  0  0  0  0999 V2000
  -13.5012    3.1047  -16.3537 C   0  0  0  0  0  0  0  0  0  0  0  0
  -13.3695    1.6749  -16.0258 C   0  0  0  0  0  0  0  0  0  0  0  0
  -12.2330    1.0268  -16.3136 N   0  0  0  0  0  0  0  0  0  0  0  0
  -12.4408   -0.3025  -15.8843 O   0  0  0  0  0  0  0  0  0  0  0  0
  -13.7210   -0.4052  -15.3436 C   0  0  0  0  0  0  0  0  0  0  0  0
  -14.3426    0.8414  -15.4301 C   0  0  0  0  0  0  0  0  0  0  0  0
  -15.7370    1.1802  -14.9701 C   0  0  0  0  0  0  0  0  0  0  0  0
  -16.0961    1.0785  -13.8060 O   0  0  0  0  0  0  0  0  0  0  0  0
  -16.7162    1.6117  -15.8885 N   0  0  0  0  0  0  0  0  0  0  0  0
  -16.4938    1.7117  -16.8720 H   0  0  0  0  0  0  0  0  0  0  0  0
  -18.0627    1.9120  -15.4698 C   0  0  0  0  0  0  0  0  0  0  0  0
  -18.5589    3.2066  -15.4646 C   0  0  0  0  0  0  0  0  0  0  0  0
  -19.7753    3.6226  -14.9781 N   0  0  0  0  0  0  0  0  0  0  0  0
  -20.5312    2.5296  -14.5800 C   0  0  0  0  0  0  0  0  0  0  0  0
  -21.7600    2.9654  -14.2935 C   0  0  0  0  0  0  0  0  0  0  0  0
  -22.6092    2.0125  -13.8971 C   0  0  0  0  0  0  0  0  0  0  0  0
  -23.4335    1.1497  -13.5237 C   0  0  0  0  0  0  0  0  0  0  0  0
  -21.6780    0.6534  -14.1098 C   0  0  0  0  0  0  0  0  0  0  0  0
  -20.2853    1.2337  -14.6374 C   0  0  0  0  0  0  0  0  0  0  0  0
  -18.9360    0.9071  -15.0613 C   0  0  0  0  0  0  0  0  0  0  0  0
  -14.2355   -1.5644  -14.8238 N   0  0  0  0  0  0  0  0  0  0  0  0
  -14.6494   -2.2812  -15.3933 H   0  0  0  0  0  0  0  0  0  0  0  0
  -14.2167   -1.8427  -13.3724 C   0  0  0  0  0  0  0  0  0  0  0  0
  -15.1145   -2.9526  -12.9561 C   0  0  0  0  0  0  0  0  0  0  0  0
  -15.5541   -3.0523  -11.6530 C   0  0  0  0  0  0  0  0  0  0  0  0
  -16.3926   -4.0655  -11.2865 C   0  0  0  0  0  0  0  0  0  0  0  0
  -16.8163   -5.0137  -12.1275 N   0  0  0  0  0  0  0  0  0  0  0  0
  -16.3692   -4.9222  -13.3866 C   0  0  0  0  0  0  0  0  0  0  0  0
  -15.5462   -3.9236  -13.8395 C   0  0  0  0  0  0  0  0  0  0  0  0
  1  2  1  0  0  0
  2  3  2  0  0  0
  2  6  1  0  0  0
  3  4  1  0  0  0
  4  5  1  0  0  0
  5 21  1  0  0  0
  5  6  2  0  0  0
 21 23  1  0  0  0
 21 22  1  0  0  0
 23 24  1  0  0  0
 24 25  1  0  0  0
 24 29  2  0  0  0
 25 26  2  0  0  0
 26 27  1  0  0  0
 27 28  2  0  0  0
 28 29  1  0  0  0
  6  7  1  0  0  0
  7  8  2  0  0  0
  7  9  1  0  0  0
  9 11  1  0  0  0
  9 10  1  0  0  0
 11 12  1  0  0  0
 11 20  2  0  0  0
 12 13  2  0  0  0
 13 14  1  0  0  0
 14 15  1  0  0  0
 14 19  2  0  0  0
 15 16  2  0  0  0
 16 17  1  0  0  0
 17 18  2  0  0  0
 18 19  1  0  0  0
 19 20  1  0  0  0
M  END
> <minimizedAffinity>
-8.84069

$$$$
