CHEMBL389343


 26 28  0  0  0  0  0  0  0  0999 V2000
  -28.3654   -8.7239   -6.5554 C   0  0  0  0  0  0  0  0  0  0  0  0
  -28.6443   -7.8876   -5.5051 C   0  0  0  0  0  0  0  0  0  0  0  0
  -29.1760   -6.6656   -5.6487 N   0  0  0  0  0  0  0  0  0  0  0  0
  -29.4793   -6.2581   -6.8898 C   0  0  0  0  0  0  0  0  0  0  0  0
  -29.2532   -7.0111   -7.9788 N   0  0  0  0  0  0  0  0  0  0  0  0
  -28.6574   -8.2331   -7.8187 C   0  0  0  0  0  0  0  0  0  0  0  0
  -28.3906   -8.9558   -9.0938 C   0  0  0  0  0  0  0  0  0  0  0  0
  -29.3483   -9.7766   -9.7236 C   0  0  0  0  0  0  0  0  0  0  0  0
  -29.0997  -10.3884  -10.9570 C   0  0  0  0  0  0  0  0  0  0  0  0
  -27.8646  -10.2358  -11.5736 C   0  0  0  0  0  0  0  0  0  0  0  0
  -26.8758   -9.4822  -10.9510 C   0  0  0  0  0  0  0  0  0  0  0  0
  -27.1373   -8.8508   -9.7287 C   0  0  0  0  0  0  0  0  0  0  0  0
  -27.4034  -11.0508   -5.9895 N   0  0  0  0  0  0  0  0  0  0  0  0
  -27.8371  -10.0109   -6.2673 C   0  0  0  0  0  0  0  0  0  0  0  0
  -30.0951   -5.0213   -7.0574 N   0  0  0  0  0  0  0  0  0  0  0  0
  -30.9370   -5.0638   -7.6081 H   0  0  0  0  0  0  0  0  0  0  0  0
  -29.5877   -3.7580   -6.7202 C   0  0  0  0  0  0  0  0  0  0  0  0
  -28.5239   -3.1862   -7.4328 C   0  0  0  0  0  0  0  0  0  0  0  0
  -27.9370   -1.9853   -7.0316 C   0  0  0  0  0  0  0  0  0  0  0  0
  -28.3841   -1.3375   -5.8793 C   0  0  0  0  0  0  0  0  0  0  0  0
  -29.4634   -1.8863   -5.1736 C   0  0  0  0  0  0  0  0  0  0  0  0
  -30.0641   -3.0806   -5.5942 C   0  0  0  0  0  0  0  0  0  0  0  0
  -27.6979   -0.0820   -5.3941 C   0  0  0  0  0  0  0  0  0  0  0  0
  -28.5747    1.1644   -5.4850 C   0  0  0  0  0  0  0  0  0  0  0  0
  -28.4881    1.7704   -6.7702 O   0  0  0  0  0  0  0  0  0  0  0  0
  -27.5813    2.1169   -6.8536 H   0  0  0  0  0  0  0  0  0  0  0  0
 13 14  3  0  0  0
 14  1  1  0  0  0
  1  2  1  0  0  0
  1  6  2  0  0  0
  2  3  2  0  0  0
  3  4  1  0  0  0
  4 15  1  0  0  0
  4  5  2  0  0  0
 15 17  1  0  0  0
 15 16  1  0  0  0
 17 18  1  0  0  0
 17 22  2  0  0  0
 18 19  2  0  0  0
 19 20  1  0  0  0
 20 23  1  0  0  0
 20 21  2  0  0  0
 23 24  1  0  0  0
 24 25  1  0  0  0
 25 26  1  0  0  0
 21 22  1  0  0  0
  5  6  1  0  0  0
  6  7  1  0  0  0
  7  8  1  0  0  0
  7 12  2  0  0  0
  8  9  2  0  0  0
  9 10  1  0  0  0
 10 11  2  0  0  0
 11 12  1  0  0  0
M  END
> <minimizedAffinity>
-7.64603

$$$$
