CHEMBL3956571


 30 33  0  0  0  0  0  0  0  0999 V2000
  -29.1838   -8.4917   -6.3581 C   0  0  0  0  0  0  0  0  0  0  0  0
  -29.1254   -8.6716   -4.9662 C   0  0  0  0  0  0  0  0  0  0  0  0
  -29.0272   -7.5767   -4.1192 C   0  0  0  0  0  0  0  0  0  0  0  0
  -28.9227   -6.2872   -4.6131 C   0  0  0  0  0  0  0  0  0  0  0  0
  -28.9107   -5.2649   -3.7452 N   0  0  0  0  0  0  0  0  0  0  0  0
  -28.7945   -4.0368   -4.2873 C   0  0  0  0  0  0  0  0  0  0  0  0
  -28.6776   -3.8205   -5.6521 C   0  0  0  0  0  0  0  0  0  0  0  0
  -28.7257   -4.8481   -6.5319 N   0  0  0  0  0  0  0  0  0  0  0  0
  -28.8682   -6.0853   -6.0152 C   0  0  0  0  0  0  0  0  0  0  0  0
  -28.9944   -7.1882   -6.8494 C   0  0  0  0  0  0  0  0  0  0  0  0
  -28.4639   -2.4854   -6.1813 C   0  0  0  0  0  0  0  0  0  0  0  0
  -27.8625   -2.0597   -7.3892 C   0  0  0  0  0  0  0  0  0  0  0  0
  -27.8802   -0.7322   -7.5405 N   0  0  0  0  0  0  0  0  0  0  0  0
  -28.5052   -0.3014   -6.4306 N   0  0  0  0  0  0  0  0  0  0  0  0
  -28.7396    1.1102   -6.2445 C   0  0  0  0  0  0  0  0  0  0  0  0
  -28.8705   -1.3083   -5.5852 C   0  0  0  0  0  0  0  0  0  0  0  0
  -29.4819   -9.5601   -7.2334 N   0  0  0  0  0  0  0  0  0  0  0  0
  -28.4562  -10.2570  -10.7935 C   0  0  0  0  0  0  0  0  0  0  0  0
  -27.1195  -10.6043  -10.6416 C   0  0  0  0  0  0  0  0  0  0  0  0
  -26.5773  -10.6954   -9.3647 C   0  0  0  0  0  0  0  0  0  0  0  0
  -27.3617  -10.4190   -8.2349 C   0  0  0  0  0  0  0  0  0  0  0  0
  -26.6062  -10.7756   -6.7120 Cl  0  0  0  0  0  0  0  0  0  0  0  0
  -28.7010   -9.9652   -8.3523 C   0  0  0  0  0  0  0  0  0  0  0  0
  -29.2185   -9.9034   -9.6664 C   0  0  0  0  0  0  0  0  0  0  0  0
  -28.2956   -9.7933  -13.1049 C   0  0  0  0  0  0  0  0  0  0  0  0
  -29.1039  -10.1971  -11.9998 O   0  0  0  0  0  0  0  0  0  0  0  0
  -30.7747  -10.2564   -6.9675 C   0  0  0  0  0  0  0  0  0  0  0  0
  -32.0265   -9.4387   -7.3653 C   0  0  0  0  0  0  0  0  0  0  0  0
  -32.5262   -9.7920   -8.6512 O   0  0  0  0  0  0  0  0  0  0  0  0
  -32.0381   -9.2494   -9.2979 H   0  0  0  0  0  0  0  0  0  0  0  0
 25 26  1  0  0  0
 26 18  1  0  0  0
 18 19  1  0  0  0
 18 24  2  0  0  0
 19 20  2  0  0  0
 20 21  1  0  0  0
 21 22  1  0  0  0
 21 23  2  0  0  0
 23 17  1  0  0  0
 23 24  1  0  0  0
 17 27  1  0  0  0
 17  1  1  0  0  0
 27 28  1  0  0  0
 28 29  1  0  0  0
 29 30  1  0  0  0
  1  2  1  0  0  0
  1 10  2  0  0  0
  2  3  2  0  0  0
  3  4  1  0  0  0
  4  5  1  0  0  0
  4  9  2  0  0  0
  5  6  2  0  0  0
  6  7  1  0  0  0
  7 11  1  0  0  0
  7  8  2  0  0  0
 11 12  1  0  0  0
 11 16  2  0  0  0
 12 13  2  0  0  0
 13 14  1  0  0  0
 14 15  1  0  0  0
 14 16  1  0  0  0
  8  9  1  0  0  0
  9 10  1  0  0  0
M  END
> <minimizedAffinity>
-8.10410

$$$$
