CHEMBL248221


 35 39  0  0  0  0  0  0  0  0999 V2000
  -29.2290   -7.1813   -4.6623 C   0  0  0  0  0  0  0  0  0  0  0  0
  -29.4200   -6.0614   -3.8538 C   0  0  0  0  0  0  0  0  0  0  0  0
  -29.5185   -4.7811   -4.3777 C   0  0  0  0  0  0  0  0  0  0  0  0
  -29.6650   -3.7802   -3.5062 N   0  0  0  0  0  0  0  0  0  0  0  0
  -29.6387   -2.5184   -3.9801 C   0  0  0  0  0  0  0  0  0  0  0  0
  -29.4975   -2.1849   -5.3184 C   0  0  0  0  0  0  0  0  0  0  0  0
  -29.4645   -3.2178   -6.2650 C   0  0  0  0  0  0  0  0  0  0  0  0
  -29.4336   -4.5783   -5.7779 C   0  0  0  0  0  0  0  0  0  0  0  0
  -29.3191   -5.7411   -6.5913 C   0  0  0  0  0  0  0  0  0  0  0  0
  -29.2382   -7.0329   -6.0519 C   0  0  0  0  0  0  0  0  0  0  0  0
  -27.7567   -8.8323   -3.8176 C   0  0  0  0  0  0  0  0  0  0  0  0
  -29.0903   -8.3559   -3.9668 O   0  0  0  0  0  0  0  0  0  0  0  0
  -29.3221   -0.8015   -5.6323 C   0  0  0  0  0  0  0  0  0  0  0  0
  -29.2194    0.3098   -5.9427 N   0  0  0  0  0  0  0  0  0  0  0  0
  -29.3384   -2.9567   -7.6756 N   0  0  0  0  0  0  0  0  0  0  0  0
  -29.9923   -2.2367   -7.9642 H   0  0  0  0  0  0  0  0  0  0  0  0
  -28.0157   -2.7524   -8.3514 C   0  0  0  0  0  0  0  0  0  0  0  0
  -27.3666   -1.4036   -8.3487 C   0  0  0  0  0  0  0  0  0  0  0  0
  -28.0177   -1.9147   -9.6140 C   0  0  0  0  0  0  0  0  0  0  0  0
  -27.1556   -1.8836  -10.8539 C   0  0  0  0  0  0  0  0  0  0  0  0
  -27.5937   -2.0041  -12.1796 C   0  0  0  0  0  0  0  0  0  0  0  0
  -26.7428   -1.6719  -13.2506 C   0  0  0  0  0  0  0  0  0  0  0  0
  -25.4425   -1.2207  -13.0140 C   0  0  0  0  0  0  0  0  0  0  0  0
  -24.9663   -1.1574  -11.7134 C   0  0  0  0  0  0  0  0  0  0  0  0
  -25.8091   -1.5027  -10.6595 C   0  0  0  0  0  0  0  0  0  0  0  0
  -29.1968   -8.1699   -6.7986 O   0  0  0  0  0  0  0  0  0  0  0  0
  -30.3016   -9.0721   -6.8001 C   0  0  0  0  0  0  0  0  0  0  0  0
  -30.7654   -9.2140   -8.2526 C   0  0  0  0  0  0  0  0  0  0  0  0
  -29.5559   -9.2538   -9.1971 C   0  0  0  0  0  0  0  0  0  0  0  0
  -29.1788  -10.5825   -9.6993 N   0  0  0  0  0  0  0  0  0  0  0  0
  -28.1308  -11.2662   -8.9068 C   0  0  0  0  0  0  0  0  0  0  0  0
  -26.7054  -10.7091   -9.0798 C   0  0  0  0  0  0  0  0  0  0  0  0
  -26.3225  -10.6345  -10.4584 O   0  0  0  0  0  0  0  0  0  0  0  0
  -27.2685   -9.8655  -11.2074 C   0  0  0  0  0  0  0  0  0  0  0  0
  -28.6818  -10.4686  -11.0956 C   0  0  0  0  0  0  0  0  0  0  0  0
 11 12  1  0  0  0
 12  1  1  0  0  0
  1  2  1  0  0  0
  1 10  2  0  0  0
  2  3  2  0  0  0
  3  4  1  0  0  0
  3  8  1  0  0  0
  4  5  2  0  0  0
  5  6  1  0  0  0
  6 13  1  0  0  0
  6  7  2  0  0  0
 13 14  3  0  0  0
  7 15  1  0  0  0
  7  8  1  0  0  0
 15 17  1  0  0  0
 15 16  1  0  0  0
 17 18  1  0  0  0
 17 19  1  0  0  0
 18 19  1  0  0  0
 19 20  1  0  0  0
 20 21  1  0  0  0
 20 25  2  0  0  0
 21 22  2  0  0  0
 22 23  1  0  0  0
 23 24  2  0  0  0
 24 25  1  0  0  0
  8  9  2  0  0  0
  9 10  1  0  0  0
 10 26  1  0  0  0
 26 27  1  0  0  0
 27 28  1  0  0  0
 28 29  1  0  0  0
 29 30  1  0  0  0
 30 31  1  0  0  0
 30 35  1  0  0  0
 31 32  1  0  0  0
 32 33  1  0  0  0
 33 34  1  0  0  0
 34 35  1  0  0  0
M  END
> <minimizedAffinity>
-8.61765

$$$$
