CHEMBL4793436


 46 51  0  0  0  0  0  0  0  0999 V2000
  -28.7349   -2.6963   -7.3013 C   0  0  0  0  0  0  0  0  0  0  0  0
  -28.1427   -3.5868   -8.2003 C   0  0  0  0  0  0  0  0  0  0  0  0
  -27.3330   -3.1037   -9.2347 C   0  0  0  0  0  0  0  0  0  0  0  0
  -27.1021   -1.7315   -9.3663 C   0  0  0  0  0  0  0  0  0  0  0  0
  -27.5131   -0.8951   -8.3193 C   0  0  0  0  0  0  0  0  0  0  0  0
  -28.2913   -1.3867   -7.2783 C   0  0  0  0  0  0  0  0  0  0  0  0
  -28.7316   -0.5282   -6.3455 F   0  0  0  0  0  0  0  0  0  0  0  0
  -26.4823   -1.2308  -10.5311 N   0  0  0  0  0  0  0  0  0  0  0  0
  -25.4744   -1.0790  -10.4194 H   0  0  0  0  0  0  0  0  0  0  0  0
  -26.8424   -1.5225  -11.8565 C   0  0  0  0  0  0  0  0  0  0  0  0
  -27.9787   -2.2558  -12.0230 N   0  0  0  0  0  0  0  0  0  0  0  0
  -28.3664   -2.6034  -13.2588 C   0  0  0  0  0  0  0  0  0  0  0  0
  -27.6683   -2.2623  -14.3953 C   0  0  0  0  0  0  0  0  0  0  0  0
  -26.4993   -1.5211  -14.2498 C   0  0  0  0  0  0  0  0  0  0  0  0
  -25.7751   -1.1314  -15.3846 N   0  0  0  0  0  0  0  0  0  0  0  0
  -24.6068   -0.4268  -15.2683 C   0  0  0  0  0  0  0  0  0  0  0  0
  -24.0762   -0.0080  -14.1127 C   0  0  0  0  0  0  0  0  0  0  0  0
  -24.8116   -0.3539  -12.8456 C   0  0  0  0  0  0  0  0  0  0  0  0
  -24.3816   -0.0279  -11.7415 O   0  0  0  0  0  0  0  0  0  0  0  0
  -26.0812   -1.1300  -12.9644 C   0  0  0  0  0  0  0  0  0  0  0  0
  -26.0204   -1.5206  -16.2886 H   0  0  0  0  0  0  0  0  0  0  0  0
  -22.8019    0.7214  -14.1228 C   0  0  0  0  0  0  0  0  0  0  0  0
  -22.7643    2.1004  -13.8687 C   0  0  0  0  0  0  0  0  0  0  0  0
  -21.5477    2.7891  -13.9006 C   0  0  0  0  0  0  0  0  0  0  0  0
  -20.3770    2.1003  -14.1937 C   0  0  0  0  0  0  0  0  0  0  0  0
  -19.2100    2.7590  -14.2128 F   0  0  0  0  0  0  0  0  0  0  0  0
  -20.3981    0.7390  -14.4707 C   0  0  0  0  0  0  0  0  0  0  0  0
  -21.6120    0.0482  -14.4391 C   0  0  0  0  0  0  0  0  0  0  0  0
  -29.6779   -3.2054   -6.4672 O   0  0  0  0  0  0  0  0  0  0  0  0
  -30.3973   -7.8103   -6.9021 C   0  0  0  0  0  0  0  0  0  0  0  0
  -30.1986   -6.4136   -6.9300 C   0  0  0  0  0  0  0  0  0  0  0  0
  -29.6441   -5.6646   -5.8342 C   0  0  0  0  0  0  0  0  0  0  0  0
  -29.4966   -4.2675   -5.6148 C   0  0  0  0  0  0  0  0  0  0  0  0
  -29.0172   -3.7646   -4.4423 N   0  0  0  0  0  0  0  0  0  0  0  0
  -28.6753   -4.6401   -3.5044 C   0  0  0  0  0  0  0  0  0  0  0  0
  -28.6716   -5.9573   -3.6469 N   0  0  0  0  0  0  0  0  0  0  0  0
  -29.1539   -6.4455   -4.7829 C   0  0  0  0  0  0  0  0  0  0  0  0
  -29.1728   -7.8214   -4.8529 C   0  0  0  0  0  0  0  0  0  0  0  0
  -29.8529   -8.5365   -5.8372 C   0  0  0  0  0  0  0  0  0  0  0  0
  -32.4474   -8.7993   -7.5913 C   0  0  0  0  0  0  0  0  0  0  0  0
  -31.0826   -8.4876   -7.8812 O   0  0  0  0  0  0  0  0  0  0  0  0
  -30.0383   -9.9136   -5.7635 O   0  0  0  0  0  0  0  0  0  0  0  0
  -28.9526  -10.5962   -5.0956 C   0  0  0  0  0  0  0  0  0  0  0  0
  -29.3816  -11.5778   -4.0126 C   0  0  0  0  0  0  0  0  0  0  0  0
  -30.2868  -10.9889   -3.0843 O   0  0  0  0  0  0  0  0  0  0  0  0
  -29.7802  -10.3098   -2.5971 H   0  0  0  0  0  0  0  0  0  0  0  0
 40 41  1  0  0  0
 41 30  1  0  0  0
 30 31  1  0  0  0
 30 39  2  0  0  0
 31 32  2  0  0  0
 32 33  1  0  0  0
 32 37  1  0  0  0
 33 29  1  0  0  0
 33 34  2  0  0  0
 29  1  1  0  0  0
  1  2  1  0  0  0
  1  6  2  0  0  0
  2  3  2  0  0  0
  3  4  1  0  0  0
  4  8  1  0  0  0
  4  5  2  0  0  0
  8 10  1  0  0  0
  8  9  1  0  0  0
 10 11  1  0  0  0
 10 20  2  0  0  0
 11 12  2  0  0  0
 12 13  1  0  0  0
 13 14  2  0  0  0
 14 15  1  0  0  0
 14 20  1  0  0  0
 15 16  1  0  0  0
 15 21  1  0  0  0
 16 17  2  0  0  0
 17 22  1  0  0  0
 17 18  1  0  0  0
 22 23  1  0  0  0
 22 28  2  0  0  0
 23 24  2  0  0  0
 24 25  1  0  0  0
 25 26  1  0  0  0
 25 27  2  0  0  0
 27 28  1  0  0  0
 18 19  2  0  0  0
 18 20  1  0  0  0
  5  6  1  0  0  0
  6  7  1  0  0  0
 34 35  1  0  0  0
 35 36  2  0  0  0
 36 37  1  0  0  0
 37 38  2  0  0  0
 38 39  1  0  0  0
 39 42  1  0  0  0
 42 43  1  0  0  0
 43 44  1  0  0  0
 44 45  1  0  0  0
 45 46  1  0  0  0
M  END
> <minimizedAffinity>
-9.47202

$$$$
