CHEMBL4097955


 33 37  0  0  0  0  0  0  0  0999 V2000
  -29.6210   -7.0638   -6.0438 C   0  0  0  0  0  0  0  0  0  0  0  0
  -28.8443   -6.8886   -7.1900 C   0  0  0  0  0  0  0  0  0  0  0  0
  -28.4984   -5.6157   -7.6553 C   0  0  0  0  0  0  0  0  0  0  0  0
  -29.0524   -4.4994   -7.0061 C   0  0  0  0  0  0  0  0  0  0  0  0
  -29.9033   -4.6534   -5.9050 C   0  0  0  0  0  0  0  0  0  0  0  0
  -30.2840   -3.3583   -5.4678 C   0  0  0  0  0  0  0  0  0  0  0  0
  -29.6154   -2.4441   -6.2564 C   0  0  0  0  0  0  0  0  0  0  0  0
  -28.8514   -3.1291   -7.1949 N   0  0  0  0  0  0  0  0  0  0  0  0
  -27.9394   -2.5023   -8.0686 C   0  0  0  0  0  0  0  0  0  0  0  0
  -27.1279   -1.7137   -7.6070 O   0  0  0  0  0  0  0  0  0  0  0  0
  -28.2425   -2.7605   -9.3899 N   0  0  0  0  0  0  0  0  0  0  0  0
  -30.1915   -5.9492   -5.4205 C   0  0  0  0  0  0  0  0  0  0  0  0
  -29.2208   -2.9187   -9.5987 H   0  0  0  0  0  0  0  0  0  0  0  0
  -27.5774   -2.0207  -10.3596 C   0  0  0  0  0  0  0  0  0  0  0  0
  -26.3061   -2.2913  -10.9098 C   0  0  0  0  0  0  0  0  0  0  0  0
  -26.0460   -1.2222  -11.7375 C   0  0  0  0  0  0  0  0  0  0  0  0
  -27.1330   -0.3957  -11.7270 O   0  0  0  0  0  0  0  0  0  0  0  0
  -28.1258   -0.9353  -10.9154 N   0  0  0  0  0  0  0  0  0  0  0  0
  -24.7590   -0.9351  -12.5396 C   0  0  0  0  0  0  0  0  0  0  0  0
  -24.8123   -1.2620  -14.0101 C   0  0  0  0  0  0  0  0  0  0  0  0
  -23.4104   -1.0866  -11.8485 C   0  0  0  0  0  0  0  0  0  0  0  0
  -23.9453    0.2800  -12.0992 C   0  0  0  0  0  0  0  0  0  0  0  0
  -29.9002   -8.2904   -5.4716 O   0  0  0  0  0  0  0  0  0  0  0  0
  -26.7150   -9.3173   -4.0219 C   0  0  0  0  0  0  0  0  0  0  0  0
  -27.6338   -8.4814   -4.6241 C   0  0  0  0  0  0  0  0  0  0  0  0
  -28.9078   -8.9770   -4.7970 C   0  0  0  0  0  0  0  0  0  0  0  0
  -29.2941  -10.1640   -4.2962 N   0  0  0  0  0  0  0  0  0  0  0  0
  -28.3450  -10.8726   -3.6712 C   0  0  0  0  0  0  0  0  0  0  0  0
  -27.0574  -10.5250   -3.5284 N   0  0  0  0  0  0  0  0  0  0  0  0
  -25.2755   -8.8659   -3.8833 C   0  0  0  0  0  0  0  0  0  0  0  0
  -23.5502  -10.3487   -4.6923 C   0  0  0  0  0  0  0  0  0  0  0  0
  -24.4297   -9.2326   -5.0311 N   0  0  0  0  0  0  0  0  0  0  0  0
  -25.0371   -9.5155   -5.7992 H   0  0  0  0  0  0  0  0  0  0  0  0
 31 32  1  0  0  0
 32 30  1  0  0  0
 32 33  1  0  0  0
 30 24  1  0  0  0
 24 25  1  0  0  0
 24 29  2  0  0  0
 25 26  2  0  0  0
 26 23  1  0  0  0
 26 27  1  0  0  0
 23  1  1  0  0  0
  1  2  1  0  0  0
  1 12  2  0  0  0
  2  3  2  0  0  0
  3  4  1  0  0  0
  4  5  2  0  0  0
  4  8  1  0  0  0
  5  6  1  0  0  0
  5 12  1  0  0  0
  6  7  2  0  0  0
  7  8  1  0  0  0
  8  9  1  0  0  0
  9 10  2  0  0  0
  9 11  1  0  0  0
 11 14  1  0  0  0
 11 13  1  0  0  0
 14 15  1  0  0  0
 14 18  2  0  0  0
 15 16  2  0  0  0
 16 19  1  0  0  0
 16 17  1  0  0  0
 19 20  1  0  0  0
 19 21  1  0  0  0
 19 22  1  0  0  0
 21 22  1  0  0  0
 17 18  1  0  0  0
 27 28  2  0  0  0
 28 29  1  0  0  0
M  END
> <minimizedAffinity>
-9.27077

$$$$
