CHEMBL3221265


 30 32  0  0  0  0  0  0  0  0999 V2000
  -30.2111   -7.2232   -5.3422 N   0  0  0  0  0  0  0  0  0  0  0  0
  -29.7906   -7.7198   -4.5416 H   0  0  0  0  0  0  0  0  0  0  0  0
  -30.9360   -7.9532   -6.3317 C   0  0  0  0  0  0  0  0  0  0  0  0
  -32.2961   -7.8912   -6.3145 N   0  0  0  0  0  0  0  0  0  0  0  0
  -33.0563   -8.5635   -7.2198 C   0  0  0  0  0  0  0  0  0  0  0  0
  -32.4639   -9.3020   -8.1892 N   0  0  0  0  0  0  0  0  0  0  0  0
  -31.1092   -9.3897   -8.2650 C   0  0  0  0  0  0  0  0  0  0  0  0
  -30.5268  -10.1185   -9.2975 C   0  0  0  0  0  0  0  0  0  0  0  0
  -29.1206  -10.2169   -9.4259 C   0  0  0  0  0  0  0  0  0  0  0  0
  -28.3048   -9.5562   -8.4582 C   0  0  0  0  0  0  0  0  0  0  0  0
  -28.9087   -8.8282   -7.4298 C   0  0  0  0  0  0  0  0  0  0  0  0
  -30.2998   -8.7291   -7.3204 C   0  0  0  0  0  0  0  0  0  0  0  0
  -28.5708  -10.9159  -10.4619 O   0  0  0  0  0  0  0  0  0  0  0  0
  -28.7180  -10.5825  -11.7985 C   0  0  0  0  0  0  0  0  0  0  0  0
  -26.9424   -9.5483   -8.4343 O   0  0  0  0  0  0  0  0  0  0  0  0
  -26.0524  -10.4005   -7.8273 C   0  0  0  0  0  0  0  0  0  0  0  0
  -29.8806   -2.9998   -5.4610 C   0  0  0  0  0  0  0  0  0  0  0  0
  -29.7415   -3.7530   -6.6366 C   0  0  0  0  0  0  0  0  0  0  0  0
  -29.8778   -5.1446   -6.6073 C   0  0  0  0  0  0  0  0  0  0  0  0
  -30.1131   -5.8025   -5.3907 C   0  0  0  0  0  0  0  0  0  0  0  0
  -30.2880   -5.0364   -4.2242 C   0  0  0  0  0  0  0  0  0  0  0  0
  -30.1871   -3.6449   -4.2480 C   0  0  0  0  0  0  0  0  0  0  0  0
  -30.4012   -2.8676   -2.9774 C   0  0  0  0  0  0  0  0  0  0  0  0
  -28.4459   -1.0558   -5.3672 C   0  0  0  0  0  0  0  0  0  0  0  0
  -27.4751   -1.7789   -5.1847 O   0  0  0  0  0  0  0  0  0  0  0  0
  -29.6887   -1.5959   -5.5089 N   0  0  0  0  0  0  0  0  0  0  0  0
  -30.5128   -0.9863   -5.6176 H   0  0  0  0  0  0  0  0  0  0  0  0
  -28.2480    0.4375   -5.4044 C   0  0  0  0  0  0  0  0  0  0  0  0
  -30.4895    1.4916   -6.0369 C   0  0  0  0  0  0  0  0  0  0  0  0
  -29.0826    1.1185   -6.5007 C   0  0  0  0  0  0  0  0  0  0  0  0
 29 30  1  0  0  0
 30 28  1  0  0  0
 28 24  1  0  0  0
 24 25  2  0  0  0
 24 26  1  0  0  0
 26 17  1  0  0  0
 26 27  1  0  0  0
 17 18  1  0  0  0
 17 22  2  0  0  0
 18 19  2  0  0  0
 19 20  1  0  0  0
 20  1  1  0  0  0
 20 21  2  0  0  0
  1  3  1  0  0  0
  1  2  1  0  0  0
  3  4  1  0  0  0
  3 12  2  0  0  0
  4  5  2  0  0  0
  5  6  1  0  0  0
  6  7  2  0  0  0
  7  8  1  0  0  0
  7 12  1  0  0  0
  8  9  2  0  0  0
  9 13  1  0  0  0
  9 10  1  0  0  0
 13 14  1  0  0  0
 10 15  1  0  0  0
 10 11  2  0  0  0
 15 16  1  0  0  0
 11 12  1  0  0  0
 21 22  1  0  0  0
 22 23  1  0  0  0
M  END
> <minimizedAffinity>
-8.17776

$$$$
