CHEMBL1688350


 32 36  0  0  0  0  0  0  0  0999 V2000
  -28.1868   -8.2557   -4.3049 C   0  0  0  0  0  0  0  0  0  0  0  0
  -28.8304   -8.3679   -3.1617 N   0  0  0  0  0  0  0  0  0  0  0  0
  -29.7807   -7.3730   -3.1541 N   0  0  0  0  0  0  0  0  0  0  0  0
  -29.6654   -6.7203   -4.2918 C   0  0  0  0  0  0  0  0  0  0  0  0
  -28.6478   -7.2052   -5.0634 O   0  0  0  0  0  0  0  0  0  0  0  0
  -24.9550  -10.1331   -4.6334 C   0  0  0  0  0  0  0  0  0  0  0  0
  -25.1138  -10.6155   -5.9149 C   0  0  0  0  0  0  0  0  0  0  0  0
  -26.1973  -10.3650   -6.6800 N   0  0  0  0  0  0  0  0  0  0  0  0
  -27.1907   -9.5954   -6.1724 C   0  0  0  0  0  0  0  0  0  0  0  0
  -27.1153   -9.0603   -4.8731 C   0  0  0  0  0  0  0  0  0  0  0  0
  -25.9707   -9.3451   -4.1091 C   0  0  0  0  0  0  0  0  0  0  0  0
  -28.3267   -9.3718   -6.9692 N   0  0  0  0  0  0  0  0  0  0  0  0
  -28.0337   -9.2705   -7.9405 H   0  0  0  0  0  0  0  0  0  0  0  0
  -29.3993  -10.3454   -6.8157 C   0  0  0  0  0  0  0  0  0  0  0  0
  -30.7310   -9.7979   -7.1893 C   0  0  0  0  0  0  0  0  0  0  0  0
  -31.6822  -10.2226   -8.0904 C   0  0  0  0  0  0  0  0  0  0  0  0
  -32.7933   -9.4208   -8.0443 N   0  0  0  0  0  0  0  0  0  0  0  0
  -32.5321   -8.5188   -7.1258 C   0  0  0  0  0  0  0  0  0  0  0  0
  -31.2936   -8.7020   -6.5815 N   0  0  0  0  0  0  0  0  0  0  0  0
  -30.8594   -8.1463   -5.8555 H   0  0  0  0  0  0  0  0  0  0  0  0
  -30.3720   -5.7028   -4.8242 N   0  0  0  0  0  0  0  0  0  0  0  0
  -31.3760   -5.8212   -4.8727 H   0  0  0  0  0  0  0  0  0  0  0  0
  -29.9546   -4.3566   -4.8755 C   0  0  0  0  0  0  0  0  0  0  0  0
  -30.1262   -3.5402   -3.7438 C   0  0  0  0  0  0  0  0  0  0  0  0
  -29.7482   -2.1915   -3.7621 C   0  0  0  0  0  0  0  0  0  0  0  0
  -29.2129   -1.6327   -4.9167 C   0  0  0  0  0  0  0  0  0  0  0  0
  -29.0397   -2.4291   -6.0510 C   0  0  0  0  0  0  0  0  0  0  0  0
  -29.4321   -3.7647   -6.0334 C   0  0  0  0  0  0  0  0  0  0  0  0
  -28.4985   -1.9702   -7.2235 O   0  0  0  0  0  0  0  0  0  0  0  0
  -27.8152   -0.7302   -7.0308 C   0  0  0  0  0  0  0  0  0  0  0  0
  -28.6567    0.2180   -6.1932 C   0  0  0  0  0  0  0  0  0  0  0  0
  -28.8673   -0.3083   -4.8759 O   0  0  0  0  0  0  0  0  0  0  0  0
  6  7  1  0  0  0
  6 11  2  0  0  0
  7  8  2  0  0  0
  8  9  1  0  0  0
  9 12  1  0  0  0
  9 10  2  0  0  0
 12 14  1  0  0  0
 12 13  1  0  0  0
 14 15  1  0  0  0
 15 16  2  0  0  0
 15 19  1  0  0  0
 16 17  1  0  0  0
 17 18  2  0  0  0
 18 19  1  0  0  0
 19 20  1  0  0  0
 10  1  1  0  0  0
 10 11  1  0  0  0
  1  2  2  0  0  0
  1  5  1  0  0  0
  2  3  1  0  0  0
  3  4  2  0  0  0
  4 21  1  0  0  0
  4  5  1  0  0  0
 21 23  1  0  0  0
 21 22  1  0  0  0
 23 24  1  0  0  0
 23 28  2  0  0  0
 24 25  2  0  0  0
 25 26  1  0  0  0
 26 27  2  0  0  0
 26 32  1  0  0  0
 27 28  1  0  0  0
 27 29  1  0  0  0
 29 30  1  0  0  0
 30 31  1  0  0  0
 31 32  1  0  0  0
M  END
> <minimizedAffinity>
-8.33528

$$$$
