CHEMBL3956039


 31 34  0  0  0  0  0  0  0  0999 V2000
  -27.8900   -8.9018   -5.9449 C   0  0  0  0  0  0  0  0  0  0  0  0
  -29.0673   -9.6050   -6.2285 C   0  0  0  0  0  0  0  0  0  0  0  0
  -30.2513   -8.9352   -6.5327 C   0  0  0  0  0  0  0  0  0  0  0  0
  -30.2720   -7.5441   -6.5584 C   0  0  0  0  0  0  0  0  0  0  0  0
  -29.1154   -6.8226   -6.2506 C   0  0  0  0  0  0  0  0  0  0  0  0
  -27.9338   -7.4998   -5.9111 C   0  0  0  0  0  0  0  0  0  0  0  0
  -26.4014   -9.0882   -3.4476 O   0  0  0  0  0  0  0  0  0  0  0  0
  -25.9955   -9.5816   -4.4961 C   0  0  0  0  0  0  0  0  0  0  0  0
  -26.6507   -9.5579   -5.7207 N   0  0  0  0  0  0  0  0  0  0  0  0
  -26.3396  -10.2060   -6.4321 H   0  0  0  0  0  0  0  0  0  0  0  0
  -24.7117  -10.3227   -4.4233 C   0  0  0  0  0  0  0  0  0  0  0  0
  -24.2268  -10.6435   -3.1465 C   0  0  0  0  0  0  0  0  0  0  0  0
  -22.9641  -11.2085   -2.9892 C   0  0  0  0  0  0  0  0  0  0  0  0
  -22.1661  -11.4360   -4.1079 C   0  0  0  0  0  0  0  0  0  0  0  0
  -22.6271  -11.1098   -5.3956 C   0  0  0  0  0  0  0  0  0  0  0  0
  -23.9205  -10.5689   -5.5503 C   0  0  0  0  0  0  0  0  0  0  0  0
  -21.7258  -11.2820   -6.5954 C   0  0  0  0  0  0  0  0  0  0  0  0
  -20.9421  -10.1975   -6.8505 F   0  0  0  0  0  0  0  0  0  0  0  0
  -20.8763  -12.3358   -6.4588 F   0  0  0  0  0  0  0  0  0  0  0  0
  -22.4279  -11.5112   -7.7392 F   0  0  0  0  0  0  0  0  0  0  0  0
  -29.1474   -5.3925   -6.3592 C   0  0  0  0  0  0  0  0  0  0  0  0
  -29.0649   -4.1960   -6.4570 C   0  0  0  0  0  0  0  0  0  0  0  0
  -28.8644   -2.7763   -6.6214 C   0  0  0  0  0  0  0  0  0  0  0  0
  -27.8973   -2.2503   -7.6186 C   0  0  0  0  0  0  0  0  0  0  0  0
  -27.7610   -0.9201   -7.6850 C   0  0  0  0  0  0  0  0  0  0  0  0
  -28.5269   -0.1049   -6.8238 C   0  0  0  0  0  0  0  0  0  0  0  0
  -28.5817    1.2035   -6.6909 N   0  0  0  0  0  0  0  0  0  0  0  0
  -29.5003    1.4268   -5.6934 C   0  0  0  0  0  0  0  0  0  0  0  0
  -30.0056    0.2402   -5.2180 C   0  0  0  0  0  0  0  0  0  0  0  0
  -29.3876   -0.7435   -5.9420 N   0  0  0  0  0  0  0  0  0  0  0  0
  -29.5924   -2.0885   -5.8028 N   0  0  0  0  0  0  0  0  0  0  0  0
  7  8  2  0  0  0
  8  9  1  0  0  0
  8 11  1  0  0  0
  9  1  1  0  0  0
  9 10  1  0  0  0
  1  2  1  0  0  0
  1  6  2  0  0  0
  2  3  2  0  0  0
  3  4  1  0  0  0
  4  5  2  0  0  0
  5 21  1  0  0  0
  5  6  1  0  0  0
 21 22  3  0  0  0
 22 23  1  0  0  0
 23 24  1  0  0  0
 23 31  2  0  0  0
 24 25  2  0  0  0
 25 26  1  0  0  0
 26 27  2  0  0  0
 26 30  1  0  0  0
 27 28  1  0  0  0
 28 29  2  0  0  0
 29 30  1  0  0  0
 30 31  1  0  0  0
 11 12  1  0  0  0
 11 16  2  0  0  0
 12 13  2  0  0  0
 13 14  1  0  0  0
 14 15  2  0  0  0
 15 17  1  0  0  0
 15 16  1  0  0  0
 17 18  1  0  0  0
 17 19  1  0  0  0
 17 20  1  0  0  0
M  END
> <minimizedAffinity>
-8.56210

$$$$
