CHEMBL81026


 23 26  0  0  0  0  0  0  0  0999 V2000
  -18.3495    2.3291  -15.4469 C   0  0  0  0  0  0  0  0  0  0  0  0
  -18.6646    0.9600  -15.3647 C   0  0  0  0  0  0  0  0  0  0  0  0
  -19.9065    0.4936  -14.9274 C   0  0  0  0  0  0  0  0  0  0  0  0
  -20.8383    1.4463  -14.5043 C   0  0  0  0  0  0  0  0  0  0  0  0
  -20.5913    2.8121  -14.6109 C   0  0  0  0  0  0  0  0  0  0  0  0
  -19.3422    3.2582  -15.0770 C   0  0  0  0  0  0  0  0  0  0  0  0
  -21.6853    3.5455  -14.2342 N   0  0  0  0  0  0  0  0  0  0  0  0
  -22.5862    2.6537  -13.8880 C   0  0  0  0  0  0  0  0  0  0  0  0
  -22.1171    1.3605  -13.9780 N   0  0  0  0  0  0  0  0  0  0  0  0
  -14.4166    3.5512  -16.7426 C   0  0  0  0  0  0  0  0  0  0  0  0
  -14.7288    2.2034  -16.6002 C   0  0  0  0  0  0  0  0  0  0  0  0
  -16.0127    1.8183  -16.2083 C   0  0  0  0  0  0  0  0  0  0  0  0
  -17.0150    2.7610  -15.9179 C   0  0  0  0  0  0  0  0  0  0  0  0
  -16.6811    4.1161  -16.0690 C   0  0  0  0  0  0  0  0  0  0  0  0
  -15.4014    4.5044  -16.4849 C   0  0  0  0  0  0  0  0  0  0  0  0
  -13.1278    5.4632  -17.2859 C   0  0  0  0  0  0  0  0  0  0  0  0
  -13.2025    4.0516  -17.1244 O   0  0  0  0  0  0  0  0  0  0  0  0
  -22.8039    0.2006  -13.5359 C   0  0  0  0  0  0  0  0  0  0  0  0
  -23.8154   -0.3599  -14.3250 C   0  0  0  0  0  0  0  0  0  0  0  0
  -24.5321   -1.4617  -13.8538 C   0  0  0  0  0  0  0  0  0  0  0  0
  -24.2542   -1.9949  -12.5961 C   0  0  0  0  0  0  0  0  0  0  0  0
  -23.2463   -1.4440  -11.8080 C   0  0  0  0  0  0  0  0  0  0  0  0
  -22.5166   -0.3494  -12.2788 C   0  0  0  0  0  0  0  0  0  0  0  0
 16 17  1  0  0  0
 17 10  1  0  0  0
 10 11  1  0  0  0
 10 15  2  0  0  0
 11 12  2  0  0  0
 12 13  1  0  0  0
 13  1  1  0  0  0
 13 14  2  0  0  0
  1  2  1  0  0  0
  1  6  2  0  0  0
  2  3  2  0  0  0
  3  4  1  0  0  0
  4  5  2  0  0  0
  4  9  1  0  0  0
  5  6  1  0  0  0
  5  7  1  0  0  0
  7  8  2  0  0  0
  8  9  1  0  0  0
  9 18  1  0  0  0
 18 19  1  0  0  0
 18 23  2  0  0  0
 19 20  2  0  0  0
 20 21  1  0  0  0
 21 22  2  0  0  0
 22 23  1  0  0  0
 14 15  1  0  0  0
M  END
> <minimizedAffinity>
-9.99350

$$$$
