CHEMBL3972208


 37 41  0  0  0  0  0  0  0  0999 V2000
  -28.2525   -3.2040   -8.1335 N   0  0  0  0  0  0  0  0  0  0  0  0
  -28.4458   -4.6654   -8.1221 C   0  0  0  0  0  0  0  0  0  0  0  0
  -29.6450   -5.0021   -7.5216 C   0  0  0  0  0  0  0  0  0  0  0  0
  -29.9728   -6.1909   -7.4082 C   0  0  0  0  0  0  0  0  0  0  0  0
  -29.2168   -7.1286   -7.8176 C   0  0  0  0  0  0  0  0  0  0  0  0
  -29.6123   -8.0114   -7.2440 N   0  0  0  0  0  0  0  0  0  0  0  0
  -30.0378   -8.8761   -6.6429 C   0  0  0  0  0  0  0  0  0  0  0  0
  -29.6027   -9.9278   -7.3844 C   0  0  0  0  0  0  0  0  0  0  0  0
  -28.3084   -9.2038   -8.3858 N   0  0  0  0  0  0  0  0  0  0  0  0
  -28.1197   -7.4647   -8.4201 C   0  0  0  0  0  0  0  0  0  0  0  0
  -27.5355   -5.8368   -8.6474 C   0  0  0  0  0  0  0  0  0  0  0  0
  -30.8763  -11.2125   -6.6620 C   0  0  0  0  0  0  0  0  0  0  0  0
  -31.2051  -11.9010   -5.3551 C   0  0  0  0  0  0  0  0  0  0  0  0
  -32.5303  -12.3560   -5.3147 N   0  0  0  0  0  0  0  0  0  0  0  0
  -33.1522  -12.0789   -6.4523 N   0  0  0  0  0  0  0  0  0  0  0  0
  -34.6617  -12.2917   -6.6546 C   0  0  0  0  0  0  0  0  0  0  0  0
  -32.2184  -11.4649   -7.3128 C   0  0  0  0  0  0  0  0  0  0  0  0
  -28.9522   -0.2983   -5.7206 C   0  0  0  0  0  0  0  0  0  0  0  0
  -29.2635   -0.9800   -4.6738 C   0  0  0  0  0  0  0  0  0  0  0  0
  -29.3107   -2.3217   -4.6251 C   0  0  0  0  0  0  0  0  0  0  0  0
  -28.9062   -3.0608   -5.7381 C   0  0  0  0  0  0  0  0  0  0  0  0
  -28.4831   -2.4156   -6.9014 C   0  0  0  0  0  0  0  0  0  0  0  0
  -28.3921   -0.9813   -6.7638 C   0  0  0  0  0  0  0  0  0  0  0  0
  -29.8404   -2.9036   -3.3941 C   0  0  0  0  0  0  0  0  0  0  0  0
  -29.3430   -2.5256   -2.3493 O   0  0  0  0  0  0  0  0  0  0  0  0
  -30.8667   -3.8404   -3.3784 N   0  0  0  0  0  0  0  0  0  0  0  0
  -31.4705   -4.4750   -2.2132 C   0  0  0  0  0  0  0  0  0  0  0  0
  -31.7324   -5.9007   -2.6370 C   0  0  0  0  0  0  0  0  0  0  0  0
  -32.1324   -5.7406   -4.1048 C   0  0  0  0  0  0  0  0  0  0  0  0
  -31.3826   -4.4720   -4.5848 C   0  0  0  0  0  0  0  0  0  0  0  0
  -30.5566    1.5638   -6.0509 C   0  0  0  0  0  0  0  0  0  0  0  0
  -29.2669    1.0451   -5.6714 O   0  0  0  0  0  0  0  0  0  0  0  0
  -28.2117   -2.5876   -9.4635 C   0  0  0  0  0  0  0  0  0  0  0  0
  -26.8741   -2.0474   -9.8417 C   0  0  0  0  0  0  0  0  0  0  0  0
  -26.4684   -1.9801  -11.2349 C   0  0  0  0  0  0  0  0  0  0  0  0
  -27.5906   -2.1528  -12.0752 O   0  0  0  0  0  0  0  0  0  0  0  0
  -27.9625   -3.0671  -11.9329 H   0  0  0  0  0  0  0  0  0  0  0  0
 31 32  1  0  0  0
 32 18  1  0  0  0
 18 19  1  0  0  0
 18 23  2  0  0  0
 19 20  2  0  0  0
 20 24  1  0  0  0
 20 21  1  0  0  0
 24 25  2  0  0  0
 24 26  1  0  0  0
 26 27  1  0  0  0
 26 30  1  0  0  0
 27 28  1  0  0  0
 28 29  1  0  0  0
 29 30  1  0  0  0
 21 22  2  0  0  0
 22  1  1  0  0  0
 22 23  1  0  0  0
  1 33  1  0  0  0
  1  2  1  0  0  0
 33 34  1  0  0  0
 34 35  1  0  0  0
 35 36  1  0  0  0
 36 37  1  0  0  0
  2  3  1  0  0  0
  2 11  2  0  0  0
  3  4  2  0  0  0
  4  5  1  0  0  0
  5  6  1  0  0  0
  5 10  2  0  0  0
  6  7  2  0  0  0
  7  8  1  0  0  0
  8 12  1  0  0  0
  8  9  2  0  0  0
 12 13  1  0  0  0
 12 17  2  0  0  0
 13 14  2  0  0  0
 14 15  1  0  0  0
 15 16  1  0  0  0
 15 17  1  0  0  0
  9 10  1  0  0  0
 10 11  1  0  0  0
M  END
> <minimizedAffinity>
-7.34213

$$$$
