CHEMBL297012


 27 30  0  0  0  0  0  0  0  0999 V2000
  -16.1378    3.6208  -16.0828 C   0  0  0  0  0  0  0  0  0  0  0  0
  -15.7684    3.4556  -17.3647 N   0  0  0  0  0  0  0  0  0  0  0  0
  -14.4850    3.1829  -17.6238 C   0  0  0  0  0  0  0  0  0  0  0  0
  -13.5319    3.0799  -16.6479 C   0  0  0  0  0  0  0  0  0  0  0  0
  -13.9986    3.1868  -15.3601 C   0  0  0  0  0  0  0  0  0  0  0  0
  -15.2932    3.4489  -15.0658 N   0  0  0  0  0  0  0  0  0  0  0  0
  -13.1007    2.9411  -14.2795 N   0  0  0  0  0  0  0  0  0  0  0  0
  -12.0511    3.7625  -13.9118 C   0  0  0  0  0  0  0  0  0  0  0  0
  -11.5245    3.2066  -12.7715 C   0  0  0  0  0  0  0  0  0  0  0  0
  -12.1669    2.0413  -12.4659 N   0  0  0  0  0  0  0  0  0  0  0  0
  -13.0809    1.8485  -13.4098 C   0  0  0  0  0  0  0  0  0  0  0  0
  -13.8727    0.6053  -13.5305 C   0  0  0  0  0  0  0  0  0  0  0  0
  -13.2967   -0.5239  -14.1277 C   0  0  0  0  0  0  0  0  0  0  0  0
  -14.0084   -1.7254  -14.2211 C   0  0  0  0  0  0  0  0  0  0  0  0
  -15.2998   -1.8192  -13.7050 C   0  0  0  0  0  0  0  0  0  0  0  0
  -15.9026   -0.6981  -13.1511 C   0  0  0  0  0  0  0  0  0  0  0  0
  -15.2077    0.5123  -13.1109 C   0  0  0  0  0  0  0  0  0  0  0  0
  -17.4502    3.9959  -15.7993 N   0  0  0  0  0  0  0  0  0  0  0  0
  -17.4818    4.9393  -15.4438 H   0  0  0  0  0  0  0  0  0  0  0  0
  -20.5350    1.3143  -14.7427 C   0  0  0  0  0  0  0  0  0  0  0  0
  -20.7908    2.6874  -14.7935 C   0  0  0  0  0  0  0  0  0  0  0  0
  -19.7722    3.5856  -15.1510 C   0  0  0  0  0  0  0  0  0  0  0  0
  -18.4894    3.1186  -15.4479 C   0  0  0  0  0  0  0  0  0  0  0  0
  -18.2695    1.7362  -15.4421 C   0  0  0  0  0  0  0  0  0  0  0  0
  -19.2748    0.8455  -15.0804 C   0  0  0  0  0  0  0  0  0  0  0  0
  -22.6856    0.7424  -13.9158 C   0  0  0  0  0  0  0  0  0  0  0  0
  -21.4139    0.3310  -14.3927 O   0  0  0  0  0  0  0  0  0  0  0  0
 26 27  1  0  0  0
 27 20  1  0  0  0
 20 21  1  0  0  0
 20 25  2  0  0  0
 21 22  2  0  0  0
 22 23  1  0  0  0
 23 18  1  0  0  0
 23 24  2  0  0  0
 18  1  1  0  0  0
 18 19  1  0  0  0
  1  2  1  0  0  0
  1  6  2  0  0  0
  2  3  2  0  0  0
  3  4  1  0  0  0
  4  5  2  0  0  0
  5  7  1  0  0  0
  5  6  1  0  0  0
  7  8  1  0  0  0
  7 11  1  0  0  0
  8  9  2  0  0  0
  9 10  1  0  0  0
 10 11  2  0  0  0
 11 12  1  0  0  0
 12 13  1  0  0  0
 12 17  2  0  0  0
 13 14  2  0  0  0
 14 15  1  0  0  0
 15 16  2  0  0  0
 16 17  1  0  0  0
 24 25  1  0  0  0
M  END
> <minimizedAffinity>
-7.36827

$$$$
