CHEMBL4458485


 37 40  0  0  0  0  0  0  0  0999 V2000
  -15.3718    3.6642  -17.1393 C   0  0  0  0  0  0  0  0  0  0  0  0
  -16.4743    3.6560  -16.2844 C   0  0  0  0  0  0  0  0  0  0  0  0
  -16.8646    2.4785  -15.6408 C   0  0  0  0  0  0  0  0  0  0  0  0
  -16.1444    1.2933  -15.8325 C   0  0  0  0  0  0  0  0  0  0  0  0
  -15.0647    1.2910  -16.7083 C   0  0  0  0  0  0  0  0  0  0  0  0
  -14.7249    2.4551  -17.3976 C   0  0  0  0  0  0  0  0  0  0  0  0
  -10.9913    6.5486  -15.3747 C   0  0  0  0  0  0  0  0  0  0  0  0
  -12.1322    6.4042  -16.2341 N   0  0  0  0  0  0  0  0  0  0  0  0
  -13.0825    5.4034  -16.0993 C   0  0  0  0  0  0  0  0  0  0  0  0
  -13.1493    4.5641  -15.2309 O   0  0  0  0  0  0  0  0  0  0  0  0
  -14.0355    5.5955  -17.3039 C   0  0  0  0  0  0  0  0  0  0  0  0
  -15.0071    4.8637  -17.7535 N   0  0  0  0  0  0  0  0  0  0  0  0
  -13.5930    6.8194  -17.9614 C   0  0  0  0  0  0  0  0  0  0  0  0
  -14.1309    7.4747  -19.0528 C   0  0  0  0  0  0  0  0  0  0  0  0
  -13.4695    8.6231  -19.4790 C   0  0  0  0  0  0  0  0  0  0  0  0
  -14.0732    9.4983  -20.8310 Cl  0  0  0  0  0  0  0  0  0  0  0  0
  -12.3064    9.0775  -18.8279 C   0  0  0  0  0  0  0  0  0  0  0  0
  -11.7812    8.3917  -17.7258 C   0  0  0  0  0  0  0  0  0  0  0  0
  -12.4440    7.2535  -17.3005 C   0  0  0  0  0  0  0  0  0  0  0  0
  -16.4488    0.0898  -15.1649 N   0  0  0  0  0  0  0  0  0  0  0  0
  -15.7050   -0.4146  -14.1247 C   0  0  0  0  0  0  0  0  0  0  0  0
  -14.7931    0.1887  -13.5676 O   0  0  0  0  0  0  0  0  0  0  0  0
  -16.0987   -1.7078  -13.7919 N   0  0  0  0  0  0  0  0  0  0  0  0
  -17.3931   -0.2563  -15.2387 H   0  0  0  0  0  0  0  0  0  0  0  0
  -16.3418   -2.2625  -14.6017 H   0  0  0  0  0  0  0  0  0  0  0  0
  -15.3825   -2.3627  -12.7693 C   0  0  0  0  0  0  0  0  0  0  0  0
  -14.2703   -3.1513  -13.0913 C   0  0  0  0  0  0  0  0  0  0  0  0
  -13.7153   -3.9982  -12.1414 C   0  0  0  0  0  0  0  0  0  0  0  0
  -14.2662   -4.0306  -10.8612 C   0  0  0  0  0  0  0  0  0  0  0  0
  -15.3326   -3.1935  -10.5108 C   0  0  0  0  0  0  0  0  0  0  0  0
  -15.8754   -2.3308  -11.4646 C   0  0  0  0  0  0  0  0  0  0  0  0
  -13.6345   -5.1916   -9.6935 S   0  0  0  0  0  0  0  0  0  0  0  0
  -13.9845   -6.6352  -10.4716 N   0  0  0  0  0  0  0  0  0  0  0  0
  -12.1939   -5.0955   -9.6526 O   0  0  0  0  0  0  0  0  0  0  0  0
  -14.4492   -5.1741   -8.5018 O   0  0  0  0  0  0  0  0  0  0  0  0
  -13.1219   -7.1379  -10.6748 H   0  0  0  0  0  0  0  0  0  0  0  0
  -14.6698   -7.1623   -9.9315 H   0  0  0  0  0  0  0  0  0  0  0  0
  7  8  1  0  0  0
  8  9  1  0  0  0
  8 19  1  0  0  0
  9 10  2  0  0  0
  9 11  1  0  0  0
 11 12  2  0  0  0
 11 13  1  0  0  0
 12  1  1  0  0  0
  1  2  1  0  0  0
  1  6  2  0  0  0
  2  3  2  0  0  0
  3  4  1  0  0  0
  4 20  1  0  0  0
  4  5  2  0  0  0
 20 21  1  0  0  0
 20 24  1  0  0  0
 21 22  2  0  0  0
 21 23  1  0  0  0
 23 26  1  0  0  0
 23 25  1  0  0  0
 26 27  1  0  0  0
 26 31  2  0  0  0
 27 28  2  0  0  0
 28 29  1  0  0  0
 29 32  1  0  0  0
 29 30  2  0  0  0
 32 33  1  0  0  0
 32 34  2  0  0  0
 32 35  2  0  0  0
 33 36  1  0  0  0
 33 37  1  0  0  0
 30 31  1  0  0  0
  5  6  1  0  0  0
 13 14  1  0  0  0
 13 19  2  0  0  0
 14 15  2  0  0  0
 15 16  1  0  0  0
 15 17  1  0  0  0
 17 18  2  0  0  0
 18 19  1  0  0  0
M  END
> <minimizedAffinity>
-8.30579

$$$$
