CHEMBL272850


 46 50  0  0  0  0  0  0  0  0999 V2000
  -14.0640    3.8303  -16.8973 C   0  0  0  0  0  0  0  0  0  0  0  0
  -14.1855    4.4252  -15.8327 O   0  0  0  0  0  0  0  0  0  0  0  0
  -14.3426    2.4908  -17.1070 N   0  0  0  0  0  0  0  0  0  0  0  0
  -14.0438    2.0858  -17.9842 H   0  0  0  0  0  0  0  0  0  0  0  0
  -13.7855    6.4185  -19.6352 C   0  0  0  0  0  0  0  0  0  0  0  0
  -12.5604    6.0779  -20.2085 C   0  0  0  0  0  0  0  0  0  0  0  0
  -11.8260    4.9794  -19.7581 C   0  0  0  0  0  0  0  0  0  0  0  0
  -12.2906    4.1789  -18.7082 C   0  0  0  0  0  0  0  0  0  0  0  0
  -11.5019    2.9425  -18.3809 C   0  0  0  0  0  0  0  0  0  0  0  0
  -13.4777    4.5667  -18.0571 C   0  0  0  0  0  0  0  0  0  0  0  0
  -14.2191    5.6763  -18.5305 C   0  0  0  0  0  0  0  0  0  0  0  0
  -14.6055    8.7706  -19.6342 C   0  0  0  0  0  0  0  0  0  0  0  0
  -13.8966    9.1771  -18.7201 O   0  0  0  0  0  0  0  0  0  0  0  0
  -14.6061    7.4699  -20.1261 N   0  0  0  0  0  0  0  0  0  0  0  0
  -15.1580    7.2617  -20.9447 H   0  0  0  0  0  0  0  0  0  0  0  0
  -15.6786   11.6406  -21.8193 C   0  0  0  0  0  0  0  0  0  0  0  0
  -17.0632   11.6368  -21.6688 C   0  0  0  0  0  0  0  0  0  0  0  0
  -17.6789   10.7044  -20.8246 C   0  0  0  0  0  0  0  0  0  0  0  0
  -16.9051    9.7732  -20.1183 C   0  0  0  0  0  0  0  0  0  0  0  0
  -15.5162    9.7714  -20.2599 C   0  0  0  0  0  0  0  0  0  0  0  0
  -14.9161   10.7161  -21.1098 C   0  0  0  0  0  0  0  0  0  0  0  0
  -13.5720   12.6232  -22.3321 C   0  0  0  0  0  0  0  0  0  0  0  0
  -14.9556   12.4766  -22.6244 O   0  0  0  0  0  0  0  0  0  0  0  0
  -19.0300   10.5923  -20.6234 O   0  0  0  0  0  0  0  0  0  0  0  0
  -19.7973   11.7862  -20.7429 C   0  0  0  0  0  0  0  0  0  0  0  0
  -14.8548    1.5968  -16.1403 C   0  0  0  0  0  0  0  0  0  0  0  0
  -16.1520    1.5592  -15.6862 C   0  0  0  0  0  0  0  0  0  0  0  0
  -16.5849    0.7029  -14.7367 N   0  0  0  0  0  0  0  0  0  0  0  0
  -15.6966   -0.1471  -14.1937 C   0  0  0  0  0  0  0  0  0  0  0  0
  -14.4106   -0.2005  -14.5701 N   0  0  0  0  0  0  0  0  0  0  0  0
  -14.0305    0.6579  -15.5472 C   0  0  0  0  0  0  0  0  0  0  0  0
  -16.1094   -1.0030  -13.1712 N   0  0  0  0  0  0  0  0  0  0  0  0
  -16.3387   -0.4853  -12.3363 H   0  0  0  0  0  0  0  0  0  0  0  0
  -15.6767   -2.3229  -12.9675 C   0  0  0  0  0  0  0  0  0  0  0  0
  -14.6366   -2.6239  -12.0874 C   0  0  0  0  0  0  0  0  0  0  0  0
  -14.1518   -3.9240  -11.9713 C   0  0  0  0  0  0  0  0  0  0  0  0
  -14.6754   -4.9758  -12.7322 C   0  0  0  0  0  0  0  0  0  0  0  0
  -15.7622   -4.6856  -13.5635 C   0  0  0  0  0  0  0  0  0  0  0  0
  -16.2617   -3.3758  -13.6761 C   0  0  0  0  0  0  0  0  0  0  0  0
  -14.0999   -6.2327  -12.5985 N   0  0  0  0  0  0  0  0  0  0  0  0
  -13.5134   -6.6654  -11.3233 C   0  0  0  0  0  0  0  0  0  0  0  0
  -12.5499   -7.8498  -11.5972 C   0  0  0  0  0  0  0  0  0  0  0  0
  -13.2121   -8.9873  -12.2824 N   0  0  0  0  0  0  0  0  0  0  0  0
  -12.2460  -10.0404  -12.5850 C   0  0  0  0  0  0  0  0  0  0  0  0
  -13.8489   -8.5033  -13.5301 C   0  0  0  0  0  0  0  0  0  0  0  0
  -14.8212   -7.3293  -13.2834 C   0  0  0  0  0  0  0  0  0  0  0  0
 22 23  1  0  0  0
 23 16  1  0  0  0
 16 17  1  0  0  0
 16 21  2  0  0  0
 17 18  2  0  0  0
 18 24  1  0  0  0
 18 19  1  0  0  0
 24 25  1  0  0  0
 19 20  2  0  0  0
 20 12  1  0  0  0
 20 21  1  0  0  0
 12 13  2  0  0  0
 12 14  1  0  0  0
 14  5  1  0  0  0
 14 15  1  0  0  0
  5  6  1  0  0  0
  5 11  2  0  0  0
  6  7  2  0  0  0
  7  8  1  0  0  0
  8  9  1  0  0  0
  8 10  2  0  0  0
 10  1  1  0  0  0
 10 11  1  0  0  0
  1  2  2  0  0  0
  1  3  1  0  0  0
  3 26  1  0  0  0
  3  4  1  0  0  0
 26 27  1  0  0  0
 26 31  2  0  0  0
 27 28  2  0  0  0
 28 29  1  0  0  0
 29 32  1  0  0  0
 29 30  2  0  0  0
 32 34  1  0  0  0
 32 33  1  0  0  0
 34 35  1  0  0  0
 34 39  2  0  0  0
 35 36  2  0  0  0
 36 37  1  0  0  0
 37 40  1  0  0  0
 37 38  2  0  0  0
 40 41  1  0  0  0
 40 46  1  0  0  0
 41 42  1  0  0  0
 42 43  1  0  0  0
 43 44  1  0  0  0
 43 45  1  0  0  0
 45 46  1  0  0  0
 38 39  1  0  0  0
 30 31  1  0  0  0
M  END
> <minimizedAffinity>
-6.51931

$$$$
