CHEMBL215417


 43 48  0  0  0  0  0  0  0  0999 V2000
  -29.2345   -5.6492   -5.4687 C   0  0  0  0  0  0  0  0  0  0  0  0
  -30.3049   -6.4941   -5.6694 C   0  0  0  0  0  0  0  0  0  0  0  0
  -30.0769   -7.7844   -5.1077 C   0  0  0  0  0  0  0  0  0  0  0  0
  -28.8462   -7.8669   -4.4903 C   0  0  0  0  0  0  0  0  0  0  0  0
  -27.9650   -6.4163   -4.6334 S   0  0  0  0  0  0  0  0  0  0  0  0
  -27.0615   -1.3781  -10.7534 C   0  0  0  0  0  0  0  0  0  0  0  0
  -27.8436   -0.3841  -10.1153 C   0  0  0  0  0  0  0  0  0  0  0  0
  -28.4626   -0.6132   -8.8852 C   0  0  0  0  0  0  0  0  0  0  0  0
  -28.3187   -1.8694   -8.3406 C   0  0  0  0  0  0  0  0  0  0  0  0
  -27.6085   -2.9122   -8.9881 C   0  0  0  0  0  0  0  0  0  0  0  0
  -26.9561   -2.6634  -10.1815 C   0  0  0  0  0  0  0  0  0  0  0  0
  -27.6939   -4.2561   -8.2399 C   0  0  0  0  0  0  0  0  0  0  0  0
  -28.5051   -3.7749   -7.0844 C   0  0  0  0  0  0  0  0  0  0  0  0
  -29.1684   -4.2367   -5.9403 C   0  0  0  0  0  0  0  0  0  0  0  0
  -29.8019   -3.2263   -5.3046 N   0  0  0  0  0  0  0  0  0  0  0  0
  -29.5828   -2.1418   -6.0897 N   0  0  0  0  0  0  0  0  0  0  0  0
  -28.8230   -2.4487   -7.1539 C   0  0  0  0  0  0  0  0  0  0  0  0
  -30.0052   -1.2563   -5.8362 H   0  0  0  0  0  0  0  0  0  0  0  0
  -26.3029   -1.0344  -12.0217 C   0  0  0  0  0  0  0  0  0  0  0  0
  -22.2062    0.7149  -13.7689 C   0  0  0  0  0  0  0  0  0  0  0  0
  -22.9305   -0.5190  -13.4836 N   0  0  0  0  0  0  0  0  0  0  0  0
  -23.2336   -0.6354  -12.0480 C   0  0  0  0  0  0  0  0  0  0  0  0
  -24.0166   -1.9341  -11.7529 C   0  0  0  0  0  0  0  0  0  0  0  0
  -25.3110   -2.0304  -12.4612 N   0  0  0  0  0  0  0  0  0  0  0  0
  -25.0263   -1.8635  -13.9105 C   0  0  0  0  0  0  0  0  0  0  0  0
  -24.1696   -0.6185  -14.2781 C   0  0  0  0  0  0  0  0  0  0  0  0
  -28.2373   -9.0112   -3.7731 C   0  0  0  0  0  0  0  0  0  0  0  0
  -26.8177   -8.7767   -3.6322 N   0  0  0  0  0  0  0  0  0  0  0  0
  -26.0112   -9.8759   -3.7797 C   0  0  0  0  0  0  0  0  0  0  0  0
  -26.4959  -10.9874   -3.9767 O   0  0  0  0  0  0  0  0  0  0  0  0
  -24.6756   -9.5835   -3.6233 N   0  0  0  0  0  0  0  0  0  0  0  0
  -26.4552   -7.9023   -3.9869 H   0  0  0  0  0  0  0  0  0  0  0  0
  -24.4883   -8.7029   -3.1564 H   0  0  0  0  0  0  0  0  0  0  0  0
  -23.6342  -10.5478   -3.6747 C   0  0  0  0  0  0  0  0  0  0  0  0
  -23.2689  -11.2596   -2.5193 C   0  0  0  0  0  0  0  0  0  0  0  0
  -22.1682  -12.1125   -2.5003 C   0  0  0  0  0  0  0  0  0  0  0  0
  -21.4366  -12.3157   -3.6578 C   0  0  0  0  0  0  0  0  0  0  0  0
  -21.8278  -11.6833   -4.8365 C   0  0  0  0  0  0  0  0  0  0  0  0
  -22.9256  -10.7916   -4.8645 C   0  0  0  0  0  0  0  0  0  0  0  0
  -23.2297  -10.1211   -6.1786 C   0  0  0  0  0  0  0  0  0  0  0  0
  -24.5280  -10.2436   -6.5851 F   0  0  0  0  0  0  0  0  0  0  0  0
  -22.9805   -8.7817   -6.1501 F   0  0  0  0  0  0  0  0  0  0  0  0
  -22.4792  -10.6138   -7.2042 F   0  0  0  0  0  0  0  0  0  0  0  0
 20 21  1  0  0  0
 21 22  1  0  0  0
 21 26  1  0  0  0
 22 23  1  0  0  0
 23 24  1  0  0  0
 24 19  1  0  0  0
 24 25  1  0  0  0
 19  6  1  0  0  0
  6  7  1  0  0  0
  6 11  2  0  0  0
  7  8  2  0  0  0
  8  9  1  0  0  0
  9 10  2  0  0  0
  9 17  1  0  0  0
 10 11  1  0  0  0
 10 12  1  0  0  0
 12 13  1  0  0  0
 13 14  1  0  0  0
 13 17  2  0  0  0
 14  1  1  0  0  0
 14 15  2  0  0  0
  1  2  2  0  0  0
  1  5  1  0  0  0
  2  3  1  0  0  0
  3  4  2  0  0  0
  4 27  1  0  0  0
  4  5  1  0  0  0
 27 28  1  0  0  0
 28 29  1  0  0  0
 28 32  1  0  0  0
 29 30  2  0  0  0
 29 31  1  0  0  0
 31 34  1  0  0  0
 31 33  1  0  0  0
 34 35  1  0  0  0
 34 39  2  0  0  0
 35 36  2  0  0  0
 36 37  1  0  0  0
 37 38  2  0  0  0
 38 39  1  0  0  0
 39 40  1  0  0  0
 40 41  1  0  0  0
 40 42  1  0  0  0
 40 43  1  0  0  0
 15 16  1  0  0  0
 16 17  1  0  0  0
 16 18  1  0  0  0
 25 26  1  0  0  0
M  END
> <minimizedAffinity>
-8.55986

$$$$
