CHEMBL3797416


 40 44  0  0  0  0  0  0  0  0999 V2000
  -28.1646  -10.2088  -11.4740 C   0  0  0  0  0  0  0  0  0  0  0  0
  -29.3699  -10.3502  -10.9142 N   0  0  0  0  0  0  0  0  0  0  0  0
  -29.4399  -10.8448   -9.6633 C   0  0  0  0  0  0  0  0  0  0  0  0
  -28.2865  -11.2229   -8.9633 C   0  0  0  0  0  0  0  0  0  0  0  0
  -28.2692  -11.8271   -7.6879 C   0  0  0  0  0  0  0  0  0  0  0  0
  -27.0597  -12.1731   -7.0890 C   0  0  0  0  0  0  0  0  0  0  0  0
  -25.8432  -11.9244   -7.7305 C   0  0  0  0  0  0  0  0  0  0  0  0
  -25.8929  -11.3305   -8.9983 C   0  0  0  0  0  0  0  0  0  0  0  0
  -27.0810  -10.9954   -9.6285 C   0  0  0  0  0  0  0  0  0  0  0  0
  -27.0088  -10.4954  -10.8632 N   0  0  0  0  0  0  0  0  0  0  0  0
  -24.6511  -12.2569   -7.1060 N   0  0  0  0  0  0  0  0  0  0  0  0
  -24.5318  -12.2256   -5.6394 C   0  0  0  0  0  0  0  0  0  0  0  0
  -23.6108  -11.0852   -5.1610 C   0  0  0  0  0  0  0  0  0  0  0  0
  -22.2709  -11.0822   -5.7976 N   0  0  0  0  0  0  0  0  0  0  0  0
  -22.4917  -10.9793   -7.2632 C   0  0  0  0  0  0  0  0  0  0  0  0
  -23.4048  -12.0719   -7.8782 C   0  0  0  0  0  0  0  0  0  0  0  0
  -21.4702  -12.2799   -5.4858 C   0  0  0  0  0  0  0  0  0  0  0  0
  -21.1824  -12.4659   -4.0003 C   0  0  0  0  0  0  0  0  0  0  0  0
  -26.8356   -9.0572  -13.2332 C   0  0  0  0  0  0  0  0  0  0  0  0
  -28.1151   -9.8184  -12.9259 C   0  0  0  0  0  0  0  0  0  0  0  0
  -30.7160  -11.0424   -9.0784 N   0  0  0  0  0  0  0  0  0  0  0  0
  -30.8689  -12.0141   -8.8448 H   0  0  0  0  0  0  0  0  0  0  0  0
  -31.3996  -10.1847   -8.2968 C   0  0  0  0  0  0  0  0  0  0  0  0
  -31.0117   -8.8665   -7.9844 C   0  0  0  0  0  0  0  0  0  0  0  0
  -31.9107   -8.4284   -7.0388 C   0  0  0  0  0  0  0  0  0  0  0  0
  -32.8515   -9.4186   -6.9718 N   0  0  0  0  0  0  0  0  0  0  0  0
  -32.5582  -10.5028   -7.7022 N   0  0  0  0  0  0  0  0  0  0  0  0
  -33.6981   -9.4443   -6.4109 H   0  0  0  0  0  0  0  0  0  0  0  0
  -31.9017   -7.1910   -6.2118 C   0  0  0  0  0  0  0  0  0  0  0  0
  -30.5175   -6.8828   -5.6391 C   0  0  0  0  0  0  0  0  0  0  0  0
  -30.1099   -5.4520   -5.8453 C   0  0  0  0  0  0  0  0  0  0  0  0
  -30.1495   -4.5553   -4.7691 C   0  0  0  0  0  0  0  0  0  0  0  0
  -29.7168   -3.2409   -4.9322 C   0  0  0  0  0  0  0  0  0  0  0  0
  -29.2680   -2.8116   -6.1864 C   0  0  0  0  0  0  0  0  0  0  0  0
  -29.2386   -3.6890   -7.2705 C   0  0  0  0  0  0  0  0  0  0  0  0
  -29.6706   -5.0047   -7.0962 C   0  0  0  0  0  0  0  0  0  0  0  0
  -29.6682   -2.2919   -3.9467 O   0  0  0  0  0  0  0  0  0  0  0  0
  -28.9963   -2.6529   -2.7445 C   0  0  0  0  0  0  0  0  0  0  0  0
  -28.7961   -3.3973   -8.5321 O   0  0  0  0  0  0  0  0  0  0  0  0
  -27.8855   -2.3122   -8.6576 C   0  0  0  0  0  0  0  0  0  0  0  0
 19 20  1  0  0  0
 20  1  1  0  0  0
  1  2  1  0  0  0
  1 10  2  0  0  0
  2  3  2  0  0  0
  3 21  1  0  0  0
  3  4  1  0  0  0
 21 23  1  0  0  0
 21 22  1  0  0  0
 23 24  1  0  0  0
 23 27  2  0  0  0
 24 25  2  0  0  0
 25 29  1  0  0  0
 25 26  1  0  0  0
 29 30  1  0  0  0
 30 31  1  0  0  0
 31 32  1  0  0  0
 31 36  2  0  0  0
 32 33  2  0  0  0
 33 37  1  0  0  0
 33 34  1  0  0  0
 37 38  1  0  0  0
 34 35  2  0  0  0
 35 39  1  0  0  0
 35 36  1  0  0  0
 39 40  1  0  0  0
 26 27  1  0  0  0
 26 28  1  0  0  0
  4  5  1  0  0  0
  4  9  2  0  0  0
  5  6  2  0  0  0
  6  7  1  0  0  0
  7 11  1  0  0  0
  7  8  2  0  0  0
 11 12  1  0  0  0
 11 16  1  0  0  0
 12 13  1  0  0  0
 13 14  1  0  0  0
 14 17  1  0  0  0
 14 15  1  0  0  0
 17 18  1  0  0  0
 15 16  1  0  0  0
  8  9  1  0  0  0
  9 10  1  0  0  0
M  END
> <minimizedAffinity>
-8.49087

$$$$
