CHEMBL3970332


 40 44  0  0  0  0  0  0  0  0999 V2000
  -28.5162   -7.9158   -4.9396 C   0  0  0  0  0  0  0  0  0  0  0  0
  -28.7021   -8.7459   -6.0564 C   0  0  0  0  0  0  0  0  0  0  0  0
  -29.9732   -8.8821   -6.6799 C   0  0  0  0  0  0  0  0  0  0  0  0
  -30.2909   -9.6741   -7.7927 C   0  0  0  0  0  0  0  0  0  0  0  0
  -31.5183   -9.6768   -8.3573 N   0  0  0  0  0  0  0  0  0  0  0  0
  -32.4475   -8.9089   -7.7961 C   0  0  0  0  0  0  0  0  0  0  0  0
  -32.2701   -8.1533   -6.7200 N   0  0  0  0  0  0  0  0  0  0  0  0
  -31.0467   -8.1526   -6.1935 C   0  0  0  0  0  0  0  0  0  0  0  0
  -30.8501   -7.3481   -5.1001 C   0  0  0  0  0  0  0  0  0  0  0  0
  -29.6092   -7.1937   -4.4511 C   0  0  0  0  0  0  0  0  0  0  0  0
  -26.5139   -9.0651   -4.3169 C   0  0  0  0  0  0  0  0  0  0  0  0
  -27.2156   -7.8470   -4.5275 O   0  0  0  0  0  0  0  0  0  0  0  0
  -29.2934  -10.5178   -8.3482 N   0  0  0  0  0  0  0  0  0  0  0  0
  -29.6268  -11.4762   -8.3276 H   0  0  0  0  0  0  0  0  0  0  0  0
  -28.5903  -10.1974   -9.5273 C   0  0  0  0  0  0  0  0  0  0  0  0
  -27.4525   -9.3805   -9.4693 C   0  0  0  0  0  0  0  0  0  0  0  0
  -26.7854   -8.9966  -10.6304 C   0  0  0  0  0  0  0  0  0  0  0  0
  -27.2481   -9.4333  -11.8707 C   0  0  0  0  0  0  0  0  0  0  0  0
  -26.3990   -8.8957  -13.2747 Cl  0  0  0  0  0  0  0  0  0  0  0  0
  -28.3691  -10.2691  -11.9407 C   0  0  0  0  0  0  0  0  0  0  0  0
  -29.0003  -10.8439  -13.4439 Cl  0  0  0  0  0  0  0  0  0  0  0  0
  -29.0318  -10.6568  -10.7705 C   0  0  0  0  0  0  0  0  0  0  0  0
  -29.4629   -6.3186   -3.3914 O   0  0  0  0  0  0  0  0  0  0  0  0
  -30.3351   -5.1839   -3.4895 C   0  0  0  0  0  0  0  0  0  0  0  0
  -29.8204   -4.0598   -4.3595 C   0  0  0  0  0  0  0  0  0  0  0  0
  -29.5889   -2.7821   -3.5490 C   0  0  0  0  0  0  0  0  0  0  0  0
  -29.1634   -1.6661   -4.4508 N   0  0  0  0  0  0  0  0  0  0  0  0
  -30.2045   -1.4811   -5.5194 C   0  0  0  0  0  0  0  0  0  0  0  0
  -30.4701   -2.7905   -6.2701 C   0  0  0  0  0  0  0  0  0  0  0  0
  -30.8350   -3.8410   -5.3677 O   0  0  0  0  0  0  0  0  0  0  0  0
  -27.5560   -1.7114   -5.0425 S   0  0  0  0  0  0  0  0  0  0  0  0
  -26.8746   -0.5013   -4.6504 O   0  0  0  0  0  0  0  0  0  0  0  0
  -27.0063   -3.0086   -4.7012 O   0  0  0  0  0  0  0  0  0  0  0  0
  -27.7608   -1.6836   -6.8045 C   0  0  0  0  0  0  0  0  0  0  0  0
  -27.8627   -0.4694   -7.4903 C   0  0  0  0  0  0  0  0  0  0  0  0
  -27.9073   -0.4724   -8.8872 C   0  0  0  0  0  0  0  0  0  0  0  0
  -27.8516   -1.6807   -9.5960 C   0  0  0  0  0  0  0  0  0  0  0  0
  -27.8513   -1.6993  -11.0971 C   0  0  0  0  0  0  0  0  0  0  0  0
  -27.7574   -2.8888   -8.8907 C   0  0  0  0  0  0  0  0  0  0  0  0
  -27.7135   -2.8935   -7.4976 C   0  0  0  0  0  0  0  0  0  0  0  0
 11 12  1  0  0  0
 12  1  1  0  0  0
  1  2  1  0  0  0
  1 10  2  0  0  0
  2  3  2  0  0  0
  3  4  1  0  0  0
  3  8  1  0  0  0
  4 13  1  0  0  0
  4  5  2  0  0  0
 13 15  1  0  0  0
 13 14  1  0  0  0
 15 16  1  0  0  0
 15 22  2  0  0  0
 16 17  2  0  0  0
 17 18  1  0  0  0
 18 19  1  0  0  0
 18 20  2  0  0  0
 20 21  1  0  0  0
 20 22  1  0  0  0
  5  6  1  0  0  0
  6  7  2  0  0  0
  7  8  1  0  0  0
  8  9  2  0  0  0
  9 10  1  0  0  0
 10 23  1  0  0  0
 23 24  1  0  0  0
 24 25  1  0  0  0
 25 26  1  0  0  0
 25 30  1  0  0  0
 26 27  1  0  0  0
 27 31  1  0  0  0
 27 28  1  0  0  0
 31 32  2  0  0  0
 31 33  2  0  0  0
 31 34  1  0  0  0
 34 35  1  0  0  0
 34 40  2  0  0  0
 35 36  2  0  0  0
 36 37  1  0  0  0
 37 38  1  0  0  0
 37 39  2  0  0  0
 39 40  1  0  0  0
 28 29  1  0  0  0
 29 30  1  0  0  0
M  END
> <minimizedAffinity>
-7.07417

$$$$
