CHEMBL2016600


 30 32  0  0  0  0  0  0  0  0999 V2000
  -29.6160   -7.8335   -4.1072 N   0  0  0  0  0  0  0  0  0  0  0  0
  -30.1210   -8.3473   -3.3970 H   0  0  0  0  0  0  0  0  0  0  0  0
  -28.6908   -8.6703   -4.7847 C   0  0  0  0  0  0  0  0  0  0  0  0
  -27.4511   -8.8326   -4.2830 N   0  0  0  0  0  0  0  0  0  0  0  0
  -26.6015   -9.5844   -4.9870 C   0  0  0  0  0  0  0  0  0  0  0  0
  -26.8658  -10.1992   -6.1414 N   0  0  0  0  0  0  0  0  0  0  0  0
  -28.0835  -10.0150   -6.6474 C   0  0  0  0  0  0  0  0  0  0  0  0
  -28.3438  -10.5770   -7.8869 C   0  0  0  0  0  0  0  0  0  0  0  0
  -29.5526  -10.3880   -8.5703 C   0  0  0  0  0  0  0  0  0  0  0  0
  -30.5683   -9.6581   -7.9394 C   0  0  0  0  0  0  0  0  0  0  0  0
  -30.3270   -9.1193   -6.6638 C   0  0  0  0  0  0  0  0  0  0  0  0
  -29.0735   -9.2605   -6.0134 C   0  0  0  0  0  0  0  0  0  0  0  0
  -29.7662  -10.8837   -9.8298 O   0  0  0  0  0  0  0  0  0  0  0  0
  -29.0360  -10.3010  -10.9055 C   0  0  0  0  0  0  0  0  0  0  0  0
  -31.8212   -9.3544   -8.4039 O   0  0  0  0  0  0  0  0  0  0  0  0
  -32.8240   -8.9786   -7.4704 C   0  0  0  0  0  0  0  0  0  0  0  0
  -29.7227   -3.5833   -3.8752 C   0  0  0  0  0  0  0  0  0  0  0  0
  -28.5072   -4.2697   -3.8149 C   0  0  0  0  0  0  0  0  0  0  0  0
  -28.4557   -5.6698   -3.8465 C   0  0  0  0  0  0  0  0  0  0  0  0
  -29.6185   -6.4381   -3.8965 C   0  0  0  0  0  0  0  0  0  0  0  0
  -30.8411   -5.7433   -3.9023 C   0  0  0  0  0  0  0  0  0  0  0  0
  -30.8978   -4.3352   -3.8759 C   0  0  0  0  0  0  0  0  0  0  0  0
  -29.6119   -0.0862   -4.9498 N   0  0  0  0  0  0  0  0  0  0  0  0
  -29.5087   -1.4579   -5.1144 C   0  0  0  0  0  0  0  0  0  0  0  0
  -29.2146   -1.9407   -6.2062 O   0  0  0  0  0  0  0  0  0  0  0  0
  -29.7997   -2.1679   -3.9663 N   0  0  0  0  0  0  0  0  0  0  0  0
  -29.3094    0.2586   -4.0480 H   0  0  0  0  0  0  0  0  0  0  0  0
  -30.3802   -1.6884   -3.2904 H   0  0  0  0  0  0  0  0  0  0  0  0
  -30.3833    1.6419   -6.5756 C   0  0  0  0  0  0  0  0  0  0  0  0
  -29.2779    0.7154   -6.1166 C   0  0  0  0  0  0  0  0  0  0  0  0
 29 30  1  0  0  0
 30 23  1  0  0  0
 23 24  1  0  0  0
 23 27  1  0  0  0
 24 25  2  0  0  0
 24 26  1  0  0  0
 26 17  1  0  0  0
 26 28  1  0  0  0
 17 18  1  0  0  0
 17 22  2  0  0  0
 18 19  2  0  0  0
 19 20  1  0  0  0
 20  1  1  0  0  0
 20 21  2  0  0  0
  1  3  1  0  0  0
  1  2  1  0  0  0
  3  4  1  0  0  0
  3 12  2  0  0  0
  4  5  2  0  0  0
  5  6  1  0  0  0
  6  7  2  0  0  0
  7  8  1  0  0  0
  7 12  1  0  0  0
  8  9  2  0  0  0
  9 13  1  0  0  0
  9 10  1  0  0  0
 13 14  1  0  0  0
 10 15  1  0  0  0
 10 11  2  0  0  0
 15 16  1  0  0  0
 11 12  1  0  0  0
 21 22  1  0  0  0
M  END
> <minimizedAffinity>
-7.47372

$$$$
