CHEMBL3896615


 44 48  0  0  0  0  0  0  0  0999 V2000
  -29.0995   -5.7025   -7.2554 C   0  0  0  0  0  0  0  0  0  0  0  0
  -28.6687   -4.6627   -8.0753 C   0  0  0  0  0  0  0  0  0  0  0  0
  -28.3186   -3.4038   -7.5479 C   0  0  0  0  0  0  0  0  0  0  0  0
  -28.0297   -2.2852   -8.3432 C   0  0  0  0  0  0  0  0  0  0  0  0
  -27.6961   -1.0967   -7.7973 N   0  0  0  0  0  0  0  0  0  0  0  0
  -27.6662   -1.0507   -6.4605 C   0  0  0  0  0  0  0  0  0  0  0  0
  -27.9640   -2.0424   -5.6140 N   0  0  0  0  0  0  0  0  0  0  0  0
  -28.3023   -3.2153   -6.1648 C   0  0  0  0  0  0  0  0  0  0  0  0
  -28.6322   -4.2855   -5.3438 C   0  0  0  0  0  0  0  0  0  0  0  0
  -28.9960   -5.5369   -5.8641 C   0  0  0  0  0  0  0  0  0  0  0  0
  -28.6841   -7.8166   -8.3261 C   0  0  0  0  0  0  0  0  0  0  0  0
  -29.5956   -6.8646   -7.7749 O   0  0  0  0  0  0  0  0  0  0  0  0
  -28.1316   -2.3802   -9.7607 N   0  0  0  0  0  0  0  0  0  0  0  0
  -28.5118   -3.2878  -10.0105 H   0  0  0  0  0  0  0  0  0  0  0  0
  -27.1554   -1.9425  -10.6811 C   0  0  0  0  0  0  0  0  0  0  0  0
  -27.4789   -1.7913  -12.0275 C   0  0  0  0  0  0  0  0  0  0  0  0
  -26.4921   -1.4580  -12.9628 C   0  0  0  0  0  0  0  0  0  0  0  0
  -25.1658   -1.2396  -12.5782 C   0  0  0  0  0  0  0  0  0  0  0  0
  -24.8670   -1.2688  -11.2147 C   0  0  0  0  0  0  0  0  0  0  0  0
  -25.8578   -1.6033  -10.2796 C   0  0  0  0  0  0  0  0  0  0  0  0
  -24.1074   -1.0267  -13.4990 N   0  0  0  0  0  0  0  0  0  0  0  0
  -23.1607   -0.0224  -13.4204 C   0  0  0  0  0  0  0  0  0  0  0  0
  -23.0555    0.7778  -12.4971 O   0  0  0  0  0  0  0  0  0  0  0  0
  -22.3372    0.0303  -14.5437 N   0  0  0  0  0  0  0  0  0  0  0  0
  -24.0373   -1.6724  -14.2724 H   0  0  0  0  0  0  0  0  0  0  0  0
  -22.8036   -0.1882  -15.4122 H   0  0  0  0  0  0  0  0  0  0  0  0
  -21.3294    1.0288  -14.6061 C   0  0  0  0  0  0  0  0  0  0  0  0
  -21.6420    2.3780  -14.3901 C   0  0  0  0  0  0  0  0  0  0  0  0
  -20.6655    3.3659  -14.5292 C   0  0  0  0  0  0  0  0  0  0  0  0
  -19.3708    3.0104  -14.8995 C   0  0  0  0  0  0  0  0  0  0  0  0
  -19.0576    1.6664  -15.1046 C   0  0  0  0  0  0  0  0  0  0  0  0
  -17.4675    1.2372  -15.6084 Cl  0  0  0  0  0  0  0  0  0  0  0  0
  -20.0223    0.6689  -14.9360 C   0  0  0  0  0  0  0  0  0  0  0  0
  -29.1991   -6.5005   -4.8982 O   0  0  0  0  0  0  0  0  0  0  0  0
  -28.0248   -7.2364   -4.5633 C   0  0  0  0  0  0  0  0  0  0  0  0
  -28.2195   -8.7430   -4.7106 C   0  0  0  0  0  0  0  0  0  0  0  0
  -27.4487   -9.4149   -3.5620 C   0  0  0  0  0  0  0  0  0  0  0  0
  -26.3140  -10.2372   -3.9767 N   0  0  0  0  0  0  0  0  0  0  0  0
  -26.2325  -10.4151   -5.4359 C   0  0  0  0  0  0  0  0  0  0  0  0
  -25.0410  -11.3264   -5.8049 C   0  0  0  0  0  0  0  0  0  0  0  0
  -23.7257  -10.8536   -5.3298 N   0  0  0  0  0  0  0  0  0  0  0  0
  -23.2454   -9.7272   -6.1247 C   0  0  0  0  0  0  0  0  0  0  0  0
  -23.8210  -10.5128   -3.8952 C   0  0  0  0  0  0  0  0  0  0  0  0
  -25.0418   -9.6456   -3.5027 C   0  0  0  0  0  0  0  0  0  0  0  0
 11 12  1  0  0  0
 12  1  1  0  0  0
  1  2  1  0  0  0
  1 10  2  0  0  0
  2  3  2  0  0  0
  3  4  1  0  0  0
  3  8  1  0  0  0
  4 13  1  0  0  0
  4  5  2  0  0  0
 13 15  1  0  0  0
 13 14  1  0  0  0
 15 16  1  0  0  0
 15 20  2  0  0  0
 16 17  2  0  0  0
 17 18  1  0  0  0
 18 21  1  0  0  0
 18 19  2  0  0  0
 21 22  1  0  0  0
 21 25  1  0  0  0
 22 23  2  0  0  0
 22 24  1  0  0  0
 24 27  1  0  0  0
 24 26  1  0  0  0
 27 28  1  0  0  0
 27 33  2  0  0  0
 28 29  2  0  0  0
 29 30  1  0  0  0
 30 31  2  0  0  0
 31 32  1  0  0  0
 31 33  1  0  0  0
 19 20  1  0  0  0
  5  6  1  0  0  0
  6  7  2  0  0  0
  7  8  1  0  0  0
  8  9  2  0  0  0
  9 10  1  0  0  0
 10 34  1  0  0  0
 34 35  1  0  0  0
 35 36  1  0  0  0
 36 37  1  0  0  0
 37 38  1  0  0  0
 38 39  1  0  0  0
 38 44  1  0  0  0
 39 40  1  0  0  0
 40 41  1  0  0  0
 41 42  1  0  0  0
 41 43  1  0  0  0
 43 44  1  0  0  0
M  END
> <minimizedAffinity>
-10.64780

$$$$
