CHEMBL3099459


 42 45  0  0  0  0  0  0  0  0999 V2000
  -28.9998   -4.4869   -7.0536 C   0  0  0  0  0  0  0  0  0  0  0  0
  -28.8688   -3.8483   -8.3049 C   0  0  0  0  0  0  0  0  0  0  0  0
  -28.3466   -2.5723   -8.4993 C   0  0  0  0  0  0  0  0  0  0  0  0
  -27.9752   -1.8523   -7.3685 C   0  0  0  0  0  0  0  0  0  0  0  0
  -28.1259   -2.4182   -6.0853 C   0  0  0  0  0  0  0  0  0  0  0  0
  -28.6233   -3.7366   -5.9175 C   0  0  0  0  0  0  0  0  0  0  0  0
  -29.5414   -8.1417   -8.0902 C   0  0  0  0  0  0  0  0  0  0  0  0
  -28.9767   -6.8747   -7.9035 C   0  0  0  0  0  0  0  0  0  0  0  0
  -29.5552   -5.8801   -7.0677 C   0  0  0  0  0  0  0  0  0  0  0  0
  -30.7133   -6.2404   -6.3705 C   0  0  0  0  0  0  0  0  0  0  0  0
  -31.2374   -7.5422   -6.4715 C   0  0  0  0  0  0  0  0  0  0  0  0
  -30.6445   -8.4972   -7.3056 C   0  0  0  0  0  0  0  0  0  0  0  0
  -31.2364   -9.8636   -7.3117 C   0  0  0  0  0  0  0  0  0  0  0  0
  -30.7005  -10.9213   -6.3758 C   0  0  0  0  0  0  0  0  0  0  0  0
  -32.2043  -10.0987   -8.0364 O   0  0  0  0  0  0  0  0  0  0  0  0
  -27.9479   -9.8137   -8.7402 C   0  0  0  0  0  0  0  0  0  0  0  0
  -29.1094   -9.0399   -9.0302 O   0  0  0  0  0  0  0  0  0  0  0  0
  -28.1644   -2.0185   -9.7953 N   0  0  0  0  0  0  0  0  0  0  0  0
  -26.9373   -1.7812  -10.3987 C   0  0  0  0  0  0  0  0  0  0  0  0
  -25.8442   -2.0798   -9.9339 O   0  0  0  0  0  0  0  0  0  0  0  0
  -27.0538   -1.1069  -11.6106 N   0  0  0  0  0  0  0  0  0  0  0  0
  -28.9892   -1.8409  -10.3470 H   0  0  0  0  0  0  0  0  0  0  0  0
  -27.7699   -0.3965  -11.6190 H   0  0  0  0  0  0  0  0  0  0  0  0
  -25.8755   -0.8169  -12.3467 C   0  0  0  0  0  0  0  0  0  0  0  0
  -25.6057   -1.4636  -13.5580 C   0  0  0  0  0  0  0  0  0  0  0  0
  -24.3932   -1.2541  -14.2214 C   0  0  0  0  0  0  0  0  0  0  0  0
  -23.4345   -0.3986  -13.6799 C   0  0  0  0  0  0  0  0  0  0  0  0
  -23.7104    0.2524  -12.4743 C   0  0  0  0  0  0  0  0  0  0  0  0
  -24.9393    0.0725  -11.8242 C   0  0  0  0  0  0  0  0  0  0  0  0
  -22.1910   -0.1598  -14.2151 O   0  0  0  0  0  0  0  0  0  0  0  0
  -21.5135    0.9772  -13.6662 C   0  0  0  0  0  0  0  0  0  0  0  0
  -20.9369    1.8621  -14.7868 C   0  0  0  0  0  0  0  0  0  0  0  0
  -19.4609    1.9923  -14.7478 N   0  0  0  0  0  0  0  0  0  0  0  0
  -18.8298    0.7291  -15.1695 C   0  0  0  0  0  0  0  0  0  0  0  0
  -17.3026    0.8013  -15.0805 C   0  0  0  0  0  0  0  0  0  0  0  0
  -16.7507    1.9732  -15.8827 C   0  0  0  0  0  0  0  0  0  0  0  0
  -17.4533    3.2601  -15.4800 C   0  0  0  0  0  0  0  0  0  0  0  0
  -18.9726    3.1146  -15.5657 C   0  0  0  0  0  0  0  0  0  0  0  0
  -27.6726   -1.7290   -4.9839 O   0  0  0  0  0  0  0  0  0  0  0  0
  -27.6616   -0.3112   -5.1391 C   0  0  0  0  0  0  0  0  0  0  0  0
  -28.7158   -4.3841   -4.7080 O   0  0  0  0  0  0  0  0  0  0  0  0
  -27.5440   -5.0204   -4.2100 C   0  0  0  0  0  0  0  0  0  0  0  0
 16 17  1  0  0  0
 17  7  1  0  0  0
  7  8  1  0  0  0
  7 12  2  0  0  0
  8  9  2  0  0  0
  9  1  1  0  0  0
  9 10  1  0  0  0
  1  2  1  0  0  0
  1  6  2  0  0  0
  2  3  2  0  0  0
  3 18  1  0  0  0
  3  4  1  0  0  0
 18 19  1  0  0  0
 18 22  1  0  0  0
 19 20  2  0  0  0
 19 21  1  0  0  0
 21 24  1  0  0  0
 21 23  1  0  0  0
 24 25  1  0  0  0
 24 29  2  0  0  0
 25 26  2  0  0  0
 26 27  1  0  0  0
 27 30  1  0  0  0
 27 28  2  0  0  0
 30 31  1  0  0  0
 31 32  1  0  0  0
 32 33  1  0  0  0
 33 34  1  0  0  0
 33 38  1  0  0  0
 34 35  1  0  0  0
 35 36  1  0  0  0
 36 37  1  0  0  0
 37 38  1  0  0  0
 28 29  1  0  0  0
  4  5  2  0  0  0
  5 39  1  0  0  0
  5  6  1  0  0  0
 39 40  1  0  0  0
  6 41  1  0  0  0
 41 42  1  0  0  0
 10 11  2  0  0  0
 11 12  1  0  0  0
 12 13  1  0  0  0
 13 14  1  0  0  0
 13 15  2  0  0  0
M  END
> <minimizedAffinity>
-10.72063

$$$$
