CHEMBL3740788


 40 44  0  0  0  0  0  0  0  0999 V2000
  -28.3649   -1.3188   -9.3852 O   0  0  0  0  0  0  0  0  0  0  0  0
  -27.4862   -1.3945  -10.4363 C   0  0  0  0  0  0  0  0  0  0  0  0
  -26.1485   -1.2111  -10.1022 C   0  0  0  0  0  0  0  0  0  0  0  0
  -25.1719   -1.2154  -11.0959 C   0  0  0  0  0  0  0  0  0  0  0  0
  -25.5164   -1.2689  -12.4642 C   0  0  0  0  0  0  0  0  0  0  0  0
  -24.6195   -1.0114  -13.5403 C   0  0  0  0  0  0  0  0  0  0  0  0
  -25.0421   -1.2028  -14.8688 C   0  0  0  0  0  0  0  0  0  0  0  0
  -26.3353   -1.6278  -15.1514 C   0  0  0  0  0  0  0  0  0  0  0  0
  -27.2394   -1.8159  -14.1116 C   0  0  0  0  0  0  0  0  0  0  0  0
  -26.8605   -1.6031  -12.7774 C   0  0  0  0  0  0  0  0  0  0  0  0
  -27.8205   -1.6963  -11.7555 C   0  0  0  0  0  0  0  0  0  0  0  0
  -23.2384   -0.4447  -13.3841 C   0  0  0  0  0  0  0  0  0  0  0  0
  -22.5619   -0.8438  -12.4505 O   0  0  0  0  0  0  0  0  0  0  0  0
  -22.8249    0.4460  -14.3691 N   0  0  0  0  0  0  0  0  0  0  0  0
  -23.4696    0.6284  -15.1259 H   0  0  0  0  0  0  0  0  0  0  0  0
  -21.5724    1.0886  -14.4798 C   0  0  0  0  0  0  0  0  0  0  0  0
  -20.4072    0.4680  -14.9360 C   0  0  0  0  0  0  0  0  0  0  0  0
  -19.2070    1.1858  -15.0307 C   0  0  0  0  0  0  0  0  0  0  0  0
  -19.1576    2.5265  -14.6620 C   0  0  0  0  0  0  0  0  0  0  0  0
  -20.3104    3.1557  -14.2008 C   0  0  0  0  0  0  0  0  0  0  0  0
  -21.5101    2.4428  -14.1129 C   0  0  0  0  0  0  0  0  0  0  0  0
  -28.0560   -4.4121   -7.7686 C   0  0  0  0  0  0  0  0  0  0  0  0
  -27.9824   -4.1286   -6.4577 N   0  0  0  0  0  0  0  0  0  0  0  0
  -28.0191   -2.8259   -6.1158 C   0  0  0  0  0  0  0  0  0  0  0  0
  -28.1443   -1.8062   -7.0267 C   0  0  0  0  0  0  0  0  0  0  0  0
  -28.2710   -2.2077   -8.3357 C   0  0  0  0  0  0  0  0  0  0  0  0
  -28.2036   -3.4851   -8.7206 N   0  0  0  0  0  0  0  0  0  0  0  0
  -27.9838   -5.7651   -8.1222 N   0  0  0  0  0  0  0  0  0  0  0  0
  -27.5255   -5.8118   -9.0239 H   0  0  0  0  0  0  0  0  0  0  0  0
  -32.2456   -9.5140   -7.2175 C   0  0  0  0  0  0  0  0  0  0  0  0
  -31.0953   -8.5925   -7.5075 C   0  0  0  0  0  0  0  0  0  0  0  0
  -31.2753   -7.2205   -7.2587 C   0  0  0  0  0  0  0  0  0  0  0  0
  -30.2428   -6.3021   -7.4724 C   0  0  0  0  0  0  0  0  0  0  0  0
  -29.0083   -6.7176   -7.9731 C   0  0  0  0  0  0  0  0  0  0  0  0
  -28.8136   -8.0820   -8.2104 C   0  0  0  0  0  0  0  0  0  0  0  0
  -29.8447   -9.0170   -7.9933 C   0  0  0  0  0  0  0  0  0  0  0  0
  -29.4429  -10.7370   -8.2874 S   0  0  0  0  0  0  0  0  0  0  0  0
  -27.7378  -10.7103   -8.7691 C   0  0  0  0  0  0  0  0  0  0  0  0
  -29.5267  -11.4324   -7.0152 O   0  0  0  0  0  0  0  0  0  0  0  0
  -30.2182  -11.2132   -9.4160 O   0  0  0  0  0  0  0  0  0  0  0  0
 30 31  1  0  0  0
 31 32  1  0  0  0
 31 36  2  0  0  0
 32 33  2  0  0  0
 33 34  1  0  0  0
 34 28  1  0  0  0
 34 35  2  0  0  0
 28 22  1  0  0  0
 28 29  1  0  0  0
 22 23  1  0  0  0
 22 27  2  0  0  0
 23 24  2  0  0  0
 24 25  1  0  0  0
 25 26  2  0  0  0
 26  1  1  0  0  0
 26 27  1  0  0  0
  1  2  1  0  0  0
  2  3  1  0  0  0
  2 11  2  0  0  0
  3  4  2  0  0  0
  4  5  1  0  0  0
  5  6  1  0  0  0
  5 10  2  0  0  0
  6 12  1  0  0  0
  6  7  2  0  0  0
 12 13  2  0  0  0
 12 14  1  0  0  0
 14 16  1  0  0  0
 14 15  1  0  0  0
 16 17  1  0  0  0
 16 21  2  0  0  0
 17 18  2  0  0  0
 18 19  1  0  0  0
 19 20  2  0  0  0
 20 21  1  0  0  0
  7  8  1  0  0  0
  8  9  2  0  0  0
  9 10  1  0  0  0
 10 11  1  0  0  0
 35 36  1  0  0  0
 36 37  1  0  0  0
 37 38  1  0  0  0
 37 39  2  0  0  0
 37 40  2  0  0  0
M  END
> <minimizedAffinity>
-10.84253

$$$$
