CHEMBL2086735


 29 33  0  0  0  0  0  0  0  0999 V2000
  -31.2255   -7.5926   -7.5807 O   0  0  0  0  0  0  0  0  0  0  0  0
  -30.4582   -7.0648   -6.7984 C   0  0  0  0  0  0  0  0  0  0  0  0
  -30.5299   -5.7409   -6.4027 N   0  0  0  0  0  0  0  0  0  0  0  0
  -29.4893   -5.4034   -5.5476 C   0  0  0  0  0  0  0  0  0  0  0  0
  -29.2395   -4.1554   -4.9956 C   0  0  0  0  0  0  0  0  0  0  0  0
  -30.3725   -2.6789   -5.3136 Br  0  0  0  0  0  0  0  0  0  0  0  0
  -28.1085   -4.0026   -4.1971 C   0  0  0  0  0  0  0  0  0  0  0  0
  -27.2366   -5.0828   -4.0070 C   0  0  0  0  0  0  0  0  0  0  0  0
  -27.4976   -6.3288   -4.5909 C   0  0  0  0  0  0  0  0  0  0  0  0
  -28.6573   -6.5087   -5.3272 C   0  0  0  0  0  0  0  0  0  0  0  0
  -29.2550   -7.6527   -6.0579 C   0  0  0  0  0  0  0  0  0  0  0  0
  -28.9256   -8.9680   -6.1159 C   0  0  0  0  0  0  0  0  0  0  0  0
  -31.2369   -5.1072   -6.7441 H   0  0  0  0  0  0  0  0  0  0  0  0
  -27.8495   -9.5355   -5.3447 C   0  0  0  0  0  0  0  0  0  0  0  0
  -27.7919  -10.2031   -4.2042 N   0  0  0  0  0  0  0  0  0  0  0  0
  -26.4529  -10.4220   -3.9471 C   0  0  0  0  0  0  0  0  0  0  0  0
  -25.8170  -11.0178   -2.8462 C   0  0  0  0  0  0  0  0  0  0  0  0
  -24.4140  -11.0797   -2.8348 C   0  0  0  0  0  0  0  0  0  0  0  0
  -23.6615  -10.5653   -3.8947 C   0  0  0  0  0  0  0  0  0  0  0  0
  -24.2801   -9.9819   -5.0024 C   0  0  0  0  0  0  0  0  0  0  0  0
  -25.6731   -9.9329   -4.9816 C   0  0  0  0  0  0  0  0  0  0  0  0
  -26.5797   -9.4470   -5.8787 N   0  0  0  0  0  0  0  0  0  0  0  0
  -26.3480   -9.0587   -6.7806 H   0  0  0  0  0  0  0  0  0  0  0  0
  -29.6806   -9.8592   -7.0396 C   0  0  0  0  0  0  0  0  0  0  0  0
  -29.2554  -10.0006   -8.3710 C   0  0  0  0  0  0  0  0  0  0  0  0
  -29.8841  -10.9147   -9.2144 C   0  0  0  0  0  0  0  0  0  0  0  0
  -30.9484  -11.6770   -8.7390 C   0  0  0  0  0  0  0  0  0  0  0  0
  -31.3834  -11.5340   -7.4206 C   0  0  0  0  0  0  0  0  0  0  0  0
  -30.7455  -10.6334   -6.5655 C   0  0  0  0  0  0  0  0  0  0  0  0
  1  2  2  0  0  0
  2  3  1  0  0  0
  2 11  1  0  0  0
  3  4  1  0  0  0
  3 13  1  0  0  0
  4  5  1  0  0  0
  4 10  2  0  0  0
  5  6  1  0  0  0
  5  7  2  0  0  0
  7  8  1  0  0  0
  8  9  2  0  0  0
  9 10  1  0  0  0
 10 11  1  0  0  0
 11 12  2  0  0  0
 12 24  1  0  0  0
 12 14  1  0  0  0
 24 25  1  0  0  0
 24 29  2  0  0  0
 25 26  2  0  0  0
 26 27  1  0  0  0
 27 28  2  0  0  0
 28 29  1  0  0  0
 14 15  2  0  0  0
 14 22  1  0  0  0
 15 16  1  0  0  0
 16 17  1  0  0  0
 16 21  2  0  0  0
 17 18  2  0  0  0
 18 19  1  0  0  0
 19 20  2  0  0  0
 20 21  1  0  0  0
 21 22  1  0  0  0
 22 23  1  0  0  0
M  END
> <minimizedAffinity>
-7.37117

$$$$
