CHEMBL271984


 30 33  0  0  0  0  0  0  0  0999 V2000
  -30.2806   -6.4463   -5.8989 O   0  0  0  0  0  0  0  0  0  0  0  0
  -28.4379   -1.6443   -5.1075 C   0  0  0  0  0  0  0  0  0  0  0  0
  -29.4490   -1.9384   -4.1749 C   0  0  0  0  0  0  0  0  0  0  0  0
  -30.1630   -3.1318   -4.1936 C   0  0  0  0  0  0  0  0  0  0  0  0
  -31.0188   -3.3757   -3.1897 N   0  0  0  0  0  0  0  0  0  0  0  0
  -31.6305   -4.5768   -3.1466 C   0  0  0  0  0  0  0  0  0  0  0  0
  -31.3903   -5.5880   -4.0511 C   0  0  0  0  0  0  0  0  0  0  0  0
  -30.4927   -5.3436   -5.0877 C   0  0  0  0  0  0  0  0  0  0  0  0
  -29.9165   -4.0517   -5.2271 C   0  0  0  0  0  0  0  0  0  0  0  0
  -29.0950   -3.6224   -6.2907 C   0  0  0  0  0  0  0  0  0  0  0  0
  -28.2910   -2.4833   -6.2095 C   0  0  0  0  0  0  0  0  0  0  0  0
  -28.2873    0.7165   -4.9389 C   0  0  0  0  0  0  0  0  0  0  0  0
  -27.6251   -0.5495   -4.9760 O   0  0  0  0  0  0  0  0  0  0  0  0
  -27.4370   -2.4048   -7.2701 O   0  0  0  0  0  0  0  0  0  0  0  0
  -27.9088   -2.6280   -8.5866 C   0  0  0  0  0  0  0  0  0  0  0  0
  -29.3279   -7.3913   -5.5922 C   0  0  0  0  0  0  0  0  0  0  0  0
  -28.3298   -7.2440   -4.6349 C   0  0  0  0  0  0  0  0  0  0  0  0
  -27.2672   -8.1567   -4.5986 C   0  0  0  0  0  0  0  0  0  0  0  0
  -27.2167   -9.2899   -5.4483 C   0  0  0  0  0  0  0  0  0  0  0  0
  -26.1316  -10.2156   -5.5273 C   0  0  0  0  0  0  0  0  0  0  0  0
  -26.2229  -11.3501   -6.3551 C   0  0  0  0  0  0  0  0  0  0  0  0
  -27.3694  -11.5877   -7.1046 C   0  0  0  0  0  0  0  0  0  0  0  0
  -28.4132  -10.6661   -7.0752 C   0  0  0  0  0  0  0  0  0  0  0  0
  -28.3439   -9.5161   -6.2826 C   0  0  0  0  0  0  0  0  0  0  0  0
  -29.3699   -8.5601   -6.3499 C   0  0  0  0  0  0  0  0  0  0  0  0
  -24.8346   -9.9663   -4.8231 C   0  0  0  0  0  0  0  0  0  0  0  0
  -23.8454   -9.3379   -5.5346 N   0  0  0  0  0  0  0  0  0  0  0  0
  -24.6317  -10.2810   -3.6600 O   0  0  0  0  0  0  0  0  0  0  0  0
  -23.8892   -9.1621   -6.5268 H   0  0  0  0  0  0  0  0  0  0  0  0
  -22.9630   -9.1988   -5.0589 H   0  0  0  0  0  0  0  0  0  0  0  0
 12 13  1  0  0  0
 13  2  1  0  0  0
  2  3  1  0  0  0
  2 11  2  0  0  0
  3  4  2  0  0  0
  4  5  1  0  0  0
  4  9  1  0  0  0
  5  6  2  0  0  0
  6  7  1  0  0  0
  7  8  2  0  0  0
  8  1  1  0  0  0
  8  9  1  0  0  0
  1 16  1  0  0  0
 16 17  1  0  0  0
 16 25  2  0  0  0
 17 18  2  0  0  0
 18 19  1  0  0  0
 19 20  1  0  0  0
 19 24  2  0  0  0
 20 26  1  0  0  0
 20 21  2  0  0  0
 26 27  1  0  0  0
 26 28  2  0  0  0
 27 29  1  0  0  0
 27 30  1  0  0  0
 21 22  1  0  0  0
 22 23  2  0  0  0
 23 24  1  0  0  0
 24 25  1  0  0  0
  9 10  2  0  0  0
 10 11  1  0  0  0
 11 14  1  0  0  0
 14 15  1  0  0  0
M  END
> <minimizedAffinity>
-8.22661

$$$$
