CHEMBL4645817


 45 49  0  0  0  0  0  0  0  0999 V2000
  -15.5754   -1.8482  -12.2340 N   0  0  0  0  0  0  0  0  0  0  0  0
  -16.4388   -2.3380  -12.4330 H   0  0  0  0  0  0  0  0  0  0  0  0
  -13.3116   -4.3230  -11.2051 C   0  0  0  0  0  0  0  0  0  0  0  0
  -13.6060   -4.5204   -9.9268 N   0  0  0  0  0  0  0  0  0  0  0  0
  -14.5648   -3.7258   -9.4658 C   0  0  0  0  0  0  0  0  0  0  0  0
  -15.2034   -2.7859  -10.1547 N   0  0  0  0  0  0  0  0  0  0  0  0
  -14.8130   -2.6757  -11.4191 C   0  0  0  0  0  0  0  0  0  0  0  0
  -13.8199   -3.3643  -11.9521 N   0  0  0  0  0  0  0  0  0  0  0  0
  -12.4907   -5.1855  -11.9184 N   0  0  0  0  0  0  0  0  0  0  0  0
  -11.9784   -4.6241  -12.5887 H   0  0  0  0  0  0  0  0  0  0  0  0
  -13.4430   -6.9759  -13.4111 C   0  0  0  0  0  0  0  0  0  0  0  0
  -13.6853   -8.3601  -13.5468 C   0  0  0  0  0  0  0  0  0  0  0  0
  -13.1099   -9.2805  -12.6747 C   0  0  0  0  0  0  0  0  0  0  0  0
  -12.2780   -8.8315  -11.6614 C   0  0  0  0  0  0  0  0  0  0  0  0
  -12.0871   -7.4631  -11.4856 C   0  0  0  0  0  0  0  0  0  0  0  0
  -12.7138   -6.5050  -12.3105 C   0  0  0  0  0  0  0  0  0  0  0  0
  -14.0502   -5.9824  -14.7724 S   0  0  0  0  0  0  0  0  0  0  0  0
  -14.7353   -6.7799  -15.7700 O   0  0  0  0  0  0  0  0  0  0  0  0
  -12.9979   -5.0501  -15.1162 O   0  0  0  0  0  0  0  0  0  0  0  0
  -15.2824   -5.0695  -14.0075 N   0  0  0  0  0  0  0  0  0  0  0  0
  -14.8996   -4.4818  -13.2685 H   0  0  0  0  0  0  0  0  0  0  0  0
  -16.7825   -5.5029  -12.1292 C   0  0  0  0  0  0  0  0  0  0  0  0
  -16.4531   -5.8592  -13.5663 C   0  0  0  0  0  0  0  0  0  0  0  0
  -15.1369   -0.9604  -13.2279 C   0  0  0  0  0  0  0  0  0  0  0  0
  -13.8133   -0.6650  -13.5166 C   0  0  0  0  0  0  0  0  0  0  0  0
  -13.4864    0.3325  -14.4416 C   0  0  0  0  0  0  0  0  0  0  0  0
  -14.4599    1.1112  -15.0978 C   0  0  0  0  0  0  0  0  0  0  0  0
  -15.8032    0.7138  -14.9073 C   0  0  0  0  0  0  0  0  0  0  0  0
  -16.1058   -0.2799  -13.9552 C   0  0  0  0  0  0  0  0  0  0  0  0
  -14.0814    2.2916  -15.7483 N   0  0  0  0  0  0  0  0  0  0  0  0
  -13.3483    3.3110  -14.9666 C   0  0  0  0  0  0  0  0  0  0  0  0
  -13.5156    4.7065  -15.5948 C   0  0  0  0  0  0  0  0  0  0  0  0
  -13.0622    4.7311  -16.9998 N   0  0  0  0  0  0  0  0  0  0  0  0
  -13.2208    6.0695  -17.5604 C   0  0  0  0  0  0  0  0  0  0  0  0
  -13.8447    3.7235  -17.7601 C   0  0  0  0  0  0  0  0  0  0  0  0
  -13.7116    2.2850  -17.1756 C   0  0  0  0  0  0  0  0  0  0  0  0
  -16.8081    1.3621  -15.5942 O   0  0  0  0  0  0  0  0  0  0  0  0
  -17.4199    2.4833  -14.9315 C   0  0  0  0  0  0  0  0  0  0  0  0
  -18.8123    2.0879  -14.3973 C   0  0  0  0  0  0  0  0  0  0  0  0
  -19.8733    1.9378  -15.4163 N   0  0  0  0  0  0  0  0  0  0  0  0
  -20.8071    3.0826  -15.4586 C   0  0  0  0  0  0  0  0  0  0  0  0
  -21.6590    3.2087  -14.1863 C   0  0  0  0  0  0  0  0  0  0  0  0
  -22.4056    2.0107  -13.9331 O   0  0  0  0  0  0  0  0  0  0  0  0
  -21.5532    0.8587  -13.8687 C   0  0  0  0  0  0  0  0  0  0  0  0
  -20.6870    0.7260  -15.1361 C   0  0  0  0  0  0  0  0  0  0  0  0
 22 23  1  0  0  0
 23 20  1  0  0  0
 20 17  1  0  0  0
 20 21  1  0  0  0
 17 18  2  0  0  0
 17 19  2  0  0  0
 17 11  1  0  0  0
 11 12  1  0  0  0
 11 16  2  0  0  0
 12 13  2  0  0  0
 13 14  1  0  0  0
 14 15  2  0  0  0
 15 16  1  0  0  0
 16  9  1  0  0  0
  9  3  1  0  0  0
  9 10  1  0  0  0
  3  4  1  0  0  0
  3  8  2  0  0  0
  4  5  2  0  0  0
  5  6  1  0  0  0
  6  7  2  0  0  0
  7  1  1  0  0  0
  7  8  1  0  0  0
  1 24  1  0  0  0
  1  2  1  0  0  0
 24 25  1  0  0  0
 24 29  2  0  0  0
 25 26  2  0  0  0
 26 27  1  0  0  0
 27 30  1  0  0  0
 27 28  2  0  0  0
 30 31  1  0  0  0
 30 36  1  0  0  0
 31 32  1  0  0  0
 32 33  1  0  0  0
 33 34  1  0  0  0
 33 35  1  0  0  0
 35 36  1  0  0  0
 28 37  1  0  0  0
 28 29  1  0  0  0
 37 38  1  0  0  0
 38 39  1  0  0  0
 39 40  1  0  0  0
 40 41  1  0  0  0
 40 45  1  0  0  0
 41 42  1  0  0  0
 42 43  1  0  0  0
 43 44  1  0  0  0
 44 45  1  0  0  0
M  END
> <minimizedAffinity>
-8.11581

$$$$
