CHEMBL3948670


 41 45  0  0  0  0  0  0  0  0999 V2000
  -12.3433   -1.7076  -17.2297 C   0  0  0  0  0  0  0  0  0  0  0  0
  -13.0900   -2.1008  -18.2585 N   0  0  0  0  0  0  0  0  0  0  0  0
  -13.2153   -1.2180  -19.2706 C   0  0  0  0  0  0  0  0  0  0  0  0
  -12.6462    0.0470  -19.3083 C   0  0  0  0  0  0  0  0  0  0  0  0
  -11.9154    0.3922  -18.1912 C   0  0  0  0  0  0  0  0  0  0  0  0
  -11.7445   -0.5042  -17.1890 N   0  0  0  0  0  0  0  0  0  0  0  0
  -12.8661    0.8900  -20.5145 C   0  0  0  0  0  0  0  0  0  0  0  0
  -11.7066    1.2079  -21.1618 F   0  0  0  0  0  0  0  0  0  0  0  0
  -13.6350    0.3001  -21.4631 F   0  0  0  0  0  0  0  0  0  0  0  0
  -13.4545    2.0830  -20.2282 F   0  0  0  0  0  0  0  0  0  0  0  0
  -12.2477   -2.5640  -16.1279 N   0  0  0  0  0  0  0  0  0  0  0  0
  -11.8187   -3.4252  -16.4436 H   0  0  0  0  0  0  0  0  0  0  0  0
  -15.2870   -3.1926  -13.2138 C   0  0  0  0  0  0  0  0  0  0  0  0
  -14.6511   -1.9547  -13.3582 C   0  0  0  0  0  0  0  0  0  0  0  0
  -13.6968   -1.7379  -14.3475 C   0  0  0  0  0  0  0  0  0  0  0  0
  -13.2774   -2.7633  -15.1918 C   0  0  0  0  0  0  0  0  0  0  0  0
  -13.9303   -3.9884  -15.0970 C   0  0  0  0  0  0  0  0  0  0  0  0
  -14.9062   -4.2080  -14.1090 C   0  0  0  0  0  0  0  0  0  0  0  0
  -13.5273   -5.2849   -9.4014 C   0  0  0  0  0  0  0  0  0  0  0  0
  -14.8227   -4.7698   -9.8593 N   0  0  0  0  0  0  0  0  0  0  0  0
  -14.7253   -3.3174  -10.0712 C   0  0  0  0  0  0  0  0  0  0  0  0
  -15.9578   -2.7160  -10.7488 C   0  0  0  0  0  0  0  0  0  0  0  0
  -16.2823   -3.4292  -12.0735 C   0  0  0  0  0  0  0  0  0  0  0  0
  -16.5013   -4.9102  -11.6988 C   0  0  0  0  0  0  0  0  0  0  0  0
  -15.2466   -5.5093  -11.0559 C   0  0  0  0  0  0  0  0  0  0  0  0
  -11.2316    1.7120  -17.8872 C   0  0  0  0  0  0  0  0  0  0  0  0
  -11.9312    2.8086  -17.0602 C   0  0  0  0  0  0  0  0  0  0  0  0
  -12.1841    2.5716  -15.5785 C   0  0  0  0  0  0  0  0  0  0  0  0
  -11.1322    2.6831  -14.6471 C   0  0  0  0  0  0  0  0  0  0  0  0
  -11.3157    2.4003  -13.2957 C   0  0  0  0  0  0  0  0  0  0  0  0
  -12.5649    2.0208  -12.8396 C   0  0  0  0  0  0  0  0  0  0  0  0
  -13.6309    1.9552  -13.7349 C   0  0  0  0  0  0  0  0  0  0  0  0
  -13.4880    2.2386  -15.1148 C   0  0  0  0  0  0  0  0  0  0  0  0
  -14.7662    2.2616  -15.9782 C   0  0  0  0  0  0  0  0  0  0  0  0
  -15.8180    1.1844  -15.6588 C   0  0  0  0  0  0  0  0  0  0  0  0
  -15.1026    1.1473  -16.9712 C   0  0  0  0  0  0  0  0  0  0  0  0
  -15.2521    3.6373  -16.3553 C   0  0  0  0  0  0  0  0  0  0  0  0
  -15.3189    3.8952  -17.6940 N   0  0  0  0  0  0  0  0  0  0  0  0
  -15.5567    4.4698  -15.5108 O   0  0  0  0  0  0  0  0  0  0  0  0
  -15.1045    3.1986  -18.3903 H   0  0  0  0  0  0  0  0  0  0  0  0
  -15.6566    4.8025  -17.9845 H   0  0  0  0  0  0  0  0  0  0  0  0
 19 20  1  0  0  0
 20 21  1  0  0  0
 20 25  1  0  0  0
 21 22  1  0  0  0
 22 23  1  0  0  0
 23 13  1  0  0  0
 23 24  1  0  0  0
 13 14  1  0  0  0
 13 18  2  0  0  0
 14 15  2  0  0  0
 15 16  1  0  0  0
 16 11  1  0  0  0
 16 17  2  0  0  0
 11  1  1  0  0  0
 11 12  1  0  0  0
  1  2  1  0  0  0
  1  6  2  0  0  0
  2  3  2  0  0  0
  3  4  1  0  0  0
  4  7  1  0  0  0
  4  5  2  0  0  0
  7  8  1  0  0  0
  7  9  1  0  0  0
  7 10  1  0  0  0
  5 26  1  0  0  0
  5  6  1  0  0  0
 26 27  1  0  0  0
 27 28  1  0  0  0
 28 29  1  0  0  0
 28 33  2  0  0  0
 29 30  2  0  0  0
 30 31  1  0  0  0
 31 32  2  0  0  0
 32 33  1  0  0  0
 33 34  1  0  0  0
 34 37  1  0  0  0
 34 35  1  0  0  0
 34 36  1  0  0  0
 37 38  1  0  0  0
 37 39  2  0  0  0
 38 40  1  0  0  0
 38 41  1  0  0  0
 35 36  1  0  0  0
 17 18  1  0  0  0
 24 25  1  0  0  0
M  END
> <minimizedAffinity>
-6.82818

$$$$
