CHEMBL394204


 30 32  0  0  0  0  0  0  0  0999 V2000
  -14.9222   -1.0526  -14.2376 N   0  0  0  0  0  0  0  0  0  0  0  0
  -15.2989    0.1808  -13.7195 C   0  0  0  0  0  0  0  0  0  0  0  0
  -15.4016    0.3874  -12.5101 O   0  0  0  0  0  0  0  0  0  0  0  0
  -14.8095   -1.1373  -15.2293 H   0  0  0  0  0  0  0  0  0  0  0  0
  -13.9830   -5.9246  -11.3295 C   0  0  0  0  0  0  0  0  0  0  0  0
  -14.2790   -4.6567  -12.0789 C   0  0  0  0  0  0  0  0  0  0  0  0
  -13.2850   -3.6673  -12.1230 C   0  0  0  0  0  0  0  0  0  0  0  0
  -13.4756   -2.4774  -12.8275 C   0  0  0  0  0  0  0  0  0  0  0  0
  -14.6657   -2.2337  -13.4998 C   0  0  0  0  0  0  0  0  0  0  0  0
  -15.6808   -3.1993  -13.4347 C   0  0  0  0  0  0  0  0  0  0  0  0
  -15.5029   -4.4215  -12.7390 C   0  0  0  0  0  0  0  0  0  0  0  0
  -16.6490   -5.4097  -12.7693 C   0  0  0  0  0  0  0  0  0  0  0  0
  -16.3080   -6.6992  -13.0370 F   0  0  0  0  0  0  0  0  0  0  0  0
  -17.3219   -5.4478  -11.5830 F   0  0  0  0  0  0  0  0  0  0  0  0
  -17.5862   -5.0776  -13.7052 F   0  0  0  0  0  0  0  0  0  0  0  0
  -15.5688    1.2459  -14.6717 C   0  0  0  0  0  0  0  0  0  0  0  0
  -16.8031    1.8568  -14.8728 C   0  0  0  0  0  0  0  0  0  0  0  0
  -16.7392    2.8938  -15.7481 N   0  0  0  0  0  0  0  0  0  0  0  0
  -15.4910    2.9218  -16.1406 C   0  0  0  0  0  0  0  0  0  0  0  0
  -14.7380    1.9624  -15.5149 N   0  0  0  0  0  0  0  0  0  0  0  0
  -13.3114    1.8565  -15.7020 C   0  0  0  0  0  0  0  0  0  0  0  0
  -17.9688    1.4926  -14.3150 N   0  0  0  0  0  0  0  0  0  0  0  0
  -18.2637    1.9121  -13.4380 H   0  0  0  0  0  0  0  0  0  0  0  0
  -19.0148    0.8645  -15.0979 C   0  0  0  0  0  0  0  0  0  0  0  0
  -20.3989    1.3437  -14.6923 C   0  0  0  0  0  0  0  0  0  0  0  0
  -21.4090    0.4650  -14.2792 C   0  0  0  0  0  0  0  0  0  0  0  0
  -22.6332    0.9832  -13.8822 C   0  0  0  0  0  0  0  0  0  0  0  0
  -22.9137    2.3010  -13.8409 N   0  0  0  0  0  0  0  0  0  0  0  0
  -21.9227    3.1386  -14.2116 C   0  0  0  0  0  0  0  0  0  0  0  0
  -20.6720    2.7151  -14.6319 C   0  0  0  0  0  0  0  0  0  0  0  0
  5  6  1  0  0  0
  6  7  1  0  0  0
  6 11  2  0  0  0
  7  8  2  0  0  0
  8  9  1  0  0  0
  9  1  1  0  0  0
  9 10  2  0  0  0
  1  2  1  0  0  0
  1  4  1  0  0  0
  2  3  2  0  0  0
  2 16  1  0  0  0
 16 17  2  0  0  0
 16 20  1  0  0  0
 17 22  1  0  0  0
 17 18  1  0  0  0
 22 24  1  0  0  0
 22 23  1  0  0  0
 24 25  1  0  0  0
 25 26  1  0  0  0
 25 30  2  0  0  0
 26 27  2  0  0  0
 27 28  1  0  0  0
 28 29  2  0  0  0
 29 30  1  0  0  0
 18 19  2  0  0  0
 19 20  1  0  0  0
 20 21  1  0  0  0
 10 11  1  0  0  0
 11 12  1  0  0  0
 12 13  1  0  0  0
 12 14  1  0  0  0
 12 15  1  0  0  0
M  END
> <minimizedAffinity>
-8.69696

$$$$
