CHEMBL3288520


 33 37  0  0  0  0  0  0  0  0999 V2000
  -28.8094   -2.3278   -6.4306 C   0  0  0  0  0  0  0  0  0  0  0  0
  -29.0320   -1.5970   -5.2534 C   0  0  0  0  0  0  0  0  0  0  0  0
  -29.7759   -2.1501   -4.2170 C   0  0  0  0  0  0  0  0  0  0  0  0
  -30.2537   -3.4556   -4.3270 C   0  0  0  0  0  0  0  0  0  0  0  0
  -30.0282   -4.2202   -5.4847 C   0  0  0  0  0  0  0  0  0  0  0  0
  -30.4846   -5.5546   -5.5623 C   0  0  0  0  0  0  0  0  0  0  0  0
  -30.3500   -6.3423   -6.7237 C   0  0  0  0  0  0  0  0  0  0  0  0
  -29.7875   -5.7107   -7.8327 C   0  0  0  0  0  0  0  0  0  0  0  0
  -29.2413   -4.4247   -7.7485 C   0  0  0  0  0  0  0  0  0  0  0  0
  -29.3348   -3.6460   -6.5753 C   0  0  0  0  0  0  0  0  0  0  0  0
  -30.8157   -7.7487   -6.7687 C   0  0  0  0  0  0  0  0  0  0  0  0
  -32.1421   -8.0465   -7.1827 C   0  0  0  0  0  0  0  0  0  0  0  0
  -32.6445   -9.3454   -7.2346 C   0  0  0  0  0  0  0  0  0  0  0  0
  -31.8429  -10.4260   -6.8922 C   0  0  0  0  0  0  0  0  0  0  0  0
  -30.5327  -10.1488   -6.4954 C   0  0  0  0  0  0  0  0  0  0  0  0
  -29.5331  -11.0062   -6.1281 N   0  0  0  0  0  0  0  0  0  0  0  0
  -28.3905  -10.4114   -5.7900 N   0  0  0  0  0  0  0  0  0  0  0  0
  -28.6525   -9.1153   -5.9328 C   0  0  0  0  0  0  0  0  0  0  0  0
  -27.7036   -8.2133   -5.6468 N   0  0  0  0  0  0  0  0  0  0  0  0
  -29.9886   -8.8614   -6.4061 C   0  0  0  0  0  0  0  0  0  0  0  0
  -29.5747  -12.0172   -6.0878 H   0  0  0  0  0  0  0  0  0  0  0  0
  -26.8536   -8.5741   -5.2280 H   0  0  0  0  0  0  0  0  0  0  0  0
  -27.9510   -7.2887   -5.3151 H   0  0  0  0  0  0  0  0  0  0  0  0
  -28.0747   -2.3128   -8.7465 N   0  0  0  0  0  0  0  0  0  0  0  0
  -27.9561   -1.7257   -7.5006 C   0  0  0  0  0  0  0  0  0  0  0  0
  -27.2459   -0.7715   -7.2102 O   0  0  0  0  0  0  0  0  0  0  0  0
  -28.7223   -3.0725   -8.8860 H   0  0  0  0  0  0  0  0  0  0  0  0
  -26.4068   -1.4101  -13.3619 C   0  0  0  0  0  0  0  0  0  0  0  0
  -26.6704   -1.6004  -11.9262 C   0  0  0  0  0  0  0  0  0  0  0  0
  -27.7547   -1.9928  -11.1797 C   0  0  0  0  0  0  0  0  0  0  0  0
  -27.2984   -1.9586   -9.8372 C   0  0  0  0  0  0  0  0  0  0  0  0
  -26.0233   -1.5621   -9.7918 N   0  0  0  0  0  0  0  0  0  0  0  0
  -25.6307   -1.3444  -11.0932 O   0  0  0  0  0  0  0  0  0  0  0  0
 28 29  1  0  0  0
 29 30  2  0  0  0
 29 33  1  0  0  0
 30 31  1  0  0  0
 31 24  1  0  0  0
 31 32  2  0  0  0
 24 25  1  0  0  0
 24 27  1  0  0  0
 25 26  2  0  0  0
 25  1  1  0  0  0
  1  2  1  0  0  0
  1 10  2  0  0  0
  2  3  2  0  0  0
  3  4  1  0  0  0
  4  5  2  0  0  0
  5  6  1  0  0  0
  5 10  1  0  0  0
  6  7  2  0  0  0
  7 11  1  0  0  0
  7  8  1  0  0  0
 11 12  1  0  0  0
 11 20  2  0  0  0
 12 13  2  0  0  0
 13 14  1  0  0  0
 14 15  2  0  0  0
 15 16  1  0  0  0
 15 20  1  0  0  0
 16 17  1  0  0  0
 16 21  1  0  0  0
 17 18  2  0  0  0
 18 19  1  0  0  0
 18 20  1  0  0  0
 19 22  1  0  0  0
 19 23  1  0  0  0
  8  9  2  0  0  0
  9 10  1  0  0  0
 32 33  1  0  0  0
M  END
> <minimizedAffinity>
-10.22762

$$$$
