CHEMBL3974900


 33 36  0  0  0  0  0  0  0  0999 V2000
  -27.4588   -8.7658   -4.7024 C   0  0  0  0  0  0  0  0  0  0  0  0
  -26.6699   -9.6208   -5.4470 C   0  0  0  0  0  0  0  0  0  0  0  0
  -27.5302  -11.0180   -5.9581 S   0  0  0  0  0  0  0  0  0  0  0  0
  -29.0119  -10.3296   -5.4149 C   0  0  0  0  0  0  0  0  0  0  0  0
  -28.7425   -9.3661   -4.4457 C   0  0  0  0  0  0  0  0  0  0  0  0
  -30.2474  -10.4102   -6.2221 C   0  0  0  0  0  0  0  0  0  0  0  0
  -30.5141  -11.5684   -6.9658 C   0  0  0  0  0  0  0  0  0  0  0  0
  -29.7821  -11.2612   -8.1699 C   0  0  0  0  0  0  0  0  0  0  0  0
  -29.0184  -12.0177   -9.0698 C   0  0  0  0  0  0  0  0  0  0  0  0
  -28.2769  -11.3425  -10.0482 C   0  0  0  0  0  0  0  0  0  0  0  0
  -28.3640   -9.9564  -10.1926 C   0  0  0  0  0  0  0  0  0  0  0  0
  -29.1581   -9.1898   -9.3418 C   0  0  0  0  0  0  0  0  0  0  0  0
  -29.7960   -9.8682   -8.3046 C   0  0  0  0  0  0  0  0  0  0  0  0
  -30.5352   -9.4390   -7.2043 N   0  0  0  0  0  0  0  0  0  0  0  0
  -31.3242   -8.2797   -7.1064 C   0  0  0  0  0  0  0  0  0  0  0  0
  -32.4857   -8.5081   -6.4414 N   0  0  0  0  0  0  0  0  0  0  0  0
  -31.0313   -7.2700   -7.7266 O   0  0  0  0  0  0  0  0  0  0  0  0
  -32.8189   -9.4575   -6.3201 H   0  0  0  0  0  0  0  0  0  0  0  0
  -33.2045   -7.8161   -6.6219 H   0  0  0  0  0  0  0  0  0  0  0  0
  -27.4085   -5.1815   -4.0246 N   0  0  0  0  0  0  0  0  0  0  0  0
  -27.8882   -6.3476   -4.6261 C   0  0  0  0  0  0  0  0  0  0  0  0
  -28.8652   -6.3903   -5.3637 O   0  0  0  0  0  0  0  0  0  0  0  0
  -27.1251   -7.4657   -4.2905 N   0  0  0  0  0  0  0  0  0  0  0  0
  -26.4340   -5.1807   -3.7618 H   0  0  0  0  0  0  0  0  0  0  0  0
  -26.5839   -7.4023   -3.4402 H   0  0  0  0  0  0  0  0  0  0  0  0
  -28.2125   -1.7503   -5.2780 C   0  0  0  0  0  0  0  0  0  0  0  0
  -29.3806   -1.4725   -4.5577 C   0  0  0  0  0  0  0  0  0  0  0  0
  -29.8351   -2.3626   -3.5921 C   0  0  0  0  0  0  0  0  0  0  0  0
  -29.1569   -3.5618   -3.3726 C   0  0  0  0  0  0  0  0  0  0  0  0
  -28.0380   -3.9092   -4.1366 C   0  0  0  0  0  0  0  0  0  0  0  0
  -27.5401   -2.9711   -5.0562 C   0  0  0  0  0  0  0  0  0  0  0  0
  -28.4369    0.5903   -6.1828 C   0  0  0  0  0  0  0  0  0  0  0  0
  -27.7283   -0.7508   -6.3010 C   0  0  0  0  0  0  0  0  0  0  0  0
 32 33  1  0  0  0
 33 26  1  0  0  0
 26 27  1  0  0  0
 26 31  2  0  0  0
 27 28  2  0  0  0
 28 29  1  0  0  0
 29 30  2  0  0  0
 30 20  1  0  0  0
 30 31  1  0  0  0
 20 21  1  0  0  0
 20 24  1  0  0  0
 21 22  2  0  0  0
 21 23  1  0  0  0
 23  1  1  0  0  0
 23 25  1  0  0  0
  1  2  2  0  0  0
  1  5  1  0  0  0
  2  3  1  0  0  0
  3  4  1  0  0  0
  4  6  1  0  0  0
  4  5  2  0  0  0
  6  7  2  0  0  0
  6 14  1  0  0  0
  7  8  1  0  0  0
  8  9  1  0  0  0
  8 13  2  0  0  0
  9 10  2  0  0  0
 10 11  1  0  0  0
 11 12  2  0  0  0
 12 13  1  0  0  0
 13 14  1  0  0  0
 14 15  1  0  0  0
 15 16  1  0  0  0
 15 17  2  0  0  0
 16 18  1  0  0  0
 16 19  1  0  0  0
M  END
> <minimizedAffinity>
-9.26829

$$$$
