CHEMBL2331570


 33 36  0  0  0  0  0  0  0  0999 V2000
  -15.1818   -2.7510  -11.7676 C   0  0  0  0  0  0  0  0  0  0  0  0
  -13.9141   -3.3326  -11.7097 C   0  0  0  0  0  0  0  0  0  0  0  0
  -13.7608   -4.7112  -11.5610 C   0  0  0  0  0  0  0  0  0  0  0  0
  -14.8757   -5.5302  -11.4003 C   0  0  0  0  0  0  0  0  0  0  0  0
  -16.1487   -4.9571  -11.4301 C   0  0  0  0  0  0  0  0  0  0  0  0
  -16.3021   -3.5731  -11.6019 C   0  0  0  0  0  0  0  0  0  0  0  0
  -16.1567   -1.5232  -14.1998 O   0  0  0  0  0  0  0  0  0  0  0  0
  -15.8792   -0.8497  -13.2131 C   0  0  0  0  0  0  0  0  0  0  0  0
  -15.3900   -1.3744  -12.0244 N   0  0  0  0  0  0  0  0  0  0  0  0
  -16.0546    0.5207  -13.1398 N   0  0  0  0  0  0  0  0  0  0  0  0
  -15.3728   -0.7626  -11.2240 H   0  0  0  0  0  0  0  0  0  0  0  0
  -15.6842    0.9872  -12.3263 H   0  0  0  0  0  0  0  0  0  0  0  0
  -16.6557    1.3406  -14.1253 C   0  0  0  0  0  0  0  0  0  0  0  0
  -15.9622    1.9066  -15.2001 C   0  0  0  0  0  0  0  0  0  0  0  0
  -16.6170    2.6992  -16.1446 C   0  0  0  0  0  0  0  0  0  0  0  0
  -17.9836    2.9256  -16.0366 C   0  0  0  0  0  0  0  0  0  0  0  0
  -18.7081    2.3574  -14.9809 C   0  0  0  0  0  0  0  0  0  0  0  0
  -18.0316    1.5752  -14.0238 C   0  0  0  0  0  0  0  0  0  0  0  0
  -20.1976    2.5560  -14.8715 C   0  0  0  0  0  0  0  0  0  0  0  0
  -20.7451    3.2018  -15.9377 F   0  0  0  0  0  0  0  0  0  0  0  0
  -20.8676    1.3748  -14.7662 F   0  0  0  0  0  0  0  0  0  0  0  0
  -20.5476    3.2810  -13.7734 F   0  0  0  0  0  0  0  0  0  0  0  0
  -14.8158   -6.9013  -11.2895 O   0  0  0  0  0  0  0  0  0  0  0  0
  -14.0284   -7.6033  -12.1918 C   0  0  0  0  0  0  0  0  0  0  0  0
  -13.0876   -8.4765  -11.7486 N   0  0  0  0  0  0  0  0  0  0  0  0
  -12.3317   -9.1145  -12.6612 C   0  0  0  0  0  0  0  0  0  0  0  0
  -12.4090   -9.0303  -14.0015 N   0  0  0  0  0  0  0  0  0  0  0  0
  -13.3870   -8.1930  -14.3805 C   0  0  0  0  0  0  0  0  0  0  0  0
  -13.7533   -7.8886  -15.6602 N   0  0  0  0  0  0  0  0  0  0  0  0
  -14.7736   -7.0085  -15.7356 N   0  0  0  0  0  0  0  0  0  0  0  0
  -15.0538   -6.7514  -14.4512 C   0  0  0  0  0  0  0  0  0  0  0  0
  -14.2240   -7.4617  -13.5611 C   0  0  0  0  0  0  0  0  0  0  0  0
  -13.3438   -8.2511  -16.5131 H   0  0  0  0  0  0  0  0  0  0  0  0
  7  8  2  0  0  0
  8  9  1  0  0  0
  8 10  1  0  0  0
  9  1  1  0  0  0
  9 11  1  0  0  0
  1  2  1  0  0  0
  1  6  2  0  0  0
  2  3  2  0  0  0
  3  4  1  0  0  0
  4 23  1  0  0  0
  4  5  2  0  0  0
 23 24  1  0  0  0
 24 25  1  0  0  0
 24 32  2  0  0  0
 25 26  2  0  0  0
 26 27  1  0  0  0
 27 28  2  0  0  0
 28 29  1  0  0  0
 28 32  1  0  0  0
 29 30  1  0  0  0
 29 33  1  0  0  0
 30 31  2  0  0  0
 31 32  1  0  0  0
  5  6  1  0  0  0
 10 13  1  0  0  0
 10 12  1  0  0  0
 13 14  1  0  0  0
 13 18  2  0  0  0
 14 15  2  0  0  0
 15 16  1  0  0  0
 16 17  2  0  0  0
 17 19  1  0  0  0
 17 18  1  0  0  0
 19 20  1  0  0  0
 19 21  1  0  0  0
 19 22  1  0  0  0
M  END
> <minimizedAffinity>
-9.37087

$$$$
