CHEMBL375692


 37 42  0  0  0  0  0  0  0  0999 V2000
  -29.4424   -9.6580   -6.5242 C   0  0  0  0  0  0  0  0  0  0  0  0
  -29.2647   -9.7789   -5.1193 C   0  0  0  0  0  0  0  0  0  0  0  0
  -29.0864   -8.6663   -4.2943 C   0  0  0  0  0  0  0  0  0  0  0  0
  -29.0421   -7.4403   -4.9084 C   0  0  0  0  0  0  0  0  0  0  0  0
  -29.1714   -7.2847   -6.3140 C   0  0  0  0  0  0  0  0  0  0  0  0
  -29.3975   -8.3868   -7.1234 C   0  0  0  0  0  0  0  0  0  0  0  0
  -29.0031   -5.8235   -6.7747 C   0  0  0  0  0  0  0  0  0  0  0  0
  -28.7914   -5.2181   -5.4264 C   0  0  0  0  0  0  0  0  0  0  0  0
  -28.5553   -3.9746   -4.8061 C   0  0  0  0  0  0  0  0  0  0  0  0
  -28.5151   -4.1338   -3.4603 N   0  0  0  0  0  0  0  0  0  0  0  0
  -28.6903   -5.4635   -3.2542 N   0  0  0  0  0  0  0  0  0  0  0  0
  -28.8335   -6.1289   -4.4109 C   0  0  0  0  0  0  0  0  0  0  0  0
  -28.7086   -5.8117   -2.3020 H   0  0  0  0  0  0  0  0  0  0  0  0
  -28.3908   -2.6669   -5.4395 C   0  0  0  0  0  0  0  0  0  0  0  0
  -28.5926   -1.4866   -4.7107 C   0  0  0  0  0  0  0  0  0  0  0  0
  -28.4891   -0.2402   -5.3346 C   0  0  0  0  0  0  0  0  0  0  0  0
  -28.1860   -0.1621   -6.6948 C   0  0  0  0  0  0  0  0  0  0  0  0
  -27.9687   -1.3290   -7.4259 C   0  0  0  0  0  0  0  0  0  0  0  0
  -28.0526   -2.5719   -6.7966 C   0  0  0  0  0  0  0  0  0  0  0  0
  -27.7019   -1.2737   -8.8290 C   0  0  0  0  0  0  0  0  0  0  0  0
  -27.5025   -1.2628  -10.1175 C   0  0  0  0  0  0  0  0  0  0  0  0
  -27.2702   -1.2501  -11.6196 C   0  0  0  0  0  0  0  0  0  0  0  0
  -26.2393   -2.1726  -11.9524 O   0  0  0  0  0  0  0  0  0  0  0  0
  -25.0465   -1.6248  -12.3446 C   0  0  0  0  0  0  0  0  0  0  0  0
  -23.9153   -1.4558  -11.5415 C   0  0  0  0  0  0  0  0  0  0  0  0
  -22.7567   -0.8772  -12.0686 C   0  0  0  0  0  0  0  0  0  0  0  0
  -22.7216   -0.4667  -13.3989 C   0  0  0  0  0  0  0  0  0  0  0  0
  -23.8452   -0.6345  -14.2043 C   0  0  0  0  0  0  0  0  0  0  0  0
  -25.0027   -1.2108  -13.6776 C   0  0  0  0  0  0  0  0  0  0  0  0
  -29.6714  -10.9020   -7.3678 C   0  0  0  0  0  0  0  0  0  0  0  0
  -27.1334   -9.9079  -11.3262 C   0  0  0  0  0  0  0  0  0  0  0  0
  -27.1961  -10.7859  -10.1618 N   0  0  0  0  0  0  0  0  0  0  0  0
  -27.1077  -10.0132   -8.9123 C   0  0  0  0  0  0  0  0  0  0  0  0
  -27.2141  -10.9324   -7.6743 C   0  0  0  0  0  0  0  0  0  0  0  0
  -28.4658  -11.7175   -7.6053 N   0  0  0  0  0  0  0  0  0  0  0  0
  -28.5832  -12.4653   -8.8838 C   0  0  0  0  0  0  0  0  0  0  0  0
  -28.4214  -11.6071  -10.1698 C   0  0  0  0  0  0  0  0  0  0  0  0
 31 32  1  0  0  0
 32 33  1  0  0  0
 32 37  1  0  0  0
 33 34  1  0  0  0
 34 35  1  0  0  0
 35 30  1  0  0  0
 35 36  1  0  0  0
 30  1  1  0  0  0
  1  2  1  0  0  0
  1  6  2  0  0  0
  2  3  2  0  0  0
  3  4  1  0  0  0
  4  5  2  0  0  0
  4 12  1  0  0  0
  5  6  1  0  0  0
  5  7  1  0  0  0
  7  8  1  0  0  0
  8  9  1  0  0  0
  8 12  2  0  0  0
  9 14  1  0  0  0
  9 10  2  0  0  0
 14 15  1  0  0  0
 14 19  2  0  0  0
 15 16  2  0  0  0
 16 17  1  0  0  0
 17 18  2  0  0  0
 18 20  1  0  0  0
 18 19  1  0  0  0
 20 21  3  0  0  0
 21 22  1  0  0  0
 22 23  1  0  0  0
 23 24  1  0  0  0
 24 25  1  0  0  0
 24 29  2  0  0  0
 25 26  2  0  0  0
 26 27  1  0  0  0
 27 28  2  0  0  0
 28 29  1  0  0  0
 10 11  1  0  0  0
 11 12  1  0  0  0
 11 13  1  0  0  0
 36 37  1  0  0  0
M  END
> <minimizedAffinity>
-10.93178

$$$$
