CHEMBL3633288


 42 45  0  0  0  0  0  0  0  0999 V2000
  -15.0146    0.0699  -14.8837 N   0  0  0  0  0  0  0  0  0  0  0  0
  -15.1409   -1.2039  -14.3434 C   0  0  0  0  0  0  0  0  0  0  0  0
  -16.2227   -1.7439  -14.0266 O   0  0  0  0  0  0  0  0  0  0  0  0
  -13.9956   -1.9301  -14.2195 N   0  0  0  0  0  0  0  0  0  0  0  0
  -14.0995    0.3561  -15.1588 H   0  0  0  0  0  0  0  0  0  0  0  0
  -13.1450   -1.3885  -14.0093 H   0  0  0  0  0  0  0  0  0  0  0  0
  -15.9199    2.3643  -15.4583 C   0  0  0  0  0  0  0  0  0  0  0  0
  -17.0362    3.2244  -15.5335 C   0  0  0  0  0  0  0  0  0  0  0  0
  -18.3194    2.7761  -15.3282 C   0  0  0  0  0  0  0  0  0  0  0  0
  -18.5387    1.4191  -15.0802 C   0  0  0  0  0  0  0  0  0  0  0  0
  -17.4351    0.5575  -14.9949 C   0  0  0  0  0  0  0  0  0  0  0  0
  -16.1093    0.9897  -15.1174 C   0  0  0  0  0  0  0  0  0  0  0  0
  -14.4719    2.8990  -17.2114 C   0  0  0  0  0  0  0  0  0  0  0  0
  -14.6887    2.8798  -15.7848 O   0  0  0  0  0  0  0  0  0  0  0  0
  -19.9152    0.8964  -14.9275 C   0  0  0  0  0  0  0  0  0  0  0  0
  -20.3645   -0.0262  -15.5824 O   0  0  0  0  0  0  0  0  0  0  0  0
  -20.5666    1.5628  -13.9309 O   0  0  0  0  0  0  0  0  0  0  0  0
  -21.8078    2.1795  -14.3156 C   0  0  0  0  0  0  0  0  0  0  0  0
  -22.9938    1.4783  -13.6294 C   0  0  0  0  0  0  0  0  0  0  0  0
  -22.6704    0.1211  -13.1446 N   0  0  0  0  0  0  0  0  0  0  0  0
  -23.1482   -0.9209  -14.0831 C   0  0  0  0  0  0  0  0  0  0  0  0
  -24.6799   -1.0628  -14.1198 C   0  0  0  0  0  0  0  0  0  0  0  0
  -25.2018   -1.3504  -12.8159 O   0  0  0  0  0  0  0  0  0  0  0  0
  -24.8217   -0.3342  -11.8790 C   0  0  0  0  0  0  0  0  0  0  0  0
  -23.2929   -0.1681  -11.8288 C   0  0  0  0  0  0  0  0  0  0  0  0
  -14.0108   -3.2589  -13.6764 C   0  0  0  0  0  0  0  0  0  0  0  0
  -13.8613   -4.3286  -14.5819 C   0  0  0  0  0  0  0  0  0  0  0  0
  -13.7789   -5.6758  -14.1785 C   0  0  0  0  0  0  0  0  0  0  0  0
  -13.8573   -5.9423  -12.8119 C   0  0  0  0  0  0  0  0  0  0  0  0
  -14.0143   -4.8982  -11.8929 C   0  0  0  0  0  0  0  0  0  0  0  0
  -14.1329   -3.5582  -12.3120 C   0  0  0  0  0  0  0  0  0  0  0  0
  -13.5904   -6.7339  -15.1861 C   0  0  0  0  0  0  0  0  0  0  0  0
  -12.8970   -7.8944  -14.9043 C   0  0  0  0  0  0  0  0  0  0  0  0
  -12.6615   -8.8941  -15.7857 N   0  0  0  0  0  0  0  0  0  0  0  0
  -13.1700   -8.7070  -17.0053 C   0  0  0  0  0  0  0  0  0  0  0  0
  -13.8672   -7.6399  -17.4166 N   0  0  0  0  0  0  0  0  0  0  0  0
  -14.0587   -6.6704  -16.4883 C   0  0  0  0  0  0  0  0  0  0  0  0
  -14.3321   -2.7090  -11.2576 O   0  0  0  0  0  0  0  0  0  0  0  0
  -15.6561   -2.5907  -10.7575 C   0  0  0  0  0  0  0  0  0  0  0  0
  -16.5278   -3.4945  -11.2339 F   0  0  0  0  0  0  0  0  0  0  0  0
  -15.6565   -2.7731   -9.4138 F   0  0  0  0  0  0  0  0  0  0  0  0
  -16.1170   -1.3418  -11.0092 F   0  0  0  0  0  0  0  0  0  0  0  0
 13 14  1  0  0  0
 14  7  1  0  0  0
  7  8  1  0  0  0
  7 12  2  0  0  0
  8  9  2  0  0  0
  9 10  1  0  0  0
 10 15  1  0  0  0
 10 11  2  0  0  0
 15 16  2  0  0  0
 15 17  1  0  0  0
 17 18  1  0  0  0
 18 19  1  0  0  0
 19 20  1  0  0  0
 20 21  1  0  0  0
 20 25  1  0  0  0
 21 22  1  0  0  0
 22 23  1  0  0  0
 23 24  1  0  0  0
 24 25  1  0  0  0
 11 12  1  0  0  0
 12  1  1  0  0  0
  1  2  1  0  0  0
  1  5  1  0  0  0
  2  3  2  0  0  0
  2  4  1  0  0  0
  4 26  1  0  0  0
  4  6  1  0  0  0
 26 27  1  0  0  0
 26 31  2  0  0  0
 27 28  2  0  0  0
 28 32  1  0  0  0
 28 29  1  0  0  0
 32 33  1  0  0  0
 32 37  2  0  0  0
 33 34  2  0  0  0
 34 35  1  0  0  0
 35 36  2  0  0  0
 36 37  1  0  0  0
 29 30  2  0  0  0
 30 31  1  0  0  0
 31 38  1  0  0  0
 38 39  1  0  0  0
 39 40  1  0  0  0
 39 41  1  0  0  0
 39 42  1  0  0  0
M  END
> <minimizedAffinity>
-8.42393

$$$$
