CHEMBL511910


 33 37  0  0  0  0  0  0  0  0999 V2000
  -30.6665   -9.5829   -7.3910 C   0  0  0  0  0  0  0  0  0  0  0  0
  -31.0877  -10.3167   -8.5183 C   0  0  0  0  0  0  0  0  0  0  0  0
  -30.8997  -11.6951   -8.5847 C   0  0  0  0  0  0  0  0  0  0  0  0
  -30.2528  -12.3462   -7.5443 C   0  0  0  0  0  0  0  0  0  0  0  0
  -29.8650  -11.6318   -6.4085 C   0  0  0  0  0  0  0  0  0  0  0  0
  -30.1173  -10.2529   -6.2721 C   0  0  0  0  0  0  0  0  0  0  0  0
  -30.8346   -8.1000   -7.4870 C   0  0  0  0  0  0  0  0  0  0  0  0
  -31.9568   -7.6253   -7.3169 O   0  0  0  0  0  0  0  0  0  0  0  0
  -28.6185   -3.1480   -7.6742 C   0  0  0  0  0  0  0  0  0  0  0  0
  -29.8188   -3.4691   -7.0470 C   0  0  0  0  0  0  0  0  0  0  0  0
  -30.2511   -4.7983   -6.9687 C   0  0  0  0  0  0  0  0  0  0  0  0
  -29.4951   -5.8257   -7.5709 C   0  0  0  0  0  0  0  0  0  0  0  0
  -29.6866   -7.2355   -7.7789 C   0  0  0  0  0  0  0  0  0  0  0  0
  -28.5240   -7.6998   -8.3709 C   0  0  0  0  0  0  0  0  0  0  0  0
  -27.6996   -6.6370   -8.6175 N   0  0  0  0  0  0  0  0  0  0  0  0
  -28.2842   -5.4740   -8.1734 C   0  0  0  0  0  0  0  0  0  0  0  0
  -27.8321   -4.1494   -8.2538 C   0  0  0  0  0  0  0  0  0  0  0  0
  -26.7959   -6.6898   -9.0692 H   0  0  0  0  0  0  0  0  0  0  0  0
  -27.9741   -1.1610   -6.5804 C   0  0  0  0  0  0  0  0  0  0  0  0
  -28.1310   -1.8735   -7.8046 O   0  0  0  0  0  0  0  0  0  0  0  0
  -29.9061   -9.6286   -5.0420 N   0  0  0  0  0  0  0  0  0  0  0  0
  -30.6969   -9.1588   -4.6148 H   0  0  0  0  0  0  0  0  0  0  0  0
  -28.6277   -9.0191   -4.6985 C   0  0  0  0  0  0  0  0  0  0  0  0
  -28.7473   -7.5442   -4.3903 C   0  0  0  0  0  0  0  0  0  0  0  0
  -27.5976   -6.7538   -4.4859 C   0  0  0  0  0  0  0  0  0  0  0  0
  -27.6411   -5.3916   -4.1868 C   0  0  0  0  0  0  0  0  0  0  0  0
  -28.8240   -4.7663   -3.8144 C   0  0  0  0  0  0  0  0  0  0  0  0
  -28.8105   -3.4485   -3.5539 N   0  0  0  0  0  0  0  0  0  0  0  0
  -29.9796   -2.8606   -3.2244 C   0  0  0  0  0  0  0  0  0  0  0  0
  -31.1831   -3.5297   -3.1347 C   0  0  0  0  0  0  0  0  0  0  0  0
  -31.1891   -4.8983   -3.3855 C   0  0  0  0  0  0  0  0  0  0  0  0
  -29.9965   -5.5450   -3.7364 C   0  0  0  0  0  0  0  0  0  0  0  0
  -29.9507   -6.9222   -4.0151 C   0  0  0  0  0  0  0  0  0  0  0  0
 19 20  1  0  0  0
 20  9  1  0  0  0
  9 10  1  0  0  0
  9 17  2  0  0  0
 10 11  2  0  0  0
 11 12  1  0  0  0
 12 13  1  0  0  0
 12 16  2  0  0  0
 13  7  1  0  0  0
 13 14  2  0  0  0
  7  8  2  0  0  0
  7  1  1  0  0  0
  1  2  1  0  0  0
  1  6  2  0  0  0
  2  3  2  0  0  0
  3  4  1  0  0  0
  4  5  2  0  0  0
  5  6  1  0  0  0
  6 21  1  0  0  0
 21 23  1  0  0  0
 21 22  1  0  0  0
 23 24  1  0  0  0
 24 25  1  0  0  0
 24 33  2  0  0  0
 25 26  2  0  0  0
 26 27  1  0  0  0
 27 28  1  0  0  0
 27 32  2  0  0  0
 28 29  2  0  0  0
 29 30  1  0  0  0
 30 31  2  0  0  0
 31 32  1  0  0  0
 32 33  1  0  0  0
 14 15  1  0  0  0
 15 16  1  0  0  0
 15 18  1  0  0  0
 16 17  1  0  0  0
M  END
> <minimizedAffinity>
-8.24279

$$$$
