CHEMBL200217


 38 42  0  0  0  0  0  0  0  0999 V2000
  -13.7137   -3.6382  -11.6211 C   0  0  0  0  0  0  0  0  0  0  0  0
  -14.4007   -3.8440  -10.4745 N   0  0  0  0  0  0  0  0  0  0  0  0
  -15.4560   -3.0710  -10.2469 C   0  0  0  0  0  0  0  0  0  0  0  0
  -15.8543   -2.0625  -11.0173 N   0  0  0  0  0  0  0  0  0  0  0  0
  -15.1418   -1.8352  -12.1191 C   0  0  0  0  0  0  0  0  0  0  0  0
  -15.5521   -0.7599  -12.8810 C   0  0  0  0  0  0  0  0  0  0  0  0
  -14.9097   -0.4010  -14.0593 C   0  0  0  0  0  0  0  0  0  0  0  0
  -13.8409   -1.1676  -14.5118 C   0  0  0  0  0  0  0  0  0  0  0  0
  -13.4165   -2.2850  -13.7841 C   0  0  0  0  0  0  0  0  0  0  0  0
  -14.0423   -2.6033  -12.5319 C   0  0  0  0  0  0  0  0  0  0  0  0
  -12.5568   -4.4383  -11.8256 N   0  0  0  0  0  0  0  0  0  0  0  0
  -12.0102   -4.0567  -12.5947 H   0  0  0  0  0  0  0  0  0  0  0  0
  -13.6476   -7.8651  -12.7604 C   0  0  0  0  0  0  0  0  0  0  0  0
  -12.7465   -8.6666  -12.0629 C   0  0  0  0  0  0  0  0  0  0  0  0
  -11.8111   -8.0807  -11.2114 C   0  0  0  0  0  0  0  0  0  0  0  0
  -11.7528   -6.6890  -11.0753 C   0  0  0  0  0  0  0  0  0  0  0  0
  -10.6972   -6.0825   -9.8415 Cl  0  0  0  0  0  0  0  0  0  0  0  0
  -12.5688   -5.8567  -11.8666 C   0  0  0  0  0  0  0  0  0  0  0  0
  -13.5449   -6.4712  -12.6728 C   0  0  0  0  0  0  0  0  0  0  0  0
  -15.6188   -7.3801  -13.9623 C   0  0  0  0  0  0  0  0  0  0  0  0
  -14.6366   -8.3389  -13.5800 O   0  0  0  0  0  0  0  0  0  0  0  0
  -15.2471    0.6681  -14.8466 O   0  0  0  0  0  0  0  0  0  0  0  0
  -16.6060    0.7063  -15.2916 C   0  0  0  0  0  0  0  0  0  0  0  0
  -17.1691    2.0963  -15.0329 C   0  0  0  0  0  0  0  0  0  0  0  0
  -18.5587    1.9976  -14.3947 C   0  0  0  0  0  0  0  0  0  0  0  0
  -19.6518    1.8359  -15.3667 N   0  0  0  0  0  0  0  0  0  0  0  0
  -20.4811    3.0628  -15.4396 C   0  0  0  0  0  0  0  0  0  0  0  0
  -21.4225    3.2541  -14.2351 C   0  0  0  0  0  0  0  0  0  0  0  0
  -22.2682    2.1135  -14.0437 O   0  0  0  0  0  0  0  0  0  0  0  0
  -21.4877    0.9230  -13.8818 C   0  0  0  0  0  0  0  0  0  0  0  0
  -20.5550    0.6992  -15.0828 C   0  0  0  0  0  0  0  0  0  0  0  0
  -12.4035   -3.1124  -14.2130 O   0  0  0  0  0  0  0  0  0  0  0  0
  -12.4936   -3.7191  -15.5207 C   0  0  0  0  0  0  0  0  0  0  0  0
  -13.7713   -4.5570  -15.6533 C   0  0  0  0  0  0  0  0  0  0  0  0
  -13.7194   -5.4831  -16.8557 C   0  0  0  0  0  0  0  0  0  0  0  0
  -12.5476   -6.2934  -16.8180 O   0  0  0  0  0  0  0  0  0  0  0  0
  -11.3617   -5.5094  -16.9008 C   0  0  0  0  0  0  0  0  0  0  0  0
  -11.2459   -4.5948  -15.6923 C   0  0  0  0  0  0  0  0  0  0  0  0
 20 21  1  0  0  0
 21 13  1  0  0  0
 13 14  1  0  0  0
 13 19  2  0  0  0
 14 15  2  0  0  0
 15 16  1  0  0  0
 16 17  1  0  0  0
 16 18  2  0  0  0
 18 11  1  0  0  0
 18 19  1  0  0  0
 11  1  1  0  0  0
 11 12  1  0  0  0
  1  2  1  0  0  0
  1 10  2  0  0  0
  2  3  2  0  0  0
  3  4  1  0  0  0
  4  5  2  0  0  0
  5  6  1  0  0  0
  5 10  1  0  0  0
  6  7  2  0  0  0
  7 22  1  0  0  0
  7  8  1  0  0  0
 22 23  1  0  0  0
 23 24  1  0  0  0
 24 25  1  0  0  0
 25 26  1  0  0  0
 26 27  1  0  0  0
 26 31  1  0  0  0
 27 28  1  0  0  0
 28 29  1  0  0  0
 29 30  1  0  0  0
 30 31  1  0  0  0
  8  9  2  0  0  0
  9 32  1  0  0  0
  9 10  1  0  0  0
 32 33  1  0  0  0
 33 34  1  0  0  0
 33 38  1  0  0  0
 34 35  1  0  0  0
 35 36  1  0  0  0
 36 37  1  0  0  0
 37 38  1  0  0  0
M  END
> <minimizedAffinity>
-7.06016

$$$$
