CHEMBL469468


 32 35  0  0  0  0  0  0  0  0999 V2000
  -20.5807    0.8959  -14.7124 C   0  0  0  0  0  0  0  0  0  0  0  0
  -20.0555    1.9922  -14.0160 C   0  0  0  0  0  0  0  0  0  0  0  0
  -18.6743    2.2205  -13.9740 C   0  0  0  0  0  0  0  0  0  0  0  0
  -17.7970    1.3621  -14.6430 C   0  0  0  0  0  0  0  0  0  0  0  0
  -18.3209    0.2409  -15.3048 C   0  0  0  0  0  0  0  0  0  0  0  0
  -19.7048   -0.0037  -15.3222 C   0  0  0  0  0  0  0  0  0  0  0  0
  -16.3466    1.6334  -14.6505 C   0  0  0  0  0  0  0  0  0  0  0  0
  -15.7053    2.6350  -15.5929 C   0  0  0  0  0  0  0  0  0  0  0  0
  -16.5803    3.4257  -16.5461 C   0  0  0  0  0  0  0  0  0  0  0  0
  -14.4279    2.8934  -15.6675 N   0  0  0  0  0  0  0  0  0  0  0  0
  -13.6169    2.2184  -14.8124 C   0  0  0  0  0  0  0  0  0  0  0  0
  -12.2524    2.2526  -14.6300 C   0  0  0  0  0  0  0  0  0  0  0  0
  -11.9937    1.3311  -13.6090 C   0  0  0  0  0  0  0  0  0  0  0  0
  -13.1024    0.7424  -13.1499 N   0  0  0  0  0  0  0  0  0  0  0  0
  -14.1121    1.3089  -13.8790 N   0  0  0  0  0  0  0  0  0  0  0  0
  -15.5007    1.0199  -13.7893 C   0  0  0  0  0  0  0  0  0  0  0  0
  -15.8759    0.0948  -12.8103 N   0  0  0  0  0  0  0  0  0  0  0  0
  -15.0813   -0.4757  -12.5092 H   0  0  0  0  0  0  0  0  0  0  0  0
  -16.7150   -0.4381  -13.0299 H   0  0  0  0  0  0  0  0  0  0  0  0
  -24.0442   -0.0690  -14.1329 N   0  0  0  0  0  0  0  0  0  0  0  0
  -22.6772   -0.0062  -13.9135 C   0  0  0  0  0  0  0  0  0  0  0  0
  -22.0999   -0.5238  -12.9619 O   0  0  0  0  0  0  0  0  0  0  0  0
  -21.9862    0.7309  -14.8689 N   0  0  0  0  0  0  0  0  0  0  0  0
  -24.3787    0.2578  -15.0317 H   0  0  0  0  0  0  0  0  0  0  0  0
  -22.4944    1.5345  -15.2066 H   0  0  0  0  0  0  0  0  0  0  0  0
  -28.3140   -2.5783  -13.5469 C   0  0  0  0  0  0  0  0  0  0  0  0
  -27.1027   -1.8965  -12.9773 C   0  0  0  0  0  0  0  0  0  0  0  0
  -26.9336   -1.8606  -11.5890 C   0  0  0  0  0  0  0  0  0  0  0  0
  -25.8218   -1.2395  -11.0412 C   0  0  0  0  0  0  0  0  0  0  0  0
  -24.8708   -0.6487  -11.8719 C   0  0  0  0  0  0  0  0  0  0  0  0
  -25.0005   -0.6671  -13.2666 C   0  0  0  0  0  0  0  0  0  0  0  0
  -26.1297   -1.2985  -13.8122 C   0  0  0  0  0  0  0  0  0  0  0  0
 26 27  1  0  0  0
 27 28  1  0  0  0
 27 32  2  0  0  0
 28 29  2  0  0  0
 29 30  1  0  0  0
 30 31  2  0  0  0
 31 20  1  0  0  0
 31 32  1  0  0  0
 20 21  1  0  0  0
 20 24  1  0  0  0
 21 22  2  0  0  0
 21 23  1  0  0  0
 23  1  1  0  0  0
 23 25  1  0  0  0
  1  2  1  0  0  0
  1  6  2  0  0  0
  2  3  2  0  0  0
  3  4  1  0  0  0
  4  7  1  0  0  0
  4  5  2  0  0  0
  7  8  1  0  0  0
  7 16  2  0  0  0
  8  9  1  0  0  0
  8 10  2  0  0  0
 10 11  1  0  0  0
 11 12  2  0  0  0
 11 15  1  0  0  0
 12 13  1  0  0  0
 13 14  2  0  0  0
 14 15  1  0  0  0
 15 16  1  0  0  0
 16 17  1  0  0  0
 17 18  1  0  0  0
 17 19  1  0  0  0
  5  6  1  0  0  0
M  END
> <minimizedAffinity>
-9.04080

$$$$
