CHEMBL576504


 44 48  0  0  0  0  0  0  0  0999 V2000
  -13.3705   -0.1600  -15.8488 O   0  0  0  0  0  0  0  0  0  0  0  0
  -14.8975   -2.1768  -12.4239 C   0  0  0  0  0  0  0  0  0  0  0  0
  -15.9467   -1.3215  -12.4326 C   0  0  0  0  0  0  0  0  0  0  0  0
  -15.6442   -0.4562  -13.4028 C   0  0  0  0  0  0  0  0  0  0  0  0
  -16.3136    0.4749  -13.8301 N   0  0  0  0  0  0  0  0  0  0  0  0
  -17.1092    1.3020  -14.0799 C   0  0  0  0  0  0  0  0  0  0  0  0
  -15.9877    1.3529  -14.9782 C   0  0  0  0  0  0  0  0  0  0  0  0
  -14.5167    0.5206  -15.4854 C   0  0  0  0  0  0  0  0  0  0  0  0
  -14.6086   -0.4791  -14.2834 C   0  0  0  0  0  0  0  0  0  0  0  0
  -13.7010   -1.8510  -13.6419 S   0  0  0  0  0  0  0  0  0  0  0  0
  -14.7443   -3.2039  -11.4427 C   0  0  0  0  0  0  0  0  0  0  0  0
  -14.6906   -2.9683  -10.2439 O   0  0  0  0  0  0  0  0  0  0  0  0
  -14.3652   -6.6167  -12.5564 N   0  0  0  0  0  0  0  0  0  0  0  0
  -15.5822   -6.2749  -13.0434 C   0  0  0  0  0  0  0  0  0  0  0  0
  -15.8726   -5.0285  -12.7483 N   0  0  0  0  0  0  0  0  0  0  0  0
  -14.8130   -4.5596  -11.9927 C   0  0  0  0  0  0  0  0  0  0  0  0
  -13.8716   -5.5608  -11.8595 C   0  0  0  0  0  0  0  0  0  0  0  0
  -13.6255   -7.8373  -12.7484 C   0  0  0  0  0  0  0  0  0  0  0  0
  -12.2687   -7.5336  -13.3939 C   0  0  0  0  0  0  0  0  0  0  0  0
  -13.3214   -8.9645  -14.9952 C   0  0  0  0  0  0  0  0  0  0  0  0
  -12.1545   -8.1173  -14.7367 N   0  0  0  0  0  0  0  0  0  0  0  0
  -12.0898   -7.0648  -15.7550 C   0  0  0  0  0  0  0  0  0  0  0  0
  -12.9599   -1.0028  -16.9554 C   0  0  0  0  0  0  0  0  0  0  0  0
  -11.9022   -2.0155  -17.0194 C   0  0  0  0  0  0  0  0  0  0  0  0
  -11.9534   -3.1324  -17.9819 C   0  0  0  0  0  0  0  0  0  0  0  0
  -12.7398   -3.0333  -19.1279 C   0  0  0  0  0  0  0  0  0  0  0  0
  -13.4303   -1.8142  -19.2107 C   0  0  0  0  0  0  0  0  0  0  0  0
  -13.5592   -0.8544  -18.1761 C   0  0  0  0  0  0  0  0  0  0  0  0
  -14.3281    0.2103  -18.4150 F   0  0  0  0  0  0  0  0  0  0  0  0
  -12.8430   -4.0676  -20.1677 N   0  0  0  0  0  0  0  0  0  0  0  0
  -13.9236   -4.9644  -20.2226 C   0  0  0  0  0  0  0  0  0  0  0  0
  -14.8211   -4.9020  -19.3877 O   0  0  0  0  0  0  0  0  0  0  0  0
  -12.1216   -4.1161  -20.8801 H   0  0  0  0  0  0  0  0  0  0  0  0
  -14.0409   -6.0486  -21.3224 C   0  0  0  0  0  0  0  0  0  0  0  0
  -13.5663   -7.4496  -20.7985 C   0  0  0  0  0  0  0  0  0  0  0  0
  -13.2842   -8.3732  -21.5629 O   0  0  0  0  0  0  0  0  0  0  0  0
  -13.5007   -7.6666  -19.4165 N   0  0  0  0  0  0  0  0  0  0  0  0
  -13.9783   -7.0475  -18.7784 H   0  0  0  0  0  0  0  0  0  0  0  0
  -13.1074   -8.9569  -18.9264 C   0  0  0  0  0  0  0  0  0  0  0  0
  -14.0715   -9.8886  -18.5220 C   0  0  0  0  0  0  0  0  0  0  0  0
  -13.7024  -11.1520  -18.0562 C   0  0  0  0  0  0  0  0  0  0  0  0
  -12.3753  -11.4015  -17.7420 C   0  0  0  0  0  0  0  0  0  0  0  0
  -11.4254  -10.4189  -18.0009 C   0  0  0  0  0  0  0  0  0  0  0  0
  -11.7643   -9.3073  -18.7891 C   0  0  0  0  0  0  0  0  0  0  0  0
 20 21  1  0  0  0
 21 22  1  0  0  0
 21 19  1  0  0  0
 19 18  1  0  0  0
 18 13  1  0  0  0
 13 14  1  0  0  0
 13 17  1  0  0  0
 14 15  2  0  0  0
 15 16  1  0  0  0
 16 11  1  0  0  0
 16 17  2  0  0  0
 11 12  2  0  0  0
 11  2  1  0  0  0
  2  3  2  0  0  0
  2 10  1  0  0  0
  3  4  1  0  0  0
  4  5  1  0  0  0
  4  9  2  0  0  0
  5  6  2  0  0  0
  6  7  1  0  0  0
  7  8  2  0  0  0
  8  1  1  0  0  0
  8  9  1  0  0  0
  1 23  1  0  0  0
 23 24  1  0  0  0
 23 28  2  0  0  0
 24 25  2  0  0  0
 25 26  1  0  0  0
 26 30  1  0  0  0
 26 27  2  0  0  0
 30 31  1  0  0  0
 30 33  1  0  0  0
 31 32  2  0  0  0
 31 34  1  0  0  0
 34 35  1  0  0  0
 35 36  2  0  0  0
 35 37  1  0  0  0
 37 39  1  0  0  0
 37 38  1  0  0  0
 39 40  1  0  0  0
 39 44  2  0  0  0
 40 41  2  0  0  0
 41 42  1  0  0  0
 42 43  2  0  0  0
 43 44  1  0  0  0
 27 28  1  0  0  0
 28 29  1  0  0  0
  9 10  1  0  0  0
M  END
> <minimizedAffinity>
-6.44082

$$$$
