CHEMBL1975921


 13 14  0  0  0  0  0  0  0  0999 V2000
  -16.6768    3.5902  -16.0559 O   0  0  0  0  0  0  0  0  0  0  0  0
  -17.7625    3.2034  -15.6633 C   0  0  0  0  0  0  0  0  0  0  0  0
  -18.1807    1.8675  -15.5635 N   0  0  0  0  0  0  0  0  0  0  0  0
  -19.4789    1.8575  -15.0682 C   0  0  0  0  0  0  0  0  0  0  0  0
  -20.3184    0.8099  -14.7835 C   0  0  0  0  0  0  0  0  0  0  0  0
  -21.5737    1.1617  -14.2862 C   0  0  0  0  0  0  0  0  0  0  0  0
  -22.8230   -0.1814  -13.8392 Br  0  0  0  0  0  0  0  0  0  0  0  0
  -21.9027    2.5173  -14.1135 C   0  0  0  0  0  0  0  0  0  0  0  0
  -21.0707    3.5572  -14.3935 N   0  0  0  0  0  0  0  0  0  0  0  0
  -19.8816    3.1747  -14.8618 C   0  0  0  0  0  0  0  0  0  0  0  0
  -18.8269    3.9949  -15.2260 N   0  0  0  0  0  0  0  0  0  0  0  0
  -17.6056    1.0796  -15.8152 H   0  0  0  0  0  0  0  0  0  0  0  0
  -18.8305    4.9982  -15.1758 H   0  0  0  0  0  0  0  0  0  0  0  0
  1  2  2  0  0  0
  2  3  1  0  0  0
  2 11  1  0  0  0
  3  4  1  0  0  0
  3 12  1  0  0  0
  4  5  1  0  0  0
  4 10  2  0  0  0
  5  6  2  0  0  0
  6  7  1  0  0  0
  6  8  1  0  0  0
  8  9  2  0  0  0
  9 10  1  0  0  0
 10 11  1  0  0  0
 11 13  1  0  0  0
M  END
> <minimizedAffinity>
-6.16093

$$$$
