CHEMBL3918687


 33 36  0  0  0  0  0  0  0  0999 V2000
  -14.0237   -1.1432  -14.4426 C   0  0  0  0  0  0  0  0  0  0  0  0
  -12.8193   -0.7606  -13.9032 C   0  0  0  0  0  0  0  0  0  0  0  0
  -12.1044   -2.0017  -12.9807 S   0  0  0  0  0  0  0  0  0  0  0  0
  -13.3195   -3.1485  -13.4236 C   0  0  0  0  0  0  0  0  0  0  0  0
  -14.3152   -2.5204  -14.1545 C   0  0  0  0  0  0  0  0  0  0  0  0
  -13.1515   -4.5468  -13.0656 C   0  0  0  0  0  0  0  0  0  0  0  0
  -12.1623   -5.3779  -13.5777 C   0  0  0  0  0  0  0  0  0  0  0  0
  -12.3459   -6.6859  -13.0876 C   0  0  0  0  0  0  0  0  0  0  0  0
  -11.6404   -7.8932  -13.2632 C   0  0  0  0  0  0  0  0  0  0  0  0
  -12.0611   -9.0416  -12.5888 C   0  0  0  0  0  0  0  0  0  0  0  0
  -13.1753   -8.9994  -11.7591 C   0  0  0  0  0  0  0  0  0  0  0  0
  -13.9036   -7.8167  -11.5948 C   0  0  0  0  0  0  0  0  0  0  0  0
  -13.4789   -6.6610  -12.2798 C   0  0  0  0  0  0  0  0  0  0  0  0
  -13.9828   -5.3502  -12.2670 N   0  0  0  0  0  0  0  0  0  0  0  0
  -15.1291   -4.9847  -11.5240 C   0  0  0  0  0  0  0  0  0  0  0  0
  -14.9772   -3.8186  -10.8382 N   0  0  0  0  0  0  0  0  0  0  0  0
  -16.0929   -5.7263  -11.4437 O   0  0  0  0  0  0  0  0  0  0  0  0
  -14.1071   -3.3085  -10.7790 H   0  0  0  0  0  0  0  0  0  0  0  0
  -15.7321   -3.5313  -10.2302 H   0  0  0  0  0  0  0  0  0  0  0  0
  -16.6921    0.9979  -15.5755 N   0  0  0  0  0  0  0  0  0  0  0  0
  -16.0639    0.1142  -14.7066 C   0  0  0  0  0  0  0  0  0  0  0  0
  -16.4783   -0.2544  -13.6161 O   0  0  0  0  0  0  0  0  0  0  0  0
  -14.8116   -0.2572  -15.1830 N   0  0  0  0  0  0  0  0  0  0  0  0
  -16.1953    1.2192  -16.4185 H   0  0  0  0  0  0  0  0  0  0  0  0
  -14.3063    0.4791  -15.6544 H   0  0  0  0  0  0  0  0  0  0  0  0
  -21.4973    0.6150  -14.4672 C   0  0  0  0  0  0  0  0  0  0  0  0
  -20.3134    1.4626  -14.8316 C   0  0  0  0  0  0  0  0  0  0  0  0
  -20.4765    2.8383  -15.0180 C   0  0  0  0  0  0  0  0  0  0  0  0
  -19.3788    3.6293  -15.3364 C   0  0  0  0  0  0  0  0  0  0  0  0
  -18.1208    3.0571  -15.4893 C   0  0  0  0  0  0  0  0  0  0  0  0
  -17.1138    3.9130  -15.7005 F   0  0  0  0  0  0  0  0  0  0  0  0
  -17.9230    1.6761  -15.3647 C   0  0  0  0  0  0  0  0  0  0  0  0
  -19.0362    0.8905  -15.0058 C   0  0  0  0  0  0  0  0  0  0  0  0
 26 27  1  0  0  0
 27 28  1  0  0  0
 27 33  2  0  0  0
 28 29  2  0  0  0
 29 30  1  0  0  0
 30 31  1  0  0  0
 30 32  2  0  0  0
 32 20  1  0  0  0
 32 33  1  0  0  0
 20 21  1  0  0  0
 20 24  1  0  0  0
 21 22  2  0  0  0
 21 23  1  0  0  0
 23  1  1  0  0  0
 23 25  1  0  0  0
  1  2  2  0  0  0
  1  5  1  0  0  0
  2  3  1  0  0  0
  3  4  1  0  0  0
  4  6  1  0  0  0
  4  5  2  0  0  0
  6  7  2  0  0  0
  6 14  1  0  0  0
  7  8  1  0  0  0
  8  9  1  0  0  0
  8 13  2  0  0  0
  9 10  2  0  0  0
 10 11  1  0  0  0
 11 12  2  0  0  0
 12 13  1  0  0  0
 13 14  1  0  0  0
 14 15  1  0  0  0
 15 16  1  0  0  0
 15 17  2  0  0  0
 16 18  1  0  0  0
 16 19  1  0  0  0
M  END
> <minimizedAffinity>
-9.15996

$$$$
