CHEMBL3288505


 34 38  0  0  0  0  0  0  0  0999 V2000
  -27.4010   -2.0251   -8.8527 C   0  0  0  0  0  0  0  0  0  0  0  0
  -27.5578   -0.9212   -7.9565 C   0  0  0  0  0  0  0  0  0  0  0  0
  -28.1084   -1.0760   -6.6990 C   0  0  0  0  0  0  0  0  0  0  0  0
  -28.8125   -2.2220   -6.4787 C   0  0  0  0  0  0  0  0  0  0  0  0
  -28.9421   -3.1213   -7.5330 C   0  0  0  0  0  0  0  0  0  0  0  0
  -29.9360   -4.0553   -7.5480 C   0  0  0  0  0  0  0  0  0  0  0  0
  -29.5009   -5.1758   -6.9194 C   0  0  0  0  0  0  0  0  0  0  0  0
  -28.4202   -5.6835   -7.6531 C   0  0  0  0  0  0  0  0  0  0  0  0
  -27.7148   -4.7677   -8.5661 C   0  0  0  0  0  0  0  0  0  0  0  0
  -27.9439   -3.3127   -8.4529 C   0  0  0  0  0  0  0  0  0  0  0  0
  -30.1956   -5.4104   -5.6141 C   0  0  0  0  0  0  0  0  0  0  0  0
  -31.2241   -4.4510   -5.2483 C   0  0  0  0  0  0  0  0  0  0  0  0
  -31.8786   -4.3827   -4.0276 C   0  0  0  0  0  0  0  0  0  0  0  0
  -31.6051   -5.3337   -3.0745 C   0  0  0  0  0  0  0  0  0  0  0  0
  -30.6345   -6.2905   -3.3916 C   0  0  0  0  0  0  0  0  0  0  0  0
  -30.1945   -7.3402   -2.6313 N   0  0  0  0  0  0  0  0  0  0  0  0
  -29.1784   -8.0164   -3.1752 N   0  0  0  0  0  0  0  0  0  0  0  0
  -28.9847   -7.4140   -4.3440 C   0  0  0  0  0  0  0  0  0  0  0  0
  -27.9815   -7.7962   -5.1529 N   0  0  0  0  0  0  0  0  0  0  0  0
  -29.8986   -6.3460   -4.5922 C   0  0  0  0  0  0  0  0  0  0  0  0
  -30.5441   -7.6243   -1.7274 H   0  0  0  0  0  0  0  0  0  0  0  0
  -27.3671   -8.4858   -4.7319 H   0  0  0  0  0  0  0  0  0  0  0  0
  -27.4524   -7.0569   -5.5974 H   0  0  0  0  0  0  0  0  0  0  0  0
  -25.3251   -1.6118  -10.1936 N   0  0  0  0  0  0  0  0  0  0  0  0
  -26.6991   -1.6035  -10.1020 C   0  0  0  0  0  0  0  0  0  0  0  0
  -27.4331   -1.2947  -11.0438 O   0  0  0  0  0  0  0  0  0  0  0  0
  -24.7893   -1.9506   -9.4088 H   0  0  0  0  0  0  0  0  0  0  0  0
  -22.2743    0.0086  -14.8060 C   0  0  0  0  0  0  0  0  0  0  0  0
  -23.0943   -0.4053  -13.6226 C   0  0  0  0  0  0  0  0  0  0  0  0
  -23.8292    0.5417  -12.9131 C   0  0  0  0  0  0  0  0  0  0  0  0
  -24.5662    0.1563  -11.7925 C   0  0  0  0  0  0  0  0  0  0  0  0
  -24.6030   -1.1733  -11.3450 C   0  0  0  0  0  0  0  0  0  0  0  0
  -23.8700   -2.1168  -12.0647 C   0  0  0  0  0  0  0  0  0  0  0  0
  -23.1206   -1.7363  -13.1898 C   0  0  0  0  0  0  0  0  0  0  0  0
 28 29  1  0  0  0
 29 30  1  0  0  0
 29 34  2  0  0  0
 30 31  2  0  0  0
 31 32  1  0  0  0
 32 24  1  0  0  0
 32 33  2  0  0  0
 24 25  1  0  0  0
 24 27  1  0  0  0
 25 26  2  0  0  0
 25  1  1  0  0  0
  1  2  1  0  0  0
  1 10  2  0  0  0
  2  3  2  0  0  0
  3  4  1  0  0  0
  4  5  2  0  0  0
  5  6  1  0  0  0
  5 10  1  0  0  0
  6  7  2  0  0  0
  7 11  1  0  0  0
  7  8  1  0  0  0
 11 12  1  0  0  0
 11 20  2  0  0  0
 12 13  2  0  0  0
 13 14  1  0  0  0
 14 15  2  0  0  0
 15 16  1  0  0  0
 15 20  1  0  0  0
 16 17  1  0  0  0
 16 21  1  0  0  0
 17 18  2  0  0  0
 18 19  1  0  0  0
 18 20  1  0  0  0
 19 22  1  0  0  0
 19 23  1  0  0  0
  8  9  2  0  0  0
  9 10  1  0  0  0
 33 34  1  0  0  0
M  END
> <minimizedAffinity>
-10.39495

$$$$
