CHEMBL270506


 32 35  0  0  0  0  0  0  0  0999 V2000
  -21.4183    1.6110  -14.5931 C   0  0  0  0  0  0  0  0  0  0  0  0
  -21.3717    0.2169  -14.5255 C   0  0  0  0  0  0  0  0  0  0  0  0
  -22.3896   -0.5014  -13.8853 C   0  0  0  0  0  0  0  0  0  0  0  0
  -23.4678    0.1513  -13.2693 C   0  0  0  0  0  0  0  0  0  0  0  0
  -23.4238    1.5591  -13.2479 C   0  0  0  0  0  0  0  0  0  0  0  0
  -22.4233    2.2860  -13.9117 C   0  0  0  0  0  0  0  0  0  0  0  0
  -24.5777   -0.6071  -12.6499 C   0  0  0  0  0  0  0  0  0  0  0  0
  -24.6153   -0.8539  -11.2514 C   0  0  0  0  0  0  0  0  0  0  0  0
  -25.6861   -1.5012  -10.6265 C   0  0  0  0  0  0  0  0  0  0  0  0
  -26.7945   -1.9117  -11.3600 C   0  0  0  0  0  0  0  0  0  0  0  0
  -26.7332   -1.7020  -12.7340 C   0  0  0  0  0  0  0  0  0  0  0  0
  -27.7062   -2.0517  -13.6130 O   0  0  0  0  0  0  0  0  0  0  0  0
  -27.2907   -1.7715  -14.8971 N   0  0  0  0  0  0  0  0  0  0  0  0
  -26.0613   -1.2660  -14.7792 C   0  0  0  0  0  0  0  0  0  0  0  0
  -25.2879   -0.9844  -15.8483 N   0  0  0  0  0  0  0  0  0  0  0  0
  -25.6702   -1.1165  -13.4102 C   0  0  0  0  0  0  0  0  0  0  0  0
  -25.6101   -1.3478  -16.7396 H   0  0  0  0  0  0  0  0  0  0  0  0
  -24.2786   -1.0431  -15.7472 H   0  0  0  0  0  0  0  0  0  0  0  0
  -18.3751    3.0443  -15.9509 N   0  0  0  0  0  0  0  0  0  0  0  0
  -19.1444    2.2921  -15.0857 C   0  0  0  0  0  0  0  0  0  0  0  0
  -18.6920    1.6237  -14.1599 O   0  0  0  0  0  0  0  0  0  0  0  0
  -20.5000    2.3443  -15.3821 N   0  0  0  0  0  0  0  0  0  0  0  0
  -18.8717    3.7154  -16.5278 H   0  0  0  0  0  0  0  0  0  0  0  0
  -20.7081    2.4100  -16.3696 H   0  0  0  0  0  0  0  0  0  0  0  0
  -12.6233    3.1666  -16.1013 C   0  0  0  0  0  0  0  0  0  0  0  0
  -14.1258    3.1014  -16.0689 C   0  0  0  0  0  0  0  0  0  0  0  0
  -14.8424    4.2925  -15.9543 C   0  0  0  0  0  0  0  0  0  0  0  0
  -16.2406    4.2834  -15.9134 C   0  0  0  0  0  0  0  0  0  0  0  0
  -16.9628    3.0845  -15.9924 C   0  0  0  0  0  0  0  0  0  0  0  0
  -16.2461    1.8903  -16.1054 C   0  0  0  0  0  0  0  0  0  0  0  0
  -14.8399    1.9004  -16.1420 C   0  0  0  0  0  0  0  0  0  0  0  0
  -14.0250    0.3832  -16.2781 Cl  0  0  0  0  0  0  0  0  0  0  0  0
 25 26  1  0  0  0
 26 27  1  0  0  0
 26 31  2  0  0  0
 27 28  2  0  0  0
 28 29  1  0  0  0
 29 19  1  0  0  0
 29 30  2  0  0  0
 19 20  1  0  0  0
 19 23  1  0  0  0
 20 21  2  0  0  0
 20 22  1  0  0  0
 22  1  1  0  0  0
 22 24  1  0  0  0
  1  2  1  0  0  0
  1  6  2  0  0  0
  2  3  2  0  0  0
  3  4  1  0  0  0
  4  7  1  0  0  0
  4  5  2  0  0  0
  7  8  1  0  0  0
  7 16  2  0  0  0
  8  9  2  0  0  0
  9 10  1  0  0  0
 10 11  2  0  0  0
 11 12  1  0  0  0
 11 16  1  0  0  0
 12 13  1  0  0  0
 13 14  2  0  0  0
 14 15  1  0  0  0
 14 16  1  0  0  0
 15 17  1  0  0  0
 15 18  1  0  0  0
  5  6  1  0  0  0
 30 31  1  0  0  0
 31 32  1  0  0  0
M  END
> <minimizedAffinity>
-9.99715

$$$$
