CHEMBL4562600


 33 37  0  0  0  0  0  0  0  0999 V2000
  -17.3730    2.1691  -15.2915 C   0  0  0  0  0  0  0  0  0  0  0  0
  -17.0099    3.0047  -16.2739 N   0  0  0  0  0  0  0  0  0  0  0  0
  -15.6819    2.8632  -16.4236 N   0  0  0  0  0  0  0  0  0  0  0  0
  -15.1785    1.9568  -15.5012 C   0  0  0  0  0  0  0  0  0  0  0  0
  -16.2414    1.4845  -14.7336 C   0  0  0  0  0  0  0  0  0  0  0  0
  -21.5164    1.7962  -14.2887 C   0  0  0  0  0  0  0  0  0  0  0  0
  -20.8110    0.7022  -14.7852 C   0  0  0  0  0  0  0  0  0  0  0  0
  -19.4671    0.8341  -15.1383 C   0  0  0  0  0  0  0  0  0  0  0  0
  -18.7946    2.0454  -14.9616 C   0  0  0  0  0  0  0  0  0  0  0  0
  -19.5167    3.1529  -14.4959 C   0  0  0  0  0  0  0  0  0  0  0  0
  -20.8679    3.0254  -14.1609 C   0  0  0  0  0  0  0  0  0  0  0  0
  -23.2834    0.6104  -13.2474 C   0  0  0  0  0  0  0  0  0  0  0  0
  -22.8287    1.7883  -13.9039 O   0  0  0  0  0  0  0  0  0  0  0  0
  -14.9973    3.5982  -17.4485 C   0  0  0  0  0  0  0  0  0  0  0  0
  -14.0743    2.9312  -18.2852 C   0  0  0  0  0  0  0  0  0  0  0  0
  -13.3858    3.6292  -19.2868 C   0  0  0  0  0  0  0  0  0  0  0  0
  -13.6039    4.9912  -19.4654 C   0  0  0  0  0  0  0  0  0  0  0  0
  -14.5119    5.6586  -18.6427 C   0  0  0  0  0  0  0  0  0  0  0  0
  -15.2092    4.9692  -17.6388 C   0  0  0  0  0  0  0  0  0  0  0  0
  -16.2147    0.5249  -13.5999 C   0  0  0  0  0  0  0  0  0  0  0  0
  -16.6765    0.8167  -12.4992 O   0  0  0  0  0  0  0  0  0  0  0  0
  -15.6167   -0.6756  -13.8970 N   0  0  0  0  0  0  0  0  0  0  0  0
  -15.1497   -0.7821  -14.7860 H   0  0  0  0  0  0  0  0  0  0  0  0
  -15.4453   -1.7282  -13.0280 C   0  0  0  0  0  0  0  0  0  0  0  0
  -15.1960   -1.7955  -11.7410 N   0  0  0  0  0  0  0  0  0  0  0  0
  -14.9953   -3.1357  -11.3717 C   0  0  0  0  0  0  0  0  0  0  0  0
  -14.6926   -3.6534  -10.0839 C   0  0  0  0  0  0  0  0  0  0  0  0
  -14.3862   -5.0176   -9.9269 C   0  0  0  0  0  0  0  0  0  0  0  0
  -14.3994   -5.8640  -11.0253 C   0  0  0  0  0  0  0  0  0  0  0  0
  -14.0444   -7.1477  -10.8762 F   0  0  0  0  0  0  0  0  0  0  0  0
  -14.7709   -5.4100  -12.2852 C   0  0  0  0  0  0  0  0  0  0  0  0
  -15.0784   -4.0470  -12.4301 C   0  0  0  0  0  0  0  0  0  0  0  0
  -15.5969   -3.2190  -13.8433 S   0  0  0  0  0  0  0  0  0  0  0  0
 12 13  1  0  0  0
 13  6  1  0  0  0
  6  7  1  0  0  0
  6 11  2  0  0  0
  7  8  2  0  0  0
  8  9  1  0  0  0
  9  1  1  0  0  0
  9 10  2  0  0  0
  1  2  2  0  0  0
  1  5  1  0  0  0
  2  3  1  0  0  0
  3 14  1  0  0  0
  3  4  1  0  0  0
 14 15  1  0  0  0
 14 19  2  0  0  0
 15 16  2  0  0  0
 16 17  1  0  0  0
 17 18  2  0  0  0
 18 19  1  0  0  0
  4  5  2  0  0  0
  5 20  1  0  0  0
 20 21  2  0  0  0
 20 22  1  0  0  0
 22 24  1  0  0  0
 22 23  1  0  0  0
 24 25  2  0  0  0
 24 33  1  0  0  0
 25 26  1  0  0  0
 26 27  1  0  0  0
 26 32  2  0  0  0
 27 28  2  0  0  0
 28 29  1  0  0  0
 29 30  1  0  0  0
 29 31  2  0  0  0
 31 32  1  0  0  0
 32 33  1  0  0  0
 10 11  1  0  0  0
M  END
> <minimizedAffinity>
-10.15198

$$$$
