CHEMBL3941227


 38 42  0  0  0  0  0  0  0  0999 V2000
  -14.3862   -4.9891  -12.6758 N   0  0  0  0  0  0  0  0  0  0  0  0
  -14.4420   -3.5950  -13.0732 C   0  0  0  0  0  0  0  0  0  0  0  0
  -13.5176   -3.2303  -14.0215 C   0  0  0  0  0  0  0  0  0  0  0  0
  -13.4104   -1.9045  -14.2544 C   0  0  0  0  0  0  0  0  0  0  0  0
  -14.0509   -0.9110  -13.5781 C   0  0  0  0  0  0  0  0  0  0  0  0
  -13.1050   -0.0723  -13.3622 N   0  0  0  0  0  0  0  0  0  0  0  0
  -13.1769    0.9225  -14.1972 C   0  0  0  0  0  0  0  0  0  0  0  0
  -14.2473    1.7117  -14.1633 C   0  0  0  0  0  0  0  0  0  0  0  0
  -15.3612    0.9639  -13.4311 N   0  0  0  0  0  0  0  0  0  0  0  0
  -15.2216   -0.7453  -13.0576 C   0  0  0  0  0  0  0  0  0  0  0  0
  -15.3286   -2.4025  -12.6009 C   0  0  0  0  0  0  0  0  0  0  0  0
  -13.6570    3.1339  -14.9350 C   0  0  0  0  0  0  0  0  0  0  0  0
  -12.5814    4.1389  -14.4487 C   0  0  0  0  0  0  0  0  0  0  0  0
  -12.2926    5.1578  -15.2837 N   0  0  0  0  0  0  0  0  0  0  0  0
  -13.0977    4.9536  -16.3374 N   0  0  0  0  0  0  0  0  0  0  0  0
  -12.9387    5.8204  -17.5213 C   0  0  0  0  0  0  0  0  0  0  0  0
  -13.9353    3.8123  -16.1346 C   0  0  0  0  0  0  0  0  0  0  0  0
  -14.0506   -7.3266  -15.6373 C   0  0  0  0  0  0  0  0  0  0  0  0
  -13.1081   -8.2175  -15.1590 C   0  0  0  0  0  0  0  0  0  0  0  0
  -12.6976   -8.1111  -13.8383 C   0  0  0  0  0  0  0  0  0  0  0  0
  -13.2061   -7.0958  -13.0221 C   0  0  0  0  0  0  0  0  0  0  0  0
  -14.0969   -6.1325  -13.4802 C   0  0  0  0  0  0  0  0  0  0  0  0
  -14.6342   -6.3943  -14.7602 C   0  0  0  0  0  0  0  0  0  0  0  0
  -13.2380   -6.9862  -17.8077 C   0  0  0  0  0  0  0  0  0  0  0  0
  -14.3210   -7.4119  -16.9802 O   0  0  0  0  0  0  0  0  0  0  0  0
  -11.7314   -8.8881  -13.2604 O   0  0  0  0  0  0  0  0  0  0  0  0
  -12.2388   -9.8881  -12.3875 C   0  0  0  0  0  0  0  0  0  0  0  0
  -14.8371   -5.2880  -11.2313 C   0  0  0  0  0  0  0  0  0  0  0  0
  -13.8482   -4.8428  -10.1861 C   0  0  0  0  0  0  0  0  0  0  0  0
  -12.9953   -4.5773   -9.3606 C   0  0  0  0  0  0  0  0  0  0  0  0
  -11.8615   -4.4138   -8.4089 C   0  0  0  0  0  0  0  0  0  0  0  0
  -10.6979   -5.0603   -8.9408 O   0  0  0  0  0  0  0  0  0  0  0  0
  -12.0904   -4.9690   -7.0069 C   0  0  0  0  0  0  0  0  0  0  0  0
  -11.3634   -4.0038   -6.0655 C   0  0  0  0  0  0  0  0  0  0  0  0
  -10.7331   -2.9475   -6.8685 N   0  0  0  0  0  0  0  0  0  0  0  0
  -11.4609   -2.9546   -8.1608 C   0  0  0  0  0  0  0  0  0  0  0  0
  -10.9295   -5.9929   -9.0863 H   0  0  0  0  0  0  0  0  0  0  0  0
   -9.7685   -3.2342   -7.0644 H   0  0  0  0  0  0  0  0  0  0  0  0
 24 25  1  0  0  0
 25 18  1  0  0  0
 18 19  1  0  0  0
 18 23  2  0  0  0
 19 20  2  0  0  0
 20 26  1  0  0  0
 20 21  1  0  0  0
 26 27  1  0  0  0
 21 22  2  0  0  0
 22  1  1  0  0  0
 22 23  1  0  0  0
  1 28  1  0  0  0
  1  2  1  0  0  0
 28 29  1  0  0  0
 29 30  3  0  0  0
 30 31  1  0  0  0
 31 32  1  0  0  0
 31 33  1  0  0  0
 31 36  1  0  0  0
 32 37  1  0  0  0
 33 34  1  0  0  0
 34 35  1  0  0  0
 35 36  1  0  0  0
 35 38  1  0  0  0
  2  3  1  0  0  0
  2 11  2  0  0  0
  3  4  2  0  0  0
  4  5  1  0  0  0
  5  6  1  0  0  0
  5 10  2  0  0  0
  6  7  2  0  0  0
  7  8  1  0  0  0
  8 12  1  0  0  0
  8  9  2  0  0  0
 12 13  1  0  0  0
 12 17  2  0  0  0
 13 14  2  0  0  0
 14 15  1  0  0  0
 15 16  1  0  0  0
 15 17  1  0  0  0
  9 10  1  0  0  0
 10 11  1  0  0  0
M  END
> <minimizedAffinity>
-7.75581

$$$$
