CHEMBL375617


 39 42  0  0  0  0  0  0  0  0999 V2000
  -29.5132   -6.8215   -6.5270 C   0  0  0  0  0  0  0  0  0  0  0  0
  -30.6080   -7.3589   -6.4163 O   0  0  0  0  0  0  0  0  0  0  0  0
  -28.3033   -7.4877   -6.5133 N   0  0  0  0  0  0  0  0  0  0  0  0
  -27.4582   -6.9482   -6.4236 H   0  0  0  0  0  0  0  0  0  0  0  0
  -30.0806   -4.4748   -5.6349 C   0  0  0  0  0  0  0  0  0  0  0  0
  -29.9016   -3.0865   -5.7425 C   0  0  0  0  0  0  0  0  0  0  0  0
  -29.1615   -2.5375   -6.7937 C   0  0  0  0  0  0  0  0  0  0  0  0
  -28.5731   -3.3665   -7.7423 C   0  0  0  0  0  0  0  0  0  0  0  0
  -28.6961   -4.7527   -7.6143 C   0  0  0  0  0  0  0  0  0  0  0  0
  -29.4477   -5.3181   -6.5644 C   0  0  0  0  0  0  0  0  0  0  0  0
  -31.1946   -4.1890   -3.5451 C   0  0  0  0  0  0  0  0  0  0  0  0
  -30.8088   -5.0395   -4.6224 O   0  0  0  0  0  0  0  0  0  0  0  0
  -27.8874   -2.7827   -8.8584 C   0  0  0  0  0  0  0  0  0  0  0  0
  -27.2830   -2.3693   -9.8136 C   0  0  0  0  0  0  0  0  0  0  0  0
  -26.5251   -1.9368  -10.9430 C   0  0  0  0  0  0  0  0  0  0  0  0
  -25.2224   -1.5017  -10.8561 C   0  0  0  0  0  0  0  0  0  0  0  0
  -24.4946   -1.0912  -11.9212 N   0  0  0  0  0  0  0  0  0  0  0  0
  -25.0962   -1.1463  -13.1154 C   0  0  0  0  0  0  0  0  0  0  0  0
  -24.3681   -0.7647  -14.2208 N   0  0  0  0  0  0  0  0  0  0  0  0
  -26.3664   -1.5162  -13.3093 N   0  0  0  0  0  0  0  0  0  0  0  0
  -27.0518   -1.9155  -12.2144 C   0  0  0  0  0  0  0  0  0  0  0  0
  -23.6144   -0.1502  -13.9549 H   0  0  0  0  0  0  0  0  0  0  0  0
  -24.9837   -0.4696  -14.9641 H   0  0  0  0  0  0  0  0  0  0  0  0
  -28.1911   -8.8963   -6.4123 C   0  0  0  0  0  0  0  0  0  0  0  0
  -27.9554   -9.4102   -5.1291 C   0  0  0  0  0  0  0  0  0  0  0  0
  -27.7677  -10.7876   -4.9279 C   0  0  0  0  0  0  0  0  0  0  0  0
  -27.8406  -11.6363   -6.0328 C   0  0  0  0  0  0  0  0  0  0  0  0
  -28.0737  -11.1225   -7.3104 C   0  0  0  0  0  0  0  0  0  0  0  0
  -28.2251   -9.7389   -7.5498 C   0  0  0  0  0  0  0  0  0  0  0  0
  -28.3330   -9.2762   -8.8549 N   0  0  0  0  0  0  0  0  0  0  0  0
  -29.5419   -9.4616   -9.6630 C   0  0  0  0  0  0  0  0  0  0  0  0
  -29.2327  -10.3309  -10.8841 C   0  0  0  0  0  0  0  0  0  0  0  0
  -28.0465   -9.7781  -11.6727 C   0  0  0  0  0  0  0  0  0  0  0  0
  -26.8362   -9.6084  -10.7656 C   0  0  0  0  0  0  0  0  0  0  0  0
  -27.1653   -8.7464   -9.5513 C   0  0  0  0  0  0  0  0  0  0  0  0
  -27.4693  -11.3405   -3.5598 C   0  0  0  0  0  0  0  0  0  0  0  0
  -28.5833  -11.6671   -2.8431 F   0  0  0  0  0  0  0  0  0  0  0  0
  -26.7057  -12.4656   -3.5966 F   0  0  0  0  0  0  0  0  0  0  0  0
  -26.7832  -10.4525   -2.7835 F   0  0  0  0  0  0  0  0  0  0  0  0
 11 12  1  0  0  0
 12  5  1  0  0  0
  5  6  1  0  0  0
  5 10  2  0  0  0
  6  7  2  0  0  0
  7  8  1  0  0  0
  8 13  1  0  0  0
  8  9  2  0  0  0
 13 14  3  0  0  0
 14 15  1  0  0  0
 15 16  1  0  0  0
 15 21  2  0  0  0
 16 17  2  0  0  0
 17 18  1  0  0  0
 18 19  1  0  0  0
 18 20  2  0  0  0
 19 22  1  0  0  0
 19 23  1  0  0  0
 20 21  1  0  0  0
  9 10  1  0  0  0
 10  1  1  0  0  0
  1  2  2  0  0  0
  1  3  1  0  0  0
  3 24  1  0  0  0
  3  4  1  0  0  0
 24 25  1  0  0  0
 24 29  2  0  0  0
 25 26  2  0  0  0
 26 36  1  0  0  0
 26 27  1  0  0  0
 36 37  1  0  0  0
 36 38  1  0  0  0
 36 39  1  0  0  0
 27 28  2  0  0  0
 28 29  1  0  0  0
 29 30  1  0  0  0
 30 31  1  0  0  0
 30 35  1  0  0  0
 31 32  1  0  0  0
 32 33  1  0  0  0
 33 34  1  0  0  0
 34 35  1  0  0  0
M  END
> <minimizedAffinity>
-9.20352

$$$$
