CHEMBL3321911


 30 34  0  0  0  0  0  0  0  0999 V2000
  -15.9982   -0.0307  -13.9098 C   0  0  0  0  0  0  0  0  0  0  0  0
  -16.3395   -0.3919  -12.6884 N   0  0  0  0  0  0  0  0  0  0  0  0
  -15.6089   -1.5163  -12.4077 C   0  0  0  0  0  0  0  0  0  0  0  0
  -15.6095   -2.3151  -11.2626 C   0  0  0  0  0  0  0  0  0  0  0  0
  -14.7535   -3.4239  -11.2278 C   0  0  0  0  0  0  0  0  0  0  0  0
  -13.8843   -3.7358  -12.2897 C   0  0  0  0  0  0  0  0  0  0  0  0
  -13.9131   -2.9493  -13.4556 C   0  0  0  0  0  0  0  0  0  0  0  0
  -14.7769   -1.8472  -13.4679 C   0  0  0  0  0  0  0  0  0  0  0  0
  -15.0368   -0.8823  -14.4060 N   0  0  0  0  0  0  0  0  0  0  0  0
  -14.5816   -0.7949  -15.3016 H   0  0  0  0  0  0  0  0  0  0  0  0
  -15.3268    3.8241  -17.3233 Cl  0  0  0  0  0  0  0  0  0  0  0  0
  -16.3011    2.9376  -16.2160 C   0  0  0  0  0  0  0  0  0  0  0  0
  -17.6309    3.3001  -16.0232 C   0  0  0  0  0  0  0  0  0  0  0  0
  -18.4137    2.5654  -15.1385 C   0  0  0  0  0  0  0  0  0  0  0  0
  -20.0587    3.0021  -14.8897 Cl  0  0  0  0  0  0  0  0  0  0  0  0
  -17.8753    1.4784  -14.4514 C   0  0  0  0  0  0  0  0  0  0  0  0
  -16.5318    1.1203  -14.6325 C   0  0  0  0  0  0  0  0  0  0  0  0
  -15.7463    1.8581  -15.5264 C   0  0  0  0  0  0  0  0  0  0  0  0
  -13.0860   -4.9102  -12.2634 N   0  0  0  0  0  0  0  0  0  0  0  0
  -12.4935   -4.9631  -11.4429 H   0  0  0  0  0  0  0  0  0  0  0  0
  -13.5487   -6.2147  -12.5760 C   0  0  0  0  0  0  0  0  0  0  0  0
  -14.7475   -6.3208  -13.1771 N   0  0  0  0  0  0  0  0  0  0  0  0
  -15.1542   -7.5480  -13.4976 C   0  0  0  0  0  0  0  0  0  0  0  0
  -14.4835   -8.6795  -13.2847 N   0  0  0  0  0  0  0  0  0  0  0  0
  -13.2997   -8.5694  -12.6735 C   0  0  0  0  0  0  0  0  0  0  0  0
  -12.5617   -9.7267  -12.4668 C   0  0  0  0  0  0  0  0  0  0  0  0
  -11.3153   -9.7081  -11.8378 C   0  0  0  0  0  0  0  0  0  0  0  0
  -10.7898   -8.5033  -11.3902 C   0  0  0  0  0  0  0  0  0  0  0  0
  -11.5065   -7.3236  -11.5944 C   0  0  0  0  0  0  0  0  0  0  0  0
  -12.7696   -7.3441  -12.2500 C   0  0  0  0  0  0  0  0  0  0  0  0
 11 12  1  0  0  0
 12 13  1  0  0  0
 12 18  2  0  0  0
 13 14  2  0  0  0
 14 15  1  0  0  0
 14 16  1  0  0  0
 16 17  2  0  0  0
 17  1  1  0  0  0
 17 18  1  0  0  0
  1  2  2  0  0  0
  1  9  1  0  0  0
  2  3  1  0  0  0
  3  4  1  0  0  0
  3  8  2  0  0  0
  4  5  2  0  0  0
  5  6  1  0  0  0
  6 19  1  0  0  0
  6  7  2  0  0  0
 19 21  1  0  0  0
 19 20  1  0  0  0
 21 22  1  0  0  0
 21 30  2  0  0  0
 22 23  2  0  0  0
 23 24  1  0  0  0
 24 25  2  0  0  0
 25 26  1  0  0  0
 25 30  1  0  0  0
 26 27  2  0  0  0
 27 28  1  0  0  0
 28 29  2  0  0  0
 29 30  1  0  0  0
  7  8  1  0  0  0
  8  9  1  0  0  0
  9 10  1  0  0  0
M  END
> <minimizedAffinity>
-9.04129

$$$$
