CHEMBL4289577


 40 45  0  0  0  0  0  0  0  0999 V2000
  -27.7592   -1.6057  -11.0786 O   0  0  0  0  0  0  0  0  0  0  0  0
  -27.0268   -1.8164  -10.1147 C   0  0  0  0  0  0  0  0  0  0  0  0
  -25.6515   -1.7887  -10.1297 N   0  0  0  0  0  0  0  0  0  0  0  0
  -25.1792   -2.1126   -9.2822 H   0  0  0  0  0  0  0  0  0  0  0  0
  -27.6298   -2.1701   -8.7901 C   0  0  0  0  0  0  0  0  0  0  0  0
  -27.8493   -1.1499   -7.9532 C   0  0  0  0  0  0  0  0  0  0  0  0
  -28.4821   -1.3790   -6.6642 C   0  0  0  0  0  0  0  0  0  0  0  0
  -28.7530   -0.2935   -5.8216 C   0  0  0  0  0  0  0  0  0  0  0  0
  -29.4263   -0.5121   -4.6272 C   0  0  0  0  0  0  0  0  0  0  0  0
  -29.7982   -1.8089   -4.3232 C   0  0  0  0  0  0  0  0  0  0  0  0
  -29.5294   -2.8712   -5.1090 N   0  0  0  0  0  0  0  0  0  0  0  0
  -28.8700   -2.6603   -6.2742 C   0  0  0  0  0  0  0  0  0  0  0  0
  -28.6051   -3.7460   -7.1659 N   0  0  0  0  0  0  0  0  0  0  0  0
  -27.9903   -3.5619   -8.3998 C   0  0  0  0  0  0  0  0  0  0  0  0
  -27.6923   -4.4824   -9.1696 O   0  0  0  0  0  0  0  0  0  0  0  0
  -29.0036   -5.0548   -6.7670 C   0  0  0  0  0  0  0  0  0  0  0  0
  -28.2535   -5.7829   -5.8309 C   0  0  0  0  0  0  0  0  0  0  0  0
  -28.6164   -7.0890   -5.4975 C   0  0  0  0  0  0  0  0  0  0  0  0
  -29.7384   -7.6610   -6.0849 C   0  0  0  0  0  0  0  0  0  0  0  0
  -30.0888   -8.9116   -5.7573 F   0  0  0  0  0  0  0  0  0  0  0  0
  -30.4976   -6.9587   -7.0116 C   0  0  0  0  0  0  0  0  0  0  0  0
  -30.1215   -5.6615   -7.3650 C   0  0  0  0  0  0  0  0  0  0  0  0
  -24.8297   -1.5534  -11.2433 C   0  0  0  0  0  0  0  0  0  0  0  0
  -23.4374   -1.4704  -11.1716 C   0  0  0  0  0  0  0  0  0  0  0  0
  -22.6932   -1.0967  -12.2920 C   0  0  0  0  0  0  0  0  0  0  0  0
  -23.3376   -0.8115  -13.4933 C   0  0  0  0  0  0  0  0  0  0  0  0
  -24.7140   -1.0261  -13.5912 C   0  0  0  0  0  0  0  0  0  0  0  0
  -25.3664   -0.8582  -14.7506 F   0  0  0  0  0  0  0  0  0  0  0  0
  -25.4634   -1.3715  -12.4724 C   0  0  0  0  0  0  0  0  0  0  0  0
  -22.5265   -0.3629  -14.5075 O   0  0  0  0  0  0  0  0  0  0  0  0
  -21.9847    0.9000  -14.4389 C   0  0  0  0  0  0  0  0  0  0  0  0
  -22.6672    2.0389  -13.9955 C   0  0  0  0  0  0  0  0  0  0  0  0
  -22.0401    3.2747  -14.0711 C   0  0  0  0  0  0  0  0  0  0  0  0
  -20.7688    3.4914  -14.4715 N   0  0  0  0  0  0  0  0  0  0  0  0
  -20.1236    2.3543  -14.7906 C   0  0  0  0  0  0  0  0  0  0  0  0
  -18.8169    2.2926  -15.1841 N   0  0  0  0  0  0  0  0  0  0  0  0
  -18.4568    0.9882  -15.4080 C   0  0  0  0  0  0  0  0  0  0  0  0
  -19.5679    0.2026  -15.1824 C   0  0  0  0  0  0  0  0  0  0  0  0
  -20.6338    1.0619  -14.7921 C   0  0  0  0  0  0  0  0  0  0  0  0
  -18.2253    3.1055  -15.2766 H   0  0  0  0  0  0  0  0  0  0  0  0
  1  2  2  0  0  0
  2  3  1  0  0  0
  2  5  1  0  0  0
  3 23  1  0  0  0
  3  4  1  0  0  0
 23 24  1  0  0  0
 23 29  2  0  0  0
 24 25  2  0  0  0
 25 26  1  0  0  0
 26 30  1  0  0  0
 26 27  2  0  0  0
 30 31  1  0  0  0
 31 32  1  0  0  0
 31 39  2  0  0  0
 32 33  2  0  0  0
 33 34  1  0  0  0
 34 35  2  0  0  0
 35 36  1  0  0  0
 35 39  1  0  0  0
 36 37  1  0  0  0
 36 40  1  0  0  0
 37 38  2  0  0  0
 38 39  1  0  0  0
 27 28  1  0  0  0
 27 29  1  0  0  0
  5  6  2  0  0  0
  5 14  1  0  0  0
  6  7  1  0  0  0
  7  8  1  0  0  0
  7 12  2  0  0  0
  8  9  2  0  0  0
  9 10  1  0  0  0
 10 11  2  0  0  0
 11 12  1  0  0  0
 12 13  1  0  0  0
 13 16  1  0  0  0
 13 14  1  0  0  0
 16 17  1  0  0  0
 16 22  2  0  0  0
 17 18  2  0  0  0
 18 19  1  0  0  0
 19 20  1  0  0  0
 19 21  2  0  0  0
 21 22  1  0  0  0
 14 15  2  0  0  0
M  END
> <minimizedAffinity>
-11.75743

$$$$
