CHEMBL1242844


 29 32  0  0  0  0  0  0  0  0999 V2000
  -15.3853    3.0640  -17.0277 N   0  0  0  0  0  0  0  0  0  0  0  0
  -14.7499    1.9712  -16.4490 C   0  0  0  0  0  0  0  0  0  0  0  0
  -13.5141    1.7037  -16.9193 N   0  0  0  0  0  0  0  0  0  0  0  0
  -12.8200    0.6904  -16.3731 C   0  0  0  0  0  0  0  0  0  0  0  0
  -13.1917   -0.1123  -15.3655 N   0  0  0  0  0  0  0  0  0  0  0  0
  -14.4326    0.1851  -14.9278 C   0  0  0  0  0  0  0  0  0  0  0  0
  -15.2795    1.1636  -15.4254 C   0  0  0  0  0  0  0  0  0  0  0  0
  -16.5027    0.9919  -14.7008 C   0  0  0  0  0  0  0  0  0  0  0  0
  -16.3639    0.0457  -13.7473 N   0  0  0  0  0  0  0  0  0  0  0  0
  -15.1202   -0.4445  -13.9247 N   0  0  0  0  0  0  0  0  0  0  0  0
  -14.7137    3.6006  -17.5677 H   0  0  0  0  0  0  0  0  0  0  0  0
  -15.9410    3.6087  -16.3796 H   0  0  0  0  0  0  0  0  0  0  0  0
  -17.8103    1.6544  -14.8754 C   0  0  0  0  0  0  0  0  0  0  0  0
  -17.9165    3.0349  -15.1107 C   0  0  0  0  0  0  0  0  0  0  0  0
  -19.1674    3.6561  -15.2284 C   0  0  0  0  0  0  0  0  0  0  0  0
  -20.3189    2.8828  -15.1807 C   0  0  0  0  0  0  0  0  0  0  0  0
  -21.5198    3.4630  -15.3069 F   0  0  0  0  0  0  0  0  0  0  0  0
  -20.2296    1.5060  -15.0225 C   0  0  0  0  0  0  0  0  0  0  0  0
  -21.3543    0.7294  -15.0295 O   0  0  0  0  0  0  0  0  0  0  0  0
  -18.9893    0.8909  -14.8573 C   0  0  0  0  0  0  0  0  0  0  0  0
  -22.1065    1.3225  -15.2159 H   0  0  0  0  0  0  0  0  0  0  0  0
  -14.7720   -1.7129  -13.3207 C   0  0  0  0  0  0  0  0  0  0  0  0
  -15.8458   -2.5389  -12.5795 C   0  0  0  0  0  0  0  0  0  0  0  0
  -15.6973   -2.6128  -11.0483 C   0  0  0  0  0  0  0  0  0  0  0  0
  -15.1833   -3.9379  -10.4783 C   0  0  0  0  0  0  0  0  0  0  0  0
  -15.6926   -5.1216  -11.1652 N   0  0  0  0  0  0  0  0  0  0  0  0
  -15.3868   -5.0512  -12.5913 C   0  0  0  0  0  0  0  0  0  0  0  0
  -16.1464   -3.8972  -13.2268 C   0  0  0  0  0  0  0  0  0  0  0  0
  -16.7021   -5.1891  -11.0349 H   0  0  0  0  0  0  0  0  0  0  0  0
  1  2  1  0  0  0
  1 11  1  0  0  0
  1 12  1  0  0  0
  2  3  1  0  0  0
  2  7  2  0  0  0
  3  4  2  0  0  0
  4  5  1  0  0  0
  5  6  2  0  0  0
  6  7  1  0  0  0
  6 10  1  0  0  0
  7  8  1  0  0  0
  8 13  1  0  0  0
  8  9  2  0  0  0
 13 14  1  0  0  0
 13 20  2  0  0  0
 14 15  2  0  0  0
 15 16  1  0  0  0
 16 17  1  0  0  0
 16 18  2  0  0  0
 18 19  1  0  0  0
 18 20  1  0  0  0
 19 21  1  0  0  0
  9 10  1  0  0  0
 10 22  1  0  0  0
 22 23  1  0  0  0
 23 24  1  0  0  0
 23 28  1  0  0  0
 24 25  1  0  0  0
 25 26  1  0  0  0
 26 27  1  0  0  0
 26 29  1  0  0  0
 27 28  1  0  0  0
M  END
> <minimizedAffinity>
-8.37676

$$$$
