CHEMBL47203


 38 43  0  0  0  0  0  0  0  0999 V2000
  -14.5918    0.7506  -15.0715 N   0  0  0  0  0  0  0  0  0  0  0  0
  -15.9036    0.5059  -14.7423 C   0  0  0  0  0  0  0  0  0  0  0  0
  -16.6652    1.6163  -15.0538 C   0  0  0  0  0  0  0  0  0  0  0  0
  -15.7611    2.6241  -15.5259 C   0  0  0  0  0  0  0  0  0  0  0  0
  -15.8326    3.9704  -15.9394 C   0  0  0  0  0  0  0  0  0  0  0  0
  -16.9488    4.7670  -15.8713 N   0  0  0  0  0  0  0  0  0  0  0  0
  -14.7347    4.5590  -16.4500 N   0  0  0  0  0  0  0  0  0  0  0  0
  -13.5938    3.8592  -16.4838 C   0  0  0  0  0  0  0  0  0  0  0  0
  -13.3828    2.6119  -16.0514 N   0  0  0  0  0  0  0  0  0  0  0  0
  -14.5002    2.0289  -15.5821 C   0  0  0  0  0  0  0  0  0  0  0  0
  -17.7927    4.4757  -15.4080 H   0  0  0  0  0  0  0  0  0  0  0  0
  -16.8790    5.6766  -16.3028 H   0  0  0  0  0  0  0  0  0  0  0  0
  -12.4813   -2.5025  -13.1162 C   0  0  0  0  0  0  0  0  0  0  0  0
  -12.9650   -2.7324  -14.5530 C   0  0  0  0  0  0  0  0  0  0  0  0
  -13.9969   -1.7115  -14.9938 C   0  0  0  0  0  0  0  0  0  0  0  0
  -13.5330   -0.2533  -14.8613 C   0  0  0  0  0  0  0  0  0  0  0  0
  -12.7592    0.0353  -13.5512 C   0  0  0  0  0  0  0  0  0  0  0  0
  -11.8684   -1.0951  -13.0496 C   0  0  0  0  0  0  0  0  0  0  0  0
  -16.6160   -5.6877  -12.5285 C   0  0  0  0  0  0  0  0  0  0  0  0
  -15.6662   -4.8015  -11.8533 N   0  0  0  0  0  0  0  0  0  0  0  0
  -14.2870   -5.2292  -12.1330 C   0  0  0  0  0  0  0  0  0  0  0  0
  -13.2324   -4.2685  -11.5450 C   0  0  0  0  0  0  0  0  0  0  0  0
  -13.3641   -2.8792  -12.0051 N   0  0  0  0  0  0  0  0  0  0  0  0
  -14.7464   -2.4243  -11.8556 C   0  0  0  0  0  0  0  0  0  0  0  0
  -15.8821   -3.4049  -12.2625 C   0  0  0  0  0  0  0  0  0  0  0  0
  -18.1114    1.6036  -14.9001 C   0  0  0  0  0  0  0  0  0  0  0  0
  -18.8698    0.5175  -15.3391 C   0  0  0  0  0  0  0  0  0  0  0  0
  -20.2480    0.5034  -15.1719 C   0  0  0  0  0  0  0  0  0  0  0  0
  -20.8727    1.5305  -14.4632 C   0  0  0  0  0  0  0  0  0  0  0  0
  -20.1424    2.6491  -14.0808 C   0  0  0  0  0  0  0  0  0  0  0  0
  -18.7768    2.7067  -14.3421 C   0  0  0  0  0  0  0  0  0  0  0  0
  -22.2084    1.5454  -14.1326 O   0  0  0  0  0  0  0  0  0  0  0  0
  -22.7756    0.4246  -13.5752 C   0  0  0  0  0  0  0  0  0  0  0  0
  -22.4514   -0.0789  -12.3073 C   0  0  0  0  0  0  0  0  0  0  0  0
  -23.0194   -1.2716  -11.8685 C   0  0  0  0  0  0  0  0  0  0  0  0
  -23.9667   -1.9228  -12.6544 C   0  0  0  0  0  0  0  0  0  0  0  0
  -24.3521   -1.3793  -13.8800 C   0  0  0  0  0  0  0  0  0  0  0  0
  -23.7531   -0.2095  -14.3394 C   0  0  0  0  0  0  0  0  0  0  0  0
 19 20  1  0  0  0
 20 21  1  0  0  0
 20 25  1  0  0  0
 21 22  1  0  0  0
 22 23  1  0  0  0
 23 24  1  0  0  0
 13 14  1  0  0  0
 13 18  1  0  0  0
 13 23  1  0  0  0
 14 15  1  0  0  0
 15 16  1  0  0  0
 16  1  1  0  0  0
 16 17  1  0  0  0
  1  2  1  0  0  0
  1 10  1  0  0  0
  2  3  2  0  0  0
  3 26  1  0  0  0
  3  4  1  0  0  0
 26 27  1  0  0  0
 26 31  2  0  0  0
 27 28  2  0  0  0
 28 29  1  0  0  0
 29 32  1  0  0  0
 29 30  2  0  0  0
 32 33  1  0  0  0
 33 34  1  0  0  0
 33 38  2  0  0  0
 34 35  2  0  0  0
 35 36  1  0  0  0
 36 37  2  0  0  0
 37 38  1  0  0  0
 30 31  1  0  0  0
  4  5  1  0  0  0
  4 10  2  0  0  0
  5  6  1  0  0  0
  5  7  2  0  0  0
  6 11  1  0  0  0
  6 12  1  0  0  0
  7  8  1  0  0  0
  8  9  2  0  0  0
  9 10  1  0  0  0
 17 18  1  0  0  0
 24 25  1  0  0  0
M  END
> <minimizedAffinity>
-10.62940

$$$$
