CHEMBL3923888


 32 35  0  0  0  0  0  0  0  0999 V2000
  -22.6109    0.4646  -13.6025 C   0  0  0  0  0  0  0  0  0  0  0  0
  -22.7124    0.2937  -12.2088 C   0  0  0  0  0  0  0  0  0  0  0  0
  -23.7583   -0.4315  -11.6124 C   0  0  0  0  0  0  0  0  0  0  0  0
  -24.7548   -0.9914  -12.4330 C   0  0  0  0  0  0  0  0  0  0  0  0
  -25.9451   -1.7585  -12.2480 C   0  0  0  0  0  0  0  0  0  0  0  0
  -26.5389   -2.0297  -13.4201 N   0  0  0  0  0  0  0  0  0  0  0  0
  -25.7412   -1.4543  -14.3307 N   0  0  0  0  0  0  0  0  0  0  0  0
  -24.6552   -0.8134  -13.8036 C   0  0  0  0  0  0  0  0  0  0  0  0
  -23.6104   -0.1107  -14.4151 C   0  0  0  0  0  0  0  0  0  0  0  0
  -25.9972   -1.5331  -15.3066 H   0  0  0  0  0  0  0  0  0  0  0  0
  -19.2139    1.2603  -15.1567 C   0  0  0  0  0  0  0  0  0  0  0  0
  -20.3004    0.5610  -14.6157 C   0  0  0  0  0  0  0  0  0  0  0  0
  -21.4822    1.2163  -14.2073 C   0  0  0  0  0  0  0  0  0  0  0  0
  -21.5424    2.6097  -14.3841 C   0  0  0  0  0  0  0  0  0  0  0  0
  -20.4765    3.3210  -14.9401 C   0  0  0  0  0  0  0  0  0  0  0  0
  -19.3192    2.6456  -15.3154 C   0  0  0  0  0  0  0  0  0  0  0  0
  -18.2676    3.3444  -15.8443 O   0  0  0  0  0  0  0  0  0  0  0  0
  -18.4939    4.2866  -15.8679 H   0  0  0  0  0  0  0  0  0  0  0  0
  -17.0678    0.4134  -14.5480 C   0  0  0  0  0  0  0  0  0  0  0  0
  -18.0329    0.6891  -15.5533 O   0  0  0  0  0  0  0  0  0  0  0  0
  -26.4488   -2.1921  -10.9788 C   0  0  0  0  0  0  0  0  0  0  0  0
  -27.1908   -1.4341  -10.1516 C   0  0  0  0  0  0  0  0  0  0  0  0
  -27.7130   -1.8932   -8.8599 C   0  0  0  0  0  0  0  0  0  0  0  0
  -28.1650   -3.2060   -8.7311 C   0  0  0  0  0  0  0  0  0  0  0  0
  -28.6496   -3.6741   -7.5038 C   0  0  0  0  0  0  0  0  0  0  0  0
  -28.6873   -2.8434   -6.3731 C   0  0  0  0  0  0  0  0  0  0  0  0
  -28.2147   -1.5249   -6.4902 C   0  0  0  0  0  0  0  0  0  0  0  0
  -27.7249   -1.0735   -7.7273 C   0  0  0  0  0  0  0  0  0  0  0  0
  -29.1618   -3.2555   -5.1583 O   0  0  0  0  0  0  0  0  0  0  0  0
  -28.2516   -3.8324   -4.2336 C   0  0  0  0  0  0  0  0  0  0  0  0
  -28.1518   -0.5424   -5.5372 O   0  0  0  0  0  0  0  0  0  0  0  0
  -29.2218    0.3808   -5.4290 C   0  0  0  0  0  0  0  0  0  0  0  0
 19 20  1  0  0  0
 20 11  1  0  0  0
 11 12  1  0  0  0
 11 16  2  0  0  0
 12 13  2  0  0  0
 13  1  1  0  0  0
 13 14  1  0  0  0
  1  2  1  0  0  0
  1  9  2  0  0  0
  2  3  2  0  0  0
  3  4  1  0  0  0
  4  5  1  0  0  0
  4  8  2  0  0  0
  5 21  1  0  0  0
  5  6  2  0  0  0
 21 22  2  0  0  0
 22 23  1  0  0  0
 23 24  1  0  0  0
 23 28  2  0  0  0
 24 25  2  0  0  0
 25 26  1  0  0  0
 26 29  1  0  0  0
 26 27  2  0  0  0
 29 30  1  0  0  0
 27 31  1  0  0  0
 27 28  1  0  0  0
 31 32  1  0  0  0
  6  7  1  0  0  0
  7  8  1  0  0  0
  7 10  1  0  0  0
  8  9  1  0  0  0
 14 15  2  0  0  0
 15 16  1  0  0  0
 16 17  1  0  0  0
 17 18  1  0  0  0
M  END
> <minimizedAffinity>
-10.46745

$$$$
