CHEMBL3747084


 35 39  0  0  0  0  0  0  0  0999 V2000
  -30.3971   -6.0710   -6.8564 N   0  0  0  0  0  0  0  0  0  0  0  0
  -29.9700   -5.5244   -5.6647 C   0  0  0  0  0  0  0  0  0  0  0  0
  -30.0118   -5.9520   -4.5250 O   0  0  0  0  0  0  0  0  0  0  0  0
  -29.5467   -4.1851   -5.8440 N   0  0  0  0  0  0  0  0  0  0  0  0
  -29.8178   -3.1831   -4.9211 C   0  0  0  0  0  0  0  0  0  0  0  0
  -29.3909   -1.9775   -5.4157 C   0  0  0  0  0  0  0  0  0  0  0  0
  -28.7542   -2.2294   -6.6560 C   0  0  0  0  0  0  0  0  0  0  0  0
  -28.1097   -1.3967   -7.5922 C   0  0  0  0  0  0  0  0  0  0  0  0
  -27.5138   -1.9511   -8.7317 C   0  0  0  0  0  0  0  0  0  0  0  0
  -27.5327   -3.3325   -8.9194 C   0  0  0  0  0  0  0  0  0  0  0  0
  -28.1633   -4.1824   -8.0007 C   0  0  0  0  0  0  0  0  0  0  0  0
  -28.8180   -3.6085   -6.8940 C   0  0  0  0  0  0  0  0  0  0  0  0
  -30.4941   -5.4805   -7.6737 H   0  0  0  0  0  0  0  0  0  0  0  0
  -31.1860   -9.5429   -7.1766 C   0  0  0  0  0  0  0  0  0  0  0  0
  -30.2402   -8.5299   -7.1510 C   0  0  0  0  0  0  0  0  0  0  0  0
  -30.9576   -7.3264   -6.9281 C   0  0  0  0  0  0  0  0  0  0  0  0
  -32.2558   -7.5805   -6.7942 N   0  0  0  0  0  0  0  0  0  0  0  0
  -32.3737   -8.9012   -6.9442 N   0  0  0  0  0  0  0  0  0  0  0  0
  -33.3039   -9.2993   -6.8739 H   0  0  0  0  0  0  0  0  0  0  0  0
  -32.4714  -11.6688   -7.1437 C   0  0  0  0  0  0  0  0  0  0  0  0
  -31.0802  -11.0454   -7.3506 C   0  0  0  0  0  0  0  0  0  0  0  0
  -30.1025  -11.6438   -6.3214 C   0  0  0  0  0  0  0  0  0  0  0  0
  -30.5680  -11.4257   -8.7565 C   0  0  0  0  0  0  0  0  0  0  0  0
  -27.0056   -1.0328   -9.6268 O   0  0  0  0  0  0  0  0  0  0  0  0
  -27.0783   -1.3037  -10.9804 C   0  0  0  0  0  0  0  0  0  0  0  0
  -28.2658   -1.7011  -11.4730 N   0  0  0  0  0  0  0  0  0  0  0  0
  -28.2623   -2.0248  -12.7678 C   0  0  0  0  0  0  0  0  0  0  0  0
  -27.1959   -2.0026  -13.5801 N   0  0  0  0  0  0  0  0  0  0  0  0
  -26.0160   -1.6226  -13.0348 C   0  0  0  0  0  0  0  0  0  0  0  0
  -25.9019   -1.2514  -11.7148 C   0  0  0  0  0  0  0  0  0  0  0  0
  -24.6010   -0.8482  -11.1115 C   0  0  0  0  0  0  0  0  0  0  0  0
  -23.4170   -0.7445  -12.0804 C   0  0  0  0  0  0  0  0  0  0  0  0
  -23.5095   -1.2994  -13.4183 N   0  0  0  0  0  0  0  0  0  0  0  0
  -24.8231   -1.6380  -13.9560 C   0  0  0  0  0  0  0  0  0  0  0  0
  -22.8549   -2.0658  -13.5569 H   0  0  0  0  0  0  0  0  0  0  0  0
 20 21  1  0  0  0
 21 22  1  0  0  0
 21 23  1  0  0  0
 21 14  1  0  0  0
 14 15  2  0  0  0
 14 18  1  0  0  0
 15 16  1  0  0  0
 16  1  1  0  0  0
 16 17  2  0  0  0
  1  2  1  0  0  0
  1 13  1  0  0  0
  2  3  2  0  0  0
  2  4  1  0  0  0
  4  5  1  0  0  0
  4 12  1  0  0  0
  5  6  2  0  0  0
  6  7  1  0  0  0
  7  8  1  0  0  0
  7 12  2  0  0  0
  8  9  2  0  0  0
  9 24  1  0  0  0
  9 10  1  0  0  0
 24 25  1  0  0  0
 25 26  1  0  0  0
 25 30  2  0  0  0
 26 27  2  0  0  0
 27 28  1  0  0  0
 28 29  2  0  0  0
 29 30  1  0  0  0
 29 34  1  0  0  0
 30 31  1  0  0  0
 31 32  1  0  0  0
 32 33  1  0  0  0
 33 34  1  0  0  0
 33 35  1  0  0  0
 10 11  2  0  0  0
 11 12  1  0  0  0
 17 18  1  0  0  0
 18 19  1  0  0  0
M  END
> <minimizedAffinity>
-8.68468

$$$$
