CHEMBL409512


 39 43  0  0  0  0  0  0  0  0999 V2000
  -22.6374   -0.1370  -13.7339 C   0  0  0  0  0  0  0  0  0  0  0  0
  -22.8104    0.1159  -12.3823 C   0  0  0  0  0  0  0  0  0  0  0  0
  -23.9717   -0.3396  -11.7474 C   0  0  0  0  0  0  0  0  0  0  0  0
  -25.0654   -0.8985  -12.4636 C   0  0  0  0  0  0  0  0  0  0  0  0
  -26.2606   -1.4507  -11.9035 C   0  0  0  0  0  0  0  0  0  0  0  0
  -27.2796   -1.9351  -12.7496 C   0  0  0  0  0  0  0  0  0  0  0  0
  -27.1433   -1.9057  -14.1306 C   0  0  0  0  0  0  0  0  0  0  0  0
  -25.9661   -1.4276  -14.6880 C   0  0  0  0  0  0  0  0  0  0  0  0
  -24.9267   -0.9470  -13.8789 C   0  0  0  0  0  0  0  0  0  0  0  0
  -23.7180   -0.5838  -14.4897 C   0  0  0  0  0  0  0  0  0  0  0  0
  -26.5273   -1.6760  -10.4438 C   0  0  0  0  0  0  0  0  0  0  0  0
  -25.5856   -1.5369   -9.6665 O   0  0  0  0  0  0  0  0  0  0  0  0
  -27.7863   -2.1231  -10.0894 N   0  0  0  0  0  0  0  0  0  0  0  0
  -28.3988   -2.4003  -10.8431 H   0  0  0  0  0  0  0  0  0  0  0  0
  -28.2469   -2.3867   -8.7802 C   0  0  0  0  0  0  0  0  0  0  0  0
  -28.9400   -3.5453   -8.4126 C   0  0  0  0  0  0  0  0  0  0  0  0
  -29.4490   -3.6925   -7.1174 C   0  0  0  0  0  0  0  0  0  0  0  0
  -29.2500   -2.6874   -6.1775 C   0  0  0  0  0  0  0  0  0  0  0  0
  -29.9257   -2.8376   -4.6030 Cl  0  0  0  0  0  0  0  0  0  0  0  0
  -28.5130   -1.5542   -6.5107 C   0  0  0  0  0  0  0  0  0  0  0  0
  -28.0048   -1.4101   -7.8063 C   0  0  0  0  0  0  0  0  0  0  0  0
  -21.4454   -0.0326  -14.4051 O   0  0  0  0  0  0  0  0  0  0  0  0
  -16.8304    2.3874  -15.2005 C   0  0  0  0  0  0  0  0  0  0  0  0
  -17.9097    3.2733  -15.3250 C   0  0  0  0  0  0  0  0  0  0  0  0
  -19.2311    2.8718  -15.1942 C   0  0  0  0  0  0  0  0  0  0  0  0
  -20.1621    3.8360  -15.2160 N   0  0  0  0  0  0  0  0  0  0  0  0
  -21.4479    3.4921  -15.0164 C   0  0  0  0  0  0  0  0  0  0  0  0
  -21.8583    2.2049  -14.7583 C   0  0  0  0  0  0  0  0  0  0  0  0
  -20.8948    1.1952  -14.7230 C   0  0  0  0  0  0  0  0  0  0  0  0
  -19.5319    1.5076  -15.0117 C   0  0  0  0  0  0  0  0  0  0  0  0
  -18.4410    0.5996  -15.0876 C   0  0  0  0  0  0  0  0  0  0  0  0
  -17.1001    1.0224  -15.0744 C   0  0  0  0  0  0  0  0  0  0  0  0
  -16.0819   -0.0351  -14.7738 C   0  0  0  0  0  0  0  0  0  0  0  0
  -14.9130   -0.0416  -15.4736 N   0  0  0  0  0  0  0  0  0  0  0  0
  -16.2551   -0.8520  -13.8755 O   0  0  0  0  0  0  0  0  0  0  0  0
  -14.7179    0.6416  -16.1947 H   0  0  0  0  0  0  0  0  0  0  0  0
  -14.2006   -0.7065  -15.2033 H   0  0  0  0  0  0  0  0  0  0  0  0
  -15.2002    3.7788  -16.2148 C   0  0  0  0  0  0  0  0  0  0  0  0
  -15.5239    2.8077  -15.2227 O   0  0  0  0  0  0  0  0  0  0  0  0
 38 39  1  0  0  0
 39 23  1  0  0  0
 23 24  1  0  0  0
 23 32  2  0  0  0
 24 25  2  0  0  0
 25 26  1  0  0  0
 25 30  1  0  0  0
 26 27  2  0  0  0
 27 28  1  0  0  0
 28 29  2  0  0  0
 29 22  1  0  0  0
 29 30  1  0  0  0
 22  1  1  0  0  0
  1  2  1  0  0  0
  1 10  2  0  0  0
  2  3  2  0  0  0
  3  4  1  0  0  0
  4  5  1  0  0  0
  4  9  2  0  0  0
  5 11  1  0  0  0
  5  6  2  0  0  0
 11 12  2  0  0  0
 11 13  1  0  0  0
 13 15  1  0  0  0
 13 14  1  0  0  0
 15 16  1  0  0  0
 15 21  2  0  0  0
 16 17  2  0  0  0
 17 18  1  0  0  0
 18 19  1  0  0  0
 18 20  2  0  0  0
 20 21  1  0  0  0
  6  7  1  0  0  0
  7  8  2  0  0  0
  8  9  1  0  0  0
  9 10  1  0  0  0
 30 31  2  0  0  0
 31 32  1  0  0  0
 32 33  1  0  0  0
 33 34  1  0  0  0
 33 35  2  0  0  0
 34 36  1  0  0  0
 34 37  1  0  0  0
M  END
> <minimizedAffinity>
-12.03018

$$$$
