CHEMBL256786


 38 42  0  0  0  0  0  0  0  0999 V2000
  -28.8392   -7.4045   -3.7781 C   0  0  0  0  0  0  0  0  0  0  0  0
  -27.9162   -6.7749   -4.6129 C   0  0  0  0  0  0  0  0  0  0  0  0
  -28.2983   -5.6559   -5.3576 C   0  0  0  0  0  0  0  0  0  0  0  0
  -29.6119   -5.1807   -5.2850 C   0  0  0  0  0  0  0  0  0  0  0  0
  -30.4986   -5.7661   -4.3854 C   0  0  0  0  0  0  0  0  0  0  0  0
  -31.7366   -5.2748   -4.2349 F   0  0  0  0  0  0  0  0  0  0  0  0
  -30.1218   -6.8687   -3.6316 C   0  0  0  0  0  0  0  0  0  0  0  0
  -28.4235   -8.5429   -3.0641 N   0  0  0  0  0  0  0  0  0  0  0  0
  -28.5688   -8.5361   -2.0583 H   0  0  0  0  0  0  0  0  0  0  0  0
  -27.9916   -9.7467   -3.5823 C   0  0  0  0  0  0  0  0  0  0  0  0
  -26.3901   -9.8667   -4.0097 S   0  0  0  0  0  0  0  0  0  0  0  0
  -30.6523  -12.0321   -4.4784 O   0  0  0  0  0  0  0  0  0  0  0  0
  -29.6474  -11.3753   -4.7733 C   0  0  0  0  0  0  0  0  0  0  0  0
  -29.0196  -10.6787   -3.7483 N   0  0  0  0  0  0  0  0  0  0  0  0
  -29.5667  -10.8161   -2.9087 H   0  0  0  0  0  0  0  0  0  0  0  0
  -29.1333  -11.3015   -6.1878 C   0  0  0  0  0  0  0  0  0  0  0  0
  -29.3414   -9.9631   -6.8535 C   0  0  0  0  0  0  0  0  0  0  0  0
  -30.5791   -9.3181   -6.7164 C   0  0  0  0  0  0  0  0  0  0  0  0
  -30.8033   -8.0747   -7.3082 C   0  0  0  0  0  0  0  0  0  0  0  0
  -29.7883   -7.4541   -8.0331 C   0  0  0  0  0  0  0  0  0  0  0  0
  -28.5475   -8.0726   -8.1585 C   0  0  0  0  0  0  0  0  0  0  0  0
  -28.3204   -9.3160   -7.5651 C   0  0  0  0  0  0  0  0  0  0  0  0
  -30.0947   -4.1179   -6.0065 O   0  0  0  0  0  0  0  0  0  0  0  0
  -29.5197   -2.8770   -5.8690 C   0  0  0  0  0  0  0  0  0  0  0  0
  -29.5383   -2.1280   -4.6931 C   0  0  0  0  0  0  0  0  0  0  0  0
  -28.9527   -0.8768   -4.6885 C   0  0  0  0  0  0  0  0  0  0  0  0
  -28.3021   -0.3226   -5.7266 N   0  0  0  0  0  0  0  0  0  0  0  0
  -28.2123   -1.0904   -6.8446 C   0  0  0  0  0  0  0  0  0  0  0  0
  -27.5248   -0.7188   -8.0373 C   0  0  0  0  0  0  0  0  0  0  0  0
  -27.5891   -1.6805   -9.0289 C   0  0  0  0  0  0  0  0  0  0  0  0
  -28.4880   -3.0394   -8.4915 S   0  0  0  0  0  0  0  0  0  0  0  0
  -28.7959   -2.3484   -6.9502 C   0  0  0  0  0  0  0  0  0  0  0  0
  -27.0003   -1.6589  -10.3712 C   0  0  0  0  0  0  0  0  0  0  0  0
  -27.7720   -1.7215  -11.5190 C   0  0  0  0  0  0  0  0  0  0  0  0
  -27.2782   -1.7218  -12.7781 N   0  0  0  0  0  0  0  0  0  0  0  0
  -25.9430   -1.6548  -12.8774 C   0  0  0  0  0  0  0  0  0  0  0  0
  -25.0821   -1.5905  -11.8534 N   0  0  0  0  0  0  0  0  0  0  0  0
  -25.6384   -1.5940  -10.6197 C   0  0  0  0  0  0  0  0  0  0  0  0
 12 13  2  0  0  0
 13 16  1  0  0  0
 13 14  1  0  0  0
 16 17  1  0  0  0
 17 18  1  0  0  0
 17 22  2  0  0  0
 18 19  2  0  0  0
 19 20  1  0  0  0
 20 21  2  0  0  0
 21 22  1  0  0  0
 14 10  1  0  0  0
 14 15  1  0  0  0
 10 11  2  0  0  0
 10  8  1  0  0  0
  8  1  1  0  0  0
  8  9  1  0  0  0
  1  2  1  0  0  0
  1  7  2  0  0  0
  2  3  2  0  0  0
  3  4  1  0  0  0
  4 23  1  0  0  0
  4  5  2  0  0  0
 23 24  1  0  0  0
 24 25  1  0  0  0
 24 32  2  0  0  0
 25 26  2  0  0  0
 26 27  1  0  0  0
 27 28  2  0  0  0
 28 29  1  0  0  0
 28 32  1  0  0  0
 29 30  2  0  0  0
 30 33  1  0  0  0
 30 31  1  0  0  0
 33 34  1  0  0  0
 33 38  2  0  0  0
 34 35  2  0  0  0
 35 36  1  0  0  0
 36 37  2  0  0  0
 37 38  1  0  0  0
 31 32  1  0  0  0
  5  6  1  0  0  0
  5  7  1  0  0  0
M  END
> <minimizedAffinity>
-8.50888

$$$$
