CHEMBL179719


 35 38  0  0  0  0  0  0  0  0999 V2000
  -23.0577   -0.6823  -13.2863 C   0  0  0  0  0  0  0  0  0  0  0  0
  -22.9317   -0.8590  -11.9129 C   0  0  0  0  0  0  0  0  0  0  0  0
  -23.9759   -1.4491  -11.1902 C   0  0  0  0  0  0  0  0  0  0  0  0
  -25.1879   -1.7834  -11.8040 C   0  0  0  0  0  0  0  0  0  0  0  0
  -25.3603   -1.4436  -13.1499 C   0  0  0  0  0  0  0  0  0  0  0  0
  -24.2997   -0.8978  -13.8877 C   0  0  0  0  0  0  0  0  0  0  0  0
  -26.2277   -2.4947  -11.1537 N   0  0  0  0  0  0  0  0  0  0  0  0
  -26.7546   -2.1977   -9.9113 C   0  0  0  0  0  0  0  0  0  0  0  0
  -26.4878   -1.1989   -9.2518 O   0  0  0  0  0  0  0  0  0  0  0  0
  -27.6075   -3.1946   -9.4444 N   0  0  0  0  0  0  0  0  0  0  0  0
  -26.6285   -3.2823  -11.6461 H   0  0  0  0  0  0  0  0  0  0  0  0
  -27.3273   -4.1323   -9.6951 H   0  0  0  0  0  0  0  0  0  0  0  0
  -28.2383   -3.0397   -8.1834 C   0  0  0  0  0  0  0  0  0  0  0  0
  -29.2130   -3.9519   -7.7464 C   0  0  0  0  0  0  0  0  0  0  0  0
  -29.9119   -3.7334   -6.5580 C   0  0  0  0  0  0  0  0  0  0  0  0
  -29.6347   -2.5989   -5.8084 C   0  0  0  0  0  0  0  0  0  0  0  0
  -30.3332   -2.3636   -4.6894 F   0  0  0  0  0  0  0  0  0  0  0  0
  -28.6474   -1.7097   -6.2207 C   0  0  0  0  0  0  0  0  0  0  0  0
  -28.4015   -0.6036   -5.5045 F   0  0  0  0  0  0  0  0  0  0  0  0
  -27.9247   -1.9340   -7.3922 C   0  0  0  0  0  0  0  0  0  0  0  0
  -22.0217   -0.3514  -14.1302 O   0  0  0  0  0  0  0  0  0  0  0  0
  -17.7898    2.5637  -15.1110 C   0  0  0  0  0  0  0  0  0  0  0  0
  -18.9361    3.3700  -15.0032 C   0  0  0  0  0  0  0  0  0  0  0  0
  -20.2041    2.8498  -14.7738 C   0  0  0  0  0  0  0  0  0  0  0  0
  -21.2096    3.7158  -14.5616 N   0  0  0  0  0  0  0  0  0  0  0  0
  -22.4224    3.2166  -14.2424 C   0  0  0  0  0  0  0  0  0  0  0  0
  -22.6846    1.8732  -14.1010 C   0  0  0  0  0  0  0  0  0  0  0  0
  -21.6475    0.9701  -14.3248 C   0  0  0  0  0  0  0  0  0  0  0  0
  -20.3727    1.4540  -14.7331 C   0  0  0  0  0  0  0  0  0  0  0  0
  -19.2532    0.6613  -15.0730 C   0  0  0  0  0  0  0  0  0  0  0  0
  -17.9587    1.1818  -15.1751 C   0  0  0  0  0  0  0  0  0  0  0  0
  -16.3546    4.1892  -16.0862 C   0  0  0  0  0  0  0  0  0  0  0  0
  -16.5290    3.0928  -15.1871 O   0  0  0  0  0  0  0  0  0  0  0  0
  -17.0330    0.1852  -15.2952 O   0  0  0  0  0  0  0  0  0  0  0  0
  -16.2637   -0.2130  -14.1742 C   0  0  0  0  0  0  0  0  0  0  0  0
 32 33  1  0  0  0
 33 22  1  0  0  0
 22 23  1  0  0  0
 22 31  2  0  0  0
 23 24  2  0  0  0
 24 25  1  0  0  0
 24 29  1  0  0  0
 25 26  2  0  0  0
 26 27  1  0  0  0
 27 28  2  0  0  0
 28 21  1  0  0  0
 28 29  1  0  0  0
 21  1  1  0  0  0
  1  2  1  0  0  0
  1  6  2  0  0  0
  2  3  2  0  0  0
  3  4  1  0  0  0
  4  7  1  0  0  0
  4  5  2  0  0  0
  7  8  1  0  0  0
  7 11  1  0  0  0
  8  9  2  0  0  0
  8 10  1  0  0  0
 10 13  1  0  0  0
 10 12  1  0  0  0
 13 14  1  0  0  0
 13 20  2  0  0  0
 14 15  2  0  0  0
 15 16  1  0  0  0
 16 17  1  0  0  0
 16 18  2  0  0  0
 18 19  1  0  0  0
 18 20  1  0  0  0
  5  6  1  0  0  0
 29 30  2  0  0  0
 30 31  1  0  0  0
 31 34  1  0  0  0
 34 35  1  0  0  0
M  END
> <minimizedAffinity>
-11.52418

$$$$
