CHEMBL3310053


 22 24  0  0  0  0  0  0  0  0999 V2000
  -30.0673   -5.7323   -7.3261 C   0  0  0  0  0  0  0  0  0  0  0  0
  -30.5134   -6.9332   -6.4847 C   0  0  0  0  0  0  0  0  0  0  0  0
  -28.8399   -9.1594   -7.8645 C   0  0  0  0  0  0  0  0  0  0  0  0
  -28.6215   -8.6253   -6.4942 C   0  0  0  0  0  0  0  0  0  0  0  0
  -27.6341   -9.0030   -5.7004 N   0  0  0  0  0  0  0  0  0  0  0  0
  -27.7519   -8.2608   -4.5568 C   0  0  0  0  0  0  0  0  0  0  0  0
  -28.8440   -7.4448   -4.6505 C   0  0  0  0  0  0  0  0  0  0  0  0
  -29.4081   -7.6611   -5.8806 N   0  0  0  0  0  0  0  0  0  0  0  0
  -29.3250   -6.5159   -3.7015 N   0  0  0  0  0  0  0  0  0  0  0  0
  -28.8093   -5.3948   -3.7144 O   0  0  0  0  0  0  0  0  0  0  0  0
  -30.2183   -6.9089   -2.9444 O   0  0  0  0  0  0  0  0  0  0  0  0
  -30.0737   -4.5000   -6.5803 O   0  0  0  0  0  0  0  0  0  0  0  0
  -29.1859   -3.5636   -7.0792 C   0  0  0  0  0  0  0  0  0  0  0  0
  -28.5512   -3.8865   -8.2224 N   0  0  0  0  0  0  0  0  0  0  0  0
  -27.6828   -2.9787   -8.6706 C   0  0  0  0  0  0  0  0  0  0  0  0
  -27.4224   -1.7940   -8.1087 N   0  0  0  0  0  0  0  0  0  0  0  0
  -28.0648   -1.5004   -6.9714 C   0  0  0  0  0  0  0  0  0  0  0  0
  -27.8197   -0.2702   -6.3754 C   0  0  0  0  0  0  0  0  0  0  0  0
  -28.4443    0.1123   -5.1884 C   0  0  0  0  0  0  0  0  0  0  0  0
  -29.3296   -0.7600   -4.5649 C   0  0  0  0  0  0  0  0  0  0  0  0
  -29.5981   -2.0009   -5.1449 C   0  0  0  0  0  0  0  0  0  0  0  0
  -28.9751   -2.3753   -6.3650 C   0  0  0  0  0  0  0  0  0  0  0  0
  3  4  1  0  0  0
  4  5  2  0  0  0
  4  8  1  0  0  0
  5  6  1  0  0  0
  6  7  2  0  0  0
  7  9  1  0  0  0
  7  8  1  0  0  0
  9 10  2  0  0  0
  9 11  1  0  0  0
  8  2  1  0  0  0
  2  1  1  0  0  0
  1 12  1  0  0  0
 12 13  1  0  0  0
 13 14  1  0  0  0
 13 22  2  0  0  0
 14 15  2  0  0  0
 15 16  1  0  0  0
 16 17  2  0  0  0
 17 18  1  0  0  0
 17 22  1  0  0  0
 18 19  2  0  0  0
 19 20  1  0  0  0
 20 21  2  0  0  0
 21 22  1  0  0  0
M  CHG 1   9   1
M  CHG 1  11  -1
M  END
> <minimizedAffinity>
-6.96147

$$$$
