CHEMBL565785


 42 46  0  0  0  0  0  0  0  0999 V2000
  -27.9468   -2.5535   -6.5113 C   0  0  0  0  0  0  0  0  0  0  0  0
  -27.5997   -1.2912   -6.9838 C   0  0  0  0  0  0  0  0  0  0  0  0
  -27.6073   -1.0360   -8.3502 C   0  0  0  0  0  0  0  0  0  0  0  0
  -28.0344   -1.9999   -9.2611 C   0  0  0  0  0  0  0  0  0  0  0  0
  -28.5471   -3.2121   -8.7759 C   0  0  0  0  0  0  0  0  0  0  0  0
  -28.4772   -3.4831   -7.4020 C   0  0  0  0  0  0  0  0  0  0  0  0
  -28.9116   -4.6741   -6.9614 F   0  0  0  0  0  0  0  0  0  0  0  0
  -27.9703   -1.7822  -10.6575 N   0  0  0  0  0  0  0  0  0  0  0  0
  -26.8316   -1.9677  -11.4361 C   0  0  0  0  0  0  0  0  0  0  0  0
  -25.7463   -2.3739  -11.0280 O   0  0  0  0  0  0  0  0  0  0  0  0
  -28.8499   -1.5890  -11.1371 H   0  0  0  0  0  0  0  0  0  0  0  0
  -26.9582   -1.6336  -12.9037 C   0  0  0  0  0  0  0  0  0  0  0  0
  -25.7159   -1.0865  -13.5308 C   0  0  0  0  0  0  0  0  0  0  0  0
  -25.3952   -1.4531  -14.6631 O   0  0  0  0  0  0  0  0  0  0  0  0
  -24.9519   -0.2744  -12.7082 N   0  0  0  0  0  0  0  0  0  0  0  0
  -25.0311   -0.4440  -11.7112 H   0  0  0  0  0  0  0  0  0  0  0  0
  -23.7050    0.1899  -13.1713 C   0  0  0  0  0  0  0  0  0  0  0  0
  -23.4786    1.5578  -13.3497 C   0  0  0  0  0  0  0  0  0  0  0  0
  -22.3002    1.9984  -13.9459 C   0  0  0  0  0  0  0  0  0  0  0  0
  -21.3559    1.0698  -14.3784 C   0  0  0  0  0  0  0  0  0  0  0  0
  -21.5648   -0.2941  -14.1639 C   0  0  0  0  0  0  0  0  0  0  0  0
  -22.7259   -0.7364  -13.5273 C   0  0  0  0  0  0  0  0  0  0  0  0
  -27.7919   -2.9245   -5.1929 O   0  0  0  0  0  0  0  0  0  0  0  0
  -29.2267   -7.1695   -3.9421 C   0  0  0  0  0  0  0  0  0  0  0  0
  -30.3444   -6.5212   -3.4566 C   0  0  0  0  0  0  0  0  0  0  0  0
  -30.2797   -5.1101   -3.5957 C   0  0  0  0  0  0  0  0  0  0  0  0
  -31.2215   -4.2509   -3.1248 N   0  0  0  0  0  0  0  0  0  0  0  0
  -30.9654   -2.9471   -3.3125 C   0  0  0  0  0  0  0  0  0  0  0  0
  -29.8455   -2.4434   -3.9436 C   0  0  0  0  0  0  0  0  0  0  0  0
  -28.9122   -3.3316   -4.4946 C   0  0  0  0  0  0  0  0  0  0  0  0
  -29.1335   -4.6995   -4.2712 C   0  0  0  0  0  0  0  0  0  0  0  0
  -28.1839   -6.0548   -4.7330 S   0  0  0  0  0  0  0  0  0  0  0  0
  -29.2151  -11.3480   -6.3806 C   0  0  0  0  0  0  0  0  0  0  0  0
  -30.3460  -10.3635   -6.7287 C   0  0  0  0  0  0  0  0  0  0  0  0
  -29.8236   -9.0316   -6.2251 C   0  0  0  0  0  0  0  0  0  0  0  0
  -29.1112   -9.3705   -5.0066 N   0  0  0  0  0  0  0  0  0  0  0  0
  -28.8388   -8.5758   -3.8997 C   0  0  0  0  0  0  0  0  0  0  0  0
  -28.3179   -9.0849   -2.9050 O   0  0  0  0  0  0  0  0  0  0  0  0
  -28.8084  -10.7964   -4.9834 C   0  0  0  0  0  0  0  0  0  0  0  0
  -26.8289  -11.7136   -6.6913 C   0  0  0  0  0  0  0  0  0  0  0  0
  -28.0915  -11.3539   -7.3549 N   0  0  0  0  0  0  0  0  0  0  0  0
  -28.3068  -12.2933   -8.4621 C   0  0  0  0  0  0  0  0  0  0  0  0
 40 41  1  0  0  0
 41 42  1  0  0  0
 41 33  1  0  0  0
 33 34  1  0  0  0
 33 39  1  0  0  0
 34 35  1  0  0  0
 35 36  1  0  0  0
 36 37  1  0  0  0
 36 39  1  0  0  0
 37 38  2  0  0  0
 37 24  1  0  0  0
 24 25  2  0  0  0
 24 32  1  0  0  0
 25 26  1  0  0  0
 26 27  1  0  0  0
 26 31  2  0  0  0
 27 28  2  0  0  0
 28 29  1  0  0  0
 29 30  2  0  0  0
 30 23  1  0  0  0
 30 31  1  0  0  0
 23  1  1  0  0  0
  1  2  1  0  0  0
  1  6  2  0  0  0
  2  3  2  0  0  0
  3  4  1  0  0  0
  4  8  1  0  0  0
  4  5  2  0  0  0
  8  9  1  0  0  0
  8 11  1  0  0  0
  9 10  2  0  0  0
  9 12  1  0  0  0
 12 13  1  0  0  0
 13 14  2  0  0  0
 13 15  1  0  0  0
 15 17  1  0  0  0
 15 16  1  0  0  0
 17 18  1  0  0  0
 17 22  2  0  0  0
 18 19  2  0  0  0
 19 20  1  0  0  0
 20 21  2  0  0  0
 21 22  1  0  0  0
  5  6  1  0  0  0
  6  7  1  0  0  0
 31 32  1  0  0  0
M  END
> <minimizedAffinity>
-9.73027

$$$$
