CHEMBL3963146


 32 35  0  0  0  0  0  0  0  0999 V2000
  -29.5580   -9.0182   -6.4031 C   0  0  0  0  0  0  0  0  0  0  0  0
  -30.7463   -8.3537   -6.7499 C   0  0  0  0  0  0  0  0  0  0  0  0
  -30.9677   -7.0001   -6.4100 C   0  0  0  0  0  0  0  0  0  0  0  0
  -30.0331   -6.3723   -5.5664 C   0  0  0  0  0  0  0  0  0  0  0  0
  -29.7819   -5.1002   -4.9434 C   0  0  0  0  0  0  0  0  0  0  0  0
  -29.4502   -5.4073   -3.6685 N   0  0  0  0  0  0  0  0  0  0  0  0
  -28.6811   -6.4985   -3.8739 N   0  0  0  0  0  0  0  0  0  0  0  0
  -29.0366   -7.1730   -5.0136 C   0  0  0  0  0  0  0  0  0  0  0  0
  -28.6583   -8.4150   -5.5200 C   0  0  0  0  0  0  0  0  0  0  0  0
  -28.0500   -6.7927   -3.1389 H   0  0  0  0  0  0  0  0  0  0  0  0
  -28.9692   -4.0017   -5.4657 C   0  0  0  0  0  0  0  0  0  0  0  0
  -28.5151   -2.9665   -4.7301 C   0  0  0  0  0  0  0  0  0  0  0  0
  -28.5364   -1.5730   -5.2426 C   0  0  0  0  0  0  0  0  0  0  0  0
  -29.5469   -0.6982   -4.8512 C   0  0  0  0  0  0  0  0  0  0  0  0
  -29.6958    0.5165   -5.5259 C   0  0  0  0  0  0  0  0  0  0  0  0
  -28.8442    0.8267   -6.5777 C   0  0  0  0  0  0  0  0  0  0  0  0
  -27.8618   -0.0908   -6.9029 C   0  0  0  0  0  0  0  0  0  0  0  0
  -27.6895   -1.2697   -6.2593 N   0  0  0  0  0  0  0  0  0  0  0  0
  -29.2532  -10.7198   -6.8762 S   0  0  0  0  0  0  0  0  0  0  0  0
  -27.1617  -10.6392   -8.8169 C   0  0  0  0  0  0  0  0  0  0  0  0
  -26.7271  -10.4737  -10.1476 C   0  0  0  0  0  0  0  0  0  0  0  0
  -27.6461  -10.2738  -11.1786 C   0  0  0  0  0  0  0  0  0  0  0  0
  -28.9983  -10.2514  -10.8947 C   0  0  0  0  0  0  0  0  0  0  0  0
  -29.4437  -10.4022   -9.5826 C   0  0  0  0  0  0  0  0  0  0  0  0
  -28.5396  -10.5590   -8.5161 C   0  0  0  0  0  0  0  0  0  0  0  0
  -25.7014   -9.8340   -7.0411 N   0  0  0  0  0  0  0  0  0  0  0  0
  -26.0677  -10.8955   -7.8319 C   0  0  0  0  0  0  0  0  0  0  0  0
  -25.5862  -12.0216   -7.7446 O   0  0  0  0  0  0  0  0  0  0  0  0
  -26.2851   -9.0121   -6.9395 H   0  0  0  0  0  0  0  0  0  0  0  0
  -24.8115  -10.1008   -5.9768 O   0  0  0  0  0  0  0  0  0  0  0  0
  -25.2908   -8.9778   -3.9092 C   0  0  0  0  0  0  0  0  0  0  0  0
  -25.5831  -10.1846   -4.7756 C   0  0  0  0  0  0  0  0  0  0  0  0
 31 32  1  0  0  0
 32 30  1  0  0  0
 30 26  1  0  0  0
 26 27  1  0  0  0
 26 29  1  0  0  0
 27 28  2  0  0  0
 27 20  1  0  0  0
 20 21  1  0  0  0
 20 25  2  0  0  0
 21 22  2  0  0  0
 22 23  1  0  0  0
 23 24  2  0  0  0
 24 25  1  0  0  0
 25 19  1  0  0  0
 19  1  1  0  0  0
  1  2  1  0  0  0
  1  9  2  0  0  0
  2  3  2  0  0  0
  3  4  1  0  0  0
  4  5  1  0  0  0
  4  8  2  0  0  0
  5 11  1  0  0  0
  5  6  2  0  0  0
 11 12  2  0  0  0
 12 13  1  0  0  0
 13 14  1  0  0  0
 13 18  2  0  0  0
 14 15  2  0  0  0
 15 16  1  0  0  0
 16 17  2  0  0  0
 17 18  1  0  0  0
  6  7  1  0  0  0
  7  8  1  0  0  0
  7 10  1  0  0  0
  8  9  1  0  0  0
M  END
> <minimizedAffinity>
-8.43475

$$$$
