CHEMBL171188


 27 30  0  0  0  0  0  0  0  0999 V2000
  -14.1461   -2.9001  -13.7043 C   0  0  0  0  0  0  0  0  0  0  0  0
  -13.2441   -2.2521  -14.6812 C   0  0  0  0  0  0  0  0  0  0  0  0
  -13.6020   -1.0732  -15.2424 C   0  0  0  0  0  0  0  0  0  0  0  0
  -14.7209   -0.3933  -14.7256 N   0  0  0  0  0  0  0  0  0  0  0  0
  -15.1154    0.9503  -14.8037 C   0  0  0  0  0  0  0  0  0  0  0  0
  -14.6439    1.2690  -13.5215 C   0  0  0  0  0  0  0  0  0  0  0  0
  -15.0065    0.2401  -12.6648 N   0  0  0  0  0  0  0  0  0  0  0  0
  -15.1963   -0.7919  -13.4745 C   0  0  0  0  0  0  0  0  0  0  0  0
  -15.1665   -2.1769  -13.1853 C   0  0  0  0  0  0  0  0  0  0  0  0
  -14.5110   -6.0982  -10.1863 O   0  0  0  0  0  0  0  0  0  0  0  0
  -14.0955   -5.8684  -11.3196 C   0  0  0  0  0  0  0  0  0  0  0  0
  -14.3433   -4.5318  -11.9174 C   0  0  0  0  0  0  0  0  0  0  0  0
  -13.9212   -4.2372  -13.1587 C   0  0  0  0  0  0  0  0  0  0  0  0
  -13.1894   -5.2527  -13.8997 C   0  0  0  0  0  0  0  0  0  0  0  0
  -12.9543   -6.4578  -13.3755 C   0  0  0  0  0  0  0  0  0  0  0  0
  -13.4067   -6.7862  -12.1072 N   0  0  0  0  0  0  0  0  0  0  0  0
  -13.1912   -8.1386  -11.5896 C   0  0  0  0  0  0  0  0  0  0  0  0
  -11.7276   -8.4953  -11.3295 C   0  0  0  0  0  0  0  0  0  0  0  0
  -11.2509   -9.7384  -12.0691 C   0  0  0  0  0  0  0  0  0  0  0  0
  -12.3229  -10.6751  -12.1513 O   0  0  0  0  0  0  0  0  0  0  0  0
  -12.5778  -10.9127  -11.2438 H   0  0  0  0  0  0  0  0  0  0  0  0
  -16.4647    1.4356  -15.2150 C   0  0  0  0  0  0  0  0  0  0  0  0
  -16.6133    2.7908  -15.6017 C   0  0  0  0  0  0  0  0  0  0  0  0
  -17.8630    3.4113  -15.7029 C   0  0  0  0  0  0  0  0  0  0  0  0
  -19.0134    2.6698  -15.4804 C   0  0  0  0  0  0  0  0  0  0  0  0
  -18.9116    1.3120  -15.1718 C   0  0  0  0  0  0  0  0  0  0  0  0
  -17.6538    0.6940  -15.0377 C   0  0  0  0  0  0  0  0  0  0  0  0
 10 11  2  0  0  0
 11 12  1  0  0  0
 11 16  1  0  0  0
 12 13  2  0  0  0
 13  1  1  0  0  0
 13 14  1  0  0  0
  1  2  1  0  0  0
  1  9  2  0  0  0
  2  3  2  0  0  0
  3  4  1  0  0  0
  4  5  1  0  0  0
  4  8  1  0  0  0
  5 22  1  0  0  0
  5  6  2  0  0  0
 22 23  1  0  0  0
 22 27  2  0  0  0
 23 24  2  0  0  0
 24 25  1  0  0  0
 25 26  2  0  0  0
 26 27  1  0  0  0
  6  7  1  0  0  0
  7  8  2  0  0  0
  8  9  1  0  0  0
 14 15  2  0  0  0
 15 16  1  0  0  0
 16 17  1  0  0  0
 17 18  1  0  0  0
 18 19  1  0  0  0
 19 20  1  0  0  0
 20 21  1  0  0  0
M  END
> <minimizedAffinity>
-7.74391

$$$$
