CHEMBL3114028


 28 31  0  0  0  0  0  0  0  0999 V2000
  -29.4811   -3.8268   -3.7827 C   0  0  0  0  0  0  0  0  0  0  0  0
  -30.7451   -3.5036   -3.4638 N   0  0  0  0  0  0  0  0  0  0  0  0
  -31.6395   -4.5020   -3.4366 C   0  0  0  0  0  0  0  0  0  0  0  0
  -31.3098   -5.8040   -3.7018 C   0  0  0  0  0  0  0  0  0  0  0  0
  -29.9890   -6.0636   -4.0367 C   0  0  0  0  0  0  0  0  0  0  0  0
  -29.0706   -5.0762   -4.0413 N   0  0  0  0  0  0  0  0  0  0  0  0
  -28.6203   -2.7304   -3.9006 N   0  0  0  0  0  0  0  0  0  0  0  0
  -28.3080   -2.4780   -2.9717 H   0  0  0  0  0  0  0  0  0  0  0  0
  -27.7956   -1.0578   -7.1166 C   0  0  0  0  0  0  0  0  0  0  0  0
  -28.2770    0.2305   -6.9038 C   0  0  0  0  0  0  0  0  0  0  0  0
  -28.9144    0.5337   -5.6998 C   0  0  0  0  0  0  0  0  0  0  0  0
  -29.0460   -0.4410   -4.7039 C   0  0  0  0  0  0  0  0  0  0  0  0
  -28.5282   -1.7276   -4.8743 C   0  0  0  0  0  0  0  0  0  0  0  0
  -27.9197   -2.0258   -6.1057 C   0  0  0  0  0  0  0  0  0  0  0  0
  -27.8091   -2.4838   -9.0129 C   0  0  0  0  0  0  0  0  0  0  0  0
  -27.1452   -1.4873   -8.2433 O   0  0  0  0  0  0  0  0  0  0  0  0
  -29.6419   -7.3642   -4.4804 N   0  0  0  0  0  0  0  0  0  0  0  0
  -28.7981   -8.1588   -3.5996 C   0  0  0  0  0  0  0  0  0  0  0  0
  -29.7170   -7.7670   -5.8457 C   0  0  0  0  0  0  0  0  0  0  0  0
  -31.0173   -7.6589   -6.4804 C   0  0  0  0  0  0  0  0  0  0  0  0
  -31.4327   -8.3849   -7.5994 C   0  0  0  0  0  0  0  0  0  0  0  0
  -30.3655   -9.0885   -8.0933 C   0  0  0  0  0  0  0  0  0  0  0  0
  -30.4783  -10.0672   -9.0371 C   0  0  0  0  0  0  0  0  0  0  0  0
  -29.2041  -10.1238   -9.5222 N   0  0  0  0  0  0  0  0  0  0  0  0
  -28.9585  -10.1583  -10.9474 C   0  0  0  0  0  0  0  0  0  0  0  0
  -28.2670   -9.6976   -8.6345 N   0  0  0  0  0  0  0  0  0  0  0  0
  -28.9831   -9.0384   -7.6962 C   0  0  0  0  0  0  0  0  0  0  0  0
  -28.6113   -8.3773   -6.5046 C   0  0  0  0  0  0  0  0  0  0  0  0
 15 16  1  0  0  0
 16  9  1  0  0  0
  9 10  1  0  0  0
  9 14  2  0  0  0
 10 11  2  0  0  0
 11 12  1  0  0  0
 12 13  2  0  0  0
 13  7  1  0  0  0
 13 14  1  0  0  0
  7  1  1  0  0  0
  7  8  1  0  0  0
  1  2  1  0  0  0
  1  6  2  0  0  0
  2  3  2  0  0  0
  3  4  1  0  0  0
  4  5  2  0  0  0
  5 17  1  0  0  0
  5  6  1  0  0  0
 17 18  1  0  0  0
 17 19  1  0  0  0
 19 20  1  0  0  0
 19 28  2  0  0  0
 20 21  2  0  0  0
 21 22  1  0  0  0
 22 23  2  0  0  0
 22 27  1  0  0  0
 23 24  1  0  0  0
 24 25  1  0  0  0
 24 26  1  0  0  0
 26 27  2  0  0  0
 27 28  1  0  0  0
M  END
> <minimizedAffinity>
-8.57913

$$$$
