CHEMBL3908510


 44 48  0  0  0  0  0  0  0  0999 V2000
  -28.5538   -2.0179  -10.0771 N   0  0  0  0  0  0  0  0  0  0  0  0
  -27.6333   -1.7374  -11.0403 C   0  0  0  0  0  0  0  0  0  0  0  0
  -28.0668   -1.4012  -12.1426 O   0  0  0  0  0  0  0  0  0  0  0  0
  -26.3162   -1.8837  -10.7070 N   0  0  0  0  0  0  0  0  0  0  0  0
  -29.4981   -1.9187  -10.4233 H   0  0  0  0  0  0  0  0  0  0  0  0
  -26.1667   -2.3566   -9.8161 H   0  0  0  0  0  0  0  0  0  0  0  0
  -25.2149   -1.6729  -11.5547 C   0  0  0  0  0  0  0  0  0  0  0  0
  -23.9064   -1.5472  -11.0792 C   0  0  0  0  0  0  0  0  0  0  0  0
  -22.8548   -1.2375  -11.9462 C   0  0  0  0  0  0  0  0  0  0  0  0
  -23.0959   -1.0588  -13.3069 C   0  0  0  0  0  0  0  0  0  0  0  0
  -24.3997   -1.2154  -13.7848 C   0  0  0  0  0  0  0  0  0  0  0  0
  -24.6939   -1.0138  -15.0776 F   0  0  0  0  0  0  0  0  0  0  0  0
  -25.4477   -1.5563  -12.9266 C   0  0  0  0  0  0  0  0  0  0  0  0
  -22.0109   -0.6380  -14.0406 O   0  0  0  0  0  0  0  0  0  0  0  0
  -21.7577    0.7031  -14.2003 C   0  0  0  0  0  0  0  0  0  0  0  0
  -22.6215    1.7069  -13.7824 C   0  0  0  0  0  0  0  0  0  0  0  0
  -22.2317    3.0097  -14.0016 C   0  0  0  0  0  0  0  0  0  0  0  0
  -21.0974    3.3541  -14.6382 N   0  0  0  0  0  0  0  0  0  0  0  0
  -20.2921    2.3761  -15.0925 C   0  0  0  0  0  0  0  0  0  0  0  0
  -20.5923    1.0345  -14.8953 C   0  0  0  0  0  0  0  0  0  0  0  0
  -19.1158    2.7041  -15.7891 N   0  0  0  0  0  0  0  0  0  0  0  0
  -17.8485    2.4216  -15.3362 C   0  0  0  0  0  0  0  0  0  0  0  0
  -17.5258    1.8467  -14.3062 O   0  0  0  0  0  0  0  0  0  0  0  0
  -19.2193    3.1949  -16.6626 H   0  0  0  0  0  0  0  0  0  0  0  0
  -16.7681    2.9221  -16.2469 C   0  0  0  0  0  0  0  0  0  0  0  0
  -15.3976    3.2450  -15.6877 C   0  0  0  0  0  0  0  0  0  0  0  0
  -16.3081    4.3579  -16.1183 C   0  0  0  0  0  0  0  0  0  0  0  0
  -28.2994   -4.0377   -7.0918 C   0  0  0  0  0  0  0  0  0  0  0  0
  -28.0056   -3.0629   -6.1420 C   0  0  0  0  0  0  0  0  0  0  0  0
  -27.9104   -1.7171   -6.5059 C   0  0  0  0  0  0  0  0  0  0  0  0
  -28.1091   -1.3794   -7.8406 C   0  0  0  0  0  0  0  0  0  0  0  0
  -28.3709   -2.3917   -8.7472 C   0  0  0  0  0  0  0  0  0  0  0  0
  -28.4625   -3.6914   -8.3887 N   0  0  0  0  0  0  0  0  0  0  0  0
  -28.1659   -9.4759   -5.8049 C   0  0  0  0  0  0  0  0  0  0  0  0
  -28.7438   -8.1457   -5.9879 N   0  0  0  0  0  0  0  0  0  0  0  0
  -28.0664   -7.1554   -5.1178 C   0  0  0  0  0  0  0  0  0  0  0  0
  -28.5970   -5.7143   -5.3223 C   0  0  0  0  0  0  0  0  0  0  0  0
  -28.5221   -5.3503   -6.7454 N   0  0  0  0  0  0  0  0  0  0  0  0
  -29.1735   -6.3066   -7.6464 C   0  0  0  0  0  0  0  0  0  0  0  0
  -28.6127   -7.7230   -7.3977 C   0  0  0  0  0  0  0  0  0  0  0  0
  -27.6116   -0.6565   -5.4852 C   0  0  0  0  0  0  0  0  0  0  0  0
  -26.4291   -0.8431   -4.8368 F   0  0  0  0  0  0  0  0  0  0  0  0
  -27.5474    0.5860   -6.0346 F   0  0  0  0  0  0  0  0  0  0  0  0
  -28.5639   -0.5903   -4.5152 F   0  0  0  0  0  0  0  0  0  0  0  0
 34 35  1  0  0  0
 35 36  1  0  0  0
 35 40  1  0  0  0
 36 37  1  0  0  0
 37 38  1  0  0  0
 38 28  1  0  0  0
 38 39  1  0  0  0
 28 29  1  0  0  0
 28 33  2  0  0  0
 29 30  2  0  0  0
 30 41  1  0  0  0
 30 31  1  0  0  0
 41 42  1  0  0  0
 41 43  1  0  0  0
 41 44  1  0  0  0
 31 32  2  0  0  0
 32  1  1  0  0  0
 32 33  1  0  0  0
  1  2  1  0  0  0
  1  5  1  0  0  0
  2  3  2  0  0  0
  2  4  1  0  0  0
  4  7  1  0  0  0
  4  6  1  0  0  0
  7  8  1  0  0  0
  7 13  2  0  0  0
  8  9  2  0  0  0
  9 10  1  0  0  0
 10 14  1  0  0  0
 10 11  2  0  0  0
 14 15  1  0  0  0
 15 16  1  0  0  0
 15 20  2  0  0  0
 16 17  2  0  0  0
 17 18  1  0  0  0
 18 19  2  0  0  0
 19 21  1  0  0  0
 19 20  1  0  0  0
 21 22  1  0  0  0
 21 24  1  0  0  0
 22 23  2  0  0  0
 22 25  1  0  0  0
 25 26  1  0  0  0
 25 27  1  0  0  0
 26 27  1  0  0  0
 11 12  1  0  0  0
 11 13  1  0  0  0
 39 40  1  0  0  0
M  END
> <minimizedAffinity>
-11.82636

$$$$
