CHEMBL3949132


 36 40  0  0  0  0  0  0  0  0999 V2000
  -27.6019   -2.1723   -8.6955 N   0  0  0  0  0  0  0  0  0  0  0  0
  -27.0315   -1.5998   -9.9146 C   0  0  0  0  0  0  0  0  0  0  0  0
  -27.7129   -1.9775  -11.0645 C   0  0  0  0  0  0  0  0  0  0  0  0
  -27.1761   -1.8573  -12.2991 C   0  0  0  0  0  0  0  0  0  0  0  0
  -25.9424   -1.3174  -12.4865 C   0  0  0  0  0  0  0  0  0  0  0  0
  -25.4673   -1.4224  -13.7242 N   0  0  0  0  0  0  0  0  0  0  0  0
  -24.3060   -0.9099  -14.0801 C   0  0  0  0  0  0  0  0  0  0  0  0
  -23.5588   -0.1377  -13.1967 C   0  0  0  0  0  0  0  0  0  0  0  0
  -23.9768   -0.0915  -11.8451 N   0  0  0  0  0  0  0  0  0  0  0  0
  -25.1853   -0.7328  -11.4489 C   0  0  0  0  0  0  0  0  0  0  0  0
  -25.7445   -0.8866  -10.0912 C   0  0  0  0  0  0  0  0  0  0  0  0
  -22.4885    0.6970  -13.9413 C   0  0  0  0  0  0  0  0  0  0  0  0
  -22.5331    2.1210  -13.9920 C   0  0  0  0  0  0  0  0  0  0  0  0
  -21.4205    2.6165  -14.5221 N   0  0  0  0  0  0  0  0  0  0  0  0
  -20.6484    1.6095  -14.8496 N   0  0  0  0  0  0  0  0  0  0  0  0
  -19.2989    1.8539  -15.3364 C   0  0  0  0  0  0  0  0  0  0  0  0
  -21.2625    0.4192  -14.5651 C   0  0  0  0  0  0  0  0  0  0  0  0
  -29.0545    0.2345   -6.1156 C   0  0  0  0  0  0  0  0  0  0  0  0
  -28.8315   -0.5391   -4.9727 C   0  0  0  0  0  0  0  0  0  0  0  0
  -28.1716   -1.7638   -5.0362 C   0  0  0  0  0  0  0  0  0  0  0  0
  -27.7443   -2.2303   -6.2667 C   0  0  0  0  0  0  0  0  0  0  0  0
  -27.9222   -1.5013   -7.4583 C   0  0  0  0  0  0  0  0  0  0  0  0
  -28.5793   -0.2327   -7.3809 C   0  0  0  0  0  0  0  0  0  0  0  0
  -30.9423    1.8017   -6.4788 C   0  0  0  0  0  0  0  0  0  0  0  0
  -29.7618    1.3818   -5.9101 O   0  0  0  0  0  0  0  0  0  0  0  0
  -27.9374   -2.5386   -3.9456 O   0  0  0  0  0  0  0  0  0  0  0  0
  -28.8558   -2.8806   -2.9773 C   0  0  0  0  0  0  0  0  0  0  0  0
  -27.9491   -3.6383   -8.7643 C   0  0  0  0  0  0  0  0  0  0  0  0
  -29.2789   -4.0338   -8.0270 C   0  0  0  0  0  0  0  0  0  0  0  0
  -29.2833   -5.4746   -7.3948 C   0  0  0  0  0  0  0  0  0  0  0  0
  -29.3082   -5.4217   -5.9037 N   0  0  0  0  0  0  0  0  0  0  0  0
  -30.5374   -4.8500   -5.3179 C   0  0  0  0  0  0  0  0  0  0  0  0
  -31.1186   -5.9105   -4.3969 C   0  0  0  0  0  0  0  0  0  0  0  0
  -29.8590   -6.5163   -3.8351 C   0  0  0  0  0  0  0  0  0  0  0  0
  -28.9984   -6.6479   -5.1013 C   0  0  0  0  0  0  0  0  0  0  0  0
  -29.2948   -7.9863   -5.8137 C   0  0  0  0  0  0  0  0  0  0  0  0
 24 25  1  0  0  0
 25 18  1  0  0  0
 18 19  1  0  0  0
 18 23  2  0  0  0
 19 20  2  0  0  0
 20 26  1  0  0  0
 20 21  1  0  0  0
 26 27  1  0  0  0
 21 22  2  0  0  0
 22  1  1  0  0  0
 22 23  1  0  0  0
  1 28  1  0  0  0
  1  2  1  0  0  0
 28 29  1  0  0  0
 29 30  1  0  0  0
 30 31  1  0  0  0
 31 32  1  0  0  0
 31 35  1  0  0  0
 32 33  1  0  0  0
 33 34  1  0  0  0
 34 35  1  0  0  0
 35 36  1  0  0  0
  2  3  1  0  0  0
  2 11  2  0  0  0
  3  4  2  0  0  0
  4  5  1  0  0  0
  5  6  1  0  0  0
  5 10  2  0  0  0
  6  7  2  0  0  0
  7  8  1  0  0  0
  8 12  1  0  0  0
  8  9  2  0  0  0
 12 13  1  0  0  0
 12 17  2  0  0  0
 13 14  2  0  0  0
 14 15  1  0  0  0
 15 16  1  0  0  0
 15 17  1  0  0  0
  9 10  1  0  0  0
 10 11  1  0  0  0
M  END
> <minimizedAffinity>
-9.02351

$$$$
