CHEMBL3604467


 28 29  0  0  0  0  0  0  0  0999 V2000
  -29.5245   -8.3383   -7.1786 C   0  0  0  0  0  0  0  0  0  0  0  0
  -28.7099   -7.3701   -6.6954 N   0  0  0  0  0  0  0  0  0  0  0  0
  -29.2628   -6.4169   -5.9249 C   0  0  0  0  0  0  0  0  0  0  0  0
  -30.5836   -6.3144   -5.7030 N   0  0  0  0  0  0  0  0  0  0  0  0
  -31.3722   -7.2746   -6.2075 C   0  0  0  0  0  0  0  0  0  0  0  0
  -30.8887   -8.3432   -6.9122 C   0  0  0  0  0  0  0  0  0  0  0  0
  -32.0740   -9.6957   -7.4863 Br  0  0  0  0  0  0  0  0  0  0  0  0
  -28.9751   -9.4027   -7.9102 N   0  0  0  0  0  0  0  0  0  0  0  0
  -28.1086   -9.7042   -7.4567 H   0  0  0  0  0  0  0  0  0  0  0  0
  -28.8137   -9.2725   -9.3631 C   0  0  0  0  0  0  0  0  0  0  0  0
  -29.3324  -10.5583  -10.0109 C   0  0  0  0  0  0  0  0  0  0  0  0
  -26.8935   -9.4868  -11.0668 C   0  0  0  0  0  0  0  0  0  0  0  0
  -27.3046   -9.0471   -9.6669 C   0  0  0  0  0  0  0  0  0  0  0  0
  -26.9983   -7.6492   -9.5278 O   0  0  0  0  0  0  0  0  0  0  0  0
  -27.4906   -7.1723  -10.2196 H   0  0  0  0  0  0  0  0  0  0  0  0
  -28.4178   -5.5077   -5.2890 N   0  0  0  0  0  0  0  0  0  0  0  0
  -27.9114   -5.9327   -4.5256 H   0  0  0  0  0  0  0  0  0  0  0  0
  -28.5832   -4.1102   -5.2228 C   0  0  0  0  0  0  0  0  0  0  0  0
  -28.8714   -3.3413   -6.3626 C   0  0  0  0  0  0  0  0  0  0  0  0
  -28.9220   -1.9485   -6.3075 C   0  0  0  0  0  0  0  0  0  0  0  0
  -28.6802   -1.2889   -5.1012 C   0  0  0  0  0  0  0  0  0  0  0  0
  -28.4242   -2.0429   -3.9511 C   0  0  0  0  0  0  0  0  0  0  0  0
  -28.3940   -3.4425   -4.0079 C   0  0  0  0  0  0  0  0  0  0  0  0
  -28.6526    0.5185   -5.0731 S   0  0  0  0  0  0  0  0  0  0  0  0
  -27.7353    0.6030   -6.4497 N   0  0  0  0  0  0  0  0  0  0  0  0
  -30.1131    1.0164   -5.3362 O   0  0  0  0  0  0  0  0  0  0  0  0
  -26.7378    0.4438   -6.3588 H   0  0  0  0  0  0  0  0  0  0  0  0
  -27.8655    1.4500   -6.9956 H   0  0  0  0  0  0  0  0  0  0  0  0
 12 13  1  0  0  0
 13 14  1  0  0  0
 13 10  1  0  0  0
 14 15  1  0  0  0
 10 11  1  0  0  0
 10  8  1  0  0  0
  8  1  1  0  0  0
  8  9  1  0  0  0
  1  2  1  0  0  0
  1  6  2  0  0  0
  2  3  2  0  0  0
  3 16  1  0  0  0
  3  4  1  0  0  0
 16 18  1  0  0  0
 16 17  1  0  0  0
 18 19  1  0  0  0
 18 23  2  0  0  0
 19 20  2  0  0  0
 20 21  1  0  0  0
 21 24  1  0  0  0
 21 22  2  0  0  0
 24 25  1  0  0  0
 24 26  1  0  0  0
 25 27  1  0  0  0
 25 28  1  0  0  0
 22 23  1  0  0  0
  4  5  2  0  0  0
  5  6  1  0  0  0
  6  7  1  0  0  0
M  CHG 1  24   1
M  CHG 1  26  -1
M  END
> <minimizedAffinity>
-7.11881

$$$$
