CHEMBL3952277


 32 35  0  0  0  0  0  0  0  0999 V2000
  -28.0622   -1.7446   -8.1557 N   0  0  0  0  0  0  0  0  0  0  0  0
  -28.7394   -2.8337   -7.4719 C   0  0  0  0  0  0  0  0  0  0  0  0
  -28.4239   -2.9655   -6.1184 C   0  0  0  0  0  0  0  0  0  0  0  0
  -28.4282   -4.2103   -5.5379 C   0  0  0  0  0  0  0  0  0  0  0  0
  -28.8873   -5.3166   -6.1997 C   0  0  0  0  0  0  0  0  0  0  0  0
  -28.6174   -6.4795   -5.6086 N   0  0  0  0  0  0  0  0  0  0  0  0
  -29.2064   -7.5589   -6.1322 C   0  0  0  0  0  0  0  0  0  0  0  0
  -30.1287   -7.4720   -7.1581 C   0  0  0  0  0  0  0  0  0  0  0  0
  -30.2906   -6.3012   -7.8652 N   0  0  0  0  0  0  0  0  0  0  0  0
  -29.5917   -5.1895   -7.4284 C   0  0  0  0  0  0  0  0  0  0  0  0
  -29.4349   -3.9101   -8.0858 C   0  0  0  0  0  0  0  0  0  0  0  0
  -31.0477   -8.5986   -7.2809 C   0  0  0  0  0  0  0  0  0  0  0  0
  -32.4632   -8.5770   -7.3696 C   0  0  0  0  0  0  0  0  0  0  0  0
  -33.0172   -9.7828   -7.1914 N   0  0  0  0  0  0  0  0  0  0  0  0
  -31.9602  -10.5854   -6.9848 N   0  0  0  0  0  0  0  0  0  0  0  0
  -32.1260  -12.0207   -6.9757 C   0  0  0  0  0  0  0  0  0  0  0  0
  -30.7795   -9.8980   -6.8824 C   0  0  0  0  0  0  0  0  0  0  0  0
  -25.4883   -1.6350  -10.9317 C   0  0  0  0  0  0  0  0  0  0  0  0
  -26.3052   -1.7346  -12.0458 C   0  0  0  0  0  0  0  0  0  0  0  0
  -27.6896   -1.7451  -11.8827 C   0  0  0  0  0  0  0  0  0  0  0  0
  -28.2500   -1.6981  -10.5977 C   0  0  0  0  0  0  0  0  0  0  0  0
  -27.4646   -1.7013   -9.4408 C   0  0  0  0  0  0  0  0  0  0  0  0
  -26.0683   -1.5861   -9.6529 C   0  0  0  0  0  0  0  0  0  0  0  0
  -23.4886   -2.0548  -12.1552 C   0  0  0  0  0  0  0  0  0  0  0  0
  -24.1148   -1.5772  -10.9664 O   0  0  0  0  0  0  0  0  0  0  0  0
  -28.6021   -1.7921  -12.9016 O   0  0  0  0  0  0  0  0  0  0  0  0
  -28.1253   -2.2671  -14.1553 C   0  0  0  0  0  0  0  0  0  0  0  0
  -27.5945   -0.7395   -7.1175 C   0  0  0  0  0  0  0  0  0  0  0  0
  -28.4697    0.5390   -7.1740 C   0  0  0  0  0  0  0  0  0  0  0  0
  -28.9296    1.1629   -5.9148 N   0  0  0  0  0  0  0  0  0  0  0  0
  -30.3462    0.9001   -5.6378 C   0  0  0  0  0  0  0  0  0  0  0  0
  -28.1233    0.5820   -4.8263 C   0  0  0  0  0  0  0  0  0  0  0  0
 24 25  1  0  0  0
 25 18  1  0  0  0
 18 19  1  0  0  0
 18 23  2  0  0  0
 19 20  2  0  0  0
 20 26  1  0  0  0
 20 21  1  0  0  0
 26 27  1  0  0  0
 21 22  2  0  0  0
 22  1  1  0  0  0
 22 23  1  0  0  0
  1 28  1  0  0  0
  1  2  1  0  0  0
 28 29  1  0  0  0
 29 30  1  0  0  0
 30 31  1  0  0  0
 30 32  1  0  0  0
  2  3  1  0  0  0
  2 11  2  0  0  0
  3  4  2  0  0  0
  4  5  1  0  0  0
  5  6  1  0  0  0
  5 10  2  0  0  0
  6  7  2  0  0  0
  7  8  1  0  0  0
  8 12  1  0  0  0
  8  9  2  0  0  0
 12 13  1  0  0  0
 12 17  2  0  0  0
 13 14  2  0  0  0
 14 15  1  0  0  0
 15 16  1  0  0  0
 15 17  1  0  0  0
  9 10  1  0  0  0
 10 11  1  0  0  0
M  END
> <minimizedAffinity>
-7.48200

$$$$
