CHEMBL3628796


 35 38  0  0  0  0  0  0  0  0999 V2000
  -23.1511   -0.9215  -13.3905 C   0  0  0  0  0  0  0  0  0  0  0  0
  -24.3562   -1.0332  -14.0794 C   0  0  0  0  0  0  0  0  0  0  0  0
  -25.4958   -1.5262  -13.4381 C   0  0  0  0  0  0  0  0  0  0  0  0
  -25.4534   -1.9449  -12.1045 C   0  0  0  0  0  0  0  0  0  0  0  0
  -24.2234   -1.9381  -11.4472 C   0  0  0  0  0  0  0  0  0  0  0  0
  -23.0836   -1.4422  -12.0919 C   0  0  0  0  0  0  0  0  0  0  0  0
  -26.5998   -2.3222  -11.3673 N   0  0  0  0  0  0  0  0  0  0  0  0
  -26.8368   -2.0234  -10.0400 C   0  0  0  0  0  0  0  0  0  0  0  0
  -26.1715   -1.2429   -9.3672 O   0  0  0  0  0  0  0  0  0  0  0  0
  -27.9017   -2.7525   -9.5206 N   0  0  0  0  0  0  0  0  0  0  0  0
  -27.3318   -2.8058  -11.8663 H   0  0  0  0  0  0  0  0  0  0  0  0
  -27.9942   -3.6852   -9.8974 H   0  0  0  0  0  0  0  0  0  0  0  0
  -28.2786   -2.5768   -8.1662 C   0  0  0  0  0  0  0  0  0  0  0  0
  -28.9509   -3.5888   -7.4678 C   0  0  0  0  0  0  0  0  0  0  0  0
  -29.4134   -3.3722   -6.1707 C   0  0  0  0  0  0  0  0  0  0  0  0
  -29.2065   -2.1377   -5.5620 C   0  0  0  0  0  0  0  0  0  0  0  0
  -28.5128   -1.1393   -6.2466 C   0  0  0  0  0  0  0  0  0  0  0  0
  -28.2811    0.5530   -5.4332 Br  0  0  0  0  0  0  0  0  0  0  0  0
  -28.0231   -1.3580   -7.5371 C   0  0  0  0  0  0  0  0  0  0  0  0
  -22.0357   -0.3354  -14.0196 N   0  0  0  0  0  0  0  0  0  0  0  0
  -21.7539   -0.8293  -14.8593 H   0  0  0  0  0  0  0  0  0  0  0  0
  -17.9943    2.5898  -15.0180 C   0  0  0  0  0  0  0  0  0  0  0  0
  -19.1276    3.4067  -14.8694 C   0  0  0  0  0  0  0  0  0  0  0  0
  -20.3921    2.8990  -14.6130 C   0  0  0  0  0  0  0  0  0  0  0  0
  -21.3970    3.7517  -14.3796 N   0  0  0  0  0  0  0  0  0  0  0  0
  -22.5711    3.2118  -14.0462 C   0  0  0  0  0  0  0  0  0  0  0  0
  -22.8336    1.9082  -13.9285 N   0  0  0  0  0  0  0  0  0  0  0  0
  -21.8226    1.0582  -14.1912 C   0  0  0  0  0  0  0  0  0  0  0  0
  -20.5515    1.5151  -14.5717 C   0  0  0  0  0  0  0  0  0  0  0  0
  -19.4456    0.6821  -14.8529 C   0  0  0  0  0  0  0  0  0  0  0  0
  -18.1662    1.1993  -15.0655 C   0  0  0  0  0  0  0  0  0  0  0  0
  -16.6051    4.1414  -16.1459 C   0  0  0  0  0  0  0  0  0  0  0  0
  -16.7414    3.1288  -15.1432 O   0  0  0  0  0  0  0  0  0  0  0  0
  -17.2540    0.2077  -15.2601 O   0  0  0  0  0  0  0  0  0  0  0  0
  -16.3389   -0.1355  -14.2361 C   0  0  0  0  0  0  0  0  0  0  0  0
 32 33  1  0  0  0
 33 22  1  0  0  0
 22 23  1  0  0  0
 22 31  2  0  0  0
 23 24  2  0  0  0
 24 25  1  0  0  0
 24 29  1  0  0  0
 25 26  2  0  0  0
 26 27  1  0  0  0
 27 28  2  0  0  0
 28 20  1  0  0  0
 28 29  1  0  0  0
 20  1  1  0  0  0
 20 21  1  0  0  0
  1  2  1  0  0  0
  1  6  2  0  0  0
  2  3  2  0  0  0
  3  4  1  0  0  0
  4  7  1  0  0  0
  4  5  2  0  0  0
  7  8  1  0  0  0
  7 11  1  0  0  0
  8  9  2  0  0  0
  8 10  1  0  0  0
 10 13  1  0  0  0
 10 12  1  0  0  0
 13 14  1  0  0  0
 13 19  2  0  0  0
 14 15  2  0  0  0
 15 16  1  0  0  0
 16 17  2  0  0  0
 17 18  1  0  0  0
 17 19  1  0  0  0
  5  6  1  0  0  0
 29 30  2  0  0  0
 30 31  1  0  0  0
 31 34  1  0  0  0
 34 35  1  0  0  0
M  END
> <minimizedAffinity>
-11.31968

$$$$
