CHEMBL3927451


 37 41  0  0  0  0  0  0  0  0999 V2000
  -14.7260    2.8839  -16.0870 N   0  0  0  0  0  0  0  0  0  0  0  0
  -16.1573    2.5663  -16.1344 C   0  0  0  0  0  0  0  0  0  0  0  0
  -16.9632    3.6817  -16.2010 C   0  0  0  0  0  0  0  0  0  0  0  0
  -18.1513    3.6527  -15.5425 C   0  0  0  0  0  0  0  0  0  0  0  0
  -18.7239    2.5430  -15.0132 C   0  0  0  0  0  0  0  0  0  0  0  0
  -19.6369    3.0216  -14.2458 N   0  0  0  0  0  0  0  0  0  0  0  0
  -20.7037    2.3270  -14.0850 C   0  0  0  0  0  0  0  0  0  0  0  0
  -20.8597    0.9844  -14.4535 C   0  0  0  0  0  0  0  0  0  0  0  0
  -19.7400    0.3948  -15.0714 N   0  0  0  0  0  0  0  0  0  0  0  0
  -18.4511    1.2293  -15.3661 C   0  0  0  0  0  0  0  0  0  0  0  0
  -16.9117    1.3215  -15.8856 C   0  0  0  0  0  0  0  0  0  0  0  0
  -22.3072    0.6132  -14.0465 C   0  0  0  0  0  0  0  0  0  0  0  0
  -23.3626    1.2433  -13.3056 C   0  0  0  0  0  0  0  0  0  0  0  0
  -24.1750    0.4028  -12.6298 N   0  0  0  0  0  0  0  0  0  0  0  0
  -23.6505   -0.8061  -12.8454 N   0  0  0  0  0  0  0  0  0  0  0  0
  -24.1024   -1.9983  -12.1385 C   0  0  0  0  0  0  0  0  0  0  0  0
  -22.5776   -0.7329  -13.7012 C   0  0  0  0  0  0  0  0  0  0  0  0
  -13.5734    5.3732  -18.6726 C   0  0  0  0  0  0  0  0  0  0  0  0
  -12.5711    6.0458  -17.9706 C   0  0  0  0  0  0  0  0  0  0  0  0
  -12.2380    5.6491  -16.6862 C   0  0  0  0  0  0  0  0  0  0  0  0
  -12.8959    4.5427  -16.1315 C   0  0  0  0  0  0  0  0  0  0  0  0
  -13.9510    3.8580  -16.7839 C   0  0  0  0  0  0  0  0  0  0  0  0
  -14.2436    4.2738  -18.0892 C   0  0  0  0  0  0  0  0  0  0  0  0
  -14.6169    6.9960  -20.0558 C   0  0  0  0  0  0  0  0  0  0  0  0
  -13.9605    5.7296  -19.9431 O   0  0  0  0  0  0  0  0  0  0  0  0
  -11.3195    6.2741  -15.8818 O   0  0  0  0  0  0  0  0  0  0  0  0
  -11.3633    5.9548  -14.4914 C   0  0  0  0  0  0  0  0  0  0  0  0
  -14.0187    2.3154  -14.8158 C   0  0  0  0  0  0  0  0  0  0  0  0
  -13.1628    1.0030  -14.7627 C   0  0  0  0  0  0  0  0  0  0  0  0
  -13.8401   -0.3811  -14.7973 C   0  0  0  0  0  0  0  0  0  0  0  0
  -14.0069   -1.0017  -13.4436 N   0  0  0  0  0  0  0  0  0  0  0  0
  -13.4166   -2.3552  -13.2935 C   0  0  0  0  0  0  0  0  0  0  0  0
  -12.0161   -2.3244  -12.6751 C   0  0  0  0  0  0  0  0  0  0  0  0
  -14.3536   -3.1436  -12.3611 C   0  0  0  0  0  0  0  0  0  0  0  0
  -15.4177   -2.1558  -11.9375 C   0  0  0  0  0  0  0  0  0  0  0  0
  -15.4344   -1.1376  -13.0725 C   0  0  0  0  0  0  0  0  0  0  0  0
  -16.0765    0.1652  -12.6083 C   0  0  0  0  0  0  0  0  0  0  0  0
 24 25  1  0  0  0
 25 18  1  0  0  0
 18 19  1  0  0  0
 18 23  2  0  0  0
 19 20  2  0  0  0
 20 26  1  0  0  0
 20 21  1  0  0  0
 26 27  1  0  0  0
 21 22  2  0  0  0
 22  1  1  0  0  0
 22 23  1  0  0  0
  1 28  1  0  0  0
  1  2  1  0  0  0
 28 29  1  0  0  0
 29 30  1  0  0  0
 30 31  1  0  0  0
 31 32  1  0  0  0
 31 36  1  0  0  0
 32 33  1  0  0  0
 32 34  1  0  0  0
 34 35  1  0  0  0
 35 36  1  0  0  0
 36 37  1  0  0  0
  2  3  1  0  0  0
  2 11  2  0  0  0
  3  4  2  0  0  0
  4  5  1  0  0  0
  5  6  1  0  0  0
  5 10  2  0  0  0
  6  7  2  0  0  0
  7  8  1  0  0  0
  8 12  1  0  0  0
  8  9  2  0  0  0
 12 13  1  0  0  0
 12 17  2  0  0  0
 13 14  2  0  0  0
 14 15  1  0  0  0
 15 16  1  0  0  0
 15 17  1  0  0  0
  9 10  1  0  0  0
 10 11  1  0  0  0
M  END
> <minimizedAffinity>
-7.95823

$$$$
