CHEMBL3323595


 29 33  0  0  0  0  0  0  0  0999 V2000
  -23.4294    0.1576  -13.4179 C   0  0  0  0  0  0  0  0  0  0  0  0
  -24.4591   -0.3010  -14.1072 N   0  0  0  0  0  0  0  0  0  0  0  0
  -25.2593   -0.9549  -13.2056 C   0  0  0  0  0  0  0  0  0  0  0  0
  -26.4819   -1.6115  -13.3941 C   0  0  0  0  0  0  0  0  0  0  0  0
  -27.0929   -2.2182  -12.2859 C   0  0  0  0  0  0  0  0  0  0  0  0
  -26.5149   -2.1659  -11.0082 C   0  0  0  0  0  0  0  0  0  0  0  0
  -25.2793   -1.5271  -10.8226 C   0  0  0  0  0  0  0  0  0  0  0  0
  -24.6981   -0.9253  -11.9383 C   0  0  0  0  0  0  0  0  0  0  0  0
  -23.5363   -0.2215  -12.0999 N   0  0  0  0  0  0  0  0  0  0  0  0
  -22.8618   -0.0226  -11.3778 H   0  0  0  0  0  0  0  0  0  0  0  0
  -19.0103    3.2805  -15.4503 C   0  0  0  0  0  0  0  0  0  0  0  0
  -20.1539    2.4556  -14.9384 C   0  0  0  0  0  0  0  0  0  0  0  0
  -20.1229    1.0601  -15.0124 C   0  0  0  0  0  0  0  0  0  0  0  0
  -21.1889    0.3008  -14.5197 C   0  0  0  0  0  0  0  0  0  0  0  0
  -22.3026    0.9262  -13.9435 C   0  0  0  0  0  0  0  0  0  0  0  0
  -22.3242    2.3234  -13.8644 C   0  0  0  0  0  0  0  0  0  0  0  0
  -21.2621    3.0817  -14.3598 C   0  0  0  0  0  0  0  0  0  0  0  0
  -27.1681   -2.8353   -9.9456 N   0  0  0  0  0  0  0  0  0  0  0  0
  -26.7982   -3.7754   -9.8639 H   0  0  0  0  0  0  0  0  0  0  0  0
  -27.6279   -2.2894   -8.7167 C   0  0  0  0  0  0  0  0  0  0  0  0
  -27.4591   -0.9219   -8.4704 C   0  0  0  0  0  0  0  0  0  0  0  0
  -27.9758   -0.3791   -7.3140 C   0  0  0  0  0  0  0  0  0  0  0  0
  -28.6677   -1.0861   -6.4031 N   0  0  0  0  0  0  0  0  0  0  0  0
  -28.8664   -2.3919   -6.6365 C   0  0  0  0  0  0  0  0  0  0  0  0
  -29.6177   -3.0993   -5.7084 C   0  0  0  0  0  0  0  0  0  0  0  0
  -29.8791   -4.4624   -5.8511 C   0  0  0  0  0  0  0  0  0  0  0  0
  -29.3675   -5.1457   -6.9420 C   0  0  0  0  0  0  0  0  0  0  0  0
  -28.6154   -4.4574   -7.8944 C   0  0  0  0  0  0  0  0  0  0  0  0
  -28.3607   -3.0659   -7.7747 C   0  0  0  0  0  0  0  0  0  0  0  0
 11 12  1  0  0  0
 12 13  1  0  0  0
 12 17  2  0  0  0
 13 14  2  0  0  0
 14 15  1  0  0  0
 15  1  1  0  0  0
 15 16  2  0  0  0
  1  2  2  0  0  0
  1  9  1  0  0  0
  2  3  1  0  0  0
  3  4  1  0  0  0
  3  8  2  0  0  0
  4  5  2  0  0  0
  5  6  1  0  0  0
  6 18  1  0  0  0
  6  7  2  0  0  0
 18 20  1  0  0  0
 18 19  1  0  0  0
 20 21  1  0  0  0
 20 29  2  0  0  0
 21 22  2  0  0  0
 22 23  1  0  0  0
 23 24  2  0  0  0
 24 25  1  0  0  0
 24 29  1  0  0  0
 25 26  2  0  0  0
 26 27  1  0  0  0
 27 28  2  0  0  0
 28 29  1  0  0  0
  7  8  1  0  0  0
  8  9  1  0  0  0
  9 10  1  0  0  0
 16 17  1  0  0  0
M  END
> <minimizedAffinity>
-11.19279

$$$$
