CHEMBL453354


 31 34  0  0  0  0  0  0  0  0999 V2000
  -13.5843   -5.8415  -10.3115 C   0  0  0  0  0  0  0  0  0  0  0  0
  -14.8250   -5.3449  -10.2960 N   0  0  0  0  0  0  0  0  0  0  0  0
  -15.3492   -5.7418  -11.4625 N   0  0  0  0  0  0  0  0  0  0  0  0
  -16.6416   -5.2463  -11.8815 C   0  0  0  0  0  0  0  0  0  0  0  0
  -14.5353   -6.5625  -12.1909 C   0  0  0  0  0  0  0  0  0  0  0  0
  -14.7434   -7.2520  -13.3880 C   0  0  0  0  0  0  0  0  0  0  0  0
  -13.6454   -7.9104  -13.9682 C   0  0  0  0  0  0  0  0  0  0  0  0
  -12.4227   -7.9579  -13.2973 C   0  0  0  0  0  0  0  0  0  0  0  0
  -12.2574   -7.3198  -12.0542 C   0  0  0  0  0  0  0  0  0  0  0  0
  -13.3320   -6.5939  -11.5002 C   0  0  0  0  0  0  0  0  0  0  0  0
  -12.6828   -5.6894   -9.3189 N   0  0  0  0  0  0  0  0  0  0  0  0
  -12.1596   -6.5139   -9.0317 H   0  0  0  0  0  0  0  0  0  0  0  0
  -13.0186   -4.7949   -8.2176 C   0  0  0  0  0  0  0  0  0  0  0  0
  -12.3930   -3.4167   -8.4308 C   0  0  0  0  0  0  0  0  0  0  0  0
  -11.3589   -3.7439   -6.1519 C   0  0  0  0  0  0  0  0  0  0  0  0
  -11.1517   -3.2142   -7.5603 C   0  0  0  0  0  0  0  0  0  0  0  0
  -13.7181   -8.5342  -15.2092 O   0  0  0  0  0  0  0  0  0  0  0  0
  -13.6840   -7.7374  -16.3370 C   0  0  0  0  0  0  0  0  0  0  0  0
  -13.5809   -6.3467  -16.2188 C   0  0  0  0  0  0  0  0  0  0  0  0
  -13.5831   -5.5894  -17.3506 C   0  0  0  0  0  0  0  0  0  0  0  0
  -13.5830   -6.1076  -18.5959 N   0  0  0  0  0  0  0  0  0  0  0  0
  -13.5957   -7.4531  -18.7249 C   0  0  0  0  0  0  0  0  0  0  0  0
  -13.5310   -8.0010  -20.0043 C   0  0  0  0  0  0  0  0  0  0  0  0
  -13.5520   -9.3887  -20.2897 C   0  0  0  0  0  0  0  0  0  0  0  0
  -13.6762  -10.2696  -19.2090 C   0  0  0  0  0  0  0  0  0  0  0  0
  -13.7484   -9.7048  -17.9087 C   0  0  0  0  0  0  0  0  0  0  0  0
  -13.6742   -8.3129  -17.6415 C   0  0  0  0  0  0  0  0  0  0  0  0
  -13.3301   -9.5565  -21.6216 O   0  0  0  0  0  0  0  0  0  0  0  0
  -12.2443  -10.2767  -22.1586 C   0  0  0  0  0  0  0  0  0  0  0  0
  -13.6979  -11.6169  -19.0600 O   0  0  0  0  0  0  0  0  0  0  0  0
  -14.6327  -12.3529  -18.3117 C   0  0  0  0  0  0  0  0  0  0  0  0
 15 16  1  0  0  0
 16 14  1  0  0  0
 14 13  1  0  0  0
 13 11  1  0  0  0
 11  1  1  0  0  0
 11 12  1  0  0  0
  1  2  2  0  0  0
  1 10  1  0  0  0
  2  3  1  0  0  0
  3  4  1  0  0  0
  3  5  1  0  0  0
  5  6  1  0  0  0
  5 10  2  0  0  0
  6  7  2  0  0  0
  7 17  1  0  0  0
  7  8  1  0  0  0
 17 18  1  0  0  0
 18 19  1  0  0  0
 18 27  2  0  0  0
 19 20  2  0  0  0
 20 21  1  0  0  0
 21 22  2  0  0  0
 22 23  1  0  0  0
 22 27  1  0  0  0
 23 24  2  0  0  0
 24 28  1  0  0  0
 24 25  1  0  0  0
 28 29  1  0  0  0
 25 30  1  0  0  0
 25 26  2  0  0  0
 30 31  1  0  0  0
 26 27  1  0  0  0
  8  9  2  0  0  0
  9 10  1  0  0  0
M  END
> <minimizedAffinity>
-6.43052

$$$$
