CHEMBL4173465


 32 36  0  0  0  0  0  0  0  0999 V2000
  -27.5633   -1.7603   -8.7849 C   0  0  0  0  0  0  0  0  0  0  0  0
  -27.3302   -3.0489   -8.8616 N   0  0  0  0  0  0  0  0  0  0  0  0
  -28.1901   -3.5764   -7.9405 C   0  0  0  0  0  0  0  0  0  0  0  0
  -28.6450   -4.8881   -7.8344 C   0  0  0  0  0  0  0  0  0  0  0  0
  -29.7847   -5.1094   -7.0557 C   0  0  0  0  0  0  0  0  0  0  0  0
  -30.2953   -4.1032   -6.2231 C   0  0  0  0  0  0  0  0  0  0  0  0
  -29.7317   -2.8197   -6.1904 C   0  0  0  0  0  0  0  0  0  0  0  0
  -28.7167   -2.5834   -7.1186 C   0  0  0  0  0  0  0  0  0  0  0  0
  -28.0186   -1.4663   -7.5185 N   0  0  0  0  0  0  0  0  0  0  0  0
  -27.6970   -0.3310   -6.6975 C   0  0  0  0  0  0  0  0  0  0  0  0
  -27.7618   -1.0075   -9.8829 N   0  0  0  0  0  0  0  0  0  0  0  0
  -28.1491   -0.0877   -9.6903 H   0  0  0  0  0  0  0  0  0  0  0  0
  -27.9455   -1.4720  -11.2256 C   0  0  0  0  0  0  0  0  0  0  0  0
  -24.3150   -0.8573  -13.5372 C   0  0  0  0  0  0  0  0  0  0  0  0
  -25.3809   -1.5607  -14.1000 C   0  0  0  0  0  0  0  0  0  0  0  0
  -26.5497   -1.7880  -13.3552 C   0  0  0  0  0  0  0  0  0  0  0  0
  -26.6708   -1.3195  -12.0354 C   0  0  0  0  0  0  0  0  0  0  0  0
  -25.5946   -0.6142  -11.4861 C   0  0  0  0  0  0  0  0  0  0  0  0
  -24.4332   -0.3891  -12.2265 C   0  0  0  0  0  0  0  0  0  0  0  0
  -22.2461    0.3219  -13.4380 C   0  0  0  0  0  0  0  0  0  0  0  0
  -23.1223   -0.5553  -14.1322 O   0  0  0  0  0  0  0  0  0  0  0  0
  -30.4555   -6.3133   -7.0563 O   0  0  0  0  0  0  0  0  0  0  0  0
  -29.7027   -7.4704   -6.8816 C   0  0  0  0  0  0  0  0  0  0  0  0
  -29.3307   -8.2374   -7.9396 N   0  0  0  0  0  0  0  0  0  0  0  0
  -28.5574   -9.3168   -7.6992 C   0  0  0  0  0  0  0  0  0  0  0  0
  -28.1163   -9.7666   -6.5143 N   0  0  0  0  0  0  0  0  0  0  0  0
  -28.5628   -9.0041   -5.5006 C   0  0  0  0  0  0  0  0  0  0  0  0
  -29.3411   -7.8726   -5.6027 C   0  0  0  0  0  0  0  0  0  0  0  0
  -29.5278   -7.4403   -4.2775 C   0  0  0  0  0  0  0  0  0  0  0  0
  -28.9234   -8.2353   -3.3845 N   0  0  0  0  0  0  0  0  0  0  0  0
  -28.3353   -9.1791   -4.1631 N   0  0  0  0  0  0  0  0  0  0  0  0
  -27.5666  -10.2406   -3.5630 C   0  0  0  0  0  0  0  0  0  0  0  0
 20 21  1  0  0  0
 21 14  1  0  0  0
 14 15  1  0  0  0
 14 19  2  0  0  0
 15 16  2  0  0  0
 16 17  1  0  0  0
 17 13  1  0  0  0
 17 18  2  0  0  0
 13 11  1  0  0  0
 11  1  1  0  0  0
 11 12  1  0  0  0
  1  2  2  0  0  0
  1  9  1  0  0  0
  2  3  1  0  0  0
  3  4  1  0  0  0
  3  8  2  0  0  0
  4  5  2  0  0  0
  5 22  1  0  0  0
  5  6  1  0  0  0
 22 23  1  0  0  0
 23 24  1  0  0  0
 23 28  2  0  0  0
 24 25  2  0  0  0
 25 26  1  0  0  0
 26 27  2  0  0  0
 27 28  1  0  0  0
 27 31  1  0  0  0
 28 29  1  0  0  0
 29 30  2  0  0  0
 30 31  1  0  0  0
 31 32  1  0  0  0
  6  7  2  0  0  0
  7  8  1  0  0  0
  8  9  1  0  0  0
  9 10  1  0  0  0
 18 19  1  0  0  0
M  END
> <minimizedAffinity>
-9.31646

$$$$
