CHEMBL3676363


 38 40  0  0  0  0  0  0  0  0999 V2000
  -28.7973   -4.8356   -5.4934 C   0  0  0  0  0  0  0  0  0  0  0  0
  -28.4606   -6.1459   -5.1452 C   0  0  0  0  0  0  0  0  0  0  0  0
  -28.7772   -7.2130   -6.0105 C   0  0  0  0  0  0  0  0  0  0  0  0
  -28.6408   -8.5699   -5.6840 C   0  0  0  0  0  0  0  0  0  0  0  0
  -28.9873   -9.5424   -6.5468 N   0  0  0  0  0  0  0  0  0  0  0  0
  -29.4955   -9.1691   -7.7199 C   0  0  0  0  0  0  0  0  0  0  0  0
  -29.7087   -7.9111   -8.1133 N   0  0  0  0  0  0  0  0  0  0  0  0
  -29.3598   -6.9458   -7.2596 C   0  0  0  0  0  0  0  0  0  0  0  0
  -29.6227   -5.6261   -7.6084 C   0  0  0  0  0  0  0  0  0  0  0  0
  -29.3343   -4.5574   -6.7544 C   0  0  0  0  0  0  0  0  0  0  0  0
  -29.8454   -3.6215   -3.6570 C   0  0  0  0  0  0  0  0  0  0  0  0
  -29.6849   -3.0589   -2.5770 O   0  0  0  0  0  0  0  0  0  0  0  0
  -28.7695   -3.8578   -4.4819 N   0  0  0  0  0  0  0  0  0  0  0  0
  -27.9200   -3.8086   -3.9291 H   0  0  0  0  0  0  0  0  0  0  0  0
  -31.7278   -5.1710   -3.4811 C   0  0  0  0  0  0  0  0  0  0  0  0
  -31.1752   -4.1204   -4.1000 C   0  0  0  0  0  0  0  0  0  0  0  0
  -28.2182   -8.9522   -4.3813 N   0  0  0  0  0  0  0  0  0  0  0  0
  -28.4185   -8.2177   -3.7059 H   0  0  0  0  0  0  0  0  0  0  0  0
  -26.9737   -9.5833   -4.1341 C   0  0  0  0  0  0  0  0  0  0  0  0
  -25.8041   -9.1105   -4.7454 C   0  0  0  0  0  0  0  0  0  0  0  0
  -24.5554   -9.6119   -4.3827 C   0  0  0  0  0  0  0  0  0  0  0  0
  -24.4632  -10.6241   -3.4257 C   0  0  0  0  0  0  0  0  0  0  0  0
  -22.7168  -11.1598   -2.9041 Br  0  0  0  0  0  0  0  0  0  0  0  0
  -25.6253  -11.1756   -2.8730 C   0  0  0  0  0  0  0  0  0  0  0  0
  -25.5778  -12.4630   -1.7204 Cl  0  0  0  0  0  0  0  0  0  0  0  0
  -26.8708  -10.6553   -3.2412 C   0  0  0  0  0  0  0  0  0  0  0  0
  -28.0001  -11.1495   -2.7023 F   0  0  0  0  0  0  0  0  0  0  0  0
  -29.6892   -3.3207   -7.2350 O   0  0  0  0  0  0  0  0  0  0  0  0
  -28.6042   -2.4008   -7.4122 C   0  0  0  0  0  0  0  0  0  0  0  0
  -27.5682   -2.9719   -8.3868 C   0  0  0  0  0  0  0  0  0  0  0  0
  -27.8136   -2.5423   -9.7556 N   0  0  0  0  0  0  0  0  0  0  0  0
  -26.8939   -1.7707  -10.4358 C   0  0  0  0  0  0  0  0  0  0  0  0
  -25.7554   -1.5616  -10.0222 O   0  0  0  0  0  0  0  0  0  0  0  0
  -28.7671   -2.4874  -10.1054 H   0  0  0  0  0  0  0  0  0  0  0  0
  -27.3957   -1.2038  -11.7724 C   0  0  0  0  0  0  0  0  0  0  0  0
  -27.0925   -2.1107  -12.9129 N   0  0  0  0  0  0  0  0  0  0  0  0
  -28.2580   -2.2641  -13.7943 C   0  0  0  0  0  0  0  0  0  0  0  0
  -25.9898   -1.5312  -13.6943 C   0  0  0  0  0  0  0  0  0  0  0  0
 15 16  2  0  0  0
 16 11  1  0  0  0
 11 12  2  0  0  0
 11 13  1  0  0  0
 13  1  1  0  0  0
 13 14  1  0  0  0
  1  2  1  0  0  0
  1 10  2  0  0  0
  2  3  2  0  0  0
  3  4  1  0  0  0
  3  8  1  0  0  0
  4 17  1  0  0  0
  4  5  2  0  0  0
 17 19  1  0  0  0
 17 18  1  0  0  0
 19 20  1  0  0  0
 19 26  2  0  0  0
 20 21  2  0  0  0
 21 22  1  0  0  0
 22 23  1  0  0  0
 22 24  2  0  0  0
 24 25  1  0  0  0
 24 26  1  0  0  0
 26 27  1  0  0  0
  5  6  1  0  0  0
  6  7  2  0  0  0
  7  8  1  0  0  0
  8  9  2  0  0  0
  9 10  1  0  0  0
 10 28  1  0  0  0
 28 29  1  0  0  0
 29 30  1  0  0  0
 30 31  1  0  0  0
 31 32  1  0  0  0
 31 34  1  0  0  0
 32 33  2  0  0  0
 32 35  1  0  0  0
 35 36  1  0  0  0
 36 37  1  0  0  0
 36 38  1  0  0  0
M  END
> <minimizedAffinity>
-8.04842

$$$$
