CHEMBL3939764


 34 37  0  0  0  0  0  0  0  0999 V2000
  -28.1250   -8.2849   -5.9171 N   0  0  0  0  0  0  0  0  0  0  0  0
  -28.5467   -6.8903   -5.5419 C   0  0  0  0  0  0  0  0  0  0  0  0
  -28.8865   -6.0847   -6.5872 C   0  0  0  0  0  0  0  0  0  0  0  0
  -29.0803   -4.7678   -6.3482 C   0  0  0  0  0  0  0  0  0  0  0  0
  -28.6540   -4.1700   -5.1182 C   0  0  0  0  0  0  0  0  0  0  0  0
  -27.9597   -3.1888   -5.4945 N   0  0  0  0  0  0  0  0  0  0  0  0
  -28.7654   -2.1933   -5.6768 C   0  0  0  0  0  0  0  0  0  0  0  0
  -29.1950   -1.6173   -4.6002 C   0  0  0  0  0  0  0  0  0  0  0  0
  -29.1292   -2.7253   -3.5050 N   0  0  0  0  0  0  0  0  0  0  0  0
  -28.8484   -4.3643   -3.8787 C   0  0  0  0  0  0  0  0  0  0  0  0
  -28.5643   -6.0585   -4.2173 C   0  0  0  0  0  0  0  0  0  0  0  0
  -29.2971    0.0104   -5.2493 C   0  0  0  0  0  0  0  0  0  0  0  0
  -28.5271    0.9328   -6.1729 C   0  0  0  0  0  0  0  0  0  0  0  0
  -29.2391    1.8933   -6.8450 N   0  0  0  0  0  0  0  0  0  0  0  0
  -30.5272    1.6481   -6.5615 N   0  0  0  0  0  0  0  0  0  0  0  0
  -31.6264    2.4926   -7.1083 C   0  0  0  0  0  0  0  0  0  0  0  0
  -30.5916    0.5373   -5.6866 C   0  0  0  0  0  0  0  0  0  0  0  0
  -31.2487   -9.8406   -8.2273 C   0  0  0  0  0  0  0  0  0  0  0  0
  -30.4722  -10.3641   -9.1427 C   0  0  0  0  0  0  0  0  0  0  0  0
  -29.0285  -10.3766   -9.0023 C   0  0  0  0  0  0  0  0  0  0  0  0
  -28.2537   -9.8236   -7.9431 C   0  0  0  0  0  0  0  0  0  0  0  0
  -28.9377   -9.1236   -7.0040 C   0  0  0  0  0  0  0  0  0  0  0  0
  -30.4619   -9.2985   -7.2814 C   0  0  0  0  0  0  0  0  0  0  0  0
  -32.8700   -8.6567   -7.1939 C   0  0  0  0  0  0  0  0  0  0  0  0
  -32.5602   -9.4633   -8.3056 O   0  0  0  0  0  0  0  0  0  0  0  0
  -28.2823  -10.9161  -10.0133 O   0  0  0  0  0  0  0  0  0  0  0  0
  -28.8459  -10.5839  -11.2714 C   0  0  0  0  0  0  0  0  0  0  0  0
  -27.4986   -8.9213   -4.4974 C   0  0  0  0  0  0  0  0  0  0  0  0
  -26.2032   -9.8104   -4.4569 C   0  0  0  0  0  0  0  0  0  0  0  0
  -26.1154  -10.9395   -3.6356 O   0  0  0  0  0  0  0  0  0  0  0  0
  -26.2571  -10.6109   -2.7305 H   0  0  0  0  0  0  0  0  0  0  0  0
  -25.3994   -8.8682   -3.8046 C   0  0  0  0  0  0  0  0  0  0  0  0
  -24.2844   -9.1381   -5.0240 O   0  0  0  0  0  0  0  0  0  0  0  0
  -23.3379   -8.9146   -4.9124 H   0  0  0  0  0  0  0  0  0  0  0  0
 24 25  1  0  0  0
 25 18  1  0  0  0
 18 19  1  0  0  0
 18 23  2  0  0  0
 19 20  2  0  0  0
 20 26  1  0  0  0
 20 21  1  0  0  0
 26 27  1  0  0  0
 21 22  2  0  0  0
 22  1  1  0  0  0
 22 23  1  0  0  0
  1 28  1  0  0  0
  1  2  1  0  0  0
 29 32  1  0  0  0
 29 30  1  0  0  0
 29 28  1  0  0  0
 30 31  1  0  0  0
 32 33  1  0  0  0
 33 34  1  0  0  0
  2  3  1  0  0  0
  2 11  2  0  0  0
  3  4  2  0  0  0
  4  5  1  0  0  0
  5  6  1  0  0  0
  5 10  2  0  0  0
  6  7  2  0  0  0
  7  8  1  0  0  0
  8 12  1  0  0  0
  8  9  2  0  0  0
 12 13  1  0  0  0
 12 17  2  0  0  0
 13 14  2  0  0  0
 14 15  1  0  0  0
 15 16  1  0  0  0
 15 17  1  0  0  0
  9 10  1  0  0  0
 10 11  1  0  0  0
M  END
> <minimizedAffinity>
-9.98948

$$$$
