CHEMBL606255


 27 30  0  0  0  0  0  0  0  0999 V2000
  -28.8052   -7.2420   -6.0878 C   0  0  0  0  0  0  0  0  0  0  0  0
  -29.7785   -7.3568   -5.1671 N   0  0  0  0  0  0  0  0  0  0  0  0
  -30.3923   -6.2418   -4.7616 C   0  0  0  0  0  0  0  0  0  0  0  0
  -30.0697   -4.9971   -5.2396 C   0  0  0  0  0  0  0  0  0  0  0  0
  -29.0562   -4.9445   -6.1824 C   0  0  0  0  0  0  0  0  0  0  0  0
  -28.4191   -6.0677   -6.6109 N   0  0  0  0  0  0  0  0  0  0  0  0
  -28.6132   -3.6431   -6.7441 C   0  0  0  0  0  0  0  0  0  0  0  0
  -28.4417   -3.6123   -8.0959 N   0  0  0  0  0  0  0  0  0  0  0  0
  -28.0350   -2.4532   -8.6598 C   0  0  0  0  0  0  0  0  0  0  0  0
  -27.7386   -1.3096   -7.9418 C   0  0  0  0  0  0  0  0  0  0  0  0
  -27.8924   -1.3436   -6.5625 C   0  0  0  0  0  0  0  0  0  0  0  0
  -28.3923   -2.4967   -5.9510 C   0  0  0  0  0  0  0  0  0  0  0  0
  -28.6821   -2.3862   -4.5762 N   0  0  0  0  0  0  0  0  0  0  0  0
  -29.7443   -2.9443   -3.9183 C   0  0  0  0  0  0  0  0  0  0  0  0
  -29.9244   -2.7005   -2.7261 O   0  0  0  0  0  0  0  0  0  0  0  0
  -30.7258   -3.7682   -4.7196 C   0  0  0  0  0  0  0  0  0  0  0  0
  -28.2162   -1.6682   -4.0332 H   0  0  0  0  0  0  0  0  0  0  0  0
  -28.1510   -8.4078   -6.5080 N   0  0  0  0  0  0  0  0  0  0  0  0
  -27.1850   -8.3456   -6.2117 H   0  0  0  0  0  0  0  0  0  0  0  0
  -28.6883  -10.2499  -10.2863 C   0  0  0  0  0  0  0  0  0  0  0  0
  -27.4101  -10.1094   -9.7541 C   0  0  0  0  0  0  0  0  0  0  0  0
  -27.2327   -9.5050   -8.5057 C   0  0  0  0  0  0  0  0  0  0  0  0
  -28.3199   -9.0159   -7.7690 C   0  0  0  0  0  0  0  0  0  0  0  0
  -29.6036   -9.2046   -8.2883 C   0  0  0  0  0  0  0  0  0  0  0  0
  -29.7838   -9.8012   -9.5440 C   0  0  0  0  0  0  0  0  0  0  0  0
  -28.7384   -9.9897  -12.6455 C   0  0  0  0  0  0  0  0  0  0  0  0
  -28.9902  -10.7994  -11.5020 O   0  0  0  0  0  0  0  0  0  0  0  0
 26 27  1  0  0  0
 27 20  1  0  0  0
 20 21  1  0  0  0
 20 25  2  0  0  0
 21 22  2  0  0  0
 22 23  1  0  0  0
 23 18  1  0  0  0
 23 24  2  0  0  0
 18  1  1  0  0  0
 18 19  1  0  0  0
  1  2  1  0  0  0
  1  6  2  0  0  0
  2  3  2  0  0  0
  3  4  1  0  0  0
  4  5  2  0  0  0
  4 16  1  0  0  0
  5  6  1  0  0  0
  5  7  1  0  0  0
  7  8  1  0  0  0
  7 12  2  0  0  0
  8  9  2  0  0  0
  9 10  1  0  0  0
 10 11  2  0  0  0
 11 12  1  0  0  0
 12 13  1  0  0  0
 13 14  1  0  0  0
 13 17  1  0  0  0
 14 15  2  0  0  0
 14 16  1  0  0  0
 24 25  1  0  0  0
M  END
> <minimizedAffinity>
-8.32467

$$$$
