CHEMBL3758839


 34 36  0  0  0  0  0  0  0  0999 V2000
  -28.1871   -1.0713   -6.2432 C   0  0  0  0  0  0  0  0  0  0  0  0
  -28.6461   -1.7763   -5.1239 C   0  0  0  0  0  0  0  0  0  0  0  0
  -28.8165   -3.1469   -5.1392 C   0  0  0  0  0  0  0  0  0  0  0  0
  -29.1614   -3.7453   -3.9974 N   0  0  0  0  0  0  0  0  0  0  0  0
  -29.2609   -5.0748   -4.0301 C   0  0  0  0  0  0  0  0  0  0  0  0
  -29.0471   -5.8475   -5.0945 N   0  0  0  0  0  0  0  0  0  0  0  0
  -28.7064   -5.2317   -6.2456 C   0  0  0  0  0  0  0  0  0  0  0  0
  -28.5884   -3.8392   -6.3324 C   0  0  0  0  0  0  0  0  0  0  0  0
  -28.2629   -3.1214   -7.5068 C   0  0  0  0  0  0  0  0  0  0  0  0
  -28.0326   -1.7473   -7.4623 C   0  0  0  0  0  0  0  0  0  0  0  0
  -28.1430    0.8771   -4.8945 C   0  0  0  0  0  0  0  0  0  0  0  0
  -27.9297    0.2714   -6.1712 O   0  0  0  0  0  0  0  0  0  0  0  0
  -28.4184   -6.0322   -7.3865 N   0  0  0  0  0  0  0  0  0  0  0  0
  -27.4191   -6.2043   -7.4265 H   0  0  0  0  0  0  0  0  0  0  0  0
  -29.1751   -7.1680   -7.7468 C   0  0  0  0  0  0  0  0  0  0  0  0
  -30.5226   -7.2666   -7.3720 C   0  0  0  0  0  0  0  0  0  0  0  0
  -31.2561   -8.4221   -7.6321 C   0  0  0  0  0  0  0  0  0  0  0  0
  -30.6462   -9.4866   -8.2871 C   0  0  0  0  0  0  0  0  0  0  0  0
  -31.5290  -10.9384   -8.5543 Cl  0  0  0  0  0  0  0  0  0  0  0  0
  -29.3213   -9.3892   -8.7110 C   0  0  0  0  0  0  0  0  0  0  0  0
  -28.5887   -8.2270   -8.4495 C   0  0  0  0  0  0  0  0  0  0  0  0
  -27.6702   -1.2079   -8.6735 O   0  0  0  0  0  0  0  0  0  0  0  0
  -27.2754   -2.1766   -9.6385 C   0  0  0  0  0  0  0  0  0  0  0  0
  -27.0115   -1.5212  -10.9938 C   0  0  0  0  0  0  0  0  0  0  0  0
  -25.5361   -1.1277  -11.0419 C   0  0  0  0  0  0  0  0  0  0  0  0
  -25.1022   -0.5007  -12.3602 C   0  0  0  0  0  0  0  0  0  0  0  0
  -23.6484   -0.0325  -12.2494 C   0  0  0  0  0  0  0  0  0  0  0  0
  -22.9467   -0.0466  -13.6023 C   0  0  0  0  0  0  0  0  0  0  0  0
  -22.1340    1.2145  -13.8333 C   0  0  0  0  0  0  0  0  0  0  0  0
  -20.9108    1.2582  -13.8965 O   0  0  0  0  0  0  0  0  0  0  0  0
  -22.9160    2.3356  -13.9705 N   0  0  0  0  0  0  0  0  0  0  0  0
  -22.2256    3.5618  -14.0992 O   0  0  0  0  0  0  0  0  0  0  0  0
  -23.8922    2.3848  -13.7009 H   0  0  0  0  0  0  0  0  0  0  0  0
  -21.2851    3.2751  -14.0915 H   0  0  0  0  0  0  0  0  0  0  0  0
 11 12  1  0  0  0
 12  1  1  0  0  0
  1  2  1  0  0  0
  1 10  2  0  0  0
  2  3  2  0  0  0
  3  4  1  0  0  0
  3  8  1  0  0  0
  4  5  2  0  0  0
  5  6  1  0  0  0
  6  7  2  0  0  0
  7 13  1  0  0  0
  7  8  1  0  0  0
 13 15  1  0  0  0
 13 14  1  0  0  0
 15 16  1  0  0  0
 15 21  2  0  0  0
 16 17  2  0  0  0
 17 18  1  0  0  0
 18 19  1  0  0  0
 18 20  2  0  0  0
 20 21  1  0  0  0
  8  9  2  0  0  0
  9 10  1  0  0  0
 10 22  1  0  0  0
 22 23  1  0  0  0
 23 24  1  0  0  0
 24 25  1  0  0  0
 25 26  1  0  0  0
 26 27  1  0  0  0
 27 28  1  0  0  0
 28 29  1  0  0  0
 29 30  2  0  0  0
 29 31  1  0  0  0
 31 32  1  0  0  0
 31 33  1  0  0  0
 32 34  1  0  0  0
M  END
> <minimizedAffinity>
-8.95395

$$$$
