CHEMBL3921434


 38 41  0  0  0  0  0  0  0  0999 V2000
  -14.2897   -0.7727  -14.2384 C   0  0  0  0  0  0  0  0  0  0  0  0
  -13.0886   -0.0936  -14.0104 C   0  0  0  0  0  0  0  0  0  0  0  0
  -12.0791   -0.6634  -13.2291 C   0  0  0  0  0  0  0  0  0  0  0  0
  -12.2606   -1.9188  -12.6540 C   0  0  0  0  0  0  0  0  0  0  0  0
  -13.4657   -2.5968  -12.8457 C   0  0  0  0  0  0  0  0  0  0  0  0
  -14.4577   -2.0271  -13.6428 C   0  0  0  0  0  0  0  0  0  0  0  0
  -15.5985   -2.7077  -13.8420 F   0  0  0  0  0  0  0  0  0  0  0  0
  -16.8806    0.1803  -13.3797 O   0  0  0  0  0  0  0  0  0  0  0  0
  -16.5562    0.1884  -14.5621 C   0  0  0  0  0  0  0  0  0  0  0  0
  -15.3443   -0.2636  -15.0387 N   0  0  0  0  0  0  0  0  0  0  0  0
  -17.3712    0.6884  -15.5587 N   0  0  0  0  0  0  0  0  0  0  0  0
  -15.1037   -0.0410  -15.9960 H   0  0  0  0  0  0  0  0  0  0  0  0
  -17.3064    0.2617  -16.4743 H   0  0  0  0  0  0  0  0  0  0  0  0
  -18.5229    1.4769  -15.3083 C   0  0  0  0  0  0  0  0  0  0  0  0
  -19.7024    0.9313  -14.7853 C   0  0  0  0  0  0  0  0  0  0  0  0
  -20.8241    1.7298  -14.5124 C   0  0  0  0  0  0  0  0  0  0  0  0
  -20.7502    3.1069  -14.7656 C   0  0  0  0  0  0  0  0  0  0  0  0
  -19.5771    3.6663  -15.2805 C   0  0  0  0  0  0  0  0  0  0  0  0
  -18.4748    2.8523  -15.5408 C   0  0  0  0  0  0  0  0  0  0  0  0
  -17.3565    3.4071  -16.0339 F   0  0  0  0  0  0  0  0  0  0  0  0
  -22.0750    1.1096  -13.9355 C   0  0  0  0  0  0  0  0  0  0  0  0
  -23.0618    2.0078  -13.6632 F   0  0  0  0  0  0  0  0  0  0  0  0
  -22.6298    0.1952  -14.7788 F   0  0  0  0  0  0  0  0  0  0  0  0
  -21.8399    0.4484  -12.7690 F   0  0  0  0  0  0  0  0  0  0  0  0
  -11.2488   -2.3622  -11.8336 O   0  0  0  0  0  0  0  0  0  0  0  0
  -11.5559   -3.2902  -10.8469 C   0  0  0  0  0  0  0  0  0  0  0  0
  -11.6502   -4.6049  -11.2527 C   0  0  0  0  0  0  0  0  0  0  0  0
  -11.9800   -5.5099  -10.2689 C   0  0  0  0  0  0  0  0  0  0  0  0
  -12.1826   -5.1273   -9.0022 N   0  0  0  0  0  0  0  0  0  0  0  0
  -12.0847   -3.8289   -8.7195 C   0  0  0  0  0  0  0  0  0  0  0  0
  -11.7895   -2.8686   -9.5927 N   0  0  0  0  0  0  0  0  0  0  0  0
  -12.1305   -6.8612  -10.6175 N   0  0  0  0  0  0  0  0  0  0  0  0
  -13.1614   -7.3348  -11.4041 C   0  0  0  0  0  0  0  0  0  0  0  0
  -14.0962   -6.6967  -11.8653 O   0  0  0  0  0  0  0  0  0  0  0  0
  -11.4298   -7.5127  -10.2955 H   0  0  0  0  0  0  0  0  0  0  0  0
  -13.0706   -8.7982  -11.7149 C   0  0  0  0  0  0  0  0  0  0  0  0
  -11.7307   -9.3782  -12.1177 C   0  0  0  0  0  0  0  0  0  0  0  0
  -12.8195   -9.2364  -13.1414 C   0  0  0  0  0  0  0  0  0  0  0  0
  8  9  2  0  0  0
  9 10  1  0  0  0
  9 11  1  0  0  0
 10  1  1  0  0  0
 10 12  1  0  0  0
  1  2  1  0  0  0
  1  6  2  0  0  0
  2  3  2  0  0  0
  3  4  1  0  0  0
  4 25  1  0  0  0
  4  5  2  0  0  0
 25 26  1  0  0  0
 26 27  1  0  0  0
 26 31  2  0  0  0
 27 28  2  0  0  0
 28 32  1  0  0  0
 28 29  1  0  0  0
 32 33  1  0  0  0
 32 35  1  0  0  0
 33 34  2  0  0  0
 33 36  1  0  0  0
 36 37  1  0  0  0
 36 38  1  0  0  0
 37 38  1  0  0  0
 29 30  2  0  0  0
 30 31  1  0  0  0
  5  6  1  0  0  0
  6  7  1  0  0  0
 11 14  1  0  0  0
 11 13  1  0  0  0
 14 15  1  0  0  0
 14 19  2  0  0  0
 15 16  2  0  0  0
 16 21  1  0  0  0
 16 17  1  0  0  0
 21 22  1  0  0  0
 21 23  1  0  0  0
 21 24  1  0  0  0
 17 18  2  0  0  0
 18 19  1  0  0  0
 19 20  1  0  0  0
M  END
> <minimizedAffinity>
-9.82310

$$$$
