CHEMBL4211935


 31 34  0  0  0  0  0  0  0  0999 V2000
  -28.7699   -4.3840   -7.6536 C   0  0  0  0  0  0  0  0  0  0  0  0
  -27.9756   -3.9412   -8.7270 C   0  0  0  0  0  0  0  0  0  0  0  0
  -27.5113   -2.6262   -8.7924 C   0  0  0  0  0  0  0  0  0  0  0  0
  -27.9018   -1.7294   -7.7949 C   0  0  0  0  0  0  0  0  0  0  0  0
  -28.6651   -2.1649   -6.7046 C   0  0  0  0  0  0  0  0  0  0  0  0
  -29.0801   -3.5009   -6.6038 C   0  0  0  0  0  0  0  0  0  0  0  0
  -29.8329   -3.9552   -5.3834 C   0  0  0  0  0  0  0  0  0  0  0  0
  -32.0606   -9.2742   -7.2922 C   0  0  0  0  0  0  0  0  0  0  0  0
  -32.2025   -7.9095   -7.1523 C   0  0  0  0  0  0  0  0  0  0  0  0
  -30.9523   -7.3876   -7.3984 N   0  0  0  0  0  0  0  0  0  0  0  0
  -30.5104   -6.0660   -7.3582 C   0  0  0  0  0  0  0  0  0  0  0  0
  -29.2244   -5.7866   -7.6691 C   0  0  0  0  0  0  0  0  0  0  0  0
  -28.3541   -6.8980   -8.0577 C   0  0  0  0  0  0  0  0  0  0  0  0
  -28.7915   -8.1710   -8.0802 C   0  0  0  0  0  0  0  0  0  0  0  0
  -30.1359   -8.4591   -7.7247 C   0  0  0  0  0  0  0  0  0  0  0  0
  -30.7852   -9.5978   -7.6482 N   0  0  0  0  0  0  0  0  0  0  0  0
  -34.1116  -12.2845   -6.5713 C   0  0  0  0  0  0  0  0  0  0  0  0
  -32.9006  -11.3942   -6.4599 C   0  0  0  0  0  0  0  0  0  0  0  0
  -31.9234  -11.7662   -5.8185 O   0  0  0  0  0  0  0  0  0  0  0  0
  -33.0637  -10.2005   -7.1379 N   0  0  0  0  0  0  0  0  0  0  0  0
  -33.9682   -9.9596   -7.5093 H   0  0  0  0  0  0  0  0  0  0  0  0
  -26.6532   -2.1526   -9.8126 N   0  0  0  0  0  0  0  0  0  0  0  0
  -27.0553   -1.6221  -11.0292 C   0  0  0  0  0  0  0  0  0  0  0  0
  -28.2124   -1.5031  -11.4200 O   0  0  0  0  0  0  0  0  0  0  0  0
  -25.6733   -2.3822   -9.7115 H   0  0  0  0  0  0  0  0  0  0  0  0
  -25.9622   -1.2351  -11.9672 C   0  0  0  0  0  0  0  0  0  0  0  0
  -24.8941   -0.4822  -11.4610 C   0  0  0  0  0  0  0  0  0  0  0  0
  -23.8374   -0.1043  -12.2914 C   0  0  0  0  0  0  0  0  0  0  0  0
  -23.8387   -0.4893  -13.6321 C   0  0  0  0  0  0  0  0  0  0  0  0
  -24.8899   -1.2549  -14.1378 C   0  0  0  0  0  0  0  0  0  0  0  0
  -25.9518   -1.6314  -13.3090 C   0  0  0  0  0  0  0  0  0  0  0  0
 17 18  1  0  0  0
 18 19  2  0  0  0
 18 20  1  0  0  0
 20  8  1  0  0  0
 20 21  1  0  0  0
  8  9  2  0  0  0
  8 16  1  0  0  0
  9 10  1  0  0  0
 10 11  1  0  0  0
 10 15  1  0  0  0
 11 12  2  0  0  0
 12  1  1  0  0  0
 12 13  1  0  0  0
  1  2  1  0  0  0
  1  6  2  0  0  0
  2  3  2  0  0  0
  3 22  1  0  0  0
  3  4  1  0  0  0
 22 23  1  0  0  0
 22 25  1  0  0  0
 23 24  2  0  0  0
 23 26  1  0  0  0
 26 27  1  0  0  0
 26 31  2  0  0  0
 27 28  2  0  0  0
 28 29  1  0  0  0
 29 30  2  0  0  0
 30 31  1  0  0  0
  4  5  2  0  0  0
  5  6  1  0  0  0
  6  7  1  0  0  0
 13 14  2  0  0  0
 14 15  1  0  0  0
 15 16  2  0  0  0
M  END
> <minimizedAffinity>
-9.61297

$$$$
