CHEMBL385937


 34 37  0  0  0  0  0  0  0  0999 V2000
  -25.3194   -1.0177  -15.7390 C   0  0  0  0  0  0  0  0  0  0  0  0
  -25.6765   -1.2293  -14.2825 C   0  0  0  0  0  0  0  0  0  0  0  0
  -26.8430   -1.9189  -13.9626 C   0  0  0  0  0  0  0  0  0  0  0  0
  -27.2350   -2.0999  -12.6312 C   0  0  0  0  0  0  0  0  0  0  0  0
  -26.4955   -1.5512  -11.5847 C   0  0  0  0  0  0  0  0  0  0  0  0
  -25.3334   -0.8454  -11.8980 C   0  0  0  0  0  0  0  0  0  0  0  0
  -24.8828   -0.7396  -13.2356 C   0  0  0  0  0  0  0  0  0  0  0  0
  -23.7259    0.0812  -13.5092 C   0  0  0  0  0  0  0  0  0  0  0  0
  -22.6649   -0.6836  -13.9663 C   0  0  0  0  0  0  0  0  0  0  0  0
  -21.5410   -0.1178  -14.3353 C   0  0  0  0  0  0  0  0  0  0  0  0
  -21.4293    1.1781  -14.0903 C   0  0  0  0  0  0  0  0  0  0  0  0
  -20.3019    1.6868  -14.4217 N   0  0  0  0  0  0  0  0  0  0  0  0
  -19.1902    2.1112  -14.7630 C   0  0  0  0  0  0  0  0  0  0  0  0
  -18.6813    0.8155  -14.8202 N   0  0  0  0  0  0  0  0  0  0  0  0
  -19.9610    3.2138  -14.6737 N   0  0  0  0  0  0  0  0  0  0  0  0
  -21.5573    3.3077  -14.2537 C   0  0  0  0  0  0  0  0  0  0  0  0
  -22.3458    2.1238  -13.8640 C   0  0  0  0  0  0  0  0  0  0  0  0
  -23.6155    1.5044  -13.4488 C   0  0  0  0  0  0  0  0  0  0  0  0
  -19.3055    0.0693  -14.5618 H   0  0  0  0  0  0  0  0  0  0  0  0
  -17.8006    0.4192  -15.0830 H   0  0  0  0  0  0  0  0  0  0  0  0
  -26.8677   -1.7049  -10.1446 C   0  0  0  0  0  0  0  0  0  0  0  0
  -26.0790   -1.2640   -9.3108 O   0  0  0  0  0  0  0  0  0  0  0  0
  -28.0349   -2.4024   -9.8225 N   0  0  0  0  0  0  0  0  0  0  0  0
  -28.5697   -2.8730  -10.5377 H   0  0  0  0  0  0  0  0  0  0  0  0
  -28.4109   -2.6574   -8.4818 C   0  0  0  0  0  0  0  0  0  0  0  0
  -29.1151   -3.8182   -8.1573 C   0  0  0  0  0  0  0  0  0  0  0  0
  -29.4837   -4.0954   -6.8463 C   0  0  0  0  0  0  0  0  0  0  0  0
  -29.1799   -3.1916   -5.8388 C   0  0  0  0  0  0  0  0  0  0  0  0
  -28.4832   -2.0115   -6.1364 C   0  0  0  0  0  0  0  0  0  0  0  0
  -28.0717   -1.7611   -7.4624 C   0  0  0  0  0  0  0  0  0  0  0  0
  -28.2093   -1.0212   -5.0362 C   0  0  0  0  0  0  0  0  0  0  0  0
  -27.9568   -1.6282   -3.8439 F   0  0  0  0  0  0  0  0  0  0  0  0
  -27.1302   -0.2347   -5.2973 F   0  0  0  0  0  0  0  0  0  0  0  0
  -29.2463   -0.1674   -4.8070 F   0  0  0  0  0  0  0  0  0  0  0  0
  1  2  1  0  0  0
  2  3  1  0  0  0
  2  7  2  0  0  0
  3  4  2  0  0  0
  4  5  1  0  0  0
  5 21  1  0  0  0
  5  6  2  0  0  0
 21 22  2  0  0  0
 21 23  1  0  0  0
 23 25  1  0  0  0
 23 24  1  0  0  0
 25 26  1  0  0  0
 25 30  2  0  0  0
 26 27  2  0  0  0
 27 28  1  0  0  0
 28 29  2  0  0  0
 29 31  1  0  0  0
 29 30  1  0  0  0
 31 32  1  0  0  0
 31 33  1  0  0  0
 31 34  1  0  0  0
  6  7  1  0  0  0
  7  8  1  0  0  0
  8  9  1  0  0  0
  8 18  2  0  0  0
  9 10  2  0  0  0
 10 11  1  0  0  0
 11 12  1  0  0  0
 11 17  2  0  0  0
 12 13  2  0  0  0
 13 14  1  0  0  0
 13 15  1  0  0  0
 14 19  1  0  0  0
 14 20  1  0  0  0
 15 16  2  0  0  0
 16 17  1  0  0  0
 17 18  1  0  0  0
M  END
> <minimizedAffinity>
-12.28287

$$$$
