CHEMBL3933000


 45 49  0  0  0  0  0  0  0  0999 V2000
  -29.2673   -3.1640   -7.7815 N   0  0  0  0  0  0  0  0  0  0  0  0
  -28.2013   -2.7050   -8.7496 C   0  0  0  0  0  0  0  0  0  0  0  0
  -28.0666   -1.3246   -8.7141 C   0  0  0  0  0  0  0  0  0  0  0  0
  -27.2514   -0.8198   -9.6586 C   0  0  0  0  0  0  0  0  0  0  0  0
  -26.7271   -1.5235  -10.6629 C   0  0  0  0  0  0  0  0  0  0  0  0
  -26.8709   -0.7436  -11.6789 N   0  0  0  0  0  0  0  0  0  0  0  0
  -25.7396   -0.2273  -12.0457 C   0  0  0  0  0  0  0  0  0  0  0  0
  -24.6537   -0.9837  -12.2657 C   0  0  0  0  0  0  0  0  0  0  0  0
  -24.8700   -2.3502  -11.7398 N   0  0  0  0  0  0  0  0  0  0  0  0
  -26.1055   -2.6940  -10.6596 C   0  0  0  0  0  0  0  0  0  0  0  0
  -27.2325   -3.4088   -9.5992 C   0  0  0  0  0  0  0  0  0  0  0  0
  -23.5979    0.0098  -12.9678 C   0  0  0  0  0  0  0  0  0  0  0  0
  -22.4748   -0.4016  -13.8852 C   0  0  0  0  0  0  0  0  0  0  0  0
  -21.7562    0.5899  -14.4173 N   0  0  0  0  0  0  0  0  0  0  0  0
  -22.3131    1.6865  -13.8970 N   0  0  0  0  0  0  0  0  0  0  0  0
  -21.8932    2.9830  -14.4191 C   0  0  0  0  0  0  0  0  0  0  0  0
  -23.3353    1.3808  -12.9722 C   0  0  0  0  0  0  0  0  0  0  0  0
  -28.1921   -1.3644   -4.5711 C   0  0  0  0  0  0  0  0  0  0  0  0
  -28.9427   -1.9411   -3.5626 C   0  0  0  0  0  0  0  0  0  0  0  0
  -29.8364   -2.9496   -3.9179 C   0  0  0  0  0  0  0  0  0  0  0  0
  -29.9466   -3.3954   -5.2685 C   0  0  0  0  0  0  0  0  0  0  0  0
  -29.1721   -2.8355   -6.3155 C   0  0  0  0  0  0  0  0  0  0  0  0
  -28.2339   -1.8732   -5.9149 C   0  0  0  0  0  0  0  0  0  0  0  0
  -28.1479    0.9232   -4.7774 C   0  0  0  0  0  0  0  0  0  0  0  0
  -27.4859   -0.2269   -4.2398 O   0  0  0  0  0  0  0  0  0  0  0  0
  -30.6661   -3.5428   -2.9913 O   0  0  0  0  0  0  0  0  0  0  0  0
  -31.7544   -4.2751   -3.5733 C   0  0  0  0  0  0  0  0  0  0  0  0
  -29.7380   -4.5601   -8.0405 C   0  0  0  0  0  0  0  0  0  0  0  0
  -28.7320   -5.5974   -7.5048 C   0  0  0  0  0  0  0  0  0  0  0  0
  -29.2905   -6.8236   -6.7554 C   0  0  0  0  0  0  0  0  0  0  0  0
  -29.1439   -8.0444   -7.5955 N   0  0  0  0  0  0  0  0  0  0  0  0
  -30.4356   -8.7013   -7.8665 C   0  0  0  0  0  0  0  0  0  0  0  0
  -30.6582   -9.5664   -6.6430 C   0  0  0  0  0  0  0  0  0  0  0  0
  -29.2802  -10.1513   -6.4007 C   0  0  0  0  0  0  0  0  0  0  0  0
  -28.3157   -9.0949   -6.9462 C   0  0  0  0  0  0  0  0  0  0  0  0
  -27.2929   -9.6444   -7.9539 C   0  0  0  0  0  0  0  0  0  0  0  0
  -27.2861   -8.8233   -9.1852 N   0  0  0  0  0  0  0  0  0  0  0  0
  -26.6394   -8.0299   -9.1493 H   0  0  0  0  0  0  0  0  0  0  0  0
  -26.9728   -9.7044  -10.6099 S   0  0  0  0  0  0  0  0  0  0  0  0
  -26.3847   -8.7142  -11.4948 O   0  0  0  0  0  0  0  0  0  0  0  0
  -26.1479  -10.8142  -10.1631 O   0  0  0  0  0  0  0  0  0  0  0  0
  -28.6746  -10.3099  -11.2862 C   0  0  0  0  0  0  0  0  0  0  0  0
  -28.8137  -10.1249  -12.6313 F   0  0  0  0  0  0  0  0  0  0  0  0
  -28.8536  -11.6402  -11.0533 F   0  0  0  0  0  0  0  0  0  0  0  0
  -29.7129   -9.6563  -10.6903 F   0  0  0  0  0  0  0  0  0  0  0  0
 24 25  1  0  0  0
 25 18  1  0  0  0
 18 19  1  0  0  0
 18 23  2  0  0  0
 19 20  2  0  0  0
 20 26  1  0  0  0
 20 21  1  0  0  0
 26 27  1  0  0  0
 21 22  2  0  0  0
 22  1  1  0  0  0
 22 23  1  0  0  0
  1 28  1  0  0  0
  1  2  1  0  0  0
 28 29  1  0  0  0
 29 30  1  0  0  0
 30 31  1  0  0  0
 31 32  1  0  0  0
 31 35  1  0  0  0
 32 33  1  0  0  0
 33 34  1  0  0  0
 34 35  1  0  0  0
 35 36  1  0  0  0
 36 37  1  0  0  0
 37 39  1  0  0  0
 37 38  1  0  0  0
 39 40  2  0  0  0
 39 41  2  0  0  0
 39 42  1  0  0  0
 42 43  1  0  0  0
 42 44  1  0  0  0
 42 45  1  0  0  0
  2  3  1  0  0  0
  2 11  2  0  0  0
  3  4  2  0  0  0
  4  5  1  0  0  0
  5  6  1  0  0  0
  5 10  2  0  0  0
  6  7  2  0  0  0
  7  8  1  0  0  0
  8 12  1  0  0  0
  8  9  2  0  0  0
 12 13  1  0  0  0
 12 17  2  0  0  0
 13 14  2  0  0  0
 14 15  1  0  0  0
 15 16  1  0  0  0
 15 17  1  0  0  0
  9 10  1  0  0  0
 10 11  1  0  0  0
M  END
> <minimizedAffinity>
-7.63781

$$$$
