CHEMBL257794


 35 40  0  0  0  0  0  0  0  0999 V2000
  -29.0632   -1.7803   -6.4314 C   0  0  0  0  0  0  0  0  0  0  0  0
  -28.5435   -1.7659   -7.7318 C   0  0  0  0  0  0  0  0  0  0  0  0
  -28.2552   -2.9407   -8.4005 C   0  0  0  0  0  0  0  0  0  0  0  0
  -28.4530   -4.1078   -7.7010 C   0  0  0  0  0  0  0  0  0  0  0  0
  -28.4686   -5.3930   -8.2069 N   0  0  0  0  0  0  0  0  0  0  0  0
  -28.5700   -6.2590   -7.1724 C   0  0  0  0  0  0  0  0  0  0  0  0
  -28.9152   -7.5689   -7.0887 C   0  0  0  0  0  0  0  0  0  0  0  0
  -28.1240   -8.3133   -6.2181 C   0  0  0  0  0  0  0  0  0  0  0  0
  -28.4185   -7.6953   -4.9318 C   0  0  0  0  0  0  0  0  0  0  0  0
  -28.7435   -6.2557   -4.8481 C   0  0  0  0  0  0  0  0  0  0  0  0
  -28.5806   -5.5169   -6.0396 C   0  0  0  0  0  0  0  0  0  0  0  0
  -28.7603   -4.1713   -6.3218 C   0  0  0  0  0  0  0  0  0  0  0  0
  -29.1345   -2.9783   -5.6911 C   0  0  0  0  0  0  0  0  0  0  0  0
  -29.4294   -5.8567   -3.6195 C   0  0  0  0  0  0  0  0  0  0  0  0
  -29.3931   -7.1470   -2.9418 N   0  0  0  0  0  0  0  0  0  0  0  0
  -28.8390   -8.2322   -3.6504 C   0  0  0  0  0  0  0  0  0  0  0  0
  -28.8655   -9.3758   -3.2006 O   0  0  0  0  0  0  0  0  0  0  0  0
  -27.8337   -9.6616   -6.8650 C   0  0  0  0  0  0  0  0  0  0  0  0
  -26.6532  -10.4111   -7.1476 C   0  0  0  0  0  0  0  0  0  0  0  0
  -26.9899  -11.3714   -8.1151 N   0  0  0  0  0  0  0  0  0  0  0  0
  -26.2838  -12.4638   -8.7555 C   0  0  0  0  0  0  0  0  0  0  0  0
  -28.0752  -11.0228   -8.7984 N   0  0  0  0  0  0  0  0  0  0  0  0
  -28.4241   -9.9103   -8.1932 C   0  0  0  0  0  0  0  0  0  0  0  0
  -29.2232   -8.9136   -8.9494 C   0  0  0  0  0  0  0  0  0  0  0  0
  -30.0009   -8.2629   -7.8732 C   0  0  0  0  0  0  0  0  0  0  0  0
  -28.3861   -5.6562   -9.1723 H   0  0  0  0  0  0  0  0  0  0  0  0
  -29.9276   -7.3338   -2.1300 H   0  0  0  0  0  0  0  0  0  0  0  0
  -30.5407    0.0648   -6.3921 N   0  0  0  0  0  0  0  0  0  0  0  0
  -29.4745   -0.4648   -5.8630 C   0  0  0  0  0  0  0  0  0  0  0  0
  -28.6827    0.1826   -4.7080 C   0  0  0  0  0  0  0  0  0  0  0  0
  -27.8034   -0.7663   -3.8915 C   0  0  0  0  0  0  0  0  0  0  0  0
  -27.8959    1.3955   -5.1961 C   0  0  0  0  0  0  0  0  0  0  0  0
  -30.8866    1.2884   -5.8202 O   0  0  0  0  0  0  0  0  0  0  0  0
  -32.4131    2.0856   -7.4645 C   0  0  0  0  0  0  0  0  0  0  0  0
  -31.0281    2.2373   -6.8763 C   0  0  0  0  0  0  0  0  0  0  0  0
 34 35  1  0  0  0
 35 33  1  0  0  0
 33 28  1  0  0  0
 28 29  2  0  0  0
 29  1  1  0  0  0
 29 30  1  0  0  0
  1  2  1  0  0  0
  1 13  2  0  0  0
  2  3  2  0  0  0
  3  4  1  0  0  0
  4  5  1  0  0  0
  4 12  2  0  0  0
  5  6  1  0  0  0
  5 26  1  0  0  0
  6  7  1  0  0  0
  6 11  2  0  0  0
  7  8  2  0  0  0
  7 25  1  0  0  0
  8  9  1  0  0  0
  8 18  1  0  0  0
  9 10  2  0  0  0
  9 16  1  0  0  0
 10 11  1  0  0  0
 10 14  1  0  0  0
 11 12  1  0  0  0
 12 13  1  0  0  0
 14 15  1  0  0  0
 15 16  1  0  0  0
 15 27  1  0  0  0
 16 17  2  0  0  0
 18 19  2  0  0  0
 18 23  1  0  0  0
 19 20  1  0  0  0
 20 21  1  0  0  0
 20 22  1  0  0  0
 22 23  2  0  0  0
 23 24  1  0  0  0
 24 25  1  0  0  0
 30 31  1  0  0  0
 30 32  1  0  0  0
M  END
> <minimizedAffinity>
-8.14711

$$$$
