CHEMBL441369


 27 31  0  0  0  0  0  0  0  0999 V2000
  -29.5194   -8.3041   -7.4110 C   0  0  0  0  0  0  0  0  0  0  0  0
  -29.1522   -8.7374   -6.1081 C   0  0  0  0  0  0  0  0  0  0  0  0
  -28.9570   -7.8420   -5.0554 C   0  0  0  0  0  0  0  0  0  0  0  0
  -29.0900   -6.5072   -5.3450 C   0  0  0  0  0  0  0  0  0  0  0  0
  -29.3984   -6.0334   -6.6496 C   0  0  0  0  0  0  0  0  0  0  0  0
  -29.6377   -6.9298   -7.6801 C   0  0  0  0  0  0  0  0  0  0  0  0
  -29.4173   -4.4968   -6.7411 C   0  0  0  0  0  0  0  0  0  0  0  0
  -29.1289   -4.2149   -5.3049 C   0  0  0  0  0  0  0  0  0  0  0  0
  -28.9008   -3.1386   -4.4282 C   0  0  0  0  0  0  0  0  0  0  0  0
  -28.6335   -3.6056   -3.1836 N   0  0  0  0  0  0  0  0  0  0  0  0
  -28.6897   -4.9573   -3.2938 N   0  0  0  0  0  0  0  0  0  0  0  0
  -28.9550   -5.3406   -4.5533 C   0  0  0  0  0  0  0  0  0  0  0  0
  -28.5246   -5.5222   -2.4680 H   0  0  0  0  0  0  0  0  0  0  0  0
  -28.8735   -1.7148   -4.7535 C   0  0  0  0  0  0  0  0  0  0  0  0
  -30.0342   -1.0555   -5.1827 C   0  0  0  0  0  0  0  0  0  0  0  0
  -29.9859    0.2776   -5.5921 C   0  0  0  0  0  0  0  0  0  0  0  0
  -28.7773    0.9705   -5.5650 C   0  0  0  0  0  0  0  0  0  0  0  0
  -27.6227    0.3370   -5.1076 C   0  0  0  0  0  0  0  0  0  0  0  0
  -27.6706   -0.9976   -4.7000 C   0  0  0  0  0  0  0  0  0  0  0  0
  -29.7915   -9.3293   -8.5001 C   0  0  0  0  0  0  0  0  0  0  0  0
  -27.1548   -9.2372  -12.5165 C   0  0  0  0  0  0  0  0  0  0  0  0
  -27.3635   -9.9593  -11.2654 N   0  0  0  0  0  0  0  0  0  0  0  0
  -27.1251   -9.0854  -10.1053 C   0  0  0  0  0  0  0  0  0  0  0  0
  -27.3825   -9.8333   -8.7777 C   0  0  0  0  0  0  0  0  0  0  0  0
  -28.7545  -10.3693   -8.6373 N   0  0  0  0  0  0  0  0  0  0  0  0
  -29.0163  -11.2156   -9.8286 C   0  0  0  0  0  0  0  0  0  0  0  0
  -28.7169  -10.5420  -11.1968 C   0  0  0  0  0  0  0  0  0  0  0  0
 21 22  1  0  0  0
 22 23  1  0  0  0
 22 27  1  0  0  0
 23 24  1  0  0  0
 24 25  1  0  0  0
 25 20  1  0  0  0
 25 26  1  0  0  0
 20  1  1  0  0  0
  1  2  1  0  0  0
  1  6  2  0  0  0
  2  3  2  0  0  0
  3  4  1  0  0  0
  4  5  2  0  0  0
  4 12  1  0  0  0
  5  6  1  0  0  0
  5  7  1  0  0  0
  7  8  1  0  0  0
  8  9  1  0  0  0
  8 12  2  0  0  0
  9 14  1  0  0  0
  9 10  2  0  0  0
 14 15  1  0  0  0
 14 19  2  0  0  0
 15 16  2  0  0  0
 16 17  1  0  0  0
 17 18  2  0  0  0
 18 19  1  0  0  0
 10 11  1  0  0  0
 11 12  1  0  0  0
 11 13  1  0  0  0
 26 27  1  0  0  0
M  END
> <minimizedAffinity>
-9.36341

$$$$
