CHEMBL371890


 34 37  0  0  0  0  0  0  0  0999 V2000
  -30.3407   -6.4377   -5.0632 C   0  0  0  0  0  0  0  0  0  0  0  0
  -29.3891   -7.3589   -4.6624 C   0  0  0  0  0  0  0  0  0  0  0  0
  -29.1492   -8.5048   -5.4254 C   0  0  0  0  0  0  0  0  0  0  0  0
  -29.8987   -8.8543   -6.5546 C   0  0  0  0  0  0  0  0  0  0  0  0
  -30.9893   -8.0044   -6.7880 C   0  0  0  0  0  0  0  0  0  0  0  0
  -31.1868   -6.7881   -6.1011 C   0  0  0  0  0  0  0  0  0  0  0  0
  -29.5595  -10.0143   -7.4668 C   0  0  0  0  0  0  0  0  0  0  0  0
  -30.0689  -11.3253   -7.2614 C   0  0  0  0  0  0  0  0  0  0  0  0
  -29.4354  -12.4450   -8.3992 S   0  0  0  0  0  0  0  0  0  0  0  0
  -28.6030  -11.2645   -9.2540 C   0  0  0  0  0  0  0  0  0  0  0  0
  -27.9606  -11.6532  -10.3701 N   0  0  0  0  0  0  0  0  0  0  0  0
  -27.3074  -10.6734  -10.9536 C   0  0  0  0  0  0  0  0  0  0  0  0
  -27.2058   -9.4184  -10.5170 N   0  0  0  0  0  0  0  0  0  0  0  0
  -27.8286   -9.0729   -9.3729 C   0  0  0  0  0  0  0  0  0  0  0  0
  -27.5041   -7.7669   -9.0021 N   0  0  0  0  0  0  0  0  0  0  0  0
  -28.6489  -10.0068   -8.6759 C   0  0  0  0  0  0  0  0  0  0  0  0
  -26.8363   -7.4171   -9.6841 H   0  0  0  0  0  0  0  0  0  0  0  0
  -27.1436   -7.7384   -8.0499 H   0  0  0  0  0  0  0  0  0  0  0  0
  -31.0250  -11.9282   -6.2195 C   0  0  0  0  0  0  0  0  0  0  0  0
  -30.5734  -11.8323   -4.7529 C   0  0  0  0  0  0  0  0  0  0  0  0
  -32.4306  -11.3111   -6.3384 C   0  0  0  0  0  0  0  0  0  0  0  0
  -29.8333   -2.9435   -4.2735 N   0  0  0  0  0  0  0  0  0  0  0  0
  -29.6800   -4.1071   -4.9969 C   0  0  0  0  0  0  0  0  0  0  0  0
  -28.9973   -4.2124   -6.0138 O   0  0  0  0  0  0  0  0  0  0  0  0
  -30.4110   -5.1616   -4.4604 N   0  0  0  0  0  0  0  0  0  0  0  0
  -30.2256   -3.0342   -3.3493 H   0  0  0  0  0  0  0  0  0  0  0  0
  -31.2905   -4.9053   -4.0370 H   0  0  0  0  0  0  0  0  0  0  0  0
  -30.6776    1.5130   -6.2139 C   0  0  0  0  0  0  0  0  0  0  0  0
  -29.7334    0.5237   -5.5996 C   0  0  0  0  0  0  0  0  0  0  0  0
  -28.3900    0.8585   -5.4095 C   0  0  0  0  0  0  0  0  0  0  0  0
  -27.5143   -0.0568   -4.8489 C   0  0  0  0  0  0  0  0  0  0  0  0
  -27.9745   -1.3165   -4.4702 C   0  0  0  0  0  0  0  0  0  0  0  0
  -29.3171   -1.6778   -4.6381 C   0  0  0  0  0  0  0  0  0  0  0  0
  -30.1907   -0.7480   -5.2106 C   0  0  0  0  0  0  0  0  0  0  0  0
 28 29  1  0  0  0
 29 30  1  0  0  0
 29 34  2  0  0  0
 30 31  2  0  0  0
 31 32  1  0  0  0
 32 33  2  0  0  0
 33 22  1  0  0  0
 33 34  1  0  0  0
 22 23  1  0  0  0
 22 26  1  0  0  0
 23 24  2  0  0  0
 23 25  1  0  0  0
 25  1  1  0  0  0
 25 27  1  0  0  0
  1  2  1  0  0  0
  1  6  2  0  0  0
  2  3  2  0  0  0
  3  4  1  0  0  0
  4  7  1  0  0  0
  4  5  2  0  0  0
  7  8  2  0  0  0
  7 16  1  0  0  0
  8 19  1  0  0  0
  8  9  1  0  0  0
 19 20  1  0  0  0
 19 21  1  0  0  0
  9 10  1  0  0  0
 10 11  1  0  0  0
 10 16  2  0  0  0
 11 12  2  0  0  0
 12 13  1  0  0  0
 13 14  2  0  0  0
 14 15  1  0  0  0
 14 16  1  0  0  0
 15 17  1  0  0  0
 15 18  1  0  0  0
  5  6  1  0  0  0
M  END
> <minimizedAffinity>
-9.13188

$$$$
