CHEMBL3702603


 30 33  0  0  0  0  0  0  0  0999 V2000
  -20.4863    1.3979  -14.6324 C   0  0  0  0  0  0  0  0  0  0  0  0
  -21.0641    2.6711  -14.6408 C   0  0  0  0  0  0  0  0  0  0  0  0
  -22.3613    2.8566  -14.1706 C   0  0  0  0  0  0  0  0  0  0  0  0
  -23.0951    1.7586  -13.7150 C   0  0  0  0  0  0  0  0  0  0  0  0
  -22.5704    0.4571  -13.7370 C   0  0  0  0  0  0  0  0  0  0  0  0
  -21.2477    0.3028  -14.1960 C   0  0  0  0  0  0  0  0  0  0  0  0
  -23.3302   -0.6249  -13.3322 N   0  0  0  0  0  0  0  0  0  0  0  0
  -22.8315   -1.6217  -12.3826 C   0  0  0  0  0  0  0  0  0  0  0  0
  -23.6590   -1.5434  -11.1066 C   0  0  0  0  0  0  0  0  0  0  0  0
  -25.1342   -1.5640  -11.4141 C   0  0  0  0  0  0  0  0  0  0  0  0
  -25.9576   -1.9037  -10.3978 N   0  0  0  0  0  0  0  0  0  0  0  0
  -27.2690   -1.9154  -10.6553 C   0  0  0  0  0  0  0  0  0  0  0  0
  -28.1161   -2.2660   -9.6264 N   0  0  0  0  0  0  0  0  0  0  0  0
  -27.8211   -1.5748  -11.8216 N   0  0  0  0  0  0  0  0  0  0  0  0
  -26.9711   -1.2324  -12.8087 C   0  0  0  0  0  0  0  0  0  0  0  0
  -25.6015   -1.2026  -12.6673 C   0  0  0  0  0  0  0  0  0  0  0  0
  -24.6977   -0.8442  -13.8107 C   0  0  0  0  0  0  0  0  0  0  0  0
  -27.6682   -2.0789   -8.7410 H   0  0  0  0  0  0  0  0  0  0  0  0
  -29.0262   -1.8579   -9.7849 H   0  0  0  0  0  0  0  0  0  0  0  0
  -18.3482    2.4372  -15.2620 N   0  0  0  0  0  0  0  0  0  0  0  0
  -19.0896    1.2663  -15.1406 C   0  0  0  0  0  0  0  0  0  0  0  0
  -18.7112    0.1382  -15.4386 O   0  0  0  0  0  0  0  0  0  0  0  0
  -18.8068    3.3082  -15.0285 H   0  0  0  0  0  0  0  0  0  0  0  0
  -15.0503    5.0403  -17.8876 C   0  0  0  0  0  0  0  0  0  0  0  0
  -15.3846    3.8529  -17.0306 C   0  0  0  0  0  0  0  0  0  0  0  0
  -14.3993    2.9100  -16.7276 C   0  0  0  0  0  0  0  0  0  0  0  0
  -14.7174    1.7933  -15.9625 C   0  0  0  0  0  0  0  0  0  0  0  0
  -16.0172    1.6147  -15.4800 C   0  0  0  0  0  0  0  0  0  0  0  0
  -17.0181    2.5521  -15.7438 C   0  0  0  0  0  0  0  0  0  0  0  0
  -16.6896    3.6698  -16.5311 C   0  0  0  0  0  0  0  0  0  0  0  0
 24 25  1  0  0  0
 25 26  1  0  0  0
 25 30  2  0  0  0
 26 27  2  0  0  0
 27 28  1  0  0  0
 28 29  2  0  0  0
 29 20  1  0  0  0
 29 30  1  0  0  0
 20 21  1  0  0  0
 20 23  1  0  0  0
 21 22  2  0  0  0
 21  1  1  0  0  0
  1  2  1  0  0  0
  1  6  2  0  0  0
  2  3  2  0  0  0
  3  4  1  0  0  0
  4  5  2  0  0  0
  5  7  1  0  0  0
  5  6  1  0  0  0
  7  8  1  0  0  0
  7 17  1  0  0  0
  8  9  1  0  0  0
  9 10  1  0  0  0
 10 11  1  0  0  0
 10 16  2  0  0  0
 11 12  2  0  0  0
 12 13  1  0  0  0
 12 14  1  0  0  0
 13 18  1  0  0  0
 13 19  1  0  0  0
 14 15  2  0  0  0
 15 16  1  0  0  0
 16 17  1  0  0  0
M  END
> <minimizedAffinity>
-9.91718

$$$$
