CHEMBL1964687


 34 38  0  0  0  0  0  0  0  0999 V2000
  -24.4849   -1.0469  -12.8339 C   0  0  0  0  0  0  0  0  0  0  0  0
  -23.2238   -1.6558  -12.9332 C   0  0  0  0  0  0  0  0  0  0  0  0
  -22.0664   -0.9746  -13.3821 C   0  0  0  0  0  0  0  0  0  0  0  0
  -22.1131    0.3546  -13.7409 C   0  0  0  0  0  0  0  0  0  0  0  0
  -23.4074    0.9925  -13.6492 C   0  0  0  0  0  0  0  0  0  0  0  0
  -24.5717    0.2861  -13.2279 C   0  0  0  0  0  0  0  0  0  0  0  0
  -23.5885    2.4454  -14.0568 C   0  0  0  0  0  0  0  0  0  0  0  0
  -22.3967    3.2556  -13.6864 C   0  0  0  0  0  0  0  0  0  0  0  0
  -21.2193    2.5140  -14.0872 C   0  0  0  0  0  0  0  0  0  0  0  0
  -20.0961    3.6048  -14.5898 S   0  0  0  0  0  0  0  0  0  0  0  0
  -19.2626    2.2716  -14.8073 C   0  0  0  0  0  0  0  0  0  0  0  0
  -18.1385    2.5884  -15.2067 N   0  0  0  0  0  0  0  0  0  0  0  0
  -17.0752    2.9304  -15.5894 C   0  0  0  0  0  0  0  0  0  0  0  0
  -17.0190    1.6258  -15.5619 N   0  0  0  0  0  0  0  0  0  0  0  0
  -18.2034    0.4850  -15.1042 C   0  0  0  0  0  0  0  0  0  0  0  0
  -17.8048   -0.7860  -15.2066 N   0  0  0  0  0  0  0  0  0  0  0  0
  -19.5023    0.9873  -14.6489 C   0  0  0  0  0  0  0  0  0  0  0  0
  -20.9086    1.1297  -14.1581 C   0  0  0  0  0  0  0  0  0  0  0  0
  -17.3727   -1.6636  -15.3355 H   0  0  0  0  0  0  0  0  0  0  0  0
  -16.9248   -0.3357  -15.5215 H   0  0  0  0  0  0  0  0  0  0  0  0
  -27.1076   -2.4236  -10.5610 N   0  0  0  0  0  0  0  0  0  0  0  0
  -25.9662   -1.7341  -10.9970 C   0  0  0  0  0  0  0  0  0  0  0  0
  -25.2584   -1.0617  -10.2499 O   0  0  0  0  0  0  0  0  0  0  0  0
  -25.6330   -1.7790  -12.3468 N   0  0  0  0  0  0  0  0  0  0  0  0
  -27.6760   -2.9706  -11.1946 H   0  0  0  0  0  0  0  0  0  0  0  0
  -26.2197   -2.2224  -13.0348 H   0  0  0  0  0  0  0  0  0  0  0  0
  -28.8682   -4.9094   -6.6346 C   0  0  0  0  0  0  0  0  0  0  0  0
  -28.4200   -3.5992   -7.2083 C   0  0  0  0  0  0  0  0  0  0  0  0
  -28.4259   -2.4226   -6.4727 C   0  0  0  0  0  0  0  0  0  0  0  0
  -28.0119   -1.2258   -7.0692 C   0  0  0  0  0  0  0  0  0  0  0  0
  -28.0127    0.0620   -6.2949 C   0  0  0  0  0  0  0  0  0  0  0  0
  -27.5732   -1.2282   -8.4169 C   0  0  0  0  0  0  0  0  0  0  0  0
  -27.5518   -2.4023   -9.1807 C   0  0  0  0  0  0  0  0  0  0  0  0
  -27.9900   -3.5609   -8.5359 C   0  0  0  0  0  0  0  0  0  0  0  0
 27 28  1  0  0  0
 28 29  1  0  0  0
 28 34  2  0  0  0
 29 30  2  0  0  0
 30 31  1  0  0  0
 30 32  1  0  0  0
 32 33  2  0  0  0
 33 21  1  0  0  0
 33 34  1  0  0  0
 21 22  1  0  0  0
 21 25  1  0  0  0
 22 23  2  0  0  0
 22 24  1  0  0  0
 24  1  1  0  0  0
 24 26  1  0  0  0
  1  2  1  0  0  0
  1  6  2  0  0  0
  2  3  2  0  0  0
  3  4  1  0  0  0
  4  5  2  0  0  0
  4 18  1  0  0  0
  5  6  1  0  0  0
  5  7  1  0  0  0
  7  8  1  0  0  0
  8  9  1  0  0  0
  9 10  1  0  0  0
  9 18  2  0  0  0
 10 11  1  0  0  0
 11 12  1  0  0  0
 11 17  2  0  0  0
 12 13  2  0  0  0
 13 14  1  0  0  0
 14 15  2  0  0  0
 15 16  1  0  0  0
 15 17  1  0  0  0
 16 19  1  0  0  0
 16 20  1  0  0  0
 17 18  1  0  0  0
M  END
> <minimizedAffinity>
-9.50198

$$$$
