CHEMBL1242658


 27 30  0  0  0  0  0  0  0  0999 V2000
  -32.5233   -7.9848   -6.3582 N   0  0  0  0  0  0  0  0  0  0  0  0
  -31.9607   -8.9727   -7.1548 C   0  0  0  0  0  0  0  0  0  0  0  0
  -32.6999  -10.0915   -7.3127 N   0  0  0  0  0  0  0  0  0  0  0  0
  -32.2202  -11.0827   -8.0868 C   0  0  0  0  0  0  0  0  0  0  0  0
  -31.0743  -11.1018   -8.7844 N   0  0  0  0  0  0  0  0  0  0  0  0
  -30.3637   -9.9779   -8.5866 C   0  0  0  0  0  0  0  0  0  0  0  0
  -30.7092   -8.8982   -7.7878 C   0  0  0  0  0  0  0  0  0  0  0  0
  -29.5831   -8.0159   -7.8689 C   0  0  0  0  0  0  0  0  0  0  0  0
  -28.6586   -8.4924   -8.7237 N   0  0  0  0  0  0  0  0  0  0  0  0
  -29.1539   -9.6691   -9.1451 N   0  0  0  0  0  0  0  0  0  0  0  0
  -33.5065   -8.1683   -6.1898 H   0  0  0  0  0  0  0  0  0  0  0  0
  -32.2901   -7.0320   -6.6061 H   0  0  0  0  0  0  0  0  0  0  0  0
  -29.3243   -6.7534   -7.1660 C   0  0  0  0  0  0  0  0  0  0  0  0
  -29.8439   -5.5383   -7.6394 C   0  0  0  0  0  0  0  0  0  0  0  0
  -29.5838   -4.3368   -6.9737 C   0  0  0  0  0  0  0  0  0  0  0  0
  -28.8521   -4.3611   -5.7959 C   0  0  0  0  0  0  0  0  0  0  0  0
  -28.6158   -3.2186   -5.1349 F   0  0  0  0  0  0  0  0  0  0  0  0
  -28.3752   -5.5609   -5.2826 C   0  0  0  0  0  0  0  0  0  0  0  0
  -27.6966   -5.5956   -4.0972 O   0  0  0  0  0  0  0  0  0  0  0  0
  -28.5913   -6.7562   -5.9644 C   0  0  0  0  0  0  0  0  0  0  0  0
  -27.7110   -4.6894   -3.7365 H   0  0  0  0  0  0  0  0  0  0  0  0
  -28.4362  -10.4853  -10.1162 C   0  0  0  0  0  0  0  0  0  0  0  0
  -26.9358  -10.2176  -10.2118 C   0  0  0  0  0  0  0  0  0  0  0  0
  -26.8277   -9.2145  -11.3434 C   0  0  0  0  0  0  0  0  0  0  0  0
  -27.8266   -9.6546  -12.3258 N   0  0  0  0  0  0  0  0  0  0  0  0
  -28.9369  -10.2327  -11.5432 C   0  0  0  0  0  0  0  0  0  0  0  0
  -27.4167  -10.3760  -12.9169 H   0  0  0  0  0  0  0  0  0  0  0  0
  1  2  1  0  0  0
  1 11  1  0  0  0
  1 12  1  0  0  0
  2  3  1  0  0  0
  2  7  2  0  0  0
  3  4  2  0  0  0
  4  5  1  0  0  0
  5  6  2  0  0  0
  6  7  1  0  0  0
  6 10  1  0  0  0
  7  8  1  0  0  0
  8 13  1  0  0  0
  8  9  2  0  0  0
 13 14  1  0  0  0
 13 20  2  0  0  0
 14 15  2  0  0  0
 15 16  1  0  0  0
 16 17  1  0  0  0
 16 18  2  0  0  0
 18 19  1  0  0  0
 18 20  1  0  0  0
 19 21  1  0  0  0
  9 10  1  0  0  0
 10 22  1  0  0  0
 22 23  1  0  0  0
 22 26  1  0  0  0
 23 24  1  0  0  0
 24 25  1  0  0  0
 25 26  1  0  0  0
 25 27  1  0  0  0
M  END
> <minimizedAffinity>
-8.00980

$$$$
