CHEMBL387972


 36 41  0  0  0  0  0  0  0  0999 V2000
  -29.1769   -4.0275   -4.8412 C   0  0  0  0  0  0  0  0  0  0  0  0
  -30.5585   -4.2999   -4.6472 C   0  0  0  0  0  0  0  0  0  0  0  0
  -31.1487   -5.4935   -5.0717 C   0  0  0  0  0  0  0  0  0  0  0  0
  -30.3410   -6.3830   -5.7319 C   0  0  0  0  0  0  0  0  0  0  0  0
  -28.9683   -6.1200   -5.9921 C   0  0  0  0  0  0  0  0  0  0  0  0
  -28.3779   -4.9521   -5.5321 C   0  0  0  0  0  0  0  0  0  0  0  0
  -28.2814   -7.2335   -6.8007 C   0  0  0  0  0  0  0  0  0  0  0  0
  -29.4521   -8.1499   -6.8930 C   0  0  0  0  0  0  0  0  0  0  0  0
  -29.8315   -9.3900   -7.4168 C   0  0  0  0  0  0  0  0  0  0  0  0
  -31.1312   -9.6505   -7.1671 N   0  0  0  0  0  0  0  0  0  0  0  0
  -31.5595   -8.5748   -6.4472 N   0  0  0  0  0  0  0  0  0  0  0  0
  -30.5836   -7.6564   -6.3048 C   0  0  0  0  0  0  0  0  0  0  0  0
  -32.5135   -8.5623   -6.1055 H   0  0  0  0  0  0  0  0  0  0  0  0
  -28.9370  -10.2888   -8.1560 C   0  0  0  0  0  0  0  0  0  0  0  0
  -29.3077  -11.0563   -9.2382 C   0  0  0  0  0  0  0  0  0  0  0  0
  -28.0196  -12.0159   -9.8229 S   0  0  0  0  0  0  0  0  0  0  0  0
  -26.9424  -11.3924   -8.6501 C   0  0  0  0  0  0  0  0  0  0  0  0
  -27.5577  -10.4694   -7.8266 C   0  0  0  0  0  0  0  0  0  0  0  0
  -25.5806  -11.8119   -8.5653 C   0  0  0  0  0  0  0  0  0  0  0  0
  -24.4194  -12.1196   -8.5150 C   0  0  0  0  0  0  0  0  0  0  0  0
  -22.9897  -12.4639   -8.5133 C   0  0  0  0  0  0  0  0  0  0  0  0
  -22.2438  -11.4473   -7.8371 O   0  0  0  0  0  0  0  0  0  0  0  0
  -22.1914  -11.5609   -6.4706 C   0  0  0  0  0  0  0  0  0  0  0  0
  -21.3583  -12.4338   -5.7685 C   0  0  0  0  0  0  0  0  0  0  0  0
  -21.3883  -12.4646   -4.3706 C   0  0  0  0  0  0  0  0  0  0  0  0
  -22.2373  -11.6129   -3.6682 C   0  0  0  0  0  0  0  0  0  0  0  0
  -23.0483  -10.7171   -4.3620 C   0  0  0  0  0  0  0  0  0  0  0  0
  -23.0161  -10.6873   -5.7598 C   0  0  0  0  0  0  0  0  0  0  0  0
  -28.5649   -2.7426   -4.3081 C   0  0  0  0  0  0  0  0  0  0  0  0
  -30.3098    1.3291   -5.7340 C   0  0  0  0  0  0  0  0  0  0  0  0
  -29.0670    0.4684   -5.9551 C   0  0  0  0  0  0  0  0  0  0  0  0
  -28.3124    0.2848   -4.6349 C   0  0  0  0  0  0  0  0  0  0  0  0
  -27.1845   -0.7385   -4.7762 C   0  0  0  0  0  0  0  0  0  0  0  0
  -27.6532   -2.0513   -5.2434 N   0  0  0  0  0  0  0  0  0  0  0  0
  -28.2777   -1.8822   -6.5687 C   0  0  0  0  0  0  0  0  0  0  0  0
  -29.4441   -0.8841   -6.5808 C   0  0  0  0  0  0  0  0  0  0  0  0
 30 31  1  0  0  0
 31 32  1  0  0  0
 31 36  1  0  0  0
 32 33  1  0  0  0
 33 34  1  0  0  0
 34 29  1  0  0  0
 34 35  1  0  0  0
 29  1  1  0  0  0
  1  2  1  0  0  0
  1  6  2  0  0  0
  2  3  2  0  0  0
  3  4  1  0  0  0
  4  5  2  0  0  0
  4 12  1  0  0  0
  5  6  1  0  0  0
  5  7  1  0  0  0
  7  8  1  0  0  0
  8  9  1  0  0  0
  8 12  2  0  0  0
  9 14  1  0  0  0
  9 10  2  0  0  0
 14 15  2  0  0  0
 14 18  1  0  0  0
 15 16  1  0  0  0
 16 17  1  0  0  0
 17 19  1  0  0  0
 17 18  2  0  0  0
 19 20  3  0  0  0
 20 21  1  0  0  0
 21 22  1  0  0  0
 22 23  1  0  0  0
 23 24  1  0  0  0
 23 28  2  0  0  0
 24 25  2  0  0  0
 25 26  1  0  0  0
 26 27  2  0  0  0
 27 28  1  0  0  0
 10 11  1  0  0  0
 11 12  1  0  0  0
 11 13  1  0  0  0
 35 36  1  0  0  0
M  END
> <minimizedAffinity>
-9.05505

$$$$
