CHEMBL3935264


 35 38  0  0  0  0  0  0  0  0999 V2000
  -13.2309   -4.2629  -12.1205 N   0  0  0  0  0  0  0  0  0  0  0  0
  -13.7913   -3.1371  -12.8444 C   0  0  0  0  0  0  0  0  0  0  0  0
  -15.0712   -2.8576  -12.3988 C   0  0  0  0  0  0  0  0  0  0  0  0
  -15.6650   -1.8605  -12.7909 C   0  0  0  0  0  0  0  0  0  0  0  0
  -15.1220   -1.1334  -13.6325 C   0  0  0  0  0  0  0  0  0  0  0  0
  -15.8723   -0.3738  -13.8529 N   0  0  0  0  0  0  0  0  0  0  0  0
  -16.6892    0.3982  -14.0415 C   0  0  0  0  0  0  0  0  0  0  0  0
  -16.2803    1.3226  -14.7858 C   0  0  0  0  0  0  0  0  0  0  0  0
  -14.5853    0.6651  -15.1263 N   0  0  0  0  0  0  0  0  0  0  0  0
  -14.0854   -0.8598  -14.3645 C   0  0  0  0  0  0  0  0  0  0  0  0
  -13.1805   -2.1954  -13.9328 C   0  0  0  0  0  0  0  0  0  0  0  0
  -18.1141    2.3379  -14.7217 C   0  0  0  0  0  0  0  0  0  0  0  0
  -18.8714    3.5674  -15.2339 C   0  0  0  0  0  0  0  0  0  0  0  0
  -20.2811    3.4685  -15.0592 N   0  0  0  0  0  0  0  0  0  0  0  0
  -20.5855    2.2978  -14.5048 N   0  0  0  0  0  0  0  0  0  0  0  0
  -22.0318    1.8501  -14.2292 C   0  0  0  0  0  0  0  0  0  0  0  0
  -19.3642    1.5911  -14.2978 C   0  0  0  0  0  0  0  0  0  0  0  0
  -13.5452   -5.5945  -12.5473 C   0  0  0  0  0  0  0  0  0  0  0  0
  -13.8085   -5.8425  -13.8566 C   0  0  0  0  0  0  0  0  0  0  0  0
  -14.1992   -6.9854  -14.4421 C   0  0  0  0  0  0  0  0  0  0  0  0
  -14.0945   -8.0832  -13.6686 C   0  0  0  0  0  0  0  0  0  0  0  0
  -13.6092   -7.9825  -12.3503 C   0  0  0  0  0  0  0  0  0  0  0  0
  -13.4759   -6.7121  -11.7420 C   0  0  0  0  0  0  0  0  0  0  0  0
  -14.5502   -7.0307  -15.7605 O   0  0  0  0  0  0  0  0  0  0  0  0
  -13.8455   -6.3821  -16.7715 C   0  0  0  0  0  0  0  0  0  0  0  0
  -13.2201   -9.1000  -11.7084 O   0  0  0  0  0  0  0  0  0  0  0  0
  -12.2252   -9.9205  -12.2187 C   0  0  0  0  0  0  0  0  0  0  0  0
  -12.2363   -4.0385  -11.0295 C   0  0  0  0  0  0  0  0  0  0  0  0
  -12.8762   -3.6131   -9.7254 C   0  0  0  0  0  0  0  0  0  0  0  0
  -12.1380   -2.6987   -9.0017 O   0  0  0  0  0  0  0  0  0  0  0  0
  -11.1595   -2.8307   -9.0358 H   0  0  0  0  0  0  0  0  0  0  0  0
  -12.8495   -4.6609   -8.7920 C   0  0  0  0  0  0  0  0  0  0  0  0
  -11.2402   -5.8231   -7.6708 C   0  0  0  0  0  0  0  0  0  0  0  0
  -11.5629   -5.3135   -8.9381 N   0  0  0  0  0  0  0  0  0  0  0  0
  -11.2704   -6.0384   -9.6522 H   0  0  0  0  0  0  0  0  0  0  0  0
 33 34  1  0  0  0
 34 32  1  0  0  0
 34 35  1  0  0  0
 32 29  1  0  0  0
 29 30  1  0  0  0
 29 28  1  0  0  0
 30 31  1  0  0  0
 28  1  1  0  0  0
  1 18  1  0  0  0
  1  2  1  0  0  0
 18 19  1  0  0  0
 18 23  2  0  0  0
 19 20  2  0  0  0
 20 24  1  0  0  0
 20 21  1  0  0  0
 24 25  1  0  0  0
 21 22  2  0  0  0
 22 26  1  0  0  0
 22 23  1  0  0  0
 26 27  1  0  0  0
  2  3  1  0  0  0
  2 11  2  0  0  0
  3  4  2  0  0  0
  4  5  1  0  0  0
  5  6  1  0  0  0
  5 10  2  0  0  0
  6  7  2  0  0  0
  7  8  1  0  0  0
  8 12  1  0  0  0
  8  9  2  0  0  0
 12 13  1  0  0  0
 12 17  2  0  0  0
 13 14  2  0  0  0
 14 15  1  0  0  0
 15 16  1  0  0  0
 15 17  1  0  0  0
  9 10  1  0  0  0
 10 11  1  0  0  0
M  END
> <minimizedAffinity>
-7.90775

$$$$
