CHEMBL244106


 44 47  0  0  0  0  0  0  0  0999 V2000
  -14.9387   -5.7210  -11.3438 C   0  0  0  0  0  0  0  0  0  0  0  0
  -16.1795   -5.1030  -11.4612 C   0  0  0  0  0  0  0  0  0  0  0  0
  -16.2435   -3.7106  -11.6025 C   0  0  0  0  0  0  0  0  0  0  0  0
  -15.0976   -2.9111  -11.6121 C   0  0  0  0  0  0  0  0  0  0  0  0
  -13.8642   -3.5369  -11.3887 C   0  0  0  0  0  0  0  0  0  0  0  0
  -13.7977   -4.9259  -11.2414 C   0  0  0  0  0  0  0  0  0  0  0  0
  -15.1303   -1.5041  -11.8591 N   0  0  0  0  0  0  0  0  0  0  0  0
  -15.7534   -0.9081  -12.9254 C   0  0  0  0  0  0  0  0  0  0  0  0
  -16.3696   -1.5194  -13.8156 O   0  0  0  0  0  0  0  0  0  0  0  0
  -15.6622    0.4732  -12.9553 N   0  0  0  0  0  0  0  0  0  0  0  0
  -14.6249   -0.9099  -11.2079 H   0  0  0  0  0  0  0  0  0  0  0  0
  -14.7716    0.8479  -12.6470 H   0  0  0  0  0  0  0  0  0  0  0  0
  -16.2811    1.1715  -14.0367 C   0  0  0  0  0  0  0  0  0  0  0  0
  -17.6685    1.3606  -14.0561 C   0  0  0  0  0  0  0  0  0  0  0  0
  -18.3059    2.0135  -15.1290 C   0  0  0  0  0  0  0  0  0  0  0  0
  -17.5246    2.4650  -16.2045 C   0  0  0  0  0  0  0  0  0  0  0  0
  -16.1388    2.2867  -16.1883 C   0  0  0  0  0  0  0  0  0  0  0  0
  -15.5218    1.6601  -15.1002 C   0  0  0  0  0  0  0  0  0  0  0  0
  -14.1951    1.4782  -15.1185 F   0  0  0  0  0  0  0  0  0  0  0  0
  -19.8031    2.2192  -15.1121 C   0  0  0  0  0  0  0  0  0  0  0  0
  -20.2016    3.2760  -15.8761 F   0  0  0  0  0  0  0  0  0  0  0  0
  -20.4842    1.1414  -15.5908 F   0  0  0  0  0  0  0  0  0  0  0  0
  -20.3005    2.4501  -13.8662 F   0  0  0  0  0  0  0  0  0  0  0  0
  -14.8669   -7.0981  -11.2968 O   0  0  0  0  0  0  0  0  0  0  0  0
  -13.1621   -8.9801  -16.5661 C   0  0  0  0  0  0  0  0  0  0  0  0
  -12.5631   -9.6829  -15.6365 N   0  0  0  0  0  0  0  0  0  0  0  0
  -12.9601   -9.1090  -14.4498 C   0  0  0  0  0  0  0  0  0  0  0  0
  -12.5195   -9.3572  -13.1441 C   0  0  0  0  0  0  0  0  0  0  0  0
  -13.1306   -8.6687  -12.0832 C   0  0  0  0  0  0  0  0  0  0  0  0
  -14.1839   -7.7638  -12.3078 C   0  0  0  0  0  0  0  0  0  0  0  0
  -14.5900   -7.4674  -13.6176 C   0  0  0  0  0  0  0  0  0  0  0  0
  -13.9485   -8.1534  -14.6571 C   0  0  0  0  0  0  0  0  0  0  0  0
  -14.0473   -8.0777  -16.0261 N   0  0  0  0  0  0  0  0  0  0  0  0
  -14.6319   -7.4544  -16.5553 H   0  0  0  0  0  0  0  0  0  0  0  0
  -13.5872   -8.1868  -18.7630 C   0  0  0  0  0  0  0  0  0  0  0  0
  -14.2705   -7.2466  -18.3884 O   0  0  0  0  0  0  0  0  0  0  0  0
  -13.0057   -9.1354  -17.9216 N   0  0  0  0  0  0  0  0  0  0  0  0
  -12.1644   -9.6124  -18.2229 H   0  0  0  0  0  0  0  0  0  0  0  0
  -13.2872   -8.4334  -20.2537 C   0  0  0  0  0  0  0  0  0  0  0  0
  -13.9545   -9.6211  -20.6748 O   0  0  0  0  0  0  0  0  0  0  0  0
  -13.0533  -10.6631  -21.0518 C   0  0  0  0  0  0  0  0  0  0  0  0
  -13.5366  -11.9706  -20.4257 C   0  0  0  0  0  0  0  0  0  0  0  0
  -14.9973  -12.2134  -18.5966 C   0  0  0  0  0  0  0  0  0  0  0  0
  -13.7018  -11.8037  -19.0190 O   0  0  0  0  0  0  0  0  0  0  0  0
 43 44  1  0  0  0
 44 42  1  0  0  0
 42 41  1  0  0  0
 41 40  1  0  0  0
 40 39  1  0  0  0
 39 35  1  0  0  0
 35 36  2  0  0  0
 35 37  1  0  0  0
 37 25  1  0  0  0
 37 38  1  0  0  0
 25 26  2  0  0  0
 25 33  1  0  0  0
 26 27  1  0  0  0
 27 28  1  0  0  0
 27 32  2  0  0  0
 28 29  2  0  0  0
 29 30  1  0  0  0
 30 24  1  0  0  0
 30 31  2  0  0  0
 24  1  1  0  0  0
  1  2  1  0  0  0
  1  6  2  0  0  0
  2  3  2  0  0  0
  3  4  1  0  0  0
  4  7  1  0  0  0
  4  5  2  0  0  0
  7  8  1  0  0  0
  7 11  1  0  0  0
  8  9  2  0  0  0
  8 10  1  0  0  0
 10 13  1  0  0  0
 10 12  1  0  0  0
 13 14  1  0  0  0
 13 18  2  0  0  0
 14 15  2  0  0  0
 15 20  1  0  0  0
 15 16  1  0  0  0
 20 21  1  0  0  0
 20 22  1  0  0  0
 20 23  1  0  0  0
 16 17  2  0  0  0
 17 18  1  0  0  0
 18 19  1  0  0  0
  5  6  1  0  0  0
 31 32  1  0  0  0
 32 33  1  0  0  0
 33 34  1  0  0  0
M  END
> <minimizedAffinity>
-8.36761

$$$$
