CHEMBL4216386


 32 35  0  0  0  0  0  0  0  0999 V2000
  -28.6878   -3.1476   -7.1031 C   0  0  0  0  0  0  0  0  0  0  0  0
  -27.9744   -2.9901   -8.3049 C   0  0  0  0  0  0  0  0  0  0  0  0
  -27.4217   -1.7594   -8.6637 C   0  0  0  0  0  0  0  0  0  0  0  0
  -27.6402   -0.6595   -7.8304 C   0  0  0  0  0  0  0  0  0  0  0  0
  -28.3171   -0.8117   -6.6145 C   0  0  0  0  0  0  0  0  0  0  0  0
  -28.8201   -2.0601   -6.2212 C   0  0  0  0  0  0  0  0  0  0  0  0
  -29.4742   -2.2060   -4.8739 C   0  0  0  0  0  0  0  0  0  0  0  0
  -30.1770   -8.8553   -7.3701 C   0  0  0  0  0  0  0  0  0  0  0  0
  -29.4287   -7.9405   -8.0798 C   0  0  0  0  0  0  0  0  0  0  0  0
  -29.5489   -6.7576   -7.3860 N   0  0  0  0  0  0  0  0  0  0  0  0
  -29.0293   -5.4960   -7.6671 C   0  0  0  0  0  0  0  0  0  0  0  0
  -29.2579   -4.4755   -6.8092 C   0  0  0  0  0  0  0  0  0  0  0  0
  -30.0320   -4.7584   -5.5974 C   0  0  0  0  0  0  0  0  0  0  0  0
  -30.5374   -5.9784   -5.3419 C   0  0  0  0  0  0  0  0  0  0  0  0
  -30.3155   -7.0378   -6.2624 C   0  0  0  0  0  0  0  0  0  0  0  0
  -30.7140   -8.2873   -6.2550 N   0  0  0  0  0  0  0  0  0  0  0  0
  -31.4800  -12.1949   -8.3409 C   0  0  0  0  0  0  0  0  0  0  0  0
  -31.5191  -10.6933   -8.2126 C   0  0  0  0  0  0  0  0  0  0  0  0
  -32.5241  -10.0767   -8.5525 O   0  0  0  0  0  0  0  0  0  0  0  0
  -30.3434  -10.1785   -7.7004 N   0  0  0  0  0  0  0  0  0  0  0  0
  -29.5412  -10.7800   -7.5972 H   0  0  0  0  0  0  0  0  0  0  0  0
  -26.6389   -1.5635   -9.8265 N   0  0  0  0  0  0  0  0  0  0  0  0
  -27.1277   -1.3699  -11.1091 C   0  0  0  0  0  0  0  0  0  0  0  0
  -28.3087   -1.3600  -11.4422 O   0  0  0  0  0  0  0  0  0  0  0  0
  -25.6506   -1.7543   -9.7296 H   0  0  0  0  0  0  0  0  0  0  0  0
  -26.1062   -1.2415  -12.1862 C   0  0  0  0  0  0  0  0  0  0  0  0
  -26.4514   -1.6640  -13.4799 C   0  0  0  0  0  0  0  0  0  0  0  0
  -25.5365   -1.5544  -14.5286 C   0  0  0  0  0  0  0  0  0  0  0  0
  -24.2761   -1.0094  -14.2923 C   0  0  0  0  0  0  0  0  0  0  0  0
  -23.9410   -0.5697  -13.0113 C   0  0  0  0  0  0  0  0  0  0  0  0
  -22.3932    0.1301  -12.7329 Cl  0  0  0  0  0  0  0  0  0  0  0  0
  -24.8467   -0.6804  -11.9536 C   0  0  0  0  0  0  0  0  0  0  0  0
 17 18  1  0  0  0
 18 19  2  0  0  0
 18 20  1  0  0  0
 20  8  1  0  0  0
 20 21  1  0  0  0
  8  9  2  0  0  0
  8 16  1  0  0  0
  9 10  1  0  0  0
 10 11  1  0  0  0
 10 15  1  0  0  0
 11 12  2  0  0  0
 12  1  1  0  0  0
 12 13  1  0  0  0
  1  2  1  0  0  0
  1  6  2  0  0  0
  2  3  2  0  0  0
  3 22  1  0  0  0
  3  4  1  0  0  0
 22 23  1  0  0  0
 22 25  1  0  0  0
 23 24  2  0  0  0
 23 26  1  0  0  0
 26 27  1  0  0  0
 26 32  2  0  0  0
 27 28  2  0  0  0
 28 29  1  0  0  0
 29 30  2  0  0  0
 30 31  1  0  0  0
 30 32  1  0  0  0
  4  5  2  0  0  0
  5  6  1  0  0  0
  6  7  1  0  0  0
 13 14  2  0  0  0
 14 15  1  0  0  0
 15 16  2  0  0  0
M  END
> <minimizedAffinity>
-10.89303

$$$$
