CHEMBL3706816


 41 45  0  0  0  0  0  0  0  0999 V2000
  -14.7210   -4.0586  -12.6101 C   0  0  0  0  0  0  0  0  0  0  0  0
  -15.7167   -4.3510  -11.7534 N   0  0  0  0  0  0  0  0  0  0  0  0
  -16.4521   -5.4308  -12.0378 C   0  0  0  0  0  0  0  0  0  0  0  0
  -16.2968   -6.2360  -13.0950 N   0  0  0  0  0  0  0  0  0  0  0  0
  -15.3035   -5.9333  -13.9416 C   0  0  0  0  0  0  0  0  0  0  0  0
  -15.0884   -6.7147  -15.0702 C   0  0  0  0  0  0  0  0  0  0  0  0
  -14.0400   -6.4795  -15.9975 C   0  0  0  0  0  0  0  0  0  0  0  0
  -13.1854   -5.3827  -15.8017 C   0  0  0  0  0  0  0  0  0  0  0  0
  -13.4193   -4.5994  -14.6602 C   0  0  0  0  0  0  0  0  0  0  0  0
  -14.4569   -4.8492  -13.7374 C   0  0  0  0  0  0  0  0  0  0  0  0
  -13.9547   -2.8763  -12.4066 N   0  0  0  0  0  0  0  0  0  0  0  0
  -13.7831   -2.7421  -11.4087 H   0  0  0  0  0  0  0  0  0  0  0  0
  -15.3079    0.8595  -14.0163 C   0  0  0  0  0  0  0  0  0  0  0  0
  -15.9205    0.2829  -12.9747 C   0  0  0  0  0  0  0  0  0  0  0  0
  -15.4085   -0.9359  -12.3184 C   0  0  0  0  0  0  0  0  0  0  0  0
  -15.8839   -1.3149  -11.2571 O   0  0  0  0  0  0  0  0  0  0  0  0
  -14.3140   -1.6679  -12.9897 C   0  0  0  0  0  0  0  0  0  0  0  0
  -13.7232   -1.1166  -14.0541 C   0  0  0  0  0  0  0  0  0  0  0  0
  -14.1291    0.1734  -14.6401 C   0  0  0  0  0  0  0  0  0  0  0  0
  -13.5107    0.6444  -15.5828 O   0  0  0  0  0  0  0  0  0  0  0  0
  -15.6669    2.0771  -14.5924 O   0  0  0  0  0  0  0  0  0  0  0  0
  -16.4416    2.0017  -15.8023 C   0  0  0  0  0  0  0  0  0  0  0  0
  -17.9286    2.0550  -15.4972 C   0  0  0  0  0  0  0  0  0  0  0  0
  -18.6351    0.8521  -15.3177 C   0  0  0  0  0  0  0  0  0  0  0  0
  -20.0075    0.8599  -15.0716 C   0  0  0  0  0  0  0  0  0  0  0  0
  -20.6929    2.0697  -14.9999 C   0  0  0  0  0  0  0  0  0  0  0  0
  -20.0095    3.2704  -15.1862 C   0  0  0  0  0  0  0  0  0  0  0  0
  -18.6367    3.2651  -15.4438 C   0  0  0  0  0  0  0  0  0  0  0  0
  -15.7562    4.1296  -17.5275 C   0  0  0  0  0  0  0  0  0  0  0  0
  -16.0727    3.1470  -16.7309 C   0  0  0  0  0  0  0  0  0  0  0  0
  -12.0971   -4.8543  -16.4231 O   0  0  0  0  0  0  0  0  0  0  0  0
  -11.9403   -4.3231  -17.7231 C   0  0  0  0  0  0  0  0  0  0  0  0
  -14.0346   -7.4709  -16.9529 O   0  0  0  0  0  0  0  0  0  0  0  0
  -12.8819   -8.2791  -16.9670 C   0  0  0  0  0  0  0  0  0  0  0  0
  -12.9373   -9.5342  -16.1405 C   0  0  0  0  0  0  0  0  0  0  0  0
  -13.4065   -9.3574  -14.7108 C   0  0  0  0  0  0  0  0  0  0  0  0
  -12.2280   -9.2279  -13.8366 N   0  0  0  0  0  0  0  0  0  0  0  0
  -12.3927   -9.9861  -12.5899 C   0  0  0  0  0  0  0  0  0  0  0  0
  -13.1366   -9.0483  -11.6591 C   0  0  0  0  0  0  0  0  0  0  0  0
  -12.6305   -7.6704  -12.0436 C   0  0  0  0  0  0  0  0  0  0  0  0
  -11.9820   -7.8413  -13.4063 C   0  0  0  0  0  0  0  0  0  0  0  0
 29 30  3  0  0  0
 30 22  1  0  0  0
 22 21  1  0  0  0
 22 23  1  0  0  0
 21 13  1  0  0  0
 13 14  2  0  0  0
 13 19  1  0  0  0
 14 15  1  0  0  0
 15 16  2  0  0  0
 15 17  1  0  0  0
 17 11  1  0  0  0
 17 18  2  0  0  0
 11  1  1  0  0  0
 11 12  1  0  0  0
  1  2  1  0  0  0
  1 10  2  0  0  0
  2  3  2  0  0  0
  3  4  1  0  0  0
  4  5  2  0  0  0
  5  6  1  0  0  0
  5 10  1  0  0  0
  6  7  2  0  0  0
  7 33  1  0  0  0
  7  8  1  0  0  0
 33 34  1  0  0  0
 34 35  1  0  0  0
 35 36  1  0  0  0
 36 37  1  0  0  0
 37 38  1  0  0  0
 37 41  1  0  0  0
 38 39  1  0  0  0
 39 40  1  0  0  0
 40 41  1  0  0  0
  8 31  1  0  0  0
  8  9  2  0  0  0
 31 32  1  0  0  0
  9 10  1  0  0  0
 18 19  1  0  0  0
 19 20  2  0  0  0
 23 24  1  0  0  0
 23 28  2  0  0  0
 24 25  2  0  0  0
 25 26  1  0  0  0
 26 27  2  0  0  0
 27 28  1  0  0  0
M  END
> <minimizedAffinity>
-7.92584

$$$$
