CHEMBL1956887


 35 39  0  0  0  0  0  0  0  0999 V2000
  -11.8025    1.2688  -14.0493 N   0  0  0  0  0  0  0  0  0  0  0  0
  -13.1696    1.0739  -14.1121 C   0  0  0  0  0  0  0  0  0  0  0  0
  -13.6593    0.1184  -13.3137 N   0  0  0  0  0  0  0  0  0  0  0  0
  -14.9994   -0.0978  -13.2519 C   0  0  0  0  0  0  0  0  0  0  0  0
  -15.8220    0.7050  -14.0524 C   0  0  0  0  0  0  0  0  0  0  0  0
  -17.2185    0.8627  -14.2621 C   0  0  0  0  0  0  0  0  0  0  0  0
  -17.3953    1.9506  -15.1003 C   0  0  0  0  0  0  0  0  0  0  0  0
  -16.1457    2.3202  -15.5486 N   0  0  0  0  0  0  0  0  0  0  0  0
  -15.1856    1.6233  -14.8652 C   0  0  0  0  0  0  0  0  0  0  0  0
  -13.8674    1.8430  -14.9559 N   0  0  0  0  0  0  0  0  0  0  0  0
  -11.3643    0.4515  -13.6511 H   0  0  0  0  0  0  0  0  0  0  0  0
  -11.4524    1.6142  -14.9343 H   0  0  0  0  0  0  0  0  0  0  0  0
  -15.9368    3.0614  -16.2021 H   0  0  0  0  0  0  0  0  0  0  0  0
  -15.5284   -1.0326  -12.3561 N   0  0  0  0  0  0  0  0  0  0  0  0
  -16.0676   -0.6416  -11.5971 H   0  0  0  0  0  0  0  0  0  0  0  0
  -15.6006   -2.4259  -12.4911 C   0  0  0  0  0  0  0  0  0  0  0  0
  -16.2256   -3.1823  -11.4914 C   0  0  0  0  0  0  0  0  0  0  0  0
  -16.2589   -4.5789  -11.5693 C   0  0  0  0  0  0  0  0  0  0  0  0
  -15.6741   -5.2315  -12.6495 C   0  0  0  0  0  0  0  0  0  0  0  0
  -15.0452   -4.4851  -13.6453 C   0  0  0  0  0  0  0  0  0  0  0  0
  -14.2558   -5.3588  -15.1241 Br  0  0  0  0  0  0  0  0  0  0  0  0
  -14.9998   -3.0978  -13.5624 C   0  0  0  0  0  0  0  0  0  0  0  0
  -18.6330    2.7029  -15.4560 C   0  0  0  0  0  0  0  0  0  0  0  0
  -19.9016    2.0317  -15.0046 C   0  0  0  0  0  0  0  0  0  0  0  0
  -20.9006    2.7586  -14.3494 C   0  0  0  0  0  0  0  0  0  0  0  0
  -22.0650    2.1245  -13.9021 C   0  0  0  0  0  0  0  0  0  0  0  0
  -22.2759    0.7485  -14.0978 C   0  0  0  0  0  0  0  0  0  0  0  0
  -21.2737    0.0435  -14.7897 C   0  0  0  0  0  0  0  0  0  0  0  0
  -20.1014    0.6667  -15.2265 C   0  0  0  0  0  0  0  0  0  0  0  0
  -23.4818    0.0614  -13.5738 C   0  0  0  0  0  0  0  0  0  0  0  0
  -23.9323    0.2535  -12.2536 C   0  0  0  0  0  0  0  0  0  0  0  0
  -25.0548   -0.4207  -11.7586 C   0  0  0  0  0  0  0  0  0  0  0  0
  -25.7637   -1.2926  -12.5784 C   0  0  0  0  0  0  0  0  0  0  0  0
  -25.3479   -1.4959  -13.8886 C   0  0  0  0  0  0  0  0  0  0  0  0
  -24.2176   -0.8325  -14.3745 C   0  0  0  0  0  0  0  0  0  0  0  0
  1  2  1  0  0  0
  1 11  1  0  0  0
  1 12  1  0  0  0
  2  3  1  0  0  0
  2 10  2  0  0  0
  3  4  2  0  0  0
  4 14  1  0  0  0
  4  5  1  0  0  0
 14 16  1  0  0  0
 14 15  1  0  0  0
 16 17  1  0  0  0
 16 22  2  0  0  0
 17 18  2  0  0  0
 18 19  1  0  0  0
 19 20  2  0  0  0
 20 21  1  0  0  0
 20 22  1  0  0  0
  5  6  1  0  0  0
  5  9  2  0  0  0
  6  7  2  0  0  0
  7 23  1  0  0  0
  7  8  1  0  0  0
 23 24  1  0  0  0
 24 25  1  0  0  0
 24 29  2  0  0  0
 25 26  2  0  0  0
 26 27  1  0  0  0
 27 30  1  0  0  0
 27 28  2  0  0  0
 30 31  1  0  0  0
 30 35  2  0  0  0
 31 32  2  0  0  0
 32 33  1  0  0  0
 33 34  2  0  0  0
 34 35  1  0  0  0
 28 29  1  0  0  0
  8  9  1  0  0  0
  8 13  1  0  0  0
  9 10  1  0  0  0
M  END
> <minimizedAffinity>
-11.52624

$$$$
