CHEMBL3920239


 36 40  0  0  0  0  0  0  0  0999 V2000
  -29.3570   -6.5817   -4.7431 C   0  0  0  0  0  0  0  0  0  0  0  0
  -28.0571   -7.0162   -4.4869 C   0  0  0  0  0  0  0  0  0  0  0  0
  -27.5285   -8.1120   -5.1533 C   0  0  0  0  0  0  0  0  0  0  0  0
  -28.3089   -8.9500   -5.9620 C   0  0  0  0  0  0  0  0  0  0  0  0
  -29.6802   -8.5583   -6.1818 C   0  0  0  0  0  0  0  0  0  0  0  0
  -30.5742   -9.2937   -7.0027 C   0  0  0  0  0  0  0  0  0  0  0  0
  -31.8148   -8.7991   -7.4053 C   0  0  0  0  0  0  0  0  0  0  0  0
  -32.2556   -7.5844   -6.9186 C   0  0  0  0  0  0  0  0  0  0  0  0
  -31.4696   -6.8865   -6.0034 C   0  0  0  0  0  0  0  0  0  0  0  0
  -30.1857   -7.3390   -5.6090 C   0  0  0  0  0  0  0  0  0  0  0  0
  -27.6294  -10.1024   -6.6295 C   0  0  0  0  0  0  0  0  0  0  0  0
  -27.4770  -11.3526   -6.0002 C   0  0  0  0  0  0  0  0  0  0  0  0
  -26.8910  -12.4660   -6.5066 N   0  0  0  0  0  0  0  0  0  0  0  0
  -26.4729  -12.4408   -7.7810 C   0  0  0  0  0  0  0  0  0  0  0  0
  -26.6678  -11.2882   -8.5202 C   0  0  0  0  0  0  0  0  0  0  0  0
  -26.4325  -11.0481   -9.8425 N   0  0  0  0  0  0  0  0  0  0  0  0
  -26.7385   -9.8120  -10.2360 N   0  0  0  0  0  0  0  0  0  0  0  0
  -27.1470   -9.2139   -9.1201 C   0  0  0  0  0  0  0  0  0  0  0  0
  -27.4832   -7.9216   -9.1492 N   0  0  0  0  0  0  0  0  0  0  0  0
  -27.1983  -10.1053   -7.9918 C   0  0  0  0  0  0  0  0  0  0  0  0
  -26.0827  -11.6969  -10.5371 H   0  0  0  0  0  0  0  0  0  0  0  0
  -27.5755   -7.4607  -10.0461 H   0  0  0  0  0  0  0  0  0  0  0  0
  -27.6769   -7.3551   -8.3356 H   0  0  0  0  0  0  0  0  0  0  0  0
  -29.6199   -2.9824   -4.1621 N   0  0  0  0  0  0  0  0  0  0  0  0
  -29.1384   -4.1653   -4.6977 C   0  0  0  0  0  0  0  0  0  0  0  0
  -28.2632   -4.2273   -5.5618 O   0  0  0  0  0  0  0  0  0  0  0  0
  -29.7520   -5.3140   -4.1986 N   0  0  0  0  0  0  0  0  0  0  0  0
  -30.1852   -3.0366   -3.3282 H   0  0  0  0  0  0  0  0  0  0  0  0
  -30.7175   -5.1986   -3.9401 H   0  0  0  0  0  0  0  0  0  0  0  0
  -30.8569    1.4159   -6.1454 C   0  0  0  0  0  0  0  0  0  0  0  0
  -29.8336    0.4785   -5.5747 C   0  0  0  0  0  0  0  0  0  0  0  0
  -28.5024    0.9002   -5.4890 C   0  0  0  0  0  0  0  0  0  0  0  0
  -27.5389    0.0495   -4.9682 C   0  0  0  0  0  0  0  0  0  0  0  0
  -27.9000   -1.2309   -4.5388 C   0  0  0  0  0  0  0  0  0  0  0  0
  -29.2228   -1.6842   -4.5978 C   0  0  0  0  0  0  0  0  0  0  0  0
  -30.1892   -0.8118   -5.1235 C   0  0  0  0  0  0  0  0  0  0  0  0
 30 31  1  0  0  0
 31 32  1  0  0  0
 31 36  2  0  0  0
 32 33  2  0  0  0
 33 34  1  0  0  0
 34 35  2  0  0  0
 35 24  1  0  0  0
 35 36  1  0  0  0
 24 25  1  0  0  0
 24 28  1  0  0  0
 25 26  2  0  0  0
 25 27  1  0  0  0
 27  1  1  0  0  0
 27 29  1  0  0  0
  1  2  1  0  0  0
  1 10  2  0  0  0
  2  3  2  0  0  0
  3  4  1  0  0  0
  4 11  1  0  0  0
  4  5  2  0  0  0
 11 12  1  0  0  0
 11 20  2  0  0  0
 12 13  2  0  0  0
 13 14  1  0  0  0
 14 15  2  0  0  0
 15 16  1  0  0  0
 15 20  1  0  0  0
 16 17  1  0  0  0
 16 21  1  0  0  0
 17 18  2  0  0  0
 18 19  1  0  0  0
 18 20  1  0  0  0
 19 22  1  0  0  0
 19 23  1  0  0  0
  5  6  1  0  0  0
  5 10  1  0  0  0
  6  7  2  0  0  0
  7  8  1  0  0  0
  8  9  2  0  0  0
  9 10  1  0  0  0
M  END
> <minimizedAffinity>
-9.64432

$$$$
