CHEMBL3896004


 44 47  0  0  0  0  0  0  0  0999 V2000
  -31.0213    1.4401   -6.7140 C   0  0  0  0  0  0  0  0  0  0  0  0
  -29.6568    1.5680   -6.8570 C   0  0  0  0  0  0  0  0  0  0  0  0
  -28.9227    0.6008   -6.1190 C   0  0  0  0  0  0  0  0  0  0  0  0
  -27.5656    0.5202   -6.0707 N   0  0  0  0  0  0  0  0  0  0  0  0
  -27.0652   -0.4490   -5.2859 C   0  0  0  0  0  0  0  0  0  0  0  0
  -27.8172   -1.3579   -4.5694 C   0  0  0  0  0  0  0  0  0  0  0  0
  -29.2069   -1.3269   -4.6919 C   0  0  0  0  0  0  0  0  0  0  0  0
  -29.7624   -0.2821   -5.4464 C   0  0  0  0  0  0  0  0  0  0  0  0
  -31.4129    0.1128   -5.7089 S   0  0  0  0  0  0  0  0  0  0  0  0
  -31.5731    3.3953   -8.0011 N   0  0  0  0  0  0  0  0  0  0  0  0
  -32.0390    2.2916   -7.3104 C   0  0  0  0  0  0  0  0  0  0  0  0
  -33.2457    2.0449   -7.2251 O   0  0  0  0  0  0  0  0  0  0  0  0
  -30.5771    3.5757   -7.9982 H   0  0  0  0  0  0  0  0  0  0  0  0
  -32.4642    4.3256   -8.6590 C   0  0  0  0  0  0  0  0  0  0  0  0
  -33.4384    3.6178   -9.5985 C   0  0  0  0  0  0  0  0  0  0  0  0
  -34.6602    4.5013   -9.8583 C   0  0  0  0  0  0  0  0  0  0  0  0
  -34.2650    5.6993  -10.5918 N   0  0  0  0  0  0  0  0  0  0  0  0
  -33.5220    6.1986  -10.0954 H   0  0  0  0  0  0  0  0  0  0  0  0
  -35.4044    6.6161  -10.7774 C   0  0  0  0  0  0  0  0  0  0  0  0
  -34.9959    7.7996  -11.6526 C   0  0  0  0  0  0  0  0  0  0  0  0
  -35.6981    8.3121  -12.5163 O   0  0  0  0  0  0  0  0  0  0  0  0
  -33.4454    9.5522  -11.5591 C   0  0  0  0  0  0  0  0  0  0  0  0
  -33.7090    8.1611  -11.3746 O   0  0  0  0  0  0  0  0  0  0  0  0
  -30.0389   -2.2369   -4.0860 O   0  0  0  0  0  0  0  0  0  0  0  0
  -30.2305   -3.4581   -4.6874 C   0  0  0  0  0  0  0  0  0  0  0  0
  -30.5926   -4.5006   -3.8476 C   0  0  0  0  0  0  0  0  0  0  0  0
  -30.7373   -5.7885   -4.3641 C   0  0  0  0  0  0  0  0  0  0  0  0
  -30.5307   -6.0555   -5.7256 C   0  0  0  0  0  0  0  0  0  0  0  0
  -30.2128   -4.9914   -6.5702 C   0  0  0  0  0  0  0  0  0  0  0  0
  -30.1001   -3.6944   -6.0606 C   0  0  0  0  0  0  0  0  0  0  0  0
  -30.6281   -7.3490   -6.2917 N   0  0  0  0  0  0  0  0  0  0  0  0
  -29.7112   -7.9069   -7.1565 C   0  0  0  0  0  0  0  0  0  0  0  0
  -28.6777   -7.3608   -7.5242 O   0  0  0  0  0  0  0  0  0  0  0  0
  -30.0873   -9.1705   -7.5994 N   0  0  0  0  0  0  0  0  0  0  0  0
  -31.3636   -7.9526   -5.9515 H   0  0  0  0  0  0  0  0  0  0  0  0
  -31.0636   -9.2304   -7.8629 H   0  0  0  0  0  0  0  0  0  0  0  0
  -29.1936   -9.8071   -8.5032 C   0  0  0  0  0  0  0  0  0  0  0  0
  -29.3524   -9.6493   -9.8861 C   0  0  0  0  0  0  0  0  0  0  0  0
  -28.6403  -10.4542  -10.7820 C   0  0  0  0  0  0  0  0  0  0  0  0
  -28.8794  -10.3370  -12.2587 C   0  0  0  0  0  0  0  0  0  0  0  0
  -27.7592  -11.4183  -10.2752 C   0  0  0  0  0  0  0  0  0  0  0  0
  -27.5522  -11.5349   -8.8968 C   0  0  0  0  0  0  0  0  0  0  0  0
  -28.2529  -10.7128   -8.0197 C   0  0  0  0  0  0  0  0  0  0  0  0
  -28.0966  -10.8722   -6.6964 F   0  0  0  0  0  0  0  0  0  0  0  0
 22 23  1  0  0  0
 23 20  1  0  0  0
 20 21  2  0  0  0
 20 19  1  0  0  0
 19 17  1  0  0  0
 17 16  1  0  0  0
 17 18  1  0  0  0
 16 15  1  0  0  0
 15 14  1  0  0  0
 14 10  1  0  0  0
 10 11  1  0  0  0
 10 13  1  0  0  0
 11 12  2  0  0  0
 11  1  1  0  0  0
  1  2  2  0  0  0
  1  9  1  0  0  0
  2  3  1  0  0  0
  3  4  1  0  0  0
  3  8  2  0  0  0
  4  5  2  0  0  0
  5  6  1  0  0  0
  6  7  2  0  0  0
  7 24  1  0  0  0
  7  8  1  0  0  0
 24 25  1  0  0  0
 25 26  1  0  0  0
 25 30  2  0  0  0
 26 27  2  0  0  0
 27 28  1  0  0  0
 28 31  1  0  0  0
 28 29  2  0  0  0
 31 32  1  0  0  0
 31 35  1  0  0  0
 32 33  2  0  0  0
 32 34  1  0  0  0
 34 37  1  0  0  0
 34 36  1  0  0  0
 37 38  1  0  0  0
 37 43  2  0  0  0
 38 39  2  0  0  0
 39 40  1  0  0  0
 39 41  1  0  0  0
 41 42  2  0  0  0
 42 43  1  0  0  0
 43 44  1  0  0  0
 29 30  1  0  0  0
  8  9  1  0  0  0
M  END
> <minimizedAffinity>
-6.53927

$$$$
