CHEMBL3929849


 38 42  0  0  0  0  0  0  0  0999 V2000
  -27.7568   -9.5155   -3.9079 N   0  0  0  0  0  0  0  0  0  0  0  0
  -28.1811   -8.1339   -3.9335 C   0  0  0  0  0  0  0  0  0  0  0  0
  -29.2799   -7.8588   -3.1423 C   0  0  0  0  0  0  0  0  0  0  0  0
  -30.0991   -6.7901   -3.4425 C   0  0  0  0  0  0  0  0  0  0  0  0
  -29.7647   -5.8604   -4.4114 C   0  0  0  0  0  0  0  0  0  0  0  0
  -30.7599   -5.0392   -4.7088 N   0  0  0  0  0  0  0  0  0  0  0  0
  -30.4633   -3.9949   -5.4918 C   0  0  0  0  0  0  0  0  0  0  0  0
  -29.1730   -3.7160   -5.8705 C   0  0  0  0  0  0  0  0  0  0  0  0
  -28.1554   -4.6305   -5.6714 N   0  0  0  0  0  0  0  0  0  0  0  0
  -28.4755   -5.8301   -4.9753 C   0  0  0  0  0  0  0  0  0  0  0  0
  -27.7050   -7.0505   -4.7651 C   0  0  0  0  0  0  0  0  0  0  0  0
  -28.9340   -2.3378   -6.3194 C   0  0  0  0  0  0  0  0  0  0  0  0
  -27.9121   -1.8247   -7.1641 C   0  0  0  0  0  0  0  0  0  0  0  0
  -27.8485   -0.4847   -7.1619 N   0  0  0  0  0  0  0  0  0  0  0  0
  -28.8201   -0.1319   -6.3051 N   0  0  0  0  0  0  0  0  0  0  0  0
  -29.3086    1.2276   -6.2688 C   0  0  0  0  0  0  0  0  0  0  0  0
  -29.3541   -1.2030   -5.6379 C   0  0  0  0  0  0  0  0  0  0  0  0
  -24.1998  -10.1204   -5.0244 C   0  0  0  0  0  0  0  0  0  0  0  0
  -23.7157  -10.9333   -4.0129 C   0  0  0  0  0  0  0  0  0  0  0  0
  -24.6003  -11.4307   -3.0554 C   0  0  0  0  0  0  0  0  0  0  0  0
  -25.9411  -10.9853   -3.0301 C   0  0  0  0  0  0  0  0  0  0  0  0
  -26.4404  -10.0783   -3.9813 C   0  0  0  0  0  0  0  0  0  0  0  0
  -25.5587   -9.7780   -5.0439 C   0  0  0  0  0  0  0  0  0  0  0  0
  -22.3367  -10.3722   -6.4785 C   0  0  0  0  0  0  0  0  0  0  0  0
  -23.4480   -9.5932   -6.0431 O   0  0  0  0  0  0  0  0  0  0  0  0
  -24.2286  -12.3199   -2.0767 O   0  0  0  0  0  0  0  0  0  0  0  0
  -22.8268  -12.3877   -1.8004 C   0  0  0  0  0  0  0  0  0  0  0  0
  -28.9222  -10.4081   -4.4674 C   0  0  0  0  0  0  0  0  0  0  0  0
  -28.7195  -10.3731   -5.9734 C   0  0  0  0  0  0  0  0  0  0  0  0
  -28.5456  -10.3430   -7.2653 C   0  0  0  0  0  0  0  0  0  0  0  0
  -28.2296  -10.3315   -8.6609 C   0  0  0  0  0  0  0  0  0  0  0  0
  -29.3057  -10.2252   -9.4816 N   0  0  0  0  0  0  0  0  0  0  0  0
  -29.0177  -10.1452  -10.7990 C   0  0  0  0  0  0  0  0  0  0  0  0
  -27.7194  -10.1647  -11.2852 C   0  0  0  0  0  0  0  0  0  0  0  0
  -26.6421  -10.2909  -10.4774 N   0  0  0  0  0  0  0  0  0  0  0  0
  -26.9182  -10.3752   -9.1493 C   0  0  0  0  0  0  0  0  0  0  0  0
  -25.8692  -10.5453   -8.2662 O   0  0  0  0  0  0  0  0  0  0  0  0
  -25.2576  -11.8278   -8.3773 C   0  0  0  0  0  0  0  0  0  0  0  0
 24 25  1  0  0  0
 25 18  1  0  0  0
 18 19  1  0  0  0
 18 23  2  0  0  0
 19 20  2  0  0  0
 20 26  1  0  0  0
 20 21  1  0  0  0
 26 27  1  0  0  0
 21 22  2  0  0  0
 22  1  1  0  0  0
 22 23  1  0  0  0
  1 28  1  0  0  0
  1  2  1  0  0  0
 28 29  1  0  0  0
 29 30  3  0  0  0
 30 31  1  0  0  0
 31 32  1  0  0  0
 31 36  2  0  0  0
 32 33  2  0  0  0
 33 34  1  0  0  0
 34 35  2  0  0  0
 35 36  1  0  0  0
 36 37  1  0  0  0
 37 38  1  0  0  0
  2  3  1  0  0  0
  2 11  2  0  0  0
  3  4  2  0  0  0
  4  5  1  0  0  0
  5  6  1  0  0  0
  5 10  2  0  0  0
  6  7  2  0  0  0
  7  8  1  0  0  0
  8 12  1  0  0  0
  8  9  2  0  0  0
 12 13  1  0  0  0
 12 17  2  0  0  0
 13 14  2  0  0  0
 14 15  1  0  0  0
 15 16  1  0  0  0
 15 17  1  0  0  0
  9 10  1  0  0  0
 10 11  1  0  0  0
M  END
> <minimizedAffinity>
-7.91518

$$$$
