CHEMBL3787112


 29 33  0  0  0  0  0  0  0  0999 V2000
  -16.2697    0.1290  -12.7774 N   0  0  0  0  0  0  0  0  0  0  0  0
  -15.2846    0.8362  -13.4320 C   0  0  0  0  0  0  0  0  0  0  0  0
  -14.0428    0.7238  -12.9258 N   0  0  0  0  0  0  0  0  0  0  0  0
  -13.0271    1.3642  -13.5463 C   0  0  0  0  0  0  0  0  0  0  0  0
  -13.0899    2.1282  -14.6465 N   0  0  0  0  0  0  0  0  0  0  0  0
  -14.3471    2.2564  -15.1040 C   0  0  0  0  0  0  0  0  0  0  0  0
  -15.4934    1.6573  -14.5523 C   0  0  0  0  0  0  0  0  0  0  0  0
  -16.6098    2.0977  -15.3490 C   0  0  0  0  0  0  0  0  0  0  0  0
  -16.0902    2.8560  -16.3799 C   0  0  0  0  0  0  0  0  0  0  0  0
  -14.7454    3.0098  -16.1829 N   0  0  0  0  0  0  0  0  0  0  0  0
  -15.9665   -0.4313  -11.9940 H   0  0  0  0  0  0  0  0  0  0  0  0
  -17.1454   -0.0738  -13.2332 H   0  0  0  0  0  0  0  0  0  0  0  0
  -18.0522    1.8934  -15.2255 C   0  0  0  0  0  0  0  0  0  0  0  0
  -18.6031    0.6115  -15.3325 C   0  0  0  0  0  0  0  0  0  0  0  0
  -19.9817    0.4102  -15.2182 C   0  0  0  0  0  0  0  0  0  0  0  0
  -20.8190    1.4790  -14.9120 C   0  0  0  0  0  0  0  0  0  0  0  0
  -20.2724    2.7428  -14.7390 C   0  0  0  0  0  0  0  0  0  0  0  0
  -21.0426    3.8071  -14.3720 O   0  0  0  0  0  0  0  0  0  0  0  0
  -18.9098    2.9626  -14.9183 C   0  0  0  0  0  0  0  0  0  0  0  0
  -21.9409    3.4879  -14.1843 H   0  0  0  0  0  0  0  0  0  0  0  0
  -13.8818    3.7061  -17.1138 C   0  0  0  0  0  0  0  0  0  0  0  0
  -12.6121    2.9364  -17.5608 C   0  0  0  0  0  0  0  0  0  0  0  0
  -13.3525    2.5439  -18.8699 C   0  0  0  0  0  0  0  0  0  0  0  0
  -14.3188    3.7310  -18.5954 C   0  0  0  0  0  0  0  0  0  0  0  0
  -13.9827    1.1438  -18.8982 C   0  0  0  0  0  0  0  0  0  0  0  0
  -13.6786    0.4605  -20.1629 N   0  0  0  0  0  0  0  0  0  0  0  0
  -12.8661   -0.7583  -19.8974 C   0  0  0  0  0  0  0  0  0  0  0  0
  -12.0113   -0.3792  -21.1189 C   0  0  0  0  0  0  0  0  0  0  0  0
  -12.4900    1.0563  -20.8324 C   0  0  0  0  0  0  0  0  0  0  0  0
  1  2  1  0  0  0
  1 11  1  0  0  0
  1 12  1  0  0  0
  2  3  1  0  0  0
  2  7  2  0  0  0
  3  4  2  0  0  0
  4  5  1  0  0  0
  5  6  2  0  0  0
  6  7  1  0  0  0
  6 10  1  0  0  0
  7  8  1  0  0  0
  8 13  1  0  0  0
  8  9  2  0  0  0
 13 14  1  0  0  0
 13 19  2  0  0  0
 14 15  2  0  0  0
 15 16  1  0  0  0
 16 17  2  0  0  0
 17 18  1  0  0  0
 17 19  1  0  0  0
 18 20  1  0  0  0
  9 10  1  0  0  0
 21 22  1  0  0  0
 21 24  1  0  0  0
 21 10  1  0  0  0
 22 23  1  0  0  0
 23 25  1  0  0  0
 23 24  1  0  0  0
 25 26  1  0  0  0
 26 27  1  0  0  0
 26 29  1  0  0  0
 27 28  1  0  0  0
 28 29  1  0  0  0
M  END
> <minimizedAffinity>
-7.32343

$$$$
