CHEMBL3690501


 41 45  0  0  0  0  0  0  0  0999 V2000
  -18.3318    1.9181  -15.3308 C   0  0  0  0  0  0  0  0  0  0  0  0
  -18.0938    3.2559  -15.8700 C   0  0  0  0  0  0  0  0  0  0  0  0
  -16.8365    3.6708  -16.0862 C   0  0  0  0  0  0  0  0  0  0  0  0
  -15.7669    2.8283  -15.7784 N   0  0  0  0  0  0  0  0  0  0  0  0
  -14.3961    3.0438  -15.8147 C   0  0  0  0  0  0  0  0  0  0  0  0
  -13.8585    1.8009  -15.5040 C   0  0  0  0  0  0  0  0  0  0  0  0
  -14.8192    0.8783  -15.2007 N   0  0  0  0  0  0  0  0  0  0  0  0
  -15.9576    1.5172  -15.3398 C   0  0  0  0  0  0  0  0  0  0  0  0
  -17.2931    1.0849  -15.0998 C   0  0  0  0  0  0  0  0  0  0  0  0
  -22.2033    0.5962  -14.2132 C   0  0  0  0  0  0  0  0  0  0  0  0
  -21.3245   -0.2795  -14.8537 C   0  0  0  0  0  0  0  0  0  0  0  0
  -20.0563    0.1461  -15.2332 C   0  0  0  0  0  0  0  0  0  0  0  0
  -19.6802    1.4597  -14.9831 C   0  0  0  0  0  0  0  0  0  0  0  0
  -20.6044    2.2744  -14.3422 C   0  0  0  0  0  0  0  0  0  0  0  0
  -21.8368    1.8669  -13.9444 N   0  0  0  0  0  0  0  0  0  0  0  0
  -27.3848   -1.3831  -10.9792 C   0  0  0  0  0  0  0  0  0  0  0  0
  -26.9119   -1.6933  -12.3741 C   0  0  0  0  0  0  0  0  0  0  0  0
  -27.6387   -2.3116  -13.1517 O   0  0  0  0  0  0  0  0  0  0  0  0
  -25.6575   -1.2371  -12.7293 N   0  0  0  0  0  0  0  0  0  0  0  0
  -24.6904   -0.5893  -11.8188 C   0  0  0  0  0  0  0  0  0  0  0  0
  -23.9635    0.5992  -12.4916 C   0  0  0  0  0  0  0  0  0  0  0  0
  -23.4136    0.1227  -13.7617 N   0  0  0  0  0  0  0  0  0  0  0  0
  -24.4207   -0.3764  -14.7057 C   0  0  0  0  0  0  0  0  0  0  0  0
  -25.1282   -1.5776  -14.0592 C   0  0  0  0  0  0  0  0  0  0  0  0
  -13.6999    4.3036  -16.1077 C   0  0  0  0  0  0  0  0  0  0  0  0
  -12.9148    4.8914  -15.1078 C   0  0  0  0  0  0  0  0  0  0  0  0
  -12.3112    6.1268  -15.3175 C   0  0  0  0  0  0  0  0  0  0  0  0
  -12.4493    6.7736  -16.5445 C   0  0  0  0  0  0  0  0  0  0  0  0
  -13.1852    6.1991  -17.5808 C   0  0  0  0  0  0  0  0  0  0  0  0
  -13.8423    4.9820  -17.3358 C   0  0  0  0  0  0  0  0  0  0  0  0
  -13.3043    6.7871  -18.8658 N   0  0  0  0  0  0  0  0  0  0  0  0
  -14.1499    7.8214  -19.2070 C   0  0  0  0  0  0  0  0  0  0  0  0
  -14.9281    8.4103  -18.4738 O   0  0  0  0  0  0  0  0  0  0  0  0
  -14.0860    8.1371  -20.5478 N   0  0  0  0  0  0  0  0  0  0  0  0
  -12.7114    6.4214  -19.5956 H   0  0  0  0  0  0  0  0  0  0  0  0
  -13.1888    8.0331  -20.9992 H   0  0  0  0  0  0  0  0  0  0  0  0
  -14.9564    9.2187  -21.0327 C   0  0  0  0  0  0  0  0  0  0  0  0
  -16.3970    8.8228  -21.3933 C   0  0  0  0  0  0  0  0  0  0  0  0
  -17.3001    9.3515  -20.5356 F   0  0  0  0  0  0  0  0  0  0  0  0
  -16.7071    9.2983  -22.6265 F   0  0  0  0  0  0  0  0  0  0  0  0
  -16.5746    7.4864  -21.4250 F   0  0  0  0  0  0  0  0  0  0  0  0
 16 17  1  0  0  0
 17 18  2  0  0  0
 17 19  1  0  0  0
 19 20  1  0  0  0
 19 24  1  0  0  0
 20 21  1  0  0  0
 21 22  1  0  0  0
 22 10  1  0  0  0
 22 23  1  0  0  0
 10 11  1  0  0  0
 10 15  2  0  0  0
 11 12  2  0  0  0
 12 13  1  0  0  0
 13  1  1  0  0  0
 13 14  2  0  0  0
  1  2  1  0  0  0
  1  9  2  0  0  0
  2  3  2  0  0  0
  3  4  1  0  0  0
  4  5  1  0  0  0
  4  8  1  0  0  0
  5 25  1  0  0  0
  5  6  2  0  0  0
 25 26  1  0  0  0
 25 30  2  0  0  0
 26 27  2  0  0  0
 27 28  1  0  0  0
 28 29  2  0  0  0
 29 31  1  0  0  0
 29 30  1  0  0  0
 31 32  1  0  0  0
 31 35  1  0  0  0
 32 33  2  0  0  0
 32 34  1  0  0  0
 34 37  1  0  0  0
 34 36  1  0  0  0
 37 38  1  0  0  0
 38 39  1  0  0  0
 38 40  1  0  0  0
 38 41  1  0  0  0
  6  7  1  0  0  0
  7  8  2  0  0  0
  8  9  1  0  0  0
 14 15  1  0  0  0
 23 24  1  0  0  0
M  END
> <minimizedAffinity>
-9.78287

$$$$
