CHEMBL3907378


 37 41  0  0  0  0  0  0  0  0999 V2000
  -14.9587    4.1296  -16.8371 O   0  0  0  0  0  0  0  0  0  0  0  0
  -15.1271    2.9234  -16.6372 C   0  0  0  0  0  0  0  0  0  0  0  0
  -16.3257    2.4806  -15.8667 C   0  0  0  0  0  0  0  0  0  0  0  0
  -16.2750    1.7341  -14.6748 C   0  0  0  0  0  0  0  0  0  0  0  0
  -17.4515    1.3778  -13.9736 C   0  0  0  0  0  0  0  0  0  0  0  0
  -18.6618    1.9686  -14.3808 C   0  0  0  0  0  0  0  0  0  0  0  0
  -20.0526    2.0177  -14.0106 C   0  0  0  0  0  0  0  0  0  0  0  0
  -20.4027    3.3179  -14.1220 N   0  0  0  0  0  0  0  0  0  0  0  0
  -19.7146    3.6697  -15.2271 N   0  0  0  0  0  0  0  0  0  0  0  0
  -18.6038    2.8931  -15.4155 C   0  0  0  0  0  0  0  0  0  0  0  0
  -17.5411    3.0230  -16.2985 C   0  0  0  0  0  0  0  0  0  0  0  0
  -19.9621    4.5240  -15.7046 H   0  0  0  0  0  0  0  0  0  0  0  0
  -21.1214    1.1341  -14.4708 C   0  0  0  0  0  0  0  0  0  0  0  0
  -22.3491    1.1153  -13.9150 C   0  0  0  0  0  0  0  0  0  0  0  0
  -23.0080   -0.1443  -13.4877 C   0  0  0  0  0  0  0  0  0  0  0  0
  -22.7000   -0.7424  -12.2470 C   0  0  0  0  0  0  0  0  0  0  0  0
  -23.5022   -1.7526  -11.7127 C   0  0  0  0  0  0  0  0  0  0  0  0
  -24.6272   -2.1822  -12.4059 C   0  0  0  0  0  0  0  0  0  0  0  0
  -24.9359   -1.6146  -13.6441 C   0  0  0  0  0  0  0  0  0  0  0  0
  -24.1354   -0.5978  -14.1778 C   0  0  0  0  0  0  0  0  0  0  0  0
  -14.0786    2.0017  -17.1200 C   0  0  0  0  0  0  0  0  0  0  0  0
  -12.7789    2.5126  -17.2097 C   0  0  0  0  0  0  0  0  0  0  0  0
  -11.7444    1.6969  -17.6446 C   0  0  0  0  0  0  0  0  0  0  0  0
  -12.0085    0.3697  -17.9800 C   0  0  0  0  0  0  0  0  0  0  0  0
  -13.2984   -0.1576  -17.8997 C   0  0  0  0  0  0  0  0  0  0  0  0
  -14.3461    0.6791  -17.4994 C   0  0  0  0  0  0  0  0  0  0  0  0
  -13.6004   -1.5073  -18.1685 N   0  0  0  0  0  0  0  0  0  0  0  0
  -13.3724   -2.1807  -19.3624 C   0  0  0  0  0  0  0  0  0  0  0  0
  -12.9570   -1.7107  -20.4144 O   0  0  0  0  0  0  0  0  0  0  0  0
  -13.9854   -2.0794  -17.4210 H   0  0  0  0  0  0  0  0  0  0  0  0
  -13.6762   -3.6474  -19.3136 C   0  0  0  0  0  0  0  0  0  0  0  0
  -13.9695   -4.3014  -20.5089 C   0  0  0  0  0  0  0  0  0  0  0  0
  -14.2272   -5.6643  -20.4776 C   0  0  0  0  0  0  0  0  0  0  0  0
  -14.1822   -6.3269  -19.2580 C   0  0  0  0  0  0  0  0  0  0  0  0
  -13.8823   -5.5875  -18.1219 C   0  0  0  0  0  0  0  0  0  0  0  0
  -13.8131   -6.3499  -16.5860 Cl  0  0  0  0  0  0  0  0  0  0  0  0
  -13.6252   -4.2609  -18.1011 N   0  0  0  0  0  0  0  0  0  0  0  0
  1  2  2  0  0  0
  2 21  1  0  0  0
  2  3  1  0  0  0
 21 22  1  0  0  0
 21 26  2  0  0  0
 22 23  2  0  0  0
 23 24  1  0  0  0
 24 25  2  0  0  0
 25 27  1  0  0  0
 25 26  1  0  0  0
 27 28  1  0  0  0
 27 30  1  0  0  0
 28 29  2  0  0  0
 28 31  1  0  0  0
 31 32  1  0  0  0
 31 37  2  0  0  0
 32 33  2  0  0  0
 33 34  1  0  0  0
 34 35  2  0  0  0
 35 36  1  0  0  0
 35 37  1  0  0  0
  3  4  1  0  0  0
  3 11  2  0  0  0
  4  5  2  0  0  0
  5  6  1  0  0  0
  6  7  1  0  0  0
  6 10  2  0  0  0
  7 13  1  0  0  0
  7  8  2  0  0  0
 13 14  2  0  0  0
 14 15  1  0  0  0
 15 16  1  0  0  0
 15 20  2  0  0  0
 16 17  2  0  0  0
 17 18  1  0  0  0
 18 19  2  0  0  0
 19 20  1  0  0  0
  8  9  1  0  0  0
  9 10  1  0  0  0
  9 12  1  0  0  0
 10 11  1  0  0  0
M  END
> <minimizedAffinity>
-10.66621

$$$$
