CHEMBL3746357


 35 39  0  0  0  0  0  0  0  0999 V2000
  -17.0992    1.4688  -15.8399 O   0  0  0  0  0  0  0  0  0  0  0  0
  -17.6031    2.5616  -15.7050 C   0  0  0  0  0  0  0  0  0  0  0  0
  -17.1192    3.7946  -16.0741 N   0  0  0  0  0  0  0  0  0  0  0  0
  -18.9117    2.6843  -15.2230 N   0  0  0  0  0  0  0  0  0  0  0  0
  -19.4450    3.8370  -14.6423 C   0  0  0  0  0  0  0  0  0  0  0  0
  -20.8078    3.6723  -14.6566 C   0  0  0  0  0  0  0  0  0  0  0  0
  -20.9665    2.2855  -14.4480 C   0  0  0  0  0  0  0  0  0  0  0  0
  -21.9606    1.4904  -13.8746 C   0  0  0  0  0  0  0  0  0  0  0  0
  -21.8267    0.1062  -13.9642 C   0  0  0  0  0  0  0  0  0  0  0  0
  -20.8678   -0.4581  -14.8079 C   0  0  0  0  0  0  0  0  0  0  0  0
  -19.8529    0.3187  -15.3648 C   0  0  0  0  0  0  0  0  0  0  0  0
  -19.8651    1.6823  -15.0573 C   0  0  0  0  0  0  0  0  0  0  0  0
  -17.7756    4.5644  -16.0748 H   0  0  0  0  0  0  0  0  0  0  0  0
  -15.8800    4.0531  -16.6734 C   0  0  0  0  0  0  0  0  0  0  0  0
  -15.6710    4.0455  -18.0507 C   0  0  0  0  0  0  0  0  0  0  0  0
  -14.4187    4.3761  -18.5652 C   0  0  0  0  0  0  0  0  0  0  0  0
  -13.3775    4.7284  -17.7083 C   0  0  0  0  0  0  0  0  0  0  0  0
  -13.5739    4.7263  -16.3195 C   0  0  0  0  0  0  0  0  0  0  0  0
  -14.8218    4.3559  -15.8130 C   0  0  0  0  0  0  0  0  0  0  0  0
  -12.4844    5.1487  -15.3654 C   0  0  0  0  0  0  0  0  0  0  0  0
  -12.6226    6.4179  -14.8945 F   0  0  0  0  0  0  0  0  0  0  0  0
  -12.4263    4.3458  -14.2654 F   0  0  0  0  0  0  0  0  0  0  0  0
  -11.2486    5.0877  -15.9332 F   0  0  0  0  0  0  0  0  0  0  0  0
  -22.7164   -0.5995  -13.1878 O   0  0  0  0  0  0  0  0  0  0  0  0
  -23.9674   -0.8919  -13.7131 C   0  0  0  0  0  0  0  0  0  0  0  0
  -24.1747   -0.7366  -15.0374 N   0  0  0  0  0  0  0  0  0  0  0  0
  -25.4256   -0.9540  -15.4440 C   0  0  0  0  0  0  0  0  0  0  0  0
  -26.4517   -1.3506  -14.6612 N   0  0  0  0  0  0  0  0  0  0  0  0
  -26.1665   -1.5336  -13.3488 C   0  0  0  0  0  0  0  0  0  0  0  0
  -24.9140   -1.3403  -12.8169 C   0  0  0  0  0  0  0  0  0  0  0  0
  -24.5846   -1.6681  -11.4051 C   0  0  0  0  0  0  0  0  0  0  0  0
  -25.7014   -1.5115  -10.4800 N   0  0  0  0  0  0  0  0  0  0  0  0
  -26.9724   -2.0414  -10.9670 C   0  0  0  0  0  0  0  0  0  0  0  0
  -27.2825   -1.9889  -12.4697 C   0  0  0  0  0  0  0  0  0  0  0  0
  -25.7980   -0.5309  -10.2256 H   0  0  0  0  0  0  0  0  0  0  0  0
  1  2  2  0  0  0
  2  3  1  0  0  0
  2  4  1  0  0  0
  3 14  1  0  0  0
  3 13  1  0  0  0
 14 15  1  0  0  0
 14 19  2  0  0  0
 15 16  2  0  0  0
 16 17  1  0  0  0
 17 18  2  0  0  0
 18 20  1  0  0  0
 18 19  1  0  0  0
 20 21  1  0  0  0
 20 22  1  0  0  0
 20 23  1  0  0  0
  4  5  1  0  0  0
  4 12  1  0  0  0
  5  6  2  0  0  0
  6  7  1  0  0  0
  7  8  1  0  0  0
  7 12  2  0  0  0
  8  9  2  0  0  0
  9 24  1  0  0  0
  9 10  1  0  0  0
 24 25  1  0  0  0
 25 26  1  0  0  0
 25 30  2  0  0  0
 26 27  2  0  0  0
 27 28  1  0  0  0
 28 29  2  0  0  0
 29 30  1  0  0  0
 29 34  1  0  0  0
 30 31  1  0  0  0
 31 32  1  0  0  0
 32 33  1  0  0  0
 32 35  1  0  0  0
 33 34  1  0  0  0
 10 11  2  0  0  0
 11 12  1  0  0  0
M  END
> <minimizedAffinity>
-9.62166

$$$$
