CHEMBL3397923


 37 40  0  0  0  0  0  0  0  0999 V2000
  -24.7840   -1.3574  -10.9110 C   0  0  0  0  0  0  0  0  0  0  0  0
  -24.3379   -2.4134  -10.4677 O   0  0  0  0  0  0  0  0  0  0  0  0
  -25.9602   -0.7486  -10.4787 N   0  0  0  0  0  0  0  0  0  0  0  0
  -26.3529   -0.0197  -11.0557 H   0  0  0  0  0  0  0  0  0  0  0  0
  -22.2442    0.3065  -13.9380 C   0  0  0  0  0  0  0  0  0  0  0  0
  -21.8734    0.2878  -12.5989 C   0  0  0  0  0  0  0  0  0  0  0  0
  -22.7628   -0.1912  -11.6392 C   0  0  0  0  0  0  0  0  0  0  0  0
  -24.0381   -0.6664  -12.0034 C   0  0  0  0  0  0  0  0  0  0  0  0
  -24.4817   -0.6303  -13.3592 C   0  0  0  0  0  0  0  0  0  0  0  0
  -23.5440   -0.1110  -14.2980 C   0  0  0  0  0  0  0  0  0  0  0  0
  -23.8410    0.0334  -15.6390 O   0  0  0  0  0  0  0  0  0  0  0  0
  -24.8017    0.0768  -15.7609 H   0  0  0  0  0  0  0  0  0  0  0  0
  -25.8373   -1.1048  -13.7939 C   0  0  0  0  0  0  0  0  0  0  0  0
  -26.2245   -1.1305  -15.1473 C   0  0  0  0  0  0  0  0  0  0  0  0
  -27.5027   -1.5488  -15.5440 C   0  0  0  0  0  0  0  0  0  0  0  0
  -28.4074   -2.0346  -14.6053 C   0  0  0  0  0  0  0  0  0  0  0  0
  -28.0318   -2.0645  -13.2716 C   0  0  0  0  0  0  0  0  0  0  0  0
  -28.8520   -2.5858  -12.3142 O   0  0  0  0  0  0  0  0  0  0  0  0
  -26.7935   -1.5675  -12.8644 C   0  0  0  0  0  0  0  0  0  0  0  0
  -29.6629   -2.9088  -12.7404 H   0  0  0  0  0  0  0  0  0  0  0  0
  -20.1292    1.1712  -14.6597 C   0  0  0  0  0  0  0  0  0  0  0  0
  -21.4359    0.7124  -14.9690 O   0  0  0  0  0  0  0  0  0  0  0  0
  -26.7844   -1.2901   -9.4642 C   0  0  0  0  0  0  0  0  0  0  0  0
  -27.1766   -2.6307   -9.5660 C   0  0  0  0  0  0  0  0  0  0  0  0
  -27.9251   -3.2353   -8.5444 C   0  0  0  0  0  0  0  0  0  0  0  0
  -28.3394   -2.4943   -7.4320 C   0  0  0  0  0  0  0  0  0  0  0  0
  -28.0210   -1.1295   -7.3789 C   0  0  0  0  0  0  0  0  0  0  0  0
  -28.5882   -0.1317   -6.0808 Cl  0  0  0  0  0  0  0  0  0  0  0  0
  -27.2341   -0.5399   -8.3724 C   0  0  0  0  0  0  0  0  0  0  0  0
  -29.0627   -3.0160   -6.3904 O   0  0  0  0  0  0  0  0  0  0  0  0
  -28.3128   -3.5085   -5.2743 C   0  0  0  0  0  0  0  0  0  0  0  0
  -28.7069   -4.9772   -5.0255 C   0  0  0  0  0  0  0  0  0  0  0  0
  -29.3463   -5.2263   -3.7150 N   0  0  0  0  0  0  0  0  0  0  0  0
  -30.2455   -6.3904   -3.7103 C   0  0  0  0  0  0  0  0  0  0  0  0
  -31.5448   -5.8690   -4.2868 C   0  0  0  0  0  0  0  0  0  0  0  0
  -31.6555   -4.4975   -3.6485 C   0  0  0  0  0  0  0  0  0  0  0  0
  -30.2147   -4.0875   -3.3419 C   0  0  0  0  0  0  0  0  0  0  0  0
 21 22  1  0  0  0
 22  5  1  0  0  0
  5  6  1  0  0  0
  5 10  2  0  0  0
  6  7  2  0  0  0
  7  8  1  0  0  0
  8  1  1  0  0  0
  8  9  2  0  0  0
  1  2  2  0  0  0
  1  3  1  0  0  0
  3 23  1  0  0  0
  3  4  1  0  0  0
 23 24  1  0  0  0
 23 29  2  0  0  0
 24 25  2  0  0  0
 25 26  1  0  0  0
 26 30  1  0  0  0
 26 27  2  0  0  0
 30 31  1  0  0  0
 31 32  1  0  0  0
 32 33  1  0  0  0
 33 34  1  0  0  0
 33 37  1  0  0  0
 34 35  1  0  0  0
 35 36  1  0  0  0
 36 37  1  0  0  0
 27 28  1  0  0  0
 27 29  1  0  0  0
  9 13  1  0  0  0
  9 10  1  0  0  0
 13 14  1  0  0  0
 13 19  2  0  0  0
 14 15  2  0  0  0
 15 16  1  0  0  0
 16 17  2  0  0  0
 17 18  1  0  0  0
 17 19  1  0  0  0
 18 20  1  0  0  0
 10 11  1  0  0  0
 11 12  1  0  0  0
M  END
> <minimizedAffinity>
-4.05724

$$$$
