CHEMBL1984162


 42 47  0  0  0  0  0  0  0  0999 V2000
  -24.4627   -0.4050  -12.5645 N   0  0  0  0  0  0  0  0  0  0  0  0
  -24.7958   -0.5909  -11.2708 N   0  0  0  0  0  0  0  0  0  0  0  0
  -25.9753   -1.2395  -11.3175 C   0  0  0  0  0  0  0  0  0  0  0  0
  -26.4153   -1.4159  -12.6700 C   0  0  0  0  0  0  0  0  0  0  0  0
  -27.5158   -1.9342  -13.3724 C   0  0  0  0  0  0  0  0  0  0  0  0
  -28.6622   -2.4702  -12.8018 N   0  0  0  0  0  0  0  0  0  0  0  0
  -27.5009   -1.9025  -14.7195 N   0  0  0  0  0  0  0  0  0  0  0  0
  -26.4382   -1.3594  -15.3412 C   0  0  0  0  0  0  0  0  0  0  0  0
  -25.3482   -0.8125  -14.7835 N   0  0  0  0  0  0  0  0  0  0  0  0
  -25.3999   -0.8742  -13.4413 C   0  0  0  0  0  0  0  0  0  0  0  0
  -28.9616   -2.0101  -11.9503 H   0  0  0  0  0  0  0  0  0  0  0  0
  -29.3842   -2.5754  -13.5066 H   0  0  0  0  0  0  0  0  0  0  0  0
  -21.3216    1.6133  -14.7765 C   0  0  0  0  0  0  0  0  0  0  0  0
  -22.1156    2.3887  -13.7176 C   0  0  0  0  0  0  0  0  0  0  0  0
  -23.4272    1.7033  -13.3437 C   0  0  0  0  0  0  0  0  0  0  0  0
  -23.2051    0.2474  -12.9126 C   0  0  0  0  0  0  0  0  0  0  0  0
  -22.4374   -0.5350  -13.9831 C   0  0  0  0  0  0  0  0  0  0  0  0
  -21.1260    0.1535  -14.3434 C   0  0  0  0  0  0  0  0  0  0  0  0
  -20.0655    2.2892  -14.9399 O   0  0  0  0  0  0  0  0  0  0  0  0
  -18.9420    1.4993  -14.5517 C   0  0  0  0  0  0  0  0  0  0  0  0
  -17.7478    1.7634  -15.4625 C   0  0  0  0  0  0  0  0  0  0  0  0
  -16.6019    3.7612  -15.9945 C   0  0  0  0  0  0  0  0  0  0  0  0
  -17.8572    3.1006  -15.9545 O   0  0  0  0  0  0  0  0  0  0  0  0
  -26.6605   -1.6116  -10.0777 C   0  0  0  0  0  0  0  0  0  0  0  0
  -26.9289   -0.6412   -9.1082 C   0  0  0  0  0  0  0  0  0  0  0  0
  -27.7140   -0.9530   -7.9957 C   0  0  0  0  0  0  0  0  0  0  0  0
  -28.2651   -2.2314   -7.8364 C   0  0  0  0  0  0  0  0  0  0  0  0
  -27.9169   -3.2228   -8.7560 C   0  0  0  0  0  0  0  0  0  0  0  0
  -27.1022   -2.9207   -9.8516 C   0  0  0  0  0  0  0  0  0  0  0  0
  -29.1396   -2.5572   -6.7802 N   0  0  0  0  0  0  0  0  0  0  0  0
  -30.0487   -2.1214   -6.8845 H   0  0  0  0  0  0  0  0  0  0  0  0
  -29.1547   -3.7553   -6.1653 C   0  0  0  0  0  0  0  0  0  0  0  0
  -28.2729   -4.7271   -6.2616 N   0  0  0  0  0  0  0  0  0  0  0  0
  -28.7306   -5.6648   -5.3678 C   0  0  0  0  0  0  0  0  0  0  0  0
  -28.1932   -6.8929   -4.9702 C   0  0  0  0  0  0  0  0  0  0  0  0
  -28.8721   -7.6281   -3.9817 C   0  0  0  0  0  0  0  0  0  0  0  0
  -28.3088   -8.9361   -3.4918 C   0  0  0  0  0  0  0  0  0  0  0  0
  -30.0751   -7.1428   -3.4297 C   0  0  0  0  0  0  0  0  0  0  0  0
  -30.6449   -5.9194   -3.8269 C   0  0  0  0  0  0  0  0  0  0  0  0
  -31.9081   -5.3893   -3.2332 C   0  0  0  0  0  0  0  0  0  0  0  0
  -29.9127   -5.2356   -4.7942 C   0  0  0  0  0  0  0  0  0  0  0  0
  -30.2072   -4.0210   -5.3295 O   0  0  0  0  0  0  0  0  0  0  0  0
 22 23  1  0  0  0
 23 21  1  0  0  0
 21 20  1  0  0  0
 20 19  1  0  0  0
 19 13  1  0  0  0
 13 14  1  0  0  0
 13 18  1  0  0  0
 14 15  1  0  0  0
 15 16  1  0  0  0
 16  1  1  0  0  0
 16 17  1  0  0  0
  1  2  1  0  0  0
  1 10  1  0  0  0
  2  3  2  0  0  0
  3 24  1  0  0  0
  3  4  1  0  0  0
 24 25  1  0  0  0
 24 29  2  0  0  0
 25 26  2  0  0  0
 26 27  1  0  0  0
 27 30  1  0  0  0
 27 28  2  0  0  0
 30 32  1  0  0  0
 30 31  1  0  0  0
 32 33  2  0  0  0
 32 42  1  0  0  0
 33 34  1  0  0  0
 34 35  1  0  0  0
 34 41  2  0  0  0
 35 36  2  0  0  0
 36 37  1  0  0  0
 36 38  1  0  0  0
 38 39  2  0  0  0
 39 40  1  0  0  0
 39 41  1  0  0  0
 41 42  1  0  0  0
 28 29  1  0  0  0
  4  5  1  0  0  0
  4 10  2  0  0  0
  5  6  1  0  0  0
  5  7  2  0  0  0
  6 11  1  0  0  0
  6 12  1  0  0  0
  7  8  1  0  0  0
  8  9  2  0  0  0
  9 10  1  0  0  0
 17 18  1  0  0  0
M  END
> <minimizedAffinity>
-8.18628

$$$$
