CHEMBL3403509


 23 25  0  0  0  0  0  0  0  0999 V2000
  -29.0848   -7.6918   -6.1006 N   0  0  0  0  0  0  0  0  0  0  0  0
  -28.1923   -8.1522   -5.0292 C   0  0  0  0  0  0  0  0  0  0  0  0
  -29.7201   -6.4738   -5.7902 C   0  0  0  0  0  0  0  0  0  0  0  0
  -30.5326   -6.3836   -4.6977 N   0  0  0  0  0  0  0  0  0  0  0  0
  -31.0573   -5.1870   -4.3366 C   0  0  0  0  0  0  0  0  0  0  0  0
  -31.9746   -5.1917   -3.1515 C   0  0  0  0  0  0  0  0  0  0  0  0
  -30.8134   -4.0067   -4.9158 N   0  0  0  0  0  0  0  0  0  0  0  0
  -30.0025   -4.1256   -5.9737 C   0  0  0  0  0  0  0  0  0  0  0  0
  -29.5339   -3.0524   -6.6811 O   0  0  0  0  0  0  0  0  0  0  0  0
  -28.7070   -3.5389   -7.6498 C   0  0  0  0  0  0  0  0  0  0  0  0
  -27.9714   -2.5650   -8.4768 C   0  0  0  0  0  0  0  0  0  0  0  0
  -28.6895   -4.9123   -7.6157 C   0  0  0  0  0  0  0  0  0  0  0  0
  -29.4610   -5.2915   -6.4919 C   0  0  0  0  0  0  0  0  0  0  0  0
  -29.2405   -9.9870   -9.6950 C   0  0  0  0  0  0  0  0  0  0  0  0
  -28.1714   -9.1508   -9.4129 C   0  0  0  0  0  0  0  0  0  0  0  0
  -28.1559   -8.4109   -8.2257 C   0  0  0  0  0  0  0  0  0  0  0  0
  -29.1888   -8.4761   -7.2659 C   0  0  0  0  0  0  0  0  0  0  0  0
  -30.2925   -9.2971   -7.5910 C   0  0  0  0  0  0  0  0  0  0  0  0
  -30.3037  -10.0356   -8.7932 C   0  0  0  0  0  0  0  0  0  0  0  0
  -28.8549  -10.2283  -12.0285 C   0  0  0  0  0  0  0  0  0  0  0  0
  -29.3665  -10.7661  -10.8116 O   0  0  0  0  0  0  0  0  0  0  0  0
  -31.4716   -9.3920   -6.8985 O   0  0  0  0  0  0  0  0  0  0  0  0
  -32.5193   -8.4995   -7.2566 C   0  0  0  0  0  0  0  0  0  0  0  0
 20 21  1  0  0  0
 21 14  1  0  0  0
 14 15  1  0  0  0
 14 19  2  0  0  0
 15 16  2  0  0  0
 16 17  1  0  0  0
 17  1  1  0  0  0
 17 18  2  0  0  0
  1  2  1  0  0  0
  1  3  1  0  0  0
  3  4  1  0  0  0
  3 13  2  0  0  0
  4  5  2  0  0  0
  5  6  1  0  0  0
  5  7  1  0  0  0
  7  8  2  0  0  0
  8  9  1  0  0  0
  8 13  1  0  0  0
  9 10  1  0  0  0
 10 11  1  0  0  0
 10 12  2  0  0  0
 12 13  1  0  0  0
 18 22  1  0  0  0
 18 19  1  0  0  0
 22 23  1  0  0  0
M  END
> <minimizedAffinity>
-7.28320

$$$$
