CHEMBL4592597


 39 43  0  0  0  0  0  0  0  0999 V2000
  -14.8058   -1.6594  -12.0506 N   0  0  0  0  0  0  0  0  0  0  0  0
  -14.6613   -1.2322  -11.1294 H   0  0  0  0  0  0  0  0  0  0  0  0
  -16.2538    2.4851  -17.0457 C   0  0  0  0  0  0  0  0  0  0  0  0
  -15.7139    1.5364  -16.0040 C   0  0  0  0  0  0  0  0  0  0  0  0
  -14.4439    1.1119  -16.1105 C   0  0  0  0  0  0  0  0  0  0  0  0
  -13.8455    0.2789  -15.0754 C   0  0  0  0  0  0  0  0  0  0  0  0
  -12.4979   -0.0679  -15.1516 C   0  0  0  0  0  0  0  0  0  0  0  0
  -11.9775   -0.8470  -14.1416 C   0  0  0  0  0  0  0  0  0  0  0  0
  -12.7132   -1.3238  -13.1179 N   0  0  0  0  0  0  0  0  0  0  0  0
  -14.0327   -1.0079  -13.0395 C   0  0  0  0  0  0  0  0  0  0  0  0
  -14.6176   -0.1722  -14.0020 C   0  0  0  0  0  0  0  0  0  0  0  0
  -16.0100    0.3203  -13.8806 C   0  0  0  0  0  0  0  0  0  0  0  0
  -16.6638   -0.0351  -12.8969 O   0  0  0  0  0  0  0  0  0  0  0  0
  -16.5001    1.1785  -14.8989 N   0  0  0  0  0  0  0  0  0  0  0  0
  -17.8381    1.6526  -14.7188 C   0  0  0  0  0  0  0  0  0  0  0  0
  -18.9216    0.8321  -15.0662 C   0  0  0  0  0  0  0  0  0  0  0  0
  -20.2305    1.3079  -14.9593 C   0  0  0  0  0  0  0  0  0  0  0  0
  -20.4574    2.6096  -14.5205 C   0  0  0  0  0  0  0  0  0  0  0  0
  -22.0654    3.2155  -14.4364 Cl  0  0  0  0  0  0  0  0  0  0  0  0
  -19.3886    3.4325  -14.1681 C   0  0  0  0  0  0  0  0  0  0  0  0
  -18.0784    2.9538  -14.2626 C   0  0  0  0  0  0  0  0  0  0  0  0
  -14.9710   -3.0559  -11.9673 C   0  0  0  0  0  0  0  0  0  0  0  0
  -13.9420   -3.8904  -11.5110 C   0  0  0  0  0  0  0  0  0  0  0  0
  -14.0927   -5.2766  -11.5052 C   0  0  0  0  0  0  0  0  0  0  0  0
  -15.2646   -5.8470  -12.0069 C   0  0  0  0  0  0  0  0  0  0  0  0
  -16.3355   -5.0144  -12.3304 C   0  0  0  0  0  0  0  0  0  0  0  0
  -17.5007   -5.5421  -12.7358 F   0  0  0  0  0  0  0  0  0  0  0  0
  -16.2039   -3.6267  -12.2889 C   0  0  0  0  0  0  0  0  0  0  0  0
  -15.4226   -7.2023  -12.2009 O   0  0  0  0  0  0  0  0  0  0  0  0
  -14.3620   -7.9234  -12.7204 C   0  0  0  0  0  0  0  0  0  0  0  0
  -13.5706   -8.7671  -11.9367 C   0  0  0  0  0  0  0  0  0  0  0  0
  -12.5965   -9.5206  -12.5628 C   0  0  0  0  0  0  0  0  0  0  0  0
  -12.3222   -9.4442  -13.8814 N   0  0  0  0  0  0  0  0  0  0  0  0
  -13.0343   -8.5641  -14.6163 C   0  0  0  0  0  0  0  0  0  0  0  0
  -12.7115   -8.5459  -15.9742 N   0  0  0  0  0  0  0  0  0  0  0  0
  -14.0621   -7.7797  -14.0771 C   0  0  0  0  0  0  0  0  0  0  0  0
  -14.9224   -6.6482  -15.0643 Cl  0  0  0  0  0  0  0  0  0  0  0  0
  -11.8940   -9.1336  -16.1065 H   0  0  0  0  0  0  0  0  0  0  0  0
  -12.5872   -7.6006  -16.3191 H   0  0  0  0  0  0  0  0  0  0  0  0
  3  4  1  0  0  0
  4  5  2  0  0  0
  4 14  1  0  0  0
  5  6  1  0  0  0
  6  7  1  0  0  0
  6 11  2  0  0  0
  7  8  2  0  0  0
  8  9  1  0  0  0
  9 10  2  0  0  0
 10  1  1  0  0  0
 10 11  1  0  0  0
  1 22  1  0  0  0
  1  2  1  0  0  0
 22 23  1  0  0  0
 22 28  2  0  0  0
 23 24  2  0  0  0
 24 25  1  0  0  0
 25 29  1  0  0  0
 25 26  2  0  0  0
 29 30  1  0  0  0
 30 31  1  0  0  0
 30 36  2  0  0  0
 31 32  2  0  0  0
 32 33  1  0  0  0
 33 34  2  0  0  0
 34 35  1  0  0  0
 34 36  1  0  0  0
 35 38  1  0  0  0
 35 39  1  0  0  0
 36 37  1  0  0  0
 26 27  1  0  0  0
 26 28  1  0  0  0
 11 12  1  0  0  0
 12 13  2  0  0  0
 12 14  1  0  0  0
 14 15  1  0  0  0
 15 16  1  0  0  0
 15 21  2  0  0  0
 16 17  2  0  0  0
 17 18  1  0  0  0
 18 19  1  0  0  0
 18 20  2  0  0  0
 20 21  1  0  0  0
M  END
> <minimizedAffinity>
-8.86379

$$$$
