CHEMBL2032025


 41 45  0  0  0  0  0  0  0  0999 V2000
  -13.5882    1.2581  -15.1302 N   0  0  0  0  0  0  0  0  0  0  0  0
  -13.9875    1.7206  -16.3771 C   0  0  0  0  0  0  0  0  0  0  0  0
  -14.8561    1.2053  -17.0734 O   0  0  0  0  0  0  0  0  0  0  0  0
  -12.7551    1.6835  -14.7175 H   0  0  0  0  0  0  0  0  0  0  0  0
  -15.5534   -1.7391  -12.8170 C   0  0  0  0  0  0  0  0  0  0  0  0
  -14.6924   -2.1001  -13.8478 C   0  0  0  0  0  0  0  0  0  0  0  0
  -14.0103   -1.1214  -14.5745 C   0  0  0  0  0  0  0  0  0  0  0  0
  -14.2415    0.2440  -14.3731 C   0  0  0  0  0  0  0  0  0  0  0  0
  -15.1833    0.6108  -13.4072 C   0  0  0  0  0  0  0  0  0  0  0  0
  -15.8191   -0.3792  -12.6313 C   0  0  0  0  0  0  0  0  0  0  0  0
  -16.6806    0.0137  -11.6802 F   0  0  0  0  0  0  0  0  0  0  0  0
  -16.1406   -2.6259  -11.9358 O   0  0  0  0  0  0  0  0  0  0  0  0
  -14.5720   -7.5171  -12.5988 C   0  0  0  0  0  0  0  0  0  0  0  0
  -15.2963   -6.6707  -13.4235 C   0  0  0  0  0  0  0  0  0  0  0  0
  -15.4918   -5.3479  -13.0483 C   0  0  0  0  0  0  0  0  0  0  0  0
  -15.0689   -4.8657  -11.7926 C   0  0  0  0  0  0  0  0  0  0  0  0
  -15.3709   -3.5775  -11.2869 C   0  0  0  0  0  0  0  0  0  0  0  0
  -14.8376   -3.1739  -10.0673 C   0  0  0  0  0  0  0  0  0  0  0  0
  -14.0766   -4.0811   -9.3589 C   0  0  0  0  0  0  0  0  0  0  0  0
  -13.8316   -5.3428   -9.7692 N   0  0  0  0  0  0  0  0  0  0  0  0
  -14.3236   -5.7312  -10.9584 C   0  0  0  0  0  0  0  0  0  0  0  0
  -14.0932   -7.0376  -11.3775 C   0  0  0  0  0  0  0  0  0  0  0  0
  -13.1715   -9.3635  -12.1946 C   0  0  0  0  0  0  0  0  0  0  0  0
  -14.2941   -8.8248  -12.8925 O   0  0  0  0  0  0  0  0  0  0  0  0
  -13.3091    2.9450  -16.8648 C   0  0  0  0  0  0  0  0  0  0  0  0
  -12.4629    3.0762  -17.9135 C   0  0  0  0  0  0  0  0  0  0  0  0
  -11.9263    1.9702  -18.7726 C   0  0  0  0  0  0  0  0  0  0  0  0
  -12.0802    4.4137  -18.1332 N   0  0  0  0  0  0  0  0  0  0  0  0
  -12.5210    5.1111  -16.9857 N   0  0  0  0  0  0  0  0  0  0  0  0
  -13.3665    4.2884  -16.2409 C   0  0  0  0  0  0  0  0  0  0  0  0
  -14.0588    4.5476  -15.2672 O   0  0  0  0  0  0  0  0  0  0  0  0
  -12.3776    6.4960  -16.8130 C   0  0  0  0  0  0  0  0  0  0  0  0
  -12.9142    7.3493  -17.7836 C   0  0  0  0  0  0  0  0  0  0  0  0
  -12.8788    8.7329  -17.6010 C   0  0  0  0  0  0  0  0  0  0  0  0
  -12.2684    9.2709  -16.4693 C   0  0  0  0  0  0  0  0  0  0  0  0
  -11.7122    8.4261  -15.5097 C   0  0  0  0  0  0  0  0  0  0  0  0
  -11.7826    7.0404  -15.6717 C   0  0  0  0  0  0  0  0  0  0  0  0
  -10.7845    4.8156  -18.7274 C   0  0  0  0  0  0  0  0  0  0  0  0
  -10.9452    5.2568  -20.1910 C   0  0  0  0  0  0  0  0  0  0  0  0
  -12.3023    5.2381  -20.6257 O   0  0  0  0  0  0  0  0  0  0  0  0
  -12.5743    4.3023  -20.6142 H   0  0  0  0  0  0  0  0  0  0  0  0
 23 24  1  0  0  0
 24 13  1  0  0  0
 13 14  1  0  0  0
 13 22  2  0  0  0
 14 15  2  0  0  0
 15 16  1  0  0  0
 16 17  1  0  0  0
 16 21  2  0  0  0
 17 12  1  0  0  0
 17 18  2  0  0  0
 12  5  1  0  0  0
  5  6  1  0  0  0
  5 10  2  0  0  0
  6  7  2  0  0  0
  7  8  1  0  0  0
  8  1  1  0  0  0
  8  9  2  0  0  0
  1  2  1  0  0  0
  1  4  1  0  0  0
  2  3  2  0  0  0
  2 25  1  0  0  0
 25 26  2  0  0  0
 25 30  1  0  0  0
 26 27  1  0  0  0
 26 28  1  0  0  0
 28 38  1  0  0  0
 28 29  1  0  0  0
 38 39  1  0  0  0
 39 40  1  0  0  0
 40 41  1  0  0  0
 29 32  1  0  0  0
 29 30  1  0  0  0
 32 33  1  0  0  0
 32 37  2  0  0  0
 33 34  2  0  0  0
 34 35  1  0  0  0
 35 36  2  0  0  0
 36 37  1  0  0  0
 30 31  2  0  0  0
  9 10  1  0  0  0
 10 11  1  0  0  0
 18 19  1  0  0  0
 19 20  2  0  0  0
 20 21  1  0  0  0
 21 22  1  0  0  0
M  END
> <minimizedAffinity>
-7.50147

$$$$
