CHEMBL3973531


 35 38  0  0  0  0  0  0  0  0999 V2000
  -16.9009    2.1602  -15.7006 N   0  0  0  0  0  0  0  0  0  0  0  0
  -18.2803    2.1549  -15.2995 C   0  0  0  0  0  0  0  0  0  0  0  0
  -18.9781    3.3536  -15.3960 C   0  0  0  0  0  0  0  0  0  0  0  0
  -20.2795    3.5031  -14.9590 C   0  0  0  0  0  0  0  0  0  0  0  0
  -20.9892    2.4499  -14.4737 C   0  0  0  0  0  0  0  0  0  0  0  0
  -22.1963    2.8201  -14.0589 N   0  0  0  0  0  0  0  0  0  0  0  0
  -23.0353    1.8378  -13.7355 C   0  0  0  0  0  0  0  0  0  0  0  0
  -22.6903    0.5075  -13.8630 C   0  0  0  0  0  0  0  0  0  0  0  0
  -21.4084    0.1290  -14.2004 N   0  0  0  0  0  0  0  0  0  0  0  0
  -20.4748    1.1274  -14.4954 C   0  0  0  0  0  0  0  0  0  0  0  0
  -19.0574    1.0412  -14.8483 C   0  0  0  0  0  0  0  0  0  0  0  0
  -23.8061   -0.4193  -13.7043 C   0  0  0  0  0  0  0  0  0  0  0  0
  -24.6338   -1.0276  -14.6856 C   0  0  0  0  0  0  0  0  0  0  0  0
  -25.7352   -1.5882  -14.1680 N   0  0  0  0  0  0  0  0  0  0  0  0
  -25.6301   -1.3254  -12.8548 N   0  0  0  0  0  0  0  0  0  0  0  0
  -26.4591   -2.0117  -11.8926 C   0  0  0  0  0  0  0  0  0  0  0  0
  -24.5963   -0.4804  -12.5633 C   0  0  0  0  0  0  0  0  0  0  0  0
  -15.8517    1.2472  -15.3796 C   0  0  0  0  0  0  0  0  0  0  0  0
  -14.8453    0.8972  -16.3039 C   0  0  0  0  0  0  0  0  0  0  0  0
  -13.8284   -0.0211  -15.9637 C   0  0  0  0  0  0  0  0  0  0  0  0
  -13.7904   -0.5834  -14.6854 C   0  0  0  0  0  0  0  0  0  0  0  0
  -14.7577   -0.2423  -13.7564 C   0  0  0  0  0  0  0  0  0  0  0  0
  -15.7836    0.6319  -14.1143 C   0  0  0  0  0  0  0  0  0  0  0  0
  -12.8075   -0.4599  -16.7646 O   0  0  0  0  0  0  0  0  0  0  0  0
  -12.8579   -1.8066  -17.2194 C   0  0  0  0  0  0  0  0  0  0  0  0
  -14.8055   -0.7211  -12.4758 O   0  0  0  0  0  0  0  0  0  0  0  0
  -15.4955   -1.9630  -12.3541 C   0  0  0  0  0  0  0  0  0  0  0  0
  -16.5113    3.2868  -16.6420 C   0  0  0  0  0  0  0  0  0  0  0  0
  -15.8010    4.5009  -16.0260 C   0  0  0  0  0  0  0  0  0  0  0  0
  -14.4343    4.6067  -16.5346 O   0  0  0  0  0  0  0  0  0  0  0  0
  -11.8717    6.5024  -14.8488 C   0  0  0  0  0  0  0  0  0  0  0  0
  -12.8872    6.0368  -15.7547 N   0  0  0  0  0  0  0  0  0  0  0  0
  -13.4681    4.8104  -15.6061 C   0  0  0  0  0  0  0  0  0  0  0  0
  -13.1663    4.0152  -14.7287 O   0  0  0  0  0  0  0  0  0  0  0  0
  -13.2045    6.6114  -16.5261 H   0  0  0  0  0  0  0  0  0  0  0  0
 31 32  1  0  0  0
 32 33  1  0  0  0
 32 35  1  0  0  0
 33 34  2  0  0  0
 33 30  1  0  0  0
 30 29  1  0  0  0
 29 28  1  0  0  0
 28  1  1  0  0  0
  1 18  1  0  0  0
  1  2  1  0  0  0
 18 19  1  0  0  0
 18 23  2  0  0  0
 19 20  2  0  0  0
 20 24  1  0  0  0
 20 21  1  0  0  0
 24 25  1  0  0  0
 21 22  2  0  0  0
 22 26  1  0  0  0
 22 23  1  0  0  0
 26 27  1  0  0  0
  2  3  1  0  0  0
  2 11  2  0  0  0
  3  4  2  0  0  0
  4  5  1  0  0  0
  5  6  1  0  0  0
  5 10  2  0  0  0
  6  7  2  0  0  0
  7  8  1  0  0  0
  8 12  1  0  0  0
  8  9  2  0  0  0
 12 13  1  0  0  0
 12 17  2  0  0  0
 13 14  2  0  0  0
 14 15  1  0  0  0
 15 16  1  0  0  0
 15 17  1  0  0  0
  9 10  1  0  0  0
 10 11  1  0  0  0
M  END
> <minimizedAffinity>
-8.47817

$$$$
