CHEMBL3907215


 31 34  0  0  0  0  0  0  0  0999 V2000
  -29.4578   -6.3181   -5.0863 C   0  0  0  0  0  0  0  0  0  0  0  0
  -28.7750   -7.5318   -5.1374 C   0  0  0  0  0  0  0  0  0  0  0  0
  -28.4792   -8.1514   -6.3647 C   0  0  0  0  0  0  0  0  0  0  0  0
  -27.8604   -9.4042   -6.4663 C   0  0  0  0  0  0  0  0  0  0  0  0
  -27.5604   -9.9475   -7.6564 N   0  0  0  0  0  0  0  0  0  0  0  0
  -27.8903   -9.2450   -8.7440 C   0  0  0  0  0  0  0  0  0  0  0  0
  -28.5024   -8.0539   -8.7575 N   0  0  0  0  0  0  0  0  0  0  0  0
  -28.7898   -7.5120   -7.5693 C   0  0  0  0  0  0  0  0  0  0  0  0
  -29.4101   -6.2671   -7.5092 C   0  0  0  0  0  0  0  0  0  0  0  0
  -29.7428   -5.6498   -6.2930 C   0  0  0  0  0  0  0  0  0  0  0  0
  -31.2033   -5.7849   -3.5108 C   0  0  0  0  0  0  0  0  0  0  0  0
  -29.8364   -5.7633   -3.8982 O   0  0  0  0  0  0  0  0  0  0  0  0
  -27.5589  -10.1269   -5.2723 N   0  0  0  0  0  0  0  0  0  0  0  0
  -28.1150  -10.9737   -5.2447 H   0  0  0  0  0  0  0  0  0  0  0  0
  -26.2631  -10.3108   -4.7497 C   0  0  0  0  0  0  0  0  0  0  0  0
  -26.0723  -10.6821   -3.4184 C   0  0  0  0  0  0  0  0  0  0  0  0
  -24.7825  -10.9219   -2.9356 C   0  0  0  0  0  0  0  0  0  0  0  0
  -23.6705  -10.7789   -3.7742 C   0  0  0  0  0  0  0  0  0  0  0  0
  -22.1218  -11.1707   -3.1206 Cl  0  0  0  0  0  0  0  0  0  0  0  0
  -23.8344  -10.3466   -5.0929 C   0  0  0  0  0  0  0  0  0  0  0  0
  -22.7265  -10.1827   -6.0912 C   0  0  0  0  0  0  0  0  0  0  0  0
  -25.1347  -10.0823   -5.5455 C   0  0  0  0  0  0  0  0  0  0  0  0
  -30.3339   -4.4093   -6.4540 O   0  0  0  0  0  0  0  0  0  0  0  0
  -29.4343   -3.3017   -6.4341 C   0  0  0  0  0  0  0  0  0  0  0  0
  -29.5789   -2.3808   -5.2152 C   0  0  0  0  0  0  0  0  0  0  0  0
  -29.8294   -0.9035   -5.5765 C   0  0  0  0  0  0  0  0  0  0  0  0
  -28.6682   -0.2965   -6.2629 N   0  0  0  0  0  0  0  0  0  0  0  0
  -28.9131    1.1169   -6.5402 C   0  0  0  0  0  0  0  0  0  0  0  0
  -27.4620   -0.4638   -5.4284 C   0  0  0  0  0  0  0  0  0  0  0  0
  -27.2369   -1.9267   -5.0157 C   0  0  0  0  0  0  0  0  0  0  0  0
  -28.3985   -2.4832   -4.3771 O   0  0  0  0  0  0  0  0  0  0  0  0
 11 12  1  0  0  0
 12  1  1  0  0  0
  1  2  1  0  0  0
  1 10  2  0  0  0
  2  3  2  0  0  0
  3  4  1  0  0  0
  3  8  1  0  0  0
  4 13  1  0  0  0
  4  5  2  0  0  0
 13 15  1  0  0  0
 13 14  1  0  0  0
 15 16  1  0  0  0
 15 22  2  0  0  0
 16 17  2  0  0  0
 17 18  1  0  0  0
 18 19  1  0  0  0
 18 20  2  0  0  0
 20 21  1  0  0  0
 20 22  1  0  0  0
  5  6  1  0  0  0
  6  7  2  0  0  0
  7  8  1  0  0  0
  8  9  2  0  0  0
  9 10  1  0  0  0
 10 23  1  0  0  0
 23 24  1  0  0  0
 24 25  1  0  0  0
 25 26  1  0  0  0
 25 31  1  0  0  0
 26 27  1  0  0  0
 27 28  1  0  0  0
 27 29  1  0  0  0
 29 30  1  0  0  0
 30 31  1  0  0  0
M  END
> <minimizedAffinity>
-7.99818

$$$$
