CHEMBL3945318


 37 41  0  0  0  0  0  0  0  0999 V2000
  -18.2704   -0.0792  -15.1893 O   0  0  0  0  0  0  0  0  0  0  0  0
  -18.4131    1.1448  -15.2212 C   0  0  0  0  0  0  0  0  0  0  0  0
  -17.2616    1.9983  -15.6384 C   0  0  0  0  0  0  0  0  0  0  0  0
  -17.3705    3.3431  -16.0370 C   0  0  0  0  0  0  0  0  0  0  0  0
  -16.2350    4.0946  -16.4194 C   0  0  0  0  0  0  0  0  0  0  0  0
  -14.9668    3.5307  -16.1915 C   0  0  0  0  0  0  0  0  0  0  0  0
  -13.5718    3.8527  -16.3230 C   0  0  0  0  0  0  0  0  0  0  0  0
  -13.0028    3.4317  -15.1704 N   0  0  0  0  0  0  0  0  0  0  0  0
  -13.6822    2.2831  -14.9608 N   0  0  0  0  0  0  0  0  0  0  0  0
  -14.9208    2.3028  -15.5429 C   0  0  0  0  0  0  0  0  0  0  0  0
  -15.9966    1.4325  -15.4378 C   0  0  0  0  0  0  0  0  0  0  0  0
  -13.3085    1.6097  -14.3053 H   0  0  0  0  0  0  0  0  0  0  0  0
  -12.7064    3.5926  -17.4733 C   0  0  0  0  0  0  0  0  0  0  0  0
  -13.1687    3.5174  -18.7363 C   0  0  0  0  0  0  0  0  0  0  0  0
  -12.8269    2.3993  -19.6515 C   0  0  0  0  0  0  0  0  0  0  0  0
  -13.6239    1.2383  -19.7106 C   0  0  0  0  0  0  0  0  0  0  0  0
  -13.4776    0.3142  -20.7515 C   0  0  0  0  0  0  0  0  0  0  0  0
  -12.5298    0.5335  -21.7463 C   0  0  0  0  0  0  0  0  0  0  0  0
  -11.7230    1.6687  -21.6932 C   0  0  0  0  0  0  0  0  0  0  0  0
  -11.8741    2.5976  -20.6560 C   0  0  0  0  0  0  0  0  0  0  0  0
  -19.7167    1.6878  -14.7831 C   0  0  0  0  0  0  0  0  0  0  0  0
  -19.8103    3.0779  -14.6561 C   0  0  0  0  0  0  0  0  0  0  0  0
  -21.0087    3.6565  -14.2654 C   0  0  0  0  0  0  0  0  0  0  0  0
  -22.1170    2.8497  -14.0137 C   0  0  0  0  0  0  0  0  0  0  0  0
  -22.0411    1.4573  -14.1301 C   0  0  0  0  0  0  0  0  0  0  0  0
  -20.8191    0.8754  -14.4843 C   0  0  0  0  0  0  0  0  0  0  0  0
  -23.1543    0.6013  -13.9512 N   0  0  0  0  0  0  0  0  0  0  0  0
  -23.3952   -0.2021  -12.8501 C   0  0  0  0  0  0  0  0  0  0  0  0
  -22.6432   -0.4086  -11.9073 O   0  0  0  0  0  0  0  0  0  0  0  0
  -23.8844    0.6067  -14.6533 H   0  0  0  0  0  0  0  0  0  0  0  0
  -24.7399   -0.8625  -12.8427 C   0  0  0  0  0  0  0  0  0  0  0  0
  -25.4234   -0.9620  -11.6393 C   0  0  0  0  0  0  0  0  0  0  0  0
  -26.6866   -1.5287  -11.6657 C   0  0  0  0  0  0  0  0  0  0  0  0
  -27.5832   -1.6666  -10.2036 Cl  0  0  0  0  0  0  0  0  0  0  0  0
  -27.2334   -1.9784  -12.8599 C   0  0  0  0  0  0  0  0  0  0  0  0
  -26.4730   -1.8410  -14.0081 C   0  0  0  0  0  0  0  0  0  0  0  0
  -25.2336   -1.2942  -14.0372 N   0  0  0  0  0  0  0  0  0  0  0  0
  1  2  2  0  0  0
  2 21  1  0  0  0
  2  3  1  0  0  0
 21 22  1  0  0  0
 21 26  2  0  0  0
 22 23  2  0  0  0
 23 24  1  0  0  0
 24 25  2  0  0  0
 25 27  1  0  0  0
 25 26  1  0  0  0
 27 28  1  0  0  0
 27 30  1  0  0  0
 28 29  2  0  0  0
 28 31  1  0  0  0
 31 32  1  0  0  0
 31 37  2  0  0  0
 32 33  2  0  0  0
 33 34  1  0  0  0
 33 35  1  0  0  0
 35 36  2  0  0  0
 36 37  1  0  0  0
  3  4  1  0  0  0
  3 11  2  0  0  0
  4  5  2  0  0  0
  5  6  1  0  0  0
  6  7  1  0  0  0
  6 10  2  0  0  0
  7 13  1  0  0  0
  7  8  2  0  0  0
 13 14  2  0  0  0
 14 15  1  0  0  0
 15 16  1  0  0  0
 15 20  2  0  0  0
 16 17  2  0  0  0
 17 18  1  0  0  0
 18 19  2  0  0  0
 19 20  1  0  0  0
  8  9  1  0  0  0
  9 10  1  0  0  0
  9 12  1  0  0  0
 10 11  1  0  0  0
M  END
> <minimizedAffinity>
-10.47819

$$$$
