CHEMBL1242575


 37 41  0  0  0  0  0  0  0  0999 V2000
  -26.5397   -2.2208  -10.8980 C   0  0  0  0  0  0  0  0  0  0  0  0
  -25.4832   -1.4162  -10.4830 C   0  0  0  0  0  0  0  0  0  0  0  0
  -24.7332   -0.6893  -11.4210 C   0  0  0  0  0  0  0  0  0  0  0  0
  -25.0099   -0.7558  -12.7961 C   0  0  0  0  0  0  0  0  0  0  0  0
  -26.1163   -1.5277  -13.1930 C   0  0  0  0  0  0  0  0  0  0  0  0
  -26.8442   -2.2812  -12.2605 C   0  0  0  0  0  0  0  0  0  0  0  0
  -26.5796   -1.6175  -14.4831 O   0  0  0  0  0  0  0  0  0  0  0  0
  -25.6205   -1.2211  -15.4600 C   0  0  0  0  0  0  0  0  0  0  0  0
  -24.9061    0.0663  -15.0823 C   0  0  0  0  0  0  0  0  0  0  0  0
  -24.2099   -0.0825  -13.7966 N   0  0  0  0  0  0  0  0  0  0  0  0
  -22.8595    0.2229  -13.5593 C   0  0  0  0  0  0  0  0  0  0  0  0
  -22.2942   -0.0673  -12.5073 O   0  0  0  0  0  0  0  0  0  0  0  0
  -22.1847    0.8382  -14.6051 N   0  0  0  0  0  0  0  0  0  0  0  0
  -22.7367    1.3151  -15.2971 H   0  0  0  0  0  0  0  0  0  0  0  0
  -20.8002    1.1576  -14.6265 C   0  0  0  0  0  0  0  0  0  0  0  0
  -20.2746    2.3770  -14.1927 C   0  0  0  0  0  0  0  0  0  0  0  0
  -18.9196    2.6805  -14.3604 C   0  0  0  0  0  0  0  0  0  0  0  0
  -18.0519    1.7546  -14.9397 C   0  0  0  0  0  0  0  0  0  0  0  0
  -16.6239    2.1181  -15.2152 C   0  0  0  0  0  0  0  0  0  0  0  0
  -18.5548    0.4998  -15.2996 C   0  0  0  0  0  0  0  0  0  0  0  0
  -19.9150    0.2010  -15.1379 C   0  0  0  0  0  0  0  0  0  0  0  0
  -27.2030   -2.9435   -9.9223 O   0  0  0  0  0  0  0  0  0  0  0  0
  -29.8954   -4.2575   -5.7557 C   0  0  0  0  0  0  0  0  0  0  0  0
  -29.5660   -2.8966   -5.7142 C   0  0  0  0  0  0  0  0  0  0  0  0
  -28.8320   -2.2670   -6.7049 C   0  0  0  0  0  0  0  0  0  0  0  0
  -28.6154   -0.9559   -6.5517 N   0  0  0  0  0  0  0  0  0  0  0  0
  -27.8882   -0.3132   -7.4817 C   0  0  0  0  0  0  0  0  0  0  0  0
  -27.3524   -0.9318   -8.5869 C   0  0  0  0  0  0  0  0  0  0  0  0
  -27.6355   -2.2803   -8.7860 C   0  0  0  0  0  0  0  0  0  0  0  0
  -28.3582   -3.0111   -7.8018 C   0  0  0  0  0  0  0  0  0  0  0  0
  -28.6459   -4.4034   -7.8285 C   0  0  0  0  0  0  0  0  0  0  0  0
  -29.4042   -5.0340   -6.8130 C   0  0  0  0  0  0  0  0  0  0  0  0
  -29.7067   -6.4889   -6.9984 C   0  0  0  0  0  0  0  0  0  0  0  0
  -28.7562   -7.5640   -6.5309 C   0  0  0  0  0  0  0  0  0  0  0  0
  -30.7617   -6.8027   -7.5538 O   0  0  0  0  0  0  0  0  0  0  0  0
  -31.0303   -4.0418   -3.6718 C   0  0  0  0  0  0  0  0  0  0  0  0
  -30.6701   -4.8489   -4.7926 O   0  0  0  0  0  0  0  0  0  0  0  0
 36 37  1  0  0  0
 37 23  1  0  0  0
 23 24  1  0  0  0
 23 32  2  0  0  0
 24 25  2  0  0  0
 25 26  1  0  0  0
 25 30  1  0  0  0
 26 27  2  0  0  0
 27 28  1  0  0  0
 28 29  2  0  0  0
 29 22  1  0  0  0
 29 30  1  0  0  0
 22  1  1  0  0  0
  1  2  1  0  0  0
  1  6  2  0  0  0
  2  3  2  0  0  0
  3  4  1  0  0  0
  4  5  2  0  0  0
  4 10  1  0  0  0
  5  6  1  0  0  0
  5  7  1  0  0  0
  7  8  1  0  0  0
  8  9  1  0  0  0
  9 10  1  0  0  0
 10 11  1  0  0  0
 11 12  2  0  0  0
 11 13  1  0  0  0
 13 15  1  0  0  0
 13 14  1  0  0  0
 15 16  1  0  0  0
 15 21  2  0  0  0
 16 17  2  0  0  0
 17 18  1  0  0  0
 18 19  1  0  0  0
 18 20  2  0  0  0
 20 21  1  0  0  0
 30 31  2  0  0  0
 31 32  1  0  0  0
 32 33  1  0  0  0
 33 34  1  0  0  0
 33 35  2  0  0  0
M  END
> <minimizedAffinity>
-9.31833

$$$$
