CHEMBL1241769


 28 31  0  0  0  0  0  0  0  0999 V2000
  -28.6502   -3.6905   -4.0229 N   0  0  0  0  0  0  0  0  0  0  0  0
  -28.2933   -2.7172   -4.9421 C   0  0  0  0  0  0  0  0  0  0  0  0
  -27.9018   -1.5393   -4.4107 N   0  0  0  0  0  0  0  0  0  0  0  0
  -27.5516   -0.5392   -5.2378 C   0  0  0  0  0  0  0  0  0  0  0  0
  -27.5343   -0.5512   -6.5772 N   0  0  0  0  0  0  0  0  0  0  0  0
  -27.9171   -1.7433   -7.0672 C   0  0  0  0  0  0  0  0  0  0  0  0
  -28.3083   -2.8576   -6.3406 C   0  0  0  0  0  0  0  0  0  0  0  0
  -28.6226   -3.8411   -7.3368 C   0  0  0  0  0  0  0  0  0  0  0  0
  -28.4436   -3.3537   -8.5797 N   0  0  0  0  0  0  0  0  0  0  0  0
  -27.9947   -2.0957   -8.3846 N   0  0  0  0  0  0  0  0  0  0  0  0
  -28.7372   -3.2964   -3.0926 H   0  0  0  0  0  0  0  0  0  0  0  0
  -29.3861   -4.3245   -4.3024 H   0  0  0  0  0  0  0  0  0  0  0  0
  -29.0962   -5.2185   -7.1590 C   0  0  0  0  0  0  0  0  0  0  0  0
  -28.5214   -6.2700   -7.8913 C   0  0  0  0  0  0  0  0  0  0  0  0
  -28.9821   -7.5867   -7.7386 C   0  0  0  0  0  0  0  0  0  0  0  0
  -30.0310   -7.8507   -6.8636 C   0  0  0  0  0  0  0  0  0  0  0  0
  -30.6137   -9.4631   -6.6864 Cl  0  0  0  0  0  0  0  0  0  0  0  0
  -30.6004   -6.8106   -6.1290 C   0  0  0  0  0  0  0  0  0  0  0  0
  -31.6482   -7.0073   -5.2725 O   0  0  0  0  0  0  0  0  0  0  0  0
  -30.1182   -5.5113   -6.2514 C   0  0  0  0  0  0  0  0  0  0  0  0
  -31.8712   -7.9556   -5.2989 H   0  0  0  0  0  0  0  0  0  0  0  0
  -27.7378   -1.2368   -9.5242 C   0  0  0  0  0  0  0  0  0  0  0  0
  -26.9881   -1.9258  -10.6742 C   0  0  0  0  0  0  0  0  0  0  0  0
  -25.7050   -1.2117  -11.0804 C   0  0  0  0  0  0  0  0  0  0  0  0
  -25.5232   -1.5531  -12.5465 C   0  0  0  0  0  0  0  0  0  0  0  0
  -26.9130   -1.8822  -13.0576 C   0  0  0  0  0  0  0  0  0  0  0  0
  -27.8067   -1.9036  -11.9012 N   0  0  0  0  0  0  0  0  0  0  0  0
  -28.4137   -2.7225  -11.9385 H   0  0  0  0  0  0  0  0  0  0  0  0
  1  2  1  0  0  0
  1 11  1  0  0  0
  1 12  1  0  0  0
  2  3  1  0  0  0
  2  7  2  0  0  0
  3  4  2  0  0  0
  4  5  1  0  0  0
  5  6  2  0  0  0
  6  7  1  0  0  0
  6 10  1  0  0  0
  7  8  1  0  0  0
  8 13  1  0  0  0
  8  9  2  0  0  0
 13 14  1  0  0  0
 13 20  2  0  0  0
 14 15  2  0  0  0
 15 16  1  0  0  0
 16 17  1  0  0  0
 16 18  2  0  0  0
 18 19  1  0  0  0
 18 20  1  0  0  0
 19 21  1  0  0  0
  9 10  1  0  0  0
 10 22  1  0  0  0
 22 23  1  0  0  0
 23 24  1  0  0  0
 23 27  1  0  0  0
 24 25  1  0  0  0
 25 26  1  0  0  0
 26 27  1  0  0  0
 27 28  1  0  0  0
M  END
> <minimizedAffinity>
-8.67393

$$$$
