CHEMBL1956890


 29 32  0  0  0  0  0  0  0  0999 V2000
  -27.9486   -6.0416   -8.7271 N   0  0  0  0  0  0  0  0  0  0  0  0
  -28.3987   -6.1380   -7.4235 C   0  0  0  0  0  0  0  0  0  0  0  0
  -28.8499   -5.0079   -6.8750 N   0  0  0  0  0  0  0  0  0  0  0  0
  -29.3082   -5.0034   -5.5959 C   0  0  0  0  0  0  0  0  0  0  0  0
  -29.3043   -6.2222   -4.8998 C   0  0  0  0  0  0  0  0  0  0  0  0
  -29.6454   -6.6660   -3.5912 C   0  0  0  0  0  0  0  0  0  0  0  0
  -29.3505   -8.0110   -3.5137 C   0  0  0  0  0  0  0  0  0  0  0  0
  -28.8581   -8.4061   -4.7353 N   0  0  0  0  0  0  0  0  0  0  0  0
  -28.8156   -7.3257   -5.5843 C   0  0  0  0  0  0  0  0  0  0  0  0
  -28.3668   -7.3426   -6.8485 N   0  0  0  0  0  0  0  0  0  0  0  0
  -28.3650   -5.2251   -9.1556 H   0  0  0  0  0  0  0  0  0  0  0  0
  -28.0597   -6.9243   -9.2002 H   0  0  0  0  0  0  0  0  0  0  0  0
  -29.7696   -3.8085   -5.0226 N   0  0  0  0  0  0  0  0  0  0  0  0
  -30.3131   -3.9425   -4.1802 H   0  0  0  0  0  0  0  0  0  0  0  0
  -29.1613   -2.5393   -5.0937 C   0  0  0  0  0  0  0  0  0  0  0  0
  -27.7865   -2.3530   -4.8964 C   0  0  0  0  0  0  0  0  0  0  0  0
  -27.2084   -1.0862   -4.9766 C   0  0  0  0  0  0  0  0  0  0  0  0
  -27.9975    0.0189   -5.2826 C   0  0  0  0  0  0  0  0  0  0  0  0
  -29.3617   -0.1545   -5.5026 C   0  0  0  0  0  0  0  0  0  0  0  0
  -30.4316    1.3405   -5.9468 Br  0  0  0  0  0  0  0  0  0  0  0  0
  -29.9456   -1.4217   -5.4053 C   0  0  0  0  0  0  0  0  0  0  0  0
  -28.3657   -9.7433   -5.0509 C   0  0  0  0  0  0  0  0  0  0  0  0
  -26.8589   -9.8194   -4.9729 C   0  0  0  0  0  0  0  0  0  0  0  0
  -26.2255   -9.5123   -3.7522 C   0  0  0  0  0  0  0  0  0  0  0  0
  -24.8358   -9.5509   -3.6280 C   0  0  0  0  0  0  0  0  0  0  0  0
  -24.0506   -9.9102   -4.7178 C   0  0  0  0  0  0  0  0  0  0  0  0
  -24.6576  -10.2389   -5.9288 C   0  0  0  0  0  0  0  0  0  0  0  0
  -26.0512  -10.1950   -6.0583 C   0  0  0  0  0  0  0  0  0  0  0  0
  -26.7121  -10.6286   -7.5947 Cl  0  0  0  0  0  0  0  0  0  0  0  0
  1  2  1  0  0  0
  1 11  1  0  0  0
  1 12  1  0  0  0
  2  3  1  0  0  0
  2 10  2  0  0  0
  3  4  2  0  0  0
  4 13  1  0  0  0
  4  5  1  0  0  0
 13 15  1  0  0  0
 13 14  1  0  0  0
 15 16  1  0  0  0
 15 21  2  0  0  0
 16 17  2  0  0  0
 17 18  1  0  0  0
 18 19  2  0  0  0
 19 20  1  0  0  0
 19 21  1  0  0  0
  5  6  1  0  0  0
  5  9  2  0  0  0
  6  7  2  0  0  0
  7  8  1  0  0  0
  8 22  1  0  0  0
  8  9  1  0  0  0
 22 23  1  0  0  0
 23 24  1  0  0  0
 23 28  2  0  0  0
 24 25  2  0  0  0
 25 26  1  0  0  0
 26 27  2  0  0  0
 27 28  1  0  0  0
 28 29  1  0  0  0
  9 10  1  0  0  0
M  END
> <minimizedAffinity>
-7.94982

$$$$
