CHEMBL3690558


 36 39  0  0  0  0  0  0  0  0999 V2000
  -23.6651    0.0789  -13.2583 C   0  0  0  0  0  0  0  0  0  0  0  0
  -22.3822   -0.5972  -13.4992 C   0  0  0  0  0  0  0  0  0  0  0  0
  -21.2971    0.1072  -13.8554 C   0  0  0  0  0  0  0  0  0  0  0  0
  -21.3942    1.4856  -14.0587 N   0  0  0  0  0  0  0  0  0  0  0  0
  -20.4566    2.4226  -14.5000 C   0  0  0  0  0  0  0  0  0  0  0  0
  -21.1417    3.6271  -14.4153 C   0  0  0  0  0  0  0  0  0  0  0  0
  -22.4376    3.4677  -14.0077 N   0  0  0  0  0  0  0  0  0  0  0  0
  -22.5863    2.1739  -13.8330 C   0  0  0  0  0  0  0  0  0  0  0  0
  -23.7343    1.4205  -13.4399 C   0  0  0  0  0  0  0  0  0  0  0  0
  -27.8253   -2.1883  -14.3533 C   0  0  0  0  0  0  0  0  0  0  0  0
  -26.8481   -1.7215  -13.3193 C   0  0  0  0  0  0  0  0  0  0  0  0
  -27.1097   -2.0237  -12.0348 N   0  0  0  0  0  0  0  0  0  0  0  0
  -26.2248   -1.6062  -11.1282 C   0  0  0  0  0  0  0  0  0  0  0  0
  -26.4679   -1.9524   -9.7994 N   0  0  0  0  0  0  0  0  0  0  0  0
  -25.0851   -0.9162  -11.4635 C   0  0  0  0  0  0  0  0  0  0  0  0
  -24.8821   -0.6554  -12.8049 C   0  0  0  0  0  0  0  0  0  0  0  0
  -25.7664   -1.0438  -13.7459 N   0  0  0  0  0  0  0  0  0  0  0  0
  -27.3768   -2.4071   -9.7612 H   0  0  0  0  0  0  0  0  0  0  0  0
  -26.4158   -1.1548   -9.1766 H   0  0  0  0  0  0  0  0  0  0  0  0
  -19.0928    2.1685  -15.0034 C   0  0  0  0  0  0  0  0  0  0  0  0
  -18.3797    3.1612  -15.6867 C   0  0  0  0  0  0  0  0  0  0  0  0
  -17.0857    2.9330  -16.1420 C   0  0  0  0  0  0  0  0  0  0  0  0
  -16.4461    1.7318  -15.8529 C   0  0  0  0  0  0  0  0  0  0  0  0
  -17.0893    0.7443  -15.1060 C   0  0  0  0  0  0  0  0  0  0  0  0
  -18.4259    0.9535  -14.7226 C   0  0  0  0  0  0  0  0  0  0  0  0
  -16.4372   -0.4498  -14.6985 N   0  0  0  0  0  0  0  0  0  0  0  0
  -15.9270   -0.7048  -13.4426 C   0  0  0  0  0  0  0  0  0  0  0  0
  -15.9434    0.0390  -12.4716 O   0  0  0  0  0  0  0  0  0  0  0  0
  -15.3049   -1.9311  -13.3637 N   0  0  0  0  0  0  0  0  0  0  0  0
  -16.3801   -1.1930  -15.3762 H   0  0  0  0  0  0  0  0  0  0  0  0
  -15.6813   -2.6693  -13.9397 H   0  0  0  0  0  0  0  0  0  0  0  0
  -14.7220   -2.3269  -12.0719 C   0  0  0  0  0  0  0  0  0  0  0  0
  -15.6384   -3.1202  -11.1264 C   0  0  0  0  0  0  0  0  0  0  0  0
  -14.9656   -4.0822  -10.4542 F   0  0  0  0  0  0  0  0  0  0  0  0
  -16.1642   -2.2873  -10.1918 F   0  0  0  0  0  0  0  0  0  0  0  0
  -16.6727   -3.6977  -11.7713 F   0  0  0  0  0  0  0  0  0  0  0  0
 10 11  1  0  0  0
 11 12  1  0  0  0
 11 17  2  0  0  0
 12 13  2  0  0  0
 13 14  1  0  0  0
 13 15  1  0  0  0
 14 18  1  0  0  0
 14 19  1  0  0  0
 15 16  2  0  0  0
 16  1  1  0  0  0
 16 17  1  0  0  0
  1  2  1  0  0  0
  1  9  2  0  0  0
  2  3  2  0  0  0
  3  4  1  0  0  0
  4  5  1  0  0  0
  4  8  1  0  0  0
  5 20  1  0  0  0
  5  6  2  0  0  0
 20 21  1  0  0  0
 20 25  2  0  0  0
 21 22  2  0  0  0
 22 23  1  0  0  0
 23 24  2  0  0  0
 24 26  1  0  0  0
 24 25  1  0  0  0
 26 27  1  0  0  0
 26 30  1  0  0  0
 27 28  2  0  0  0
 27 29  1  0  0  0
 29 32  1  0  0  0
 29 31  1  0  0  0
 32 33  1  0  0  0
 33 34  1  0  0  0
 33 35  1  0  0  0
 33 36  1  0  0  0
  6  7  1  0  0  0
  7  8  2  0  0  0
  8  9  1  0  0  0
M  END
> <minimizedAffinity>
-10.38319

$$$$
