CHEMBL4167759


 33 36  0  0  0  0  0  0  0  0999 V2000
  -28.8505   -7.5979   -6.8401 C   0  0  0  0  0  0  0  0  0  0  0  0
  -29.0115   -6.2289   -7.0800 C   0  0  0  0  0  0  0  0  0  0  0  0
  -28.7780   -5.2784   -6.0711 C   0  0  0  0  0  0  0  0  0  0  0  0
  -28.3161   -5.6643   -4.8062 C   0  0  0  0  0  0  0  0  0  0  0  0
  -28.0417   -7.0094   -4.6051 C   0  0  0  0  0  0  0  0  0  0  0  0
  -28.3244   -7.9578   -5.5920 C   0  0  0  0  0  0  0  0  0  0  0  0
  -32.1904   -8.0153   -6.5466 N   0  0  0  0  0  0  0  0  0  0  0  0
  -31.8357   -8.9102   -7.4794 C   0  0  0  0  0  0  0  0  0  0  0  0
  -32.7494   -9.7062   -8.0272 N   0  0  0  0  0  0  0  0  0  0  0  0
  -32.0484  -10.4705   -8.8679 N   0  0  0  0  0  0  0  0  0  0  0  0
  -30.7076  -10.2002   -8.8961 C   0  0  0  0  0  0  0  0  0  0  0  0
  -29.6841  -10.8074   -9.6298 C   0  0  0  0  0  0  0  0  0  0  0  0
  -28.3972  -10.3129   -9.4585 C   0  0  0  0  0  0  0  0  0  0  0  0
  -28.1589   -9.2564   -8.5842 C   0  0  0  0  0  0  0  0  0  0  0  0
  -29.1885   -8.6467   -7.8198 C   0  0  0  0  0  0  0  0  0  0  0  0
  -30.5147   -9.1455   -7.9965 C   0  0  0  0  0  0  0  0  0  0  0  0
  -33.1400   -8.1198   -6.2060 H   0  0  0  0  0  0  0  0  0  0  0  0
  -31.5309   -7.7909   -5.8147 H   0  0  0  0  0  0  0  0  0  0  0  0
  -32.5421  -11.1773   -9.3986 H   0  0  0  0  0  0  0  0  0  0  0  0
  -28.2078   -4.6561   -3.8213 N   0  0  0  0  0  0  0  0  0  0  0  0
  -27.3776   -4.7214   -3.2450 H   0  0  0  0  0  0  0  0  0  0  0  0
  -29.0409   -3.5952   -3.4601 C   0  0  0  0  0  0  0  0  0  0  0  0
  -30.6721   -3.6230   -3.0738 S   0  0  0  0  0  0  0  0  0  0  0  0
  -28.3106   -2.4009   -3.5665 N   0  0  0  0  0  0  0  0  0  0  0  0
  -27.3818   -2.4700   -3.1660 H   0  0  0  0  0  0  0  0  0  0  0  0
  -28.4858   -1.4089   -4.5570 C   0  0  0  0  0  0  0  0  0  0  0  0
  -27.4915   -1.2433   -5.5274 C   0  0  0  0  0  0  0  0  0  0  0  0
  -27.6436   -0.2744   -6.5220 C   0  0  0  0  0  0  0  0  0  0  0  0
  -28.7711    0.5395   -6.5252 C   0  0  0  0  0  0  0  0  0  0  0  0
  -28.9112    1.4686   -7.4807 F   0  0  0  0  0  0  0  0  0  0  0  0
  -29.7416    0.3989   -5.5424 C   0  0  0  0  0  0  0  0  0  0  0  0
  -30.8194    1.1955   -5.5347 F   0  0  0  0  0  0  0  0  0  0  0  0
  -29.6015   -0.5646   -4.5514 C   0  0  0  0  0  0  0  0  0  0  0  0
  7  8  1  0  0  0
  7 17  1  0  0  0
  7 18  1  0  0  0
  8  9  2  0  0  0
  8 16  1  0  0  0
  9 10  1  0  0  0
 10 11  1  0  0  0
 10 19  1  0  0  0
 11 12  1  0  0  0
 11 16  2  0  0  0
 12 13  2  0  0  0
 13 14  1  0  0  0
 14 15  2  0  0  0
 15  1  1  0  0  0
 15 16  1  0  0  0
  1  2  1  0  0  0
  1  6  2  0  0  0
  2  3  2  0  0  0
  3  4  1  0  0  0
  4 20  1  0  0  0
  4  5  2  0  0  0
 20 22  1  0  0  0
 20 21  1  0  0  0
 22 23  2  0  0  0
 22 24  1  0  0  0
 24 26  1  0  0  0
 24 25  1  0  0  0
 26 27  1  0  0  0
 26 33  2  0  0  0
 27 28  2  0  0  0
 28 29  1  0  0  0
 29 30  1  0  0  0
 29 31  2  0  0  0
 31 32  1  0  0  0
 31 33  1  0  0  0
  5  6  1  0  0  0
M  END
> <minimizedAffinity>
-9.36615

$$$$
