CHEMBL3958081


 19 20  0  0  0  0  0  0  0  0999 V2000
  -28.5645   -4.8658   -6.8977 N   0  0  0  0  0  0  0  0  0  0  0  0
  -27.7943   -4.9343   -7.5677 H   0  0  0  0  0  0  0  0  0  0  0  0
  -29.0605    0.8084   -5.0986 Cl  0  0  0  0  0  0  0  0  0  0  0  0
  -28.9432   -0.8299   -5.6063 C   0  0  0  0  0  0  0  0  0  0  0  0
  -29.4139   -1.8438   -4.7814 C   0  0  0  0  0  0  0  0  0  0  0  0
  -29.3100   -3.1858   -5.1768 C   0  0  0  0  0  0  0  0  0  0  0  0
  -29.8616   -4.3373   -4.0026 Cl  0  0  0  0  0  0  0  0  0  0  0  0
  -28.7498   -3.5347   -6.4284 C   0  0  0  0  0  0  0  0  0  0  0  0
  -28.2658   -2.4703   -7.2282 C   0  0  0  0  0  0  0  0  0  0  0  0
  -27.5301   -2.7902   -8.7673 Cl  0  0  0  0  0  0  0  0  0  0  0  0
  -28.3633   -1.1347   -6.8296 C   0  0  0  0  0  0  0  0  0  0  0  0
  -29.6580   -5.6325   -7.0998 N   0  0  0  0  0  0  0  0  0  0  0  0
  -29.4338   -6.8671   -7.4145 C   0  0  0  0  0  0  0  0  0  0  0  0
  -30.5512   -7.8189   -7.5677 C   0  0  0  0  0  0  0  0  0  0  0  0
  -30.3907   -8.9747   -8.3294 C   0  0  0  0  0  0  0  0  0  0  0  0
  -31.4878   -9.7976   -8.4912 C   0  0  0  0  0  0  0  0  0  0  0  0
  -32.6982   -9.5441   -7.9481 N   0  0  0  0  0  0  0  0  0  0  0  0
  -32.8184   -8.4184   -7.2108 C   0  0  0  0  0  0  0  0  0  0  0  0
  -31.7822   -7.5282   -6.9878 C   0  0  0  0  0  0  0  0  0  0  0  0
  3  4  1  0  0  0
  4  5  1  0  0  0
  4 11  2  0  0  0
  5  6  2  0  0  0
  6  7  1  0  0  0
  6  8  1  0  0  0
  8  1  1  0  0  0
  8  9  2  0  0  0
  1 12  1  0  0  0
  1  2  1  0  0  0
 12 13  2  0  0  0
 13 14  1  0  0  0
 14 15  1  0  0  0
 14 19  2  0  0  0
 15 16  2  0  0  0
 16 17  1  0  0  0
 17 18  2  0  0  0
 18 19  1  0  0  0
  9 10  1  0  0  0
  9 11  1  0  0  0
M  END
> <minimizedAffinity>
-6.95727

$$$$
