CHEMBL4558980


 24 27  0  0  0  0  0  0  0  0999 V2000
  -29.4241   -3.9957   -5.2571 C   0  0  0  0  0  0  0  0  0  0  0  0
  -29.1813   -4.5096   -6.5776 C   0  0  0  0  0  0  0  0  0  0  0  0
  -28.6785   -3.5604   -7.3899 N   0  0  0  0  0  0  0  0  0  0  0  0
  -28.6175   -2.4743   -6.6111 N   0  0  0  0  0  0  0  0  0  0  0  0
  -29.0747   -2.6622   -5.3357 C   0  0  0  0  0  0  0  0  0  0  0  0
  -29.0598   -1.6455   -4.4426 N   0  0  0  0  0  0  0  0  0  0  0  0
  -28.7097   -0.2958   -4.8589 C   0  0  0  0  0  0  0  0  0  0  0  0
  -27.6330   -0.3308   -5.9421 C   0  0  0  0  0  0  0  0  0  0  0  0
  -28.0757   -1.2202   -7.1012 C   0  0  0  0  0  0  0  0  0  0  0  0
  -29.2304   -1.7972   -3.4494 H   0  0  0  0  0  0  0  0  0  0  0  0
  -29.4519   -5.8552   -7.0882 C   0  0  0  0  0  0  0  0  0  0  0  0
  -28.4782   -6.5431   -7.8171 C   0  0  0  0  0  0  0  0  0  0  0  0
  -28.7283   -7.8154   -8.3420 C   0  0  0  0  0  0  0  0  0  0  0  0
  -29.9867   -8.3866   -8.1197 C   0  0  0  0  0  0  0  0  0  0  0  0
  -30.5980   -9.9101   -8.6504 S   0  0  0  0  0  0  0  0  0  0  0  0
  -32.0879   -9.5712   -7.8811 C   0  0  0  0  0  0  0  0  0  0  0  0
  -32.1782   -8.4198   -7.2573 N   0  0  0  0  0  0  0  0  0  0  0  0
  -30.9809   -7.7336   -7.3917 C   0  0  0  0  0  0  0  0  0  0  0  0
  -30.7052   -6.4558   -6.8803 C   0  0  0  0  0  0  0  0  0  0  0  0
  -28.9585   -5.3220   -3.3320 N   0  0  0  0  0  0  0  0  0  0  0  0
  -29.9072   -4.7072   -4.0959 C   0  0  0  0  0  0  0  0  0  0  0  0
  -31.0851   -4.7399   -3.7380 O   0  0  0  0  0  0  0  0  0  0  0  0
  -29.2690   -5.6699   -2.4368 H   0  0  0  0  0  0  0  0  0  0  0  0
  -27.9881   -5.0848   -3.4607 H   0  0  0  0  0  0  0  0  0  0  0  0
 20 21  1  0  0  0
 20 23  1  0  0  0
 20 24  1  0  0  0
 21 22  2  0  0  0
 21  1  1  0  0  0
  1  2  1  0  0  0
  1  5  2  0  0  0
  2 11  1  0  0  0
  2  3  2  0  0  0
 11 12  1  0  0  0
 11 19  2  0  0  0
 12 13  2  0  0  0
 13 14  1  0  0  0
 14 15  1  0  0  0
 14 18  2  0  0  0
 15 16  1  0  0  0
 16 17  2  0  0  0
 17 18  1  0  0  0
 18 19  1  0  0  0
  3  4  1  0  0  0
  4  5  1  0  0  0
  4  9  1  0  0  0
  5  6  1  0  0  0
  6  7  1  0  0  0
  6 10  1  0  0  0
  7  8  1  0  0  0
  8  9  1  0  0  0
M  END
> <minimizedAffinity>
-8.01156

$$$$
