CHEMBL1688354


 33 37  0  0  0  0  0  0  0  0999 V2000
  -28.3978   -3.5824   -7.7541 C   0  0  0  0  0  0  0  0  0  0  0  0
  -27.6539   -2.6544   -7.1871 N   0  0  0  0  0  0  0  0  0  0  0  0
  -27.3332   -1.7197   -8.1501 N   0  0  0  0  0  0  0  0  0  0  0  0
  -27.9107   -2.0675   -9.2809 C   0  0  0  0  0  0  0  0  0  0  0  0
  -28.5510   -3.2537   -9.0749 N   0  0  0  0  0  0  0  0  0  0  0  0
  -29.0486   -3.8159   -9.7474 H   0  0  0  0  0  0  0  0  0  0  0  0
  -29.9135   -4.5832   -6.0112 C   0  0  0  0  0  0  0  0  0  0  0  0
  -30.4402   -5.7422   -5.4216 C   0  0  0  0  0  0  0  0  0  0  0  0
  -30.1192   -7.0115   -5.9148 C   0  0  0  0  0  0  0  0  0  0  0  0
  -29.2969   -7.1461   -7.0286 C   0  0  0  0  0  0  0  0  0  0  0  0
  -28.7734   -6.0106   -7.6407 C   0  0  0  0  0  0  0  0  0  0  0  0
  -29.0598   -4.7316   -7.1378 C   0  0  0  0  0  0  0  0  0  0  0  0
  -30.3563   -3.2816   -5.6633 N   0  0  0  0  0  0  0  0  0  0  0  0
  -31.3710   -3.3702   -5.5422 H   0  0  0  0  0  0  0  0  0  0  0  0
  -29.7944   -2.6211   -4.4846 C   0  0  0  0  0  0  0  0  0  0  0  0
  -27.7381    0.6111   -4.8154 C   0  0  0  0  0  0  0  0  0  0  0  0
  -28.6553    1.3456   -5.5457 C   0  0  0  0  0  0  0  0  0  0  0  0
  -29.8679    0.8794   -5.9053 N   0  0  0  0  0  0  0  0  0  0  0  0
  -30.1750   -0.3828   -5.5248 C   0  0  0  0  0  0  0  0  0  0  0  0
  -29.3301   -1.2153   -4.7950 C   0  0  0  0  0  0  0  0  0  0  0  0
  -28.0857   -0.6845   -4.4333 C   0  0  0  0  0  0  0  0  0  0  0  0
  -27.9660   -1.4900  -10.5000 N   0  0  0  0  0  0  0  0  0  0  0  0
  -28.8211   -1.0344  -10.7954 H   0  0  0  0  0  0  0  0  0  0  0  0
  -26.9648   -1.4645  -11.4936 C   0  0  0  0  0  0  0  0  0  0  0  0
  -27.1808   -1.8213  -12.8290 C   0  0  0  0  0  0  0  0  0  0  0  0
  -26.1713   -1.6788  -13.7887 C   0  0  0  0  0  0  0  0  0  0  0  0
  -24.9221   -1.1845  -13.4267 C   0  0  0  0  0  0  0  0  0  0  0  0
  -24.6643   -0.8945  -12.0923 C   0  0  0  0  0  0  0  0  0  0  0  0
  -25.6753   -1.0320  -11.1356 C   0  0  0  0  0  0  0  0  0  0  0  0
  -23.4413   -0.4807  -11.6403 O   0  0  0  0  0  0  0  0  0  0  0  0
  -22.6818    0.1371  -12.6778 C   0  0  0  0  0  0  0  0  0  0  0  0
  -22.7228   -0.6201  -13.9986 C   0  0  0  0  0  0  0  0  0  0  0  0
  -24.0294   -0.9865  -14.4391 O   0  0  0  0  0  0  0  0  0  0  0  0
 16 17  1  0  0  0
 16 21  2  0  0  0
 17 18  2  0  0  0
 18 19  1  0  0  0
 19 20  2  0  0  0
 20 15  1  0  0  0
 20 21  1  0  0  0
 15 13  1  0  0  0
 13  7  1  0  0  0
 13 14  1  0  0  0
  7  8  1  0  0  0
  7 12  2  0  0  0
  8  9  2  0  0  0
  9 10  1  0  0  0
 10 11  2  0  0  0
 11 12  1  0  0  0
 12  1  1  0  0  0
  1  2  2  0  0  0
  1  5  1  0  0  0
  2  3  1  0  0  0
  3  4  2  0  0  0
  4 22  1  0  0  0
  4  5  1  0  0  0
 22 24  1  0  0  0
 22 23  1  0  0  0
 24 25  1  0  0  0
 24 29  2  0  0  0
 25 26  2  0  0  0
 26 27  1  0  0  0
 27 28  2  0  0  0
 27 33  1  0  0  0
 28 29  1  0  0  0
 28 30  1  0  0  0
 30 31  1  0  0  0
 31 32  1  0  0  0
 32 33  1  0  0  0
  5  6  1  0  0  0
M  END
> <minimizedAffinity>
-10.14917

$$$$
