CHEMBL3690468


 34 37  0  0  0  0  0  0  0  0999 V2000
  -26.6047  -11.1231   -4.9146 C   0  0  0  0  0  0  0  0  0  0  0  0
  -27.3035  -11.5630   -3.7901 C   0  0  0  0  0  0  0  0  0  0  0  0
  -28.5743  -11.0726   -3.5104 C   0  0  0  0  0  0  0  0  0  0  0  0
  -29.1415  -10.1070   -4.3342 C   0  0  0  0  0  0  0  0  0  0  0  0
  -28.4135   -9.5443   -5.3892 C   0  0  0  0  0  0  0  0  0  0  0  0
  -27.1626  -10.1030   -5.7042 C   0  0  0  0  0  0  0  0  0  0  0  0
  -28.9187   -8.3690   -6.1130 C   0  0  0  0  0  0  0  0  0  0  0  0
  -29.6166   -8.2743   -7.3063 C   0  0  0  0  0  0  0  0  0  0  0  0
  -29.8587   -6.9742   -7.6670 N   0  0  0  0  0  0  0  0  0  0  0  0
  -29.3084   -6.2460   -6.7197 C   0  0  0  0  0  0  0  0  0  0  0  0
  -29.2316   -4.8296   -6.5626 C   0  0  0  0  0  0  0  0  0  0  0  0
  -28.6204   -4.2759   -5.4873 C   0  0  0  0  0  0  0  0  0  0  0  0
  -28.0003   -5.1572   -4.4926 C   0  0  0  0  0  0  0  0  0  0  0  0
  -28.0370   -6.4854   -4.6521 C   0  0  0  0  0  0  0  0  0  0  0  0
  -28.7080   -7.0392   -5.7459 N   0  0  0  0  0  0  0  0  0  0  0  0
  -28.5595   -2.8244   -5.3364 C   0  0  0  0  0  0  0  0  0  0  0  0
  -29.6641   -2.0580   -5.3786 C   0  0  0  0  0  0  0  0  0  0  0  0
  -29.5762   -0.7042   -5.1887 N   0  0  0  0  0  0  0  0  0  0  0  0
  -28.3694   -0.0991   -4.9442 C   0  0  0  0  0  0  0  0  0  0  0  0
  -28.2085    1.0957   -4.7548 O   0  0  0  0  0  0  0  0  0  0  0  0
  -27.1948   -1.0508   -4.9065 C   0  0  0  0  0  0  0  0  0  0  0  0
  -27.2939   -2.3370   -5.0845 N   0  0  0  0  0  0  0  0  0  0  0  0
  -30.3991   -0.1158   -5.2103 H   0  0  0  0  0  0  0  0  0  0  0  0
  -23.8826   -9.9521   -4.6638 O   0  0  0  0  0  0  0  0  0  0  0  0
  -24.1213  -11.0486   -5.1504 C   0  0  0  0  0  0  0  0  0  0  0  0
  -23.1050  -11.8559   -5.6176 N   0  0  0  0  0  0  0  0  0  0  0  0
  -25.3515  -11.6506   -5.2968 N   0  0  0  0  0  0  0  0  0  0  0  0
  -23.3558  -12.4762   -6.3746 H   0  0  0  0  0  0  0  0  0  0  0  0
  -25.3489  -12.5977   -5.6429 H   0  0  0  0  0  0  0  0  0  0  0  0
  -21.7419  -11.3116   -5.6615 C   0  0  0  0  0  0  0  0  0  0  0  0
  -21.3948  -10.5383   -6.9414 C   0  0  0  0  0  0  0  0  0  0  0  0
  -22.0641   -9.3637   -7.0174 F   0  0  0  0  0  0  0  0  0  0  0  0
  -20.0763  -10.2790   -7.0470 F   0  0  0  0  0  0  0  0  0  0  0  0
  -21.7562  -11.2623   -8.0301 F   0  0  0  0  0  0  0  0  0  0  0  0
 24 25  2  0  0  0
 25 26  1  0  0  0
 25 27  1  0  0  0
 26 30  1  0  0  0
 26 28  1  0  0  0
 30 31  1  0  0  0
 31 32  1  0  0  0
 31 33  1  0  0  0
 31 34  1  0  0  0
 27  1  1  0  0  0
 27 29  1  0  0  0
  1  2  1  0  0  0
  1  6  2  0  0  0
  2  3  2  0  0  0
  3  4  1  0  0  0
  4  5  2  0  0  0
  5  7  1  0  0  0
  5  6  1  0  0  0
  7  8  2  0  0  0
  7 15  1  0  0  0
  8  9  1  0  0  0
  9 10  2  0  0  0
 10 11  1  0  0  0
 10 15  1  0  0  0
 11 12  2  0  0  0
 12 16  1  0  0  0
 12 13  1  0  0  0
 16 17  2  0  0  0
 16 22  1  0  0  0
 17 18  1  0  0  0
 18 19  1  0  0  0
 18 23  1  0  0  0
 19 20  2  0  0  0
 19 21  1  0  0  0
 21 22  2  0  0  0
 13 14  2  0  0  0
 14 15  1  0  0  0
M  END
> <minimizedAffinity>
-8.46892

$$$$
