CHEMBL3932948


 46 50  0  0  0  0  0  0  0  0999 V2000
  -28.1859   -1.7630   -8.1985 C   0  0  0  0  0  0  0  0  0  0  0  0
  -27.7825   -0.5485   -7.6405 C   0  0  0  0  0  0  0  0  0  0  0  0
  -27.4415   -0.4922   -6.3076 C   0  0  0  0  0  0  0  0  0  0  0  0
  -27.5504   -1.5216   -5.4439 N   0  0  0  0  0  0  0  0  0  0  0  0
  -28.0366   -2.6723   -5.9592 C   0  0  0  0  0  0  0  0  0  0  0  0
  -28.2696   -3.8575   -5.2020 C   0  0  0  0  0  0  0  0  0  0  0  0
  -28.7795   -4.8830   -5.9657 C   0  0  0  0  0  0  0  0  0  0  0  0
  -28.9532   -4.4185   -7.6052 S   0  0  0  0  0  0  0  0  0  0  0  0
  -28.3666   -2.8332   -7.3069 C   0  0  0  0  0  0  0  0  0  0  0  0
  -29.1456   -6.2118   -5.4954 C   0  0  0  0  0  0  0  0  0  0  0  0
  -29.5392   -6.4170   -4.3470 O   0  0  0  0  0  0  0  0  0  0  0  0
  -29.0243   -7.2242   -6.4183 N   0  0  0  0  0  0  0  0  0  0  0  0
  -28.7397   -6.9789   -7.3577 H   0  0  0  0  0  0  0  0  0  0  0  0
  -29.3664   -8.5963   -6.1199 C   0  0  0  0  0  0  0  0  0  0  0  0
  -30.7630   -8.9394   -6.6268 C   0  0  0  0  0  0  0  0  0  0  0  0
  -30.7570   -9.3261   -8.1128 C   0  0  0  0  0  0  0  0  0  0  0  0
  -29.5507  -10.0697   -8.5282 N   0  0  0  0  0  0  0  0  0  0  0  0
  -29.8399  -11.5111   -8.6180 C   0  0  0  0  0  0  0  0  0  0  0  0
  -28.6247  -12.3203   -9.0512 C   0  0  0  0  0  0  0  0  0  0  0  0
  -28.0799  -11.8237  -10.3804 C   0  0  0  0  0  0  0  0  0  0  0  0
  -27.8055  -10.3156  -10.3132 C   0  0  0  0  0  0  0  0  0  0  0  0
  -29.0438   -9.5519   -9.8100 C   0  0  0  0  0  0  0  0  0  0  0  0
  -27.3838   -9.7592  -11.6771 C   0  0  0  0  0  0  0  0  0  0  0  0
  -26.4688   -8.6810  -11.5381 O   0  0  0  0  0  0  0  0  0  0  0  0
  -26.8991   -8.0015  -10.9909 H   0  0  0  0  0  0  0  0  0  0  0  0
  -28.4417   -1.9248   -9.5516 O   0  0  0  0  0  0  0  0  0  0  0  0
  -25.3806   -1.3824  -12.3693 C   0  0  0  0  0  0  0  0  0  0  0  0
  -25.0552   -1.5491  -11.0209 C   0  0  0  0  0  0  0  0  0  0  0  0
  -26.0518   -1.7804  -10.0732 C   0  0  0  0  0  0  0  0  0  0  0  0
  -27.3974   -1.7730  -10.4468 C   0  0  0  0  0  0  0  0  0  0  0  0
  -27.7288   -1.6294  -11.7975 C   0  0  0  0  0  0  0  0  0  0  0  0
  -26.7238   -1.4142  -12.7585 C   0  0  0  0  0  0  0  0  0  0  0  0
  -22.5606   -0.0587  -14.2590 N   0  0  0  0  0  0  0  0  0  0  0  0
  -23.5433   -0.1102  -13.2708 C   0  0  0  0  0  0  0  0  0  0  0  0
  -23.6951    0.7293  -12.3922 O   0  0  0  0  0  0  0  0  0  0  0  0
  -24.3350   -1.2562  -13.3306 N   0  0  0  0  0  0  0  0  0  0  0  0
  -22.4522   -0.8709  -14.8386 H   0  0  0  0  0  0  0  0  0  0  0  0
  -23.8362   -2.1024  -13.5577 H   0  0  0  0  0  0  0  0  0  0  0  0
  -17.8587    1.2673  -15.2821 C   0  0  0  0  0  0  0  0  0  0  0  0
  -19.2656    1.6252  -14.8929 C   0  0  0  0  0  0  0  0  0  0  0  0
  -19.5761    2.9677  -14.6525 C   0  0  0  0  0  0  0  0  0  0  0  0
  -20.8718    3.3254  -14.3163 C   0  0  0  0  0  0  0  0  0  0  0  0
  -21.8649    2.3540  -14.2095 C   0  0  0  0  0  0  0  0  0  0  0  0
  -23.1020    2.8194  -14.0105 F   0  0  0  0  0  0  0  0  0  0  0  0
  -21.5941    0.9861  -14.3984 C   0  0  0  0  0  0  0  0  0  0  0  0
  -20.2772    0.6402  -14.7678 C   0  0  0  0  0  0  0  0  0  0  0  0
 39 40  1  0  0  0
 40 41  1  0  0  0
 40 46  2  0  0  0
 41 42  2  0  0  0
 42 43  1  0  0  0
 43 44  1  0  0  0
 43 45  2  0  0  0
 45 33  1  0  0  0
 45 46  1  0  0  0
 33 34  1  0  0  0
 33 37  1  0  0  0
 34 35  2  0  0  0
 34 36  1  0  0  0
 36 27  1  0  0  0
 36 38  1  0  0  0
 27 28  1  0  0  0
 27 32  2  0  0  0
 28 29  2  0  0  0
 29 30  1  0  0  0
 30 26  1  0  0  0
 30 31  2  0  0  0
 26  1  1  0  0  0
  1  2  1  0  0  0
  1  9  2  0  0  0
  2  3  2  0  0  0
  3  4  1  0  0  0
  4  5  2  0  0  0
  5  6  1  0  0  0
  5  9  1  0  0  0
  6  7  2  0  0  0
  7 10  1  0  0  0
  7  8  1  0  0  0
 10 11  2  0  0  0
 10 12  1  0  0  0
 12 14  1  0  0  0
 12 13  1  0  0  0
 14 15  1  0  0  0
 15 16  1  0  0  0
 16 17  1  0  0  0
 17 18  1  0  0  0
 17 22  1  0  0  0
 18 19  1  0  0  0
 19 20  1  0  0  0
 20 21  1  0  0  0
 21 23  1  0  0  0
 21 22  1  0  0  0
 23 24  1  0  0  0
 24 25  1  0  0  0
  8  9  1  0  0  0
 31 32  1  0  0  0
M  END
> <minimizedAffinity>
-11.00347

$$$$
