CHEMBL3545414


 32 35  0  0  0  0  0  0  0  0999 V2000
  -27.1501   11.8900  -15.8014 N   0  0  0  0  0  0  0  0  0  0  0  0
  -26.1170   11.0080  -15.5394 C   0  0  0  0  0  0  0  0  0  0  0  0
  -26.1676   10.1008  -14.7090 O   0  0  0  0  0  0  0  0  0  0  0  0
  -26.9076   12.7946  -16.1724 H   0  0  0  0  0  0  0  0  0  0  0  0
  -30.9384   11.3993  -13.9769 C   0  0  0  0  0  0  0  0  0  0  0  0
  -29.8302   10.6062  -13.6132 C   0  0  0  0  0  0  0  0  0  0  0  0
  -28.5665   10.8152  -14.1764 C   0  0  0  0  0  0  0  0  0  0  0  0
  -28.4032   11.7598  -15.1830 C   0  0  0  0  0  0  0  0  0  0  0  0
  -29.4764   12.5591  -15.5594 C   0  0  0  0  0  0  0  0  0  0  0  0
  -30.7141   12.4055  -14.9343 C   0  0  0  0  0  0  0  0  0  0  0  0
  -32.3454   11.1264  -13.4047 C   0  0  0  0  0  0  0  0  0  0  0  0
  -32.3755   10.0697  -12.2698 C   0  0  0  0  0  0  0  0  0  0  0  0
  -32.2921   10.8245  -10.9359 C   0  0  0  0  0  0  0  0  0  0  0  0
  -32.2657   12.3093  -11.2729 C   0  0  0  0  0  0  0  0  0  0  0  0
  -32.8664   12.3890  -12.6721 C   0  0  0  0  0  0  0  0  0  0  0  0
  -34.0993   10.3947  -15.2493 N   0  0  0  0  0  0  0  0  0  0  0  0
  -33.3212   10.7230  -14.4571 C   0  0  0  0  0  0  0  0  0  0  0  0
  -24.8246   11.2465  -16.2278 C   0  0  0  0  0  0  0  0  0  0  0  0
  -24.6920   10.7107  -17.5178 C   0  0  0  0  0  0  0  0  0  0  0  0
  -23.6036   11.0623  -18.2996 C   0  0  0  0  0  0  0  0  0  0  0  0
  -22.6849   11.9414  -17.7605 C   0  0  0  0  0  0  0  0  0  0  0  0
  -22.7691   12.4537  -16.5085 N   0  0  0  0  0  0  0  0  0  0  0  0
  -23.8349   12.1163  -15.7452 C   0  0  0  0  0  0  0  0  0  0  0  0
  -23.9117   12.6503  -14.4583 N   0  0  0  0  0  0  0  0  0  0  0  0
  -24.8428   13.0034  -14.2736 H   0  0  0  0  0  0  0  0  0  0  0  0
  -23.4473   11.8143  -13.3617 C   0  0  0  0  0  0  0  0  0  0  0  0
  -24.3127   12.1254  -12.1599 C   0  0  0  0  0  0  0  0  0  0  0  0
  -23.7621   12.4054  -10.9075 C   0  0  0  0  0  0  0  0  0  0  0  0
  -24.6220   12.6542   -9.8459 C   0  0  0  0  0  0  0  0  0  0  0  0
  -25.9692   12.6461   -9.9441 N   0  0  0  0  0  0  0  0  0  0  0  0
  -26.4827   12.3845  -11.1644 C   0  0  0  0  0  0  0  0  0  0  0  0
  -25.7089   12.1322  -12.2845 C   0  0  0  0  0  0  0  0  0  0  0  0
 16 17  3  0  0  0
 17 11  1  0  0  0
 11  5  1  0  0  0
 11 12  1  0  0  0
 11 15  1  0  0  0
  5  6  1  0  0  0
  5 10  2  0  0  0
  6  7  2  0  0  0
  7  8  1  0  0  0
  8  1  1  0  0  0
  8  9  2  0  0  0
  1  2  1  0  0  0
  1  4  1  0  0  0
  2  3  2  0  0  0
  2 18  1  0  0  0
 18 19  1  0  0  0
 18 23  2  0  0  0
 19 20  2  0  0  0
 20 21  1  0  0  0
 21 22  2  0  0  0
 22 23  1  0  0  0
 23 24  1  0  0  0
 24 26  1  0  0  0
 24 25  1  0  0  0
 26 27  1  0  0  0
 27 28  1  0  0  0
 27 32  2  0  0  0
 28 29  2  0  0  0
 29 30  1  0  0  0
 30 31  2  0  0  0
 31 32  1  0  0  0
  9 10  1  0  0  0
 12 13  1  0  0  0
 13 14  1  0  0  0
 14 15  1  0  0  0
M  END
> <minimizedAffinity>
-4.29366

$$$$
