CHEMBL245967


 31 34  0  0  0  0  0  0  0  0999 V2000
  -28.2828   -2.5361   -7.3810 C   0  0  0  0  0  0  0  0  0  0  0  0
  -28.2968   -1.4260   -6.5726 C   0  0  0  0  0  0  0  0  0  0  0  0
  -28.9041   -1.8201   -5.4148 N   0  0  0  0  0  0  0  0  0  0  0  0
  -29.2854   -3.1135   -5.4109 N   0  0  0  0  0  0  0  0  0  0  0  0
  -28.8950   -3.5601   -6.6146 C   0  0  0  0  0  0  0  0  0  0  0  0
  -29.1016   -1.2573   -4.5938 H   0  0  0  0  0  0  0  0  0  0  0  0
  -29.0903   -4.9761   -7.0402 C   0  0  0  0  0  0  0  0  0  0  0  0
  -30.1911   -5.6727   -6.8507 N   0  0  0  0  0  0  0  0  0  0  0  0
  -29.9790   -6.8685   -7.4755 C   0  0  0  0  0  0  0  0  0  0  0  0
  -30.8523   -7.9499   -7.6304 C   0  0  0  0  0  0  0  0  0  0  0  0
  -30.4100   -9.0772   -8.3344 C   0  0  0  0  0  0  0  0  0  0  0  0
  -29.1147   -9.1349   -8.8605 C   0  0  0  0  0  0  0  0  0  0  0  0
  -28.2296   -8.0539   -8.7078 C   0  0  0  0  0  0  0  0  0  0  0  0
  -28.7019   -6.9334   -8.0184 C   0  0  0  0  0  0  0  0  0  0  0  0
  -28.1497   -5.7134   -7.7163 N   0  0  0  0  0  0  0  0  0  0  0  0
  -27.2333   -5.3724   -7.9679 H   0  0  0  0  0  0  0  0  0  0  0  0
  -28.5922  -10.1975   -9.5530 O   0  0  0  0  0  0  0  0  0  0  0  0
  -28.9788  -10.3228  -10.9172 C   0  0  0  0  0  0  0  0  0  0  0  0
  -27.3441   -1.5300   -9.4099 C   0  0  0  0  0  0  0  0  0  0  0  0
  -27.8160   -2.5849   -8.7245 C   0  0  0  0  0  0  0  0  0  0  0  0
  -24.9179   -1.7788  -12.3309 C   0  0  0  0  0  0  0  0  0  0  0  0
  -25.8572   -1.8827  -13.3501 C   0  0  0  0  0  0  0  0  0  0  0  0
  -27.1939   -1.8606  -13.1534 N   0  0  0  0  0  0  0  0  0  0  0  0
  -27.6170   -1.7380  -11.8710 C   0  0  0  0  0  0  0  0  0  0  0  0
  -26.7777   -1.6127  -10.7660 C   0  0  0  0  0  0  0  0  0  0  0  0
  -25.4033   -1.6315  -11.0218 C   0  0  0  0  0  0  0  0  0  0  0  0
  -23.4411   -1.8383  -12.6233 C   0  0  0  0  0  0  0  0  0  0  0  0
  -22.7813   -0.5986  -12.2143 N   0  0  0  0  0  0  0  0  0  0  0  0
  -23.1397   -0.3100  -11.3057 H   0  0  0  0  0  0  0  0  0  0  0  0
  -21.8422    0.4524  -14.1844 C   0  0  0  0  0  0  0  0  0  0  0  0
  -22.9832    0.4751  -13.1768 C   0  0  0  0  0  0  0  0  0  0  0  0
 30 31  1  0  0  0
 31 28  1  0  0  0
 28 27  1  0  0  0
 28 29  1  0  0  0
 27 21  1  0  0  0
 21 22  1  0  0  0
 21 26  2  0  0  0
 22 23  2  0  0  0
 23 24  1  0  0  0
 24 25  2  0  0  0
 25 19  1  0  0  0
 25 26  1  0  0  0
 19 20  2  0  0  0
 20  1  1  0  0  0
  1  2  2  0  0  0
  1  5  1  0  0  0
  2  3  1  0  0  0
  3  4  1  0  0  0
  3  6  1  0  0  0
  4  5  2  0  0  0
  5  7  1  0  0  0
  7  8  2  0  0  0
  7 15  1  0  0  0
  8  9  1  0  0  0
  9 10  1  0  0  0
  9 14  2  0  0  0
 10 11  2  0  0  0
 11 12  1  0  0  0
 12 17  1  0  0  0
 12 13  2  0  0  0
 17 18  1  0  0  0
 13 14  1  0  0  0
 14 15  1  0  0  0
 15 16  1  0  0  0
M  END
> <minimizedAffinity>
-8.89094

$$$$
