CHEMBL3899385


 37 40  0  0  0  0  0  0  0  0999 V2000
  -25.8481   -0.8302  -12.8700 C   0  0  0  0  0  0  0  0  0  0  0  0
  -26.3009   -1.1147  -14.1133 N   0  0  0  0  0  0  0  0  0  0  0  0
  -27.4388   -1.8303  -14.2365 C   0  0  0  0  0  0  0  0  0  0  0  0
  -28.2309   -2.3143  -13.2639 N   0  0  0  0  0  0  0  0  0  0  0  0
  -27.7532   -1.9948  -12.0526 C   0  0  0  0  0  0  0  0  0  0  0  0
  -28.3238   -2.3636  -10.8655 N   0  0  0  0  0  0  0  0  0  0  0  0
  -27.5782   -1.8881   -9.8064 C   0  0  0  0  0  0  0  0  0  0  0  0
  -26.5060   -1.2035  -10.3622 C   0  0  0  0  0  0  0  0  0  0  0  0
  -26.6108   -1.2675  -11.7775 C   0  0  0  0  0  0  0  0  0  0  0  0
  -29.1541   -2.9312  -10.8002 H   0  0  0  0  0  0  0  0  0  0  0  0
  -27.9159   -2.1174   -8.4021 C   0  0  0  0  0  0  0  0  0  0  0  0
  -28.5073   -3.3294   -8.0222 C   0  0  0  0  0  0  0  0  0  0  0  0
  -28.7769   -3.6050   -6.6761 C   0  0  0  0  0  0  0  0  0  0  0  0
  -28.4478   -2.6778   -5.6948 C   0  0  0  0  0  0  0  0  0  0  0  0
  -27.8987   -1.4506   -6.0674 C   0  0  0  0  0  0  0  0  0  0  0  0
  -27.6314   -1.1714   -7.4120 C   0  0  0  0  0  0  0  0  0  0  0  0
  -28.6654   -2.8480   -4.3568 O   0  0  0  0  0  0  0  0  0  0  0  0
  -29.8327   -2.2079   -3.8358 C   0  0  0  0  0  0  0  0  0  0  0  0
  -30.6565   -3.2482   -3.0777 C   0  0  0  0  0  0  0  0  0  0  0  0
  -31.3376   -4.2629   -4.0024 C   0  0  0  0  0  0  0  0  0  0  0  0
  -31.0303   -5.7136   -3.6308 C   0  0  0  0  0  0  0  0  0  0  0  0
  -29.7980   -6.2255   -4.3334 C   0  0  0  0  0  0  0  0  0  0  0  0
  -29.8415   -6.8870   -5.3683 O   0  0  0  0  0  0  0  0  0  0  0  0
  -28.6198   -5.9334   -3.7012 N   0  0  0  0  0  0  0  0  0  0  0  0
  -27.4379   -6.3973   -4.3145 O   0  0  0  0  0  0  0  0  0  0  0  0
  -28.5244   -5.3879   -2.8506 H   0  0  0  0  0  0  0  0  0  0  0  0
  -27.7868   -6.8715   -5.1013 H   0  0  0  0  0  0  0  0  0  0  0  0
  -24.6347   -0.1607  -12.6734 N   0  0  0  0  0  0  0  0  0  0  0  0
  -24.7737    0.8053  -12.9616 H   0  0  0  0  0  0  0  0  0  0  0  0
  -22.6916   -1.6839  -12.4734 C   0  0  0  0  0  0  0  0  0  0  0  0
  -23.4756   -0.7255  -13.3781 C   0  0  0  0  0  0  0  0  0  0  0  0
  -22.5852    0.4365  -13.8116 C   0  0  0  0  0  0  0  0  0  0  0  0
  -21.3510    0.1932  -14.4339 C   0  0  0  0  0  0  0  0  0  0  0  0
  -20.5616    1.2536  -14.8868 C   0  0  0  0  0  0  0  0  0  0  0  0
  -20.9899    2.5689  -14.7167 C   0  0  0  0  0  0  0  0  0  0  0  0
  -22.1973    2.8281  -14.0732 C   0  0  0  0  0  0  0  0  0  0  0  0
  -22.9879    1.7703  -13.6216 C   0  0  0  0  0  0  0  0  0  0  0  0
 30 31  1  0  0  0
 31 28  1  0  0  0
 31 32  1  0  0  0
 28  1  1  0  0  0
 28 29  1  0  0  0
  1  2  1  0  0  0
  1  9  2  0  0  0
  2  3  2  0  0  0
  3  4  1  0  0  0
  4  5  2  0  0  0
  5  6  1  0  0  0
  5  9  1  0  0  0
  6  7  1  0  0  0
  6 10  1  0  0  0
  7 11  1  0  0  0
  7  8  2  0  0  0
 11 12  1  0  0  0
 11 16  2  0  0  0
 12 13  2  0  0  0
 13 14  1  0  0  0
 14 17  1  0  0  0
 14 15  2  0  0  0
 17 18  1  0  0  0
 18 19  1  0  0  0
 19 20  1  0  0  0
 20 21  1  0  0  0
 21 22  1  0  0  0
 22 23  2  0  0  0
 22 24  1  0  0  0
 24 25  1  0  0  0
 24 26  1  0  0  0
 25 27  1  0  0  0
 15 16  1  0  0  0
  8  9  1  0  0  0
 32 33  1  0  0  0
 32 37  2  0  0  0
 33 34  2  0  0  0
 34 35  1  0  0  0
 35 36  2  0  0  0
 36 37  1  0  0  0
M  END
> <minimizedAffinity>
-9.21960

$$$$
