CHEMBL3982668


 35 39  0  0  0  0  0  0  0  0999 V2000
  -28.3135   -9.5775   -5.2708 N   0  0  0  0  0  0  0  0  0  0  0  0
  -28.7468   -8.1650   -5.2624 C   0  0  0  0  0  0  0  0  0  0  0  0
  -29.9166   -7.9547   -5.9889 C   0  0  0  0  0  0  0  0  0  0  0  0
  -30.1724   -6.7945   -6.6080 C   0  0  0  0  0  0  0  0  0  0  0  0
  -29.3767   -5.7130   -6.4096 C   0  0  0  0  0  0  0  0  0  0  0  0
  -29.5421   -4.7113   -7.2655 N   0  0  0  0  0  0  0  0  0  0  0  0
  -28.9162   -3.5560   -7.1093 C   0  0  0  0  0  0  0  0  0  0  0  0
  -28.3372   -3.2926   -5.8743 C   0  0  0  0  0  0  0  0  0  0  0  0
  -27.9493   -4.3743   -5.0689 N   0  0  0  0  0  0  0  0  0  0  0  0
  -28.4004   -5.6666   -5.4092 C   0  0  0  0  0  0  0  0  0  0  0  0
  -28.0028   -6.9653   -4.8338 C   0  0  0  0  0  0  0  0  0  0  0  0
  -28.7021   -1.8796   -5.4211 C   0  0  0  0  0  0  0  0  0  0  0  0
  -27.7148   -0.9409   -5.0579 C   0  0  0  0  0  0  0  0  0  0  0  0
  -28.2281    0.2865   -4.9987 N   0  0  0  0  0  0  0  0  0  0  0  0
  -29.5108    0.1963   -5.2749 N   0  0  0  0  0  0  0  0  0  0  0  0
  -30.3127    1.3995   -5.4584 C   0  0  0  0  0  0  0  0  0  0  0  0
  -29.8599   -1.1082   -5.5060 C   0  0  0  0  0  0  0  0  0  0  0  0
  -24.5749  -10.1269   -4.8543 C   0  0  0  0  0  0  0  0  0  0  0  0
  -24.5842  -10.9063   -3.6816 C   0  0  0  0  0  0  0  0  0  0  0  0
  -25.7783  -11.3238   -3.0877 C   0  0  0  0  0  0  0  0  0  0  0  0
  -26.9813  -10.9431   -3.6863 C   0  0  0  0  0  0  0  0  0  0  0  0
  -27.0388  -10.1281   -4.8463 C   0  0  0  0  0  0  0  0  0  0  0  0
  -25.8117   -9.7378   -5.4385 C   0  0  0  0  0  0  0  0  0  0  0  0
  -22.5516  -10.5255   -6.1651 C   0  0  0  0  0  0  0  0  0  0  0  0
  -23.3927   -9.7199   -5.4059 O   0  0  0  0  0  0  0  0  0  0  0  0
  -25.7993  -12.0638   -1.9554 O   0  0  0  0  0  0  0  0  0  0  0  0
  -24.6997  -12.3466   -1.1675 C   0  0  0  0  0  0  0  0  0  0  0  0
  -29.2171  -10.4639   -6.1004 C   0  0  0  0  0  0  0  0  0  0  0  0
  -28.7369  -10.9107   -7.5151 C   0  0  0  0  0  0  0  0  0  0  0  0
  -28.5181   -9.7385   -8.4244 N   0  0  0  0  0  0  0  0  0  0  0  0
  -29.3340   -9.7186   -9.6634 C   0  0  0  0  0  0  0  0  0  0  0  0
  -28.8702  -10.7986  -10.6615 C   0  0  0  0  0  0  0  0  0  0  0  0
  -27.4948  -10.6588  -10.9747 O   0  0  0  0  0  0  0  0  0  0  0  0
  -26.7087  -10.7237   -9.7980 C   0  0  0  0  0  0  0  0  0  0  0  0
  -27.1014   -9.5984   -8.8235 C   0  0  0  0  0  0  0  0  0  0  0  0
 24 25  1  0  0  0
 25 18  1  0  0  0
 18 19  1  0  0  0
 18 23  2  0  0  0
 19 20  2  0  0  0
 20 26  1  0  0  0
 20 21  1  0  0  0
 26 27  1  0  0  0
 21 22  2  0  0  0
 22  1  1  0  0  0
 22 23  1  0  0  0
  1 28  1  0  0  0
  1  2  1  0  0  0
 28 29  1  0  0  0
 29 30  1  0  0  0
 30 31  1  0  0  0
 30 35  1  0  0  0
 31 32  1  0  0  0
 32 33  1  0  0  0
 33 34  1  0  0  0
 34 35  1  0  0  0
  2  3  1  0  0  0
  2 11  2  0  0  0
  3  4  2  0  0  0
  4  5  1  0  0  0
  5  6  1  0  0  0
  5 10  2  0  0  0
  6  7  2  0  0  0
  7  8  1  0  0  0
  8 12  1  0  0  0
  8  9  2  0  0  0
 12 13  1  0  0  0
 12 17  2  0  0  0
 13 14  2  0  0  0
 14 15  1  0  0  0
 15 16  1  0  0  0
 15 17  1  0  0  0
  9 10  1  0  0  0
 10 11  1  0  0  0
M  END
> <minimizedAffinity>
-7.80670

$$$$
