CHEMBL217090


 38 43  0  0  0  0  0  0  0  0999 V2000
  -27.6327   -9.3985   -5.3115 C   0  0  0  0  0  0  0  0  0  0  0  0
  -27.6975  -10.1378   -4.1837 N   0  0  0  0  0  0  0  0  0  0  0  0
  -28.4482   -9.6662   -3.1933 C   0  0  0  0  0  0  0  0  0  0  0  0
  -29.1427   -8.5347   -3.2218 N   0  0  0  0  0  0  0  0  0  0  0  0
  -29.0986   -7.8335   -4.3550 C   0  0  0  0  0  0  0  0  0  0  0  0
  -29.7946   -6.6475   -4.3393 C   0  0  0  0  0  0  0  0  0  0  0  0
  -29.8579   -5.7978   -5.4438 C   0  0  0  0  0  0  0  0  0  0  0  0
  -29.2158   -6.1772   -6.6166 C   0  0  0  0  0  0  0  0  0  0  0  0
  -28.4948   -7.3782   -6.6734 C   0  0  0  0  0  0  0  0  0  0  0  0
  -28.3932   -8.2166   -5.5006 C   0  0  0  0  0  0  0  0  0  0  0  0
  -26.6992   -9.8001   -6.2803 N   0  0  0  0  0  0  0  0  0  0  0  0
  -27.1374  -10.1015   -7.1440 H   0  0  0  0  0  0  0  0  0  0  0  0
  -24.9401   -8.7479   -3.7875 Cl  0  0  0  0  0  0  0  0  0  0  0  0
  -24.4856   -9.8070   -5.0830 C   0  0  0  0  0  0  0  0  0  0  0  0
  -23.1226  -10.1901   -5.0855 C   0  0  0  0  0  0  0  0  0  0  0  0
  -22.5935  -10.9664   -6.1147 C   0  0  0  0  0  0  0  0  0  0  0  0
  -23.4590  -11.3756   -7.1002 C   0  0  0  0  0  0  0  0  0  0  0  0
  -24.7880  -11.0053   -7.1063 C   0  0  0  0  0  0  0  0  0  0  0  0
  -25.3564  -10.1901   -6.1293 C   0  0  0  0  0  0  0  0  0  0  0  0
  -25.4505  -11.5272   -8.1848 O   0  0  0  0  0  0  0  0  0  0  0  0
  -24.4236  -12.3651   -8.7544 C   0  0  0  0  0  0  0  0  0  0  0  0
  -23.1273  -12.1592   -8.1608 O   0  0  0  0  0  0  0  0  0  0  0  0
  -30.5212   -4.5923   -5.4499 O   0  0  0  0  0  0  0  0  0  0  0  0
  -30.6523   -3.9818   -4.1588 C   0  0  0  0  0  0  0  0  0  0  0  0
  -29.3479   -3.3420   -3.7065 C   0  0  0  0  0  0  0  0  0  0  0  0
  -29.1925   -1.9770   -4.3991 C   0  0  0  0  0  0  0  0  0  0  0  0
  -27.8920   -1.8043   -5.0594 N   0  0  0  0  0  0  0  0  0  0  0  0
  -27.5437   -0.3773   -5.1916 C   0  0  0  0  0  0  0  0  0  0  0  0
  -28.1172    0.0477   -6.5288 C   0  0  0  0  0  0  0  0  0  0  0  0
  -27.8750   -1.1684   -7.3969 C   0  0  0  0  0  0  0  0  0  0  0  0
  -27.8755   -2.3460   -6.4303 C   0  0  0  0  0  0  0  0  0  0  0  0
  -27.8476   -7.8162   -7.7999 O   0  0  0  0  0  0  0  0  0  0  0  0
  -28.5913   -8.4258   -8.8754 C   0  0  0  0  0  0  0  0  0  0  0  0
  -29.6936   -9.3386   -8.3273 C   0  0  0  0  0  0  0  0  0  0  0  0
  -30.2382  -10.2763   -9.3931 C   0  0  0  0  0  0  0  0  0  0  0  0
  -29.1838  -11.0153  -10.0026 O   0  0  0  0  0  0  0  0  0  0  0  0
  -28.2687  -10.1633  -10.6857 C   0  0  0  0  0  0  0  0  0  0  0  0
  -27.5791   -9.2323   -9.7012 C   0  0  0  0  0  0  0  0  0  0  0  0
 13 14  1  0  0  0
 14 15  1  0  0  0
 14 19  2  0  0  0
 15 16  2  0  0  0
 16 17  1  0  0  0
 17 18  2  0  0  0
 17 22  1  0  0  0
 18 19  1  0  0  0
 18 20  1  0  0  0
 19 11  1  0  0  0
 11  1  1  0  0  0
 11 12  1  0  0  0
  1  2  1  0  0  0
  1 10  2  0  0  0
  2  3  2  0  0  0
  3  4  1  0  0  0
  4  5  2  0  0  0
  5  6  1  0  0  0
  5 10  1  0  0  0
  6  7  2  0  0  0
  7 23  1  0  0  0
  7  8  1  0  0  0
 23 24  1  0  0  0
 24 25  1  0  0  0
 25 26  1  0  0  0
 26 27  1  0  0  0
 27 28  1  0  0  0
 27 31  1  0  0  0
 28 29  1  0  0  0
 29 30  1  0  0  0
 30 31  1  0  0  0
  8  9  2  0  0  0
  9 32  1  0  0  0
  9 10  1  0  0  0
 32 33  1  0  0  0
 33 34  1  0  0  0
 33 38  1  0  0  0
 34 35  1  0  0  0
 35 36  1  0  0  0
 36 37  1  0  0  0
 37 38  1  0  0  0
 20 21  1  0  0  0
 21 22  1  0  0  0
M  END
> <minimizedAffinity>
-8.06030

$$$$
