CHEMBL1970104


 24 27  0  0  0  0  0  0  0  0999 V2000
  -22.6081    0.7692  -13.7804 C   0  0  0  0  0  0  0  0  0  0  0  0
  -23.0225    2.1176  -13.7520 C   0  0  0  0  0  0  0  0  0  0  0  0
  -22.1638    3.1747  -14.0885 C   0  0  0  0  0  0  0  0  0  0  0  0
  -20.8578    2.8762  -14.4828 C   0  0  0  0  0  0  0  0  0  0  0  0
  -19.8361    3.7202  -14.8279 N   0  0  0  0  0  0  0  0  0  0  0  0
  -18.8218    2.9341  -15.1294 C   0  0  0  0  0  0  0  0  0  0  0  0
  -19.1666    1.6136  -15.0010 N   0  0  0  0  0  0  0  0  0  0  0  0
  -20.4619    1.5486  -14.5601 C   0  0  0  0  0  0  0  0  0  0  0  0
  -21.3006    0.4773  -14.2313 C   0  0  0  0  0  0  0  0  0  0  0  0
  -18.5364    0.8460  -15.1805 H   0  0  0  0  0  0  0  0  0  0  0  0
  -17.4684    3.3914  -15.5534 C   0  0  0  0  0  0  0  0  0  0  0  0
  -17.1491    4.6940  -15.6207 N   0  0  0  0  0  0  0  0  0  0  0  0
  -15.8614    4.6748  -16.0185 N   0  0  0  0  0  0  0  0  0  0  0  0
  -15.3522    3.4223  -16.2353 C   0  0  0  0  0  0  0  0  0  0  0  0
  -14.0928    2.9873  -16.6617 C   0  0  0  0  0  0  0  0  0  0  0  0
  -13.9063    1.6059  -16.7925 C   0  0  0  0  0  0  0  0  0  0  0  0
  -14.9325    0.7064  -16.5039 C   0  0  0  0  0  0  0  0  0  0  0  0
  -16.1806    1.1643  -16.0700 C   0  0  0  0  0  0  0  0  0  0  0  0
  -16.3914    2.5497  -15.9353 C   0  0  0  0  0  0  0  0  0  0  0  0
  -15.3797    5.5591  -16.1312 H   0  0  0  0  0  0  0  0  0  0  0  0
  -24.5014    0.1730  -12.2534 C   0  0  0  0  0  0  0  0  0  0  0  0
  -23.5738   -0.3596  -13.3609 C   0  0  0  0  0  0  0  0  0  0  0  0
  -22.8261   -1.6033  -12.8231 C   0  0  0  0  0  0  0  0  0  0  0  0
  -24.4431   -0.8577  -14.5394 C   0  0  0  0  0  0  0  0  0  0  0  0
 21 22  1  0  0  0
 22 23  1  0  0  0
 22 24  1  0  0  0
 22  1  1  0  0  0
  1  2  1  0  0  0
  1  9  2  0  0  0
  2  3  2  0  0  0
  3  4  1  0  0  0
  4  5  1  0  0  0
  4  8  2  0  0  0
  5  6  2  0  0  0
  6 11  1  0  0  0
  6  7  1  0  0  0
 11 12  2  0  0  0
 11 19  1  0  0  0
 12 13  1  0  0  0
 13 14  1  0  0  0
 13 20  1  0  0  0
 14 15  1  0  0  0
 14 19  2  0  0  0
 15 16  2  0  0  0
 16 17  1  0  0  0
 17 18  2  0  0  0
 18 19  1  0  0  0
  7  8  1  0  0  0
  7 10  1  0  0  0
  8  9  1  0  0  0
M  END
> <minimizedAffinity>
-9.31869

$$$$
