CHEMBL222852


 27 29  0  0  0  0  0  0  0  0999 V2000
  -29.0565   -4.5622   -4.6180 C   0  0  0  0  0  0  0  0  0  0  0  0
  -29.2809   -5.5401   -5.5957 C   0  0  0  0  0  0  0  0  0  0  0  0
  -30.4571   -6.2953   -5.6036 C   0  0  0  0  0  0  0  0  0  0  0  0
  -31.3842   -6.0353   -4.5961 C   0  0  0  0  0  0  0  0  0  0  0  0
  -31.0954   -5.0507   -3.6570 C   0  0  0  0  0  0  0  0  0  0  0  0
  -29.9653   -4.3053   -3.6585 N   0  0  0  0  0  0  0  0  0  0  0  0
  -27.9232   -3.7420   -4.6620 N   0  0  0  0  0  0  0  0  0  0  0  0
  -27.0836   -4.3016   -4.5947 H   0  0  0  0  0  0  0  0  0  0  0  0
  -28.3503   -0.3886   -6.2676 C   0  0  0  0  0  0  0  0  0  0  0  0
  -27.8226   -1.2816   -7.1688 C   0  0  0  0  0  0  0  0  0  0  0  0
  -27.5762   -2.5369   -6.6677 N   0  0  0  0  0  0  0  0  0  0  0  0
  -27.8842   -2.5987   -5.3923 C   0  0  0  0  0  0  0  0  0  0  0  0
  -28.3833   -1.0931   -4.7084 S   0  0  0  0  0  0  0  0  0  0  0  0
  -29.2564    1.9577   -6.8381 N   0  0  0  0  0  0  0  0  0  0  0  0
  -28.8169    0.9129   -6.5854 C   0  0  0  0  0  0  0  0  0  0  0  0
  -30.7568   -7.2355   -6.7522 C   0  0  0  0  0  0  0  0  0  0  0  0
  -30.2705   -8.6134   -6.7290 N   0  0  0  0  0  0  0  0  0  0  0  0
  -28.8253   -8.8154   -6.7468 C   0  0  0  0  0  0  0  0  0  0  0  0
  -28.1983   -8.8532   -8.1493 C   0  0  0  0  0  0  0  0  0  0  0  0
  -28.9176   -9.7084   -9.0980 N   0  0  0  0  0  0  0  0  0  0  0  0
  -28.3675  -10.0779  -10.3220 C   0  0  0  0  0  0  0  0  0  0  0  0
  -29.0080  -10.6741  -11.1931 O   0  0  0  0  0  0  0  0  0  0  0  0
  -30.3814   -9.7003   -9.0217 C   0  0  0  0  0  0  0  0  0  0  0  0
  -30.9427   -9.5832   -7.5967 C   0  0  0  0  0  0  0  0  0  0  0  0
  -26.8963   -9.7233  -10.5786 C   0  0  0  0  0  0  0  0  0  0  0  0
  -26.7429   -8.8149  -11.6617 O   0  0  0  0  0  0  0  0  0  0  0  0
  -27.6361   -8.7193  -12.0523 H   0  0  0  0  0  0  0  0  0  0  0  0
 14 15  3  0  0  0
 15  9  1  0  0  0
  9 10  2  0  0  0
  9 13  1  0  0  0
 10 11  1  0  0  0
 11 12  2  0  0  0
 12  7  1  0  0  0
 12 13  1  0  0  0
  7  1  1  0  0  0
  7  8  1  0  0  0
  1  2  1  0  0  0
  1  6  2  0  0  0
  2  3  2  0  0  0
  3 16  1  0  0  0
  3  4  1  0  0  0
 16 17  1  0  0  0
 17 18  1  0  0  0
 17 24  1  0  0  0
 18 19  1  0  0  0
 19 20  1  0  0  0
 20 21  1  0  0  0
 20 23  1  0  0  0
 21 22  2  0  0  0
 21 25  1  0  0  0
 25 26  1  0  0  0
 26 27  1  0  0  0
 23 24  1  0  0  0
  4  5  2  0  0  0
  5  6  1  0  0  0
M  END
> <minimizedAffinity>
-7.32383

$$$$
