CHEMBL3965868


 45 49  0  0  0  0  0  0  0  0999 V2000
  -22.4329    0.7576  -14.7297 C   0  0  0  0  0  0  0  0  0  0  0  0
  -22.2842    2.0242  -14.1981 C   0  0  0  0  0  0  0  0  0  0  0  0
  -20.9398    2.4727  -14.2089 C   0  0  0  0  0  0  0  0  0  0  0  0
  -20.5005    3.5962  -13.5836 N   0  0  0  0  0  0  0  0  0  0  0  0
  -19.1785    3.8233  -13.6564 C   0  0  0  0  0  0  0  0  0  0  0  0
  -18.2791    3.0480  -14.3590 C   0  0  0  0  0  0  0  0  0  0  0  0
  -18.7549    1.9520  -15.0800 C   0  0  0  0  0  0  0  0  0  0  0  0
  -20.1110    1.6239  -14.9335 C   0  0  0  0  0  0  0  0  0  0  0  0
  -20.9954    0.2660  -15.5238 S   0  0  0  0  0  0  0  0  0  0  0  0
  -24.8322   -2.1013  -11.0445 N   0  0  0  0  0  0  0  0  0  0  0  0
  -23.4478   -1.6598  -11.2956 C   0  0  0  0  0  0  0  0  0  0  0  0
  -23.3402   -0.4351  -12.2083 C   0  0  0  0  0  0  0  0  0  0  0  0
  -24.0303   -0.6301  -13.4887 N   0  0  0  0  0  0  0  0  0  0  0  0
  -23.6016   -0.1199  -14.7252 C   0  0  0  0  0  0  0  0  0  0  0  0
  -24.1991   -0.4118  -15.7606 O   0  0  0  0  0  0  0  0  0  0  0  0
  -25.3678   -1.2311  -13.3967 C   0  0  0  0  0  0  0  0  0  0  0  0
  -25.4592   -2.3750  -12.3601 C   0  0  0  0  0  0  0  0  0  0  0  0
  -25.6389   -1.1345  -10.2572 C   0  0  0  0  0  0  0  0  0  0  0  0
  -27.0655   -1.6190   -9.9695 C   0  0  0  0  0  0  0  0  0  0  0  0
  -28.0855   -1.2620  -10.5342 O   0  0  0  0  0  0  0  0  0  0  0  0
  -27.0300   -2.5562   -8.9732 O   0  0  0  0  0  0  0  0  0  0  0  0
  -28.8784   -3.6497   -7.9312 C   0  0  0  0  0  0  0  0  0  0  0  0
  -28.0273   -2.3941   -7.9539 C   0  0  0  0  0  0  0  0  0  0  0  0
  -17.9492    1.1356  -15.8309 O   0  0  0  0  0  0  0  0  0  0  0  0
  -16.7884    0.6428  -15.2884 C   0  0  0  0  0  0  0  0  0  0  0  0
  -16.9761   -0.1835  -14.1825 C   0  0  0  0  0  0  0  0  0  0  0  0
  -15.8815   -0.7523  -13.5390 C   0  0  0  0  0  0  0  0  0  0  0  0
  -14.5759   -0.4966  -13.9713 C   0  0  0  0  0  0  0  0  0  0  0  0
  -14.4068    0.3005  -15.1087 C   0  0  0  0  0  0  0  0  0  0  0  0
  -13.1700    0.5721  -15.5511 F   0  0  0  0  0  0  0  0  0  0  0  0
  -15.4995    0.8551  -15.7773 C   0  0  0  0  0  0  0  0  0  0  0  0
  -13.4258   -0.9931  -13.3082 N   0  0  0  0  0  0  0  0  0  0  0  0
  -13.2527   -2.3077  -12.9372 C   0  0  0  0  0  0  0  0  0  0  0  0
  -14.0820   -3.1944  -13.1286 O   0  0  0  0  0  0  0  0  0  0  0  0
  -12.0538   -2.5434  -12.2813 N   0  0  0  0  0  0  0  0  0  0  0  0
  -12.7425   -0.3106  -13.0078 H   0  0  0  0  0  0  0  0  0  0  0  0
  -11.8086   -1.8225  -11.6135 H   0  0  0  0  0  0  0  0  0  0  0  0
  -11.8292   -3.8700  -11.8249 C   0  0  0  0  0  0  0  0  0  0  0  0
  -11.2462   -4.8285  -12.6653 C   0  0  0  0  0  0  0  0  0  0  0  0
  -11.2409   -6.1814  -12.3063 C   0  0  0  0  0  0  0  0  0  0  0  0
  -10.6993   -7.2149  -13.2493 C   0  0  0  0  0  0  0  0  0  0  0  0
  -11.8219   -6.5623  -11.0893 C   0  0  0  0  0  0  0  0  0  0  0  0
  -12.3478   -5.6001  -10.2216 C   0  0  0  0  0  0  0  0  0  0  0  0
  -12.3270   -4.2575  -10.5843 C   0  0  0  0  0  0  0  0  0  0  0  0
  -12.8909   -3.3457   -9.7766 F   0  0  0  0  0  0  0  0  0  0  0  0
 22 23  1  0  0  0
 23 21  1  0  0  0
 21 19  1  0  0  0
 19 20  2  0  0  0
 19 18  1  0  0  0
 18 10  1  0  0  0
 10 11  1  0  0  0
 10 17  1  0  0  0
 11 12  1  0  0  0
 12 13  1  0  0  0
 13 14  1  0  0  0
 13 16  1  0  0  0
 14 15  2  0  0  0
 14  1  1  0  0  0
  1  2  2  0  0  0
  1  9  1  0  0  0
  2  3  1  0  0  0
  3  4  1  0  0  0
  3  8  2  0  0  0
  4  5  2  0  0  0
  5  6  1  0  0  0
  6  7  2  0  0  0
  7 24  1  0  0  0
  7  8  1  0  0  0
 24 25  1  0  0  0
 25 26  1  0  0  0
 25 31  2  0  0  0
 26 27  2  0  0  0
 27 28  1  0  0  0
 28 32  1  0  0  0
 28 29  2  0  0  0
 32 33  1  0  0  0
 32 36  1  0  0  0
 33 34  2  0  0  0
 33 35  1  0  0  0
 35 38  1  0  0  0
 35 37  1  0  0  0
 38 39  1  0  0  0
 38 44  2  0  0  0
 39 40  2  0  0  0
 40 41  1  0  0  0
 40 42  1  0  0  0
 42 43  2  0  0  0
 43 44  1  0  0  0
 44 45  1  0  0  0
 29 30  1  0  0  0
 29 31  1  0  0  0
  8  9  1  0  0  0
 16 17  1  0  0  0
M  END
> <minimizedAffinity>
-5.99566

$$$$
