CHEMBL255547


 41 46  0  0  0  0  0  0  0  0999 V2000
  -30.0075   -6.3741   -5.7838 C   0  0  0  0  0  0  0  0  0  0  0  0
  -31.1408   -7.2272   -6.0565 C   0  0  0  0  0  0  0  0  0  0  0  0
  -32.1601   -6.8436   -5.2137 C   0  0  0  0  0  0  0  0  0  0  0  0
  -31.7317   -5.7842   -4.4751 N   0  0  0  0  0  0  0  0  0  0  0  0
  -32.4726   -5.1590   -3.5526 N   0  0  0  0  0  0  0  0  0  0  0  0
  -31.8539   -4.1917   -2.9557 C   0  0  0  0  0  0  0  0  0  0  0  0
  -30.5738   -3.7710   -3.1887 N   0  0  0  0  0  0  0  0  0  0  0  0
  -29.8533   -4.3460   -4.1097 C   0  0  0  0  0  0  0  0  0  0  0  0
  -30.4492   -5.4604   -4.8166 C   0  0  0  0  0  0  0  0  0  0  0  0
  -31.3360   -8.3475   -7.0340 C   0  0  0  0  0  0  0  0  0  0  0  0
  -32.4469   -8.6001   -7.7006 N   0  0  0  0  0  0  0  0  0  0  0  0
  -32.2321   -9.7389   -8.4484 N   0  0  0  0  0  0  0  0  0  0  0  0
  -30.9956  -10.1123   -8.1977 C   0  0  0  0  0  0  0  0  0  0  0  0
  -30.3577   -9.2787   -7.3207 O   0  0  0  0  0  0  0  0  0  0  0  0
  -30.2475  -11.2984   -8.7177 C   0  0  0  0  0  0  0  0  0  0  0  0
  -29.4637  -11.0354   -9.9459 N   0  0  0  0  0  0  0  0  0  0  0  0
  -28.5086  -12.1331  -10.2200 C   0  0  0  0  0  0  0  0  0  0  0  0
  -27.3055  -12.1692   -9.2606 C   0  0  0  0  0  0  0  0  0  0  0  0
  -26.6032  -10.9220   -9.2529 O   0  0  0  0  0  0  0  0  0  0  0  0
  -27.4694   -9.8212   -8.9504 C   0  0  0  0  0  0  0  0  0  0  0  0
  -28.6883   -9.7756   -9.8871 C   0  0  0  0  0  0  0  0  0  0  0  0
  -27.8236   -7.6709   -5.9456 C   0  0  0  0  0  0  0  0  0  0  0  0
  -28.6240   -6.4461   -6.3938 C   0  0  0  0  0  0  0  0  0  0  0  0
  -28.6562   -6.2677   -7.9112 C   0  0  0  0  0  0  0  0  0  0  0  0
  -28.5969   -3.8615   -4.4067 N   0  0  0  0  0  0  0  0  0  0  0  0
  -27.8289   -4.5054   -4.2531 H   0  0  0  0  0  0  0  0  0  0  0  0
  -28.2709   -2.7717   -5.2384 C   0  0  0  0  0  0  0  0  0  0  0  0
  -28.0591   -2.9059   -6.6149 C   0  0  0  0  0  0  0  0  0  0  0  0
  -27.7974   -1.7825   -7.4326 C   0  0  0  0  0  0  0  0  0  0  0  0
  -27.7062   -0.5231   -6.8366 C   0  0  0  0  0  0  0  0  0  0  0  0
  -27.4643    0.5748   -7.5672 F   0  0  0  0  0  0  0  0  0  0  0  0
  -27.8869   -0.3694   -5.4652 C   0  0  0  0  0  0  0  0  0  0  0  0
  -28.1757   -1.4850   -4.6874 C   0  0  0  0  0  0  0  0  0  0  0  0
  -28.3759   -1.3220   -3.3698 F   0  0  0  0  0  0  0  0  0  0  0  0
  -27.6815   -1.9973   -8.9039 C   0  0  0  0  0  0  0  0  0  0  0  0
  -28.6791   -2.3255   -9.5397 O   0  0  0  0  0  0  0  0  0  0  0  0
  -26.4522   -1.7877   -9.5028 N   0  0  0  0  0  0  0  0  0  0  0  0
  -25.6574   -1.4910   -8.9453 H   0  0  0  0  0  0  0  0  0  0  0  0
  -26.2928   -1.9080  -10.9179 C   0  0  0  0  0  0  0  0  0  0  0  0
  -25.2102   -1.1306  -11.6174 C   0  0  0  0  0  0  0  0  0  0  0  0
  -26.6494   -0.7954  -11.8619 C   0  0  0  0  0  0  0  0  0  0  0  0
 22 23  1  0  0  0
 23 24  1  0  0  0
 23  1  1  0  0  0
  1  2  1  0  0  0
  1  9  2  0  0  0
  2 10  1  0  0  0
  2  3  2  0  0  0
 10 11  2  0  0  0
 10 14  1  0  0  0
 11 12  1  0  0  0
 12 13  2  0  0  0
 13 15  1  0  0  0
 13 14  1  0  0  0
 15 16  1  0  0  0
 16 17  1  0  0  0
 16 21  1  0  0  0
 17 18  1  0  0  0
 18 19  1  0  0  0
 19 20  1  0  0  0
 20 21  1  0  0  0
  3  4  1  0  0  0
  4  5  1  0  0  0
  4  9  1  0  0  0
  5  6  2  0  0  0
  6  7  1  0  0  0
  7  8  2  0  0  0
  8 25  1  0  0  0
  8  9  1  0  0  0
 25 27  1  0  0  0
 25 26  1  0  0  0
 27 28  1  0  0  0
 27 33  2  0  0  0
 28 29  2  0  0  0
 29 35  1  0  0  0
 29 30  1  0  0  0
 35 36  2  0  0  0
 35 37  1  0  0  0
 37 39  1  0  0  0
 37 38  1  0  0  0
 39 40  1  0  0  0
 39 41  1  0  0  0
 40 41  1  0  0  0
 30 31  1  0  0  0
 30 32  2  0  0  0
 32 33  1  0  0  0
 33 34  1  0  0  0
M  END
> <minimizedAffinity>
-8.11714

$$$$
