CHEMBL402531


 35 41  0  0  0  0  0  0  0  0999 V2000
  -12.3265   -0.3716  -16.2274 N   0  0  0  0  0  0  0  0  0  0  0  0
  -12.7595   -1.5029  -15.4811 C   0  0  0  0  0  0  0  0  0  0  0  0
  -12.3708   -2.8573  -15.4900 C   0  0  0  0  0  0  0  0  0  0  0  0
  -13.1399   -3.7953  -14.7543 C   0  0  0  0  0  0  0  0  0  0  0  0
  -14.2381   -3.3868  -13.9931 C   0  0  0  0  0  0  0  0  0  0  0  0
  -14.5685   -2.0329  -13.9449 C   0  0  0  0  0  0  0  0  0  0  0  0
  -13.8752   -1.1006  -14.7254 C   0  0  0  0  0  0  0  0  0  0  0  0
  -14.0732    0.1940  -15.1320 C   0  0  0  0  0  0  0  0  0  0  0  0
  -15.3532    0.7828  -15.0592 C   0  0  0  0  0  0  0  0  0  0  0  0
  -15.5984    1.8094  -16.0008 C   0  0  0  0  0  0  0  0  0  0  0  0
  -14.6267    2.3202  -16.8827 C   0  0  0  0  0  0  0  0  0  0  0  0
  -13.2831    2.0538  -16.4400 C   0  0  0  0  0  0  0  0  0  0  0  0
  -13.1044    0.7532  -15.9124 C   0  0  0  0  0  0  0  0  0  0  0  0
  -12.6418    3.3363  -15.7477 C   0  0  0  0  0  0  0  0  0  0  0  0
  -13.6580    4.5226  -15.4794 C   0  0  0  0  0  0  0  0  0  0  0  0
  -14.3816    4.7562  -16.7581 C   0  0  0  0  0  0  0  0  0  0  0  0
  -14.3944    5.8623  -17.4990 N   0  0  0  0  0  0  0  0  0  0  0  0
  -14.8146    5.4010  -18.7051 N   0  0  0  0  0  0  0  0  0  0  0  0
  -14.8350    6.2907  -19.8409 C   0  0  0  0  0  0  0  0  0  0  0  0
  -14.9670    4.0353  -18.7504 C   0  0  0  0  0  0  0  0  0  0  0  0
  -14.8521    3.6282  -17.4470 C   0  0  0  0  0  0  0  0  0  0  0  0
  -16.9296    2.2981  -15.7527 C   0  0  0  0  0  0  0  0  0  0  0  0
  -17.6177    3.1863  -16.2504 O   0  0  0  0  0  0  0  0  0  0  0  0
  -17.3856    1.5498  -14.6696 N   0  0  0  0  0  0  0  0  0  0  0  0
  -16.5021    0.5050  -14.2125 C   0  0  0  0  0  0  0  0  0  0  0  0
  -18.2881    1.7530  -14.2651 H   0  0  0  0  0  0  0  0  0  0  0  0
  -12.2836   -0.7552  -18.7074 C   0  0  0  0  0  0  0  0  0  0  0  0
  -11.5071   -0.4966  -17.4270 C   0  0  0  0  0  0  0  0  0  0  0  0
  -15.2308   -4.3009  -13.3435 C   0  0  0  0  0  0  0  0  0  0  0  0
  -16.2773   -3.7617  -12.9663 O   0  0  0  0  0  0  0  0  0  0  0  0
  -14.9597   -5.7096  -13.1454 C   0  0  0  0  0  0  0  0  0  0  0  0
  -15.2983   -6.8153  -13.9003 C   0  0  0  0  0  0  0  0  0  0  0  0
  -14.7701   -8.0262  -13.3562 C   0  0  0  0  0  0  0  0  0  0  0  0
  -14.0376   -7.8082  -12.2130 C   0  0  0  0  0  0  0  0  0  0  0  0
  -13.9859   -6.1566  -11.7975 S   0  0  0  0  0  0  0  0  0  0  0  0
 27 28  1  0  0  0
 28  1  1  0  0  0
  1  2  1  0  0  0
  1 13  1  0  0  0
  2  3  1  0  0  0
  2  7  2  0  0  0
  3  4  2  0  0  0
  4  5  1  0  0  0
  5 29  1  0  0  0
  5  6  2  0  0  0
 29 30  2  0  0  0
 29 31  1  0  0  0
 31 32  2  0  0  0
 31 35  1  0  0  0
 32 33  1  0  0  0
 33 34  2  0  0  0
 34 35  1  0  0  0
  6  7  1  0  0  0
  7  8  1  0  0  0
  8  9  1  0  0  0
  8 13  2  0  0  0
  9 10  2  0  0  0
  9 25  1  0  0  0
 10 11  1  0  0  0
 10 22  1  0  0  0
 11 12  2  0  0  0
 11 21  1  0  0  0
 12 13  1  0  0  0
 12 14  1  0  0  0
 14 15  1  0  0  0
 15 16  1  0  0  0
 16 17  2  0  0  0
 16 21  1  0  0  0
 17 18  1  0  0  0
 18 19  1  0  0  0
 18 20  1  0  0  0
 20 21  2  0  0  0
 22 23  2  0  0  0
 22 24  1  0  0  0
 24 25  1  0  0  0
 24 26  1  0  0  0
M  END
> <minimizedAffinity>
-7.05535

$$$$
