CHEMBL2071194


 29 32  0  0  0  0  0  0  0  0999 V2000
  -27.6920   -2.5422   -8.6805 C   0  0  0  0  0  0  0  0  0  0  0  0
  -27.2757   -1.4217   -8.0696 N   0  0  0  0  0  0  0  0  0  0  0  0
  -27.9350   -1.0605   -6.9445 C   0  0  0  0  0  0  0  0  0  0  0  0
  -28.9655   -1.7826   -6.3938 C   0  0  0  0  0  0  0  0  0  0  0  0
  -29.5361   -1.4059   -5.2438 F   0  0  0  0  0  0  0  0  0  0  0  0
  -29.2877   -2.9621   -7.0301 C   0  0  0  0  0  0  0  0  0  0  0  0
  -28.6733   -3.3372   -8.1846 N   0  0  0  0  0  0  0  0  0  0  0  0
  -27.0154   -2.8558   -9.8689 N   0  0  0  0  0  0  0  0  0  0  0  0
  -26.7577   -3.8355   -9.8350 H   0  0  0  0  0  0  0  0  0  0  0  0
  -24.0911    0.1547  -12.3500 C   0  0  0  0  0  0  0  0  0  0  0  0
  -25.1884   -0.6747  -11.9099 N   0  0  0  0  0  0  0  0  0  0  0  0
  -25.2583   -1.4460  -10.7806 C   0  0  0  0  0  0  0  0  0  0  0  0
  -26.4991   -2.0436  -10.8091 C   0  0  0  0  0  0  0  0  0  0  0  0
  -27.1020   -1.5527  -11.9838 C   0  0  0  0  0  0  0  0  0  0  0  0
  -26.3080   -0.7145  -12.6560 N   0  0  0  0  0  0  0  0  0  0  0  0
  -30.1176   -3.9236   -6.4193 N   0  0  0  0  0  0  0  0  0  0  0  0
  -30.0180   -3.5992   -5.4470 H   0  0  0  0  0  0  0  0  0  0  0  0
  -29.7297   -5.3490   -6.3760 C   0  0  0  0  0  0  0  0  0  0  0  0
  -29.7044   -6.1254   -5.0141 C   0  0  0  0  0  0  0  0  0  0  0  0
  -29.9397   -7.5869   -5.5068 C   0  0  0  0  0  0  0  0  0  0  0  0
  -28.8660   -7.9723   -6.5127 C   0  0  0  0  0  0  0  0  0  0  0  0
  -29.1203   -7.3027   -7.6509 C   0  0  0  0  0  0  0  0  0  0  0  0
  -30.3087   -6.3924   -7.3727 C   0  0  0  0  0  0  0  0  0  0  0  0
  -31.0954   -7.3701   -6.4917 C   0  0  0  0  0  0  0  0  0  0  0  0
  -30.7104   -5.7818   -3.9133 C   0  0  0  0  0  0  0  0  0  0  0  0
  -30.7209   -6.6293   -2.8520 N   0  0  0  0  0  0  0  0  0  0  0  0
  -31.5641   -4.8977   -4.0040 O   0  0  0  0  0  0  0  0  0  0  0  0
  -29.8952   -7.1683   -2.6215 H   0  0  0  0  0  0  0  0  0  0  0  0
  -31.3849   -6.4297   -2.1136 H   0  0  0  0  0  0  0  0  0  0  0  0
 10 11  1  0  0  0
 11 12  1  0  0  0
 11 15  1  0  0  0
 12 13  2  0  0  0
 13  8  1  0  0  0
 13 14  1  0  0  0
  8  1  1  0  0  0
  8  9  1  0  0  0
  1  2  1  0  0  0
  1  7  2  0  0  0
  2  3  2  0  0  0
  3  4  1  0  0  0
  4  5  1  0  0  0
  4  6  2  0  0  0
  6 16  1  0  0  0
  6  7  1  0  0  0
 16 18  1  0  0  0
 16 17  1  0  0  0
 18 19  1  0  0  0
 18 23  1  0  0  0
 19 25  1  0  0  0
 19 20  1  0  0  0
 25 26  1  0  0  0
 25 27  2  0  0  0
 26 28  1  0  0  0
 26 29  1  0  0  0
 20 21  1  0  0  0
 20 24  1  0  0  0
 21 22  2  0  0  0
 22 23  1  0  0  0
 23 24  1  0  0  0
 14 15  2  0  0  0
M  END
> <minimizedAffinity>
-8.47434

$$$$
