CHEMBL382218


 32 35  0  0  0  0  0  0  0  0999 V2000
  -27.3078   -2.2599   -9.1542 C   0  0  0  0  0  0  0  0  0  0  0  0
  -27.2814   -0.9857   -8.8263 N   0  0  0  0  0  0  0  0  0  0  0  0
  -27.9363   -0.8674   -7.6164 N   0  0  0  0  0  0  0  0  0  0  0  0
  -28.2859   -2.0840   -7.2552 C   0  0  0  0  0  0  0  0  0  0  0  0
  -27.9088   -3.0200   -8.1903 O   0  0  0  0  0  0  0  0  0  0  0  0
  -28.9884   -2.5847   -6.0734 C   0  0  0  0  0  0  0  0  0  0  0  0
  -28.8196   -1.9158   -4.8419 C   0  0  0  0  0  0  0  0  0  0  0  0
  -29.4417   -2.3642   -3.6809 C   0  0  0  0  0  0  0  0  0  0  0  0
  -30.2259   -3.4896   -3.7695 C   0  0  0  0  0  0  0  0  0  0  0  0
  -30.4251   -4.1580   -4.9212 N   0  0  0  0  0  0  0  0  0  0  0  0
  -29.8362   -3.7070   -6.0700 C   0  0  0  0  0  0  0  0  0  0  0  0
  -30.1304   -4.5602   -7.2956 C   0  0  0  0  0  0  0  0  0  0  0  0
  -29.2878   -5.8536   -7.3281 C   0  0  0  0  0  0  0  0  0  0  0  0
  -30.0113   -7.1610   -7.5644 C   0  0  0  0  0  0  0  0  0  0  0  0
  -31.3305   -7.2843   -7.1032 C   0  0  0  0  0  0  0  0  0  0  0  0
  -32.0303   -8.4553   -7.3521 C   0  0  0  0  0  0  0  0  0  0  0  0
  -31.5188   -9.5008   -8.0306 N   0  0  0  0  0  0  0  0  0  0  0  0
  -30.2534   -9.3610   -8.4822 C   0  0  0  0  0  0  0  0  0  0  0  0
  -29.4723   -8.2279   -8.2836 C   0  0  0  0  0  0  0  0  0  0  0  0
  -26.7758   -2.8499  -10.2442 N   0  0  0  0  0  0  0  0  0  0  0  0
  -26.3291   -3.7408  -10.0569 H   0  0  0  0  0  0  0  0  0  0  0  0
  -25.0229   -0.6232  -15.2653 C   0  0  0  0  0  0  0  0  0  0  0  0
  -25.4488   -1.1879  -13.9374 C   0  0  0  0  0  0  0  0  0  0  0  0
  -26.7583   -1.6679  -13.8053 C   0  0  0  0  0  0  0  0  0  0  0  0
  -27.2173   -2.2113  -12.5998 C   0  0  0  0  0  0  0  0  0  0  0  0
  -26.3929   -2.2846  -11.4771 C   0  0  0  0  0  0  0  0  0  0  0  0
  -25.0726   -1.8204  -11.6213 C   0  0  0  0  0  0  0  0  0  0  0  0
  -24.5854   -1.2600  -12.8283 C   0  0  0  0  0  0  0  0  0  0  0  0
  -23.1526   -0.7638  -12.8355 C   0  0  0  0  0  0  0  0  0  0  0  0
  -22.3834   -1.2116  -13.8643 F   0  0  0  0  0  0  0  0  0  0  0  0
  -23.0854    0.5973  -12.8960 F   0  0  0  0  0  0  0  0  0  0  0  0
  -22.4829   -1.1128  -11.7003 F   0  0  0  0  0  0  0  0  0  0  0  0
 22 23  1  0  0  0
 23 24  1  0  0  0
 23 28  2  0  0  0
 24 25  2  0  0  0
 25 26  1  0  0  0
 26 20  1  0  0  0
 26 27  2  0  0  0
 20  1  1  0  0  0
 20 21  1  0  0  0
  1  2  2  0  0  0
  1  5  1  0  0  0
  2  3  1  0  0  0
  3  4  2  0  0  0
  4  6  1  0  0  0
  4  5  1  0  0  0
  6  7  1  0  0  0
  6 11  2  0  0  0
  7  8  2  0  0  0
  8  9  1  0  0  0
  9 10  2  0  0  0
 10 11  1  0  0  0
 11 12  1  0  0  0
 12 13  1  0  0  0
 13 14  1  0  0  0
 14 15  1  0  0  0
 14 19  2  0  0  0
 15 16  2  0  0  0
 16 17  1  0  0  0
 17 18  2  0  0  0
 18 19  1  0  0  0
 27 28  1  0  0  0
 28 29  1  0  0  0
 29 30  1  0  0  0
 29 31  1  0  0  0
 29 32  1  0  0  0
M  END
> <minimizedAffinity>
-10.24268

$$$$
