CHEMBL330621


 20 22  0  0  0  0  0  0  0  0999 V2000
  -20.4348    2.7464  -14.8520 C   0  0  0  0  0  0  0  0  0  0  0  0
  -21.4558    3.4175  -14.3678 N   0  0  0  0  0  0  0  0  0  0  0  0
  -22.4016    2.5668  -13.8551 C   0  0  0  0  0  0  0  0  0  0  0  0
  -22.1237    1.2192  -13.9628 C   0  0  0  0  0  0  0  0  0  0  0  0
  -20.6603    1.0350  -14.8491 S   0  0  0  0  0  0  0  0  0  0  0  0
  -22.9016    0.0809  -13.4662 C   0  0  0  0  0  0  0  0  0  0  0  0
  -22.6002   -0.4710  -12.2098 C   0  0  0  0  0  0  0  0  0  0  0  0
  -23.3029   -1.5743  -11.7224 C   0  0  0  0  0  0  0  0  0  0  0  0
  -24.3163   -2.1452  -12.4863 C   0  0  0  0  0  0  0  0  0  0  0  0
  -24.6194   -1.6207  -13.7408 C   0  0  0  0  0  0  0  0  0  0  0  0
  -23.9137   -0.5175  -14.2299 C   0  0  0  0  0  0  0  0  0  0  0  0
  -19.2891    3.2909  -15.3046 N   0  0  0  0  0  0  0  0  0  0  0  0
  -19.2894    4.1481  -15.8467 H   0  0  0  0  0  0  0  0  0  0  0  0
  -14.1981    0.8187  -15.1145 C   0  0  0  0  0  0  0  0  0  0  0  0
  -15.5322    1.4815  -15.2152 C   0  0  0  0  0  0  0  0  0  0  0  0
  -15.8157    2.3696  -16.2411 C   0  0  0  0  0  0  0  0  0  0  0  0
  -17.0708    2.9649  -16.2996 C   0  0  0  0  0  0  0  0  0  0  0  0
  -18.0312    2.6870  -15.3284 C   0  0  0  0  0  0  0  0  0  0  0  0
  -17.7648    1.8288  -14.3186 N   0  0  0  0  0  0  0  0  0  0  0  0
  -16.5403    1.2440  -14.2897 C   0  0  0  0  0  0  0  0  0  0  0  0
 14 15  1  0  0  0
 15 16  1  0  0  0
 15 20  2  0  0  0
 16 17  2  0  0  0
 17 18  1  0  0  0
 18 12  1  0  0  0
 18 19  2  0  0  0
 12  1  1  0  0  0
 12 13  1  0  0  0
  1  2  2  0  0  0
  1  5  1  0  0  0
  2  3  1  0  0  0
  3  4  2  0  0  0
  4  6  1  0  0  0
  4  5  1  0  0  0
  6  7  1  0  0  0
  6 11  2  0  0  0
  7  8  2  0  0  0
  8  9  1  0  0  0
  9 10  2  0  0  0
 10 11  1  0  0  0
 19 20  1  0  0  0
M  END
> <minimizedAffinity>
-8.39093

$$$$
