CHEMBL220750


 40 43  0  0  0  0  0  0  0  0999 V2000
  -15.8253    0.6728  -15.1711 N   0  0  0  0  0  0  0  0  0  0  0  0
  -16.6730    1.0368  -14.1339 C   0  0  0  0  0  0  0  0  0  0  0  0
  -16.3795    0.9632  -12.9433 O   0  0  0  0  0  0  0  0  0  0  0  0
  -16.0136    1.0250  -16.1039 H   0  0  0  0  0  0  0  0  0  0  0  0
  -18.0023    1.6272  -14.5046 C   0  0  0  0  0  0  0  0  0  0  0  0
  -19.1872    0.9354  -14.1712 C   0  0  0  0  0  0  0  0  0  0  0  0
  -20.4439    1.4674  -14.4978 C   0  0  0  0  0  0  0  0  0  0  0  0
  -20.5264    2.6910  -15.1654 C   0  0  0  0  0  0  0  0  0  0  0  0
  -19.3628    3.3806  -15.4992 C   0  0  0  0  0  0  0  0  0  0  0  0
  -18.1170    2.8496  -15.1689 C   0  0  0  0  0  0  0  0  0  0  0  0
  -17.0311    3.5637  -15.5020 F   0  0  0  0  0  0  0  0  0  0  0  0
  -21.6616    0.7718  -14.1709 C   0  0  0  0  0  0  0  0  0  0  0  0
  -22.6786    0.2249  -13.8448 C   0  0  0  0  0  0  0  0  0  0  0  0
  -23.9117   -0.3871  -13.4407 C   0  0  0  0  0  0  0  0  0  0  0  0
  -24.4545   -0.2416  -12.1871 C   0  0  0  0  0  0  0  0  0  0  0  0
  -25.6344   -0.7924  -11.8028 N   0  0  0  0  0  0  0  0  0  0  0  0
  -26.2923   -1.4964  -12.7287 C   0  0  0  0  0  0  0  0  0  0  0  0
  -27.5013   -2.0571  -12.3725 N   0  0  0  0  0  0  0  0  0  0  0  0
  -25.8476   -1.7257  -13.9668 N   0  0  0  0  0  0  0  0  0  0  0  0
  -24.6649   -1.1547  -14.3001 C   0  0  0  0  0  0  0  0  0  0  0  0
  -27.5549   -2.1845  -11.3770 H   0  0  0  0  0  0  0  0  0  0  0  0
  -27.7054   -2.8508  -12.9634 H   0  0  0  0  0  0  0  0  0  0  0  0
  -13.3942    0.9705  -15.4307 C   0  0  0  0  0  0  0  0  0  0  0  0
  -12.1359    0.3403  -15.3587 C   0  0  0  0  0  0  0  0  0  0  0  0
  -11.9724   -0.9708  -14.8969 C   0  0  0  0  0  0  0  0  0  0  0  0
  -13.0716   -1.7148  -14.4717 C   0  0  0  0  0  0  0  0  0  0  0  0
  -14.3364   -1.1134  -14.5037 C   0  0  0  0  0  0  0  0  0  0  0  0
  -14.5039    0.1966  -14.9868 C   0  0  0  0  0  0  0  0  0  0  0  0
  -13.1715    4.6623  -15.7961 C   0  0  0  0  0  0  0  0  0  0  0  0
  -12.4106    4.0869  -16.9867 C   0  0  0  0  0  0  0  0  0  0  0  0
  -13.0466    2.7206  -17.2117 C   0  0  0  0  0  0  0  0  0  0  0  0
  -13.5274    2.2822  -15.8948 N   0  0  0  0  0  0  0  0  0  0  0  0
  -13.4052    3.3969  -14.9346 C   0  0  0  0  0  0  0  0  0  0  0  0
  -12.0560    6.8120  -16.0368 C   0  0  0  0  0  0  0  0  0  0  0  0
  -12.4547    5.7530  -15.1060 N   0  0  0  0  0  0  0  0  0  0  0  0
  -11.2814    5.2680  -14.3778 C   0  0  0  0  0  0  0  0  0  0  0  0
  -12.9096   -3.1409  -14.0162 C   0  0  0  0  0  0  0  0  0  0  0  0
  -12.7783   -3.2649  -12.6636 F   0  0  0  0  0  0  0  0  0  0  0  0
  -13.9649   -3.9280  -14.3584 F   0  0  0  0  0  0  0  0  0  0  0  0
  -11.8052   -3.7372  -14.5460 F   0  0  0  0  0  0  0  0  0  0  0  0
 34 35  1  0  0  0
 35 36  1  0  0  0
 29 30  1  0  0  0
 29 33  1  0  0  0
 29 35  1  0  0  0
 30 31  1  0  0  0
 31 32  1  0  0  0
 32 23  1  0  0  0
 32 33  1  0  0  0
 23 24  1  0  0  0
 23 28  2  0  0  0
 24 25  2  0  0  0
 25 26  1  0  0  0
 26 37  1  0  0  0
 26 27  2  0  0  0
 37 38  1  0  0  0
 37 39  1  0  0  0
 37 40  1  0  0  0
 27 28  1  0  0  0
 28  1  1  0  0  0
  1  2  1  0  0  0
  1  4  1  0  0  0
  2  3  2  0  0  0
  2  5  1  0  0  0
  5  6  1  0  0  0
  5 10  2  0  0  0
  6  7  2  0  0  0
  7 12  1  0  0  0
  7  8  1  0  0  0
 12 13  3  0  0  0
 13 14  1  0  0  0
 14 15  1  0  0  0
 14 20  2  0  0  0
 15 16  2  0  0  0
 16 17  1  0  0  0
 17 18  1  0  0  0
 17 19  2  0  0  0
 18 21  1  0  0  0
 18 22  1  0  0  0
 19 20  1  0  0  0
  8  9  2  0  0  0
  9 10  1  0  0  0
 10 11  1  0  0  0
M  END
> <minimizedAffinity>
-9.53964

$$$$
