CHEMBL1241682


 26 29  0  0  0  0  0  0  0  0999 V2000
  -29.7932   -6.6765   -6.0319 C   0  0  0  0  0  0  0  0  0  0  0  0
  -30.8559   -7.2241   -6.6514 N   0  0  0  0  0  0  0  0  0  0  0  0
  -30.6119   -8.5517   -6.6307 N   0  0  0  0  0  0  0  0  0  0  0  0
  -29.4553   -8.8810   -5.9792 C   0  0  0  0  0  0  0  0  0  0  0  0
  -28.9599  -10.1167   -5.7883 N   0  0  0  0  0  0  0  0  0  0  0  0
  -27.8019  -10.0810   -5.1114 C   0  0  0  0  0  0  0  0  0  0  0  0
  -27.1590   -9.0031   -4.6286 N   0  0  0  0  0  0  0  0  0  0  0  0
  -27.6945   -7.7829   -4.8368 C   0  0  0  0  0  0  0  0  0  0  0  0
  -26.9945   -6.7158   -4.2907 N   0  0  0  0  0  0  0  0  0  0  0  0
  -28.8957   -7.6850   -5.5563 C   0  0  0  0  0  0  0  0  0  0  0  0
  -26.2927   -7.0492   -3.6386 H   0  0  0  0  0  0  0  0  0  0  0  0
  -27.5688   -5.9522   -3.9567 H   0  0  0  0  0  0  0  0  0  0  0  0
  -28.5195    1.1100   -6.1819 C   0  0  0  0  0  0  0  0  0  0  0  0
  -28.6011   -0.3658   -6.4218 C   0  0  0  0  0  0  0  0  0  0  0  0
  -27.8880   -0.9699   -7.4489 C   0  0  0  0  0  0  0  0  0  0  0  0
  -27.9925   -2.3483   -7.6112 C   0  0  0  0  0  0  0  0  0  0  0  0
  -28.7908   -3.0932   -6.7369 C   0  0  0  0  0  0  0  0  0  0  0  0
  -28.9124   -4.4921   -6.8429 C   0  0  0  0  0  0  0  0  0  0  0  0
  -29.6880   -5.2199   -5.9269 C   0  0  0  0  0  0  0  0  0  0  0  0
  -30.3222   -4.5208   -4.8978 C   0  0  0  0  0  0  0  0  0  0  0  0
  -30.2319   -3.1271   -4.8213 C   0  0  0  0  0  0  0  0  0  0  0  0
  -29.4707   -2.3976   -5.7189 C   0  0  0  0  0  0  0  0  0  0  0  0
  -29.3898   -1.0659   -5.5724 N   0  0  0  0  0  0  0  0  0  0  0  0
  -31.5447   -9.4766   -7.2675 C   0  0  0  0  0  0  0  0  0  0  0  0
  -32.9527   -8.8837   -7.3485 C   0  0  0  0  0  0  0  0  0  0  0  0
  -31.0510   -9.9118   -8.6471 C   0  0  0  0  0  0  0  0  0  0  0  0
 13 14  1  0  0  0
 14 15  1  0  0  0
 14 23  2  0  0  0
 15 16  2  0  0  0
 16 17  1  0  0  0
 17 18  1  0  0  0
 17 22  2  0  0  0
 18 19  2  0  0  0
 19  1  1  0  0  0
 19 20  1  0  0  0
  1  2  2  0  0  0
  1 10  1  0  0  0
  2  3  1  0  0  0
  3 24  1  0  0  0
  3  4  1  0  0  0
 24 25  1  0  0  0
 24 26  1  0  0  0
  4  5  1  0  0  0
  4 10  2  0  0  0
  5  6  2  0  0  0
  6  7  1  0  0  0
  7  8  2  0  0  0
  8  9  1  0  0  0
  8 10  1  0  0  0
  9 11  1  0  0  0
  9 12  1  0  0  0
 20 21  2  0  0  0
 21 22  1  0  0  0
 22 23  1  0  0  0
M  END
> <minimizedAffinity>
-8.61446

$$$$
