CHEMBL187396


 42 45  0  0  0  0  0  0  0  0999 V2000
  -28.4972   -7.6350   -5.5228 C   0  0  0  0  0  0  0  0  0  0  0  0
  -28.1249   -6.4841   -4.7987 C   0  0  0  0  0  0  0  0  0  0  0  0
  -28.3077   -5.1978   -5.3187 C   0  0  0  0  0  0  0  0  0  0  0  0
  -27.9538   -4.0504   -4.6149 C   0  0  0  0  0  0  0  0  0  0  0  0
  -28.0775   -2.8013   -5.1026 N   0  0  0  0  0  0  0  0  0  0  0  0
  -28.6008   -2.6627   -6.3320 C   0  0  0  0  0  0  0  0  0  0  0  0
  -29.0007   -3.7702   -7.0834 C   0  0  0  0  0  0  0  0  0  0  0  0
  -28.8384   -5.0628   -6.5977 C   0  0  0  0  0  0  0  0  0  0  0  0
  -29.1610   -6.1454   -7.3442 N   0  0  0  0  0  0  0  0  0  0  0  0
  -29.0377   -7.3883   -6.7977 C   0  0  0  0  0  0  0  0  0  0  0  0
  -26.5587  -10.6598   -4.2144 C   0  0  0  0  0  0  0  0  0  0  0  0
  -27.5601  -11.3457   -3.5225 C   0  0  0  0  0  0  0  0  0  0  0  0
  -28.8573  -10.8470   -3.5089 C   0  0  0  0  0  0  0  0  0  0  0  0
  -29.1670   -9.7023   -4.2503 C   0  0  0  0  0  0  0  0  0  0  0  0
  -28.1783   -8.9607   -4.9299 C   0  0  0  0  0  0  0  0  0  0  0  0
  -26.8728   -9.4739   -4.8910 C   0  0  0  0  0  0  0  0  0  0  0  0
  -24.3639  -10.4367   -3.3431 C   0  0  0  0  0  0  0  0  0  0  0  0
  -25.2458  -11.0270   -4.2899 O   0  0  0  0  0  0  0  0  0  0  0  0
  -29.8974  -11.3840   -2.8000 O   0  0  0  0  0  0  0  0  0  0  0  0
  -30.5740  -12.4660   -3.4352 C   0  0  0  0  0  0  0  0  0  0  0  0
  -29.4255   -8.4384   -7.6679 N   0  0  0  0  0  0  0  0  0  0  0  0
  -28.5942   -8.7395   -8.7334 C   0  0  0  0  0  0  0  0  0  0  0  0
  -27.5455   -8.1533   -8.9773 O   0  0  0  0  0  0  0  0  0  0  0  0
  -29.0555   -9.8312   -9.4460 N   0  0  0  0  0  0  0  0  0  0  0  0
  -29.5540   -9.2902   -7.1372 H   0  0  0  0  0  0  0  0  0  0  0  0
  -30.0631   -9.8774   -9.5024 H   0  0  0  0  0  0  0  0  0  0  0  0
  -28.2871  -10.4950  -10.5225 C   0  0  0  0  0  0  0  0  0  0  0  0
  -28.2004  -12.0081  -10.2518 C   0  0  0  0  0  0  0  0  0  0  0  0
  -29.0148  -10.3063  -11.8707 C   0  0  0  0  0  0  0  0  0  0  0  0
  -26.8733   -9.9082  -10.6743 C   0  0  0  0  0  0  0  0  0  0  0  0
  -28.6945   -1.3914   -6.9177 N   0  0  0  0  0  0  0  0  0  0  0  0
  -28.8199   -0.6907   -6.1957 H   0  0  0  0  0  0  0  0  0  0  0  0
  -27.6676   -1.0696   -7.9100 C   0  0  0  0  0  0  0  0  0  0  0  0
  -27.5847   -2.1707   -8.9714 C   0  0  0  0  0  0  0  0  0  0  0  0
  -27.3994   -1.5846  -10.3763 C   0  0  0  0  0  0  0  0  0  0  0  0
  -25.9157   -1.4188  -10.7203 C   0  0  0  0  0  0  0  0  0  0  0  0
  -25.6788   -0.6204  -11.9369 N   0  0  0  0  0  0  0  0  0  0  0  0
  -25.6013   -1.4243  -13.1788 C   0  0  0  0  0  0  0  0  0  0  0  0
  -24.3549   -2.3205  -13.2534 C   0  0  0  0  0  0  0  0  0  0  0  0
  -23.1519   -1.5502  -13.1305 O   0  0  0  0  0  0  0  0  0  0  0  0
  -23.1527   -0.7725  -11.9259 C   0  0  0  0  0  0  0  0  0  0  0  0
  -24.4005    0.1267  -11.8297 C   0  0  0  0  0  0  0  0  0  0  0  0
 17 18  1  0  0  0
 18 11  1  0  0  0
 11 12  1  0  0  0
 11 16  2  0  0  0
 12 13  2  0  0  0
 13 19  1  0  0  0
 13 14  1  0  0  0
 19 20  1  0  0  0
 14 15  2  0  0  0
 15  1  1  0  0  0
 15 16  1  0  0  0
  1  2  1  0  0  0
  1 10  2  0  0  0
  2  3  2  0  0  0
  3  4  1  0  0  0
  3  8  1  0  0  0
  4  5  2  0  0  0
  5  6  1  0  0  0
  6 31  1  0  0  0
  6  7  2  0  0  0
 31 33  1  0  0  0
 31 32  1  0  0  0
 33 34  1  0  0  0
 34 35  1  0  0  0
 35 36  1  0  0  0
 36 37  1  0  0  0
 37 38  1  0  0  0
 37 42  1  0  0  0
 38 39  1  0  0  0
 39 40  1  0  0  0
 40 41  1  0  0  0
 41 42  1  0  0  0
  7  8  1  0  0  0
  8  9  2  0  0  0
  9 10  1  0  0  0
 10 21  1  0  0  0
 21 22  1  0  0  0
 21 25  1  0  0  0
 22 23  2  0  0  0
 22 24  1  0  0  0
 24 27  1  0  0  0
 24 26  1  0  0  0
 27 28  1  0  0  0
 27 29  1  0  0  0
 27 30  1  0  0  0
M  END
> <minimizedAffinity>
-8.69993

$$$$
