CHEMBL4072514


 38 42  0  0  0  0  0  0  0  0999 V2000
  -26.7517   -1.8838   -9.9371 C   0  0  0  0  0  0  0  0  0  0  0  0
  -27.2444   -3.1728   -9.6942 C   0  0  0  0  0  0  0  0  0  0  0  0
  -27.9044   -3.4935   -8.4992 C   0  0  0  0  0  0  0  0  0  0  0  0
  -28.2280   -2.4892   -7.5895 C   0  0  0  0  0  0  0  0  0  0  0  0
  -27.8951   -1.1729   -7.8777 C   0  0  0  0  0  0  0  0  0  0  0  0
  -27.1210   -0.8866   -9.0096 C   0  0  0  0  0  0  0  0  0  0  0  0
  -28.7208   -2.2773  -12.7016 N   0  0  0  0  0  0  0  0  0  0  0  0
  -27.5200   -1.9395  -13.1956 C   0  0  0  0  0  0  0  0  0  0  0  0
  -27.3523   -1.8599  -14.5121 N   0  0  0  0  0  0  0  0  0  0  0  0
  -26.0648   -1.5445  -14.6500 N   0  0  0  0  0  0  0  0  0  0  0  0
  -25.3897   -1.3917  -13.4704 C   0  0  0  0  0  0  0  0  0  0  0  0
  -24.0487   -1.0698  -13.2490 C   0  0  0  0  0  0  0  0  0  0  0  0
  -23.6304   -0.9697  -11.9294 C   0  0  0  0  0  0  0  0  0  0  0  0
  -24.5244   -1.1972  -10.8845 C   0  0  0  0  0  0  0  0  0  0  0  0
  -25.8839   -1.5560  -11.0946 C   0  0  0  0  0  0  0  0  0  0  0  0
  -26.3229   -1.6397  -12.4555 C   0  0  0  0  0  0  0  0  0  0  0  0
  -29.3964   -2.5895  -13.3901 H   0  0  0  0  0  0  0  0  0  0  0  0
  -28.7733   -2.8080  -11.8400 H   0  0  0  0  0  0  0  0  0  0  0  0
  -25.6946   -1.4499  -15.5879 H   0  0  0  0  0  0  0  0  0  0  0  0
  -28.9320   -2.7681   -6.4087 N   0  0  0  0  0  0  0  0  0  0  0  0
  -28.3049   -3.0492   -5.2128 C   0  0  0  0  0  0  0  0  0  0  0  0
  -27.1007   -3.0260   -4.9961 O   0  0  0  0  0  0  0  0  0  0  0  0
  -29.9160   -2.5341   -6.3778 H   0  0  0  0  0  0  0  0  0  0  0  0
  -29.2318   -3.4463   -4.1102 C   0  0  0  0  0  0  0  0  0  0  0  0
  -30.1646   -2.4196   -3.4664 C   0  0  0  0  0  0  0  0  0  0  0  0
  -28.9656   -2.8926   -2.7085 C   0  0  0  0  0  0  0  0  0  0  0  0
  -29.7261   -4.8553   -4.2003 C   0  0  0  0  0  0  0  0  0  0  0  0
  -30.8949   -5.0850   -3.9202 O   0  0  0  0  0  0  0  0  0  0  0  0
  -28.7728   -5.7395   -4.6466 N   0  0  0  0  0  0  0  0  0  0  0  0
  -27.8649   -5.3529   -4.9035 H   0  0  0  0  0  0  0  0  0  0  0  0
  -28.9114   -7.1352   -4.8166 C   0  0  0  0  0  0  0  0  0  0  0  0
  -28.7162   -8.0442   -3.7721 C   0  0  0  0  0  0  0  0  0  0  0  0
  -28.8338   -9.4177   -3.9954 C   0  0  0  0  0  0  0  0  0  0  0  0
  -29.1497   -9.8926   -5.2636 C   0  0  0  0  0  0  0  0  0  0  0  0
  -29.2658  -11.5866   -5.5311 Cl  0  0  0  0  0  0  0  0  0  0  0  0
  -29.3579   -9.0072   -6.3166 C   0  0  0  0  0  0  0  0  0  0  0  0
  -29.2374   -7.6350   -6.0923 C   0  0  0  0  0  0  0  0  0  0  0  0
  -29.4950   -6.5671   -7.4293 Cl  0  0  0  0  0  0  0  0  0  0  0  0
  7  8  1  0  0  0
  7 17  1  0  0  0
  7 18  1  0  0  0
  8  9  2  0  0  0
  8 16  1  0  0  0
  9 10  1  0  0  0
 10 11  1  0  0  0
 10 19  1  0  0  0
 11 12  1  0  0  0
 11 16  2  0  0  0
 12 13  2  0  0  0
 13 14  1  0  0  0
 14 15  2  0  0  0
 15  1  1  0  0  0
 15 16  1  0  0  0
  1  2  1  0  0  0
  1  6  2  0  0  0
  2  3  2  0  0  0
  3  4  1  0  0  0
  4 20  1  0  0  0
  4  5  2  0  0  0
 20 21  1  0  0  0
 20 23  1  0  0  0
 21 22  2  0  0  0
 21 24  1  0  0  0
 24 27  1  0  0  0
 24 25  1  0  0  0
 24 26  1  0  0  0
 27 28  2  0  0  0
 27 29  1  0  0  0
 29 31  1  0  0  0
 29 30  1  0  0  0
 31 32  1  0  0  0
 31 37  2  0  0  0
 32 33  2  0  0  0
 33 34  1  0  0  0
 34 35  1  0  0  0
 34 36  2  0  0  0
 36 37  1  0  0  0
 37 38  1  0  0  0
 25 26  1  0  0  0
  5  6  1  0  0  0
M  END
> <minimizedAffinity>
-8.84441

$$$$
