CHEMBL3290931


 52 57  0  0  0  0  0  0  0  0999 V2000
  -23.6495   -0.8244  -13.0486 C   0  0  0  0  0  0  0  0  0  0  0  0
  -23.0764   -0.8023  -11.7794 C   0  0  0  0  0  0  0  0  0  0  0  0
  -23.8341   -1.1479  -10.6475 C   0  0  0  0  0  0  0  0  0  0  0  0
  -25.1843   -1.5121  -10.7458 C   0  0  0  0  0  0  0  0  0  0  0  0
  -25.7568   -1.5298  -12.0220 C   0  0  0  0  0  0  0  0  0  0  0  0
  -24.9990   -1.1752  -13.1529 C   0  0  0  0  0  0  0  0  0  0  0  0
  -25.6138   -1.1844  -14.3444 F   0  0  0  0  0  0  0  0  0  0  0  0
  -25.9891   -1.8462   -9.6171 N   0  0  0  0  0  0  0  0  0  0  0  0
  -27.3744   -1.8465   -9.5827 C   0  0  0  0  0  0  0  0  0  0  0  0
  -28.1326   -1.5499  -10.4957 O   0  0  0  0  0  0  0  0  0  0  0  0
  -25.5094   -2.1632   -8.7742 H   0  0  0  0  0  0  0  0  0  0  0  0
  -28.0198   -2.2566   -8.2500 C   0  0  0  0  0  0  0  0  0  0  0  0
  -28.2424   -3.5235   -8.0519 N   0  0  0  0  0  0  0  0  0  0  0  0
  -28.9137   -3.8706   -6.8865 N   0  0  0  0  0  0  0  0  0  0  0  0
  -29.3534   -2.9629   -5.9240 C   0  0  0  0  0  0  0  0  0  0  0  0
  -29.9463   -3.2316   -4.8819 O   0  0  0  0  0  0  0  0  0  0  0  0
  -29.0310   -1.5516   -6.1886 C   0  0  0  0  0  0  0  0  0  0  0  0
  -28.4060   -1.1635   -7.3050 C   0  0  0  0  0  0  0  0  0  0  0  0
  -28.1376    0.2786   -7.5882 C   0  0  0  0  0  0  0  0  0  0  0  0
  -29.2819   -5.2395   -6.8046 C   0  0  0  0  0  0  0  0  0  0  0  0
  -30.2154   -5.7409   -7.7355 C   0  0  0  0  0  0  0  0  0  0  0  0
  -30.5992   -7.0812   -7.7266 C   0  0  0  0  0  0  0  0  0  0  0  0
  -30.0665   -7.9408   -6.7758 C   0  0  0  0  0  0  0  0  0  0  0  0
  -29.1582   -7.4530   -5.8342 C   0  0  0  0  0  0  0  0  0  0  0  0
  -28.7544   -6.0985   -5.8292 C   0  0  0  0  0  0  0  0  0  0  0  0
  -27.8608   -5.6500   -4.7019 C   0  0  0  0  0  0  0  0  0  0  0  0
  -27.1457   -4.5049   -4.8850 F   0  0  0  0  0  0  0  0  0  0  0  0
  -28.5762   -5.4220   -3.5586 F   0  0  0  0  0  0  0  0  0  0  0  0
  -26.9416   -6.6008   -4.3632 F   0  0  0  0  0  0  0  0  0  0  0  0
  -22.8363   -0.4125  -14.0865 O   0  0  0  0  0  0  0  0  0  0  0  0
  -18.8001    0.6182  -15.1060 C   0  0  0  0  0  0  0  0  0  0  0  0
  -20.1294    0.2578  -14.8401 C   0  0  0  0  0  0  0  0  0  0  0  0
  -21.1198    1.2219  -14.5286 C   0  0  0  0  0  0  0  0  0  0  0  0
  -22.4646    0.9175  -14.1861 C   0  0  0  0  0  0  0  0  0  0  0  0
  -23.3875    1.9437  -14.0137 C   0  0  0  0  0  0  0  0  0  0  0  0
  -22.9210    3.2369  -14.0562 C   0  0  0  0  0  0  0  0  0  0  0  0
  -21.6369    3.5692  -14.3007 N   0  0  0  0  0  0  0  0  0  0  0  0
  -20.7593    2.5844  -14.5488 C   0  0  0  0  0  0  0  0  0  0  0  0
  -19.4498    2.9318  -14.8512 C   0  0  0  0  0  0  0  0  0  0  0  0
  -18.4668    1.9802  -15.1665 C   0  0  0  0  0  0  0  0  0  0  0  0
  -16.6988   -0.3083  -14.3922 C   0  0  0  0  0  0  0  0  0  0  0  0
  -17.7958   -0.2916  -15.3005 O   0  0  0  0  0  0  0  0  0  0  0  0
  -17.2448    2.5352  -15.4626 O   0  0  0  0  0  0  0  0  0  0  0  0
  -17.2354    3.9186  -15.8263 C   0  0  0  0  0  0  0  0  0  0  0  0
  -15.8818    4.3270  -16.4320 C   0  0  0  0  0  0  0  0  0  0  0  0
  -14.6820    3.6846  -15.7186 C   0  0  0  0  0  0  0  0  0  0  0  0
  -13.6646    3.1254  -16.6336 N   0  0  0  0  0  0  0  0  0  0  0  0
  -14.2044    2.2883  -17.7287 C   0  0  0  0  0  0  0  0  0  0  0  0
  -14.6878    0.8941  -17.2928 C   0  0  0  0  0  0  0  0  0  0  0  0
  -13.6555    0.1722  -16.6106 O   0  0  0  0  0  0  0  0  0  0  0  0
  -13.1924    0.9149  -15.4762 C   0  0  0  0  0  0  0  0  0  0  0  0
  -12.6751    2.3058  -15.8890 C   0  0  0  0  0  0  0  0  0  0  0  0
 41 42  1  0  0  0
 42 31  1  0  0  0
 31 32  1  0  0  0
 31 40  2  0  0  0
 32 33  2  0  0  0
 33 34  1  0  0  0
 33 38  1  0  0  0
 34 30  1  0  0  0
 34 35  2  0  0  0
 30  1  1  0  0  0
  1  2  1  0  0  0
  1  6  2  0  0  0
  2  3  2  0  0  0
  3  4  1  0  0  0
  4  8  1  0  0  0
  4  5  2  0  0  0
  8  9  1  0  0  0
  8 11  1  0  0  0
  9 10  2  0  0  0
  9 12  1  0  0  0
 12 13  2  0  0  0
 12 18  1  0  0  0
 13 14  1  0  0  0
 14 20  1  0  0  0
 14 15  1  0  0  0
 20 21  1  0  0  0
 20 25  2  0  0  0
 21 22  2  0  0  0
 22 23  1  0  0  0
 23 24  2  0  0  0
 24 25  1  0  0  0
 25 26  1  0  0  0
 26 27  1  0  0  0
 26 28  1  0  0  0
 26 29  1  0  0  0
 15 16  2  0  0  0
 15 17  1  0  0  0
 17 18  2  0  0  0
 18 19  1  0  0  0
  5  6  1  0  0  0
  6  7  1  0  0  0
 35 36  1  0  0  0
 36 37  2  0  0  0
 37 38  1  0  0  0
 38 39  2  0  0  0
 39 40  1  0  0  0
 40 43  1  0  0  0
 43 44  1  0  0  0
 44 45  1  0  0  0
 45 46  1  0  0  0
 46 47  1  0  0  0
 47 48  1  0  0  0
 47 52  1  0  0  0
 48 49  1  0  0  0
 49 50  1  0  0  0
 50 51  1  0  0  0
 51 52  1  0  0  0
M  END
> <minimizedAffinity>
-8.78197

$$$$
