CHEMBL2010869


 39 45  0  0  0  0  0  0  0  0999 V2000
  -28.4263   -9.3921   -4.4967 N   0  0  0  0  0  0  0  0  0  0  0  0
  -28.2331  -10.1689   -5.6634 C   0  0  0  0  0  0  0  0  0  0  0  0
  -27.6407  -11.4277   -5.8803 C   0  0  0  0  0  0  0  0  0  0  0  0
  -27.5025  -11.8939   -7.2082 C   0  0  0  0  0  0  0  0  0  0  0  0
  -27.9408  -11.1564   -8.3087 C   0  0  0  0  0  0  0  0  0  0  0  0
  -28.5846   -9.9427   -8.0597 C   0  0  0  0  0  0  0  0  0  0  0  0
  -28.6848   -9.4236   -6.7587 C   0  0  0  0  0  0  0  0  0  0  0  0
  -29.0193   -8.2201   -6.1829 C   0  0  0  0  0  0  0  0  0  0  0  0
  -29.0420   -7.0305   -6.9220 C   0  0  0  0  0  0  0  0  0  0  0  0
  -28.8015   -5.8588   -6.1809 C   0  0  0  0  0  0  0  0  0  0  0  0
  -28.7172   -5.8230   -4.7765 C   0  0  0  0  0  0  0  0  0  0  0  0
  -29.3400   -6.9622   -4.1569 C   0  0  0  0  0  0  0  0  0  0  0  0
  -29.0330   -8.1734   -4.8180 C   0  0  0  0  0  0  0  0  0  0  0  0
  -30.8158   -6.6002   -3.6650 C   0  0  0  0  0  0  0  0  0  0  0  0
  -31.3392   -5.1698   -4.1151 C   0  0  0  0  0  0  0  0  0  0  0  0
  -30.2606   -4.2012   -3.7815 C   0  0  0  0  0  0  0  0  0  0  0  0
  -30.3142   -3.1821   -2.9253 N   0  0  0  0  0  0  0  0  0  0  0  0
  -29.0023   -2.9539   -2.6607 N   0  0  0  0  0  0  0  0  0  0  0  0
  -28.6349   -1.9959   -1.6467 C   0  0  0  0  0  0  0  0  0  0  0  0
  -28.1549   -3.8582   -3.2543 C   0  0  0  0  0  0  0  0  0  0  0  0
  -28.9472   -4.5596   -4.1240 C   0  0  0  0  0  0  0  0  0  0  0  0
  -28.8321   -4.7574   -7.1128 C   0  0  0  0  0  0  0  0  0  0  0  0
  -28.6893   -3.5516   -6.9984 O   0  0  0  0  0  0  0  0  0  0  0  0
  -29.1493   -5.3466   -8.3290 N   0  0  0  0  0  0  0  0  0  0  0  0
  -29.2127   -6.7858   -8.3465 C   0  0  0  0  0  0  0  0  0  0  0  0
  -29.2892   -4.7628   -9.1358 H   0  0  0  0  0  0  0  0  0  0  0  0
  -27.8312  -11.5495   -9.6522 N   0  0  0  0  0  0  0  0  0  0  0  0
  -28.2688  -12.4321   -9.8789 H   0  0  0  0  0  0  0  0  0  0  0  0
  -27.8583  -10.8026  -10.8260 C   0  0  0  0  0  0  0  0  0  0  0  0
  -28.8423  -10.9378  -11.7218 N   0  0  0  0  0  0  0  0  0  0  0  0
  -28.7301  -10.2397  -12.8653 C   0  0  0  0  0  0  0  0  0  0  0  0
  -27.6677   -9.4177  -13.1647 C   0  0  0  0  0  0  0  0  0  0  0  0
  -26.7267   -9.3172  -12.1652 C   0  0  0  0  0  0  0  0  0  0  0  0
  -26.8034   -9.9846  -10.9966 N   0  0  0  0  0  0  0  0  0  0  0  0
  -27.5411   -8.7156  -14.4769 C   0  0  0  0  0  0  0  0  0  0  0  0
  -26.5495   -9.3919  -15.4066 C   0  0  0  0  0  0  0  0  0  0  0  0
  -27.9228   -9.7809   -3.1835 C   0  0  0  0  0  0  0  0  0  0  0  0
  -25.5827   -8.9470   -3.8307 C   0  0  0  0  0  0  0  0  0  0  0  0
  -26.4028   -9.9967   -3.0968 C   0  0  0  0  0  0  0  0  0  0  0  0
 38 39  1  0  0  0
 39 37  1  0  0  0
 37  1  1  0  0  0
  1  2  1  0  0  0
  1 13  1  0  0  0
  2  3  1  0  0  0
  2  7  2  0  0  0
  3  4  2  0  0  0
  4  5  1  0  0  0
  5 27  1  0  0  0
  5  6  2  0  0  0
 27 29  1  0  0  0
 27 28  1  0  0  0
 29 30  1  0  0  0
 29 34  2  0  0  0
 30 31  2  0  0  0
 31 32  1  0  0  0
 32 35  1  0  0  0
 32 33  2  0  0  0
 35 36  1  0  0  0
 33 34  1  0  0  0
  6  7  1  0  0  0
  7  8  1  0  0  0
  8  9  1  0  0  0
  8 13  2  0  0  0
  9 10  2  0  0  0
  9 25  1  0  0  0
 10 11  1  0  0  0
 10 22  1  0  0  0
 11 12  2  0  0  0
 11 21  1  0  0  0
 12 13  1  0  0  0
 12 14  1  0  0  0
 14 15  1  0  0  0
 15 16  1  0  0  0
 16 17  2  0  0  0
 16 21  1  0  0  0
 17 18  1  0  0  0
 18 19  1  0  0  0
 18 20  1  0  0  0
 20 21  2  0  0  0
 22 23  2  0  0  0
 22 24  1  0  0  0
 24 25  1  0  0  0
 24 26  1  0  0  0
M  END
> <minimizedAffinity>
-5.95935

$$$$
