CHEMBL117166


 30 34  0  0  0  0  0  0  0  0999 V2000
  -25.5929   -1.1736  -13.0047 C   0  0  0  0  0  0  0  0  0  0  0  0
  -25.8448   -1.6058  -14.3234 C   0  0  0  0  0  0  0  0  0  0  0  0
  -24.8966   -1.2432  -15.1883 N   0  0  0  0  0  0  0  0  0  0  0  0
  -23.9962   -0.5677  -14.4347 N   0  0  0  0  0  0  0  0  0  0  0  0
  -22.8134    0.0248  -14.8630 C   0  0  0  0  0  0  0  0  0  0  0  0
  -22.0141    0.6565  -13.9892 C   0  0  0  0  0  0  0  0  0  0  0  0
  -22.5029    0.6516  -12.5752 C   0  0  0  0  0  0  0  0  0  0  0  0
  -23.6052    0.1149  -12.1447 N   0  0  0  0  0  0  0  0  0  0  0  0
  -24.3821   -0.5080  -13.0886 C   0  0  0  0  0  0  0  0  0  0  0  0
  -28.4746   -1.5298  -10.6247 C   0  0  0  0  0  0  0  0  0  0  0  0
  -27.7677   -1.7602   -9.4541 C   0  0  0  0  0  0  0  0  0  0  0  0
  -26.4221   -1.7919   -9.3896 N   0  0  0  0  0  0  0  0  0  0  0  0
  -25.7533   -1.6004  -10.5559 C   0  0  0  0  0  0  0  0  0  0  0  0
  -26.3614   -1.3687  -11.7886 C   0  0  0  0  0  0  0  0  0  0  0  0
  -27.7585   -1.3263  -11.8044 C   0  0  0  0  0  0  0  0  0  0  0  0
  -20.7716    1.3143  -14.3728 C   0  0  0  0  0  0  0  0  0  0  0  0
  -19.7667    0.5864  -15.0159 C   0  0  0  0  0  0  0  0  0  0  0  0
  -18.5783    1.2129  -15.3996 C   0  0  0  0  0  0  0  0  0  0  0  0
  -18.3843    2.5733  -15.1490 C   0  0  0  0  0  0  0  0  0  0  0  0
  -19.3752    3.2930  -14.4790 C   0  0  0  0  0  0  0  0  0  0  0  0
  -20.5687    2.6702  -14.0979 C   0  0  0  0  0  0  0  0  0  0  0  0
  -17.2522    3.2735  -15.4823 O   0  0  0  0  0  0  0  0  0  0  0  0
  -16.2690    2.5053  -16.1914 C   0  0  0  0  0  0  0  0  0  0  0  0
  -15.1005    2.1529  -15.2545 C   0  0  0  0  0  0  0  0  0  0  0  0
  -15.0590    0.7239  -14.8705 N   0  0  0  0  0  0  0  0  0  0  0  0
  -13.7197    0.1385  -15.0462 C   0  0  0  0  0  0  0  0  0  0  0  0
  -13.7052   -1.3480  -14.6844 C   0  0  0  0  0  0  0  0  0  0  0  0
  -14.1957   -1.5759  -13.2622 C   0  0  0  0  0  0  0  0  0  0  0  0
  -15.5517   -0.9110  -13.0632 C   0  0  0  0  0  0  0  0  0  0  0  0
  -15.5188    0.5616  -13.4798 C   0  0  0  0  0  0  0  0  0  0  0  0
 10 11  1  0  0  0
 10 15  2  0  0  0
 11 12  2  0  0  0
 12 13  1  0  0  0
 13 14  2  0  0  0
 14  1  1  0  0  0
 14 15  1  0  0  0
  1  2  1  0  0  0
  1  9  2  0  0  0
  2  3  2  0  0  0
  3  4  1  0  0  0
  4  5  1  0  0  0
  4  9  1  0  0  0
  5  6  2  0  0  0
  6 16  1  0  0  0
  6  7  1  0  0  0
 16 17  1  0  0  0
 16 21  2  0  0  0
 17 18  2  0  0  0
 18 19  1  0  0  0
 19 22  1  0  0  0
 19 20  2  0  0  0
 22 23  1  0  0  0
 23 24  1  0  0  0
 24 25  1  0  0  0
 25 26  1  0  0  0
 25 30  1  0  0  0
 26 27  1  0  0  0
 27 28  1  0  0  0
 28 29  1  0  0  0
 29 30  1  0  0  0
 20 21  1  0  0  0
  7  8  2  0  0  0
  8  9  1  0  0  0
M  END
> <minimizedAffinity>
-8.74425

$$$$
