CHEMBL205244


 31 34  0  0  0  0  0  0  0  0999 V2000
  -28.7729   -5.7726   -6.1202 C   0  0  0  0  0  0  0  0  0  0  0  0
  -28.5079   -5.7430   -7.4081 N   0  0  0  0  0  0  0  0  0  0  0  0
  -29.1439   -6.8305   -7.9704 N   0  0  0  0  0  0  0  0  0  0  0  0
  -29.7964   -7.4365   -6.9998 C   0  0  0  0  0  0  0  0  0  0  0  0
  -29.5879   -6.8197   -5.7882 O   0  0  0  0  0  0  0  0  0  0  0  0
  -30.6894   -8.5964   -7.0018 C   0  0  0  0  0  0  0  0  0  0  0  0
  -32.0596   -8.3843   -7.2168 C   0  0  0  0  0  0  0  0  0  0  0  0
  -33.0146   -9.3459   -7.2579 N   0  0  0  0  0  0  0  0  0  0  0  0
  -32.5989  -10.6068   -7.0647 C   0  0  0  0  0  0  0  0  0  0  0  0
  -31.2760  -10.9428   -6.8332 C   0  0  0  0  0  0  0  0  0  0  0  0
  -30.2844   -9.9387   -6.8127 C   0  0  0  0  0  0  0  0  0  0  0  0
  -28.8525  -10.3947   -6.5711 C   0  0  0  0  0  0  0  0  0  0  0  0
  -28.3727  -11.4393   -7.5990 C   0  0  0  0  0  0  0  0  0  0  0  0
  -28.1162  -10.9362   -9.0033 C   0  0  0  0  0  0  0  0  0  0  0  0
  -29.0970  -11.1178   -9.9876 C   0  0  0  0  0  0  0  0  0  0  0  0
  -28.8946  -10.5840  -11.2527 C   0  0  0  0  0  0  0  0  0  0  0  0
  -27.7963   -9.8870  -11.6047 N   0  0  0  0  0  0  0  0  0  0  0  0
  -26.8648   -9.7114  -10.6443 C   0  0  0  0  0  0  0  0  0  0  0  0
  -26.9786  -10.2040   -9.3505 C   0  0  0  0  0  0  0  0  0  0  0  0
  -28.4322   -4.8774   -5.1732 N   0  0  0  0  0  0  0  0  0  0  0  0
  -28.4002   -5.2472   -4.2296 H   0  0  0  0  0  0  0  0  0  0  0  0
  -28.6529   -0.6346   -5.2879 C   0  0  0  0  0  0  0  0  0  0  0  0
  -29.7648   -1.4037   -5.6522 C   0  0  0  0  0  0  0  0  0  0  0  0
  -29.7090   -2.8026   -5.6235 C   0  0  0  0  0  0  0  0  0  0  0  0
  -28.5537   -3.4742   -5.2093 C   0  0  0  0  0  0  0  0  0  0  0  0
  -27.4354   -2.6985   -4.8702 C   0  0  0  0  0  0  0  0  0  0  0  0
  -27.4807   -1.2980   -4.9027 C   0  0  0  0  0  0  0  0  0  0  0  0
  -28.3793    1.4193   -6.5072 F   0  0  0  0  0  0  0  0  0  0  0  0
  -28.7084    0.8737   -5.3028 C   0  0  0  0  0  0  0  0  0  0  0  0
  -27.8633    1.4367   -4.3956 F   0  0  0  0  0  0  0  0  0  0  0  0
  -29.9487    1.3512   -5.0050 F   0  0  0  0  0  0  0  0  0  0  0  0
 28 29  1  0  0  0
 29 30  1  0  0  0
 29 31  1  0  0  0
 29 22  1  0  0  0
 22 23  1  0  0  0
 22 27  2  0  0  0
 23 24  2  0  0  0
 24 25  1  0  0  0
 25 20  1  0  0  0
 25 26  2  0  0  0
 20  1  1  0  0  0
 20 21  1  0  0  0
  1  2  2  0  0  0
  1  5  1  0  0  0
  2  3  1  0  0  0
  3  4  2  0  0  0
  4  6  1  0  0  0
  4  5  1  0  0  0
  6  7  1  0  0  0
  6 11  2  0  0  0
  7  8  2  0  0  0
  8  9  1  0  0  0
  9 10  2  0  0  0
 10 11  1  0  0  0
 11 12  1  0  0  0
 12 13  1  0  0  0
 13 14  1  0  0  0
 14 15  1  0  0  0
 14 19  2  0  0  0
 15 16  2  0  0  0
 16 17  1  0  0  0
 17 18  2  0  0  0
 18 19  1  0  0  0
 26 27  1  0  0  0
M  END
> <minimizedAffinity>
-8.76003

$$$$
