CHEMBL1241678


 26 29  0  0  0  0  0  0  0  0999 V2000
  -32.9696   -7.7421   -6.0646 N   0  0  0  0  0  0  0  0  0  0  0  0
  -32.2986   -8.6080   -6.9179 C   0  0  0  0  0  0  0  0  0  0  0  0
  -32.9143   -9.7820   -7.1522 N   0  0  0  0  0  0  0  0  0  0  0  0
  -32.3138  -10.6765   -7.9650 C   0  0  0  0  0  0  0  0  0  0  0  0
  -31.1460  -10.5450   -8.6081 N   0  0  0  0  0  0  0  0  0  0  0  0
  -30.5544   -9.3701   -8.3399 C   0  0  0  0  0  0  0  0  0  0  0  0
  -31.0527   -8.3645   -7.5170 C   0  0  0  0  0  0  0  0  0  0  0  0
  -30.0403   -7.3536   -7.5288 C   0  0  0  0  0  0  0  0  0  0  0  0
  -29.0386   -7.6885   -8.3582 N   0  0  0  0  0  0  0  0  0  0  0  0
  -29.3361   -8.9343   -8.7869 N   0  0  0  0  0  0  0  0  0  0  0  0
  -33.9173   -8.0519   -5.8737 H   0  0  0  0  0  0  0  0  0  0  0  0
  -32.8465   -6.7536   -6.2295 H   0  0  0  0  0  0  0  0  0  0  0  0
  -29.9650   -6.0947   -6.7767 C   0  0  0  0  0  0  0  0  0  0  0  0
  -30.0218   -4.8591   -7.4371 C   0  0  0  0  0  0  0  0  0  0  0  0
  -29.9238   -3.6566   -6.7332 C   0  0  0  0  0  0  0  0  0  0  0  0
  -29.8515   -3.6803   -5.3457 C   0  0  0  0  0  0  0  0  0  0  0  0
  -29.7896   -2.1939   -4.4761 Cl  0  0  0  0  0  0  0  0  0  0  0  0
  -29.8557   -4.9011   -4.6698 C   0  0  0  0  0  0  0  0  0  0  0  0
  -29.8374   -4.9690   -3.3037 O   0  0  0  0  0  0  0  0  0  0  0  0
  -29.8950   -6.1025   -5.3750 C   0  0  0  0  0  0  0  0  0  0  0  0
  -29.8812   -4.0535   -2.9690 H   0  0  0  0  0  0  0  0  0  0  0  0
  -28.3494   -9.6087   -9.5969 C   0  0  0  0  0  0  0  0  0  0  0  0
  -28.8511   -9.9128  -10.9993 C   0  0  0  0  0  0  0  0  0  0  0  0
  -27.5778  -10.2240  -11.7517 C   0  0  0  0  0  0  0  0  0  0  0  0
  -26.5155   -9.5107  -11.1066 O   0  0  0  0  0  0  0  0  0  0  0  0
  -27.0378   -8.9031   -9.9084 C   0  0  0  0  0  0  0  0  0  0  0  0
  1  2  1  0  0  0
  1 11  1  0  0  0
  1 12  1  0  0  0
  2  3  1  0  0  0
  2  7  2  0  0  0
  3  4  2  0  0  0
  4  5  1  0  0  0
  5  6  2  0  0  0
  6  7  1  0  0  0
  6 10  1  0  0  0
  7  8  1  0  0  0
  8 13  1  0  0  0
  8  9  2  0  0  0
 13 14  1  0  0  0
 13 20  2  0  0  0
 14 15  2  0  0  0
 15 16  1  0  0  0
 16 17  1  0  0  0
 16 18  2  0  0  0
 18 19  1  0  0  0
 18 20  1  0  0  0
 19 21  1  0  0  0
  9 10  1  0  0  0
 22 23  1  0  0  0
 22 26  1  0  0  0
 22 10  1  0  0  0
 23 24  1  0  0  0
 24 25  1  0  0  0
 25 26  1  0  0  0
M  END
> <minimizedAffinity>
-8.01094

$$$$
