CHEMBL3901119


 37 41  0  0  0  0  0  0  0  0999 V2000
  -15.5136    0.5072  -13.6906 N   0  0  0  0  0  0  0  0  0  0  0  0
  -15.3773   -0.8834  -13.3417 C   0  0  0  0  0  0  0  0  0  0  0  0
  -15.9728   -1.2333  -12.1393 C   0  0  0  0  0  0  0  0  0  0  0  0
  -15.4509   -2.2644  -11.3909 C   0  0  0  0  0  0  0  0  0  0  0  0
  -14.4980   -3.1110  -11.8686 C   0  0  0  0  0  0  0  0  0  0  0  0
  -13.9757   -3.9280  -10.9570 N   0  0  0  0  0  0  0  0  0  0  0  0
  -13.2036   -4.9171  -11.4109 C   0  0  0  0  0  0  0  0  0  0  0  0
  -13.0433   -5.1606  -12.7587 C   0  0  0  0  0  0  0  0  0  0  0  0
  -13.4724   -4.2448  -13.7029 N   0  0  0  0  0  0  0  0  0  0  0  0
  -14.1703   -3.1105  -13.2487 C   0  0  0  0  0  0  0  0  0  0  0  0
  -14.5787   -1.8977  -13.9561 C   0  0  0  0  0  0  0  0  0  0  0  0
  -12.5960   -6.5191  -13.0794 C   0  0  0  0  0  0  0  0  0  0  0  0
  -12.4287   -7.1273  -14.3554 C   0  0  0  0  0  0  0  0  0  0  0  0
  -12.3052   -8.4601  -14.2935 N   0  0  0  0  0  0  0  0  0  0  0  0
  -12.4113   -8.7231  -12.9808 N   0  0  0  0  0  0  0  0  0  0  0  0
  -12.0963  -10.0377  -12.4689 C   0  0  0  0  0  0  0  0  0  0  0  0
  -12.7476   -7.6184  -12.2437 C   0  0  0  0  0  0  0  0  0  0  0  0
  -18.8940    1.4728  -15.0058 C   0  0  0  0  0  0  0  0  0  0  0  0
  -18.5940    2.6279  -15.7307 C   0  0  0  0  0  0  0  0  0  0  0  0
  -17.2707    3.0329  -15.8661 C   0  0  0  0  0  0  0  0  0  0  0  0
  -16.2453    2.2797  -15.2697 C   0  0  0  0  0  0  0  0  0  0  0  0
  -16.5032    1.1268  -14.5096 C   0  0  0  0  0  0  0  0  0  0  0  0
  -17.8526    0.7113  -14.4358 C   0  0  0  0  0  0  0  0  0  0  0  0
  -21.2062    2.0180  -14.6484 C   0  0  0  0  0  0  0  0  0  0  0  0
  -20.1772    1.0250  -14.7726 O   0  0  0  0  0  0  0  0  0  0  0  0
  -16.8473    4.1584  -16.5238 O   0  0  0  0  0  0  0  0  0  0  0  0
  -15.4870    4.1965  -16.9431 C   0  0  0  0  0  0  0  0  0  0  0  0
  -14.1228    1.1598  -13.8029 C   0  0  0  0  0  0  0  0  0  0  0  0
  -13.1652    0.6681  -14.9573 C   0  0  0  0  0  0  0  0  0  0  0  0
  -11.7542    0.2405  -14.4899 C   0  0  0  0  0  0  0  0  0  0  0  0
  -10.8496    1.3390  -14.3330 O   0  0  0  0  0  0  0  0  0  0  0  0
  -10.6965    2.0518  -15.5674 C   0  0  0  0  0  0  0  0  0  0  0  0
  -12.0448    2.6618  -16.0187 C   0  0  0  0  0  0  0  0  0  0  0  0
  -12.4796    3.7671  -15.0424 C   0  0  0  0  0  0  0  0  0  0  0  0
  -11.8542    3.3169  -17.4044 C   0  0  0  0  0  0  0  0  0  0  0  0
  -13.1027    1.6167  -16.1285 N   0  0  0  0  0  0  0  0  0  0  0  0
  -12.8790    1.0524  -16.9529 H   0  0  0  0  0  0  0  0  0  0  0  0
 24 25  1  0  0  0
 25 18  1  0  0  0
 18 19  1  0  0  0
 18 23  2  0  0  0
 19 20  2  0  0  0
 20 26  1  0  0  0
 20 21  1  0  0  0
 26 27  1  0  0  0
 21 22  2  0  0  0
 22  1  1  0  0  0
 22 23  1  0  0  0
  1 28  1  0  0  0
  1  2  1  0  0  0
 28 29  1  0  0  0
 29 30  1  0  0  0
 29 36  1  0  0  0
 30 31  1  0  0  0
 31 32  1  0  0  0
 32 33  1  0  0  0
 33 34  1  0  0  0
 33 35  1  0  0  0
 33 36  1  0  0  0
 36 37  1  0  0  0
  2  3  1  0  0  0
  2 11  2  0  0  0
  3  4  2  0  0  0
  4  5  1  0  0  0
  5  6  1  0  0  0
  5 10  2  0  0  0
  6  7  2  0  0  0
  7  8  1  0  0  0
  8 12  1  0  0  0
  8  9  2  0  0  0
 12 13  1  0  0  0
 12 17  2  0  0  0
 13 14  2  0  0  0
 14 15  1  0  0  0
 15 16  1  0  0  0
 15 17  1  0  0  0
  9 10  1  0  0  0
 10 11  1  0  0  0
M  END
> <minimizedAffinity>
-7.28739

$$$$
