CHEMBL47965


 22 24  0  0  0  0  0  0  0  0999 V2000
  -30.0454   -5.1428   -5.1738 C   0  0  0  0  0  0  0  0  0  0  0  0
  -29.5254   -5.5508   -4.0049 N   0  0  0  0  0  0  0  0  0  0  0  0
  -29.2300   -6.8489   -3.8710 C   0  0  0  0  0  0  0  0  0  0  0  0
  -29.4444   -7.7750   -4.8580 C   0  0  0  0  0  0  0  0  0  0  0  0
  -29.9641   -7.2826   -6.0382 C   0  0  0  0  0  0  0  0  0  0  0  0
  -30.2603   -5.9702   -6.2029 N   0  0  0  0  0  0  0  0  0  0  0  0
  -30.2145   -8.1732   -7.1294 N   0  0  0  0  0  0  0  0  0  0  0  0
  -29.2782   -8.7301   -7.9792 C   0  0  0  0  0  0  0  0  0  0  0  0
  -29.9698   -9.5523   -8.8329 C   0  0  0  0  0  0  0  0  0  0  0  0
  -31.3045   -9.5015   -8.5703 N   0  0  0  0  0  0  0  0  0  0  0  0
  -31.4463   -8.6621   -7.5599 C   0  0  0  0  0  0  0  0  0  0  0  0
  -32.7613   -8.2678   -6.9875 C   0  0  0  0  0  0  0  0  0  0  0  0
  -30.4076   -3.8029   -5.3380 N   0  0  0  0  0  0  0  0  0  0  0  0
  -31.3575   -3.7671   -5.6842 H   0  0  0  0  0  0  0  0  0  0  0  0
  -27.4827   -2.2010   -8.9891 C   0  0  0  0  0  0  0  0  0  0  0  0
  -28.1159   -1.9963   -7.6440 C   0  0  0  0  0  0  0  0  0  0  0  0
  -27.9288   -0.7967   -6.9445 C   0  0  0  0  0  0  0  0  0  0  0  0
  -28.5263   -0.6003   -5.6976 C   0  0  0  0  0  0  0  0  0  0  0  0
  -28.3484    0.6721   -4.9262 C   0  0  0  0  0  0  0  0  0  0  0  0
  -29.3372   -1.6066   -5.1667 C   0  0  0  0  0  0  0  0  0  0  0  0
  -29.5779   -2.7965   -5.8665 C   0  0  0  0  0  0  0  0  0  0  0  0
  -28.9243   -2.9993   -7.0868 C   0  0  0  0  0  0  0  0  0  0  0  0
 15 16  1  0  0  0
 16 17  1  0  0  0
 16 22  2  0  0  0
 17 18  2  0  0  0
 18 19  1  0  0  0
 18 20  1  0  0  0
 20 21  2  0  0  0
 21 13  1  0  0  0
 21 22  1  0  0  0
 13  1  1  0  0  0
 13 14  1  0  0  0
  1  2  1  0  0  0
  1  6  2  0  0  0
  2  3  2  0  0  0
  3  4  1  0  0  0
  4  5  2  0  0  0
  5  7  1  0  0  0
  5  6  1  0  0  0
  7  8  1  0  0  0
  7 11  1  0  0  0
  8  9  2  0  0  0
  9 10  1  0  0  0
 10 11  2  0  0  0
 11 12  1  0  0  0
M  END
> <minimizedAffinity>
-7.87577

$$$$
