CHEMBL1908395


 36 39  0  0  0  0  0  0  0  0999 V2000
  -28.0081   -2.5185   -8.7923 C   0  0  0  0  0  0  0  0  0  0  0  0
  -27.5976   -3.7423   -9.3315 C   0  0  0  0  0  0  0  0  0  0  0  0
  -27.6958   -4.9125   -8.6036 C   0  0  0  0  0  0  0  0  0  0  0  0
  -28.2118   -4.9315   -7.2904 C   0  0  0  0  0  0  0  0  0  0  0  0
  -28.7020   -3.7025   -6.7414 C   0  0  0  0  0  0  0  0  0  0  0  0
  -28.6005   -2.5293   -7.5188 C   0  0  0  0  0  0  0  0  0  0  0  0
  -25.7470   -1.5977  -13.1874 C   0  0  0  0  0  0  0  0  0  0  0  0
  -26.3864   -1.5231  -14.2279 O   0  0  0  0  0  0  0  0  0  0  0  0
  -26.3956   -1.8001  -11.9913 N   0  0  0  0  0  0  0  0  0  0  0  0
  -27.8380   -2.0237  -11.9488 C   0  0  0  0  0  0  0  0  0  0  0  0
  -28.5094   -1.0854  -10.9165 C   0  0  0  0  0  0  0  0  0  0  0  0
  -27.8264   -1.1776   -9.5232 C   0  0  0  0  0  0  0  0  0  0  0  0
  -26.3224   -0.8581   -9.7429 C   0  0  0  0  0  0  0  0  0  0  0  0
  -25.6907   -1.8648  -10.7114 C   0  0  0  0  0  0  0  0  0  0  0  0
  -24.2366   -1.5529  -13.2962 C   0  0  0  0  0  0  0  0  0  0  0  0
  -23.8332    0.6837  -12.3655 C   0  0  0  0  0  0  0  0  0  0  0  0
  -23.7681   -0.1724  -13.5642 N   0  0  0  0  0  0  0  0  0  0  0  0
  -22.3979   -0.1837  -14.0952 C   0  0  0  0  0  0  0  0  0  0  0  0
  -29.2771   -3.5757   -5.3527 C   0  0  0  0  0  0  0  0  0  0  0  0
  -30.4587   -4.1664   -5.0413 C   0  0  0  0  0  0  0  0  0  0  0  0
  -31.1395   -4.0235   -3.7031 C   0  0  0  0  0  0  0  0  0  0  0  0
  -30.5648   -2.8683   -2.8759 C   0  0  0  0  0  0  0  0  0  0  0  0
  -29.0530   -2.9776   -2.8627 C   0  0  0  0  0  0  0  0  0  0  0  0
  -28.5097   -2.7859   -4.2865 C   0  0  0  0  0  0  0  0  0  0  0  0
  -28.3144   -6.1696   -6.5635 N   0  0  0  0  0  0  0  0  0  0  0  0
  -28.9094   -7.3154   -7.0178 C   0  0  0  0  0  0  0  0  0  0  0  0
  -29.3809   -7.3939   -8.1396 O   0  0  0  0  0  0  0  0  0  0  0  0
  -27.9215   -6.2022   -5.6139 H   0  0  0  0  0  0  0  0  0  0  0  0
  -29.0004   -8.5031   -6.1621 C   0  0  0  0  0  0  0  0  0  0  0  0
  -27.9616   -9.0408   -5.4871 N   0  0  0  0  0  0  0  0  0  0  0  0
  -28.5233  -10.0456   -4.7947 C   0  0  0  0  0  0  0  0  0  0  0  0
  -29.8678  -10.1212   -5.0652 C   0  0  0  0  0  0  0  0  0  0  0  0
  -30.1583   -9.1595   -5.9471 N   0  0  0  0  0  0  0  0  0  0  0  0
  -31.0947   -8.9552   -6.3618 H   0  0  0  0  0  0  0  0  0  0  0  0
  -27.7895  -11.0020   -3.8687 C   0  0  0  0  0  0  0  0  0  0  0  0
  -27.1807  -11.7953   -3.1006 N   0  0  0  0  0  0  0  0  0  0  0  0
 16 17  1  0  0  0
 17 18  1  0  0  0
 17 15  1  0  0  0
 15  7  1  0  0  0
  7  8  2  0  0  0
  7  9  1  0  0  0
  9 10  1  0  0  0
  9 14  1  0  0  0
 10 11  1  0  0  0
 11 12  1  0  0  0
 12  1  1  0  0  0
 12 13  1  0  0  0
  1  2  1  0  0  0
  1  6  2  0  0  0
  2  3  2  0  0  0
  3  4  1  0  0  0
  4 25  1  0  0  0
  4  5  2  0  0  0
 25 26  1  0  0  0
 25 28  1  0  0  0
 26 27  2  0  0  0
 26 29  1  0  0  0
 29 30  2  0  0  0
 29 33  1  0  0  0
 30 31  1  0  0  0
 31 35  1  0  0  0
 31 32  2  0  0  0
 35 36  3  0  0  0
 32 33  1  0  0  0
 33 34  1  0  0  0
  5 19  1  0  0  0
  5  6  1  0  0  0
 19 20  2  0  0  0
 19 24  1  0  0  0
 20 21  1  0  0  0
 21 22  1  0  0  0
 22 23  1  0  0  0
 23 24  1  0  0  0
 13 14  1  0  0  0
M  END
> <minimizedAffinity>
-6.30551

$$$$
