CHEMBL1807786


 42 46  0  0  0  0  0  0  0  0999 V2000
  -27.7542   -2.5719   -8.5550 C   0  0  0  0  0  0  0  0  0  0  0  0
  -28.3762   -2.6299   -7.3355 C   0  0  0  0  0  0  0  0  0  0  0  0
  -28.5582   -4.0169   -7.0716 C   0  0  0  0  0  0  0  0  0  0  0  0
  -28.0482   -4.7704   -8.0581 N   0  0  0  0  0  0  0  0  0  0  0  0
  -27.5896   -3.8800   -8.9389 N   0  0  0  0  0  0  0  0  0  0  0  0
  -27.1604   -4.1885   -9.8052 H   0  0  0  0  0  0  0  0  0  0  0  0
  -29.2039   -4.6305   -5.9214 C   0  0  0  0  0  0  0  0  0  0  0  0
  -30.3995   -4.0972   -5.4187 C   0  0  0  0  0  0  0  0  0  0  0  0
  -31.0294   -4.6852   -4.3240 C   0  0  0  0  0  0  0  0  0  0  0  0
  -30.4652   -5.8103   -3.7249 C   0  0  0  0  0  0  0  0  0  0  0  0
  -29.2618   -6.3262   -4.2066 C   0  0  0  0  0  0  0  0  0  0  0  0
  -28.6302   -5.7452   -5.3009 C   0  0  0  0  0  0  0  0  0  0  0  0
  -28.6896   -7.4671   -3.5872 N   0  0  0  0  0  0  0  0  0  0  0  0
  -27.8084   -7.3449   -3.0929 H   0  0  0  0  0  0  0  0  0  0  0  0
  -28.8112   -8.9649   -4.3528 S   0  0  0  0  0  0  0  0  0  0  0  0
  -29.1331   -9.9185   -3.3110 O   0  0  0  0  0  0  0  0  0  0  0  0
  -29.6369   -8.8379   -5.5337 O   0  0  0  0  0  0  0  0  0  0  0  0
  -27.1433   -9.3192   -4.8806 C   0  0  0  0  0  0  0  0  0  0  0  0
  -26.0758   -9.0001   -4.0352 C   0  0  0  0  0  0  0  0  0  0  0  0
  -24.7756   -9.3767   -4.3920 C   0  0  0  0  0  0  0  0  0  0  0  0
  -24.5523  -10.0715   -5.5803 C   0  0  0  0  0  0  0  0  0  0  0  0
  -25.6217  -10.3899   -6.4200 C   0  0  0  0  0  0  0  0  0  0  0  0
  -26.9222  -10.0195   -6.0708 C   0  0  0  0  0  0  0  0  0  0  0  0
  -27.3451   -1.5371   -9.3220 N   0  0  0  0  0  0  0  0  0  0  0  0
  -27.2052   -0.6251   -8.9089 H   0  0  0  0  0  0  0  0  0  0  0  0
  -28.6417   -2.4139  -13.8567 C   0  0  0  0  0  0  0  0  0  0  0  0
  -27.5771   -2.0210  -12.8828 C   0  0  0  0  0  0  0  0  0  0  0  0
  -27.9287   -2.0226  -11.5856 N   0  0  0  0  0  0  0  0  0  0  0  0
  -27.0086   -1.6302  -10.6880 C   0  0  0  0  0  0  0  0  0  0  0  0
  -25.7614   -1.2291  -11.0893 C   0  0  0  0  0  0  0  0  0  0  0  0
  -25.4799   -1.2302  -12.4460 C   0  0  0  0  0  0  0  0  0  0  0  0
  -26.3739   -1.6482  -13.3530 N   0  0  0  0  0  0  0  0  0  0  0  0
  -24.2212   -0.7703  -12.8239 N   0  0  0  0  0  0  0  0  0  0  0  0
  -23.9529   -0.5698  -14.2513 C   0  0  0  0  0  0  0  0  0  0  0  0
  -22.4092   -0.4368  -14.4275 C   0  0  0  0  0  0  0  0  0  0  0  0
  -21.7390    0.5956  -13.5744 N   0  0  0  0  0  0  0  0  0  0  0  0
  -22.1912    0.4094  -12.1726 C   0  0  0  0  0  0  0  0  0  0  0  0
  -23.7209    0.3355  -11.9928 C   0  0  0  0  0  0  0  0  0  0  0  0
  -22.0198    1.9503  -14.0981 C   0  0  0  0  0  0  0  0  0  0  0  0
  -20.8383    2.5785  -14.8586 C   0  0  0  0  0  0  0  0  0  0  0  0
  -20.3745    3.7514  -14.1981 O   0  0  0  0  0  0  0  0  0  0  0  0
  -21.1785    4.2227  -13.9042 H   0  0  0  0  0  0  0  0  0  0  0  0
 26 27  1  0  0  0
 27 28  1  0  0  0
 27 32  2  0  0  0
 28 29  2  0  0  0
 29 24  1  0  0  0
 29 30  1  0  0  0
 24  1  1  0  0  0
 24 25  1  0  0  0
  1  2  2  0  0  0
  1  5  1  0  0  0
  2  3  1  0  0  0
  3  7  1  0  0  0
  3  4  2  0  0  0
  7  8  1  0  0  0
  7 12  2  0  0  0
  8  9  2  0  0  0
  9 10  1  0  0  0
 10 11  2  0  0  0
 11 13  1  0  0  0
 11 12  1  0  0  0
 13 15  1  0  0  0
 13 14  1  0  0  0
 15 16  2  0  0  0
 15 17  2  0  0  0
 15 18  1  0  0  0
 18 19  1  0  0  0
 18 23  2  0  0  0
 19 20  2  0  0  0
 20 21  1  0  0  0
 21 22  2  0  0  0
 22 23  1  0  0  0
  4  5  1  0  0  0
  5  6  1  0  0  0
 30 31  2  0  0  0
 31 33  1  0  0  0
 31 32  1  0  0  0
 33 34  1  0  0  0
 33 38  1  0  0  0
 34 35  1  0  0  0
 35 36  1  0  0  0
 36 39  1  0  0  0
 36 37  1  0  0  0
 39 40  1  0  0  0
 40 41  1  0  0  0
 41 42  1  0  0  0
 37 38  1  0  0  0
M  END
> <minimizedAffinity>
-9.78390

$$$$
