CHEMBL3898150


 41 44  0  0  0  0  0  0  0  0999 V2000
  -14.2814   -3.5567  -13.7640 C   0  0  0  0  0  0  0  0  0  0  0  0
  -13.1852   -2.6837  -13.7478 C   0  0  0  0  0  0  0  0  0  0  0  0
  -13.3861   -1.3015  -13.6376 C   0  0  0  0  0  0  0  0  0  0  0  0
  -14.6796   -0.7861  -13.5272 C   0  0  0  0  0  0  0  0  0  0  0  0
  -15.7707   -1.6589  -13.4916 C   0  0  0  0  0  0  0  0  0  0  0  0
  -15.5650   -3.0266  -13.6450 C   0  0  0  0  0  0  0  0  0  0  0  0
  -16.6267   -3.8481  -13.6154 F   0  0  0  0  0  0  0  0  0  0  0  0
  -13.7782   -6.9089  -15.0751 N   0  0  0  0  0  0  0  0  0  0  0  0
  -13.9529   -5.5343  -15.1126 C   0  0  0  0  0  0  0  0  0  0  0  0
  -13.9075   -4.8399  -16.1115 O   0  0  0  0  0  0  0  0  0  0  0  0
  -14.1146   -4.9707  -13.8554 N   0  0  0  0  0  0  0  0  0  0  0  0
  -13.6959   -7.3350  -14.1646 H   0  0  0  0  0  0  0  0  0  0  0  0
  -13.4824   -5.3537  -13.1604 H   0  0  0  0  0  0  0  0  0  0  0  0
  -13.6438   -7.3451  -20.0285 C   0  0  0  0  0  0  0  0  0  0  0  0
  -13.5110   -7.9489  -18.6590 C   0  0  0  0  0  0  0  0  0  0  0  0
  -13.2162   -9.3107  -18.5419 C   0  0  0  0  0  0  0  0  0  0  0  0
  -13.0586   -9.8797  -17.2867 C   0  0  0  0  0  0  0  0  0  0  0  0
  -13.2028   -9.1011  -16.1417 C   0  0  0  0  0  0  0  0  0  0  0  0
  -12.8945   -9.7096  -14.9907 F   0  0  0  0  0  0  0  0  0  0  0  0
  -13.5528   -7.7426  -16.2100 C   0  0  0  0  0  0  0  0  0  0  0  0
  -13.6789   -7.1707  -17.4912 C   0  0  0  0  0  0  0  0  0  0  0  0
  -14.7934    0.5817  -13.4013 O   0  0  0  0  0  0  0  0  0  0  0  0
  -15.0833    1.3437  -14.5169 C   0  0  0  0  0  0  0  0  0  0  0  0
  -14.1102    1.7936  -15.4107 C   0  0  0  0  0  0  0  0  0  0  0  0
  -14.4927    2.5505  -16.4984 C   0  0  0  0  0  0  0  0  0  0  0  0
  -15.7482    2.9466  -16.7616 N   0  0  0  0  0  0  0  0  0  0  0  0
  -16.6940    2.5473  -15.8699 C   0  0  0  0  0  0  0  0  0  0  0  0
  -18.0769    2.8706  -15.9573 C   0  0  0  0  0  0  0  0  0  0  0  0
  -18.8257    2.3096  -14.9431 C   0  0  0  0  0  0  0  0  0  0  0  0
  -17.8358    1.4283  -13.8605 S   0  0  0  0  0  0  0  0  0  0  0  0
  -16.4057    1.7575  -14.7565 C   0  0  0  0  0  0  0  0  0  0  0  0
  -20.2693    2.4180  -14.7711 C   0  0  0  0  0  0  0  0  0  0  0  0
  -20.8843    3.4565  -14.9956 O   0  0  0  0  0  0  0  0  0  0  0  0
  -20.9034    1.2752  -14.3347 N   0  0  0  0  0  0  0  0  0  0  0  0
  -20.3341    0.4626  -14.1326 H   0  0  0  0  0  0  0  0  0  0  0  0
  -22.3292    1.2059  -14.0895 C   0  0  0  0  0  0  0  0  0  0  0  0
  -22.7697   -0.1998  -13.6939 C   0  0  0  0  0  0  0  0  0  0  0  0
  -22.5441   -0.4613  -12.2055 C   0  0  0  0  0  0  0  0  0  0  0  0
  -23.1197   -1.7440  -11.8148 N   0  0  0  0  0  0  0  0  0  0  0  0
  -24.1300   -1.7195  -11.9414 H   0  0  0  0  0  0  0  0  0  0  0  0
  -22.9638   -1.8833  -10.8163 H   0  0  0  0  0  0  0  0  0  0  0  0
 14 15  1  0  0  0
 15 16  1  0  0  0
 15 21  2  0  0  0
 16 17  2  0  0  0
 17 18  1  0  0  0
 18 19  1  0  0  0
 18 20  2  0  0  0
 20  8  1  0  0  0
 20 21  1  0  0  0
  8  9  1  0  0  0
  8 12  1  0  0  0
  9 10  2  0  0  0
  9 11  1  0  0  0
 11  1  1  0  0  0
 11 13  1  0  0  0
  1  2  1  0  0  0
  1  6  2  0  0  0
  2  3  2  0  0  0
  3  4  1  0  0  0
  4 22  1  0  0  0
  4  5  2  0  0  0
 22 23  1  0  0  0
 23 24  1  0  0  0
 23 31  2  0  0  0
 24 25  2  0  0  0
 25 26  1  0  0  0
 26 27  2  0  0  0
 27 28  1  0  0  0
 27 31  1  0  0  0
 28 29  2  0  0  0
 29 32  1  0  0  0
 29 30  1  0  0  0
 32 33  2  0  0  0
 32 34  1  0  0  0
 34 36  1  0  0  0
 34 35  1  0  0  0
 36 37  1  0  0  0
 37 38  1  0  0  0
 38 39  1  0  0  0
 39 40  1  0  0  0
 39 41  1  0  0  0
 30 31  1  0  0  0
  5  6  1  0  0  0
  6  7  1  0  0  0
M  END
> <minimizedAffinity>
-8.29474

$$$$
