CHEMBL491872


 28 31  0  0  0  0  0  0  0  0999 V2000
  -28.7480   -1.8607   -6.3317 C   0  0  0  0  0  0  0  0  0  0  0  0
  -29.4025   -1.1939   -5.2713 C   0  0  0  0  0  0  0  0  0  0  0  0
  -29.3753    0.1929   -5.1524 C   0  0  0  0  0  0  0  0  0  0  0  0
  -28.7060    0.9415   -6.1049 C   0  0  0  0  0  0  0  0  0  0  0  0
  -28.0648    0.3025   -7.1689 C   0  0  0  0  0  0  0  0  0  0  0  0
  -28.0273   -1.1030   -7.2939 C   0  0  0  0  0  0  0  0  0  0  0  0
  -29.2067   -5.4269   -6.6946 N   0  0  0  0  0  0  0  0  0  0  0  0
  -29.4473   -4.1625   -7.1858 C   0  0  0  0  0  0  0  0  0  0  0  0
  -28.8202   -3.3159   -6.3008 C   0  0  0  0  0  0  0  0  0  0  0  0
  -28.2801   -4.0615   -5.2860 N   0  0  0  0  0  0  0  0  0  0  0  0
  -28.5267   -5.3404   -5.5294 N   0  0  0  0  0  0  0  0  0  0  0  0
  -30.7129  -10.6674   -9.0749 Cl  0  0  0  0  0  0  0  0  0  0  0  0
  -30.3208   -9.1495   -8.3522 C   0  0  0  0  0  0  0  0  0  0  0  0
  -29.0307   -8.6505   -8.5581 C   0  0  0  0  0  0  0  0  0  0  0  0
  -28.6518   -7.4184   -8.0118 C   0  0  0  0  0  0  0  0  0  0  0  0
  -29.5659   -6.6796   -7.2513 C   0  0  0  0  0  0  0  0  0  0  0  0
  -30.8579   -7.1928   -7.0292 C   0  0  0  0  0  0  0  0  0  0  0  0
  -31.2334   -8.4207   -7.5869 C   0  0  0  0  0  0  0  0  0  0  0  0
  -32.8439   -8.9749   -7.2957 Cl  0  0  0  0  0  0  0  0  0  0  0  0
  -27.3915   -1.6989   -8.4098 N   0  0  0  0  0  0  0  0  0  0  0  0
  -26.4612   -1.3133   -8.5422 H   0  0  0  0  0  0  0  0  0  0  0  0
  -28.1094   -1.6939   -9.6825 C   0  0  0  0  0  0  0  0  0  0  0  0
  -27.1233   -1.6187  -10.8211 C   0  0  0  0  0  0  0  0  0  0  0  0
  -25.7561   -1.4622  -10.5676 C   0  0  0  0  0  0  0  0  0  0  0  0
  -24.8825   -1.4108  -11.6410 C   0  0  0  0  0  0  0  0  0  0  0  0
  -25.2730   -1.5020  -12.9298 N   0  0  0  0  0  0  0  0  0  0  0  0
  -26.5946   -1.6603  -13.1544 C   0  0  0  0  0  0  0  0  0  0  0  0
  -27.5463   -1.7233  -12.1489 C   0  0  0  0  0  0  0  0  0  0  0  0
 12 13  1  0  0  0
 13 14  1  0  0  0
 13 18  2  0  0  0
 14 15  2  0  0  0
 15 16  1  0  0  0
 16  7  1  0  0  0
 16 17  2  0  0  0
  7  8  1  0  0  0
  7 11  1  0  0  0
  8  9  2  0  0  0
  9  1  1  0  0  0
  9 10  1  0  0  0
  1  2  1  0  0  0
  1  6  2  0  0  0
  2  3  2  0  0  0
  3  4  1  0  0  0
  4  5  2  0  0  0
  5  6  1  0  0  0
  6 20  1  0  0  0
 20 22  1  0  0  0
 20 21  1  0  0  0
 22 23  1  0  0  0
 23 24  1  0  0  0
 23 28  2  0  0  0
 24 25  2  0  0  0
 25 26  1  0  0  0
 26 27  2  0  0  0
 27 28  1  0  0  0
 10 11  2  0  0  0
 17 18  1  0  0  0
 18 19  1  0  0  0
M  END
> <minimizedAffinity>
-9.22304

$$$$
