CHEMBL2022711


 42 47  0  0  0  0  0  0  0  0999 V2000
  -30.9073   -9.1993   -8.6819 C   0  0  0  0  0  0  0  0  0  0  0  0
  -30.4558   -8.6913   -7.3443 C   0  0  0  0  0  0  0  0  0  0  0  0
  -29.3108   -9.1341   -6.8054 C   0  0  0  0  0  0  0  0  0  0  0  0
  -28.9441   -8.6901   -5.5529 N   0  0  0  0  0  0  0  0  0  0  0  0
  -27.8370   -8.9187   -4.7725 C   0  0  0  0  0  0  0  0  0  0  0  0
  -28.1209   -8.2695   -3.5823 C   0  0  0  0  0  0  0  0  0  0  0  0
  -29.3375   -7.6094   -3.6331 N   0  0  0  0  0  0  0  0  0  0  0  0
  -29.7820   -7.8644   -4.8450 C   0  0  0  0  0  0  0  0  0  0  0  0
  -30.9897   -7.3527   -5.5028 C   0  0  0  0  0  0  0  0  0  0  0  0
  -31.2692   -7.7669   -6.7232 N   0  0  0  0  0  0  0  0  0  0  0  0
  -26.6135   -9.6871   -5.1221 C   0  0  0  0  0  0  0  0  0  0  0  0
  -25.3804   -9.7928   -4.4399 C   0  0  0  0  0  0  0  0  0  0  0  0
  -24.4807  -10.5223   -5.1023 N   0  0  0  0  0  0  0  0  0  0  0  0
  -25.1648  -10.9313   -6.1950 N   0  0  0  0  0  0  0  0  0  0  0  0
  -26.4566  -10.4927   -6.2262 C   0  0  0  0  0  0  0  0  0  0  0  0
  -24.4759  -11.7370   -7.1821 C   0  0  0  0  0  0  0  0  0  0  0  0
  -25.1486  -11.6877   -8.5287 C   0  0  0  0  0  0  0  0  0  0  0  0
  -24.5946  -12.1862   -9.5092 O   0  0  0  0  0  0  0  0  0  0  0  0
  -26.3422  -10.9778   -8.5902 N   0  0  0  0  0  0  0  0  0  0  0  0
  -26.4835  -10.2516   -7.8900 H   0  0  0  0  0  0  0  0  0  0  0  0
  -26.9981  -10.7914   -9.8284 C   0  0  0  0  0  0  0  0  0  0  0  0
  -26.5645   -9.8370  -10.7480 C   0  0  0  0  0  0  0  0  0  0  0  0
  -27.3394   -9.6131  -11.8739 C   0  0  0  0  0  0  0  0  0  0  0  0
  -28.4929  -10.2691  -12.1334 N   0  0  0  0  0  0  0  0  0  0  0  0
  -28.8702  -11.2123  -11.2367 C   0  0  0  0  0  0  0  0  0  0  0  0
  -28.1432  -11.5278  -10.1045 C   0  0  0  0  0  0  0  0  0  0  0  0
  -28.5861  -12.4524   -9.2404 F   0  0  0  0  0  0  0  0  0  0  0  0
  -31.8381   -6.4661   -4.8791 N   0  0  0  0  0  0  0  0  0  0  0  0
  -32.7883   -6.8008   -4.7508 H   0  0  0  0  0  0  0  0  0  0  0  0
  -31.4960   -5.2758   -4.3045 C   0  0  0  0  0  0  0  0  0  0  0  0
  -30.7443   -4.2299   -4.8183 C   0  0  0  0  0  0  0  0  0  0  0  0
  -30.4550   -3.2369   -3.8173 C   0  0  0  0  0  0  0  0  0  0  0  0
  -31.0562   -3.4370   -2.6395 N   0  0  0  0  0  0  0  0  0  0  0  0
  -31.8888   -4.8664   -2.6847 S   0  0  0  0  0  0  0  0  0  0  0  0
  -29.4341   -2.1190   -3.9254 C   0  0  0  0  0  0  0  0  0  0  0  0
  -28.9620   -1.8062   -5.2915 N   0  0  0  0  0  0  0  0  0  0  0  0
  -27.5667   -1.3176   -5.2630 C   0  0  0  0  0  0  0  0  0  0  0  0
  -27.3821    0.1047   -4.7113 C   0  0  0  0  0  0  0  0  0  0  0  0
  -28.3447    1.1174   -5.3281 C   0  0  0  0  0  0  0  0  0  0  0  0
  -29.7768    0.5782   -5.4169 C   0  0  0  0  0  0  0  0  0  0  0  0
  -30.6519    1.5187   -6.2454 C   0  0  0  0  0  0  0  0  0  0  0  0
  -29.7915   -0.8353   -6.0196 C   0  0  0  0  0  0  0  0  0  0  0  0
  1  2  1  0  0  0
  2  3  2  0  0  0
  2 10  1  0  0  0
  3  4  1  0  0  0
  4  5  1  0  0  0
  4  8  1  0  0  0
  5 11  1  0  0  0
  5  6  2  0  0  0
 11 12  1  0  0  0
 11 15  2  0  0  0
 12 13  2  0  0  0
 13 14  1  0  0  0
 14 16  1  0  0  0
 14 15  1  0  0  0
 16 17  1  0  0  0
 17 18  2  0  0  0
 17 19  1  0  0  0
 19 21  1  0  0  0
 19 20  1  0  0  0
 21 22  1  0  0  0
 21 26  2  0  0  0
 22 23  2  0  0  0
 23 24  1  0  0  0
 24 25  2  0  0  0
 25 26  1  0  0  0
 26 27  1  0  0  0
  6  7  1  0  0  0
  7  8  2  0  0  0
  8  9  1  0  0  0
  9 28  1  0  0  0
  9 10  2  0  0  0
 28 30  1  0  0  0
 28 29  1  0  0  0
 30 31  2  0  0  0
 30 34  1  0  0  0
 31 32  1  0  0  0
 32 35  1  0  0  0
 32 33  2  0  0  0
 35 36  1  0  0  0
 36 37  1  0  0  0
 36 42  1  0  0  0
 37 38  1  0  0  0
 38 39  1  0  0  0
 39 40  1  0  0  0
 40 41  1  0  0  0
 40 42  1  0  0  0
 33 34  1  0  0  0
M  END
> <minimizedAffinity>
-7.80409

$$$$
