CHEMBL3963403


 29 32  0  0  0  0  0  0  0  0999 V2000
  -27.8515   -2.0628   -8.3362 C   0  0  0  0  0  0  0  0  0  0  0  0
  -28.5923   -3.1168   -8.5564 N   0  0  0  0  0  0  0  0  0  0  0  0
  -27.9325   -1.1434   -7.1339 C   0  0  0  0  0  0  0  0  0  0  0  0
  -28.4421    0.1590   -7.2431 C   0  0  0  0  0  0  0  0  0  0  0  0
  -28.5731    0.9777   -6.1160 C   0  0  0  0  0  0  0  0  0  0  0  0
  -28.2276    0.4986   -4.8568 C   0  0  0  0  0  0  0  0  0  0  0  0
  -27.6956   -0.7782   -4.7297 C   0  0  0  0  0  0  0  0  0  0  0  0
  -27.5137   -1.5742   -5.8642 C   0  0  0  0  0  0  0  0  0  0  0  0
  -27.1022   -1.6887  -10.6856 C   0  0  0  0  0  0  0  0  0  0  0  0
  -26.8189   -1.7073   -9.3732 C   0  0  0  0  0  0  0  0  0  0  0  0
  -23.4553   -0.4044  -14.7563 F   0  0  0  0  0  0  0  0  0  0  0  0
  -24.3161   -0.7085  -13.7767 C   0  0  0  0  0  0  0  0  0  0  0  0
  -24.0932   -0.2238  -12.4944 C   0  0  0  0  0  0  0  0  0  0  0  0
  -24.9918   -0.5408  -11.4710 C   0  0  0  0  0  0  0  0  0  0  0  0
  -26.1243   -1.3252  -11.7307 C   0  0  0  0  0  0  0  0  0  0  0  0
  -26.3164   -1.8224  -13.0299 C   0  0  0  0  0  0  0  0  0  0  0  0
  -25.4166   -1.5080  -14.0532 C   0  0  0  0  0  0  0  0  0  0  0  0
  -29.5402   -3.4488   -7.6504 N   0  0  0  0  0  0  0  0  0  0  0  0
  -30.5077   -3.1900   -7.8481 H   0  0  0  0  0  0  0  0  0  0  0  0
  -29.5243   -4.7040   -7.0074 C   0  0  0  0  0  0  0  0  0  0  0  0
  -28.9103   -5.6953   -7.7034 N   0  0  0  0  0  0  0  0  0  0  0  0
  -28.8261   -6.9583   -7.2037 N   0  0  0  0  0  0  0  0  0  0  0  0
  -29.3512   -7.2140   -5.9912 C   0  0  0  0  0  0  0  0  0  0  0  0
  -30.0160   -6.2619   -5.2298 C   0  0  0  0  0  0  0  0  0  0  0  0
  -30.5505   -6.5771   -3.9650 C   0  0  0  0  0  0  0  0  0  0  0  0
  -31.2399   -5.6208   -3.2209 C   0  0  0  0  0  0  0  0  0  0  0  0
  -31.4338   -4.3533   -3.7450 C   0  0  0  0  0  0  0  0  0  0  0  0
  -30.9114   -4.0387   -4.9999 C   0  0  0  0  0  0  0  0  0  0  0  0
  -30.1498   -4.9647   -5.7612 C   0  0  0  0  0  0  0  0  0  0  0  0
 11 12  1  0  0  0
 12 13  1  0  0  0
 12 17  2  0  0  0
 13 14  2  0  0  0
 14 15  1  0  0  0
 15  9  1  0  0  0
 15 16  2  0  0  0
  9 10  2  0  0  0
 10  1  1  0  0  0
  1  2  2  0  0  0
  1  3  1  0  0  0
  2 18  1  0  0  0
 18 20  1  0  0  0
 18 19  1  0  0  0
 20 21  1  0  0  0
 20 29  2  0  0  0
 21 22  2  0  0  0
 22 23  1  0  0  0
 23 24  2  0  0  0
 24 25  1  0  0  0
 24 29  1  0  0  0
 25 26  2  0  0  0
 26 27  1  0  0  0
 27 28  2  0  0  0
 28 29  1  0  0  0
  3  4  1  0  0  0
  3  8  2  0  0  0
  4  5  2  0  0  0
  5  6  1  0  0  0
  6  7  2  0  0  0
  7  8  1  0  0  0
 16 17  1  0  0  0
M  END
> <minimizedAffinity>
-10.60113

$$$$
