CHEMBL3706823


 37 40  0  0  0  0  0  0  0  0999 V2000
  -27.9762   -2.0741  -10.2241 N   0  0  0  0  0  0  0  0  0  0  0  0
  -28.8179   -1.7081  -10.6721 H   0  0  0  0  0  0  0  0  0  0  0  0
  -28.5771   -5.0083   -6.0693 C   0  0  0  0  0  0  0  0  0  0  0  0
  -28.3294   -3.6705   -5.6843 C   0  0  0  0  0  0  0  0  0  0  0  0
  -28.1334   -2.6330   -6.5822 C   0  0  0  0  0  0  0  0  0  0  0  0
  -27.8631   -1.3989   -6.1262 N   0  0  0  0  0  0  0  0  0  0  0  0
  -27.6545   -0.4512   -7.0368 C   0  0  0  0  0  0  0  0  0  0  0  0
  -27.7040   -0.6042   -8.3675 N   0  0  0  0  0  0  0  0  0  0  0  0
  -27.9807   -1.8446   -8.8228 C   0  0  0  0  0  0  0  0  0  0  0  0
  -28.2022   -2.9193   -7.9447 C   0  0  0  0  0  0  0  0  0  0  0  0
  -28.4583   -4.2550   -8.3477 C   0  0  0  0  0  0  0  0  0  0  0  0
  -28.6674   -5.2987   -7.4361 C   0  0  0  0  0  0  0  0  0  0  0  0
  -28.7769   -6.4921   -8.0885 O   0  0  0  0  0  0  0  0  0  0  0  0
  -29.8083   -7.4067   -7.7532 C   0  0  0  0  0  0  0  0  0  0  0  0
  -28.6315   -5.8295   -4.9685 O   0  0  0  0  0  0  0  0  0  0  0  0
  -29.4623   -5.4270   -3.8991 C   0  0  0  0  0  0  0  0  0  0  0  0
  -30.9115   -5.8664   -4.0406 C   0  0  0  0  0  0  0  0  0  0  0  0
  -31.0773   -3.6512   -3.1898 C   0  0  0  0  0  0  0  0  0  0  0  0
  -31.6752   -4.6570   -3.9832 O   0  0  0  0  0  0  0  0  0  0  0  0
  -26.8746   -1.9300  -11.0612 C   0  0  0  0  0  0  0  0  0  0  0  0
  -25.5946   -1.7999  -10.7042 C   0  0  0  0  0  0  0  0  0  0  0  0
  -24.5068   -1.5438  -11.6576 C   0  0  0  0  0  0  0  0  0  0  0  0
  -23.3507   -1.5491  -11.2533 O   0  0  0  0  0  0  0  0  0  0  0  0
  -24.8825   -1.2389  -13.0703 C   0  0  0  0  0  0  0  0  0  0  0  0
  -26.1442   -1.4763  -13.4601 C   0  0  0  0  0  0  0  0  0  0  0  0
  -26.6576   -1.1856  -15.0916 Cl  0  0  0  0  0  0  0  0  0  0  0  0
  -27.1885   -1.9676  -12.5284 C   0  0  0  0  0  0  0  0  0  0  0  0
  -28.2976   -2.3456  -12.8983 O   0  0  0  0  0  0  0  0  0  0  0  0
  -23.9884   -0.6849  -13.9717 O   0  0  0  0  0  0  0  0  0  0  0  0
  -22.5940   -0.7317  -13.6706 C   0  0  0  0  0  0  0  0  0  0  0  0
  -21.9753    0.6048  -14.0127 C   0  0  0  0  0  0  0  0  0  0  0  0
  -22.6609    1.8073  -13.7650 C   0  0  0  0  0  0  0  0  0  0  0  0
  -22.1276    3.0330  -14.1639 C   0  0  0  0  0  0  0  0  0  0  0  0
  -20.9046    3.0722  -14.8276 C   0  0  0  0  0  0  0  0  0  0  0  0
  -20.2223    1.8867  -15.0743 C   0  0  0  0  0  0  0  0  0  0  0  0
  -19.0496    1.9256  -15.7205 F   0  0  0  0  0  0  0  0  0  0  0  0
  -20.7427    0.6585  -14.6767 C   0  0  0  0  0  0  0  0  0  0  0  0
 18 19  1  0  0  0
 19 17  1  0  0  0
 17 16  1  0  0  0
 16 15  1  0  0  0
 15  3  1  0  0  0
  3  4  1  0  0  0
  3 12  2  0  0  0
  4  5  2  0  0  0
  5  6  1  0  0  0
  5 10  1  0  0  0
  6  7  2  0  0  0
  7  8  1  0  0  0
  8  9  2  0  0  0
  9  1  1  0  0  0
  9 10  1  0  0  0
  1 20  1  0  0  0
  1  2  1  0  0  0
 20 21  2  0  0  0
 20 27  1  0  0  0
 21 22  1  0  0  0
 22 23  2  0  0  0
 22 24  1  0  0  0
 24 29  1  0  0  0
 24 25  2  0  0  0
 29 30  1  0  0  0
 30 31  1  0  0  0
 31 32  1  0  0  0
 31 37  2  0  0  0
 32 33  2  0  0  0
 33 34  1  0  0  0
 34 35  2  0  0  0
 35 36  1  0  0  0
 35 37  1  0  0  0
 25 26  1  0  0  0
 25 27  1  0  0  0
 27 28  2  0  0  0
 10 11  2  0  0  0
 11 12  1  0  0  0
 12 13  1  0  0  0
 13 14  1  0  0  0
M  END
> <minimizedAffinity>
-9.79769

$$$$
