CHEMBL3966941


 37 41  0  0  0  0  0  0  0  0999 V2000
  -15.1029    2.7436  -16.0013 N   0  0  0  0  0  0  0  0  0  0  0  0
  -16.4928    2.4965  -15.5703 C   0  0  0  0  0  0  0  0  0  0  0  0
  -16.6450    1.2790  -14.9924 C   0  0  0  0  0  0  0  0  0  0  0  0
  -17.8929    0.8182  -14.7385 C   0  0  0  0  0  0  0  0  0  0  0  0
  -19.0260    1.5775  -15.1000 C   0  0  0  0  0  0  0  0  0  0  0  0
  -19.7862    0.6544  -15.5849 N   0  0  0  0  0  0  0  0  0  0  0  0
  -20.7733    0.3378  -14.7913 C   0  0  0  0  0  0  0  0  0  0  0  0
  -21.5375    1.2727  -14.2161 C   0  0  0  0  0  0  0  0  0  0  0  0
  -20.9323    2.6083  -14.4630 N   0  0  0  0  0  0  0  0  0  0  0  0
  -19.3168    2.8309  -14.9858 C   0  0  0  0  0  0  0  0  0  0  0  0
  -17.7659    3.3180  -15.5283 C   0  0  0  0  0  0  0  0  0  0  0  0
  -22.7916    0.3898  -13.5139 C   0  0  0  0  0  0  0  0  0  0  0  0
  -22.7399   -0.3063  -12.1702 C   0  0  0  0  0  0  0  0  0  0  0  0
  -23.7750   -1.0970  -11.8507 N   0  0  0  0  0  0  0  0  0  0  0  0
  -24.5904   -0.9892  -12.9050 N   0  0  0  0  0  0  0  0  0  0  0  0
  -25.8857   -1.6787  -12.8443 C   0  0  0  0  0  0  0  0  0  0  0  0
  -24.0363   -0.1450  -13.9097 C   0  0  0  0  0  0  0  0  0  0  0  0
  -14.7529    5.2790  -18.8112 C   0  0  0  0  0  0  0  0  0  0  0  0
  -13.7694    6.0993  -18.3028 C   0  0  0  0  0  0  0  0  0  0  0  0
  -13.1250    5.7371  -17.1258 C   0  0  0  0  0  0  0  0  0  0  0  0
  -13.5096    4.5775  -16.4335 C   0  0  0  0  0  0  0  0  0  0  0  0
  -14.5838    3.7867  -16.8403 C   0  0  0  0  0  0  0  0  0  0  0  0
  -15.0721    4.0851  -18.1375 C   0  0  0  0  0  0  0  0  0  0  0  0
  -15.0855    7.0974  -20.2505 C   0  0  0  0  0  0  0  0  0  0  0  0
  -15.3244    5.7216  -19.9759 O   0  0  0  0  0  0  0  0  0  0  0  0
  -12.1278    6.4670  -16.5344 O   0  0  0  0  0  0  0  0  0  0  0  0
  -12.0671    6.3208  -15.1204 C   0  0  0  0  0  0  0  0  0  0  0  0
  -14.0728    1.5842  -15.6265 C   0  0  0  0  0  0  0  0  0  0  0  0
  -13.7519    0.9171  -16.9540 C   0  0  0  0  0  0  0  0  0  0  0  0
  -13.4765    0.3447  -18.0927 C   0  0  0  0  0  0  0  0  0  0  0  0
  -13.1573   -0.2899  -19.3950 C   0  0  0  0  0  0  0  0  0  0  0  0
  -13.9000   -1.5086  -19.4925 O   0  0  0  0  0  0  0  0  0  0  0  0
  -11.6747   -0.5876  -19.5318 C   0  0  0  0  0  0  0  0  0  0  0  0
  -11.3520   -0.4116  -21.0061 C   0  0  0  0  0  0  0  0  0  0  0  0
  -12.5383    0.0253  -21.6709 O   0  0  0  0  0  0  0  0  0  0  0  0
  -13.4318    0.5358  -20.6543 C   0  0  0  0  0  0  0  0  0  0  0  0
  -13.7958   -1.9724  -18.6454 H   0  0  0  0  0  0  0  0  0  0  0  0
 24 25  1  0  0  0
 25 18  1  0  0  0
 18 19  1  0  0  0
 18 23  2  0  0  0
 19 20  2  0  0  0
 20 26  1  0  0  0
 20 21  1  0  0  0
 26 27  1  0  0  0
 21 22  2  0  0  0
 22  1  1  0  0  0
 22 23  1  0  0  0
  1 28  1  0  0  0
  1  2  1  0  0  0
 28 29  1  0  0  0
 29 30  3  0  0  0
 30 31  1  0  0  0
 31 32  1  0  0  0
 31 33  1  0  0  0
 31 36  1  0  0  0
 32 37  1  0  0  0
 33 34  1  0  0  0
 34 35  1  0  0  0
 35 36  1  0  0  0
  2  3  1  0  0  0
  2 11  2  0  0  0
  3  4  2  0  0  0
  4  5  1  0  0  0
  5  6  1  0  0  0
  5 10  2  0  0  0
  6  7  2  0  0  0
  7  8  1  0  0  0
  8 12  1  0  0  0
  8  9  2  0  0  0
 12 13  1  0  0  0
 12 17  2  0  0  0
 13 14  2  0  0  0
 14 15  1  0  0  0
 15 16  1  0  0  0
 15 17  1  0  0  0
  9 10  1  0  0  0
 10 11  1  0  0  0
M  END
> <minimizedAffinity>
-8.10454

$$$$
