CHEMBL200085


 44 48  0  0  0  0  0  0  0  0999 V2000
  -30.5619   -7.4982   -6.6592 C   0  0  0  0  0  0  0  0  0  0  0  0
  -29.7211   -8.5219   -7.1024 C   0  0  0  0  0  0  0  0  0  0  0  0
  -28.5437   -8.8622   -6.4014 C   0  0  0  0  0  0  0  0  0  0  0  0
  -27.7193   -9.9553   -6.7318 C   0  0  0  0  0  0  0  0  0  0  0  0
  -26.6768  -10.3190   -5.9674 N   0  0  0  0  0  0  0  0  0  0  0  0
  -26.4297   -9.5541   -4.8991 C   0  0  0  0  0  0  0  0  0  0  0  0
  -27.1205   -8.4680   -4.5191 N   0  0  0  0  0  0  0  0  0  0  0  0
  -28.1845   -8.1348   -5.2624 C   0  0  0  0  0  0  0  0  0  0  0  0
  -28.9820   -7.0476   -4.8946 C   0  0  0  0  0  0  0  0  0  0  0  0
  -30.1561   -6.6978   -5.5860 C   0  0  0  0  0  0  0  0  0  0  0  0
  -32.7382   -8.3200   -7.1323 C   0  0  0  0  0  0  0  0  0  0  0  0
  -31.7720   -7.2773   -7.2536 O   0  0  0  0  0  0  0  0  0  0  0  0
  -27.9972  -10.6939   -7.9062 N   0  0  0  0  0  0  0  0  0  0  0  0
  -28.6923  -11.4148   -7.7304 H   0  0  0  0  0  0  0  0  0  0  0  0
  -27.9920  -10.2526   -9.2455 C   0  0  0  0  0  0  0  0  0  0  0  0
  -26.8678   -9.6490   -9.8206 C   0  0  0  0  0  0  0  0  0  0  0  0
  -26.8089   -9.4155  -11.1986 C   0  0  0  0  0  0  0  0  0  0  0  0
  -27.8826   -9.7730  -12.0126 C   0  0  0  0  0  0  0  0  0  0  0  0
  -27.7640   -9.5714  -13.7168 Cl  0  0  0  0  0  0  0  0  0  0  0  0
  -29.0319  -10.3251  -11.4596 C   0  0  0  0  0  0  0  0  0  0  0  0
  -29.0709  -10.5656  -10.0887 C   0  0  0  0  0  0  0  0  0  0  0  0
  -30.1667  -11.1392   -9.5651 F   0  0  0  0  0  0  0  0  0  0  0  0
  -30.8457   -5.6280   -5.0542 O   0  0  0  0  0  0  0  0  0  0  0  0
  -30.0448   -4.6405   -4.3928 C   0  0  0  0  0  0  0  0  0  0  0  0
  -29.9717   -3.3414   -5.2097 C   0  0  0  0  0  0  0  0  0  0  0  0
  -28.8667   -3.3751   -6.1621 N   0  0  0  0  0  0  0  0  0  0  0  0
  -29.1029   -3.6422   -7.4909 C   0  0  0  0  0  0  0  0  0  0  0  0
  -30.1901   -4.0422   -7.9090 O   0  0  0  0  0  0  0  0  0  0  0  0
  -27.9874   -2.9525   -5.8890 H   0  0  0  0  0  0  0  0  0  0  0  0
  -27.9360   -3.3689   -8.4216 C   0  0  0  0  0  0  0  0  0  0  0  0
  -27.9151   -1.8802   -8.7700 C   0  0  0  0  0  0  0  0  0  0  0  0
  -27.6585   -1.6186  -10.2543 C   0  0  0  0  0  0  0  0  0  0  0  0
  -26.1495   -1.5972  -10.5319 C   0  0  0  0  0  0  0  0  0  0  0  0
  -25.7500   -0.6681  -11.6863 C   0  0  0  0  0  0  0  0  0  0  0  0
  -25.9845   -1.5596  -13.2601 S   0  0  0  0  0  0  0  0  0  0  0  0
  -24.3471   -2.3341  -13.1996 C   0  0  0  0  0  0  0  0  0  0  0  0
  -23.4341   -1.4079  -12.3865 C   0  0  0  0  0  0  0  0  0  0  0  0
  -22.5232   -0.6637  -13.2310 N   0  0  0  0  0  0  0  0  0  0  0  0
  -22.9361    0.6404  -13.3988 C   0  0  0  0  0  0  0  0  0  0  0  0
  -22.4543    1.4484  -14.1694 O   0  0  0  0  0  0  0  0  0  0  0  0
  -23.9863    0.8671  -12.5388 N   0  0  0  0  0  0  0  0  0  0  0  0
  -24.2667   -0.2942  -11.7140 C   0  0  0  0  0  0  0  0  0  0  0  0
  -21.8236   -1.0515  -13.8502 H   0  0  0  0  0  0  0  0  0  0  0  0
  -24.3971    1.7876  -12.4587 H   0  0  0  0  0  0  0  0  0  0  0  0
 11 12  1  0  0  0
 12  1  1  0  0  0
  1  2  1  0  0  0
  1 10  2  0  0  0
  2  3  2  0  0  0
  3  4  1  0  0  0
  3  8  1  0  0  0
  4 13  1  0  0  0
  4  5  2  0  0  0
 13 15  1  0  0  0
 13 14  1  0  0  0
 15 16  1  0  0  0
 15 21  2  0  0  0
 16 17  2  0  0  0
 17 18  1  0  0  0
 18 19  1  0  0  0
 18 20  2  0  0  0
 20 21  1  0  0  0
 21 22  1  0  0  0
  5  6  1  0  0  0
  6  7  2  0  0  0
  7  8  1  0  0  0
  8  9  2  0  0  0
  9 10  1  0  0  0
 10 23  1  0  0  0
 23 24  1  0  0  0
 24 25  1  0  0  0
 25 26  1  0  0  0
 26 27  1  0  0  0
 26 29  1  0  0  0
 27 28  2  0  0  0
 27 30  1  0  0  0
 30 31  1  0  0  0
 31 32  1  0  0  0
 32 33  1  0  0  0
 33 34  1  0  0  0
 34 35  1  0  0  0
 34 42  1  0  0  0
 35 36  1  0  0  0
 36 37  1  0  0  0
 37 38  1  0  0  0
 37 42  1  0  0  0
 38 39  1  0  0  0
 38 43  1  0  0  0
 39 40  2  0  0  0
 39 41  1  0  0  0
 41 42  1  0  0  0
 41 44  1  0  0  0
M  END
> <minimizedAffinity>
-8.77240

$$$$
