CHEMBL3911573


 40 45  0  0  0  0  0  0  0  0999 V2000
  -14.2579    3.8972  -16.5680 C   0  0  0  0  0  0  0  0  0  0  0  0
  -13.9001    2.9607  -15.6269 C   0  0  0  0  0  0  0  0  0  0  0  0
  -14.7963    2.0213  -15.1730 C   0  0  0  0  0  0  0  0  0  0  0  0
  -16.1183    2.0479  -15.4731 C   0  0  0  0  0  0  0  0  0  0  0  0
  -16.6811    0.9287  -15.0222 N   0  0  0  0  0  0  0  0  0  0  0  0
  -17.9949    0.8692  -14.9513 C   0  0  0  0  0  0  0  0  0  0  0  0
  -18.7865    1.9500  -15.2292 C   0  0  0  0  0  0  0  0  0  0  0  0
  -18.2219    3.0815  -15.8791 N   0  0  0  0  0  0  0  0  0  0  0  0
  -16.7605    3.1431  -16.0762 C   0  0  0  0  0  0  0  0  0  0  0  0
  -15.7037    4.0645  -16.7474 C   0  0  0  0  0  0  0  0  0  0  0  0
  -20.1553    1.7772  -14.6149 C   0  0  0  0  0  0  0  0  0  0  0  0
  -21.1229    2.7478  -14.2169 C   0  0  0  0  0  0  0  0  0  0  0  0
  -22.3816    2.2842  -14.1496 N   0  0  0  0  0  0  0  0  0  0  0  0
  -22.2970    1.0106  -14.5928 N   0  0  0  0  0  0  0  0  0  0  0  0
  -21.0000    0.6917  -14.9406 C   0  0  0  0  0  0  0  0  0  0  0  0
  -23.5176    0.1636  -14.5956 C   0  0  0  0  0  0  0  0  0  0  0  0
  -23.9403   -0.2521  -13.1519 C   0  0  0  0  0  0  0  0  0  0  0  0
  -23.8312    0.8877  -12.2778 O   0  0  0  0  0  0  0  0  0  0  0  0
  -23.0182   -1.3880  -12.6861 C   0  0  0  0  0  0  0  0  0  0  0  0
  -23.3388   -1.8529  -11.2765 C   0  0  0  0  0  0  0  0  0  0  0  0
  -24.7187   -2.3268  -11.1882 N   0  0  0  0  0  0  0  0  0  0  0  0
  -25.6520   -1.2545  -11.5504 C   0  0  0  0  0  0  0  0  0  0  0  0
  -25.4037   -0.7397  -12.9873 C   0  0  0  0  0  0  0  0  0  0  0  0
  -23.1218    1.4737  -12.6234 H   0  0  0  0  0  0  0  0  0  0  0  0
  -24.8973   -2.6069  -10.2223 H   0  0  0  0  0  0  0  0  0  0  0  0
  -13.1091    4.4992  -17.2825 N   0  0  0  0  0  0  0  0  0  0  0  0
  -12.9476    8.2494  -17.9548 C   0  0  0  0  0  0  0  0  0  0  0  0
  -12.2362    8.7297  -16.8516 C   0  0  0  0  0  0  0  0  0  0  0  0
  -11.8328    7.8508  -15.8490 C   0  0  0  0  0  0  0  0  0  0  0  0
  -12.1355    6.4791  -15.9566 C   0  0  0  0  0  0  0  0  0  0  0  0
  -12.8475    5.9472  -17.0639 C   0  0  0  0  0  0  0  0  0  0  0  0
  -13.2270    6.8693  -18.0638 C   0  0  0  0  0  0  0  0  0  0  0  0
  -14.7762    8.9258  -19.3323 C   0  0  0  0  0  0  0  0  0  0  0  0
  -13.4026    9.0369  -18.9794 O   0  0  0  0  0  0  0  0  0  0  0  0
  -11.1257    8.2204  -14.7304 O   0  0  0  0  0  0  0  0  0  0  0  0
  -11.0074    7.2604  -13.6723 C   0  0  0  0  0  0  0  0  0  0  0  0
  -13.1341    4.1787  -18.7410 C   0  0  0  0  0  0  0  0  0  0  0  0
  -13.2457    2.7093  -19.1780 C   0  0  0  0  0  0  0  0  0  0  0  0
  -12.1840    1.7163  -18.7661 C   0  0  0  0  0  0  0  0  0  0  0  0
  -12.4679    1.9141  -20.2236 C   0  0  0  0  0  0  0  0  0  0  0  0
 33 34  1  0  0  0
 34 27  1  0  0  0
 27 28  1  0  0  0
 27 32  2  0  0  0
 28 29  2  0  0  0
 29 35  1  0  0  0
 29 30  1  0  0  0
 35 36  1  0  0  0
 30 31  2  0  0  0
 31 26  1  0  0  0
 31 32  1  0  0  0
 26 37  1  0  0  0
 26  1  1  0  0  0
 37 38  1  0  0  0
 38 39  1  0  0  0
 38 40  1  0  0  0
 39 40  1  0  0  0
  1  2  1  0  0  0
  1 10  2  0  0  0
  2  3  2  0  0  0
  3  4  1  0  0  0
  4  5  1  0  0  0
  4  9  2  0  0  0
  5  6  2  0  0  0
  6  7  1  0  0  0
  7 11  1  0  0  0
  7  8  2  0  0  0
 11 12  1  0  0  0
 11 15  2  0  0  0
 12 13  2  0  0  0
 13 14  1  0  0  0
 14 16  1  0  0  0
 14 15  1  0  0  0
 16 17  1  0  0  0
 17 18  1  0  0  0
 17 19  1  0  0  0
 17 23  1  0  0  0
 18 24  1  0  0  0
 19 20  1  0  0  0
 20 21  1  0  0  0
 21 22  1  0  0  0
 21 25  1  0  0  0
 22 23  1  0  0  0
  8  9  1  0  0  0
  9 10  1  0  0  0
M  END
> <minimizedAffinity>
-7.79318

$$$$
