CHEMBL3690508


 34 37  0  0  0  0  0  0  0  0999 V2000
  -18.8973    2.0397  -15.1973 C   0  0  0  0  0  0  0  0  0  0  0  0
  -19.4338    0.6731  -15.2192 C   0  0  0  0  0  0  0  0  0  0  0  0
  -20.6979    0.4310  -14.8474 C   0  0  0  0  0  0  0  0  0  0  0  0
  -21.4943    1.4751  -14.3733 N   0  0  0  0  0  0  0  0  0  0  0  0
  -22.7965    1.4784  -13.8872 C   0  0  0  0  0  0  0  0  0  0  0  0
  -23.0445    2.8232  -13.6365 C   0  0  0  0  0  0  0  0  0  0  0  0
  -21.9569    3.6135  -13.8915 N   0  0  0  0  0  0  0  0  0  0  0  0
  -21.0297    2.7851  -14.3201 C   0  0  0  0  0  0  0  0  0  0  0  0
  -19.6878    3.0380  -14.7356 C   0  0  0  0  0  0  0  0  0  0  0  0
  -23.6989    0.3262  -13.7340 C   0  0  0  0  0  0  0  0  0  0  0  0
  -24.1121   -0.3657  -14.8797 C   0  0  0  0  0  0  0  0  0  0  0  0
  -24.9836   -1.4463  -14.7831 C   0  0  0  0  0  0  0  0  0  0  0  0
  -25.4236   -1.8793  -13.5317 C   0  0  0  0  0  0  0  0  0  0  0  0
  -25.0122   -1.2337  -12.3672 C   0  0  0  0  0  0  0  0  0  0  0  0
  -24.1933   -0.1023  -12.4843 C   0  0  0  0  0  0  0  0  0  0  0  0
  -25.3755   -1.6760  -11.0684 N   0  0  0  0  0  0  0  0  0  0  0  0
  -26.6505   -1.6905  -10.5423 C   0  0  0  0  0  0  0  0  0  0  0  0
  -27.6813   -1.3475  -11.1038 O   0  0  0  0  0  0  0  0  0  0  0  0
  -26.6802   -2.1070   -9.2325 N   0  0  0  0  0  0  0  0  0  0  0  0
  -24.6351   -2.0293  -10.4802 H   0  0  0  0  0  0  0  0  0  0  0  0
  -25.9942   -2.7914   -8.9480 H   0  0  0  0  0  0  0  0  0  0  0  0
  -27.9866   -2.1437   -8.5556 C   0  0  0  0  0  0  0  0  0  0  0  0
  -28.4521   -3.5153   -8.0422 C   0  0  0  0  0  0  0  0  0  0  0  0
  -27.7132   -4.5281   -8.5519 F   0  0  0  0  0  0  0  0  0  0  0  0
  -28.3095   -3.5717   -6.6930 F   0  0  0  0  0  0  0  0  0  0  0  0
  -29.7498   -3.7579   -8.3157 F   0  0  0  0  0  0  0  0  0  0  0  0
  -16.4821    1.5231  -15.4160 C   0  0  0  0  0  0  0  0  0  0  0  0
  -17.5241    2.3544  -15.5920 C   0  0  0  0  0  0  0  0  0  0  0  0
  -14.0424    0.9891  -13.7053 C   0  0  0  0  0  0  0  0  0  0  0  0
  -14.0741    1.6315  -14.9982 N   0  0  0  0  0  0  0  0  0  0  0  0
  -12.9619    2.1032  -15.6415 C   0  0  0  0  0  0  0  0  0  0  0  0
  -13.2623    2.6488  -16.7949 N   0  0  0  0  0  0  0  0  0  0  0  0
  -14.6200    2.5215  -16.9054 C   0  0  0  0  0  0  0  0  0  0  0  0
  -15.1678    1.8900  -15.8009 C   0  0  0  0  0  0  0  0  0  0  0  0
 29 30  1  0  0  0
 30 31  1  0  0  0
 30 34  1  0  0  0
 31 32  2  0  0  0
 32 33  1  0  0  0
 33 34  2  0  0  0
 34 27  1  0  0  0
 27 28  2  0  0  0
 28  1  1  0  0  0
  1  2  1  0  0  0
  1  9  2  0  0  0
  2  3  2  0  0  0
  3  4  1  0  0  0
  4  5  1  0  0  0
  4  8  1  0  0  0
  5 10  1  0  0  0
  5  6  2  0  0  0
 10 11  1  0  0  0
 10 15  2  0  0  0
 11 12  2  0  0  0
 12 13  1  0  0  0
 13 14  2  0  0  0
 14 16  1  0  0  0
 14 15  1  0  0  0
 16 17  1  0  0  0
 16 20  1  0  0  0
 17 18  2  0  0  0
 17 19  1  0  0  0
 19 22  1  0  0  0
 19 21  1  0  0  0
 22 23  1  0  0  0
 23 24  1  0  0  0
 23 25  1  0  0  0
 23 26  1  0  0  0
  6  7  1  0  0  0
  7  8  2  0  0  0
  8  9  1  0  0  0
M  END
> <minimizedAffinity>
-9.91259

$$$$
