CHEMBL3775934


 25 27  0  0  0  0  0  0  0  0999 V2000
  -17.7854    2.3627  -15.4391 C   0  0  0  0  0  0  0  0  0  0  0  0
  -18.8701    3.2566  -15.3891 C   0  0  0  0  0  0  0  0  0  0  0  0
  -20.1294    2.8848  -14.9326 C   0  0  0  0  0  0  0  0  0  0  0  0
  -21.0751    3.8221  -14.8223 N   0  0  0  0  0  0  0  0  0  0  0  0
  -22.2505    3.4312  -14.3336 C   0  0  0  0  0  0  0  0  0  0  0  0
  -22.5698    2.1936  -13.9573 N   0  0  0  0  0  0  0  0  0  0  0  0
  -21.6215    1.2457  -14.0855 C   0  0  0  0  0  0  0  0  0  0  0  0
  -20.3434    1.5453  -14.5890 C   0  0  0  0  0  0  0  0  0  0  0  0
  -19.2957    0.6213  -14.7509 C   0  0  0  0  0  0  0  0  0  0  0  0
  -18.0113    1.0125  -15.1518 C   0  0  0  0  0  0  0  0  0  0  0  0
  -16.3919    4.2056  -15.9691 C   0  0  0  0  0  0  0  0  0  0  0  0
  -16.5301    2.7968  -15.7712 O   0  0  0  0  0  0  0  0  0  0  0  0
  -21.9199   -0.0945  -13.7056 N   0  0  0  0  0  0  0  0  0  0  0  0
  -21.1959   -0.4339  -13.0777 H   0  0  0  0  0  0  0  0  0  0  0  0
  -23.1858   -0.6265  -13.3762 C   0  0  0  0  0  0  0  0  0  0  0  0
  -23.5623   -0.8831  -12.0519 C   0  0  0  0  0  0  0  0  0  0  0  0
  -24.8029   -1.4360  -11.7537 C   0  0  0  0  0  0  0  0  0  0  0  0
  -25.1230   -1.7750  -10.4716 O   0  0  0  0  0  0  0  0  0  0  0  0
  -25.7307   -1.6694  -12.7539 C   0  0  0  0  0  0  0  0  0  0  0  0
  -25.3956   -1.3399  -14.0596 C   0  0  0  0  0  0  0  0  0  0  0  0
  -26.2881   -1.5420  -15.0382 F   0  0  0  0  0  0  0  0  0  0  0  0
  -24.1422   -0.8177  -14.3795 C   0  0  0  0  0  0  0  0  0  0  0  0
  -24.3131   -1.7139   -9.9350 H   0  0  0  0  0  0  0  0  0  0  0  0
  -17.1559   -0.0491  -15.1402 O   0  0  0  0  0  0  0  0  0  0  0  0
  -16.2277   -0.2448  -14.0900 C   0  0  0  0  0  0  0  0  0  0  0  0
 11 12  1  0  0  0
 12  1  1  0  0  0
  1  2  1  0  0  0
  1 10  2  0  0  0
  2  3  2  0  0  0
  3  4  1  0  0  0
  3  8  1  0  0  0
  4  5  2  0  0  0
  5  6  1  0  0  0
  6  7  2  0  0  0
  7 13  1  0  0  0
  7  8  1  0  0  0
 13 15  1  0  0  0
 13 14  1  0  0  0
 15 16  1  0  0  0
 15 22  2  0  0  0
 16 17  2  0  0  0
 17 18  1  0  0  0
 17 19  1  0  0  0
 18 23  1  0  0  0
 19 20  2  0  0  0
 20 21  1  0  0  0
 20 22  1  0  0  0
  8  9  2  0  0  0
  9 10  1  0  0  0
 10 24  1  0  0  0
 24 25  1  0  0  0
M  END
> <minimizedAffinity>
-8.56370

$$$$
