CHEMBL3109277


 33 36  0  0  0  0  0  0  0  0999 V2000
  -30.3942   -6.4549   -6.5723 C   0  0  0  0  0  0  0  0  0  0  0  0
  -29.8292   -6.5429   -5.3865 N   0  0  0  0  0  0  0  0  0  0  0  0
  -29.1590   -5.3676   -5.2353 C   0  0  0  0  0  0  0  0  0  0  0  0
  -29.3224   -4.5854   -6.3555 C   0  0  0  0  0  0  0  0  0  0  0  0
  -30.1379   -5.2754   -7.2172 O   0  0  0  0  0  0  0  0  0  0  0  0
  -28.8313   -3.2838   -6.7727 C   0  0  0  0  0  0  0  0  0  0  0  0
  -28.8180   -2.1949   -5.8965 C   0  0  0  0  0  0  0  0  0  0  0  0
  -28.3241   -0.9664   -6.3252 C   0  0  0  0  0  0  0  0  0  0  0  0
  -28.2948    0.4956   -5.1265 Br  0  0  0  0  0  0  0  0  0  0  0  0
  -27.8398   -0.8067   -7.6234 C   0  0  0  0  0  0  0  0  0  0  0  0
  -27.8363   -1.8782   -8.5323 C   0  0  0  0  0  0  0  0  0  0  0  0
  -28.3484   -3.1083   -8.0820 C   0  0  0  0  0  0  0  0  0  0  0  0
  -27.2573   -1.7264   -9.8826 C   0  0  0  0  0  0  0  0  0  0  0  0
  -28.0222   -1.7117  -11.0504 C   0  0  0  0  0  0  0  0  0  0  0  0
  -27.3802   -1.6313  -12.2855 C   0  0  0  0  0  0  0  0  0  0  0  0
  -25.9948   -1.5629  -12.3292 C   0  0  0  0  0  0  0  0  0  0  0  0
  -25.3065   -1.5670  -11.1304 C   0  0  0  0  0  0  0  0  0  0  0  0
  -25.9035   -1.6416   -9.9214 N   0  0  0  0  0  0  0  0  0  0  0  0
  -31.1273   -7.3513   -7.2536 N   0  0  0  0  0  0  0  0  0  0  0  0
  -32.0539   -7.0776   -7.5640 H   0  0  0  0  0  0  0  0  0  0  0  0
  -28.8999   -9.5913   -9.2543 C   0  0  0  0  0  0  0  0  0  0  0  0
  -29.7202  -10.7036   -9.4215 C   0  0  0  0  0  0  0  0  0  0  0  0
  -30.9867  -10.7227   -8.8287 C   0  0  0  0  0  0  0  0  0  0  0  0
  -31.4428   -9.6224   -8.0906 C   0  0  0  0  0  0  0  0  0  0  0  0
  -30.6257   -8.4760   -7.9510 C   0  0  0  0  0  0  0  0  0  0  0  0
  -29.3358   -8.5026   -8.5042 C   0  0  0  0  0  0  0  0  0  0  0  0
  -27.2636   -9.5551   -9.9469 S   0  0  0  0  0  0  0  0  0  0  0  0
  -26.4896  -10.5703   -9.2531 O   0  0  0  0  0  0  0  0  0  0  0  0
  -26.8364   -8.1684   -9.9479 O   0  0  0  0  0  0  0  0  0  0  0  0
  -26.8865   -9.0710  -12.6076 C   0  0  0  0  0  0  0  0  0  0  0  0
  -27.4654  -10.0910  -11.6419 C   0  0  0  0  0  0  0  0  0  0  0  0
  -32.6848   -9.5430   -7.5017 O   0  0  0  0  0  0  0  0  0  0  0  0
  -33.0556  -10.6285   -6.6556 C   0  0  0  0  0  0  0  0  0  0  0  0
 30 31  1  0  0  0
 31 27  1  0  0  0
 27 28  2  0  0  0
 27 29  2  0  0  0
 27 21  1  0  0  0
 21 22  1  0  0  0
 21 26  2  0  0  0
 22 23  2  0  0  0
 23 24  1  0  0  0
 24 32  1  0  0  0
 24 25  2  0  0  0
 32 33  1  0  0  0
 25 19  1  0  0  0
 25 26  1  0  0  0
 19  1  1  0  0  0
 19 20  1  0  0  0
  1  2  2  0  0  0
  1  5  1  0  0  0
  2  3  1  0  0  0
  3  4  2  0  0  0
  4  6  1  0  0  0
  4  5  1  0  0  0
  6  7  1  0  0  0
  6 12  2  0  0  0
  7  8  2  0  0  0
  8  9  1  0  0  0
  8 10  1  0  0  0
 10 11  2  0  0  0
 11 13  1  0  0  0
 11 12  1  0  0  0
 13 14  1  0  0  0
 13 18  2  0  0  0
 14 15  2  0  0  0
 15 16  1  0  0  0
 16 17  2  0  0  0
 17 18  1  0  0  0
M  END
> <minimizedAffinity>
-9.51783

$$$$
