CHEMBL1241241


 23 25  0  0  0  0  0  0  0  0999 V2000
  -28.7742   -0.6699   -6.1319 N   0  0  0  0  0  0  0  0  0  0  0  0
  -29.3107   -1.5076   -5.2157 N   0  0  0  0  0  0  0  0  0  0  0  0
  -29.1128   -2.7375   -5.7294 C   0  0  0  0  0  0  0  0  0  0  0  0
  -28.4885   -2.6662   -7.0157 C   0  0  0  0  0  0  0  0  0  0  0  0
  -28.0866   -3.5266   -8.0514 C   0  0  0  0  0  0  0  0  0  0  0  0
  -28.2894   -4.8993   -8.0890 N   0  0  0  0  0  0  0  0  0  0  0  0
  -27.4683   -3.0002   -9.1290 N   0  0  0  0  0  0  0  0  0  0  0  0
  -27.2796   -1.6697   -9.1809 C   0  0  0  0  0  0  0  0  0  0  0  0
  -27.6573   -0.7497   -8.2825 N   0  0  0  0  0  0  0  0  0  0  0  0
  -28.2547   -1.3158   -7.2190 C   0  0  0  0  0  0  0  0  0  0  0  0
  -29.1480   -5.2183   -7.6567 H   0  0  0  0  0  0  0  0  0  0  0  0
  -28.1095   -5.2623   -9.0183 H   0  0  0  0  0  0  0  0  0  0  0  0
  -29.5539   -3.9315   -4.9936 C   0  0  0  0  0  0  0  0  0  0  0  0
  -28.6304   -4.9037   -4.5776 C   0  0  0  0  0  0  0  0  0  0  0  0
  -29.0410   -5.9915   -3.7965 C   0  0  0  0  0  0  0  0  0  0  0  0
  -30.3759   -6.0990   -3.4203 C   0  0  0  0  0  0  0  0  0  0  0  0
  -30.8204   -7.1161   -2.6306 O   0  0  0  0  0  0  0  0  0  0  0  0
  -31.3099   -5.1695   -3.8506 C   0  0  0  0  0  0  0  0  0  0  0  0
  -30.9046   -4.1140   -4.6675 C   0  0  0  0  0  0  0  0  0  0  0  0
  -30.0821   -7.7222   -2.4605 H   0  0  0  0  0  0  0  0  0  0  0  0
  -30.2716    1.2832   -5.9451 C   0  0  0  0  0  0  0  0  0  0  0  0
  -28.8276    0.7751   -5.9370 C   0  0  0  0  0  0  0  0  0  0  0  0
  -28.0958    1.2129   -4.6686 C   0  0  0  0  0  0  0  0  0  0  0  0
 21 22  1  0  0  0
 22 23  1  0  0  0
 22  1  1  0  0  0
  1  2  1  0  0  0
  1 10  1  0  0  0
  2  3  2  0  0  0
  3 13  1  0  0  0
  3  4  1  0  0  0
 13 14  1  0  0  0
 13 19  2  0  0  0
 14 15  2  0  0  0
 15 16  1  0  0  0
 16 17  1  0  0  0
 16 18  2  0  0  0
 17 20  1  0  0  0
 18 19  1  0  0  0
  4  5  1  0  0  0
  4 10  2  0  0  0
  5  6  1  0  0  0
  5  7  2  0  0  0
  6 11  1  0  0  0
  6 12  1  0  0  0
  7  8  1  0  0  0
  8  9  2  0  0  0
  9 10  1  0  0  0
M  END
> <minimizedAffinity>
-7.87547

$$$$
