CHEMBL1997909


 40 45  0  0  0  0  0  0  0  0999 V2000
  -28.2893   -2.9432   -7.5569 C   0  0  0  0  0  0  0  0  0  0  0  0
  -27.7152   -1.9294   -8.3399 C   0  0  0  0  0  0  0  0  0  0  0  0
  -27.3658   -0.8241   -7.5675 N   0  0  0  0  0  0  0  0  0  0  0  0
  -27.7502   -1.1535   -6.3705 C   0  0  0  0  0  0  0  0  0  0  0  0
  -27.6865   -0.3748   -4.8191 S   0  0  0  0  0  0  0  0  0  0  0  0
  -28.4738   -1.7941   -4.1194 C   0  0  0  0  0  0  0  0  0  0  0  0
  -28.7341   -2.7503   -5.0228 C   0  0  0  0  0  0  0  0  0  0  0  0
  -28.3203   -2.3868   -6.2931 N   0  0  0  0  0  0  0  0  0  0  0  0
  -28.1857   -6.4220   -8.3684 C   0  0  0  0  0  0  0  0  0  0  0  0
  -29.3986   -6.9065   -8.0671 N   0  0  0  0  0  0  0  0  0  0  0  0
  -30.3361   -6.0112   -7.6943 C   0  0  0  0  0  0  0  0  0  0  0  0
  -30.1039   -4.6619   -7.5876 C   0  0  0  0  0  0  0  0  0  0  0  0
  -28.8170   -4.2663   -7.8569 C   0  0  0  0  0  0  0  0  0  0  0  0
  -27.8810   -5.1193   -8.2941 N   0  0  0  0  0  0  0  0  0  0  0  0
  -27.1777   -7.3385   -8.7030 N   0  0  0  0  0  0  0  0  0  0  0  0
  -26.5342   -6.8550   -9.3189 H   0  0  0  0  0  0  0  0  0  0  0  0
  -27.4992   -9.4445   -6.6653 C   0  0  0  0  0  0  0  0  0  0  0  0
  -27.5177   -9.7119   -8.1458 C   0  0  0  0  0  0  0  0  0  0  0  0
  -27.6738  -11.0415   -8.5802 C   0  0  0  0  0  0  0  0  0  0  0  0
  -27.7264  -11.3563   -9.9373 C   0  0  0  0  0  0  0  0  0  0  0  0
  -27.6011  -10.3486  -10.8820 C   0  0  0  0  0  0  0  0  0  0  0  0
  -27.4183   -9.0332  -10.4650 C   0  0  0  0  0  0  0  0  0  0  0  0
  -27.3924   -8.6818   -9.1011 C   0  0  0  0  0  0  0  0  0  0  0  0
  -27.4075   -1.9465   -9.7696 C   0  0  0  0  0  0  0  0  0  0  0  0
  -28.4800   -1.9421  -10.6697 C   0  0  0  0  0  0  0  0  0  0  0  0
  -28.2552   -1.8704  -12.0405 C   0  0  0  0  0  0  0  0  0  0  0  0
  -26.9545   -1.7587  -12.5312 C   0  0  0  0  0  0  0  0  0  0  0  0
  -25.8629   -1.7579  -11.6636 C   0  0  0  0  0  0  0  0  0  0  0  0
  -26.0992   -1.9299  -10.2886 C   0  0  0  0  0  0  0  0  0  0  0  0
  -24.5268   -1.5433  -12.0915 N   0  0  0  0  0  0  0  0  0  0  0  0
  -24.1039   -1.2654  -13.3833 C   0  0  0  0  0  0  0  0  0  0  0  0
  -24.8196   -1.1826  -14.3812 O   0  0  0  0  0  0  0  0  0  0  0  0
  -23.8238   -1.5140  -11.3632 H   0  0  0  0  0  0  0  0  0  0  0  0
  -22.6005   -1.0500  -13.5117 C   0  0  0  0  0  0  0  0  0  0  0  0
  -22.2175    0.3553  -13.9148 C   0  0  0  0  0  0  0  0  0  0  0  0
  -23.0172    1.4437  -13.5393 C   0  0  0  0  0  0  0  0  0  0  0  0
  -22.6499    2.7471  -13.8829 C   0  0  0  0  0  0  0  0  0  0  0  0
  -21.4769    2.9790  -14.5983 C   0  0  0  0  0  0  0  0  0  0  0  0
  -20.6644    1.9083  -14.9625 C   0  0  0  0  0  0  0  0  0  0  0  0
  -21.0288    0.6048  -14.6184 C   0  0  0  0  0  0  0  0  0  0  0  0
 17 18  1  0  0  0
 18 19  1  0  0  0
 18 23  2  0  0  0
 19 20  2  0  0  0
 20 21  1  0  0  0
 21 22  2  0  0  0
 22 23  1  0  0  0
 23 15  1  0  0  0
 15  9  1  0  0  0
 15 16  1  0  0  0
  9 10  1  0  0  0
  9 14  2  0  0  0
 10 11  2  0  0  0
 11 12  1  0  0  0
 12 13  2  0  0  0
 13  1  1  0  0  0
 13 14  1  0  0  0
  1  2  2  0  0  0
  1  8  1  0  0  0
  2 24  1  0  0  0
  2  3  1  0  0  0
 24 25  1  0  0  0
 24 29  2  0  0  0
 25 26  2  0  0  0
 26 27  1  0  0  0
 27 28  2  0  0  0
 28 30  1  0  0  0
 28 29  1  0  0  0
 30 31  1  0  0  0
 30 33  1  0  0  0
 31 32  2  0  0  0
 31 34  1  0  0  0
 34 35  1  0  0  0
 35 36  1  0  0  0
 35 40  2  0  0  0
 36 37  2  0  0  0
 37 38  1  0  0  0
 38 39  2  0  0  0
 39 40  1  0  0  0
  3  4  2  0  0  0
  4  5  1  0  0  0
  4  8  1  0  0  0
  5  6  1  0  0  0
  6  7  2  0  0  0
  7  8  1  0  0  0
M  END
> <minimizedAffinity>
-10.16099

$$$$
