CHEMBL2349012


 37 41  0  0  0  0  0  0  0  0999 V2000
  -30.8785   -5.9580   -4.7577 C   0  0  0  0  0  0  0  0  0  0  0  0
  -31.9398   -5.8726   -3.8518 C   0  0  0  0  0  0  0  0  0  0  0  0
  -32.1024   -4.7541   -3.0350 C   0  0  0  0  0  0  0  0  0  0  0  0
  -31.1951   -3.7050   -3.0968 C   0  0  0  0  0  0  0  0  0  0  0  0
  -30.0830   -3.8064   -3.9331 C   0  0  0  0  0  0  0  0  0  0  0  0
  -29.9194   -4.9247   -4.7687 C   0  0  0  0  0  0  0  0  0  0  0  0
  -30.5488   -6.9490   -7.0485 C   0  0  0  0  0  0  0  0  0  0  0  0
  -30.4166   -5.8927   -7.6599 O   0  0  0  0  0  0  0  0  0  0  0  0
  -30.7497   -7.0419   -5.6678 N   0  0  0  0  0  0  0  0  0  0  0  0
  -30.6913   -7.9582   -5.2510 H   0  0  0  0  0  0  0  0  0  0  0  0
  -32.8639   -9.0220   -7.4124 C   0  0  0  0  0  0  0  0  0  0  0  0
  -31.5028   -9.1193   -7.9026 N   0  0  0  0  0  0  0  0  0  0  0  0
  -31.1700  -10.2233   -8.6025 N   0  0  0  0  0  0  0  0  0  0  0  0
  -29.8710  -10.0667   -8.8951 C   0  0  0  0  0  0  0  0  0  0  0  0
  -29.3902   -8.8412   -8.3733 C   0  0  0  0  0  0  0  0  0  0  0  0
  -30.4612   -8.2241   -7.7456 C   0  0  0  0  0  0  0  0  0  0  0  0
  -29.0629  -11.0712   -9.6718 C   0  0  0  0  0  0  0  0  0  0  0  0
  -29.2641  -11.0294  -11.0139 F   0  0  0  0  0  0  0  0  0  0  0  0
  -27.7282  -10.8914   -9.4681 F   0  0  0  0  0  0  0  0  0  0  0  0
  -29.3381  -12.3429   -9.2707 F   0  0  0  0  0  0  0  0  0  0  0  0
  -29.1813   -2.7184   -4.0569 O   0  0  0  0  0  0  0  0  0  0  0  0
  -28.6836   -2.3408   -5.3069 C   0  0  0  0  0  0  0  0  0  0  0  0
  -28.3066   -0.9063   -5.2624 C   0  0  0  0  0  0  0  0  0  0  0  0
  -27.8098   -0.3805   -6.3920 C   0  0  0  0  0  0  0  0  0  0  0  0
  -27.6808   -1.1977   -7.5370 C   0  0  0  0  0  0  0  0  0  0  0  0
  -27.2412   -0.9372   -8.7478 N   0  0  0  0  0  0  0  0  0  0  0  0
  -27.3148   -2.1163   -9.4298 C   0  0  0  0  0  0  0  0  0  0  0  0
  -27.8063   -3.1181   -8.6245 C   0  0  0  0  0  0  0  0  0  0  0  0
  -28.0606   -2.5235   -7.4167 N   0  0  0  0  0  0  0  0  0  0  0  0
  -28.5770   -3.1435   -6.3183 N   0  0  0  0  0  0  0  0  0  0  0  0
  -26.9264   -2.2804  -10.7402 N   0  0  0  0  0  0  0  0  0  0  0  0
  -25.7130   -1.8760  -11.2462 C   0  0  0  0  0  0  0  0  0  0  0  0
  -24.8106   -1.2905  -10.6607 O   0  0  0  0  0  0  0  0  0  0  0  0
  -27.5819   -2.7469  -11.3494 H   0  0  0  0  0  0  0  0  0  0  0  0
  -25.5227   -2.2604  -12.6837 C   0  0  0  0  0  0  0  0  0  0  0  0
  -24.4192   -1.5881  -13.4708 C   0  0  0  0  0  0  0  0  0  0  0  0
  -25.8524   -1.3005  -13.8071 C   0  0  0  0  0  0  0  0  0  0  0  0
 11 12  1  0  0  0
 12 13  1  0  0  0
 12 16  1  0  0  0
 13 14  2  0  0  0
 14 17  1  0  0  0
 14 15  1  0  0  0
 17 18  1  0  0  0
 17 19  1  0  0  0
 17 20  1  0  0  0
 15 16  2  0  0  0
 16  7  1  0  0  0
  7  8  2  0  0  0
  7  9  1  0  0  0
  9  1  1  0  0  0
  9 10  1  0  0  0
  1  2  1  0  0  0
  1  6  2  0  0  0
  2  3  2  0  0  0
  3  4  1  0  0  0
  4  5  2  0  0  0
  5 21  1  0  0  0
  5  6  1  0  0  0
 21 22  1  0  0  0
 22 23  1  0  0  0
 22 30  2  0  0  0
 23 24  2  0  0  0
 24 25  1  0  0  0
 25 26  2  0  0  0
 25 29  1  0  0  0
 26 27  1  0  0  0
 27 31  1  0  0  0
 27 28  2  0  0  0
 31 32  1  0  0  0
 31 34  1  0  0  0
 32 33  2  0  0  0
 32 35  1  0  0  0
 35 36  1  0  0  0
 35 37  1  0  0  0
 36 37  1  0  0  0
 28 29  1  0  0  0
 29 30  1  0  0  0
M  END
> <minimizedAffinity>
-10.01255

$$$$
