CHEMBL215863


 40 44  0  0  0  0  0  0  0  0999 V2000
  -31.3834   -9.6704   -8.9680 C   0  0  0  0  0  0  0  0  0  0  0  0
  -29.9917  -10.1120   -8.5840 C   0  0  0  0  0  0  0  0  0  0  0  0
  -29.5671  -11.3508   -9.0936 C   0  0  0  0  0  0  0  0  0  0  0  0
  -28.2836  -11.8282   -8.8471 C   0  0  0  0  0  0  0  0  0  0  0  0
  -27.3959  -11.0879   -8.0668 C   0  0  0  0  0  0  0  0  0  0  0  0
  -27.8032   -9.8589   -7.5479 C   0  0  0  0  0  0  0  0  0  0  0  0
  -29.1023   -9.3435   -7.7799 C   0  0  0  0  0  0  0  0  0  0  0  0
  -29.4528   -8.0330   -7.1814 C   0  0  0  0  0  0  0  0  0  0  0  0
  -30.2105   -7.9437   -5.9995 C   0  0  0  0  0  0  0  0  0  0  0  0
  -30.5671   -6.7063   -5.4610 C   0  0  0  0  0  0  0  0  0  0  0  0
  -30.1404   -5.5295   -6.0436 C   0  0  0  0  0  0  0  0  0  0  0  0
  -30.4731   -4.3767   -5.4898 N   0  0  0  0  0  0  0  0  0  0  0  0
  -30.0600   -3.2392   -6.0711 C   0  0  0  0  0  0  0  0  0  0  0  0
  -29.3182   -3.1859   -7.1870 N   0  0  0  0  0  0  0  0  0  0  0  0
  -28.9772   -4.3703   -7.7224 C   0  0  0  0  0  0  0  0  0  0  0  0
  -29.3834   -5.5888   -7.2024 C   0  0  0  0  0  0  0  0  0  0  0  0
  -29.0884   -6.8242   -7.7869 C   0  0  0  0  0  0  0  0  0  0  0  0
  -30.4578   -2.0423   -5.4984 N   0  0  0  0  0  0  0  0  0  0  0  0
  -31.4586   -1.9729   -5.4115 H   0  0  0  0  0  0  0  0  0  0  0  0
  -29.7202   -0.8552   -5.4457 C   0  0  0  0  0  0  0  0  0  0  0  0
  -28.4957   -0.7693   -4.7594 C   0  0  0  0  0  0  0  0  0  0  0  0
  -27.8012    0.4388   -4.6810 C   0  0  0  0  0  0  0  0  0  0  0  0
  -28.3248    1.5748   -5.2823 C   0  0  0  0  0  0  0  0  0  0  0  0
  -29.5458    1.5076   -5.9558 C   0  0  0  0  0  0  0  0  0  0  0  0
  -30.2409    0.2996   -6.0287 C   0  0  0  0  0  0  0  0  0  0  0  0
  -26.0154  -11.6062   -7.8739 C   0  0  0  0  0  0  0  0  0  0  0  0
  -25.6353  -12.4658   -8.6708 O   0  0  0  0  0  0  0  0  0  0  0  0
  -25.3035  -11.1284   -6.7794 N   0  0  0  0  0  0  0  0  0  0  0  0
  -25.8169  -10.5959   -6.0927 H   0  0  0  0  0  0  0  0  0  0  0  0
  -23.9705  -11.5017   -6.4424 C   0  0  0  0  0  0  0  0  0  0  0  0
  -23.1113  -12.0266   -7.4181 C   0  0  0  0  0  0  0  0  0  0  0  0
  -21.8222  -12.4470   -7.1078 C   0  0  0  0  0  0  0  0  0  0  0  0
  -21.3599  -12.3367   -5.8033 C   0  0  0  0  0  0  0  0  0  0  0  0
  -22.1777  -11.7955   -4.7944 C   0  0  0  0  0  0  0  0  0  0  0  0
  -23.4955  -11.3549   -5.1145 C   0  0  0  0  0  0  0  0  0  0  0  0
  -24.3887  -10.7792   -4.0393 C   0  0  0  0  0  0  0  0  0  0  0  0
  -21.6134  -11.7382   -3.3886 C   0  0  0  0  0  0  0  0  0  0  0  0
  -21.5573  -10.4778   -2.8712 F   0  0  0  0  0  0  0  0  0  0  0  0
  -22.3437  -12.4647   -2.4987 F   0  0  0  0  0  0  0  0  0  0  0  0
  -20.3387  -12.2156   -3.3149 F   0  0  0  0  0  0  0  0  0  0  0  0
  1  2  1  0  0  0
  2  3  1  0  0  0
  2  7  2  0  0  0
  3  4  2  0  0  0
  4  5  1  0  0  0
  5 26  1  0  0  0
  5  6  2  0  0  0
 26 27  2  0  0  0
 26 28  1  0  0  0
 28 30  1  0  0  0
 28 29  1  0  0  0
 30 31  1  0  0  0
 30 35  2  0  0  0
 31 32  2  0  0  0
 32 33  1  0  0  0
 33 34  2  0  0  0
 34 37  1  0  0  0
 34 35  1  0  0  0
 37 38  1  0  0  0
 37 39  1  0  0  0
 37 40  1  0  0  0
 35 36  1  0  0  0
  6  7  1  0  0  0
  7  8  1  0  0  0
  8  9  1  0  0  0
  8 17  2  0  0  0
  9 10  2  0  0  0
 10 11  1  0  0  0
 11 12  1  0  0  0
 11 16  2  0  0  0
 12 13  2  0  0  0
 13 18  1  0  0  0
 13 14  1  0  0  0
 18 20  1  0  0  0
 18 19  1  0  0  0
 20 21  1  0  0  0
 20 25  2  0  0  0
 21 22  2  0  0  0
 22 23  1  0  0  0
 23 24  2  0  0  0
 24 25  1  0  0  0
 14 15  2  0  0  0
 15 16  1  0  0  0
 16 17  1  0  0  0
M  END
> <minimizedAffinity>
-8.91753

$$$$
