CHEMBL4790015


 50 56  0  0  0  0  0  0  0  0999 V2000
  -11.8422   -2.1966  -13.4364 C   0  0  0  0  0  0  0  0  0  0  0  0
  -12.5092   -1.1116  -12.8662 C   0  0  0  0  0  0  0  0  0  0  0  0
  -13.3603   -0.3172  -13.6479 C   0  0  0  0  0  0  0  0  0  0  0  0
  -13.5423   -0.5805  -15.0123 C   0  0  0  0  0  0  0  0  0  0  0  0
  -12.9273   -1.7174  -15.5487 C   0  0  0  0  0  0  0  0  0  0  0  0
  -12.0573   -2.4871  -14.7850 C   0  0  0  0  0  0  0  0  0  0  0  0
  -11.4071   -3.4897  -15.3978 F   0  0  0  0  0  0  0  0  0  0  0  0
  -14.3050    0.3010  -15.8025 N   0  0  0  0  0  0  0  0  0  0  0  0
  -15.2399   -0.0308  -16.0469 H   0  0  0  0  0  0  0  0  0  0  0  0
  -14.2541    1.7156  -15.8117 C   0  0  0  0  0  0  0  0  0  0  0  0
  -13.0637    2.3262  -16.0481 N   0  0  0  0  0  0  0  0  0  0  0  0
  -13.0222    3.6608  -16.2173 C   0  0  0  0  0  0  0  0  0  0  0  0
  -14.1424    4.4595  -16.2041 C   0  0  0  0  0  0  0  0  0  0  0  0
  -15.3666    3.8525  -15.9559 C   0  0  0  0  0  0  0  0  0  0  0  0
  -16.5548    4.5844  -16.0618 N   0  0  0  0  0  0  0  0  0  0  0  0
  -17.7575    4.0072  -15.7860 C   0  0  0  0  0  0  0  0  0  0  0  0
  -17.9656    2.7478  -15.3524 C   0  0  0  0  0  0  0  0  0  0  0  0
  -16.7228    1.8874  -15.2658 C   0  0  0  0  0  0  0  0  0  0  0  0
  -16.7421    0.7532  -14.7917 O   0  0  0  0  0  0  0  0  0  0  0  0
  -15.4228    2.4745  -15.7012 C   0  0  0  0  0  0  0  0  0  0  0  0
  -16.5062    5.5979  -16.1237 H   0  0  0  0  0  0  0  0  0  0  0  0
  -19.3301    2.3040  -14.9527 C   0  0  0  0  0  0  0  0  0  0  0  0
  -19.7697    0.9769  -15.1104 C   0  0  0  0  0  0  0  0  0  0  0  0
  -21.0596    0.5880  -14.7236 C   0  0  0  0  0  0  0  0  0  0  0  0
  -21.9322    1.5203  -14.1812 C   0  0  0  0  0  0  0  0  0  0  0  0
  -23.1703    1.1535  -13.8259 F   0  0  0  0  0  0  0  0  0  0  0  0
  -21.5298    2.8315  -13.9930 C   0  0  0  0  0  0  0  0  0  0  0  0
  -20.2355    3.2135  -14.3587 C   0  0  0  0  0  0  0  0  0  0  0  0
  -10.9501   -2.8730  -12.6282 O   0  0  0  0  0  0  0  0  0  0  0  0
  -13.1473   -7.4075  -11.8646 C   0  0  0  0  0  0  0  0  0  0  0  0
  -13.1926   -6.6255  -10.7035 C   0  0  0  0  0  0  0  0  0  0  0  0
  -12.6340   -5.3646  -10.6229 C   0  0  0  0  0  0  0  0  0  0  0  0
  -12.7325   -4.7185   -9.4584 N   0  0  0  0  0  0  0  0  0  0  0  0
  -12.1673   -3.5104   -9.3830 C   0  0  0  0  0  0  0  0  0  0  0  0
  -11.5066   -2.8988  -10.3613 N   0  0  0  0  0  0  0  0  0  0  0  0
  -11.4909   -3.5506  -11.5423 C   0  0  0  0  0  0  0  0  0  0  0  0
  -12.0022   -4.8369  -11.7507 C   0  0  0  0  0  0  0  0  0  0  0  0
  -11.9800   -5.5882  -12.9566 C   0  0  0  0  0  0  0  0  0  0  0  0
  -12.6022   -6.8419  -13.0348 C   0  0  0  0  0  0  0  0  0  0  0  0
  -12.6890   -9.7530  -12.1826 C   0  0  0  0  0  0  0  0  0  0  0  0
  -13.6070   -8.6962  -11.9052 O   0  0  0  0  0  0  0  0  0  0  0  0
  -12.6305   -7.3847  -14.3048 O   0  0  0  0  0  0  0  0  0  0  0  0
  -13.4143   -6.6411  -15.2440 C   0  0  0  0  0  0  0  0  0  0  0  0
  -14.8423   -6.3453  -14.7532 C   0  0  0  0  0  0  0  0  0  0  0  0
  -14.9217   -4.8257  -14.4985 C   0  0  0  0  0  0  0  0  0  0  0  0
  -16.1469   -4.2847  -13.8890 N   0  0  0  0  0  0  0  0  0  0  0  0
  -15.9705   -2.9610  -13.2717 C   0  0  0  0  0  0  0  0  0  0  0  0
  -15.4616   -3.2313  -11.8683 C   0  0  0  0  0  0  0  0  0  0  0  0
  -16.2197   -4.4781  -11.4621 C   0  0  0  0  0  0  0  0  0  0  0  0
  -16.5724   -5.1701  -12.7758 C   0  0  0  0  0  0  0  0  0  0  0  0
 40 41  1  0  0  0
 41 30  1  0  0  0
 30 31  1  0  0  0
 30 39  2  0  0  0
 31 32  2  0  0  0
 32 33  1  0  0  0
 32 37  1  0  0  0
 33 34  2  0  0  0
 34 35  1  0  0  0
 35 36  2  0  0  0
 36 29  1  0  0  0
 36 37  1  0  0  0
 29  1  1  0  0  0
  1  2  1  0  0  0
  1  6  2  0  0  0
  2  3  2  0  0  0
  3  4  1  0  0  0
  4  8  1  0  0  0
  4  5  2  0  0  0
  8 10  1  0  0  0
  8  9  1  0  0  0
 10 11  1  0  0  0
 10 20  2  0  0  0
 11 12  2  0  0  0
 12 13  1  0  0  0
 13 14  2  0  0  0
 14 15  1  0  0  0
 14 20  1  0  0  0
 15 16  1  0  0  0
 15 21  1  0  0  0
 16 17  2  0  0  0
 17 22  1  0  0  0
 17 18  1  0  0  0
 22 23  1  0  0  0
 22 28  2  0  0  0
 23 24  2  0  0  0
 24 25  1  0  0  0
 25 26  1  0  0  0
 25 27  2  0  0  0
 27 28  1  0  0  0
 18 19  2  0  0  0
 18 20  1  0  0  0
  5  6  1  0  0  0
  6  7  1  0  0  0
 37 38  2  0  0  0
 38 39  1  0  0  0
 39 42  1  0  0  0
 42 43  1  0  0  0
 43 44  1  0  0  0
 44 45  1  0  0  0
 45 46  1  0  0  0
 46 47  1  0  0  0
 46 50  1  0  0  0
 47 48  1  0  0  0
 48 49  1  0  0  0
 49 50  1  0  0  0
M  END
> <minimizedAffinity>
-9.55449

$$$$
