CHEMBL511563


 27 31  0  0  0  0  0  0  0  0999 V2000
  -22.3071    0.5679  -14.1093 C   0  0  0  0  0  0  0  0  0  0  0  0
  -21.1209   -0.1639  -14.6798 C   0  0  0  0  0  0  0  0  0  0  0  0
  -19.9439    0.3214  -14.9528 N   0  0  0  0  0  0  0  0  0  0  0  0
  -19.7596    1.6543  -14.6958 C   0  0  0  0  0  0  0  0  0  0  0  0
  -18.6705    2.5103  -14.8321 C   0  0  0  0  0  0  0  0  0  0  0  0
  -19.1516    3.7377  -14.3116 C   0  0  0  0  0  0  0  0  0  0  0  0
  -20.4346    3.7094  -13.9587 N   0  0  0  0  0  0  0  0  0  0  0  0
  -20.8085    2.4270  -14.1692 N   0  0  0  0  0  0  0  0  0  0  0  0
  -22.0563    1.8716  -13.8914 C   0  0  0  0  0  0  0  0  0  0  0  0
  -17.3021    2.1675  -15.2642 C   0  0  0  0  0  0  0  0  0  0  0  0
  -16.8217    2.6523  -16.4839 C   0  0  0  0  0  0  0  0  0  0  0  0
  -15.6366    2.1485  -16.9835 C   0  0  0  0  0  0  0  0  0  0  0  0
  -14.9301    1.1646  -16.3944 N   0  0  0  0  0  0  0  0  0  0  0  0
  -15.3479    0.7209  -15.2018 C   0  0  0  0  0  0  0  0  0  0  0  0
  -14.6110   -0.2944  -14.6002 C   0  0  0  0  0  0  0  0  0  0  0  0
  -14.9033   -0.7608  -13.3188 C   0  0  0  0  0  0  0  0  0  0  0  0
  -15.9366   -0.1777  -12.6050 C   0  0  0  0  0  0  0  0  0  0  0  0
  -16.7177    0.8088  -13.2086 C   0  0  0  0  0  0  0  0  0  0  0  0
  -16.4876    1.2391  -14.5420 C   0  0  0  0  0  0  0  0  0  0  0  0
  -26.0036   -1.4633  -13.1614 C   0  0  0  0  0  0  0  0  0  0  0  0
  -25.5157   -1.4766  -14.4655 C   0  0  0  0  0  0  0  0  0  0  0  0
  -24.3204   -0.8041  -14.7838 C   0  0  0  0  0  0  0  0  0  0  0  0
  -23.5901   -0.1058  -13.8071 C   0  0  0  0  0  0  0  0  0  0  0  0
  -24.1068   -0.0901  -12.5036 C   0  0  0  0  0  0  0  0  0  0  0  0
  -25.2939   -0.7656  -12.1879 C   0  0  0  0  0  0  0  0  0  0  0  0
  -28.1726   -2.3256  -13.6496 C   0  0  0  0  0  0  0  0  0  0  0  0
  -27.1338   -2.0871  -12.7084 O   0  0  0  0  0  0  0  0  0  0  0  0
 26 27  1  0  0  0
 27 20  1  0  0  0
 20 21  1  0  0  0
 20 25  2  0  0  0
 21 22  2  0  0  0
 22 23  1  0  0  0
 23  1  1  0  0  0
 23 24  2  0  0  0
  1  2  1  0  0  0
  1  9  2  0  0  0
  2  3  2  0  0  0
  3  4  1  0  0  0
  4  5  2  0  0  0
  4  8  1  0  0  0
  5 10  1  0  0  0
  5  6  1  0  0  0
 10 11  1  0  0  0
 10 19  2  0  0  0
 11 12  2  0  0  0
 12 13  1  0  0  0
 13 14  2  0  0  0
 14 15  1  0  0  0
 14 19  1  0  0  0
 15 16  2  0  0  0
 16 17  1  0  0  0
 17 18  2  0  0  0
 18 19  1  0  0  0
  6  7  2  0  0  0
  7  8  1  0  0  0
  8  9  1  0  0  0
 24 25  1  0  0  0
M  END
> <minimizedAffinity>
-9.32678

$$$$
