CHEMBL4474945


 29 31  0  0  0  0  0  0  0  0999 V2000
  -18.8808    1.4501  -14.6681 C   0  0  0  0  0  0  0  0  0  0  0  0
  -18.9135    2.7751  -14.4470 N   0  0  0  0  0  0  0  0  0  0  0  0
  -20.1152    3.3389  -14.2954 C   0  0  0  0  0  0  0  0  0  0  0  0
  -21.2803    2.6210  -14.3392 C   0  0  0  0  0  0  0  0  0  0  0  0
  -21.1660    1.2636  -14.5875 C   0  0  0  0  0  0  0  0  0  0  0  0
  -19.9677    0.6634  -14.7713 N   0  0  0  0  0  0  0  0  0  0  0  0
  -22.3749    0.5358  -14.6665 N   0  0  0  0  0  0  0  0  0  0  0  0
  -22.9148    0.7567  -15.4931 H   0  0  0  0  0  0  0  0  0  0  0  0
  -23.0513   -0.1902  -13.6741 C   0  0  0  0  0  0  0  0  0  0  0  0
  -22.3892   -0.6697  -12.5399 C   0  0  0  0  0  0  0  0  0  0  0  0
  -23.0581   -1.4531  -11.6017 C   0  0  0  0  0  0  0  0  0  0  0  0
  -24.4119   -1.7368  -11.7715 C   0  0  0  0  0  0  0  0  0  0  0  0
  -25.1153   -1.2326  -12.8746 C   0  0  0  0  0  0  0  0  0  0  0  0
  -24.4233   -0.4674  -13.8247 C   0  0  0  0  0  0  0  0  0  0  0  0
  -26.5780   -1.5457  -12.9588 C   0  0  0  0  0  0  0  0  0  0  0  0
  -27.4468   -1.5760  -11.7276 C   0  0  0  0  0  0  0  0  0  0  0  0
  -27.0713   -1.8131  -14.0563 O   0  0  0  0  0  0  0  0  0  0  0  0
  -17.2383    0.7975  -14.7863 S   0  0  0  0  0  0  0  0  0  0  0  0
  -16.6697    0.7562  -13.0592 C   0  0  0  0  0  0  0  0  0  0  0  0
  -15.4597   -0.1776  -12.9279 C   0  0  0  0  0  0  0  0  0  0  0  0
  -14.2897    0.1928  -13.0569 O   0  0  0  0  0  0  0  0  0  0  0  0
  -16.1351   -4.3179  -11.9255 C   0  0  0  0  0  0  0  0  0  0  0  0
  -16.0225   -3.3532  -10.9280 C   0  0  0  0  0  0  0  0  0  0  0  0
  -15.8032   -2.0125  -11.2719 C   0  0  0  0  0  0  0  0  0  0  0  0
  -15.6962   -1.6204  -12.6180 C   0  0  0  0  0  0  0  0  0  0  0  0
  -15.8152   -2.5908  -13.6137 C   0  0  0  0  0  0  0  0  0  0  0  0
  -16.0338   -3.9273  -13.2636 C   0  0  0  0  0  0  0  0  0  0  0  0
  -15.7292   -6.5410  -12.6668 C   0  0  0  0  0  0  0  0  0  0  0  0
  -16.3416   -5.6554  -11.7371 O   0  0  0  0  0  0  0  0  0  0  0  0
 28 29  1  0  0  0
 29 22  1  0  0  0
 22 23  1  0  0  0
 22 27  2  0  0  0
 23 24  2  0  0  0
 24 25  1  0  0  0
 25 20  1  0  0  0
 25 26  2  0  0  0
 20 21  2  0  0  0
 20 19  1  0  0  0
 19 18  1  0  0  0
 18  1  1  0  0  0
  1  2  1  0  0  0
  1  6  2  0  0  0
  2  3  2  0  0  0
  3  4  1  0  0  0
  4  5  2  0  0  0
  5  7  1  0  0  0
  5  6  1  0  0  0
  7  9  1  0  0  0
  7  8  1  0  0  0
  9 10  1  0  0  0
  9 14  2  0  0  0
 10 11  2  0  0  0
 11 12  1  0  0  0
 12 13  2  0  0  0
 13 15  1  0  0  0
 13 14  1  0  0  0
 15 16  1  0  0  0
 15 17  2  0  0  0
 26 27  1  0  0  0
M  END
> <minimizedAffinity>
-9.20836

$$$$
