CHEMBL3942811


 36 40  0  0  0  0  0  0  0  0999 V2000
  -16.5218    1.3203  -15.1965 N   0  0  0  0  0  0  0  0  0  0  0  0
  -17.8651    1.8189  -15.0853 C   0  0  0  0  0  0  0  0  0  0  0  0
  -18.1952    3.1569  -15.3456 C   0  0  0  0  0  0  0  0  0  0  0  0
  -19.4925    3.6371  -15.1471 C   0  0  0  0  0  0  0  0  0  0  0  0
  -20.5036    2.8083  -14.7048 C   0  0  0  0  0  0  0  0  0  0  0  0
  -21.7231    3.3281  -14.4963 N   0  0  0  0  0  0  0  0  0  0  0  0
  -22.6727    2.4631  -14.0739 C   0  0  0  0  0  0  0  0  0  0  0  0
  -22.4299    1.1120  -13.8762 C   0  0  0  0  0  0  0  0  0  0  0  0
  -21.1895    0.5900  -14.0688 N   0  0  0  0  0  0  0  0  0  0  0  0
  -20.2213    1.4386  -14.4848 C   0  0  0  0  0  0  0  0  0  0  0  0
  -18.9176    0.9789  -14.6745 C   0  0  0  0  0  0  0  0  0  0  0  0
  -23.4817    0.2049  -13.4737 C   0  0  0  0  0  0  0  0  0  0  0  0
  -24.1708   -0.7993  -14.1985 C   0  0  0  0  0  0  0  0  0  0  0  0
  -25.0747   -1.4458  -13.4616 N   0  0  0  0  0  0  0  0  0  0  0  0
  -24.9696   -0.8671  -12.2560 N   0  0  0  0  0  0  0  0  0  0  0  0
  -25.7897   -1.3266  -11.1584 C   0  0  0  0  0  0  0  0  0  0  0  0
  -24.0434    0.1335  -12.2096 C   0  0  0  0  0  0  0  0  0  0  0  0
  -13.9010    3.8457  -16.1875 C   0  0  0  0  0  0  0  0  0  0  0  0
  -13.4478    3.3476  -17.4007 C   0  0  0  0  0  0  0  0  0  0  0  0
  -14.0327    2.2057  -17.8985 C   0  0  0  0  0  0  0  0  0  0  0  0
  -13.6271    1.7156  -19.0786 F   0  0  0  0  0  0  0  0  0  0  0  0
  -15.0648    1.5649  -17.2167 C   0  0  0  0  0  0  0  0  0  0  0  0
  -15.4993    1.9644  -15.9457 C   0  0  0  0  0  0  0  0  0  0  0  0
  -14.8775    3.1364  -15.4558 C   0  0  0  0  0  0  0  0  0  0  0  0
  -12.2238    4.8663  -14.8790 C   0  0  0  0  0  0  0  0  0  0  0  0
  -13.4387    5.0037  -15.6188 O   0  0  0  0  0  0  0  0  0  0  0  0
  -16.3798   -0.0369  -14.5407 C   0  0  0  0  0  0  0  0  0  0  0  0
  -15.3833   -0.1351  -13.4054 C   0  0  0  0  0  0  0  0  0  0  0  0
  -14.2362   -1.1377  -13.4847 C   0  0  0  0  0  0  0  0  0  0  0  0
  -14.7055   -2.3707  -12.8334 N   0  0  0  0  0  0  0  0  0  0  0  0
  -15.3286   -3.3619  -13.7216 C   0  0  0  0  0  0  0  0  0  0  0  0
  -16.2779   -4.1776  -12.8574 C   0  0  0  0  0  0  0  0  0  0  0  0
  -16.1490   -3.5779  -11.4707 C   0  0  0  0  0  0  0  0  0  0  0  0
  -15.5993   -2.1760  -11.7026 C   0  0  0  0  0  0  0  0  0  0  0  0
  -15.2328   -4.4132  -10.5914 C   0  0  0  0  0  0  0  0  0  0  0  0
  -14.4727   -5.1062   -9.8619 N   0  0  0  0  0  0  0  0  0  0  0  0
 25 26  1  0  0  0
 26 18  1  0  0  0
 18 19  1  0  0  0
 18 24  2  0  0  0
 19 20  2  0  0  0
 20 21  1  0  0  0
 20 22  1  0  0  0
 22 23  2  0  0  0
 23  1  1  0  0  0
 23 24  1  0  0  0
  1 27  1  0  0  0
  1  2  1  0  0  0
 27 28  1  0  0  0
 28 29  1  0  0  0
 29 30  1  0  0  0
 30 31  1  0  0  0
 30 34  1  0  0  0
 31 32  1  0  0  0
 32 33  1  0  0  0
 33 35  1  0  0  0
 33 34  1  0  0  0
 35 36  3  0  0  0
  2  3  1  0  0  0
  2 11  2  0  0  0
  3  4  2  0  0  0
  4  5  1  0  0  0
  5  6  1  0  0  0
  5 10  2  0  0  0
  6  7  2  0  0  0
  7  8  1  0  0  0
  8 12  1  0  0  0
  8  9  2  0  0  0
 12 13  1  0  0  0
 12 17  2  0  0  0
 13 14  2  0  0  0
 14 15  1  0  0  0
 15 16  1  0  0  0
 15 17  1  0  0  0
  9 10  1  0  0  0
 10 11  1  0  0  0
M  END
> <minimizedAffinity>
-9.21174

$$$$
