CHEMBL195853


 34 36  0  0  0  0  0  0  0  0999 V2000
  -14.9138   -1.1769  -14.5892 N   0  0  0  0  0  0  0  0  0  0  0  0
  -15.5216   -1.9656  -14.7434 H   0  0  0  0  0  0  0  0  0  0  0  0
  -13.8106   -1.3525  -13.7750 C   0  0  0  0  0  0  0  0  0  0  0  0
  -12.8848   -0.4342  -13.7893 N   0  0  0  0  0  0  0  0  0  0  0  0
  -11.7500   -0.5471  -13.0486 C   0  0  0  0  0  0  0  0  0  0  0  0
  -11.4536   -1.5249  -12.2617 N   0  0  0  0  0  0  0  0  0  0  0  0
  -12.4010   -2.4698  -12.2095 N   0  0  0  0  0  0  0  0  0  0  0  0
  -12.2851   -3.5689  -11.4302 C   0  0  0  0  0  0  0  0  0  0  0  0
  -13.4297   -4.3297  -11.5424 C   0  0  0  0  0  0  0  0  0  0  0  0
  -14.3039   -3.6241  -12.4763 C   0  0  0  0  0  0  0  0  0  0  0  0
  -13.5964   -2.4787  -12.8843 C   0  0  0  0  0  0  0  0  0  0  0  0
  -15.6975   -4.1113  -12.8368 C   0  0  0  0  0  0  0  0  0  0  0  0
  -15.7002   -5.2784  -13.8249 C   0  0  0  0  0  0  0  0  0  0  0  0
  -16.5996   -4.3496  -11.6280 C   0  0  0  0  0  0  0  0  0  0  0  0
  -13.6360   -5.5559  -10.7646 C   0  0  0  0  0  0  0  0  0  0  0  0
  -14.1990   -5.5999   -9.6787 O   0  0  0  0  0  0  0  0  0  0  0  0
  -13.0378   -6.6328  -11.3586 O   0  0  0  0  0  0  0  0  0  0  0  0
  -13.9106   -7.5345  -12.0468 C   0  0  0  0  0  0  0  0  0  0  0  0
  -13.3914   -8.9456  -11.8327 C   0  0  0  0  0  0  0  0  0  0  0  0
  -17.2745    1.7190  -15.0092 C   0  0  0  0  0  0  0  0  0  0  0  0
  -16.6930    0.5440  -14.5098 C   0  0  0  0  0  0  0  0  0  0  0  0
  -15.4687    0.0601  -14.9962 C   0  0  0  0  0  0  0  0  0  0  0  0
  -14.8308    0.8155  -15.9908 C   0  0  0  0  0  0  0  0  0  0  0  0
  -13.6644    0.3829  -16.4950 F   0  0  0  0  0  0  0  0  0  0  0  0
  -15.3820    1.9944  -16.4896 C   0  0  0  0  0  0  0  0  0  0  0  0
  -16.6046    2.4383  -15.9946 C   0  0  0  0  0  0  0  0  0  0  0  0
  -17.1255    3.5709  -16.4897 F   0  0  0  0  0  0  0  0  0  0  0  0
  -19.6191    1.2280  -14.6145 N   0  0  0  0  0  0  0  0  0  0  0  0
  -18.5898    2.1289  -14.4580 C   0  0  0  0  0  0  0  0  0  0  0  0
  -18.7047    3.2420  -13.9516 O   0  0  0  0  0  0  0  0  0  0  0  0
  -19.4356    0.2344  -14.7146 H   0  0  0  0  0  0  0  0  0  0  0  0
  -20.8213    1.5575  -13.9437 O   0  0  0  0  0  0  0  0  0  0  0  0
  -22.4419    0.0260  -13.0633 C   0  0  0  0  0  0  0  0  0  0  0  0
  -21.8161    0.5993  -14.3180 C   0  0  0  0  0  0  0  0  0  0  0  0
 33 34  1  0  0  0
 34 32  1  0  0  0
 32 28  1  0  0  0
 28 29  1  0  0  0
 28 31  1  0  0  0
 29 30  2  0  0  0
 29 20  1  0  0  0
 20 21  1  0  0  0
 20 26  2  0  0  0
 21 22  2  0  0  0
 22  1  1  0  0  0
 22 23  1  0  0  0
  1  3  1  0  0  0
  1  2  1  0  0  0
  3  4  2  0  0  0
  3 11  1  0  0  0
  4  5  1  0  0  0
  5  6  2  0  0  0
  6  7  1  0  0  0
  7  8  1  0  0  0
  7 11  1  0  0  0
  8  9  2  0  0  0
  9 15  1  0  0  0
  9 10  1  0  0  0
 15 16  2  0  0  0
 15 17  1  0  0  0
 17 18  1  0  0  0
 18 19  1  0  0  0
 10 12  1  0  0  0
 10 11  2  0  0  0
 12 13  1  0  0  0
 12 14  1  0  0  0
 23 24  1  0  0  0
 23 25  2  0  0  0
 25 26  1  0  0  0
 26 27  1  0  0  0
M  END
> <minimizedAffinity>
-7.74347

$$$$
