CHEMBL273187


 33 36  0  0  0  0  0  0  0  0999 V2000
  -25.1496   -1.6431  -12.7216 C   0  0  0  0  0  0  0  0  0  0  0  0
  -23.9090   -1.7571  -12.0912 C   0  0  0  0  0  0  0  0  0  0  0  0
  -22.7681   -1.1932  -12.6644 C   0  0  0  0  0  0  0  0  0  0  0  0
  -22.8232   -0.5291  -13.9009 C   0  0  0  0  0  0  0  0  0  0  0  0
  -24.0509   -0.5678  -14.5849 C   0  0  0  0  0  0  0  0  0  0  0  0
  -25.2096   -1.1023  -14.0001 C   0  0  0  0  0  0  0  0  0  0  0  0
  -21.6356    0.1779  -14.4228 C   0  0  0  0  0  0  0  0  0  0  0  0
  -20.5322   -0.5333  -14.9455 C   0  0  0  0  0  0  0  0  0  0  0  0
  -19.4044    0.1379  -15.3968 C   0  0  0  0  0  0  0  0  0  0  0  0
  -19.2478    1.4737  -15.4062 N   0  0  0  0  0  0  0  0  0  0  0  0
  -20.3116    2.1241  -14.9015 C   0  0  0  0  0  0  0  0  0  0  0  0
  -20.4125    3.4771  -14.7940 N   0  0  0  0  0  0  0  0  0  0  0  0
  -21.5526    3.8963  -14.2263 N   0  0  0  0  0  0  0  0  0  0  0  0
  -22.1978    2.7628  -13.9541 C   0  0  0  0  0  0  0  0  0  0  0  0
  -23.3767    2.7934  -13.3104 N   0  0  0  0  0  0  0  0  0  0  0  0
  -21.4936    1.5934  -14.3905 C   0  0  0  0  0  0  0  0  0  0  0  0
  -19.7228    4.1585  -15.0825 H   0  0  0  0  0  0  0  0  0  0  0  0
  -23.6282    3.6998  -12.9293 H   0  0  0  0  0  0  0  0  0  0  0  0
  -23.6047    2.0329  -12.6787 H   0  0  0  0  0  0  0  0  0  0  0  0
  -27.6270   -2.2820  -10.1543 N   0  0  0  0  0  0  0  0  0  0  0  0
  -26.3945   -1.9167  -10.6624 C   0  0  0  0  0  0  0  0  0  0  0  0
  -25.4474   -1.5301   -9.9858 O   0  0  0  0  0  0  0  0  0  0  0  0
  -26.3455   -1.9950  -12.0495 N   0  0  0  0  0  0  0  0  0  0  0  0
  -28.2374   -2.7930  -10.7741 H   0  0  0  0  0  0  0  0  0  0  0  0
  -27.2101   -1.7600  -12.5158 H   0  0  0  0  0  0  0  0  0  0  0  0
  -28.0130    0.3119   -5.9059 C   0  0  0  0  0  0  0  0  0  0  0  0
  -28.2336   -0.9458   -6.6885 C   0  0  0  0  0  0  0  0  0  0  0  0
  -27.8511   -1.0145   -8.0353 C   0  0  0  0  0  0  0  0  0  0  0  0
  -28.0156   -2.1822   -8.7942 C   0  0  0  0  0  0  0  0  0  0  0  0
  -28.6031   -3.2972   -8.1874 C   0  0  0  0  0  0  0  0  0  0  0  0
  -29.0009   -3.2363   -6.8465 C   0  0  0  0  0  0  0  0  0  0  0  0
  -28.8114   -2.0684   -6.1116 C   0  0  0  0  0  0  0  0  0  0  0  0
  -29.1967   -2.0393   -4.8276 F   0  0  0  0  0  0  0  0  0  0  0  0
 26 27  1  0  0  0
 27 28  1  0  0  0
 27 32  2  0  0  0
 28 29  2  0  0  0
 29 20  1  0  0  0
 29 30  1  0  0  0
 20 21  1  0  0  0
 20 24  1  0  0  0
 21 22  2  0  0  0
 21 23  1  0  0  0
 23  1  1  0  0  0
 23 25  1  0  0  0
  1  2  1  0  0  0
  1  6  2  0  0  0
  2  3  2  0  0  0
  3  4  1  0  0  0
  4  7  1  0  0  0
  4  5  2  0  0  0
  7  8  1  0  0  0
  7 16  2  0  0  0
  8  9  2  0  0  0
  9 10  1  0  0  0
 10 11  2  0  0  0
 11 12  1  0  0  0
 11 16  1  0  0  0
 12 13  1  0  0  0
 12 17  1  0  0  0
 13 14  2  0  0  0
 14 15  1  0  0  0
 14 16  1  0  0  0
 15 18  1  0  0  0
 15 19  1  0  0  0
  5  6  1  0  0  0
 30 31  2  0  0  0
 31 32  1  0  0  0
 32 33  1  0  0  0
M  END
> <minimizedAffinity>
-10.48899

$$$$
