CHEMBL194911


 43 47  0  0  0  0  0  0  0  0999 V2000
  -15.7354    0.7185  -14.4029 C   0  0  0  0  0  0  0  0  0  0  0  0
  -16.1495    0.7786  -13.0732 C   0  0  0  0  0  0  0  0  0  0  0  0
  -16.0190   -0.3261  -12.2394 C   0  0  0  0  0  0  0  0  0  0  0  0
  -15.3813   -1.4854  -12.6823 C   0  0  0  0  0  0  0  0  0  0  0  0
  -14.8880   -1.5252  -13.9903 C   0  0  0  0  0  0  0  0  0  0  0  0
  -15.0983   -0.4442  -14.8565 C   0  0  0  0  0  0  0  0  0  0  0  0
  -17.2856    2.3607  -15.5205 C   0  0  0  0  0  0  0  0  0  0  0  0
  -17.2097    3.3909  -16.4122 O   0  0  0  0  0  0  0  0  0  0  0  0
  -15.9034    3.5378  -16.7612 C   0  0  0  0  0  0  0  0  0  0  0  0
  -15.4938    4.4720  -17.6298 N   0  0  0  0  0  0  0  0  0  0  0  0
  -14.1680    4.4378  -17.7904 C   0  0  0  0  0  0  0  0  0  0  0  0
  -13.2809    3.6233  -17.1886 N   0  0  0  0  0  0  0  0  0  0  0  0
  -13.7332    2.7064  -16.3120 C   0  0  0  0  0  0  0  0  0  0  0  0
  -12.7804    1.9289  -15.7016 N   0  0  0  0  0  0  0  0  0  0  0  0
  -15.1151    2.6164  -16.0867 C   0  0  0  0  0  0  0  0  0  0  0  0
  -16.0149    1.8243  -15.3079 C   0  0  0  0  0  0  0  0  0  0  0  0
  -11.8284    2.0505  -16.0163 H   0  0  0  0  0  0  0  0  0  0  0  0
  -13.0020    1.2599  -14.9837 H   0  0  0  0  0  0  0  0  0  0  0  0
  -21.3688    1.8066  -14.3643 C   0  0  0  0  0  0  0  0  0  0  0  0
  -20.7243    3.0117  -14.1019 C   0  0  0  0  0  0  0  0  0  0  0  0
  -19.3534    3.1473  -14.3569 C   0  0  0  0  0  0  0  0  0  0  0  0
  -18.6179    2.1110  -14.9524 C   0  0  0  0  0  0  0  0  0  0  0  0
  -19.2563    0.8805  -15.1422 C   0  0  0  0  0  0  0  0  0  0  0  0
  -20.6187    0.7306  -14.8470 C   0  0  0  0  0  0  0  0  0  0  0  0
  -23.0787    0.2176  -13.9122 C   0  0  0  0  0  0  0  0  0  0  0  0
  -22.7044    1.5608  -14.2023 O   0  0  0  0  0  0  0  0  0  0  0  0
  -15.2039   -2.6107  -11.8549 N   0  0  0  0  0  0  0  0  0  0  0  0
  -14.0644   -3.3914  -11.8194 C   0  0  0  0  0  0  0  0  0  0  0  0
  -13.0148   -3.1242  -12.3897 O   0  0  0  0  0  0  0  0  0  0  0  0
  -14.2511   -4.5516  -11.0842 N   0  0  0  0  0  0  0  0  0  0  0  0
  -15.8479   -2.7311  -11.0812 H   0  0  0  0  0  0  0  0  0  0  0  0
  -15.1786   -4.9517  -11.1748 H   0  0  0  0  0  0  0  0  0  0  0  0
  -13.2002   -5.5010  -11.0174 C   0  0  0  0  0  0  0  0  0  0  0  0
  -13.2515   -6.6998  -11.7354 C   0  0  0  0  0  0  0  0  0  0  0  0
  -12.2724   -7.6902  -11.5515 C   0  0  0  0  0  0  0  0  0  0  0  0
  -11.2414   -7.4557  -10.6277 C   0  0  0  0  0  0  0  0  0  0  0  0
  -11.1680   -6.2455   -9.9337 C   0  0  0  0  0  0  0  0  0  0  0  0
  -12.1361   -5.2696  -10.1474 C   0  0  0  0  0  0  0  0  0  0  0  0
  -12.0810   -4.1233   -9.4526 F   0  0  0  0  0  0  0  0  0  0  0  0
  -12.3439   -8.9964  -12.3056 C   0  0  0  0  0  0  0  0  0  0  0  0
  -11.2956   -9.8310  -12.0642 F   0  0  0  0  0  0  0  0  0  0  0  0
  -13.4626   -9.7075  -11.9904 F   0  0  0  0  0  0  0  0  0  0  0  0
  -12.3860   -8.8188  -13.6545 F   0  0  0  0  0  0  0  0  0  0  0  0
 25 26  1  0  0  0
 26 19  1  0  0  0
 19 20  1  0  0  0
 19 24  2  0  0  0
 20 21  2  0  0  0
 21 22  1  0  0  0
 22  7  1  0  0  0
 22 23  2  0  0  0
  7  8  1  0  0  0
  7 16  2  0  0  0
  8  9  1  0  0  0
  9 10  1  0  0  0
  9 15  2  0  0  0
 10 11  2  0  0  0
 11 12  1  0  0  0
 12 13  2  0  0  0
 13 14  1  0  0  0
 13 15  1  0  0  0
 14 17  1  0  0  0
 14 18  1  0  0  0
 15 16  1  0  0  0
 16  1  1  0  0  0
  1  2  1  0  0  0
  1  6  2  0  0  0
  2  3  2  0  0  0
  3  4  1  0  0  0
  4 27  1  0  0  0
  4  5  2  0  0  0
 27 28  1  0  0  0
 27 31  1  0  0  0
 28 29  2  0  0  0
 28 30  1  0  0  0
 30 33  1  0  0  0
 30 32  1  0  0  0
 33 34  1  0  0  0
 33 38  2  0  0  0
 34 35  2  0  0  0
 35 40  1  0  0  0
 35 36  1  0  0  0
 40 41  1  0  0  0
 40 42  1  0  0  0
 40 43  1  0  0  0
 36 37  2  0  0  0
 37 38  1  0  0  0
 38 39  1  0  0  0
  5  6  1  0  0  0
 23 24  1  0  0  0
M  END
> <minimizedAffinity>
-9.96571

$$$$
