CHEMBL3633687


 47 53  0  0  0  0  0  0  0  0999 V2000
  -23.5686    0.1006  -13.6665 C   0  0  0  0  0  0  0  0  0  0  0  0
  -24.5531   -0.3797  -14.5121 C   0  0  0  0  0  0  0  0  0  0  0  0
  -25.6692   -0.9411  -13.8299 C   0  0  0  0  0  0  0  0  0  0  0  0
  -26.6739   -1.6159  -14.4454 N   0  0  0  0  0  0  0  0  0  0  0  0
  -27.5466   -2.2248  -13.6261 C   0  0  0  0  0  0  0  0  0  0  0  0
  -27.5412   -2.1550  -12.2425 C   0  0  0  0  0  0  0  0  0  0  0  0
  -26.5955   -1.3551  -11.6050 C   0  0  0  0  0  0  0  0  0  0  0  0
  -25.5929   -0.7900  -12.4454 C   0  0  0  0  0  0  0  0  0  0  0  0
  -24.1484    0.0844  -12.0432 S   0  0  0  0  0  0  0  0  0  0  0  0
  -19.7902    1.6446  -14.8962 C   0  0  0  0  0  0  0  0  0  0  0  0
  -20.0946    0.3165  -15.2001 C   0  0  0  0  0  0  0  0  0  0  0  0
  -21.2973   -0.2533  -14.7727 C   0  0  0  0  0  0  0  0  0  0  0  0
  -22.1977    0.5183  -14.0464 C   0  0  0  0  0  0  0  0  0  0  0  0
  -21.9102    1.8043  -13.7172 N   0  0  0  0  0  0  0  0  0  0  0  0
  -20.7350    2.3303  -14.1456 C   0  0  0  0  0  0  0  0  0  0  0  0
  -18.5481    2.3226  -15.4314 C   0  0  0  0  0  0  0  0  0  0  0  0
  -17.2243    1.7260  -15.1257 N   0  0  0  0  0  0  0  0  0  0  0  0
  -16.0864    2.4830  -15.7174 C   0  0  0  0  0  0  0  0  0  0  0  0
  -15.2194    1.6445  -16.6777 C   0  0  0  0  0  0  0  0  0  0  0  0
  -16.5485    3.7107  -16.5260 C   0  0  0  0  0  0  0  0  0  0  0  0
  -17.0207    1.4591  -13.6785 C   0  0  0  0  0  0  0  0  0  0  0  0
  -15.6145   -1.8553  -13.2039 N   0  0  0  0  0  0  0  0  0  0  0  0
  -16.2393   -1.0148  -14.0748 C   0  0  0  0  0  0  0  0  0  0  0  0
  -16.2983    0.1813  -13.3869 C   0  0  0  0  0  0  0  0  0  0  0  0
  -15.5712    0.0573  -12.2269 N   0  0  0  0  0  0  0  0  0  0  0  0
  -15.1522   -1.1955  -12.1296 N   0  0  0  0  0  0  0  0  0  0  0  0
  -16.2910   -3.8596  -11.9732 C   0  0  0  0  0  0  0  0  0  0  0  0
  -15.6156   -3.3018  -13.2179 C   0  0  0  0  0  0  0  0  0  0  0  0
  -26.4495   -1.2263  -10.2478 O   0  0  0  0  0  0  0  0  0  0  0  0
  -27.1428   -1.8797   -9.2483 C   0  0  0  0  0  0  0  0  0  0  0  0
  -27.4507   -0.9917   -8.1953 C   0  0  0  0  0  0  0  0  0  0  0  0
  -28.2106   -1.3582   -7.0815 C   0  0  0  0  0  0  0  0  0  0  0  0
  -28.5764   -2.6897   -7.0319 C   0  0  0  0  0  0  0  0  0  0  0  0
  -29.2493   -3.3084   -6.0267 O   0  0  0  0  0  0  0  0  0  0  0  0
  -29.3471   -4.6138   -6.4316 C   0  0  0  0  0  0  0  0  0  0  0  0
  -28.8149   -4.8437   -7.6204 N   0  0  0  0  0  0  0  0  0  0  0  0
  -28.3021   -3.6229   -8.0144 C   0  0  0  0  0  0  0  0  0  0  0  0
  -27.6037   -3.2069   -9.1773 C   0  0  0  0  0  0  0  0  0  0  0  0
  -29.9889   -5.3962   -5.5425 N   0  0  0  0  0  0  0  0  0  0  0  0
  -30.9134   -5.0813   -5.2815 H   0  0  0  0  0  0  0  0  0  0  0  0
  -29.7194   -6.7371   -5.2168 C   0  0  0  0  0  0  0  0  0  0  0  0
  -29.1324   -7.1229   -4.0063 C   0  0  0  0  0  0  0  0  0  0  0  0
  -28.7544   -8.4505   -3.7776 C   0  0  0  0  0  0  0  0  0  0  0  0
  -28.9772   -9.4128   -4.7543 C   0  0  0  0  0  0  0  0  0  0  0  0
  -28.4317  -11.0246   -4.5092 Cl  0  0  0  0  0  0  0  0  0  0  0  0
  -29.6196   -9.0681   -5.9389 C   0  0  0  0  0  0  0  0  0  0  0  0
  -30.0014   -7.7393   -6.1606 C   0  0  0  0  0  0  0  0  0  0  0  0
 27 28  1  0  0  0
 28 22  1  0  0  0
 22 23  1  0  0  0
 22 26  1  0  0  0
 23 24  2  0  0  0
 24 21  1  0  0  0
 24 25  1  0  0  0
 21 17  1  0  0  0
 17 16  1  0  0  0
 17 18  1  0  0  0
 16 10  1  0  0  0
 10 11  1  0  0  0
 10 15  2  0  0  0
 11 12  2  0  0  0
 12 13  1  0  0  0
 13  1  1  0  0  0
 13 14  2  0  0  0
  1  2  2  0  0  0
  1  9  1  0  0  0
  2  3  1  0  0  0
  3  4  1  0  0  0
  3  8  2  0  0  0
  4  5  2  0  0  0
  5  6  1  0  0  0
  6  7  2  0  0  0
  7 29  1  0  0  0
  7  8  1  0  0  0
 29 30  1  0  0  0
 30 31  1  0  0  0
 30 38  2  0  0  0
 31 32  2  0  0  0
 32 33  1  0  0  0
 33 34  1  0  0  0
 33 37  2  0  0  0
 34 35  1  0  0  0
 35 39  1  0  0  0
 35 36  2  0  0  0
 39 41  1  0  0  0
 39 40  1  0  0  0
 41 42  1  0  0  0
 41 47  2  0  0  0
 42 43  2  0  0  0
 43 44  1  0  0  0
 44 45  1  0  0  0
 44 46  2  0  0  0
 46 47  1  0  0  0
 36 37  1  0  0  0
 37 38  1  0  0  0
  8  9  1  0  0  0
 14 15  1  0  0  0
 18 19  1  0  0  0
 18 20  1  0  0  0
 25 26  2  0  0  0
M  END
> <minimizedAffinity>
-9.95858

$$$$
