CHEMBL2088090


 21 22  0  0  0  0  0  0  0  0999 V2000
  -27.7088   -2.6015   -8.5908 C   0  0  0  0  0  0  0  0  0  0  0  0
  -27.4502   -1.4628   -7.9404 N   0  0  0  0  0  0  0  0  0  0  0  0
  -27.9475   -1.3466   -6.6933 C   0  0  0  0  0  0  0  0  0  0  0  0
  -28.7493   -2.2902   -6.1010 C   0  0  0  0  0  0  0  0  0  0  0  0
  -29.4320   -2.0113   -4.3648 Br  0  0  0  0  0  0  0  0  0  0  0  0
  -29.0378   -3.4056   -6.8669 C   0  0  0  0  0  0  0  0  0  0  0  0
  -28.4893   -3.5610   -8.0896 N   0  0  0  0  0  0  0  0  0  0  0  0
  -27.1874   -2.7322   -9.8752 N   0  0  0  0  0  0  0  0  0  0  0  0
  -26.1935   -2.8879   -9.7570 H   0  0  0  0  0  0  0  0  0  0  0  0
  -27.4878   -1.6025  -10.7321 C   0  0  0  0  0  0  0  0  0  0  0  0
  -27.4408   -2.0128  -13.2068 C   0  0  0  0  0  0  0  0  0  0  0  0
  -26.8000   -1.8334  -12.0435 C   0  0  0  0  0  0  0  0  0  0  0  0
  -30.0016   -4.3388   -6.4391 N   0  0  0  0  0  0  0  0  0  0  0  0
  -30.9336   -4.1583   -6.7886 H   0  0  0  0  0  0  0  0  0  0  0  0
  -29.8775   -5.3557   -5.5628 C   0  0  0  0  0  0  0  0  0  0  0  0
  -28.7325   -6.1693   -5.3927 C   0  0  0  0  0  0  0  0  0  0  0  0
  -29.1111   -7.1798   -4.5423 C   0  0  0  0  0  0  0  0  0  0  0  0
  -28.4025   -8.3978   -4.0991 C   0  0  0  0  0  0  0  0  0  0  0  0
  -30.3899   -6.8720   -4.1750 N   0  0  0  0  0  0  0  0  0  0  0  0
  -30.8840   -5.7875   -4.7978 N   0  0  0  0  0  0  0  0  0  0  0  0
  -30.9979   -7.3776   -3.5386 H   0  0  0  0  0  0  0  0  0  0  0  0
 11 12  2  0  0  0
 12 10  1  0  0  0
 10  8  1  0  0  0
  8  1  1  0  0  0
  8  9  1  0  0  0
  1  2  1  0  0  0
  1  7  2  0  0  0
  2  3  2  0  0  0
  3  4  1  0  0  0
  4  5  1  0  0  0
  4  6  2  0  0  0
  6 13  1  0  0  0
  6  7  1  0  0  0
 13 15  1  0  0  0
 13 14  1  0  0  0
 15 16  1  0  0  0
 15 20  2  0  0  0
 16 17  2  0  0  0
 17 18  1  0  0  0
 17 19  1  0  0  0
 19 20  1  0  0  0
 19 21  1  0  0  0
M  END
> <minimizedAffinity>
-6.80819

$$$$
