CHEMBL3893845


 37 40  0  0  0  0  0  0  0  0999 V2000
  -28.1987   -9.1261   -3.8693 C   0  0  0  0  0  0  0  0  0  0  0  0
  -26.8146   -8.8770   -3.8802 C   0  0  0  0  0  0  0  0  0  0  0  0
  -25.9232   -9.5772   -4.6767 C   0  0  0  0  0  0  0  0  0  0  0  0
  -24.6284   -9.2614   -4.6450 N   0  0  0  0  0  0  0  0  0  0  0  0
  -23.8296   -9.9376   -5.4758 C   0  0  0  0  0  0  0  0  0  0  0  0
  -24.2176  -10.8628   -6.3564 N   0  0  0  0  0  0  0  0  0  0  0  0
  -25.5318  -11.1562   -6.3870 C   0  0  0  0  0  0  0  0  0  0  0  0
  -26.4405  -10.5696   -5.5021 C   0  0  0  0  0  0  0  0  0  0  0  0
  -27.8024  -10.9043   -5.4331 C   0  0  0  0  0  0  0  0  0  0  0  0
  -28.6934  -10.1910   -4.6343 C   0  0  0  0  0  0  0  0  0  0  0  0
  -26.0345  -12.0378   -7.3897 N   0  0  0  0  0  0  0  0  0  0  0  0
  -26.4351  -12.8478   -6.9293 H   0  0  0  0  0  0  0  0  0  0  0  0
  -26.7866  -11.6041   -8.4931 C   0  0  0  0  0  0  0  0  0  0  0  0
  -27.9326  -12.3074   -8.8877 C   0  0  0  0  0  0  0  0  0  0  0  0
  -28.6354  -11.9366  -10.0312 C   0  0  0  0  0  0  0  0  0  0  0  0
  -28.1967  -10.8486  -10.7865 C   0  0  0  0  0  0  0  0  0  0  0  0
  -29.0708  -10.4825  -12.2294 Cl  0  0  0  0  0  0  0  0  0  0  0  0
  -27.0779  -10.1160  -10.3792 C   0  0  0  0  0  0  0  0  0  0  0  0
  -26.4890   -8.7528  -11.2643 Cl  0  0  0  0  0  0  0  0  0  0  0  0
  -26.3785  -10.4883   -9.2288 C   0  0  0  0  0  0  0  0  0  0  0  0
  -29.9441  -10.7109   -4.7570 O   0  0  0  0  0  0  0  0  0  0  0  0
  -30.2033  -11.8705   -5.5217 C   0  0  0  0  0  0  0  0  0  0  0  0
  -29.0705   -8.3449   -3.1653 O   0  0  0  0  0  0  0  0  0  0  0  0
  -29.1632   -6.9455   -3.5049 C   0  0  0  0  0  0  0  0  0  0  0  0
  -29.5550   -4.2316   -5.3004 N   0  0  0  0  0  0  0  0  0  0  0  0
  -30.9410   -3.9032   -4.8442 C   0  0  0  0  0  0  0  0  0  0  0  0
  -31.4815   -4.9423   -3.8511 C   0  0  0  0  0  0  0  0  0  0  0  0
  -31.4057   -6.2867   -4.3513 O   0  0  0  0  0  0  0  0  0  0  0  0
  -30.0675   -6.6730   -4.7381 C   0  0  0  0  0  0  0  0  0  0  0  0
  -29.5285   -5.6617   -5.7830 C   0  0  0  0  0  0  0  0  0  0  0  0
  -28.2452   -3.8244   -4.3265 S   0  0  0  0  0  0  0  0  0  0  0  0
  -27.2948   -4.9108   -4.4437 O   0  0  0  0  0  0  0  0  0  0  0  0
  -28.7639   -3.4455   -3.0321 O   0  0  0  0  0  0  0  0  0  0  0  0
  -27.4729   -2.3456   -5.0023 C   0  0  0  0  0  0  0  0  0  0  0  0
  -28.2500   -1.1771   -4.3806 C   0  0  0  0  0  0  0  0  0  0  0  0
  -28.8168    0.8544   -5.6713 C   0  0  0  0  0  0  0  0  0  0  0  0
  -29.3055   -0.5314   -5.2583 C   0  0  0  0  0  0  0  0  0  0  0  0
 36 37  1  0  0  0
 37 35  1  0  0  0
 35 34  1  0  0  0
 34 31  1  0  0  0
 31 32  2  0  0  0
 31 33  2  0  0  0
 31 25  1  0  0  0
 25 26  1  0  0  0
 25 30  1  0  0  0
 26 27  1  0  0  0
 27 28  1  0  0  0
 28 29  1  0  0  0
 29 24  1  0  0  0
 29 30  1  0  0  0
 24 23  1  0  0  0
 23  1  1  0  0  0
  1  2  1  0  0  0
  1 10  2  0  0  0
  2  3  2  0  0  0
  3  4  1  0  0  0
  3  8  1  0  0  0
  4  5  2  0  0  0
  5  6  1  0  0  0
  6  7  2  0  0  0
  7 11  1  0  0  0
  7  8  1  0  0  0
 11 13  1  0  0  0
 11 12  1  0  0  0
 13 14  1  0  0  0
 13 20  2  0  0  0
 14 15  2  0  0  0
 15 16  1  0  0  0
 16 17  1  0  0  0
 16 18  2  0  0  0
 18 19  1  0  0  0
 18 20  1  0  0  0
  8  9  2  0  0  0
  9 10  1  0  0  0
 10 21  1  0  0  0
 21 22  1  0  0  0
M  END
> <minimizedAffinity>
-7.62926

$$$$
