CHEMBL3942594


 34 37  0  0  0  0  0  0  0  0999 V2000
  -28.8719   -9.9143   -6.7678 N   0  0  0  0  0  0  0  0  0  0  0  0
  -29.0200   -8.6601   -6.0860 C   0  0  0  0  0  0  0  0  0  0  0  0
  -29.0079   -8.6299   -4.6901 C   0  0  0  0  0  0  0  0  0  0  0  0
  -29.2916   -7.4895   -3.9633 C   0  0  0  0  0  0  0  0  0  0  0  0
  -29.4440   -6.2983   -4.5828 C   0  0  0  0  0  0  0  0  0  0  0  0
  -29.7718   -5.3344   -3.7313 N   0  0  0  0  0  0  0  0  0  0  0  0
  -29.6954   -4.0929   -4.1946 C   0  0  0  0  0  0  0  0  0  0  0  0
  -29.2601   -3.8198   -5.4754 C   0  0  0  0  0  0  0  0  0  0  0  0
  -29.0383   -4.8189   -6.4043 N   0  0  0  0  0  0  0  0  0  0  0  0
  -29.1935   -6.1340   -5.9653 C   0  0  0  0  0  0  0  0  0  0  0  0
  -29.0769   -7.3759   -6.7141 C   0  0  0  0  0  0  0  0  0  0  0  0
  -28.8533   -2.4415   -5.7008 C   0  0  0  0  0  0  0  0  0  0  0  0
  -28.1749   -1.8689   -6.8055 C   0  0  0  0  0  0  0  0  0  0  0  0
  -27.7371   -0.6272   -6.5581 N   0  0  0  0  0  0  0  0  0  0  0  0
  -28.1283   -0.4091   -5.2914 N   0  0  0  0  0  0  0  0  0  0  0  0
  -28.1680    0.9270   -4.7480 C   0  0  0  0  0  0  0  0  0  0  0  0
  -28.6216   -1.5283   -4.6842 C   0  0  0  0  0  0  0  0  0  0  0  0
  -28.3260  -10.1799   -8.0738 C   0  0  0  0  0  0  0  0  0  0  0  0
  -29.0449   -9.9911   -9.2689 C   0  0  0  0  0  0  0  0  0  0  0  0
  -28.4822  -10.3525  -10.5107 C   0  0  0  0  0  0  0  0  0  0  0  0
  -27.1891  -10.8789  -10.5753 C   0  0  0  0  0  0  0  0  0  0  0  0
  -26.4533  -11.0465   -9.4150 C   0  0  0  0  0  0  0  0  0  0  0  0
  -27.0303  -10.7367   -8.1860 C   0  0  0  0  0  0  0  0  0  0  0  0
  -29.0673  -10.2531  -11.7449 O   0  0  0  0  0  0  0  0  0  0  0  0
  -28.2643   -9.8033  -12.8217 C   0  0  0  0  0  0  0  0  0  0  0  0
  -25.1722  -11.5251   -9.3799 O   0  0  0  0  0  0  0  0  0  0  0  0
  -24.7301  -11.8540   -8.0640 C   0  0  0  0  0  0  0  0  0  0  0  0
  -29.8486  -11.0028   -6.4070 C   0  0  0  0  0  0  0  0  0  0  0  0
  -31.3336  -10.5899   -6.4724 C   0  0  0  0  0  0  0  0  0  0  0  0
  -32.0201  -11.3095   -5.4245 O   0  0  0  0  0  0  0  0  0  0  0  0
  -32.3540  -12.1441   -5.7947 H   0  0  0  0  0  0  0  0  0  0  0  0
  -32.0335  -10.8157   -7.8222 C   0  0  0  0  0  0  0  0  0  0  0  0
  -32.6647   -8.5926   -7.2996 C   0  0  0  0  0  0  0  0  0  0  0  0
  -32.4695   -9.5480   -8.3336 O   0  0  0  0  0  0  0  0  0  0  0  0
 33 34  1  0  0  0
 34 32  1  0  0  0
 32 29  1  0  0  0
 29 30  1  0  0  0
 29 28  1  0  0  0
 30 31  1  0  0  0
 28  1  1  0  0  0
  1 18  1  0  0  0
  1  2  1  0  0  0
 18 19  1  0  0  0
 18 23  2  0  0  0
 19 20  2  0  0  0
 20 24  1  0  0  0
 20 21  1  0  0  0
 24 25  1  0  0  0
 21 22  2  0  0  0
 22 26  1  0  0  0
 22 23  1  0  0  0
 26 27  1  0  0  0
  2  3  1  0  0  0
  2 11  2  0  0  0
  3  4  2  0  0  0
  4  5  1  0  0  0
  5  6  1  0  0  0
  5 10  2  0  0  0
  6  7  2  0  0  0
  7  8  1  0  0  0
  8 12  1  0  0  0
  8  9  2  0  0  0
 12 13  1  0  0  0
 12 17  2  0  0  0
 13 14  2  0  0  0
 14 15  1  0  0  0
 15 16  1  0  0  0
 15 17  1  0  0  0
  9 10  1  0  0  0
 10 11  1  0  0  0
M  END
> <minimizedAffinity>
-7.57830

$$$$
