CHEMBL3899067


 30 33  0  0  0  0  0  0  0  0999 V2000
  -21.1611    1.7530  -14.2553 C   0  0  0  0  0  0  0  0  0  0  0  0
  -20.7695    0.6295  -14.9985 C   0  0  0  0  0  0  0  0  0  0  0  0
  -19.4451    0.4820  -15.4837 C   0  0  0  0  0  0  0  0  0  0  0  0
  -18.5680    1.5675  -15.3441 C   0  0  0  0  0  0  0  0  0  0  0  0
  -17.1923    1.9395  -15.5962 C   0  0  0  0  0  0  0  0  0  0  0  0
  -17.2184    3.2215  -15.9997 N   0  0  0  0  0  0  0  0  0  0  0  0
  -18.2026    3.7120  -15.2269 N   0  0  0  0  0  0  0  0  0  0  0  0
  -19.0813    2.7425  -14.8074 C   0  0  0  0  0  0  0  0  0  0  0  0
  -20.2830    2.8322  -14.1020 C   0  0  0  0  0  0  0  0  0  0  0  0
  -18.2915    4.7010  -15.1128 H   0  0  0  0  0  0  0  0  0  0  0  0
  -16.0300    1.6432  -14.7701 C   0  0  0  0  0  0  0  0  0  0  0  0
  -15.1953    0.6180  -15.0261 C   0  0  0  0  0  0  0  0  0  0  0  0
  -14.8161   -0.3880  -13.9990 C   0  0  0  0  0  0  0  0  0  0  0  0
  -15.6826   -0.6770  -12.9226 C   0  0  0  0  0  0  0  0  0  0  0  0
  -15.4836   -1.8125  -12.1194 C   0  0  0  0  0  0  0  0  0  0  0  0
  -14.4028   -2.6478  -12.3705 C   0  0  0  0  0  0  0  0  0  0  0  0
  -13.5379   -2.3714  -13.4154 C   0  0  0  0  0  0  0  0  0  0  0  0
  -13.7389   -1.2420  -14.2272 C   0  0  0  0  0  0  0  0  0  0  0  0
  -22.8300    1.9671  -13.6660 S   0  0  0  0  0  0  0  0  0  0  0  0
  -24.9772   -1.4189  -13.0507 C   0  0  0  0  0  0  0  0  0  0  0  0
  -24.1854   -2.1384  -12.1528 C   0  0  0  0  0  0  0  0  0  0  0  0
  -23.0020   -1.5953  -11.6570 C   0  0  0  0  0  0  0  0  0  0  0  0
  -22.5741   -0.3363  -12.0779 C   0  0  0  0  0  0  0  0  0  0  0  0
  -23.3092    0.3698  -13.0318 C   0  0  0  0  0  0  0  0  0  0  0  0
  -24.5174   -0.1757  -13.5018 C   0  0  0  0  0  0  0  0  0  0  0  0
  -28.5482   -2.4952  -13.6362 C   0  0  0  0  0  0  0  0  0  0  0  0
  -27.4250   -1.8758  -12.8513 C   0  0  0  0  0  0  0  0  0  0  0  0
  -27.6264   -1.4352  -11.7212 O   0  0  0  0  0  0  0  0  0  0  0  0
  -26.2201   -1.8856  -13.5347 N   0  0  0  0  0  0  0  0  0  0  0  0
  -26.2478   -2.1678  -14.5076 H   0  0  0  0  0  0  0  0  0  0  0  0
 26 27  1  0  0  0
 27 28  2  0  0  0
 27 29  1  0  0  0
 29 20  1  0  0  0
 29 30  1  0  0  0
 20 21  1  0  0  0
 20 25  2  0  0  0
 21 22  2  0  0  0
 22 23  1  0  0  0
 23 24  2  0  0  0
 24 19  1  0  0  0
 24 25  1  0  0  0
 19  1  1  0  0  0
  1  2  1  0  0  0
  1  9  2  0  0  0
  2  3  2  0  0  0
  3  4  1  0  0  0
  4  5  1  0  0  0
  4  8  2  0  0  0
  5 11  1  0  0  0
  5  6  2  0  0  0
 11 12  2  0  0  0
 12 13  1  0  0  0
 13 14  1  0  0  0
 13 18  2  0  0  0
 14 15  2  0  0  0
 15 16  1  0  0  0
 16 17  2  0  0  0
 17 18  1  0  0  0
  6  7  1  0  0  0
  7  8  1  0  0  0
  7 10  1  0  0  0
  8  9  1  0  0  0
M  END
> <minimizedAffinity>
-9.92279

$$$$
