CHEMBL3114023


 29 32  0  0  0  0  0  0  0  0999 V2000
  -13.4966   -0.6856  -14.0682 C   0  0  0  0  0  0  0  0  0  0  0  0
  -12.6211    0.0028  -13.3230 N   0  0  0  0  0  0  0  0  0  0  0  0
  -12.6431    1.3308  -13.4295 C   0  0  0  0  0  0  0  0  0  0  0  0
  -13.5054    2.0021  -14.2556 C   0  0  0  0  0  0  0  0  0  0  0  0
  -14.4027    1.2445  -14.9925 C   0  0  0  0  0  0  0  0  0  0  0  0
  -14.3770   -0.1070  -14.9015 N   0  0  0  0  0  0  0  0  0  0  0  0
  -13.5089   -2.0869  -13.9819 N   0  0  0  0  0  0  0  0  0  0  0  0
  -13.4612   -2.4437  -14.9267 H   0  0  0  0  0  0  0  0  0  0  0  0
  -14.8426   -3.3985   -9.4001 C   0  0  0  0  0  0  0  0  0  0  0  0
  -15.0130   -3.5159  -10.8866 C   0  0  0  0  0  0  0  0  0  0  0  0
  -16.0125   -4.3353  -11.4263 C   0  0  0  0  0  0  0  0  0  0  0  0
  -16.1764   -4.4381  -12.8101 C   0  0  0  0  0  0  0  0  0  0  0  0
  -17.2367   -5.3088  -13.4136 C   0  0  0  0  0  0  0  0  0  0  0  0
  -15.3396   -3.6942  -13.6511 C   0  0  0  0  0  0  0  0  0  0  0  0
  -14.3575   -2.8366  -13.1382 C   0  0  0  0  0  0  0  0  0  0  0  0
  -14.1792   -2.7860  -11.7515 C   0  0  0  0  0  0  0  0  0  0  0  0
  -15.3470    1.8632  -15.8465 N   0  0  0  0  0  0  0  0  0  0  0  0
  -14.8738    2.3709  -17.1402 C   0  0  0  0  0  0  0  0  0  0  0  0
  -16.7544    1.9912  -15.6126 C   0  0  0  0  0  0  0  0  0  0  0  0
  -17.3356    3.3089  -15.4877 C   0  0  0  0  0  0  0  0  0  0  0  0
  -18.6908    3.5901  -15.1853 C   0  0  0  0  0  0  0  0  0  0  0  0
  -19.4219    2.4203  -15.0204 C   0  0  0  0  0  0  0  0  0  0  0  0
  -20.7533    2.3293  -14.6854 C   0  0  0  0  0  0  0  0  0  0  0  0
  -21.7848    3.3530  -14.3944 C   0  0  0  0  0  0  0  0  0  0  0  0
  -20.9943    0.9750  -14.6513 N   0  0  0  0  0  0  0  0  0  0  0  0
  -22.2360    0.2978  -14.3562 C   0  0  0  0  0  0  0  0  0  0  0  0
  -19.9165    0.2110  -14.9215 N   0  0  0  0  0  0  0  0  0  0  0  0
  -18.9225    1.0827  -15.1478 C   0  0  0  0  0  0  0  0  0  0  0  0
  -17.5732    0.8380  -15.4550 C   0  0  0  0  0  0  0  0  0  0  0  0
  9 10  1  0  0  0
 10 11  1  0  0  0
 10 16  2  0  0  0
 11 12  2  0  0  0
 12 13  1  0  0  0
 12 14  1  0  0  0
 14 15  2  0  0  0
 15  7  1  0  0  0
 15 16  1  0  0  0
  7  1  1  0  0  0
  7  8  1  0  0  0
  1  2  1  0  0  0
  1  6  2  0  0  0
  2  3  2  0  0  0
  3  4  1  0  0  0
  4  5  2  0  0  0
  5 17  1  0  0  0
  5  6  1  0  0  0
 17 18  1  0  0  0
 17 19  1  0  0  0
 19 20  1  0  0  0
 19 29  2  0  0  0
 20 21  2  0  0  0
 21 22  1  0  0  0
 22 23  2  0  0  0
 22 28  1  0  0  0
 23 24  1  0  0  0
 23 25  1  0  0  0
 25 26  1  0  0  0
 25 27  1  0  0  0
 27 28  2  0  0  0
 28 29  1  0  0  0
M  END
> <minimizedAffinity>
-8.48385

$$$$
