CHEMBL507936


 32 35  0  0  0  0  0  0  0  0999 V2000
  -25.5289   -0.8357  -12.5250 C   0  0  0  0  0  0  0  0  0  0  0  0
  -24.7678    0.1334  -11.8793 C   0  0  0  0  0  0  0  0  0  0  0  0
  -23.6787    0.7151  -12.5194 C   0  0  0  0  0  0  0  0  0  0  0  0
  -23.2411    0.2987  -13.7937 C   0  0  0  0  0  0  0  0  0  0  0  0
  -24.0115   -0.6889  -14.4295 C   0  0  0  0  0  0  0  0  0  0  0  0
  -25.1390   -1.2620  -13.7962 C   0  0  0  0  0  0  0  0  0  0  0  0
  -21.9408    0.8320  -14.2958 C   0  0  0  0  0  0  0  0  0  0  0  0
  -21.0402   -0.1332  -14.7900 C   0  0  0  0  0  0  0  0  0  0  0  0
  -19.7624    0.1868  -15.2147 C   0  0  0  0  0  0  0  0  0  0  0  0
  -19.3414    1.4897  -15.2582 C   0  0  0  0  0  0  0  0  0  0  0  0
  -18.1036    1.6989  -15.7358 N   0  0  0  0  0  0  0  0  0  0  0  0
  -17.7182    2.9801  -15.8420 C   0  0  0  0  0  0  0  0  0  0  0  0
  -18.5463    4.0182  -15.4693 C   0  0  0  0  0  0  0  0  0  0  0  0
  -19.7857    3.8201  -14.9497 N   0  0  0  0  0  0  0  0  0  0  0  0
  -20.2128    2.5286  -14.8414 C   0  0  0  0  0  0  0  0  0  0  0  0
  -21.4982    2.1795  -14.3019 C   0  0  0  0  0  0  0  0  0  0  0  0
  -22.3797    3.2398  -13.9252 N   0  0  0  0  0  0  0  0  0  0  0  0
  -21.8482    4.0966  -13.7531 H   0  0  0  0  0  0  0  0  0  0  0  0
  -22.9908    2.9929  -13.1517 H   0  0  0  0  0  0  0  0  0  0  0  0
  -27.8953   -2.1447  -10.0992 N   0  0  0  0  0  0  0  0  0  0  0  0
  -26.6808   -1.6790  -10.5713 C   0  0  0  0  0  0  0  0  0  0  0  0
  -25.6713   -1.5538   -9.8855 O   0  0  0  0  0  0  0  0  0  0  0  0
  -26.7160   -1.3256  -11.9186 N   0  0  0  0  0  0  0  0  0  0  0  0
  -28.5772   -2.4323  -10.7851 H   0  0  0  0  0  0  0  0  0  0  0  0
  -27.5899   -0.9390  -12.2418 H   0  0  0  0  0  0  0  0  0  0  0  0
  -27.7662   -0.6951   -5.3513 C   0  0  0  0  0  0  0  0  0  0  0  0
  -28.1162   -1.7173   -6.3975 C   0  0  0  0  0  0  0  0  0  0  0  0
  -28.6906   -2.9263   -6.0053 C   0  0  0  0  0  0  0  0  0  0  0  0
  -29.0174   -3.8813   -6.9648 C   0  0  0  0  0  0  0  0  0  0  0  0
  -28.7559   -3.6325   -8.3113 C   0  0  0  0  0  0  0  0  0  0  0  0
  -28.1855   -2.4249   -8.7351 C   0  0  0  0  0  0  0  0  0  0  0  0
  -27.8656   -1.4681   -7.7628 C   0  0  0  0  0  0  0  0  0  0  0  0
 26 27  1  0  0  0
 27 28  1  0  0  0
 27 32  2  0  0  0
 28 29  2  0  0  0
 29 30  1  0  0  0
 30 31  2  0  0  0
 31 20  1  0  0  0
 31 32  1  0  0  0
 20 21  1  0  0  0
 20 24  1  0  0  0
 21 22  2  0  0  0
 21 23  1  0  0  0
 23  1  1  0  0  0
 23 25  1  0  0  0
  1  2  1  0  0  0
  1  6  2  0  0  0
  2  3  2  0  0  0
  3  4  1  0  0  0
  4  7  1  0  0  0
  4  5  2  0  0  0
  7  8  1  0  0  0
  7 16  2  0  0  0
  8  9  2  0  0  0
  9 10  1  0  0  0
 10 11  1  0  0  0
 10 15  2  0  0  0
 11 12  2  0  0  0
 12 13  1  0  0  0
 13 14  2  0  0  0
 14 15  1  0  0  0
 15 16  1  0  0  0
 16 17  1  0  0  0
 17 18  1  0  0  0
 17 19  1  0  0  0
  5  6  1  0  0  0
M  END
> <minimizedAffinity>
-11.67516

$$$$
