CHEMBL526658


 34 38  0  0  0  0  0  0  0  0999 V2000
  -26.8991   -2.0143   -9.5771 C   0  0  0  0  0  0  0  0  0  0  0  0
  -25.6814   -1.5063   -9.7518 N   0  0  0  0  0  0  0  0  0  0  0  0
  -25.4822   -1.4147  -11.1423 C   0  0  0  0  0  0  0  0  0  0  0  0
  -24.4036   -0.9520  -11.9377 C   0  0  0  0  0  0  0  0  0  0  0  0
  -24.5903   -0.8632  -13.3368 C   0  0  0  0  0  0  0  0  0  0  0  0
  -25.7915   -1.2667  -13.9266 C   0  0  0  0  0  0  0  0  0  0  0  0
  -26.8215   -1.8119  -13.1727 C   0  0  0  0  0  0  0  0  0  0  0  0
  -26.6202   -1.8511  -11.7997 C   0  0  0  0  0  0  0  0  0  0  0  0
  -27.4409   -2.2938  -10.8131 N   0  0  0  0  0  0  0  0  0  0  0  0
  -28.3166   -2.7745  -10.9632 H   0  0  0  0  0  0  0  0  0  0  0  0
  -27.6938   -4.7239   -8.7216 N   0  0  0  0  0  0  0  0  0  0  0  0
  -28.1175   -3.5645   -8.0786 C   0  0  0  0  0  0  0  0  0  0  0  0
  -27.7661   -2.3079   -8.4526 C   0  0  0  0  0  0  0  0  0  0  0  0
  -28.1850   -1.1386   -7.5847 C   0  0  0  0  0  0  0  0  0  0  0  0
  -27.8640    0.0246   -7.8345 O   0  0  0  0  0  0  0  0  0  0  0  0
  -28.8889   -1.3771   -6.4546 N   0  0  0  0  0  0  0  0  0  0  0  0
  -29.3263   -2.6345   -6.0730 C   0  0  0  0  0  0  0  0  0  0  0  0
  -30.1243   -2.7164   -4.9248 C   0  0  0  0  0  0  0  0  0  0  0  0
  -30.6244   -3.9446   -4.5269 C   0  0  0  0  0  0  0  0  0  0  0  0
  -30.2913   -5.0774   -5.2519 C   0  0  0  0  0  0  0  0  0  0  0  0
  -29.4641   -4.9906   -6.3910 C   0  0  0  0  0  0  0  0  0  0  0  0
  -28.9782   -3.7529   -6.8476 C   0  0  0  0  0  0  0  0  0  0  0  0
  -27.3099   -4.5293   -9.6535 H   0  0  0  0  0  0  0  0  0  0  0  0
  -28.3825   -5.4657   -8.7543 H   0  0  0  0  0  0  0  0  0  0  0  0
  -29.1070   -0.5640   -5.8929 H   0  0  0  0  0  0  0  0  0  0  0  0
  -23.7192   -0.3258  -14.2483 O   0  0  0  0  0  0  0  0  0  0  0  0
  -23.0807    0.9052  -13.9135 C   0  0  0  0  0  0  0  0  0  0  0  0
  -21.5493    0.6744  -13.9870 C   0  0  0  0  0  0  0  0  0  0  0  0
  -20.8812    1.2116  -15.1893 N   0  0  0  0  0  0  0  0  0  0  0  0
  -19.4661    0.7609  -15.2717 C   0  0  0  0  0  0  0  0  0  0  0  0
  -18.5161    1.4686  -14.2839 C   0  0  0  0  0  0  0  0  0  0  0  0
  -18.5920    2.8950  -14.4030 O   0  0  0  0  0  0  0  0  0  0  0  0
  -19.9398    3.3482  -14.2291 C   0  0  0  0  0  0  0  0  0  0  0  0
  -20.8753    2.6887  -15.2539 C   0  0  0  0  0  0  0  0  0  0  0  0
 11 12  1  0  0  0
 11 23  1  0  0  0
 11 24  1  0  0  0
 12 13  2  0  0  0
 12 22  1  0  0  0
 13  1  1  0  0  0
 13 14  1  0  0  0
  1  2  2  0  0  0
  1  9  1  0  0  0
  2  3  1  0  0  0
  3  4  1  0  0  0
  3  8  2  0  0  0
  4  5  2  0  0  0
  5 26  1  0  0  0
  5  6  1  0  0  0
 26 27  1  0  0  0
 27 28  1  0  0  0
 28 29  1  0  0  0
 29 30  1  0  0  0
 29 34  1  0  0  0
 30 31  1  0  0  0
 31 32  1  0  0  0
 32 33  1  0  0  0
 33 34  1  0  0  0
  6  7  2  0  0  0
  7  8  1  0  0  0
  8  9  1  0  0  0
  9 10  1  0  0  0
 14 15  2  0  0  0
 14 16  1  0  0  0
 16 17  1  0  0  0
 16 25  1  0  0  0
 17 18  1  0  0  0
 17 22  2  0  0  0
 18 19  2  0  0  0
 19 20  1  0  0  0
 20 21  2  0  0  0
 21 22  1  0  0  0
M  END
> <minimizedAffinity>
-9.66760

$$$$
