CHEMBL3656068


 54 57  0  0  0  0  0  0  0  0999 V2000
  -23.8406    0.5711  -13.5506 C   0  0  0  0  0  0  0  0  0  0  0  0
  -23.9634   -0.1438  -14.7390 C   0  0  0  0  0  0  0  0  0  0  0  0
  -24.7645   -1.2691  -14.7403 C   0  0  0  0  0  0  0  0  0  0  0  0
  -25.4861   -1.6765  -13.6759 N   0  0  0  0  0  0  0  0  0  0  0  0
  -25.4126   -0.9208  -12.5516 C   0  0  0  0  0  0  0  0  0  0  0  0
  -24.6001    0.1982  -12.4437 C   0  0  0  0  0  0  0  0  0  0  0  0
  -26.3023   -1.3698  -11.4841 C   0  0  0  0  0  0  0  0  0  0  0  0
  -26.0966   -1.6683  -10.1458 C   0  0  0  0  0  0  0  0  0  0  0  0
  -27.3565   -1.9880   -9.5447 C   0  0  0  0  0  0  0  0  0  0  0  0
  -28.2852   -1.9283  -10.5681 C   0  0  0  0  0  0  0  0  0  0  0  0
  -27.6496   -1.5442  -11.7143 N   0  0  0  0  0  0  0  0  0  0  0  0
  -28.0784   -1.3848  -12.6185 H   0  0  0  0  0  0  0  0  0  0  0  0
  -27.6861   -2.3188   -8.1603 C   0  0  0  0  0  0  0  0  0  0  0  0
  -27.3380   -1.6255   -7.2100 O   0  0  0  0  0  0  0  0  0  0  0  0
  -28.3852   -3.4907   -8.0021 N   0  0  0  0  0  0  0  0  0  0  0  0
  -28.5486   -4.0805   -8.8107 H   0  0  0  0  0  0  0  0  0  0  0  0
  -28.7680   -4.0183   -6.6892 C   0  0  0  0  0  0  0  0  0  0  0  0
  -28.6664   -5.5443   -6.7804 C   0  0  0  0  0  0  0  0  0  0  0  0
  -28.9487   -6.1948   -7.7802 O   0  0  0  0  0  0  0  0  0  0  0  0
  -28.2308   -6.0735   -5.6038 O   0  0  0  0  0  0  0  0  0  0  0  0
  -29.1759   -6.9160   -4.9125 C   0  0  0  0  0  0  0  0  0  0  0  0
  -29.5953   -6.2911   -3.5855 C   0  0  0  0  0  0  0  0  0  0  0  0
  -29.3240   -7.1873   -2.5100 O   0  0  0  0  0  0  0  0  0  0  0  0
  -29.8249   -8.0033   -2.6858 H   0  0  0  0  0  0  0  0  0  0  0  0
  -30.1889   -3.5846   -6.3197 C   0  0  0  0  0  0  0  0  0  0  0  0
  -30.3258   -2.9805   -4.9229 C   0  0  0  0  0  0  0  0  0  0  0  0
  -29.5655   -1.6814   -4.9015 C   0  0  0  0  0  0  0  0  0  0  0  0
  -28.6544   -1.4421   -4.1217 O   0  0  0  0  0  0  0  0  0  0  0  0
  -30.1182   -0.7901   -5.7649 O   0  0  0  0  0  0  0  0  0  0  0  0
  -29.9189    0.5962   -5.4285 C   0  0  0  0  0  0  0  0  0  0  0  0
  -29.2629    1.3887   -6.5547 C   0  0  0  0  0  0  0  0  0  0  0  0
  -27.8443    1.2677   -6.4895 O   0  0  0  0  0  0  0  0  0  0  0  0
  -27.5770    1.6058   -5.6168 H   0  0  0  0  0  0  0  0  0  0  0  0
  -23.0500    1.6902  -13.3968 O   0  0  0  0  0  0  0  0  0  0  0  0
  -19.3304    2.0653  -15.2711 C   0  0  0  0  0  0  0  0  0  0  0  0
  -20.0239    3.1814  -14.7912 C   0  0  0  0  0  0  0  0  0  0  0  0
  -21.2698    3.0246  -14.1730 C   0  0  0  0  0  0  0  0  0  0  0  0
  -21.8238    1.7514  -14.0204 C   0  0  0  0  0  0  0  0  0  0  0  0
  -21.1070    0.6307  -14.4479 C   0  0  0  0  0  0  0  0  0  0  0  0
  -19.8963    0.8006  -15.1120 C   0  0  0  0  0  0  0  0  0  0  0  0
  -19.2383   -0.2822  -15.5537 F   0  0  0  0  0  0  0  0  0  0  0  0
  -15.7630    1.9546  -15.9333 N   0  0  0  0  0  0  0  0  0  0  0  0
  -16.9094    1.8494  -15.1617 C   0  0  0  0  0  0  0  0  0  0  0  0
  -16.9463    1.4810  -13.9927 O   0  0  0  0  0  0  0  0  0  0  0  0
  -18.0523    2.1686  -15.8797 N   0  0  0  0  0  0  0  0  0  0  0  0
  -15.8350    2.5008  -16.7758 H   0  0  0  0  0  0  0  0  0  0  0  0
  -18.0225    1.9005  -16.8555 H   0  0  0  0  0  0  0  0  0  0  0  0
  -12.2563   -1.5567  -16.0414 C   0  0  0  0  0  0  0  0  0  0  0  0
  -12.7466   -0.2093  -15.5920 C   0  0  0  0  0  0  0  0  0  0  0  0
  -11.9272    0.5937  -14.7900 C   0  0  0  0  0  0  0  0  0  0  0  0
  -12.3601    1.8399  -14.3682 C   0  0  0  0  0  0  0  0  0  0  0  0
  -13.6265    2.2969  -14.7372 C   0  0  0  0  0  0  0  0  0  0  0  0
  -14.4673    1.5256  -15.5449 C   0  0  0  0  0  0  0  0  0  0  0  0
  -14.0194    0.2619  -15.9629 C   0  0  0  0  0  0  0  0  0  0  0  0
 48 49  1  0  0  0
 49 50  1  0  0  0
 49 54  2  0  0  0
 50 51  2  0  0  0
 51 52  1  0  0  0
 52 53  2  0  0  0
 53 42  1  0  0  0
 53 54  1  0  0  0
 42 43  1  0  0  0
 42 46  1  0  0  0
 43 44  2  0  0  0
 43 45  1  0  0  0
 45 35  1  0  0  0
 45 47  1  0  0  0
 35 36  1  0  0  0
 35 40  2  0  0  0
 36 37  2  0  0  0
 37 38  1  0  0  0
 38 34  1  0  0  0
 38 39  2  0  0  0
 34  1  1  0  0  0
  1  2  1  0  0  0
  1  6  2  0  0  0
  2  3  2  0  0  0
  3  4  1  0  0  0
  4  5  2  0  0  0
  5  7  1  0  0  0
  5  6  1  0  0  0
  7  8  2  0  0  0
  7 11  1  0  0  0
  8  9  1  0  0  0
  9 13  1  0  0  0
  9 10  2  0  0  0
 13 14  2  0  0  0
 13 15  1  0  0  0
 15 17  1  0  0  0
 15 16  1  0  0  0
 17 25  1  0  0  0
 17 18  1  0  0  0
 25 26  1  0  0  0
 26 27  1  0  0  0
 27 28  2  0  0  0
 27 29  1  0  0  0
 29 30  1  0  0  0
 30 31  1  0  0  0
 31 32  1  0  0  0
 32 33  1  0  0  0
 18 19  2  0  0  0
 18 20  1  0  0  0
 20 21  1  0  0  0
 21 22  1  0  0  0
 22 23  1  0  0  0
 23 24  1  0  0  0
 10 11  1  0  0  0
 11 12  1  0  0  0
 39 40  1  0  0  0
 40 41  1  0  0  0
M  END
> <minimizedAffinity>
-9.49789

$$$$
