CHEMBL271563


 39 43  0  0  0  0  0  0  0  0999 V2000
  -14.4032   -1.3670  -12.9537 C   0  0  0  0  0  0  0  0  0  0  0  0
  -15.5188   -0.7201  -12.4404 C   0  0  0  0  0  0  0  0  0  0  0  0
  -16.2362    0.1596  -13.2580 C   0  0  0  0  0  0  0  0  0  0  0  0
  -15.7585    0.5844  -14.5260 C   0  0  0  0  0  0  0  0  0  0  0  0
  -16.4243    1.4758  -15.4239 C   0  0  0  0  0  0  0  0  0  0  0  0
  -15.8295    1.7962  -16.6624 C   0  0  0  0  0  0  0  0  0  0  0  0
  -14.6033    1.2628  -17.0364 C   0  0  0  0  0  0  0  0  0  0  0  0
  -13.9553    0.3806  -16.1830 C   0  0  0  0  0  0  0  0  0  0  0  0
  -14.5161    0.0277  -14.9476 C   0  0  0  0  0  0  0  0  0  0  0  0
  -13.8651   -0.9386  -14.1663 C   0  0  0  0  0  0  0  0  0  0  0  0
  -17.7867    2.0791  -15.2344 C   0  0  0  0  0  0  0  0  0  0  0  0
  -17.8911    3.2880  -15.4279 O   0  0  0  0  0  0  0  0  0  0  0  0
  -18.8139    1.2492  -14.8183 N   0  0  0  0  0  0  0  0  0  0  0  0
  -18.5837    0.2855  -14.6241 H   0  0  0  0  0  0  0  0  0  0  0  0
  -20.1569    1.6232  -14.5699 C   0  0  0  0  0  0  0  0  0  0  0  0
  -20.6014    2.9467  -14.5323 C   0  0  0  0  0  0  0  0  0  0  0  0
  -21.9270    3.2505  -14.2120 C   0  0  0  0  0  0  0  0  0  0  0  0
  -22.8371    2.2302  -13.9554 C   0  0  0  0  0  0  0  0  0  0  0  0
  -22.4311    0.8920  -14.0297 C   0  0  0  0  0  0  0  0  0  0  0  0
  -21.0843    0.6002  -14.3267 C   0  0  0  0  0  0  0  0  0  0  0  0
  -23.4184   -0.2260  -13.8076 C   0  0  0  0  0  0  0  0  0  0  0  0
  -24.1844   -0.5065  -14.8986 F   0  0  0  0  0  0  0  0  0  0  0  0
  -22.8072   -1.3964  -13.4717 F   0  0  0  0  0  0  0  0  0  0  0  0
  -24.2910    0.0416  -12.7971 F   0  0  0  0  0  0  0  0  0  0  0  0
  -13.8182   -2.4774  -12.3895 O   0  0  0  0  0  0  0  0  0  0  0  0
  -14.1786   -6.3639  -15.8628 C   0  0  0  0  0  0  0  0  0  0  0  0
  -14.8992   -6.6782  -14.6875 C   0  0  0  0  0  0  0  0  0  0  0  0
  -14.9407   -5.8289  -13.5923 C   0  0  0  0  0  0  0  0  0  0  0  0
  -15.7953   -6.1322  -12.5982 N   0  0  0  0  0  0  0  0  0  0  0  0
  -15.9351   -5.2593  -11.5812 C   0  0  0  0  0  0  0  0  0  0  0  0
  -15.2638   -4.0551  -11.5137 C   0  0  0  0  0  0  0  0  0  0  0  0
  -14.3749   -3.7409  -12.5387 C   0  0  0  0  0  0  0  0  0  0  0  0
  -14.1461   -4.6836  -13.5879 C   0  0  0  0  0  0  0  0  0  0  0  0
  -13.2226   -4.5341  -14.6514 C   0  0  0  0  0  0  0  0  0  0  0  0
  -13.3046   -5.2808  -15.8314 C   0  0  0  0  0  0  0  0  0  0  0  0
  -13.4330   -8.2277  -17.1319 C   0  0  0  0  0  0  0  0  0  0  0  0
  -14.3081   -7.1021  -17.0083 O   0  0  0  0  0  0  0  0  0  0  0  0
  -12.5109   -4.7438  -16.8031 O   0  0  0  0  0  0  0  0  0  0  0  0
  -13.0346   -3.8510  -17.7695 C   0  0  0  0  0  0  0  0  0  0  0  0
 36 37  1  0  0  0
 37 26  1  0  0  0
 26 27  1  0  0  0
 26 35  2  0  0  0
 27 28  2  0  0  0
 28 29  1  0  0  0
 28 33  1  0  0  0
 29 30  2  0  0  0
 30 31  1  0  0  0
 31 32  2  0  0  0
 32 25  1  0  0  0
 32 33  1  0  0  0
 25  1  1  0  0  0
  1  2  1  0  0  0
  1 10  2  0  0  0
  2  3  2  0  0  0
  3  4  1  0  0  0
  4  5  1  0  0  0
  4  9  2  0  0  0
  5 11  1  0  0  0
  5  6  2  0  0  0
 11 12  2  0  0  0
 11 13  1  0  0  0
 13 15  1  0  0  0
 13 14  1  0  0  0
 15 16  1  0  0  0
 15 20  2  0  0  0
 16 17  2  0  0  0
 17 18  1  0  0  0
 18 19  2  0  0  0
 19 21  1  0  0  0
 19 20  1  0  0  0
 21 22  1  0  0  0
 21 23  1  0  0  0
 21 24  1  0  0  0
  6  7  1  0  0  0
  7  8  2  0  0  0
  8  9  1  0  0  0
  9 10  1  0  0  0
 33 34  2  0  0  0
 34 35  1  0  0  0
 35 38  1  0  0  0
 38 39  1  0  0  0
M  END
> <minimizedAffinity>
-10.07002

$$$$
