CHEMBL4069517


 36 39  0  0  0  0  0  0  0  0999 V2000
  -23.0438    0.0125  -13.0318 C   0  0  0  0  0  0  0  0  0  0  0  0
  -22.9477   -1.3868  -12.9904 C   0  0  0  0  0  0  0  0  0  0  0  0
  -23.9256   -2.1654  -12.3330 C   0  0  0  0  0  0  0  0  0  0  0  0
  -25.0111   -1.5608  -11.6786 C   0  0  0  0  0  0  0  0  0  0  0  0
  -25.1115   -0.1832  -11.7397 C   0  0  0  0  0  0  0  0  0  0  0  0
  -24.1382    0.5844  -12.3719 C   0  0  0  0  0  0  0  0  0  0  0  0
  -16.5961    1.3851  -16.0235 N   0  0  0  0  0  0  0  0  0  0  0  0
  -17.8220    1.8429  -15.5888 C   0  0  0  0  0  0  0  0  0  0  0  0
  -18.0660    3.1428  -15.7523 N   0  0  0  0  0  0  0  0  0  0  0  0
  -19.2878    3.5610  -15.3597 C   0  0  0  0  0  0  0  0  0  0  0  0
  -20.2515    2.7194  -14.8386 C   0  0  0  0  0  0  0  0  0  0  0  0
  -21.5203    3.1681  -14.4571 C   0  0  0  0  0  0  0  0  0  0  0  0
  -22.4268    2.2591  -13.9329 C   0  0  0  0  0  0  0  0  0  0  0  0
  -22.0889    0.9063  -13.7282 C   0  0  0  0  0  0  0  0  0  0  0  0
  -20.8130    0.4918  -14.1521 C   0  0  0  0  0  0  0  0  0  0  0  0
  -19.8877    1.3768  -14.7116 C   0  0  0  0  0  0  0  0  0  0  0  0
  -18.6796    0.9402  -15.1001 N   0  0  0  0  0  0  0  0  0  0  0  0
  -16.2353    2.0156  -16.7260 H   0  0  0  0  0  0  0  0  0  0  0  0
  -16.6666    0.4098  -16.2736 H   0  0  0  0  0  0  0  0  0  0  0  0
  -25.9088   -2.3861  -10.9630 N   0  0  0  0  0  0  0  0  0  0  0  0
  -25.6264   -3.3548  -10.8802 H   0  0  0  0  0  0  0  0  0  0  0  0
  -27.1162   -2.0967  -10.3175 C   0  0  0  0  0  0  0  0  0  0  0  0
  -28.2528   -0.9092  -10.6567 S   0  0  0  0  0  0  0  0  0  0  0  0
  -27.2009   -2.8776   -9.1591 N   0  0  0  0  0  0  0  0  0  0  0  0
  -26.4155   -3.5103   -9.0559 H   0  0  0  0  0  0  0  0  0  0  0  0
  -27.8815   -2.5316   -7.9720 C   0  0  0  0  0  0  0  0  0  0  0  0
  -28.6500   -3.4982   -7.3241 C   0  0  0  0  0  0  0  0  0  0  0  0
  -29.3929   -3.1433   -6.1979 C   0  0  0  0  0  0  0  0  0  0  0  0
  -30.4451   -4.4492   -5.3237 Br  0  0  0  0  0  0  0  0  0  0  0  0
  -29.3853   -1.8326   -5.7175 C   0  0  0  0  0  0  0  0  0  0  0  0
  -28.6162   -0.8548   -6.3616 C   0  0  0  0  0  0  0  0  0  0  0  0
  -27.8677   -1.2187   -7.4900 C   0  0  0  0  0  0  0  0  0  0  0  0
  -28.5880    0.5757   -5.8885 C   0  0  0  0  0  0  0  0  0  0  0  0
  -28.3862    1.4740   -6.8912 F   0  0  0  0  0  0  0  0  0  0  0  0
  -29.7440    0.9490   -5.2761 F   0  0  0  0  0  0  0  0  0  0  0  0
  -27.5945    0.7995   -4.9838 F   0  0  0  0  0  0  0  0  0  0  0  0
  7  8  1  0  0  0
  7 18  1  0  0  0
  7 19  1  0  0  0
  8  9  1  0  0  0
  8 17  2  0  0  0
  9 10  2  0  0  0
 10 11  1  0  0  0
 11 12  1  0  0  0
 11 16  2  0  0  0
 12 13  2  0  0  0
 13 14  1  0  0  0
 14  1  1  0  0  0
 14 15  2  0  0  0
  1  2  1  0  0  0
  1  6  2  0  0  0
  2  3  2  0  0  0
  3  4  1  0  0  0
  4 20  1  0  0  0
  4  5  2  0  0  0
 20 22  1  0  0  0
 20 21  1  0  0  0
 22 23  2  0  0  0
 22 24  1  0  0  0
 24 26  1  0  0  0
 24 25  1  0  0  0
 26 27  1  0  0  0
 26 32  2  0  0  0
 27 28  2  0  0  0
 28 29  1  0  0  0
 28 30  1  0  0  0
 30 31  2  0  0  0
 31 33  1  0  0  0
 31 32  1  0  0  0
 33 34  1  0  0  0
 33 35  1  0  0  0
 33 36  1  0  0  0
  5  6  1  0  0  0
 15 16  1  0  0  0
 16 17  1  0  0  0
M  END
> <minimizedAffinity>
-12.14610

$$$$
