CHEMBL196025


 30 33  0  0  0  0  0  0  0  0999 V2000
  -14.6787    3.5629  -16.1872 C   0  0  0  0  0  0  0  0  0  0  0  0
  -15.8154    4.0750  -16.6993 N   0  0  0  0  0  0  0  0  0  0  0  0
  -17.0343    3.6041  -16.3092 N   0  0  0  0  0  0  0  0  0  0  0  0
  -17.1403    2.5696  -15.4443 C   0  0  0  0  0  0  0  0  0  0  0  0
  -15.9815    1.9575  -14.9090 C   0  0  0  0  0  0  0  0  0  0  0  0
  -15.9861    0.7968  -14.0903 C   0  0  0  0  0  0  0  0  0  0  0  0
  -14.8248    0.2841  -13.5132 C   0  0  0  0  0  0  0  0  0  0  0  0
  -13.6087    0.8901  -13.7729 C   0  0  0  0  0  0  0  0  0  0  0  0
  -13.5538    1.9769  -14.6444 C   0  0  0  0  0  0  0  0  0  0  0  0
  -14.7224    2.5215  -15.2375 C   0  0  0  0  0  0  0  0  0  0  0  0
  -18.5531    2.2228  -15.1339 C   0  0  0  0  0  0  0  0  0  0  0  0
  -19.4303    3.2042  -14.6254 C   0  0  0  0  0  0  0  0  0  0  0  0
  -20.7518    2.9026  -14.2748 C   0  0  0  0  0  0  0  0  0  0  0  0
  -21.2459    1.6100  -14.4529 C   0  0  0  0  0  0  0  0  0  0  0  0
  -20.3990    0.6150  -14.9441 C   0  0  0  0  0  0  0  0  0  0  0  0
  -19.0642    0.9165  -15.2451 C   0  0  0  0  0  0  0  0  0  0  0  0
  -22.6431    1.3172  -14.0466 C   0  0  0  0  0  0  0  0  0  0  0  0
  -23.3981    2.3640  -13.5954 N   0  0  0  0  0  0  0  0  0  0  0  0
  -23.1003    0.1828  -14.0875 O   0  0  0  0  0  0  0  0  0  0  0  0
  -22.9961    3.2470  -13.3178 H   0  0  0  0  0  0  0  0  0  0  0  0
  -24.3156    2.1289  -13.2386 H   0  0  0  0  0  0  0  0  0  0  0  0
  -13.4341    4.0719  -16.6404 N   0  0  0  0  0  0  0  0  0  0  0  0
  -12.7193    3.3589  -16.5572 H   0  0  0  0  0  0  0  0  0  0  0  0
  -11.1447    7.3559  -13.7105 C   0  0  0  0  0  0  0  0  0  0  0  0
  -11.7747    7.0046  -15.0263 C   0  0  0  0  0  0  0  0  0  0  0  0
  -11.8108    7.9372  -16.0670 C   0  0  0  0  0  0  0  0  0  0  0  0
  -12.3932    7.6016  -17.2847 C   0  0  0  0  0  0  0  0  0  0  0  0
  -12.9499    6.3349  -17.4664 C   0  0  0  0  0  0  0  0  0  0  0  0
  -12.9537    5.3854  -16.4343 C   0  0  0  0  0  0  0  0  0  0  0  0
  -12.3345    5.7279  -15.2221 C   0  0  0  0  0  0  0  0  0  0  0  0
 24 25  1  0  0  0
 25 26  1  0  0  0
 25 30  2  0  0  0
 26 27  2  0  0  0
 27 28  1  0  0  0
 28 29  2  0  0  0
 29 22  1  0  0  0
 29 30  1  0  0  0
 22  1  1  0  0  0
 22 23  1  0  0  0
  1  2  1  0  0  0
  1 10  2  0  0  0
  2  3  2  0  0  0
  3  4  1  0  0  0
  4 11  1  0  0  0
  4  5  2  0  0  0
 11 12  1  0  0  0
 11 16  2  0  0  0
 12 13  2  0  0  0
 13 14  1  0  0  0
 14 17  1  0  0  0
 14 15  2  0  0  0
 17 18  1  0  0  0
 17 19  2  0  0  0
 18 20  1  0  0  0
 18 21  1  0  0  0
 15 16  1  0  0  0
  5  6  1  0  0  0
  5 10  1  0  0  0
  6  7  2  0  0  0
  7  8  1  0  0  0
  8  9  2  0  0  0
  9 10  1  0  0  0
M  END
> <minimizedAffinity>
-8.59252

$$$$
