CHEMBL76432


 27 31  0  0  0  0  0  0  0  0999 V2000
  -28.8000   -8.2729   -7.6831 C   0  0  0  0  0  0  0  0  0  0  0  0
  -28.6105   -8.7122   -6.3884 C   0  0  0  0  0  0  0  0  0  0  0  0
  -29.0449   -7.7833   -5.4046 C   0  0  0  0  0  0  0  0  0  0  0  0
  -28.9699   -7.9923   -4.0686 N   0  0  0  0  0  0  0  0  0  0  0  0
  -29.4290   -6.9779   -3.3366 C   0  0  0  0  0  0  0  0  0  0  0  0
  -29.9222   -5.8174   -3.7933 N   0  0  0  0  0  0  0  0  0  0  0  0
  -29.9933   -5.5913   -5.1226 C   0  0  0  0  0  0  0  0  0  0  0  0
  -29.5556   -6.6204   -5.9683 C   0  0  0  0  0  0  0  0  0  0  0  0
  -29.5015   -6.7052   -7.6865 S   0  0  0  0  0  0  0  0  0  0  0  0
  -27.8794  -10.3232  -11.3368 C   0  0  0  0  0  0  0  0  0  0  0  0
  -26.9180   -9.5423  -10.7028 C   0  0  0  0  0  0  0  0  0  0  0  0
  -27.2298   -8.8823   -9.5123 C   0  0  0  0  0  0  0  0  0  0  0  0
  -28.5055   -8.9919   -8.9340 C   0  0  0  0  0  0  0  0  0  0  0  0
  -29.4656   -9.7747   -9.5924 C   0  0  0  0  0  0  0  0  0  0  0  0
  -29.1520  -10.4390  -10.7823 C   0  0  0  0  0  0  0  0  0  0  0  0
  -30.5043   -4.3748   -5.5977 N   0  0  0  0  0  0  0  0  0  0  0  0
  -31.3543   -4.4652   -6.1409 H   0  0  0  0  0  0  0  0  0  0  0  0
  -29.7787   -3.1979   -5.8811 C   0  0  0  0  0  0  0  0  0  0  0  0
  -28.8068   -3.2246   -6.8890 C   0  0  0  0  0  0  0  0  0  0  0  0
  -28.0162   -2.1054   -7.1871 C   0  0  0  0  0  0  0  0  0  0  0  0
  -28.2784   -0.9276   -6.4822 C   0  0  0  0  0  0  0  0  0  0  0  0
  -27.6481    0.2950   -6.5051 N   0  0  0  0  0  0  0  0  0  0  0  0
  -28.4158    1.2262   -5.8564 C   0  0  0  0  0  0  0  0  0  0  0  0
  -29.4212    0.5505   -5.2035 C   0  0  0  0  0  0  0  0  0  0  0  0
  -29.3191   -0.8211   -5.5641 C   0  0  0  0  0  0  0  0  0  0  0  0
  -30.0442   -1.9798   -5.2317 C   0  0  0  0  0  0  0  0  0  0  0  0
  -26.7707    0.4812   -6.9703 H   0  0  0  0  0  0  0  0  0  0  0  0
 10 11  1  0  0  0
 10 15  2  0  0  0
 11 12  2  0  0  0
 12 13  1  0  0  0
 13  1  1  0  0  0
 13 14  2  0  0  0
  1  2  2  0  0  0
  1  9  1  0  0  0
  2  3  1  0  0  0
  3  4  1  0  0  0
  3  8  2  0  0  0
  4  5  2  0  0  0
  5  6  1  0  0  0
  6  7  2  0  0  0
  7 16  1  0  0  0
  7  8  1  0  0  0
 16 18  1  0  0  0
 16 17  1  0  0  0
 18 19  1  0  0  0
 18 26  2  0  0  0
 19 20  2  0  0  0
 20 21  1  0  0  0
 21 22  1  0  0  0
 21 25  2  0  0  0
 22 23  1  0  0  0
 22 27  1  0  0  0
 23 24  2  0  0  0
 24 25  1  0  0  0
 25 26  1  0  0  0
  8  9  1  0  0  0
 14 15  1  0  0  0
M  END
> <minimizedAffinity>
-8.91148

$$$$
