CHEMBL1985888


 35 38  0  0  0  0  0  0  0  0999 V2000
  -28.9252   -4.5816   -6.1457 C   0  0  0  0  0  0  0  0  0  0  0  0
  -29.6134   -4.6292   -7.3544 C   0  0  0  0  0  0  0  0  0  0  0  0
  -29.3432   -3.7393   -8.3908 C   0  0  0  0  0  0  0  0  0  0  0  0
  -28.4620   -2.6750   -8.2217 C   0  0  0  0  0  0  0  0  0  0  0  0
  -27.8426   -2.5363   -6.9772 C   0  0  0  0  0  0  0  0  0  0  0  0
  -28.0585   -3.4898   -5.9593 C   0  0  0  0  0  0  0  0  0  0  0  0
  -29.1911  -10.4180   -4.1844 C   0  0  0  0  0  0  0  0  0  0  0  0
  -29.0057   -9.1695   -4.8814 N   0  0  0  0  0  0  0  0  0  0  0  0
  -28.5574   -9.1744   -6.1457 N   0  0  0  0  0  0  0  0  0  0  0  0
  -28.4867   -7.8825   -6.4578 C   0  0  0  0  0  0  0  0  0  0  0  0
  -28.0297   -7.5132   -7.6640 N   0  0  0  0  0  0  0  0  0  0  0  0
  -28.9296   -7.0194   -5.3973 C   0  0  0  0  0  0  0  0  0  0  0  0
  -29.1330   -5.6342   -5.1268 C   0  0  0  0  0  0  0  0  0  0  0  0
  -29.5858   -5.3202   -3.8286 C   0  0  0  0  0  0  0  0  0  0  0  0
  -29.8183   -6.3280   -2.9020 C   0  0  0  0  0  0  0  0  0  0  0  0
  -29.6607   -7.6455   -3.1277 N   0  0  0  0  0  0  0  0  0  0  0  0
  -29.2283   -7.9201   -4.3779 C   0  0  0  0  0  0  0  0  0  0  0  0
  -27.6504   -8.2521   -8.2459 H   0  0  0  0  0  0  0  0  0  0  0  0
  -27.5748   -6.6180   -7.7957 H   0  0  0  0  0  0  0  0  0  0  0  0
  -28.1749   -1.7469   -9.2527 N   0  0  0  0  0  0  0  0  0  0  0  0
  -27.2748   -1.9547  -10.2851 C   0  0  0  0  0  0  0  0  0  0  0  0
  -26.6412   -2.9893  -10.4741 O   0  0  0  0  0  0  0  0  0  0  0  0
  -27.1210   -0.8360  -11.0917 N   0  0  0  0  0  0  0  0  0  0  0  0
  -28.7484   -0.9186   -9.3027 H   0  0  0  0  0  0  0  0  0  0  0  0
  -27.1438    0.0447  -10.5987 H   0  0  0  0  0  0  0  0  0  0  0  0
  -26.2843   -0.9060  -12.2339 C   0  0  0  0  0  0  0  0  0  0  0  0
  -26.6819   -1.5975  -13.3856 C   0  0  0  0  0  0  0  0  0  0  0  0
  -25.8221   -1.7208  -14.4751 C   0  0  0  0  0  0  0  0  0  0  0  0
  -24.5460   -1.1672  -14.4151 C   0  0  0  0  0  0  0  0  0  0  0  0
  -24.1277   -0.4740  -13.2683 C   0  0  0  0  0  0  0  0  0  0  0  0
  -25.0207   -0.3162  -12.1913 C   0  0  0  0  0  0  0  0  0  0  0  0
  -22.7177    0.0471  -13.1535 C   0  0  0  0  0  0  0  0  0  0  0  0
  -22.1517   -0.1642  -11.9335 F   0  0  0  0  0  0  0  0  0  0  0  0
  -21.8777   -0.5229  -14.0609 F   0  0  0  0  0  0  0  0  0  0  0  0
  -22.6450    1.3896  -13.3715 F   0  0  0  0  0  0  0  0  0  0  0  0
  7  8  1  0  0  0
  8  9  1  0  0  0
  8 17  1  0  0  0
  9 10  2  0  0  0
 10 11  1  0  0  0
 10 12  1  0  0  0
 11 18  1  0  0  0
 11 19  1  0  0  0
 12 13  1  0  0  0
 12 17  2  0  0  0
 13  1  1  0  0  0
 13 14  2  0  0  0
  1  2  1  0  0  0
  1  6  2  0  0  0
  2  3  2  0  0  0
  3  4  1  0  0  0
  4 20  1  0  0  0
  4  5  2  0  0  0
 20 21  1  0  0  0
 20 24  1  0  0  0
 21 22  2  0  0  0
 21 23  1  0  0  0
 23 26  1  0  0  0
 23 25  1  0  0  0
 26 27  1  0  0  0
 26 31  2  0  0  0
 27 28  2  0  0  0
 28 29  1  0  0  0
 29 30  2  0  0  0
 30 32  1  0  0  0
 30 31  1  0  0  0
 32 33  1  0  0  0
 32 34  1  0  0  0
 32 35  1  0  0  0
  5  6  1  0  0  0
 14 15  1  0  0  0
 15 16  2  0  0  0
 16 17  1  0  0  0
M  END
> <minimizedAffinity>
-9.78778

$$$$
