CHEMBL1076473


 49 54  0  0  0  0  0  0  0  0999 V2000
  -16.7177    1.5616  -15.2609 C   0  0  0  0  0  0  0  0  0  0  0  0
  -16.3799    2.7908  -15.6594 N   0  0  0  0  0  0  0  0  0  0  0  0
  -15.3975    2.5819  -16.6053 C   0  0  0  0  0  0  0  0  0  0  0  0
  -14.9247    3.4037  -17.6406 C   0  0  0  0  0  0  0  0  0  0  0  0
  -14.0424    2.8462  -18.5833 C   0  0  0  0  0  0  0  0  0  0  0  0
  -13.5676    1.5400  -18.4483 C   0  0  0  0  0  0  0  0  0  0  0  0
  -13.9458    0.7519  -17.3662 C   0  0  0  0  0  0  0  0  0  0  0  0
  -14.8947    1.2944  -16.4966 C   0  0  0  0  0  0  0  0  0  0  0  0
  -15.5120    0.7980  -15.3624 N   0  0  0  0  0  0  0  0  0  0  0  0
  -14.8381   -0.0778  -14.4460 C   0  0  0  0  0  0  0  0  0  0  0  0
  -15.5921   -0.7464  -13.5386 C   0  0  0  0  0  0  0  0  0  0  0  0
  -14.9992   -1.5704  -12.5902 C   0  0  0  0  0  0  0  0  0  0  0  0
  -13.6731   -1.7079  -12.5726 N   0  0  0  0  0  0  0  0  0  0  0  0
  -12.9847   -1.0096  -13.4876 C   0  0  0  0  0  0  0  0  0  0  0  0
  -13.4959   -0.1973  -14.4326 N   0  0  0  0  0  0  0  0  0  0  0  0
  -15.6716   -2.3331  -11.6568 N   0  0  0  0  0  0  0  0  0  0  0  0
  -16.2572   -1.7435  -11.0735 H   0  0  0  0  0  0  0  0  0  0  0  0
  -16.1205   -3.7171  -11.7768 C   0  0  0  0  0  0  0  0  0  0  0  0
  -16.4994   -4.0112  -13.1955 C   0  0  0  0  0  0  0  0  0  0  0  0
  -16.8962   -5.3845  -13.5099 C   0  0  0  0  0  0  0  0  0  0  0  0
  -15.6461   -6.1875  -13.3057 C   0  0  0  0  0  0  0  0  0  0  0  0
  -15.9009   -7.1569  -14.3868 N   0  0  0  0  0  0  0  0  0  0  0  0
  -15.2315   -6.1345  -11.7763 C   0  0  0  0  0  0  0  0  0  0  0  0
  -15.0016   -4.6615  -11.3131 C   0  0  0  0  0  0  0  0  0  0  0  0
  -16.8754   -7.2826  -14.6502 H   0  0  0  0  0  0  0  0  0  0  0  0
  -15.4900   -8.0810  -14.3161 H   0  0  0  0  0  0  0  0  0  0  0  0
  -18.0229    1.1738  -15.5152 N   0  0  0  0  0  0  0  0  0  0  0  0
  -18.0165    0.6476  -16.3928 H   0  0  0  0  0  0  0  0  0  0  0  0
  -18.6048    3.7423  -14.3256 C   0  0  0  0  0  0  0  0  0  0  0  0
  -19.6719    2.6906  -14.5496 C   0  0  0  0  0  0  0  0  0  0  0  0
  -20.9684    2.9351  -14.0118 C   0  0  0  0  0  0  0  0  0  0  0  0
  -22.0576    2.0365  -14.0591 C   0  0  0  0  0  0  0  0  0  0  0  0
  -21.8446    0.7801  -14.5851 C   0  0  0  0  0  0  0  0  0  0  0  0
  -20.4459    0.5269  -15.0946 C   0  0  0  0  0  0  0  0  0  0  0  0
  -19.3931    1.4788  -15.2196 C   0  0  0  0  0  0  0  0  0  0  0  0
  -22.8077   -0.3229  -14.2796 N   0  0  0  0  0  0  0  0  0  0  0  0
  -23.4373   -0.8252  -12.9774 C   0  0  0  0  0  0  0  0  0  0  0  0
  -22.7678   -0.7251  -11.9254 O   0  0  0  0  0  0  0  0  0  0  0  0
  -23.4133   -0.2317  -15.0966 H   0  0  0  0  0  0  0  0  0  0  0  0
  -25.0893   -1.4192  -12.7689 C   0  0  0  0  0  0  0  0  0  0  0  0
  -26.1502   -1.7542  -13.7057 C   0  0  0  0  0  0  0  0  0  0  0  0
  -27.5234   -1.9753  -13.4387 C   0  0  0  0  0  0  0  0  0  0  0  0
  -27.9614   -1.9598  -12.1565 C   0  0  0  0  0  0  0  0  0  0  0  0
  -27.0289   -1.6608  -11.1587 C   0  0  0  0  0  0  0  0  0  0  0  0
  -25.6292   -1.3733  -11.4661 C   0  0  0  0  0  0  0  0  0  0  0  0
  -27.5770   -1.5939   -9.7495 C   0  0  0  0  0  0  0  0  0  0  0  0
  -28.5732   -0.6669   -9.6104 F   0  0  0  0  0  0  0  0  0  0  0  0
  -28.1118   -2.7711   -9.3407 F   0  0  0  0  0  0  0  0  0  0  0  0
  -26.6277   -1.2514   -8.8399 F   0  0  0  0  0  0  0  0  0  0  0  0
 29 30  1  0  0  0
 30 31  1  0  0  0
 30 35  2  0  0  0
 31 32  2  0  0  0
 32 33  1  0  0  0
 33 36  1  0  0  0
 33 34  2  0  0  0
 36 37  1  0  0  0
 36 39  1  0  0  0
 37 38  2  0  0  0
 37 40  1  0  0  0
 40 41  1  0  0  0
 40 45  2  0  0  0
 41 42  2  0  0  0
 42 43  1  0  0  0
 43 44  2  0  0  0
 44 46  1  0  0  0
 44 45  1  0  0  0
 46 47  1  0  0  0
 46 48  1  0  0  0
 46 49  1  0  0  0
 34 35  1  0  0  0
 35 27  1  0  0  0
 27  1  1  0  0  0
 27 28  1  0  0  0
  1  2  2  0  0  0
  1  9  1  0  0  0
  2  3  1  0  0  0
  3  4  1  0  0  0
  3  8  2  0  0  0
  4  5  2  0  0  0
  5  6  1  0  0  0
  6  7  2  0  0  0
  7  8  1  0  0  0
  8  9  1  0  0  0
  9 10  1  0  0  0
 10 11  1  0  0  0
 10 15  2  0  0  0
 11 12  2  0  0  0
 12 16  1  0  0  0
 12 13  1  0  0  0
 16 18  1  0  0  0
 16 17  1  0  0  0
 18 19  1  0  0  0
 18 24  1  0  0  0
 19 20  1  0  0  0
 20 21  1  0  0  0
 21 23  1  0  0  0
 21 22  1  0  0  0
 22 25  1  0  0  0
 22 26  1  0  0  0
 23 24  1  0  0  0
 13 14  2  0  0  0
 14 15  1  0  0  0
M  END
> <minimizedAffinity>
-12.72248

$$$$
