CHEMBL1229517


 35 38  0  0  0  0  0  0  0  0999 V2000
  -28.7904   -8.5592   -3.8176 C   0  0  0  0  0  0  0  0  0  0  0  0
  -29.1565   -7.8839   -2.8596 O   0  0  0  0  0  0  0  0  0  0  0  0
  -29.1676   -8.1891   -5.1873 C   0  0  0  0  0  0  0  0  0  0  0  0
  -29.5516   -9.0470   -6.2112 C   0  0  0  0  0  0  0  0  0  0  0  0
  -29.8014   -8.3010   -7.3358 N   0  0  0  0  0  0  0  0  0  0  0  0
  -29.6425   -6.9753   -7.0572 C   0  0  0  0  0  0  0  0  0  0  0  0
  -29.8441   -5.9897   -7.9471 N   0  0  0  0  0  0  0  0  0  0  0  0
  -29.6031   -4.7584   -7.4250 C   0  0  0  0  0  0  0  0  0  0  0  0
  -29.1667   -4.4520   -6.1293 C   0  0  0  0  0  0  0  0  0  0  0  0
  -28.9913   -5.5509   -5.2639 C   0  0  0  0  0  0  0  0  0  0  0  0
  -29.2421   -6.8591   -5.7336 C   0  0  0  0  0  0  0  0  0  0  0  0
  -30.0686   -8.6479   -8.2455 H   0  0  0  0  0  0  0  0  0  0  0  0
  -28.8930   -3.0594   -5.6982 C   0  0  0  0  0  0  0  0  0  0  0  0
  -27.5958   -2.6411   -5.3451 C   0  0  0  0  0  0  0  0  0  0  0  0
  -27.3246   -1.3175   -4.9754 C   0  0  0  0  0  0  0  0  0  0  0  0
  -28.3535   -0.3845   -4.9369 C   0  0  0  0  0  0  0  0  0  0  0  0
  -28.0216    1.2443   -4.4960 Cl  0  0  0  0  0  0  0  0  0  0  0  0
  -29.6503   -0.7652   -5.2605 C   0  0  0  0  0  0  0  0  0  0  0  0
  -29.9141   -2.0877   -5.6413 C   0  0  0  0  0  0  0  0  0  0  0  0
  -25.7248  -10.7758   -3.4134 C   0  0  0  0  0  0  0  0  0  0  0  0
  -26.3040  -12.0175   -3.1596 C   0  0  0  0  0  0  0  0  0  0  0  0
  -27.6919  -12.1287   -3.1120 C   0  0  0  0  0  0  0  0  0  0  0  0
  -28.4935  -11.0076   -3.3338 C   0  0  0  0  0  0  0  0  0  0  0  0
  -29.8198  -11.1972   -3.3470 F   0  0  0  0  0  0  0  0  0  0  0  0
  -27.9365   -9.7480   -3.5632 C   0  0  0  0  0  0  0  0  0  0  0  0
  -26.5407   -9.6483   -3.6221 C   0  0  0  0  0  0  0  0  0  0  0  0
  -25.9404   -8.4670   -3.8374 F   0  0  0  0  0  0  0  0  0  0  0  0
  -24.2924  -10.6924   -3.5401 N   0  0  0  0  0  0  0  0  0  0  0  0
  -23.9212   -9.8166   -3.1523 H   0  0  0  0  0  0  0  0  0  0  0  0
  -23.6901  -10.7815   -5.1358 S   0  0  0  0  0  0  0  0  0  0  0  0
  -23.5849   -9.4066   -5.5725 O   0  0  0  0  0  0  0  0  0  0  0  0
  -24.4351  -11.7714   -5.8812 O   0  0  0  0  0  0  0  0  0  0  0  0
  -22.0261  -11.4057   -4.8606 C   0  0  0  0  0  0  0  0  0  0  0  0
  -21.2391  -10.8243   -7.1994 C   0  0  0  0  0  0  0  0  0  0  0  0
  -21.4223  -11.9242   -6.1658 C   0  0  0  0  0  0  0  0  0  0  0  0
 34 35  1  0  0  0
 35 33  1  0  0  0
 33 30  1  0  0  0
 30 31  2  0  0  0
 30 32  2  0  0  0
 30 28  1  0  0  0
 28 20  1  0  0  0
 28 29  1  0  0  0
 20 21  1  0  0  0
 20 26  2  0  0  0
 21 22  2  0  0  0
 22 23  1  0  0  0
 23 24  1  0  0  0
 23 25  2  0  0  0
 25  1  1  0  0  0
 25 26  1  0  0  0
  1  2  2  0  0  0
  1  3  1  0  0  0
  3  4  2  0  0  0
  3 11  1  0  0  0
  4  5  1  0  0  0
  5  6  1  0  0  0
  5 12  1  0  0  0
  6  7  1  0  0  0
  6 11  2  0  0  0
  7  8  2  0  0  0
  8  9  1  0  0  0
  9 13  1  0  0  0
  9 10  2  0  0  0
 13 14  1  0  0  0
 13 19  2  0  0  0
 14 15  2  0  0  0
 15 16  1  0  0  0
 16 17  1  0  0  0
 16 18  2  0  0  0
 18 19  1  0  0  0
 10 11  1  0  0  0
 26 27  1  0  0  0
M  END
> <minimizedAffinity>
-8.70701

$$$$
