CHEMBL416191


 32 35  0  0  0  0  0  0  0  0999 V2000
  -28.8950  -10.3745   -4.4945 C   0  0  0  0  0  0  0  0  0  0  0  0
  -29.2596   -9.1991   -5.1458 C   0  0  0  0  0  0  0  0  0  0  0  0
  -28.7667   -8.8613   -6.4217 C   0  0  0  0  0  0  0  0  0  0  0  0
  -29.0997   -7.6684   -7.0750 C   0  0  0  0  0  0  0  0  0  0  0  0
  -28.6730   -7.3941   -8.3191 N   0  0  0  0  0  0  0  0  0  0  0  0
  -27.9056   -8.3300   -8.8963 C   0  0  0  0  0  0  0  0  0  0  0  0
  -27.4995   -9.4825   -8.3446 N   0  0  0  0  0  0  0  0  0  0  0  0
  -27.9315   -9.7441   -7.1039 C   0  0  0  0  0  0  0  0  0  0  0  0
  -27.5534  -10.9116   -6.4517 C   0  0  0  0  0  0  0  0  0  0  0  0
  -27.9868  -11.2289   -5.1471 C   0  0  0  0  0  0  0  0  0  0  0  0
  -30.1976  -11.8550   -3.0677 C   0  0  0  0  0  0  0  0  0  0  0  0
  -29.3700  -10.7107   -3.2597 O   0  0  0  0  0  0  0  0  0  0  0  0
  -29.8613   -6.6900   -6.3737 N   0  0  0  0  0  0  0  0  0  0  0  0
  -30.3071   -7.1325   -5.5714 H   0  0  0  0  0  0  0  0  0  0  0  0
  -29.3737   -5.4047   -6.0518 C   0  0  0  0  0  0  0  0  0  0  0  0
  -29.6556   -4.2868   -6.8471 C   0  0  0  0  0  0  0  0  0  0  0  0
  -30.4916   -4.3944   -7.8918 F   0  0  0  0  0  0  0  0  0  0  0  0
  -29.1082   -3.0389   -6.5698 C   0  0  0  0  0  0  0  0  0  0  0  0
  -28.2781   -2.8923   -5.4640 C   0  0  0  0  0  0  0  0  0  0  0  0
  -27.4650   -1.2207   -5.1258 Br  0  0  0  0  0  0  0  0  0  0  0  0
  -28.0307   -3.9672   -4.6130 C   0  0  0  0  0  0  0  0  0  0  0  0
  -28.5893   -5.2076   -4.9101 C   0  0  0  0  0  0  0  0  0  0  0  0
  -28.3476   -6.2424   -4.0897 F   0  0  0  0  0  0  0  0  0  0  0  0
  -27.4420  -12.4068   -4.6794 O   0  0  0  0  0  0  0  0  0  0  0  0
  -26.0540  -12.3863   -4.3427 C   0  0  0  0  0  0  0  0  0  0  0  0
  -25.7455  -11.3251   -3.2639 C   0  0  0  0  0  0  0  0  0  0  0  0
  -24.9164  -10.1351   -3.7640 C   0  0  0  0  0  0  0  0  0  0  0  0
  -23.4645  -10.5125   -4.0736 C   0  0  0  0  0  0  0  0  0  0  0  0
  -22.8031  -11.2009   -2.9544 N   0  0  0  0  0  0  0  0  0  0  0  0
  -21.4537  -11.6149   -3.3486 C   0  0  0  0  0  0  0  0  0  0  0  0
  -23.5643  -12.3586   -2.4715 C   0  0  0  0  0  0  0  0  0  0  0  0
  -24.9961  -11.9724   -2.0892 C   0  0  0  0  0  0  0  0  0  0  0  0
 11 12  1  0  0  0
 12  1  1  0  0  0
  1  2  1  0  0  0
  1 10  2  0  0  0
  2  3  2  0  0  0
  3  4  1  0  0  0
  3  8  1  0  0  0
  4 13  1  0  0  0
  4  5  2  0  0  0
 13 15  1  0  0  0
 13 14  1  0  0  0
 15 16  1  0  0  0
 15 22  2  0  0  0
 16 17  1  0  0  0
 16 18  2  0  0  0
 18 19  1  0  0  0
 19 20  1  0  0  0
 19 21  2  0  0  0
 21 22  1  0  0  0
 22 23  1  0  0  0
  5  6  1  0  0  0
  6  7  2  0  0  0
  7  8  1  0  0  0
  8  9  2  0  0  0
  9 10  1  0  0  0
 10 24  1  0  0  0
 24 25  1  0  0  0
 25 26  1  0  0  0
 26 27  1  0  0  0
 26 32  1  0  0  0
 27 28  1  0  0  0
 28 29  1  0  0  0
 29 30  1  0  0  0
 29 31  1  0  0  0
 31 32  1  0  0  0
M  END
> <minimizedAffinity>
-7.59939

$$$$
