CHEMBL3956618


 36 40  0  0  0  0  0  0  0  0999 V2000
  -29.8330   -4.8441   -7.2183 C   0  0  0  0  0  0  0  0  0  0  0  0
  -30.7741   -5.0063   -7.9897 O   0  0  0  0  0  0  0  0  0  0  0  0
  -29.5180   -5.8971   -6.1989 C   0  0  0  0  0  0  0  0  0  0  0  0
  -29.7937   -5.7341   -4.8276 C   0  0  0  0  0  0  0  0  0  0  0  0
  -29.3633   -6.6734   -3.8683 C   0  0  0  0  0  0  0  0  0  0  0  0
  -28.8315   -7.8868   -4.3366 C   0  0  0  0  0  0  0  0  0  0  0  0
  -28.3102   -9.1250   -3.8303 C   0  0  0  0  0  0  0  0  0  0  0  0
  -28.8745  -10.0802   -4.6007 N   0  0  0  0  0  0  0  0  0  0  0  0
  -28.8314   -9.4830   -5.8104 N   0  0  0  0  0  0  0  0  0  0  0  0
  -28.8664   -8.1161   -5.7103 C   0  0  0  0  0  0  0  0  0  0  0  0
  -29.0240   -7.1180   -6.6685 C   0  0  0  0  0  0  0  0  0  0  0  0
  -28.9327  -10.0561   -6.6374 H   0  0  0  0  0  0  0  0  0  0  0  0
  -26.9313   -9.4417   -3.4798 C   0  0  0  0  0  0  0  0  0  0  0  0
  -25.8492   -8.9759   -4.1358 C   0  0  0  0  0  0  0  0  0  0  0  0
  -24.7018   -9.8588   -4.4606 C   0  0  0  0  0  0  0  0  0  0  0  0
  -24.0347  -10.5413   -3.4471 C   0  0  0  0  0  0  0  0  0  0  0  0
  -22.8154  -11.1611   -3.7315 C   0  0  0  0  0  0  0  0  0  0  0  0
  -22.2873  -11.0791   -5.0135 C   0  0  0  0  0  0  0  0  0  0  0  0
  -23.0131  -10.3898   -5.9669 C   0  0  0  0  0  0  0  0  0  0  0  0
  -24.2002   -9.7884   -5.7199 N   0  0  0  0  0  0  0  0  0  0  0  0
  -27.5479   -2.1674   -8.6045 C   0  0  0  0  0  0  0  0  0  0  0  0
  -27.6901   -1.1894   -7.6109 C   0  0  0  0  0  0  0  0  0  0  0  0
  -28.3990   -1.4432   -6.4434 C   0  0  0  0  0  0  0  0  0  0  0  0
  -29.0180   -2.6704   -6.2752 C   0  0  0  0  0  0  0  0  0  0  0  0
  -29.0241   -3.5999   -7.3207 C   0  0  0  0  0  0  0  0  0  0  0  0
  -28.2599   -3.3640   -8.4765 C   0  0  0  0  0  0  0  0  0  0  0  0
  -28.1943   -0.9908  -11.1936 O   0  0  0  0  0  0  0  0  0  0  0  0
  -27.0843   -1.4502  -10.9359 C   0  0  0  0  0  0  0  0  0  0  0  0
  -26.6788   -1.9782   -9.7222 N   0  0  0  0  0  0  0  0  0  0  0  0
  -25.6919   -2.1018   -9.5460 H   0  0  0  0  0  0  0  0  0  0  0  0
  -26.0759   -1.3590  -12.0056 C   0  0  0  0  0  0  0  0  0  0  0  0
  -24.8771   -0.7141  -11.6924 C   0  0  0  0  0  0  0  0  0  0  0  0
  -23.9664   -0.5030  -12.7050 C   0  0  0  0  0  0  0  0  0  0  0  0
  -24.1747   -0.8910  -13.9780 N   0  0  0  0  0  0  0  0  0  0  0  0
  -25.3483   -1.5061  -14.2527 C   0  0  0  0  0  0  0  0  0  0  0  0
  -26.3258   -1.7700  -13.3082 C   0  0  0  0  0  0  0  0  0  0  0  0
 27 28  2  0  0  0
 28 29  1  0  0  0
 28 31  1  0  0  0
 29 21  1  0  0  0
 29 30  1  0  0  0
 21 22  1  0  0  0
 21 26  2  0  0  0
 22 23  2  0  0  0
 23 24  1  0  0  0
 24 25  2  0  0  0
 25  1  1  0  0  0
 25 26  1  0  0  0
  1  2  2  0  0  0
  1  3  1  0  0  0
  3  4  1  0  0  0
  3 11  2  0  0  0
  4  5  2  0  0  0
  5  6  1  0  0  0
  6  7  1  0  0  0
  6 10  2  0  0  0
  7 13  1  0  0  0
  7  8  2  0  0  0
 13 14  2  0  0  0
 14 15  1  0  0  0
 15 16  1  0  0  0
 15 20  2  0  0  0
 16 17  2  0  0  0
 17 18  1  0  0  0
 18 19  2  0  0  0
 19 20  1  0  0  0
  8  9  1  0  0  0
  9 10  1  0  0  0
  9 12  1  0  0  0
 10 11  1  0  0  0
 31 32  1  0  0  0
 31 36  2  0  0  0
 32 33  2  0  0  0
 33 34  1  0  0  0
 34 35  2  0  0  0
 35 36  1  0  0  0
M  END
> <minimizedAffinity>
-10.18854

$$$$
