CHEMBL1242757


 25 28  0  0  0  0  0  0  0  0999 V2000
  -15.4381    0.1672  -14.0866 N   0  0  0  0  0  0  0  0  0  0  0  0
  -16.0665   -1.0083  -13.9044 N   0  0  0  0  0  0  0  0  0  0  0  0
  -15.1125   -1.8511  -13.4664 C   0  0  0  0  0  0  0  0  0  0  0  0
  -13.8447   -1.1793  -13.3804 C   0  0  0  0  0  0  0  0  0  0  0  0
  -12.5082   -1.4571  -13.0424 C   0  0  0  0  0  0  0  0  0  0  0  0
  -12.0000   -2.6943  -12.6953 N   0  0  0  0  0  0  0  0  0  0  0  0
  -11.6208   -0.4368  -13.0196 N   0  0  0  0  0  0  0  0  0  0  0  0
  -12.0407    0.7983  -13.3479 C   0  0  0  0  0  0  0  0  0  0  0  0
  -13.2645    1.1718  -13.7423 N   0  0  0  0  0  0  0  0  0  0  0  0
  -14.1187    0.1342  -13.7348 C   0  0  0  0  0  0  0  0  0  0  0  0
  -12.4648   -3.5292  -13.0248 H   0  0  0  0  0  0  0  0  0  0  0  0
  -10.9937   -2.7126  -12.5977 H   0  0  0  0  0  0  0  0  0  0  0  0
  -15.4512   -3.2387  -13.1229 C   0  0  0  0  0  0  0  0  0  0  0  0
  -16.2820   -3.5413  -12.0280 C   0  0  0  0  0  0  0  0  0  0  0  0
  -16.5716   -4.8554  -11.6670 C   0  0  0  0  0  0  0  0  0  0  0  0
  -16.0992   -5.9241  -12.4236 C   0  0  0  0  0  0  0  0  0  0  0  0
  -15.3396   -5.6238  -13.5604 C   0  0  0  0  0  0  0  0  0  0  0  0
  -14.8211   -6.4788  -14.5092 N   0  0  0  0  0  0  0  0  0  0  0  0
  -14.1517   -5.7724  -15.4670 C   0  0  0  0  0  0  0  0  0  0  0  0
  -14.2097   -4.4425  -15.1174 C   0  0  0  0  0  0  0  0  0  0  0  0
  -14.9901   -4.3191  -13.9233 C   0  0  0  0  0  0  0  0  0  0  0  0
  -14.9495   -7.4815  -14.5092 H   0  0  0  0  0  0  0  0  0  0  0  0
  -15.9498    1.3828  -16.1675 C   0  0  0  0  0  0  0  0  0  0  0  0
  -16.1604    1.2974  -14.6556 C   0  0  0  0  0  0  0  0  0  0  0  0
  -17.6522    1.2551  -14.3108 C   0  0  0  0  0  0  0  0  0  0  0  0
 23 24  1  0  0  0
 24 25  1  0  0  0
 24  1  1  0  0  0
  1  2  1  0  0  0
  1 10  1  0  0  0
  2  3  2  0  0  0
  3 13  1  0  0  0
  3  4  1  0  0  0
 13 14  1  0  0  0
 13 21  2  0  0  0
 14 15  2  0  0  0
 15 16  1  0  0  0
 16 17  2  0  0  0
 17 18  1  0  0  0
 17 21  1  0  0  0
 18 19  1  0  0  0
 18 22  1  0  0  0
 19 20  2  0  0  0
 20 21  1  0  0  0
  4  5  1  0  0  0
  4 10  2  0  0  0
  5  6  1  0  0  0
  5  7  2  0  0  0
  6 11  1  0  0  0
  6 12  1  0  0  0
  7  8  1  0  0  0
  8  9  2  0  0  0
  9 10  1  0  0  0
M  END
> <minimizedAffinity>
-6.61856

$$$$
