CHEMBL3690485


 36 40  0  0  0  0  0  0  0  0999 V2000
  -29.7292   -7.5430   -5.9068 C   0  0  0  0  0  0  0  0  0  0  0  0
  -30.3397   -8.5316   -6.6676 C   0  0  0  0  0  0  0  0  0  0  0  0
  -29.7317   -9.7427   -6.5268 N   0  0  0  0  0  0  0  0  0  0  0  0
  -28.7005   -9.5016   -5.7504 C   0  0  0  0  0  0  0  0  0  0  0  0
  -27.5340  -10.2761   -5.5349 C   0  0  0  0  0  0  0  0  0  0  0  0
  -26.4917   -9.7739   -4.8262 C   0  0  0  0  0  0  0  0  0  0  0  0
  -26.6742   -8.5126   -4.0952 C   0  0  0  0  0  0  0  0  0  0  0  0
  -27.7594   -7.7590   -4.3286 C   0  0  0  0  0  0  0  0  0  0  0  0
  -28.7227   -8.2128   -5.2292 N   0  0  0  0  0  0  0  0  0  0  0  0
  -29.4843   -4.0858   -7.3495 C   0  0  0  0  0  0  0  0  0  0  0  0
  -30.1051   -3.3758   -6.3292 C   0  0  0  0  0  0  0  0  0  0  0  0
  -30.6072   -3.9423   -5.2015 N   0  0  0  0  0  0  0  0  0  0  0  0
  -30.5066   -5.2860   -5.0935 C   0  0  0  0  0  0  0  0  0  0  0  0
  -29.8738   -6.0933   -6.0293 C   0  0  0  0  0  0  0  0  0  0  0  0
  -29.3331   -5.4580   -7.1581 C   0  0  0  0  0  0  0  0  0  0  0  0
  -27.1989   -2.2987   -7.8628 O   0  0  0  0  0  0  0  0  0  0  0  0
  -27.9861   -2.6650   -8.7305 C   0  0  0  0  0  0  0  0  0  0  0  0
  -27.8756   -2.2306  -10.0332 N   0  0  0  0  0  0  0  0  0  0  0  0
  -29.0347   -3.5301   -8.5672 N   0  0  0  0  0  0  0  0  0  0  0  0
  -28.7484   -2.1566  -10.5395 H   0  0  0  0  0  0  0  0  0  0  0  0
  -29.5639   -3.7697   -9.4003 H   0  0  0  0  0  0  0  0  0  0  0  0
  -26.8636   -1.2183  -10.3667 C   0  0  0  0  0  0  0  0  0  0  0  0
  -26.2868   -1.3160  -11.7860 C   0  0  0  0  0  0  0  0  0  0  0  0
  -25.6581   -0.1748  -12.1532 F   0  0  0  0  0  0  0  0  0  0  0  0
  -25.4170   -2.3373  -11.9190 F   0  0  0  0  0  0  0  0  0  0  0  0
  -27.2874   -1.5140  -12.6803 F   0  0  0  0  0  0  0  0  0  0  0  0
  -25.2024  -10.3896   -4.8796 C   0  0  0  0  0  0  0  0  0  0  0  0
  -24.2774  -10.5878   -3.8383 C   0  0  0  0  0  0  0  0  0  0  0  0
  -23.1386  -11.1399   -4.2649 N   0  0  0  0  0  0  0  0  0  0  0  0
  -23.3222  -11.2708   -5.5960 N   0  0  0  0  0  0  0  0  0  0  0  0
  -24.5432  -10.8194   -6.0091 C   0  0  0  0  0  0  0  0  0  0  0  0
  -22.3033  -11.8695   -6.4046 C   0  0  0  0  0  0  0  0  0  0  0  0
  -21.4934  -10.8552   -7.2479 C   0  0  0  0  0  0  0  0  0  0  0  0
  -21.5139  -11.8417   -8.3625 N   0  0  0  0  0  0  0  0  0  0  0  0
  -22.7761  -12.3715   -7.7886 C   0  0  0  0  0  0  0  0  0  0  0  0
  -20.7463  -12.5151   -8.3149 H   0  0  0  0  0  0  0  0  0  0  0  0
 16 17  2  0  0  0
 17 18  1  0  0  0
 17 19  1  0  0  0
 18 22  1  0  0  0
 18 20  1  0  0  0
 22 23  1  0  0  0
 23 24  1  0  0  0
 23 25  1  0  0  0
 23 26  1  0  0  0
 19 10  1  0  0  0
 19 21  1  0  0  0
 10 11  1  0  0  0
 10 15  2  0  0  0
 11 12  2  0  0  0
 12 13  1  0  0  0
 13 14  2  0  0  0
 14  1  1  0  0  0
 14 15  1  0  0  0
  1  2  2  0  0  0
  1  9  1  0  0  0
  2  3  1  0  0  0
  3  4  2  0  0  0
  4  5  1  0  0  0
  4  9  1  0  0  0
  5  6  2  0  0  0
  6 27  1  0  0  0
  6  7  1  0  0  0
 27 28  1  0  0  0
 27 31  2  0  0  0
 28 29  2  0  0  0
 29 30  1  0  0  0
 30 32  1  0  0  0
 30 31  1  0  0  0
 32 33  1  0  0  0
 32 35  1  0  0  0
 33 34  1  0  0  0
 34 35  1  0  0  0
 34 36  1  0  0  0
  7  8  2  0  0  0
  8  9  1  0  0  0
M  END
> <minimizedAffinity>
-8.95161

$$$$
