CHEMBL372960


 32 35  0  0  0  0  0  0  0  0999 V2000
  -29.5701   -7.8792   -7.1140 C   0  0  0  0  0  0  0  0  0  0  0  0
  -30.2579   -6.7329   -7.5091 C   0  0  0  0  0  0  0  0  0  0  0  0
  -30.1529   -5.5373   -6.7973 C   0  0  0  0  0  0  0  0  0  0  0  0
  -29.5108   -5.4788   -5.5666 C   0  0  0  0  0  0  0  0  0  0  0  0
  -28.8629   -6.6361   -5.1156 C   0  0  0  0  0  0  0  0  0  0  0  0
  -28.8631   -7.8044   -5.9059 C   0  0  0  0  0  0  0  0  0  0  0  0
  -30.5941  -10.0592   -7.8445 C   0  0  0  0  0  0  0  0  0  0  0  0
  -30.3141  -11.3898   -8.8914 S   0  0  0  0  0  0  0  0  0  0  0  0
  -29.0224  -10.6291   -9.6596 C   0  0  0  0  0  0  0  0  0  0  0  0
  -28.4466  -11.2409  -10.7075 N   0  0  0  0  0  0  0  0  0  0  0  0
  -27.4346  -10.5444  -11.2099 C   0  0  0  0  0  0  0  0  0  0  0  0
  -26.9557   -9.3829  -10.7576 N   0  0  0  0  0  0  0  0  0  0  0  0
  -27.5365   -8.8112   -9.6848 C   0  0  0  0  0  0  0  0  0  0  0  0
  -26.9181   -7.6421   -9.2713 N   0  0  0  0  0  0  0  0  0  0  0  0
  -28.6688   -9.4184   -9.0835 C   0  0  0  0  0  0  0  0  0  0  0  0
  -29.5924   -9.0878   -7.9737 C   0  0  0  0  0  0  0  0  0  0  0  0
  -26.0310   -7.5075   -9.7409 H   0  0  0  0  0  0  0  0  0  0  0  0
  -26.9195   -7.4818   -8.2730 H   0  0  0  0  0  0  0  0  0  0  0  0
  -32.9324   -9.1583   -7.2977 C   0  0  0  0  0  0  0  0  0  0  0  0
  -31.8006  -10.1080   -6.9281 C   0  0  0  0  0  0  0  0  0  0  0  0
  -29.4898   -4.3146   -4.7715 N   0  0  0  0  0  0  0  0  0  0  0  0
  -29.3960   -3.0286   -5.2663 C   0  0  0  0  0  0  0  0  0  0  0  0
  -29.3664   -2.7027   -6.4427 O   0  0  0  0  0  0  0  0  0  0  0  0
  -29.2903   -2.0873   -4.2649 N   0  0  0  0  0  0  0  0  0  0  0  0
  -29.6310   -4.4222   -3.7813 H   0  0  0  0  0  0  0  0  0  0  0  0
  -29.7515   -2.2972   -3.3986 H   0  0  0  0  0  0  0  0  0  0  0  0
  -29.1740   -0.6738   -4.6336 C   0  0  0  0  0  0  0  0  0  0  0  0
  -30.4598   -0.2101   -5.3266 C   0  0  0  0  0  0  0  0  0  0  0  0
  -30.3416    1.2169   -5.8550 C   0  0  0  0  0  0  0  0  0  0  0  0
  -29.1290    1.3734   -6.7656 C   0  0  0  0  0  0  0  0  0  0  0  0
  -27.8478    0.9808   -6.0391 C   0  0  0  0  0  0  0  0  0  0  0  0
  -27.9279   -0.4446   -5.4978 C   0  0  0  0  0  0  0  0  0  0  0  0
 19 20  1  0  0  0
 20  7  1  0  0  0
  7  8  1  0  0  0
  7 16  2  0  0  0
  8  9  1  0  0  0
  9 10  1  0  0  0
  9 15  2  0  0  0
 10 11  2  0  0  0
 11 12  1  0  0  0
 12 13  2  0  0  0
 13 14  1  0  0  0
 13 15  1  0  0  0
 14 17  1  0  0  0
 14 18  1  0  0  0
 15 16  1  0  0  0
 16  1  1  0  0  0
  1  2  1  0  0  0
  1  6  2  0  0  0
  2  3  2  0  0  0
  3  4  1  0  0  0
  4 21  1  0  0  0
  4  5  2  0  0  0
 21 22  1  0  0  0
 21 25  1  0  0  0
 22 23  2  0  0  0
 22 24  1  0  0  0
 24 27  1  0  0  0
 24 26  1  0  0  0
 27 28  1  0  0  0
 27 32  1  0  0  0
 28 29  1  0  0  0
 29 30  1  0  0  0
 30 31  1  0  0  0
 31 32  1  0  0  0
  5  6  1  0  0  0
M  END
> <minimizedAffinity>
-8.74104

$$$$
