CHEMBL3633684


 34 38  0  0  0  0  0  0  0  0999 V2000
  -27.7663   -2.0039   -9.3266 C   0  0  0  0  0  0  0  0  0  0  0  0
  -26.3726   -1.9388   -9.2869 C   0  0  0  0  0  0  0  0  0  0  0  0
  -25.6194   -1.5877  -10.4075 C   0  0  0  0  0  0  0  0  0  0  0  0
  -26.2320   -1.2053  -11.6002 C   0  0  0  0  0  0  0  0  0  0  0  0
  -27.6270   -1.1544  -11.6322 C   0  0  0  0  0  0  0  0  0  0  0  0
  -28.3817   -1.5626  -10.5141 C   0  0  0  0  0  0  0  0  0  0  0  0
  -27.5348    0.5026   -7.0527 N   0  0  0  0  0  0  0  0  0  0  0  0
  -28.3079   -0.4111   -6.4560 C   0  0  0  0  0  0  0  0  0  0  0  0
  -28.8069   -0.1644   -5.2462 N   0  0  0  0  0  0  0  0  0  0  0  0
  -29.5093   -1.2677   -4.9600 N   0  0  0  0  0  0  0  0  0  0  0  0
  -29.4872   -2.2227   -5.9392 C   0  0  0  0  0  0  0  0  0  0  0  0
  -30.0979   -3.4791   -5.9722 C   0  0  0  0  0  0  0  0  0  0  0  0
  -29.9223   -4.2389   -7.1220 C   0  0  0  0  0  0  0  0  0  0  0  0
  -29.1601   -3.7521   -8.1888 C   0  0  0  0  0  0  0  0  0  0  0  0
  -28.5360   -2.4801   -8.1585 C   0  0  0  0  0  0  0  0  0  0  0  0
  -28.7078   -1.6951   -6.9730 C   0  0  0  0  0  0  0  0  0  0  0  0
  -27.2636    1.3077   -6.5015 H   0  0  0  0  0  0  0  0  0  0  0  0
  -26.8662    0.2498   -7.7714 H   0  0  0  0  0  0  0  0  0  0  0  0
  -29.9857   -1.3056   -4.0679 H   0  0  0  0  0  0  0  0  0  0  0  0
  -25.4940   -0.8303  -12.7481 N   0  0  0  0  0  0  0  0  0  0  0  0
  -24.2485   -0.2202  -12.7242 C   0  0  0  0  0  0  0  0  0  0  0  0
  -23.5576   -0.0789  -11.7210 O   0  0  0  0  0  0  0  0  0  0  0  0
  -23.8826    0.2703  -13.9724 N   0  0  0  0  0  0  0  0  0  0  0  0
  -25.8084   -1.1815  -13.6417 H   0  0  0  0  0  0  0  0  0  0  0  0
  -24.6581    0.5724  -14.5443 H   0  0  0  0  0  0  0  0  0  0  0  0
  -22.6721    0.9938  -14.1226 C   0  0  0  0  0  0  0  0  0  0  0  0
  -22.6313    2.3952  -13.9479 C   0  0  0  0  0  0  0  0  0  0  0  0
  -21.4617    3.1199  -14.1914 C   0  0  0  0  0  0  0  0  0  0  0  0
  -20.3548    2.4154  -14.6025 C   0  0  0  0  0  0  0  0  0  0  0  0
  -20.3819    1.0476  -14.7522 C   0  0  0  0  0  0  0  0  0  0  0  0
  -21.5174    0.3022  -14.5006 C   0  0  0  0  0  0  0  0  0  0  0  0
  -19.1915    0.5541  -15.1906 O   0  0  0  0  0  0  0  0  0  0  0  0
  -18.3975    1.7592  -15.2314 C   0  0  0  0  0  0  0  0  0  0  0  0
  -19.1442    2.9500  -14.9121 O   0  0  0  0  0  0  0  0  0  0  0  0
  7  8  1  0  0  0
  7 17  1  0  0  0
  7 18  1  0  0  0
  8  9  2  0  0  0
  8 16  1  0  0  0
  9 10  1  0  0  0
 10 11  1  0  0  0
 10 19  1  0  0  0
 11 12  1  0  0  0
 11 16  2  0  0  0
 12 13  2  0  0  0
 13 14  1  0  0  0
 14 15  2  0  0  0
 15  1  1  0  0  0
 15 16  1  0  0  0
  1  2  1  0  0  0
  1  6  2  0  0  0
  2  3  2  0  0  0
  3  4  1  0  0  0
  4 20  1  0  0  0
  4  5  2  0  0  0
 20 21  1  0  0  0
 20 24  1  0  0  0
 21 22  2  0  0  0
 21 23  1  0  0  0
 23 26  1  0  0  0
 23 25  1  0  0  0
 26 27  1  0  0  0
 26 31  2  0  0  0
 27 28  2  0  0  0
 28 29  1  0  0  0
 29 30  2  0  0  0
 29 34  1  0  0  0
 30 31  1  0  0  0
 30 32  1  0  0  0
 32 33  1  0  0  0
 33 34  1  0  0  0
  5  6  1  0  0  0
M  END
> <minimizedAffinity>
-9.36752

$$$$
