CHEMBL3648097


 24 25  0  0  0  0  0  0  0  0999 V2000
  -15.6188   -0.8054  -12.6953 N   0  0  0  0  0  0  0  0  0  0  0  0
  -15.8595   -0.4981  -11.7660 H   0  0  0  0  0  0  0  0  0  0  0  0
  -16.9618    1.4583  -15.0992 C   0  0  0  0  0  0  0  0  0  0  0  0
  -16.8920    0.4462  -14.2005 N   0  0  0  0  0  0  0  0  0  0  0  0
  -15.7059    0.2300  -13.6259 C   0  0  0  0  0  0  0  0  0  0  0  0
  -14.6058    0.9491  -13.9256 N   0  0  0  0  0  0  0  0  0  0  0  0
  -14.7136    1.9287  -14.8395 C   0  0  0  0  0  0  0  0  0  0  0  0
  -15.8855    2.2324  -15.4758 C   0  0  0  0  0  0  0  0  0  0  0  0
  -15.9633    3.6389  -16.7221 Br  0  0  0  0  0  0  0  0  0  0  0  0
  -18.1799    1.7090  -15.7043 O   0  0  0  0  0  0  0  0  0  0  0  0
  -19.8235    3.3646  -15.1900 C   0  0  0  0  0  0  0  0  0  0  0  0
  -19.1943    2.0523  -14.7599 C   0  0  0  0  0  0  0  0  0  0  0  0
  -15.3186   -2.1592  -12.9057 C   0  0  0  0  0  0  0  0  0  0  0  0
  -14.4362   -2.5695  -13.9169 C   0  0  0  0  0  0  0  0  0  0  0  0
  -14.2605   -3.9143  -14.2372 C   0  0  0  0  0  0  0  0  0  0  0  0
  -14.9700   -4.8810  -13.5333 C   0  0  0  0  0  0  0  0  0  0  0  0
  -15.8213   -4.5078  -12.4893 C   0  0  0  0  0  0  0  0  0  0  0  0
  -15.9956   -3.1509  -12.1831 C   0  0  0  0  0  0  0  0  0  0  0  0
  -14.7715   -6.6041  -13.9532 S   0  0  0  0  0  0  0  0  0  0  0  0
  -16.1379   -7.0888  -14.4826 N   0  0  0  0  0  0  0  0  0  0  0  0
  -13.5415   -6.7025  -14.7141 O   0  0  0  0  0  0  0  0  0  0  0  0
  -16.3388   -6.6633  -15.3893 H   0  0  0  0  0  0  0  0  0  0  0  0
  -14.4894   -7.3760  -12.3670 C   0  0  0  0  0  0  0  0  0  0  0  0
  -13.6692   -8.6456  -12.5069 C   0  0  0  0  0  0  0  0  0  0  0  0
 11 12  1  0  0  0
 12 10  1  0  0  0
 10  3  1  0  0  0
  3  4  1  0  0  0
  3  8  2  0  0  0
  4  5  2  0  0  0
  5  1  1  0  0  0
  5  6  1  0  0  0
  1 13  1  0  0  0
  1  2  1  0  0  0
 13 14  1  0  0  0
 13 18  2  0  0  0
 14 15  2  0  0  0
 15 16  1  0  0  0
 16 19  1  0  0  0
 16 17  2  0  0  0
 19 20  2  0  0  0
 19 21  2  0  0  0
 19 23  1  0  0  0
 20 22  1  0  0  0
 23 24  1  0  0  0
 17 18  1  0  0  0
  6  7  2  0  0  0
  7  8  1  0  0  0
  8  9  1  0  0  0
M  END
> <minimizedAffinity>
-6.44935

$$$$
