CHEMBL3397945


 35 38  0  0  0  0  0  0  0  0999 V2000
  -28.2092   -0.3629  -10.8203 O   0  0  0  0  0  0  0  0  0  0  0  0
  -27.4087   -1.2814  -10.9839 C   0  0  0  0  0  0  0  0  0  0  0  0
  -27.0838   -2.2754  -10.0774 N   0  0  0  0  0  0  0  0  0  0  0  0
  -26.2742   -2.8471  -10.2852 H   0  0  0  0  0  0  0  0  0  0  0  0
  -27.6491   -2.4437   -8.8003 C   0  0  0  0  0  0  0  0  0  0  0  0
  -28.3330   -3.5942   -8.4149 C   0  0  0  0  0  0  0  0  0  0  0  0
  -28.9054   -3.6767   -7.1487 C   0  0  0  0  0  0  0  0  0  0  0  0
  -28.8191   -2.6148   -6.2461 C   0  0  0  0  0  0  0  0  0  0  0  0
  -28.0894   -1.4761   -6.6104 C   0  0  0  0  0  0  0  0  0  0  0  0
  -27.8009   -0.1293   -5.5645 Cl  0  0  0  0  0  0  0  0  0  0  0  0
  -27.5052   -1.3979   -7.8828 C   0  0  0  0  0  0  0  0  0  0  0  0
  -29.4345   -2.8858   -5.0564 O   0  0  0  0  0  0  0  0  0  0  0  0
  -30.5564   -3.7590   -5.0944 C   0  0  0  0  0  0  0  0  0  0  0  0
  -30.4864   -4.7242   -3.9161 C   0  0  0  0  0  0  0  0  0  0  0  0
  -29.3475   -5.7495   -4.0460 C   0  0  0  0  0  0  0  0  0  0  0  0
  -29.8444   -7.1146   -4.3100 N   0  0  0  0  0  0  0  0  0  0  0  0
  -28.8945   -8.1496   -3.8363 C   0  0  0  0  0  0  0  0  0  0  0  0
  -27.6689   -8.3815   -4.7482 C   0  0  0  0  0  0  0  0  0  0  0  0
  -28.0227   -8.5515   -6.1280 O   0  0  0  0  0  0  0  0  0  0  0  0
  -28.8428   -7.4696   -6.5820 C   0  0  0  0  0  0  0  0  0  0  0  0
  -30.1195   -7.3908   -5.7365 C   0  0  0  0  0  0  0  0  0  0  0  0
  -26.6293   -1.3109  -12.2464 C   0  0  0  0  0  0  0  0  0  0  0  0
  -27.1881   -1.9349  -13.3629 C   0  0  0  0  0  0  0  0  0  0  0  0
  -26.4874   -1.9508  -14.5635 C   0  0  0  0  0  0  0  0  0  0  0  0
  -25.2406   -1.3234  -14.6517 C   0  0  0  0  0  0  0  0  0  0  0  0
  -24.6667   -0.6603  -13.5503 C   0  0  0  0  0  0  0  0  0  0  0  0
  -25.3698   -0.7058  -12.3342 C   0  0  0  0  0  0  0  0  0  0  0  0
  -23.4350    0.1539  -13.6769 C   0  0  0  0  0  0  0  0  0  0  0  0
  -22.2150   -0.4453  -14.0498 C   0  0  0  0  0  0  0  0  0  0  0  0
  -21.0759    0.3188  -14.3143 C   0  0  0  0  0  0  0  0  0  0  0  0
  -21.1313    1.7060  -14.2343 C   0  0  0  0  0  0  0  0  0  0  0  0
  -22.3212    2.3133  -13.8556 C   0  0  0  0  0  0  0  0  0  0  0  0
  -22.4381    3.6714  -13.8071 O   0  0  0  0  0  0  0  0  0  0  0  0
  -23.4501    1.5555  -13.5535 C   0  0  0  0  0  0  0  0  0  0  0  0
  -21.6367    4.0639  -14.1901 H   0  0  0  0  0  0  0  0  0  0  0  0
  1  2  2  0  0  0
  2  3  1  0  0  0
  2 22  1  0  0  0
  3  5  1  0  0  0
  3  4  1  0  0  0
  5  6  1  0  0  0
  5 11  2  0  0  0
  6  7  2  0  0  0
  7  8  1  0  0  0
  8 12  1  0  0  0
  8  9  2  0  0  0
 12 13  1  0  0  0
 13 14  1  0  0  0
 14 15  1  0  0  0
 15 16  1  0  0  0
 16 17  1  0  0  0
 16 21  1  0  0  0
 17 18  1  0  0  0
 18 19  1  0  0  0
 19 20  1  0  0  0
 20 21  1  0  0  0
  9 10  1  0  0  0
  9 11  1  0  0  0
 22 23  1  0  0  0
 22 27  2  0  0  0
 23 24  2  0  0  0
 24 25  1  0  0  0
 25 26  2  0  0  0
 26 28  1  0  0  0
 26 27  1  0  0  0
 28 29  1  0  0  0
 28 34  2  0  0  0
 29 30  2  0  0  0
 30 31  1  0  0  0
 31 32  2  0  0  0
 32 33  1  0  0  0
 32 34  1  0  0  0
 33 35  1  0  0  0
M  END
> <minimizedAffinity>
-10.39817

$$$$
