CHEMBL4568087


 33 37  0  0  0  0  0  0  0  0999 V2000
  -18.3890    1.9425  -14.7109 C   0  0  0  0  0  0  0  0  0  0  0  0
  -17.7375    2.0352  -15.9258 C   0  0  0  0  0  0  0  0  0  0  0  0
  -16.1341    1.4352  -15.8726 S   0  0  0  0  0  0  0  0  0  0  0  0
  -16.2692    1.0013  -14.2191 C   0  0  0  0  0  0  0  0  0  0  0  0
  -17.4936    1.4346  -13.7069 C   0  0  0  0  0  0  0  0  0  0  0  0
  -23.4029    0.4369  -13.3317 C   0  0  0  0  0  0  0  0  0  0  0  0
  -22.0662   -0.1717  -12.9856 C   0  0  0  0  0  0  0  0  0  0  0  0
  -20.8828    0.2949  -13.2652 N   0  0  0  0  0  0  0  0  0  0  0  0
  -20.8482    1.4941  -13.9257 C   0  0  0  0  0  0  0  0  0  0  0  0
  -19.8271    2.2352  -14.5019 C   0  0  0  0  0  0  0  0  0  0  0  0
  -20.4752    3.4066  -14.9757 C   0  0  0  0  0  0  0  0  0  0  0  0
  -21.7937    3.3965  -14.7716 N   0  0  0  0  0  0  0  0  0  0  0  0
  -22.0366    2.1996  -14.1857 N   0  0  0  0  0  0  0  0  0  0  0  0
  -23.2870    1.6501  -13.8992 C   0  0  0  0  0  0  0  0  0  0  0  0
  -27.5632   -1.3933  -11.3032 C   0  0  0  0  0  0  0  0  0  0  0  0
  -26.4626   -1.0786  -12.1839 N   0  0  0  0  0  0  0  0  0  0  0  0
  -25.4061   -0.2388  -11.9455 C   0  0  0  0  0  0  0  0  0  0  0  0
  -24.6145   -0.2768  -13.0784 C   0  0  0  0  0  0  0  0  0  0  0  0
  -25.3046   -1.1565  -13.9415 C   0  0  0  0  0  0  0  0  0  0  0  0
  -26.4187   -1.6504  -13.3982 N   0  0  0  0  0  0  0  0  0  0  0  0
  -15.2201    0.2350  -13.5246 C   0  0  0  0  0  0  0  0  0  0  0  0
  -14.5677    0.7044  -12.5968 O   0  0  0  0  0  0  0  0  0  0  0  0
  -15.0413   -1.0945  -13.9059 N   0  0  0  0  0  0  0  0  0  0  0  0
  -15.7057   -1.4483  -14.5838 H   0  0  0  0  0  0  0  0  0  0  0  0
  -14.2254   -2.0758  -13.1539 C   0  0  0  0  0  0  0  0  0  0  0  0
  -13.5243   -3.0809  -14.0853 C   0  0  0  0  0  0  0  0  0  0  0  0
  -14.5061   -3.9970  -14.8197 C   0  0  0  0  0  0  0  0  0  0  0  0
  -15.5261   -4.6643  -13.8946 C   0  0  0  0  0  0  0  0  0  0  0  0
  -16.1418   -3.7109  -12.8648 C   0  0  0  0  0  0  0  0  0  0  0  0
  -15.0504   -2.9161  -12.1317 C   0  0  0  0  0  0  0  0  0  0  0  0
  -15.6117   -2.1231  -11.0357 N   0  0  0  0  0  0  0  0  0  0  0  0
  -15.8284   -1.1838  -11.3792 H   0  0  0  0  0  0  0  0  0  0  0  0
  -14.8636   -1.9427  -10.3614 H   0  0  0  0  0  0  0  0  0  0  0  0
 15 16  1  0  0  0
 16 17  1  0  0  0
 16 20  1  0  0  0
 17 18  2  0  0  0
 18  6  1  0  0  0
 18 19  1  0  0  0
  6  7  1  0  0  0
  6 14  2  0  0  0
  7  8  2  0  0  0
  8  9  1  0  0  0
  9 10  2  0  0  0
  9 13  1  0  0  0
 10  1  1  0  0  0
 10 11  1  0  0  0
  1  2  2  0  0  0
  1  5  1  0  0  0
  2  3  1  0  0  0
  3  4  1  0  0  0
  4 21  1  0  0  0
  4  5  2  0  0  0
 21 22  2  0  0  0
 21 23  1  0  0  0
 23 24  1  0  0  0
 25 26  1  0  0  0
 25 30  1  0  0  0
 25 23  1  0  0  0
 26 27  1  0  0  0
 27 28  1  0  0  0
 28 29  1  0  0  0
 29 30  1  0  0  0
 30 31  1  0  0  0
 31 32  1  0  0  0
 31 33  1  0  0  0
 11 12  2  0  0  0
 12 13  1  0  0  0
 13 14  1  0  0  0
 19 20  2  0  0  0
M  END
> <minimizedAffinity>
-8.70093

$$$$
