CHEMBL3660295


 37 40  0  0  0  0  0  0  0  0999 V2000
  -23.5883   -1.3128  -13.6436 C   0  0  0  0  0  0  0  0  0  0  0  0
  -24.8320   -1.2994  -14.2607 C   0  0  0  0  0  0  0  0  0  0  0  0
  -25.9899   -1.5103  -13.5119 C   0  0  0  0  0  0  0  0  0  0  0  0
  -25.9350   -1.8173  -12.1522 C   0  0  0  0  0  0  0  0  0  0  0  0
  -24.6704   -1.9444  -11.5582 C   0  0  0  0  0  0  0  0  0  0  0  0
  -23.5034   -1.6882  -12.3026 C   0  0  0  0  0  0  0  0  0  0  0  0
  -27.0944   -1.9818  -11.3494 N   0  0  0  0  0  0  0  0  0  0  0  0
  -27.1262   -1.9173   -9.9683 C   0  0  0  0  0  0  0  0  0  0  0  0
  -26.1719   -1.6206   -9.2517 O   0  0  0  0  0  0  0  0  0  0  0  0
  -28.3628   -2.2550   -9.4405 N   0  0  0  0  0  0  0  0  0  0  0  0
  -27.9772   -2.1018  -11.8217 H   0  0  0  0  0  0  0  0  0  0  0  0
  -28.8171   -3.0299   -9.9072 H   0  0  0  0  0  0  0  0  0  0  0  0
  -28.5457   -2.2248   -8.0300 C   0  0  0  0  0  0  0  0  0  0  0  0
  -28.2073   -1.0981   -7.2677 C   0  0  0  0  0  0  0  0  0  0  0  0
  -28.3359   -1.1110   -5.8707 C   0  0  0  0  0  0  0  0  0  0  0  0
  -27.9970    0.1054   -5.0581 C   0  0  0  0  0  0  0  0  0  0  0  0
  -28.7891   -2.2761   -5.2377 C   0  0  0  0  0  0  0  0  0  0  0  0
  -29.1370   -3.3989   -5.9923 C   0  0  0  0  0  0  0  0  0  0  0  0
  -29.0360   -3.3572   -7.3802 C   0  0  0  0  0  0  0  0  0  0  0  0
  -29.3545   -4.4482   -8.0945 F   0  0  0  0  0  0  0  0  0  0  0  0
  -22.4123   -0.9968  -14.3013 O   0  0  0  0  0  0  0  0  0  0  0  0
  -20.4046    2.0721  -14.7419 C   0  0  0  0  0  0  0  0  0  0  0  0
  -20.7680    0.7354  -14.8480 C   0  0  0  0  0  0  0  0  0  0  0  0
  -21.9853    0.3191  -14.3165 C   0  0  0  0  0  0  0  0  0  0  0  0
  -22.8495    1.2747  -13.7987 C   0  0  0  0  0  0  0  0  0  0  0  0
  -22.4238    2.5955  -13.7730 C   0  0  0  0  0  0  0  0  0  0  0  0
  -21.2140    3.0179  -14.2133 N   0  0  0  0  0  0  0  0  0  0  0  0
  -16.9033    2.7010  -15.8485 C   0  0  0  0  0  0  0  0  0  0  0  0
  -17.4002    3.9687  -15.6006 C   0  0  0  0  0  0  0  0  0  0  0  0
  -18.7090    3.8525  -15.1935 N   0  0  0  0  0  0  0  0  0  0  0  0
  -19.0827    2.5265  -15.1663 C   0  0  0  0  0  0  0  0  0  0  0  0
  -17.9740    1.8046  -15.5716 C   0  0  0  0  0  0  0  0  0  0  0  0
  -19.3279    4.6107  -14.9350 H   0  0  0  0  0  0  0  0  0  0  0  0
  -15.5718    2.3081  -16.2936 C   0  0  0  0  0  0  0  0  0  0  0  0
  -15.3004    1.1620  -16.6320 O   0  0  0  0  0  0  0  0  0  0  0  0
  -13.5914    3.1294  -15.3782 C   0  0  0  0  0  0  0  0  0  0  0  0
  -14.6733    3.3363  -16.2858 O   0  0  0  0  0  0  0  0  0  0  0  0
 36 37  1  0  0  0
 37 34  1  0  0  0
 34 35  2  0  0  0
 34 28  1  0  0  0
 28 29  2  0  0  0
 28 32  1  0  0  0
 29 30  1  0  0  0
 30 31  1  0  0  0
 30 33  1  0  0  0
 31 22  1  0  0  0
 31 32  2  0  0  0
 22 23  1  0  0  0
 22 27  2  0  0  0
 23 24  2  0  0  0
 24 21  1  0  0  0
 24 25  1  0  0  0
 21  1  1  0  0  0
  1  2  1  0  0  0
  1  6  2  0  0  0
  2  3  2  0  0  0
  3  4  1  0  0  0
  4  7  1  0  0  0
  4  5  2  0  0  0
  7  8  1  0  0  0
  7 11  1  0  0  0
  8  9  2  0  0  0
  8 10  1  0  0  0
 10 13  1  0  0  0
 10 12  1  0  0  0
 13 14  1  0  0  0
 13 19  2  0  0  0
 14 15  2  0  0  0
 15 16  1  0  0  0
 15 17  1  0  0  0
 17 18  2  0  0  0
 18 19  1  0  0  0
 19 20  1  0  0  0
  5  6  1  0  0  0
 25 26  2  0  0  0
 26 27  1  0  0  0
M  END
> <minimizedAffinity>
-10.90078

$$$$
