CHEMBL1952211


 34 38  0  0  0  0  0  0  0  0999 V2000
  -15.2584   -0.1896  -14.1754 N   0  0  0  0  0  0  0  0  0  0  0  0
  -13.9927   -0.4343  -14.8331 C   0  0  0  0  0  0  0  0  0  0  0  0
  -13.6702   -1.8775  -14.8683 C   0  0  0  0  0  0  0  0  0  0  0  0
  -12.6946   -2.4111  -15.6769 C   0  0  0  0  0  0  0  0  0  0  0  0
  -12.3489   -3.7104  -15.6620 N   0  0  0  0  0  0  0  0  0  0  0  0
  -13.0504   -4.5049  -14.8453 C   0  0  0  0  0  0  0  0  0  0  0  0
  -14.0357   -4.0670  -14.0455 N   0  0  0  0  0  0  0  0  0  0  0  0
  -14.2989   -2.7518  -14.0164 C   0  0  0  0  0  0  0  0  0  0  0  0
  -15.1863   -2.2363  -13.0269 N   0  0  0  0  0  0  0  0  0  0  0  0
  -15.4787   -0.8666  -12.9700 C   0  0  0  0  0  0  0  0  0  0  0  0
  -16.0212   -0.3603  -11.9909 O   0  0  0  0  0  0  0  0  0  0  0  0
  -16.0486   -3.2128  -12.3148 C   0  0  0  0  0  0  0  0  0  0  0  0
  -15.8481   -4.7088  -12.6543 C   0  0  0  0  0  0  0  0  0  0  0  0
  -15.3366   -5.3826  -11.3749 C   0  0  0  0  0  0  0  0  0  0  0  0
  -14.8133   -4.2476  -10.5082 C   0  0  0  0  0  0  0  0  0  0  0  0
  -14.7684   -4.5898   -9.1361 O   0  0  0  0  0  0  0  0  0  0  0  0
  -15.8098   -3.1305  -10.7946 C   0  0  0  0  0  0  0  0  0  0  0  0
  -15.6651   -4.8088   -8.8403 H   0  0  0  0  0  0  0  0  0  0  0  0
  -18.1704    2.6366  -15.5122 C   0  0  0  0  0  0  0  0  0  0  0  0
  -16.8254    2.9693  -15.5041 C   0  0  0  0  0  0  0  0  0  0  0  0
  -15.8696    2.0290  -15.1012 C   0  0  0  0  0  0  0  0  0  0  0  0
  -16.2228    0.7305  -14.7062 C   0  0  0  0  0  0  0  0  0  0  0  0
  -17.5861    0.4082  -14.7322 C   0  0  0  0  0  0  0  0  0  0  0  0
  -18.5460    1.3510  -15.1270 C   0  0  0  0  0  0  0  0  0  0  0  0
  -20.4186    3.2842  -15.1367 C   0  0  0  0  0  0  0  0  0  0  0  0
  -19.2013    3.4666  -15.8510 O   0  0  0  0  0  0  0  0  0  0  0  0
  -12.6497   -5.8343  -14.7665 N   0  0  0  0  0  0  0  0  0  0  0  0
  -12.4814   -6.2187  -15.6836 H   0  0  0  0  0  0  0  0  0  0  0  0
  -12.8740   -6.7533  -13.7374 C   0  0  0  0  0  0  0  0  0  0  0  0
  -12.1184   -6.7567  -12.5582 C   0  0  0  0  0  0  0  0  0  0  0  0
  -12.3446   -7.7108  -11.5648 C   0  0  0  0  0  0  0  0  0  0  0  0
  -13.3156   -8.6907  -11.7515 C   0  0  0  0  0  0  0  0  0  0  0  0
  -14.0719   -8.7036  -12.9214 C   0  0  0  0  0  0  0  0  0  0  0  0
  -13.8610   -7.7318  -13.9015 C   0  0  0  0  0  0  0  0  0  0  0  0
 25 26  1  0  0  0
 26 19  1  0  0  0
 19 20  1  0  0  0
 19 24  2  0  0  0
 20 21  2  0  0  0
 21 22  1  0  0  0
 22  1  1  0  0  0
 22 23  2  0  0  0
  1  2  1  0  0  0
  1 10  1  0  0  0
  2  3  1  0  0  0
  3  4  1  0  0  0
  3  8  2  0  0  0
  4  5  2  0  0  0
  5  6  1  0  0  0
  6 27  1  0  0  0
  6  7  2  0  0  0
 27 29  1  0  0  0
 27 28  1  0  0  0
 29 30  1  0  0  0
 29 34  2  0  0  0
 30 31  2  0  0  0
 31 32  1  0  0  0
 32 33  2  0  0  0
 33 34  1  0  0  0
  7  8  1  0  0  0
  8  9  1  0  0  0
  9 10  1  0  0  0
 12 13  1  0  0  0
 12 17  1  0  0  0
 12  9  1  0  0  0
 13 14  1  0  0  0
 14 15  1  0  0  0
 15 17  1  0  0  0
 15 16  1  0  0  0
 16 18  1  0  0  0
 10 11  2  0  0  0
 23 24  1  0  0  0
M  END
> <minimizedAffinity>
-8.65353

$$$$
