CHEMBL245949


 39 42  0  0  0  0  0  0  0  0999 V2000
  -14.5498    0.2395  -13.9615 C   0  0  0  0  0  0  0  0  0  0  0  0
  -15.9048    0.5188  -13.7417 C   0  0  0  0  0  0  0  0  0  0  0  0
  -16.7459    0.9052  -14.7853 C   0  0  0  0  0  0  0  0  0  0  0  0
  -16.1831    1.1306  -16.0469 C   0  0  0  0  0  0  0  0  0  0  0  0
  -14.8010    0.9577  -16.2660 C   0  0  0  0  0  0  0  0  0  0  0  0
  -13.9916    0.4921  -15.2137 C   0  0  0  0  0  0  0  0  0  0  0  0
  -18.1492    1.0415  -14.6456 N   0  0  0  0  0  0  0  0  0  0  0  0
  -18.8992    2.1589  -14.9818 C   0  0  0  0  0  0  0  0  0  0  0  0
  -18.4977    3.1768  -15.5355 O   0  0  0  0  0  0  0  0  0  0  0  0
  -18.6185    0.3004  -14.1425 H   0  0  0  0  0  0  0  0  0  0  0  0
  -20.3322    2.1321  -14.5840 C   0  0  0  0  0  0  0  0  0  0  0  0
  -21.1049    3.2876  -14.4541 C   0  0  0  0  0  0  0  0  0  0  0  0
  -22.4358    3.1794  -14.0464 C   0  0  0  0  0  0  0  0  0  0  0  0
  -22.9965    1.9261  -13.7713 C   0  0  0  0  0  0  0  0  0  0  0  0
  -22.2385    0.7547  -13.9032 C   0  0  0  0  0  0  0  0  0  0  0  0
  -20.8972    0.8794  -14.2957 C   0  0  0  0  0  0  0  0  0  0  0  0
  -22.7895   -0.6317  -13.6138 C   0  0  0  0  0  0  0  0  0  0  0  0
  -22.7846   -0.9221  -12.1116 C   0  0  0  0  0  0  0  0  0  0  0  0
  -24.1786   -0.8805  -14.2075 C   0  0  0  0  0  0  0  0  0  0  0  0
  -14.1870    1.2707  -17.6078 C   0  0  0  0  0  0  0  0  0  0  0  0
  -14.6073    2.4576  -18.1324 F   0  0  0  0  0  0  0  0  0  0  0  0
  -12.8288    1.3562  -17.5493 F   0  0  0  0  0  0  0  0  0  0  0  0
  -14.4635    0.3302  -18.5518 F   0  0  0  0  0  0  0  0  0  0  0  0
  -13.7186   -0.2490  -12.9663 O   0  0  0  0  0  0  0  0  0  0  0  0
  -13.2696   -2.6201  -13.1153 C   0  0  0  0  0  0  0  0  0  0  0  0
  -12.3880   -3.6082  -13.6136 C   0  0  0  0  0  0  0  0  0  0  0  0
  -11.1969   -3.2750  -14.2492 C   0  0  0  0  0  0  0  0  0  0  0  0
  -10.8739   -1.9412  -14.3407 C   0  0  0  0  0  0  0  0  0  0  0  0
  -11.6530   -0.9577  -13.8530 N   0  0  0  0  0  0  0  0  0  0  0  0
  -12.8580   -1.2971  -13.3057 C   0  0  0  0  0  0  0  0  0  0  0  0
  -16.1905   -4.5722  -12.3679 C   0  0  0  0  0  0  0  0  0  0  0  0
  -16.5898   -4.1320  -11.1835 N   0  0  0  0  0  0  0  0  0  0  0  0
  -15.8795   -3.1211  -10.6940 C   0  0  0  0  0  0  0  0  0  0  0  0
  -14.8311   -2.5361  -11.2675 N   0  0  0  0  0  0  0  0  0  0  0  0
  -14.5123   -3.0438  -12.4547 C   0  0  0  0  0  0  0  0  0  0  0  0
  -15.1738   -4.0493  -13.0426 N   0  0  0  0  0  0  0  0  0  0  0  0
  -15.9380   -6.4954  -13.7886 C   0  0  0  0  0  0  0  0  0  0  0  0
  -16.7895   -5.6657  -12.9732 N   0  0  0  0  0  0  0  0  0  0  0  0
  -17.3341   -6.1437  -12.2639 H   0  0  0  0  0  0  0  0  0  0  0  0
 37 38  1  0  0  0
 38 31  1  0  0  0
 38 39  1  0  0  0
 31 32  1  0  0  0
 31 36  2  0  0  0
 32 33  2  0  0  0
 33 34  1  0  0  0
 34 35  2  0  0  0
 35 25  1  0  0  0
 35 36  1  0  0  0
 25 26  1  0  0  0
 25 30  2  0  0  0
 26 27  2  0  0  0
 27 28  1  0  0  0
 28 29  2  0  0  0
 29 30  1  0  0  0
 30 24  1  0  0  0
 24  1  1  0  0  0
  1  2  1  0  0  0
  1  6  2  0  0  0
  2  3  2  0  0  0
  3  7  1  0  0  0
  3  4  1  0  0  0
  7  8  1  0  0  0
  7 10  1  0  0  0
  8  9  2  0  0  0
  8 11  1  0  0  0
 11 12  1  0  0  0
 11 16  2  0  0  0
 12 13  2  0  0  0
 13 14  1  0  0  0
 14 15  2  0  0  0
 15 17  1  0  0  0
 15 16  1  0  0  0
 17 18  1  0  0  0
 17 19  1  0  0  0
  4  5  2  0  0  0
  5 20  1  0  0  0
  5  6  1  0  0  0
 20 21  1  0  0  0
 20 22  1  0  0  0
 20 23  1  0  0  0
M  END
> <minimizedAffinity>
-10.15922

$$$$
