CHEMBL2063324


 43 47  0  0  0  0  0  0  0  0999 V2000
  -22.0169    1.0401  -14.1064 C   0  0  0  0  0  0  0  0  0  0  0  0
  -20.8092    0.5251  -14.6550 C   0  0  0  0  0  0  0  0  0  0  0  0
  -20.0231    1.6116  -14.9525 C   0  0  0  0  0  0  0  0  0  0  0  0
  -20.7675    2.6961  -14.5773 N   0  0  0  0  0  0  0  0  0  0  0  0
  -21.9652    2.3828  -14.0622 N   0  0  0  0  0  0  0  0  0  0  0  0
  -20.5125    3.6761  -14.6077 H   0  0  0  0  0  0  0  0  0  0  0  0
  -25.4316   -1.2227  -12.7590 C   0  0  0  0  0  0  0  0  0  0  0  0
  -24.7460   -0.3741  -11.8830 C   0  0  0  0  0  0  0  0  0  0  0  0
  -23.6393    0.3669  -12.3208 C   0  0  0  0  0  0  0  0  0  0  0  0
  -23.1915    0.2841  -13.6484 C   0  0  0  0  0  0  0  0  0  0  0  0
  -23.8902   -0.5556  -14.5265 C   0  0  0  0  0  0  0  0  0  0  0  0
  -24.9989   -1.2953  -14.0895 C   0  0  0  0  0  0  0  0  0  0  0  0
  -26.5717   -2.0800  -12.2695 C   0  0  0  0  0  0  0  0  0  0  0  0
  -28.2526   -1.0934  -10.2737 O   0  0  0  0  0  0  0  0  0  0  0  0
  -27.3422   -1.8523   -9.9638 C   0  0  0  0  0  0  0  0  0  0  0  0
  -26.4872   -2.4292  -10.8676 N   0  0  0  0  0  0  0  0  0  0  0  0
  -25.6712   -2.8975  -10.5013 H   0  0  0  0  0  0  0  0  0  0  0  0
  -26.9889   -2.1831   -8.7012 O   0  0  0  0  0  0  0  0  0  0  0  0
  -28.0763   -2.2542   -7.7544 C   0  0  0  0  0  0  0  0  0  0  0  0
  -28.0574   -1.1528   -6.7190 C   0  0  0  0  0  0  0  0  0  0  0  0
  -28.6376    0.0966   -6.9874 C   0  0  0  0  0  0  0  0  0  0  0  0
  -28.6754    1.0919   -6.0062 C   0  0  0  0  0  0  0  0  0  0  0  0
  -28.1342    0.8523   -4.7430 C   0  0  0  0  0  0  0  0  0  0  0  0
  -27.5561   -0.3825   -4.4639 C   0  0  0  0  0  0  0  0  0  0  0  0
  -27.5148   -1.3794   -5.4453 C   0  0  0  0  0  0  0  0  0  0  0  0
  -18.7522    1.6454  -15.5184 N   0  0  0  0  0  0  0  0  0  0  0  0
  -17.8480    2.7467  -15.3120 C   0  0  0  0  0  0  0  0  0  0  0  0
  -18.1831    3.7105  -14.6438 O   0  0  0  0  0  0  0  0  0  0  0  0
  -18.5039    0.8917  -16.1389 H   0  0  0  0  0  0  0  0  0  0  0  0
  -16.5257    2.7149  -15.9976 C   0  0  0  0  0  0  0  0  0  0  0  0
  -15.8048    3.8627  -16.3463 C   0  0  0  0  0  0  0  0  0  0  0  0
  -14.5340    3.7412  -16.9228 C   0  0  0  0  0  0  0  0  0  0  0  0
  -13.9749    2.4787  -17.1432 C   0  0  0  0  0  0  0  0  0  0  0  0
  -14.7164    1.3386  -16.8535 C   0  0  0  0  0  0  0  0  0  0  0  0
  -15.9797    1.4523  -16.2767 C   0  0  0  0  0  0  0  0  0  0  0  0
  -12.7233    2.2372  -17.6352 O   0  0  0  0  0  0  0  0  0  0  0  0
  -11.6507    2.7700  -16.8544 C   0  0  0  0  0  0  0  0  0  0  0  0
  -11.0123    1.6395  -16.0293 C   0  0  0  0  0  0  0  0  0  0  0  0
  -10.9794    1.9298  -14.5841 N   0  0  0  0  0  0  0  0  0  0  0  0
  -11.5824    0.8728  -13.7591 C   0  0  0  0  0  0  0  0  0  0  0  0
  -13.0362    1.2618  -13.6157 C   0  0  0  0  0  0  0  0  0  0  0  0
  -12.9475    2.7617  -13.4457 C   0  0  0  0  0  0  0  0  0  0  0  0
  -11.7298    3.1664  -14.2714 C   0  0  0  0  0  0  0  0  0  0  0  0
 14 15  2  0  0  0
 15 16  1  0  0  0
 15 18  1  0  0  0
 16 13  1  0  0  0
 16 17  1  0  0  0
 13  7  1  0  0  0
  7  8  1  0  0  0
  7 12  2  0  0  0
  8  9  2  0  0  0
  9 10  1  0  0  0
 10  1  1  0  0  0
 10 11  2  0  0  0
  1  2  1  0  0  0
  1  5  2  0  0  0
  2  3  2  0  0  0
  3 26  1  0  0  0
  3  4  1  0  0  0
 26 27  1  0  0  0
 26 29  1  0  0  0
 27 28  2  0  0  0
 27 30  1  0  0  0
 30 31  1  0  0  0
 30 35  2  0  0  0
 31 32  2  0  0  0
 32 33  1  0  0  0
 33 36  1  0  0  0
 33 34  2  0  0  0
 36 37  1  0  0  0
 37 38  1  0  0  0
 38 39  1  0  0  0
 39 40  1  0  0  0
 39 43  1  0  0  0
 40 41  1  0  0  0
 41 42  1  0  0  0
 42 43  1  0  0  0
 34 35  1  0  0  0
  4  5  1  0  0  0
  4  6  1  0  0  0
 11 12  1  0  0  0
 18 19  1  0  0  0
 19 20  1  0  0  0
 20 21  1  0  0  0
 20 25  2  0  0  0
 21 22  2  0  0  0
 22 23  1  0  0  0
 23 24  2  0  0  0
 24 25  1  0  0  0
M  END
> <minimizedAffinity>
-10.10636

$$$$
