CHEMBL1242198


 24 26  0  0  0  0  0  0  0  0999 V2000
  -30.4961   -8.4158   -6.7801 N   0  0  0  0  0  0  0  0  0  0  0  0
  -30.5080   -7.1366   -7.2120 N   0  0  0  0  0  0  0  0  0  0  0  0
  -29.5060   -6.5420   -6.5391 C   0  0  0  0  0  0  0  0  0  0  0  0
  -28.8942   -7.4486   -5.6140 C   0  0  0  0  0  0  0  0  0  0  0  0
  -27.8788   -7.4528   -4.6429 C   0  0  0  0  0  0  0  0  0  0  0  0
  -27.1121   -6.3552   -4.2695 N   0  0  0  0  0  0  0  0  0  0  0  0
  -27.5990   -8.6059   -4.0012 N   0  0  0  0  0  0  0  0  0  0  0  0
  -28.3123   -9.7041   -4.3055 C   0  0  0  0  0  0  0  0  0  0  0  0
  -29.3130   -9.8195   -5.1917 N   0  0  0  0  0  0  0  0  0  0  0  0
  -29.5555   -8.6531   -5.8154 C   0  0  0  0  0  0  0  0  0  0  0  0
  -27.5999   -5.4684   -4.2848 H   0  0  0  0  0  0  0  0  0  0  0  0
  -26.6044   -6.5513   -3.4131 H   0  0  0  0  0  0  0  0  0  0  0  0
  -29.1756   -5.1412   -6.8105 C   0  0  0  0  0  0  0  0  0  0  0  0
  -28.3965   -4.7911   -7.9203 C   0  0  0  0  0  0  0  0  0  0  0  0
  -28.0231   -3.4679   -8.1339 C   0  0  0  0  0  0  0  0  0  0  0  0
  -27.1926   -3.1303   -9.1602 O   0  0  0  0  0  0  0  0  0  0  0  0
  -28.4843   -2.4584   -7.3013 C   0  0  0  0  0  0  0  0  0  0  0  0
  -29.3123   -2.7968   -6.2369 C   0  0  0  0  0  0  0  0  0  0  0  0
  -29.7899   -1.8261   -5.4458 F   0  0  0  0  0  0  0  0  0  0  0  0
  -29.6497   -4.1229   -5.9727 C   0  0  0  0  0  0  0  0  0  0  0  0
  -26.9080   -3.9409   -9.6180 H   0  0  0  0  0  0  0  0  0  0  0  0
  -32.8541   -8.8416   -7.3886 C   0  0  0  0  0  0  0  0  0  0  0  0
  -31.4259   -9.3883   -7.3467 C   0  0  0  0  0  0  0  0  0  0  0  0
  -30.9780   -9.8561   -8.7322 C   0  0  0  0  0  0  0  0  0  0  0  0
 22 23  1  0  0  0
 23 24  1  0  0  0
 23  1  1  0  0  0
  1  2  1  0  0  0
  1 10  1  0  0  0
  2  3  2  0  0  0
  3 13  1  0  0  0
  3  4  1  0  0  0
 13 14  1  0  0  0
 13 20  2  0  0  0
 14 15  2  0  0  0
 15 16  1  0  0  0
 15 17  1  0  0  0
 16 21  1  0  0  0
 17 18  2  0  0  0
 18 19  1  0  0  0
 18 20  1  0  0  0
  4  5  1  0  0  0
  4 10  2  0  0  0
  5  6  1  0  0  0
  5  7  2  0  0  0
  6 11  1  0  0  0
  6 12  1  0  0  0
  7  8  1  0  0  0
  8  9  2  0  0  0
  9 10  1  0  0  0
M  END
> <minimizedAffinity>
-7.47868

$$$$
