CHEMBL404257


 33 36  0  0  0  0  0  0  0  0999 V2000
  -28.3001   -2.2510   -8.2068 C   0  0  0  0  0  0  0  0  0  0  0  0
  -29.0697   -3.3787   -8.4960 C   0  0  0  0  0  0  0  0  0  0  0  0
  -29.6058   -4.1546   -7.4611 C   0  0  0  0  0  0  0  0  0  0  0  0
  -29.3954   -3.8211   -6.1114 C   0  0  0  0  0  0  0  0  0  0  0  0
  -28.4977   -2.7719   -5.8524 C   0  0  0  0  0  0  0  0  0  0  0  0
  -27.9627   -1.9834   -6.8833 C   0  0  0  0  0  0  0  0  0  0  0  0
  -30.1169   -4.5443   -5.0490 C   0  0  0  0  0  0  0  0  0  0  0  0
  -31.1109   -3.8516   -4.4038 N   0  0  0  0  0  0  0  0  0  0  0  0
  -31.7920   -4.4226   -3.3868 C   0  0  0  0  0  0  0  0  0  0  0  0
  -31.5772   -5.7023   -2.9142 C   0  0  0  0  0  0  0  0  0  0  0  0
  -30.5594   -6.3946   -3.5614 C   0  0  0  0  0  0  0  0  0  0  0  0
  -30.0693   -7.6547   -3.3599 N   0  0  0  0  0  0  0  0  0  0  0  0
  -29.0424   -7.9773   -4.1516 N   0  0  0  0  0  0  0  0  0  0  0  0
  -28.8517   -6.8853   -4.8861 C   0  0  0  0  0  0  0  0  0  0  0  0
  -27.8327   -6.8260   -5.7597 N   0  0  0  0  0  0  0  0  0  0  0  0
  -29.8021   -5.8535   -4.6051 C   0  0  0  0  0  0  0  0  0  0  0  0
  -30.3840   -8.3409   -2.6837 H   0  0  0  0  0  0  0  0  0  0  0  0
  -27.1696   -7.5909   -5.6877 H   0  0  0  0  0  0  0  0  0  0  0  0
  -27.3691   -5.9342   -5.9041 H   0  0  0  0  0  0  0  0  0  0  0  0
  -26.6945   -0.7699  -11.1044 N   0  0  0  0  0  0  0  0  0  0  0  0
  -27.0147   -1.7837  -10.2167 C   0  0  0  0  0  0  0  0  0  0  0  0
  -26.6479   -2.9503  -10.2987 O   0  0  0  0  0  0  0  0  0  0  0  0
  -27.8995   -1.3491   -9.2249 N   0  0  0  0  0  0  0  0  0  0  0  0
  -27.1816    0.1075  -10.9885 H   0  0  0  0  0  0  0  0  0  0  0  0
  -28.6152   -0.7205   -9.5603 H   0  0  0  0  0  0  0  0  0  0  0  0
  -22.3305    0.2501  -13.2075 C   0  0  0  0  0  0  0  0  0  0  0  0
  -23.7003   -0.3617  -13.2919 C   0  0  0  0  0  0  0  0  0  0  0  0
  -24.1195   -0.9621  -14.4814 C   0  0  0  0  0  0  0  0  0  0  0  0
  -25.3738   -1.5559  -14.5521 C   0  0  0  0  0  0  0  0  0  0  0  0
  -26.2233   -1.5401  -13.4478 C   0  0  0  0  0  0  0  0  0  0  0  0
  -27.3540   -2.2443  -13.5715 F   0  0  0  0  0  0  0  0  0  0  0  0
  -25.8622   -0.8988  -12.2527 C   0  0  0  0  0  0  0  0  0  0  0  0
  -24.5755   -0.3344  -12.1845 C   0  0  0  0  0  0  0  0  0  0  0  0
 26 27  1  0  0  0
 27 28  1  0  0  0
 27 33  2  0  0  0
 28 29  2  0  0  0
 29 30  1  0  0  0
 30 31  1  0  0  0
 30 32  2  0  0  0
 32 20  1  0  0  0
 32 33  1  0  0  0
 20 21  1  0  0  0
 20 24  1  0  0  0
 21 22  2  0  0  0
 21 23  1  0  0  0
 23  1  1  0  0  0
 23 25  1  0  0  0
  1  2  1  0  0  0
  1  6  2  0  0  0
  2  3  2  0  0  0
  3  4  1  0  0  0
  4  7  1  0  0  0
  4  5  2  0  0  0
  7  8  1  0  0  0
  7 16  2  0  0  0
  8  9  2  0  0  0
  9 10  1  0  0  0
 10 11  2  0  0  0
 11 12  1  0  0  0
 11 16  1  0  0  0
 12 13  1  0  0  0
 12 17  1  0  0  0
 13 14  2  0  0  0
 14 15  1  0  0  0
 14 16  1  0  0  0
 15 18  1  0  0  0
 15 19  1  0  0  0
  5  6  1  0  0  0
M  END
> <minimizedAffinity>
-10.15123

$$$$
