CHEMBL429430


 35 39  0  0  0  0  0  0  0  0999 V2000
  -29.8384   -6.9682   -6.1043 C   0  0  0  0  0  0  0  0  0  0  0  0
  -28.5335   -6.7645   -5.6647 C   0  0  0  0  0  0  0  0  0  0  0  0
  -27.6823   -7.8486   -5.4382 C   0  0  0  0  0  0  0  0  0  0  0  0
  -28.1186   -9.1675   -5.6210 C   0  0  0  0  0  0  0  0  0  0  0  0
  -29.4372   -9.3531   -6.0892 C   0  0  0  0  0  0  0  0  0  0  0  0
  -30.2975   -8.2667   -6.3036 C   0  0  0  0  0  0  0  0  0  0  0  0
  -29.9891  -10.5798   -6.3746 O   0  0  0  0  0  0  0  0  0  0  0  0
  -29.3010  -11.6525   -5.7380 C   0  0  0  0  0  0  0  0  0  0  0  0
  -27.7988  -11.5545   -5.9466 C   0  0  0  0  0  0  0  0  0  0  0  0
  -27.2830  -10.3159   -5.3445 N   0  0  0  0  0  0  0  0  0  0  0  0
  -26.1929  -10.2342   -4.4633 C   0  0  0  0  0  0  0  0  0  0  0  0
  -25.8799   -9.1907   -3.8919 O   0  0  0  0  0  0  0  0  0  0  0  0
  -25.5068  -11.4150   -4.2393 N   0  0  0  0  0  0  0  0  0  0  0  0
  -25.5725  -12.1298   -4.9420 H   0  0  0  0  0  0  0  0  0  0  0  0
  -24.4871  -11.6149   -3.2741 C   0  0  0  0  0  0  0  0  0  0  0  0
  -23.1349  -11.3344   -3.4935 C   0  0  0  0  0  0  0  0  0  0  0  0
  -22.1675  -11.6267   -2.5311 C   0  0  0  0  0  0  0  0  0  0  0  0
  -22.5438  -12.1695   -1.3099 C   0  0  0  0  0  0  0  0  0  0  0  0
  -23.8940  -12.3995   -1.0464 C   0  0  0  0  0  0  0  0  0  0  0  0
  -24.8590  -12.1199   -2.0237 C   0  0  0  0  0  0  0  0  0  0  0  0
  -30.5610   -5.8186   -6.2968 O   0  0  0  0  0  0  0  0  0  0  0  0
  -28.2180   -1.2754   -5.3190 C   0  0  0  0  0  0  0  0  0  0  0  0
  -29.0922   -1.6252   -4.2742 C   0  0  0  0  0  0  0  0  0  0  0  0
  -29.8606   -2.7814   -4.2894 C   0  0  0  0  0  0  0  0  0  0  0  0
  -30.5958   -3.0634   -3.1997 N   0  0  0  0  0  0  0  0  0  0  0  0
  -31.2829   -4.2225   -3.1730 C   0  0  0  0  0  0  0  0  0  0  0  0
  -31.3017   -5.1188   -4.2168 C   0  0  0  0  0  0  0  0  0  0  0  0
  -30.5745   -4.8068   -5.3625 C   0  0  0  0  0  0  0  0  0  0  0  0
  -29.8009   -3.6224   -5.4142 C   0  0  0  0  0  0  0  0  0  0  0  0
  -28.9596   -3.2370   -6.4825 C   0  0  0  0  0  0  0  0  0  0  0  0
  -28.1860   -2.0728   -6.4607 C   0  0  0  0  0  0  0  0  0  0  0  0
  -28.0776    1.0221   -4.7973 C   0  0  0  0  0  0  0  0  0  0  0  0
  -27.4174   -0.1659   -5.2410 O   0  0  0  0  0  0  0  0  0  0  0  0
  -27.4923   -1.9185   -7.6254 O   0  0  0  0  0  0  0  0  0  0  0  0
  -27.7672   -2.7570   -8.7308 C   0  0  0  0  0  0  0  0  0  0  0  0
 32 33  1  0  0  0
 33 22  1  0  0  0
 22 23  1  0  0  0
 22 31  2  0  0  0
 23 24  2  0  0  0
 24 25  1  0  0  0
 24 29  1  0  0  0
 25 26  2  0  0  0
 26 27  1  0  0  0
 27 28  2  0  0  0
 28 21  1  0  0  0
 28 29  1  0  0  0
 21  1  1  0  0  0
  1  2  1  0  0  0
  1  6  2  0  0  0
  2  3  2  0  0  0
  3  4  1  0  0  0
  4  5  2  0  0  0
  4 10  1  0  0  0
  5  6  1  0  0  0
  5  7  1  0  0  0
  7  8  1  0  0  0
  8  9  1  0  0  0
  9 10  1  0  0  0
 10 11  1  0  0  0
 11 12  2  0  0  0
 11 13  1  0  0  0
 13 15  1  0  0  0
 13 14  1  0  0  0
 15 16  1  0  0  0
 15 20  2  0  0  0
 16 17  2  0  0  0
 17 18  1  0  0  0
 18 19  2  0  0  0
 19 20  1  0  0  0
 29 30  2  0  0  0
 30 31  1  0  0  0
 31 34  1  0  0  0
 34 35  1  0  0  0
M  END
> <minimizedAffinity>
-9.22570

$$$$
