CHEMBL386661


 42 46  0  0  0  0  0  0  0  0999 V2000
  -27.3445   -2.1759   -9.1559 C   0  0  0  0  0  0  0  0  0  0  0  0
  -27.1706   -1.2278   -8.3850 O   0  0  0  0  0  0  0  0  0  0  0  0
  -27.9605   -3.3764   -8.8142 N   0  0  0  0  0  0  0  0  0  0  0  0
  -28.1703   -4.0345   -9.5501 H   0  0  0  0  0  0  0  0  0  0  0  0
  -25.5031   -1.0665  -12.4769 C   0  0  0  0  0  0  0  0  0  0  0  0
  -25.7728   -1.3007  -11.0748 C   0  0  0  0  0  0  0  0  0  0  0  0
  -26.9503   -1.9357  -10.6134 C   0  0  0  0  0  0  0  0  0  0  0  0
  -27.8980   -2.3187  -11.5714 C   0  0  0  0  0  0  0  0  0  0  0  0
  -27.6686   -2.1210  -12.9352 C   0  0  0  0  0  0  0  0  0  0  0  0
  -26.4812   -1.5268  -13.4056 C   0  0  0  0  0  0  0  0  0  0  0  0
  -26.3417   -1.4354  -14.9100 C   0  0  0  0  0  0  0  0  0  0  0  0
  -20.5283    2.5599  -14.7043 C   0  0  0  0  0  0  0  0  0  0  0  0
  -21.4841    3.4229  -14.3462 N   0  0  0  0  0  0  0  0  0  0  0  0
  -22.5999    2.8985  -13.7925 C   0  0  0  0  0  0  0  0  0  0  0  0
  -22.8162    1.5409  -13.5866 C   0  0  0  0  0  0  0  0  0  0  0  0
  -23.9945    0.9690  -13.0089 C   0  0  0  0  0  0  0  0  0  0  0  0
  -24.2061   -0.4258  -12.9246 C   0  0  0  0  0  0  0  0  0  0  0  0
  -23.1255   -1.2076  -13.3547 C   0  0  0  0  0  0  0  0  0  0  0  0
  -21.9421   -0.6351  -13.8720 C   0  0  0  0  0  0  0  0  0  0  0  0
  -21.7724    0.7353  -14.0211 C   0  0  0  0  0  0  0  0  0  0  0  0
  -20.6442    1.2298  -14.5684 N   0  0  0  0  0  0  0  0  0  0  0  0
  -18.2661    2.2350  -15.4616 C   0  0  0  0  0  0  0  0  0  0  0  0
  -19.3722    3.1302  -15.2158 N   0  0  0  0  0  0  0  0  0  0  0  0
  -19.6532    3.7146  -15.9955 H   0  0  0  0  0  0  0  0  0  0  0  0
  -28.4759   -3.7213   -7.5105 C   0  0  0  0  0  0  0  0  0  0  0  0
  -28.7027   -2.7368   -6.5109 C   0  0  0  0  0  0  0  0  0  0  0  0
  -29.1206   -3.0614   -5.1944 C   0  0  0  0  0  0  0  0  0  0  0  0
  -29.3226   -4.4013   -4.8694 C   0  0  0  0  0  0  0  0  0  0  0  0
  -29.1106   -5.3864   -5.8338 C   0  0  0  0  0  0  0  0  0  0  0  0
  -28.7057   -5.0668   -7.1481 C   0  0  0  0  0  0  0  0  0  0  0  0
  -29.3448   -2.0166   -4.1190 C   0  0  0  0  0  0  0  0  0  0  0  0
  -30.2023   -2.3940   -3.1339 F   0  0  0  0  0  0  0  0  0  0  0  0
  -28.1846   -1.6655   -3.4923 F   0  0  0  0  0  0  0  0  0  0  0  0
  -29.8478   -0.8505   -4.6215 F   0  0  0  0  0  0  0  0  0  0  0  0
  -28.4231   -6.1863   -7.8807 O   0  0  0  0  0  0  0  0  0  0  0  0
  -29.3535   -7.2639   -8.0603 C   0  0  0  0  0  0  0  0  0  0  0  0
  -29.8002   -8.0565   -6.8332 C   0  0  0  0  0  0  0  0  0  0  0  0
  -28.6549   -8.8168   -6.1564 C   0  0  0  0  0  0  0  0  0  0  0  0
  -27.8457   -9.6315   -7.0718 N   0  0  0  0  0  0  0  0  0  0  0  0
  -26.6283  -10.1190   -6.4081 C   0  0  0  0  0  0  0  0  0  0  0  0
  -27.4812   -8.9503   -8.3198 C   0  0  0  0  0  0  0  0  0  0  0  0
  -28.6782   -8.2806   -8.9992 C   0  0  0  0  0  0  0  0  0  0  0  0
 22 23  1  0  0  0
 23 12  1  0  0  0
 23 24  1  0  0  0
 12 13  1  0  0  0
 12 21  2  0  0  0
 13 14  2  0  0  0
 14 15  1  0  0  0
 15 16  1  0  0  0
 15 20  2  0  0  0
 16 17  2  0  0  0
 17  5  1  0  0  0
 17 18  1  0  0  0
  5  6  1  0  0  0
  5 10  2  0  0  0
  6  7  2  0  0  0
  7  1  1  0  0  0
  7  8  1  0  0  0
  1  2  2  0  0  0
  1  3  1  0  0  0
  3 25  1  0  0  0
  3  4  1  0  0  0
 25 26  1  0  0  0
 25 30  2  0  0  0
 26 27  2  0  0  0
 27 31  1  0  0  0
 27 28  1  0  0  0
 31 32  1  0  0  0
 31 33  1  0  0  0
 31 34  1  0  0  0
 28 29  2  0  0  0
 29 30  1  0  0  0
 30 35  1  0  0  0
 35 36  1  0  0  0
 36 37  1  0  0  0
 36 42  1  0  0  0
 37 38  1  0  0  0
 38 39  1  0  0  0
 39 40  1  0  0  0
 39 41  1  0  0  0
 41 42  1  0  0  0
  8  9  2  0  0  0
  9 10  1  0  0  0
 10 11  1  0  0  0
 18 19  2  0  0  0
 19 20  1  0  0  0
 20 21  1  0  0  0
M  END
> <minimizedAffinity>
-11.91538

$$$$
