CHEMBL427139


 32 36  0  0  0  0  0  0  0  0999 V2000
  -19.2085    1.1767  -15.3139 C   0  0  0  0  0  0  0  0  0  0  0  0
  -19.2399    2.5545  -15.5463 C   0  0  0  0  0  0  0  0  0  0  0  0
  -18.0641    3.2736  -15.7847 C   0  0  0  0  0  0  0  0  0  0  0  0
  -16.8279    2.6242  -15.8268 C   0  0  0  0  0  0  0  0  0  0  0  0
  -16.7956    1.2590  -15.4805 C   0  0  0  0  0  0  0  0  0  0  0  0
  -17.9695    0.5454  -15.2117 C   0  0  0  0  0  0  0  0  0  0  0  0
  -15.6372    3.2469  -16.4355 C   0  0  0  0  0  0  0  0  0  0  0  0
  -15.7506    4.2642  -17.4088 C   0  0  0  0  0  0  0  0  0  0  0  0
  -14.6905    5.1518  -17.6911 C   0  0  0  0  0  0  0  0  0  0  0  0
  -13.5247    5.1063  -16.9345 C   0  0  0  0  0  0  0  0  0  0  0  0
  -13.4266    4.0952  -16.0013 C   0  0  0  0  0  0  0  0  0  0  0  0
  -14.3901    3.0993  -15.8345 C   0  0  0  0  0  0  0  0  0  0  0  0
  -13.9008    2.1677  -14.7776 C   0  0  0  0  0  0  0  0  0  0  0  0
  -13.0184    3.0081  -14.0120 N   0  0  0  0  0  0  0  0  0  0  0  0
  -12.6511    4.1212  -14.7504 C   0  0  0  0  0  0  0  0  0  0  0  0
  -12.0007    5.0683  -14.3481 O   0  0  0  0  0  0  0  0  0  0  0  0
  -13.2426    3.2097  -13.0444 H   0  0  0  0  0  0  0  0  0  0  0  0
  -21.2477    1.2913  -13.2850 O   0  0  0  0  0  0  0  0  0  0  0  0
  -21.3200    0.4851  -14.2045 C   0  0  0  0  0  0  0  0  0  0  0  0
  -20.3755    0.3839  -15.2184 N   0  0  0  0  0  0  0  0  0  0  0  0
  -22.3655   -0.4031  -14.3991 N   0  0  0  0  0  0  0  0  0  0  0  0
  -20.6848   -0.0566  -16.0760 H   0  0  0  0  0  0  0  0  0  0  0  0
  -22.2617   -1.0716  -15.1468 H   0  0  0  0  0  0  0  0  0  0  0  0
  -23.5248   -0.5269  -13.6012 C   0  0  0  0  0  0  0  0  0  0  0  0
  -23.6206   -0.0443  -12.2817 C   0  0  0  0  0  0  0  0  0  0  0  0
  -24.7773   -0.2299  -11.5183 C   0  0  0  0  0  0  0  0  0  0  0  0
  -25.8462   -0.8821  -12.0962 C   0  0  0  0  0  0  0  0  0  0  0  0
  -25.7804   -1.3376  -13.4122 C   0  0  0  0  0  0  0  0  0  0  0  0
  -24.6282   -1.1763  -14.1711 C   0  0  0  0  0  0  0  0  0  0  0  0
  -27.0435   -2.0333  -13.8058 C   0  0  0  0  0  0  0  0  0  0  0  0
  -27.9897   -1.6776  -12.6477 C   0  0  0  0  0  0  0  0  0  0  0  0
  -27.1324   -1.2655  -11.4437 C   0  0  0  0  0  0  0  0  0  0  0  0
 18 19  2  0  0  0
 19 20  1  0  0  0
 19 21  1  0  0  0
 20  1  1  0  0  0
 20 22  1  0  0  0
  1  2  1  0  0  0
  1  6  2  0  0  0
  2  3  2  0  0  0
  3  4  1  0  0  0
  4  7  1  0  0  0
  4  5  2  0  0  0
  7  8  1  0  0  0
  7 12  2  0  0  0
  8  9  2  0  0  0
  9 10  1  0  0  0
 10 11  2  0  0  0
 11 12  1  0  0  0
 11 15  1  0  0  0
 12 13  1  0  0  0
 13 14  1  0  0  0
 14 15  1  0  0  0
 14 17  1  0  0  0
 15 16  2  0  0  0
  5  6  1  0  0  0
 21 24  1  0  0  0
 21 23  1  0  0  0
 24 25  1  0  0  0
 24 29  2  0  0  0
 25 26  2  0  0  0
 26 27  1  0  0  0
 27 28  2  0  0  0
 27 32  1  0  0  0
 28 29  1  0  0  0
 28 30  1  0  0  0
 30 31  1  0  0  0
 31 32  1  0  0  0
M  END
> <minimizedAffinity>
-10.86305

$$$$
