CHEMBL1290246


 32 35  0  0  0  0  0  0  0  0999 V2000
  -18.9519    2.3410  -15.0122 C   0  0  0  0  0  0  0  0  0  0  0  0
  -19.8722    3.3008  -14.5740 C   0  0  0  0  0  0  0  0  0  0  0  0
  -21.1733    2.9174  -14.1969 C   0  0  0  0  0  0  0  0  0  0  0  0
  -21.5819    1.5681  -14.2596 C   0  0  0  0  0  0  0  0  0  0  0  0
  -20.6528    0.6183  -14.6995 C   0  0  0  0  0  0  0  0  0  0  0  0
  -19.3555    1.0044  -15.0792 C   0  0  0  0  0  0  0  0  0  0  0  0
  -16.7633    1.6424  -15.8653 N   0  0  0  0  0  0  0  0  0  0  0  0
  -17.5763    2.6919  -15.4864 C   0  0  0  0  0  0  0  0  0  0  0  0
  -17.2708    3.8830  -15.5790 O   0  0  0  0  0  0  0  0  0  0  0  0
  -17.2256    0.7928  -16.1686 H   0  0  0  0  0  0  0  0  0  0  0  0
  -13.9759    2.9608  -17.9725 C   0  0  0  0  0  0  0  0  0  0  0  0
  -12.8787    2.4906  -17.2505 C   0  0  0  0  0  0  0  0  0  0  0  0
  -13.0586    1.6367  -16.1703 C   0  0  0  0  0  0  0  0  0  0  0  0
  -14.3493    1.2914  -15.7439 C   0  0  0  0  0  0  0  0  0  0  0  0
  -15.4612    1.8422  -16.4084 C   0  0  0  0  0  0  0  0  0  0  0  0
  -15.2737    2.6512  -17.5333 C   0  0  0  0  0  0  0  0  0  0  0  0
  -14.9199    4.7700  -19.1513 C   0  0  0  0  0  0  0  0  0  0  0  0
  -13.8846    3.7891  -19.0539 O   0  0  0  0  0  0  0  0  0  0  0  0
  -14.6274    0.3772  -14.7586 O   0  0  0  0  0  0  0  0  0  0  0  0
  -14.3304    0.7639  -13.4219 C   0  0  0  0  0  0  0  0  0  0  0  0
  -22.9743    1.1324  -13.8280 C   0  0  0  0  0  0  0  0  0  0  0  0
  -22.9620   -0.3035  -12.7094 S   0  0  0  0  0  0  0  0  0  0  0  0
  -24.5311   -1.0450  -13.0708 C   0  0  0  0  0  0  0  0  0  0  0  0
  -24.9545   -1.2016  -14.3536 N   0  0  0  0  0  0  0  0  0  0  0  0
  -26.2191   -1.6376  -14.5550 C   0  0  0  0  0  0  0  0  0  0  0  0
  -27.1502   -1.9555  -13.6342 N   0  0  0  0  0  0  0  0  0  0  0  0
  -26.6699   -1.7932  -12.3940 C   0  0  0  0  0  0  0  0  0  0  0  0
  -27.3501   -1.9775  -11.2280 N   0  0  0  0  0  0  0  0  0  0  0  0
  -26.4964   -1.6903  -10.1995 C   0  0  0  0  0  0  0  0  0  0  0  0
  -25.3106   -1.3254  -10.6400 N   0  0  0  0  0  0  0  0  0  0  0  0
  -25.4036   -1.3626  -12.0199 C   0  0  0  0  0  0  0  0  0  0  0  0
  -28.3225   -2.2459  -11.1525 H   0  0  0  0  0  0  0  0  0  0  0  0
 17 18  1  0  0  0
 18 11  1  0  0  0
 11 12  1  0  0  0
 11 16  2  0  0  0
 12 13  2  0  0  0
 13 14  1  0  0  0
 14 19  1  0  0  0
 14 15  2  0  0  0
 19 20  1  0  0  0
 15  7  1  0  0  0
 15 16  1  0  0  0
  7  8  1  0  0  0
  7 10  1  0  0  0
  8  9  2  0  0  0
  8  1  1  0  0  0
  1  2  1  0  0  0
  1  6  2  0  0  0
  2  3  2  0  0  0
  3  4  1  0  0  0
  4 21  1  0  0  0
  4  5  2  0  0  0
 21 22  1  0  0  0
 22 23  1  0  0  0
 23 24  1  0  0  0
 23 31  2  0  0  0
 24 25  2  0  0  0
 25 26  1  0  0  0
 26 27  2  0  0  0
 27 28  1  0  0  0
 27 31  1  0  0  0
 28 29  1  0  0  0
 28 32  1  0  0  0
 29 30  2  0  0  0
 30 31  1  0  0  0
  5  6  1  0  0  0
M  END
> <minimizedAffinity>
-8.87108

$$$$
