CHEMBL3678957


 39 43  0  0  0  0  0  0  0  0999 V2000
  -26.0329   -1.3984  -12.4400 N   0  0  0  0  0  0  0  0  0  0  0  0
  -26.0179   -1.9045  -11.1480 C   0  0  0  0  0  0  0  0  0  0  0  0
  -24.8616   -1.6583  -10.5587 N   0  0  0  0  0  0  0  0  0  0  0  0
  -24.0829   -1.0595  -11.4960 C   0  0  0  0  0  0  0  0  0  0  0  0
  -22.7763   -0.5931  -11.4735 C   0  0  0  0  0  0  0  0  0  0  0  0
  -22.2418   -0.0529  -12.5963 N   0  0  0  0  0  0  0  0  0  0  0  0
  -22.9906   -0.0164  -13.7193 C   0  0  0  0  0  0  0  0  0  0  0  0
  -24.2689   -0.4306  -13.8224 N   0  0  0  0  0  0  0  0  0  0  0  0
  -24.7646   -0.9285  -12.6868 C   0  0  0  0  0  0  0  0  0  0  0  0
  -26.8115   -1.5926  -14.8379 C   0  0  0  0  0  0  0  0  0  0  0  0
  -27.1687   -1.3998  -13.3585 C   0  0  0  0  0  0  0  0  0  0  0  0
  -28.2452   -2.4052  -12.9442 C   0  0  0  0  0  0  0  0  0  0  0  0
  -27.0615   -2.5735  -10.6056 N   0  0  0  0  0  0  0  0  0  0  0  0
  -27.5055   -3.3591  -11.0644 H   0  0  0  0  0  0  0  0  0  0  0  0
  -27.5024   -2.3688   -9.2804 C   0  0  0  0  0  0  0  0  0  0  0  0
  -28.0154   -3.4410   -8.5412 C   0  0  0  0  0  0  0  0  0  0  0  0
  -28.5464   -3.2380   -7.2598 C   0  0  0  0  0  0  0  0  0  0  0  0
  -28.5700   -1.9561   -6.6892 C   0  0  0  0  0  0  0  0  0  0  0  0
  -28.0470   -0.8858   -7.4210 C   0  0  0  0  0  0  0  0  0  0  0  0
  -27.5304   -1.0928   -8.6984 C   0  0  0  0  0  0  0  0  0  0  0  0
  -29.1516   -1.7000   -5.3246 C   0  0  0  0  0  0  0  0  0  0  0  0
  -28.2129   -1.5596   -4.3472 F   0  0  0  0  0  0  0  0  0  0  0  0
  -29.9039   -0.5645   -5.2848 F   0  0  0  0  0  0  0  0  0  0  0  0
  -29.9737   -2.7046   -4.9100 F   0  0  0  0  0  0  0  0  0  0  0  0
  -22.3739    0.5338  -14.8376 N   0  0  0  0  0  0  0  0  0  0  0  0
  -23.0480    0.9242  -15.4786 H   0  0  0  0  0  0  0  0  0  0  0  0
  -21.0485    0.9592  -14.9631 C   0  0  0  0  0  0  0  0  0  0  0  0
  -20.7560    2.3186  -14.8983 C   0  0  0  0  0  0  0  0  0  0  0  0
  -19.4530    2.7723  -15.1208 C   0  0  0  0  0  0  0  0  0  0  0  0
  -18.3942    1.8913  -15.3925 C   0  0  0  0  0  0  0  0  0  0  0  0
  -18.6917    0.5279  -15.4196 C   0  0  0  0  0  0  0  0  0  0  0  0
  -19.9974    0.0717  -15.2204 C   0  0  0  0  0  0  0  0  0  0  0  0
  -17.1157    2.3896  -15.5603 N   0  0  0  0  0  0  0  0  0  0  0  0
  -15.9531    1.4971  -15.6633 C   0  0  0  0  0  0  0  0  0  0  0  0
  -14.7020    2.2614  -15.1677 C   0  0  0  0  0  0  0  0  0  0  0  0
  -14.4674    3.5271  -15.9057 N   0  0  0  0  0  0  0  0  0  0  0  0
  -13.3297    4.2441  -15.3337 C   0  0  0  0  0  0  0  0  0  0  0  0
  -15.6878    4.3683  -15.8444 C   0  0  0  0  0  0  0  0  0  0  0  0
  -16.9517    3.6299  -16.3403 C   0  0  0  0  0  0  0  0  0  0  0  0
 10 11  1  0  0  0
 11 12  1  0  0  0
 11  1  1  0  0  0
  1  2  1  0  0  0
  1  9  1  0  0  0
  2 13  1  0  0  0
  2  3  2  0  0  0
 13 15  1  0  0  0
 13 14  1  0  0  0
 15 16  1  0  0  0
 15 20  2  0  0  0
 16 17  2  0  0  0
 17 18  1  0  0  0
 18 21  1  0  0  0
 18 19  2  0  0  0
 21 22  1  0  0  0
 21 23  1  0  0  0
 21 24  1  0  0  0
 19 20  1  0  0  0
  3  4  1  0  0  0
  4  5  1  0  0  0
  4  9  2  0  0  0
  5  6  2  0  0  0
  6  7  1  0  0  0
  7 25  1  0  0  0
  7  8  2  0  0  0
 25 27  1  0  0  0
 25 26  1  0  0  0
 27 28  1  0  0  0
 27 32  2  0  0  0
 28 29  2  0  0  0
 29 30  1  0  0  0
 30 33  1  0  0  0
 30 31  2  0  0  0
 33 34  1  0  0  0
 33 39  1  0  0  0
 34 35  1  0  0  0
 35 36  1  0  0  0
 36 37  1  0  0  0
 36 38  1  0  0  0
 38 39  1  0  0  0
 31 32  1  0  0  0
  8  9  1  0  0  0
M  END
> <minimizedAffinity>
-9.97812

$$$$
