CHEMBL1990583


 35 38  0  0  0  0  0  0  0  0999 V2000
  -23.0059    0.1240  -12.6541 C   0  0  0  0  0  0  0  0  0  0  0  0
  -24.3531    0.4554  -12.7484 C   0  0  0  0  0  0  0  0  0  0  0  0
  -25.3456   -0.3682  -12.2156 C   0  0  0  0  0  0  0  0  0  0  0  0
  -25.0326   -1.5724  -11.5895 C   0  0  0  0  0  0  0  0  0  0  0  0
  -23.6836   -1.9445  -11.5370 C   0  0  0  0  0  0  0  0  0  0  0  0
  -22.6785   -1.1077  -12.0758 C   0  0  0  0  0  0  0  0  0  0  0  0
  -26.0226   -2.3986  -10.9906 N   0  0  0  0  0  0  0  0  0  0  0  0
  -26.6908   -2.1076   -9.8088 C   0  0  0  0  0  0  0  0  0  0  0  0
  -26.5931   -1.0589   -9.1797 O   0  0  0  0  0  0  0  0  0  0  0  0
  -27.4814   -3.1641   -9.3641 N   0  0  0  0  0  0  0  0  0  0  0  0
  -26.3276   -3.2089  -11.5053 H   0  0  0  0  0  0  0  0  0  0  0  0
  -27.0817   -4.0745   -9.5326 H   0  0  0  0  0  0  0  0  0  0  0  0
  -28.2033   -3.0107   -8.1485 C   0  0  0  0  0  0  0  0  0  0  0  0
  -29.2455   -3.8863   -7.8066 C   0  0  0  0  0  0  0  0  0  0  0  0
  -30.0282   -3.6567   -6.6726 C   0  0  0  0  0  0  0  0  0  0  0  0
  -29.7756   -2.5441   -5.8774 C   0  0  0  0  0  0  0  0  0  0  0  0
  -28.7238   -1.6941   -6.2063 C   0  0  0  0  0  0  0  0  0  0  0  0
  -28.5029   -0.6069   -5.4558 F   0  0  0  0  0  0  0  0  0  0  0  0
  -27.9174   -1.9283   -7.3189 C   0  0  0  0  0  0  0  0  0  0  0  0
  -21.2251    0.7768  -14.2559 C   0  0  0  0  0  0  0  0  0  0  0  0
  -21.3544   -0.1717  -15.0160 O   0  0  0  0  0  0  0  0  0  0  0  0
  -21.9842    0.9975  -13.1114 N   0  0  0  0  0  0  0  0  0  0  0  0
  -21.9136    1.9089  -12.6776 H   0  0  0  0  0  0  0  0  0  0  0  0
  -18.2324   -0.6351  -15.0241 N   0  0  0  0  0  0  0  0  0  0  0  0
  -17.9896    0.6920  -15.2484 C   0  0  0  0  0  0  0  0  0  0  0  0
  -16.8085    0.9956  -15.6983 N   0  0  0  0  0  0  0  0  0  0  0  0
  -16.5167    2.3107  -15.9668 C   0  0  0  0  0  0  0  0  0  0  0  0
  -17.2996    3.3282  -15.8022 N   0  0  0  0  0  0  0  0  0  0  0  0
  -18.5111    3.0087  -15.3256 N   0  0  0  0  0  0  0  0  0  0  0  0
  -19.5140    3.9047  -15.0975 C   0  0  0  0  0  0  0  0  0  0  0  0
  -20.6105    3.2025  -14.6673 C   0  0  0  0  0  0  0  0  0  0  0  0
  -20.2567    1.8144  -14.6095 C   0  0  0  0  0  0  0  0  0  0  0  0
  -18.9346    1.7407  -15.0294 C   0  0  0  0  0  0  0  0  0  0  0  0
  -17.4762   -1.1936  -15.4071 H   0  0  0  0  0  0  0  0  0  0  0  0
  -19.1275   -0.9559  -15.3774 H   0  0  0  0  0  0  0  0  0  0  0  0
 24 25  1  0  0  0
 24 34  1  0  0  0
 24 35  1  0  0  0
 25 26  2  0  0  0
 25 33  1  0  0  0
 26 27  1  0  0  0
 27 28  2  0  0  0
 28 29  1  0  0  0
 29 30  1  0  0  0
 29 33  1  0  0  0
 30 31  2  0  0  0
 31 32  1  0  0  0
 32 20  1  0  0  0
 32 33  2  0  0  0
 20 21  2  0  0  0
 20 22  1  0  0  0
 22  1  1  0  0  0
 22 23  1  0  0  0
  1  2  1  0  0  0
  1  6  2  0  0  0
  2  3  2  0  0  0
  3  4  1  0  0  0
  4  7  1  0  0  0
  4  5  2  0  0  0
  7  8  1  0  0  0
  7 11  1  0  0  0
  8  9  2  0  0  0
  8 10  1  0  0  0
 10 13  1  0  0  0
 10 12  1  0  0  0
 13 14  1  0  0  0
 13 19  2  0  0  0
 14 15  2  0  0  0
 15 16  1  0  0  0
 16 17  2  0  0  0
 17 18  1  0  0  0
 17 19  1  0  0  0
  5  6  1  0  0  0
M  END
> <minimizedAffinity>
-10.33526

$$$$
