CHEMBL4434704


 37 42  0  0  0  0  0  0  0  0999 V2000
  -27.9818   -2.5090   -8.9503 C   0  0  0  0  0  0  0  0  0  0  0  0
  -26.7059   -1.9649   -8.7763 C   0  0  0  0  0  0  0  0  0  0  0  0
  -25.9668   -1.4917   -9.8646 C   0  0  0  0  0  0  0  0  0  0  0  0
  -26.5163   -1.5766  -11.1601 C   0  0  0  0  0  0  0  0  0  0  0  0
  -26.1178   -1.1954  -12.4813 C   0  0  0  0  0  0  0  0  0  0  0  0
  -27.0844   -1.4831  -13.3723 N   0  0  0  0  0  0  0  0  0  0  0  0
  -28.0601   -2.0388  -12.6396 N   0  0  0  0  0  0  0  0  0  0  0  0
  -27.7821   -2.1322  -11.3040 C   0  0  0  0  0  0  0  0  0  0  0  0
  -28.5423   -2.6180  -10.2322 C   0  0  0  0  0  0  0  0  0  0  0  0
  -28.9075   -2.3283  -13.1139 H   0  0  0  0  0  0  0  0  0  0  0  0
  -31.2253   -4.7580   -4.3768 C   0  0  0  0  0  0  0  0  0  0  0  0
  -31.0203   -6.1537   -4.3293 C   0  0  0  0  0  0  0  0  0  0  0  0
  -30.1623   -6.7922   -5.2261 C   0  0  0  0  0  0  0  0  0  0  0  0
  -29.5238   -5.9990   -6.1534 C   0  0  0  0  0  0  0  0  0  0  0  0
  -29.7042   -4.6132   -6.2128 C   0  0  0  0  0  0  0  0  0  0  0  0
  -30.5605   -3.9759   -5.3312 C   0  0  0  0  0  0  0  0  0  0  0  0
  -28.8704   -4.1453   -7.3271 C   0  0  0  0  0  0  0  0  0  0  0  0
  -28.7502   -2.8807   -7.7609 C   0  0  0  0  0  0  0  0  0  0  0  0
  -28.1882   -5.3687   -7.9101 C   0  0  0  0  0  0  0  0  0  0  0  0
  -27.4059   -5.4376   -8.8347 O   0  0  0  0  0  0  0  0  0  0  0  0
  -28.6432   -6.4239   -7.1404 N   0  0  0  0  0  0  0  0  0  0  0  0
  -28.3490   -7.3738   -7.3044 H   0  0  0  0  0  0  0  0  0  0  0  0
  -32.4248   -5.1725   -2.3654 C   0  0  0  0  0  0  0  0  0  0  0  0
  -32.1015   -4.2911   -3.4332 O   0  0  0  0  0  0  0  0  0  0  0  0
  -24.8771   -0.5571  -12.9134 C   0  0  0  0  0  0  0  0  0  0  0  0
  -24.2157   -0.9842  -14.0601 C   0  0  0  0  0  0  0  0  0  0  0  0
  -23.0285   -0.3624  -14.4393 C   0  0  0  0  0  0  0  0  0  0  0  0
  -22.5138    0.6937  -13.6857 C   0  0  0  0  0  0  0  0  0  0  0  0
  -23.1483    1.1318  -12.5795 N   0  0  0  0  0  0  0  0  0  0  0  0
  -24.2904    0.4909  -12.2134 C   0  0  0  0  0  0  0  0  0  0  0  0
  -21.3792    1.3359  -14.1576 N   0  0  0  0  0  0  0  0  0  0  0  0
  -20.6002    0.6694  -15.2052 C   0  0  0  0  0  0  0  0  0  0  0  0
  -19.1716    1.2719  -15.1651 C   0  0  0  0  0  0  0  0  0  0  0  0
  -19.1577    2.7459  -15.3583 N   0  0  0  0  0  0  0  0  0  0  0  0
  -17.8019    3.2664  -15.1925 C   0  0  0  0  0  0  0  0  0  0  0  0
  -20.0775    3.3921  -14.3886 C   0  0  0  0  0  0  0  0  0  0  0  0
  -21.4998    2.7814  -14.3972 C   0  0  0  0  0  0  0  0  0  0  0  0
 23 24  1  0  0  0
 24 11  1  0  0  0
 11 12  1  0  0  0
 11 16  2  0  0  0
 12 13  2  0  0  0
 13 14  1  0  0  0
 14 15  2  0  0  0
 14 21  1  0  0  0
 15 16  1  0  0  0
 15 17  1  0  0  0
 17 18  2  0  0  0
 17 19  1  0  0  0
 18  1  1  0  0  0
  1  2  1  0  0  0
  1  9  2  0  0  0
  2  3  2  0  0  0
  3  4  1  0  0  0
  4  5  1  0  0  0
  4  8  2  0  0  0
  5 25  1  0  0  0
  5  6  2  0  0  0
 25 26  1  0  0  0
 25 30  2  0  0  0
 26 27  2  0  0  0
 27 28  1  0  0  0
 28 31  1  0  0  0
 28 29  2  0  0  0
 31 32  1  0  0  0
 31 37  1  0  0  0
 32 33  1  0  0  0
 33 34  1  0  0  0
 34 35  1  0  0  0
 34 36  1  0  0  0
 36 37  1  0  0  0
 29 30  1  0  0  0
  6  7  1  0  0  0
  7  8  1  0  0  0
  7 10  1  0  0  0
  8  9  1  0  0  0
 19 20  2  0  0  0
 19 21  1  0  0  0
 21 22  1  0  0  0
M  END
> <minimizedAffinity>
-8.91911

$$$$
