CHEMBL1271617


 23 25  0  0  0  0  0  0  0  0999 V2000
  -29.5549   -6.3343   -6.4840 C   0  0  0  0  0  0  0  0  0  0  0  0
  -28.4987   -6.5132   -5.8748 O   0  0  0  0  0  0  0  0  0  0  0  0
  -30.2356   -5.1291   -6.5192 N   0  0  0  0  0  0  0  0  0  0  0  0
  -31.1974   -5.0815   -6.8371 H   0  0  0  0  0  0  0  0  0  0  0  0
  -29.7892   -3.9110   -5.9182 C   0  0  0  0  0  0  0  0  0  0  0  0
  -30.0992   -3.5818   -4.5902 C   0  0  0  0  0  0  0  0  0  0  0  0
  -29.7168   -2.3604   -4.0464 C   0  0  0  0  0  0  0  0  0  0  0  0
  -29.0108   -1.4570   -4.8258 C   0  0  0  0  0  0  0  0  0  0  0  0
  -28.6586   -1.7864   -6.1425 C   0  0  0  0  0  0  0  0  0  0  0  0
  -27.9411   -0.8773   -6.9266 C   0  0  0  0  0  0  0  0  0  0  0  0
  -27.5917   -1.2131   -8.2256 C   0  0  0  0  0  0  0  0  0  0  0  0
  -27.9731   -2.4547   -8.6974 C   0  0  0  0  0  0  0  0  0  0  0  0
  -28.6795   -3.3592   -7.9780 N   0  0  0  0  0  0  0  0  0  0  0  0
  -29.0285   -3.0322   -6.7086 C   0  0  0  0  0  0  0  0  0  0  0  0
  -28.9425   -9.9767   -9.8942 C   0  0  0  0  0  0  0  0  0  0  0  0
  -29.8063   -9.3015   -8.8667 C   0  0  0  0  0  0  0  0  0  0  0  0
  -31.1053   -9.7505   -8.6144 C   0  0  0  0  0  0  0  0  0  0  0  0
  -31.9064   -9.1051   -7.6697 C   0  0  0  0  0  0  0  0  0  0  0  0
  -31.4252   -7.9978   -6.9610 C   0  0  0  0  0  0  0  0  0  0  0  0
  -30.1238   -7.5295   -7.1862 C   0  0  0  0  0  0  0  0  0  0  0  0
  -29.3262   -8.1982   -8.1464 C   0  0  0  0  0  0  0  0  0  0  0  0
  -28.0376   -7.8125   -8.4404 O   0  0  0  0  0  0  0  0  0  0  0  0
  -27.8296   -7.0195   -7.8975 H   0  0  0  0  0  0  0  0  0  0  0  0
 15 16  1  0  0  0
 16 17  1  0  0  0
 16 21  2  0  0  0
 17 18  2  0  0  0
 18 19  1  0  0  0
 19 20  2  0  0  0
 20  1  1  0  0  0
 20 21  1  0  0  0
  1  2  2  0  0  0
  1  3  1  0  0  0
  3  5  1  0  0  0
  3  4  1  0  0  0
  5  6  1  0  0  0
  5 14  2  0  0  0
  6  7  2  0  0  0
  7  8  1  0  0  0
  8  9  2  0  0  0
  9 10  1  0  0  0
  9 14  1  0  0  0
 10 11  2  0  0  0
 11 12  1  0  0  0
 12 13  2  0  0  0
 13 14  1  0  0  0
 21 22  1  0  0  0
 22 23  1  0  0  0
M  END
> <minimizedAffinity>
-8.22644

$$$$
