CHEMBL59110


 24 27  0  0  0  0  0  0  0  0999 V2000
  -28.0870   -7.6467   -4.9236 O   0  0  0  0  0  0  0  0  0  0  0  0
  -28.3237   -6.4559   -4.9222 C   0  0  0  0  0  0  0  0  0  0  0  0
  -28.1627   -5.5858   -3.8548 N   0  0  0  0  0  0  0  0  0  0  0  0
  -28.6020   -4.3054   -4.1700 C   0  0  0  0  0  0  0  0  0  0  0  0
  -28.5991   -3.1999   -3.3433 C   0  0  0  0  0  0  0  0  0  0  0  0
  -29.0862   -2.0044   -3.8758 C   0  0  0  0  0  0  0  0  0  0  0  0
  -29.5533   -1.9528   -5.1974 C   0  0  0  0  0  0  0  0  0  0  0  0
  -30.0077   -0.7907   -5.6852 F   0  0  0  0  0  0  0  0  0  0  0  0
  -29.5539   -3.0772   -6.0201 C   0  0  0  0  0  0  0  0  0  0  0  0
  -29.0713   -4.2595   -5.4868 C   0  0  0  0  0  0  0  0  0  0  0  0
  -28.8963   -5.6134   -6.0367 C   0  0  0  0  0  0  0  0  0  0  0  0
  -29.1719   -5.9166   -7.3130 C   0  0  0  0  0  0  0  0  0  0  0  0
  -27.7911   -5.8834   -2.9649 H   0  0  0  0  0  0  0  0  0  0  0  0
  -28.9445   -7.1366   -7.9948 C   0  0  0  0  0  0  0  0  0  0  0  0
  -27.7989   -7.3911   -8.7161 N   0  0  0  0  0  0  0  0  0  0  0  0
  -27.8362   -8.6619   -9.2342 C   0  0  0  0  0  0  0  0  0  0  0  0
  -29.0287   -9.2394   -8.8563 C   0  0  0  0  0  0  0  0  0  0  0  0
  -29.7207   -8.2767   -8.0791 C   0  0  0  0  0  0  0  0  0  0  0  0
  -31.0566   -8.5994   -7.5218 C   0  0  0  0  0  0  0  0  0  0  0  0
  -31.6896   -9.7005   -8.3806 C   0  0  0  0  0  0  0  0  0  0  0  0
  -30.8046  -10.8180   -8.6517 O   0  0  0  0  0  0  0  0  0  0  0  0
  -29.5410  -10.5709   -9.1411 C   0  0  0  0  0  0  0  0  0  0  0  0
  -28.8969  -11.4328   -9.7261 O   0  0  0  0  0  0  0  0  0  0  0  0
  -27.0518   -6.7229   -8.8849 H   0  0  0  0  0  0  0  0  0  0  0  0
  1  2  2  0  0  0
  2  3  1  0  0  0
  2 11  1  0  0  0
  3  4  1  0  0  0
  3 13  1  0  0  0
  4  5  1  0  0  0
  4 10  2  0  0  0
  5  6  2  0  0  0
  6  7  1  0  0  0
  7  8  1  0  0  0
  7  9  2  0  0  0
  9 10  1  0  0  0
 10 11  1  0  0  0
 11 12  2  0  0  0
 12 14  1  0  0  0
 14 15  1  0  0  0
 14 18  2  0  0  0
 15 16  1  0  0  0
 15 24  1  0  0  0
 16 17  2  0  0  0
 17 18  1  0  0  0
 17 22  1  0  0  0
 18 19  1  0  0  0
 19 20  1  0  0  0
 20 21  1  0  0  0
 21 22  1  0  0  0
 22 23  2  0  0  0
M  END
> <minimizedAffinity>
-8.95831

$$$$
