CHEMBL223486


 25 27  0  0  0  0  0  0  0  0999 V2000
  -19.8692    1.6779  -14.7111 C   0  0  0  0  0  0  0  0  0  0  0  0
  -19.7153    3.0573  -14.8340 C   0  0  0  0  0  0  0  0  0  0  0  0
  -18.5396    3.6484  -15.2979 N   0  0  0  0  0  0  0  0  0  0  0  0
  -20.7214    3.9262  -14.6363 N   0  0  0  0  0  0  0  0  0  0  0  0
  -21.8972    3.4037  -14.2825 C   0  0  0  0  0  0  0  0  0  0  0  0
  -22.1553    2.1047  -14.1325 N   0  0  0  0  0  0  0  0  0  0  0  0
  -21.1423    1.2472  -14.3906 C   0  0  0  0  0  0  0  0  0  0  0  0
  -17.7145    3.2193  -14.8769 H   0  0  0  0  0  0  0  0  0  0  0  0
  -18.5965    4.6547  -15.1901 H   0  0  0  0  0  0  0  0  0  0  0  0
  -17.6142    0.9807  -14.2372 N   0  0  0  0  0  0  0  0  0  0  0  0
  -18.7292    0.7564  -14.8620 C   0  0  0  0  0  0  0  0  0  0  0  0
  -15.3921    0.4549  -14.1586 C   0  0  0  0  0  0  0  0  0  0  0  0
  -16.6848   -0.0273  -14.5216 O   0  0  0  0  0  0  0  0  0  0  0  0
  -21.4157   -0.1213  -14.3197 O   0  0  0  0  0  0  0  0  0  0  0  0
  -22.6039   -0.4896  -13.7053 C   0  0  0  0  0  0  0  0  0  0  0  0
  -22.7069   -0.6184  -12.3161 C   0  0  0  0  0  0  0  0  0  0  0  0
  -23.8748   -1.0885  -11.7142 C   0  0  0  0  0  0  0  0  0  0  0  0
  -24.9637   -1.3577  -12.5450 C   0  0  0  0  0  0  0  0  0  0  0  0
  -26.2077   -1.8495  -12.2266 N   0  0  0  0  0  0  0  0  0  0  0  0
  -27.0010   -1.9119  -13.3432 C   0  0  0  0  0  0  0  0  0  0  0  0
  -28.4084   -2.3765  -13.2748 C   0  0  0  0  0  0  0  0  0  0  0  0
  -26.2337   -1.4828  -14.4107 C   0  0  0  0  0  0  0  0  0  0  0  0
  -24.9333   -1.1544  -13.9247 C   0  0  0  0  0  0  0  0  0  0  0  0
  -23.7284   -0.7065  -14.5191 C   0  0  0  0  0  0  0  0  0  0  0  0
  -26.4891   -2.1213  -11.2954 H   0  0  0  0  0  0  0  0  0  0  0  0
 12 13  1  0  0  0
 13 10  1  0  0  0
 10 11  2  0  0  0
 11  1  1  0  0  0
  1  2  1  0  0  0
  1  7  2  0  0  0
  2  3  1  0  0  0
  2  4  2  0  0  0
  3  8  1  0  0  0
  3  9  1  0  0  0
  4  5  1  0  0  0
  5  6  2  0  0  0
  6  7  1  0  0  0
  7 14  1  0  0  0
 14 15  1  0  0  0
 15 16  1  0  0  0
 15 24  2  0  0  0
 16 17  2  0  0  0
 17 18  1  0  0  0
 18 19  1  0  0  0
 18 23  2  0  0  0
 19 20  1  0  0  0
 19 25  1  0  0  0
 20 21  1  0  0  0
 20 22  2  0  0  0
 22 23  1  0  0  0
 23 24  1  0  0  0
M  END
> <minimizedAffinity>
-8.53241

$$$$
