CHEMBL190239


 24 25  0  0  0  0  0  0  0  0999 V2000
  -28.0193   -1.5009  -10.2437 C   0  0  0  0  0  0  0  0  0  0  0  0
  -28.1043   -2.0058   -8.8853 N   0  0  0  0  0  0  0  0  0  0  0  0
  -28.6574   -3.2048   -8.5191 C   0  0  0  0  0  0  0  0  0  0  0  0
  -28.4435   -3.2825   -7.1711 C   0  0  0  0  0  0  0  0  0  0  0  0
  -28.7885   -4.3133   -6.3057 C   0  0  0  0  0  0  0  0  0  0  0  0
  -29.3972   -5.5056   -6.6431 N   0  0  0  0  0  0  0  0  0  0  0  0
  -28.4332   -4.0707   -5.0204 N   0  0  0  0  0  0  0  0  0  0  0  0
  -27.7812   -2.8945   -4.7230 C   0  0  0  0  0  0  0  0  0  0  0  0
  -27.4033   -1.8583   -5.5204 N   0  0  0  0  0  0  0  0  0  0  0  0
  -27.7676   -2.0918   -6.8012 C   0  0  0  0  0  0  0  0  0  0  0  0
  -27.5516   -1.3112   -7.8658 N   0  0  0  0  0  0  0  0  0  0  0  0
  -29.9211   -5.5286   -7.5053 H   0  0  0  0  0  0  0  0  0  0  0  0
  -29.7699   -6.0066   -5.8473 H   0  0  0  0  0  0  0  0  0  0  0  0
  -26.6994   -1.8788  -10.9196 C   0  0  0  0  0  0  0  0  0  0  0  0
  -25.6127   -1.7751   -9.9904 O   0  0  0  0  0  0  0  0  0  0  0  0
  -25.4430   -0.8356   -9.8085 H   0  0  0  0  0  0  0  0  0  0  0  0
  -26.4185   -0.9504  -12.1094 C   0  0  0  0  0  0  0  0  0  0  0  0
  -26.5029   -1.7017  -13.4395 C   0  0  0  0  0  0  0  0  0  0  0  0
  -25.1875   -1.6192  -14.2133 C   0  0  0  0  0  0  0  0  0  0  0  0
  -24.1152   -0.9278  -13.3703 C   0  0  0  0  0  0  0  0  0  0  0  0
  -23.3867    0.1481  -14.1688 C   0  0  0  0  0  0  0  0  0  0  0  0
  -21.8842    0.1054  -13.8941 C   0  0  0  0  0  0  0  0  0  0  0  0
  -19.8598    0.8983  -15.1562 C   0  0  0  0  0  0  0  0  0  0  0  0
  -21.1745    1.3069  -14.5129 C   0  0  0  0  0  0  0  0  0  0  0  0
 23 24  1  0  0  0
 24 22  1  0  0  0
 22 21  1  0  0  0
 21 20  1  0  0  0
 20 19  1  0  0  0
 19 18  1  0  0  0
 18 17  1  0  0  0
 17 14  1  0  0  0
 14 15  1  0  0  0
 14  1  1  0  0  0
 15 16  1  0  0  0
  1  2  1  0  0  0
  2  3  1  0  0  0
  2 11  1  0  0  0
  3  4  2  0  0  0
  4  5  1  0  0  0
  4 10  1  0  0  0
  5  6  1  0  0  0
  5  7  2  0  0  0
  6 12  1  0  0  0
  6 13  1  0  0  0
  7  8  1  0  0  0
  8  9  2  0  0  0
  9 10  1  0  0  0
 10 11  2  0  0  0
M  END
> <minimizedAffinity>
-7.47009

$$$$
