CHEMBL526639


 24 27  0  0  0  0  0  0  0  0999 V2000
  -15.9857    3.0028  -16.9410 C   0  0  0  0  0  0  0  0  0  0  0  0
  -15.6854    1.8399  -16.0266 C   0  0  0  0  0  0  0  0  0  0  0  0
  -14.3875    1.2913  -16.1259 C   0  0  0  0  0  0  0  0  0  0  0  0
  -13.9626    0.2661  -15.2843 C   0  0  0  0  0  0  0  0  0  0  0  0
  -14.8445   -0.2498  -14.3401 C   0  0  0  0  0  0  0  0  0  0  0  0
  -16.1499    0.2624  -14.2584 C   0  0  0  0  0  0  0  0  0  0  0  0
  -16.6140    1.3106  -15.0891 C   0  0  0  0  0  0  0  0  0  0  0  0
  -18.0140    1.8087  -14.9081 C   0  0  0  0  0  0  0  0  0  0  0  0
  -18.3516    3.1650  -15.0421 C   0  0  0  0  0  0  0  0  0  0  0  0
  -19.6480    3.6386  -14.8038 C   0  0  0  0  0  0  0  0  0  0  0  0
  -20.6871    2.7558  -14.5031 C   0  0  0  0  0  0  0  0  0  0  0  0
  -21.9940    3.2009  -14.2828 C   0  0  0  0  0  0  0  0  0  0  0  0
  -22.9849    2.2630  -14.0432 C   0  0  0  0  0  0  0  0  0  0  0  0
  -22.7647    0.9349  -14.0072 N   0  0  0  0  0  0  0  0  0  0  0  0
  -21.4888    0.5271  -14.2022 C   0  0  0  0  0  0  0  0  0  0  0  0
  -20.4048    1.3796  -14.4398 C   0  0  0  0  0  0  0  0  0  0  0  0
  -19.0778    0.9280  -14.6169 C   0  0  0  0  0  0  0  0  0  0  0  0
  -14.4329   -1.2969  -13.3631 C   0  0  0  0  0  0  0  0  0  0  0  0
  -13.2528   -1.4015  -13.0474 O   0  0  0  0  0  0  0  0  0  0  0  0
  -15.4421   -2.0880  -12.8446 N   0  0  0  0  0  0  0  0  0  0  0  0
  -16.4068   -1.8375  -13.0156 H   0  0  0  0  0  0  0  0  0  0  0  0
  -15.1757   -3.0910  -11.8615 C   0  0  0  0  0  0  0  0  0  0  0  0
  -16.2638   -4.0204  -11.4006 C   0  0  0  0  0  0  0  0  0  0  0  0
  -15.7320   -2.9717  -10.4691 C   0  0  0  0  0  0  0  0  0  0  0  0
  1  2  1  0  0  0
  2  3  1  0  0  0
  2  7  2  0  0  0
  3  4  2  0  0  0
  4  5  1  0  0  0
  5 18  1  0  0  0
  5  6  2  0  0  0
 18 19  2  0  0  0
 18 20  1  0  0  0
 20 22  1  0  0  0
 20 21  1  0  0  0
 22 23  1  0  0  0
 22 24  1  0  0  0
 23 24  1  0  0  0
  6  7  1  0  0  0
  7  8  1  0  0  0
  8  9  1  0  0  0
  8 17  2  0  0  0
  9 10  2  0  0  0
 10 11  1  0  0  0
 11 12  1  0  0  0
 11 16  2  0  0  0
 12 13  2  0  0  0
 13 14  1  0  0  0
 14 15  2  0  0  0
 15 16  1  0  0  0
 16 17  1  0  0  0
M  END
> <minimizedAffinity>
-8.66816

$$$$
