CHEMBL1988387


 40 44  0  0  0  0  0  0  0  0999 V2000
  -15.0016    3.2413  -16.9203 C   0  0  0  0  0  0  0  0  0  0  0  0
  -16.1555    3.2416  -16.1458 C   0  0  0  0  0  0  0  0  0  0  0  0
  -16.4917    2.1391  -15.3663 C   0  0  0  0  0  0  0  0  0  0  0  0
  -15.7717    0.9468  -15.4513 C   0  0  0  0  0  0  0  0  0  0  0  0
  -14.6517    0.9033  -16.2807 C   0  0  0  0  0  0  0  0  0  0  0  0
  -14.2627    2.0468  -16.9990 C   0  0  0  0  0  0  0  0  0  0  0  0
  -12.7156    7.6417  -18.0651 C   0  0  0  0  0  0  0  0  0  0  0  0
  -11.9725    7.6763  -16.9009 C   0  0  0  0  0  0  0  0  0  0  0  0
  -11.9995    6.7401  -15.9460 N   0  0  0  0  0  0  0  0  0  0  0  0
  -12.7885    5.6578  -16.0829 C   0  0  0  0  0  0  0  0  0  0  0  0
  -12.6709    4.7591  -15.0346 N   0  0  0  0  0  0  0  0  0  0  0  0
  -13.6304    5.5075  -17.2337 C   0  0  0  0  0  0  0  0  0  0  0  0
  -14.5962    4.4621  -17.6304 C   0  0  0  0  0  0  0  0  0  0  0  0
  -15.1931    4.7487  -18.8400 C   0  0  0  0  0  0  0  0  0  0  0  0
  -14.6673    6.2034  -19.5101 S   0  0  0  0  0  0  0  0  0  0  0  0
  -13.5723    6.5253  -18.2105 C   0  0  0  0  0  0  0  0  0  0  0  0
  -11.8933    5.0320  -14.4432 H   0  0  0  0  0  0  0  0  0  0  0  0
  -12.6935    3.7858  -15.3045 H   0  0  0  0  0  0  0  0  0  0  0  0
  -13.3859   11.8909  -20.5433 C   0  0  0  0  0  0  0  0  0  0  0  0
  -12.9147   10.5923  -20.1295 N   0  0  0  0  0  0  0  0  0  0  0  0
  -13.2773    9.8980  -19.0109 C   0  0  0  0  0  0  0  0  0  0  0  0
  -12.6086    8.6894  -19.0648 C   0  0  0  0  0  0  0  0  0  0  0  0
  -11.8335    8.7919  -20.2448 C   0  0  0  0  0  0  0  0  0  0  0  0
  -12.0228    9.9430  -20.8944 N   0  0  0  0  0  0  0  0  0  0  0  0
  -16.1460   -0.2071  -14.7262 N   0  0  0  0  0  0  0  0  0  0  0  0
  -15.4738   -0.6462  -13.6006 C   0  0  0  0  0  0  0  0  0  0  0  0
  -14.5799   -0.0234  -13.0362 O   0  0  0  0  0  0  0  0  0  0  0  0
  -15.8973   -1.9033  -13.1895 N   0  0  0  0  0  0  0  0  0  0  0  0
  -17.0811   -0.5641  -14.8567 H   0  0  0  0  0  0  0  0  0  0  0  0
  -16.1332   -2.5187  -13.9553 H   0  0  0  0  0  0  0  0  0  0  0  0
  -15.2327   -2.4969  -12.0902 C   0  0  0  0  0  0  0  0  0  0  0  0
  -14.0125   -3.1622  -12.2693 C   0  0  0  0  0  0  0  0  0  0  0  0
  -13.4582   -3.9147  -11.2273 C   0  0  0  0  0  0  0  0  0  0  0  0
  -14.1199   -3.9940  -10.0045 C   0  0  0  0  0  0  0  0  0  0  0  0
  -15.3177   -3.2938   -9.8216 C   0  0  0  0  0  0  0  0  0  0  0  0
  -15.8605   -2.5175  -10.8487 C   0  0  0  0  0  0  0  0  0  0  0  0
  -13.7325   -4.7555   -8.9387 O   0  0  0  0  0  0  0  0  0  0  0  0
  -12.4820   -4.4240   -8.3624 C   0  0  0  0  0  0  0  0  0  0  0  0
  -12.4740   -3.1043   -8.0505 F   0  0  0  0  0  0  0  0  0  0  0  0
  -12.3911   -5.0991   -7.1878 F   0  0  0  0  0  0  0  0  0  0  0  0
 19 20  1  0  0  0
 20 21  1  0  0  0
 20 24  1  0  0  0
 21 22  2  0  0  0
 22  7  1  0  0  0
 22 23  1  0  0  0
  7  8  1  0  0  0
  7 16  2  0  0  0
  8  9  2  0  0  0
  9 10  1  0  0  0
 10 11  1  0  0  0
 10 12  2  0  0  0
 11 17  1  0  0  0
 11 18  1  0  0  0
 12 13  1  0  0  0
 12 16  1  0  0  0
 13  1  1  0  0  0
 13 14  2  0  0  0
  1  2  1  0  0  0
  1  6  2  0  0  0
  2  3  2  0  0  0
  3  4  1  0  0  0
  4 25  1  0  0  0
  4  5  2  0  0  0
 25 26  1  0  0  0
 25 29  1  0  0  0
 26 27  2  0  0  0
 26 28  1  0  0  0
 28 31  1  0  0  0
 28 30  1  0  0  0
 31 32  1  0  0  0
 31 36  2  0  0  0
 32 33  2  0  0  0
 33 34  1  0  0  0
 34 37  1  0  0  0
 34 35  2  0  0  0
 37 38  1  0  0  0
 38 39  1  0  0  0
 38 40  1  0  0  0
 35 36  1  0  0  0
  5  6  1  0  0  0
 14 15  1  0  0  0
 15 16  1  0  0  0
 23 24  2  0  0  0
M  END
> <minimizedAffinity>
-7.60510

$$$$
