CHEMBL1992473


 49 55  0  0  0  0  0  0  0  0999 V2000
  -28.1803   -3.4338   -6.6349 C   0  0  0  0  0  0  0  0  0  0  0  0
  -28.0670   -3.0900   -5.2911 N   0  0  0  0  0  0  0  0  0  0  0  0
  -27.9717   -1.7953   -5.3119 C   0  0  0  0  0  0  0  0  0  0  0  0
  -28.0006   -0.5609   -4.0915 S   0  0  0  0  0  0  0  0  0  0  0  0
  -27.9777    0.6544   -5.3754 C   0  0  0  0  0  0  0  0  0  0  0  0
  -27.9383    0.1165   -6.6061 C   0  0  0  0  0  0  0  0  0  0  0  0
  -27.9415   -1.2658   -6.5635 N   0  0  0  0  0  0  0  0  0  0  0  0
  -27.9573   -2.3101   -7.4636 C   0  0  0  0  0  0  0  0  0  0  0  0
  -29.0333   -5.8429   -6.2358 C   0  0  0  0  0  0  0  0  0  0  0  0
  -28.9840   -7.1798   -6.7644 C   0  0  0  0  0  0  0  0  0  0  0  0
  -28.4582   -7.4705   -8.0335 C   0  0  0  0  0  0  0  0  0  0  0  0
  -27.9212   -6.4730   -8.8187 C   0  0  0  0  0  0  0  0  0  0  0  0
  -27.8533   -5.1851   -8.3086 C   0  0  0  0  0  0  0  0  0  0  0  0
  -28.4018   -4.8323   -7.0465 C   0  0  0  0  0  0  0  0  0  0  0  0
  -29.5556   -8.2657   -6.0549 N   0  0  0  0  0  0  0  0  0  0  0  0
  -28.9210   -9.5001   -5.9541 C   0  0  0  0  0  0  0  0  0  0  0  0
  -27.8662   -9.7698   -6.5228 O   0  0  0  0  0  0  0  0  0  0  0  0
  -30.2660   -8.0044   -5.3816 H   0  0  0  0  0  0  0  0  0  0  0  0
  -29.5352  -10.5211   -5.0638 C   0  0  0  0  0  0  0  0  0  0  0  0
  -29.1364  -10.7053   -3.7404 C   0  0  0  0  0  0  0  0  0  0  0  0
  -28.1444   -9.9769   -3.2081 F   0  0  0  0  0  0  0  0  0  0  0  0
  -29.7451  -11.6597   -2.9234 C   0  0  0  0  0  0  0  0  0  0  0  0
  -30.7718  -12.4578   -3.4191 C   0  0  0  0  0  0  0  0  0  0  0  0
  -31.1829  -12.2935   -4.7372 C   0  0  0  0  0  0  0  0  0  0  0  0
  -30.5681  -11.3331   -5.5488 C   0  0  0  0  0  0  0  0  0  0  0  0
  -30.9992  -11.2511   -6.8169 F   0  0  0  0  0  0  0  0  0  0  0  0
  -31.1824   -5.6488   -5.0281 C   0  0  0  0  0  0  0  0  0  0  0  0
  -29.7110   -5.6355   -5.0017 N   0  0  0  0  0  0  0  0  0  0  0  0
  -29.1549   -6.1485   -3.7528 C   0  0  0  0  0  0  0  0  0  0  0  0
  -27.7914   -2.1288   -8.9051 C   0  0  0  0  0  0  0  0  0  0  0  0
  -28.8601   -2.1874   -9.7798 C   0  0  0  0  0  0  0  0  0  0  0  0
  -28.5729   -1.9313  -11.0931 C   0  0  0  0  0  0  0  0  0  0  0  0
  -27.3539   -1.5840  -11.5193 N   0  0  0  0  0  0  0  0  0  0  0  0
  -26.3735   -1.5216  -10.6004 C   0  0  0  0  0  0  0  0  0  0  0  0
  -26.5427   -1.8365   -9.3088 N   0  0  0  0  0  0  0  0  0  0  0  0
  -25.1039   -1.1190  -10.9964 N   0  0  0  0  0  0  0  0  0  0  0  0
  -24.5565   -0.7801  -10.2195 H   0  0  0  0  0  0  0  0  0  0  0  0
  -24.6496   -0.8020  -12.2845 C   0  0  0  0  0  0  0  0  0  0  0  0
  -25.1291   -1.4434  -13.4289 C   0  0  0  0  0  0  0  0  0  0  0  0
  -24.5901   -1.1587  -14.6784 C   0  0  0  0  0  0  0  0  0  0  0  0
  -23.5480   -0.2381  -14.7911 C   0  0  0  0  0  0  0  0  0  0  0  0
  -23.0295    0.4321  -13.6739 C   0  0  0  0  0  0  0  0  0  0  0  0
  -23.6149    0.1350  -12.4311 C   0  0  0  0  0  0  0  0  0  0  0  0
  -22.0044    1.3447  -13.7923 N   0  0  0  0  0  0  0  0  0  0  0  0
  -22.2352    2.7884  -13.9347 C   0  0  0  0  0  0  0  0  0  0  0  0
  -21.3855    3.3156  -15.1047 C   0  0  0  0  0  0  0  0  0  0  0  0
  -19.9924    2.9924  -14.9507 O   0  0  0  0  0  0  0  0  0  0  0  0
  -19.8176    1.5662  -14.8648 C   0  0  0  0  0  0  0  0  0  0  0  0
  -20.5850    0.9824  -13.6705 C   0  0  0  0  0  0  0  0  0  0  0  0
 27 28  1  0  0  0
 28 29  1  0  0  0
 28  9  1  0  0  0
  9 10  1  0  0  0
  9 14  2  0  0  0
 10 15  1  0  0  0
 10 11  2  0  0  0
 15 16  1  0  0  0
 15 18  1  0  0  0
 16 17  2  0  0  0
 16 19  1  0  0  0
 19 20  1  0  0  0
 19 25  2  0  0  0
 20 21  1  0  0  0
 20 22  2  0  0  0
 22 23  1  0  0  0
 23 24  2  0  0  0
 24 25  1  0  0  0
 25 26  1  0  0  0
 11 12  1  0  0  0
 12 13  2  0  0  0
 13 14  1  0  0  0
 14  1  1  0  0  0
  1  2  1  0  0  0
  1  8  2  0  0  0
  2  3  2  0  0  0
  3  4  1  0  0  0
  3  7  1  0  0  0
  4  5  1  0  0  0
  5  6  2  0  0  0
  6  7  1  0  0  0
  7  8  1  0  0  0
  8 30  1  0  0  0
 30 31  1  0  0  0
 30 35  2  0  0  0
 31 32  2  0  0  0
 32 33  1  0  0  0
 33 34  2  0  0  0
 34 36  1  0  0  0
 34 35  1  0  0  0
 36 38  1  0  0  0
 36 37  1  0  0  0
 38 39  1  0  0  0
 38 43  2  0  0  0
 39 40  2  0  0  0
 40 41  1  0  0  0
 41 42  2  0  0  0
 42 44  1  0  0  0
 42 43  1  0  0  0
 44 45  1  0  0  0
 44 49  1  0  0  0
 45 46  1  0  0  0
 46 47  1  0  0  0
 47 48  1  0  0  0
 48 49  1  0  0  0
M  END
> <minimizedAffinity>
-7.90968

$$$$
