CHEMBL1986851


 41 45  0  0  0  0  0  0  0  0999 V2000
  -27.6318   -2.6066   -8.8513 C   0  0  0  0  0  0  0  0  0  0  0  0
  -27.9564   -3.9462   -8.9137 C   0  0  0  0  0  0  0  0  0  0  0  0
  -28.8765   -4.4721   -7.6039 S   0  0  0  0  0  0  0  0  0  0  0  0
  -28.7870   -2.9438   -6.8002 C   0  0  0  0  0  0  0  0  0  0  0  0
  -29.3257   -2.6078   -5.5368 C   0  0  0  0  0  0  0  0  0  0  0  0
  -29.1442   -1.2930   -5.1468 C   0  0  0  0  0  0  0  0  0  0  0  0
  -28.5218   -0.3544   -5.8762 N   0  0  0  0  0  0  0  0  0  0  0  0
  -28.0109   -0.6662   -7.0822 C   0  0  0  0  0  0  0  0  0  0  0  0
  -27.4325    0.4188   -7.7248 N   0  0  0  0  0  0  0  0  0  0  0  0
  -28.1069   -1.9937   -7.5976 C   0  0  0  0  0  0  0  0  0  0  0  0
  -27.6615    1.2657   -7.2142 H   0  0  0  0  0  0  0  0  0  0  0  0
  -27.6115    0.4564   -8.7185 H   0  0  0  0  0  0  0  0  0  0  0  0
  -25.5513   -0.9715  -12.2365 C   0  0  0  0  0  0  0  0  0  0  0  0
  -26.8924   -0.6546  -12.0086 C   0  0  0  0  0  0  0  0  0  0  0  0
  -27.5503   -1.1297  -10.8706 C   0  0  0  0  0  0  0  0  0  0  0  0
  -26.9156   -2.0088   -9.9892 C   0  0  0  0  0  0  0  0  0  0  0  0
  -25.5626   -2.3146  -10.2191 C   0  0  0  0  0  0  0  0  0  0  0  0
  -24.8974   -1.7993  -11.3302 C   0  0  0  0  0  0  0  0  0  0  0  0
  -23.5932   -2.0677  -11.4938 F   0  0  0  0  0  0  0  0  0  0  0  0
  -23.1394    0.7809  -14.2991 N   0  0  0  0  0  0  0  0  0  0  0  0
  -23.7206    0.3561  -13.1199 C   0  0  0  0  0  0  0  0  0  0  0  0
  -23.3019    0.6223  -11.9924 O   0  0  0  0  0  0  0  0  0  0  0  0
  -24.8288   -0.4440  -13.3347 N   0  0  0  0  0  0  0  0  0  0  0  0
  -23.6970    0.6957  -15.1368 H   0  0  0  0  0  0  0  0  0  0  0  0
  -24.7744   -1.0461  -14.1470 H   0  0  0  0  0  0  0  0  0  0  0  0
  -18.2630    0.5953  -15.1357 C   0  0  0  0  0  0  0  0  0  0  0  0
  -19.4994    1.3764  -14.8075 C   0  0  0  0  0  0  0  0  0  0  0  0
  -19.4119    2.7564  -14.5955 C   0  0  0  0  0  0  0  0  0  0  0  0
  -20.5491    3.4886  -14.2879 C   0  0  0  0  0  0  0  0  0  0  0  0
  -21.7845    2.8467  -14.1876 C   0  0  0  0  0  0  0  0  0  0  0  0
  -21.9056    1.4694  -14.4048 C   0  0  0  0  0  0  0  0  0  0  0  0
  -20.7517    0.7388  -14.7118 C   0  0  0  0  0  0  0  0  0  0  0  0
  -30.0146   -3.5621   -4.6868 C   0  0  0  0  0  0  0  0  0  0  0  0
  -31.2730   -3.5201   -4.0412 C   0  0  0  0  0  0  0  0  0  0  0  0
  -31.5532   -4.6402   -3.3699 N   0  0  0  0  0  0  0  0  0  0  0  0
  -30.4821   -5.4191   -3.5957 N   0  0  0  0  0  0  0  0  0  0  0  0
  -29.5311   -4.8177   -4.3709 C   0  0  0  0  0  0  0  0  0  0  0  0
  -30.4598   -6.7788   -3.0885 C   0  0  0  0  0  0  0  0  0  0  0  0
  -29.3167   -7.5961   -3.6789 C   0  0  0  0  0  0  0  0  0  0  0  0
  -28.6154   -8.3171   -2.6660 O   0  0  0  0  0  0  0  0  0  0  0  0
  -28.0447   -7.6689   -2.2146 H   0  0  0  0  0  0  0  0  0  0  0  0
 26 27  1  0  0  0
 27 28  1  0  0  0
 27 32  2  0  0  0
 28 29  2  0  0  0
 29 30  1  0  0  0
 30 31  2  0  0  0
 31 20  1  0  0  0
 31 32  1  0  0  0
 20 21  1  0  0  0
 20 24  1  0  0  0
 21 22  2  0  0  0
 21 23  1  0  0  0
 23 13  1  0  0  0
 23 25  1  0  0  0
 13 14  1  0  0  0
 13 18  2  0  0  0
 14 15  2  0  0  0
 15 16  1  0  0  0
 16  1  1  0  0  0
 16 17  2  0  0  0
  1  2  2  0  0  0
  1 10  1  0  0  0
  2  3  1  0  0  0
  3  4  1  0  0  0
  4  5  1  0  0  0
  4 10  2  0  0  0
  5 33  1  0  0  0
  5  6  2  0  0  0
 33 34  1  0  0  0
 33 37  2  0  0  0
 34 35  2  0  0  0
 35 36  1  0  0  0
 36 38  1  0  0  0
 36 37  1  0  0  0
 38 39  1  0  0  0
 39 40  1  0  0  0
 40 41  1  0  0  0
  6  7  1  0  0  0
  7  8  2  0  0  0
  8  9  1  0  0  0
  8 10  1  0  0  0
  9 11  1  0  0  0
  9 12  1  0  0  0
 17 18  1  0  0  0
 18 19  1  0  0  0
M  END
> <minimizedAffinity>
-8.59147

$$$$
