CHEMBL3923808


 35 39  0  0  0  0  0  0  0  0999 V2000
  -15.2200    0.0520  -14.2112 N   0  0  0  0  0  0  0  0  0  0  0  0
  -15.1437   -1.2338  -13.5709 C   0  0  0  0  0  0  0  0  0  0  0  0
  -15.8964   -1.3649  -12.4005 C   0  0  0  0  0  0  0  0  0  0  0  0
  -15.5448   -2.2897  -11.4420 C   0  0  0  0  0  0  0  0  0  0  0  0
  -14.5386   -3.1964  -11.6624 C   0  0  0  0  0  0  0  0  0  0  0  0
  -14.1756   -3.8878  -10.5764 N   0  0  0  0  0  0  0  0  0  0  0  0
  -13.2975   -4.8774  -10.7698 C   0  0  0  0  0  0  0  0  0  0  0  0
  -12.8625   -5.2322  -12.0293 C   0  0  0  0  0  0  0  0  0  0  0  0
  -13.1446   -4.4644  -13.1327 N   0  0  0  0  0  0  0  0  0  0  0  0
  -13.9569   -3.3545  -12.9440 C   0  0  0  0  0  0  0  0  0  0  0  0
  -14.2471   -2.2941  -13.8784 C   0  0  0  0  0  0  0  0  0  0  0  0
  -12.2384   -6.5399  -12.1461 C   0  0  0  0  0  0  0  0  0  0  0  0
  -10.9165   -6.8745  -12.5362 C   0  0  0  0  0  0  0  0  0  0  0  0
  -10.7610   -8.1833  -12.7747 N   0  0  0  0  0  0  0  0  0  0  0  0
  -11.9824   -8.6897  -12.5349 N   0  0  0  0  0  0  0  0  0  0  0  0
  -12.1747  -10.1159  -12.4223 C   0  0  0  0  0  0  0  0  0  0  0  0
  -12.9281   -7.7281  -12.3117 C   0  0  0  0  0  0  0  0  0  0  0  0
  -17.2605    2.9261  -15.5383 C   0  0  0  0  0  0  0  0  0  0  0  0
  -18.4995    2.3273  -15.6983 C   0  0  0  0  0  0  0  0  0  0  0  0
  -18.6876    1.0127  -15.2620 C   0  0  0  0  0  0  0  0  0  0  0  0
  -17.6150    0.2779  -14.7259 C   0  0  0  0  0  0  0  0  0  0  0  0
  -16.3302    0.8185  -14.6442 C   0  0  0  0  0  0  0  0  0  0  0  0
  -16.2199    2.1904  -14.9701 C   0  0  0  0  0  0  0  0  0  0  0  0
  -15.6461    4.4038  -16.4519 C   0  0  0  0  0  0  0  0  0  0  0  0
  -16.9385    4.2115  -15.8864 O   0  0  0  0  0  0  0  0  0  0  0  0
  -19.8830    0.3431  -15.3038 O   0  0  0  0  0  0  0  0  0  0  0  0
  -21.0250    1.0619  -14.8460 C   0  0  0  0  0  0  0  0  0  0  0  0
  -13.9095    0.3607  -14.8883 C   0  0  0  0  0  0  0  0  0  0  0  0
  -13.0333    1.3216  -14.0689 C   0  0  0  0  0  0  0  0  0  0  0  0
  -12.8054    1.1451  -12.8740 O   0  0  0  0  0  0  0  0  0  0  0  0
  -12.6175    2.4964  -14.6762 N   0  0  0  0  0  0  0  0  0  0  0  0
  -12.0382    3.5468  -13.8657 C   0  0  0  0  0  0  0  0  0  0  0  0
  -11.9912    4.7388  -14.8013 C   0  0  0  0  0  0  0  0  0  0  0  0
  -11.6859    4.1034  -16.1523 C   0  0  0  0  0  0  0  0  0  0  0  0
  -12.3428    2.7209  -16.0834 C   0  0  0  0  0  0  0  0  0  0  0  0
 24 25  1  0  0  0
 25 18  1  0  0  0
 18 19  1  0  0  0
 18 23  2  0  0  0
 19 20  2  0  0  0
 20 26  1  0  0  0
 20 21  1  0  0  0
 26 27  1  0  0  0
 21 22  2  0  0  0
 22  1  1  0  0  0
 22 23  1  0  0  0
  1 28  1  0  0  0
  1  2  1  0  0  0
 28 29  1  0  0  0
 29 30  2  0  0  0
 29 31  1  0  0  0
 31 32  1  0  0  0
 31 35  1  0  0  0
 32 33  1  0  0  0
 33 34  1  0  0  0
 34 35  1  0  0  0
  2  3  1  0  0  0
  2 11  2  0  0  0
  3  4  2  0  0  0
  4  5  1  0  0  0
  5  6  1  0  0  0
  5 10  2  0  0  0
  6  7  2  0  0  0
  7  8  1  0  0  0
  8 12  1  0  0  0
  8  9  2  0  0  0
 12 13  1  0  0  0
 12 17  2  0  0  0
 13 14  2  0  0  0
 14 15  1  0  0  0
 15 16  1  0  0  0
 15 17  1  0  0  0
  9 10  1  0  0  0
 10 11  1  0  0  0
M  END
> <minimizedAffinity>
-7.61573

$$$$
