CHEMBL1290136


 29 32  0  0  0  0  0  0  0  0999 V2000
  -19.4599    2.0109  -14.5996 C   0  0  0  0  0  0  0  0  0  0  0  0
  -19.9768    3.2742  -14.3844 C   0  0  0  0  0  0  0  0  0  0  0  0
  -21.6830    3.1708  -14.1654 S   0  0  0  0  0  0  0  0  0  0  0  0
  -21.5776    1.4743  -14.3132 C   0  0  0  0  0  0  0  0  0  0  0  0
  -20.3931    0.9919  -14.5701 N   0  0  0  0  0  0  0  0  0  0  0  0
  -12.8894    1.5663  -13.3353 C   0  0  0  0  0  0  0  0  0  0  0  0
  -13.3062    0.4334  -14.2757 C   0  0  0  0  0  0  0  0  0  0  0  0
  -13.9901    0.9767  -15.4090 O   0  0  0  0  0  0  0  0  0  0  0  0
  -15.3316    1.1703  -15.2045 C   0  0  0  0  0  0  0  0  0  0  0  0
  -15.9961    1.9957  -16.1087 C   0  0  0  0  0  0  0  0  0  0  0  0
  -17.3605    2.2598  -15.9420 C   0  0  0  0  0  0  0  0  0  0  0  0
  -18.0622    1.7022  -14.8636 C   0  0  0  0  0  0  0  0  0  0  0  0
  -17.3911    0.8412  -13.9812 C   0  0  0  0  0  0  0  0  0  0  0  0
  -16.0413    0.5630  -14.1660 C   0  0  0  0  0  0  0  0  0  0  0  0
  -15.4086   -0.3676  -13.3399 N   0  0  0  0  0  0  0  0  0  0  0  0
  -14.0667   -0.6190  -13.4635 C   0  0  0  0  0  0  0  0  0  0  0  0
  -13.5236   -1.5490  -12.8720 O   0  0  0  0  0  0  0  0  0  0  0  0
  -15.9392   -0.9462  -12.7023 H   0  0  0  0  0  0  0  0  0  0  0  0
  -22.7578    0.8014  -14.1496 N   0  0  0  0  0  0  0  0  0  0  0  0
  -22.9867    0.0377  -13.0253 C   0  0  0  0  0  0  0  0  0  0  0  0
  -22.2421   -0.1028  -12.0624 O   0  0  0  0  0  0  0  0  0  0  0  0
  -23.4863    0.9922  -14.8185 H   0  0  0  0  0  0  0  0  0  0  0  0
  -24.3136   -0.6338  -12.9646 C   0  0  0  0  0  0  0  0  0  0  0  0
  -24.9539   -1.1168  -14.1137 C   0  0  0  0  0  0  0  0  0  0  0  0
  -26.1810   -1.7756  -13.9990 C   0  0  0  0  0  0  0  0  0  0  0  0
  -26.7644   -1.9543  -12.7421 C   0  0  0  0  0  0  0  0  0  0  0  0
  -26.1210   -1.4814  -11.6028 C   0  0  0  0  0  0  0  0  0  0  0  0
  -26.8415   -1.7095  -10.0556 Cl  0  0  0  0  0  0  0  0  0  0  0  0
  -24.8970   -0.8233  -11.7054 C   0  0  0  0  0  0  0  0  0  0  0  0
  7  8  1  0  0  0
  7 16  1  0  0  0
  7  6  1  0  0  0
  8  9  1  0  0  0
  9 10  1  0  0  0
  9 14  2  0  0  0
 10 11  2  0  0  0
 11 12  1  0  0  0
 12  1  1  0  0  0
 12 13  2  0  0  0
  1  2  2  0  0  0
  1  5  1  0  0  0
  2  3  1  0  0  0
  3  4  1  0  0  0
  4 19  1  0  0  0
  4  5  2  0  0  0
 19 20  1  0  0  0
 19 22  1  0  0  0
 20 21  2  0  0  0
 20 23  1  0  0  0
 23 24  1  0  0  0
 23 29  2  0  0  0
 24 25  2  0  0  0
 25 26  1  0  0  0
 26 27  2  0  0  0
 27 28  1  0  0  0
 27 29  1  0  0  0
 13 14  1  0  0  0
 14 15  1  0  0  0
 15 16  1  0  0  0
 15 18  1  0  0  0
 16 17  2  0  0  0
M  END
> <minimizedAffinity>
-9.89653

$$$$
