CHEMBL3125887


 40 44  0  0  0  0  0  0  0  0999 V2000
  -12.3779   -3.5540  -15.6074 C   0  0  0  0  0  0  0  0  0  0  0  0
  -13.1365   -4.1708  -16.6095 C   0  0  0  0  0  0  0  0  0  0  0  0
  -13.6596   -5.4201  -16.3846 C   0  0  0  0  0  0  0  0  0  0  0  0
  -13.3190   -6.0800  -15.2151 C   0  0  0  0  0  0  0  0  0  0  0  0
  -12.4148   -5.5781  -14.2838 C   0  0  0  0  0  0  0  0  0  0  0  0
  -11.9810   -4.2657  -14.4627 C   0  0  0  0  0  0  0  0  0  0  0  0
  -11.9400   -6.3108  -13.1768 N   0  0  0  0  0  0  0  0  0  0  0  0
  -12.5823   -6.9031  -12.1159 C   0  0  0  0  0  0  0  0  0  0  0  0
  -11.8839   -7.4812  -11.2721 O   0  0  0  0  0  0  0  0  0  0  0  0
  -10.9451   -6.5205  -13.1608 H   0  0  0  0  0  0  0  0  0  0  0  0
  -14.1019   -6.8861  -11.9695 C   0  0  0  0  0  0  0  0  0  0  0  0
  -14.6660   -5.6629  -11.2459 C   0  0  0  0  0  0  0  0  0  0  0  0
  -13.9176   -5.1036  -10.1868 C   0  0  0  0  0  0  0  0  0  0  0  0
  -14.2460   -3.8675   -9.6344 C   0  0  0  0  0  0  0  0  0  0  0  0
  -15.3721   -3.1890  -10.0738 C   0  0  0  0  0  0  0  0  0  0  0  0
  -16.1628   -3.7423  -11.0780 C   0  0  0  0  0  0  0  0  0  0  0  0
  -15.8229   -4.9675  -11.6975 C   0  0  0  0  0  0  0  0  0  0  0  0
  -16.6628   -5.3391  -12.9100 C   0  0  0  0  0  0  0  0  0  0  0  0
  -16.1369   -6.2919  -13.7228 F   0  0  0  0  0  0  0  0  0  0  0  0
  -17.9039   -5.7841  -12.5726 F   0  0  0  0  0  0  0  0  0  0  0  0
  -16.8691   -4.2555  -13.7187 F   0  0  0  0  0  0  0  0  0  0  0  0
  -11.9743   -2.2396  -15.6930 O   0  0  0  0  0  0  0  0  0  0  0  0
  -13.7281   -0.8698  -14.8474 C   0  0  0  0  0  0  0  0  0  0  0  0
  -12.9451   -1.2832  -15.9344 C   0  0  0  0  0  0  0  0  0  0  0  0
  -13.1571   -0.7483  -17.2102 C   0  0  0  0  0  0  0  0  0  0  0  0
  -14.1056    0.2558  -17.4080 C   0  0  0  0  0  0  0  0  0  0  0  0
  -14.9119    0.6759  -16.3340 C   0  0  0  0  0  0  0  0  0  0  0  0
  -15.9391    1.5950  -16.4220 N   0  0  0  0  0  0  0  0  0  0  0  0
  -16.5133    1.7077  -15.2586 C   0  0  0  0  0  0  0  0  0  0  0  0
  -15.8211    0.8427  -13.9677 S   0  0  0  0  0  0  0  0  0  0  0  0
  -14.7063    0.1136  -15.0665 C   0  0  0  0  0  0  0  0  0  0  0  0
  -17.6235    2.3987  -14.8899 N   0  0  0  0  0  0  0  0  0  0  0  0
  -18.8748    1.8522  -14.8031 C   0  0  0  0  0  0  0  0  0  0  0  0
  -19.2487    0.7176  -15.0508 O   0  0  0  0  0  0  0  0  0  0  0  0
  -17.4850    3.3586  -14.6130 H   0  0  0  0  0  0  0  0  0  0  0  0
  -19.8371    2.8779  -14.2644 C   0  0  0  0  0  0  0  0  0  0  0  0
  -20.7457    3.1229  -15.5493 C   0  0  0  0  0  0  0  0  0  0  0  0
  -21.2928    3.3313  -14.2440 C   0  0  0  0  0  0  0  0  0  0  0  0
  -13.4100   -1.8233  -12.4612 N   0  0  0  0  0  0  0  0  0  0  0  0
  -13.5489   -1.3971  -13.5333 C   0  0  0  0  0  0  0  0  0  0  0  0
 39 40  3  0  0  0
 40 23  1  0  0  0
 23 24  1  0  0  0
 23 31  2  0  0  0
 24 22  1  0  0  0
 24 25  2  0  0  0
 22  1  1  0  0  0
  1  2  1  0  0  0
  1  6  2  0  0  0
  2  3  2  0  0  0
  3  4  1  0  0  0
  4  5  2  0  0  0
  5  7  1  0  0  0
  5  6  1  0  0  0
  7  8  1  0  0  0
  7 10  1  0  0  0
  8  9  2  0  0  0
  8 11  1  0  0  0
 11 12  1  0  0  0
 12 13  1  0  0  0
 12 17  2  0  0  0
 13 14  2  0  0  0
 14 15  1  0  0  0
 15 16  2  0  0  0
 16 17  1  0  0  0
 17 18  1  0  0  0
 18 19  1  0  0  0
 18 20  1  0  0  0
 18 21  1  0  0  0
 25 26  1  0  0  0
 26 27  2  0  0  0
 27 28  1  0  0  0
 27 31  1  0  0  0
 28 29  2  0  0  0
 29 32  1  0  0  0
 29 30  1  0  0  0
 32 33  1  0  0  0
 32 35  1  0  0  0
 33 34  2  0  0  0
 33 36  1  0  0  0
 36 37  1  0  0  0
 36 38  1  0  0  0
 37 38  1  0  0  0
 30 31  1  0  0  0
M  END
> <minimizedAffinity>
-8.57133

$$$$
