CHEMBL149742


 37 42  0  0  0  0  0  0  0  0999 V2000
  -29.9146   -8.9303   -8.2198 C   0  0  0  0  0  0  0  0  0  0  0  0
  -30.5909   -9.2389   -7.0463 C   0  0  0  0  0  0  0  0  0  0  0  0
  -30.5493   -8.3844   -5.9524 C   0  0  0  0  0  0  0  0  0  0  0  0
  -29.8054   -7.2082   -6.0664 C   0  0  0  0  0  0  0  0  0  0  0  0
  -29.1592   -6.8891   -7.2752 C   0  0  0  0  0  0  0  0  0  0  0  0
  -29.2157   -7.7349   -8.3726 C   0  0  0  0  0  0  0  0  0  0  0  0
  -28.6262   -5.6634   -6.9999 C   0  0  0  0  0  0  0  0  0  0  0  0
  -28.4224   -4.6360   -7.9558 C   0  0  0  0  0  0  0  0  0  0  0  0
  -28.5853   -3.2696   -7.4415 C   0  0  0  0  0  0  0  0  0  0  0  0
  -28.8267   -3.1096   -6.0603 C   0  0  0  0  0  0  0  0  0  0  0  0
  -28.1065   -4.1132   -5.3824 C   0  0  0  0  0  0  0  0  0  0  0  0
  -28.5653   -5.3604   -5.6688 C   0  0  0  0  0  0  0  0  0  0  0  0
  -29.6453   -6.1205   -5.1871 N   0  0  0  0  0  0  0  0  0  0  0  0
  -27.3767   -3.5119   -4.2699 C   0  0  0  0  0  0  0  0  0  0  0  0
  -28.5269   -2.7023   -3.7603 C   0  0  0  0  0  0  0  0  0  0  0  0
  -28.9318   -2.8878   -2.4363 C   0  0  0  0  0  0  0  0  0  0  0  0
  -30.2761   -2.7680   -2.1626 C   0  0  0  0  0  0  0  0  0  0  0  0
  -31.1561   -2.3913   -3.1969 C   0  0  0  0  0  0  0  0  0  0  0  0
  -30.7207   -2.1847   -4.5490 C   0  0  0  0  0  0  0  0  0  0  0  0
  -29.3735   -2.3559   -4.8879 C   0  0  0  0  0  0  0  0  0  0  0  0
  -27.7544   -2.4402   -8.3267 C   0  0  0  0  0  0  0  0  0  0  0  0
  -27.4053   -1.2755   -8.2583 O   0  0  0  0  0  0  0  0  0  0  0  0
  -27.2397   -3.3355   -9.2830 N   0  0  0  0  0  0  0  0  0  0  0  0
  -27.6178   -4.7306   -9.1638 C   0  0  0  0  0  0  0  0  0  0  0  0
  -26.3662   -3.0738   -9.7165 H   0  0  0  0  0  0  0  0  0  0  0  0
  -29.7829   -9.9634   -9.3124 C   0  0  0  0  0  0  0  0  0  0  0  0
  -28.7915  -10.8716   -8.8453 O   0  0  0  0  0  0  0  0  0  0  0  0
  -27.7979  -11.2132   -9.8052 C   0  0  0  0  0  0  0  0  0  0  0  0
  -27.0892   -9.5194  -11.5907 C   0  0  0  0  0  0  0  0  0  0  0  0
  -28.1742  -10.4582  -11.0927 C   0  0  0  0  0  0  0  0  0  0  0  0
  -26.3908  -10.8912   -9.2809 C   0  0  0  0  0  0  0  0  0  0  0  0
  -26.3857  -10.3001   -7.8778 C   0  0  0  0  0  0  0  0  0  0  0  0
  -30.7677   -5.5716   -4.4072 C   0  0  0  0  0  0  0  0  0  0  0  0
  -31.1313   -6.1681   -3.0427 C   0  0  0  0  0  0  0  0  0  0  0  0
  -32.4025   -5.5744   -2.4346 C   0  0  0  0  0  0  0  0  0  0  0  0
  -32.4983   -5.9594   -1.0649 O   0  0  0  0  0  0  0  0  0  0  0  0
  -32.6052   -6.9260   -1.0301 H   0  0  0  0  0  0  0  0  0  0  0  0
 29 30  1  0  0  0
 30 28  1  0  0  0
 28 31  1  0  0  0
 28 27  1  0  0  0
 31 32  1  0  0  0
 27 26  1  0  0  0
 26  1  1  0  0  0
  1  2  1  0  0  0
  1  6  2  0  0  0
  2  3  2  0  0  0
  3  4  1  0  0  0
  4  5  2  0  0  0
  4 13  1  0  0  0
  5  6  1  0  0  0
  5  7  1  0  0  0
  7  8  1  0  0  0
  7 12  2  0  0  0
  8  9  2  0  0  0
  8 24  1  0  0  0
  9 10  1  0  0  0
  9 21  1  0  0  0
 10 11  2  0  0  0
 10 20  1  0  0  0
 11 12  1  0  0  0
 11 14  1  0  0  0
 12 13  1  0  0  0
 13 33  1  0  0  0
 33 34  1  0  0  0
 34 35  1  0  0  0
 35 36  1  0  0  0
 36 37  1  0  0  0
 14 15  1  0  0  0
 15 16  1  0  0  0
 15 20  2  0  0  0
 16 17  2  0  0  0
 17 18  1  0  0  0
 18 19  2  0  0  0
 19 20  1  0  0  0
 21 22  2  0  0  0
 21 23  1  0  0  0
 23 24  1  0  0  0
 23 25  1  0  0  0
M  END
> <minimizedAffinity>
-6.67958

$$$$
