CHEMBL3752370


 29 31  0  0  0  0  0  0  0  0999 V2000
  -29.2456   -6.3414   -5.4877 C   0  0  0  0  0  0  0  0  0  0  0  0
  -28.7620   -6.9778   -6.6475 C   0  0  0  0  0  0  0  0  0  0  0  0
  -29.5519   -7.8692   -7.3966 C   0  0  0  0  0  0  0  0  0  0  0  0
  -30.8706   -8.0692   -6.9621 C   0  0  0  0  0  0  0  0  0  0  0  0
  -31.3663   -7.4211   -5.8232 C   0  0  0  0  0  0  0  0  0  0  0  0
  -30.5645   -6.5523   -5.0777 C   0  0  0  0  0  0  0  0  0  0  0  0
  -27.0918   -3.8696   -4.0994 O   0  0  0  0  0  0  0  0  0  0  0  0
  -27.9858   -4.2860   -4.8242 C   0  0  0  0  0  0  0  0  0  0  0  0
  -28.7694   -3.5307   -5.6698 N   0  0  0  0  0  0  0  0  0  0  0  0
  -28.3377   -5.6144   -4.7093 N   0  0  0  0  0  0  0  0  0  0  0  0
  -29.6106   -3.9773   -6.0030 H   0  0  0  0  0  0  0  0  0  0  0  0
  -28.0197   -6.0099   -3.8312 H   0  0  0  0  0  0  0  0  0  0  0  0
  -28.7173   -2.1251   -5.8346 C   0  0  0  0  0  0  0  0  0  0  0  0
  -29.4757   -1.2403   -5.0686 C   0  0  0  0  0  0  0  0  0  0  0  0
  -29.3797    0.1151   -5.3442 C   0  0  0  0  0  0  0  0  0  0  0  0
  -28.5909    0.6371   -6.3027 N   0  0  0  0  0  0  0  0  0  0  0  0
  -27.8560   -0.2365   -7.0219 C   0  0  0  0  0  0  0  0  0  0  0  0
  -27.8837   -1.6103   -6.8210 C   0  0  0  0  0  0  0  0  0  0  0  0
  -29.0004   -8.5887   -8.5605 C   0  0  0  0  0  0  0  0  0  0  0  0
  -29.7390   -9.4748   -9.3337 C   0  0  0  0  0  0  0  0  0  0  0  0
  -29.2641  -10.1619  -10.3964 N   0  0  0  0  0  0  0  0  0  0  0  0
  -27.9806   -9.9369  -10.7055 C   0  0  0  0  0  0  0  0  0  0  0  0
  -27.1572   -9.1023  -10.0588 N   0  0  0  0  0  0  0  0  0  0  0  0
  -27.6925   -8.4508   -9.0016 C   0  0  0  0  0  0  0  0  0  0  0  0
  -31.1864   -6.0396   -3.9785 O   0  0  0  0  0  0  0  0  0  0  0  0
  -31.5454   -4.6630   -3.9301 C   0  0  0  0  0  0  0  0  0  0  0  0
  -31.5792   -4.0542   -5.1309 F   0  0  0  0  0  0  0  0  0  0  0  0
  -32.7818   -4.5596   -3.3918 F   0  0  0  0  0  0  0  0  0  0  0  0
  -30.6752   -4.0221   -3.1224 F   0  0  0  0  0  0  0  0  0  0  0  0
  7  8  2  0  0  0
  8  9  1  0  0  0
  8 10  1  0  0  0
  9 13  1  0  0  0
  9 11  1  0  0  0
 13 14  1  0  0  0
 13 18  2  0  0  0
 14 15  2  0  0  0
 15 16  1  0  0  0
 16 17  2  0  0  0
 17 18  1  0  0  0
 10  1  1  0  0  0
 10 12  1  0  0  0
  1  2  1  0  0  0
  1  6  2  0  0  0
  2  3  2  0  0  0
  3 19  1  0  0  0
  3  4  1  0  0  0
 19 20  1  0  0  0
 19 24  2  0  0  0
 20 21  2  0  0  0
 21 22  1  0  0  0
 22 23  2  0  0  0
 23 24  1  0  0  0
  4  5  2  0  0  0
  5  6  1  0  0  0
  6 25  1  0  0  0
 25 26  1  0  0  0
 26 27  1  0  0  0
 26 28  1  0  0  0
 26 29  1  0  0  0
M  END
> <minimizedAffinity>
-8.01495

$$$$
