CHEMBL3918574


 36 39  0  0  0  0  0  0  0  0999 V2000
  -13.2303   -2.2869  -13.6291 C   0  0  0  0  0  0  0  0  0  0  0  0
  -12.1592   -1.4845  -13.2064 C   0  0  0  0  0  0  0  0  0  0  0  0
  -12.1787   -0.1107  -13.4326 C   0  0  0  0  0  0  0  0  0  0  0  0
  -13.2354    0.4720  -14.1327 C   0  0  0  0  0  0  0  0  0  0  0  0
  -14.2770   -0.3058  -14.6305 C   0  0  0  0  0  0  0  0  0  0  0  0
  -14.2695   -1.6798  -14.3695 C   0  0  0  0  0  0  0  0  0  0  0  0
  -15.1037   -2.8296  -11.1307 N   0  0  0  0  0  0  0  0  0  0  0  0
  -14.0723   -3.6977  -10.9244 C   0  0  0  0  0  0  0  0  0  0  0  0
  -13.5826   -3.9883   -9.8485 O   0  0  0  0  0  0  0  0  0  0  0  0
  -13.6584   -4.3323  -12.1104 N   0  0  0  0  0  0  0  0  0  0  0  0
  -13.3128   -3.7329  -13.3377 C   0  0  0  0  0  0  0  0  0  0  0  0
  -13.0509   -4.7681  -14.2239 C   0  0  0  0  0  0  0  0  0  0  0  0
  -13.3006   -6.0018  -13.5886 C   0  0  0  0  0  0  0  0  0  0  0  0
  -13.2806   -7.3348  -14.0376 C   0  0  0  0  0  0  0  0  0  0  0  0
  -13.6265   -8.3594  -13.1555 C   0  0  0  0  0  0  0  0  0  0  0  0
  -13.9683   -8.0685  -11.8383 C   0  0  0  0  0  0  0  0  0  0  0  0
  -13.9782   -6.7497  -11.3709 C   0  0  0  0  0  0  0  0  0  0  0  0
  -13.6439   -5.7216  -12.2694 C   0  0  0  0  0  0  0  0  0  0  0  0
  -15.5113   -2.3772  -10.3199 H   0  0  0  0  0  0  0  0  0  0  0  0
  -15.6138   -2.7947  -12.0024 H   0  0  0  0  0  0  0  0  0  0  0  0
  -15.3654    0.2381  -15.3568 N   0  0  0  0  0  0  0  0  0  0  0  0
  -16.5024    0.7752  -14.7845 C   0  0  0  0  0  0  0  0  0  0  0  0
  -16.6542    0.9892  -13.5812 O   0  0  0  0  0  0  0  0  0  0  0  0
  -17.4901    1.0272  -15.7238 N   0  0  0  0  0  0  0  0  0  0  0  0
  -15.2092    0.4642  -16.3270 H   0  0  0  0  0  0  0  0  0  0  0  0
  -17.5320    0.3328  -16.4570 H   0  0  0  0  0  0  0  0  0  0  0  0
  -18.7240    1.5866  -15.3211 C   0  0  0  0  0  0  0  0  0  0  0  0
  -18.8697    2.9736  -15.3192 C   0  0  0  0  0  0  0  0  0  0  0  0
  -20.0756    3.5477  -14.9154 C   0  0  0  0  0  0  0  0  0  0  0  0
  -21.1153    2.7413  -14.4514 C   0  0  0  0  0  0  0  0  0  0  0  0
  -20.9744    1.3461  -14.4184 C   0  0  0  0  0  0  0  0  0  0  0  0
  -19.7834    0.7740  -14.8978 C   0  0  0  0  0  0  0  0  0  0  0  0
  -22.0552    0.4741  -13.8283 C   0  0  0  0  0  0  0  0  0  0  0  0
  -21.9298    0.2981  -12.4810 F   0  0  0  0  0  0  0  0  0  0  0  0
  -23.3101    0.9601  -14.0239 F   0  0  0  0  0  0  0  0  0  0  0  0
  -22.0499   -0.7817  -14.3594 F   0  0  0  0  0  0  0  0  0  0  0  0
  7  8  1  0  0  0
  7 19  1  0  0  0
  7 20  1  0  0  0
  8  9  2  0  0  0
  8 10  1  0  0  0
 10 11  1  0  0  0
 10 18  1  0  0  0
 11  1  1  0  0  0
 11 12  2  0  0  0
  1  2  1  0  0  0
  1  6  2  0  0  0
  2  3  2  0  0  0
  3  4  1  0  0  0
  4  5  2  0  0  0
  5 21  1  0  0  0
  5  6  1  0  0  0
 21 22  1  0  0  0
 21 25  1  0  0  0
 22 23  2  0  0  0
 22 24  1  0  0  0
 24 27  1  0  0  0
 24 26  1  0  0  0
 27 28  1  0  0  0
 27 32  2  0  0  0
 28 29  2  0  0  0
 29 30  1  0  0  0
 30 31  2  0  0  0
 31 33  1  0  0  0
 31 32  1  0  0  0
 33 34  1  0  0  0
 33 35  1  0  0  0
 33 36  1  0  0  0
 12 13  1  0  0  0
 13 14  1  0  0  0
 13 18  2  0  0  0
 14 15  2  0  0  0
 15 16  1  0  0  0
 16 17  2  0  0  0
 17 18  1  0  0  0
M  END
> <minimizedAffinity>
-10.01984

$$$$
