CHEMBL3971050


 39 43  0  0  0  0  0  0  0  0999 V2000
  -29.4106   -5.5375   -7.2062 C   0  0  0  0  0  0  0  0  0  0  0  0
  -29.0874   -4.4996   -8.0878 C   0  0  0  0  0  0  0  0  0  0  0  0
  -28.5840   -3.2668   -7.6112 C   0  0  0  0  0  0  0  0  0  0  0  0
  -28.1751   -2.1958   -8.4130 C   0  0  0  0  0  0  0  0  0  0  0  0
  -27.6421   -1.0734   -7.8909 N   0  0  0  0  0  0  0  0  0  0  0  0
  -27.5277   -1.0138   -6.5640 C   0  0  0  0  0  0  0  0  0  0  0  0
  -27.9029   -1.9631   -5.7080 N   0  0  0  0  0  0  0  0  0  0  0  0
  -28.4192   -3.0712   -6.2411 C   0  0  0  0  0  0  0  0  0  0  0  0
  -28.8102   -4.0757   -5.3812 C   0  0  0  0  0  0  0  0  0  0  0  0
  -29.3560   -5.2911   -5.8268 C   0  0  0  0  0  0  0  0  0  0  0  0
  -28.7361   -7.5719   -8.2155 C   0  0  0  0  0  0  0  0  0  0  0  0
  -29.7856   -6.7808   -7.6468 O   0  0  0  0  0  0  0  0  0  0  0  0
  -28.2936   -2.2946   -9.8258 N   0  0  0  0  0  0  0  0  0  0  0  0
  -29.1889   -1.9194  -10.1162 H   0  0  0  0  0  0  0  0  0  0  0  0
  -27.2339   -1.9809  -10.7030 C   0  0  0  0  0  0  0  0  0  0  0  0
  -25.9870   -1.6152  -10.1826 C   0  0  0  0  0  0  0  0  0  0  0  0
  -24.9649   -1.1768  -11.0196 C   0  0  0  0  0  0  0  0  0  0  0  0
  -25.1787   -1.1136  -12.3956 C   0  0  0  0  0  0  0  0  0  0  0  0
  -23.9005   -0.4905  -13.3743 Cl  0  0  0  0  0  0  0  0  0  0  0  0
  -26.4046   -1.5296  -12.9299 C   0  0  0  0  0  0  0  0  0  0  0  0
  -26.7329   -1.4885  -14.6266 Cl  0  0  0  0  0  0  0  0  0  0  0  0
  -27.4273   -1.9752  -12.0840 C   0  0  0  0  0  0  0  0  0  0  0  0
  -29.8257   -6.2472   -4.9427 O   0  0  0  0  0  0  0  0  0  0  0  0
  -28.7927   -6.7768   -4.0895 C   0  0  0  0  0  0  0  0  0  0  0  0
  -28.4875   -8.2586   -4.2959 C   0  0  0  0  0  0  0  0  0  0  0  0
  -27.0902   -8.5037   -4.8877 C   0  0  0  0  0  0  0  0  0  0  0  0
  -26.8757   -9.9526   -5.0329 N   0  0  0  0  0  0  0  0  0  0  0  0
  -27.9563  -10.6480   -5.7335 C   0  0  0  0  0  0  0  0  0  0  0  0
  -29.3294  -10.2789   -5.1649 C   0  0  0  0  0  0  0  0  0  0  0  0
  -29.5157   -8.8561   -5.1091 O   0  0  0  0  0  0  0  0  0  0  0  0
  -25.9194  -10.6174   -4.2952 C   0  0  0  0  0  0  0  0  0  0  0  0
  -26.1519  -10.9973   -3.0792 N   0  0  0  0  0  0  0  0  0  0  0  0
  -24.8073  -10.8297   -5.0697 N   0  0  0  0  0  0  0  0  0  0  0  0
  -24.6150  -11.8816   -6.0485 C   0  0  0  0  0  0  0  0  0  0  0  0
  -23.0966  -11.8980   -6.1913 C   0  0  0  0  0  0  0  0  0  0  0  0
  -22.7357  -10.4194   -6.1432 C   0  0  0  0  0  0  0  0  0  0  0  0
  -23.7772   -9.8044   -5.2109 C   0  0  0  0  0  0  0  0  0  0  0  0
  -25.2194  -11.7123   -2.4438 C   0  0  0  0  0  0  0  0  0  0  0  0
  -24.4079  -12.3209   -1.8768 N   0  0  0  0  0  0  0  0  0  0  0  0
 11 12  1  0  0  0
 12  1  1  0  0  0
  1  2  1  0  0  0
  1 10  2  0  0  0
  2  3  2  0  0  0
  3  4  1  0  0  0
  3  8  1  0  0  0
  4 13  1  0  0  0
  4  5  2  0  0  0
 13 15  1  0  0  0
 13 14  1  0  0  0
 15 16  1  0  0  0
 15 22  2  0  0  0
 16 17  2  0  0  0
 17 18  1  0  0  0
 18 19  1  0  0  0
 18 20  2  0  0  0
 20 21  1  0  0  0
 20 22  1  0  0  0
  5  6  1  0  0  0
  6  7  2  0  0  0
  7  8  1  0  0  0
  8  9  2  0  0  0
  9 10  1  0  0  0
 10 23  1  0  0  0
 23 24  1  0  0  0
 24 25  1  0  0  0
 25 26  1  0  0  0
 25 30  1  0  0  0
 26 27  1  0  0  0
 27 31  1  0  0  0
 27 28  1  0  0  0
 31 32  2  0  0  0
 31 33  1  0  0  0
 32 38  1  0  0  0
 38 39  3  0  0  0
 33 34  1  0  0  0
 33 37  1  0  0  0
 34 35  1  0  0  0
 35 36  1  0  0  0
 36 37  1  0  0  0
 28 29  1  0  0  0
 29 30  1  0  0  0
M  END
> <minimizedAffinity>
-8.47413

$$$$
