CHEMBL3968567


 37 40  0  0  0  0  0  0  0  0999 V2000
  -25.5902   -1.8752  -12.0765 C   0  0  0  0  0  0  0  0  0  0  0  0
  -25.7181   -1.5687  -13.4332 C   0  0  0  0  0  0  0  0  0  0  0  0
  -24.6112   -1.2116  -14.2021 C   0  0  0  0  0  0  0  0  0  0  0  0
  -23.3631   -1.0519  -13.6058 C   0  0  0  0  0  0  0  0  0  0  0  0
  -23.2143   -1.3620  -12.2524 C   0  0  0  0  0  0  0  0  0  0  0  0
  -24.3233   -1.7677  -11.4893 C   0  0  0  0  0  0  0  0  0  0  0  0
  -26.0492   -1.3644   -9.2727 O   0  0  0  0  0  0  0  0  0  0  0  0
  -26.8427   -2.0272   -9.9330 C   0  0  0  0  0  0  0  0  0  0  0  0
  -26.6805   -2.3108  -11.2801 N   0  0  0  0  0  0  0  0  0  0  0  0
  -28.0186   -2.5467   -9.4182 N   0  0  0  0  0  0  0  0  0  0  0  0
  -27.4667   -2.7083  -11.7727 H   0  0  0  0  0  0  0  0  0  0  0  0
  -28.5575   -3.1493  -10.0205 H   0  0  0  0  0  0  0  0  0  0  0  0
  -28.5120   -2.3404   -8.1057 C   0  0  0  0  0  0  0  0  0  0  0  0
  -29.0213   -3.3608   -7.2939 C   0  0  0  0  0  0  0  0  0  0  0  0
  -29.4846   -3.0911   -6.0053 C   0  0  0  0  0  0  0  0  0  0  0  0
  -29.4247   -1.8007   -5.5064 C   0  0  0  0  0  0  0  0  0  0  0  0
  -29.8706   -1.5773   -4.2650 F   0  0  0  0  0  0  0  0  0  0  0  0
  -28.9056   -0.7636   -6.2740 C   0  0  0  0  0  0  0  0  0  0  0  0
  -28.4646   -1.0400   -7.5857 C   0  0  0  0  0  0  0  0  0  0  0  0
  -28.7836    0.6196   -5.7130 C   0  0  0  0  0  0  0  0  0  0  0  0
  -29.9389    1.1686   -5.2533 F   0  0  0  0  0  0  0  0  0  0  0  0
  -27.9129    0.6614   -4.6632 F   0  0  0  0  0  0  0  0  0  0  0  0
  -28.2903    1.5020   -6.6276 F   0  0  0  0  0  0  0  0  0  0  0  0
  -22.2439   -0.6267  -14.2949 O   0  0  0  0  0  0  0  0  0  0  0  0
  -21.9665    0.7285  -14.3469 C   0  0  0  0  0  0  0  0  0  0  0  0
  -22.7575    1.6951  -13.7312 C   0  0  0  0  0  0  0  0  0  0  0  0
  -22.4188    3.0153  -13.9153 C   0  0  0  0  0  0  0  0  0  0  0  0
  -21.3284    3.4081  -14.5937 N   0  0  0  0  0  0  0  0  0  0  0  0
  -20.5152    2.4780  -15.1209 C   0  0  0  0  0  0  0  0  0  0  0  0
  -20.8061    1.1182  -15.0247 C   0  0  0  0  0  0  0  0  0  0  0  0
  -19.3397    2.8865  -15.7805 N   0  0  0  0  0  0  0  0  0  0  0  0
  -18.0699    2.5515  -15.3561 C   0  0  0  0  0  0  0  0  0  0  0  0
  -17.7635    1.8863  -14.3773 O   0  0  0  0  0  0  0  0  0  0  0  0
  -19.4455    3.4248  -16.6231 H   0  0  0  0  0  0  0  0  0  0  0  0
  -16.9313    3.0425  -16.1915 C   0  0  0  0  0  0  0  0  0  0  0  0
  -15.4970    3.2144  -15.7720 C   0  0  0  0  0  0  0  0  0  0  0  0
  -16.3720    4.4236  -15.9399 C   0  0  0  0  0  0  0  0  0  0  0  0
  7  8  2  0  0  0
  8  9  1  0  0  0
  8 10  1  0  0  0
  9  1  1  0  0  0
  9 11  1  0  0  0
  1  2  1  0  0  0
  1  6  2  0  0  0
  2  3  2  0  0  0
  3  4  1  0  0  0
  4 24  1  0  0  0
  4  5  2  0  0  0
 24 25  1  0  0  0
 25 26  1  0  0  0
 25 30  2  0  0  0
 26 27  2  0  0  0
 27 28  1  0  0  0
 28 29  2  0  0  0
 29 31  1  0  0  0
 29 30  1  0  0  0
 31 32  1  0  0  0
 31 34  1  0  0  0
 32 33  2  0  0  0
 32 35  1  0  0  0
 35 36  1  0  0  0
 35 37  1  0  0  0
 36 37  1  0  0  0
  5  6  1  0  0  0
 10 13  1  0  0  0
 10 12  1  0  0  0
 13 14  1  0  0  0
 13 19  2  0  0  0
 14 15  2  0  0  0
 15 16  1  0  0  0
 16 17  1  0  0  0
 16 18  2  0  0  0
 18 20  1  0  0  0
 18 19  1  0  0  0
 20 21  1  0  0  0
 20 22  1  0  0  0
 20 23  1  0  0  0
M  END
> <minimizedAffinity>
-11.68913

$$$$
