CHEMBL2086759


 35 39  0  0  0  0  0  0  0  0999 V2000
  -29.0483   -8.1822   -7.4141 C   0  0  0  0  0  0  0  0  0  0  0  0
  -28.2977   -8.1455   -8.6020 C   0  0  0  0  0  0  0  0  0  0  0  0
  -27.7730   -6.9501   -9.0915 C   0  0  0  0  0  0  0  0  0  0  0  0
  -27.9889   -5.8109   -8.3472 C   0  0  0  0  0  0  0  0  0  0  0  0
  -28.6742   -5.8071   -7.1266 C   0  0  0  0  0  0  0  0  0  0  0  0
  -29.1955   -7.0035   -6.6543 C   0  0  0  0  0  0  0  0  0  0  0  0
  -28.6793   -4.3976   -6.6610 C   0  0  0  0  0  0  0  0  0  0  0  0
  -29.2257   -3.8295   -5.5577 C   0  0  0  0  0  0  0  0  0  0  0  0
  -27.8979   -3.6139   -7.7076 C   0  0  0  0  0  0  0  0  0  0  0  0
  -27.5355   -2.4580   -7.7034 O   0  0  0  0  0  0  0  0  0  0  0  0
  -27.5632   -4.5371   -8.6799 N   0  0  0  0  0  0  0  0  0  0  0  0
  -27.0280   -4.2880   -9.5014 H   0  0  0  0  0  0  0  0  0  0  0  0
  -29.8897   -4.6430   -4.5118 C   0  0  0  0  0  0  0  0  0  0  0  0
  -29.1992   -5.6669   -3.8460 C   0  0  0  0  0  0  0  0  0  0  0  0
  -29.8489   -6.4538   -2.8870 C   0  0  0  0  0  0  0  0  0  0  0  0
  -31.1936   -6.2262   -2.5953 C   0  0  0  0  0  0  0  0  0  0  0  0
  -31.8749   -5.2139   -3.2625 C   0  0  0  0  0  0  0  0  0  0  0  0
  -33.1697   -4.9978   -2.9834 F   0  0  0  0  0  0  0  0  0  0  0  0
  -31.2419   -4.4245   -4.2129 C   0  0  0  0  0  0  0  0  0  0  0  0
  -29.2118   -2.4078   -5.4270 C   0  0  0  0  0  0  0  0  0  0  0  0
  -30.0927   -1.5042   -5.8117 N   0  0  0  0  0  0  0  0  0  0  0  0
  -29.5443   -0.2889   -5.4891 C   0  0  0  0  0  0  0  0  0  0  0  0
  -28.3425   -0.4507   -4.8440 C   0  0  0  0  0  0  0  0  0  0  0  0
  -28.1488   -1.8045   -4.7955 N   0  0  0  0  0  0  0  0  0  0  0  0
  -27.3438   -2.2798   -4.4186 H   0  0  0  0  0  0  0  0  0  0  0  0
  -29.5999   -9.3651   -6.9095 N   0  0  0  0  0  0  0  0  0  0  0  0
  -29.3505   -9.4688   -5.9266 H   0  0  0  0  0  0  0  0  0  0  0  0
  -31.6620  -12.2795   -6.6204 N   0  0  0  0  0  0  0  0  0  0  0  0
  -31.9077  -11.1745   -7.5669 C   0  0  0  0  0  0  0  0  0  0  0  0
  -30.7013  -10.9638   -8.4812 C   0  0  0  0  0  0  0  0  0  0  0  0
  -29.4492  -10.6297   -7.6615 C   0  0  0  0  0  0  0  0  0  0  0  0
  -29.2211  -11.7792   -6.6800 C   0  0  0  0  0  0  0  0  0  0  0  0
  -30.4542  -12.0229   -5.8177 C   0  0  0  0  0  0  0  0  0  0  0  0
  -34.1519  -12.2395   -6.5178 C   0  0  0  0  0  0  0  0  0  0  0  0
  -32.8459  -12.4657   -5.7626 C   0  0  0  0  0  0  0  0  0  0  0  0
 34 35  1  0  0  0
 35 28  1  0  0  0
 28 29  1  0  0  0
 28 33  1  0  0  0
 29 30  1  0  0  0
 30 31  1  0  0  0
 31 26  1  0  0  0
 31 32  1  0  0  0
 26  1  1  0  0  0
 26 27  1  0  0  0
  1  2  1  0  0  0
  1  6  2  0  0  0
  2  3  2  0  0  0
  3  4  1  0  0  0
  4  5  2  0  0  0
  4 11  1  0  0  0
  5  6  1  0  0  0
  5  7  1  0  0  0
  7  8  2  0  0  0
  7  9  1  0  0  0
  8 13  1  0  0  0
  8 20  1  0  0  0
 13 14  1  0  0  0
 13 19  2  0  0  0
 14 15  2  0  0  0
 15 16  1  0  0  0
 16 17  2  0  0  0
 17 18  1  0  0  0
 17 19  1  0  0  0
 20 21  2  0  0  0
 20 24  1  0  0  0
 21 22  1  0  0  0
 22 23  2  0  0  0
 23 24  1  0  0  0
 24 25  1  0  0  0
  9 10  2  0  0  0
  9 11  1  0  0  0
 11 12  1  0  0  0
 32 33  1  0  0  0
M  END
> <minimizedAffinity>
-6.98765

$$$$
