CHEMBL233224


 34 38  0  0  0  0  0  0  0  0999 V2000
  -28.4397   10.2925  -14.2857 N   0  0  0  0  0  0  0  0  0  0  0  0
  -28.4935    9.2854  -14.2577 H   0  0  0  0  0  0  0  0  0  0  0  0
  -29.1491   10.8521  -13.2217 C   0  0  0  0  0  0  0  0  0  0  0  0
  -28.4576   11.3992  -12.2134 N   0  0  0  0  0  0  0  0  0  0  0  0
  -29.1827   11.9287  -11.1943 C   0  0  0  0  0  0  0  0  0  0  0  0
  -30.5592   11.9452  -11.1387 C   0  0  0  0  0  0  0  0  0  0  0  0
  -31.3820   12.6382   -9.8055 Cl  0  0  0  0  0  0  0  0  0  0  0  0
  -31.1726   11.3769  -12.2275 C   0  0  0  0  0  0  0  0  0  0  0  0
  -30.4847   10.8143  -13.2458 N   0  0  0  0  0  0  0  0  0  0  0  0
  -32.5938   11.4778  -12.5168 C   0  0  0  0  0  0  0  0  0  0  0  0
  -33.3191   12.6359  -12.2991 C   0  0  0  0  0  0  0  0  0  0  0  0
  -34.6460   12.2979  -12.3439 N   0  0  0  0  0  0  0  0  0  0  0  0
  -34.7533   10.9411  -12.1357 C   0  0  0  0  0  0  0  0  0  0  0  0
  -35.7914   10.1687  -11.6097 C   0  0  0  0  0  0  0  0  0  0  0  0
  -35.5958    8.7844  -11.5672 C   0  0  0  0  0  0  0  0  0  0  0  0
  -34.4609    8.1996  -12.1270 C   0  0  0  0  0  0  0  0  0  0  0  0
  -33.4158    8.9926  -12.6092 C   0  0  0  0  0  0  0  0  0  0  0  0
  -33.5298   10.3933  -12.5175 C   0  0  0  0  0  0  0  0  0  0  0  0
  -35.4184   12.9484  -12.3244 H   0  0  0  0  0  0  0  0  0  0  0  0
  -24.9014   11.8818  -16.0221 C   0  0  0  0  0  0  0  0  0  0  0  0
  -25.5766   10.8145  -16.6284 C   0  0  0  0  0  0  0  0  0  0  0  0
  -26.7531   10.3055  -16.0711 C   0  0  0  0  0  0  0  0  0  0  0  0
  -27.2801   10.8198  -14.8812 C   0  0  0  0  0  0  0  0  0  0  0  0
  -26.6145   11.8923  -14.2772 C   0  0  0  0  0  0  0  0  0  0  0  0
  -25.4294   12.4049  -14.8303 C   0  0  0  0  0  0  0  0  0  0  0  0
  -23.6032   12.4367  -16.5857 C   0  0  0  0  0  0  0  0  0  0  0  0
  -23.6246   12.6585  -18.1145 C   0  0  0  0  0  0  0  0  0  0  0  0
  -19.0738   12.3831  -19.6873 C   0  0  0  0  0  0  0  0  0  0  0  0
  -20.3777   11.7293  -19.7141 N   0  0  0  0  0  0  0  0  0  0  0  0
  -20.7890   11.3235  -18.3603 C   0  0  0  0  0  0  0  0  0  0  0  0
  -22.1815   10.6626  -18.3670 C   0  0  0  0  0  0  0  0  0  0  0  0
  -23.2620   11.5015  -18.9516 N   0  0  0  0  0  0  0  0  0  0  0  0
  -22.8166   11.9470  -20.2842 C   0  0  0  0  0  0  0  0  0  0  0  0
  -21.4074   12.5966  -20.3156 C   0  0  0  0  0  0  0  0  0  0  0  0
 28 29  1  0  0  0
 29 30  1  0  0  0
 29 34  1  0  0  0
 30 31  1  0  0  0
 31 32  1  0  0  0
 32 27  1  0  0  0
 32 33  1  0  0  0
 27 26  1  0  0  0
 26 20  1  0  0  0
 20 21  1  0  0  0
 20 25  2  0  0  0
 21 22  2  0  0  0
 22 23  1  0  0  0
 23  1  1  0  0  0
 23 24  2  0  0  0
  1  3  1  0  0  0
  1  2  1  0  0  0
  3  4  1  0  0  0
  3  9  2  0  0  0
  4  5  2  0  0  0
  5  6  1  0  0  0
  6  7  1  0  0  0
  6  8  2  0  0  0
  8 10  1  0  0  0
  8  9  1  0  0  0
 10 11  2  0  0  0
 10 18  1  0  0  0
 11 12  1  0  0  0
 12 13  1  0  0  0
 12 19  1  0  0  0
 13 14  1  0  0  0
 13 18  2  0  0  0
 14 15  2  0  0  0
 15 16  1  0  0  0
 16 17  2  0  0  0
 17 18  1  0  0  0
 24 25  1  0  0  0
 33 34  1  0  0  0
M  END
> <minimizedAffinity>
-5.46827

$$$$
