CHEMBL98996


 21 23  0  0  0  0  0  0  0  0999 V2000
  -26.4682   -2.0955  -10.9165 C   0  0  0  0  0  0  0  0  0  0  0  0
  -27.1542   -1.6839  -11.9617 N   0  0  0  0  0  0  0  0  0  0  0  0
  -26.3502   -0.9122  -12.7851 C   0  0  0  0  0  0  0  0  0  0  0  0
  -25.0272   -0.7821  -12.4056 C   0  0  0  0  0  0  0  0  0  0  0  0
  -24.8139   -1.5997  -10.9154 S   0  0  0  0  0  0  0  0  0  0  0  0
  -23.9054   -0.0878  -13.0507 C   0  0  0  0  0  0  0  0  0  0  0  0
  -22.8616   -0.8160  -13.6391 C   0  0  0  0  0  0  0  0  0  0  0  0
  -21.7910   -0.1597  -14.2544 C   0  0  0  0  0  0  0  0  0  0  0  0
  -21.7462    1.2317  -14.2896 C   0  0  0  0  0  0  0  0  0  0  0  0
  -22.7708    1.9719  -13.7074 C   0  0  0  0  0  0  0  0  0  0  0  0
  -23.8379    1.3163  -13.0903 C   0  0  0  0  0  0  0  0  0  0  0  0
  -26.9780   -2.9358   -9.9859 N   0  0  0  0  0  0  0  0  0  0  0  0
  -27.4109   -3.7746  -10.3479 H   0  0  0  0  0  0  0  0  0  0  0  0
  -29.0199   -2.9814   -6.9242 C   0  0  0  0  0  0  0  0  0  0  0  0
  -28.7085   -1.7381   -6.3935 C   0  0  0  0  0  0  0  0  0  0  0  0
  -27.8574   -0.9256   -7.1175 C   0  0  0  0  0  0  0  0  0  0  0  0
  -27.3011   -1.2805   -8.2928 N   0  0  0  0  0  0  0  0  0  0  0  0
  -27.5886   -2.4995   -8.7959 C   0  0  0  0  0  0  0  0  0  0  0  0
  -28.4602   -3.3636   -8.1429 C   0  0  0  0  0  0  0  0  0  0  0  0
  -29.6294   -4.0996   -4.9270 C   0  0  0  0  0  0  0  0  0  0  0  0
  -29.8102   -3.9255   -6.3276 O   0  0  0  0  0  0  0  0  0  0  0  0
 20 21  1  0  0  0
 21 14  1  0  0  0
 14 15  1  0  0  0
 14 19  2  0  0  0
 15 16  2  0  0  0
 16 17  1  0  0  0
 17 18  2  0  0  0
 18 12  1  0  0  0
 18 19  1  0  0  0
 12  1  1  0  0  0
 12 13  1  0  0  0
  1  2  2  0  0  0
  1  5  1  0  0  0
  2  3  1  0  0  0
  3  4  2  0  0  0
  4  6  1  0  0  0
  4  5  1  0  0  0
  6  7  1  0  0  0
  6 11  2  0  0  0
  7  8  2  0  0  0
  8  9  1  0  0  0
  9 10  2  0  0  0
 10 11  1  0  0  0
M  END
> <minimizedAffinity>
-7.49447

$$$$
