CHEMBL445327


 26 29  0  0  0  0  0  0  0  0999 V2000
  -14.9780   -0.8107  -13.3595 C   0  0  0  0  0  0  0  0  0  0  0  0
  -14.1058   -1.5714  -14.0384 N   0  0  0  0  0  0  0  0  0  0  0  0
  -13.6227   -1.0825  -15.1922 C   0  0  0  0  0  0  0  0  0  0  0  0
  -13.9673    0.1450  -15.6986 C   0  0  0  0  0  0  0  0  0  0  0  0
  -14.8185    0.8846  -14.9083 C   0  0  0  0  0  0  0  0  0  0  0  0
  -15.3451    0.4094  -13.7566 N   0  0  0  0  0  0  0  0  0  0  0  0
  -15.1059    2.2349  -15.2668 N   0  0  0  0  0  0  0  0  0  0  0  0
  -14.1756    3.2412  -15.4209 C   0  0  0  0  0  0  0  0  0  0  0  0
  -14.8656    4.3162  -15.9160 C   0  0  0  0  0  0  0  0  0  0  0  0
  -16.2003    4.0391  -15.9853 N   0  0  0  0  0  0  0  0  0  0  0  0
  -16.3569    2.8037  -15.5261 C   0  0  0  0  0  0  0  0  0  0  0  0
  -17.6757    2.1928  -15.2665 C   0  0  0  0  0  0  0  0  0  0  0  0
  -18.6910    2.9621  -14.6820 C   0  0  0  0  0  0  0  0  0  0  0  0
  -19.9610    2.4204  -14.4566 C   0  0  0  0  0  0  0  0  0  0  0  0
  -20.2362    1.1034  -14.8193 C   0  0  0  0  0  0  0  0  0  0  0  0
  -19.2291    0.3116  -15.3585 C   0  0  0  0  0  0  0  0  0  0  0  0
  -17.9514    0.8432  -15.5403 C   0  0  0  0  0  0  0  0  0  0  0  0
  -15.5535   -1.2838  -12.1775 N   0  0  0  0  0  0  0  0  0  0  0  0
  -15.4557   -0.5729  -11.4648 H   0  0  0  0  0  0  0  0  0  0  0  0
  -13.8667   -4.8085   -9.1114 C   0  0  0  0  0  0  0  0  0  0  0  0
  -14.7550   -4.3342  -10.2214 C   0  0  0  0  0  0  0  0  0  0  0  0
  -14.7217   -3.0086  -10.6412 C   0  0  0  0  0  0  0  0  0  0  0  0
  -15.5358   -2.6043  -11.7010 C   0  0  0  0  0  0  0  0  0  0  0  0
  -16.3981   -3.5411  -12.2646 C   0  0  0  0  0  0  0  0  0  0  0  0
  -16.3579   -4.8437  -11.7997 C   0  0  0  0  0  0  0  0  0  0  0  0
  -15.5605   -5.2589  -10.7933 N   0  0  0  0  0  0  0  0  0  0  0  0
 20 21  1  0  0  0
 21 22  1  0  0  0
 21 26  2  0  0  0
 22 23  2  0  0  0
 23 18  1  0  0  0
 23 24  1  0  0  0
 18  1  1  0  0  0
 18 19  1  0  0  0
  1  2  1  0  0  0
  1  6  2  0  0  0
  2  3  2  0  0  0
  3  4  1  0  0  0
  4  5  2  0  0  0
  5  7  1  0  0  0
  5  6  1  0  0  0
  7  8  1  0  0  0
  7 11  1  0  0  0
  8  9  2  0  0  0
  9 10  1  0  0  0
 10 11  2  0  0  0
 11 12  1  0  0  0
 12 13  1  0  0  0
 12 17  2  0  0  0
 13 14  2  0  0  0
 14 15  1  0  0  0
 15 16  2  0  0  0
 16 17  1  0  0  0
 24 25  2  0  0  0
 25 26  1  0  0  0
M  END
> <minimizedAffinity>
-7.94798

$$$$
