CHEMBL3919107


 29 32  0  0  0  0  0  0  0  0999 V2000
  -16.2601    2.0820  -15.6462 C   0  0  0  0  0  0  0  0  0  0  0  0
  -16.8122    0.8384  -15.3214 C   0  0  0  0  0  0  0  0  0  0  0  0
  -18.1790    0.7094  -15.0499 C   0  0  0  0  0  0  0  0  0  0  0  0
  -18.9955    1.8575  -15.0478 C   0  0  0  0  0  0  0  0  0  0  0  0
  -20.3824    2.1492  -14.8574 C   0  0  0  0  0  0  0  0  0  0  0  0
  -20.6286    3.4588  -15.0055 N   0  0  0  0  0  0  0  0  0  0  0  0
  -19.4231    3.9983  -15.2405 N   0  0  0  0  0  0  0  0  0  0  0  0
  -18.4046    3.0894  -15.3163 C   0  0  0  0  0  0  0  0  0  0  0  0
  -17.0438    3.2449  -15.6090 C   0  0  0  0  0  0  0  0  0  0  0  0
  -19.3642    5.0021  -15.3663 H   0  0  0  0  0  0  0  0  0  0  0  0
  -14.8341    2.2040  -16.0541 C   0  0  0  0  0  0  0  0  0  0  0  0
  -14.5306    2.0287  -17.2315 O   0  0  0  0  0  0  0  0  0  0  0  0
  -11.6390    5.4079  -14.1495 N   0  0  0  0  0  0  0  0  0  0  0  0
  -12.1519    4.1045  -14.1899 C   0  0  0  0  0  0  0  0  0  0  0  0
  -11.8317    3.1977  -13.1744 C   0  0  0  0  0  0  0  0  0  0  0  0
  -12.4144    1.9310  -13.1398 C   0  0  0  0  0  0  0  0  0  0  0  0
  -13.3621    1.5761  -14.0968 C   0  0  0  0  0  0  0  0  0  0  0  0
  -13.7698    2.5112  -15.0575 C   0  0  0  0  0  0  0  0  0  0  0  0
  -13.1603    3.7723  -15.0968 C   0  0  0  0  0  0  0  0  0  0  0  0
  -10.7256    5.4738  -13.7117 H   0  0  0  0  0  0  0  0  0  0  0  0
  -11.6651    5.8809  -15.0488 H   0  0  0  0  0  0  0  0  0  0  0  0
  -21.4438    1.2217  -14.6020 C   0  0  0  0  0  0  0  0  0  0  0  0
  -21.7650    0.6764  -13.4172 C   0  0  0  0  0  0  0  0  0  0  0  0
  -22.8386   -0.2966  -13.2069 C   0  0  0  0  0  0  0  0  0  0  0  0
  -22.9074   -1.1224  -12.0887 C   0  0  0  0  0  0  0  0  0  0  0  0
  -23.9583   -2.0303  -11.9896 C   0  0  0  0  0  0  0  0  0  0  0  0
  -24.9009   -2.0951  -13.0079 C   0  0  0  0  0  0  0  0  0  0  0  0
  -24.7469   -1.2502  -14.0932 C   0  0  0  0  0  0  0  0  0  0  0  0
  -23.7362   -0.3619  -14.2180 N   0  0  0  0  0  0  0  0  0  0  0  0
 13 14  1  0  0  0
 13 20  1  0  0  0
 13 21  1  0  0  0
 14 15  1  0  0  0
 14 19  2  0  0  0
 15 16  2  0  0  0
 16 17  1  0  0  0
 17 18  2  0  0  0
 18 11  1  0  0  0
 18 19  1  0  0  0
 11 12  2  0  0  0
 11  1  1  0  0  0
  1  2  1  0  0  0
  1  9  2  0  0  0
  2  3  2  0  0  0
  3  4  1  0  0  0
  4  5  1  0  0  0
  4  8  2  0  0  0
  5 22  1  0  0  0
  5  6  2  0  0  0
 22 23  2  0  0  0
 23 24  1  0  0  0
 24 25  1  0  0  0
 24 29  2  0  0  0
 25 26  2  0  0  0
 26 27  1  0  0  0
 27 28  2  0  0  0
 28 29  1  0  0  0
  6  7  1  0  0  0
  7  8  1  0  0  0
  7 10  1  0  0  0
  8  9  1  0  0  0
M  END
> <minimizedAffinity>
-9.94733

$$$$
