CHEMBL363764


 29 31  0  0  0  0  0  0  0  0999 V2000
  -29.6412   -4.6304   -6.3956 C   0  0  0  0  0  0  0  0  0  0  0  0
  -29.8766   -4.8187   -5.0351 C   0  0  0  0  0  0  0  0  0  0  0  0
  -30.3906   -5.9582   -4.5202 N   0  0  0  0  0  0  0  0  0  0  0  0
  -30.6795   -6.9125   -5.4355 C   0  0  0  0  0  0  0  0  0  0  0  0
  -30.4914   -6.7594   -6.8128 C   0  0  0  0  0  0  0  0  0  0  0  0
  -29.9768   -5.5999   -7.2851 N   0  0  0  0  0  0  0  0  0  0  0  0
  -27.6623   -2.2965   -8.6730 C   0  0  0  0  0  0  0  0  0  0  0  0
  -27.6730   -1.1758   -7.8455 C   0  0  0  0  0  0  0  0  0  0  0  0
  -28.2788   -1.1269   -6.6374 N   0  0  0  0  0  0  0  0  0  0  0  0
  -28.8922   -2.2550   -6.2202 C   0  0  0  0  0  0  0  0  0  0  0  0
  -28.9771   -3.4397   -6.9515 C   0  0  0  0  0  0  0  0  0  0  0  0
  -28.3466   -3.4322   -8.2133 C   0  0  0  0  0  0  0  0  0  0  0  0
  -27.4128   -1.5862  -11.0454 C   0  0  0  0  0  0  0  0  0  0  0  0
  -28.2557   -0.6938  -11.0495 O   0  0  0  0  0  0  0  0  0  0  0  0
  -27.0332   -2.3332   -9.9398 N   0  0  0  0  0  0  0  0  0  0  0  0
  -26.1855   -2.8855  -10.0146 H   0  0  0  0  0  0  0  0  0  0  0  0
  -26.7042   -1.9680  -12.3226 C   0  0  0  0  0  0  0  0  0  0  0  0
  -25.3836   -1.2269  -12.4307 C   0  0  0  0  0  0  0  0  0  0  0  0
  -23.2251   -1.7909  -11.6835 C   0  0  0  0  0  0  0  0  0  0  0  0
  -24.5752   -1.5549  -11.3021 O   0  0  0  0  0  0  0  0  0  0  0  0
  -30.9355   -7.7758   -7.6808 N   0  0  0  0  0  0  0  0  0  0  0  0
  -31.9119   -7.7082   -7.9358 H   0  0  0  0  0  0  0  0  0  0  0  0
  -30.2599   -8.8723   -8.2394 C   0  0  0  0  0  0  0  0  0  0  0  0
  -30.8982  -10.1239   -8.2362 C   0  0  0  0  0  0  0  0  0  0  0  0
  -30.3561  -11.2196   -8.9132 C   0  0  0  0  0  0  0  0  0  0  0  0
  -29.1583  -11.0832   -9.6085 C   0  0  0  0  0  0  0  0  0  0  0  0
  -28.4975   -9.8593   -9.5943 C   0  0  0  0  0  0  0  0  0  0  0  0
  -27.0183   -9.6711  -10.4606 Cl  0  0  0  0  0  0  0  0  0  0  0  0
  -29.0380   -8.7699   -8.9114 C   0  0  0  0  0  0  0  0  0  0  0  0
 19 20  1  0  0  0
 20 18  1  0  0  0
 18 17  1  0  0  0
 17 13  1  0  0  0
 13 14  2  0  0  0
 13 15  1  0  0  0
 15  7  1  0  0  0
 15 16  1  0  0  0
  7  8  1  0  0  0
  7 12  2  0  0  0
  8  9  2  0  0  0
  9 10  1  0  0  0
 10 11  2  0  0  0
 11  1  1  0  0  0
 11 12  1  0  0  0
  1  2  1  0  0  0
  1  6  2  0  0  0
  2  3  2  0  0  0
  3  4  1  0  0  0
  4  5  2  0  0  0
  5 21  1  0  0  0
  5  6  1  0  0  0
 21 23  1  0  0  0
 21 22  1  0  0  0
 23 24  1  0  0  0
 23 29  2  0  0  0
 24 25  2  0  0  0
 25 26  1  0  0  0
 26 27  2  0  0  0
 27 28  1  0  0  0
 27 29  1  0  0  0
M  END
> <minimizedAffinity>
-8.07875

$$$$
