CHEMBL4638231


 56 61  0  0  0  0  0  0  0  0999 V2000
  -28.4349   -6.2541   -7.9110 C   0  0  0  0  0  0  0  0  0  0  0  0
  -28.2814   -4.9944   -8.3803 N   0  0  0  0  0  0  0  0  0  0  0  0
  -29.2687   -4.1137   -8.1993 C   0  0  0  0  0  0  0  0  0  0  0  0
  -30.3230   -4.3417   -7.4242 N   0  0  0  0  0  0  0  0  0  0  0  0
  -30.3868   -5.5481   -6.8413 C   0  0  0  0  0  0  0  0  0  0  0  0
  -29.4913   -6.5847   -7.0621 C   0  0  0  0  0  0  0  0  0  0  0  0
  -29.6924   -7.8839   -6.5227 N   0  0  0  0  0  0  0  0  0  0  0  0
  -30.8332   -8.6215   -6.8069 C   0  0  0  0  0  0  0  0  0  0  0  0
  -31.7151   -8.2712   -7.5878 O   0  0  0  0  0  0  0  0  0  0  0  0
  -28.9288   -8.3142   -6.0174 H   0  0  0  0  0  0  0  0  0  0  0  0
  -30.9759   -9.9633   -6.2067 C   0  0  0  0  0  0  0  0  0  0  0  0
  -30.0193  -10.5568   -5.3818 C   0  0  0  0  0  0  0  0  0  0  0  0
  -30.2908  -11.8026   -4.7963 C   0  0  0  0  0  0  0  0  0  0  0  0
  -29.2985  -12.4649   -3.8853 C   0  0  0  0  0  0  0  0  0  0  0  0
  -31.5143  -12.4437   -5.0551 C   0  0  0  0  0  0  0  0  0  0  0  0
  -32.4824  -11.8476   -5.8707 C   0  0  0  0  0  0  0  0  0  0  0  0
  -33.8285  -12.4636   -6.0982 C   0  0  0  0  0  0  0  0  0  0  0  0
  -32.1989  -10.6100   -6.4514 C   0  0  0  0  0  0  0  0  0  0  0  0
  -27.5383   -7.2466   -8.4370 N   0  0  0  0  0  0  0  0  0  0  0  0
  -26.7715   -7.3580   -7.7812 H   0  0  0  0  0  0  0  0  0  0  0  0
  -27.6535   -9.7444   -8.0871 C   0  0  0  0  0  0  0  0  0  0  0  0
  -28.1221  -10.9970   -8.5511 C   0  0  0  0  0  0  0  0  0  0  0  0
  -29.0237  -11.0842   -9.6076 C   0  0  0  0  0  0  0  0  0  0  0  0
  -29.4941   -9.9218  -10.1907 C   0  0  0  0  0  0  0  0  0  0  0  0
  -29.0176   -8.6873   -9.7485 C   0  0  0  0  0  0  0  0  0  0  0  0
  -28.0241   -8.5627   -8.7429 C   0  0  0  0  0  0  0  0  0  0  0  0
  -26.5480   -9.8190   -6.6987 S   0  0  0  0  0  0  0  0  0  0  0  0
  -26.9314   -8.8511   -5.6951 O   0  0  0  0  0  0  0  0  0  0  0  0
  -25.2080   -9.8920   -7.2395 O   0  0  0  0  0  0  0  0  0  0  0  0
  -26.8914  -11.3733   -6.0556 N   0  0  0  0  0  0  0  0  0  0  0  0
  -27.8317  -11.4196   -5.6666 H   0  0  0  0  0  0  0  0  0  0  0  0
  -25.8105  -11.2448   -3.8566 C   0  0  0  0  0  0  0  0  0  0  0  0
  -25.8472  -11.9624   -5.1962 C   0  0  0  0  0  0  0  0  0  0  0  0
  -29.1610   -2.9257   -8.9017 N   0  0  0  0  0  0  0  0  0  0  0  0
  -29.8945   -2.2909   -8.6260 H   0  0  0  0  0  0  0  0  0  0  0  0
  -28.0565   -2.3632   -9.5498 C   0  0  0  0  0  0  0  0  0  0  0  0
  -26.9818   -1.7524   -8.9133 C   0  0  0  0  0  0  0  0  0  0  0  0
  -25.8844   -1.2698   -9.6497 C   0  0  0  0  0  0  0  0  0  0  0  0
  -25.8039   -1.4352  -11.0494 C   0  0  0  0  0  0  0  0  0  0  0  0
  -26.9049   -2.0473  -11.6909 C   0  0  0  0  0  0  0  0  0  0  0  0
  -28.0049   -2.4913  -10.9392 C   0  0  0  0  0  0  0  0  0  0  0  0
  -24.5975   -1.0562  -11.6738 N   0  0  0  0  0  0  0  0  0  0  0  0
  -24.2402   -1.7558  -12.9114 C   0  0  0  0  0  0  0  0  0  0  0  0
  -22.7266   -1.6859  -13.0502 C   0  0  0  0  0  0  0  0  0  0  0  0
  -22.1933   -0.2379  -13.1748 C   0  0  0  0  0  0  0  0  0  0  0  0
  -22.8397    0.6245  -12.0422 C   0  0  0  0  0  0  0  0  0  0  0  0
  -24.3418    0.3859  -11.7777 C   0  0  0  0  0  0  0  0  0  0  0  0
  -22.3190    0.4122  -14.5122 N   0  0  0  0  0  0  0  0  0  0  0  0
  -21.1609    0.2260  -15.4197 C   0  0  0  0  0  0  0  0  0  0  0  0
  -19.8645    0.9461  -14.9774 C   0  0  0  0  0  0  0  0  0  0  0  0
  -20.0452    2.4032  -14.8785 N   0  0  0  0  0  0  0  0  0  0  0  0
  -18.8429    3.0363  -14.3319 C   0  0  0  0  0  0  0  0  0  0  0  0
  -21.2304    2.7286  -14.0636 C   0  0  0  0  0  0  0  0  0  0  0  0
  -22.5038    1.8903  -14.3950 C   0  0  0  0  0  0  0  0  0  0  0  0
  -26.8462   -2.2329  -13.0501 O   0  0  0  0  0  0  0  0  0  0  0  0
  -27.9945   -1.8572  -13.7975 C   0  0  0  0  0  0  0  0  0  0  0  0
 32 33  1  0  0  0
 33 30  1  0  0  0
 30 27  1  0  0  0
 30 31  1  0  0  0
 27 28  2  0  0  0
 27 29  2  0  0  0
 27 21  1  0  0  0
 21 22  1  0  0  0
 21 26  2  0  0  0
 22 23  2  0  0  0
 23 24  1  0  0  0
 24 25  2  0  0  0
 25 26  1  0  0  0
 26 19  1  0  0  0
 19  1  1  0  0  0
 19 20  1  0  0  0
  1  2  1  0  0  0
  1  6  2  0  0  0
  2  3  2  0  0  0
  3 34  1  0  0  0
  3  4  1  0  0  0
 34 36  1  0  0  0
 34 35  1  0  0  0
 36 37  1  0  0  0
 36 41  2  0  0  0
 37 38  2  0  0  0
 38 39  1  0  0  0
 39 42  1  0  0  0
 39 40  2  0  0  0
 42 43  1  0  0  0
 42 47  1  0  0  0
 43 44  1  0  0  0
 44 45  1  0  0  0
 45 48  1  0  0  0
 45 46  1  0  0  0
 48 49  1  0  0  0
 48 54  1  0  0  0
 49 50  1  0  0  0
 50 51  1  0  0  0
 51 52  1  0  0  0
 51 53  1  0  0  0
 53 54  1  0  0  0
 46 47  1  0  0  0
 40 55  1  0  0  0
 40 41  1  0  0  0
 55 56  1  0  0  0
  4  5  2  0  0  0
  5  6  1  0  0  0
  6  7  1  0  0  0
  7  8  1  0  0  0
  7 10  1  0  0  0
  8  9  2  0  0  0
  8 11  1  0  0  0
 11 12  1  0  0  0
 11 18  2  0  0  0
 12 13  2  0  0  0
 13 14  1  0  0  0
 13 15  1  0  0  0
 15 16  2  0  0  0
 16 17  1  0  0  0
 16 18  1  0  0  0
M  END
> <minimizedAffinity>
-5.36708

$$$$
