CHEMBL1086334


 38 43  0  0  0  0  0  0  0  0999 V2000
  -28.4279   -3.6139   -5.8893 C   0  0  0  0  0  0  0  0  0  0  0  0
  -28.6488   -4.3776   -7.0407 C   0  0  0  0  0  0  0  0  0  0  0  0
  -28.5253   -3.8120   -8.3099 C   0  0  0  0  0  0  0  0  0  0  0  0
  -28.2110   -2.4594   -8.4700 C   0  0  0  0  0  0  0  0  0  0  0  0
  -28.1521   -1.6240   -7.2978 C   0  0  0  0  0  0  0  0  0  0  0  0
  -28.0106   -0.2106   -7.3565 C   0  0  0  0  0  0  0  0  0  0  0  0
  -27.9384    0.5861   -6.2143 C   0  0  0  0  0  0  0  0  0  0  0  0
  -28.0037   -0.0031   -4.9623 C   0  0  0  0  0  0  0  0  0  0  0  0
  -28.1521   -1.3871   -4.8573 C   0  0  0  0  0  0  0  0  0  0  0  0
  -28.2398   -2.2165   -6.0001 C   0  0  0  0  0  0  0  0  0  0  0  0
  -28.0193   -1.8809   -9.7596 N   0  0  0  0  0  0  0  0  0  0  0  0
  -28.7701   -1.2353   -9.9646 H   0  0  0  0  0  0  0  0  0  0  0  0
  -26.8945   -1.7583  -10.5060 C   0  0  0  0  0  0  0  0  0  0  0  0
  -25.6207   -1.6220  -10.1995 N   0  0  0  0  0  0  0  0  0  0  0  0
  -24.9398   -1.5246  -11.4014 C   0  0  0  0  0  0  0  0  0  0  0  0
  -23.5814   -1.3545  -11.6681 C   0  0  0  0  0  0  0  0  0  0  0  0
  -23.2305   -1.3044  -13.0109 C   0  0  0  0  0  0  0  0  0  0  0  0
  -24.0963   -1.4040  -14.0482 N   0  0  0  0  0  0  0  0  0  0  0  0
  -25.4158   -1.5672  -13.7873 C   0  0  0  0  0  0  0  0  0  0  0  0
  -25.8218   -1.6231  -12.4652 C   0  0  0  0  0  0  0  0  0  0  0  0
  -27.0434   -1.7808  -11.8744 N   0  0  0  0  0  0  0  0  0  0  0  0
  -27.9187   -1.9060  -12.3553 H   0  0  0  0  0  0  0  0  0  0  0  0
  -28.4645   -4.1946   -4.6232 O   0  0  0  0  0  0  0  0  0  0  0  0
  -30.1030   -5.9186   -4.1465 C   0  0  0  0  0  0  0  0  0  0  0  0
  -31.3569   -6.1887   -3.5480 C   0  0  0  0  0  0  0  0  0  0  0  0
  -32.1266   -5.1911   -2.9597 C   0  0  0  0  0  0  0  0  0  0  0  0
  -31.6502   -3.9034   -3.0121 C   0  0  0  0  0  0  0  0  0  0  0  0
  -30.4837   -3.5736   -3.5941 N   0  0  0  0  0  0  0  0  0  0  0  0
  -29.7079   -4.5704   -4.1092 C   0  0  0  0  0  0  0  0  0  0  0  0
  -27.2956   -8.1833   -4.6256 C   0  0  0  0  0  0  0  0  0  0  0  0
  -27.6246   -8.9816   -5.6426 N   0  0  0  0  0  0  0  0  0  0  0  0
  -28.8249   -8.7706   -6.2108 C   0  0  0  0  0  0  0  0  0  0  0  0
  -29.7211   -7.8169   -5.7868 C   0  0  0  0  0  0  0  0  0  0  0  0
  -29.3361   -7.0619   -4.7013 C   0  0  0  0  0  0  0  0  0  0  0  0
  -28.1212   -7.2589   -4.1201 N   0  0  0  0  0  0  0  0  0  0  0  0
  -25.2271   -9.4570   -4.5248 C   0  0  0  0  0  0  0  0  0  0  0  0
  -26.0012   -8.2981   -4.1675 N   0  0  0  0  0  0  0  0  0  0  0  0
  -25.5519   -7.3928   -4.1590 H   0  0  0  0  0  0  0  0  0  0  0  0
 36 37  1  0  0  0
 37 30  1  0  0  0
 37 38  1  0  0  0
 30 31  1  0  0  0
 30 35  2  0  0  0
 31 32  2  0  0  0
 32 33  1  0  0  0
 33 34  2  0  0  0
 34 24  1  0  0  0
 34 35  1  0  0  0
 24 25  1  0  0  0
 24 29  2  0  0  0
 25 26  2  0  0  0
 26 27  1  0  0  0
 27 28  2  0  0  0
 28 29  1  0  0  0
 29 23  1  0  0  0
 23  1  1  0  0  0
  1  2  1  0  0  0
  1 10  2  0  0  0
  2  3  2  0  0  0
  3  4  1  0  0  0
  4 11  1  0  0  0
  4  5  2  0  0  0
 11 13  1  0  0  0
 11 12  1  0  0  0
 13 14  2  0  0  0
 13 21  1  0  0  0
 14 15  1  0  0  0
 15 16  1  0  0  0
 15 20  2  0  0  0
 16 17  2  0  0  0
 17 18  1  0  0  0
 18 19  2  0  0  0
 19 20  1  0  0  0
 20 21  1  0  0  0
 21 22  1  0  0  0
  5  6  1  0  0  0
  5 10  1  0  0  0
  6  7  2  0  0  0
  7  8  1  0  0  0
  8  9  2  0  0  0
  9 10  1  0  0  0
M  END
> <minimizedAffinity>
-11.05915

$$$$
