CHEMBL449593


 35 39  0  0  0  0  0  0  0  0999 V2000
  -13.7324   -6.6497  -12.0724 C   0  0  0  0  0  0  0  0  0  0  0  0
  -13.3076   -6.6784  -13.4040 C   0  0  0  0  0  0  0  0  0  0  0  0
  -13.4325   -5.5515  -14.2434 C   0  0  0  0  0  0  0  0  0  0  0  0
  -14.0168   -4.3590  -13.7903 C   0  0  0  0  0  0  0  0  0  0  0  0
  -14.1428   -3.1092  -14.6139 C   0  0  0  0  0  0  0  0  0  0  0  0
  -13.6667   -3.1786  -15.9236 N   0  0  0  0  0  0  0  0  0  0  0  0
  -14.6422   -1.9882  -14.0309 C   0  0  0  0  0  0  0  0  0  0  0  0
  -15.1094   -2.0314  -12.5986 C   0  0  0  0  0  0  0  0  0  0  0  0
  -15.5292   -1.0352  -12.0062 O   0  0  0  0  0  0  0  0  0  0  0  0
  -15.0181   -3.2047  -11.9258 N   0  0  0  0  0  0  0  0  0  0  0  0
  -14.4674   -4.3582  -12.4674 C   0  0  0  0  0  0  0  0  0  0  0  0
  -14.3540   -5.4789  -11.6331 C   0  0  0  0  0  0  0  0  0  0  0  0
  -13.9553   -4.0254  -16.4058 H   0  0  0  0  0  0  0  0  0  0  0  0
  -13.9465   -2.3507  -16.4650 H   0  0  0  0  0  0  0  0  0  0  0  0
  -15.3153   -3.1817  -10.9600 H   0  0  0  0  0  0  0  0  0  0  0  0
  -14.6608   -0.7152  -14.7021 C   0  0  0  0  0  0  0  0  0  0  0  0
  -13.7273    0.0645  -15.2365 N   0  0  0  0  0  0  0  0  0  0  0  0
  -14.3762    1.2471  -15.5843 C   0  0  0  0  0  0  0  0  0  0  0  0
  -13.9069    2.4392  -16.1636 C   0  0  0  0  0  0  0  0  0  0  0  0
  -14.7722    3.5582  -16.2949 C   0  0  0  0  0  0  0  0  0  0  0  0
  -16.1102    3.4285  -15.8986 C   0  0  0  0  0  0  0  0  0  0  0  0
  -16.6202    2.2326  -15.3891 C   0  0  0  0  0  0  0  0  0  0  0  0
  -15.7166    1.1833  -15.2485 C   0  0  0  0  0  0  0  0  0  0  0  0
  -15.8831   -0.0844  -14.7869 N   0  0  0  0  0  0  0  0  0  0  0  0
  -16.7649   -0.5062  -14.5261 H   0  0  0  0  0  0  0  0  0  0  0  0
  -14.2493    4.7587  -16.7939 N   0  0  0  0  0  0  0  0  0  0  0  0
  -12.8216    5.0668  -16.5959 C   0  0  0  0  0  0  0  0  0  0  0  0
  -12.5804    6.5662  -16.9156 C   0  0  0  0  0  0  0  0  0  0  0  0
  -13.0121    6.9494  -18.2831 N   0  0  0  0  0  0  0  0  0  0  0  0
  -12.9034    8.3974  -18.4618 C   0  0  0  0  0  0  0  0  0  0  0  0
  -14.4133    6.5186  -18.5083 C   0  0  0  0  0  0  0  0  0  0  0  0
  -14.6548    5.0277  -18.1919 C   0  0  0  0  0  0  0  0  0  0  0  0
  -13.3606   -9.0571  -11.7445 C   0  0  0  0  0  0  0  0  0  0  0  0
  -13.6938   -7.7478  -11.2093 N   0  0  0  0  0  0  0  0  0  0  0  0
  -13.1700   -7.5455  -10.3622 H   0  0  0  0  0  0  0  0  0  0  0  0
 33 34  1  0  0  0
 34  1  1  0  0  0
 34 35  1  0  0  0
  1  2  1  0  0  0
  1 12  2  0  0  0
  2  3  2  0  0  0
  3  4  1  0  0  0
  4  5  1  0  0  0
  4 11  2  0  0  0
  5  6  1  0  0  0
  5  7  2  0  0  0
  6 13  1  0  0  0
  6 14  1  0  0  0
  7 16  1  0  0  0
  7  8  1  0  0  0
 16 17  2  0  0  0
 16 24  1  0  0  0
 17 18  1  0  0  0
 18 19  1  0  0  0
 18 23  2  0  0  0
 19 20  2  0  0  0
 20 26  1  0  0  0
 20 21  1  0  0  0
 26 27  1  0  0  0
 26 32  1  0  0  0
 27 28  1  0  0  0
 28 29  1  0  0  0
 29 30  1  0  0  0
 29 31  1  0  0  0
 31 32  1  0  0  0
 21 22  2  0  0  0
 22 23  1  0  0  0
 23 24  1  0  0  0
 24 25  1  0  0  0
  8  9  2  0  0  0
  8 10  1  0  0  0
 10 11  1  0  0  0
 10 15  1  0  0  0
 11 12  1  0  0  0
M  END
> <minimizedAffinity>
-6.97157

$$$$
