CHEMBL4460897


 34 37  0  0  0  0  0  0  0  0999 V2000
  -28.6092   -2.7976   -6.4798 C   0  0  0  0  0  0  0  0  0  0  0  0
  -29.1455   -1.6188   -5.9486 C   0  0  0  0  0  0  0  0  0  0  0  0
  -29.6437   -1.6100   -4.6423 C   0  0  0  0  0  0  0  0  0  0  0  0
  -29.6134   -2.7733   -3.8709 C   0  0  0  0  0  0  0  0  0  0  0  0
  -29.0550   -3.9390   -4.3894 C   0  0  0  0  0  0  0  0  0  0  0  0
  -28.5440   -3.9519   -5.6839 C   0  0  0  0  0  0  0  0  0  0  0  0
  -27.7432   -1.6825   -8.4769 N   0  0  0  0  0  0  0  0  0  0  0  0
  -28.0530   -2.8838   -7.8594 C   0  0  0  0  0  0  0  0  0  0  0  0
  -27.9377   -4.0028   -8.3507 O   0  0  0  0  0  0  0  0  0  0  0  0
  -27.9232   -0.8102   -7.9990 H   0  0  0  0  0  0  0  0  0  0  0  0
  -25.8887   -1.2427  -11.5061 N   0  0  0  0  0  0  0  0  0  0  0  0
  -25.9346   -1.3054  -10.1313 C   0  0  0  0  0  0  0  0  0  0  0  0
  -27.2250   -1.5788   -9.7600 C   0  0  0  0  0  0  0  0  0  0  0  0
  -27.8992   -1.7253  -10.9883 C   0  0  0  0  0  0  0  0  0  0  0  0
  -27.1076   -1.5231  -12.0453 N   0  0  0  0  0  0  0  0  0  0  0  0
  -21.4408    0.3111  -14.7867 C   0  0  0  0  0  0  0  0  0  0  0  0
  -22.5872   -0.1340  -13.9276 C   0  0  0  0  0  0  0  0  0  0  0  0
  -22.4906   -0.0848  -12.5348 C   0  0  0  0  0  0  0  0  0  0  0  0
  -23.5693   -0.4669  -11.7334 C   0  0  0  0  0  0  0  0  0  0  0  0
  -24.7677   -0.9027  -12.3163 C   0  0  0  0  0  0  0  0  0  0  0  0
  -24.8627   -0.9709  -13.7131 C   0  0  0  0  0  0  0  0  0  0  0  0
  -23.7795   -0.5825  -14.5110 C   0  0  0  0  0  0  0  0  0  0  0  0
  -29.0298   -5.1109   -3.5884 N   0  0  0  0  0  0  0  0  0  0  0  0
  -28.1268   -5.5318   -3.3776 H   0  0  0  0  0  0  0  0  0  0  0  0
  -30.2693   -6.2466   -3.7537 S   0  0  0  0  0  0  0  0  0  0  0  0
  -30.0494   -7.2499   -2.7336 O   0  0  0  0  0  0  0  0  0  0  0  0
  -31.5316   -5.5494   -3.8676 O   0  0  0  0  0  0  0  0  0  0  0  0
  -29.9116   -7.0182   -5.3187 C   0  0  0  0  0  0  0  0  0  0  0  0
  -30.8055   -6.8397   -6.3825 C   0  0  0  0  0  0  0  0  0  0  0  0
  -30.5658   -7.4843   -7.5975 C   0  0  0  0  0  0  0  0  0  0  0  0
  -29.4277   -8.2780   -7.7494 C   0  0  0  0  0  0  0  0  0  0  0  0
  -29.1455   -9.0859   -9.2413 Cl  0  0  0  0  0  0  0  0  0  0  0  0
  -28.5180   -8.4224   -6.7002 C   0  0  0  0  0  0  0  0  0  0  0  0
  -28.7571   -7.7902   -5.4771 C   0  0  0  0  0  0  0  0  0  0  0  0
 16 17  1  0  0  0
 17 18  1  0  0  0
 17 22  2  0  0  0
 18 19  2  0  0  0
 19 20  1  0  0  0
 20 11  1  0  0  0
 20 21  2  0  0  0
 11 12  1  0  0  0
 11 15  1  0  0  0
 12 13  2  0  0  0
 13  7  1  0  0  0
 13 14  1  0  0  0
  7  8  1  0  0  0
  7 10  1  0  0  0
  8  9  2  0  0  0
  8  1  1  0  0  0
  1  2  1  0  0  0
  1  6  2  0  0  0
  2  3  2  0  0  0
  3  4  1  0  0  0
  4  5  2  0  0  0
  5 23  1  0  0  0
  5  6  1  0  0  0
 23 25  1  0  0  0
 23 24  1  0  0  0
 25 26  2  0  0  0
 25 27  2  0  0  0
 25 28  1  0  0  0
 28 29  1  0  0  0
 28 34  2  0  0  0
 29 30  2  0  0  0
 30 31  1  0  0  0
 31 32  1  0  0  0
 31 33  2  0  0  0
 33 34  1  0  0  0
 14 15  2  0  0  0
 21 22  1  0  0  0
M  END
> <minimizedAffinity>
-10.45212

$$$$
