CHEMBL3109348


 34 38  0  0  0  0  0  0  0  0999 V2000
  -29.3350   -7.8140   -4.2794 C   0  0  0  0  0  0  0  0  0  0  0  0
  -28.6041   -8.2793   -3.1988 C   0  0  0  0  0  0  0  0  0  0  0  0
  -27.9697   -9.5072   -3.3104 C   0  0  0  0  0  0  0  0  0  0  0  0
  -28.0626  -10.2347   -4.4995 C   0  0  0  0  0  0  0  0  0  0  0  0
  -27.3887  -11.4577   -4.6260 C   0  0  0  0  0  0  0  0  0  0  0  0
  -27.4329  -12.1613   -5.8211 C   0  0  0  0  0  0  0  0  0  0  0  0
  -28.1907  -11.6713   -6.8793 C   0  0  0  0  0  0  0  0  0  0  0  0
  -28.9348  -10.4901   -6.7353 C   0  0  0  0  0  0  0  0  0  0  0  0
  -28.8397   -9.7133   -5.5604 C   0  0  0  0  0  0  0  0  0  0  0  0
  -29.4663   -8.5155   -5.4281 N   0  0  0  0  0  0  0  0  0  0  0  0
  -28.6721   -2.6013   -4.3483 C   0  0  0  0  0  0  0  0  0  0  0  0
  -27.6452   -3.6410   -4.3382 C   0  0  0  0  0  0  0  0  0  0  0  0
  -28.0096   -4.9310   -4.2925 C   0  0  0  0  0  0  0  0  0  0  0  0
  -29.3607   -5.2729   -4.2506 N   0  0  0  0  0  0  0  0  0  0  0  0
  -29.9877   -6.5097   -4.2358 C   0  0  0  0  0  0  0  0  0  0  0  0
  -31.3389   -6.2006   -4.2029 C   0  0  0  0  0  0  0  0  0  0  0  0
  -31.5668   -4.8527   -4.2235 N   0  0  0  0  0  0  0  0  0  0  0  0
  -30.3708   -4.3089   -4.2571 C   0  0  0  0  0  0  0  0  0  0  0  0
  -29.9779   -2.9420   -4.3097 C   0  0  0  0  0  0  0  0  0  0  0  0
  -28.3329   -1.2619   -4.4062 O   0  0  0  0  0  0  0  0  0  0  0  0
  -27.3811   -0.8581   -5.3881 C   0  0  0  0  0  0  0  0  0  0  0  0
  -28.0134   -0.9107   -6.7712 C   0  0  0  0  0  0  0  0  0  0  0  0
  -28.2467   -2.8723   -8.0569 C   0  0  0  0  0  0  0  0  0  0  0  0
  -27.3404   -1.9120   -7.5354 O   0  0  0  0  0  0  0  0  0  0  0  0
  -29.7878  -10.0212   -7.7143 O   0  0  0  0  0  0  0  0  0  0  0  0
  -29.2234   -9.4353   -8.8995 C   0  0  0  0  0  0  0  0  0  0  0  0
  -27.7543   -9.0258   -8.7040 C   0  0  0  0  0  0  0  0  0  0  0  0
  -27.1491   -8.4952  -10.0000 C   0  0  0  0  0  0  0  0  0  0  0  0
  -27.2159   -9.5532  -11.1026 C   0  0  0  0  0  0  0  0  0  0  0  0
  -26.6542   -9.0076  -12.3361 N   0  0  0  0  0  0  0  0  0  0  0  0
  -28.6575  -10.0309  -11.3177 C   0  0  0  0  0  0  0  0  0  0  0  0
  -29.3056  -10.4963  -10.0113 C   0  0  0  0  0  0  0  0  0  0  0  0
  -27.2138   -8.2209  -12.6629 H   0  0  0  0  0  0  0  0  0  0  0  0
  -26.6937   -9.7096  -13.0744 H   0  0  0  0  0  0  0  0  0  0  0  0
 23 24  1  0  0  0
 24 22  1  0  0  0
 22 21  1  0  0  0
 21 20  1  0  0  0
 20 11  1  0  0  0
 11 12  1  0  0  0
 11 19  2  0  0  0
 12 13  2  0  0  0
 13 14  1  0  0  0
 14 15  1  0  0  0
 14 18  1  0  0  0
 15  1  1  0  0  0
 15 16  2  0  0  0
  1  2  1  0  0  0
  1 10  2  0  0  0
  2  3  2  0  0  0
  3  4  1  0  0  0
  4  5  1  0  0  0
  4  9  2  0  0  0
  5  6  2  0  0  0
  6  7  1  0  0  0
  7  8  2  0  0  0
  8 25  1  0  0  0
  8  9  1  0  0  0
 26 27  1  0  0  0
 26 32  1  0  0  0
 26 25  1  0  0  0
 27 28  1  0  0  0
 28 29  1  0  0  0
 29 30  1  0  0  0
 29 31  1  0  0  0
 30 33  1  0  0  0
 30 34  1  0  0  0
 31 32  1  0  0  0
  9 10  1  0  0  0
 16 17  1  0  0  0
 17 18  2  0  0  0
 18 19  1  0  0  0
M  END
> <minimizedAffinity>
-8.03432

$$$$
