CHEMBL1794073


 33 36  0  0  0  0  0  0  0  0999 V2000
  -29.7807   -6.0760   -4.1889 C   0  0  0  0  0  0  0  0  0  0  0  0
  -31.1344   -5.8137   -3.8972 C   0  0  0  0  0  0  0  0  0  0  0  0
  -31.5307   -4.5071   -3.6458 C   0  0  0  0  0  0  0  0  0  0  0  0
  -30.6113   -3.5158   -3.6336 N   0  0  0  0  0  0  0  0  0  0  0  0
  -29.3066   -3.7600   -3.9181 C   0  0  0  0  0  0  0  0  0  0  0  0
  -28.9053   -5.0251   -4.2221 N   0  0  0  0  0  0  0  0  0  0  0  0
  -29.2973   -7.4227   -4.3749 N   0  0  0  0  0  0  0  0  0  0  0  0
  -29.0149   -8.2297   -3.1901 C   0  0  0  0  0  0  0  0  0  0  0  0
  -29.3061   -9.9303  -10.6036 C   0  0  0  0  0  0  0  0  0  0  0  0
  -28.5083   -9.8056   -9.3507 C   0  0  0  0  0  0  0  0  0  0  0  0
  -27.3103  -10.3936   -9.1199 N   0  0  0  0  0  0  0  0  0  0  0  0
  -26.9326  -10.0790   -7.8824 N   0  0  0  0  0  0  0  0  0  0  0  0
  -25.6826  -10.5329   -7.2828 C   0  0  0  0  0  0  0  0  0  0  0  0
  -27.8830   -9.2995   -7.3204 C   0  0  0  0  0  0  0  0  0  0  0  0
  -27.9509   -8.7530   -6.0347 C   0  0  0  0  0  0  0  0  0  0  0  0
  -29.0956   -7.9631   -5.6978 C   0  0  0  0  0  0  0  0  0  0  0  0
  -30.0956   -7.7568   -6.6939 C   0  0  0  0  0  0  0  0  0  0  0  0
  -29.9922   -8.3292   -7.9643 C   0  0  0  0  0  0  0  0  0  0  0  0
  -28.8758   -9.0997   -8.2327 C   0  0  0  0  0  0  0  0  0  0  0  0
  -28.3722   -2.6900   -3.8694 N   0  0  0  0  0  0  0  0  0  0  0  0
  -27.8361   -2.5280   -3.0029 H   0  0  0  0  0  0  0  0  0  0  0  0
  -28.2370   -1.7769   -4.9564 C   0  0  0  0  0  0  0  0  0  0  0  0
  -28.5336   -0.4168   -4.7884 C   0  0  0  0  0  0  0  0  0  0  0  0
  -28.4272    0.4657   -5.8722 C   0  0  0  0  0  0  0  0  0  0  0  0
  -28.0693   -0.0103   -7.1355 C   0  0  0  0  0  0  0  0  0  0  0  0
  -27.8054   -1.3705   -7.3211 C   0  0  0  0  0  0  0  0  0  0  0  0
  -27.8719   -2.2439   -6.2355 C   0  0  0  0  0  0  0  0  0  0  0  0
  -27.4759   -1.9998   -8.9651 S   0  0  0  0  0  0  0  0  0  0  0  0
  -27.4052   -3.7591   -9.0670 N   0  0  0  0  0  0  0  0  0  0  0  0
  -28.4841   -1.5662  -10.0388 O   0  0  0  0  0  0  0  0  0  0  0  0
  -26.1339   -1.5307   -9.5512 O   0  0  0  0  0  0  0  0  0  0  0  0
  -28.3279   -4.1243   -8.7407 H   0  0  0  0  0  0  0  0  0  0  0  0
  -26.6856   -4.0781   -8.3789 H   0  0  0  0  0  0  0  0  0  0  0  0
  9 10  1  0  0  0
 10 11  2  0  0  0
 10 19  1  0  0  0
 11 12  1  0  0  0
 12 13  1  0  0  0
 12 14  1  0  0  0
 14 15  1  0  0  0
 14 19  2  0  0  0
 15 16  2  0  0  0
 16  7  1  0  0  0
 16 17  1  0  0  0
  7  8  1  0  0  0
  7  1  1  0  0  0
  1  2  1  0  0  0
  1  6  2  0  0  0
  2  3  2  0  0  0
  3  4  1  0  0  0
  4  5  2  0  0  0
  5 20  1  0  0  0
  5  6  1  0  0  0
 20 22  1  0  0  0
 20 21  1  0  0  0
 22 23  1  0  0  0
 22 27  2  0  0  0
 23 24  2  0  0  0
 24 25  1  0  0  0
 25 26  2  0  0  0
 26 28  1  0  0  0
 26 27  1  0  0  0
 28 29  1  0  0  0
 28 30  2  0  0  0
 28 31  2  0  0  0
 29 32  1  0  0  0
 29 33  1  0  0  0
 17 18  2  0  0  0
 18 19  1  0  0  0
M  END
> <minimizedAffinity>
-8.82433

$$$$
