CHEMBL271955


 35 38  0  0  0  0  0  0  0  0999 V2000
  -22.7994   -0.4918  -13.5382 C   0  0  0  0  0  0  0  0  0  0  0  0
  -22.6733   -0.9767  -12.2365 C   0  0  0  0  0  0  0  0  0  0  0  0
  -23.7482   -1.5604  -11.5638 C   0  0  0  0  0  0  0  0  0  0  0  0
  -24.9758   -1.7590  -12.1943 C   0  0  0  0  0  0  0  0  0  0  0  0
  -25.0963   -1.3729  -13.5308 C   0  0  0  0  0  0  0  0  0  0  0  0
  -24.0264   -0.7336  -14.1861 C   0  0  0  0  0  0  0  0  0  0  0  0
  -23.4860    2.8265  -13.1929 N   0  0  0  0  0  0  0  0  0  0  0  0
  -22.3047    2.7991  -13.8376 C   0  0  0  0  0  0  0  0  0  0  0  0
  -21.6614    3.9244  -14.1556 N   0  0  0  0  0  0  0  0  0  0  0  0
  -20.5182    3.5361  -14.8121 O   0  0  0  0  0  0  0  0  0  0  0  0
  -20.4631    2.1865  -14.8732 C   0  0  0  0  0  0  0  0  0  0  0  0
  -19.4348    1.4664  -15.4652 C   0  0  0  0  0  0  0  0  0  0  0  0
  -19.5321    0.0802  -15.4237 C   0  0  0  0  0  0  0  0  0  0  0  0
  -20.6257   -0.5311  -14.8013 C   0  0  0  0  0  0  0  0  0  0  0  0
  -21.6813    0.2051  -14.1992 C   0  0  0  0  0  0  0  0  0  0  0  0
  -21.5801    1.6300  -14.2518 C   0  0  0  0  0  0  0  0  0  0  0  0
  -23.9236    3.7311  -13.0541 H   0  0  0  0  0  0  0  0  0  0  0  0
  -24.1452    2.0592  -13.2526 H   0  0  0  0  0  0  0  0  0  0  0  0
  -26.0796   -2.3702  -11.5484 N   0  0  0  0  0  0  0  0  0  0  0  0
  -26.5590   -2.0030  -10.3032 C   0  0  0  0  0  0  0  0  0  0  0  0
  -26.1911   -1.0106   -9.6837 O   0  0  0  0  0  0  0  0  0  0  0  0
  -27.4596   -2.9278   -9.7913 N   0  0  0  0  0  0  0  0  0  0  0  0
  -26.6782   -2.9607  -12.1065 H   0  0  0  0  0  0  0  0  0  0  0  0
  -27.2920   -3.8799  -10.0845 H   0  0  0  0  0  0  0  0  0  0  0  0
  -27.9932   -2.7477   -8.4940 C   0  0  0  0  0  0  0  0  0  0  0  0
  -27.6251   -1.6612   -7.6928 C   0  0  0  0  0  0  0  0  0  0  0  0
  -28.0634   -1.5606   -6.3687 C   0  0  0  0  0  0  0  0  0  0  0  0
  -28.9117   -2.5304   -5.8463 C   0  0  0  0  0  0  0  0  0  0  0  0
  -29.2825   -3.6153   -6.6499 C   0  0  0  0  0  0  0  0  0  0  0  0
  -28.8526   -3.7125   -7.9774 C   0  0  0  0  0  0  0  0  0  0  0  0
  -29.4013   -2.5717   -4.5780 O   0  0  0  0  0  0  0  0  0  0  0  0
  -28.8026   -3.4366   -3.6241 C   0  0  0  0  0  0  0  0  0  0  0  0
  -27.5547   -3.8361   -3.9464 F   0  0  0  0  0  0  0  0  0  0  0  0
  -28.7263   -2.7742   -2.4467 F   0  0  0  0  0  0  0  0  0  0  0  0
  -29.5812   -4.5244   -3.4431 F   0  0  0  0  0  0  0  0  0  0  0  0
  7  8  1  0  0  0
  7 17  1  0  0  0
  7 18  1  0  0  0
  8  9  2  0  0  0
  8 16  1  0  0  0
  9 10  1  0  0  0
 10 11  1  0  0  0
 11 12  1  0  0  0
 11 16  2  0  0  0
 12 13  2  0  0  0
 13 14  1  0  0  0
 14 15  2  0  0  0
 15  1  1  0  0  0
 15 16  1  0  0  0
  1  2  1  0  0  0
  1  6  2  0  0  0
  2  3  2  0  0  0
  3  4  1  0  0  0
  4 19  1  0  0  0
  4  5  2  0  0  0
 19 20  1  0  0  0
 19 23  1  0  0  0
 20 21  2  0  0  0
 20 22  1  0  0  0
 22 25  1  0  0  0
 22 24  1  0  0  0
 25 26  1  0  0  0
 25 30  2  0  0  0
 26 27  2  0  0  0
 27 28  1  0  0  0
 28 31  1  0  0  0
 28 29  2  0  0  0
 31 32  1  0  0  0
 32 33  1  0  0  0
 32 34  1  0  0  0
 32 35  1  0  0  0
 29 30  1  0  0  0
  5  6  1  0  0  0
M  END
> <minimizedAffinity>
-10.93456

$$$$
