CHEMBL3694711


 39 42  0  0  0  0  0  0  0  0999 V2000
  -30.1981   -7.8193   -7.3046 C   0  0  0  0  0  0  0  0  0  0  0  0
  -29.1924   -6.8530   -7.7695 C   0  0  0  0  0  0  0  0  0  0  0  0
  -28.9802   -5.7139   -7.0939 C   0  0  0  0  0  0  0  0  0  0  0  0
  -29.7552   -5.4121   -5.9709 N   0  0  0  0  0  0  0  0  0  0  0  0
  -29.8000   -4.2749   -5.1590 C   0  0  0  0  0  0  0  0  0  0  0  0
  -30.7164   -4.6142   -4.1751 C   0  0  0  0  0  0  0  0  0  0  0  0
  -31.2687   -5.8516   -4.3797 N   0  0  0  0  0  0  0  0  0  0  0  0
  -30.7075   -6.3029   -5.4796 C   0  0  0  0  0  0  0  0  0  0  0  0
  -30.9146   -7.5230   -6.1917 C   0  0  0  0  0  0  0  0  0  0  0  0
  -32.4991  -11.9657   -7.7041 N   0  0  0  0  0  0  0  0  0  0  0  0
  -31.4970  -11.1221   -8.1720 C   0  0  0  0  0  0  0  0  0  0  0  0
  -30.6079  -11.5641   -9.1235 C   0  0  0  0  0  0  0  0  0  0  0  0
  -29.6084  -10.6876   -9.4998 C   0  0  0  0  0  0  0  0  0  0  0  0
  -29.5008   -9.4570   -8.9389 N   0  0  0  0  0  0  0  0  0  0  0  0
  -30.3987   -9.1252   -7.9931 C   0  0  0  0  0  0  0  0  0  0  0  0
  -31.4069   -9.9196   -7.5975 N   0  0  0  0  0  0  0  0  0  0  0  0
  -33.0450  -12.3905   -8.4446 H   0  0  0  0  0  0  0  0  0  0  0  0
  -33.0794  -11.4406   -7.0536 H   0  0  0  0  0  0  0  0  0  0  0  0
  -28.5926  -11.1035  -10.5489 C   0  0  0  0  0  0  0  0  0  0  0  0
  -28.2964  -12.4369  -10.5138 F   0  0  0  0  0  0  0  0  0  0  0  0
  -29.0155  -10.8602  -11.8218 F   0  0  0  0  0  0  0  0  0  0  0  0
  -27.3972  -10.4618  -10.4184 F   0  0  0  0  0  0  0  0  0  0  0  0
  -29.0853   -3.0056   -5.3817 C   0  0  0  0  0  0  0  0  0  0  0  0
  -28.6519   -2.2567   -4.2777 C   0  0  0  0  0  0  0  0  0  0  0  0
  -28.0072   -1.0410   -4.4463 C   0  0  0  0  0  0  0  0  0  0  0  0
  -27.7037   -0.5911   -5.7212 C   0  0  0  0  0  0  0  0  0  0  0  0
  -28.0200   -1.3482   -6.8525 C   0  0  0  0  0  0  0  0  0  0  0  0
  -28.7461   -2.5425   -6.6751 C   0  0  0  0  0  0  0  0  0  0  0  0
  -27.6146   -0.9529   -8.1575 N   0  0  0  0  0  0  0  0  0  0  0  0
  -27.2213   -1.8129   -9.1703 C   0  0  0  0  0  0  0  0  0  0  0  0
  -27.1537   -3.0322   -9.1155 O   0  0  0  0  0  0  0  0  0  0  0  0
  -26.8318   -1.1608  -10.3172 N   0  0  0  0  0  0  0  0  0  0  0  0
  -27.6600    0.0294   -8.3727 H   0  0  0  0  0  0  0  0  0  0  0  0
  -27.2587   -0.2693  -10.5206 H   0  0  0  0  0  0  0  0  0  0  0  0
  -26.3991   -1.9882  -11.4561 C   0  0  0  0  0  0  0  0  0  0  0  0
  -25.1232   -1.5414  -12.1889 C   0  0  0  0  0  0  0  0  0  0  0  0
  -24.0265   -2.2112  -11.7676 F   0  0  0  0  0  0  0  0  0  0  0  0
  -25.2470   -1.7927  -13.5179 F   0  0  0  0  0  0  0  0  0  0  0  0
  -24.8872   -0.2192  -12.0566 F   0  0  0  0  0  0  0  0  0  0  0  0
 10 11  1  0  0  0
 10 17  1  0  0  0
 10 18  1  0  0  0
 11 12  1  0  0  0
 11 16  2  0  0  0
 12 13  2  0  0  0
 13 19  1  0  0  0
 13 14  1  0  0  0
 19 20  1  0  0  0
 19 21  1  0  0  0
 19 22  1  0  0  0
 14 15  2  0  0  0
 15  1  1  0  0  0
 15 16  1  0  0  0
  1  2  1  0  0  0
  1  9  2  0  0  0
  2  3  2  0  0  0
  3  4  1  0  0  0
  4  5  1  0  0  0
  4  8  1  0  0  0
  5 23  1  0  0  0
  5  6  2  0  0  0
 23 24  1  0  0  0
 23 28  2  0  0  0
 24 25  2  0  0  0
 25 26  1  0  0  0
 26 27  2  0  0  0
 27 29  1  0  0  0
 27 28  1  0  0  0
 29 30  1  0  0  0
 29 33  1  0  0  0
 30 31  2  0  0  0
 30 32  1  0  0  0
 32 35  1  0  0  0
 32 34  1  0  0  0
 35 36  1  0  0  0
 36 37  1  0  0  0
 36 38  1  0  0  0
 36 39  1  0  0  0
  6  7  1  0  0  0
  7  8  2  0  0  0
  8  9  1  0  0  0
M  END
> <minimizedAffinity>
-10.51509

$$$$
