CHEMBL3919314


 51 55  0  0  0  0  0  0  0  0999 V2000
  -19.8478    1.7037  -14.7881 C   0  0  0  0  0  0  0  0  0  0  0  0
  -19.8282    3.1710  -15.0067 C   0  0  0  0  0  0  0  0  0  0  0  0
  -18.6939    3.7084  -15.4684 C   0  0  0  0  0  0  0  0  0  0  0  0
  -17.5946    2.8630  -15.7239 C   0  0  0  0  0  0  0  0  0  0  0  0
  -16.3884    3.1461  -16.1567 N   0  0  0  0  0  0  0  0  0  0  0  0
  -15.7491    1.9430  -16.2500 C   0  0  0  0  0  0  0  0  0  0  0  0
  -16.5673    0.9110  -15.8507 C   0  0  0  0  0  0  0  0  0  0  0  0
  -17.7580    1.5045  -15.5021 N   0  0  0  0  0  0  0  0  0  0  0  0
  -18.8801    0.8704  -15.0217 N   0  0  0  0  0  0  0  0  0  0  0  0
  -14.4542    1.8441  -16.6896 N   0  0  0  0  0  0  0  0  0  0  0  0
  -13.3838    2.6211  -16.3244 C   0  0  0  0  0  0  0  0  0  0  0  0
  -12.2962    2.3852  -16.8496 O   0  0  0  0  0  0  0  0  0  0  0  0
  -13.6184    3.5873  -15.3788 N   0  0  0  0  0  0  0  0  0  0  0  0
  -14.2306    1.1317  -17.3696 H   0  0  0  0  0  0  0  0  0  0  0  0
  -14.5288    3.5268  -14.9216 H   0  0  0  0  0  0  0  0  0  0  0  0
  -12.6930    4.4997  -14.8356 C   0  0  0  0  0  0  0  0  0  0  0  0
  -12.6063    5.8275  -15.2561 C   0  0  0  0  0  0  0  0  0  0  0  0
  -11.6012    6.6795  -14.7677 C   0  0  0  0  0  0  0  0  0  0  0  0
  -10.6965    6.1927  -13.8104 C   0  0  0  0  0  0  0  0  0  0  0  0
  -10.8114    4.8844  -13.3384 C   0  0  0  0  0  0  0  0  0  0  0  0
  -11.8091    4.0533  -13.8458 C   0  0  0  0  0  0  0  0  0  0  0  0
  -11.8827    2.7896  -13.3981 F   0  0  0  0  0  0  0  0  0  0  0  0
  -11.4768    8.0867  -15.2994 C   0  0  0  0  0  0  0  0  0  0  0  0
  -12.6672    8.7326  -15.4381 F   0  0  0  0  0  0  0  0  0  0  0  0
  -10.7143    8.8812  -14.4981 F   0  0  0  0  0  0  0  0  0  0  0  0
  -10.8888    8.1215  -16.5276 F   0  0  0  0  0  0  0  0  0  0  0  0
  -21.9768    0.4467  -13.8259 C   0  0  0  0  0  0  0  0  0  0  0  0
  -21.0376    1.0641  -14.2609 C   0  0  0  0  0  0  0  0  0  0  0  0
  -25.1424   -1.7429  -11.9611 C   0  0  0  0  0  0  0  0  0  0  0  0
  -24.0762   -2.4109  -12.5713 C   0  0  0  0  0  0  0  0  0  0  0  0
  -23.0455   -1.6972  -13.2129 C   0  0  0  0  0  0  0  0  0  0  0  0
  -23.0710   -0.3011  -13.2622 C   0  0  0  0  0  0  0  0  0  0  0  0
  -24.1696    0.3648  -12.7179 C   0  0  0  0  0  0  0  0  0  0  0  0
  -25.2012   -0.3494  -12.0830 C   0  0  0  0  0  0  0  0  0  0  0  0
  -26.0060   -1.1680   -9.2332 O   0  0  0  0  0  0  0  0  0  0  0  0
  -26.5344   -2.0437   -9.9037 C   0  0  0  0  0  0  0  0  0  0  0  0
  -26.1526   -2.3821  -11.1942 N   0  0  0  0  0  0  0  0  0  0  0  0
  -27.6138   -2.8072   -9.4673 N   0  0  0  0  0  0  0  0  0  0  0  0
  -26.7975   -2.9668  -11.7048 H   0  0  0  0  0  0  0  0  0  0  0  0
  -27.7422   -3.7166   -9.8933 H   0  0  0  0  0  0  0  0  0  0  0  0
  -28.3138   -2.6063   -8.2465 C   0  0  0  0  0  0  0  0  0  0  0  0
  -28.4116   -1.3604   -7.6183 C   0  0  0  0  0  0  0  0  0  0  0  0
  -29.0275   -1.2204   -6.3605 C   0  0  0  0  0  0  0  0  0  0  0  0
  -29.6016   -2.3478   -5.7528 C   0  0  0  0  0  0  0  0  0  0  0  0
  -29.5663   -3.5854   -6.3973 C   0  0  0  0  0  0  0  0  0  0  0  0
  -28.9299   -3.7038   -7.6336 C   0  0  0  0  0  0  0  0  0  0  0  0
  -28.8840   -4.9081   -8.2248 F   0  0  0  0  0  0  0  0  0  0  0  0
  -29.0394    0.1175   -5.6572 C   0  0  0  0  0  0  0  0  0  0  0  0
  -28.2740    1.0661   -6.2632 F   0  0  0  0  0  0  0  0  0  0  0  0
  -30.2904    0.6483   -5.5706 F   0  0  0  0  0  0  0  0  0  0  0  0
  -28.5818    0.0305   -4.3773 F   0  0  0  0  0  0  0  0  0  0  0  0
 35 36  2  0  0  0
 36 37  1  0  0  0
 36 38  1  0  0  0
 37 29  1  0  0  0
 37 39  1  0  0  0
 29 30  1  0  0  0
 29 34  2  0  0  0
 30 31  2  0  0  0
 31 32  1  0  0  0
 32 27  1  0  0  0
 32 33  2  0  0  0
 27 28  3  0  0  0
 28  1  1  0  0  0
  1  2  1  0  0  0
  1  9  2  0  0  0
  2  3  2  0  0  0
  3  4  1  0  0  0
  4  5  2  0  0  0
  4  8  1  0  0  0
  5  6  1  0  0  0
  6 10  1  0  0  0
  6  7  2  0  0  0
 10 11  1  0  0  0
 10 14  1  0  0  0
 11 12  2  0  0  0
 11 13  1  0  0  0
 13 16  1  0  0  0
 13 15  1  0  0  0
 16 17  1  0  0  0
 16 21  2  0  0  0
 17 18  2  0  0  0
 18 23  1  0  0  0
 18 19  1  0  0  0
 23 24  1  0  0  0
 23 25  1  0  0  0
 23 26  1  0  0  0
 19 20  2  0  0  0
 20 21  1  0  0  0
 21 22  1  0  0  0
  7  8  1  0  0  0
  8  9  1  0  0  0
 33 34  1  0  0  0
 38 41  1  0  0  0
 38 40  1  0  0  0
 41 42  1  0  0  0
 41 46  2  0  0  0
 42 43  2  0  0  0
 43 48  1  0  0  0
 43 44  1  0  0  0
 48 49  1  0  0  0
 48 50  1  0  0  0
 48 51  1  0  0  0
 44 45  2  0  0  0
 45 46  1  0  0  0
 46 47  1  0  0  0
M  END
> <minimizedAffinity>
-12.59955

$$$$
