CHEMBL3690405


 36 40  0  0  0  0  0  0  0  0999 V2000
  -28.7057   -7.7956   -4.1213 C   0  0  0  0  0  0  0  0  0  0  0  0
  -27.9304   -7.0329   -5.1150 C   0  0  0  0  0  0  0  0  0  0  0  0
  -28.4294   -5.9151   -5.6598 C   0  0  0  0  0  0  0  0  0  0  0  0
  -29.5281   -5.3139   -5.0613 N   0  0  0  0  0  0  0  0  0  0  0  0
  -29.9893   -4.0097   -5.1644 C   0  0  0  0  0  0  0  0  0  0  0  0
  -31.0744   -3.9832   -4.2983 C   0  0  0  0  0  0  0  0  0  0  0  0
  -31.2418   -5.1697   -3.6321 N   0  0  0  0  0  0  0  0  0  0  0  0
  -30.2595   -5.9350   -4.0521 C   0  0  0  0  0  0  0  0  0  0  0  0
  -29.8410   -7.2349   -3.6318 C   0  0  0  0  0  0  0  0  0  0  0  0
  -29.3636   -2.8943   -5.8967 C   0  0  0  0  0  0  0  0  0  0  0  0
  -29.4883   -1.5991   -5.3871 C   0  0  0  0  0  0  0  0  0  0  0  0
  -28.8379   -0.5294   -5.9982 C   0  0  0  0  0  0  0  0  0  0  0  0
  -28.0524   -0.7349   -7.1289 C   0  0  0  0  0  0  0  0  0  0  0  0
  -27.8971   -2.0109   -7.6678 C   0  0  0  0  0  0  0  0  0  0  0  0
  -28.5590   -3.0859   -7.0439 C   0  0  0  0  0  0  0  0  0  0  0  0
  -27.0977   -2.2724   -8.8050 N   0  0  0  0  0  0  0  0  0  0  0  0
  -27.3173   -1.8099  -10.0935 C   0  0  0  0  0  0  0  0  0  0  0  0
  -28.2160   -1.0828  -10.4756 O   0  0  0  0  0  0  0  0  0  0  0  0
  -26.4163   -2.3529  -10.9891 N   0  0  0  0  0  0  0  0  0  0  0  0
  -26.2924   -2.8666   -8.6767 H   0  0  0  0  0  0  0  0  0  0  0  0
  -25.4803   -2.5064  -10.6480 H   0  0  0  0  0  0  0  0  0  0  0  0
  -26.5390   -1.9628  -12.4033 C   0  0  0  0  0  0  0  0  0  0  0  0
  -25.2664   -1.4137  -13.0688 C   0  0  0  0  0  0  0  0  0  0  0  0
  -24.8747   -0.2373  -12.5267 F   0  0  0  0  0  0  0  0  0  0  0  0
  -24.2430   -2.2866  -12.8850 F   0  0  0  0  0  0  0  0  0  0  0  0
  -25.4104   -1.2409  -14.3984 F   0  0  0  0  0  0  0  0  0  0  0  0
  -27.0473  -10.9098   -3.3304 N   0  0  0  0  0  0  0  0  0  0  0  0
  -27.0073   -9.5479   -3.4979 C   0  0  0  0  0  0  0  0  0  0  0  0
  -28.2852   -9.1348   -3.7968 C   0  0  0  0  0  0  0  0  0  0  0  0
  -29.0356  -10.3320   -3.7641 C   0  0  0  0  0  0  0  0  0  0  0  0
  -28.2872  -11.4099   -3.4958 N   0  0  0  0  0  0  0  0  0  0  0  0
  -22.9043  -11.6617   -4.3886 C   0  0  0  0  0  0  0  0  0  0  0  0
  -24.2950  -11.2600   -4.2261 N   0  0  0  0  0  0  0  0  0  0  0  0
  -24.6178  -11.0104   -2.8022 C   0  0  0  0  0  0  0  0  0  0  0  0
  -25.9459  -11.7874   -2.9978 C   0  0  0  0  0  0  0  0  0  0  0  0
  -25.2041  -12.4284   -4.1980 C   0  0  0  0  0  0  0  0  0  0  0  0
 32 33  1  0  0  0
 33 34  1  0  0  0
 33 36  1  0  0  0
 34 35  1  0  0  0
 35 27  1  0  0  0
 35 36  1  0  0  0
 27 28  1  0  0  0
 27 31  1  0  0  0
 28 29  2  0  0  0
 29  1  1  0  0  0
 29 30  1  0  0  0
  1  2  1  0  0  0
  1  9  2  0  0  0
  2  3  2  0  0  0
  3  4  1  0  0  0
  4  5  1  0  0  0
  4  8  1  0  0  0
  5 10  1  0  0  0
  5  6  2  0  0  0
 10 11  1  0  0  0
 10 15  2  0  0  0
 11 12  2  0  0  0
 12 13  1  0  0  0
 13 14  2  0  0  0
 14 16  1  0  0  0
 14 15  1  0  0  0
 16 17  1  0  0  0
 16 20  1  0  0  0
 17 18  2  0  0  0
 17 19  1  0  0  0
 19 22  1  0  0  0
 19 21  1  0  0  0
 22 23  1  0  0  0
 23 24  1  0  0  0
 23 25  1  0  0  0
 23 26  1  0  0  0
  6  7  1  0  0  0
  7  8  2  0  0  0
  8  9  1  0  0  0
 30 31  2  0  0  0
M  END
> <minimizedAffinity>
-9.68743

$$$$
