CHEMBL4585626


 38 42  0  0  0  0  0  0  0  0999 V2000
  -28.9566   -3.6932   -7.3364 C   0  0  0  0  0  0  0  0  0  0  0  0
  -29.8380   -4.0644   -6.3144 C   0  0  0  0  0  0  0  0  0  0  0  0
  -30.0063   -5.4077   -5.9730 C   0  0  0  0  0  0  0  0  0  0  0  0
  -29.2979   -6.4091   -6.6538 C   0  0  0  0  0  0  0  0  0  0  0  0
  -28.4462   -6.0402   -7.6963 C   0  0  0  0  0  0  0  0  0  0  0  0
  -28.2539   -4.6937   -8.0166 C   0  0  0  0  0  0  0  0  0  0  0  0
  -29.4675   -7.7827   -6.2942 N   0  0  0  0  0  0  0  0  0  0  0  0
  -30.4550   -8.6050   -6.7871 C   0  0  0  0  0  0  0  0  0  0  0  0
  -30.3284   -9.8636   -6.2749 C   0  0  0  0  0  0  0  0  0  0  0  0
  -29.2565   -9.8635   -5.3958 C   0  0  0  0  0  0  0  0  0  0  0  0
  -28.7953  -10.8878   -4.6559 N   0  0  0  0  0  0  0  0  0  0  0  0
  -27.7571  -10.5598   -3.8916 C   0  0  0  0  0  0  0  0  0  0  0  0
  -27.1643   -9.3619   -3.7947 N   0  0  0  0  0  0  0  0  0  0  0  0
  -27.6304   -8.3360   -4.5319 C   0  0  0  0  0  0  0  0  0  0  0  0
  -26.9880   -7.1297   -4.3006 N   0  0  0  0  0  0  0  0  0  0  0  0
  -28.7050   -8.5665   -5.3964 C   0  0  0  0  0  0  0  0  0  0  0  0
  -31.3103  -10.8086   -6.8354 C   0  0  0  0  0  0  0  0  0  0  0  0
  -31.8085  -10.0223   -8.0906 C   0  0  0  0  0  0  0  0  0  0  0  0
  -31.5123   -8.5053   -7.8245 C   0  0  0  0  0  0  0  0  0  0  0  0
  -26.3890   -7.2266   -3.4860 H   0  0  0  0  0  0  0  0  0  0  0  0
  -27.6021   -6.3273   -4.2819 H   0  0  0  0  0  0  0  0  0  0  0  0
  -28.7912   -2.2493   -7.7283 C   0  0  0  0  0  0  0  0  0  0  0  0
  -28.0423   -2.3488  -10.0959 N   0  0  0  0  0  0  0  0  0  0  0  0
  -27.7866   -1.9026   -8.8097 C   0  0  0  0  0  0  0  0  0  0  0  0
  -26.7794   -1.2694   -8.4733 O   0  0  0  0  0  0  0  0  0  0  0  0
  -28.8077   -3.0010  -10.2215 H   0  0  0  0  0  0  0  0  0  0  0  0
  -25.5441   -1.4917  -13.4186 C   0  0  0  0  0  0  0  0  0  0  0  0
  -26.9134   -1.6842  -13.5951 C   0  0  0  0  0  0  0  0  0  0  0  0
  -27.7406   -1.9820  -12.5117 C   0  0  0  0  0  0  0  0  0  0  0  0
  -27.2250   -2.1051  -11.2273 C   0  0  0  0  0  0  0  0  0  0  0  0
  -25.8406   -1.9769  -11.0530 C   0  0  0  0  0  0  0  0  0  0  0  0
  -24.9905   -1.6436  -12.1401 C   0  0  0  0  0  0  0  0  0  0  0  0
  -23.5218   -1.4186  -11.8575 C   0  0  0  0  0  0  0  0  0  0  0  0
  -23.0991   -0.1284  -11.8178 F   0  0  0  0  0  0  0  0  0  0  0  0
  -23.1596   -1.9487  -10.6499 F   0  0  0  0  0  0  0  0  0  0  0  0
  -22.7228   -2.0405  -12.7724 F   0  0  0  0  0  0  0  0  0  0  0  0
  -25.3061   -0.9583  -15.7178 C   0  0  0  0  0  0  0  0  0  0  0  0
  -24.6978   -1.2075  -14.4507 O   0  0  0  0  0  0  0  0  0  0  0  0
 37 38  1  0  0  0
 38 27  1  0  0  0
 27 28  1  0  0  0
 27 32  2  0  0  0
 28 29  2  0  0  0
 29 30  1  0  0  0
 30 23  1  0  0  0
 30 31  2  0  0  0
 23 24  1  0  0  0
 23 26  1  0  0  0
 24 25  2  0  0  0
 24 22  1  0  0  0
 22  1  1  0  0  0
  1  2  1  0  0  0
  1  6  2  0  0  0
  2  3  2  0  0  0
  3  4  1  0  0  0
  4  7  1  0  0  0
  4  5  2  0  0  0
  7  8  1  0  0  0
  7 16  1  0  0  0
  8  9  2  0  0  0
  8 19  1  0  0  0
  9 10  1  0  0  0
  9 17  1  0  0  0
 10 11  1  0  0  0
 10 16  2  0  0  0
 11 12  2  0  0  0
 12 13  1  0  0  0
 13 14  2  0  0  0
 14 15  1  0  0  0
 14 16  1  0  0  0
 15 20  1  0  0  0
 15 21  1  0  0  0
 17 18  1  0  0  0
 18 19  1  0  0  0
  5  6  1  0  0  0
 31 32  1  0  0  0
 32 33  1  0  0  0
 33 34  1  0  0  0
 33 35  1  0  0  0
 33 36  1  0  0  0
M  END
> <minimizedAffinity>
-10.05605

$$$$
