CHEMBL3660276


 36 39  0  0  0  0  0  0  0  0999 V2000
  -28.4636   -3.5381   -5.7345 C   0  0  0  0  0  0  0  0  0  0  0  0
  -28.9864   -4.2595   -6.8007 C   0  0  0  0  0  0  0  0  0  0  0  0
  -28.9392   -3.7359   -8.0926 C   0  0  0  0  0  0  0  0  0  0  0  0
  -28.4241   -2.4608   -8.3562 C   0  0  0  0  0  0  0  0  0  0  0  0
  -28.0153   -1.6901   -7.2623 C   0  0  0  0  0  0  0  0  0  0  0  0
  -28.0293   -2.2290   -5.9589 C   0  0  0  0  0  0  0  0  0  0  0  0
  -28.3042   -1.9348   -9.6747 N   0  0  0  0  0  0  0  0  0  0  0  0
  -27.0984   -1.7192  -10.3277 C   0  0  0  0  0  0  0  0  0  0  0  0
  -26.0032   -1.9090   -9.8094 O   0  0  0  0  0  0  0  0  0  0  0  0
  -27.2368   -1.2560  -11.6287 N   0  0  0  0  0  0  0  0  0  0  0  0
  -29.1524   -1.6484  -10.1410 H   0  0  0  0  0  0  0  0  0  0  0  0
  -28.0748   -0.7408  -11.8530 H   0  0  0  0  0  0  0  0  0  0  0  0
  -26.1341   -1.1162  -12.5214 C   0  0  0  0  0  0  0  0  0  0  0  0
  -26.2005   -1.5319  -13.8582 C   0  0  0  0  0  0  0  0  0  0  0  0
  -25.0920   -1.4591  -14.6995 C   0  0  0  0  0  0  0  0  0  0  0  0
  -23.9021   -0.9233  -14.2280 C   0  0  0  0  0  0  0  0  0  0  0  0
  -23.8208   -0.4391  -12.9172 C   0  0  0  0  0  0  0  0  0  0  0  0
  -22.5357    0.1643  -12.4310 C   0  0  0  0  0  0  0  0  0  0  0  0
  -24.9405   -0.5422  -12.0649 C   0  0  0  0  0  0  0  0  0  0  0  0
  -28.3864   -4.0371   -4.4490 O   0  0  0  0  0  0  0  0  0  0  0  0
  -27.7189   -7.6659   -4.2698 C   0  0  0  0  0  0  0  0  0  0  0  0
  -27.4697   -6.3088   -4.4360 C   0  0  0  0  0  0  0  0  0  0  0  0
  -28.5079   -5.4006   -4.2478 C   0  0  0  0  0  0  0  0  0  0  0  0
  -29.7334   -5.8710   -3.7942 C   0  0  0  0  0  0  0  0  0  0  0  0
  -29.8824   -7.2396   -3.6118 C   0  0  0  0  0  0  0  0  0  0  0  0
  -28.9116   -8.1526   -3.8564 N   0  0  0  0  0  0  0  0  0  0  0  0
  -24.8384   -9.9940   -4.6658 C   0  0  0  0  0  0  0  0  0  0  0  0
  -25.6254  -10.2575   -5.7731 C   0  0  0  0  0  0  0  0  0  0  0  0
  -26.7419   -9.4552   -5.7156 N   0  0  0  0  0  0  0  0  0  0  0  0
  -26.6995   -8.6606   -4.5888 C   0  0  0  0  0  0  0  0  0  0  0  0
  -25.5296   -8.9920   -3.9291 C   0  0  0  0  0  0  0  0  0  0  0  0
  -27.4890   -9.4155   -6.3901 H   0  0  0  0  0  0  0  0  0  0  0  0
  -23.5587  -10.5790   -4.2859 C   0  0  0  0  0  0  0  0  0  0  0  0
  -22.6693  -10.8025   -5.1008 O   0  0  0  0  0  0  0  0  0  0  0  0
  -22.1483  -11.2641   -2.5613 C   0  0  0  0  0  0  0  0  0  0  0  0
  -23.4599  -10.8543   -2.9521 O   0  0  0  0  0  0  0  0  0  0  0  0
 35 36  1  0  0  0
 36 33  1  0  0  0
 33 34  2  0  0  0
 33 27  1  0  0  0
 27 28  2  0  0  0
 27 31  1  0  0  0
 28 29  1  0  0  0
 29 30  1  0  0  0
 29 32  1  0  0  0
 30 21  1  0  0  0
 30 31  2  0  0  0
 21 22  1  0  0  0
 21 26  2  0  0  0
 22 23  2  0  0  0
 23 20  1  0  0  0
 23 24  1  0  0  0
 20  1  1  0  0  0
  1  2  1  0  0  0
  1  6  2  0  0  0
  2  3  2  0  0  0
  3  4  1  0  0  0
  4  7  1  0  0  0
  4  5  2  0  0  0
  7  8  1  0  0  0
  7 11  1  0  0  0
  8  9  2  0  0  0
  8 10  1  0  0  0
 10 13  1  0  0  0
 10 12  1  0  0  0
 13 14  1  0  0  0
 13 19  2  0  0  0
 14 15  2  0  0  0
 15 16  1  0  0  0
 16 17  2  0  0  0
 17 18  1  0  0  0
 17 19  1  0  0  0
  5  6  1  0  0  0
 24 25  2  0  0  0
 25 26  1  0  0  0
M  END
> <minimizedAffinity>
-10.00214

$$$$
