CHEMBL402004


 37 41  0  0  0  0  0  0  0  0999 V2000
  -12.4993   -4.7454  -14.1763 C   0  0  0  0  0  0  0  0  0  0  0  0
  -13.6143   -4.1663  -14.7802 C   0  0  0  0  0  0  0  0  0  0  0  0
  -14.0035   -2.8744  -14.4262 C   0  0  0  0  0  0  0  0  0  0  0  0
  -13.2955   -2.1707  -13.4449 C   0  0  0  0  0  0  0  0  0  0  0  0
  -12.1361   -2.7270  -12.9125 C   0  0  0  0  0  0  0  0  0  0  0  0
  -11.3916   -2.0378  -12.0362 F   0  0  0  0  0  0  0  0  0  0  0  0
  -11.7323   -4.0061  -13.2720 C   0  0  0  0  0  0  0  0  0  0  0  0
  -12.1581   -6.0538  -14.5521 N   0  0  0  0  0  0  0  0  0  0  0  0
  -11.2083   -6.3572  -14.3560 H   0  0  0  0  0  0  0  0  0  0  0  0
  -12.9899   -7.0401  -15.0297 C   0  0  0  0  0  0  0  0  0  0  0  0
  -13.4586   -6.9247  -16.6245 S   0  0  0  0  0  0  0  0  0  0  0  0
  -14.3354   -8.9266  -12.2648 O   0  0  0  0  0  0  0  0  0  0  0  0
  -14.4213   -8.0355  -13.1131 C   0  0  0  0  0  0  0  0  0  0  0  0
  -13.4002   -7.9521  -14.0538 N   0  0  0  0  0  0  0  0  0  0  0  0
  -12.7220   -8.6769  -13.8574 H   0  0  0  0  0  0  0  0  0  0  0  0
  -15.5248   -7.0151  -13.1860 C   0  0  0  0  0  0  0  0  0  0  0  0
  -15.5225   -5.8603  -12.2141 C   0  0  0  0  0  0  0  0  0  0  0  0
  -14.4408   -5.7556  -11.3224 C   0  0  0  0  0  0  0  0  0  0  0  0
  -14.3009   -4.6428  -10.4965 C   0  0  0  0  0  0  0  0  0  0  0  0
  -15.2402   -3.6176  -10.5525 C   0  0  0  0  0  0  0  0  0  0  0  0
  -16.3239   -3.7121  -11.4246 C   0  0  0  0  0  0  0  0  0  0  0  0
  -16.4617   -4.8241  -12.2581 C   0  0  0  0  0  0  0  0  0  0  0  0
  -13.6472   -0.9246  -12.9858 O   0  0  0  0  0  0  0  0  0  0  0  0
  -13.6297    0.1391  -13.8597 C   0  0  0  0  0  0  0  0  0  0  0  0
  -12.4680    0.6240  -14.4621 C   0  0  0  0  0  0  0  0  0  0  0  0
  -12.5520    1.7382  -15.2724 C   0  0  0  0  0  0  0  0  0  0  0  0
  -13.6897    2.3769  -15.5911 N   0  0  0  0  0  0  0  0  0  0  0  0
  -14.8319    1.8383  -15.0869 C   0  0  0  0  0  0  0  0  0  0  0  0
  -16.1444    2.3110  -15.3672 C   0  0  0  0  0  0  0  0  0  0  0  0
  -17.1342    1.5599  -14.7644 C   0  0  0  0  0  0  0  0  0  0  0  0
  -16.4501    0.3245  -13.7906 S   0  0  0  0  0  0  0  0  0  0  0  0
  -14.8422    0.7388  -14.2328 C   0  0  0  0  0  0  0  0  0  0  0  0
  -18.5649    1.7259  -14.8865 C   0  0  0  0  0  0  0  0  0  0  0  0
  -19.5201    0.7449  -15.0921 C   0  0  0  0  0  0  0  0  0  0  0  0
  -20.8424    1.2705  -15.1895 C   0  0  0  0  0  0  0  0  0  0  0  0
  -20.8628    2.6380  -15.0463 C   0  0  0  0  0  0  0  0  0  0  0  0
  -19.2993    3.2787  -14.8009 S   0  0  0  0  0  0  0  0  0  0  0  0
 12 13  2  0  0  0
 13 16  1  0  0  0
 13 14  1  0  0  0
 16 17  1  0  0  0
 17 18  1  0  0  0
 17 22  2  0  0  0
 18 19  2  0  0  0
 19 20  1  0  0  0
 20 21  2  0  0  0
 21 22  1  0  0  0
 14 10  1  0  0  0
 14 15  1  0  0  0
 10 11  2  0  0  0
 10  8  1  0  0  0
  8  1  1  0  0  0
  8  9  1  0  0  0
  1  2  1  0  0  0
  1  7  2  0  0  0
  2  3  2  0  0  0
  3  4  1  0  0  0
  4 23  1  0  0  0
  4  5  2  0  0  0
 23 24  1  0  0  0
 24 25  1  0  0  0
 24 32  2  0  0  0
 25 26  2  0  0  0
 26 27  1  0  0  0
 27 28  2  0  0  0
 28 29  1  0  0  0
 28 32  1  0  0  0
 29 30  2  0  0  0
 30 33  1  0  0  0
 30 31  1  0  0  0
 33 34  2  0  0  0
 33 37  1  0  0  0
 34 35  1  0  0  0
 35 36  2  0  0  0
 36 37  1  0  0  0
 31 32  1  0  0  0
  5  6  1  0  0  0
  5  7  1  0  0  0
M  END
> <minimizedAffinity>
-8.28420

$$$$
