CHEMBL4471491


 42 45  0  0  0  0  0  0  0  0999 V2000
  -13.3610   -0.4074  -15.5256 C   0  0  0  0  0  0  0  0  0  0  0  0
  -14.5258    0.3017  -15.8143 C   0  0  0  0  0  0  0  0  0  0  0  0
  -14.5653    1.7032  -15.7313 C   0  0  0  0  0  0  0  0  0  0  0  0
  -15.6935    2.4714  -16.0349 C   0  0  0  0  0  0  0  0  0  0  0  0
  -15.6601    3.8166  -15.9916 N   0  0  0  0  0  0  0  0  0  0  0  0
  -14.5158    4.3847  -15.6055 C   0  0  0  0  0  0  0  0  0  0  0  0
  -13.4050    3.7406  -15.2355 N   0  0  0  0  0  0  0  0  0  0  0  0
  -13.4318    2.4053  -15.2983 C   0  0  0  0  0  0  0  0  0  0  0  0
  -12.3101    1.6764  -14.9137 C   0  0  0  0  0  0  0  0  0  0  0  0
  -12.2466    0.2754  -15.0142 C   0  0  0  0  0  0  0  0  0  0  0  0
  -12.6784   -2.2500  -16.8534 C   0  0  0  0  0  0  0  0  0  0  0  0
  -13.3440   -1.7654  -15.6873 O   0  0  0  0  0  0  0  0  0  0  0  0
  -16.9316    1.8360  -16.3348 N   0  0  0  0  0  0  0  0  0  0  0  0
  -17.0606    1.7158  -17.3359 H   0  0  0  0  0  0  0  0  0  0  0  0
  -18.1376    2.1322  -15.6600 C   0  0  0  0  0  0  0  0  0  0  0  0
  -18.5035    3.4660  -15.4336 C   0  0  0  0  0  0  0  0  0  0  0  0
  -19.7555    3.7845  -14.9162 C   0  0  0  0  0  0  0  0  0  0  0  0
  -20.6561    2.7675  -14.5917 C   0  0  0  0  0  0  0  0  0  0  0  0
  -22.2218    3.2455  -14.0430 Cl  0  0  0  0  0  0  0  0  0  0  0  0
  -20.2804    1.4265  -14.7380 C   0  0  0  0  0  0  0  0  0  0  0  0
  -21.3441    0.1293  -14.3166 Cl  0  0  0  0  0  0  0  0  0  0  0  0
  -19.0214    1.1219  -15.2637 C   0  0  0  0  0  0  0  0  0  0  0  0
  -18.6486   -0.1596  -15.4360 F   0  0  0  0  0  0  0  0  0  0  0  0
  -11.0425   -0.2545  -14.5956 O   0  0  0  0  0  0  0  0  0  0  0  0
  -10.9835   -0.6817  -13.2380 C   0  0  0  0  0  0  0  0  0  0  0  0
  -11.4113   -2.1326  -13.0413 C   0  0  0  0  0  0  0  0  0  0  0  0
  -11.8704   -2.2328  -11.6878 O   0  0  0  0  0  0  0  0  0  0  0  0
  -11.0199   -3.0140  -10.8587 C   0  0  0  0  0  0  0  0  0  0  0  0
  -11.8670   -3.6481   -9.7526 C   0  0  0  0  0  0  0  0  0  0  0  0
  -13.2905   -3.5741  -10.0328 N   0  0  0  0  0  0  0  0  0  0  0  0
  -13.9672   -4.6398  -10.5848 C   0  0  0  0  0  0  0  0  0  0  0  0
  -13.4232   -5.7090  -10.8524 O   0  0  0  0  0  0  0  0  0  0  0  0
  -13.7619   -2.6943   -9.8584 H   0  0  0  0  0  0  0  0  0  0  0  0
  -15.4316   -4.4046  -10.8635 C   0  0  0  0  0  0  0  0  0  0  0  0
  -15.6238   -3.2967  -11.7733 N   0  0  0  0  0  0  0  0  0  0  0  0
  -15.8790   -3.3451  -13.1128 C   0  0  0  0  0  0  0  0  0  0  0  0
  -15.9124   -2.1266  -13.6037 N   0  0  0  0  0  0  0  0  0  0  0  0
  -15.6641   -1.3472  -12.4960 C   0  0  0  0  0  0  0  0  0  0  0  0
  -15.4663   -2.0248  -11.3481 N   0  0  0  0  0  0  0  0  0  0  0  0
  -15.6040    0.1026  -12.5438 N   0  0  0  0  0  0  0  0  0  0  0  0
  -14.4855    0.6328  -12.3972 O   0  0  0  0  0  0  0  0  0  0  0  0
  -16.6633    0.7285  -12.7270 O   0  0  0  0  0  0  0  0  0  0  0  0
 11 12  1  0  0  0
 12  1  1  0  0  0
  1  2  1  0  0  0
  1 10  2  0  0  0
  2  3  2  0  0  0
  3  4  1  0  0  0
  3  8  1  0  0  0
  4 13  1  0  0  0
  4  5  2  0  0  0
 13 15  1  0  0  0
 13 14  1  0  0  0
 15 16  1  0  0  0
 15 22  2  0  0  0
 16 17  2  0  0  0
 17 18  1  0  0  0
 18 19  1  0  0  0
 18 20  2  0  0  0
 20 21  1  0  0  0
 20 22  1  0  0  0
 22 23  1  0  0  0
  5  6  1  0  0  0
  6  7  2  0  0  0
  7  8  1  0  0  0
  8  9  2  0  0  0
  9 10  1  0  0  0
 10 24  1  0  0  0
 24 25  1  0  0  0
 25 26  1  0  0  0
 26 27  1  0  0  0
 27 28  1  0  0  0
 28 29  1  0  0  0
 29 30  1  0  0  0
 30 31  1  0  0  0
 30 33  1  0  0  0
 31 32  2  0  0  0
 31 34  1  0  0  0
 34 35  1  0  0  0
 35 36  1  0  0  0
 35 39  1  0  0  0
 36 37  2  0  0  0
 37 38  1  0  0  0
 38 40  1  0  0  0
 38 39  2  0  0  0
 40 41  2  0  0  0
 40 42  1  0  0  0
M  CHG 1  40   1
M  CHG 1  42  -1
M  END
> <minimizedAffinity>
-7.42765

$$$$
