CHEMBL270548


 36 40  0  0  0  0  0  0  0  0999 V2000
  -12.0792   -1.9781  -13.0473 C   0  0  0  0  0  0  0  0  0  0  0  0
  -13.3985   -2.3544  -13.2712 C   0  0  0  0  0  0  0  0  0  0  0  0
  -14.3076   -1.4520  -13.8442 C   0  0  0  0  0  0  0  0  0  0  0  0
  -13.9321   -0.1423  -14.1836 C   0  0  0  0  0  0  0  0  0  0  0  0
  -12.5840    0.2102  -13.9734 C   0  0  0  0  0  0  0  0  0  0  0  0
  -11.6765   -0.6866  -13.3917 C   0  0  0  0  0  0  0  0  0  0  0  0
  -12.0436    1.4315  -14.3016 O   0  0  0  0  0  0  0  0  0  0  0  0
  -13.0309    2.4523  -14.4248 C   0  0  0  0  0  0  0  0  0  0  0  0
  -14.1816    2.0047  -15.3088 C   0  0  0  0  0  0  0  0  0  0  0  0
  -14.8578    0.8404  -14.7148 N   0  0  0  0  0  0  0  0  0  0  0  0
  -16.2446    0.7232  -14.5286 C   0  0  0  0  0  0  0  0  0  0  0  0
  -16.7518   -0.2145  -13.9101 O   0  0  0  0  0  0  0  0  0  0  0  0
  -17.0175    1.7515  -15.0439 N   0  0  0  0  0  0  0  0  0  0  0  0
  -16.6227    2.2989  -15.7895 H   0  0  0  0  0  0  0  0  0  0  0  0
  -18.4189    1.9029  -14.8664 C   0  0  0  0  0  0  0  0  0  0  0  0
  -19.0204    3.0766  -14.3974 C   0  0  0  0  0  0  0  0  0  0  0  0
  -20.3915    3.1258  -14.1292 C   0  0  0  0  0  0  0  0  0  0  0  0
  -21.1805    2.0078  -14.3642 C   0  0  0  0  0  0  0  0  0  0  0  0
  -22.8558    2.0471  -13.9797 Cl  0  0  0  0  0  0  0  0  0  0  0  0
  -20.6140    0.8548  -14.9021 C   0  0  0  0  0  0  0  0  0  0  0  0
  -19.2378    0.8051  -15.1597 C   0  0  0  0  0  0  0  0  0  0  0  0
  -11.2581   -2.9199  -12.4563 O   0  0  0  0  0  0  0  0  0  0  0  0
  -12.5128   -7.8446  -12.5714 C   0  0  0  0  0  0  0  0  0  0  0  0
  -12.8361   -7.3073  -11.3151 C   0  0  0  0  0  0  0  0  0  0  0  0
  -12.5867   -5.9895  -10.9744 C   0  0  0  0  0  0  0  0  0  0  0  0
  -13.0166   -5.5615   -9.7764 N   0  0  0  0  0  0  0  0  0  0  0  0
  -12.8086   -4.2728   -9.4475 C   0  0  0  0  0  0  0  0  0  0  0  0
  -12.1924   -3.3644  -10.2764 C   0  0  0  0  0  0  0  0  0  0  0  0
  -11.8019   -3.7985  -11.5418 C   0  0  0  0  0  0  0  0  0  0  0  0
  -11.9386   -5.1577  -11.9010 C   0  0  0  0  0  0  0  0  0  0  0  0
  -11.4895   -5.7315  -13.1163 C   0  0  0  0  0  0  0  0  0  0  0  0
  -11.7741   -7.0646  -13.4639 C   0  0  0  0  0  0  0  0  0  0  0  0
  -12.0815  -10.1681  -12.3950 C   0  0  0  0  0  0  0  0  0  0  0  0
  -12.9023   -9.1151  -12.9116 O   0  0  0  0  0  0  0  0  0  0  0  0
  -11.2684   -7.3934  -14.6914 O   0  0  0  0  0  0  0  0  0  0  0  0
  -12.0927   -7.3160  -15.8431 C   0  0  0  0  0  0  0  0  0  0  0  0
 33 34  1  0  0  0
 34 23  1  0  0  0
 23 24  1  0  0  0
 23 32  2  0  0  0
 24 25  2  0  0  0
 25 26  1  0  0  0
 25 30  1  0  0  0
 26 27  2  0  0  0
 27 28  1  0  0  0
 28 29  2  0  0  0
 29 22  1  0  0  0
 29 30  1  0  0  0
 22  1  1  0  0  0
  1  2  1  0  0  0
  1  6  2  0  0  0
  2  3  2  0  0  0
  3  4  1  0  0  0
  4  5  2  0  0  0
  4 10  1  0  0  0
  5  6  1  0  0  0
  5  7  1  0  0  0
  7  8  1  0  0  0
  8  9  1  0  0  0
  9 10  1  0  0  0
 10 11  1  0  0  0
 11 12  2  0  0  0
 11 13  1  0  0  0
 13 15  1  0  0  0
 13 14  1  0  0  0
 15 16  1  0  0  0
 15 21  2  0  0  0
 16 17  2  0  0  0
 17 18  1  0  0  0
 18 19  1  0  0  0
 18 20  2  0  0  0
 20 21  1  0  0  0
 30 31  2  0  0  0
 31 32  1  0  0  0
 32 35  1  0  0  0
 35 36  1  0  0  0
M  END
> <minimizedAffinity>
-8.34910

$$$$
