CHEMBL3969665


 36 40  0  0  0  0  0  0  0  0999 V2000
  -17.0221    1.8289  -15.5739 N   0  0  0  0  0  0  0  0  0  0  0  0
  -18.4759    1.8067  -15.5080 C   0  0  0  0  0  0  0  0  0  0  0  0
  -19.0795    3.0585  -15.6387 C   0  0  0  0  0  0  0  0  0  0  0  0
  -20.3409    3.2847  -15.1194 C   0  0  0  0  0  0  0  0  0  0  0  0
  -21.0973    2.2727  -14.5955 C   0  0  0  0  0  0  0  0  0  0  0  0
  -22.2111    2.6836  -13.9758 N   0  0  0  0  0  0  0  0  0  0  0  0
  -23.0941    1.7400  -13.6299 C   0  0  0  0  0  0  0  0  0  0  0  0
  -22.9120    0.4156  -13.9768 C   0  0  0  0  0  0  0  0  0  0  0  0
  -21.6996   -0.0303  -14.4671 N   0  0  0  0  0  0  0  0  0  0  0  0
  -20.7155    0.9197  -14.7451 C   0  0  0  0  0  0  0  0  0  0  0  0
  -19.3313    0.7240  -15.1502 C   0  0  0  0  0  0  0  0  0  0  0  0
  -24.1415   -0.3529  -14.1583 C   0  0  0  0  0  0  0  0  0  0  0  0
  -24.8509   -0.8458  -15.2756 C   0  0  0  0  0  0  0  0  0  0  0  0
  -25.9113   -1.5948  -14.9302 N   0  0  0  0  0  0  0  0  0  0  0  0
  -25.8966   -1.5630  -13.5857 N   0  0  0  0  0  0  0  0  0  0  0  0
  -27.0418   -1.9909  -12.8147 C   0  0  0  0  0  0  0  0  0  0  0  0
  -24.7723   -0.9740  -13.0875 C   0  0  0  0  0  0  0  0  0  0  0  0
  -13.8910   -0.1740  -15.0998 C   0  0  0  0  0  0  0  0  0  0  0  0
  -14.0885   -0.7129  -13.8295 C   0  0  0  0  0  0  0  0  0  0  0  0
  -15.2882   -0.4788  -13.1591 C   0  0  0  0  0  0  0  0  0  0  0  0
  -16.2870    0.3050  -13.7595 C   0  0  0  0  0  0  0  0  0  0  0  0
  -16.1248    0.8718  -15.0314 C   0  0  0  0  0  0  0  0  0  0  0  0
  -14.9144    0.5868  -15.7010 C   0  0  0  0  0  0  0  0  0  0  0  0
  -12.6715   -1.3307  -16.8087 C   0  0  0  0  0  0  0  0  0  0  0  0
  -12.7266   -0.2964  -15.8236 O   0  0  0  0  0  0  0  0  0  0  0  0
  -15.5973   -0.9260  -11.9010 O   0  0  0  0  0  0  0  0  0  0  0  0
  -15.5784   -2.3329  -11.6878 C   0  0  0  0  0  0  0  0  0  0  0  0
  -16.6112    3.2818  -15.4596 C   0  0  0  0  0  0  0  0  0  0  0  0
  -15.9506    3.9896  -16.6621 C   0  0  0  0  0  0  0  0  0  0  0  0
  -14.5021    3.6211  -17.0113 C   0  0  0  0  0  0  0  0  0  0  0  0
  -13.5521    4.6177  -16.4918 N   0  0  0  0  0  0  0  0  0  0  0  0
  -13.1946    5.7908  -17.0950 C   0  0  0  0  0  0  0  0  0  0  0  0
  -12.3241    6.4013  -16.2352 C   0  0  0  0  0  0  0  0  0  0  0  0
  -12.1246    5.6224  -15.1214 N   0  0  0  0  0  0  0  0  0  0  0  0
  -12.8630    4.5473  -15.2990 C   0  0  0  0  0  0  0  0  0  0  0  0
  -12.9523    3.4020  -14.3555 C   0  0  0  0  0  0  0  0  0  0  0  0
 24 25  1  0  0  0
 25 18  1  0  0  0
 18 19  1  0  0  0
 18 23  2  0  0  0
 19 20  2  0  0  0
 20 26  1  0  0  0
 20 21  1  0  0  0
 26 27  1  0  0  0
 21 22  2  0  0  0
 22  1  1  0  0  0
 22 23  1  0  0  0
  1 28  1  0  0  0
  1  2  1  0  0  0
 28 29  1  0  0  0
 29 30  1  0  0  0
 30 31  1  0  0  0
 31 32  1  0  0  0
 31 35  1  0  0  0
 32 33  2  0  0  0
 33 34  1  0  0  0
 34 35  2  0  0  0
 35 36  1  0  0  0
  2  3  1  0  0  0
  2 11  2  0  0  0
  3  4  2  0  0  0
  4  5  1  0  0  0
  5  6  1  0  0  0
  5 10  2  0  0  0
  6  7  2  0  0  0
  7  8  1  0  0  0
  8 12  1  0  0  0
  8  9  2  0  0  0
 12 13  1  0  0  0
 12 17  2  0  0  0
 13 14  2  0  0  0
 14 15  1  0  0  0
 15 16  1  0  0  0
 15 17  1  0  0  0
  9 10  1  0  0  0
 10 11  1  0  0  0
M  END
> <minimizedAffinity>
-8.63882

$$$$
