CHEMBL444105


 37 43  0  0  0  0  0  0  0  0999 V2000
  -14.6036   -5.3261  -13.8091 N   0  0  0  0  0  0  0  0  0  0  0  0
  -14.8131   -3.9864  -13.3974 C   0  0  0  0  0  0  0  0  0  0  0  0
  -15.6383   -3.4034  -12.4104 C   0  0  0  0  0  0  0  0  0  0  0  0
  -15.7238   -1.9907  -12.3386 C   0  0  0  0  0  0  0  0  0  0  0  0
  -14.9730   -1.1750  -13.1888 C   0  0  0  0  0  0  0  0  0  0  0  0
  -14.1407   -1.7699  -14.1406 C   0  0  0  0  0  0  0  0  0  0  0  0
  -14.0965   -3.1643  -14.2798 C   0  0  0  0  0  0  0  0  0  0  0  0
  -13.6068   -4.0552  -15.1978 C   0  0  0  0  0  0  0  0  0  0  0  0
  -13.2675   -3.6712  -16.5100 C   0  0  0  0  0  0  0  0  0  0  0  0
  -13.2840   -4.7090  -17.4663 C   0  0  0  0  0  0  0  0  0  0  0  0
  -13.5028   -6.0556  -17.1557 C   0  0  0  0  0  0  0  0  0  0  0  0
  -13.2383   -6.3691  -15.7798 C   0  0  0  0  0  0  0  0  0  0  0  0
  -13.7094   -5.3830  -14.8848 C   0  0  0  0  0  0  0  0  0  0  0  0
  -11.8347   -7.0888  -15.6058 C   0  0  0  0  0  0  0  0  0  0  0  0
  -10.9524   -7.1216  -16.9182 C   0  0  0  0  0  0  0  0  0  0  0  0
  -11.8310   -7.6242  -18.0118 C   0  0  0  0  0  0  0  0  0  0  0  0
  -11.7012   -8.7491  -18.7137 N   0  0  0  0  0  0  0  0  0  0  0  0
  -12.9553   -8.9408  -19.1953 N   0  0  0  0  0  0  0  0  0  0  0  0
  -13.2682  -10.1563  -19.9075 C   0  0  0  0  0  0  0  0  0  0  0  0
  -13.8689   -8.0236  -18.7323 C   0  0  0  0  0  0  0  0  0  0  0  0
  -13.1142   -7.0649  -18.1072 C   0  0  0  0  0  0  0  0  0  0  0  0
  -12.8921   -4.1262  -18.7301 C   0  0  0  0  0  0  0  0  0  0  0  0
  -12.7038   -4.5898  -19.8467 O   0  0  0  0  0  0  0  0  0  0  0  0
  -12.6809   -2.7848  -18.4420 N   0  0  0  0  0  0  0  0  0  0  0  0
  -12.9434   -2.3709  -17.0817 C   0  0  0  0  0  0  0  0  0  0  0  0
  -12.3227   -2.1736  -19.1630 H   0  0  0  0  0  0  0  0  0  0  0  0
  -15.0972    0.3121  -13.3008 C   0  0  0  0  0  0  0  0  0  0  0  0
  -14.3883    0.9628  -12.5288 O   0  0  0  0  0  0  0  0  0  0  0  0
  -16.0139    0.9399  -14.2347 C   0  0  0  0  0  0  0  0  0  0  0  0
  -17.3916    0.8995  -14.3324 C   0  0  0  0  0  0  0  0  0  0  0  0
  -17.8887    1.7448  -15.3716 C   0  0  0  0  0  0  0  0  0  0  0  0
  -16.8797    2.4067  -16.0312 C   0  0  0  0  0  0  0  0  0  0  0  0
  -15.3453    2.0097  -15.4088 S   0  0  0  0  0  0  0  0  0  0  0  0
  -15.3970   -6.4582  -13.3077 C   0  0  0  0  0  0  0  0  0  0  0  0
  -13.9483   -8.5350  -12.9254 C   0  0  0  0  0  0  0  0  0  0  0  0
  -14.6653   -7.3520  -12.2723 C   0  0  0  0  0  0  0  0  0  0  0  0
  -13.6421   -6.5363  -11.4740 C   0  0  0  0  0  0  0  0  0  0  0  0
 35 36  1  0  0  0
 36 37  1  0  0  0
 36 34  1  0  0  0
 34  1  1  0  0  0
  1  2  1  0  0  0
  1 13  1  0  0  0
  2  3  1  0  0  0
  2  7  2  0  0  0
  3  4  2  0  0  0
  4  5  1  0  0  0
  5 27  1  0  0  0
  5  6  2  0  0  0
 27 28  2  0  0  0
 27 29  1  0  0  0
 29 30  2  0  0  0
 29 33  1  0  0  0
 30 31  1  0  0  0
 31 32  2  0  0  0
 32 33  1  0  0  0
  6  7  1  0  0  0
  7  8  1  0  0  0
  8  9  1  0  0  0
  8 13  2  0  0  0
  9 10  2  0  0  0
  9 25  1  0  0  0
 10 11  1  0  0  0
 10 22  1  0  0  0
 11 12  2  0  0  0
 11 21  1  0  0  0
 12 13  1  0  0  0
 12 14  1  0  0  0
 14 15  1  0  0  0
 15 16  1  0  0  0
 16 17  2  0  0  0
 16 21  1  0  0  0
 17 18  1  0  0  0
 18 19  1  0  0  0
 18 20  1  0  0  0
 20 21  2  0  0  0
 22 23  2  0  0  0
 22 24  1  0  0  0
 24 25  1  0  0  0
 24 26  1  0  0  0
M  END
> <minimizedAffinity>
-8.09768

$$$$
