CHEMBL3948234


 38 41  0  0  0  0  0  0  0  0999 V2000
  -29.0491   -5.0787   -6.7546 C   0  0  0  0  0  0  0  0  0  0  0  0
  -28.8895   -3.9938   -5.8794 C   0  0  0  0  0  0  0  0  0  0  0  0
  -28.4264   -2.7786   -6.2760 C   0  0  0  0  0  0  0  0  0  0  0  0
  -28.0291   -2.5631   -7.5596 C   0  0  0  0  0  0  0  0  0  0  0  0
  -27.6911   -1.3018   -7.8696 N   0  0  0  0  0  0  0  0  0  0  0  0
  -27.1740   -0.9791   -9.0583 C   0  0  0  0  0  0  0  0  0  0  0  0
  -26.8904   -1.9741   -9.9795 C   0  0  0  0  0  0  0  0  0  0  0  0
  -27.3592   -3.2754   -9.7416 N   0  0  0  0  0  0  0  0  0  0  0  0
  -27.9556   -3.5987   -8.5128 C   0  0  0  0  0  0  0  0  0  0  0  0
  -28.5178   -4.9067   -8.1108 C   0  0  0  0  0  0  0  0  0  0  0  0
  -25.8981   -1.5233  -11.0321 C   0  0  0  0  0  0  0  0  0  0  0  0
  -24.5978   -1.0087  -10.9528 C   0  0  0  0  0  0  0  0  0  0  0  0
  -24.1830   -0.7134  -12.2081 N   0  0  0  0  0  0  0  0  0  0  0  0
  -22.9319   -0.1122  -12.6476 C   0  0  0  0  0  0  0  0  0  0  0  0
  -25.1240   -1.0064  -13.0882 N   0  0  0  0  0  0  0  0  0  0  0  0
  -26.1786   -1.5168  -12.4275 C   0  0  0  0  0  0  0  0  0  0  0  0
  -27.4201   -1.8644  -13.2332 C   0  0  0  0  0  0  0  0  0  0  0  0
  -27.7665   -3.1952  -13.2507 F   0  0  0  0  0  0  0  0  0  0  0  0
  -28.4869   -1.1842  -12.6808 F   0  0  0  0  0  0  0  0  0  0  0  0
  -27.2557   -1.4350  -14.5387 F   0  0  0  0  0  0  0  0  0  0  0  0
  -29.8577   -6.1830   -6.1974 N   0  0  0  0  0  0  0  0  0  0  0  0
  -31.9589   -9.1616   -7.3471 C   0  0  0  0  0  0  0  0  0  0  0  0
  -31.1146   -9.6752   -8.3354 C   0  0  0  0  0  0  0  0  0  0  0  0
  -29.8763   -9.0972   -8.5966 C   0  0  0  0  0  0  0  0  0  0  0  0
  -29.4794   -7.9971   -7.8470 C   0  0  0  0  0  0  0  0  0  0  0  0
  -30.2795   -7.4346   -6.8176 C   0  0  0  0  0  0  0  0  0  0  0  0
  -31.5403   -8.0425   -6.5618 C   0  0  0  0  0  0  0  0  0  0  0  0
  -33.4849  -10.9213   -6.5651 C   0  0  0  0  0  0  0  0  0  0  0  0
  -33.1697   -9.7690   -7.2430 O   0  0  0  0  0  0  0  0  0  0  0  0
  -29.0456   -9.5478   -9.5789 O   0  0  0  0  0  0  0  0  0  0  0  0
  -28.9809  -10.8386  -10.0680 C   0  0  0  0  0  0  0  0  0  0  0  0
  -30.2809   -6.0284   -4.7541 C   0  0  0  0  0  0  0  0  0  0  0  0
  -29.2777   -6.6794   -3.7530 C   0  0  0  0  0  0  0  0  0  0  0  0
  -29.6227   -8.0900   -3.4421 N   0  0  0  0  0  0  0  0  0  0  0  0
  -30.4782   -8.3452   -3.9894 H   0  0  0  0  0  0  0  0  0  0  0  0
  -28.5491   -9.0544   -3.8195 C   0  0  0  0  0  0  0  0  0  0  0  0
  -29.0653  -10.1818   -4.7321 C   0  0  0  0  0  0  0  0  0  0  0  0
  -27.3948   -8.3424   -4.5576 C   0  0  0  0  0  0  0  0  0  0  0  0
 28 29  1  0  0  0
 29 22  1  0  0  0
 22 23  1  0  0  0
 22 27  2  0  0  0
 23 24  2  0  0  0
 24 30  1  0  0  0
 24 25  1  0  0  0
 30 31  1  0  0  0
 25 26  2  0  0  0
 26 21  1  0  0  0
 26 27  1  0  0  0
 21 32  1  0  0  0
 21  1  1  0  0  0
 32 33  1  0  0  0
 33 34  1  0  0  0
 34 36  1  0  0  0
 34 35  1  0  0  0
 36 37  1  0  0  0
 36 38  1  0  0  0
  1  2  1  0  0  0
  1 10  2  0  0  0
  2  3  2  0  0  0
  3  4  1  0  0  0
  4  5  1  0  0  0
  4  9  2  0  0  0
  5  6  2  0  0  0
  6  7  1  0  0  0
  7 11  1  0  0  0
  7  8  2  0  0  0
 11 12  2  0  0  0
 11 16  1  0  0  0
 12 13  1  0  0  0
 13 14  1  0  0  0
 13 15  1  0  0  0
 15 16  2  0  0  0
 16 17  1  0  0  0
 17 18  1  0  0  0
 17 19  1  0  0  0
 17 20  1  0  0  0
  8  9  1  0  0  0
  9 10  1  0  0  0
M  END
> <minimizedAffinity>
-7.86711

$$$$
