CHEMBL1242115


 30 33  0  0  0  0  0  0  0  0999 V2000
  -28.7438   -8.4320   -7.4051 N   0  0  0  0  0  0  0  0  0  0  0  0
  -29.0153   -7.1441   -7.7054 N   0  0  0  0  0  0  0  0  0  0  0  0
  -29.1529   -6.5425   -6.5081 C   0  0  0  0  0  0  0  0  0  0  0  0
  -28.9900   -7.4762   -5.4346 C   0  0  0  0  0  0  0  0  0  0  0  0
  -28.9915   -7.4992   -4.0281 C   0  0  0  0  0  0  0  0  0  0  0  0
  -29.1989   -6.4060   -3.1974 N   0  0  0  0  0  0  0  0  0  0  0  0
  -28.7599   -8.6704   -3.3969 N   0  0  0  0  0  0  0  0  0  0  0  0
  -28.5169   -9.7660   -4.1345 C   0  0  0  0  0  0  0  0  0  0  0  0
  -28.4761   -9.8652   -5.4694 N   0  0  0  0  0  0  0  0  0  0  0  0
  -28.7235   -8.6832   -6.0597 C   0  0  0  0  0  0  0  0  0  0  0  0
  -28.7841   -5.5447   -3.5297 H   0  0  0  0  0  0  0  0  0  0  0  0
  -28.9499   -6.6534   -2.2453 H   0  0  0  0  0  0  0  0  0  0  0  0
  -29.3492   -5.0909   -6.4449 C   0  0  0  0  0  0  0  0  0  0  0  0
  -30.1862   -4.5036   -5.4885 C   0  0  0  0  0  0  0  0  0  0  0  0
  -30.2010   -3.1191   -5.3081 C   0  0  0  0  0  0  0  0  0  0  0  0
  -29.4291   -2.3048   -6.1322 C   0  0  0  0  0  0  0  0  0  0  0  0
  -28.6733   -2.8743   -7.1626 C   0  0  0  0  0  0  0  0  0  0  0  0
  -28.6241   -4.2627   -7.3147 C   0  0  0  0  0  0  0  0  0  0  0  0
  -27.8908   -1.9777   -8.0447 C   0  0  0  0  0  0  0  0  0  0  0  0
  -27.6403   -0.8471   -7.6475 O   0  0  0  0  0  0  0  0  0  0  0  0
  -27.6225   -2.4875   -9.3057 N   0  0  0  0  0  0  0  0  0  0  0  0
  -28.1352   -3.3070   -9.6011 H   0  0  0  0  0  0  0  0  0  0  0  0
  -26.9404   -1.9027  -10.3330 C   0  0  0  0  0  0  0  0  0  0  0  0
  -25.6983   -1.6013  -10.1694 N   0  0  0  0  0  0  0  0  0  0  0  0
  -25.1730   -1.0081  -11.4198 C   0  0  0  0  0  0  0  0  0  0  0  0
  -26.0733   -1.3527  -12.5985 C   0  0  0  0  0  0  0  0  0  0  0  0
  -27.6918   -1.5258  -11.8423 S   0  0  0  0  0  0  0  0  0  0  0  0
  -29.7984   -9.7089   -9.2190 C   0  0  0  0  0  0  0  0  0  0  0  0
  -28.5075   -9.4145   -8.4586 C   0  0  0  0  0  0  0  0  0  0  0  0
  -27.3886   -9.0050   -9.4197 C   0  0  0  0  0  0  0  0  0  0  0  0
 28 29  1  0  0  0
 29 30  1  0  0  0
 29  1  1  0  0  0
  1  2  1  0  0  0
  1 10  1  0  0  0
  2  3  2  0  0  0
  3 13  1  0  0  0
  3  4  1  0  0  0
 13 14  1  0  0  0
 13 18  2  0  0  0
 14 15  2  0  0  0
 15 16  1  0  0  0
 16 17  2  0  0  0
 17 19  1  0  0  0
 17 18  1  0  0  0
 19 20  2  0  0  0
 19 21  1  0  0  0
 21 23  1  0  0  0
 21 22  1  0  0  0
 23 24  2  0  0  0
 23 27  1  0  0  0
 24 25  1  0  0  0
 25 26  1  0  0  0
 26 27  1  0  0  0
  4  5  1  0  0  0
  4 10  2  0  0  0
  5  6  1  0  0  0
  5  7  2  0  0  0
  6 11  1  0  0  0
  6 12  1  0  0  0
  7  8  1  0  0  0
  8  9  2  0  0  0
  9 10  1  0  0  0
M  END
> <minimizedAffinity>
-9.00943

$$$$
