CHEMBL1975903


 26 28  0  0  0  0  0  0  0  0999 V2000
  -13.8144   -6.9715  -12.5091 C   0  0  0  0  0  0  0  0  0  0  0  0
  -13.6857   -8.1584  -11.8120 C   0  0  0  0  0  0  0  0  0  0  0  0
  -13.0610   -9.1870  -12.4590 C   0  0  0  0  0  0  0  0  0  0  0  0
  -12.5258   -9.0607  -13.6768 N   0  0  0  0  0  0  0  0  0  0  0  0
  -12.6220   -7.8603  -14.2757 C   0  0  0  0  0  0  0  0  0  0  0  0
  -13.2681   -6.8114  -13.7439 N   0  0  0  0  0  0  0  0  0  0  0  0
  -13.9683   -4.8016  -11.1761 C   0  0  0  0  0  0  0  0  0  0  0  0
  -14.7445   -3.7608  -10.6468 C   0  0  0  0  0  0  0  0  0  0  0  0
  -16.1123   -3.6905  -10.9090 C   0  0  0  0  0  0  0  0  0  0  0  0
  -16.7156   -4.6528  -11.7087 C   0  0  0  0  0  0  0  0  0  0  0  0
  -15.9533   -5.7004  -12.2322 C   0  0  0  0  0  0  0  0  0  0  0  0
  -14.5705   -5.8106  -11.9730 C   0  0  0  0  0  0  0  0  0  0  0  0
  -12.1892   -5.0834   -9.5865 C   0  0  0  0  0  0  0  0  0  0  0  0
  -12.6230   -4.9302  -10.9299 O   0  0  0  0  0  0  0  0  0  0  0  0
  -12.0225   -7.6964  -15.5275 N   0  0  0  0  0  0  0  0  0  0  0  0
  -11.1087   -8.1234  -15.5484 H   0  0  0  0  0  0  0  0  0  0  0  0
  -12.6816   -7.5676  -16.7636 C   0  0  0  0  0  0  0  0  0  0  0  0
  -13.0234   -8.7130  -17.4920 C   0  0  0  0  0  0  0  0  0  0  0  0
  -13.6054   -8.6088  -18.7628 C   0  0  0  0  0  0  0  0  0  0  0  0
  -13.8708   -7.3564  -19.3151 C   0  0  0  0  0  0  0  0  0  0  0  0
  -13.5447   -6.2120  -18.5880 C   0  0  0  0  0  0  0  0  0  0  0  0
  -12.9654   -6.3172  -17.3208 C   0  0  0  0  0  0  0  0  0  0  0  0
  -13.9084   -4.6035  -19.2376 S   0  0  0  0  0  0  0  0  0  0  0  0
  -12.6637   -4.3573  -20.4746 C   0  0  0  0  0  0  0  0  0  0  0  0
  -15.1956   -4.6838  -19.9068 O   0  0  0  0  0  0  0  0  0  0  0  0
  -13.6895   -3.6337  -18.1776 O   0  0  0  0  0  0  0  0  0  0  0  0
 13 14  1  0  0  0
 14  7  1  0  0  0
  7  8  1  0  0  0
  7 12  2  0  0  0
  8  9  2  0  0  0
  9 10  1  0  0  0
 10 11  2  0  0  0
 11 12  1  0  0  0
 12  1  1  0  0  0
  1  2  1  0  0  0
  1  6  2  0  0  0
  2  3  2  0  0  0
  3  4  1  0  0  0
  4  5  2  0  0  0
  5 15  1  0  0  0
  5  6  1  0  0  0
 15 17  1  0  0  0
 15 16  1  0  0  0
 17 18  1  0  0  0
 17 22  2  0  0  0
 18 19  2  0  0  0
 19 20  1  0  0  0
 20 21  2  0  0  0
 21 23  1  0  0  0
 21 22  1  0  0  0
 23 24  1  0  0  0
 23 25  2  0  0  0
 23 26  2  0  0  0
M  END
> <minimizedAffinity>
-6.63138

$$$$
