CHEMBL2386809


 44 48  0  0  0  0  0  0  0  0999 V2000
  -19.2942    1.4252  -15.0612 C   0  0  0  0  0  0  0  0  0  0  0  0
  -20.2900    0.4845  -15.1127 C   0  0  0  0  0  0  0  0  0  0  0  0
  -21.3255    0.9675  -14.2608 C   0  0  0  0  0  0  0  0  0  0  0  0
  -21.0099    2.1838  -13.7809 N   0  0  0  0  0  0  0  0  0  0  0  0
  -19.7841    2.4283  -14.2755 N   0  0  0  0  0  0  0  0  0  0  0  0
  -19.2888    3.2717  -14.0063 H   0  0  0  0  0  0  0  0  0  0  0  0
  -22.5696    0.2829  -13.8902 C   0  0  0  0  0  0  0  0  0  0  0  0
  -23.4215   -0.2370  -14.8746 C   0  0  0  0  0  0  0  0  0  0  0  0
  -24.6097   -0.8875  -14.5276 C   0  0  0  0  0  0  0  0  0  0  0  0
  -24.9774   -1.0256  -13.1852 C   0  0  0  0  0  0  0  0  0  0  0  0
  -24.1184   -0.5330  -12.1958 C   0  0  0  0  0  0  0  0  0  0  0  0
  -22.9287    0.1187  -12.5454 C   0  0  0  0  0  0  0  0  0  0  0  0
  -26.2931   -1.6533  -12.8175 C   0  0  0  0  0  0  0  0  0  0  0  0
  -26.2539   -2.3793  -11.5643 N   0  0  0  0  0  0  0  0  0  0  0  0
  -27.1470   -1.9804  -10.5864 C   0  0  0  0  0  0  0  0  0  0  0  0
  -27.9115   -1.0390  -10.7638 O   0  0  0  0  0  0  0  0  0  0  0  0
  -27.0112   -2.7169   -9.4326 N   0  0  0  0  0  0  0  0  0  0  0  0
  -26.0761   -3.3673  -11.6336 H   0  0  0  0  0  0  0  0  0  0  0  0
  -26.1563   -3.2311   -9.3108 H   0  0  0  0  0  0  0  0  0  0  0  0
  -27.8006   -2.5188   -8.3092 C   0  0  0  0  0  0  0  0  0  0  0  0
  -27.6243   -1.4619   -7.3870 C   0  0  0  0  0  0  0  0  0  0  0  0
  -28.6218   -1.6285   -6.4510 C   0  0  0  0  0  0  0  0  0  0  0  0
  -29.3262   -2.7484   -6.7739 O   0  0  0  0  0  0  0  0  0  0  0  0
  -28.8123   -3.3040   -7.9241 N   0  0  0  0  0  0  0  0  0  0  0  0
  -29.0726   -0.8857   -5.2218 C   0  0  0  0  0  0  0  0  0  0  0  0
  -27.9000   -0.1034   -4.6027 C   0  0  0  0  0  0  0  0  0  0  0  0
  -30.1889    0.1121   -5.5837 C   0  0  0  0  0  0  0  0  0  0  0  0
  -29.6084   -1.8792   -4.1757 C   0  0  0  0  0  0  0  0  0  0  0  0
  -18.0549    1.4440  -15.6087 N   0  0  0  0  0  0  0  0  0  0  0  0
  -17.9989    1.2451  -16.6049 H   0  0  0  0  0  0  0  0  0  0  0  0
  -13.5086    1.9783  -14.1246 C   0  0  0  0  0  0  0  0  0  0  0  0
  -14.7375    1.1309  -14.2262 C   0  0  0  0  0  0  0  0  0  0  0  0
  -15.7726    1.6581  -14.8965 N   0  0  0  0  0  0  0  0  0  0  0  0
  -16.9086    0.9421  -14.9409 C   0  0  0  0  0  0  0  0  0  0  0  0
  -16.9795   -0.3057  -14.3718 C   0  0  0  0  0  0  0  0  0  0  0  0
  -15.8728   -0.7781  -13.6876 C   0  0  0  0  0  0  0  0  0  0  0  0
  -14.7360   -0.0715  -13.6208 N   0  0  0  0  0  0  0  0  0  0  0  0
  -15.9874   -2.0227  -13.0810 N   0  0  0  0  0  0  0  0  0  0  0  0
  -15.6710   -3.2227  -13.8597 C   0  0  0  0  0  0  0  0  0  0  0  0
  -16.3276   -4.4311  -13.1337 C   0  0  0  0  0  0  0  0  0  0  0  0
  -15.9410   -4.5743  -11.7063 N   0  0  0  0  0  0  0  0  0  0  0  0
  -16.1444   -3.2862  -11.0033 C   0  0  0  0  0  0  0  0  0  0  0  0
  -15.4653   -2.0929  -11.7074 C   0  0  0  0  0  0  0  0  0  0  0  0
  -14.9467   -4.7948  -11.6746 H   0  0  0  0  0  0  0  0  0  0  0  0
 31 32  1  0  0  0
 32 33  1  0  0  0
 32 37  2  0  0  0
 33 34  2  0  0  0
 34 29  1  0  0  0
 34 35  1  0  0  0
 29  1  1  0  0  0
 29 30  1  0  0  0
  1  2  2  0  0  0
  1  5  1  0  0  0
  2  3  1  0  0  0
  3  7  1  0  0  0
  3  4  2  0  0  0
  7  8  1  0  0  0
  7 12  2  0  0  0
  8  9  2  0  0  0
  9 10  1  0  0  0
 10 13  1  0  0  0
 10 11  2  0  0  0
 13 14  1  0  0  0
 14 15  1  0  0  0
 14 18  1  0  0  0
 15 16  2  0  0  0
 15 17  1  0  0  0
 17 20  1  0  0  0
 17 19  1  0  0  0
 20 21  1  0  0  0
 20 24  2  0  0  0
 21 22  2  0  0  0
 22 25  1  0  0  0
 22 23  1  0  0  0
 25 26  1  0  0  0
 25 27  1  0  0  0
 25 28  1  0  0  0
 23 24  1  0  0  0
 11 12  1  0  0  0
  4  5  1  0  0  0
  5  6  1  0  0  0
 35 36  2  0  0  0
 36 38  1  0  0  0
 36 37  1  0  0  0
 38 39  1  0  0  0
 38 43  1  0  0  0
 39 40  1  0  0  0
 40 41  1  0  0  0
 41 42  1  0  0  0
 41 44  1  0  0  0
 42 43  1  0  0  0
M  END
> <minimizedAffinity>
-11.23619

$$$$
