CHEMBL490968


 30 33  0  0  0  0  0  0  0  0999 V2000
  -27.2755   -2.1268   -9.5901 N   0  0  0  0  0  0  0  0  0  0  0  0
  -27.9668   -3.2502   -9.2095 C   0  0  0  0  0  0  0  0  0  0  0  0
  -28.1369   -3.1181   -7.8493 C   0  0  0  0  0  0  0  0  0  0  0  0
  -27.5671   -1.9447   -7.4453 N   0  0  0  0  0  0  0  0  0  0  0  0
  -27.0962   -1.3214   -8.5167 N   0  0  0  0  0  0  0  0  0  0  0  0
  -24.7682   -1.3451  -12.2248 C   0  0  0  0  0  0  0  0  0  0  0  0
  -25.5660   -1.4453  -13.3736 C   0  0  0  0  0  0  0  0  0  0  0  0
  -26.9320   -1.7063  -13.2701 C   0  0  0  0  0  0  0  0  0  0  0  0
  -27.5165   -1.8949  -12.0169 C   0  0  0  0  0  0  0  0  0  0  0  0
  -26.7301   -1.8168  -10.8601 C   0  0  0  0  0  0  0  0  0  0  0  0
  -25.3665   -1.5044  -10.9645 C   0  0  0  0  0  0  0  0  0  0  0  0
  -22.7458   -1.5112  -13.5099 F   0  0  0  0  0  0  0  0  0  0  0  0
  -23.2792   -1.1167  -12.3202 C   0  0  0  0  0  0  0  0  0  0  0  0
  -22.5905   -1.7971  -11.3621 F   0  0  0  0  0  0  0  0  0  0  0  0
  -22.9380    0.1920  -12.1711 F   0  0  0  0  0  0  0  0  0  0  0  0
  -28.8089   -4.0763   -6.9862 C   0  0  0  0  0  0  0  0  0  0  0  0
  -29.6303   -5.0379   -7.6243 C   0  0  0  0  0  0  0  0  0  0  0  0
  -30.2638   -6.0504   -6.9104 C   0  0  0  0  0  0  0  0  0  0  0  0
  -30.0682   -6.1380   -5.5427 C   0  0  0  0  0  0  0  0  0  0  0  0
  -29.2689   -5.1925   -4.8952 C   0  0  0  0  0  0  0  0  0  0  0  0
  -28.6569   -4.1153   -5.5785 C   0  0  0  0  0  0  0  0  0  0  0  0
  -27.9119   -3.2376   -4.7846 N   0  0  0  0  0  0  0  0  0  0  0  0
  -27.0672   -3.6463   -4.3970 H   0  0  0  0  0  0  0  0  0  0  0  0
  -28.5199   -2.2659   -3.8861 C   0  0  0  0  0  0  0  0  0  0  0  0
  -28.7835   -0.9748   -4.6199 C   0  0  0  0  0  0  0  0  0  0  0  0
  -27.7864   -0.0093   -4.7688 C   0  0  0  0  0  0  0  0  0  0  0  0
  -28.0882    1.1448   -5.4733 C   0  0  0  0  0  0  0  0  0  0  0  0
  -29.2962    1.3990   -6.0222 N   0  0  0  0  0  0  0  0  0  0  0  0
  -30.2486    0.4580   -5.8547 C   0  0  0  0  0  0  0  0  0  0  0  0
  -30.0464   -0.7251   -5.1658 C   0  0  0  0  0  0  0  0  0  0  0  0
 12 13  1  0  0  0
 13 14  1  0  0  0
 13 15  1  0  0  0
 13  6  1  0  0  0
  6  7  1  0  0  0
  6 11  2  0  0  0
  7  8  2  0  0  0
  8  9  1  0  0  0
  9 10  2  0  0  0
 10  1  1  0  0  0
 10 11  1  0  0  0
  1  2  1  0  0  0
  1  5  1  0  0  0
  2  3  2  0  0  0
  3 16  1  0  0  0
  3  4  1  0  0  0
 16 17  1  0  0  0
 16 21  2  0  0  0
 17 18  2  0  0  0
 18 19  1  0  0  0
 19 20  2  0  0  0
 20 21  1  0  0  0
 21 22  1  0  0  0
 22 24  1  0  0  0
 22 23  1  0  0  0
 24 25  1  0  0  0
 25 26  1  0  0  0
 25 30  2  0  0  0
 26 27  2  0  0  0
 27 28  1  0  0  0
 28 29  2  0  0  0
 29 30  1  0  0  0
  4  5  2  0  0  0
M  END
> <minimizedAffinity>
-10.03862

$$$$
