CHEMBL3945373


 34 37  0  0  0  0  0  0  0  0999 V2000
  -28.6021   -9.8574   -5.4996 N   0  0  0  0  0  0  0  0  0  0  0  0
  -28.5782   -8.4620   -5.1224 C   0  0  0  0  0  0  0  0  0  0  0  0
  -28.9770   -8.2133   -3.8076 C   0  0  0  0  0  0  0  0  0  0  0  0
  -29.5166   -6.9868   -3.4656 C   0  0  0  0  0  0  0  0  0  0  0  0
  -29.5412   -5.9361   -4.3439 C   0  0  0  0  0  0  0  0  0  0  0  0
  -30.2483   -4.8858   -3.9075 N   0  0  0  0  0  0  0  0  0  0  0  0
  -30.1655   -3.7677   -4.6310 C   0  0  0  0  0  0  0  0  0  0  0  0
  -29.3274   -3.6567   -5.7191 C   0  0  0  0  0  0  0  0  0  0  0  0
  -28.6912   -4.7706   -6.2370 N   0  0  0  0  0  0  0  0  0  0  0  0
  -28.8330   -5.9819   -5.5723 C   0  0  0  0  0  0  0  0  0  0  0  0
  -28.4145   -7.3232   -5.9667 C   0  0  0  0  0  0  0  0  0  0  0  0
  -29.0391   -2.2933   -6.1595 C   0  0  0  0  0  0  0  0  0  0  0  0
  -27.9216   -1.8006   -6.8849 C   0  0  0  0  0  0  0  0  0  0  0  0
  -27.8542   -0.4629   -6.8987 N   0  0  0  0  0  0  0  0  0  0  0  0
  -28.9265   -0.0913   -6.1796 N   0  0  0  0  0  0  0  0  0  0  0  0
  -29.3890    1.2769   -6.2069 C   0  0  0  0  0  0  0  0  0  0  0  0
  -29.5516   -1.1468   -5.5715 C   0  0  0  0  0  0  0  0  0  0  0  0
  -31.2760  -11.2417   -7.7586 C   0  0  0  0  0  0  0  0  0  0  0  0
  -30.5716  -11.3849   -8.9582 C   0  0  0  0  0  0  0  0  0  0  0  0
  -29.2143  -11.0891   -9.0002 C   0  0  0  0  0  0  0  0  0  0  0  0
  -28.5609  -10.6365   -7.8442 C   0  0  0  0  0  0  0  0  0  0  0  0
  -29.2191  -10.4843   -6.6140 C   0  0  0  0  0  0  0  0  0  0  0  0
  -30.5918  -10.8195   -6.5929 C   0  0  0  0  0  0  0  0  0  0  0  0
  -33.1645  -11.4629   -6.3054 C   0  0  0  0  0  0  0  0  0  0  0  0
  -32.6293  -11.4471   -7.6288 O   0  0  0  0  0  0  0  0  0  0  0  0
  -28.4155  -11.1631  -10.1100 O   0  0  0  0  0  0  0  0  0  0  0  0
  -28.8671  -10.5021  -11.2850 C   0  0  0  0  0  0  0  0  0  0  0  0
  -28.4966  -10.7010   -4.2404 C   0  0  0  0  0  0  0  0  0  0  0  0
  -27.1728  -11.4896   -4.0670 C   0  0  0  0  0  0  0  0  0  0  0  0
  -26.0700  -11.0175   -4.9277 N   0  0  0  0  0  0  0  0  0  0  0  0
  -25.1558  -10.0794   -4.4763 C   0  0  0  0  0  0  0  0  0  0  0  0
  -23.9971   -9.8123   -5.4084 C   0  0  0  0  0  0  0  0  0  0  0  0
  -25.2676   -9.4948   -3.4076 O   0  0  0  0  0  0  0  0  0  0  0  0
  -25.8144  -11.5815   -5.7183 H   0  0  0  0  0  0  0  0  0  0  0  0
 24 25  1  0  0  0
 25 18  1  0  0  0
 18 19  1  0  0  0
 18 23  2  0  0  0
 19 20  2  0  0  0
 20 26  1  0  0  0
 20 21  1  0  0  0
 26 27  1  0  0  0
 21 22  2  0  0  0
 22  1  1  0  0  0
 22 23  1  0  0  0
  1 28  1  0  0  0
  1  2  1  0  0  0
 28 29  1  0  0  0
 29 30  1  0  0  0
 30 31  1  0  0  0
 30 34  1  0  0  0
 31 32  1  0  0  0
 31 33  2  0  0  0
  2  3  1  0  0  0
  2 11  2  0  0  0
  3  4  2  0  0  0
  4  5  1  0  0  0
  5  6  1  0  0  0
  5 10  2  0  0  0
  6  7  2  0  0  0
  7  8  1  0  0  0
  8 12  1  0  0  0
  8  9  2  0  0  0
 12 13  1  0  0  0
 12 17  2  0  0  0
 13 14  2  0  0  0
 14 15  1  0  0  0
 15 16  1  0  0  0
 15 17  1  0  0  0
  9 10  1  0  0  0
 10 11  1  0  0  0
M  END
> <minimizedAffinity>
-7.47959

$$$$
