CHEMBL1975787


 22 24  0  0  0  0  0  0  0  0999 V2000
  -29.1950   -6.2688   -6.9891 C   0  0  0  0  0  0  0  0  0  0  0  0
  -29.0778   -5.0142   -6.4274 C   0  0  0  0  0  0  0  0  0  0  0  0
  -29.9785   -4.7639   -5.3259 C   0  0  0  0  0  0  0  0  0  0  0  0
  -30.2350   -3.6025   -4.5374 C   0  0  0  0  0  0  0  0  0  0  0  0
  -31.1640   -3.7775   -3.5039 C   0  0  0  0  0  0  0  0  0  0  0  0
  -31.8112   -4.9238   -3.2037 N   0  0  0  0  0  0  0  0  0  0  0  0
  -31.5714   -6.0130   -3.9567 C   0  0  0  0  0  0  0  0  0  0  0  0
  -30.6752   -5.9440   -5.0236 C   0  0  0  0  0  0  0  0  0  0  0  0
  -30.2931   -7.2246   -6.1088 S   0  0  0  0  0  0  0  0  0  0  0  0
  -29.5613   -2.3079   -4.7856 C   0  0  0  0  0  0  0  0  0  0  0  0
  -30.2712   -1.1650   -5.2048 C   0  0  0  0  0  0  0  0  0  0  0  0
  -29.6158    0.0333   -5.5093 C   0  0  0  0  0  0  0  0  0  0  0  0
  -28.2420    0.1262   -5.3429 C   0  0  0  0  0  0  0  0  0  0  0  0
  -27.6165    1.2729   -5.6361 F   0  0  0  0  0  0  0  0  0  0  0  0
  -27.5134   -0.9512   -4.8706 C   0  0  0  0  0  0  0  0  0  0  0  0
  -28.1716   -2.1507   -4.6054 C   0  0  0  0  0  0  0  0  0  0  0  0
  -27.4248   -3.1776   -4.1703 F   0  0  0  0  0  0  0  0  0  0  0  0
  -27.5843   -5.9108   -8.7381 N   0  0  0  0  0  0  0  0  0  0  0  0
  -28.4961   -6.7531   -8.1688 C   0  0  0  0  0  0  0  0  0  0  0  0
  -28.6648   -7.8704   -8.6513 O   0  0  0  0  0  0  0  0  0  0  0  0
  -27.0581   -6.2478   -9.5319 H   0  0  0  0  0  0  0  0  0  0  0  0
  -27.3802   -4.9998   -8.3522 H   0  0  0  0  0  0  0  0  0  0  0  0
 18 19  1  0  0  0
 18 21  1  0  0  0
 18 22  1  0  0  0
 19 20  2  0  0  0
 19  1  1  0  0  0
  1  2  2  0  0  0
  1  9  1  0  0  0
  2  3  1  0  0  0
  3  4  1  0  0  0
  3  8  2  0  0  0
  4 10  1  0  0  0
  4  5  2  0  0  0
 10 11  1  0  0  0
 10 16  2  0  0  0
 11 12  2  0  0  0
 12 13  1  0  0  0
 13 14  1  0  0  0
 13 15  2  0  0  0
 15 16  1  0  0  0
 16 17  1  0  0  0
  5  6  1  0  0  0
  6  7  2  0  0  0
  7  8  1  0  0  0
  8  9  1  0  0  0
M  END
> <minimizedAffinity>
-7.76245

$$$$
