CHEMBL392313


 30 33  0  0  0  0  0  0  0  0999 V2000
  -25.2208   -1.5390  -10.2160 O   0  0  0  0  0  0  0  0  0  0  0  0
  -26.2327   -1.6714  -10.8945 C   0  0  0  0  0  0  0  0  0  0  0  0
  -27.4941   -1.9466  -10.3826 N   0  0  0  0  0  0  0  0  0  0  0  0
  -28.2473   -2.0447  -11.0471 H   0  0  0  0  0  0  0  0  0  0  0  0
  -27.8270   -2.2319   -9.0408 C   0  0  0  0  0  0  0  0  0  0  0  0
  -28.2931   -3.4723   -8.6084 C   0  0  0  0  0  0  0  0  0  0  0  0
  -28.7083   -3.6588   -7.2854 C   0  0  0  0  0  0  0  0  0  0  0  0
  -28.6028   -2.6214   -6.3601 C   0  0  0  0  0  0  0  0  0  0  0  0
  -28.1185   -1.3820   -6.7776 C   0  0  0  0  0  0  0  0  0  0  0  0
  -27.7200   -1.1895   -8.1075 C   0  0  0  0  0  0  0  0  0  0  0  0
  -29.0183   -2.7003   -5.0496 O   0  0  0  0  0  0  0  0  0  0  0  0
  -29.5231   -3.8820   -4.5554 C   0  0  0  0  0  0  0  0  0  0  0  0
  -28.7328   -4.9442   -4.1079 C   0  0  0  0  0  0  0  0  0  0  0  0
  -29.3320   -6.1083   -3.6253 C   0  0  0  0  0  0  0  0  0  0  0  0
  -30.7202   -6.1928   -3.5338 C   0  0  0  0  0  0  0  0  0  0  0  0
  -31.5112   -5.1130   -3.9250 C   0  0  0  0  0  0  0  0  0  0  0  0
  -30.9133   -3.9594   -4.4369 C   0  0  0  0  0  0  0  0  0  0  0  0
  -26.1843   -1.5770  -12.3421 C   0  0  0  0  0  0  0  0  0  0  0  0
  -27.1464   -1.9028  -13.2880 C   0  0  0  0  0  0  0  0  0  0  0  0
  -26.5580   -1.6602  -14.5342 C   0  0  0  0  0  0  0  0  0  0  0  0
  -25.3105   -1.2217  -14.4186 N   0  0  0  0  0  0  0  0  0  0  0  0
  -25.0841   -1.1785  -13.0826 N   0  0  0  0  0  0  0  0  0  0  0  0
  -23.7514   -0.7847  -12.6202 C   0  0  0  0  0  0  0  0  0  0  0  0
  -22.7329   -0.6628  -13.7653 C   0  0  0  0  0  0  0  0  0  0  0  0
  -22.1180    0.6967  -13.9923 C   0  0  0  0  0  0  0  0  0  0  0  0
  -20.8755    0.8441  -14.6150 C   0  0  0  0  0  0  0  0  0  0  0  0
  -20.4370    2.1199  -14.9418 C   0  0  0  0  0  0  0  0  0  0  0  0
  -21.1363    3.2462  -14.6870 N   0  0  0  0  0  0  0  0  0  0  0  0
  -22.3307    3.0887  -14.0806 C   0  0  0  0  0  0  0  0  0  0  0  0
  -22.8531    1.8553  -13.7183 C   0  0  0  0  0  0  0  0  0  0  0  0
  1  2  2  0  0  0
  2  3  1  0  0  0
  2 18  1  0  0  0
  3  5  1  0  0  0
  3  4  1  0  0  0
  5  6  1  0  0  0
  5 10  2  0  0  0
  6  7  2  0  0  0
  7  8  1  0  0  0
  8 11  1  0  0  0
  8  9  2  0  0  0
 11 12  1  0  0  0
 12 13  1  0  0  0
 12 17  2  0  0  0
 13 14  2  0  0  0
 14 15  1  0  0  0
 15 16  2  0  0  0
 16 17  1  0  0  0
  9 10  1  0  0  0
 18 19  2  0  0  0
 18 22  1  0  0  0
 19 20  1  0  0  0
 20 21  2  0  0  0
 21 22  1  0  0  0
 22 23  1  0  0  0
 23 24  1  0  0  0
 24 25  1  0  0  0
 25 26  1  0  0  0
 25 30  2  0  0  0
 26 27  2  0  0  0
 27 28  1  0  0  0
 28 29  2  0  0  0
 29 30  1  0  0  0
M  END
> <minimizedAffinity>
-10.17731

$$$$
