CHEMBL315753


 28 31  0  0  0  0  0  0  0  0999 V2000
  -29.4498   -8.3910   -7.6016 C   0  0  0  0  0  0  0  0  0  0  0  0
  -28.8667   -7.1500   -7.8389 C   0  0  0  0  0  0  0  0  0  0  0  0
  -27.8554   -7.3221   -8.7566 N   0  0  0  0  0  0  0  0  0  0  0  0
  -27.8147   -8.6293   -9.1465 C   0  0  0  0  0  0  0  0  0  0  0  0
  -28.7958   -9.3206   -8.4677 C   0  0  0  0  0  0  0  0  0  0  0  0
  -29.0548  -10.7738   -8.7105 C   0  0  0  0  0  0  0  0  0  0  0  0
  -27.8994  -11.4379   -9.4864 C   0  0  0  0  0  0  0  0  0  0  0  0
  -27.3743  -10.5536  -10.6328 C   0  0  0  0  0  0  0  0  0  0  0  0
  -26.8459   -9.2030  -10.1189 C   0  0  0  0  0  0  0  0  0  0  0  0
  -27.2407   -6.5934   -9.0929 H   0  0  0  0  0  0  0  0  0  0  0  0
  -29.1228   -5.8331   -7.3880 C   0  0  0  0  0  0  0  0  0  0  0  0
  -28.8122   -5.3919   -6.1604 C   0  0  0  0  0  0  0  0  0  0  0  0
  -28.1464   -6.1696   -5.0511 C   0  0  0  0  0  0  0  0  0  0  0  0
  -27.8174   -7.3378   -5.0224 O   0  0  0  0  0  0  0  0  0  0  0  0
  -27.9819   -5.2552   -4.0236 N   0  0  0  0  0  0  0  0  0  0  0  0
  -28.4881   -4.0071   -4.3625 C   0  0  0  0  0  0  0  0  0  0  0  0
  -28.4860   -2.8796   -3.5670 C   0  0  0  0  0  0  0  0  0  0  0  0
  -29.0588   -1.7226   -4.0955 C   0  0  0  0  0  0  0  0  0  0  0  0
  -29.6173   -1.7247   -5.3872 C   0  0  0  0  0  0  0  0  0  0  0  0
  -29.6035   -2.8823   -6.1793 C   0  0  0  0  0  0  0  0  0  0  0  0
  -29.0257   -4.0261   -5.6540 C   0  0  0  0  0  0  0  0  0  0  0  0
  -27.5515   -5.5043   -3.1470 H   0  0  0  0  0  0  0  0  0  0  0  0
  -30.5550   -8.7014   -6.6386 C   0  0  0  0  0  0  0  0  0  0  0  0
  -31.9276   -8.3781   -7.2112 C   0  0  0  0  0  0  0  0  0  0  0  0
  -33.3543  -10.3003   -6.9645 O   0  0  0  0  0  0  0  0  0  0  0  0
  -32.6508   -9.6078   -7.6844 C   0  0  0  0  0  0  0  0  0  0  0  0
  -32.4090   -9.9268   -8.9752 O   0  0  0  0  0  0  0  0  0  0  0  0
  -31.8000   -9.3185   -9.4349 H   0  0  0  0  0  0  0  0  0  0  0  0
 25 26  2  0  0  0
 26 27  1  0  0  0
 26 24  1  0  0  0
 27 28  1  0  0  0
 24 23  1  0  0  0
 23  1  1  0  0  0
  1  2  2  0  0  0
  1  5  1  0  0  0
  2 11  1  0  0  0
  2  3  1  0  0  0
 11 12  2  0  0  0
 12 13  1  0  0  0
 12 21  1  0  0  0
 13 14  2  0  0  0
 13 15  1  0  0  0
 15 16  1  0  0  0
 15 22  1  0  0  0
 16 17  1  0  0  0
 16 21  2  0  0  0
 17 18  2  0  0  0
 18 19  1  0  0  0
 19 20  2  0  0  0
 20 21  1  0  0  0
  3  4  1  0  0  0
  3 10  1  0  0  0
  4  5  2  0  0  0
  4  9  1  0  0  0
  5  6  1  0  0  0
  6  7  1  0  0  0
  7  8  1  0  0  0
  8  9  1  0  0  0
M  END
> <minimizedAffinity>
-9.31818

$$$$
