CHEMBL1975503


 20 22  0  0  0  0  0  0  0  0999 V2000
  -29.4195   -4.1957   -6.2130 C   0  0  0  0  0  0  0  0  0  0  0  0
  -29.8789   -4.8099   -7.3229 C   0  0  0  0  0  0  0  0  0  0  0  0
  -30.2086   -6.2252   -7.3363 C   0  0  0  0  0  0  0  0  0  0  0  0
  -30.0561   -6.9571   -6.2237 C   0  0  0  0  0  0  0  0  0  0  0  0
  -29.5895   -6.3506   -5.0924 N   0  0  0  0  0  0  0  0  0  0  0  0
  -29.3574   -6.8979   -3.8561 C   0  0  0  0  0  0  0  0  0  0  0  0
  -29.5156   -8.0496   -3.4856 O   0  0  0  0  0  0  0  0  0  0  0  0
  -28.8870   -5.8371   -3.0793 N   0  0  0  0  0  0  0  0  0  0  0  0
  -28.8335   -4.6764   -3.8131 N   0  0  0  0  0  0  0  0  0  0  0  0
  -29.2575   -5.0331   -4.9903 C   0  0  0  0  0  0  0  0  0  0  0  0
  -28.6160   -5.8837   -2.1066 H   0  0  0  0  0  0  0  0  0  0  0  0
  -28.3172    1.3695   -6.4254 N   0  0  0  0  0  0  0  0  0  0  0  0
  -28.4932   -0.0117   -6.2770 C   0  0  0  0  0  0  0  0  0  0  0  0
  -29.4911   -0.5071   -5.4347 C   0  0  0  0  0  0  0  0  0  0  0  0
  -29.7767   -1.8766   -5.3893 C   0  0  0  0  0  0  0  0  0  0  0  0
  -29.0912   -2.7676   -6.2209 C   0  0  0  0  0  0  0  0  0  0  0  0
  -28.1247   -2.2697   -7.1000 C   0  0  0  0  0  0  0  0  0  0  0  0
  -27.8453   -0.8992   -7.1392 C   0  0  0  0  0  0  0  0  0  0  0  0
  -28.5612    1.9047   -5.5981 H   0  0  0  0  0  0  0  0  0  0  0  0
  -27.4079    1.6291   -6.7950 H   0  0  0  0  0  0  0  0  0  0  0  0
 12 13  1  0  0  0
 12 19  1  0  0  0
 12 20  1  0  0  0
 13 14  1  0  0  0
 13 18  2  0  0  0
 14 15  2  0  0  0
 15 16  1  0  0  0
 16  1  1  0  0  0
 16 17  2  0  0  0
  1  2  2  0  0  0
  1 10  1  0  0  0
  2  3  1  0  0  0
  3  4  2  0  0  0
  4  5  1  0  0  0
  5  6  1  0  0  0
  5 10  1  0  0  0
  6  7  2  0  0  0
  6  8  1  0  0  0
  8  9  1  0  0  0
  8 11  1  0  0  0
  9 10  2  0  0  0
 17 18  1  0  0  0
M  END
> <minimizedAffinity>
-7.90062

$$$$
