CHEMBL1968130


 13 14  0  0  0  0  0  0  0  0999 V2000
  -27.5613   -2.1311  -13.2572 N   0  0  0  0  0  0  0  0  0  0  0  0
  -26.5501   -1.8531  -12.4192 C   0  0  0  0  0  0  0  0  0  0  0  0
  -26.5506   -1.9722  -11.1058 N   0  0  0  0  0  0  0  0  0  0  0  0
  -25.3152   -1.5885  -10.6245 N   0  0  0  0  0  0  0  0  0  0  0  0
  -24.6021   -1.2469  -11.6671 C   0  0  0  0  0  0  0  0  0  0  0  0
  -23.2536   -0.7757  -11.7217 C   0  0  0  0  0  0  0  0  0  0  0  0
  -22.6865   -0.4733  -12.8599 N   0  0  0  0  0  0  0  0  0  0  0  0
  -23.4454   -0.6277  -14.0148 C   0  0  0  0  0  0  0  0  0  0  0  0
  -24.7220   -1.0674  -14.0437 C   0  0  0  0  0  0  0  0  0  0  0  0
  -25.5595   -1.2159  -15.5420 Cl  0  0  0  0  0  0  0  0  0  0  0  0
  -25.3164   -1.3868  -12.8283 N   0  0  0  0  0  0  0  0  0  0  0  0
  -28.4492   -2.4485  -12.8807 H   0  0  0  0  0  0  0  0  0  0  0  0
  -27.5224   -1.9977  -14.2620 H   0  0  0  0  0  0  0  0  0  0  0  0
  1  2  1  0  0  0
  1 12  1  0  0  0
  1 13  1  0  0  0
  2  3  2  0  0  0
  2 11  1  0  0  0
  3  4  1  0  0  0
  4  5  2  0  0  0
  5  6  1  0  0  0
  5 11  1  0  0  0
  6  7  2  0  0  0
  7  8  1  0  0  0
  8  9  2  0  0  0
  9 10  1  0  0  0
  9 11  1  0  0  0
M  END
> <minimizedAffinity>
-5.34297

$$$$
