CHEMBL83656


 23 26  0  0  0  0  0  0  0  0999 V2000
  -27.5540   -2.0661   -9.1975 C   0  0  0  0  0  0  0  0  0  0  0  0
  -28.2580   -3.3543   -8.9084 C   0  0  0  0  0  0  0  0  0  0  0  0
  -28.8614   -3.6728   -7.8020 N   0  0  0  0  0  0  0  0  0  0  0  0
  -28.8456   -2.7258   -6.8060 C   0  0  0  0  0  0  0  0  0  0  0  0
  -29.3567   -2.6971   -5.5177 C   0  0  0  0  0  0  0  0  0  0  0  0
  -28.9926   -1.4233   -5.0269 C   0  0  0  0  0  0  0  0  0  0  0  0
  -28.3014   -0.6946   -5.9001 N   0  0  0  0  0  0  0  0  0  0  0  0
  -28.2078   -1.4875   -6.9927 N   0  0  0  0  0  0  0  0  0  0  0  0
  -27.5734   -1.1805   -8.1898 C   0  0  0  0  0  0  0  0  0  0  0  0
  -25.6338   -1.3049  -12.9373 C   0  0  0  0  0  0  0  0  0  0  0  0
  -26.9709   -1.7005  -12.9014 C   0  0  0  0  0  0  0  0  0  0  0  0
  -27.5986   -1.9507  -11.6747 C   0  0  0  0  0  0  0  0  0  0  0  0
  -26.8965   -1.7998  -10.4731 C   0  0  0  0  0  0  0  0  0  0  0  0
  -25.5562   -1.4066  -10.5107 C   0  0  0  0  0  0  0  0  0  0  0  0
  -24.9331   -1.1597  -11.7373 C   0  0  0  0  0  0  0  0  0  0  0  0
  -23.5589   -0.6131  -13.8718 C   0  0  0  0  0  0  0  0  0  0  0  0
  -24.9034   -1.0365  -14.0614 O   0  0  0  0  0  0  0  0  0  0  0  0
  -30.1182   -3.7432   -4.8485 C   0  0  0  0  0  0  0  0  0  0  0  0
  -30.9275   -3.4176   -3.7476 C   0  0  0  0  0  0  0  0  0  0  0  0
  -31.7415   -4.3809   -3.1449 C   0  0  0  0  0  0  0  0  0  0  0  0
  -31.7537   -5.6846   -3.6327 C   0  0  0  0  0  0  0  0  0  0  0  0
  -30.9396   -6.0284   -4.7096 C   0  0  0  0  0  0  0  0  0  0  0  0
  -30.1241   -5.0644   -5.3126 C   0  0  0  0  0  0  0  0  0  0  0  0
 16 17  1  0  0  0
 17 10  1  0  0  0
 10 11  1  0  0  0
 10 15  2  0  0  0
 11 12  2  0  0  0
 12 13  1  0  0  0
 13  1  1  0  0  0
 13 14  2  0  0  0
  1  2  1  0  0  0
  1  9  2  0  0  0
  2  3  2  0  0  0
  3  4  1  0  0  0
  4  5  2  0  0  0
  4  8  1  0  0  0
  5 18  1  0  0  0
  5  6  1  0  0  0
 18 19  1  0  0  0
 18 23  2  0  0  0
 19 20  2  0  0  0
 20 21  1  0  0  0
 21 22  2  0  0  0
 22 23  1  0  0  0
  6  7  2  0  0  0
  7  8  1  0  0  0
  8  9  1  0  0  0
 14 15  1  0  0  0
M  END
> <minimizedAffinity>
-8.72390

$$$$
