CHEMBL3760069


 31 33  0  0  0  0  0  0  0  0999 V2000
  -27.6573   -1.6062   -5.6125 C   0  0  0  0  0  0  0  0  0  0  0  0
  -27.7977   -2.5462   -4.5813 C   0  0  0  0  0  0  0  0  0  0  0  0
  -28.3543   -3.7926   -4.7838 C   0  0  0  0  0  0  0  0  0  0  0  0
  -28.5131   -4.5705   -3.7112 N   0  0  0  0  0  0  0  0  0  0  0  0
  -29.0632   -5.7641   -3.9206 C   0  0  0  0  0  0  0  0  0  0  0  0
  -29.4209   -6.2521   -5.1051 N   0  0  0  0  0  0  0  0  0  0  0  0
  -29.2306   -5.4675   -6.1880 C   0  0  0  0  0  0  0  0  0  0  0  0
  -28.7233   -4.1633   -6.0804 C   0  0  0  0  0  0  0  0  0  0  0  0
  -28.5284   -3.2442   -7.1468 C   0  0  0  0  0  0  0  0  0  0  0  0
  -27.9790   -1.9754   -6.9240 C   0  0  0  0  0  0  0  0  0  0  0  0
  -28.2795    0.5845   -4.9938 C   0  0  0  0  0  0  0  0  0  0  0  0
  -27.2376   -0.3278   -5.3493 O   0  0  0  0  0  0  0  0  0  0  0  0
  -29.4943   -6.0298   -7.4635 N   0  0  0  0  0  0  0  0  0  0  0  0
  -29.8207   -5.3221   -8.1166 H   0  0  0  0  0  0  0  0  0  0  0  0
  -30.1646   -7.2651   -7.6315 C   0  0  0  0  0  0  0  0  0  0  0  0
  -31.4616   -7.4490   -7.1258 C   0  0  0  0  0  0  0  0  0  0  0  0
  -32.1751   -8.6194   -7.3854 C   0  0  0  0  0  0  0  0  0  0  0  0
  -31.5907   -9.6359   -8.1369 C   0  0  0  0  0  0  0  0  0  0  0  0
  -30.2834   -9.4916   -8.6050 C   0  0  0  0  0  0  0  0  0  0  0  0
  -29.5814   -8.3163   -8.3445 C   0  0  0  0  0  0  0  0  0  0  0  0
  -28.3341   -8.1799   -8.8239 F   0  0  0  0  0  0  0  0  0  0  0  0
  -27.8964   -1.1908   -8.0483 O   0  0  0  0  0  0  0  0  0  0  0  0
  -27.9443   -1.8803   -9.3003 C   0  0  0  0  0  0  0  0  0  0  0  0
  -26.6160   -1.6812  -10.0413 C   0  0  0  0  0  0  0  0  0  0  0  0
  -26.8335   -1.6979  -11.5539 C   0  0  0  0  0  0  0  0  0  0  0  0
  -25.5513   -1.7889  -12.3534 C   0  0  0  0  0  0  0  0  0  0  0  0
  -25.4587   -1.5928  -13.5617 O   0  0  0  0  0  0  0  0  0  0  0  0
  -24.4635   -2.1336  -11.5800 N   0  0  0  0  0  0  0  0  0  0  0  0
  -23.2086   -2.1345  -12.2301 O   0  0  0  0  0  0  0  0  0  0  0  0
  -24.4440   -2.0147  -10.5701 H   0  0  0  0  0  0  0  0  0  0  0  0
  -23.4550   -1.9088  -13.1597 H   0  0  0  0  0  0  0  0  0  0  0  0
 11 12  1  0  0  0
 12  1  1  0  0  0
  1  2  1  0  0  0
  1 10  2  0  0  0
  2  3  2  0  0  0
  3  4  1  0  0  0
  3  8  1  0  0  0
  4  5  2  0  0  0
  5  6  1  0  0  0
  6  7  2  0  0  0
  7 13  1  0  0  0
  7  8  1  0  0  0
 13 15  1  0  0  0
 13 14  1  0  0  0
 15 16  1  0  0  0
 15 20  2  0  0  0
 16 17  2  0  0  0
 17 18  1  0  0  0
 18 19  2  0  0  0
 19 20  1  0  0  0
 20 21  1  0  0  0
  8  9  2  0  0  0
  9 10  1  0  0  0
 10 22  1  0  0  0
 22 23  1  0  0  0
 23 24  1  0  0  0
 24 25  1  0  0  0
 25 26  1  0  0  0
 26 27  2  0  0  0
 26 28  1  0  0  0
 28 29  1  0  0  0
 28 30  1  0  0  0
 29 31  1  0  0  0
M  END
> <minimizedAffinity>
-8.64338

$$$$
