CHEMBL1164180


 36 40  0  0  0  0  0  0  0  0999 V2000
  -14.6493   -1.4428  -12.9899 C   0  0  0  0  0  0  0  0  0  0  0  0
  -15.7573   -1.4530  -12.1402 C   0  0  0  0  0  0  0  0  0  0  0  0
  -15.8612   -2.2236  -11.0426 N   0  0  0  0  0  0  0  0  0  0  0  0
  -14.8384   -3.0601  -10.8279 C   0  0  0  0  0  0  0  0  0  0  0  0
  -13.9854   -3.4939  -11.8564 C   0  0  0  0  0  0  0  0  0  0  0  0
  -13.8281   -2.5886  -12.9185 C   0  0  0  0  0  0  0  0  0  0  0  0
  -13.0137   -4.5487  -11.6007 N   0  0  0  0  0  0  0  0  0  0  0  0
  -12.1621   -3.8537  -10.5774 C   0  0  0  0  0  0  0  0  0  0  0  0
  -12.9731   -3.4830   -9.2895 C   0  0  0  0  0  0  0  0  0  0  0  0
  -14.4074   -3.2110   -9.5041 N   0  0  0  0  0  0  0  0  0  0  0  0
  -15.0970   -3.6894   -8.9405 H   0  0  0  0  0  0  0  0  0  0  0  0
  -13.2360    2.0423  -15.0868 C   0  0  0  0  0  0  0  0  0  0  0  0
  -14.3769    1.3751  -15.5403 C   0  0  0  0  0  0  0  0  0  0  0  0
  -14.8955    0.2700  -14.8521 C   0  0  0  0  0  0  0  0  0  0  0  0
  -14.2707   -0.1937  -13.7016 C   0  0  0  0  0  0  0  0  0  0  0  0
  -13.1350    0.5479  -13.3293 C   0  0  0  0  0  0  0  0  0  0  0  0
  -12.6305    1.6430  -13.9580 N   0  0  0  0  0  0  0  0  0  0  0  0
  -11.8212    6.3516  -18.3067 C   0  0  0  0  0  0  0  0  0  0  0  0
  -11.7187    5.4881  -17.1293 N   0  0  0  0  0  0  0  0  0  0  0  0
  -12.9895    5.5170  -16.3563 C   0  0  0  0  0  0  0  0  0  0  0  0
  -13.0331    4.4890  -15.1907 C   0  0  0  0  0  0  0  0  0  0  0  0
  -12.7949    3.1609  -15.7734 N   0  0  0  0  0  0  0  0  0  0  0  0
  -11.4607    3.0793  -16.3875 C   0  0  0  0  0  0  0  0  0  0  0  0
  -11.4035    4.0998  -17.5482 C   0  0  0  0  0  0  0  0  0  0  0  0
  -13.6027   -5.7707  -10.9570 C   0  0  0  0  0  0  0  0  0  0  0  0
  -13.5237   -7.1010  -11.6841 C   0  0  0  0  0  0  0  0  0  0  0  0
  -12.4454   -7.9505  -11.3448 C   0  0  0  0  0  0  0  0  0  0  0  0
  -12.0794   -9.0196  -12.1637 C   0  0  0  0  0  0  0  0  0  0  0  0
  -10.6988   -9.9683  -11.7716 Cl  0  0  0  0  0  0  0  0  0  0  0  0
  -12.7865   -9.2854  -13.3275 C   0  0  0  0  0  0  0  0  0  0  0  0
  -13.8919   -8.4992  -13.6492 C   0  0  0  0  0  0  0  0  0  0  0  0
  -14.2867   -7.4062  -12.8389 C   0  0  0  0  0  0  0  0  0  0  0  0
  -15.4906   -6.6222  -13.3277 C   0  0  0  0  0  0  0  0  0  0  0  0
  -15.2228   -5.4712  -13.9964 F   0  0  0  0  0  0  0  0  0  0  0  0
  -16.2586   -7.3630  -14.1809 F   0  0  0  0  0  0  0  0  0  0  0  0
  -16.3209   -6.2714  -12.3057 F   0  0  0  0  0  0  0  0  0  0  0  0
 18 19  1  0  0  0
 19 20  1  0  0  0
 19 24  1  0  0  0
 20 21  1  0  0  0
 21 22  1  0  0  0
 22 12  1  0  0  0
 22 23  1  0  0  0
 12 13  1  0  0  0
 12 17  2  0  0  0
 13 14  2  0  0  0
 14 15  1  0  0  0
 15  1  1  0  0  0
 15 16  2  0  0  0
  1  2  1  0  0  0
  1  6  2  0  0  0
  2  3  2  0  0  0
  3  4  1  0  0  0
  4  5  2  0  0  0
  4 10  1  0  0  0
  5  6  1  0  0  0
  5  7  1  0  0  0
  7 25  1  0  0  0
  7  8  1  0  0  0
 25 26  1  0  0  0
 26 27  1  0  0  0
 26 32  2  0  0  0
 27 28  2  0  0  0
 28 29  1  0  0  0
 28 30  1  0  0  0
 30 31  2  0  0  0
 31 32  1  0  0  0
 32 33  1  0  0  0
 33 34  1  0  0  0
 33 35  1  0  0  0
 33 36  1  0  0  0
  8  9  1  0  0  0
  9 10  1  0  0  0
 10 11  1  0  0  0
 16 17  1  0  0  0
 23 24  1  0  0  0
M  END
> <minimizedAffinity>
-7.51346

$$$$
