CHEMBL1978166


 44 47  0  0  0  0  0  0  0  0999 V2000
  -21.6828    0.2325  -14.3158 C   0  0  0  0  0  0  0  0  0  0  0  0
  -20.8545   -0.8003  -14.7060 C   0  0  0  0  0  0  0  0  0  0  0  0
  -19.3646   -0.2730  -15.3082 S   0  0  0  0  0  0  0  0  0  0  0  0
  -19.7568    1.3874  -15.0466 C   0  0  0  0  0  0  0  0  0  0  0  0
  -18.9393    2.4942  -15.3260 C   0  0  0  0  0  0  0  0  0  0  0  0
  -19.4791    3.7251  -15.0104 C   0  0  0  0  0  0  0  0  0  0  0  0
  -20.7042    3.9219  -14.4812 N   0  0  0  0  0  0  0  0  0  0  0  0
  -21.4975    2.8658  -14.2205 C   0  0  0  0  0  0  0  0  0  0  0  0
  -22.7366    3.1959  -13.7056 N   0  0  0  0  0  0  0  0  0  0  0  0
  -21.0472    1.5402  -14.4965 C   0  0  0  0  0  0  0  0  0  0  0  0
  -22.8972    4.1417  -13.4259 H   0  0  0  0  0  0  0  0  0  0  0  0
  -23.2091    2.5211  -13.1347 H   0  0  0  0  0  0  0  0  0  0  0  0
  -25.4616   -0.8658  -12.5602 C   0  0  0  0  0  0  0  0  0  0  0  0
  -25.1121   -1.2533  -13.8636 C   0  0  0  0  0  0  0  0  0  0  0  0
  -23.8968   -0.8829  -14.4461 C   0  0  0  0  0  0  0  0  0  0  0  0
  -22.9996   -0.0810  -13.7464 C   0  0  0  0  0  0  0  0  0  0  0  0
  -23.3912    0.3739  -12.4808 C   0  0  0  0  0  0  0  0  0  0  0  0
  -24.5664   -0.0678  -11.8527 C   0  0  0  0  0  0  0  0  0  0  0  0
  -27.9900   -1.9507  -10.1427 N   0  0  0  0  0  0  0  0  0  0  0  0
  -26.7281   -1.6036  -10.6331 C   0  0  0  0  0  0  0  0  0  0  0  0
  -25.7147   -1.5693   -9.9893 O   0  0  0  0  0  0  0  0  0  0  0  0
  -26.7000   -1.2600  -11.9970 N   0  0  0  0  0  0  0  0  0  0  0  0
  -28.7854   -1.9660  -10.7609 H   0  0  0  0  0  0  0  0  0  0  0  0
  -27.5440   -0.9339  -12.4318 H   0  0  0  0  0  0  0  0  0  0  0  0
  -27.5971   -0.9895   -5.2060 C   0  0  0  0  0  0  0  0  0  0  0  0
  -28.0216   -1.8585   -6.3585 C   0  0  0  0  0  0  0  0  0  0  0  0
  -28.6563   -3.0704   -6.0677 C   0  0  0  0  0  0  0  0  0  0  0  0
  -29.0775   -3.8911   -7.0958 C   0  0  0  0  0  0  0  0  0  0  0  0
  -28.8664   -3.5136   -8.4165 C   0  0  0  0  0  0  0  0  0  0  0  0
  -28.2208   -2.3174   -8.7688 C   0  0  0  0  0  0  0  0  0  0  0  0
  -27.8024   -1.4863   -7.7099 C   0  0  0  0  0  0  0  0  0  0  0  0
  -17.6330    2.3178  -15.9079 C   0  0  0  0  0  0  0  0  0  0  0  0
  -16.4509    2.1337  -16.4263 C   0  0  0  0  0  0  0  0  0  0  0  0
  -15.0729    1.9190  -17.0307 C   0  0  0  0  0  0  0  0  0  0  0  0
  -14.0631    1.7013  -15.9224 C   0  0  0  0  0  0  0  0  0  0  0  0
  -14.3277    0.3719  -15.2373 C   0  0  0  0  0  0  0  0  0  0  0  0
  -14.5431    0.5832  -13.7486 C   0  0  0  0  0  0  0  0  0  0  0  0
  -15.8919    0.0206  -13.3301 C   0  0  0  0  0  0  0  0  0  0  0  0
  -15.8733   -1.4988  -13.3994 C   0  0  0  0  0  0  0  0  0  0  0  0
  -15.1548   -2.0778  -12.1873 C   0  0  0  0  0  0  0  0  0  0  0  0
  -16.0202   -3.1313  -11.5092 C   0  0  0  0  0  0  0  0  0  0  0  0
  -16.0296   -2.9098  -10.0706 N   0  0  0  0  0  0  0  0  0  0  0  0
  -15.0810   -2.9930   -9.7073 H   0  0  0  0  0  0  0  0  0  0  0  0
  -16.5757   -3.6425   -9.6212 H   0  0  0  0  0  0  0  0  0  0  0  0
 25 26  1  0  0  0
 26 27  1  0  0  0
 26 31  2  0  0  0
 27 28  2  0  0  0
 28 29  1  0  0  0
 29 30  2  0  0  0
 30 19  1  0  0  0
 30 31  1  0  0  0
 19 20  1  0  0  0
 19 23  1  0  0  0
 20 21  2  0  0  0
 20 22  1  0  0  0
 22 13  1  0  0  0
 22 24  1  0  0  0
 13 14  1  0  0  0
 13 18  2  0  0  0
 14 15  2  0  0  0
 15 16  1  0  0  0
 16  1  1  0  0  0
 16 17  2  0  0  0
  1  2  2  0  0  0
  1 10  1  0  0  0
  2  3  1  0  0  0
  3  4  1  0  0  0
  4  5  1  0  0  0
  4 10  2  0  0  0
  5 32  1  0  0  0
  5  6  2  0  0  0
 32 33  3  0  0  0
 33 34  1  0  0  0
 34 35  1  0  0  0
 35 36  1  0  0  0
 36 37  1  0  0  0
 37 38  1  0  0  0
 38 39  1  0  0  0
 39 40  1  0  0  0
 40 41  1  0  0  0
 41 42  1  0  0  0
 42 43  1  0  0  0
 42 44  1  0  0  0
  6  7  1  0  0  0
  7  8  2  0  0  0
  8  9  1  0  0  0
  8 10  1  0  0  0
  9 11  1  0  0  0
  9 12  1  0  0  0
 17 18  1  0  0  0
M  END
> <minimizedAffinity>
-9.28479

$$$$
