CHEMBL3752606


 32 36  0  0  0  0  0  0  0  0999 V2000
  -29.8827   -9.7924   -7.5052 N   0  0  0  0  0  0  0  0  0  0  0  0
  -30.9635   -8.9506   -6.9424 C   0  0  0  0  0  0  0  0  0  0  0  0
  -31.0356   -7.5055   -7.4908 C   0  0  0  0  0  0  0  0  0  0  0  0
  -29.7236   -6.8417   -7.5165 N   0  0  0  0  0  0  0  0  0  0  0  0
  -28.5433   -7.6588   -7.8405 C   0  0  0  0  0  0  0  0  0  0  0  0
  -28.6115   -9.0782   -7.2530 C   0  0  0  0  0  0  0  0  0  0  0  0
  -29.5900   -5.5796   -6.9418 C   0  0  0  0  0  0  0  0  0  0  0  0
  -28.9242   -4.6352   -7.6395 N   0  0  0  0  0  0  0  0  0  0  0  0
  -28.7973   -3.3431   -7.1758 N   0  0  0  0  0  0  0  0  0  0  0  0
  -29.3918   -2.9546   -6.0261 C   0  0  0  0  0  0  0  0  0  0  0  0
  -30.1502   -3.8799   -5.2700 C   0  0  0  0  0  0  0  0  0  0  0  0
  -30.9173   -3.5432   -4.1184 C   0  0  0  0  0  0  0  0  0  0  0  0
  -31.5282   -4.5007   -3.3110 C   0  0  0  0  0  0  0  0  0  0  0  0
  -31.3872   -5.8368   -3.6246 C   0  0  0  0  0  0  0  0  0  0  0  0
  -30.7018   -6.1898   -4.7837 C   0  0  0  0  0  0  0  0  0  0  0  0
  -30.1526   -5.2378   -5.6844 C   0  0  0  0  0  0  0  0  0  0  0  0
  -29.0993   -1.5472   -5.6408 C   0  0  0  0  0  0  0  0  0  0  0  0
  -27.8625   -1.1954   -5.0665 C   0  0  0  0  0  0  0  0  0  0  0  0
  -27.5638    0.1285   -4.7192 C   0  0  0  0  0  0  0  0  0  0  0  0
  -28.4913    1.1393   -4.9512 C   0  0  0  0  0  0  0  0  0  0  0  0
  -29.7355    0.8190   -5.4783 C   0  0  0  0  0  0  0  0  0  0  0  0
  -30.0443   -0.5110   -5.7800 C   0  0  0  0  0  0  0  0  0  0  0  0
  -30.1035  -10.0494   -8.9462 C   0  0  0  0  0  0  0  0  0  0  0  0
  -28.8875  -10.7326   -9.5725 C   0  0  0  0  0  0  0  0  0  0  0  0
  -28.3486  -11.6989   -9.0287 O   0  0  0  0  0  0  0  0  0  0  0  0
  -26.8189   -9.0166  -14.6976 C   0  0  0  0  0  0  0  0  0  0  0  0
  -27.3581   -9.4317  -13.3620 C   0  0  0  0  0  0  0  0  0  0  0  0
  -26.6377   -9.2037  -12.1849 C   0  0  0  0  0  0  0  0  0  0  0  0
  -27.1574   -9.6068  -10.9515 C   0  0  0  0  0  0  0  0  0  0  0  0
  -28.3975  -10.2558  -10.8927 C   0  0  0  0  0  0  0  0  0  0  0  0
  -29.1217  -10.4756  -12.0666 C   0  0  0  0  0  0  0  0  0  0  0  0
  -28.6047  -10.0636  -13.2925 C   0  0  0  0  0  0  0  0  0  0  0  0
 26 27  1  0  0  0
 27 28  1  0  0  0
 27 32  2  0  0  0
 28 29  2  0  0  0
 29 30  1  0  0  0
 30 24  1  0  0  0
 30 31  2  0  0  0
 24 25  2  0  0  0
 24 23  1  0  0  0
 23  1  1  0  0  0
  1  2  1  0  0  0
  1  6  1  0  0  0
  2  3  1  0  0  0
  3  4  1  0  0  0
  4  7  1  0  0  0
  4  5  1  0  0  0
  7  8  1  0  0  0
  7 16  2  0  0  0
  8  9  2  0  0  0
  9 10  1  0  0  0
 10 17  1  0  0  0
 10 11  2  0  0  0
 17 18  1  0  0  0
 17 22  2  0  0  0
 18 19  2  0  0  0
 19 20  1  0  0  0
 20 21  2  0  0  0
 21 22  1  0  0  0
 11 12  1  0  0  0
 11 16  1  0  0  0
 12 13  2  0  0  0
 13 14  1  0  0  0
 14 15  2  0  0  0
 15 16  1  0  0  0
  5  6  1  0  0  0
 31 32  1  0  0  0
M  END
> <minimizedAffinity>
-10.23215

$$$$
