CHEMBL219581


 42 48  0  0  0  0  0  0  0  0999 V2000
  -28.8536   -4.9368   -4.7964 N   0  0  0  0  0  0  0  0  0  0  0  0
  -28.7468   -4.0562   -5.9247 C   0  0  0  0  0  0  0  0  0  0  0  0
  -29.0925   -2.7006   -6.1300 C   0  0  0  0  0  0  0  0  0  0  0  0
  -28.9740   -2.1457   -7.4350 C   0  0  0  0  0  0  0  0  0  0  0  0
  -28.5111   -2.8729   -8.5229 C   0  0  0  0  0  0  0  0  0  0  0  0
  -28.1970   -4.2146   -8.3108 C   0  0  0  0  0  0  0  0  0  0  0  0
  -28.3044   -4.8012   -7.0121 C   0  0  0  0  0  0  0  0  0  0  0  0
  -28.1808   -6.0642   -6.4682 C   0  0  0  0  0  0  0  0  0  0  0  0
  -28.2738   -7.1870   -7.2811 C   0  0  0  0  0  0  0  0  0  0  0  0
  -28.7409   -8.3646   -6.6719 C   0  0  0  0  0  0  0  0  0  0  0  0
  -29.0337   -8.4662   -5.2948 C   0  0  0  0  0  0  0  0  0  0  0  0
  -28.2669   -7.5262   -4.5134 C   0  0  0  0  0  0  0  0  0  0  0  0
  -28.2815   -6.2057   -5.0906 C   0  0  0  0  0  0  0  0  0  0  0  0
  -26.9279   -8.3313   -3.9852 C   0  0  0  0  0  0  0  0  0  0  0  0
  -26.6862   -9.7856   -4.6329 C   0  0  0  0  0  0  0  0  0  0  0  0
  -27.9753  -10.5132   -4.4514 C   0  0  0  0  0  0  0  0  0  0  0  0
  -28.2189  -11.6096   -3.7316 N   0  0  0  0  0  0  0  0  0  0  0  0
  -29.5619  -11.5337   -3.5313 N   0  0  0  0  0  0  0  0  0  0  0  0
  -30.2235  -12.4659   -2.6501 C   0  0  0  0  0  0  0  0  0  0  0  0
  -30.1300  -10.3858   -4.0292 C   0  0  0  0  0  0  0  0  0  0  0  0
  -29.1406   -9.8001   -4.7657 C   0  0  0  0  0  0  0  0  0  0  0  0
  -28.6562   -9.4169   -7.6570 C   0  0  0  0  0  0  0  0  0  0  0  0
  -28.7856  -10.6326   -7.6139 O   0  0  0  0  0  0  0  0  0  0  0  0
  -28.2444   -8.7753   -8.8172 N   0  0  0  0  0  0  0  0  0  0  0  0
  -28.0279   -7.3582   -8.7152 C   0  0  0  0  0  0  0  0  0  0  0  0
  -27.9813   -9.3299   -9.6155 H   0  0  0  0  0  0  0  0  0  0  0  0
  -28.3348   -2.3531   -9.8442 N   0  0  0  0  0  0  0  0  0  0  0  0
  -27.1215   -1.9078  -10.3634 C   0  0  0  0  0  0  0  0  0  0  0  0
  -26.0848   -1.9429   -9.6968 O   0  0  0  0  0  0  0  0  0  0  0  0
  -27.1920   -1.4495  -11.6606 N   0  0  0  0  0  0  0  0  0  0  0  0
  -29.0620   -2.5310  -10.5173 H   0  0  0  0  0  0  0  0  0  0  0  0
  -28.0942   -1.1342  -11.9985 H   0  0  0  0  0  0  0  0  0  0  0  0
  -26.0492   -0.9868  -12.3787 C   0  0  0  0  0  0  0  0  0  0  0  0
  -25.7082   -1.4950  -13.6490 C   0  0  0  0  0  0  0  0  0  0  0  0
  -24.4988   -1.1828  -14.2584 C   0  0  0  0  0  0  0  0  0  0  0  0
  -23.6190   -0.3152  -13.6312 C   0  0  0  0  0  0  0  0  0  0  0  0
  -22.0806   -0.0029  -14.3337 Cl  0  0  0  0  0  0  0  0  0  0  0  0
  -23.9818    0.2926  -12.4256 C   0  0  0  0  0  0  0  0  0  0  0  0
  -25.2001   -0.0318  -11.8080 C   0  0  0  0  0  0  0  0  0  0  0  0
  -29.5106   -4.5482   -3.5441 C   0  0  0  0  0  0  0  0  0  0  0  0
  -31.8039   -5.7529   -3.9219 C   0  0  0  0  0  0  0  0  0  0  0  0
  -31.0515   -4.4897   -3.5263 C   0  0  0  0  0  0  0  0  0  0  0  0
 41 42  1  0  0  0
 42 40  1  0  0  0
 40  1  1  0  0  0
  1  2  1  0  0  0
  1 13  1  0  0  0
  2  3  1  0  0  0
  2  7  2  0  0  0
  3  4  2  0  0  0
  4  5  1  0  0  0
  5 27  1  0  0  0
  5  6  2  0  0  0
 27 28  1  0  0  0
 27 31  1  0  0  0
 28 29  2  0  0  0
 28 30  1  0  0  0
 30 33  1  0  0  0
 30 32  1  0  0  0
 33 34  1  0  0  0
 33 39  2  0  0  0
 34 35  2  0  0  0
 35 36  1  0  0  0
 36 37  1  0  0  0
 36 38  2  0  0  0
 38 39  1  0  0  0
  6  7  1  0  0  0
  7  8  1  0  0  0
  8  9  1  0  0  0
  8 13  2  0  0  0
  9 10  2  0  0  0
  9 25  1  0  0  0
 10 11  1  0  0  0
 10 22  1  0  0  0
 11 12  2  0  0  0
 11 21  1  0  0  0
 12 13  1  0  0  0
 12 14  1  0  0  0
 14 15  1  0  0  0
 15 16  1  0  0  0
 16 17  2  0  0  0
 16 21  1  0  0  0
 17 18  1  0  0  0
 18 19  1  0  0  0
 18 20  1  0  0  0
 20 21  2  0  0  0
 22 23  2  0  0  0
 22 24  1  0  0  0
 24 25  1  0  0  0
 24 26  1  0  0  0
M  END
> <minimizedAffinity>
-9.78865

$$$$
