CHEMBL3893285


 46 50  0  0  0  0  0  0  0  0999 V2000
  -28.0759   -2.3490   -9.5188 N   0  0  0  0  0  0  0  0  0  0  0  0
  -26.8811   -1.9772  -10.1229 C   0  0  0  0  0  0  0  0  0  0  0  0
  -25.9441   -1.4385   -9.5429 O   0  0  0  0  0  0  0  0  0  0  0  0
  -26.8493   -2.2288  -11.4944 N   0  0  0  0  0  0  0  0  0  0  0  0
  -28.8070   -2.7171  -10.1079 H   0  0  0  0  0  0  0  0  0  0  0  0
  -27.7250   -2.0857  -11.9755 H   0  0  0  0  0  0  0  0  0  0  0  0
  -25.6643   -1.9067  -12.2149 C   0  0  0  0  0  0  0  0  0  0  0  0
  -24.4235   -1.8877  -11.5643 C   0  0  0  0  0  0  0  0  0  0  0  0
  -23.2689   -1.4588  -12.2269 C   0  0  0  0  0  0  0  0  0  0  0  0
  -23.3223   -1.1028  -13.5759 C   0  0  0  0  0  0  0  0  0  0  0  0
  -24.5652   -1.1181  -14.2177 C   0  0  0  0  0  0  0  0  0  0  0  0
  -24.6674   -0.7032  -15.4895 F   0  0  0  0  0  0  0  0  0  0  0  0
  -25.7296   -1.5383  -13.5580 C   0  0  0  0  0  0  0  0  0  0  0  0
  -22.2184   -0.6772  -14.2981 O   0  0  0  0  0  0  0  0  0  0  0  0
  -21.9054    0.6741  -14.3363 C   0  0  0  0  0  0  0  0  0  0  0  0
  -22.6434    1.6426  -13.6687 C   0  0  0  0  0  0  0  0  0  0  0  0
  -22.2825    2.9595  -13.8354 C   0  0  0  0  0  0  0  0  0  0  0  0
  -21.2141    3.3414  -14.5572 N   0  0  0  0  0  0  0  0  0  0  0  0
  -20.4376    2.4097  -15.1334 C   0  0  0  0  0  0  0  0  0  0  0  0
  -20.7563    1.0521  -15.0539 C   0  0  0  0  0  0  0  0  0  0  0  0
  -19.2843    2.8264  -15.8281 N   0  0  0  0  0  0  0  0  0  0  0  0
  -17.9963    2.6061  -15.3640 C   0  0  0  0  0  0  0  0  0  0  0  0
  -17.6672    2.0566  -14.3232 O   0  0  0  0  0  0  0  0  0  0  0  0
  -19.4096    3.2765  -16.7174 H   0  0  0  0  0  0  0  0  0  0  0  0
  -16.8681    3.0774  -16.2274 C   0  0  0  0  0  0  0  0  0  0  0  0
  -15.4165    3.1968  -15.8539 C   0  0  0  0  0  0  0  0  0  0  0  0
  -16.2547    4.4368  -15.9846 C   0  0  0  0  0  0  0  0  0  0  0  0
  -28.8392   -3.0639   -5.8866 C   0  0  0  0  0  0  0  0  0  0  0  0
  -28.6507   -3.2304   -7.2706 C   0  0  0  0  0  0  0  0  0  0  0  0
  -28.3810   -2.1596   -8.1376 C   0  0  0  0  0  0  0  0  0  0  0  0
  -28.4133   -0.8680   -7.6128 C   0  0  0  0  0  0  0  0  0  0  0  0
  -28.6821   -0.6607   -6.2435 C   0  0  0  0  0  0  0  0  0  0  0  0
  -28.8665   -1.7700   -5.3958 C   0  0  0  0  0  0  0  0  0  0  0  0
  -28.8192    0.7162   -5.6462 C   0  0  0  0  0  0  0  0  0  0  0  0
  -30.0973    1.0402   -5.3038 F   0  0  0  0  0  0  0  0  0  0  0  0
  -28.0822    0.8581   -4.5089 F   0  0  0  0  0  0  0  0  0  0  0  0
  -28.3954    1.6990   -6.4883 F   0  0  0  0  0  0  0  0  0  0  0  0
  -29.0837   -4.1911   -5.1059 N   0  0  0  0  0  0  0  0  0  0  0  0
  -28.9494   -4.0021   -4.1128 H   0  0  0  0  0  0  0  0  0  0  0  0
  -28.4162   -8.7096   -3.8038 C   0  0  0  0  0  0  0  0  0  0  0  0
  -29.3691   -7.7922   -4.4359 N   0  0  0  0  0  0  0  0  0  0  0  0
  -29.7742   -6.7529   -3.4787 C   0  0  0  0  0  0  0  0  0  0  0  0
  -30.7603   -5.7712   -4.1082 C   0  0  0  0  0  0  0  0  0  0  0  0
  -30.2001   -5.1145   -5.3719 C   0  0  0  0  0  0  0  0  0  0  0  0
  -29.7249   -6.2129   -6.3309 C   0  0  0  0  0  0  0  0  0  0  0  0
  -28.7836   -7.2133   -5.6526 C   0  0  0  0  0  0  0  0  0  0  0  0
 40 41  1  0  0  0
 41 42  1  0  0  0
 41 46  1  0  0  0
 42 43  1  0  0  0
 43 44  1  0  0  0
 44 38  1  0  0  0
 44 45  1  0  0  0
 38 28  1  0  0  0
 38 39  1  0  0  0
 28 29  1  0  0  0
 28 33  2  0  0  0
 29 30  2  0  0  0
 30  1  1  0  0  0
 30 31  1  0  0  0
  1  2  1  0  0  0
  1  5  1  0  0  0
  2  3  2  0  0  0
  2  4  1  0  0  0
  4  7  1  0  0  0
  4  6  1  0  0  0
  7  8  1  0  0  0
  7 13  2  0  0  0
  8  9  2  0  0  0
  9 10  1  0  0  0
 10 14  1  0  0  0
 10 11  2  0  0  0
 14 15  1  0  0  0
 15 16  1  0  0  0
 15 20  2  0  0  0
 16 17  2  0  0  0
 17 18  1  0  0  0
 18 19  2  0  0  0
 19 21  1  0  0  0
 19 20  1  0  0  0
 21 22  1  0  0  0
 21 24  1  0  0  0
 22 23  2  0  0  0
 22 25  1  0  0  0
 25 26  1  0  0  0
 25 27  1  0  0  0
 26 27  1  0  0  0
 11 12  1  0  0  0
 11 13  1  0  0  0
 31 32  2  0  0  0
 32 34  1  0  0  0
 32 33  1  0  0  0
 34 35  1  0  0  0
 34 36  1  0  0  0
 34 37  1  0  0  0
 45 46  1  0  0  0
M  END
> <minimizedAffinity>
-12.98114

$$$$
