CHEMBL3343366


 49 54  0  0  0  0  0  0  0  0999 V2000
  -14.7821    2.8272  -15.3114 C   0  0  0  0  0  0  0  0  0  0  0  0
  -13.5875    2.1293  -15.1405 C   0  0  0  0  0  0  0  0  0  0  0  0
  -13.5977    0.7440  -14.9133 C   0  0  0  0  0  0  0  0  0  0  0  0
  -14.7949    0.0352  -14.7752 C   0  0  0  0  0  0  0  0  0  0  0  0
  -15.9950    0.7455  -14.8764 C   0  0  0  0  0  0  0  0  0  0  0  0
  -15.9790    2.1201  -15.1579 C   0  0  0  0  0  0  0  0  0  0  0  0
  -17.1526    2.7537  -15.3073 F   0  0  0  0  0  0  0  0  0  0  0  0
  -14.8392   -1.3573  -14.5174 N   0  0  0  0  0  0  0  0  0  0  0  0
  -15.0841   -1.9563  -13.2877 C   0  0  0  0  0  0  0  0  0  0  0  0
  -15.2347   -1.3699  -12.2229 O   0  0  0  0  0  0  0  0  0  0  0  0
  -14.6193   -1.9838  -15.2860 H   0  0  0  0  0  0  0  0  0  0  0  0
  -15.1062   -3.4161  -13.3263 C   0  0  0  0  0  0  0  0  0  0  0  0
  -16.2350   -4.1414  -13.5783 N   0  0  0  0  0  0  0  0  0  0  0  0
  -15.9086   -5.4243  -13.5599 N   0  0  0  0  0  0  0  0  0  0  0  0
  -14.5898   -5.5457  -13.2409 N   0  0  0  0  0  0  0  0  0  0  0  0
  -14.0365   -4.2841  -13.1755 C   0  0  0  0  0  0  0  0  0  0  0  0
  -14.0221   -6.8453  -13.0859 C   0  0  0  0  0  0  0  0  0  0  0  0
  -13.6827   -7.5733  -14.2425 C   0  0  0  0  0  0  0  0  0  0  0  0
  -13.0933   -8.8374  -14.1390 C   0  0  0  0  0  0  0  0  0  0  0  0
  -12.8711   -9.3910  -12.8862 C   0  0  0  0  0  0  0  0  0  0  0  0
  -12.3138  -10.6048  -12.7863 F   0  0  0  0  0  0  0  0  0  0  0  0
  -13.2326   -8.7042  -11.7343 C   0  0  0  0  0  0  0  0  0  0  0  0
  -13.8096   -7.4313  -11.8300 C   0  0  0  0  0  0  0  0  0  0  0  0
  -12.6002   -4.0171  -13.1637 C   0  0  0  0  0  0  0  0  0  0  0  0
  -12.3022   -2.7016  -13.0450 F   0  0  0  0  0  0  0  0  0  0  0  0
  -11.9549   -4.6576  -12.1620 F   0  0  0  0  0  0  0  0  0  0  0  0
  -12.0249   -4.4120  -14.3290 F   0  0  0  0  0  0  0  0  0  0  0  0
  -14.8921    4.1630  -15.6440 O   0  0  0  0  0  0  0  0  0  0  0  0
  -11.7260    6.8829  -16.8427 C   0  0  0  0  0  0  0  0  0  0  0  0
  -12.6232    5.8892  -16.4704 C   0  0  0  0  0  0  0  0  0  0  0  0
  -13.6112    5.4187  -17.3576 C   0  0  0  0  0  0  0  0  0  0  0  0
  -14.6751    4.5840  -16.9507 C   0  0  0  0  0  0  0  0  0  0  0  0
  -15.5622    4.0858  -17.8983 C   0  0  0  0  0  0  0  0  0  0  0  0
  -15.4028    4.4909  -19.2086 C   0  0  0  0  0  0  0  0  0  0  0  0
  -14.4465    5.3520  -19.6203 N   0  0  0  0  0  0  0  0  0  0  0  0
  -13.5662    5.8131  -18.7066 C   0  0  0  0  0  0  0  0  0  0  0  0
  -12.5698    6.7001  -19.1040 C   0  0  0  0  0  0  0  0  0  0  0  0
  -11.6376    7.2278  -18.1955 C   0  0  0  0  0  0  0  0  0  0  0  0
  -11.5464    8.0124  -14.7355 C   0  0  0  0  0  0  0  0  0  0  0  0
  -10.9427    7.5385  -15.9334 O   0  0  0  0  0  0  0  0  0  0  0  0
  -10.6965    8.0611  -18.7551 O   0  0  0  0  0  0  0  0  0  0  0  0
  -11.1486    8.7956  -19.8991 C   0  0  0  0  0  0  0  0  0  0  0  0
  -11.4328   10.2451  -19.5356 C   0  0  0  0  0  0  0  0  0  0  0  0
  -12.9186   10.4981  -19.2784 C   0  0  0  0  0  0  0  0  0  0  0  0
  -13.7588   10.0031  -20.3843 N   0  0  0  0  0  0  0  0  0  0  0  0
  -14.3266   11.1250  -21.1508 C   0  0  0  0  0  0  0  0  0  0  0  0
  -15.6200   11.4651  -20.4380 C   0  0  0  0  0  0  0  0  0  0  0  0
  -16.1528   10.1047  -20.0386 C   0  0  0  0  0  0  0  0  0  0  0  0
  -14.9185    9.2186  -19.9214 C   0  0  0  0  0  0  0  0  0  0  0  0
 39 40  1  0  0  0
 40 29  1  0  0  0
 29 30  1  0  0  0
 29 38  2  0  0  0
 30 31  2  0  0  0
 31 32  1  0  0  0
 31 36  1  0  0  0
 32 28  1  0  0  0
 32 33  2  0  0  0
 28  1  1  0  0  0
  1  2  1  0  0  0
  1  6  2  0  0  0
  2  3  2  0  0  0
  3  4  1  0  0  0
  4  8  1  0  0  0
  4  5  2  0  0  0
  8  9  1  0  0  0
  8 11  1  0  0  0
  9 10  2  0  0  0
  9 12  1  0  0  0
 12 13  1  0  0  0
 12 16  2  0  0  0
 13 14  2  0  0  0
 14 15  1  0  0  0
 15 17  1  0  0  0
 15 16  1  0  0  0
 17 18  1  0  0  0
 17 23  2  0  0  0
 18 19  2  0  0  0
 19 20  1  0  0  0
 20 21  1  0  0  0
 20 22  2  0  0  0
 22 23  1  0  0  0
 16 24  1  0  0  0
 24 25  1  0  0  0
 24 26  1  0  0  0
 24 27  1  0  0  0
  5  6  1  0  0  0
  6  7  1  0  0  0
 33 34  1  0  0  0
 34 35  2  0  0  0
 35 36  1  0  0  0
 36 37  2  0  0  0
 37 38  1  0  0  0
 38 41  1  0  0  0
 41 42  1  0  0  0
 42 43  1  0  0  0
 43 44  1  0  0  0
 44 45  1  0  0  0
 45 46  1  0  0  0
 45 49  1  0  0  0
 46 47  1  0  0  0
 47 48  1  0  0  0
 48 49  1  0  0  0
M  END
> <minimizedAffinity>
-6.94000

$$$$
