CHEMBL244300


 39 42  0  0  0  0  0  0  0  0999 V2000
  -17.1908    1.5694  -15.1536 C   0  0  0  0  0  0  0  0  0  0  0  0
  -16.1850    1.1627  -16.0222 C   0  0  0  0  0  0  0  0  0  0  0  0
  -15.1524    0.3410  -15.5602 C   0  0  0  0  0  0  0  0  0  0  0  0
  -15.1066   -0.0851  -14.2275 C   0  0  0  0  0  0  0  0  0  0  0  0
  -16.0857    0.3835  -13.3447 C   0  0  0  0  0  0  0  0  0  0  0  0
  -17.1067    1.2272  -13.8005 C   0  0  0  0  0  0  0  0  0  0  0  0
  -14.1469   -0.9956  -13.7339 N   0  0  0  0  0  0  0  0  0  0  0  0
  -14.4004   -2.2652  -13.2593 C   0  0  0  0  0  0  0  0  0  0  0  0
  -15.4879   -2.8302  -13.3075 O   0  0  0  0  0  0  0  0  0  0  0  0
  -13.2798   -2.8410  -12.6744 N   0  0  0  0  0  0  0  0  0  0  0  0
  -13.1716   -0.7364  -13.8190 H   0  0  0  0  0  0  0  0  0  0  0  0
  -12.7264   -2.2002  -12.1177 H   0  0  0  0  0  0  0  0  0  0  0  0
  -13.3837   -4.1533  -12.1455 C   0  0  0  0  0  0  0  0  0  0  0  0
  -13.6687   -5.2458  -12.9735 C   0  0  0  0  0  0  0  0  0  0  0  0
  -13.8935   -6.5196  -12.4301 C   0  0  0  0  0  0  0  0  0  0  0  0
  -13.8310   -6.6808  -11.0357 C   0  0  0  0  0  0  0  0  0  0  0  0
  -13.5108   -5.5997  -10.2092 C   0  0  0  0  0  0  0  0  0  0  0  0
  -13.2657   -4.3500  -10.7706 C   0  0  0  0  0  0  0  0  0  0  0  0
  -12.9909   -3.3100   -9.9687 F   0  0  0  0  0  0  0  0  0  0  0  0
  -14.2181   -7.6941  -13.3240 C   0  0  0  0  0  0  0  0  0  0  0  0
  -13.9295   -8.9033  -12.7691 F   0  0  0  0  0  0  0  0  0  0  0  0
  -15.5411   -7.7413  -13.6457 F   0  0  0  0  0  0  0  0  0  0  0  0
  -13.5469   -7.6515  -14.5065 F   0  0  0  0  0  0  0  0  0  0  0  0
  -18.2018    2.3243  -15.7081 O   0  0  0  0  0  0  0  0  0  0  0  0
  -23.4682    0.5516  -13.4260 C   0  0  0  0  0  0  0  0  0  0  0  0
  -23.3352    1.8307  -13.6534 N   0  0  0  0  0  0  0  0  0  0  0  0
  -22.0433    2.0757  -14.0846 C   0  0  0  0  0  0  0  0  0  0  0  0
  -21.4943    3.3457  -14.3438 C   0  0  0  0  0  0  0  0  0  0  0  0
  -20.1890    3.4475  -14.8325 C   0  0  0  0  0  0  0  0  0  0  0  0
  -19.4532    2.2992  -15.1284 C   0  0  0  0  0  0  0  0  0  0  0  0
  -19.9466    1.0313  -14.8010 C   0  0  0  0  0  0  0  0  0  0  0  0
  -21.2461    0.9429  -14.2751 C   0  0  0  0  0  0  0  0  0  0  0  0
  -22.1368   -0.4474  -13.7754 S   0  0  0  0  0  0  0  0  0  0  0  0
  -24.7314    0.0806  -13.0071 N   0  0  0  0  0  0  0  0  0  0  0  0
  -24.7468   -0.0042  -11.9915 H   0  0  0  0  0  0  0  0  0  0  0  0
  -26.7895   -1.7074  -13.1569 C   0  0  0  0  0  0  0  0  0  0  0  0
  -25.0862   -1.4390  -13.6533 S   0  0  0  0  0  0  0  0  0  0  0  0
  -24.2606   -2.4412  -13.0209 O   0  0  0  0  0  0  0  0  0  0  0  0
  -25.0929   -1.2682  -15.0918 O   0  0  0  0  0  0  0  0  0  0  0  0
 36 37  1  0  0  0
 37 38  2  0  0  0
 37 39  2  0  0  0
 37 34  1  0  0  0
 34 25  1  0  0  0
 34 35  1  0  0  0
 25 26  2  0  0  0
 25 33  1  0  0  0
 26 27  1  0  0  0
 27 28  1  0  0  0
 27 32  2  0  0  0
 28 29  2  0  0  0
 29 30  1  0  0  0
 30 24  1  0  0  0
 30 31  2  0  0  0
 24  1  1  0  0  0
  1  2  1  0  0  0
  1  6  2  0  0  0
  2  3  2  0  0  0
  3  4  1  0  0  0
  4  7  1  0  0  0
  4  5  2  0  0  0
  7  8  1  0  0  0
  7 11  1  0  0  0
  8  9  2  0  0  0
  8 10  1  0  0  0
 10 13  1  0  0  0
 10 12  1  0  0  0
 13 14  1  0  0  0
 13 18  2  0  0  0
 14 15  2  0  0  0
 15 20  1  0  0  0
 15 16  1  0  0  0
 20 21  1  0  0  0
 20 22  1  0  0  0
 20 23  1  0  0  0
 16 17  2  0  0  0
 17 18  1  0  0  0
 18 19  1  0  0  0
  5  6  1  0  0  0
 31 32  1  0  0  0
 32 33  1  0  0  0
M  END
> <minimizedAffinity>
-9.39026

$$$$
