CHEMBL1242381


 28 30  0  0  0  0  0  0  0  0999 V2000
  -29.5746   -6.0974   -6.3323 C   0  0  0  0  0  0  0  0  0  0  0  0
  -29.8688   -6.6898   -7.5073 N   0  0  0  0  0  0  0  0  0  0  0  0
  -29.8205   -8.0075   -7.2394 N   0  0  0  0  0  0  0  0  0  0  0  0
  -29.4898   -8.2909   -5.9462 C   0  0  0  0  0  0  0  0  0  0  0  0
  -29.3083   -9.5115   -5.4144 N   0  0  0  0  0  0  0  0  0  0  0  0
  -29.0358   -9.4380   -4.1044 C   0  0  0  0  0  0  0  0  0  0  0  0
  -28.9677   -8.3376   -3.3352 N   0  0  0  0  0  0  0  0  0  0  0  0
  -29.1556   -7.1301   -3.9111 C   0  0  0  0  0  0  0  0  0  0  0  0
  -29.0949   -6.0388   -3.0550 N   0  0  0  0  0  0  0  0  0  0  0  0
  -29.4033   -7.0723   -5.2936 C   0  0  0  0  0  0  0  0  0  0  0  0
  -29.1397   -6.3430   -2.0864 H   0  0  0  0  0  0  0  0  0  0  0  0
  -29.6988   -5.2633   -3.2961 H   0  0  0  0  0  0  0  0  0  0  0  0
  -29.0966   -1.8323   -6.0964 C   0  0  0  0  0  0  0  0  0  0  0  0
  -30.0226   -2.4977   -5.2894 C   0  0  0  0  0  0  0  0  0  0  0  0
  -30.1493   -3.8881   -5.3460 C   0  0  0  0  0  0  0  0  0  0  0  0
  -29.4229   -4.6398   -6.2712 C   0  0  0  0  0  0  0  0  0  0  0  0
  -28.5023   -3.9719   -7.0901 C   0  0  0  0  0  0  0  0  0  0  0  0
  -28.3140   -2.5852   -6.9874 C   0  0  0  0  0  0  0  0  0  0  0  0
  -28.1133    0.0681   -5.0698 C   0  0  0  0  0  0  0  0  0  0  0  0
  -28.9524   -0.4704   -6.0863 O   0  0  0  0  0  0  0  0  0  0  0  0
  -27.3570   -2.0825   -7.8335 O   0  0  0  0  0  0  0  0  0  0  0  0
  -27.7327   -2.0407   -9.2078 C   0  0  0  0  0  0  0  0  0  0  0  0
  -30.0787   -8.9648   -8.2962 C   0  0  0  0  0  0  0  0  0  0  0  0
  -28.9486   -9.1164   -9.3304 C   0  0  0  0  0  0  0  0  0  0  0  0
  -27.5731   -9.2795   -8.6758 C   0  0  0  0  0  0  0  0  0  0  0  0
  -29.2272  -10.2502  -10.3252 C   0  0  0  0  0  0  0  0  0  0  0  0
  -29.4248   -9.7316  -11.6367 O   0  0  0  0  0  0  0  0  0  0  0  0
  -30.1528   -9.0898  -11.5993 H   0  0  0  0  0  0  0  0  0  0  0  0
 19 20  1  0  0  0
 20 13  1  0  0  0
 13 14  1  0  0  0
 13 18  2  0  0  0
 14 15  2  0  0  0
 15 16  1  0  0  0
 16  1  1  0  0  0
 16 17  2  0  0  0
  1  2  2  0  0  0
  1 10  1  0  0  0
  2  3  1  0  0  0
  3 23  1  0  0  0
  3  4  1  0  0  0
 23 24  1  0  0  0
 24 25  1  0  0  0
 24 26  1  0  0  0
 26 27  1  0  0  0
 27 28  1  0  0  0
  4  5  1  0  0  0
  4 10  2  0  0  0
  5  6  2  0  0  0
  6  7  1  0  0  0
  7  8  2  0  0  0
  8  9  1  0  0  0
  8 10  1  0  0  0
  9 11  1  0  0  0
  9 12  1  0  0  0
 17 18  1  0  0  0
 18 21  1  0  0  0
 21 22  1  0  0  0
M  END
> <minimizedAffinity>
-7.77408

$$$$
