CHEMBL2204526


 37 40  0  0  0  0  0  0  0  0999 V2000
  -29.3010   -3.7522   -7.2173 C   0  0  0  0  0  0  0  0  0  0  0  0
  -28.5890   -3.5807   -8.4187 C   0  0  0  0  0  0  0  0  0  0  0  0
  -27.7599   -2.4855   -8.6580 C   0  0  0  0  0  0  0  0  0  0  0  0
  -27.6480   -1.5192   -7.6598 C   0  0  0  0  0  0  0  0  0  0  0  0
  -28.3733   -1.6470   -6.4662 C   0  0  0  0  0  0  0  0  0  0  0  0
  -29.2103   -2.7531   -6.2390 C   0  0  0  0  0  0  0  0  0  0  0  0
  -29.9545   -2.8821   -4.9406 C   0  0  0  0  0  0  0  0  0  0  0  0
  -27.0267   -2.3187   -9.8583 N   0  0  0  0  0  0  0  0  0  0  0  0
  -27.3844   -1.5031  -10.9220 C   0  0  0  0  0  0  0  0  0  0  0  0
  -28.3869   -0.7988  -11.0042 O   0  0  0  0  0  0  0  0  0  0  0  0
  -26.1452   -2.8088   -9.9094 H   0  0  0  0  0  0  0  0  0  0  0  0
  -26.4480   -1.4455  -12.0740 C   0  0  0  0  0  0  0  0  0  0  0  0
  -26.7986   -1.8335  -13.3692 C   0  0  0  0  0  0  0  0  0  0  0  0
  -25.8708   -1.6910  -14.4034 C   0  0  0  0  0  0  0  0  0  0  0  0
  -24.6048   -1.1509  -14.1531 C   0  0  0  0  0  0  0  0  0  0  0  0
  -24.2467   -0.7437  -12.8626 C   0  0  0  0  0  0  0  0  0  0  0  0
  -25.1740   -0.9035  -11.8290 C   0  0  0  0  0  0  0  0  0  0  0  0
  -22.8927   -0.1389  -12.5734 C   0  0  0  0  0  0  0  0  0  0  0  0
  -22.0657    0.1593  -13.8244 C   0  0  0  0  0  0  0  0  0  0  0  0
  -21.9039    1.5989  -14.0471 C   0  0  0  0  0  0  0  0  0  0  0  0
  -21.7846    2.7445  -14.2288 N   0  0  0  0  0  0  0  0  0  0  0  0
  -30.0100   -4.9456   -6.9761 N   0  0  0  0  0  0  0  0  0  0  0  0
  -30.9872   -4.9583   -7.2239 H   0  0  0  0  0  0  0  0  0  0  0  0
  -27.1079   -9.8127   -5.4039 C   0  0  0  0  0  0  0  0  0  0  0  0
  -27.6172   -9.8501   -6.6096 N   0  0  0  0  0  0  0  0  0  0  0  0
  -28.3103   -8.6766   -6.8351 C   0  0  0  0  0  0  0  0  0  0  0  0
  -29.0146   -8.2536   -7.9571 C   0  0  0  0  0  0  0  0  0  0  0  0
  -29.6078   -7.0302   -7.9665 N   0  0  0  0  0  0  0  0  0  0  0  0
  -29.4643   -6.2269   -6.8934 C   0  0  0  0  0  0  0  0  0  0  0  0
  -28.8537   -6.5722   -5.7501 N   0  0  0  0  0  0  0  0  0  0  0  0
  -28.3004   -7.7861   -5.7785 C   0  0  0  0  0  0  0  0  0  0  0  0
  -27.4761   -8.4503   -4.4442 S   0  0  0  0  0  0  0  0  0  0  0  0
  -24.2355  -11.7475   -4.1319 C   0  0  0  0  0  0  0  0  0  0  0  0
  -24.9278  -10.6477   -4.8920 C   0  0  0  0  0  0  0  0  0  0  0  0
  -24.2794   -9.8066   -5.5037 O   0  0  0  0  0  0  0  0  0  0  0  0
  -26.2985  -10.7227   -4.7839 N   0  0  0  0  0  0  0  0  0  0  0  0
  -26.7325  -11.3505   -4.1233 H   0  0  0  0  0  0  0  0  0  0  0  0
 33 34  1  0  0  0
 34 35  2  0  0  0
 34 36  1  0  0  0
 36 24  1  0  0  0
 36 37  1  0  0  0
 24 25  2  0  0  0
 24 32  1  0  0  0
 25 26  1  0  0  0
 26 27  1  0  0  0
 26 31  2  0  0  0
 27 28  2  0  0  0
 28 29  1  0  0  0
 29 22  1  0  0  0
 29 30  2  0  0  0
 22  1  1  0  0  0
 22 23  1  0  0  0
  1  2  1  0  0  0
  1  6  2  0  0  0
  2  3  2  0  0  0
  3  8  1  0  0  0
  3  4  1  0  0  0
  8  9  1  0  0  0
  8 11  1  0  0  0
  9 10  2  0  0  0
  9 12  1  0  0  0
 12 13  1  0  0  0
 12 17  2  0  0  0
 13 14  2  0  0  0
 14 15  1  0  0  0
 15 16  2  0  0  0
 16 18  1  0  0  0
 16 17  1  0  0  0
 18 19  1  0  0  0
 19 20  1  0  0  0
 20 21  3  0  0  0
  4  5  2  0  0  0
  5  6  1  0  0  0
  6  7  1  0  0  0
 30 31  1  0  0  0
 31 32  1  0  0  0
M  END
> <minimizedAffinity>
-10.23542

$$$$
