CHEMBL3740487


 41 45  0  0  0  0  0  0  0  0999 V2000
  -29.9801   -5.4788   -5.7079 C   0  0  0  0  0  0  0  0  0  0  0  0
  -30.5414   -5.8119   -4.4777 C   0  0  0  0  0  0  0  0  0  0  0  0
  -29.9901   -6.8637   -3.7410 C   0  0  0  0  0  0  0  0  0  0  0  0
  -28.9482   -7.6470   -4.2807 C   0  0  0  0  0  0  0  0  0  0  0  0
  -28.3593   -8.7518   -3.6473 C   0  0  0  0  0  0  0  0  0  0  0  0
  -28.9368   -9.9003   -4.1483 C   0  0  0  0  0  0  0  0  0  0  0  0
  -28.9522  -10.0010   -5.5262 C   0  0  0  0  0  0  0  0  0  0  0  0
  -28.7141   -8.8407   -6.3058 C   0  0  0  0  0  0  0  0  0  0  0  0
  -28.8325   -7.5917   -5.6688 C   0  0  0  0  0  0  0  0  0  0  0  0
  -29.1577   -6.4076   -6.3474 C   0  0  0  0  0  0  0  0  0  0  0  0
  -26.7828   -8.8257   -3.8314 C   0  0  0  0  0  0  0  0  0  0  0  0
  -26.1561   -7.8314   -4.1838 O   0  0  0  0  0  0  0  0  0  0  0  0
  -26.2064  -10.0852   -3.5916 N   0  0  0  0  0  0  0  0  0  0  0  0
  -26.8261  -10.7995   -3.2397 H   0  0  0  0  0  0  0  0  0  0  0  0
  -24.8713  -10.5257   -3.8175 C   0  0  0  0  0  0  0  0  0  0  0  0
  -24.2655  -10.6210   -5.0744 C   0  0  0  0  0  0  0  0  0  0  0  0
  -22.9306  -11.0512   -5.2024 C   0  0  0  0  0  0  0  0  0  0  0  0
  -22.1856  -11.3959   -4.0773 C   0  0  0  0  0  0  0  0  0  0  0  0
  -22.7897  -11.3257   -2.8310 C   0  0  0  0  0  0  0  0  0  0  0  0
  -22.0880  -11.6684   -1.7409 F   0  0  0  0  0  0  0  0  0  0  0  0
  -24.1155  -10.9049   -2.6950 C   0  0  0  0  0  0  0  0  0  0  0  0
  -30.4005   -4.3158   -6.3037 O   0  0  0  0  0  0  0  0  0  0  0  0
  -27.8222   -2.8279   -8.1777 C   0  0  0  0  0  0  0  0  0  0  0  0
  -27.5120   -1.6929   -7.5349 N   0  0  0  0  0  0  0  0  0  0  0  0
  -28.2351   -1.4002   -6.4393 C   0  0  0  0  0  0  0  0  0  0  0  0
  -29.2410   -2.2002   -5.9582 C   0  0  0  0  0  0  0  0  0  0  0  0
  -29.4514   -3.3722   -6.6502 C   0  0  0  0  0  0  0  0  0  0  0  0
  -28.7776   -3.6781   -7.7728 N   0  0  0  0  0  0  0  0  0  0  0  0
  -27.0747   -3.1088   -9.3268 N   0  0  0  0  0  0  0  0  0  0  0  0
  -26.1821   -3.4652   -9.0020 H   0  0  0  0  0  0  0  0  0  0  0  0
  -25.6248   -0.7243  -11.8342 C   0  0  0  0  0  0  0  0  0  0  0  0
  -26.6130   -0.8061  -12.8233 C   0  0  0  0  0  0  0  0  0  0  0  0
  -27.7498   -1.5929  -12.6317 C   0  0  0  0  0  0  0  0  0  0  0  0
  -27.8994   -2.3357  -11.4613 C   0  0  0  0  0  0  0  0  0  0  0  0
  -26.9358   -2.2725  -10.4516 C   0  0  0  0  0  0  0  0  0  0  0  0
  -25.7996   -1.4739  -10.6569 C   0  0  0  0  0  0  0  0  0  0  0  0
  -24.3375    0.0349  -12.0421 C   0  0  0  0  0  0  0  0  0  0  0  0
  -21.9768    0.5162  -13.5266 C   0  0  0  0  0  0  0  0  0  0  0  0
  -23.3564   -0.5904  -13.3970 S   0  0  0  0  0  0  0  0  0  0  0  0
  -24.1193   -0.5272  -14.6369 O   0  0  0  0  0  0  0  0  0  0  0  0
  -22.8046   -1.8616  -12.9716 O   0  0  0  0  0  0  0  0  0  0  0  0
 38 39  1  0  0  0
 39 40  2  0  0  0
 39 41  2  0  0  0
 39 37  1  0  0  0
 37 31  1  0  0  0
 31 32  1  0  0  0
 31 36  2  0  0  0
 32 33  2  0  0  0
 33 34  1  0  0  0
 34 35  2  0  0  0
 35 29  1  0  0  0
 35 36  1  0  0  0
 29 23  1  0  0  0
 29 30  1  0  0  0
 23 24  1  0  0  0
 23 28  2  0  0  0
 24 25  2  0  0  0
 25 26  1  0  0  0
 26 27  2  0  0  0
 27 22  1  0  0  0
 27 28  1  0  0  0
 22  1  1  0  0  0
  1  2  1  0  0  0
  1 10  2  0  0  0
  2  3  2  0  0  0
  3  4  1  0  0  0
  4  5  1  0  0  0
  4  9  2  0  0  0
  5 11  1  0  0  0
  5  6  2  0  0  0
 11 12  2  0  0  0
 11 13  1  0  0  0
 13 15  1  0  0  0
 13 14  1  0  0  0
 15 16  1  0  0  0
 15 21  2  0  0  0
 16 17  2  0  0  0
 17 18  1  0  0  0
 18 19  2  0  0  0
 19 20  1  0  0  0
 19 21  1  0  0  0
  6  7  1  0  0  0
  7  8  2  0  0  0
  8  9  1  0  0  0
  9 10  1  0  0  0
M  END
> <minimizedAffinity>
-9.54588

$$$$
