CHEMBL3938388


 38 43  0  0  0  0  0  0  0  0999 V2000
  -29.5390   -6.2897   -6.6781 C   0  0  0  0  0  0  0  0  0  0  0  0
  -29.1764   -6.5490   -5.3497 C   0  0  0  0  0  0  0  0  0  0  0  0
  -28.4504   -7.7203   -5.0045 C   0  0  0  0  0  0  0  0  0  0  0  0
  -28.2663   -8.7147   -5.9916 C   0  0  0  0  0  0  0  0  0  0  0  0
  -27.6580   -9.9879   -6.1891 C   0  0  0  0  0  0  0  0  0  0  0  0
  -28.4182  -10.7006   -7.0376 N   0  0  0  0  0  0  0  0  0  0  0  0
  -28.8957   -9.7259   -7.8119 N   0  0  0  0  0  0  0  0  0  0  0  0
  -28.8683   -8.4966   -7.2268 C   0  0  0  0  0  0  0  0  0  0  0  0
  -29.3632   -7.2668   -7.6577 C   0  0  0  0  0  0  0  0  0  0  0  0
  -29.3089   -9.9777   -8.7046 H   0  0  0  0  0  0  0  0  0  0  0  0
  -26.2329  -10.4431   -6.2221 C   0  0  0  0  0  0  0  0  0  0  0  0
  -25.1113   -9.8764   -5.6511 C   0  0  0  0  0  0  0  0  0  0  0  0
  -23.9650  -10.4208   -6.3278 C   0  0  0  0  0  0  0  0  0  0  0  0
  -22.5735  -10.1926   -6.2692 C   0  0  0  0  0  0  0  0  0  0  0  0
  -21.7131  -10.9652   -7.0647 C   0  0  0  0  0  0  0  0  0  0  0  0
  -22.2188  -11.9254   -7.9385 C   0  0  0  0  0  0  0  0  0  0  0  0
  -23.5938  -12.1164   -8.0727 C   0  0  0  0  0  0  0  0  0  0  0  0
  -24.4338  -11.3535   -7.2534 C   0  0  0  0  0  0  0  0  0  0  0  0
  -25.8024  -11.3077   -7.1992 N   0  0  0  0  0  0  0  0  0  0  0  0
  -26.4304  -11.7349   -7.8655 H   0  0  0  0  0  0  0  0  0  0  0  0
  -30.1989   -5.1046   -6.9732 O   0  0  0  0  0  0  0  0  0  0  0  0
  -27.8821   -2.6083   -8.4205 C   0  0  0  0  0  0  0  0  0  0  0  0
  -27.9095   -1.6558   -7.3952 C   0  0  0  0  0  0  0  0  0  0  0  0
  -28.6559   -1.8468   -6.2320 C   0  0  0  0  0  0  0  0  0  0  0  0
  -29.4127   -2.9992   -6.0782 C   0  0  0  0  0  0  0  0  0  0  0  0
  -29.4234   -3.9613   -7.0932 C   0  0  0  0  0  0  0  0  0  0  0  0
  -28.6830   -3.7559   -8.2746 C   0  0  0  0  0  0  0  0  0  0  0  0
  -27.3462   -1.6261  -10.6534 C   0  0  0  0  0  0  0  0  0  0  0  0
  -28.3108   -0.8703  -10.7355 O   0  0  0  0  0  0  0  0  0  0  0  0
  -27.0550   -2.4635   -9.5816 N   0  0  0  0  0  0  0  0  0  0  0  0
  -26.1399   -2.8974   -9.5525 H   0  0  0  0  0  0  0  0  0  0  0  0
  -22.7307   -0.5532  -12.1376 C   0  0  0  0  0  0  0  0  0  0  0  0
  -24.1134   -1.0067  -12.5012 C   0  0  0  0  0  0  0  0  0  0  0  0
  -24.4871   -1.2438  -13.8266 C   0  0  0  0  0  0  0  0  0  0  0  0
  -25.7932   -1.6403  -14.1325 C   0  0  0  0  0  0  0  0  0  0  0  0
  -26.7418   -1.8122  -13.1173 C   0  0  0  0  0  0  0  0  0  0  0  0
  -26.3824   -1.5858  -11.7875 C   0  0  0  0  0  0  0  0  0  0  0  0
  -25.0688   -1.1806  -11.4926 C   0  0  0  0  0  0  0  0  0  0  0  0
 32 33  1  0  0  0
 33 34  1  0  0  0
 33 38  2  0  0  0
 34 35  2  0  0  0
 35 36  1  0  0  0
 36 37  2  0  0  0
 37 28  1  0  0  0
 37 38  1  0  0  0
 28 29  2  0  0  0
 28 30  1  0  0  0
 30 22  1  0  0  0
 30 31  1  0  0  0
 22 23  1  0  0  0
 22 27  2  0  0  0
 23 24  2  0  0  0
 24 25  1  0  0  0
 25 26  2  0  0  0
 26 21  1  0  0  0
 26 27  1  0  0  0
 21  1  1  0  0  0
  1  2  1  0  0  0
  1  9  2  0  0  0
  2  3  2  0  0  0
  3  4  1  0  0  0
  4  5  1  0  0  0
  4  8  2  0  0  0
  5 11  1  0  0  0
  5  6  2  0  0  0
 11 12  2  0  0  0
 11 19  1  0  0  0
 12 13  1  0  0  0
 13 14  1  0  0  0
 13 18  2  0  0  0
 14 15  2  0  0  0
 15 16  1  0  0  0
 16 17  2  0  0  0
 17 18  1  0  0  0
 18 19  1  0  0  0
 19 20  1  0  0  0
  6  7  1  0  0  0
  7  8  1  0  0  0
  7 10  1  0  0  0
  8  9  1  0  0  0
M  END
> <minimizedAffinity>
-11.58457

$$$$
