CHEMBL74587


 25 28  0  0  0  0  0  0  0  0999 V2000
  -27.6626   -2.1387   -8.3601 C   0  0  0  0  0  0  0  0  0  0  0  0
  -28.0126   -3.4136   -8.6256 N   0  0  0  0  0  0  0  0  0  0  0  0
  -28.8082   -4.1328   -7.7808 N   0  0  0  0  0  0  0  0  0  0  0  0
  -29.2919   -3.5670   -6.6587 C   0  0  0  0  0  0  0  0  0  0  0  0
  -29.0334   -2.2199   -6.3476 C   0  0  0  0  0  0  0  0  0  0  0  0
  -29.5659   -1.5805   -5.2041 C   0  0  0  0  0  0  0  0  0  0  0  0
  -29.2554   -0.2579   -4.8910 C   0  0  0  0  0  0  0  0  0  0  0  0
  -28.3840    0.4497   -5.7028 C   0  0  0  0  0  0  0  0  0  0  0  0
  -27.8459   -0.1554   -6.8426 C   0  0  0  0  0  0  0  0  0  0  0  0
  -28.1742   -1.4876   -7.2104 C   0  0  0  0  0  0  0  0  0  0  0  0
  -26.7559   -1.4669   -9.2272 N   0  0  0  0  0  0  0  0  0  0  0  0
  -26.6662   -0.4952   -8.9496 H   0  0  0  0  0  0  0  0  0  0  0  0
  -26.2991   -1.7180  -13.4428 C   0  0  0  0  0  0  0  0  0  0  0  0
  -25.1741   -1.6388  -12.6328 C   0  0  0  0  0  0  0  0  0  0  0  0
  -25.3135   -1.5769  -11.2424 C   0  0  0  0  0  0  0  0  0  0  0  0
  -26.5692   -1.6370  -10.6228 C   0  0  0  0  0  0  0  0  0  0  0  0
  -27.6951   -1.6919  -11.4626 C   0  0  0  0  0  0  0  0  0  0  0  0
  -27.5619   -1.7368  -12.8584 C   0  0  0  0  0  0  0  0  0  0  0  0
  -30.0491   -4.5132   -5.7528 C   0  0  0  0  0  0  0  0  0  0  0  0
  -29.4998   -5.9175   -5.6540 C   0  0  0  0  0  0  0  0  0  0  0  0
  -28.3559   -6.1832   -4.8940 C   0  0  0  0  0  0  0  0  0  0  0  0
  -27.9290   -7.4956   -4.7611 C   0  0  0  0  0  0  0  0  0  0  0  0
  -28.5610   -8.5512   -5.3161 N   0  0  0  0  0  0  0  0  0  0  0  0
  -29.6647   -8.2790   -6.0423 C   0  0  0  0  0  0  0  0  0  0  0  0
  -30.1638   -6.9991   -6.2427 C   0  0  0  0  0  0  0  0  0  0  0  0
 13 14  1  0  0  0
 13 18  2  0  0  0
 14 15  2  0  0  0
 15 16  1  0  0  0
 16 11  1  0  0  0
 16 17  2  0  0  0
 11  1  1  0  0  0
 11 12  1  0  0  0
  1  2  1  0  0  0
  1 10  2  0  0  0
  2  3  2  0  0  0
  3  4  1  0  0  0
  4 19  1  0  0  0
  4  5  2  0  0  0
 19 20  1  0  0  0
 20 21  1  0  0  0
 20 25  2  0  0  0
 21 22  2  0  0  0
 22 23  1  0  0  0
 23 24  2  0  0  0
 24 25  1  0  0  0
  5  6  1  0  0  0
  5 10  1  0  0  0
  6  7  2  0  0  0
  7  8  1  0  0  0
  8  9  2  0  0  0
  9 10  1  0  0  0
 17 18  1  0  0  0
M  END
> <minimizedAffinity>
-8.80451

$$$$
