CHEMBL4780196


 46 51  0  0  0  0  0  0  0  0999 V2000
  -28.4024   -8.8782   -3.8417 C   0  0  0  0  0  0  0  0  0  0  0  0
  -28.8739  -10.1716   -3.5912 C   0  0  0  0  0  0  0  0  0  0  0  0
  -27.9736  -11.2545   -3.4739 C   0  0  0  0  0  0  0  0  0  0  0  0
  -26.5876  -11.0679   -3.6117 C   0  0  0  0  0  0  0  0  0  0  0  0
  -26.1333   -9.7508   -3.7494 C   0  0  0  0  0  0  0  0  0  0  0  0
  -27.0211   -8.6820   -3.8962 C   0  0  0  0  0  0  0  0  0  0  0  0
  -26.5024   -7.4704   -4.1538 F   0  0  0  0  0  0  0  0  0  0  0  0
  -25.7165  -12.1816   -3.7033 N   0  0  0  0  0  0  0  0  0  0  0  0
  -26.1787  -13.0925   -3.7047 H   0  0  0  0  0  0  0  0  0  0  0  0
  -24.4653  -12.2312   -4.3724 C   0  0  0  0  0  0  0  0  0  0  0  0
  -23.3473  -12.3698   -3.6170 N   0  0  0  0  0  0  0  0  0  0  0  0
  -22.1404  -12.4660   -4.2228 C   0  0  0  0  0  0  0  0  0  0  0  0
  -21.9558  -12.4091   -5.5684 C   0  0  0  0  0  0  0  0  0  0  0  0
  -23.0756  -12.2459   -6.3646 C   0  0  0  0  0  0  0  0  0  0  0  0
  -22.9368  -12.2156   -7.7600 N   0  0  0  0  0  0  0  0  0  0  0  0
  -24.0266  -11.9752   -8.5603 C   0  0  0  0  0  0  0  0  0  0  0  0
  -25.2895  -11.8661   -8.1289 C   0  0  0  0  0  0  0  0  0  0  0  0
  -25.5302  -11.9726   -6.6619 C   0  0  0  0  0  0  0  0  0  0  0  0
  -26.6517  -11.8354   -6.1765 O   0  0  0  0  0  0  0  0  0  0  0  0
  -24.3536  -12.1824   -5.7695 C   0  0  0  0  0  0  0  0  0  0  0  0
  -22.0147  -12.0366   -8.1527 H   0  0  0  0  0  0  0  0  0  0  0  0
  -26.3526  -11.5596   -9.0809 C   0  0  0  0  0  0  0  0  0  0  0  0
  -27.3994  -12.4637   -9.3131 C   0  0  0  0  0  0  0  0  0  0  0  0
  -28.3880  -12.1635  -10.2535 C   0  0  0  0  0  0  0  0  0  0  0  0
  -28.3248  -10.9665  -10.9607 C   0  0  0  0  0  0  0  0  0  0  0  0
  -29.2708  -10.6825  -11.8643 F   0  0  0  0  0  0  0  0  0  0  0  0
  -27.2943  -10.0603  -10.7447 C   0  0  0  0  0  0  0  0  0  0  0  0
  -26.3091  -10.3562   -9.8017 C   0  0  0  0  0  0  0  0  0  0  0  0
  -29.3327   -7.8933   -4.1469 O   0  0  0  0  0  0  0  0  0  0  0  0
  -28.5100   -3.4348   -6.7277 C   0  0  0  0  0  0  0  0  0  0  0  0
  -28.8814   -4.5173   -7.5370 C   0  0  0  0  0  0  0  0  0  0  0  0
  -29.1662   -5.8025   -7.1064 C   0  0  0  0  0  0  0  0  0  0  0  0
  -29.6494   -6.6586   -8.0194 N   0  0  0  0  0  0  0  0  0  0  0  0
  -29.9395   -7.8985   -7.6145 C   0  0  0  0  0  0  0  0  0  0  0  0
  -29.7925   -8.3534   -6.3837 N   0  0  0  0  0  0  0  0  0  0  0  0
  -29.3758   -7.4414   -5.4561 C   0  0  0  0  0  0  0  0  0  0  0  0
  -29.0017   -6.1037   -5.7626 C   0  0  0  0  0  0  0  0  0  0  0  0
  -28.5492   -5.0344   -4.9009 C   0  0  0  0  0  0  0  0  0  0  0  0
  -28.3514   -3.6956   -5.3610 C   0  0  0  0  0  0  0  0  0  0  0  0
  -27.8539   -1.5160   -8.1580 C   0  0  0  0  0  0  0  0  0  0  0  0
  -28.7688   -2.1977   -7.2845 O   0  0  0  0  0  0  0  0  0  0  0  0
  -28.1163   -2.7657   -4.3575 O   0  0  0  0  0  0  0  0  0  0  0  0
  -28.6796   -3.1212   -3.0930 C   0  0  0  0  0  0  0  0  0  0  0  0
  -30.1278   -2.7327   -2.8496 C   0  0  0  0  0  0  0  0  0  0  0  0
  -30.9604   -3.8712   -2.6962 O   0  0  0  0  0  0  0  0  0  0  0  0
  -31.0622   -4.2572   -3.5830 H   0  0  0  0  0  0  0  0  0  0  0  0
 40 41  1  0  0  0
 41 30  1  0  0  0
 30 31  1  0  0  0
 30 39  2  0  0  0
 31 32  2  0  0  0
 32 33  1  0  0  0
 32 37  1  0  0  0
 33 34  2  0  0  0
 34 35  1  0  0  0
 35 36  2  0  0  0
 36 29  1  0  0  0
 36 37  1  0  0  0
 29  1  1  0  0  0
  1  2  1  0  0  0
  1  6  2  0  0  0
  2  3  2  0  0  0
  3  4  1  0  0  0
  4  8  1  0  0  0
  4  5  2  0  0  0
  8 10  1  0  0  0
  8  9  1  0  0  0
 10 11  1  0  0  0
 10 20  2  0  0  0
 11 12  2  0  0  0
 12 13  1  0  0  0
 13 14  2  0  0  0
 14 15  1  0  0  0
 14 20  1  0  0  0
 15 16  1  0  0  0
 15 21  1  0  0  0
 16 17  2  0  0  0
 17 22  1  0  0  0
 17 18  1  0  0  0
 22 23  1  0  0  0
 22 28  2  0  0  0
 23 24  2  0  0  0
 24 25  1  0  0  0
 25 26  1  0  0  0
 25 27  2  0  0  0
 27 28  1  0  0  0
 18 19  2  0  0  0
 18 20  1  0  0  0
  5  6  1  0  0  0
  6  7  1  0  0  0
 37 38  2  0  0  0
 38 39  1  0  0  0
 39 42  1  0  0  0
 42 43  1  0  0  0
 43 44  1  0  0  0
 44 45  1  0  0  0
 45 46  1  0  0  0
M  END
> <minimizedAffinity>
-8.82392

$$$$
