CHEMBL1762529


 39 43  0  0  0  0  0  0  0  0999 V2000
  -28.6715   -7.6525   -3.5692 N   0  0  0  0  0  0  0  0  0  0  0  0
  -29.0670   -8.1525   -2.7858 H   0  0  0  0  0  0  0  0  0  0  0  0
  -29.7580   -4.2965   -4.0518 C   0  0  0  0  0  0  0  0  0  0  0  0
  -31.1261   -4.4305   -4.2057 C   0  0  0  0  0  0  0  0  0  0  0  0
  -31.6213   -5.7026   -4.1998 C   0  0  0  0  0  0  0  0  0  0  0  0
  -30.8457   -6.7773   -4.0267 N   0  0  0  0  0  0  0  0  0  0  0  0
  -29.5269   -6.5841   -3.8724 C   0  0  0  0  0  0  0  0  0  0  0  0
  -28.9547   -5.3746   -3.9288 N   0  0  0  0  0  0  0  0  0  0  0  0
  -29.1847   -2.9976   -4.0138 N   0  0  0  0  0  0  0  0  0  0  0  0
  -28.7922   -2.6233   -2.6609 C   0  0  0  0  0  0  0  0  0  0  0  0
  -27.8754   -2.0894   -7.4087 C   0  0  0  0  0  0  0  0  0  0  0  0
  -28.0444   -0.7050   -7.3800 C   0  0  0  0  0  0  0  0  0  0  0  0
  -28.5125   -0.0734   -6.2214 C   0  0  0  0  0  0  0  0  0  0  0  0
  -28.8491   -0.8610   -5.1169 C   0  0  0  0  0  0  0  0  0  0  0  0
  -28.7353   -2.2677   -5.1282 C   0  0  0  0  0  0  0  0  0  0  0  0
  -28.2149   -2.8593   -6.2854 C   0  0  0  0  0  0  0  0  0  0  0  0
  -28.7551    1.4163   -6.1740 C   0  0  0  0  0  0  0  0  0  0  0  0
  -29.8483    1.8059   -6.9930 O   0  0  0  0  0  0  0  0  0  0  0  0
  -29.6063    1.5659   -7.9053 H   0  0  0  0  0  0  0  0  0  0  0  0
  -27.1884   -2.0780   -9.6827 C   0  0  0  0  0  0  0  0  0  0  0  0
  -27.4174   -2.8098   -8.4826 O   0  0  0  0  0  0  0  0  0  0  0  0
  -27.9197   -8.4307   -4.4733 C   0  0  0  0  0  0  0  0  0  0  0  0
  -28.3613   -8.6895   -5.7750 C   0  0  0  0  0  0  0  0  0  0  0  0
  -27.6697   -9.4973   -6.6789 C   0  0  0  0  0  0  0  0  0  0  0  0
  -26.4786  -10.0657   -6.2179 C   0  0  0  0  0  0  0  0  0  0  0  0
  -25.9541   -9.8063   -4.9374 C   0  0  0  0  0  0  0  0  0  0  0  0
  -26.6872   -8.9702   -4.0847 C   0  0  0  0  0  0  0  0  0  0  0  0
  -28.1312   -9.6990   -7.9624 N   0  0  0  0  0  0  0  0  0  0  0  0
  -29.0804  -10.7704   -8.3055 C   0  0  0  0  0  0  0  0  0  0  0  0
  -28.4711  -11.7026   -9.3584 C   0  0  0  0  0  0  0  0  0  0  0  0
  -28.0306  -10.9689  -10.5149 O   0  0  0  0  0  0  0  0  0  0  0  0
  -27.0288  -10.0087  -10.1378 C   0  0  0  0  0  0  0  0  0  0  0  0
  -27.5568   -8.9905   -9.1106 C   0  0  0  0  0  0  0  0  0  0  0  0
  -24.7124  -10.3464   -4.6106 N   0  0  0  0  0  0  0  0  0  0  0  0
  -23.5458  -10.0387   -5.4509 C   0  0  0  0  0  0  0  0  0  0  0  0
  -22.4499  -11.0779   -5.1608 C   0  0  0  0  0  0  0  0  0  0  0  0
  -22.0967  -11.1020   -3.7649 O   0  0  0  0  0  0  0  0  0  0  0  0
  -23.2518  -11.4071   -2.9602 C   0  0  0  0  0  0  0  0  0  0  0  0
  -24.3735  -10.3756   -3.1729 C   0  0  0  0  0  0  0  0  0  0  0  0
 20 21  1  0  0  0
 21 11  1  0  0  0
 11 12  1  0  0  0
 11 16  2  0  0  0
 12 13  2  0  0  0
 13 17  1  0  0  0
 13 14  1  0  0  0
 17 18  1  0  0  0
 18 19  1  0  0  0
 14 15  2  0  0  0
 15  9  1  0  0  0
 15 16  1  0  0  0
  9 10  1  0  0  0
  9  3  1  0  0  0
  3  4  1  0  0  0
  3  8  2  0  0  0
  4  5  2  0  0  0
  5  6  1  0  0  0
  6  7  2  0  0  0
  7  1  1  0  0  0
  7  8  1  0  0  0
  1 22  1  0  0  0
  1  2  1  0  0  0
 22 23  1  0  0  0
 22 27  2  0  0  0
 23 24  2  0  0  0
 24 28  1  0  0  0
 24 25  1  0  0  0
 28 29  1  0  0  0
 28 33  1  0  0  0
 29 30  1  0  0  0
 30 31  1  0  0  0
 31 32  1  0  0  0
 32 33  1  0  0  0
 25 26  2  0  0  0
 26 34  1  0  0  0
 26 27  1  0  0  0
 34 35  1  0  0  0
 34 39  1  0  0  0
 35 36  1  0  0  0
 36 37  1  0  0  0
 37 38  1  0  0  0
 38 39  1  0  0  0
M  END
> <minimizedAffinity>
-9.51251

$$$$
