CHEMBL3924912


 37 40  0  0  0  0  0  0  0  0999 V2000
  -18.3556    2.5365  -14.8843 C   0  0  0  0  0  0  0  0  0  0  0  0
  -17.9515    3.4143  -15.8971 C   0  0  0  0  0  0  0  0  0  0  0  0
  -16.6556    3.3540  -16.4183 C   0  0  0  0  0  0  0  0  0  0  0  0
  -15.7334    2.4449  -15.8960 C   0  0  0  0  0  0  0  0  0  0  0  0
  -16.1454    1.5492  -14.9044 C   0  0  0  0  0  0  0  0  0  0  0  0
  -17.4434    1.6108  -14.3790 C   0  0  0  0  0  0  0  0  0  0  0  0
  -21.7075    1.5246  -13.9215 N   0  0  0  0  0  0  0  0  0  0  0  0
  -20.3960    1.3508  -14.3272 C   0  0  0  0  0  0  0  0  0  0  0  0
  -19.8548    0.2760  -14.5512 O   0  0  0  0  0  0  0  0  0  0  0  0
  -19.6911    2.5485  -14.4022 N   0  0  0  0  0  0  0  0  0  0  0  0
  -21.9754    2.4483  -13.6310 H   0  0  0  0  0  0  0  0  0  0  0  0
  -19.8810    3.1891  -13.6458 H   0  0  0  0  0  0  0  0  0  0  0  0
  -25.4809   -1.1486  -15.6943 C   0  0  0  0  0  0  0  0  0  0  0  0
  -24.5360   -0.8175  -14.5750 C   0  0  0  0  0  0  0  0  0  0  0  0
  -24.6599   -1.4741  -13.3467 C   0  0  0  0  0  0  0  0  0  0  0  0
  -23.7629   -1.2023  -12.3225 C   0  0  0  0  0  0  0  0  0  0  0  0
  -22.7537   -0.2635  -12.5078 C   0  0  0  0  0  0  0  0  0  0  0  0
  -21.8502   -0.1734  -11.5244 F   0  0  0  0  0  0  0  0  0  0  0  0
  -22.6428    0.4737  -13.6982 C   0  0  0  0  0  0  0  0  0  0  0  0
  -23.5266    0.1529  -14.7450 C   0  0  0  0  0  0  0  0  0  0  0  0
  -14.4243    2.3187  -16.3128 O   0  0  0  0  0  0  0  0  0  0  0  0
  -14.1245    1.4512  -17.3443 C   0  0  0  0  0  0  0  0  0  0  0  0
  -14.2386    1.8033  -18.6881 C   0  0  0  0  0  0  0  0  0  0  0  0
  -13.9848    0.8468  -19.6495 C   0  0  0  0  0  0  0  0  0  0  0  0
  -13.5921   -0.4179  -19.4079 N   0  0  0  0  0  0  0  0  0  0  0  0
  -13.4164   -0.7410  -18.0955 C   0  0  0  0  0  0  0  0  0  0  0  0
  -13.0470   -2.0338  -17.6075 C   0  0  0  0  0  0  0  0  0  0  0  0
  -12.9694   -2.0851  -16.2254 C   0  0  0  0  0  0  0  0  0  0  0  0
  -13.2542   -0.5404  -15.5396 S   0  0  0  0  0  0  0  0  0  0  0  0
  -13.6365    0.1650  -17.0572 C   0  0  0  0  0  0  0  0  0  0  0  0
  -12.7106   -3.2295  -15.3377 C   0  0  0  0  0  0  0  0  0  0  0  0
  -12.4453   -4.3392  -15.7826 O   0  0  0  0  0  0  0  0  0  0  0  0
  -12.8833   -3.0328  -13.9567 N   0  0  0  0  0  0  0  0  0  0  0  0
  -14.0032   -3.7892  -13.2184 S   0  0  0  0  0  0  0  0  0  0  0  0
  -15.5751   -3.0400  -13.6018 C   0  0  0  0  0  0  0  0  0  0  0  0
  -13.8320   -3.3880  -11.4942 C   0  0  0  0  0  0  0  0  0  0  0  0
  -14.1877   -5.2262  -13.2828 O   0  0  0  0  0  0  0  0  0  0  0  0
 13 14  1  0  0  0
 14 15  1  0  0  0
 14 20  2  0  0  0
 15 16  2  0  0  0
 16 17  1  0  0  0
 17 18  1  0  0  0
 17 19  2  0  0  0
 19  7  1  0  0  0
 19 20  1  0  0  0
  7  8  1  0  0  0
  7 11  1  0  0  0
  8  9  2  0  0  0
  8 10  1  0  0  0
 10  1  1  0  0  0
 10 12  1  0  0  0
  1  2  1  0  0  0
  1  6  2  0  0  0
  2  3  2  0  0  0
  3  4  1  0  0  0
  4 21  1  0  0  0
  4  5  2  0  0  0
 21 22  1  0  0  0
 22 23  1  0  0  0
 22 30  2  0  0  0
 23 24  2  0  0  0
 24 25  1  0  0  0
 25 26  2  0  0  0
 26 27  1  0  0  0
 26 30  1  0  0  0
 27 28  2  0  0  0
 28 31  1  0  0  0
 28 29  1  0  0  0
 31 32  2  0  0  0
 31 33  1  0  0  0
 33 34  2  0  0  0
 34 35  1  0  0  0
 34 36  1  0  0  0
 34 37  2  0  0  0
 29 30  1  0  0  0
  5  6  1  0  0  0
M  END
> <minimizedAffinity>
-7.82365

$$$$
