CHEMBL430090


 36 39  0  0  0  0  0  0  0  0999 V2000
  -22.6954   -0.4422  -13.5253 C   0  0  0  0  0  0  0  0  0  0  0  0
  -22.5776   -0.9356  -12.2238 C   0  0  0  0  0  0  0  0  0  0  0  0
  -23.6632   -1.5196  -11.5582 C   0  0  0  0  0  0  0  0  0  0  0  0
  -24.8833   -1.7090  -12.1951 C   0  0  0  0  0  0  0  0  0  0  0  0
  -24.9937   -1.3241  -13.5343 C   0  0  0  0  0  0  0  0  0  0  0  0
  -23.9185   -0.6845  -14.1811 C   0  0  0  0  0  0  0  0  0  0  0  0
  -19.3400    1.5674  -15.4386 C   0  0  0  0  0  0  0  0  0  0  0  0
  -19.4467    0.1740  -15.4105 C   0  0  0  0  0  0  0  0  0  0  0  0
  -20.5200   -0.4544  -14.7843 C   0  0  0  0  0  0  0  0  0  0  0  0
  -21.5796    0.2667  -14.1809 C   0  0  0  0  0  0  0  0  0  0  0  0
  -21.4972    1.6954  -14.2319 C   0  0  0  0  0  0  0  0  0  0  0  0
  -22.2604    2.8457  -13.8228 C   0  0  0  0  0  0  0  0  0  0  0  0
  -23.4467    2.8425  -13.1871 N   0  0  0  0  0  0  0  0  0  0  0  0
  -21.6524    3.9859  -14.1438 N   0  0  0  0  0  0  0  0  0  0  0  0
  -20.5012    3.6277  -14.7987 O   0  0  0  0  0  0  0  0  0  0  0  0
  -20.3956    2.2761  -14.8488 C   0  0  0  0  0  0  0  0  0  0  0  0
  -24.0878    2.0595  -13.2630 H   0  0  0  0  0  0  0  0  0  0  0  0
  -23.9146    3.7344  -13.0704 H   0  0  0  0  0  0  0  0  0  0  0  0
  -16.9806    1.6708  -15.6120 C   0  0  0  0  0  0  0  0  0  0  0  0
  -18.2502    2.0775  -16.1153 O   0  0  0  0  0  0  0  0  0  0  0  0
  -25.9919   -2.3171  -11.5630 N   0  0  0  0  0  0  0  0  0  0  0  0
  -26.5128   -1.9347  -10.3388 C   0  0  0  0  0  0  0  0  0  0  0  0
  -26.2258   -0.8983   -9.7458 O   0  0  0  0  0  0  0  0  0  0  0  0
  -27.3791   -2.8911   -9.8282 N   0  0  0  0  0  0  0  0  0  0  0  0
  -26.5590   -2.9467  -12.1118 H   0  0  0  0  0  0  0  0  0  0  0  0
  -27.1524   -3.8370  -10.0988 H   0  0  0  0  0  0  0  0  0  0  0  0
  -27.9789   -2.7319   -8.5552 C   0  0  0  0  0  0  0  0  0  0  0  0
  -28.6025   -3.8335   -7.9670 C   0  0  0  0  0  0  0  0  0  0  0  0
  -29.1197   -3.7350   -6.6715 C   0  0  0  0  0  0  0  0  0  0  0  0
  -29.0534   -2.5247   -5.9811 C   0  0  0  0  0  0  0  0  0  0  0  0
  -28.4723   -1.3968   -6.5717 C   0  0  0  0  0  0  0  0  0  0  0  0
  -27.9342   -1.5150   -7.8645 C   0  0  0  0  0  0  0  0  0  0  0  0
  -28.4117   -0.0734   -5.8511 C   0  0  0  0  0  0  0  0  0  0  0  0
  -29.4446    0.1185   -4.9845 F   0  0  0  0  0  0  0  0  0  0  0  0
  -27.2782    0.0796   -5.1173 F   0  0  0  0  0  0  0  0  0  0  0  0
  -28.4493    0.9865   -6.7076 F   0  0  0  0  0  0  0  0  0  0  0  0
 19 20  1  0  0  0
 20  7  1  0  0  0
  7  8  1  0  0  0
  7 16  2  0  0  0
  8  9  2  0  0  0
  9 10  1  0  0  0
 10  1  1  0  0  0
 10 11  2  0  0  0
  1  2  1  0  0  0
  1  6  2  0  0  0
  2  3  2  0  0  0
  3  4  1  0  0  0
  4 21  1  0  0  0
  4  5  2  0  0  0
 21 22  1  0  0  0
 21 25  1  0  0  0
 22 23  2  0  0  0
 22 24  1  0  0  0
 24 27  1  0  0  0
 24 26  1  0  0  0
 27 28  1  0  0  0
 27 32  2  0  0  0
 28 29  2  0  0  0
 29 30  1  0  0  0
 30 31  2  0  0  0
 31 33  1  0  0  0
 31 32  1  0  0  0
 33 34  1  0  0  0
 33 35  1  0  0  0
 33 36  1  0  0  0
  5  6  1  0  0  0
 11 12  1  0  0  0
 11 16  1  0  0  0
 12 13  1  0  0  0
 12 14  2  0  0  0
 13 17  1  0  0  0
 13 18  1  0  0  0
 14 15  1  0  0  0
 15 16  1  0  0  0
M  END
> <minimizedAffinity>
-10.99246

$$$$
