CHEMBL3977503


 32 35  0  0  0  0  0  0  0  0999 V2000
  -29.5635   -6.0821   -4.9995 C   0  0  0  0  0  0  0  0  0  0  0  0
  -28.8609   -7.2899   -5.0274 C   0  0  0  0  0  0  0  0  0  0  0  0
  -28.5217   -7.9169   -6.2536 C   0  0  0  0  0  0  0  0  0  0  0  0
  -27.9277   -9.1816   -6.3735 C   0  0  0  0  0  0  0  0  0  0  0  0
  -27.5735   -9.7057   -7.5624 N   0  0  0  0  0  0  0  0  0  0  0  0
  -27.8374   -8.9651   -8.6416 C   0  0  0  0  0  0  0  0  0  0  0  0
  -28.4069   -7.7580   -8.6450 N   0  0  0  0  0  0  0  0  0  0  0  0
  -28.7461   -7.2544   -7.4544 C   0  0  0  0  0  0  0  0  0  0  0  0
  -29.3635   -6.0208   -7.4134 C   0  0  0  0  0  0  0  0  0  0  0  0
  -29.8461   -5.4496   -6.2204 C   0  0  0  0  0  0  0  0  0  0  0  0
  -31.3376   -5.7922   -3.4197 C   0  0  0  0  0  0  0  0  0  0  0  0
  -30.0099   -5.4892   -3.8478 O   0  0  0  0  0  0  0  0  0  0  0  0
  -27.7479   -9.9633   -5.2100 N   0  0  0  0  0  0  0  0  0  0  0  0
  -28.5169  -10.6222   -5.1017 H   0  0  0  0  0  0  0  0  0  0  0  0
  -26.5284  -10.4305   -4.6745 C   0  0  0  0  0  0  0  0  0  0  0  0
  -25.3163   -9.9782   -5.2115 C   0  0  0  0  0  0  0  0  0  0  0  0
  -24.1082  -10.2637   -4.5845 C   0  0  0  0  0  0  0  0  0  0  0  0
  -24.0893  -11.0069   -3.4044 C   0  0  0  0  0  0  0  0  0  0  0  0
  -22.3947  -11.2350   -2.5710 Br  0  0  0  0  0  0  0  0  0  0  0  0
  -25.2818  -11.5122   -2.8667 C   0  0  0  0  0  0  0  0  0  0  0  0
  -25.2591  -12.4648   -1.4141 Cl  0  0  0  0  0  0  0  0  0  0  0  0
  -26.5005  -11.2188   -3.5054 C   0  0  0  0  0  0  0  0  0  0  0  0
  -28.0162  -11.8117   -2.8817 Cl  0  0  0  0  0  0  0  0  0  0  0  0
  -30.6097   -4.2944   -6.2195 O   0  0  0  0  0  0  0  0  0  0  0  0
  -29.8072   -3.1049   -6.3568 C   0  0  0  0  0  0  0  0  0  0  0  0
  -29.6610   -2.2691   -5.0792 C   0  0  0  0  0  0  0  0  0  0  0  0
  -29.8348   -0.7596   -5.3109 C   0  0  0  0  0  0  0  0  0  0  0  0
  -28.7490   -0.2165   -6.1524 N   0  0  0  0  0  0  0  0  0  0  0  0
  -28.9370    1.2156   -6.3624 C   0  0  0  0  0  0  0  0  0  0  0  0
  -27.4529   -0.4960   -5.5052 C   0  0  0  0  0  0  0  0  0  0  0  0
  -27.2766   -1.9921   -5.1976 C   0  0  0  0  0  0  0  0  0  0  0  0
  -28.3808   -2.5305   -4.4464 O   0  0  0  0  0  0  0  0  0  0  0  0
 11 12  1  0  0  0
 12  1  1  0  0  0
  1  2  1  0  0  0
  1 10  2  0  0  0
  2  3  2  0  0  0
  3  4  1  0  0  0
  3  8  1  0  0  0
  4 13  1  0  0  0
  4  5  2  0  0  0
 13 15  1  0  0  0
 13 14  1  0  0  0
 15 16  1  0  0  0
 15 22  2  0  0  0
 16 17  2  0  0  0
 17 18  1  0  0  0
 18 19  1  0  0  0
 18 20  2  0  0  0
 20 21  1  0  0  0
 20 22  1  0  0  0
 22 23  1  0  0  0
  5  6  1  0  0  0
  6  7  2  0  0  0
  7  8  1  0  0  0
  8  9  2  0  0  0
  9 10  1  0  0  0
 10 24  1  0  0  0
 24 25  1  0  0  0
 25 26  1  0  0  0
 26 27  1  0  0  0
 26 32  1  0  0  0
 27 28  1  0  0  0
 28 29  1  0  0  0
 28 30  1  0  0  0
 30 31  1  0  0  0
 31 32  1  0  0  0
M  END
> <minimizedAffinity>
-7.79454

$$$$
