CHEMBL3676351


 40 42  0  0  0  0  0  0  0  0999 V2000
  -17.2342    1.2565  -15.0391 C   0  0  0  0  0  0  0  0  0  0  0  0
  -16.7315    0.3164  -14.1368 C   0  0  0  0  0  0  0  0  0  0  0  0
  -15.3505    0.1270  -13.9639 C   0  0  0  0  0  0  0  0  0  0  0  0
  -14.8023   -0.8607  -13.1394 C   0  0  0  0  0  0  0  0  0  0  0  0
  -13.4711   -1.0560  -13.0588 N   0  0  0  0  0  0  0  0  0  0  0  0
  -12.7001   -0.2424  -13.7855 C   0  0  0  0  0  0  0  0  0  0  0  0
  -13.1233    0.7264  -14.6058 N   0  0  0  0  0  0  0  0  0  0  0  0
  -14.4463    0.8997  -14.6968 C   0  0  0  0  0  0  0  0  0  0  0  0
  -14.9557    1.8695  -15.5533 C   0  0  0  0  0  0  0  0  0  0  0  0
  -16.3294    2.0953  -15.7095 C   0  0  0  0  0  0  0  0  0  0  0  0
  -19.4406    2.2529  -14.7349 C   0  0  0  0  0  0  0  0  0  0  0  0
  -19.0700    3.2255  -14.0887 O   0  0  0  0  0  0  0  0  0  0  0  0
  -18.6281    1.2617  -15.2476 N   0  0  0  0  0  0  0  0  0  0  0  0
  -19.0719    0.4412  -15.6201 H   0  0  0  0  0  0  0  0  0  0  0  0
  -21.4961    1.0063  -14.3380 C   0  0  0  0  0  0  0  0  0  0  0  0
  -20.8783    1.9974  -14.9967 C   0  0  0  0  0  0  0  0  0  0  0  0
  -15.6640   -1.7279  -12.4163 N   0  0  0  0  0  0  0  0  0  0  0  0
  -16.0525   -1.2710  -11.5955 H   0  0  0  0  0  0  0  0  0  0  0  0
  -15.4187   -3.1007  -12.2248 C   0  0  0  0  0  0  0  0  0  0  0  0
  -15.5237   -3.9854  -13.3042 C   0  0  0  0  0  0  0  0  0  0  0  0
  -15.1079   -5.3190  -13.2015 C   0  0  0  0  0  0  0  0  0  0  0  0
  -14.6554   -5.7915  -11.9594 C   0  0  0  0  0  0  0  0  0  0  0  0
  -13.9354   -7.5280  -11.6900 Br  0  0  0  0  0  0  0  0  0  0  0  0
  -14.6542   -4.9415  -10.8437 C   0  0  0  0  0  0  0  0  0  0  0  0
  -15.0285   -3.6098  -10.9859 C   0  0  0  0  0  0  0  0  0  0  0  0
  -14.9683   -2.7934   -9.9230 F   0  0  0  0  0  0  0  0  0  0  0  0
  -15.1305   -6.1580  -14.4269 C   0  0  0  0  0  0  0  0  0  0  0  0
  -15.9603   -7.0498  -14.5623 O   0  0  0  0  0  0  0  0  0  0  0  0
  -14.1490   -5.8553  -15.3569 N   0  0  0  0  0  0  0  0  0  0  0  0
  -13.6719   -4.9661  -15.3886 H   0  0  0  0  0  0  0  0  0  0  0  0
  -14.2253   -6.5450  -16.5865 O   0  0  0  0  0  0  0  0  0  0  0  0
  -13.0912   -7.4005  -16.6686 C   0  0  0  0  0  0  0  0  0  0  0  0
  -16.6187    3.0712  -16.6314 O   0  0  0  0  0  0  0  0  0  0  0  0
  -15.9683    4.3164  -16.4179 C   0  0  0  0  0  0  0  0  0  0  0  0
  -14.9744    4.6500  -17.5290 C   0  0  0  0  0  0  0  0  0  0  0  0
  -14.8716    6.0876  -17.7350 N   0  0  0  0  0  0  0  0  0  0  0  0
  -14.9047    6.6434  -18.9962 C   0  0  0  0  0  0  0  0  0  0  0  0
  -14.7231    8.1342  -19.0378 C   0  0  0  0  0  0  0  0  0  0  0  0
  -15.0299    5.9850  -20.0239 O   0  0  0  0  0  0  0  0  0  0  0  0
  -14.9321    6.6963  -16.9270 H   0  0  0  0  0  0  0  0  0  0  0  0
 15 16  2  0  0  0
 16 11  1  0  0  0
 11 12  2  0  0  0
 11 13  1  0  0  0
 13  1  1  0  0  0
 13 14  1  0  0  0
  1  2  1  0  0  0
  1 10  2  0  0  0
  2  3  2  0  0  0
  3  4  1  0  0  0
  3  8  1  0  0  0
  4 17  1  0  0  0
  4  5  2  0  0  0
 17 19  1  0  0  0
 17 18  1  0  0  0
 19 20  1  0  0  0
 19 25  2  0  0  0
 20 21  2  0  0  0
 21 27  1  0  0  0
 21 22  1  0  0  0
 27 28  2  0  0  0
 27 29  1  0  0  0
 29 31  1  0  0  0
 29 30  1  0  0  0
 31 32  1  0  0  0
 22 23  1  0  0  0
 22 24  2  0  0  0
 24 25  1  0  0  0
 25 26  1  0  0  0
  5  6  1  0  0  0
  6  7  2  0  0  0
  7  8  1  0  0  0
  8  9  2  0  0  0
  9 10  1  0  0  0
 10 33  1  0  0  0
 33 34  1  0  0  0
 34 35  1  0  0  0
 35 36  1  0  0  0
 36 37  1  0  0  0
 36 40  1  0  0  0
 37 38  1  0  0  0
 37 39  2  0  0  0
M  END
> <minimizedAffinity>
-8.09750

$$$$
