CHEMBL3924098


 32 35  0  0  0  0  0  0  0  0999 V2000
  -28.7961   -5.7061   -7.5643 C   0  0  0  0  0  0  0  0  0  0  0  0
  -28.2213   -4.7236   -8.3783 C   0  0  0  0  0  0  0  0  0  0  0  0
  -28.1137   -3.3758   -7.9692 C   0  0  0  0  0  0  0  0  0  0  0  0
  -27.5839   -2.3495   -8.7785 C   0  0  0  0  0  0  0  0  0  0  0  0
  -27.4474   -1.0882   -8.3399 N   0  0  0  0  0  0  0  0  0  0  0  0
  -27.8852   -0.8487   -7.0955 C   0  0  0  0  0  0  0  0  0  0  0  0
  -28.4299   -1.7402   -6.2566 N   0  0  0  0  0  0  0  0  0  0  0  0
  -28.5363   -2.9990   -6.6980 C   0  0  0  0  0  0  0  0  0  0  0  0
  -29.0990   -3.9857   -5.8846 C   0  0  0  0  0  0  0  0  0  0  0  0
  -29.2447   -5.3317   -6.2918 C   0  0  0  0  0  0  0  0  0  0  0  0
  -27.9693   -7.6707   -8.6855 C   0  0  0  0  0  0  0  0  0  0  0  0
  -29.0123   -6.9826   -8.0025 O   0  0  0  0  0  0  0  0  0  0  0  0
  -27.2846   -2.6464  -10.1364 N   0  0  0  0  0  0  0  0  0  0  0  0
  -28.0946   -3.0816  -10.5607 H   0  0  0  0  0  0  0  0  0  0  0  0
  -26.4428   -1.9553  -11.0369 C   0  0  0  0  0  0  0  0  0  0  0  0
  -25.1961   -1.4865  -10.5954 C   0  0  0  0  0  0  0  0  0  0  0  0
  -24.2502   -0.9861  -11.4873 C   0  0  0  0  0  0  0  0  0  0  0  0
  -24.5366   -0.9351  -12.8487 C   0  0  0  0  0  0  0  0  0  0  0  0
  -23.1394   -0.3314  -13.9926 Br  0  0  0  0  0  0  0  0  0  0  0  0
  -25.7917   -1.3515  -13.3214 C   0  0  0  0  0  0  0  0  0  0  0  0
  -26.1523   -1.2194  -15.0187 Cl  0  0  0  0  0  0  0  0  0  0  0  0
  -26.7527   -1.8825  -12.4226 C   0  0  0  0  0  0  0  0  0  0  0  0
  -28.1000   -2.3722  -12.9054 C   0  0  0  0  0  0  0  0  0  0  0  0
  -29.8411   -6.1059   -5.3271 O   0  0  0  0  0  0  0  0  0  0  0  0
  -29.5924   -7.5156   -5.2941 C   0  0  0  0  0  0  0  0  0  0  0  0
  -28.5749   -7.8364   -4.1779 C   0  0  0  0  0  0  0  0  0  0  0  0
  -27.1769   -8.2460   -4.7015 C   0  0  0  0  0  0  0  0  0  0  0  0
  -27.1514   -9.6122   -5.2688 N   0  0  0  0  0  0  0  0  0  0  0  0
  -25.7922   -9.9795   -5.6667 C   0  0  0  0  0  0  0  0  0  0  0  0
  -27.6644  -10.5551   -4.2567 C   0  0  0  0  0  0  0  0  0  0  0  0
  -29.0674  -10.1459   -3.7886 C   0  0  0  0  0  0  0  0  0  0  0  0
  -29.0831   -8.8180   -3.2485 O   0  0  0  0  0  0  0  0  0  0  0  0
 11 12  1  0  0  0
 12  1  1  0  0  0
  1  2  1  0  0  0
  1 10  2  0  0  0
  2  3  2  0  0  0
  3  4  1  0  0  0
  3  8  1  0  0  0
  4 13  1  0  0  0
  4  5  2  0  0  0
 13 15  1  0  0  0
 13 14  1  0  0  0
 15 16  1  0  0  0
 15 22  2  0  0  0
 16 17  2  0  0  0
 17 18  1  0  0  0
 18 19  1  0  0  0
 18 20  2  0  0  0
 20 21  1  0  0  0
 20 22  1  0  0  0
 22 23  1  0  0  0
  5  6  1  0  0  0
  6  7  2  0  0  0
  7  8  1  0  0  0
  8  9  2  0  0  0
  9 10  1  0  0  0
 10 24  1  0  0  0
 24 25  1  0  0  0
 25 26  1  0  0  0
 26 27  1  0  0  0
 26 32  1  0  0  0
 27 28  1  0  0  0
 28 29  1  0  0  0
 28 30  1  0  0  0
 30 31  1  0  0  0
 31 32  1  0  0  0
M  END
> <minimizedAffinity>
-8.88039

$$$$
