CHEMBL4591255


 40 44  0  0  0  0  0  0  0  0999 V2000
  -15.0382    4.6657  -18.4756 C   0  0  0  0  0  0  0  0  0  0  0  0
  -15.3626    3.5971  -17.4638 C   0  0  0  0  0  0  0  0  0  0  0  0
  -16.3475    3.8185  -16.5772 C   0  0  0  0  0  0  0  0  0  0  0  0
  -16.7770    2.7762  -15.6586 C   0  0  0  0  0  0  0  0  0  0  0  0
  -17.8871    2.9716  -14.8419 C   0  0  0  0  0  0  0  0  0  0  0  0
  -18.2746    1.9365  -14.0193 C   0  0  0  0  0  0  0  0  0  0  0  0
  -17.6176    0.7632  -13.9435 N   0  0  0  0  0  0  0  0  0  0  0  0
  -16.5136    0.5707  -14.7172 C   0  0  0  0  0  0  0  0  0  0  0  0
  -16.0915    1.5573  -15.6163 C   0  0  0  0  0  0  0  0  0  0  0  0
  -14.9662    1.3414  -16.5586 C   0  0  0  0  0  0  0  0  0  0  0  0
  -14.3073    0.3039  -16.4722 O   0  0  0  0  0  0  0  0  0  0  0  0
  -14.6957    2.3644  -17.4994 N   0  0  0  0  0  0  0  0  0  0  0  0
  -13.6651    2.0633  -18.4469 C   0  0  0  0  0  0  0  0  0  0  0  0
  -13.9765    1.3063  -19.5874 C   0  0  0  0  0  0  0  0  0  0  0  0
  -12.9739    0.9490  -20.4906 C   0  0  0  0  0  0  0  0  0  0  0  0
  -11.6599    1.3383  -20.2446 C   0  0  0  0  0  0  0  0  0  0  0  0
  -10.6973    0.9763  -21.1003 F   0  0  0  0  0  0  0  0  0  0  0  0
  -11.3293    2.0835  -19.1200 C   0  0  0  0  0  0  0  0  0  0  0  0
  -12.3345    2.4415  -18.2265 C   0  0  0  0  0  0  0  0  0  0  0  0
  -11.9917    3.1121  -17.1170 F   0  0  0  0  0  0  0  0  0  0  0  0
  -15.8566   -0.6710  -14.6312 N   0  0  0  0  0  0  0  0  0  0  0  0
  -15.0969   -0.7817  -15.2985 H   0  0  0  0  0  0  0  0  0  0  0  0
  -15.9445   -1.6115  -13.5975 C   0  0  0  0  0  0  0  0  0  0  0  0
  -15.5633   -1.2522  -12.3019 C   0  0  0  0  0  0  0  0  0  0  0  0
  -15.5527   -2.1850  -11.2681 C   0  0  0  0  0  0  0  0  0  0  0  0
  -15.8125   -3.5252  -11.5439 C   0  0  0  0  0  0  0  0  0  0  0  0
  -16.2392   -3.8799  -12.8245 C   0  0  0  0  0  0  0  0  0  0  0  0
  -16.5409   -5.1618  -13.1043 F   0  0  0  0  0  0  0  0  0  0  0  0
  -16.3189   -2.9353  -13.8489 C   0  0  0  0  0  0  0  0  0  0  0  0
  -15.6562   -4.5305  -10.6112 O   0  0  0  0  0  0  0  0  0  0  0  0
  -14.3903   -4.7464  -10.0944 C   0  0  0  0  0  0  0  0  0  0  0  0
  -13.8509   -3.9394   -9.0889 C   0  0  0  0  0  0  0  0  0  0  0  0
  -12.6314   -4.2938   -8.5472 C   0  0  0  0  0  0  0  0  0  0  0  0
  -11.8954   -5.3364   -8.9816 N   0  0  0  0  0  0  0  0  0  0  0  0
  -12.3816   -6.0580  -10.0139 C   0  0  0  0  0  0  0  0  0  0  0  0
  -11.5792   -7.1337  -10.3965 N   0  0  0  0  0  0  0  0  0  0  0  0
  -13.6256   -5.7991  -10.6038 C   0  0  0  0  0  0  0  0  0  0  0  0
  -14.1887   -6.7481  -11.9357 Cl  0  0  0  0  0  0  0  0  0  0  0  0
  -10.7000   -7.0605   -9.8921 H   0  0  0  0  0  0  0  0  0  0  0  0
  -11.4640   -7.1832  -11.4030 H   0  0  0  0  0  0  0  0  0  0  0  0
  1  2  1  0  0  0
  2  3  2  0  0  0
  2 12  1  0  0  0
  3  4  1  0  0  0
  4  5  1  0  0  0
  4  9  2  0  0  0
  5  6  2  0  0  0
  6  7  1  0  0  0
  7  8  2  0  0  0
  8 21  1  0  0  0
  8  9  1  0  0  0
 21 23  1  0  0  0
 21 22  1  0  0  0
 23 24  1  0  0  0
 23 29  2  0  0  0
 24 25  2  0  0  0
 25 26  1  0  0  0
 26 30  1  0  0  0
 26 27  2  0  0  0
 30 31  1  0  0  0
 31 32  1  0  0  0
 31 37  2  0  0  0
 32 33  2  0  0  0
 33 34  1  0  0  0
 34 35  2  0  0  0
 35 36  1  0  0  0
 35 37  1  0  0  0
 36 39  1  0  0  0
 36 40  1  0  0  0
 37 38  1  0  0  0
 27 28  1  0  0  0
 27 29  1  0  0  0
  9 10  1  0  0  0
 10 11  2  0  0  0
 10 12  1  0  0  0
 12 13  1  0  0  0
 13 14  1  0  0  0
 13 19  2  0  0  0
 14 15  2  0  0  0
 15 16  1  0  0  0
 16 17  1  0  0  0
 16 18  2  0  0  0
 18 19  1  0  0  0
 19 20  1  0  0  0
M  END
> <minimizedAffinity>
-8.74535

$$$$
