CHEMBL3694688


 40 43  0  0  0  0  0  0  0  0999 V2000
  -27.9568   -2.1781   -7.5964 C   0  0  0  0  0  0  0  0  0  0  0  0
  -28.4758   -3.1909   -6.8029 C   0  0  0  0  0  0  0  0  0  0  0  0
  -29.2928   -2.9491   -5.6914 C   0  0  0  0  0  0  0  0  0  0  0  0
  -29.5176   -1.6273   -5.3187 C   0  0  0  0  0  0  0  0  0  0  0  0
  -28.9314   -0.5757   -6.0391 C   0  0  0  0  0  0  0  0  0  0  0  0
  -28.1724   -0.8605   -7.1938 C   0  0  0  0  0  0  0  0  0  0  0  0
  -29.8598   -4.0537   -4.9168 C   0  0  0  0  0  0  0  0  0  0  0  0
  -30.9886   -4.0981   -4.1129 C   0  0  0  0  0  0  0  0  0  0  0  0
  -31.1651   -5.3270   -3.5370 N   0  0  0  0  0  0  0  0  0  0  0  0
  -30.1628   -6.0567   -3.9736 C   0  0  0  0  0  0  0  0  0  0  0  0
  -29.8065   -7.4097   -3.7034 C   0  0  0  0  0  0  0  0  0  0  0  0
  -28.6847   -7.9546   -4.2343 C   0  0  0  0  0  0  0  0  0  0  0  0
  -27.8698   -7.1654   -5.1553 C   0  0  0  0  0  0  0  0  0  0  0  0
  -28.2141   -5.9060   -5.4288 C   0  0  0  0  0  0  0  0  0  0  0  0
  -29.3344   -5.3363   -4.8268 N   0  0  0  0  0  0  0  0  0  0  0  0
  -28.3131   -9.3406   -3.8806 C   0  0  0  0  0  0  0  0  0  0  0  0
  -29.2805  -10.3234   -3.8385 C   0  0  0  0  0  0  0  0  0  0  0  0
  -28.8554  -11.5716   -3.4714 C   0  0  0  0  0  0  0  0  0  0  0  0
  -27.5778  -11.8524   -3.1693 N   0  0  0  0  0  0  0  0  0  0  0  0
  -26.6797  -10.8369   -3.2430 C   0  0  0  0  0  0  0  0  0  0  0  0
  -27.0170   -9.5766   -3.5987 N   0  0  0  0  0  0  0  0  0  0  0  0
  -25.2152  -11.1257   -2.8964 C   0  0  0  0  0  0  0  0  0  0  0  0
  -24.5862  -11.9342   -3.8028 F   0  0  0  0  0  0  0  0  0  0  0  0
  -24.4463   -9.9975   -2.8255 F   0  0  0  0  0  0  0  0  0  0  0  0
  -25.0624  -11.7523   -1.6903 F   0  0  0  0  0  0  0  0  0  0  0  0
  -28.2183   -1.0250  -10.3392 O   0  0  0  0  0  0  0  0  0  0  0  0
  -27.3864   -1.8742  -10.0150 C   0  0  0  0  0  0  0  0  0  0  0  0
  -26.4825   -2.3598  -10.9299 N   0  0  0  0  0  0  0  0  0  0  0  0
  -27.2028   -2.4332   -8.7652 N   0  0  0  0  0  0  0  0  0  0  0  0
  -26.1965   -3.3167  -10.7741 H   0  0  0  0  0  0  0  0  0  0  0  0
  -26.3967   -3.0332   -8.6592 H   0  0  0  0  0  0  0  0  0  0  0  0
  -26.6200   -1.9753  -12.3439 C   0  0  0  0  0  0  0  0  0  0  0  0
  -25.3331   -1.4451  -12.9924 C   0  0  0  0  0  0  0  0  0  0  0  0
  -25.4566   -1.3453  -14.3367 F   0  0  0  0  0  0  0  0  0  0  0  0
  -24.9826   -0.2343  -12.5113 F   0  0  0  0  0  0  0  0  0  0  0  0
  -24.2973   -2.2902  -12.7577 F   0  0  0  0  0  0  0  0  0  0  0  0
  -29.0820    0.8430   -5.5538 C   0  0  0  0  0  0  0  0  0  0  0  0
  -28.3208    1.1255   -4.4604 F   0  0  0  0  0  0  0  0  0  0  0  0
  -28.7216    1.7511   -6.5024 F   0  0  0  0  0  0  0  0  0  0  0  0
  -30.3630    1.1458   -5.2107 F   0  0  0  0  0  0  0  0  0  0  0  0
 26 27  2  0  0  0
 27 28  1  0  0  0
 27 29  1  0  0  0
 28 32  1  0  0  0
 28 30  1  0  0  0
 32 33  1  0  0  0
 33 34  1  0  0  0
 33 35  1  0  0  0
 33 36  1  0  0  0
 29  1  1  0  0  0
 29 31  1  0  0  0
  1  2  1  0  0  0
  1  6  2  0  0  0
  2  3  2  0  0  0
  3  7  1  0  0  0
  3  4  1  0  0  0
  7  8  2  0  0  0
  7 15  1  0  0  0
  8  9  1  0  0  0
  9 10  2  0  0  0
 10 11  1  0  0  0
 10 15  1  0  0  0
 11 12  2  0  0  0
 12 16  1  0  0  0
 12 13  1  0  0  0
 16 17  1  0  0  0
 16 21  2  0  0  0
 17 18  2  0  0  0
 18 19  1  0  0  0
 19 20  2  0  0  0
 20 22  1  0  0  0
 20 21  1  0  0  0
 22 23  1  0  0  0
 22 24  1  0  0  0
 22 25  1  0  0  0
 13 14  2  0  0  0
 14 15  1  0  0  0
  4  5  2  0  0  0
  5 37  1  0  0  0
  5  6  1  0  0  0
 37 38  1  0  0  0
 37 39  1  0  0  0
 37 40  1  0  0  0
M  END
> <minimizedAffinity>
-11.06520

$$$$
