CHEMBL4536156


 37 41  0  0  0  0  0  0  0  0999 V2000
  -29.2039   -6.4278   -7.2893 C   0  0  0  0  0  0  0  0  0  0  0  0
  -28.0509   -6.0256   -7.9816 C   0  0  0  0  0  0  0  0  0  0  0  0
  -27.8875   -4.6954   -8.3882 C   0  0  0  0  0  0  0  0  0  0  0  0
  -28.8726   -3.7353   -8.1294 C   0  0  0  0  0  0  0  0  0  0  0  0
  -30.0201   -4.1357   -7.4343 C   0  0  0  0  0  0  0  0  0  0  0  0
  -30.1734   -5.4627   -7.0023 C   0  0  0  0  0  0  0  0  0  0  0  0
  -28.5862   -6.5299   -3.9741 N   0  0  0  0  0  0  0  0  0  0  0  0
  -28.7818   -7.8558   -4.3231 C   0  0  0  0  0  0  0  0  0  0  0  0
  -28.6550   -8.7267   -3.3032 N   0  0  0  0  0  0  0  0  0  0  0  0
  -28.8878  -10.0284   -3.5205 C   0  0  0  0  0  0  0  0  0  0  0  0
  -29.2517  -10.6036   -4.6634 N   0  0  0  0  0  0  0  0  0  0  0  0
  -29.3704   -9.7318   -5.6826 C   0  0  0  0  0  0  0  0  0  0  0  0
  -29.7459  -10.0011   -6.9903 C   0  0  0  0  0  0  0  0  0  0  0  0
  -29.7461   -8.8227   -7.6779 C   0  0  0  0  0  0  0  0  0  0  0  0
  -29.3482   -7.7851   -6.8634 N   0  0  0  0  0  0  0  0  0  0  0  0
  -29.1247   -8.3488   -5.5859 C   0  0  0  0  0  0  0  0  0  0  0  0
  -30.0258   -8.9983   -9.1250 C   0  0  0  0  0  0  0  0  0  0  0  0
  -29.8805  -10.5520   -9.2692 C   0  0  0  0  0  0  0  0  0  0  0  0
  -30.0786  -11.1570   -7.8432 C   0  0  0  0  0  0  0  0  0  0  0  0
  -28.5433   -6.4544   -2.9627 H   0  0  0  0  0  0  0  0  0  0  0  0
  -29.2174   -5.8801   -4.4232 H   0  0  0  0  0  0  0  0  0  0  0  0
  -28.6223   -2.2850   -8.4720 C   0  0  0  0  0  0  0  0  0  0  0  0
  -27.5450   -1.9827   -9.4945 C   0  0  0  0  0  0  0  0  0  0  0  0
  -26.4269   -1.6206   -9.1280 O   0  0  0  0  0  0  0  0  0  0  0  0
  -27.8942   -2.2019  -10.8191 N   0  0  0  0  0  0  0  0  0  0  0  0
  -28.8650   -2.0123  -11.0513 H   0  0  0  0  0  0  0  0  0  0  0  0
  -26.9527   -1.9759  -11.8529 C   0  0  0  0  0  0  0  0  0  0  0  0
  -25.6098   -1.6907  -11.5765 C   0  0  0  0  0  0  0  0  0  0  0  0
  -24.7170   -1.3640  -12.6128 C   0  0  0  0  0  0  0  0  0  0  0  0
  -25.2016   -1.3093  -13.9313 C   0  0  0  0  0  0  0  0  0  0  0  0
  -26.5308   -1.6308  -14.2124 C   0  0  0  0  0  0  0  0  0  0  0  0
  -27.3878   -1.9935  -13.1778 C   0  0  0  0  0  0  0  0  0  0  0  0
  -28.6683   -2.2812  -13.4556 F   0  0  0  0  0  0  0  0  0  0  0  0
  -23.2625   -1.0532  -12.3270 C   0  0  0  0  0  0  0  0  0  0  0  0
  -22.4584   -1.1338  -13.4227 F   0  0  0  0  0  0  0  0  0  0  0  0
  -23.0905    0.2052  -11.8343 F   0  0  0  0  0  0  0  0  0  0  0  0
  -22.7235   -1.8915  -11.3998 F   0  0  0  0  0  0  0  0  0  0  0  0
  7  8  1  0  0  0
  7 20  1  0  0  0
  7 21  1  0  0  0
  8  9  1  0  0  0
  8 16  2  0  0  0
  9 10  2  0  0  0
 10 11  1  0  0  0
 11 12  2  0  0  0
 12 13  1  0  0  0
 12 16  1  0  0  0
 13 14  2  0  0  0
 13 19  1  0  0  0
 14 15  1  0  0  0
 14 17  1  0  0  0
 15  1  1  0  0  0
 15 16  1  0  0  0
  1  2  1  0  0  0
  1  6  2  0  0  0
  2  3  2  0  0  0
  3  4  1  0  0  0
  4 22  1  0  0  0
  4  5  2  0  0  0
 22 23  1  0  0  0
 23 24  2  0  0  0
 23 25  1  0  0  0
 25 27  1  0  0  0
 25 26  1  0  0  0
 27 28  1  0  0  0
 27 32  2  0  0  0
 28 29  2  0  0  0
 29 34  1  0  0  0
 29 30  1  0  0  0
 34 35  1  0  0  0
 34 36  1  0  0  0
 34 37  1  0  0  0
 30 31  2  0  0  0
 31 32  1  0  0  0
 32 33  1  0  0  0
  5  6  1  0  0  0
 17 18  1  0  0  0
 18 19  1  0  0  0
M  END
> <minimizedAffinity>
-10.92597

$$$$
