CHEMBL3671581


 34 36  0  0  0  0  0  0  0  0999 V2000
  -28.6501   -4.8236   -5.4788 C   0  0  0  0  0  0  0  0  0  0  0  0
  -28.3804   -6.1378   -5.0918 C   0  0  0  0  0  0  0  0  0  0  0  0
  -28.6421   -7.2090   -5.9692 C   0  0  0  0  0  0  0  0  0  0  0  0
  -28.5515   -8.5674   -5.6220 C   0  0  0  0  0  0  0  0  0  0  0  0
  -28.8224   -9.5452   -6.5071 N   0  0  0  0  0  0  0  0  0  0  0  0
  -29.2134   -9.1698   -7.7236 C   0  0  0  0  0  0  0  0  0  0  0  0
  -29.3824   -7.9113   -8.1409 N   0  0  0  0  0  0  0  0  0  0  0  0
  -29.1111   -6.9426   -7.2653 C   0  0  0  0  0  0  0  0  0  0  0  0
  -29.3387   -5.6202   -7.6393 C   0  0  0  0  0  0  0  0  0  0  0  0
  -29.1022   -4.5481   -6.7750 C   0  0  0  0  0  0  0  0  0  0  0  0
  -29.6874   -3.4772   -3.7137 C   0  0  0  0  0  0  0  0  0  0  0  0
  -29.5266   -2.8265   -2.6856 O   0  0  0  0  0  0  0  0  0  0  0  0
  -28.6102   -3.8294   -4.4899 N   0  0  0  0  0  0  0  0  0  0  0  0
  -27.7528   -3.7522   -3.9528 H   0  0  0  0  0  0  0  0  0  0  0  0
  -31.7607   -4.6844   -3.3031 C   0  0  0  0  0  0  0  0  0  0  0  0
  -31.0260   -3.9534   -4.1489 C   0  0  0  0  0  0  0  0  0  0  0  0
  -28.2616   -8.9385   -4.2808 N   0  0  0  0  0  0  0  0  0  0  0  0
  -28.4747   -8.1798   -3.6376 H   0  0  0  0  0  0  0  0  0  0  0  0
  -27.0852   -9.6337   -3.9108 C   0  0  0  0  0  0  0  0  0  0  0  0
  -25.8282   -9.0180   -4.0079 C   0  0  0  0  0  0  0  0  0  0  0  0
  -24.6868   -9.6390   -3.5026 C   0  0  0  0  0  0  0  0  0  0  0  0
  -24.7902  -10.9013   -2.9244 C   0  0  0  0  0  0  0  0  0  0  0  0
  -23.4011  -11.6259   -2.2147 Cl  0  0  0  0  0  0  0  0  0  0  0  0
  -26.0127  -11.5674   -2.8949 C   0  0  0  0  0  0  0  0  0  0  0  0
  -27.1460  -10.9326   -3.3958 C   0  0  0  0  0  0  0  0  0  0  0  0
  -28.3281  -11.5662   -3.3397 F   0  0  0  0  0  0  0  0  0  0  0  0
  -29.4336   -3.3063   -7.2664 O   0  0  0  0  0  0  0  0  0  0  0  0
  -28.5541   -2.8229   -8.2885 C   0  0  0  0  0  0  0  0  0  0  0  0
  -27.5030   -1.8698   -7.7144 C   0  0  0  0  0  0  0  0  0  0  0  0
  -28.1304   -0.7493   -7.0254 N   0  0  0  0  0  0  0  0  0  0  0  0
  -27.9059   -0.5164   -5.6874 C   0  0  0  0  0  0  0  0  0  0  0  0
  -28.7560    0.5760   -5.0927 C   0  0  0  0  0  0  0  0  0  0  0  0
  -27.0867   -1.1391   -5.0222 O   0  0  0  0  0  0  0  0  0  0  0  0
  -28.8985   -0.2765   -7.4853 H   0  0  0  0  0  0  0  0  0  0  0  0
 15 16  2  0  0  0
 16 11  1  0  0  0
 11 12  2  0  0  0
 11 13  1  0  0  0
 13  1  1  0  0  0
 13 14  1  0  0  0
  1  2  1  0  0  0
  1 10  2  0  0  0
  2  3  2  0  0  0
  3  4  1  0  0  0
  3  8  1  0  0  0
  4 17  1  0  0  0
  4  5  2  0  0  0
 17 19  1  0  0  0
 17 18  1  0  0  0
 19 20  1  0  0  0
 19 25  2  0  0  0
 20 21  2  0  0  0
 21 22  1  0  0  0
 22 23  1  0  0  0
 22 24  2  0  0  0
 24 25  1  0  0  0
 25 26  1  0  0  0
  5  6  1  0  0  0
  6  7  2  0  0  0
  7  8  1  0  0  0
  8  9  2  0  0  0
  9 10  1  0  0  0
 10 27  1  0  0  0
 27 28  1  0  0  0
 28 29  1  0  0  0
 29 30  1  0  0  0
 30 31  1  0  0  0
 30 34  1  0  0  0
 31 32  1  0  0  0
 31 33  2  0  0  0
M  END
> <minimizedAffinity>
-8.03051

$$$$
