CHEMBL269885


 32 35  0  0  0  0  0  0  0  0999 V2000
  -21.4522    1.5610  -14.5589 C   0  0  0  0  0  0  0  0  0  0  0  0
  -21.4080    0.1691  -14.4591 C   0  0  0  0  0  0  0  0  0  0  0  0
  -22.4321   -0.5329  -13.8174 C   0  0  0  0  0  0  0  0  0  0  0  0
  -23.5159    0.1377  -13.2298 C   0  0  0  0  0  0  0  0  0  0  0  0
  -23.4663    1.5451  -13.2296 C   0  0  0  0  0  0  0  0  0  0  0  0
  -22.4577    2.2548  -13.8959 C   0  0  0  0  0  0  0  0  0  0  0  0
  -24.6421   -0.6074  -12.6271 C   0  0  0  0  0  0  0  0  0  0  0  0
  -24.7046   -0.8478  -11.2286 C   0  0  0  0  0  0  0  0  0  0  0  0
  -25.7858   -1.4938  -10.6213 C   0  0  0  0  0  0  0  0  0  0  0  0
  -26.8799   -1.9084  -11.3741 C   0  0  0  0  0  0  0  0  0  0  0  0
  -26.7937   -1.7031  -12.7475 C   0  0  0  0  0  0  0  0  0  0  0  0
  -27.7501   -2.0566  -13.6430 O   0  0  0  0  0  0  0  0  0  0  0  0
  -27.3113   -1.7805  -14.9203 N   0  0  0  0  0  0  0  0  0  0  0  0
  -26.0855   -1.2714  -14.7814 C   0  0  0  0  0  0  0  0  0  0  0  0
  -25.2955   -0.9875  -15.8386 N   0  0  0  0  0  0  0  0  0  0  0  0
  -25.7195   -1.1189  -13.4059 C   0  0  0  0  0  0  0  0  0  0  0  0
  -25.6030   -1.3550  -16.7338 H   0  0  0  0  0  0  0  0  0  0  0  0
  -24.2897   -1.0451  -15.7217 H   0  0  0  0  0  0  0  0  0  0  0  0
  -18.4334    2.9963  -15.9580 N   0  0  0  0  0  0  0  0  0  0  0  0
  -19.1877    2.2881  -15.0425 C   0  0  0  0  0  0  0  0  0  0  0  0
  -18.7429    1.6959  -14.0679 O   0  0  0  0  0  0  0  0  0  0  0  0
  -20.5397    2.2721  -15.3765 N   0  0  0  0  0  0  0  0  0  0  0  0
  -18.9238    3.6171  -16.5825 H   0  0  0  0  0  0  0  0  0  0  0  0
  -20.7263    2.2639  -16.3695 H   0  0  0  0  0  0  0  0  0  0  0  0
  -14.1948    3.2152  -16.0740 C   0  0  0  0  0  0  0  0  0  0  0  0
  -14.8280    1.9801  -16.1242 C   0  0  0  0  0  0  0  0  0  0  0  0
  -16.2195    1.8985  -16.0831 C   0  0  0  0  0  0  0  0  0  0  0  0
  -17.0149    3.0421  -15.9820 C   0  0  0  0  0  0  0  0  0  0  0  0
  -16.3794    4.2850  -15.9279 C   0  0  0  0  0  0  0  0  0  0  0  0
  -14.9786    4.3669  -15.9734 C   0  0  0  0  0  0  0  0  0  0  0  0
  -12.3072    4.3097  -15.1514 C   0  0  0  0  0  0  0  0  0  0  0  0
  -12.8420    3.4094  -16.1195 O   0  0  0  0  0  0  0  0  0  0  0  0
 31 32  1  0  0  0
 32 25  1  0  0  0
 25 26  1  0  0  0
 25 30  2  0  0  0
 26 27  2  0  0  0
 27 28  1  0  0  0
 28 19  1  0  0  0
 28 29  2  0  0  0
 19 20  1  0  0  0
 19 23  1  0  0  0
 20 21  2  0  0  0
 20 22  1  0  0  0
 22  1  1  0  0  0
 22 24  1  0  0  0
  1  2  1  0  0  0
  1  6  2  0  0  0
  2  3  2  0  0  0
  3  4  1  0  0  0
  4  7  1  0  0  0
  4  5  2  0  0  0
  7  8  1  0  0  0
  7 16  2  0  0  0
  8  9  2  0  0  0
  9 10  1  0  0  0
 10 11  2  0  0  0
 11 12  1  0  0  0
 11 16  1  0  0  0
 12 13  1  0  0  0
 13 14  2  0  0  0
 14 15  1  0  0  0
 14 16  1  0  0  0
 15 17  1  0  0  0
 15 18  1  0  0  0
  5  6  1  0  0  0
 29 30  1  0  0  0
M  END
> <minimizedAffinity>
-9.56671

$$$$
