CHEMBL2088101


 25 27  0  0  0  0  0  0  0  0999 V2000
  -28.9042   -3.4516   -6.8010 C   0  0  0  0  0  0  0  0  0  0  0  0
  -28.4091   -3.5746   -8.0531 N   0  0  0  0  0  0  0  0  0  0  0  0
  -27.7270   -2.5586   -8.5886 C   0  0  0  0  0  0  0  0  0  0  0  0
  -27.5184   -1.3963   -7.9632 N   0  0  0  0  0  0  0  0  0  0  0  0
  -28.0233   -1.2791   -6.7211 C   0  0  0  0  0  0  0  0  0  0  0  0
  -28.7288   -2.2746   -6.0881 C   0  0  0  0  0  0  0  0  0  0  0  0
  -29.3428   -2.0212   -4.3210 Br  0  0  0  0  0  0  0  0  0  0  0  0
  -29.5725   -4.5409   -6.2020 N   0  0  0  0  0  0  0  0  0  0  0  0
  -30.5721   -4.3981   -6.1199 H   0  0  0  0  0  0  0  0  0  0  0  0
  -28.7971   -8.9247   -4.0005 C   0  0  0  0  0  0  0  0  0  0  0  0
  -28.7735   -7.5336   -4.4949 C   0  0  0  0  0  0  0  0  0  0  0  0
  -29.6561   -6.8308   -5.2814 C   0  0  0  0  0  0  0  0  0  0  0  0
  -29.0852   -5.5501   -5.4525 C   0  0  0  0  0  0  0  0  0  0  0  0
  -27.9383   -5.4440   -4.7745 N   0  0  0  0  0  0  0  0  0  0  0  0
  -27.7600   -6.6589   -4.2295 N   0  0  0  0  0  0  0  0  0  0  0  0
  -26.9165   -6.8227   -3.6904 H   0  0  0  0  0  0  0  0  0  0  0  0
  -27.1616   -2.7992   -9.8228 N   0  0  0  0  0  0  0  0  0  0  0  0
  -27.5252   -3.6738  -10.1782 H   0  0  0  0  0  0  0  0  0  0  0  0
  -27.1965   -1.7005  -10.7717 C   0  0  0  0  0  0  0  0  0  0  0  0
  -25.8920   -1.6323  -11.5432 C   0  0  0  0  0  0  0  0  0  0  0  0
  -25.9177   -1.5651  -12.9378 C   0  0  0  0  0  0  0  0  0  0  0  0
  -24.7163   -1.5513  -13.6360 C   0  0  0  0  0  0  0  0  0  0  0  0
  -23.5216   -1.6085  -12.9304 C   0  0  0  0  0  0  0  0  0  0  0  0
  -23.5809   -1.6704  -11.5489 C   0  0  0  0  0  0  0  0  0  0  0  0
  -24.7315   -1.6829  -10.8396 N   0  0  0  0  0  0  0  0  0  0  0  0
 10 11  1  0  0  0
 11 12  2  0  0  0
 11 15  1  0  0  0
 12 13  1  0  0  0
 13  8  1  0  0  0
 13 14  2  0  0  0
  8  1  1  0  0  0
  8  9  1  0  0  0
  1  2  1  0  0  0
  1  6  2  0  0  0
  2  3  2  0  0  0
  3 17  1  0  0  0
  3  4  1  0  0  0
 17 19  1  0  0  0
 17 18  1  0  0  0
 19 20  1  0  0  0
 20 21  1  0  0  0
 20 25  2  0  0  0
 21 22  2  0  0  0
 22 23  1  0  0  0
 23 24  2  0  0  0
 24 25  1  0  0  0
  4  5  2  0  0  0
  5  6  1  0  0  0
  6  7  1  0  0  0
 14 15  1  0  0  0
 15 16  1  0  0  0
M  END
> <minimizedAffinity>
-8.27461

$$$$
