CHEMBL415049


 46 49  0  0  0  0  0  0  0  0999 V2000
  -23.3190   11.2020  -17.3664 C   0  0  0  0  0  0  0  0  0  0  0  0
  -21.9431   11.1197  -17.2165 C   0  0  0  0  0  0  0  0  0  0  0  0
  -21.1227   11.4433  -18.2835 C   0  0  0  0  0  0  0  0  0  0  0  0
  -21.6775   11.8326  -19.5209 C   0  0  0  0  0  0  0  0  0  0  0  0
  -20.9107   12.1419  -20.6500 C   0  0  0  0  0  0  0  0  0  0  0  0
  -21.4811   12.5675  -21.7940 N   0  0  0  0  0  0  0  0  0  0  0  0
  -22.8147   12.6480  -21.8143 C   0  0  0  0  0  0  0  0  0  0  0  0
  -23.6397   12.3442  -20.8062 N   0  0  0  0  0  0  0  0  0  0  0  0
  -23.0647   11.9438  -19.6700 C   0  0  0  0  0  0  0  0  0  0  0  0
  -23.8722   11.6186  -18.5832 C   0  0  0  0  0  0  0  0  0  0  0  0
  -19.5009   12.0488  -20.5562 N   0  0  0  0  0  0  0  0  0  0  0  0
  -19.1469   12.6260  -19.8037 H   0  0  0  0  0  0  0  0  0  0  0  0
  -18.7103   10.9885  -20.7952 C   0  0  0  0  0  0  0  0  0  0  0  0
  -17.3998   10.8122  -20.3140 C   0  0  0  0  0  0  0  0  0  0  0  0
  -16.9272    9.6891  -20.9512 C   0  0  0  0  0  0  0  0  0  0  0  0
  -17.9986    9.1976  -21.6512 N   0  0  0  0  0  0  0  0  0  0  0  0
  -19.1003    9.9582  -21.5461 N   0  0  0  0  0  0  0  0  0  0  0  0
  -18.0202    8.3853  -22.2660 H   0  0  0  0  0  0  0  0  0  0  0  0
  -15.5483    9.1305  -20.9980 C   0  0  0  0  0  0  0  0  0  0  0  0
  -15.2579    8.1704  -19.8564 C   0  0  0  0  0  0  0  0  0  0  0  0
  -15.4401    8.4751  -18.6784 O   0  0  0  0  0  0  0  0  0  0  0  0
  -14.7289    6.9621  -20.2798 N   0  0  0  0  0  0  0  0  0  0  0  0
  -14.2359    6.9698  -21.1647 H   0  0  0  0  0  0  0  0  0  0  0  0
  -14.3823    5.9487  -19.3691 C   0  0  0  0  0  0  0  0  0  0  0  0
  -15.3392    4.9808  -19.0614 C   0  0  0  0  0  0  0  0  0  0  0  0
  -15.0144    3.9243  -18.2091 C   0  0  0  0  0  0  0  0  0  0  0  0
  -13.7532    3.8707  -17.6186 C   0  0  0  0  0  0  0  0  0  0  0  0
  -12.8209    4.8646  -17.8964 C   0  0  0  0  0  0  0  0  0  0  0  0
  -11.6212    4.8271  -17.3013 F   0  0  0  0  0  0  0  0  0  0  0  0
  -13.1156    5.8954  -18.7798 C   0  0  0  0  0  0  0  0  0  0  0  0
  -24.2277   10.9061  -16.3893 O   0  0  0  0  0  0  0  0  0  0  0  0
  -24.1544   11.7289  -15.2252 C   0  0  0  0  0  0  0  0  0  0  0  0
  -25.4393   11.5432  -14.4462 C   0  0  0  0  0  0  0  0  0  0  0  0
  -26.6143   11.3105  -15.3989 C   0  0  0  0  0  0  0  0  0  0  0  0
  -27.9030   11.0456  -14.7386 N   0  0  0  0  0  0  0  0  0  0  0  0
  -29.0863   10.2600  -16.8250 C   0  0  0  0  0  0  0  0  0  0  0  0
  -29.0647   11.2079  -15.6300 C   0  0  0  0  0  0  0  0  0  0  0  0
  -28.0303   11.8712  -13.5197 C   0  0  0  0  0  0  0  0  0  0  0  0
  -29.3913   12.5375  -13.3275 C   0  0  0  0  0  0  0  0  0  0  0  0
  -29.9199   12.1282  -12.0753 O   0  0  0  0  0  0  0  0  0  0  0  0
  -31.4976   11.8775  -12.0342 P   0  0  0  0  0  0  0  0  0  0  0  0
  -32.2569   12.5492  -10.9475 O   0  0  0  0  0  0  0  0  0  0  0  0
  -31.9405   12.2822  -13.5120 O   0  0  0  0  0  0  0  0  0  0  0  0
  -31.6394   10.2891  -12.0727 O   0  0  0  0  0  0  0  0  0  0  0  0
  -31.8183   13.2360  -13.6600 H   0  0  0  0  0  0  0  0  0  0  0  0
  -32.5733   10.0223  -12.0154 H   0  0  0  0  0  0  0  0  0  0  0  0
 36 37  1  0  0  0
 37 35  1  0  0  0
 35 34  1  0  0  0
 35 38  1  0  0  0
 34 33  1  0  0  0
 33 32  1  0  0  0
 32 31  1  0  0  0
 31  1  1  0  0  0
  1  2  1  0  0  0
  1 10  2  0  0  0
  2  3  2  0  0  0
  3  4  1  0  0  0
  4  5  1  0  0  0
  4  9  2  0  0  0
  5 11  1  0  0  0
  5  6  2  0  0  0
 11 13  1  0  0  0
 11 12  1  0  0  0
 13 14  1  0  0  0
 13 17  2  0  0  0
 14 15  2  0  0  0
 15 19  1  0  0  0
 15 16  1  0  0  0
 19 20  1  0  0  0
 20 21  2  0  0  0
 20 22  1  0  0  0
 22 24  1  0  0  0
 22 23  1  0  0  0
 24 25  1  0  0  0
 24 30  2  0  0  0
 25 26  2  0  0  0
 26 27  1  0  0  0
 27 28  2  0  0  0
 28 29  1  0  0  0
 28 30  1  0  0  0
 16 17  1  0  0  0
 16 18  1  0  0  0
  6  7  1  0  0  0
  7  8  2  0  0  0
  8  9  1  0  0  0
  9 10  1  0  0  0
 38 39  1  0  0  0
 39 40  1  0  0  0
 40 41  1  0  0  0
 41 42  2  0  0  0
 41 43  1  0  0  0
 41 44  1  0  0  0
 43 45  1  0  0  0
 44 46  1  0  0  0
M  END
> <minimizedAffinity>
-6.05253

$$$$
