CHEMBL3932756


 36 40  0  0  0  0  0  0  0  0999 V2000
  -28.0439   -2.0802   -8.5832 N   0  0  0  0  0  0  0  0  0  0  0  0
  -27.5075   -1.5289   -9.8158 C   0  0  0  0  0  0  0  0  0  0  0  0
  -28.2260   -1.8743  -10.9610 C   0  0  0  0  0  0  0  0  0  0  0  0
  -27.6070   -1.9286  -12.1945 C   0  0  0  0  0  0  0  0  0  0  0  0
  -26.3193   -1.4994  -12.3658 C   0  0  0  0  0  0  0  0  0  0  0  0
  -25.8110   -1.7674  -13.5785 N   0  0  0  0  0  0  0  0  0  0  0  0
  -24.6090   -1.2480  -13.8529 C   0  0  0  0  0  0  0  0  0  0  0  0
  -23.9524   -0.4078  -12.9667 C   0  0  0  0  0  0  0  0  0  0  0  0
  -24.4194   -0.2256  -11.6962 N   0  0  0  0  0  0  0  0  0  0  0  0
  -25.6227   -0.8267  -11.3321 C   0  0  0  0  0  0  0  0  0  0  0  0
  -26.2426   -0.9067  -10.0210 C   0  0  0  0  0  0  0  0  0  0  0  0
  -22.8342    0.3397  -13.5277 C   0  0  0  0  0  0  0  0  0  0  0  0
  -22.7059    1.7345  -13.7645 C   0  0  0  0  0  0  0  0  0  0  0  0
  -21.6274    2.0428  -14.4962 N   0  0  0  0  0  0  0  0  0  0  0  0
  -21.0640    0.8465  -14.7340 N   0  0  0  0  0  0  0  0  0  0  0  0
  -19.6965    0.7576  -15.1900 C   0  0  0  0  0  0  0  0  0  0  0  0
  -21.8539   -0.2013  -14.3450 C   0  0  0  0  0  0  0  0  0  0  0  0
  -28.8625    0.3557   -5.8520 C   0  0  0  0  0  0  0  0  0  0  0  0
  -28.5338   -0.3863   -4.7114 C   0  0  0  0  0  0  0  0  0  0  0  0
  -27.9876   -1.6593   -4.8554 C   0  0  0  0  0  0  0  0  0  0  0  0
  -27.7703   -2.1900   -6.1328 C   0  0  0  0  0  0  0  0  0  0  0  0
  -28.0816   -1.4821   -7.2985 C   0  0  0  0  0  0  0  0  0  0  0  0
  -28.6119   -0.1859   -7.1317 C   0  0  0  0  0  0  0  0  0  0  0  0
  -30.8316    1.6741   -6.2174 C   0  0  0  0  0  0  0  0  0  0  0  0
  -29.4599    1.5937   -5.8238 O   0  0  0  0  0  0  0  0  0  0  0  0
  -27.6537   -2.5103   -3.8359 O   0  0  0  0  0  0  0  0  0  0  0  0
  -28.7070   -2.9715   -3.0019 C   0  0  0  0  0  0  0  0  0  0  0  0
  -27.7829   -3.5789   -8.6117 C   0  0  0  0  0  0  0  0  0  0  0  0
  -28.9404   -4.5428   -8.1976 C   0  0  0  0  0  0  0  0  0  0  0  0
  -28.4929   -5.7012   -7.3644 N   0  0  0  0  0  0  0  0  0  0  0  0
  -29.0004   -7.0308   -7.7650 C   0  0  0  0  0  0  0  0  0  0  0  0
  -28.0460   -7.7533   -8.7201 C   0  0  0  0  0  0  0  0  0  0  0  0
  -29.1101   -7.8551   -6.4701 C   0  0  0  0  0  0  0  0  0  0  0  0
  -28.4925   -6.9820   -5.3964 C   0  0  0  0  0  0  0  0  0  0  0  0
  -28.7176   -5.5605   -5.9088 C   0  0  0  0  0  0  0  0  0  0  0  0
  -30.0951   -5.0544   -5.4680 C   0  0  0  0  0  0  0  0  0  0  0  0
 24 25  1  0  0  0
 25 18  1  0  0  0
 18 19  1  0  0  0
 18 23  2  0  0  0
 19 20  2  0  0  0
 20 26  1  0  0  0
 20 21  1  0  0  0
 26 27  1  0  0  0
 21 22  2  0  0  0
 22  1  1  0  0  0
 22 23  1  0  0  0
  1 28  1  0  0  0
  1  2  1  0  0  0
 28 29  1  0  0  0
 29 30  1  0  0  0
 30 31  1  0  0  0
 30 35  1  0  0  0
 31 32  1  0  0  0
 31 33  1  0  0  0
 33 34  1  0  0  0
 34 35  1  0  0  0
 35 36  1  0  0  0
  2  3  1  0  0  0
  2 11  2  0  0  0
  3  4  2  0  0  0
  4  5  1  0  0  0
  5  6  1  0  0  0
  5 10  2  0  0  0
  6  7  2  0  0  0
  7  8  1  0  0  0
  8 12  1  0  0  0
  8  9  2  0  0  0
 12 13  1  0  0  0
 12 17  2  0  0  0
 13 14  2  0  0  0
 14 15  1  0  0  0
 15 16  1  0  0  0
 15 17  1  0  0  0
  9 10  1  0  0  0
 10 11  1  0  0  0
M  END
> <minimizedAffinity>
-8.67301

$$$$
