CHEMBL3986456


 38 41  0  0  0  0  0  0  0  0999 V2000
  -15.8187   -2.8097  -13.6184 C   0  0  0  0  0  0  0  0  0  0  0  0
  -14.5518   -2.0037  -13.5239 C   0  0  0  0  0  0  0  0  0  0  0  0
  -13.5367   -2.5160  -12.6853 C   0  0  0  0  0  0  0  0  0  0  0  0
  -12.2797   -1.9149  -12.6004 C   0  0  0  0  0  0  0  0  0  0  0  0
  -12.0391   -0.7586  -13.3235 C   0  0  0  0  0  0  0  0  0  0  0  0
  -13.0464   -0.2190  -14.1304 C   0  0  0  0  0  0  0  0  0  0  0  0
  -14.3192   -0.8059  -14.2329 C   0  0  0  0  0  0  0  0  0  0  0  0
  -15.3582   -0.2011  -15.0012 N   0  0  0  0  0  0  0  0  0  0  0  0
  -16.4744    0.4456  -14.4816 C   0  0  0  0  0  0  0  0  0  0  0  0
  -16.6887    0.6449  -13.2898 O   0  0  0  0  0  0  0  0  0  0  0  0
  -17.4017    0.7937  -15.4595 N   0  0  0  0  0  0  0  0  0  0  0  0
  -15.3060   -0.2999  -16.0030 H   0  0  0  0  0  0  0  0  0  0  0  0
  -17.4460    0.1560  -16.2404 H   0  0  0  0  0  0  0  0  0  0  0  0
  -18.6277    1.4118  -15.0897 C   0  0  0  0  0  0  0  0  0  0  0  0
  -18.7211    2.8041  -15.1409 C   0  0  0  0  0  0  0  0  0  0  0  0
  -19.9465    3.4293  -14.8953 C   0  0  0  0  0  0  0  0  0  0  0  0
  -21.0604    2.6698  -14.5445 C   0  0  0  0  0  0  0  0  0  0  0  0
  -22.2250    3.2996  -14.3373 F   0  0  0  0  0  0  0  0  0  0  0  0
  -20.9805    1.2844  -14.4182 C   0  0  0  0  0  0  0  0  0  0  0  0
  -19.7534    0.6598  -14.7116 C   0  0  0  0  0  0  0  0  0  0  0  0
  -22.1847    0.4905  -13.9802 C   0  0  0  0  0  0  0  0  0  0  0  0
  -22.3453    0.4564  -12.4680 C   0  0  0  0  0  0  0  0  0  0  0  0
  -23.3460    0.9952  -14.4996 F   0  0  0  0  0  0  0  0  0  0  0  0
  -22.1483   -0.8032  -14.4200 F   0  0  0  0  0  0  0  0  0  0  0  0
  -11.2701   -2.3691  -11.7806 O   0  0  0  0  0  0  0  0  0  0  0  0
  -11.5919   -3.3188  -10.8157 C   0  0  0  0  0  0  0  0  0  0  0  0
  -11.6445   -4.6342  -11.2267 C   0  0  0  0  0  0  0  0  0  0  0  0
  -11.9693   -5.5518  -10.2542 C   0  0  0  0  0  0  0  0  0  0  0  0
  -12.1928   -5.1875   -8.9856 N   0  0  0  0  0  0  0  0  0  0  0  0
  -12.1337   -3.8884   -8.6946 C   0  0  0  0  0  0  0  0  0  0  0  0
  -11.8606   -2.9172   -9.5616 N   0  0  0  0  0  0  0  0  0  0  0  0
  -12.0630   -6.9113  -10.6075 N   0  0  0  0  0  0  0  0  0  0  0  0
  -12.9998   -7.4075  -11.4877 C   0  0  0  0  0  0  0  0  0  0  0  0
  -13.8635   -6.7878  -12.0941 O   0  0  0  0  0  0  0  0  0  0  0  0
  -11.3989   -7.5503  -10.2026 H   0  0  0  0  0  0  0  0  0  0  0  0
  -12.9188   -8.8918  -11.6778 C   0  0  0  0  0  0  0  0  0  0  0  0
  -11.5966   -9.5514  -12.0058 C   0  0  0  0  0  0  0  0  0  0  0  0
  -12.6518   -9.4290  -13.0646 C   0  0  0  0  0  0  0  0  0  0  0  0
  1  2  1  0  0  0
  2  3  1  0  0  0
  2  7  2  0  0  0
  3  4  2  0  0  0
  4 25  1  0  0  0
  4  5  1  0  0  0
 25 26  1  0  0  0
 26 27  1  0  0  0
 26 31  2  0  0  0
 27 28  2  0  0  0
 28 32  1  0  0  0
 28 29  1  0  0  0
 32 33  1  0  0  0
 32 35  1  0  0  0
 33 34  2  0  0  0
 33 36  1  0  0  0
 36 37  1  0  0  0
 36 38  1  0  0  0
 37 38  1  0  0  0
 29 30  2  0  0  0
 30 31  1  0  0  0
  5  6  2  0  0  0
  6  7  1  0  0  0
  7  8  1  0  0  0
  8  9  1  0  0  0
  8 12  1  0  0  0
  9 10  2  0  0  0
  9 11  1  0  0  0
 11 14  1  0  0  0
 11 13  1  0  0  0
 14 15  1  0  0  0
 14 20  2  0  0  0
 15 16  2  0  0  0
 16 17  1  0  0  0
 17 18  1  0  0  0
 17 19  2  0  0  0
 19 21  1  0  0  0
 19 20  1  0  0  0
 21 22  1  0  0  0
 21 23  1  0  0  0
 21 24  1  0  0  0
M  END
> <minimizedAffinity>
-9.86130

$$$$
