CHEMBL3690429


 40 44  0  0  0  0  0  0  0  0999 V2000
  -25.1848   11.1327  -15.5291 C   0  0  0  0  0  0  0  0  0  0  0  0
  -24.3416   11.1640  -14.4275 C   0  0  0  0  0  0  0  0  0  0  0  0
  -23.0253   11.2690  -14.7832 N   0  0  0  0  0  0  0  0  0  0  0  0
  -23.0315   11.3334  -16.0949 C   0  0  0  0  0  0  0  0  0  0  0  0
  -21.9525   11.4345  -17.0182 C   0  0  0  0  0  0  0  0  0  0  0  0
  -22.1946   11.5177  -18.3458 C   0  0  0  0  0  0  0  0  0  0  0  0
  -23.5680   11.5220  -18.8451 C   0  0  0  0  0  0  0  0  0  0  0  0
  -24.5878   11.4394  -17.9770 C   0  0  0  0  0  0  0  0  0  0  0  0
  -24.3274   11.3092  -16.6094 N   0  0  0  0  0  0  0  0  0  0  0  0
  -28.8928   11.4704  -14.7753 C   0  0  0  0  0  0  0  0  0  0  0  0
  -29.4281   10.6280  -15.7475 C   0  0  0  0  0  0  0  0  0  0  0  0
  -28.5871    9.9434  -16.6259 C   0  0  0  0  0  0  0  0  0  0  0  0
  -27.2022   10.0920  -16.5353 C   0  0  0  0  0  0  0  0  0  0  0  0
  -26.6388   10.9428  -15.5781 C   0  0  0  0  0  0  0  0  0  0  0  0
  -27.5025   11.6418  -14.7201 C   0  0  0  0  0  0  0  0  0  0  0  0
  -29.8706   10.5782  -12.1129 O   0  0  0  0  0  0  0  0  0  0  0  0
  -30.0724   11.6892  -12.5867 C   0  0  0  0  0  0  0  0  0  0  0  0
  -30.7606   12.6584  -11.8847 N   0  0  0  0  0  0  0  0  0  0  0  0
  -29.6603   12.1562  -13.8125 N   0  0  0  0  0  0  0  0  0  0  0  0
  -31.2560   13.3368  -12.4448 H   0  0  0  0  0  0  0  0  0  0  0  0
  -29.8925   13.1146  -14.0207 H   0  0  0  0  0  0  0  0  0  0  0  0
  -31.4069   12.2769  -10.6240 C   0  0  0  0  0  0  0  0  0  0  0  0
  -32.8378   11.7419  -10.7711 C   0  0  0  0  0  0  0  0  0  0  0  0
  -33.5600   11.9205   -9.6394 F   0  0  0  0  0  0  0  0  0  0  0  0
  -33.5026   12.3189  -11.7911 F   0  0  0  0  0  0  0  0  0  0  0  0
  -32.8092   10.4062  -11.0054 F   0  0  0  0  0  0  0  0  0  0  0  0
  -21.0448   11.6349  -19.2470 C   0  0  0  0  0  0  0  0  0  0  0  0
  -19.7485   11.5125  -18.7849 C   0  0  0  0  0  0  0  0  0  0  0  0
  -18.7161   11.6196  -19.7081 C   0  0  0  0  0  0  0  0  0  0  0  0
  -19.0061   11.8124  -21.0544 C   0  0  0  0  0  0  0  0  0  0  0  0
  -20.2868   11.8963  -21.4626 N   0  0  0  0  0  0  0  0  0  0  0  0
  -21.3166   11.8210  -20.5549 N   0  0  0  0  0  0  0  0  0  0  0  0
  -17.9410   11.8224  -21.9430 N   0  0  0  0  0  0  0  0  0  0  0  0
  -18.0987   12.4207  -22.7470 H   0  0  0  0  0  0  0  0  0  0  0  0
  -17.1752   10.6066  -22.2040 C   0  0  0  0  0  0  0  0  0  0  0  0
  -18.1402    9.4494  -21.9193 C   0  0  0  0  0  0  0  0  0  0  0  0
  -17.4279    8.1189  -21.8052 C   0  0  0  0  0  0  0  0  0  0  0  0
  -16.3716    8.2042  -20.8538 O   0  0  0  0  0  0  0  0  0  0  0  0
  -15.3634    9.1228  -21.2703 C   0  0  0  0  0  0  0  0  0  0  0  0
  -15.9190   10.5397  -21.3316 C   0  0  0  0  0  0  0  0  0  0  0  0
 16 17  2  0  0  0
 17 18  1  0  0  0
 17 19  1  0  0  0
 18 22  1  0  0  0
 18 20  1  0  0  0
 22 23  1  0  0  0
 23 24  1  0  0  0
 23 25  1  0  0  0
 23 26  1  0  0  0
 19 10  1  0  0  0
 19 21  1  0  0  0
 10 11  1  0  0  0
 10 15  2  0  0  0
 11 12  2  0  0  0
 12 13  1  0  0  0
 13 14  2  0  0  0
 14  1  1  0  0  0
 14 15  1  0  0  0
  1  2  2  0  0  0
  1  9  1  0  0  0
  2  3  1  0  0  0
  3  4  2  0  0  0
  4  5  1  0  0  0
  4  9  1  0  0  0
  5  6  2  0  0  0
  6 27  1  0  0  0
  6  7  1  0  0  0
 27 28  1  0  0  0
 27 32  2  0  0  0
 28 29  2  0  0  0
 29 30  1  0  0  0
 30 33  1  0  0  0
 30 31  2  0  0  0
 33 35  1  0  0  0
 33 34  1  0  0  0
 35 36  1  0  0  0
 35 40  1  0  0  0
 36 37  1  0  0  0
 37 38  1  0  0  0
 38 39  1  0  0  0
 39 40  1  0  0  0
 31 32  1  0  0  0
  7  8  2  0  0  0
  8  9  1  0  0  0
M  END
> <minimizedAffinity>
-6.82030

$$$$
