CHEMBL4225576


 46 49  0  0  0  0  0  0  0  0999 V2000
  -25.6795   -1.1114  -12.6773 C   0  0  0  0  0  0  0  0  0  0  0  0
  -25.0942   -1.4532  -13.9015 C   0  0  0  0  0  0  0  0  0  0  0  0
  -23.8503   -0.9274  -14.2568 C   0  0  0  0  0  0  0  0  0  0  0  0
  -23.1749   -0.0740  -13.3843 C   0  0  0  0  0  0  0  0  0  0  0  0
  -23.7560    0.2619  -12.1560 C   0  0  0  0  0  0  0  0  0  0  0  0
  -25.0181   -0.2294  -11.8163 C   0  0  0  0  0  0  0  0  0  0  0  0
  -27.0092   -1.6348  -12.2770 C   0  0  0  0  0  0  0  0  0  0  0  0
  -27.6371   -2.3727  -13.0273 O   0  0  0  0  0  0  0  0  0  0  0  0
  -27.2109   -1.9165   -9.8658 C   0  0  0  0  0  0  0  0  0  0  0  0
  -27.5408   -1.2086  -10.9533 C   0  0  0  0  0  0  0  0  0  0  0  0
  -27.5759   -1.6512   -8.5720 N   0  0  0  0  0  0  0  0  0  0  0  0
  -27.2580   -0.7694   -8.1869 H   0  0  0  0  0  0  0  0  0  0  0  0
  -29.8609   -4.1510   -6.0247 C   0  0  0  0  0  0  0  0  0  0  0  0
  -29.3176   -2.9663   -5.5249 C   0  0  0  0  0  0  0  0  0  0  0  0
  -28.5737   -2.1238   -6.3588 C   0  0  0  0  0  0  0  0  0  0  0  0
  -28.3479   -2.4429   -7.7054 C   0  0  0  0  0  0  0  0  0  0  0  0
  -28.9207   -3.6255   -8.2009 C   0  0  0  0  0  0  0  0  0  0  0  0
  -29.6708   -4.4723   -7.3736 C   0  0  0  0  0  0  0  0  0  0  0  0
  -30.5324   -5.0728   -5.0712 C   0  0  0  0  0  0  0  0  0  0  0  0
  -31.1262   -4.7018   -4.0717 O   0  0  0  0  0  0  0  0  0  0  0  0
  -30.2626   -6.3554   -5.4148 O   0  0  0  0  0  0  0  0  0  0  0  0
  -28.4262   -7.8637   -5.6069 C   0  0  0  0  0  0  0  0  0  0  0  0
  -29.2253   -6.9890   -4.6564 C   0  0  0  0  0  0  0  0  0  0  0  0
  -21.8607    0.3506  -13.6295 N   0  0  0  0  0  0  0  0  0  0  0  0
  -21.1258   -0.2055  -13.2058 H   0  0  0  0  0  0  0  0  0  0  0  0
  -21.4007    1.4106  -14.3825 C   0  0  0  0  0  0  0  0  0  0  0  0
  -21.7823    3.0185  -14.1500 S   0  0  0  0  0  0  0  0  0  0  0  0
  -20.4177    1.0625  -15.2867 N   0  0  0  0  0  0  0  0  0  0  0  0
  -20.6624    0.3539  -15.9693 H   0  0  0  0  0  0  0  0  0  0  0  0
  -19.0905    1.5393  -15.2586 C   0  0  0  0  0  0  0  0  0  0  0  0
  -18.7717    2.8146  -15.7458 C   0  0  0  0  0  0  0  0  0  0  0  0
  -17.4481    3.2321  -15.8410 C   0  0  0  0  0  0  0  0  0  0  0  0
  -16.4355    2.3742  -15.4177 C   0  0  0  0  0  0  0  0  0  0  0  0
  -16.7457    1.1302  -14.8522 C   0  0  0  0  0  0  0  0  0  0  0  0
  -18.0821    0.7264  -14.7441 C   0  0  0  0  0  0  0  0  0  0  0  0
  -14.7413    2.8203  -15.7411 S   0  0  0  0  0  0  0  0  0  0  0  0
  -14.5755    4.2159  -15.3967 O   0  0  0  0  0  0  0  0  0  0  0  0
  -13.9169    1.8003  -15.1210 O   0  0  0  0  0  0  0  0  0  0  0  0
  -14.5727    2.6180  -17.4033 N   0  0  0  0  0  0  0  0  0  0  0  0
  -15.3962    2.1647  -17.7879 H   0  0  0  0  0  0  0  0  0  0  0  0
  -14.2791    3.7858  -18.1296 C   0  0  0  0  0  0  0  0  0  0  0  0
  -15.2654    4.5942  -18.6653 C   0  0  0  0  0  0  0  0  0  0  0  0
  -14.8619    5.7327  -19.3545 C   0  0  0  0  0  0  0  0  0  0  0  0
  -13.5023    5.9925  -19.5010 C   0  0  0  0  0  0  0  0  0  0  0  0
  -12.5984    5.0991  -18.9463 C   0  0  0  0  0  0  0  0  0  0  0  0
  -12.9589    3.9973  -18.2534 N   0  0  0  0  0  0  0  0  0  0  0  0
 22 23  1  0  0  0
 23 21  1  0  0  0
 21 19  1  0  0  0
 19 20  2  0  0  0
 19 13  1  0  0  0
 13 14  1  0  0  0
 13 18  2  0  0  0
 14 15  2  0  0  0
 15 16  1  0  0  0
 16 11  1  0  0  0
 16 17  2  0  0  0
 11  9  1  0  0  0
 11 12  1  0  0  0
  9 10  2  0  0  0
 10  7  1  0  0  0
  7  8  2  0  0  0
  7  1  1  0  0  0
  1  2  1  0  0  0
  1  6  2  0  0  0
  2  3  2  0  0  0
  3  4  1  0  0  0
  4 24  1  0  0  0
  4  5  2  0  0  0
 24 26  1  0  0  0
 24 25  1  0  0  0
 26 27  2  0  0  0
 26 28  1  0  0  0
 28 30  1  0  0  0
 28 29  1  0  0  0
 30 31  1  0  0  0
 30 35  2  0  0  0
 31 32  2  0  0  0
 32 33  1  0  0  0
 33 36  1  0  0  0
 33 34  2  0  0  0
 36 37  2  0  0  0
 36 38  2  0  0  0
 36 39  1  0  0  0
 39 41  1  0  0  0
 39 40  1  0  0  0
 41 42  1  0  0  0
 41 46  2  0  0  0
 42 43  2  0  0  0
 43 44  1  0  0  0
 44 45  2  0  0  0
 45 46  1  0  0  0
 34 35  1  0  0  0
  5  6  1  0  0  0
 17 18  1  0  0  0
M  END
> <minimizedAffinity>
-10.04773

$$$$
