CHEMBL4164127


 40 44  0  0  0  0  0  0  0  0999 V2000
  -16.2423    0.8369  -13.8543 O   0  0  0  0  0  0  0  0  0  0  0  0
  -16.2330    1.4515  -14.9300 C   0  0  0  0  0  0  0  0  0  0  0  0
  -17.3988    1.7250  -15.6416 N   0  0  0  0  0  0  0  0  0  0  0  0
  -17.3094    2.1436  -16.5664 H   0  0  0  0  0  0  0  0  0  0  0  0
  -18.7131    1.4017  -15.2278 C   0  0  0  0  0  0  0  0  0  0  0  0
  -19.3290    0.1834  -15.5055 C   0  0  0  0  0  0  0  0  0  0  0  0
  -20.6301   -0.0873  -15.0609 C   0  0  0  0  0  0  0  0  0  0  0  0
  -21.3728    0.8503  -14.3208 C   0  0  0  0  0  0  0  0  0  0  0  0
  -20.7369    2.0834  -14.0576 C   0  0  0  0  0  0  0  0  0  0  0  0
  -19.4219    2.3427  -14.4773 C   0  0  0  0  0  0  0  0  0  0  0  0
  -22.6904    0.4985  -13.7455 C   0  0  0  0  0  0  0  0  0  0  0  0
  -23.0674    1.0033  -12.4820 C   0  0  0  0  0  0  0  0  0  0  0  0
  -24.1453    0.4692  -11.7794 C   0  0  0  0  0  0  0  0  0  0  0  0
  -24.9125   -0.5150  -12.3871 C   0  0  0  0  0  0  0  0  0  0  0  0
  -25.9611   -1.2621  -11.6566 C   0  0  0  0  0  0  0  0  0  0  0  0
  -25.7980   -1.4955  -10.4671 O   0  0  0  0  0  0  0  0  0  0  0  0
  -27.0536   -1.7013  -12.3834 N   0  0  0  0  0  0  0  0  0  0  0  0
  -26.8266   -1.9177  -13.6347 C   0  0  0  0  0  0  0  0  0  0  0  0
  -25.6418   -1.7515  -14.3105 N   0  0  0  0  0  0  0  0  0  0  0  0
  -24.7140   -0.8767  -13.7241 C   0  0  0  0  0  0  0  0  0  0  0  0
  -23.5643   -0.4214  -14.3728 C   0  0  0  0  0  0  0  0  0  0  0  0
  -25.6514   -1.7905  -15.3214 H   0  0  0  0  0  0  0  0  0  0  0  0
  -14.8653    1.9344  -15.5545 C   0  0  0  0  0  0  0  0  0  0  0  0
  -14.1395    0.8460  -16.4359 C   0  0  0  0  0  0  0  0  0  0  0  0
  -12.8280    1.1780  -15.7188 C   0  0  0  0  0  0  0  0  0  0  0  0
  -13.6457    1.7887  -14.5738 C   0  0  0  0  0  0  0  0  0  0  0  0
  -15.0373    3.3714  -16.1516 C   0  0  0  0  0  0  0  0  0  0  0  0
  -15.8403    4.1820  -15.6720 O   0  0  0  0  0  0  0  0  0  0  0  0
  -14.3130    3.6383  -17.3061 N   0  0  0  0  0  0  0  0  0  0  0  0
  -13.9975    2.8427  -17.8479 H   0  0  0  0  0  0  0  0  0  0  0  0
  -14.3250    4.8840  -17.9642 C   0  0  0  0  0  0  0  0  0  0  0  0
  -15.1886    5.0427  -19.0486 C   0  0  0  0  0  0  0  0  0  0  0  0
  -15.2733    6.2716  -19.7027 C   0  0  0  0  0  0  0  0  0  0  0  0
  -14.4465    7.3276  -19.3192 C   0  0  0  0  0  0  0  0  0  0  0  0
  -13.5309    7.1683  -18.2684 C   0  0  0  0  0  0  0  0  0  0  0  0
  -13.4927    5.9415  -17.5809 C   0  0  0  0  0  0  0  0  0  0  0  0
  -12.5862    8.2818  -17.8852 C   0  0  0  0  0  0  0  0  0  0  0  0
  -11.2788    7.8957  -17.8496 F   0  0  0  0  0  0  0  0  0  0  0  0
  -12.6376    9.3380  -18.7414 F   0  0  0  0  0  0  0  0  0  0  0  0
  -12.8537    8.7868  -16.6482 F   0  0  0  0  0  0  0  0  0  0  0  0
  1  2  2  0  0  0
  2  3  1  0  0  0
  2 23  1  0  0  0
  3  5  1  0  0  0
  3  4  1  0  0  0
  5  6  1  0  0  0
  5 10  2  0  0  0
  6  7  2  0  0  0
  7  8  1  0  0  0
  8 11  1  0  0  0
  8  9  2  0  0  0
 11 12  1  0  0  0
 11 21  2  0  0  0
 12 13  2  0  0  0
 13 14  1  0  0  0
 14 15  1  0  0  0
 14 20  2  0  0  0
 15 16  2  0  0  0
 15 17  1  0  0  0
 17 18  2  0  0  0
 18 19  1  0  0  0
 19 20  1  0  0  0
 19 22  1  0  0  0
 20 21  1  0  0  0
  9 10  1  0  0  0
 23 27  1  0  0  0
 23 24  1  0  0  0
 23 26  1  0  0  0
 27 28  2  0  0  0
 27 29  1  0  0  0
 29 31  1  0  0  0
 29 30  1  0  0  0
 31 32  1  0  0  0
 31 36  2  0  0  0
 32 33  2  0  0  0
 33 34  1  0  0  0
 34 35  2  0  0  0
 35 37  1  0  0  0
 35 36  1  0  0  0
 37 38  1  0  0  0
 37 39  1  0  0  0
 37 40  1  0  0  0
 24 25  1  0  0  0
 25 26  1  0  0  0
M  END
> <minimizedAffinity>
-9.84070

$$$$
