CHEMBL3975035


 44 48  0  0  0  0  0  0  0  0999 V2000
  -19.7904    0.7030  -15.3305 N   0  0  0  0  0  0  0  0  0  0  0  0
  -18.5390    1.1291  -14.9007 C   0  0  0  0  0  0  0  0  0  0  0  0
  -18.2742    1.5564  -13.7821 O   0  0  0  0  0  0  0  0  0  0  0  0
  -17.5954    1.0885  -15.9221 N   0  0  0  0  0  0  0  0  0  0  0  0
  -19.8669    0.3951  -16.2869 H   0  0  0  0  0  0  0  0  0  0  0  0
  -17.9676    1.3028  -16.8350 H   0  0  0  0  0  0  0  0  0  0  0  0
  -21.2415    3.2659  -14.9174 C   0  0  0  0  0  0  0  0  0  0  0  0
  -21.6535    1.9477  -14.3211 C   0  0  0  0  0  0  0  0  0  0  0  0
  -22.7913    1.9529  -13.4886 C   0  0  0  0  0  0  0  0  0  0  0  0
  -23.3113    0.7759  -12.9630 C   0  0  0  0  0  0  0  0  0  0  0  0
  -22.6745   -0.4277  -13.2147 C   0  0  0  0  0  0  0  0  0  0  0  0
  -21.5248   -0.4443  -14.0082 C   0  0  0  0  0  0  0  0  0  0  0  0
  -20.9860    0.7282  -14.5610 C   0  0  0  0  0  0  0  0  0  0  0  0
  -24.4161    0.7325  -12.1375 O   0  0  0  0  0  0  0  0  0  0  0  0
  -25.2757   -0.3554  -12.2664 C   0  0  0  0  0  0  0  0  0  0  0  0
  -25.6332   -1.0045  -11.1032 C   0  0  0  0  0  0  0  0  0  0  0  0
  -26.4859   -2.0770  -11.2582 C   0  0  0  0  0  0  0  0  0  0  0  0
  -26.9564   -2.4416  -12.4557 N   0  0  0  0  0  0  0  0  0  0  0  0
  -26.5346   -1.7570  -13.5182 C   0  0  0  0  0  0  0  0  0  0  0  0
  -25.6884   -0.7312  -13.4881 N   0  0  0  0  0  0  0  0  0  0  0  0
  -26.8611   -2.8067  -10.1169 N   0  0  0  0  0  0  0  0  0  0  0  0
  -27.6833   -2.3086   -9.1262 C   0  0  0  0  0  0  0  0  0  0  0  0
  -28.1948   -1.2017   -9.0659 O   0  0  0  0  0  0  0  0  0  0  0  0
  -26.5323   -3.7579  -10.0374 H   0  0  0  0  0  0  0  0  0  0  0  0
  -27.9237   -3.2767   -8.0121 C   0  0  0  0  0  0  0  0  0  0  0  0
  -29.2649   -3.9665   -7.8811 C   0  0  0  0  0  0  0  0  0  0  0  0
  -28.8810   -2.8912   -6.9084 C   0  0  0  0  0  0  0  0  0  0  0  0
  -16.2615    1.5079  -15.6870 C   0  0  0  0  0  0  0  0  0  0  0  0
  -15.3905    0.6305  -15.0390 C   0  0  0  0  0  0  0  0  0  0  0  0
  -14.0314    0.9503  -14.8599 C   0  0  0  0  0  0  0  0  0  0  0  0
  -13.5860    2.2219  -15.2539 C   0  0  0  0  0  0  0  0  0  0  0  0
  -14.4625    3.1391  -15.8647 C   0  0  0  0  0  0  0  0  0  0  0  0
  -15.7945    2.7578  -16.1013 C   0  0  0  0  0  0  0  0  0  0  0  0
  -13.1126   -0.1150  -14.2805 C   0  0  0  0  0  0  0  0  0  0  0  0
  -13.8811   -1.2026  -13.5192 C   0  0  0  0  0  0  0  0  0  0  0  0
  -12.9470   -2.2680  -12.9195 C   0  0  0  0  0  0  0  0  0  0  0  0
  -11.7723   -1.7194  -12.2244 N   0  0  0  0  0  0  0  0  0  0  0  0
  -10.8736   -2.7961  -11.8008 C   0  0  0  0  0  0  0  0  0  0  0  0
  -11.0481   -0.7427  -13.0434 C   0  0  0  0  0  0  0  0  0  0  0  0
  -11.9787    0.4158  -13.3954 C   0  0  0  0  0  0  0  0  0  0  0  0
  -14.0038    4.5224  -16.2639 C   0  0  0  0  0  0  0  0  0  0  0  0
  -12.8787    4.5234  -17.0346 F   0  0  0  0  0  0  0  0  0  0  0  0
  -14.9385    5.2122  -16.9737 F   0  0  0  0  0  0  0  0  0  0  0  0
  -13.7068    5.3001  -15.1839 F   0  0  0  0  0  0  0  0  0  0  0  0
  7  8  1  0  0  0
  8  9  1  0  0  0
  8 13  2  0  0  0
  9 10  2  0  0  0
 10 14  1  0  0  0
 10 11  1  0  0  0
 14 15  1  0  0  0
 15 16  1  0  0  0
 15 20  2  0  0  0
 16 17  2  0  0  0
 17 21  1  0  0  0
 17 18  1  0  0  0
 21 22  1  0  0  0
 21 24  1  0  0  0
 22 23  2  0  0  0
 22 25  1  0  0  0
 25 26  1  0  0  0
 25 27  1  0  0  0
 26 27  1  0  0  0
 18 19  2  0  0  0
 19 20  1  0  0  0
 11 12  2  0  0  0
 12 13  1  0  0  0
 13  1  1  0  0  0
  1  2  1  0  0  0
  1  5  1  0  0  0
  2  3  2  0  0  0
  2  4  1  0  0  0
  4 28  1  0  0  0
  4  6  1  0  0  0
 28 29  1  0  0  0
 28 33  2  0  0  0
 29 30  2  0  0  0
 30 34  1  0  0  0
 30 31  1  0  0  0
 34 35  1  0  0  0
 34 40  1  0  0  0
 35 36  1  0  0  0
 36 37  1  0  0  0
 37 38  1  0  0  0
 37 39  1  0  0  0
 39 40  1  0  0  0
 31 32  2  0  0  0
 32 41  1  0  0  0
 32 33  1  0  0  0
 41 42  1  0  0  0
 41 43  1  0  0  0
 41 44  1  0  0  0
M  END
> <minimizedAffinity>
-9.72109

$$$$
