CHEMBL381562


 24 27  0  0  0  0  0  0  0  0999 V2000
  -28.8288   -5.3162   -6.9446 C   0  0  0  0  0  0  0  0  0  0  0  0
  -28.6112   -5.0363   -5.6498 C   0  0  0  0  0  0  0  0  0  0  0  0
  -28.4248   -5.9482   -4.4937 C   0  0  0  0  0  0  0  0  0  0  0  0
  -28.2533   -7.1483   -4.4537 O   0  0  0  0  0  0  0  0  0  0  0  0
  -28.4419   -5.0922   -3.4075 N   0  0  0  0  0  0  0  0  0  0  0  0
  -28.4511   -3.7580   -3.7178 N   0  0  0  0  0  0  0  0  0  0  0  0
  -28.5202   -3.6765   -5.0303 C   0  0  0  0  0  0  0  0  0  0  0  0
  -28.2950   -5.4032   -2.4543 H   0  0  0  0  0  0  0  0  0  0  0  0
  -27.7864   -9.2704   -9.7323 C   0  0  0  0  0  0  0  0  0  0  0  0
  -28.4900   -8.3777   -8.8374 N   0  0  0  0  0  0  0  0  0  0  0  0
  -27.9586   -7.2280   -8.3191 C   0  0  0  0  0  0  0  0  0  0  0  0
  -28.9406   -6.5805   -7.6064 C   0  0  0  0  0  0  0  0  0  0  0  0
  -30.0860   -7.4434   -7.5919 C   0  0  0  0  0  0  0  0  0  0  0  0
  -31.3606   -7.3819   -6.9887 C   0  0  0  0  0  0  0  0  0  0  0  0
  -32.2649   -8.4186   -7.2073 C   0  0  0  0  0  0  0  0  0  0  0  0
  -33.4731   -8.3638   -6.6267 F   0  0  0  0  0  0  0  0  0  0  0  0
  -31.9503   -9.5071   -8.0083 C   0  0  0  0  0  0  0  0  0  0  0  0
  -30.6982   -9.5946   -8.6173 C   0  0  0  0  0  0  0  0  0  0  0  0
  -29.7800   -8.5558   -8.3876 C   0  0  0  0  0  0  0  0  0  0  0  0
  -28.4435   -2.4159   -5.7359 C   0  0  0  0  0  0  0  0  0  0  0  0
  -27.6236   -2.1758   -6.7403 N   0  0  0  0  0  0  0  0  0  0  0  0
  -27.7335   -0.8556   -7.1338 C   0  0  0  0  0  0  0  0  0  0  0  0
  -28.6374   -0.0981   -6.4238 C   0  0  0  0  0  0  0  0  0  0  0  0
  -29.3981   -1.0709   -5.2384 S   0  0  0  0  0  0  0  0  0  0  0  0
  9 10  1  0  0  0
 10 11  1  0  0  0
 10 19  1  0  0  0
 11 12  2  0  0  0
 12  1  1  0  0  0
 12 13  1  0  0  0
  1  2  2  0  0  0
  2  3  1  0  0  0
  2  7  1  0  0  0
  3  4  2  0  0  0
  3  5  1  0  0  0
  5  6  1  0  0  0
  5  8  1  0  0  0
  6  7  2  0  0  0
  7 20  1  0  0  0
 20 21  2  0  0  0
 20 24  1  0  0  0
 21 22  1  0  0  0
 22 23  2  0  0  0
 23 24  1  0  0  0
 13 14  1  0  0  0
 13 19  2  0  0  0
 14 15  2  0  0  0
 15 16  1  0  0  0
 15 17  1  0  0  0
 17 18  2  0  0  0
 18 19  1  0  0  0
M  END
> <minimizedAffinity>
-8.48777

$$$$
