CHEMBL3706829


 28 30  0  0  0  0  0  0  0  0999 V2000
  -29.2334   -8.8089   -8.3583 C   0  0  0  0  0  0  0  0  0  0  0  0
  -29.4518   -9.8952   -7.4742 C   0  0  0  0  0  0  0  0  0  0  0  0
  -29.2818   -9.8173   -6.0977 C   0  0  0  0  0  0  0  0  0  0  0  0
  -29.4289  -10.9147   -5.3398 N   0  0  0  0  0  0  0  0  0  0  0  0
  -29.2200  -10.7799   -4.0242 C   0  0  0  0  0  0  0  0  0  0  0  0
  -28.9063   -9.6464   -3.3883 N   0  0  0  0  0  0  0  0  0  0  0  0
  -28.7806   -8.5458   -4.1533 C   0  0  0  0  0  0  0  0  0  0  0  0
  -28.9257   -8.5874   -5.5515 C   0  0  0  0  0  0  0  0  0  0  0  0
  -28.7092   -7.4889   -6.4175 C   0  0  0  0  0  0  0  0  0  0  0  0
  -28.8481   -7.5793   -7.8133 C   0  0  0  0  0  0  0  0  0  0  0  0
  -28.4956   -7.3004   -3.5270 N   0  0  0  0  0  0  0  0  0  0  0  0
  -27.5463   -7.0058   -3.7779 H   0  0  0  0  0  0  0  0  0  0  0  0
  -29.3659   -6.2162   -3.5618 C   0  0  0  0  0  0  0  0  0  0  0  0
  -30.6801   -6.2719   -3.3119 C   0  0  0  0  0  0  0  0  0  0  0  0
  -31.5487   -5.0900   -3.3783 C   0  0  0  0  0  0  0  0  0  0  0  0
  -32.7294   -5.1496   -3.0670 O   0  0  0  0  0  0  0  0  0  0  0  0
  -30.9592   -3.8344   -3.8488 C   0  0  0  0  0  0  0  0  0  0  0  0
  -29.6481   -3.7303   -4.0768 C   0  0  0  0  0  0  0  0  0  0  0  0
  -28.8995   -2.1254   -4.6904 Br  0  0  0  0  0  0  0  0  0  0  0  0
  -28.7348   -4.8862   -3.8562 C   0  0  0  0  0  0  0  0  0  0  0  0
  -27.5093   -4.8018   -3.9218 O   0  0  0  0  0  0  0  0  0  0  0  0
  -28.4078   -6.4309   -8.4050 O   0  0  0  0  0  0  0  0  0  0  0  0
  -28.5798   -5.1691   -7.7845 C   0  0  0  0  0  0  0  0  0  0  0  0
  -29.4081   -9.2115   -9.6596 O   0  0  0  0  0  0  0  0  0  0  0  0
  -28.8114  -10.4267  -10.0608 C   0  0  0  0  0  0  0  0  0  0  0  0
  -27.8146  -10.2694  -11.2002 C   0  0  0  0  0  0  0  0  0  0  0  0
  -26.4286  -11.0503   -9.4334 C   0  0  0  0  0  0  0  0  0  0  0  0
  -26.5294  -10.2192  -10.5731 O   0  0  0  0  0  0  0  0  0  0  0  0
 27 28  1  0  0  0
 28 26  1  0  0  0
 26 25  1  0  0  0
 25 24  1  0  0  0
 24  1  1  0  0  0
  1  2  1  0  0  0
  1 10  2  0  0  0
  2  3  2  0  0  0
  3  4  1  0  0  0
  3  8  1  0  0  0
  4  5  2  0  0  0
  5  6  1  0  0  0
  6  7  2  0  0  0
  7 11  1  0  0  0
  7  8  1  0  0  0
 11 13  1  0  0  0
 11 12  1  0  0  0
 13 14  2  0  0  0
 13 20  1  0  0  0
 14 15  1  0  0  0
 15 16  2  0  0  0
 15 17  1  0  0  0
 17 18  2  0  0  0
 18 19  1  0  0  0
 18 20  1  0  0  0
 20 21  2  0  0  0
  8  9  2  0  0  0
  9 10  1  0  0  0
 10 22  1  0  0  0
 22 23  1  0  0  0
M  END
> <minimizedAffinity>
-7.23137

$$$$
