CHEMBL3976219


 41 45  0  0  0  0  0  0  0  0999 V2000
  -29.5166   -5.4834   -5.8828 C   0  0  0  0  0  0  0  0  0  0  0  0
  -29.1667   -5.7306   -7.1772 C   0  0  0  0  0  0  0  0  0  0  0  0
  -28.6490   -4.7157   -7.8959 C   0  0  0  0  0  0  0  0  0  0  0  0
  -28.4518   -3.4643   -7.4118 C   0  0  0  0  0  0  0  0  0  0  0  0
  -27.4041   -3.1549   -8.0477 N   0  0  0  0  0  0  0  0  0  0  0  0
  -27.4595   -2.6853   -9.2311 C   0  0  0  0  0  0  0  0  0  0  0  0
  -27.5110   -1.4260   -9.0367 C   0  0  0  0  0  0  0  0  0  0  0  0
  -28.0802   -1.3128   -7.3254 N   0  0  0  0  0  0  0  0  0  0  0  0
  -28.6385   -2.6884   -6.3967 C   0  0  0  0  0  0  0  0  0  0  0  0
  -29.2050   -4.0741   -5.4133 C   0  0  0  0  0  0  0  0  0  0  0  0
  -26.5903   -1.1111  -10.6061 C   0  0  0  0  0  0  0  0  0  0  0  0
  -27.1481   -1.4834  -12.1402 C   0  0  0  0  0  0  0  0  0  0  0  0
  -26.4310   -1.3687  -13.3038 N   0  0  0  0  0  0  0  0  0  0  0  0
  -25.1912   -1.0798  -12.8699 N   0  0  0  0  0  0  0  0  0  0  0  0
  -25.2512   -1.0964  -11.3335 C   0  0  0  0  0  0  0  0  0  0  0  0
  -24.0155   -0.8028  -13.8600 C   0  0  0  0  0  0  0  0  0  0  0  0
  -22.8715   -1.8415  -13.7456 C   0  0  0  0  0  0  0  0  0  0  0  0
  -24.4935   -0.8675  -15.3324 C   0  0  0  0  0  0  0  0  0  0  0  0
  -23.3957    0.6081  -13.6285 C   0  0  0  0  0  0  0  0  0  0  0  0
  -23.8797    1.4189  -12.8440 O   0  0  0  0  0  0  0  0  0  0  0  0
  -22.2676    1.0336  -14.2949 N   0  0  0  0  0  0  0  0  0  0  0  0
  -21.7772    0.4507  -14.9545 H   0  0  0  0  0  0  0  0  0  0  0  0
  -21.7379    2.3766  -14.0362 C   0  0  0  0  0  0  0  0  0  0  0  0
  -20.4378    2.6364  -14.7765 C   0  0  0  0  0  0  0  0  0  0  0  0
  -20.1181    4.0206  -14.7978 O   0  0  0  0  0  0  0  0  0  0  0  0
  -20.8426    4.4936  -15.2442 H   0  0  0  0  0  0  0  0  0  0  0  0
  -30.0053   -6.6329   -5.1317 N   0  0  0  0  0  0  0  0  0  0  0  0
  -28.8927  -10.1262   -6.1712 C   0  0  0  0  0  0  0  0  0  0  0  0
  -27.8847  -10.2859   -5.2869 C   0  0  0  0  0  0  0  0  0  0  0  0
  -27.6027   -9.3535   -4.2947 C   0  0  0  0  0  0  0  0  0  0  0  0
  -28.3706   -8.2029   -4.1886 C   0  0  0  0  0  0  0  0  0  0  0  0
  -29.3610   -7.9255   -5.1155 C   0  0  0  0  0  0  0  0  0  0  0  0
  -29.6636   -9.0257   -5.9513 C   0  0  0  0  0  0  0  0  0  0  0  0
  -28.4509  -10.5009   -8.4387 C   0  0  0  0  0  0  0  0  0  0  0  0
  -29.1362  -10.9087   -7.2584 O   0  0  0  0  0  0  0  0  0  0  0  0
  -26.5612   -9.4898   -3.4238 O   0  0  0  0  0  0  0  0  0  0  0  0
  -25.3024   -9.0118   -3.8987 C   0  0  0  0  0  0  0  0  0  0  0  0
  -31.4444   -6.4710   -4.6766 C   0  0  0  0  0  0  0  0  0  0  0  0
  -31.5526   -5.8553   -3.3498 C   0  0  0  0  0  0  0  0  0  0  0  0
  -32.4161   -5.3352   -2.2038 C   0  0  0  0  0  0  0  0  0  0  0  0
  -31.9919   -4.3381   -3.2466 C   0  0  0  0  0  0  0  0  0  0  0  0
 34 35  1  0  0  0
 35 28  1  0  0  0
 28 29  1  0  0  0
 28 33  2  0  0  0
 29 30  2  0  0  0
 30 36  1  0  0  0
 30 31  1  0  0  0
 36 37  1  0  0  0
 31 32  2  0  0  0
 32 27  1  0  0  0
 32 33  1  0  0  0
 27 38  1  0  0  0
 27  1  1  0  0  0
 38 39  1  0  0  0
 39 40  1  0  0  0
 39 41  1  0  0  0
 40 41  1  0  0  0
  1  2  1  0  0  0
  1 10  2  0  0  0
  2  3  2  0  0  0
  3  4  1  0  0  0
  4  5  1  0  0  0
  4  9  2  0  0  0
  5  6  2  0  0  0
  6  7  1  0  0  0
  7 11  1  0  0  0
  7  8  2  0  0  0
 11 12  1  0  0  0
 11 15  2  0  0  0
 12 13  2  0  0  0
 13 14  1  0  0  0
 14 16  1  0  0  0
 14 15  1  0  0  0
 16 17  1  0  0  0
 16 18  1  0  0  0
 16 19  1  0  0  0
 19 20  2  0  0  0
 19 21  1  0  0  0
 21 23  1  0  0  0
 21 22  1  0  0  0
 23 24  1  0  0  0
 24 25  1  0  0  0
 25 26  1  0  0  0
  8  9  1  0  0  0
  9 10  1  0  0  0
M  END
> <minimizedAffinity>
-8.65341

$$$$
