CHEMBL215411


 47 51  0  0  0  0  0  0  0  0999 V2000
  -30.1841   -6.5177   -4.5640 C   0  0  0  0  0  0  0  0  0  0  0  0
  -31.4149   -6.5905   -3.9434 C   0  0  0  0  0  0  0  0  0  0  0  0
  -32.0066   -5.4000   -3.6281 C   0  0  0  0  0  0  0  0  0  0  0  0
  -31.4824   -4.2219   -3.9722 N   0  0  0  0  0  0  0  0  0  0  0  0
  -30.2813   -4.2269   -4.5686 C   0  0  0  0  0  0  0  0  0  0  0  0
  -29.5872   -5.3399   -4.8390 N   0  0  0  0  0  0  0  0  0  0  0  0
  -29.5150   -7.7210   -4.9060 N   0  0  0  0  0  0  0  0  0  0  0  0
  -28.7317   -8.3357   -3.9242 C   0  0  0  0  0  0  0  0  0  0  0  0
  -29.0404   -8.3718   -2.7311 O   0  0  0  0  0  0  0  0  0  0  0  0
  -29.2644   -8.9006   -8.9992 C   0  0  0  0  0  0  0  0  0  0  0  0
  -28.4488   -7.8848   -8.5006 C   0  0  0  0  0  0  0  0  0  0  0  0
  -28.5528   -7.4811   -7.1628 C   0  0  0  0  0  0  0  0  0  0  0  0
  -29.4710   -8.0864   -6.2848 C   0  0  0  0  0  0  0  0  0  0  0  0
  -30.3314   -9.0685   -6.8107 C   0  0  0  0  0  0  0  0  0  0  0  0
  -30.2024   -9.4860   -8.1440 C   0  0  0  0  0  0  0  0  0  0  0  0
  -29.1155  -10.7974  -10.4481 C   0  0  0  0  0  0  0  0  0  0  0  0
  -29.2606   -9.3918  -10.2770 O   0  0  0  0  0  0  0  0  0  0  0  0
  -31.3656   -9.6508   -6.1149 O   0  0  0  0  0  0  0  0  0  0  0  0
  -32.2595  -10.3935   -6.9472 C   0  0  0  0  0  0  0  0  0  0  0  0
  -27.5340   -8.8520   -4.4229 O   0  0  0  0  0  0  0  0  0  0  0  0
  -26.9640  -10.1031   -4.0287 C   0  0  0  0  0  0  0  0  0  0  0  0
  -27.7025  -11.3009   -3.9335 C   0  0  0  0  0  0  0  0  0  0  0  0
  -29.0730  -11.5786   -4.4779 C   0  0  0  0  0  0  0  0  0  0  0  0
  -27.1281  -12.3808   -3.2310 C   0  0  0  0  0  0  0  0  0  0  0  0
  -25.8565  -12.2997   -2.6755 C   0  0  0  0  0  0  0  0  0  0  0  0
  -25.1133  -11.1373   -2.8298 C   0  0  0  0  0  0  0  0  0  0  0  0
  -25.6564  -10.0234   -3.4998 C   0  0  0  0  0  0  0  0  0  0  0  0
  -24.8000   -8.7990   -3.6589 C   0  0  0  0  0  0  0  0  0  0  0  0
  -29.7101   -3.0056   -4.9061 N   0  0  0  0  0  0  0  0  0  0  0  0
  -29.6816   -2.3675   -4.1255 H   0  0  0  0  0  0  0  0  0  0  0  0
  -28.9879   -2.6774   -6.0557 C   0  0  0  0  0  0  0  0  0  0  0  0
  -28.8839   -3.5423   -7.1571 C   0  0  0  0  0  0  0  0  0  0  0  0
  -28.1818   -3.1771   -8.3136 C   0  0  0  0  0  0  0  0  0  0  0  0
  -27.5782   -1.9311   -8.3983 C   0  0  0  0  0  0  0  0  0  0  0  0
  -27.7110   -1.0591   -7.3199 C   0  0  0  0  0  0  0  0  0  0  0  0
  -27.1576    0.1679   -7.3598 F   0  0  0  0  0  0  0  0  0  0  0  0
  -28.4106   -1.4196   -6.1550 C   0  0  0  0  0  0  0  0  0  0  0  0
  -26.8445   -1.4615   -9.4477 O   0  0  0  0  0  0  0  0  0  0  0  0
  -26.9149   -2.2245  -10.6556 C   0  0  0  0  0  0  0  0  0  0  0  0
  -27.2633   -1.2543  -11.7779 C   0  0  0  0  0  0  0  0  0  0  0  0
  -26.4513   -1.5154  -13.0490 C   0  0  0  0  0  0  0  0  0  0  0  0
  -25.0107   -1.2353  -12.9132 N   0  0  0  0  0  0  0  0  0  0  0  0
  -24.3530   -1.0887  -14.2232 C   0  0  0  0  0  0  0  0  0  0  0  0
  -22.8539   -0.8353  -14.0691 C   0  0  0  0  0  0  0  0  0  0  0  0
  -22.5902    0.3913  -13.2086 C   0  0  0  0  0  0  0  0  0  0  0  0
  -23.3238    0.2677  -11.8792 C   0  0  0  0  0  0  0  0  0  0  0  0
  -24.8093   -0.0306  -12.0893 C   0  0  0  0  0  0  0  0  0  0  0  0
 16 17  1  0  0  0
 17 10  1  0  0  0
 10 11  1  0  0  0
 10 15  2  0  0  0
 11 12  2  0  0  0
 12 13  1  0  0  0
 13  7  1  0  0  0
 13 14  2  0  0  0
  7  8  1  0  0  0
  7  1  1  0  0  0
  8  9  2  0  0  0
  8 20  1  0  0  0
 20 21  1  0  0  0
 21 22  1  0  0  0
 21 27  2  0  0  0
 22 23  1  0  0  0
 22 24  2  0  0  0
 24 25  1  0  0  0
 25 26  2  0  0  0
 26 27  1  0  0  0
 27 28  1  0  0  0
  1  2  1  0  0  0
  1  6  2  0  0  0
  2  3  2  0  0  0
  3  4  1  0  0  0
  4  5  2  0  0  0
  5 29  1  0  0  0
  5  6  1  0  0  0
 29 31  1  0  0  0
 29 30  1  0  0  0
 31 32  1  0  0  0
 31 37  2  0  0  0
 32 33  2  0  0  0
 33 34  1  0  0  0
 34 38  1  0  0  0
 34 35  2  0  0  0
 38 39  1  0  0  0
 39 40  1  0  0  0
 40 41  1  0  0  0
 41 42  1  0  0  0
 42 43  1  0  0  0
 42 47  1  0  0  0
 43 44  1  0  0  0
 44 45  1  0  0  0
 45 46  1  0  0  0
 46 47  1  0  0  0
 35 36  1  0  0  0
 35 37  1  0  0  0
 14 18  1  0  0  0
 14 15  1  0  0  0
 18 19  1  0  0  0
M  END
> <minimizedAffinity>
-8.88403

$$$$
