CHEMBL3965160


 40 44  0  0  0  0  0  0  0  0999 V2000
  -27.8276   -2.8987   -8.0738 C   0  0  0  0  0  0  0  0  0  0  0  0
  -27.8247   -2.5498   -6.7190 C   0  0  0  0  0  0  0  0  0  0  0  0
  -28.0011   -1.2138   -6.2800 C   0  0  0  0  0  0  0  0  0  0  0  0
  -28.0433   -0.8014   -4.9381 C   0  0  0  0  0  0  0  0  0  0  0  0
  -28.2765    0.4772   -4.5924 N   0  0  0  0  0  0  0  0  0  0  0  0
  -28.4419    1.3499   -5.5848 C   0  0  0  0  0  0  0  0  0  0  0  0
  -28.3905    1.0711   -6.8926 N   0  0  0  0  0  0  0  0  0  0  0  0
  -28.1814   -0.2039   -7.2361 C   0  0  0  0  0  0  0  0  0  0  0  0
  -28.1750   -0.5666   -8.5887 C   0  0  0  0  0  0  0  0  0  0  0  0
  -28.0343   -1.8959   -9.0225 C   0  0  0  0  0  0  0  0  0  0  0  0
  -28.7794   -5.0479   -7.7209 C   0  0  0  0  0  0  0  0  0  0  0  0
  -27.7475   -4.2482   -8.2997 O   0  0  0  0  0  0  0  0  0  0  0  0
  -27.8400   -1.7590   -3.9014 N   0  0  0  0  0  0  0  0  0  0  0  0
  -27.8505   -1.2883   -3.0024 H   0  0  0  0  0  0  0  0  0  0  0  0
  -28.4613   -3.0287   -3.8716 C   0  0  0  0  0  0  0  0  0  0  0  0
  -27.7073   -4.1894   -4.0951 C   0  0  0  0  0  0  0  0  0  0  0  0
  -28.3159   -5.4429   -4.1644 C   0  0  0  0  0  0  0  0  0  0  0  0
  -29.6959   -5.5548   -4.0028 C   0  0  0  0  0  0  0  0  0  0  0  0
  -30.3974   -7.1254   -4.1619 Cl  0  0  0  0  0  0  0  0  0  0  0  0
  -30.4568   -4.4106   -3.7371 C   0  0  0  0  0  0  0  0  0  0  0  0
  -32.1712   -4.4769   -3.5163 Cl  0  0  0  0  0  0  0  0  0  0  0  0
  -29.8391   -3.1539   -3.6614 C   0  0  0  0  0  0  0  0  0  0  0  0
  -28.1056   -2.0500  -10.3842 O   0  0  0  0  0  0  0  0  0  0  0  0
  -27.2591   -1.1866  -11.1529 C   0  0  0  0  0  0  0  0  0  0  0  0
  -26.3042   -1.9800  -12.0538 C   0  0  0  0  0  0  0  0  0  0  0  0
  -26.9425   -2.3745  -13.2624 O   0  0  0  0  0  0  0  0  0  0  0  0
  -26.6961   -1.4320  -14.2988 C   0  0  0  0  0  0  0  0  0  0  0  0
  -25.1989   -1.3544  -14.5897 C   0  0  0  0  0  0  0  0  0  0  0  0
  -24.3801   -1.1477  -13.3940 N   0  0  0  0  0  0  0  0  0  0  0  0
  -24.9128   -1.2974  -12.1224 C   0  0  0  0  0  0  0  0  0  0  0  0
  -24.2929   -0.9857  -11.1032 O   0  0  0  0  0  0  0  0  0  0  0  0
  -22.9840   -0.7372  -13.5614 C   0  0  0  0  0  0  0  0  0  0  0  0
  -22.8138    0.7826  -13.6384 C   0  0  0  0  0  0  0  0  0  0  0  0
  -23.6953    1.5640  -13.2808 O   0  0  0  0  0  0  0  0  0  0  0  0
  -21.5636    1.3354  -14.2396 C   0  0  0  0  0  0  0  0  0  0  0  0
  -20.5358    0.5311  -14.7534 C   0  0  0  0  0  0  0  0  0  0  0  0
  -19.3827    1.1241  -15.2879 C   0  0  0  0  0  0  0  0  0  0  0  0
  -19.2506    2.5118  -15.3185 C   0  0  0  0  0  0  0  0  0  0  0  0
  -20.2712    3.3191  -14.8173 C   0  0  0  0  0  0  0  0  0  0  0  0
  -21.4245    2.7321  -14.2857 C   0  0  0  0  0  0  0  0  0  0  0  0
 11 12  1  0  0  0
 12  1  1  0  0  0
  1  2  1  0  0  0
  1 10  2  0  0  0
  2  3  2  0  0  0
  3  4  1  0  0  0
  3  8  1  0  0  0
  4 13  1  0  0  0
  4  5  2  0  0  0
 13 15  1  0  0  0
 13 14  1  0  0  0
 15 16  1  0  0  0
 15 22  2  0  0  0
 16 17  2  0  0  0
 17 18  1  0  0  0
 18 19  1  0  0  0
 18 20  2  0  0  0
 20 21  1  0  0  0
 20 22  1  0  0  0
  5  6  1  0  0  0
  6  7  2  0  0  0
  7  8  1  0  0  0
  8  9  2  0  0  0
  9 10  1  0  0  0
 10 23  1  0  0  0
 23 24  1  0  0  0
 24 25  1  0  0  0
 25 26  1  0  0  0
 25 30  1  0  0  0
 26 27  1  0  0  0
 27 28  1  0  0  0
 28 29  1  0  0  0
 29 32  1  0  0  0
 29 30  1  0  0  0
 32 33  1  0  0  0
 33 34  2  0  0  0
 33 35  1  0  0  0
 35 36  1  0  0  0
 35 40  2  0  0  0
 36 37  2  0  0  0
 37 38  1  0  0  0
 38 39  2  0  0  0
 39 40  1  0  0  0
 30 31  2  0  0  0
M  END
> <minimizedAffinity>
-10.24426

$$$$
