CHEMBL1242475


 27 31  0  0  0  0  0  0  0  0999 V2000
  -29.2408   -6.8960   -2.9366 N   0  0  0  0  0  0  0  0  0  0  0  0
  -28.9400   -7.9138   -3.8362 C   0  0  0  0  0  0  0  0  0  0  0  0
  -28.6964   -9.1184   -3.2835 N   0  0  0  0  0  0  0  0  0  0  0  0
  -28.4366  -10.1596   -4.0934 C   0  0  0  0  0  0  0  0  0  0  0  0
  -28.3982  -10.1701   -5.4323 N   0  0  0  0  0  0  0  0  0  0  0  0
  -28.6392   -8.9486   -5.9441 C   0  0  0  0  0  0  0  0  0  0  0  0
  -28.9011   -7.7851   -5.2355 C   0  0  0  0  0  0  0  0  0  0  0  0
  -29.0418   -6.7716   -6.2399 C   0  0  0  0  0  0  0  0  0  0  0  0
  -28.9438   -7.3032   -7.4740 N   0  0  0  0  0  0  0  0  0  0  0  0
  -28.6696   -8.6093   -7.2650 N   0  0  0  0  0  0  0  0  0  0  0  0
  -29.4126   -7.2789   -2.0166 H   0  0  0  0  0  0  0  0  0  0  0  0
  -29.9174   -6.2253   -3.2677 H   0  0  0  0  0  0  0  0  0  0  0  0
  -29.2594   -5.3251   -6.0856 C   0  0  0  0  0  0  0  0  0  0  0  0
  -30.3134   -4.8327   -5.3018 C   0  0  0  0  0  0  0  0  0  0  0  0
  -30.5740   -3.4635   -5.1683 C   0  0  0  0  0  0  0  0  0  0  0  0
  -29.6701   -2.5922   -5.7724 C   0  0  0  0  0  0  0  0  0  0  0  0
  -29.5943   -1.2247   -5.7814 N   0  0  0  0  0  0  0  0  0  0  0  0
  -28.5301   -0.7389   -6.4441 N   0  0  0  0  0  0  0  0  0  0  0  0
  -27.9100   -1.8391   -6.8810 C   0  0  0  0  0  0  0  0  0  0  0  0
  -28.5755   -3.0283   -6.5079 C   0  0  0  0  0  0  0  0  0  0  0  0
  -28.3746   -4.4102   -6.6899 C   0  0  0  0  0  0  0  0  0  0  0  0
  -30.2245   -0.5688   -5.3346 H   0  0  0  0  0  0  0  0  0  0  0  0
  -28.4267   -9.4945   -8.3882 C   0  0  0  0  0  0  0  0  0  0  0  0
  -27.2405   -9.0809   -9.2617 C   0  0  0  0  0  0  0  0  0  0  0  0
  -27.4834   -9.7522  -10.6114 C   0  0  0  0  0  0  0  0  0  0  0  0
  -28.9482  -10.1851  -10.6287 C   0  0  0  0  0  0  0  0  0  0  0  0
  -29.5826   -9.5770   -9.3847 C   0  0  0  0  0  0  0  0  0  0  0  0
  1  2  1  0  0  0
  1 11  1  0  0  0
  1 12  1  0  0  0
  2  3  1  0  0  0
  2  7  2  0  0  0
  3  4  2  0  0  0
  4  5  1  0  0  0
  5  6  2  0  0  0
  6  7  1  0  0  0
  6 10  1  0  0  0
  7  8  1  0  0  0
  8 13  1  0  0  0
  8  9  2  0  0  0
 13 14  1  0  0  0
 13 21  2  0  0  0
 14 15  2  0  0  0
 15 16  1  0  0  0
 16 17  1  0  0  0
 16 20  2  0  0  0
 17 18  1  0  0  0
 17 22  1  0  0  0
 18 19  2  0  0  0
 19 20  1  0  0  0
 20 21  1  0  0  0
  9 10  1  0  0  0
 10 23  1  0  0  0
 23 24  1  0  0  0
 23 27  1  0  0  0
 24 25  1  0  0  0
 25 26  1  0  0  0
 26 27  1  0  0  0
M  END
> <minimizedAffinity>
-8.18425

$$$$
