CHEMBL2004892


 25 27  0  0  0  0  0  0  0  0999 V2000
  -29.9251   -7.0737   -7.4607 C   0  0  0  0  0  0  0  0  0  0  0  0
  -28.9952   -7.6936   -8.3243 C   0  0  0  0  0  0  0  0  0  0  0  0
  -29.2042   -8.9409   -8.9128 C   0  0  0  0  0  0  0  0  0  0  0  0
  -30.3742   -9.6061   -8.5638 C   0  0  0  0  0  0  0  0  0  0  0  0
  -30.8952  -10.7888   -9.0061 N   0  0  0  0  0  0  0  0  0  0  0  0
  -32.0031  -11.1742   -8.3622 N   0  0  0  0  0  0  0  0  0  0  0  0
  -32.2485  -10.1672   -7.5279 C   0  0  0  0  0  0  0  0  0  0  0  0
  -33.2866  -10.2121   -6.6760 N   0  0  0  0  0  0  0  0  0  0  0  0
  -31.2883   -9.1154   -7.6380 C   0  0  0  0  0  0  0  0  0  0  0  0
  -31.0668   -7.8233   -7.0849 C   0  0  0  0  0  0  0  0  0  0  0  0
  -30.5382  -11.3791   -9.7478 H   0  0  0  0  0  0  0  0  0  0  0  0
  -33.2248   -9.7252   -5.7906 H   0  0  0  0  0  0  0  0  0  0  0  0
  -33.7120  -11.1287   -6.5904 H   0  0  0  0  0  0  0  0  0  0  0  0
  -29.4437   -2.9721   -6.1636 C   0  0  0  0  0  0  0  0  0  0  0  0
  -30.0488   -3.9084   -5.3404 C   0  0  0  0  0  0  0  0  0  0  0  0
  -30.1390   -5.2406   -5.7542 C   0  0  0  0  0  0  0  0  0  0  0  0
  -29.6568   -5.6772   -7.0095 C   0  0  0  0  0  0  0  0  0  0  0  0
  -28.9819   -4.7227   -7.7885 C   0  0  0  0  0  0  0  0  0  0  0  0
  -28.8699   -3.3831   -7.3658 C   0  0  0  0  0  0  0  0  0  0  0  0
  -29.4047   -1.6059   -5.7570 N   0  0  0  0  0  0  0  0  0  0  0  0
  -30.0810   -0.9940   -6.2184 H   0  0  0  0  0  0  0  0  0  0  0  0
  -28.2827    0.6587   -4.8003 C   0  0  0  0  0  0  0  0  0  0  0  0
  -27.9066   -0.8330   -5.7005 S   0  0  0  0  0  0  0  0  0  0  0  0
  -27.6219   -0.4521   -7.0684 O   0  0  0  0  0  0  0  0  0  0  0  0
  -26.9701   -1.6266   -4.9379 O   0  0  0  0  0  0  0  0  0  0  0  0
 22 23  1  0  0  0
 23 24  2  0  0  0
 23 25  2  0  0  0
 23 20  1  0  0  0
 20 14  1  0  0  0
 20 21  1  0  0  0
 14 15  1  0  0  0
 14 19  2  0  0  0
 15 16  2  0  0  0
 16 17  1  0  0  0
 17  1  1  0  0  0
 17 18  2  0  0  0
  1  2  1  0  0  0
  1 10  2  0  0  0
  2  3  2  0  0  0
  3  4  1  0  0  0
  4  5  1  0  0  0
  4  9  2  0  0  0
  5  6  1  0  0  0
  5 11  1  0  0  0
  6  7  2  0  0  0
  7  8  1  0  0  0
  7  9  1  0  0  0
  8 12  1  0  0  0
  8 13  1  0  0  0
  9 10  1  0  0  0
 18 19  1  0  0  0
M  END
> <minimizedAffinity>
-8.27733

$$$$
