CHEMBL1762527


 37 41  0  0  0  0  0  0  0  0999 V2000
  -28.8152   -7.3626   -3.6198 N   0  0  0  0  0  0  0  0  0  0  0  0
  -28.1655   -7.1271   -2.8880 H   0  0  0  0  0  0  0  0  0  0  0  0
  -30.1857   -4.3615   -4.9987 C   0  0  0  0  0  0  0  0  0  0  0  0
  -31.4022   -4.2593   -4.3482 C   0  0  0  0  0  0  0  0  0  0  0  0
  -31.6695   -5.2041   -3.3996 C   0  0  0  0  0  0  0  0  0  0  0  0
  -30.8357   -6.2088   -3.1259 N   0  0  0  0  0  0  0  0  0  0  0  0
  -29.6971   -6.2942   -3.8287 C   0  0  0  0  0  0  0  0  0  0  0  0
  -29.3509   -5.4015   -4.7682 N   0  0  0  0  0  0  0  0  0  0  0  0
  -29.8026   -3.3376   -5.9054 N   0  0  0  0  0  0  0  0  0  0  0  0
  -30.1631   -3.6824   -7.2823 C   0  0  0  0  0  0  0  0  0  0  0  0
  -29.8036    0.3795   -5.3373 C   0  0  0  0  0  0  0  0  0  0  0  0
  -28.5047    0.5915   -4.8960 C   0  0  0  0  0  0  0  0  0  0  0  0
  -27.6228   -0.4791   -4.8082 C   0  0  0  0  0  0  0  0  0  0  0  0
  -28.0110   -1.7823   -5.1735 C   0  0  0  0  0  0  0  0  0  0  0  0
  -26.9329   -2.8358   -5.0994 C   0  0  0  0  0  0  0  0  0  0  0  0
  -29.3484   -2.0352   -5.5864 C   0  0  0  0  0  0  0  0  0  0  0  0
  -30.2177   -0.9252   -5.6607 C   0  0  0  0  0  0  0  0  0  0  0  0
  -30.9369    1.8700   -6.7991 C   0  0  0  0  0  0  0  0  0  0  0  0
  -30.7578    1.3515   -5.4839 O   0  0  0  0  0  0  0  0  0  0  0  0
  -28.4771   -8.4317   -4.4680 C   0  0  0  0  0  0  0  0  0  0  0  0
  -27.2014   -9.0048   -4.3932 C   0  0  0  0  0  0  0  0  0  0  0  0
  -26.7705   -9.9882   -5.2963 C   0  0  0  0  0  0  0  0  0  0  0  0
  -27.6766  -10.3900   -6.2917 C   0  0  0  0  0  0  0  0  0  0  0  0
  -28.9889   -9.9026   -6.3761 C   0  0  0  0  0  0  0  0  0  0  0  0
  -29.3576   -8.9417   -5.4321 C   0  0  0  0  0  0  0  0  0  0  0  0
  -25.5000  -10.5144   -5.2279 N   0  0  0  0  0  0  0  0  0  0  0  0
  -25.0253  -11.2735   -4.0670 C   0  0  0  0  0  0  0  0  0  0  0  0
  -23.6969  -10.6760   -3.5882 C   0  0  0  0  0  0  0  0  0  0  0  0
  -22.7229  -10.6535   -4.6481 O   0  0  0  0  0  0  0  0  0  0  0  0
  -23.2010   -9.8634   -5.7532 C   0  0  0  0  0  0  0  0  0  0  0  0
  -24.5278  -10.4034   -6.3217 C   0  0  0  0  0  0  0  0  0  0  0  0
  -29.8539  -10.3311   -7.3677 N   0  0  0  0  0  0  0  0  0  0  0  0
  -30.5322   -9.4050   -8.2918 C   0  0  0  0  0  0  0  0  0  0  0  0
  -32.0458   -9.3959   -8.0385 C   0  0  0  0  0  0  0  0  0  0  0  0
  -32.5924  -10.7241   -8.1137 O   0  0  0  0  0  0  0  0  0  0  0  0
  -31.9840  -11.5607   -7.1159 C   0  0  0  0  0  0  0  0  0  0  0  0
  -30.4597  -11.6696   -7.2985 C   0  0  0  0  0  0  0  0  0  0  0  0
 18 19  1  0  0  0
 19 11  1  0  0  0
 11 12  1  0  0  0
 11 17  2  0  0  0
 12 13  2  0  0  0
 13 14  1  0  0  0
 14 15  1  0  0  0
 14 16  2  0  0  0
 16  9  1  0  0  0
 16 17  1  0  0  0
  9 10  1  0  0  0
  9  3  1  0  0  0
  3  4  1  0  0  0
  3  8  2  0  0  0
  4  5  2  0  0  0
  5  6  1  0  0  0
  6  7  2  0  0  0
  7  1  1  0  0  0
  7  8  1  0  0  0
  1 20  1  0  0  0
  1  2  1  0  0  0
 20 21  1  0  0  0
 20 25  2  0  0  0
 21 22  2  0  0  0
 22 26  1  0  0  0
 22 23  1  0  0  0
 26 27  1  0  0  0
 26 31  1  0  0  0
 27 28  1  0  0  0
 28 29  1  0  0  0
 29 30  1  0  0  0
 30 31  1  0  0  0
 23 24  2  0  0  0
 24 32  1  0  0  0
 24 25  1  0  0  0
 32 33  1  0  0  0
 32 37  1  0  0  0
 33 34  1  0  0  0
 34 35  1  0  0  0
 35 36  1  0  0  0
 36 37  1  0  0  0
M  END
> <minimizedAffinity>
-8.72126

$$$$
