CHEMBL3220323


 45 48  0  0  0  0  0  0  0  0999 V2000
  -14.6563    1.7259  -15.7857 C   0  0  0  0  0  0  0  0  0  0  0  0
  -14.4714    0.4413  -16.3407 C   0  0  0  0  0  0  0  0  0  0  0  0
  -13.2371   -0.1730  -16.5297 C   0  0  0  0  0  0  0  0  0  0  0  0
  -12.0995    0.5641  -16.2224 C   0  0  0  0  0  0  0  0  0  0  0  0
  -12.2173    1.8808  -15.7299 C   0  0  0  0  0  0  0  0  0  0  0  0
  -13.4896    2.4664  -15.4947 C   0  0  0  0  0  0  0  0  0  0  0  0
  -18.3739    1.5477  -14.8623 C   0  0  0  0  0  0  0  0  0  0  0  0
  -17.0030    1.2748  -14.9654 C   0  0  0  0  0  0  0  0  0  0  0  0
  -16.0751    2.1606  -15.5740 C   0  0  0  0  0  0  0  0  0  0  0  0
  -16.5879    3.3735  -16.0426 C   0  0  0  0  0  0  0  0  0  0  0  0
  -17.9454    3.6942  -15.8860 C   0  0  0  0  0  0  0  0  0  0  0  0
  -18.8422    2.7954  -15.2836 C   0  0  0  0  0  0  0  0  0  0  0  0
  -20.2573    3.2409  -15.0876 C   0  0  0  0  0  0  0  0  0  0  0  0
  -21.2179    3.2009  -16.2640 C   0  0  0  0  0  0  0  0  0  0  0  0
  -20.6491    3.5924  -13.8918 N   0  0  0  0  0  0  0  0  0  0  0  0
  -22.0062    3.9348  -13.8787 O   0  0  0  0  0  0  0  0  0  0  0  0
  -22.1574    4.1535  -12.9395 H   0  0  0  0  0  0  0  0  0  0  0  0
  -19.9135   -0.1704  -15.4808 C   0  0  0  0  0  0  0  0  0  0  0  0
  -19.2920    0.6099  -14.4652 O   0  0  0  0  0  0  0  0  0  0  0  0
  -13.1216   -1.5116  -16.9862 N   0  0  0  0  0  0  0  0  0  0  0  0
  -13.0177   -2.6321  -16.1732 C   0  0  0  0  0  0  0  0  0  0  0  0
  -13.0591   -2.6330  -14.9471 O   0  0  0  0  0  0  0  0  0  0  0  0
  -12.8127   -3.7988  -16.8963 N   0  0  0  0  0  0  0  0  0  0  0  0
  -13.1631   -1.6704  -17.9818 H   0  0  0  0  0  0  0  0  0  0  0  0
  -12.1814   -3.6920  -17.6776 H   0  0  0  0  0  0  0  0  0  0  0  0
  -12.7416   -5.0323  -16.2033 C   0  0  0  0  0  0  0  0  0  0  0  0
  -13.8808   -5.8215  -16.0095 C   0  0  0  0  0  0  0  0  0  0  0  0
  -13.8109   -7.0043  -15.2612 C   0  0  0  0  0  0  0  0  0  0  0  0
  -12.5934   -7.3936  -14.7113 C   0  0  0  0  0  0  0  0  0  0  0  0
  -11.4614   -6.5966  -14.8854 C   0  0  0  0  0  0  0  0  0  0  0  0
  -11.5255   -5.4304  -15.6659 C   0  0  0  0  0  0  0  0  0  0  0  0
  -12.3971   -8.5252  -13.9631 O   0  0  0  0  0  0  0  0  0  0  0  0
  -13.3233   -8.7071  -12.8924 C   0  0  0  0  0  0  0  0  0  0  0  0
  -12.9299   -7.7455  -11.7759 C   0  0  0  0  0  0  0  0  0  0  0  0
  -14.0907   -6.8042  -11.4521 C   0  0  0  0  0  0  0  0  0  0  0  0
  -13.8800   -5.4183  -11.9014 N   0  0  0  0  0  0  0  0  0  0  0  0
  -13.4354   -4.5653  -10.7713 C   0  0  0  0  0  0  0  0  0  0  0  0
  -14.5469   -4.2666   -9.7461 C   0  0  0  0  0  0  0  0  0  0  0  0
  -15.6995   -3.6843  -10.3693 O   0  0  0  0  0  0  0  0  0  0  0  0
  -16.1886   -4.5124  -11.4328 C   0  0  0  0  0  0  0  0  0  0  0  0
  -15.0912   -4.7874  -12.4727 C   0  0  0  0  0  0  0  0  0  0  0  0
  -11.0858    2.5651  -15.3507 O   0  0  0  0  0  0  0  0  0  0  0  0
  -10.7250    2.4013  -13.9806 C   0  0  0  0  0  0  0  0  0  0  0  0
  -13.6863    3.7075  -14.9375 O   0  0  0  0  0  0  0  0  0  0  0  0
  -13.4000    4.8453  -15.7428 C   0  0  0  0  0  0  0  0  0  0  0  0
 18 19  1  0  0  0
 19  7  1  0  0  0
  7  8  1  0  0  0
  7 12  2  0  0  0
  8  9  2  0  0  0
  9  1  1  0  0  0
  9 10  1  0  0  0
  1  2  1  0  0  0
  1  6  2  0  0  0
  2  3  2  0  0  0
  3 20  1  0  0  0
  3  4  1  0  0  0
 20 21  1  0  0  0
 20 24  1  0  0  0
 21 22  2  0  0  0
 21 23  1  0  0  0
 23 26  1  0  0  0
 23 25  1  0  0  0
 26 27  1  0  0  0
 26 31  2  0  0  0
 27 28  2  0  0  0
 28 29  1  0  0  0
 29 32  1  0  0  0
 29 30  2  0  0  0
 32 33  1  0  0  0
 33 34  1  0  0  0
 34 35  1  0  0  0
 35 36  1  0  0  0
 36 37  1  0  0  0
 36 41  1  0  0  0
 37 38  1  0  0  0
 38 39  1  0  0  0
 39 40  1  0  0  0
 40 41  1  0  0  0
 30 31  1  0  0  0
  4  5  2  0  0  0
  5 42  1  0  0  0
  5  6  1  0  0  0
 42 43  1  0  0  0
  6 44  1  0  0  0
 44 45  1  0  0  0
 10 11  2  0  0  0
 11 12  1  0  0  0
 12 13  1  0  0  0
 13 14  1  0  0  0
 13 15  2  0  0  0
 15 16  1  0  0  0
 16 17  1  0  0  0
M  END
> <minimizedAffinity>
-6.84601

$$$$
