CHEMBL194883


 27 29  0  0  0  0  0  0  0  0999 V2000
  -14.9881    0.3790  -13.5682 N   0  0  0  0  0  0  0  0  0  0  0  0
  -14.7511    0.8497  -12.7044 H   0  0  0  0  0  0  0  0  0  0  0  0
  -15.1413   -3.1269  -12.3361 C   0  0  0  0  0  0  0  0  0  0  0  0
  -14.4077   -3.8047  -13.3089 C   0  0  0  0  0  0  0  0  0  0  0  0
  -13.8440   -3.0880  -14.3728 C   0  0  0  0  0  0  0  0  0  0  0  0
  -14.0103   -1.6988  -14.4647 C   0  0  0  0  0  0  0  0  0  0  0  0
  -14.7895   -1.0214  -13.4987 C   0  0  0  0  0  0  0  0  0  0  0  0
  -15.3251   -1.7494  -12.4251 C   0  0  0  0  0  0  0  0  0  0  0  0
  -15.7480   -3.9770  -10.8979 S   0  0  0  0  0  0  0  0  0  0  0  0
  -16.6952   -4.9723  -11.3517 O   0  0  0  0  0  0  0  0  0  0  0  0
  -16.1505   -2.9599   -9.9430 O   0  0  0  0  0  0  0  0  0  0  0  0
  -13.2649   -3.8223   -9.7705 C   0  0  0  0  0  0  0  0  0  0  0  0
  -14.3108   -4.8099  -10.2535 C   0  0  0  0  0  0  0  0  0  0  0  0
  -13.4257   -0.9164  -15.4331 O   0  0  0  0  0  0  0  0  0  0  0  0
  -12.0151   -0.7390  -15.3506 C   0  0  0  0  0  0  0  0  0  0  0  0
  -15.9280    0.9411  -14.3524 C   0  0  0  0  0  0  0  0  0  0  0  0
  -15.8086    1.4430  -15.5648 N   0  0  0  0  0  0  0  0  0  0  0  0
  -17.0650    1.8859  -15.8678 C   0  0  0  0  0  0  0  0  0  0  0  0
  -17.9313    1.6201  -14.8307 C   0  0  0  0  0  0  0  0  0  0  0  0
  -17.1963    1.0107  -13.8407 O   0  0  0  0  0  0  0  0  0  0  0  0
  -19.3523    1.8457  -14.6003 C   0  0  0  0  0  0  0  0  0  0  0  0
  -20.2461    0.7575  -14.6213 C   0  0  0  0  0  0  0  0  0  0  0  0
  -21.6133    0.9474  -14.4071 C   0  0  0  0  0  0  0  0  0  0  0  0
  -22.0966    2.2268  -14.1710 C   0  0  0  0  0  0  0  0  0  0  0  0
  -23.4077    2.4093  -13.9659 F   0  0  0  0  0  0  0  0  0  0  0  0
  -21.2384    3.3185  -14.1437 C   0  0  0  0  0  0  0  0  0  0  0  0
  -19.8679    3.1279  -14.3564 C   0  0  0  0  0  0  0  0  0  0  0  0
 12 13  1  0  0  0
 13  9  1  0  0  0
  9 10  2  0  0  0
  9 11  2  0  0  0
  9  3  1  0  0  0
  3  4  1  0  0  0
  3  8  2  0  0  0
  4  5  2  0  0  0
  5  6  1  0  0  0
  6 14  1  0  0  0
  6  7  2  0  0  0
 14 15  1  0  0  0
  7  1  1  0  0  0
  7  8  1  0  0  0
  1 16  1  0  0  0
  1  2  1  0  0  0
 16 17  2  0  0  0
 16 20  1  0  0  0
 17 18  1  0  0  0
 18 19  2  0  0  0
 19 21  1  0  0  0
 19 20  1  0  0  0
 21 22  1  0  0  0
 21 27  2  0  0  0
 22 23  2  0  0  0
 23 24  1  0  0  0
 24 25  1  0  0  0
 24 26  2  0  0  0
 26 27  1  0  0  0
M  END
> <minimizedAffinity>
-7.78665

$$$$
