CHEMBL261174


 41 46  0  0  0  0  0  0  0  0999 V2000
  -28.6921   -9.3846   -7.7311 N   0  0  0  0  0  0  0  0  0  0  0  0
  -29.6400   -8.3749   -7.6572 C   0  0  0  0  0  0  0  0  0  0  0  0
  -30.5804   -8.2237   -8.4319 O   0  0  0  0  0  0  0  0  0  0  0  0
  -29.4999   -7.4210   -6.5484 C   0  0  0  0  0  0  0  0  0  0  0  0
  -30.3431   -6.3536   -6.4233 C   0  0  0  0  0  0  0  0  0  0  0  0
  -30.2171   -5.4527   -5.4367 N   0  0  0  0  0  0  0  0  0  0  0  0
  -29.2334   -5.6083   -4.5337 C   0  0  0  0  0  0  0  0  0  0  0  0
  -28.3853   -6.6465   -4.5510 N   0  0  0  0  0  0  0  0  0  0  0  0
  -28.5253   -7.5213   -5.5793 C   0  0  0  0  0  0  0  0  0  0  0  0
  -27.6290   -8.5980   -5.7148 N   0  0  0  0  0  0  0  0  0  0  0  0
  -26.5645   -8.9658   -4.9152 C   0  0  0  0  0  0  0  0  0  0  0  0
  -26.0000   -8.4481   -3.7409 C   0  0  0  0  0  0  0  0  0  0  0  0
  -24.9060   -9.1323   -3.1933 C   0  0  0  0  0  0  0  0  0  0  0  0
  -24.3987  -10.2828   -3.7968 C   0  0  0  0  0  0  0  0  0  0  0  0
  -24.9660  -10.7795   -4.9748 C   0  0  0  0  0  0  0  0  0  0  0  0
  -26.0630  -10.1078   -5.5375 C   0  0  0  0  0  0  0  0  0  0  0  0
  -26.7668  -10.4140   -6.6708 N   0  0  0  0  0  0  0  0  0  0  0  0
  -27.7090   -9.5019   -6.7603 C   0  0  0  0  0  0  0  0  0  0  0  0
  -30.4517  -11.7058   -7.4456 C   0  0  0  0  0  0  0  0  0  0  0  0
  -29.5522  -11.4960   -8.6323 C   0  0  0  0  0  0  0  0  0  0  0  0
  -29.5417  -12.4658   -9.6459 C   0  0  0  0  0  0  0  0  0  0  0  0
  -28.7470  -12.3065  -10.7773 C   0  0  0  0  0  0  0  0  0  0  0  0
  -27.9495  -11.1741  -10.9138 C   0  0  0  0  0  0  0  0  0  0  0  0
  -27.9162  -10.1935   -9.9103 C   0  0  0  0  0  0  0  0  0  0  0  0
  -27.0091   -9.0083  -10.0970 C   0  0  0  0  0  0  0  0  0  0  0  0
  -28.7188  -10.3604   -8.7578 C   0  0  0  0  0  0  0  0  0  0  0  0
  -29.0787   -4.6454   -3.5439 N   0  0  0  0  0  0  0  0  0  0  0  0
  -29.0022   -5.0154   -2.6106 H   0  0  0  0  0  0  0  0  0  0  0  0
  -28.8985   -3.2685   -3.7313 C   0  0  0  0  0  0  0  0  0  0  0  0
  -29.9988   -2.4224   -3.7642 C   0  0  0  0  0  0  0  0  0  0  0  0
  -29.8486   -1.0875   -4.1349 C   0  0  0  0  0  0  0  0  0  0  0  0
  -28.5882   -0.5721   -4.4830 C   0  0  0  0  0  0  0  0  0  0  0  0
  -27.4761   -1.3949   -4.3942 C   0  0  0  0  0  0  0  0  0  0  0  0
  -27.6323   -2.7321   -4.0260 C   0  0  0  0  0  0  0  0  0  0  0  0
  -28.3680    0.7047   -4.9398 O   0  0  0  0  0  0  0  0  0  0  0  0
  -28.6935    0.8755   -6.3223 C   0  0  0  0  0  0  0  0  0  0  0  0
  -27.7015    0.1488   -7.2113 C   0  0  0  0  0  0  0  0  0  0  0  0
  -28.3878   -1.0008   -7.9655 C   0  0  0  0  0  0  0  0  0  0  0  0
  -27.4833   -2.0909   -8.3805 N   0  0  0  0  0  0  0  0  0  0  0  0
  -28.0629   -3.4133   -8.1345 C   0  0  0  0  0  0  0  0  0  0  0  0
  -27.1479   -1.9583   -9.8013 C   0  0  0  0  0  0  0  0  0  0  0  0
 19 20  1  0  0  0
 20 21  1  0  0  0
 20 26  2  0  0  0
 21 22  2  0  0  0
 22 23  1  0  0  0
 23 24  2  0  0  0
 24 25  1  0  0  0
 24 26  1  0  0  0
 26  1  1  0  0  0
  1  2  1  0  0  0
  1 18  1  0  0  0
  2  3  2  0  0  0
  2  4  1  0  0  0
  4  5  1  0  0  0
  4  9  2  0  0  0
  5  6  2  0  0  0
  6  7  1  0  0  0
  7 27  1  0  0  0
  7  8  2  0  0  0
 27 29  1  0  0  0
 27 28  1  0  0  0
 29 30  1  0  0  0
 29 34  2  0  0  0
 30 31  2  0  0  0
 31 32  1  0  0  0
 32 35  1  0  0  0
 32 33  2  0  0  0
 35 36  1  0  0  0
 36 37  1  0  0  0
 37 38  1  0  0  0
 38 39  1  0  0  0
 39 40  1  0  0  0
 39 41  1  0  0  0
 33 34  1  0  0  0
  8  9  1  0  0  0
  9 10  1  0  0  0
 10 11  1  0  0  0
 10 18  1  0  0  0
 11 12  1  0  0  0
 11 16  2  0  0  0
 12 13  2  0  0  0
 13 14  1  0  0  0
 14 15  2  0  0  0
 15 16  1  0  0  0
 16 17  1  0  0  0
 17 18  2  0  0  0
M  END
> <minimizedAffinity>
-6.99756

$$$$
