CHEMBL202950


 32 36  0  0  0  0  0  0  0  0999 V2000
  -14.8934    1.0380  -14.4036 C   0  0  0  0  0  0  0  0  0  0  0  0
  -13.7651    1.3654  -15.0476 N   0  0  0  0  0  0  0  0  0  0  0  0
  -13.7636    2.2939  -16.0872 N   0  0  0  0  0  0  0  0  0  0  0  0
  -14.8720    2.9918  -16.4455 C   0  0  0  0  0  0  0  0  0  0  0  0
  -16.0998    2.6361  -15.8461 C   0  0  0  0  0  0  0  0  0  0  0  0
  -17.3257    3.2888  -16.1091 C   0  0  0  0  0  0  0  0  0  0  0  0
  -18.5349    2.8630  -15.5596 C   0  0  0  0  0  0  0  0  0  0  0  0
  -18.5524    1.8129  -14.6608 C   0  0  0  0  0  0  0  0  0  0  0  0
  -17.3540    1.2117  -14.2881 C   0  0  0  0  0  0  0  0  0  0  0  0
  -16.1129    1.5964  -14.8536 C   0  0  0  0  0  0  0  0  0  0  0  0
  -14.5354    4.2344  -17.2436 C   0  0  0  0  0  0  0  0  0  0  0  0
  -15.1686    4.2794  -18.5164 C   0  0  0  0  0  0  0  0  0  0  0  0
  -14.9507    5.2923  -19.4366 C   0  0  0  0  0  0  0  0  0  0  0  0
  -14.0868    6.3185  -19.1106 C   0  0  0  0  0  0  0  0  0  0  0  0
  -13.4553    6.3743  -17.8879 C   0  0  0  0  0  0  0  0  0  0  0  0
  -12.6649    7.4461  -17.7304 N   0  0  0  0  0  0  0  0  0  0  0  0
  -11.9972    7.5889  -16.5766 C   0  0  0  0  0  0  0  0  0  0  0  0
  -12.1019    6.6862  -15.5402 C   0  0  0  0  0  0  0  0  0  0  0  0
  -12.9530    5.5882  -15.7007 C   0  0  0  0  0  0  0  0  0  0  0  0
  -13.6629    5.3498  -16.9127 C   0  0  0  0  0  0  0  0  0  0  0  0
  -14.8674    0.2472  -13.2190 N   0  0  0  0  0  0  0  0  0  0  0  0
  -15.0245    0.7922  -12.3825 H   0  0  0  0  0  0  0  0  0  0  0  0
  -15.4899   -3.9934  -12.8534 C   0  0  0  0  0  0  0  0  0  0  0  0
  -15.9331   -3.0906  -11.8725 C   0  0  0  0  0  0  0  0  0  0  0  0
  -15.7158   -1.7062  -11.9740 C   0  0  0  0  0  0  0  0  0  0  0  0
  -15.0005   -1.1476  -13.0301 C   0  0  0  0  0  0  0  0  0  0  0  0
  -14.5474   -2.0418  -14.0175 C   0  0  0  0  0  0  0  0  0  0  0  0
  -14.7762   -3.4350  -13.9312 C   0  0  0  0  0  0  0  0  0  0  0  0
  -15.6315   -6.2536  -14.0530 C   0  0  0  0  0  0  0  0  0  0  0  0
  -15.7422   -5.5074  -12.6987 C   0  0  0  0  0  0  0  0  0  0  0  0
  -17.1689   -5.7062  -12.1498 C   0  0  0  0  0  0  0  0  0  0  0  0
  -14.7535   -6.2153  -11.7435 C   0  0  0  0  0  0  0  0  0  0  0  0
 29 30  1  0  0  0
 30 31  1  0  0  0
 30 32  1  0  0  0
 30 23  1  0  0  0
 23 24  1  0  0  0
 23 28  2  0  0  0
 24 25  2  0  0  0
 25 26  1  0  0  0
 26 21  1  0  0  0
 26 27  2  0  0  0
 21  1  1  0  0  0
 21 22  1  0  0  0
  1  2  1  0  0  0
  1 10  2  0  0  0
  2  3  2  0  0  0
  3  4  1  0  0  0
  4 11  1  0  0  0
  4  5  2  0  0  0
 11 12  1  0  0  0
 11 20  2  0  0  0
 12 13  2  0  0  0
 13 14  1  0  0  0
 14 15  2  0  0  0
 15 16  1  0  0  0
 15 20  1  0  0  0
 16 17  2  0  0  0
 17 18  1  0  0  0
 18 19  2  0  0  0
 19 20  1  0  0  0
  5  6  1  0  0  0
  5 10  1  0  0  0
  6  7  2  0  0  0
  7  8  1  0  0  0
  8  9  2  0  0  0
  9 10  1  0  0  0
 27 28  1  0  0  0
M  END
> <minimizedAffinity>
-8.89707

$$$$
