CHEMBL175506


 30 33  0  0  0  0  0  0  0  0999 V2000
  -28.2370   -5.0808   -8.0764 C   0  0  0  0  0  0  0  0  0  0  0  0
  -27.8395   -4.0381   -8.7800 N   0  0  0  0  0  0  0  0  0  0  0  0
  -28.2502   -2.8586   -8.3360 C   0  0  0  0  0  0  0  0  0  0  0  0
  -28.9955   -2.7058   -7.2502 N   0  0  0  0  0  0  0  0  0  0  0  0
  -29.3102   -3.8110   -6.5866 C   0  0  0  0  0  0  0  0  0  0  0  0
  -28.9871   -5.0337   -6.9841 N   0  0  0  0  0  0  0  0  0  0  0  0
  -28.7404   -7.3546   -8.0436 C   0  0  0  0  0  0  0  0  0  0  0  0
  -27.8286   -6.3409   -8.4650 O   0  0  0  0  0  0  0  0  0  0  0  0
  -27.8884   -1.7101   -9.0375 N   0  0  0  0  0  0  0  0  0  0  0  0
  -27.9350   -0.8824   -8.4650 H   0  0  0  0  0  0  0  0  0  0  0  0
  -27.1838   -1.6234  -10.2496 C   0  0  0  0  0  0  0  0  0  0  0  0
  -27.8759   -1.7032  -11.4594 C   0  0  0  0  0  0  0  0  0  0  0  0
  -27.1968   -1.7331  -12.6896 C   0  0  0  0  0  0  0  0  0  0  0  0
  -25.7910   -1.6780  -12.7115 C   0  0  0  0  0  0  0  0  0  0  0  0
  -24.9862   -1.7246  -13.8423 N   0  0  0  0  0  0  0  0  0  0  0  0
  -23.7252   -1.6595  -13.4783 C   0  0  0  0  0  0  0  0  0  0  0  0
  -23.4117   -1.5227  -11.8031 S   0  0  0  0  0  0  0  0  0  0  0  0
  -25.1042   -1.5816  -11.5028 C   0  0  0  0  0  0  0  0  0  0  0  0
  -25.7813   -1.5454  -10.2715 C   0  0  0  0  0  0  0  0  0  0  0  0
  -30.0081   -3.7288   -5.4093 N   0  0  0  0  0  0  0  0  0  0  0  0
  -30.6436   -4.5049   -5.2854 H   0  0  0  0  0  0  0  0  0  0  0  0
  -29.5281   -3.0493   -4.2010 C   0  0  0  0  0  0  0  0  0  0  0  0
  -30.5631   -3.0117   -3.0500 C   0  0  0  0  0  0  0  0  0  0  0  0
  -28.2876   -3.8254   -3.7132 C   0  0  0  0  0  0  0  0  0  0  0  0
  -29.2145   -1.5816   -4.5880 C   0  0  0  0  0  0  0  0  0  0  0  0
  -27.8943   -1.0897   -4.4929 C   0  0  0  0  0  0  0  0  0  0  0  0
  -27.5728    0.2207   -4.8631 C   0  0  0  0  0  0  0  0  0  0  0  0
  -28.5649    1.0757   -5.3321 C   0  0  0  0  0  0  0  0  0  0  0  0
  -29.8749    0.6196   -5.4286 C   0  0  0  0  0  0  0  0  0  0  0  0
  -30.1961   -0.6921   -5.0597 C   0  0  0  0  0  0  0  0  0  0  0  0
  7  8  1  0  0  0
  8  1  1  0  0  0
  1  2  1  0  0  0
  1  6  2  0  0  0
  2  3  2  0  0  0
  3  9  1  0  0  0
  3  4  1  0  0  0
  9 11  1  0  0  0
  9 10  1  0  0  0
 11 12  1  0  0  0
 11 19  2  0  0  0
 12 13  2  0  0  0
 13 14  1  0  0  0
 14 15  1  0  0  0
 14 18  2  0  0  0
 15 16  2  0  0  0
 16 17  1  0  0  0
 17 18  1  0  0  0
 18 19  1  0  0  0
  4  5  2  0  0  0
  5 20  1  0  0  0
  5  6  1  0  0  0
 20 22  1  0  0  0
 20 21  1  0  0  0
 22 23  1  0  0  0
 22 24  1  0  0  0
 22 25  1  0  0  0
 25 26  1  0  0  0
 25 30  2  0  0  0
 26 27  2  0  0  0
 27 28  1  0  0  0
 28 29  2  0  0  0
 29 30  1  0  0  0
M  END
> <minimizedAffinity>
-8.69305

$$$$
