CHEMBL3781927


 29 32  0  0  0  0  0  0  0  0999 V2000
  -24.4731   -1.3934  -12.2094 C   0  0  0  0  0  0  0  0  0  0  0  0
  -24.4187   -1.4071  -10.8612 N   0  0  0  0  0  0  0  0  0  0  0  0
  -25.5530   -1.6021  -10.1256 N   0  0  0  0  0  0  0  0  0  0  0  0
  -26.7491   -1.8140  -10.7120 C   0  0  0  0  0  0  0  0  0  0  0  0
  -26.8607   -1.7965  -12.1237 C   0  0  0  0  0  0  0  0  0  0  0  0
  -28.0796   -2.0222  -12.8161 C   0  0  0  0  0  0  0  0  0  0  0  0
  -28.1578   -1.9728  -14.2088 C   0  0  0  0  0  0  0  0  0  0  0  0
  -27.0255   -1.6750  -14.9496 C   0  0  0  0  0  0  0  0  0  0  0  0
  -25.8088   -1.4653  -14.3007 C   0  0  0  0  0  0  0  0  0  0  0  0
  -25.6938   -1.5423  -12.8914 C   0  0  0  0  0  0  0  0  0  0  0  0
  -27.9072   -2.0045   -9.9085 N   0  0  0  0  0  0  0  0  0  0  0  0
  -28.6060   -2.5354  -10.4125 H   0  0  0  0  0  0  0  0  0  0  0  0
  -27.9912   -2.1906   -8.5089 C   0  0  0  0  0  0  0  0  0  0  0  0
  -27.7613   -1.1609   -7.5899 C   0  0  0  0  0  0  0  0  0  0  0  0
  -27.9549   -1.3500   -6.2162 C   0  0  0  0  0  0  0  0  0  0  0  0
  -28.4056   -2.5791   -5.7346 C   0  0  0  0  0  0  0  0  0  0  0  0
  -28.6435   -3.6196   -6.6342 C   0  0  0  0  0  0  0  0  0  0  0  0
  -28.4441   -3.4232   -8.0093 C   0  0  0  0  0  0  0  0  0  0  0  0
  -28.6434   -2.7611   -4.3348 C   0  0  0  0  0  0  0  0  0  0  0  0
  -28.8293   -2.8998   -3.1937 N   0  0  0  0  0  0  0  0  0  0  0  0
  -23.1255   -1.3310  -12.8938 C   0  0  0  0  0  0  0  0  0  0  0  0
  -21.6533    2.4473  -14.4333 C   0  0  0  0  0  0  0  0  0  0  0  0
  -22.8270    2.4158  -13.6806 C   0  0  0  0  0  0  0  0  0  0  0  0
  -23.3276    1.2000  -13.1939 C   0  0  0  0  0  0  0  0  0  0  0  0
  -22.6713   -0.0058  -13.4667 C   0  0  0  0  0  0  0  0  0  0  0  0
  -21.4766    0.0400  -14.2036 C   0  0  0  0  0  0  0  0  0  0  0  0
  -20.9775    1.2533  -14.6840 C   0  0  0  0  0  0  0  0  0  0  0  0
  -19.6611    3.5063  -15.1712 C   0  0  0  0  0  0  0  0  0  0  0  0
  -21.0663    3.5631  -14.9639 O   0  0  0  0  0  0  0  0  0  0  0  0
 28 29  1  0  0  0
 29 22  1  0  0  0
 22 23  1  0  0  0
 22 27  2  0  0  0
 23 24  2  0  0  0
 24 25  1  0  0  0
 25 21  1  0  0  0
 25 26  2  0  0  0
 21  1  1  0  0  0
  1  2  1  0  0  0
  1 10  2  0  0  0
  2  3  2  0  0  0
  3  4  1  0  0  0
  4 11  1  0  0  0
  4  5  2  0  0  0
 11 13  1  0  0  0
 11 12  1  0  0  0
 13 14  1  0  0  0
 13 18  2  0  0  0
 14 15  2  0  0  0
 15 16  1  0  0  0
 16 19  1  0  0  0
 16 17  2  0  0  0
 19 20  3  0  0  0
 17 18  1  0  0  0
  5  6  1  0  0  0
  5 10  1  0  0  0
  6  7  2  0  0  0
  7  8  1  0  0  0
  8  9  2  0  0  0
  9 10  1  0  0  0
 26 27  1  0  0  0
M  END
> <minimizedAffinity>
-10.58590

$$$$
