CHEMBL270556


 30 33  0  0  0  0  0  0  0  0999 V2000
  -28.3863   -2.0636   -9.8423 O   0  0  0  0  0  0  0  0  0  0  0  0
  -28.9736   -4.9712   -5.7282 C   0  0  0  0  0  0  0  0  0  0  0  0
  -28.4109   -3.7373   -5.3598 C   0  0  0  0  0  0  0  0  0  0  0  0
  -28.1569   -2.7313   -6.2765 C   0  0  0  0  0  0  0  0  0  0  0  0
  -27.7415   -1.5473   -5.8146 N   0  0  0  0  0  0  0  0  0  0  0  0
  -27.6078   -0.5642   -6.7095 C   0  0  0  0  0  0  0  0  0  0  0  0
  -27.8300   -0.6678   -8.0179 N   0  0  0  0  0  0  0  0  0  0  0  0
  -28.1753   -1.8919   -8.4684 C   0  0  0  0  0  0  0  0  0  0  0  0
  -28.3852   -2.9880   -7.6283 C   0  0  0  0  0  0  0  0  0  0  0  0
  -28.8110   -4.2740   -8.0292 C   0  0  0  0  0  0  0  0  0  0  0  0
  -29.1273   -5.2645   -7.0885 C   0  0  0  0  0  0  0  0  0  0  0  0
  -30.7397   -5.8064   -4.3866 C   0  0  0  0  0  0  0  0  0  0  0  0
  -29.3627   -5.8780   -4.7757 O   0  0  0  0  0  0  0  0  0  0  0  0
  -29.5829   -6.4039   -7.6888 O   0  0  0  0  0  0  0  0  0  0  0  0
  -28.6640   -7.3992   -8.1066 C   0  0  0  0  0  0  0  0  0  0  0  0
  -27.3077   -1.8355  -10.6718 C   0  0  0  0  0  0  0  0  0  0  0  0
  -26.0349   -1.5797  -10.1740 C   0  0  0  0  0  0  0  0  0  0  0  0
  -25.0029   -1.2302  -11.0433 C   0  0  0  0  0  0  0  0  0  0  0  0
  -25.1889   -1.1772  -12.4436 C   0  0  0  0  0  0  0  0  0  0  0  0
  -24.1886   -0.7655  -13.3717 C   0  0  0  0  0  0  0  0  0  0  0  0
  -24.4464   -0.8042  -14.7523 C   0  0  0  0  0  0  0  0  0  0  0  0
  -25.6751   -1.2472  -15.2280 C   0  0  0  0  0  0  0  0  0  0  0  0
  -26.6740   -1.6174  -14.3315 C   0  0  0  0  0  0  0  0  0  0  0  0
  -26.4592   -1.5737  -12.9431 C   0  0  0  0  0  0  0  0  0  0  0  0
  -27.5027   -1.8938  -12.0506 C   0  0  0  0  0  0  0  0  0  0  0  0
  -22.8801   -0.1959  -12.9159 C   0  0  0  0  0  0  0  0  0  0  0  0
  -22.2397    0.6627  -13.7678 N   0  0  0  0  0  0  0  0  0  0  0  0
  -22.3757   -0.4561  -11.8314 O   0  0  0  0  0  0  0  0  0  0  0  0
  -22.5257    0.8271  -14.7202 H   0  0  0  0  0  0  0  0  0  0  0  0
  -21.3330    0.9987  -13.4709 H   0  0  0  0  0  0  0  0  0  0  0  0
 12 13  1  0  0  0
 13  2  1  0  0  0
  2  3  1  0  0  0
  2 11  2  0  0  0
  3  4  2  0  0  0
  4  5  1  0  0  0
  4  9  1  0  0  0
  5  6  2  0  0  0
  6  7  1  0  0  0
  7  8  2  0  0  0
  8  1  1  0  0  0
  8  9  1  0  0  0
  1 16  1  0  0  0
 16 17  1  0  0  0
 16 25  2  0  0  0
 17 18  2  0  0  0
 18 19  1  0  0  0
 19 20  1  0  0  0
 19 24  2  0  0  0
 20 26  1  0  0  0
 20 21  2  0  0  0
 26 27  1  0  0  0
 26 28  2  0  0  0
 27 29  1  0  0  0
 27 30  1  0  0  0
 21 22  1  0  0  0
 22 23  2  0  0  0
 23 24  1  0  0  0
 24 25  1  0  0  0
  9 10  2  0  0  0
 10 11  1  0  0  0
 11 14  1  0  0  0
 14 15  1  0  0  0
M  END
> <minimizedAffinity>
-9.14203

$$$$
