CHEMBL1241439


 22 24  0  0  0  0  0  0  0  0999 V2000
  -13.5202   -6.6660  -11.7632 N   0  0  0  0  0  0  0  0  0  0  0  0
  -12.5923   -6.2828  -10.8520 N   0  0  0  0  0  0  0  0  0  0  0  0
  -13.1844   -5.2614  -10.2102 C   0  0  0  0  0  0  0  0  0  0  0  0
  -14.4703   -4.9661  -10.7303 C   0  0  0  0  0  0  0  0  0  0  0  0
  -15.5084   -4.0493  -10.5204 C   0  0  0  0  0  0  0  0  0  0  0  0
  -15.4803   -3.0198   -9.5988 N   0  0  0  0  0  0  0  0  0  0  0  0
  -16.6243   -4.1556  -11.2739 N   0  0  0  0  0  0  0  0  0  0  0  0
  -16.6804   -5.1182  -12.2097 C   0  0  0  0  0  0  0  0  0  0  0  0
  -15.7480   -6.0384  -12.5105 N   0  0  0  0  0  0  0  0  0  0  0  0
  -14.6600   -5.9050  -11.7309 C   0  0  0  0  0  0  0  0  0  0  0  0
  -14.8237   -3.1157   -8.8317 H   0  0  0  0  0  0  0  0  0  0  0  0
  -16.3953   -2.6460   -9.3885 H   0  0  0  0  0  0  0  0  0  0  0  0
  -12.5210   -4.5597   -9.0681 C   0  0  0  0  0  0  0  0  0  0  0  0
  -11.9405   -5.1538   -7.9626 C   0  0  0  0  0  0  0  0  0  0  0  0
  -11.4204   -4.1066   -7.1524 C   0  0  0  0  0  0  0  0  0  0  0  0
  -11.7433   -2.9377   -7.8035 C   0  0  0  0  0  0  0  0  0  0  0  0
  -12.4041   -3.2008   -8.9548 O   0  0  0  0  0  0  0  0  0  0  0  0
  -10.6965   -4.1866   -5.9057 C   0  0  0  0  0  0  0  0  0  0  0  0
  -11.0500   -3.6172   -4.8786 O   0  0  0  0  0  0  0  0  0  0  0  0
  -12.0109   -7.6073  -13.4828 C   0  0  0  0  0  0  0  0  0  0  0  0
  -13.2674   -7.8088  -12.6357 C   0  0  0  0  0  0  0  0  0  0  0  0
  -13.1917   -9.1115  -11.8386 C   0  0  0  0  0  0  0  0  0  0  0  0
 20 21  1  0  0  0
 21 22  1  0  0  0
 21  1  1  0  0  0
  1  2  1  0  0  0
  1 10  1  0  0  0
  2  3  2  0  0  0
  3 13  1  0  0  0
  3  4  1  0  0  0
 13 14  2  0  0  0
 13 17  1  0  0  0
 14 15  1  0  0  0
 15 18  1  0  0  0
 15 16  2  0  0  0
 18 19  2  0  0  0
 16 17  1  0  0  0
  4  5  1  0  0  0
  4 10  2  0  0  0
  5  6  1  0  0  0
  5  7  2  0  0  0
  6 11  1  0  0  0
  6 12  1  0  0  0
  7  8  1  0  0  0
  8  9  2  0  0  0
  9 10  1  0  0  0
M  END
> <minimizedAffinity>
-6.95567

$$$$
