CHEMBL379849


 24 26  0  0  0  0  0  0  0  0999 V2000
  -30.5100   -5.2369   -4.1258 O   0  0  0  0  0  0  0  0  0  0  0  0
  -30.0818   -5.0499   -5.2628 C   0  0  0  0  0  0  0  0  0  0  0  0
  -29.5734   -3.7061   -5.6962 C   0  0  0  0  0  0  0  0  0  0  0  0
  -29.7700   -2.6762   -4.8523 C   0  0  0  0  0  0  0  0  0  0  0  0
  -28.9084   -3.6173   -7.0329 C   0  0  0  0  0  0  0  0  0  0  0  0
  -29.5523   -4.4870   -8.0117 N   0  0  0  0  0  0  0  0  0  0  0  0
  -29.3900   -5.8745   -7.5914 C   0  0  0  0  0  0  0  0  0  0  0  0
  -30.0524   -6.1515   -6.2764 C   0  0  0  0  0  0  0  0  0  0  0  0
  -30.6297   -7.3220   -5.9380 C   0  0  0  0  0  0  0  0  0  0  0  0
  -29.1000   -4.3616   -8.9158 H   0  0  0  0  0  0  0  0  0  0  0  0
  -29.3698   -1.2896   -5.1159 C   0  0  0  0  0  0  0  0  0  0  0  0
  -30.3382   -0.3402   -5.4627 C   0  0  0  0  0  0  0  0  0  0  0  0
  -29.9723    0.9900   -5.6893 C   0  0  0  0  0  0  0  0  0  0  0  0
  -28.6377    1.3807   -5.5720 C   0  0  0  0  0  0  0  0  0  0  0  0
  -27.6649    0.4380   -5.2410 C   0  0  0  0  0  0  0  0  0  0  0  0
  -28.0338   -0.8871   -5.0195 C   0  0  0  0  0  0  0  0  0  0  0  0
  -27.0781   -1.7773   -4.7127 F   0  0  0  0  0  0  0  0  0  0  0  0
  -30.6539   -8.4892   -6.8250 C   0  0  0  0  0  0  0  0  0  0  0  0
  -29.5416   -9.3363   -6.8972 C   0  0  0  0  0  0  0  0  0  0  0  0
  -29.5926  -10.4983   -7.6725 C   0  0  0  0  0  0  0  0  0  0  0  0
  -30.7501  -10.8181   -8.3842 C   0  0  0  0  0  0  0  0  0  0  0  0
  -31.8572   -9.9728   -8.3267 C   0  0  0  0  0  0  0  0  0  0  0  0
  -31.8036   -8.8185   -7.5499 C   0  0  0  0  0  0  0  0  0  0  0  0
  -32.8917   -8.0363   -7.4855 F   0  0  0  0  0  0  0  0  0  0  0  0
  1  2  2  0  0  0
  2  3  1  0  0  0
  2  8  1  0  0  0
  3  4  2  0  0  0
  3  5  1  0  0  0
  4 11  1  0  0  0
 11 12  1  0  0  0
 11 16  2  0  0  0
 12 13  2  0  0  0
 13 14  1  0  0  0
 14 15  2  0  0  0
 15 16  1  0  0  0
 16 17  1  0  0  0
  5  6  1  0  0  0
  6  7  1  0  0  0
  6 10  1  0  0  0
  7  8  1  0  0  0
  8  9  2  0  0  0
  9 18  1  0  0  0
 18 19  1  0  0  0
 18 23  2  0  0  0
 19 20  2  0  0  0
 20 21  1  0  0  0
 21 22  2  0  0  0
 22 23  1  0  0  0
 23 24  1  0  0  0
M  END
> <minimizedAffinity>
-8.66607

$$$$
