CHEMBL3676339


 35 37  0  0  0  0  0  0  0  0999 V2000
  -28.2631   -8.8919   -8.2725 C   0  0  0  0  0  0  0  0  0  0  0  0
  -28.8264   -7.7196   -7.7644 C   0  0  0  0  0  0  0  0  0  0  0  0
  -29.0189   -7.5305   -6.3847 C   0  0  0  0  0  0  0  0  0  0  0  0
  -29.6239   -6.3954   -5.8206 C   0  0  0  0  0  0  0  0  0  0  0  0
  -29.8127   -6.2925   -4.4937 N   0  0  0  0  0  0  0  0  0  0  0  0
  -29.4044   -7.3180   -3.7420 C   0  0  0  0  0  0  0  0  0  0  0  0
  -28.8028   -8.4301   -4.1765 N   0  0  0  0  0  0  0  0  0  0  0  0
  -28.6102   -8.5290   -5.4944 C   0  0  0  0  0  0  0  0  0  0  0  0
  -27.9738   -9.6557   -6.0054 C   0  0  0  0  0  0  0  0  0  0  0  0
  -27.7496   -9.8407   -7.3777 C   0  0  0  0  0  0  0  0  0  0  0  0
  -29.1161  -10.0300  -10.2472 C   0  0  0  0  0  0  0  0  0  0  0  0
  -29.9035  -10.7558   -9.6511 O   0  0  0  0  0  0  0  0  0  0  0  0
  -28.3090   -9.0667   -9.6721 N   0  0  0  0  0  0  0  0  0  0  0  0
  -27.5858   -8.6673  -10.2436 H   0  0  0  0  0  0  0  0  0  0  0  0
  -27.7541   -9.7086  -12.2444 C   0  0  0  0  0  0  0  0  0  0  0  0
  -28.8955  -10.1604  -11.7101 C   0  0  0  0  0  0  0  0  0  0  0  0
  -30.0164   -5.3240   -6.6679 N   0  0  0  0  0  0  0  0  0  0  0  0
  -31.0320   -5.2243   -6.6641 H   0  0  0  0  0  0  0  0  0  0  0  0
  -29.3874   -4.0673   -6.8251 C   0  0  0  0  0  0  0  0  0  0  0  0
  -28.5316   -3.7816   -7.8991 C   0  0  0  0  0  0  0  0  0  0  0  0
  -27.9204   -2.5328   -8.0206 C   0  0  0  0  0  0  0  0  0  0  0  0
  -28.2007   -1.5377   -7.0921 C   0  0  0  0  0  0  0  0  0  0  0  0
  -27.5968   -0.3490   -7.2030 F   0  0  0  0  0  0  0  0  0  0  0  0
  -29.0995   -1.7736   -6.0600 C   0  0  0  0  0  0  0  0  0  0  0  0
  -29.3815   -0.8027   -5.1797 F   0  0  0  0  0  0  0  0  0  0  0  0
  -29.6932   -3.0231   -5.9368 C   0  0  0  0  0  0  0  0  0  0  0  0
  -30.5686   -3.2445   -4.9409 F   0  0  0  0  0  0  0  0  0  0  0  0
  -27.1235  -11.0278   -7.6771 O   0  0  0  0  0  0  0  0  0  0  0  0
  -25.7256  -10.9234   -7.9202 C   0  0  0  0  0  0  0  0  0  0  0  0
  -24.8921  -11.6043   -6.8348 C   0  0  0  0  0  0  0  0  0  0  0  0
  -23.4657  -11.5137   -7.1282 N   0  0  0  0  0  0  0  0  0  0  0  0
  -22.6954  -10.4740   -6.6529 C   0  0  0  0  0  0  0  0  0  0  0  0
  -21.2695  -10.4765   -7.1272 C   0  0  0  0  0  0  0  0  0  0  0  0
  -23.1314   -9.5805   -5.9345 O   0  0  0  0  0  0  0  0  0  0  0  0
  -23.0165  -12.2943   -7.5903 H   0  0  0  0  0  0  0  0  0  0  0  0
 15 16  2  0  0  0
 16 11  1  0  0  0
 11 12  2  0  0  0
 11 13  1  0  0  0
 13  1  1  0  0  0
 13 14  1  0  0  0
  1  2  1  0  0  0
  1 10  2  0  0  0
  2  3  2  0  0  0
  3  4  1  0  0  0
  3  8  1  0  0  0
  4 17  1  0  0  0
  4  5  2  0  0  0
 17 19  1  0  0  0
 17 18  1  0  0  0
 19 20  1  0  0  0
 19 26  2  0  0  0
 20 21  2  0  0  0
 21 22  1  0  0  0
 22 23  1  0  0  0
 22 24  2  0  0  0
 24 25  1  0  0  0
 24 26  1  0  0  0
 26 27  1  0  0  0
  5  6  1  0  0  0
  6  7  2  0  0  0
  7  8  1  0  0  0
  8  9  2  0  0  0
  9 10  1  0  0  0
 10 28  1  0  0  0
 28 29  1  0  0  0
 29 30  1  0  0  0
 30 31  1  0  0  0
 31 32  1  0  0  0
 31 35  1  0  0  0
 32 33  1  0  0  0
 32 34  2  0  0  0
M  END
> <minimizedAffinity>
-8.34822

$$$$
