CHEMBL1241473


 36 38  0  0  0  0  0  0  0  0999 V2000
  -28.9494   -7.0053   -5.2493 C   0  0  0  0  0  0  0  0  0  0  0  0
  -29.3655   -7.4143   -4.0498 N   0  0  0  0  0  0  0  0  0  0  0  0
  -30.1911   -6.5714   -3.3930 C   0  0  0  0  0  0  0  0  0  0  0  0
  -30.5762   -5.3466   -3.8967 C   0  0  0  0  0  0  0  0  0  0  0  0
  -30.1349   -4.9888   -5.1399 C   0  0  0  0  0  0  0  0  0  0  0  0
  -29.3565   -5.8591   -5.8140 N   0  0  0  0  0  0  0  0  0  0  0  0
  -31.5011   -4.5541   -3.1538 N   0  0  0  0  0  0  0  0  0  0  0  0
  -31.1213   -3.4213   -2.8236 O   0  0  0  0  0  0  0  0  0  0  0  0
  -32.6248   -5.0264   -2.9592 O   0  0  0  0  0  0  0  0  0  0  0  0
  -28.0009   -7.8063   -5.9009 N   0  0  0  0  0  0  0  0  0  0  0  0
  -27.1024   -7.3458   -5.8806 H   0  0  0  0  0  0  0  0  0  0  0  0
  -27.3126  -10.0908   -8.7967 C   0  0  0  0  0  0  0  0  0  0  0  0
  -27.1417   -9.2316   -7.7095 C   0  0  0  0  0  0  0  0  0  0  0  0
  -28.2027   -8.6788   -6.9863 C   0  0  0  0  0  0  0  0  0  0  0  0
  -29.4948   -8.9565   -7.4295 C   0  0  0  0  0  0  0  0  0  0  0  0
  -29.7052   -9.7856   -8.5443 C   0  0  0  0  0  0  0  0  0  0  0  0
  -28.6155  -10.3920   -9.2098 C   0  0  0  0  0  0  0  0  0  0  0  0
  -25.4986  -11.6325   -8.8783 C   0  0  0  0  0  0  0  0  0  0  0  0
  -26.2380  -10.5794   -9.4967 O   0  0  0  0  0  0  0  0  0  0  0  0
  -30.9652  -10.0967   -9.0083 O   0  0  0  0  0  0  0  0  0  0  0  0
  -31.7019  -11.0193   -8.2137 C   0  0  0  0  0  0  0  0  0  0  0  0
  -28.9456  -11.1994  -10.2748 O   0  0  0  0  0  0  0  0  0  0  0  0
  -28.8837  -10.6081  -11.5672 C   0  0  0  0  0  0  0  0  0  0  0  0
  -30.4054   -3.7354   -5.7496 N   0  0  0  0  0  0  0  0  0  0  0  0
  -31.3155   -3.3870   -5.4111 H   0  0  0  0  0  0  0  0  0  0  0  0
  -29.4685   -2.6537   -5.8058 C   0  0  0  0  0  0  0  0  0  0  0  0
  -29.3554   -1.7962   -4.6961 C   0  0  0  0  0  0  0  0  0  0  0  0
  -28.4763   -0.7132   -4.6907 C   0  0  0  0  0  0  0  0  0  0  0  0
  -27.6549   -0.4829   -5.7875 C   0  0  0  0  0  0  0  0  0  0  0  0
  -27.7017   -1.3465   -6.8826 C   0  0  0  0  0  0  0  0  0  0  0  0
  -28.5901   -2.4401   -6.8980 C   0  0  0  0  0  0  0  0  0  0  0  0
  -28.6913   -3.2920   -8.1191 C   0  0  0  0  0  0  0  0  0  0  0  0
  -27.5533   -3.5270   -8.8469 N   0  0  0  0  0  0  0  0  0  0  0  0
  -29.7662   -3.7606   -8.4697 O   0  0  0  0  0  0  0  0  0  0  0  0
  -26.6217   -3.2877   -8.5407 H   0  0  0  0  0  0  0  0  0  0  0  0
  -27.6401   -4.1375   -9.6494 H   0  0  0  0  0  0  0  0  0  0  0  0
 18 19  1  0  0  0
 19 12  1  0  0  0
 12 13  1  0  0  0
 12 17  2  0  0  0
 13 14  2  0  0  0
 14 10  1  0  0  0
 14 15  1  0  0  0
 10  1  1  0  0  0
 10 11  1  0  0  0
  1  2  1  0  0  0
  1  6  2  0  0  0
  2  3  2  0  0  0
  3  4  1  0  0  0
  4  7  1  0  0  0
  4  5  2  0  0  0
  7  8  2  0  0  0
  7  9  1  0  0  0
  5 24  1  0  0  0
  5  6  1  0  0  0
 24 26  1  0  0  0
 24 25  1  0  0  0
 26 27  1  0  0  0
 26 31  2  0  0  0
 27 28  2  0  0  0
 28 29  1  0  0  0
 29 30  2  0  0  0
 30 31  1  0  0  0
 31 32  1  0  0  0
 32 33  1  0  0  0
 32 34  2  0  0  0
 33 35  1  0  0  0
 33 36  1  0  0  0
 15 16  2  0  0  0
 16 20  1  0  0  0
 16 17  1  0  0  0
 20 21  1  0  0  0
 17 22  1  0  0  0
 22 23  1  0  0  0
M  CHG 1   7   1
M  CHG 1   9  -1
M  END
> <minimizedAffinity>
-7.88543

$$$$
