CHEMBL3671484


 40 43  0  0  0  0  0  0  0  0999 V2000
  -13.6932   -1.9937  -13.6650 C   0  0  0  0  0  0  0  0  0  0  0  0
  -13.7674   -3.3864  -13.7330 C   0  0  0  0  0  0  0  0  0  0  0  0
  -14.7503   -4.1326  -13.0644 C   0  0  0  0  0  0  0  0  0  0  0  0
  -14.7742   -5.5304  -13.0365 C   0  0  0  0  0  0  0  0  0  0  0  0
  -15.7837   -6.1856  -12.4298 N   0  0  0  0  0  0  0  0  0  0  0  0
  -16.7032   -5.4492  -11.8000 C   0  0  0  0  0  0  0  0  0  0  0  0
  -16.7223   -4.1195  -11.7066 N   0  0  0  0  0  0  0  0  0  0  0  0
  -15.7454   -3.4694  -12.3453 C   0  0  0  0  0  0  0  0  0  0  0  0
  -15.6867   -2.0823  -12.2792 C   0  0  0  0  0  0  0  0  0  0  0  0
  -14.6867   -1.3206  -12.9187 C   0  0  0  0  0  0  0  0  0  0  0  0
  -11.5643   -0.7049  -13.5766 C   0  0  0  0  0  0  0  0  0  0  0  0
  -11.3393   -0.7258  -12.3777 O   0  0  0  0  0  0  0  0  0  0  0  0
  -12.5543   -1.3814  -14.2522 N   0  0  0  0  0  0  0  0  0  0  0  0
  -12.4693   -1.3903  -15.2503 H   0  0  0  0  0  0  0  0  0  0  0  0
  -10.9231    0.0396  -15.8109 C   0  0  0  0  0  0  0  0  0  0  0  0
  -10.6971    0.1001  -14.4951 C   0  0  0  0  0  0  0  0  0  0  0  0
  -13.6597   -6.2771  -13.5166 N   0  0  0  0  0  0  0  0  0  0  0  0
  -12.7695   -5.8343  -13.3153 H   0  0  0  0  0  0  0  0  0  0  0  0
  -13.6036   -7.0612  -14.6878 C   0  0  0  0  0  0  0  0  0  0  0  0
  -13.8310   -6.5194  -15.9564 C   0  0  0  0  0  0  0  0  0  0  0  0
  -13.6456   -7.2746  -17.1135 C   0  0  0  0  0  0  0  0  0  0  0  0
  -13.2945   -8.6141  -17.0068 C   0  0  0  0  0  0  0  0  0  0  0  0
  -12.9499   -9.6078  -18.5778 Br  0  0  0  0  0  0  0  0  0  0  0  0
  -13.1838   -9.2171  -15.7573 C   0  0  0  0  0  0  0  0  0  0  0  0
  -13.3445   -8.4380  -14.6115 C   0  0  0  0  0  0  0  0  0  0  0  0
  -13.2187   -9.0229  -13.4112 F   0  0  0  0  0  0  0  0  0  0  0  0
  -14.8908    0.0273  -12.7146 O   0  0  0  0  0  0  0  0  0  0  0  0
  -16.0368    0.6031  -13.3077 C   0  0  0  0  0  0  0  0  0  0  0  0
  -16.1040    0.4494  -14.8314 C   0  0  0  0  0  0  0  0  0  0  0  0
  -14.6958    0.6829  -15.4021 C   0  0  0  0  0  0  0  0  0  0  0  0
  -14.2444    2.1320  -15.2295 C   0  0  0  0  0  0  0  0  0  0  0  0
  -15.2158    3.0602  -15.7983 N   0  0  0  0  0  0  0  0  0  0  0  0
  -14.8546    4.2167  -16.4899 C   0  0  0  0  0  0  0  0  0  0  0  0
  -15.6921    4.9805  -16.9765 O   0  0  0  0  0  0  0  0  0  0  0  0
  -16.6150    2.8872  -15.3952 C   0  0  0  0  0  0  0  0  0  0  0  0
  -17.0810    1.4328  -15.4938 C   0  0  0  0  0  0  0  0  0  0  0  0
  -13.3560    4.5526  -16.5984 C   0  0  0  0  0  0  0  0  0  0  0  0
  -12.9178    5.5058  -15.5532 N   0  0  0  0  0  0  0  0  0  0  0  0
  -11.9265    4.8814  -14.6714 C   0  0  0  0  0  0  0  0  0  0  0  0
  -12.3390    6.6945  -16.1845 C   0  0  0  0  0  0  0  0  0  0  0  0
 15 16  2  0  0  0
 16 11  1  0  0  0
 11 12  2  0  0  0
 11 13  1  0  0  0
 13  1  1  0  0  0
 13 14  1  0  0  0
  1  2  1  0  0  0
  1 10  2  0  0  0
  2  3  2  0  0  0
  3  4  1  0  0  0
  3  8  1  0  0  0
  4 17  1  0  0  0
  4  5  2  0  0  0
 17 19  1  0  0  0
 17 18  1  0  0  0
 19 20  1  0  0  0
 19 25  2  0  0  0
 20 21  2  0  0  0
 21 22  1  0  0  0
 22 23  1  0  0  0
 22 24  2  0  0  0
 24 25  1  0  0  0
 25 26  1  0  0  0
  5  6  1  0  0  0
  6  7  2  0  0  0
  7  8  1  0  0  0
  8  9  2  0  0  0
  9 10  1  0  0  0
 10 27  1  0  0  0
 27 28  1  0  0  0
 28 29  1  0  0  0
 29 30  1  0  0  0
 29 36  1  0  0  0
 30 31  1  0  0  0
 31 32  1  0  0  0
 32 33  1  0  0  0
 32 35  1  0  0  0
 33 34  2  0  0  0
 33 37  1  0  0  0
 37 38  1  0  0  0
 38 39  1  0  0  0
 38 40  1  0  0  0
 35 36  1  0  0  0
M  END
> <minimizedAffinity>
-7.18696

$$$$
