CHEMBL360534


 22 25  0  0  0  0  0  0  0  0999 V2000
  -29.1307   -3.0903   -6.0021 C   0  0  0  0  0  0  0  0  0  0  0  0
  -28.9884   -2.4398   -4.8329 N   0  0  0  0  0  0  0  0  0  0  0  0
  -28.2496   -1.3165   -4.7977 C   0  0  0  0  0  0  0  0  0  0  0  0
  -27.6012   -0.7285   -5.8114 N   0  0  0  0  0  0  0  0  0  0  0  0
  -27.7644   -1.4097   -6.9529 C   0  0  0  0  0  0  0  0  0  0  0  0
  -27.2010   -1.0306   -8.1355 O   0  0  0  0  0  0  0  0  0  0  0  0
  -27.5606   -1.9517   -9.0795 C   0  0  0  0  0  0  0  0  0  0  0  0
  -28.3663   -2.9140   -8.5023 C   0  0  0  0  0  0  0  0  0  0  0  0
  -28.4961   -2.5729   -7.1330 C   0  0  0  0  0  0  0  0  0  0  0  0
  -27.0253   -1.7686  -10.4258 C   0  0  0  0  0  0  0  0  0  0  0  0
  -25.6719   -1.4812  -10.6507 C   0  0  0  0  0  0  0  0  0  0  0  0
  -25.1722   -1.3695  -11.9523 C   0  0  0  0  0  0  0  0  0  0  0  0
  -26.0199   -1.5388  -13.0449 C   0  0  0  0  0  0  0  0  0  0  0  0
  -27.3704   -1.7996  -12.8401 C   0  0  0  0  0  0  0  0  0  0  0  0
  -27.8690   -1.9104  -11.5395 C   0  0  0  0  0  0  0  0  0  0  0  0
  -28.2785   -5.8635   -5.5942 O   0  0  0  0  0  0  0  0  0  0  0  0
  -29.4110   -5.5339   -5.9105 C   0  0  0  0  0  0  0  0  0  0  0  0
  -29.8892   -4.2628   -6.1166 N   0  0  0  0  0  0  0  0  0  0  0  0
  -30.8616   -4.1553   -6.3564 H   0  0  0  0  0  0  0  0  0  0  0  0
  -30.4656   -6.5846   -6.0852 C   0  0  0  0  0  0  0  0  0  0  0  0
  -30.0477   -8.0070   -6.3801 C   0  0  0  0  0  0  0  0  0  0  0  0
  -30.7178   -7.1916   -7.4469 C   0  0  0  0  0  0  0  0  0  0  0  0
 16 17  2  0  0  0
 17 18  1  0  0  0
 17 20  1  0  0  0
 18  1  1  0  0  0
 18 19  1  0  0  0
  1  2  1  0  0  0
  1  9  2  0  0  0
  2  3  2  0  0  0
  3  4  1  0  0  0
  4  5  2  0  0  0
  5  6  1  0  0  0
  5  9  1  0  0  0
  6  7  1  0  0  0
  7 10  1  0  0  0
  7  8  2  0  0  0
 10 11  1  0  0  0
 10 15  2  0  0  0
 11 12  2  0  0  0
 12 13  1  0  0  0
 13 14  2  0  0  0
 14 15  1  0  0  0
  8  9  1  0  0  0
 20 21  1  0  0  0
 20 22  1  0  0  0
 21 22  1  0  0  0
M  END
> <minimizedAffinity>
-8.14499

$$$$
