CHEMBL4242522


 20 22  0  0  0  0  0  0  0  0999 V2000
  -16.9573    2.6559  -15.5059 N   0  0  0  0  0  0  0  0  0  0  0  0
  -16.6516    4.0358  -15.8865 C   0  0  0  0  0  0  0  0  0  0  0  0
  -15.8909    1.7774  -15.8225 C   0  0  0  0  0  0  0  0  0  0  0  0
  -15.4023    1.8221  -17.1002 N   0  0  0  0  0  0  0  0  0  0  0  0
  -14.3763    1.0367  -17.4631 C   0  0  0  0  0  0  0  0  0  0  0  0
  -13.7308    0.1514  -16.7120 N   0  0  0  0  0  0  0  0  0  0  0  0
  -14.2493    0.0833  -15.4812 C   0  0  0  0  0  0  0  0  0  0  0  0
  -13.7655   -0.7879  -14.5599 O   0  0  0  0  0  0  0  0  0  0  0  0
  -14.5217   -0.6664  -13.4534 C   0  0  0  0  0  0  0  0  0  0  0  0
  -15.5151    0.2795  -13.6258 C   0  0  0  0  0  0  0  0  0  0  0  0
  -16.5479    0.5749  -12.6119 C   0  0  0  0  0  0  0  0  0  0  0  0
  -15.3105    0.8179  -14.9521 C   0  0  0  0  0  0  0  0  0  0  0  0
  -20.9218    1.5977  -14.4076 C   0  0  0  0  0  0  0  0  0  0  0  0
  -20.0759    0.6549  -14.9996 C   0  0  0  0  0  0  0  0  0  0  0  0
  -18.7875    1.0110  -15.4182 C   0  0  0  0  0  0  0  0  0  0  0  0
  -18.2869    2.3064  -15.2221 C   0  0  0  0  0  0  0  0  0  0  0  0
  -19.1635    3.2570  -14.6672 C   0  0  0  0  0  0  0  0  0  0  0  0
  -20.4605    2.9107  -14.2630 C   0  0  0  0  0  0  0  0  0  0  0  0
  -22.5097   -0.3088  -13.9205 C   0  0  0  0  0  0  0  0  0  0  0  0
  -22.2899    1.1984  -13.9157 C   0  0  0  0  0  0  0  0  0  0  0  0
 19 20  1  0  0  0
 20 13  1  0  0  0
 13 14  1  0  0  0
 13 18  2  0  0  0
 14 15  2  0  0  0
 15 16  1  0  0  0
 16  1  1  0  0  0
 16 17  2  0  0  0
  1  2  1  0  0  0
  1  3  1  0  0  0
  3  4  1  0  0  0
  3 12  2  0  0  0
  4  5  2  0  0  0
  5  6  1  0  0  0
  6  7  2  0  0  0
  7  8  1  0  0  0
  7 12  1  0  0  0
  8  9  1  0  0  0
  9 10  2  0  0  0
 10 11  1  0  0  0
 10 12  1  0  0  0
 17 18  1  0  0  0
M  END
> <minimizedAffinity>
-7.11823

$$$$
