CHEMBL1163016


 40 44  0  0  0  0  0  0  0  0999 V2000
  -28.2324   -3.4069   -7.5889 C   0  0  0  0  0  0  0  0  0  0  0  0
  -28.0857   -2.3584   -6.6728 C   0  0  0  0  0  0  0  0  0  0  0  0
  -27.7421   -1.0753   -7.1223 C   0  0  0  0  0  0  0  0  0  0  0  0
  -27.5064   -0.8593   -8.4813 C   0  0  0  0  0  0  0  0  0  0  0  0
  -27.5997   -1.9096   -9.4058 C   0  0  0  0  0  0  0  0  0  0  0  0
  -27.9997   -3.1763   -8.9534 C   0  0  0  0  0  0  0  0  0  0  0  0
  -27.2200   -1.7054  -10.8039 C   0  0  0  0  0  0  0  0  0  0  0  0
  -27.9814   -2.0502  -11.9422 C   0  0  0  0  0  0  0  0  0  0  0  0
  -27.2117   -1.7176  -13.0290 C   0  0  0  0  0  0  0  0  0  0  0  0
  -27.4590   -1.8360  -14.3655 N   0  0  0  0  0  0  0  0  0  0  0  0
  -26.4844   -1.4821  -15.1501 C   0  0  0  0  0  0  0  0  0  0  0  0
  -25.1661   -0.9752  -14.7240 C   0  0  0  0  0  0  0  0  0  0  0  0
  -24.9592   -0.8289  -13.3999 C   0  0  0  0  0  0  0  0  0  0  0  0
  -26.0062   -1.2209  -12.5174 N   0  0  0  0  0  0  0  0  0  0  0  0
  -26.0319   -1.1774  -11.1532 N   0  0  0  0  0  0  0  0  0  0  0  0
  -23.7555   -0.3661  -12.8618 N   0  0  0  0  0  0  0  0  0  0  0  0
  -23.8452   -0.0888  -11.8813 H   0  0  0  0  0  0  0  0  0  0  0  0
  -22.7898    0.4097  -13.5534 C   0  0  0  0  0  0  0  0  0  0  0  0
  -21.6698   -0.1487  -14.1901 C   0  0  0  0  0  0  0  0  0  0  0  0
  -20.6881    0.6543  -14.7810 C   0  0  0  0  0  0  0  0  0  0  0  0
  -20.8118    2.0392  -14.7540 C   0  0  0  0  0  0  0  0  0  0  0  0
  -21.9235    2.6041  -14.1412 C   0  0  0  0  0  0  0  0  0  0  0  0
  -22.0989    3.9574  -14.1201 O   0  0  0  0  0  0  0  0  0  0  0  0
  -22.8925    1.8066  -13.5298 C   0  0  0  0  0  0  0  0  0  0  0  0
  -21.4540    4.3589  -14.7254 H   0  0  0  0  0  0  0  0  0  0  0  0
  -28.3820   -5.7919   -8.0712 N   0  0  0  0  0  0  0  0  0  0  0  0
  -28.5114   -4.7970   -7.1280 C   0  0  0  0  0  0  0  0  0  0  0  0
  -28.8512   -4.9851   -5.9612 O   0  0  0  0  0  0  0  0  0  0  0  0
  -27.8881   -5.6127   -8.9295 H   0  0  0  0  0  0  0  0  0  0  0  0
  -27.6020  -10.1646   -7.3910 C   0  0  0  0  0  0  0  0  0  0  0  0
  -28.4383   -9.6180   -8.5766 C   0  0  0  0  0  0  0  0  0  0  0  0
  -27.9547  -10.3844   -9.8442 C   0  0  0  0  0  0  0  0  0  0  0  0
  -28.0800   -8.1275   -8.8252 C   0  0  0  0  0  0  0  0  0  0  0  0
  -28.6827   -7.1958   -7.7782 C   0  0  0  0  0  0  0  0  0  0  0  0
  -30.2010   -7.3954   -7.7042 C   0  0  0  0  0  0  0  0  0  0  0  0
  -30.5888   -8.8672   -7.4100 C   0  0  0  0  0  0  0  0  0  0  0  0
  -30.2730   -9.1889   -5.9262 C   0  0  0  0  0  0  0  0  0  0  0  0
  -32.1380   -8.9450   -7.5599 C   0  0  0  0  0  0  0  0  0  0  0  0
  -29.9190   -9.7081   -8.4391 N   0  0  0  0  0  0  0  0  0  0  0  0
  -30.3052  -11.0427   -8.2870 O   0  0  0  0  0  0  0  0  0  0  0  0
 30 31  1  0  0  0
 31 32  1  0  0  0
 31 33  1  0  0  0
 31 39  1  0  0  0
 33 34  1  0  0  0
 34 26  1  0  0  0
 34 35  1  0  0  0
 26 27  1  0  0  0
 26 29  1  0  0  0
 27 28  2  0  0  0
 27  1  1  0  0  0
  1  2  1  0  0  0
  1  6  2  0  0  0
  2  3  2  0  0  0
  3  4  1  0  0  0
  4  5  2  0  0  0
  5  7  1  0  0  0
  5  6  1  0  0  0
  7  8  1  0  0  0
  7 15  2  0  0  0
  8  9  2  0  0  0
  9 10  1  0  0  0
  9 14  1  0  0  0
 10 11  2  0  0  0
 11 12  1  0  0  0
 12 13  2  0  0  0
 13 16  1  0  0  0
 13 14  1  0  0  0
 16 18  1  0  0  0
 16 17  1  0  0  0
 18 19  1  0  0  0
 18 24  2  0  0  0
 19 20  2  0  0  0
 20 21  1  0  0  0
 21 22  2  0  0  0
 22 23  1  0  0  0
 22 24  1  0  0  0
 23 25  1  0  0  0
 14 15  1  0  0  0
 35 36  1  0  0  0
 36 37  1  0  0  0
 36 38  1  0  0  0
 36 39  1  0  0  0
 39 40  1  0  0  0
M  END
> <minimizedAffinity>
-10.91858

$$$$
