CHEMBL3690506


 38 42  0  0  0  0  0  0  0  0999 V2000
  -29.8246   -3.9943   -4.6920 C   0  0  0  0  0  0  0  0  0  0  0  0
  -31.0181   -4.1255   -3.9988 C   0  0  0  0  0  0  0  0  0  0  0  0
  -31.5778   -5.3611   -4.1705 N   0  0  0  0  0  0  0  0  0  0  0  0
  -30.7635   -5.9898   -4.9880 C   0  0  0  0  0  0  0  0  0  0  0  0
  -30.9375   -7.1965   -5.7201 C   0  0  0  0  0  0  0  0  0  0  0  0
  -29.9838   -7.6076   -6.5854 C   0  0  0  0  0  0  0  0  0  0  0  0
  -28.7028   -6.9039   -6.6562 C   0  0  0  0  0  0  0  0  0  0  0  0
  -28.5582   -5.7354   -6.0158 C   0  0  0  0  0  0  0  0  0  0  0  0
  -29.6111   -5.2482   -5.2416 N   0  0  0  0  0  0  0  0  0  0  0  0
  -28.1896   -1.3533   -6.7953 C   0  0  0  0  0  0  0  0  0  0  0  0
  -27.5856   -0.6108   -5.7863 C   0  0  0  0  0  0  0  0  0  0  0  0
  -27.7171   -0.8837   -4.4620 N   0  0  0  0  0  0  0  0  0  0  0  0
  -28.4852   -1.9448   -4.1283 C   0  0  0  0  0  0  0  0  0  0  0  0
  -29.0923   -2.7849   -5.0522 C   0  0  0  0  0  0  0  0  0  0  0  0
  -28.9308   -2.4687   -6.4071 C   0  0  0  0  0  0  0  0  0  0  0  0
  -27.1207   -2.9735   -9.0143 O   0  0  0  0  0  0  0  0  0  0  0  0
  -27.5769   -1.8500   -9.1540 C   0  0  0  0  0  0  0  0  0  0  0  0
  -27.6035   -1.2148  -10.3764 N   0  0  0  0  0  0  0  0  0  0  0  0
  -28.1308   -1.0631   -8.1732 N   0  0  0  0  0  0  0  0  0  0  0  0
  -27.5452   -0.2066  -10.3452 H   0  0  0  0  0  0  0  0  0  0  0  0
  -28.5227   -0.1822   -8.4713 H   0  0  0  0  0  0  0  0  0  0  0  0
  -26.9432   -1.8558  -11.5177 C   0  0  0  0  0  0  0  0  0  0  0  0
  -25.5436   -1.3193  -11.8501 C   0  0  0  0  0  0  0  0  0  0  0  0
  -25.0571   -1.8518  -12.9957 F   0  0  0  0  0  0  0  0  0  0  0  0
  -25.5224    0.0232  -11.9666 F   0  0  0  0  0  0  0  0  0  0  0  0
  -24.6746   -1.6571  -10.8648 F   0  0  0  0  0  0  0  0  0  0  0  0
  -30.2415   -8.6241   -7.5373 C   0  0  0  0  0  0  0  0  0  0  0  0
  -31.3931   -9.3920   -7.7403 C   0  0  0  0  0  0  0  0  0  0  0  0
  -31.2152  -10.2933   -8.7071 N   0  0  0  0  0  0  0  0  0  0  0  0
  -29.9392  -10.1140   -9.1070 N   0  0  0  0  0  0  0  0  0  0  0  0
  -29.3179   -9.0951   -8.4427 C   0  0  0  0  0  0  0  0  0  0  0  0
  -29.3287  -10.9898  -10.1026 C   0  0  0  0  0  0  0  0  0  0  0  0
  -28.3883  -12.0303   -9.4887 C   0  0  0  0  0  0  0  0  0  0  0  0
  -27.0287  -11.4329   -9.1224 C   0  0  0  0  0  0  0  0  0  0  0  0
  -26.4084  -10.7396  -10.2485 N   0  0  0  0  0  0  0  0  0  0  0  0
  -27.2658   -9.6743  -10.7707 C   0  0  0  0  0  0  0  0  0  0  0  0
  -28.6298  -10.2014  -11.2130 C   0  0  0  0  0  0  0  0  0  0  0  0
  -26.1974  -11.4057  -10.9880 H   0  0  0  0  0  0  0  0  0  0  0  0
 16 17  2  0  0  0
 17 18  1  0  0  0
 17 19  1  0  0  0
 18 22  1  0  0  0
 18 20  1  0  0  0
 22 23  1  0  0  0
 23 24  1  0  0  0
 23 25  1  0  0  0
 23 26  1  0  0  0
 19 10  1  0  0  0
 19 21  1  0  0  0
 10 11  1  0  0  0
 10 15  2  0  0  0
 11 12  2  0  0  0
 12 13  1  0  0  0
 13 14  2  0  0  0
 14  1  1  0  0  0
 14 15  1  0  0  0
  1  2  2  0  0  0
  1  9  1  0  0  0
  2  3  1  0  0  0
  3  4  2  0  0  0
  4  5  1  0  0  0
  4  9  1  0  0  0
  5  6  2  0  0  0
  6 27  1  0  0  0
  6  7  1  0  0  0
 27 28  1  0  0  0
 27 31  2  0  0  0
 28 29  2  0  0  0
 29 30  1  0  0  0
 30 32  1  0  0  0
 30 31  1  0  0  0
 32 33  1  0  0  0
 32 37  1  0  0  0
 33 34  1  0  0  0
 34 35  1  0  0  0
 35 36  1  0  0  0
 35 38  1  0  0  0
 36 37  1  0  0  0
  7  8  2  0  0  0
  8  9  1  0  0  0
M  END
> <minimizedAffinity>
-10.35979

$$$$
