CHEMBL518174


 42 46  0  0  0  0  0  0  0  0999 V2000
  -14.5183   -0.1112  -16.1988 N   0  0  0  0  0  0  0  0  0  0  0  0
  -13.7872   -0.4670  -15.0749 C   0  0  0  0  0  0  0  0  0  0  0  0
  -12.8263    0.1605  -14.6412 O   0  0  0  0  0  0  0  0  0  0  0  0
  -15.1989   -0.7872  -16.5468 H   0  0  0  0  0  0  0  0  0  0  0  0
  -14.2023    3.5228  -18.4018 C   0  0  0  0  0  0  0  0  0  0  0  0
  -13.3153    2.4797  -18.6494 C   0  0  0  0  0  0  0  0  0  0  0  0
  -13.4345    1.2736  -17.9493 C   0  0  0  0  0  0  0  0  0  0  0  0
  -14.3751    1.1029  -16.9270 C   0  0  0  0  0  0  0  0  0  0  0  0
  -15.1912    2.1913  -16.6061 C   0  0  0  0  0  0  0  0  0  0  0  0
  -15.1057    3.3815  -17.3446 C   0  0  0  0  0  0  0  0  0  0  0  0
  -15.9379    4.3883  -17.0390 F   0  0  0  0  0  0  0  0  0  0  0  0
  -14.2834    4.6746  -19.1564 O   0  0  0  0  0  0  0  0  0  0  0  0
  -14.6420    9.8033  -19.8369 C   0  0  0  0  0  0  0  0  0  0  0  0
  -15.4277    8.7651  -20.3122 C   0  0  0  0  0  0  0  0  0  0  0  0
  -15.1795    7.4655  -19.8877 C   0  0  0  0  0  0  0  0  0  0  0  0
  -14.0694    7.1537  -19.0687 C   0  0  0  0  0  0  0  0  0  0  0  0
  -13.6688    5.8392  -18.7237 C   0  0  0  0  0  0  0  0  0  0  0  0
  -12.6092    5.6483  -17.8444 C   0  0  0  0  0  0  0  0  0  0  0  0
  -11.9428    6.7652  -17.3846 C   0  0  0  0  0  0  0  0  0  0  0  0
  -12.2445    8.0225  -17.7526 N   0  0  0  0  0  0  0  0  0  0  0  0
  -13.2806    8.2196  -18.5782 C   0  0  0  0  0  0  0  0  0  0  0  0
  -13.5813    9.5179  -18.9745 C   0  0  0  0  0  0  0  0  0  0  0  0
  -16.1899   11.5210  -20.2750 C   0  0  0  0  0  0  0  0  0  0  0  0
  -14.8223   11.1199  -20.1661 O   0  0  0  0  0  0  0  0  0  0  0  0
  -14.2238   -1.6911  -14.3724 C   0  0  0  0  0  0  0  0  0  0  0  0
  -14.9927   -1.7727  -13.2643 C   0  0  0  0  0  0  0  0  0  0  0  0
  -15.6212   -0.6410  -12.5043 C   0  0  0  0  0  0  0  0  0  0  0  0
  -15.2012   -3.0987  -12.8866 N   0  0  0  0  0  0  0  0  0  0  0  0
  -14.7087   -3.9197  -13.9292 N   0  0  0  0  0  0  0  0  0  0  0  0
  -13.9109   -3.0969  -14.7400 C   0  0  0  0  0  0  0  0  0  0  0  0
  -13.1183   -3.3985  -15.6213 O   0  0  0  0  0  0  0  0  0  0  0  0
  -14.4379   -5.2821  -13.6977 C   0  0  0  0  0  0  0  0  0  0  0  0
  -13.2330   -5.7252  -13.1465 C   0  0  0  0  0  0  0  0  0  0  0  0
  -13.0317   -7.0917  -12.9239 C   0  0  0  0  0  0  0  0  0  0  0  0
  -14.0195   -8.0159  -13.2725 C   0  0  0  0  0  0  0  0  0  0  0  0
  -15.2159   -7.5760  -13.8363 C   0  0  0  0  0  0  0  0  0  0  0  0
  -15.4260   -6.2121  -14.0436 C   0  0  0  0  0  0  0  0  0  0  0  0
  -16.0865   -3.6172  -11.8439 C   0  0  0  0  0  0  0  0  0  0  0  0
  -15.3750   -3.7306  -10.4792 C   0  0  0  0  0  0  0  0  0  0  0  0
  -13.8644   -3.5319  -10.5552 C   0  0  0  0  0  0  0  0  0  0  0  0
  -15.9205   -2.7726   -9.5627 O   0  0  0  0  0  0  0  0  0  0  0  0
  -15.4786   -1.9178   -9.7053 H   0  0  0  0  0  0  0  0  0  0  0  0
 23 24  1  0  0  0
 24 13  1  0  0  0
 13 14  1  0  0  0
 13 22  2  0  0  0
 14 15  2  0  0  0
 15 16  1  0  0  0
 16 17  1  0  0  0
 16 21  2  0  0  0
 17 12  1  0  0  0
 17 18  2  0  0  0
 12  5  1  0  0  0
  5  6  1  0  0  0
  5 10  2  0  0  0
  6  7  2  0  0  0
  7  8  1  0  0  0
  8  1  1  0  0  0
  8  9  2  0  0  0
  1  2  1  0  0  0
  1  4  1  0  0  0
  2  3  2  0  0  0
  2 25  1  0  0  0
 25 26  2  0  0  0
 25 30  1  0  0  0
 26 27  1  0  0  0
 26 28  1  0  0  0
 28 38  1  0  0  0
 28 29  1  0  0  0
 38 39  1  0  0  0
 39 40  1  0  0  0
 39 41  1  0  0  0
 41 42  1  0  0  0
 29 32  1  0  0  0
 29 30  1  0  0  0
 32 33  1  0  0  0
 32 37  2  0  0  0
 33 34  2  0  0  0
 34 35  1  0  0  0
 35 36  2  0  0  0
 36 37  1  0  0  0
 30 31  2  0  0  0
  9 10  1  0  0  0
 10 11  1  0  0  0
 18 19  1  0  0  0
 19 20  2  0  0  0
 20 21  1  0  0  0
 21 22  1  0  0  0
M  END
> <minimizedAffinity>
-7.36923

$$$$
