CHEMBL196705


 31 34  0  0  0  0  0  0  0  0999 V2000
  -26.4593   -2.0418  -10.7362 C   0  0  0  0  0  0  0  0  0  0  0  0
  -25.2866   -1.5858  -10.2493 N   0  0  0  0  0  0  0  0  0  0  0  0
  -24.3999   -0.9070  -11.0376 N   0  0  0  0  0  0  0  0  0  0  0  0
  -24.6289   -0.7439  -12.3599 C   0  0  0  0  0  0  0  0  0  0  0  0
  -25.8027   -1.2713  -12.9520 C   0  0  0  0  0  0  0  0  0  0  0  0
  -26.0831   -1.2276  -14.3423 C   0  0  0  0  0  0  0  0  0  0  0  0
  -27.3014   -1.6433  -14.8815 C   0  0  0  0  0  0  0  0  0  0  0  0
  -28.2615   -2.1812  -14.0478 C   0  0  0  0  0  0  0  0  0  0  0  0
  -27.9856   -2.3350  -12.6897 C   0  0  0  0  0  0  0  0  0  0  0  0
  -26.7631   -1.8956  -12.1102 C   0  0  0  0  0  0  0  0  0  0  0  0
  -23.5683    0.0478  -13.0385 C   0  0  0  0  0  0  0  0  0  0  0  0
  -23.6379    1.4562  -13.0700 C   0  0  0  0  0  0  0  0  0  0  0  0
  -22.6692    2.2292  -13.7230 C   0  0  0  0  0  0  0  0  0  0  0  0
  -21.5802    1.6136  -14.3397 C   0  0  0  0  0  0  0  0  0  0  0  0
  -21.4958    0.2200  -14.3463 C   0  0  0  0  0  0  0  0  0  0  0  0
  -22.4981   -0.5450  -13.7350 C   0  0  0  0  0  0  0  0  0  0  0  0
  -20.5719    2.4597  -15.0294 C   0  0  0  0  0  0  0  0  0  0  0  0
  -19.3454    1.9029  -15.2711 N   0  0  0  0  0  0  0  0  0  0  0  0
  -20.8116    3.6166  -15.3450 O   0  0  0  0  0  0  0  0  0  0  0  0
  -19.0320    1.0589  -14.8163 H   0  0  0  0  0  0  0  0  0  0  0  0
  -18.6438    2.5239  -15.6511 H   0  0  0  0  0  0  0  0  0  0  0  0
  -27.3240   -2.7753   -9.8677 N   0  0  0  0  0  0  0  0  0  0  0  0
  -28.1743   -3.0207  -10.3628 H   0  0  0  0  0  0  0  0  0  0  0  0
  -29.0966   -0.7862   -4.7759 C   0  0  0  0  0  0  0  0  0  0  0  0
  -28.6628   -1.2987   -6.1153 C   0  0  0  0  0  0  0  0  0  0  0  0
  -28.0857   -0.4421   -7.0503 C   0  0  0  0  0  0  0  0  0  0  0  0
  -27.6409   -0.9394   -8.2744 C   0  0  0  0  0  0  0  0  0  0  0  0
  -27.7314   -2.3068   -8.5852 C   0  0  0  0  0  0  0  0  0  0  0  0
  -28.3798   -3.1646   -7.6786 C   0  0  0  0  0  0  0  0  0  0  0  0
  -28.5920   -4.6297   -7.9468 C   0  0  0  0  0  0  0  0  0  0  0  0
  -28.8246   -2.6508   -6.4443 C   0  0  0  0  0  0  0  0  0  0  0  0
 24 25  1  0  0  0
 25 26  1  0  0  0
 25 31  2  0  0  0
 26 27  2  0  0  0
 27 28  1  0  0  0
 28 22  1  0  0  0
 28 29  2  0  0  0
 22  1  1  0  0  0
 22 23  1  0  0  0
  1  2  1  0  0  0
  1 10  2  0  0  0
  2  3  2  0  0  0
  3  4  1  0  0  0
  4 11  1  0  0  0
  4  5  2  0  0  0
 11 12  1  0  0  0
 11 16  2  0  0  0
 12 13  2  0  0  0
 13 14  1  0  0  0
 14 17  1  0  0  0
 14 15  2  0  0  0
 17 18  1  0  0  0
 17 19  2  0  0  0
 18 20  1  0  0  0
 18 21  1  0  0  0
 15 16  1  0  0  0
  5  6  1  0  0  0
  5 10  1  0  0  0
  6  7  2  0  0  0
  7  8  1  0  0  0
  8  9  2  0  0  0
  9 10  1  0  0  0
 29 30  1  0  0  0
 29 31  1  0  0  0
M  END
> <minimizedAffinity>
-10.97709

$$$$
