CHEMBL3671540


 37 39  0  0  0  0  0  0  0  0999 V2000
  -29.3529   -7.3555   -7.6293 C   0  0  0  0  0  0  0  0  0  0  0  0
  -28.9442   -6.2733   -6.8430 C   0  0  0  0  0  0  0  0  0  0  0  0
  -29.7100   -5.8112   -5.7643 C   0  0  0  0  0  0  0  0  0  0  0  0
  -29.3392   -4.7338   -4.9446 C   0  0  0  0  0  0  0  0  0  0  0  0
  -30.1075   -4.3344   -3.9132 N   0  0  0  0  0  0  0  0  0  0  0  0
  -31.2516   -4.9939   -3.7290 C   0  0  0  0  0  0  0  0  0  0  0  0
  -31.6962   -6.0288   -4.4482 N   0  0  0  0  0  0  0  0  0  0  0  0
  -30.9160   -6.4397   -5.4535 C   0  0  0  0  0  0  0  0  0  0  0  0
  -31.2997   -7.5421   -6.2199 C   0  0  0  0  0  0  0  0  0  0  0  0
  -30.5167   -8.0495   -7.2732 C   0  0  0  0  0  0  0  0  0  0  0  0
  -27.7392   -8.7506   -8.8057 C   0  0  0  0  0  0  0  0  0  0  0  0
  -27.6059   -9.5851   -7.9181 O   0  0  0  0  0  0  0  0  0  0  0  0
  -28.5758   -7.6515   -8.7677 N   0  0  0  0  0  0  0  0  0  0  0  0
  -28.4911   -6.9635   -9.4951 H   0  0  0  0  0  0  0  0  0  0  0  0
  -27.1618   -9.8009  -10.9289 C   0  0  0  0  0  0  0  0  0  0  0  0
  -26.9395   -8.8130  -10.0549 C   0  0  0  0  0  0  0  0  0  0  0  0
  -28.1281   -4.0354   -5.2033 N   0  0  0  0  0  0  0  0  0  0  0  0
  -27.5412   -4.5983   -5.8180 H   0  0  0  0  0  0  0  0  0  0  0  0
  -28.0654   -2.6665   -5.5511 C   0  0  0  0  0  0  0  0  0  0  0  0
  -28.0365   -1.6758   -4.5594 C   0  0  0  0  0  0  0  0  0  0  0  0
  -28.0318   -0.3241   -4.9119 C   0  0  0  0  0  0  0  0  0  0  0  0
  -28.0447    0.0363   -6.2499 C   0  0  0  0  0  0  0  0  0  0  0  0
  -28.0684    1.3342   -6.5792 F   0  0  0  0  0  0  0  0  0  0  0  0
  -28.0395   -0.9248   -7.2524 C   0  0  0  0  0  0  0  0  0  0  0  0
  -28.0402   -2.2681   -6.8944 C   0  0  0  0  0  0  0  0  0  0  0  0
  -28.0383   -3.2009   -7.8604 F   0  0  0  0  0  0  0  0  0  0  0  0
  -31.0852   -9.1286   -7.9076 O   0  0  0  0  0  0  0  0  0  0  0  0
  -31.5776  -10.1719   -7.0679 C   0  0  0  0  0  0  0  0  0  0  0  0
  -30.6748  -11.4082   -7.1265 C   0  0  0  0  0  0  0  0  0  0  0  0
  -29.4124  -11.1799   -6.4374 N   0  0  0  0  0  0  0  0  0  0  0  0
  -29.3244  -11.3178   -5.0651 C   0  0  0  0  0  0  0  0  0  0  0  0
  -30.2443  -11.7511   -4.3760 O   0  0  0  0  0  0  0  0  0  0  0  0
  -28.6920  -10.6240   -6.8861 H   0  0  0  0  0  0  0  0  0  0  0  0
  -27.9991  -10.8443   -4.4590 C   0  0  0  0  0  0  0  0  0  0  0  0
  -27.8317   -9.3769   -4.6215 N   0  0  0  0  0  0  0  0  0  0  0  0
  -28.6457   -8.6482   -3.6379 C   0  0  0  0  0  0  0  0  0  0  0  0
  -26.4193   -9.0313   -4.4061 C   0  0  0  0  0  0  0  0  0  0  0  0
 15 16  2  0  0  0
 16 11  1  0  0  0
 11 12  2  0  0  0
 11 13  1  0  0  0
 13  1  1  0  0  0
 13 14  1  0  0  0
  1  2  1  0  0  0
  1 10  2  0  0  0
  2  3  2  0  0  0
  3  4  1  0  0  0
  3  8  1  0  0  0
  4 17  1  0  0  0
  4  5  2  0  0  0
 17 19  1  0  0  0
 17 18  1  0  0  0
 19 20  1  0  0  0
 19 25  2  0  0  0
 20 21  2  0  0  0
 21 22  1  0  0  0
 22 23  1  0  0  0
 22 24  2  0  0  0
 24 25  1  0  0  0
 25 26  1  0  0  0
  5  6  1  0  0  0
  6  7  2  0  0  0
  7  8  1  0  0  0
  8  9  2  0  0  0
  9 10  1  0  0  0
 10 27  1  0  0  0
 27 28  1  0  0  0
 28 29  1  0  0  0
 29 30  1  0  0  0
 30 31  1  0  0  0
 30 33  1  0  0  0
 31 32  2  0  0  0
 31 34  1  0  0  0
 34 35  1  0  0  0
 35 36  1  0  0  0
 35 37  1  0  0  0
M  END
> <minimizedAffinity>
-7.65093

$$$$
