CHEMBL2386806


 44 48  0  0  0  0  0  0  0  0999 V2000
  -26.1211   -1.4969  -11.2476 C   0  0  0  0  0  0  0  0  0  0  0  0
  -25.6471   -0.4594  -12.0100 C   0  0  0  0  0  0  0  0  0  0  0  0
  -24.2735   -0.7555  -12.2652 C   0  0  0  0  0  0  0  0  0  0  0  0
  -23.9368   -1.9312  -11.7101 N   0  0  0  0  0  0  0  0  0  0  0  0
  -25.0556   -2.3421  -11.0994 N   0  0  0  0  0  0  0  0  0  0  0  0
  -25.0647   -3.2203  -10.5891 H   0  0  0  0  0  0  0  0  0  0  0  0
  -23.2980    0.0371  -13.0198 C   0  0  0  0  0  0  0  0  0  0  0  0
  -22.2699   -0.5776  -13.7449 C   0  0  0  0  0  0  0  0  0  0  0  0
  -21.3259    0.1892  -14.4357 C   0  0  0  0  0  0  0  0  0  0  0  0
  -21.3820    1.5876  -14.4037 C   0  0  0  0  0  0  0  0  0  0  0  0
  -22.4381    2.2050  -13.7243 C   0  0  0  0  0  0  0  0  0  0  0  0
  -23.3796    1.4375  -13.0330 C   0  0  0  0  0  0  0  0  0  0  0  0
  -20.3421    2.4123  -15.1141 C   0  0  0  0  0  0  0  0  0  0  0  0
  -19.0200    1.9478  -14.8102 N   0  0  0  0  0  0  0  0  0  0  0  0
  -17.9106    2.3564  -15.4805 C   0  0  0  0  0  0  0  0  0  0  0  0
  -17.9390    3.1834  -16.3887 O   0  0  0  0  0  0  0  0  0  0  0  0
  -16.7157    1.8546  -15.0515 N   0  0  0  0  0  0  0  0  0  0  0  0
  -18.9093    1.2090  -14.1222 H   0  0  0  0  0  0  0  0  0  0  0  0
  -15.9043    2.2820  -15.4736 H   0  0  0  0  0  0  0  0  0  0  0  0
  -16.5213    0.8862  -14.0897 C   0  0  0  0  0  0  0  0  0  0  0  0
  -16.1246   -0.4449  -14.3443 C   0  0  0  0  0  0  0  0  0  0  0  0
  -15.9734   -1.0079  -13.0960 C   0  0  0  0  0  0  0  0  0  0  0  0
  -16.3386   -0.0909  -12.1595 O   0  0  0  0  0  0  0  0  0  0  0  0
  -16.6661    1.0890  -12.7757 N   0  0  0  0  0  0  0  0  0  0  0  0
  -15.5026   -2.3292  -12.5639 C   0  0  0  0  0  0  0  0  0  0  0  0
  -16.1467   -3.4877  -13.3469 C   0  0  0  0  0  0  0  0  0  0  0  0
  -13.9700   -2.4282  -12.7101 C   0  0  0  0  0  0  0  0  0  0  0  0
  -15.8804   -2.4508  -11.0777 C   0  0  0  0  0  0  0  0  0  0  0  0
  -27.3304   -1.7447  -10.6961 N   0  0  0  0  0  0  0  0  0  0  0  0
  -28.1142   -1.9846  -11.2916 H   0  0  0  0  0  0  0  0  0  0  0  0
  -27.9544    0.2244   -6.3718 C   0  0  0  0  0  0  0  0  0  0  0  0
  -27.9064   -1.0076   -7.2214 C   0  0  0  0  0  0  0  0  0  0  0  0
  -27.5863   -0.8220   -8.5112 N   0  0  0  0  0  0  0  0  0  0  0  0
  -27.5768   -1.9012   -9.3164 C   0  0  0  0  0  0  0  0  0  0  0  0
  -27.9094   -3.1393   -8.8301 C   0  0  0  0  0  0  0  0  0  0  0  0
  -28.2428   -3.2534   -7.4890 C   0  0  0  0  0  0  0  0  0  0  0  0
  -28.2222   -2.1917   -6.6681 N   0  0  0  0  0  0  0  0  0  0  0  0
  -28.5813   -4.5266   -7.0307 N   0  0  0  0  0  0  0  0  0  0  0  0
  -28.5370   -4.7694   -5.5818 C   0  0  0  0  0  0  0  0  0  0  0  0
  -28.5674   -6.3091   -5.3609 C   0  0  0  0  0  0  0  0  0  0  0  0
  -29.7504   -6.9628   -5.9801 N   0  0  0  0  0  0  0  0  0  0  0  0
  -29.6755   -8.4155   -5.8403 C   0  0  0  0  0  0  0  0  0  0  0  0
  -29.8370   -6.5938   -7.4117 C   0  0  0  0  0  0  0  0  0  0  0  0
  -29.8179   -5.0660   -7.6284 C   0  0  0  0  0  0  0  0  0  0  0  0
 31 32  1  0  0  0
 32 33  1  0  0  0
 32 37  2  0  0  0
 33 34  2  0  0  0
 34 29  1  0  0  0
 34 35  1  0  0  0
 29  1  1  0  0  0
 29 30  1  0  0  0
  1  2  2  0  0  0
  1  5  1  0  0  0
  2  3  1  0  0  0
  3  7  1  0  0  0
  3  4  2  0  0  0
  7  8  1  0  0  0
  7 12  2  0  0  0
  8  9  2  0  0  0
  9 10  1  0  0  0
 10 13  1  0  0  0
 10 11  2  0  0  0
 13 14  1  0  0  0
 14 15  1  0  0  0
 14 18  1  0  0  0
 15 16  2  0  0  0
 15 17  1  0  0  0
 17 20  1  0  0  0
 17 19  1  0  0  0
 20 21  1  0  0  0
 20 24  2  0  0  0
 21 22  2  0  0  0
 22 25  1  0  0  0
 22 23  1  0  0  0
 25 26  1  0  0  0
 25 27  1  0  0  0
 25 28  1  0  0  0
 23 24  1  0  0  0
 11 12  1  0  0  0
  4  5  1  0  0  0
  5  6  1  0  0  0
 35 36  2  0  0  0
 36 38  1  0  0  0
 36 37  1  0  0  0
 38 39  1  0  0  0
 38 44  1  0  0  0
 39 40  1  0  0  0
 40 41  1  0  0  0
 41 42  1  0  0  0
 41 43  1  0  0  0
 43 44  1  0  0  0
M  END
> <minimizedAffinity>
-11.14953

$$$$
