CHEMBL3918800


 38 42  0  0  0  0  0  0  0  0999 V2000
  -13.6171    0.2681  -15.2530 N   0  0  0  0  0  0  0  0  0  0  0  0
  -13.2361   -1.0085  -14.6281 C   0  0  0  0  0  0  0  0  0  0  0  0
  -12.1885   -0.8797  -13.7566 C   0  0  0  0  0  0  0  0  0  0  0  0
  -12.0679   -1.7771  -12.7257 C   0  0  0  0  0  0  0  0  0  0  0  0
  -12.7923   -2.9172  -12.6161 C   0  0  0  0  0  0  0  0  0  0  0  0
  -12.5838   -3.3124  -11.3776 N   0  0  0  0  0  0  0  0  0  0  0  0
  -13.1206   -4.4376  -10.9595 C   0  0  0  0  0  0  0  0  0  0  0  0
  -13.6183   -5.3748  -11.8224 C   0  0  0  0  0  0  0  0  0  0  0  0
  -13.9071   -4.9336  -13.1431 N   0  0  0  0  0  0  0  0  0  0  0  0
  -13.6129   -3.4958  -13.5708 C   0  0  0  0  0  0  0  0  0  0  0  0
  -13.8759   -2.3398  -14.6267 C   0  0  0  0  0  0  0  0  0  0  0  0
  -13.1692   -6.7261  -11.2328 C   0  0  0  0  0  0  0  0  0  0  0  0
  -13.8139   -7.9373  -11.7325 C   0  0  0  0  0  0  0  0  0  0  0  0
  -13.0121   -8.9888  -11.9046 N   0  0  0  0  0  0  0  0  0  0  0  0
  -11.8118   -8.5553  -11.5068 N   0  0  0  0  0  0  0  0  0  0  0  0
  -10.7023   -9.4648  -11.6532 C   0  0  0  0  0  0  0  0  0  0  0  0
  -11.8355   -7.2016  -11.1569 C   0  0  0  0  0  0  0  0  0  0  0  0
  -11.1307    3.1505  -16.0000 C   0  0  0  0  0  0  0  0  0  0  0  0
  -10.7813    2.8686  -17.2941 C   0  0  0  0  0  0  0  0  0  0  0  0
  -11.2922    1.7115  -17.9106 C   0  0  0  0  0  0  0  0  0  0  0  0
  -12.2114    0.8767  -17.2313 C   0  0  0  0  0  0  0  0  0  0  0  0
  -12.6160    1.1408  -15.9217 C   0  0  0  0  0  0  0  0  0  0  0  0
  -12.0172    2.2998  -15.3319 C   0  0  0  0  0  0  0  0  0  0  0  0
  -11.6707    5.2088  -14.8668 C   0  0  0  0  0  0  0  0  0  0  0  0
  -10.6968    4.2354  -15.2502 O   0  0  0  0  0  0  0  0  0  0  0  0
  -10.9733    1.3306  -19.1824 O   0  0  0  0  0  0  0  0  0  0  0  0
  -12.0815    1.0824  -20.0508 C   0  0  0  0  0  0  0  0  0  0  0  0
  -14.5018    1.2228  -14.3373 C   0  0  0  0  0  0  0  0  0  0  0  0
  -15.3312    2.1762  -15.2412 C   0  0  0  0  0  0  0  0  0  0  0  0
  -16.3244    1.3409  -16.0303 C   0  0  0  0  0  0  0  0  0  0  0  0
  -17.3367    0.6539  -15.1002 C   0  0  0  0  0  0  0  0  0  0  0  0
  -16.6200   -0.1623  -14.0151 C   0  0  0  0  0  0  0  0  0  0  0  0
  -15.5425    0.6577  -13.3416 C   0  0  0  0  0  0  0  0  0  0  0  0
  -18.2187    1.6220  -14.4239 N   0  0  0  0  0  0  0  0  0  0  0  0
  -18.4246    1.2838  -13.4835 H   0  0  0  0  0  0  0  0  0  0  0  0
  -19.4705    1.9174  -15.1273 C   0  0  0  0  0  0  0  0  0  0  0  0
  -20.5581    0.8880  -14.8249 C   0  0  0  0  0  0  0  0  0  0  0  0
  -19.9272    3.3196  -14.7295 C   0  0  0  0  0  0  0  0  0  0  0  0
 24 25  1  0  0  0
 25 18  1  0  0  0
 18 19  1  0  0  0
 18 23  2  0  0  0
 19 20  2  0  0  0
 20 26  1  0  0  0
 20 21  1  0  0  0
 26 27  1  0  0  0
 21 22  2  0  0  0
 22  1  1  0  0  0
 22 23  1  0  0  0
  1  2  1  0  0  0
  2  3  1  0  0  0
  2 11  2  0  0  0
  3  4  2  0  0  0
  4  5  1  0  0  0
  5  6  1  0  0  0
  5 10  2  0  0  0
  6  7  2  0  0  0
  7  8  1  0  0  0
  8 12  1  0  0  0
  8  9  2  0  0  0
 12 13  1  0  0  0
 12 17  2  0  0  0
 13 14  2  0  0  0
 14 15  1  0  0  0
 15 16  1  0  0  0
 15 17  1  0  0  0
  9 10  1  0  0  0
 10 11  1  0  0  0
 28 29  1  0  0  0
 28 33  1  0  0  0
 28  1  1  0  0  0
 29 30  1  0  0  0
 30 31  1  0  0  0
 31 32  1  0  0  0
 31 34  1  0  0  0
 34 36  1  0  0  0
 34 35  1  0  0  0
 36 37  1  0  0  0
 36 38  1  0  0  0
 32 33  1  0  0  0
M  END
> <minimizedAffinity>
-6.78301

$$$$
