CHEMBL2312304


 37 40  0  0  0  0  0  0  0  0999 V2000
  -13.6131   -1.9221  -13.2466 C   0  0  0  0  0  0  0  0  0  0  0  0
  -13.4045   -0.5672  -13.4427 C   0  0  0  0  0  0  0  0  0  0  0  0
  -14.3677    0.3415  -13.7088 N   0  0  0  0  0  0  0  0  0  0  0  0
  -15.6139   -0.1169  -13.7488 C   0  0  0  0  0  0  0  0  0  0  0  0
  -15.9255   -1.3960  -13.5460 N   0  0  0  0  0  0  0  0  0  0  0  0
  -14.9531   -2.3063  -13.2667 C   0  0  0  0  0  0  0  0  0  0  0  0
  -11.9440   -2.7825  -11.8078 O   0  0  0  0  0  0  0  0  0  0  0  0
  -12.4395   -2.8070  -12.9299 C   0  0  0  0  0  0  0  0  0  0  0  0
  -11.9408   -3.6161  -13.9579 N   0  0  0  0  0  0  0  0  0  0  0  0
  -12.5319   -3.8129  -14.7598 H   0  0  0  0  0  0  0  0  0  0  0  0
  -10.8060   -4.5229  -13.8085 C   0  0  0  0  0  0  0  0  0  0  0  0
  -11.2089   -5.9542  -13.4146 C   0  0  0  0  0  0  0  0  0  0  0  0
  -11.8834   -6.7364  -14.5430 C   0  0  0  0  0  0  0  0  0  0  0  0
  -13.3248   -6.8394  -14.3421 N   0  0  0  0  0  0  0  0  0  0  0  0
  -13.9684   -7.9936  -13.7948 C   0  0  0  0  0  0  0  0  0  0  0  0
  -15.4054   -7.5391  -13.7073 C   0  0  0  0  0  0  0  0  0  0  0  0
  -15.5180   -6.4946  -14.6787 O   0  0  0  0  0  0  0  0  0  0  0  0
  -14.2571   -6.0304  -14.9488 C   0  0  0  0  0  0  0  0  0  0  0  0
  -14.0250   -5.0575  -15.6460 O   0  0  0  0  0  0  0  0  0  0  0  0
  -16.6810    0.7326  -13.9264 N   0  0  0  0  0  0  0  0  0  0  0  0
  -17.3280    0.5965  -13.1591 H   0  0  0  0  0  0  0  0  0  0  0  0
  -17.2628    0.8404  -15.2480 C   0  0  0  0  0  0  0  0  0  0  0  0
  -18.5985    1.5595  -15.1778 C   0  0  0  0  0  0  0  0  0  0  0  0
  -19.7580    0.8628  -14.7729 C   0  0  0  0  0  0  0  0  0  0  0  0
  -20.9873    1.5122  -14.6602 C   0  0  0  0  0  0  0  0  0  0  0  0
  -22.3824    0.6279  -14.1807 Cl  0  0  0  0  0  0  0  0  0  0  0  0
  -21.0887    2.8727  -14.9262 C   0  0  0  0  0  0  0  0  0  0  0  0
  -19.9487    3.5882  -15.2941 C   0  0  0  0  0  0  0  0  0  0  0  0
  -18.7114    2.9407  -15.4102 C   0  0  0  0  0  0  0  0  0  0  0  0
  -17.3451    3.9148  -15.8222 Cl  0  0  0  0  0  0  0  0  0  0  0  0
  -15.4023   -3.6223  -13.1113 N   0  0  0  0  0  0  0  0  0  0  0  0
  -14.8536   -4.2889  -13.6593 H   0  0  0  0  0  0  0  0  0  0  0  0
  -15.6923   -4.0552  -11.7262 C   0  0  0  0  0  0  0  0  0  0  0  0
  -15.7108   -2.8863  -10.7291 C   0  0  0  0  0  0  0  0  0  0  0  0
  -14.8006   -3.2621   -9.5612 C   0  0  0  0  0  0  0  0  0  0  0  0
  -14.4328   -4.7229   -9.7445 C   0  0  0  0  0  0  0  0  0  0  0  0
  -14.6054   -5.0093  -11.2278 C   0  0  0  0  0  0  0  0  0  0  0  0
  7  8  2  0  0  0
  8  9  1  0  0  0
  8  1  1  0  0  0
  9 11  1  0  0  0
  9 10  1  0  0  0
 11 12  1  0  0  0
 12 13  1  0  0  0
 13 14  1  0  0  0
 14 15  1  0  0  0
 14 18  1  0  0  0
 15 16  1  0  0  0
 16 17  1  0  0  0
 17 18  1  0  0  0
 18 19  2  0  0  0
  1  2  1  0  0  0
  1  6  2  0  0  0
  2  3  2  0  0  0
  3  4  1  0  0  0
  4 20  1  0  0  0
  4  5  2  0  0  0
 20 22  1  0  0  0
 20 21  1  0  0  0
 22 23  1  0  0  0
 23 24  1  0  0  0
 23 29  2  0  0  0
 24 25  2  0  0  0
 25 26  1  0  0  0
 25 27  1  0  0  0
 27 28  2  0  0  0
 28 29  1  0  0  0
 29 30  1  0  0  0
  5  6  1  0  0  0
  6 31  1  0  0  0
 31 33  1  0  0  0
 31 32  1  0  0  0
 33 34  1  0  0  0
 33 37  1  0  0  0
 34 35  1  0  0  0
 35 36  1  0  0  0
 36 37  1  0  0  0
M  END
> <minimizedAffinity>
-7.85604

$$$$
