CHEMBL3128218


 42 46  0  0  0  0  0  0  0  0999 V2000
  -20.5789    1.0767  -15.0160 C   0  0  0  0  0  0  0  0  0  0  0  0
  -20.8016    2.4493  -14.9043 C   0  0  0  0  0  0  0  0  0  0  0  0
  -19.7191    3.3306  -14.8543 C   0  0  0  0  0  0  0  0  0  0  0  0
  -18.4105    2.8500  -14.9518 C   0  0  0  0  0  0  0  0  0  0  0  0
  -18.1642    1.4757  -15.0820 C   0  0  0  0  0  0  0  0  0  0  0  0
  -19.2625    0.5979  -15.1213 C   0  0  0  0  0  0  0  0  0  0  0  0
  -23.4820   -0.8612  -13.9826 N   0  0  0  0  0  0  0  0  0  0  0  0
  -22.4059    0.0021  -13.8125 C   0  0  0  0  0  0  0  0  0  0  0  0
  -22.1183    0.5788  -12.7690 O   0  0  0  0  0  0  0  0  0  0  0  0
  -21.6982    0.2030  -14.9910 N   0  0  0  0  0  0  0  0  0  0  0  0
  -23.4936   -1.4219  -14.8230 H   0  0  0  0  0  0  0  0  0  0  0  0
  -22.2647    0.1815  -15.8259 H   0  0  0  0  0  0  0  0  0  0  0  0
  -26.4996   -1.6985  -11.0849 C   0  0  0  0  0  0  0  0  0  0  0  0
  -25.1962   -1.3979  -10.6944 C   0  0  0  0  0  0  0  0  0  0  0  0
  -24.2112   -1.1051  -11.6382 C   0  0  0  0  0  0  0  0  0  0  0  0
  -24.4765   -1.1376  -13.0052 C   0  0  0  0  0  0  0  0  0  0  0  0
  -25.7847   -1.4370  -13.4051 C   0  0  0  0  0  0  0  0  0  0  0  0
  -26.8031   -1.6949  -12.4525 C   0  0  0  0  0  0  0  0  0  0  0  0
  -27.2487   -1.6773   -8.8255 C   0  0  0  0  0  0  0  0  0  0  0  0
  -27.4647   -2.0569  -10.1819 O   0  0  0  0  0  0  0  0  0  0  0  0
  -28.0282   -1.9649  -13.0230 O   0  0  0  0  0  0  0  0  0  0  0  0
  -28.0233   -2.2303  -14.4227 C   0  0  0  0  0  0  0  0  0  0  0  0
  -16.7444    0.9530  -15.2091 C   0  0  0  0  0  0  0  0  0  0  0  0
  -16.6385   -0.2912  -14.4685 N   0  0  0  0  0  0  0  0  0  0  0  0
  -17.2116   -1.0416  -14.8282 H   0  0  0  0  0  0  0  0  0  0  0  0
  -15.3789   -0.6978  -14.0410 C   0  0  0  0  0  0  0  0  0  0  0  0
  -14.2918    0.0942  -14.2092 N   0  0  0  0  0  0  0  0  0  0  0  0
  -13.1036   -0.3119  -13.7134 C   0  0  0  0  0  0  0  0  0  0  0  0
  -12.8191   -1.4531  -13.0587 N   0  0  0  0  0  0  0  0  0  0  0  0
  -13.9144   -2.2199  -12.9144 C   0  0  0  0  0  0  0  0  0  0  0  0
  -15.1862   -1.9188  -13.3739 C   0  0  0  0  0  0  0  0  0  0  0  0
  -15.9664   -3.0236  -12.9939 C   0  0  0  0  0  0  0  0  0  0  0  0
  -15.2717   -3.9560  -12.3412 N   0  0  0  0  0  0  0  0  0  0  0  0
  -14.0220   -3.4278  -12.2654 N   0  0  0  0  0  0  0  0  0  0  0  0
  -13.0056   -4.1872  -11.5522 C   0  0  0  0  0  0  0  0  0  0  0  0
  -13.5133   -5.4137  -10.7918 C   0  0  0  0  0  0  0  0  0  0  0  0
  -13.1026   -6.7681  -11.3348 C   0  0  0  0  0  0  0  0  0  0  0  0
  -11.8423   -7.2754  -10.9746 C   0  0  0  0  0  0  0  0  0  0  0  0
  -11.4394   -8.5523  -11.3683 C   0  0  0  0  0  0  0  0  0  0  0  0
  -12.2943   -9.3464  -12.1274 C   0  0  0  0  0  0  0  0  0  0  0  0
  -13.5484   -8.8622  -12.4930 C   0  0  0  0  0  0  0  0  0  0  0  0
  -13.9530   -7.5825  -12.0950 C   0  0  0  0  0  0  0  0  0  0  0  0
 19 20  1  0  0  0
 20 13  1  0  0  0
 13 14  1  0  0  0
 13 18  2  0  0  0
 14 15  2  0  0  0
 15 16  1  0  0  0
 16  7  1  0  0  0
 16 17  2  0  0  0
  7  8  1  0  0  0
  7 11  1  0  0  0
  8  9  2  0  0  0
  8 10  1  0  0  0
 10  1  1  0  0  0
 10 12  1  0  0  0
  1  2  1  0  0  0
  1  6  2  0  0  0
  2  3  2  0  0  0
  3  4  1  0  0  0
  4  5  2  0  0  0
  5 23  1  0  0  0
  5  6  1  0  0  0
 23 24  1  0  0  0
 24 26  1  0  0  0
 24 25  1  0  0  0
 26 27  1  0  0  0
 26 31  2  0  0  0
 27 28  2  0  0  0
 28 29  1  0  0  0
 29 30  2  0  0  0
 30 31  1  0  0  0
 30 34  1  0  0  0
 31 32  1  0  0  0
 32 33  2  0  0  0
 33 34  1  0  0  0
 34 35  1  0  0  0
 35 36  1  0  0  0
 36 37  1  0  0  0
 37 38  1  0  0  0
 37 42  2  0  0  0
 38 39  2  0  0  0
 39 40  1  0  0  0
 40 41  2  0  0  0
 41 42  1  0  0  0
 17 18  1  0  0  0
 18 21  1  0  0  0
 21 22  1  0  0  0
M  END
> <minimizedAffinity>
-9.72268

$$$$
