CHEMBL3321898


 30 34  0  0  0  0  0  0  0  0999 V2000
  -26.9582   11.6854  -14.9732 C   0  0  0  0  0  0  0  0  0  0  0  0
  -27.1248   12.1350  -13.7361 N   0  0  0  0  0  0  0  0  0  0  0  0
  -28.4903   12.1319  -13.4966 C   0  0  0  0  0  0  0  0  0  0  0  0
  -29.2361   12.4841  -12.3612 C   0  0  0  0  0  0  0  0  0  0  0  0
  -30.6384   12.3187  -12.3924 C   0  0  0  0  0  0  0  0  0  0  0  0
  -31.3247   11.8448  -13.5313 C   0  0  0  0  0  0  0  0  0  0  0  0
  -30.5716   11.5145  -14.6643 C   0  0  0  0  0  0  0  0  0  0  0  0
  -29.1788   11.6802  -14.6083 C   0  0  0  0  0  0  0  0  0  0  0  0
  -28.1971   11.4486  -15.5321 N   0  0  0  0  0  0  0  0  0  0  0  0
  -28.3651   11.1175  -16.4676 H   0  0  0  0  0  0  0  0  0  0  0  0
  -23.2635   11.0004  -17.1446 C   0  0  0  0  0  0  0  0  0  0  0  0
  -23.3673   12.0334  -16.2020 C   0  0  0  0  0  0  0  0  0  0  0  0
  -24.5658   12.2557  -15.4967 C   0  0  0  0  0  0  0  0  0  0  0  0
  -25.6927   11.4474  -15.7041 C   0  0  0  0  0  0  0  0  0  0  0  0
  -25.5642   10.3980  -16.6328 C   0  0  0  0  0  0  0  0  0  0  0  0
  -24.3722   10.1750  -17.3379 C   0  0  0  0  0  0  0  0  0  0  0  0
  -21.8519   11.7531  -19.1145 C   0  0  0  0  0  0  0  0  0  0  0  0
  -22.0035   10.7858  -17.9492 C   0  0  0  0  0  0  0  0  0  0  0  0
  -32.7183   11.5797  -13.4251 N   0  0  0  0  0  0  0  0  0  0  0  0
  -33.2146   11.9600  -14.2243 H   0  0  0  0  0  0  0  0  0  0  0  0
  -33.4290   10.4420  -12.9423 C   0  0  0  0  0  0  0  0  0  0  0  0
  -33.2971   10.0590  -11.6595 N   0  0  0  0  0  0  0  0  0  0  0  0
  -33.9339    8.9372  -11.2975 C   0  0  0  0  0  0  0  0  0  0  0  0
  -34.6788    8.1531  -12.0838 N   0  0  0  0  0  0  0  0  0  0  0  0
  -34.8322    8.5473  -13.3483 C   0  0  0  0  0  0  0  0  0  0  0  0
  -35.5948    7.7562  -14.1996 C   0  0  0  0  0  0  0  0  0  0  0  0
  -35.8215    8.1038  -15.5331 C   0  0  0  0  0  0  0  0  0  0  0  0
  -35.2905    9.2855  -16.0276 C   0  0  0  0  0  0  0  0  0  0  0  0
  -34.5144   10.0922  -15.1951 C   0  0  0  0  0  0  0  0  0  0  0  0
  -34.2507    9.7214  -13.8502 C   0  0  0  0  0  0  0  0  0  0  0  0
 17 18  1  0  0  0
 18 11  1  0  0  0
 11 12  1  0  0  0
 11 16  2  0  0  0
 12 13  2  0  0  0
 13 14  1  0  0  0
 14  1  1  0  0  0
 14 15  2  0  0  0
  1  2  2  0  0  0
  1  9  1  0  0  0
  2  3  1  0  0  0
  3  4  1  0  0  0
  3  8  2  0  0  0
  4  5  2  0  0  0
  5  6  1  0  0  0
  6 19  1  0  0  0
  6  7  2  0  0  0
 19 21  1  0  0  0
 19 20  1  0  0  0
 21 22  1  0  0  0
 21 30  2  0  0  0
 22 23  2  0  0  0
 23 24  1  0  0  0
 24 25  2  0  0  0
 25 26  1  0  0  0
 25 30  1  0  0  0
 26 27  2  0  0  0
 27 28  1  0  0  0
 28 29  2  0  0  0
 29 30  1  0  0  0
  7  8  1  0  0  0
  8  9  1  0  0  0
  9 10  1  0  0  0
 15 16  1  0  0  0
M  END
> <minimizedAffinity>
-6.65400

$$$$
