CHEMBL374206


 21 23  0  0  0  0  0  0  0  0999 V2000
  -29.2467   -4.4235   -4.9819 C   0  0  0  0  0  0  0  0  0  0  0  0
  -29.6330   -4.8343   -3.7640 N   0  0  0  0  0  0  0  0  0  0  0  0
  -29.9882   -6.4431   -3.8004 S   0  0  0  0  0  0  0  0  0  0  0  0
  -29.6319   -6.6697   -5.4406 C   0  0  0  0  0  0  0  0  0  0  0  0
  -29.7608   -7.8649   -6.0445 N   0  0  0  0  0  0  0  0  0  0  0  0
  -29.4207   -7.8085   -7.3319 C   0  0  0  0  0  0  0  0  0  0  0  0
  -28.9722   -6.7416   -8.0069 N   0  0  0  0  0  0  0  0  0  0  0  0
  -28.8392   -5.5649   -7.3621 C   0  0  0  0  0  0  0  0  0  0  0  0
  -28.3255   -4.5372   -8.1397 N   0  0  0  0  0  0  0  0  0  0  0  0
  -29.1993   -5.4742   -6.0037 C   0  0  0  0  0  0  0  0  0  0  0  0
  -27.9729   -4.9068   -9.0165 H   0  0  0  0  0  0  0  0  0  0  0  0
  -27.6917   -3.9113   -7.6569 H   0  0  0  0  0  0  0  0  0  0  0  0
  -27.9473    1.1083   -5.1244 N   0  0  0  0  0  0  0  0  0  0  0  0
  -28.2375   -0.2513   -5.2760 C   0  0  0  0  0  0  0  0  0  0  0  0
  -29.5572   -0.6789   -5.4182 C   0  0  0  0  0  0  0  0  0  0  0  0
  -29.8775   -2.0414   -5.3625 C   0  0  0  0  0  0  0  0  0  0  0  0
  -28.8823   -3.0050   -5.1368 C   0  0  0  0  0  0  0  0  0  0  0  0
  -27.5577   -2.5722   -5.0433 C   0  0  0  0  0  0  0  0  0  0  0  0
  -27.2482   -1.2076   -5.0511 C   0  0  0  0  0  0  0  0  0  0  0  0
  -28.5895    1.7238   -5.6129 H   0  0  0  0  0  0  0  0  0  0  0  0
  -26.9760    1.3485   -5.2944 H   0  0  0  0  0  0  0  0  0  0  0  0
 13 14  1  0  0  0
 13 20  1  0  0  0
 13 21  1  0  0  0
 14 15  1  0  0  0
 14 19  2  0  0  0
 15 16  2  0  0  0
 16 17  1  0  0  0
 17  1  1  0  0  0
 17 18  2  0  0  0
  1  2  2  0  0  0
  1 10  1  0  0  0
  2  3  1  0  0  0
  3  4  1  0  0  0
  4  5  1  0  0  0
  4 10  2  0  0  0
  5  6  2  0  0  0
  6  7  1  0  0  0
  7  8  2  0  0  0
  8  9  1  0  0  0
  8 10  1  0  0  0
  9 11  1  0  0  0
  9 12  1  0  0  0
 18 19  1  0  0  0
M  END
> <minimizedAffinity>
-7.29118

$$$$
