CHEMBL518209


 39 44  0  0  0  0  0  0  0  0999 V2000
  -13.9903   -0.7948  -13.2478 C   0  0  0  0  0  0  0  0  0  0  0  0
  -15.0202   -1.7342  -13.1721 C   0  0  0  0  0  0  0  0  0  0  0  0
  -14.7503   -3.0835  -13.3862 C   0  0  0  0  0  0  0  0  0  0  0  0
  -13.4472   -3.5299  -13.6107 C   0  0  0  0  0  0  0  0  0  0  0  0
  -12.3962   -2.6134  -13.5268 C   0  0  0  0  0  0  0  0  0  0  0  0
  -12.6773   -1.2540  -13.3588 C   0  0  0  0  0  0  0  0  0  0  0  0
  -11.6572   -0.3824  -13.3397 F   0  0  0  0  0  0  0  0  0  0  0  0
  -13.1623   -4.8738  -13.9332 N   0  0  0  0  0  0  0  0  0  0  0  0
  -12.6211   -5.7968  -13.0534 C   0  0  0  0  0  0  0  0  0  0  0  0
  -12.2815   -5.5563  -11.8954 O   0  0  0  0  0  0  0  0  0  0  0  0
  -13.5839   -5.2444  -14.7877 H   0  0  0  0  0  0  0  0  0  0  0  0
  -12.3911   -7.1848  -13.6084 C   0  0  0  0  0  0  0  0  0  0  0  0
  -13.5599   -8.0976  -13.2480 C   0  0  0  0  0  0  0  0  0  0  0  0
  -13.5503   -9.1446  -14.3342 C   0  0  0  0  0  0  0  0  0  0  0  0
  -13.0206   -8.4569  -15.4890 N   0  0  0  0  0  0  0  0  0  0  0  0
  -12.3319   -7.2969  -15.1079 C   0  0  0  0  0  0  0  0  0  0  0  0
  -11.7401   -6.4797  -15.8015 O   0  0  0  0  0  0  0  0  0  0  0  0
  -13.1449   -8.9678  -16.8100 C   0  0  0  0  0  0  0  0  0  0  0  0
  -13.5787   -8.1653  -17.8730 C   0  0  0  0  0  0  0  0  0  0  0  0
  -13.7237   -8.6808  -19.1640 C   0  0  0  0  0  0  0  0  0  0  0  0
  -13.4409  -10.0169  -19.4185 C   0  0  0  0  0  0  0  0  0  0  0  0
  -12.9980  -10.8318  -18.3833 C   0  0  0  0  0  0  0  0  0  0  0  0
  -12.8419  -10.3091  -17.0945 C   0  0  0  0  0  0  0  0  0  0  0  0
  -14.1967    0.5645  -13.2090 O   0  0  0  0  0  0  0  0  0  0  0  0
  -18.2963    1.9944  -14.7978 C   0  0  0  0  0  0  0  0  0  0  0  0
  -17.6329    2.3444  -15.9525 C   0  0  0  0  0  0  0  0  0  0  0  0
  -16.2286    2.1163  -15.8573 C   0  0  0  0  0  0  0  0  0  0  0  0
  -15.3194    2.4070  -16.8270 N   0  0  0  0  0  0  0  0  0  0  0  0
  -14.0357    2.1384  -16.5299 C   0  0  0  0  0  0  0  0  0  0  0  0
  -13.5950    1.5755  -15.3488 C   0  0  0  0  0  0  0  0  0  0  0  0
  -14.5355    1.2060  -14.3854 C   0  0  0  0  0  0  0  0  0  0  0  0
  -15.8732    1.5414  -14.6366 C   0  0  0  0  0  0  0  0  0  0  0  0
  -17.2451    1.3413  -13.6276 S   0  0  0  0  0  0  0  0  0  0  0  0
  -23.0833    1.1682  -13.7500 C   0  0  0  0  0  0  0  0  0  0  0  0
  -21.8546    1.8033  -14.1495 N   0  0  0  0  0  0  0  0  0  0  0  0
  -21.6625    3.1316  -14.3896 C   0  0  0  0  0  0  0  0  0  0  0  0
  -20.3983    3.3943  -14.6429 N   0  0  0  0  0  0  0  0  0  0  0  0
  -19.7607    2.1793  -14.5932 C   0  0  0  0  0  0  0  0  0  0  0  0
  -20.6570    1.1715  -14.3108 C   0  0  0  0  0  0  0  0  0  0  0  0
 34 35  1  0  0  0
 35 36  1  0  0  0
 35 39  1  0  0  0
 36 37  2  0  0  0
 37 38  1  0  0  0
 38 25  1  0  0  0
 38 39  2  0  0  0
 25 26  2  0  0  0
 25 33  1  0  0  0
 26 27  1  0  0  0
 27 28  1  0  0  0
 27 32  2  0  0  0
 28 29  2  0  0  0
 29 30  1  0  0  0
 30 31  2  0  0  0
 31 24  1  0  0  0
 31 32  1  0  0  0
 24  1  1  0  0  0
  1  2  1  0  0  0
  1  6  2  0  0  0
  2  3  2  0  0  0
  3  4  1  0  0  0
  4  8  1  0  0  0
  4  5  2  0  0  0
  8  9  1  0  0  0
  8 11  1  0  0  0
  9 10  2  0  0  0
  9 12  1  0  0  0
 12 13  1  0  0  0
 12 16  1  0  0  0
 13 14  1  0  0  0
 14 15  1  0  0  0
 15 18  1  0  0  0
 15 16  1  0  0  0
 18 19  1  0  0  0
 18 23  2  0  0  0
 19 20  2  0  0  0
 20 21  1  0  0  0
 21 22  2  0  0  0
 22 23  1  0  0  0
 16 17  2  0  0  0
  5  6  1  0  0  0
  6  7  1  0  0  0
 32 33  1  0  0  0
M  END
> <minimizedAffinity>
-8.00855

$$$$
