CHEMBL3098326


 28 30  0  0  0  0  0  0  0  0999 V2000
  -13.6700    3.9645  -16.4853 C   0  0  0  0  0  0  0  0  0  0  0  0
  -13.6716    2.8389  -15.6496 C   0  0  0  0  0  0  0  0  0  0  0  0
  -14.8413    2.1807  -15.2985 C   0  0  0  0  0  0  0  0  0  0  0  0
  -14.7745    1.1403  -14.4653 N   0  0  0  0  0  0  0  0  0  0  0  0
  -15.9395    0.5806  -14.1315 C   0  0  0  0  0  0  0  0  0  0  0  0
  -15.8691   -0.7495  -13.0642 Cl  0  0  0  0  0  0  0  0  0  0  0  0
  -17.1556    0.9472  -14.5342 N   0  0  0  0  0  0  0  0  0  0  0  0
  -17.2093    1.9922  -15.3750 C   0  0  0  0  0  0  0  0  0  0  0  0
  -16.0536    2.6558  -15.8173 C   0  0  0  0  0  0  0  0  0  0  0  0
  -16.0555    3.7592  -16.7011 C   0  0  0  0  0  0  0  0  0  0  0  0
  -14.8716    4.4160  -17.0395 C   0  0  0  0  0  0  0  0  0  0  0  0
  -11.6018    3.8091  -17.6212 C   0  0  0  0  0  0  0  0  0  0  0  0
  -12.4295    4.5093  -16.6954 O   0  0  0  0  0  0  0  0  0  0  0  0
  -18.4825    2.4489  -15.8179 N   0  0  0  0  0  0  0  0  0  0  0  0
  -18.5169    2.4351  -16.8316 H   0  0  0  0  0  0  0  0  0  0  0  0
  -19.7135    2.1210  -15.2140 C   0  0  0  0  0  0  0  0  0  0  0  0
  -20.5048    3.1046  -14.6135 C   0  0  0  0  0  0  0  0  0  0  0  0
  -21.7082    2.7860  -13.9839 C   0  0  0  0  0  0  0  0  0  0  0  0
  -22.1670    1.4719  -13.9596 C   0  0  0  0  0  0  0  0  0  0  0  0
  -21.4293    0.4936  -14.6374 C   0  0  0  0  0  0  0  0  0  0  0  0
  -20.2238    0.8205  -15.2785 C   0  0  0  0  0  0  0  0  0  0  0  0
  -23.3135    1.0740  -13.2400 N   0  0  0  0  0  0  0  0  0  0  0  0
  -23.3989    0.0123  -12.3553 C   0  0  0  0  0  0  0  0  0  0  0  0
  -24.8094   -0.2821  -11.9194 C   0  0  0  0  0  0  0  0  0  0  0  0
  -22.4652   -0.6453  -11.9046 O   0  0  0  0  0  0  0  0  0  0  0  0
  -24.1529    1.6184  -13.3945 H   0  0  0  0  0  0  0  0  0  0  0  0
  -14.8391    5.4311  -17.9543 O   0  0  0  0  0  0  0  0  0  0  0  0
  -14.9183    5.0442  -19.3221 C   0  0  0  0  0  0  0  0  0  0  0  0
 12 13  1  0  0  0
 13  1  1  0  0  0
  1  2  1  0  0  0
  1 11  2  0  0  0
  2  3  2  0  0  0
  3  4  1  0  0  0
  3  9  1  0  0  0
  4  5  2  0  0  0
  5  6  1  0  0  0
  5  7  1  0  0  0
  7  8  2  0  0  0
  8 14  1  0  0  0
  8  9  1  0  0  0
 14 16  1  0  0  0
 14 15  1  0  0  0
 16 17  1  0  0  0
 16 21  2  0  0  0
 17 18  2  0  0  0
 18 19  1  0  0  0
 19 22  1  0  0  0
 19 20  2  0  0  0
 22 23  1  0  0  0
 22 26  1  0  0  0
 23 24  1  0  0  0
 23 25  2  0  0  0
 20 21  1  0  0  0
  9 10  2  0  0  0
 10 11  1  0  0  0
 11 27  1  0  0  0
 27 28  1  0  0  0
M  END
> <minimizedAffinity>
-8.01062

$$$$
