CHEMBL3128234


 37 41  0  0  0  0  0  0  0  0999 V2000
  -15.8687   -0.6747  -13.2365 N   0  0  0  0  0  0  0  0  0  0  0  0
  -16.8251   -0.8175  -13.5375 H   0  0  0  0  0  0  0  0  0  0  0  0
  -15.1276   -1.8525  -13.1801 C   0  0  0  0  0  0  0  0  0  0  0  0
  -14.2830   -2.1958  -14.1866 N   0  0  0  0  0  0  0  0  0  0  0  0
  -13.5490   -3.3213  -14.0613 C   0  0  0  0  0  0  0  0  0  0  0  0
  -13.5326   -4.1960  -13.0419 N   0  0  0  0  0  0  0  0  0  0  0  0
  -14.3734   -3.8265  -12.0620 C   0  0  0  0  0  0  0  0  0  0  0  0
  -15.1869   -2.7055  -12.0682 C   0  0  0  0  0  0  0  0  0  0  0  0
  -15.8822   -2.7682  -10.8457 C   0  0  0  0  0  0  0  0  0  0  0  0
  -15.5450   -3.8288  -10.1075 N   0  0  0  0  0  0  0  0  0  0  0  0
  -14.5972   -4.4499  -10.8557 N   0  0  0  0  0  0  0  0  0  0  0  0
  -13.9955   -5.6645  -10.3294 C   0  0  0  0  0  0  0  0  0  0  0  0
  -12.4857   -5.6027  -10.1091 C   0  0  0  0  0  0  0  0  0  0  0  0
  -12.1040   -4.8222   -8.8735 C   0  0  0  0  0  0  0  0  0  0  0  0
  -12.0767   -5.4486   -7.6195 C   0  0  0  0  0  0  0  0  0  0  0  0
  -11.6674   -4.7448   -6.4856 C   0  0  0  0  0  0  0  0  0  0  0  0
  -11.2920   -3.4073   -6.5922 C   0  0  0  0  0  0  0  0  0  0  0  0
  -11.3401   -2.7682   -7.8298 C   0  0  0  0  0  0  0  0  0  0  0  0
  -11.7490   -3.4700   -8.9655 C   0  0  0  0  0  0  0  0  0  0  0  0
  -15.2272    0.4699  -13.8531 C   0  0  0  0  0  0  0  0  0  0  0  0
  -18.6054    2.1120  -14.6554 C   0  0  0  0  0  0  0  0  0  0  0  0
  -18.2251    2.9886  -15.6730 C   0  0  0  0  0  0  0  0  0  0  0  0
  -16.9098    3.0122  -16.1416 C   0  0  0  0  0  0  0  0  0  0  0  0
  -15.9480    2.1777  -15.5779 C   0  0  0  0  0  0  0  0  0  0  0  0
  -16.2855    1.3332  -14.5129 C   0  0  0  0  0  0  0  0  0  0  0  0
  -17.6216    1.3086  -14.0599 C   0  0  0  0  0  0  0  0  0  0  0  0
  -20.6474    0.0778  -15.2937 O   0  0  0  0  0  0  0  0  0  0  0  0
  -20.8641    1.0440  -14.5648 C   0  0  0  0  0  0  0  0  0  0  0  0
  -19.9356    2.0051  -14.1865 N   0  0  0  0  0  0  0  0  0  0  0  0
  -20.1906    2.6105  -13.4159 H   0  0  0  0  0  0  0  0  0  0  0  0
  -22.2538    1.2751  -13.9900 C   0  0  0  0  0  0  0  0  0  0  0  0
  -22.9193    0.0352  -13.4426 C   0  0  0  0  0  0  0  0  0  0  0  0
  -22.5665   -0.4570  -12.1770 C   0  0  0  0  0  0  0  0  0  0  0  0
  -23.2276   -1.5638  -11.6365 C   0  0  0  0  0  0  0  0  0  0  0  0
  -24.2468   -2.1868  -12.3520 C   0  0  0  0  0  0  0  0  0  0  0  0
  -24.6092   -1.7070  -13.6066 C   0  0  0  0  0  0  0  0  0  0  0  0
  -23.9514   -0.6008  -14.1487 C   0  0  0  0  0  0  0  0  0  0  0  0
 27 28  2  0  0  0
 28 31  1  0  0  0
 28 29  1  0  0  0
 31 32  1  0  0  0
 32 33  1  0  0  0
 32 37  2  0  0  0
 33 34  2  0  0  0
 34 35  1  0  0  0
 35 36  2  0  0  0
 36 37  1  0  0  0
 29 21  1  0  0  0
 29 30  1  0  0  0
 21 22  1  0  0  0
 21 26  2  0  0  0
 22 23  2  0  0  0
 23 24  1  0  0  0
 24 25  2  0  0  0
 25 20  1  0  0  0
 25 26  1  0  0  0
 20  1  1  0  0  0
  1  3  1  0  0  0
  1  2  1  0  0  0
  3  4  1  0  0  0
  3  8  2  0  0  0
  4  5  2  0  0  0
  5  6  1  0  0  0
  6  7  2  0  0  0
  7  8  1  0  0  0
  7 11  1  0  0  0
  8  9  1  0  0  0
  9 10  2  0  0  0
 10 11  1  0  0  0
 11 12  1  0  0  0
 12 13  1  0  0  0
 13 14  1  0  0  0
 14 15  1  0  0  0
 14 19  2  0  0  0
 15 16  2  0  0  0
 16 17  1  0  0  0
 17 18  2  0  0  0
 18 19  1  0  0  0
M  END
> <minimizedAffinity>
-10.17787

$$$$
