CHEMBL4460151


 40 43  0  0  0  0  0  0  0  0999 V2000
  -29.6604  -11.2337   -6.3807 C   0  0  0  0  0  0  0  0  0  0  0  0
  -28.3566  -11.5396   -6.7712 C   0  0  0  0  0  0  0  0  0  0  0  0
  -27.8714  -11.2056   -8.0472 C   0  0  0  0  0  0  0  0  0  0  0  0
  -26.5456  -11.4179   -8.4521 C   0  0  0  0  0  0  0  0  0  0  0  0
  -26.1064  -11.0052   -9.6529 N   0  0  0  0  0  0  0  0  0  0  0  0
  -26.9961  -10.4107  -10.4514 C   0  0  0  0  0  0  0  0  0  0  0  0
  -28.2904  -10.1930  -10.1717 N   0  0  0  0  0  0  0  0  0  0  0  0
  -28.7199  -10.5807   -8.9672 C   0  0  0  0  0  0  0  0  0  0  0  0
  -30.0468  -10.3528   -8.5934 C   0  0  0  0  0  0  0  0  0  0  0  0
  -30.5426  -10.6740   -7.3166 C   0  0  0  0  0  0  0  0  0  0  0  0
  -29.3309  -10.8960   -4.0542 C   0  0  0  0  0  0  0  0  0  0  0  0
  -30.0691  -11.5201   -5.1064 O   0  0  0  0  0  0  0  0  0  0  0  0
  -25.6388  -12.0734   -7.5670 N   0  0  0  0  0  0  0  0  0  0  0  0
  -25.7133  -13.0780   -7.6850 H   0  0  0  0  0  0  0  0  0  0  0  0
  -24.3171  -11.6389   -7.3344 C   0  0  0  0  0  0  0  0  0  0  0  0
  -24.0816  -10.5091   -6.5358 C   0  0  0  0  0  0  0  0  0  0  0  0
  -22.7988   -9.9862   -6.3964 C   0  0  0  0  0  0  0  0  0  0  0  0
  -21.7407  -10.6078   -7.0417 C   0  0  0  0  0  0  0  0  0  0  0  0
  -20.5144  -10.0769   -6.9563 F   0  0  0  0  0  0  0  0  0  0  0  0
  -21.9377  -11.7654   -7.7874 C   0  0  0  0  0  0  0  0  0  0  0  0
  -23.2266  -12.2906   -7.9253 C   0  0  0  0  0  0  0  0  0  0  0  0
  -31.8746  -10.3632   -7.1496 O   0  0  0  0  0  0  0  0  0  0  0  0
  -32.3268   -9.1323   -7.7205 C   0  0  0  0  0  0  0  0  0  0  0  0
  -32.1150   -7.9373   -6.7892 C   0  0  0  0  0  0  0  0  0  0  0  0
  -30.9966   -7.1549   -7.2194 O   0  0  0  0  0  0  0  0  0  0  0  0
  -29.9378   -7.1886   -6.2624 C   0  0  0  0  0  0  0  0  0  0  0  0
  -30.4188   -6.5626   -4.9527 C   0  0  0  0  0  0  0  0  0  0  0  0
  -29.5111   -5.5395   -4.4581 N   0  0  0  0  0  0  0  0  0  0  0  0
  -29.9851   -4.3731   -3.8959 C   0  0  0  0  0  0  0  0  0  0  0  0
  -31.1808   -4.1623   -3.7079 O   0  0  0  0  0  0  0  0  0  0  0  0
  -28.5257   -5.6451   -4.6687 H   0  0  0  0  0  0  0  0  0  0  0  0
  -28.9278   -3.3601   -3.5216 C   0  0  0  0  0  0  0  0  0  0  0  0
  -28.4755   -2.6375   -4.6897 N   0  0  0  0  0  0  0  0  0  0  0  0
  -27.8757   -1.4137   -4.7403 C   0  0  0  0  0  0  0  0  0  0  0  0
  -27.5662   -1.1153   -5.9822 N   0  0  0  0  0  0  0  0  0  0  0  0
  -28.0001   -2.2253   -6.6690 C   0  0  0  0  0  0  0  0  0  0  0  0
  -28.5634   -3.1909   -5.9201 N   0  0  0  0  0  0  0  0  0  0  0  0
  -27.8754   -2.3516   -8.1153 N   0  0  0  0  0  0  0  0  0  0  0  0
  -28.7504   -2.9948   -8.7103 O   0  0  0  0  0  0  0  0  0  0  0  0
  -26.8989   -1.8024   -8.6628 O   0  0  0  0  0  0  0  0  0  0  0  0
 11 12  1  0  0  0
 12  1  1  0  0  0
  1  2  1  0  0  0
  1 10  2  0  0  0
  2  3  2  0  0  0
  3  4  1  0  0  0
  3  8  1  0  0  0
  4 13  1  0  0  0
  4  5  2  0  0  0
 13 15  1  0  0  0
 13 14  1  0  0  0
 15 16  1  0  0  0
 15 21  2  0  0  0
 16 17  2  0  0  0
 17 18  1  0  0  0
 18 19  1  0  0  0
 18 20  2  0  0  0
 20 21  1  0  0  0
  5  6  1  0  0  0
  6  7  2  0  0  0
  7  8  1  0  0  0
  8  9  2  0  0  0
  9 10  1  0  0  0
 10 22  1  0  0  0
 22 23  1  0  0  0
 23 24  1  0  0  0
 24 25  1  0  0  0
 25 26  1  0  0  0
 26 27  1  0  0  0
 27 28  1  0  0  0
 28 29  1  0  0  0
 28 31  1  0  0  0
 29 30  2  0  0  0
 29 32  1  0  0  0
 32 33  1  0  0  0
 33 34  1  0  0  0
 33 37  1  0  0  0
 34 35  2  0  0  0
 35 36  1  0  0  0
 36 38  1  0  0  0
 36 37  2  0  0  0
 38 39  2  0  0  0
 38 40  1  0  0  0
M  CHG 1  38   1
M  CHG 1  40  -1
M  END
> <minimizedAffinity>
-7.56388

$$$$
