CHEMBL3963696


 46 48  0  0  0  0  0  0  0  0999 V2000
  -13.0219   -1.9502  -14.5465 C   0  0  0  0  0  0  0  0  0  0  0  0
  -12.9530   -2.4719  -13.2602 C   0  0  0  0  0  0  0  0  0  0  0  0
  -13.9023   -2.2713  -12.3084 N   0  0  0  0  0  0  0  0  0  0  0  0
  -14.9710   -1.5190  -12.6408 C   0  0  0  0  0  0  0  0  0  0  0  0
  -15.9770   -1.4516  -11.6792 N   0  0  0  0  0  0  0  0  0  0  0  0
  -15.1132   -0.9378  -13.9069 C   0  0  0  0  0  0  0  0  0  0  0  0
  -14.1200   -1.1552  -14.8668 C   0  0  0  0  0  0  0  0  0  0  0  0
  -15.6215   -1.8370  -10.8099 H   0  0  0  0  0  0  0  0  0  0  0  0
  -16.3811   -0.5283  -11.5809 H   0  0  0  0  0  0  0  0  0  0  0  0
  -11.9525   -2.2593  -15.5351 C   0  0  0  0  0  0  0  0  0  0  0  0
  -11.3304   -1.3034  -15.9909 O   0  0  0  0  0  0  0  0  0  0  0  0
  -12.3952   -4.3623  -16.9234 S   0  0  0  0  0  0  0  0  0  0  0  0
  -11.8706   -3.7364  -18.5135 C   0  0  0  0  0  0  0  0  0  0  0  0
  -13.8426   -4.4668  -16.9534 O   0  0  0  0  0  0  0  0  0  0  0  0
  -11.6120   -3.5956  -15.8390 N   0  0  0  0  0  0  0  0  0  0  0  0
  -11.7641   -6.0386  -16.9698 C   0  0  0  0  0  0  0  0  0  0  0  0
  -12.8590   -7.0908  -16.7944 C   0  0  0  0  0  0  0  0  0  0  0  0
  -12.7073   -7.9105  -15.5052 C   0  0  0  0  0  0  0  0  0  0  0  0
  -13.1618   -7.1573  -14.2589 C   0  0  0  0  0  0  0  0  0  0  0  0
  -14.4524   -7.7156  -13.7186 C   0  0  0  0  0  0  0  0  0  0  0  0
  -14.5201   -8.7051  -13.0025 O   0  0  0  0  0  0  0  0  0  0  0  0
  -15.3351   -5.5697  -13.9919 C   0  0  0  0  0  0  0  0  0  0  0  0
  -15.5114   -6.9784  -14.1505 O   0  0  0  0  0  0  0  0  0  0  0  0
  -16.2475   -0.1281  -14.2437 C   0  0  0  0  0  0  0  0  0  0  0  0
  -17.2027    0.5415  -14.5187 C   0  0  0  0  0  0  0  0  0  0  0  0
  -18.3834    1.3018  -14.8035 C   0  0  0  0  0  0  0  0  0  0  0  0
  -18.2760    2.6621  -15.1014 C   0  0  0  0  0  0  0  0  0  0  0  0
  -19.4274    3.4179  -15.2939 C   0  0  0  0  0  0  0  0  0  0  0  0
  -20.6821    2.8181  -15.1835 C   0  0  0  0  0  0  0  0  0  0  0  0
  -20.8092    1.4532  -14.9099 C   0  0  0  0  0  0  0  0  0  0  0  0
  -19.6458    0.6946  -14.7271 C   0  0  0  0  0  0  0  0  0  0  0  0
  -22.0694    0.8183  -14.7806 N   0  0  0  0  0  0  0  0  0  0  0  0
  -22.5578    0.2430  -13.6140 C   0  0  0  0  0  0  0  0  0  0  0  0
  -22.0132    0.2533  -12.5172 O   0  0  0  0  0  0  0  0  0  0  0  0
  -22.6858    0.8841  -15.5801 H   0  0  0  0  0  0  0  0  0  0  0  0
  -23.8987   -0.3999  -13.6846 C   0  0  0  0  0  0  0  0  0  0  0  0
  -24.4855   -0.7840  -14.8877 C   0  0  0  0  0  0  0  0  0  0  0  0
  -25.7359   -1.4068  -14.8706 C   0  0  0  0  0  0  0  0  0  0  0  0
  -26.4164   -1.6396  -13.6649 C   0  0  0  0  0  0  0  0  0  0  0  0
  -27.9574   -2.4019  -13.8003 Cl  0  0  0  0  0  0  0  0  0  0  0  0
  -25.8467   -1.2649  -12.4449 C   0  0  0  0  0  0  0  0  0  0  0  0
  -24.5685   -0.6634  -12.4745 C   0  0  0  0  0  0  0  0  0  0  0  0
  -26.5144   -1.4369  -11.1020 C   0  0  0  0  0  0  0  0  0  0  0  0
  -25.8126   -1.0056  -10.0223 F   0  0  0  0  0  0  0  0  0  0  0  0
  -27.7138   -0.7921  -11.0362 F   0  0  0  0  0  0  0  0  0  0  0  0
  -26.7913   -2.7487  -10.8471 F   0  0  0  0  0  0  0  0  0  0  0  0
 22 23  1  0  0  0
 23 20  1  0  0  0
 20 21  2  0  0  0
 20 19  1  0  0  0
 19 18  1  0  0  0
 18 17  1  0  0  0
 17 16  1  0  0  0
 16 12  1  0  0  0
 12 13  1  0  0  0
 12 14  2  0  0  0
 12 15  2  0  0  0
 15 10  1  0  0  0
 10 11  2  0  0  0
 10  1  1  0  0  0
  1  2  1  0  0  0
  1  7  2  0  0  0
  2  3  2  0  0  0
  3  4  1  0  0  0
  4  5  1  0  0  0
  4  6  2  0  0  0
  5  8  1  0  0  0
  5  9  1  0  0  0
  6 24  1  0  0  0
  6  7  1  0  0  0
 24 25  3  0  0  0
 25 26  1  0  0  0
 26 27  1  0  0  0
 26 31  2  0  0  0
 27 28  2  0  0  0
 28 29  1  0  0  0
 29 30  2  0  0  0
 30 32  1  0  0  0
 30 31  1  0  0  0
 32 33  1  0  0  0
 32 35  1  0  0  0
 33 34  2  0  0  0
 33 36  1  0  0  0
 36 37  1  0  0  0
 36 42  2  0  0  0
 37 38  2  0  0  0
 38 39  1  0  0  0
 39 40  1  0  0  0
 39 41  2  0  0  0
 41 43  1  0  0  0
 41 42  1  0  0  0
 43 44  1  0  0  0
 43 45  1  0  0  0
 43 46  1  0  0  0
M  END
> <minimizedAffinity>
-8.88984

$$$$
