CHEMBL192100


 36 38  0  0  0  0  0  0  0  0999 V2000
  -30.2121   -7.6712   -4.9381 N   0  0  0  0  0  0  0  0  0  0  0  0
  -30.7250   -7.9501   -5.7643 H   0  0  0  0  0  0  0  0  0  0  0  0
  -27.2198   -9.9578   -7.5650 C   0  0  0  0  0  0  0  0  0  0  0  0
  -26.5976  -10.3559   -6.3982 C   0  0  0  0  0  0  0  0  0  0  0  0
  -27.2277   -9.7899   -5.3395 N   0  0  0  0  0  0  0  0  0  0  0  0
  -26.8473   -9.9779   -4.0701 N   0  0  0  0  0  0  0  0  0  0  0  0
  -27.6114   -9.4004   -3.2065 C   0  0  0  0  0  0  0  0  0  0  0  0
  -28.7256   -8.6608   -3.4767 N   0  0  0  0  0  0  0  0  0  0  0  0
  -29.0942   -8.4522   -4.7087 C   0  0  0  0  0  0  0  0  0  0  0  0
  -28.2905   -9.0368   -5.7629 C   0  0  0  0  0  0  0  0  0  0  0  0
  -28.3259   -9.0931   -7.1659 C   0  0  0  0  0  0  0  0  0  0  0  0
  -29.3026   -8.4700   -8.1515 C   0  0  0  0  0  0  0  0  0  0  0  0
  -30.7404   -8.9547   -7.9739 C   0  0  0  0  0  0  0  0  0  0  0  0
  -29.2071   -6.9489   -8.2335 C   0  0  0  0  0  0  0  0  0  0  0  0
  -26.8115  -10.4336   -8.8922 C   0  0  0  0  0  0  0  0  0  0  0  0
  -26.3038  -11.5265   -9.1075 O   0  0  0  0  0  0  0  0  0  0  0  0
  -26.9771   -9.4709   -9.8491 O   0  0  0  0  0  0  0  0  0  0  0  0
  -28.7028  -10.3311  -11.2552 C   0  0  0  0  0  0  0  0  0  0  0  0
  -27.2345   -9.9504  -11.1745 C   0  0  0  0  0  0  0  0  0  0  0  0
  -30.2485   -6.2649   -4.7676 C   0  0  0  0  0  0  0  0  0  0  0  0
  -29.6244   -5.3862   -5.6658 C   0  0  0  0  0  0  0  0  0  0  0  0
  -29.6202   -3.9999   -5.4360 C   0  0  0  0  0  0  0  0  0  0  0  0
  -30.2512   -3.5039   -4.2906 C   0  0  0  0  0  0  0  0  0  0  0  0
  -30.2577   -2.1897   -4.0160 F   0  0  0  0  0  0  0  0  0  0  0  0
  -30.8851   -4.3539   -3.3931 C   0  0  0  0  0  0  0  0  0  0  0  0
  -30.8723   -5.7208   -3.6360 C   0  0  0  0  0  0  0  0  0  0  0  0
  -31.4839   -6.5402   -2.7674 F   0  0  0  0  0  0  0  0  0  0  0  0
  -28.9592   -3.1120   -6.4362 C   0  0  0  0  0  0  0  0  0  0  0  0
  -29.0927   -3.3432   -7.6307 O   0  0  0  0  0  0  0  0  0  0  0  0
  -28.2518   -2.0489   -5.9238 N   0  0  0  0  0  0  0  0  0  0  0  0
  -27.9272   -2.0229   -4.9618 H   0  0  0  0  0  0  0  0  0  0  0  0
  -27.5095   -1.2790   -6.8419 O   0  0  0  0  0  0  0  0  0  0  0  0
  -28.0865    0.0296   -6.8657 C   0  0  0  0  0  0  0  0  0  0  0  0
  -28.8471    0.2901   -5.5649 C   0  0  0  0  0  0  0  0  0  0  0  0
  -28.0116    1.1210   -4.5905 C   0  0  0  0  0  0  0  0  0  0  0  0
  -30.1675    0.9919   -5.8745 C   0  0  0  0  0  0  0  0  0  0  0  0
 18 19  1  0  0  0
 19 17  1  0  0  0
 17 15  1  0  0  0
 15 16  2  0  0  0
 15  3  1  0  0  0
  3  4  2  0  0  0
  3 11  1  0  0  0
  4  5  1  0  0  0
  5  6  1  0  0  0
  5 10  1  0  0  0
  6  7  2  0  0  0
  7  8  1  0  0  0
  8  9  2  0  0  0
  9  1  1  0  0  0
  9 10  1  0  0  0
  1 20  1  0  0  0
  1  2  1  0  0  0
 20 21  1  0  0  0
 20 26  2  0  0  0
 21 22  2  0  0  0
 22 28  1  0  0  0
 22 23  1  0  0  0
 28 29  2  0  0  0
 28 30  1  0  0  0
 30 32  1  0  0  0
 30 31  1  0  0  0
 32 33  1  0  0  0
 33 34  1  0  0  0
 34 35  1  0  0  0
 34 36  1  0  0  0
 23 24  1  0  0  0
 23 25  2  0  0  0
 25 26  1  0  0  0
 26 27  1  0  0  0
 10 11  2  0  0  0
 11 12  1  0  0  0
 12 13  1  0  0  0
 12 14  1  0  0  0
M  END
> <minimizedAffinity>
-8.24505

$$$$
