CHEMBL3985123


 38 41  0  0  0  0  0  0  0  0999 V2000
  -15.7423   -2.8370  -13.3961 C   0  0  0  0  0  0  0  0  0  0  0  0
  -14.4402   -2.0865  -13.3209 C   0  0  0  0  0  0  0  0  0  0  0  0
  -13.4626   -2.6029  -12.4412 C   0  0  0  0  0  0  0  0  0  0  0  0
  -12.1617   -2.0952  -12.4084 C   0  0  0  0  0  0  0  0  0  0  0  0
  -11.8598   -0.9817  -13.1734 C   0  0  0  0  0  0  0  0  0  0  0  0
  -12.8361   -0.4196  -14.0026 C   0  0  0  0  0  0  0  0  0  0  0  0
  -14.1333   -0.9521  -14.1017 C   0  0  0  0  0  0  0  0  0  0  0  0
  -15.1210   -0.3623  -14.9463 N   0  0  0  0  0  0  0  0  0  0  0  0
  -16.2021    0.3986  -14.5133 C   0  0  0  0  0  0  0  0  0  0  0  0
  -16.4151    0.7218  -13.3503 O   0  0  0  0  0  0  0  0  0  0  0  0
  -17.0925    0.6997  -15.5392 N   0  0  0  0  0  0  0  0  0  0  0  0
  -15.0537   -0.5489  -15.9345 H   0  0  0  0  0  0  0  0  0  0  0  0
  -17.1201    0.0323  -16.2948 H   0  0  0  0  0  0  0  0  0  0  0  0
  -18.3128    1.3791  -15.2658 C   0  0  0  0  0  0  0  0  0  0  0  0
  -18.3021    2.7722  -15.2089 C   0  0  0  0  0  0  0  0  0  0  0  0
  -19.4977    3.4737  -15.0285 C   0  0  0  0  0  0  0  0  0  0  0  0
  -20.7087    2.7914  -14.8720 C   0  0  0  0  0  0  0  0  0  0  0  0
  -20.7360    1.4010  -14.9351 C   0  0  0  0  0  0  0  0  0  0  0  0
  -19.5306    0.7030  -15.1003 C   0  0  0  0  0  0  0  0  0  0  0  0
  -21.8420    0.6122  -14.8262 O   0  0  0  0  0  0  0  0  0  0  0  0
  -22.4952    0.4729  -13.5720 C   0  0  0  0  0  0  0  0  0  0  0  0
  -23.4003    1.4389  -13.3074 F   0  0  0  0  0  0  0  0  0  0  0  0
  -23.1468   -0.7128  -13.5548 F   0  0  0  0  0  0  0  0  0  0  0  0
  -21.5750    0.4563  -12.5826 F   0  0  0  0  0  0  0  0  0  0  0  0
  -11.1435   -2.6235  -11.6405 O   0  0  0  0  0  0  0  0  0  0  0  0
  -11.4504   -3.5925  -10.7072 C   0  0  0  0  0  0  0  0  0  0  0  0
  -11.6227   -3.3197   -9.3525 C   0  0  0  0  0  0  0  0  0  0  0  0
  -11.8070   -4.3851   -8.5025 C   0  0  0  0  0  0  0  0  0  0  0  0
  -11.9049   -5.6562   -8.9259 N   0  0  0  0  0  0  0  0  0  0  0  0
  -11.8367   -5.9128  -10.2439 C   0  0  0  0  0  0  0  0  0  0  0  0
  -11.6044   -4.9026  -11.1714 C   0  0  0  0  0  0  0  0  0  0  0  0
  -11.9790   -7.2355  -10.6979 N   0  0  0  0  0  0  0  0  0  0  0  0
  -13.0559   -7.6855  -11.4378 C   0  0  0  0  0  0  0  0  0  0  0  0
  -14.0325   -7.0353  -11.7807 O   0  0  0  0  0  0  0  0  0  0  0  0
  -11.2645   -7.8937  -10.4425 H   0  0  0  0  0  0  0  0  0  0  0  0
  -13.0438   -9.1150  -11.8479 C   0  0  0  0  0  0  0  0  0  0  0  0
  -11.7175   -9.7913  -12.1130 C   0  0  0  0  0  0  0  0  0  0  0  0
  -12.7360   -9.6728  -13.2107 C   0  0  0  0  0  0  0  0  0  0  0  0
  1  2  1  0  0  0
  2  3  1  0  0  0
  2  7  2  0  0  0
  3  4  2  0  0  0
  4 25  1  0  0  0
  4  5  1  0  0  0
 25 26  1  0  0  0
 26 27  1  0  0  0
 26 31  2  0  0  0
 27 28  2  0  0  0
 28 29  1  0  0  0
 29 30  2  0  0  0
 30 32  1  0  0  0
 30 31  1  0  0  0
 32 33  1  0  0  0
 32 35  1  0  0  0
 33 34  2  0  0  0
 33 36  1  0  0  0
 36 37  1  0  0  0
 36 38  1  0  0  0
 37 38  1  0  0  0
  5  6  2  0  0  0
  6  7  1  0  0  0
  7  8  1  0  0  0
  8  9  1  0  0  0
  8 12  1  0  0  0
  9 10  2  0  0  0
  9 11  1  0  0  0
 11 14  1  0  0  0
 11 13  1  0  0  0
 14 15  1  0  0  0
 14 19  2  0  0  0
 15 16  2  0  0  0
 16 17  1  0  0  0
 17 18  2  0  0  0
 18 20  1  0  0  0
 18 19  1  0  0  0
 20 21  1  0  0  0
 21 22  1  0  0  0
 21 23  1  0  0  0
 21 24  1  0  0  0
M  END
> <minimizedAffinity>
-9.39869

$$$$
