CHEMBL67268


 32 36  0  0  0  0  0  0  0  0999 V2000
  -32.8886   -7.6141   -5.9882 N   0  0  0  0  0  0  0  0  0  0  0  0
  -32.2365   -8.4898   -6.8451 C   0  0  0  0  0  0  0  0  0  0  0  0
  -32.8955   -9.6307   -7.1146 N   0  0  0  0  0  0  0  0  0  0  0  0
  -32.3288  -10.5096   -7.9549 C   0  0  0  0  0  0  0  0  0  0  0  0
  -31.1590  -10.4078   -8.5997 N   0  0  0  0  0  0  0  0  0  0  0  0
  -30.5225   -9.2616   -8.2967 C   0  0  0  0  0  0  0  0  0  0  0  0
  -30.9732   -8.2658   -7.4396 C   0  0  0  0  0  0  0  0  0  0  0  0
  -29.9501   -7.2540   -7.4041 C   0  0  0  0  0  0  0  0  0  0  0  0
  -28.9434   -7.6757   -8.2592 C   0  0  0  0  0  0  0  0  0  0  0  0
  -29.2976   -8.8864   -8.7967 N   0  0  0  0  0  0  0  0  0  0  0  0
  -33.8529   -7.8945   -5.8534 H   0  0  0  0  0  0  0  0  0  0  0  0
  -32.7412   -6.6349   -6.2014 H   0  0  0  0  0  0  0  0  0  0  0  0
  -29.8351   -6.0225   -6.6347 C   0  0  0  0  0  0  0  0  0  0  0  0
  -30.2265   -4.8112   -7.2061 C   0  0  0  0  0  0  0  0  0  0  0  0
  -30.0507   -3.6100   -6.5307 C   0  0  0  0  0  0  0  0  0  0  0  0
  -29.6718   -3.6169   -5.1893 C   0  0  0  0  0  0  0  0  0  0  0  0
  -29.2891   -4.8154   -4.5911 C   0  0  0  0  0  0  0  0  0  0  0  0
  -29.3490   -6.0106   -5.3174 C   0  0  0  0  0  0  0  0  0  0  0  0
  -29.6682   -2.4923   -4.3930 O   0  0  0  0  0  0  0  0  0  0  0  0
  -29.3356   -1.2780   -4.9638 C   0  0  0  0  0  0  0  0  0  0  0  0
  -30.2787   -0.2820   -5.2565 C   0  0  0  0  0  0  0  0  0  0  0  0
  -29.9026    0.8631   -5.9558 C   0  0  0  0  0  0  0  0  0  0  0  0
  -28.5660    1.0636   -6.2834 C   0  0  0  0  0  0  0  0  0  0  0  0
  -27.6007    0.1270   -5.9040 C   0  0  0  0  0  0  0  0  0  0  0  0
  -27.9893   -1.0414   -5.2460 C   0  0  0  0  0  0  0  0  0  0  0  0
  -27.0523   -1.9684   -4.8828 O   0  0  0  0  0  0  0  0  0  0  0  0
  -26.1692   -1.6058   -5.0554 H   0  0  0  0  0  0  0  0  0  0  0  0
  -28.4959   -9.6502   -9.7350 C   0  0  0  0  0  0  0  0  0  0  0  0
  -27.1735   -8.9809  -10.1194 C   0  0  0  0  0  0  0  0  0  0  0  0
  -26.7850   -9.6033  -11.4586 C   0  0  0  0  0  0  0  0  0  0  0  0
  -28.0373  -10.2846  -12.0068 C   0  0  0  0  0  0  0  0  0  0  0  0
  -29.1781   -9.8762  -11.0848 C   0  0  0  0  0  0  0  0  0  0  0  0
  1  2  1  0  0  0
  1 11  1  0  0  0
  1 12  1  0  0  0
  2  3  1  0  0  0
  2  7  2  0  0  0
  3  4  2  0  0  0
  4  5  1  0  0  0
  5  6  2  0  0  0
  6  7  1  0  0  0
  6 10  1  0  0  0
  7  8  1  0  0  0
  8 13  1  0  0  0
  8  9  2  0  0  0
 13 14  1  0  0  0
 13 18  2  0  0  0
 14 15  2  0  0  0
 15 16  1  0  0  0
 16 19  1  0  0  0
 16 17  2  0  0  0
 19 20  1  0  0  0
 20 21  1  0  0  0
 20 25  2  0  0  0
 21 22  2  0  0  0
 22 23  1  0  0  0
 23 24  2  0  0  0
 24 25  1  0  0  0
 25 26  1  0  0  0
 26 27  1  0  0  0
 17 18  1  0  0  0
  9 10  1  0  0  0
 10 28  1  0  0  0
 28 29  1  0  0  0
 28 32  1  0  0  0
 29 30  1  0  0  0
 30 31  1  0  0  0
 31 32  1  0  0  0
M  END
> <minimizedAffinity>
-9.36088

$$$$
