CHEMBL3984573


 42 45  0  0  0  0  0  0  0  0999 V2000
  -30.3530   -6.1336   -6.4685 C   0  0  0  0  0  0  0  0  0  0  0  0
  -30.8293   -5.7877   -5.1933 C   0  0  0  0  0  0  0  0  0  0  0  0
  -30.5957   -4.5118   -4.6569 C   0  0  0  0  0  0  0  0  0  0  0  0
  -29.8853   -3.5624   -5.3956 C   0  0  0  0  0  0  0  0  0  0  0  0
  -29.4060   -3.9014   -6.6664 C   0  0  0  0  0  0  0  0  0  0  0  0
  -29.6449   -5.1716   -7.1993 C   0  0  0  0  0  0  0  0  0  0  0  0
  -30.1080  -10.6152   -8.9072 C   0  0  0  0  0  0  0  0  0  0  0  0
  -30.8995  -11.6998   -8.7196 N   0  0  0  0  0  0  0  0  0  0  0  0
  -31.8848  -11.6346   -7.7997 C   0  0  0  0  0  0  0  0  0  0  0  0
  -32.2282  -10.5960   -7.0206 N   0  0  0  0  0  0  0  0  0  0  0  0
  -31.4337   -9.5418   -7.2479 C   0  0  0  0  0  0  0  0  0  0  0  0
  -31.5341   -8.3420   -6.5986 N   0  0  0  0  0  0  0  0  0  0  0  0
  -30.5419   -7.4793   -7.0192 C   0  0  0  0  0  0  0  0  0  0  0  0
  -29.8298   -8.1625   -7.9986 C   0  0  0  0  0  0  0  0  0  0  0  0
  -30.3864   -9.4650   -8.1462 C   0  0  0  0  0  0  0  0  0  0  0  0
  -32.2374   -8.1459   -5.9057 H   0  0  0  0  0  0  0  0  0  0  0  0
  -29.0452  -10.6475   -9.8275 N   0  0  0  0  0  0  0  0  0  0  0  0
  -28.7817  -11.6273   -9.9134 H   0  0  0  0  0  0  0  0  0  0  0  0
  -27.0633   -9.4018  -10.6519 C   0  0  0  0  0  0  0  0  0  0  0  0
  -27.8555   -9.8761   -9.4274 C   0  0  0  0  0  0  0  0  0  0  0  0
  -26.9368  -10.7298   -8.5508 C   0  0  0  0  0  0  0  0  0  0  0  0
  -27.1145  -10.7198   -7.1550 C   0  0  0  0  0  0  0  0  0  0  0  0
  -26.2624  -11.4421   -6.3157 C   0  0  0  0  0  0  0  0  0  0  0  0
  -25.2216  -12.1922   -6.8577 C   0  0  0  0  0  0  0  0  0  0  0  0
  -25.0236  -12.2073   -8.2363 C   0  0  0  0  0  0  0  0  0  0  0  0
  -25.8671  -11.4720   -9.0775 C   0  0  0  0  0  0  0  0  0  0  0  0
  -29.5686   -2.2041   -4.8774 C   0  0  0  0  0  0  0  0  0  0  0  0
  -29.4259   -2.0302   -3.6697 O   0  0  0  0  0  0  0  0  0  0  0  0
  -29.4170   -1.1988   -5.8049 N   0  0  0  0  0  0  0  0  0  0  0  0
  -29.4079   -1.4119   -6.7926 H   0  0  0  0  0  0  0  0  0  0  0  0
  -29.0238    0.1413   -5.3995 C   0  0  0  0  0  0  0  0  0  0  0  0
  -28.6119    1.0166   -6.5926 C   0  0  0  0  0  0  0  0  0  0  0  0
  -29.7341    1.8366   -7.0774 N   0  0  0  0  0  0  0  0  0  0  0  0
  -29.9347    1.5764   -8.0446 H   0  0  0  0  0  0  0  0  0  0  0  0
  -30.9200    1.6355   -6.2398 C   0  0  0  0  0  0  0  0  0  0  0  0
  -32.1636    1.4472   -7.1049 C   0  0  0  0  0  0  0  0  0  0  0  0
  -32.1992    2.4713   -8.2155 C   0  0  0  0  0  0  0  0  0  0  0  0
  -32.3487    2.2021   -9.4063 O   0  0  0  0  0  0  0  0  0  0  0  0
  -32.0464    3.7630   -7.7851 N   0  0  0  0  0  0  0  0  0  0  0  0
  -32.0582    4.7654   -8.7790 O   0  0  0  0  0  0  0  0  0  0  0  0
  -31.8913    4.0554   -6.8258 H   0  0  0  0  0  0  0  0  0  0  0  0
  -32.1927    4.2444   -9.6007 H   0  0  0  0  0  0  0  0  0  0  0  0
 19 20  1  0  0  0
 20 17  1  0  0  0
 20 21  1  0  0  0
 17  7  1  0  0  0
 17 18  1  0  0  0
  7  8  1  0  0  0
  7 15  2  0  0  0
  8  9  2  0  0  0
  9 10  1  0  0  0
 10 11  2  0  0  0
 11 12  1  0  0  0
 11 15  1  0  0  0
 12 13  1  0  0  0
 12 16  1  0  0  0
 13  1  1  0  0  0
 13 14  2  0  0  0
  1  2  1  0  0  0
  1  6  2  0  0  0
  2  3  2  0  0  0
  3  4  1  0  0  0
  4 27  1  0  0  0
  4  5  2  0  0  0
 27 28  2  0  0  0
 27 29  1  0  0  0
 29 31  1  0  0  0
 29 30  1  0  0  0
 31 32  1  0  0  0
 32 33  1  0  0  0
 33 35  1  0  0  0
 33 34  1  0  0  0
 35 36  1  0  0  0
 36 37  1  0  0  0
 37 38  2  0  0  0
 37 39  1  0  0  0
 39 40  1  0  0  0
 39 41  1  0  0  0
 40 42  1  0  0  0
  5  6  1  0  0  0
 14 15  1  0  0  0
 21 22  1  0  0  0
 21 26  2  0  0  0
 22 23  2  0  0  0
 23 24  1  0  0  0
 24 25  2  0  0  0
 25 26  1  0  0  0
M  END
> <minimizedAffinity>
-8.49418

$$$$
