CHEMBL295679


 25 28  0  0  0  0  0  0  0  0999 V2000
  -29.6655   -4.6765   -6.0705 C   0  0  0  0  0  0  0  0  0  0  0  0
  -29.4203   -3.7468   -7.0566 C   0  0  0  0  0  0  0  0  0  0  0  0
  -28.6758   -4.1986   -8.1122 C   0  0  0  0  0  0  0  0  0  0  0  0
  -28.2500   -5.4653   -8.2254 N   0  0  0  0  0  0  0  0  0  0  0  0
  -28.5679   -6.3247   -7.2495 C   0  0  0  0  0  0  0  0  0  0  0  0
  -29.2461   -5.9588   -6.1584 N   0  0  0  0  0  0  0  0  0  0  0  0
  -30.2170   -3.1067   -4.1532 C   0  0  0  0  0  0  0  0  0  0  0  0
  -30.9202   -3.1926   -3.0304 N   0  0  0  0  0  0  0  0  0  0  0  0
  -31.6035   -4.3717   -3.0853 C   0  0  0  0  0  0  0  0  0  0  0  0
  -31.3315   -5.0347   -4.2545 C   0  0  0  0  0  0  0  0  0  0  0  0
  -30.3721   -4.2784   -4.9002 N   0  0  0  0  0  0  0  0  0  0  0  0
  -27.8808    0.2624   -5.4107 C   0  0  0  0  0  0  0  0  0  0  0  0
  -27.2809   -0.8116   -4.7558 C   0  0  0  0  0  0  0  0  0  0  0  0
  -28.0556   -1.8925   -4.3231 C   0  0  0  0  0  0  0  0  0  0  0  0
  -29.4400   -1.9136   -4.5402 C   0  0  0  0  0  0  0  0  0  0  0  0
  -30.0353   -0.7774   -5.1094 C   0  0  0  0  0  0  0  0  0  0  0  0
  -29.2609    0.2855   -5.5771 C   0  0  0  0  0  0  0  0  0  0  0  0
  -28.2492   -7.6803   -7.3459 N   0  0  0  0  0  0  0  0  0  0  0  0
  -28.4072   -8.1083   -6.4423 H   0  0  0  0  0  0  0  0  0  0  0  0
  -28.3690   -8.5178   -8.4645 C   0  0  0  0  0  0  0  0  0  0  0  0
  -27.2495   -8.7853   -9.2546 C   0  0  0  0  0  0  0  0  0  0  0  0
  -27.3360   -9.6759  -10.3271 C   0  0  0  0  0  0  0  0  0  0  0  0
  -28.5616  -10.2543  -10.6041 C   0  0  0  0  0  0  0  0  0  0  0  0
  -29.6824   -9.9928   -9.9066 N   0  0  0  0  0  0  0  0  0  0  0  0
  -29.5579   -9.1314   -8.8646 C   0  0  0  0  0  0  0  0  0  0  0  0
 12 13  1  0  0  0
 12 17  2  0  0  0
 13 14  2  0  0  0
 14 15  1  0  0  0
 15  7  1  0  0  0
 15 16  2  0  0  0
  7  8  2  0  0  0
  7 11  1  0  0  0
  8  9  1  0  0  0
  9 10  2  0  0  0
 10 11  1  0  0  0
 11  1  1  0  0  0
  1  2  1  0  0  0
  1  6  2  0  0  0
  2  3  2  0  0  0
  3  4  1  0  0  0
  4  5  2  0  0  0
  5 18  1  0  0  0
  5  6  1  0  0  0
 18 20  1  0  0  0
 18 19  1  0  0  0
 20 21  1  0  0  0
 20 25  2  0  0  0
 21 22  2  0  0  0
 22 23  1  0  0  0
 23 24  2  0  0  0
 24 25  1  0  0  0
 16 17  1  0  0  0
M  END
> <minimizedAffinity>
-8.15593

$$$$
