CHEMBL489083


 35 40  0  0  0  0  0  0  0  0999 V2000
  -27.9482   -9.7241   -4.2897 N   0  0  0  0  0  0  0  0  0  0  0  0
  -28.6668  -10.0011   -5.4041 C   0  0  0  0  0  0  0  0  0  0  0  0
  -29.5012  -10.8783   -5.5395 O   0  0  0  0  0  0  0  0  0  0  0  0
  -28.3241   -8.9663   -6.4105 C   0  0  0  0  0  0  0  0  0  0  0  0
  -28.3007   -7.9145   -5.5775 C   0  0  0  0  0  0  0  0  0  0  0  0
  -27.4617   -8.4674   -4.4683 C   0  0  0  0  0  0  0  0  0  0  0  0
  -26.4342   -7.9778   -4.0669 O   0  0  0  0  0  0  0  0  0  0  0  0
  -28.9406   -6.7012   -5.8158 N   0  0  0  0  0  0  0  0  0  0  0  0
  -28.6380   -5.4066   -5.3976 C   0  0  0  0  0  0  0  0  0  0  0  0
  -27.7892   -4.9113   -4.3785 C   0  0  0  0  0  0  0  0  0  0  0  0
  -27.5567   -3.5413   -4.3343 C   0  0  0  0  0  0  0  0  0  0  0  0
  -28.0609   -2.6759   -5.2895 C   0  0  0  0  0  0  0  0  0  0  0  0
  -28.8925   -3.1772   -6.3166 C   0  0  0  0  0  0  0  0  0  0  0  0
  -29.2384   -4.5339   -6.3196 C   0  0  0  0  0  0  0  0  0  0  0  0
  -30.1367   -5.3040   -7.0933 C   0  0  0  0  0  0  0  0  0  0  0  0
  -30.1307   -6.5965   -6.5959 C   0  0  0  0  0  0  0  0  0  0  0  0
  -30.8967   -7.7352   -7.1204 C   0  0  0  0  0  0  0  0  0  0  0  0
  -32.1929   -8.1641   -6.8754 C   0  0  0  0  0  0  0  0  0  0  0  0
  -32.7088   -9.2824   -7.5685 C   0  0  0  0  0  0  0  0  0  0  0  0
  -31.9913   -9.9256   -8.6044 C   0  0  0  0  0  0  0  0  0  0  0  0
  -30.6442   -9.5785   -8.7485 C   0  0  0  0  0  0  0  0  0  0  0  0
  -29.5181   -9.9364   -9.5488 C   0  0  0  0  0  0  0  0  0  0  0  0
  -28.3959   -9.5033   -8.8562 C   0  0  0  0  0  0  0  0  0  0  0  0
  -28.8690   -8.9787   -7.6810 N   0  0  0  0  0  0  0  0  0  0  0  0
  -30.1583   -8.5981   -7.9106 C   0  0  0  0  0  0  0  0  0  0  0  0
  -27.4915  -10.8705   -3.5234 C   0  0  0  0  0  0  0  0  0  0  0  0
  -26.0121  -11.0462   -3.2213 C   0  0  0  0  0  0  0  0  0  0  0  0
  -25.1451  -11.5676   -4.3630 C   0  0  0  0  0  0  0  0  0  0  0  0
  -23.4921  -10.8012   -4.3743 S   0  0  0  0  0  0  0  0  0  0  0  0
  -22.6001   -9.0840   -6.1735 N   0  0  0  0  0  0  0  0  0  0  0  0
  -23.6043   -9.7696   -5.7693 C   0  0  0  0  0  0  0  0  0  0  0  0
  -24.8218   -9.7452   -6.3551 N   0  0  0  0  0  0  0  0  0  0  0  0
  -22.8657   -8.5683   -7.0142 H   0  0  0  0  0  0  0  0  0  0  0  0
  -25.0586   -8.9146   -6.8793 H   0  0  0  0  0  0  0  0  0  0  0  0
  -25.5714  -10.0765   -5.7580 H   0  0  0  0  0  0  0  0  0  0  0  0
 30 31  2  0  0  0
 30 33  1  0  0  0
 31 32  1  0  0  0
 31 29  1  0  0  0
 32 34  1  0  0  0
 32 35  1  0  0  0
 29 28  1  0  0  0
 28 27  1  0  0  0
 27 26  1  0  0  0
 26  1  1  0  0  0
  1  2  1  0  0  0
  1  6  1  0  0  0
  2  3  2  0  0  0
  2  4  1  0  0  0
  4  5  2  0  0  0
  4 24  1  0  0  0
  5  6  1  0  0  0
  5  8  1  0  0  0
  6  7  2  0  0  0
  8  9  1  0  0  0
  8 16  1  0  0  0
  9 10  1  0  0  0
  9 14  2  0  0  0
 10 11  2  0  0  0
 11 12  1  0  0  0
 12 13  2  0  0  0
 13 14  1  0  0  0
 14 15  1  0  0  0
 15 16  2  0  0  0
 16 17  1  0  0  0
 17 18  1  0  0  0
 17 25  2  0  0  0
 18 19  2  0  0  0
 19 20  1  0  0  0
 20 21  2  0  0  0
 21 22  1  0  0  0
 21 25  1  0  0  0
 22 23  2  0  0  0
 23 24  1  0  0  0
 24 25  1  0  0  0
M  END
> <minimizedAffinity>
-8.98336

$$$$
