CHEMBL2023118


 33 36  0  0  0  0  0  0  0  0999 V2000
  -28.9854   -2.6221   -6.7851 C   0  0  0  0  0  0  0  0  0  0  0  0
  -28.6343   -3.5548   -7.7959 C   0  0  0  0  0  0  0  0  0  0  0  0
  -27.7587   -3.2343   -8.8436 C   0  0  0  0  0  0  0  0  0  0  0  0
  -27.2384   -1.9523   -8.9257 C   0  0  0  0  0  0  0  0  0  0  0  0
  -27.5700   -1.0289   -7.9268 C   0  0  0  0  0  0  0  0  0  0  0  0
  -28.4234   -1.3390   -6.8524 C   0  0  0  0  0  0  0  0  0  0  0  0
  -28.5337   -0.2735   -6.0027 O   0  0  0  0  0  0  0  0  0  0  0  0
  -28.8187    1.0403   -6.4365 C   0  0  0  0  0  0  0  0  0  0  0  0
  -29.8975   -3.1480   -5.7001 C   0  0  0  0  0  0  0  0  0  0  0  0
  -29.5393   -5.5533   -5.2400 N   0  0  0  0  0  0  0  0  0  0  0  0
  -29.3597   -4.2547   -4.8020 C   0  0  0  0  0  0  0  0  0  0  0  0
  -28.8288   -3.9365   -3.7358 O   0  0  0  0  0  0  0  0  0  0  0  0
  -30.0629   -5.7272   -6.0895 H   0  0  0  0  0  0  0  0  0  0  0  0
  -27.9682   -8.4684   -3.9683 N   0  0  0  0  0  0  0  0  0  0  0  0
  -28.0094   -7.4747   -4.9009 C   0  0  0  0  0  0  0  0  0  0  0  0
  -29.0758   -6.6744   -4.5743 C   0  0  0  0  0  0  0  0  0  0  0  0
  -29.6085   -7.2731   -3.4078 C   0  0  0  0  0  0  0  0  0  0  0  0
  -28.9296   -8.3623   -3.0307 N   0  0  0  0  0  0  0  0  0  0  0  0
  -25.6060   -9.1496   -3.7928 C   0  0  0  0  0  0  0  0  0  0  0  0
  -27.0485   -9.5886   -3.9625 C   0  0  0  0  0  0  0  0  0  0  0  0
  -26.2962   -1.5169   -9.8265 O   0  0  0  0  0  0  0  0  0  0  0  0
  -26.4204   -1.6617  -11.1935 C   0  0  0  0  0  0  0  0  0  0  0  0
  -27.6100   -2.0027  -11.8290 C   0  0  0  0  0  0  0  0  0  0  0  0
  -27.6288   -1.9940  -13.2105 C   0  0  0  0  0  0  0  0  0  0  0  0
  -26.5714   -1.6637  -13.9820 N   0  0  0  0  0  0  0  0  0  0  0  0
  -25.4273   -1.3144  -13.3747 C   0  0  0  0  0  0  0  0  0  0  0  0
  -24.3486   -0.9552  -14.1732 C   0  0  0  0  0  0  0  0  0  0  0  0
  -23.1193   -0.5843  -13.6284 C   0  0  0  0  0  0  0  0  0  0  0  0
  -22.9734   -0.5678  -12.2453 C   0  0  0  0  0  0  0  0  0  0  0  0
  -24.0484   -0.9050  -11.4206 C   0  0  0  0  0  0  0  0  0  0  0  0
  -25.2910   -1.2945  -11.9707 C   0  0  0  0  0  0  0  0  0  0  0  0
  -21.9995   -0.2553  -14.3416 O   0  0  0  0  0  0  0  0  0  0  0  0
  -21.3761    0.9805  -14.0047 C   0  0  0  0  0  0  0  0  0  0  0  0
 19 20  1  0  0  0
 20 14  1  0  0  0
 14 15  1  0  0  0
 14 18  1  0  0  0
 15 16  2  0  0  0
 16 10  1  0  0  0
 16 17  1  0  0  0
 10 11  1  0  0  0
 10 13  1  0  0  0
 11 12  2  0  0  0
 11  9  1  0  0  0
  9  1  1  0  0  0
  1  2  1  0  0  0
  1  6  2  0  0  0
  2  3  2  0  0  0
  3  4  1  0  0  0
  4 21  1  0  0  0
  4  5  2  0  0  0
 21 22  1  0  0  0
 22 23  1  0  0  0
 22 31  2  0  0  0
 23 24  2  0  0  0
 24 25  1  0  0  0
 25 26  2  0  0  0
 26 27  1  0  0  0
 26 31  1  0  0  0
 27 28  2  0  0  0
 28 32  1  0  0  0
 28 29  1  0  0  0
 32 33  1  0  0  0
 29 30  2  0  0  0
 30 31  1  0  0  0
  5  6  1  0  0  0
  6  7  1  0  0  0
  7  8  1  0  0  0
 17 18  2  0  0  0
M  END
> <minimizedAffinity>
-9.66130

$$$$
