CHEMBL1970290


 42 45  0  0  0  0  0  0  0  0999 V2000
  -29.7069   -7.0994   -5.8403 N   0  0  0  0  0  0  0  0  0  0  0  0
  -30.8726   -7.6034   -6.3110 N   0  0  0  0  0  0  0  0  0  0  0  0
  -30.6003   -8.8343   -6.7586 C   0  0  0  0  0  0  0  0  0  0  0  0
  -29.2489   -9.1663   -6.4662 C   0  0  0  0  0  0  0  0  0  0  0  0
  -28.6911   -8.0766   -5.8380 C   0  0  0  0  0  0  0  0  0  0  0  0
  -28.8883   -3.4523   -5.8698 C   0  0  0  0  0  0  0  0  0  0  0  0
  -29.5999   -2.9844   -4.7848 C   0  0  0  0  0  0  0  0  0  0  0  0
  -30.3816   -3.8907   -4.0444 C   0  0  0  0  0  0  0  0  0  0  0  0
  -30.3978   -5.2457   -4.3878 C   0  0  0  0  0  0  0  0  0  0  0  0
  -29.6453   -5.7227   -5.4947 C   0  0  0  0  0  0  0  0  0  0  0  0
  -28.9297   -4.7961   -6.2460 C   0  0  0  0  0  0  0  0  0  0  0  0
  -28.2102   -2.6582   -8.0847 N   0  0  0  0  0  0  0  0  0  0  0  0
  -28.0517   -2.5567   -6.7267 C   0  0  0  0  0  0  0  0  0  0  0  0
  -27.2272   -1.8317   -6.1819 O   0  0  0  0  0  0  0  0  0  0  0  0
  -28.8774   -3.2933   -8.5062 H   0  0  0  0  0  0  0  0  0  0  0  0
  -27.3562   -1.9013   -8.9772 C   0  0  0  0  0  0  0  0  0  0  0  0
  -27.5549   -2.2703  -10.4574 C   0  0  0  0  0  0  0  0  0  0  0  0
  -26.8509   -1.4020  -11.4294 N   0  0  0  0  0  0  0  0  0  0  0  0
  -24.6353   -0.3089  -11.9744 C   0  0  0  0  0  0  0  0  0  0  0  0
  -25.4762   -1.1064  -10.9822 C   0  0  0  0  0  0  0  0  0  0  0  0
  -26.9210   -1.9728  -12.7897 C   0  0  0  0  0  0  0  0  0  0  0  0
  -28.3178   -2.2190  -13.3593 C   0  0  0  0  0  0  0  0  0  0  0  0
  -27.3956   -8.0082   -5.2747 N   0  0  0  0  0  0  0  0  0  0  0  0
  -26.4711   -9.1102   -5.2881 C   0  0  0  0  0  0  0  0  0  0  0  0
  -26.7543  -10.1472   -5.8517 O   0  0  0  0  0  0  0  0  0  0  0  0
  -25.3324   -8.8081   -4.5612 N   0  0  0  0  0  0  0  0  0  0  0  0
  -27.0991   -7.1316   -4.8744 H   0  0  0  0  0  0  0  0  0  0  0  0
  -25.4308   -8.0773   -3.8748 H   0  0  0  0  0  0  0  0  0  0  0  0
  -24.4277   -9.8479   -4.2007 C   0  0  0  0  0  0  0  0  0  0  0  0
  -24.5463  -10.3607   -2.8996 C   0  0  0  0  0  0  0  0  0  0  0  0
  -23.8587  -11.5155   -2.5307 C   0  0  0  0  0  0  0  0  0  0  0  0
  -23.1270  -12.2123   -3.4856 C   0  0  0  0  0  0  0  0  0  0  0  0
  -22.9356  -11.6687   -4.7615 C   0  0  0  0  0  0  0  0  0  0  0  0
  -22.1470  -12.3422   -5.6951 C   0  0  0  0  0  0  0  0  0  0  0  0
  -21.4219  -11.6165   -6.6237 C   0  0  0  0  0  0  0  0  0  0  0  0
  -21.7821  -10.2992   -6.8659 C   0  0  0  0  0  0  0  0  0  0  0  0
  -22.8868   -9.7474   -6.2004 C   0  0  0  0  0  0  0  0  0  0  0  0
  -23.4576  -10.4005   -5.0819 C   0  0  0  0  0  0  0  0  0  0  0  0
  -31.6710   -9.6885   -7.4240 C   0  0  0  0  0  0  0  0  0  0  0  0
  -31.3339  -10.0274   -8.8947 C   0  0  0  0  0  0  0  0  0  0  0  0
  -31.8257  -11.0235   -6.6663 C   0  0  0  0  0  0  0  0  0  0  0  0
  -33.0271   -8.9543   -7.4144 C   0  0  0  0  0  0  0  0  0  0  0  0
 19 20  1  0  0  0
 20 18  1  0  0  0
 18 21  1  0  0  0
 18 17  1  0  0  0
 21 22  1  0  0  0
 17 16  1  0  0  0
 16 12  1  0  0  0
 12 13  1  0  0  0
 12 15  1  0  0  0
 13 14  2  0  0  0
 13  6  1  0  0  0
  6  7  1  0  0  0
  6 11  2  0  0  0
  7  8  2  0  0  0
  8  9  1  0  0  0
  9 10  2  0  0  0
 10  1  1  0  0  0
 10 11  1  0  0  0
  1  2  1  0  0  0
  1  5  1  0  0  0
  2  3  2  0  0  0
  3 39  1  0  0  0
  3  4  1  0  0  0
 39 40  1  0  0  0
 39 41  1  0  0  0
 39 42  1  0  0  0
  4  5  2  0  0  0
  5 23  1  0  0  0
 23 24  1  0  0  0
 23 27  1  0  0  0
 24 25  2  0  0  0
 24 26  1  0  0  0
 26 29  1  0  0  0
 26 28  1  0  0  0
 29 30  1  0  0  0
 29 38  2  0  0  0
 30 31  2  0  0  0
 31 32  1  0  0  0
 32 33  2  0  0  0
 33 34  1  0  0  0
 33 38  1  0  0  0
 34 35  2  0  0  0
 35 36  1  0  0  0
 36 37  2  0  0  0
 37 38  1  0  0  0
M  END
> <minimizedAffinity>
-9.58725

$$$$
