CHEMBL3656088


 46 49  0  0  0  0  0  0  0  0999 V2000
  -29.4618   -2.9290   -5.5448 C   0  0  0  0  0  0  0  0  0  0  0  0
  -30.0326   -4.1638   -5.8030 C   0  0  0  0  0  0  0  0  0  0  0  0
  -30.6058   -4.8760   -4.7564 C   0  0  0  0  0  0  0  0  0  0  0  0
  -30.7131   -4.2695   -3.5154 C   0  0  0  0  0  0  0  0  0  0  0  0
  -30.1416   -3.0166   -3.3519 C   0  0  0  0  0  0  0  0  0  0  0  0
  -29.4875   -2.3411   -4.3269 N   0  0  0  0  0  0  0  0  0  0  0  0
  -27.6077   -1.6137   -8.4887 C   0  0  0  0  0  0  0  0  0  0  0  0
  -27.6834   -0.5258   -7.6371 C   0  0  0  0  0  0  0  0  0  0  0  0
  -28.4236   -0.8843   -6.5322 N   0  0  0  0  0  0  0  0  0  0  0  0
  -28.7614   -2.2124   -6.6008 C   0  0  0  0  0  0  0  0  0  0  0  0
  -28.3039   -2.6640   -7.8287 C   0  0  0  0  0  0  0  0  0  0  0  0
  -28.6767   -0.2832   -5.7590 H   0  0  0  0  0  0  0  0  0  0  0  0
  -27.8230   -1.8751  -10.8748 N   0  0  0  0  0  0  0  0  0  0  0  0
  -26.9722   -1.7301   -9.7962 C   0  0  0  0  0  0  0  0  0  0  0  0
  -25.7527   -1.7191   -9.9211 O   0  0  0  0  0  0  0  0  0  0  0  0
  -28.8134   -1.7586  -10.7295 H   0  0  0  0  0  0  0  0  0  0  0  0
  -27.2987   -1.9813  -12.2191 C   0  0  0  0  0  0  0  0  0  0  0  0
  -26.1759   -0.9857  -12.5084 C   0  0  0  0  0  0  0  0  0  0  0  0
  -25.1491   -1.5096  -13.5069 C   0  0  0  0  0  0  0  0  0  0  0  0
  -23.8063   -1.7017  -12.8360 C   0  0  0  0  0  0  0  0  0  0  0  0
  -23.4671   -2.7144  -12.2583 O   0  0  0  0  0  0  0  0  0  0  0  0
  -23.1217   -0.5157  -12.8154 O   0  0  0  0  0  0  0  0  0  0  0  0
  -21.6193    0.9906  -13.9078 C   0  0  0  0  0  0  0  0  0  0  0  0
  -22.7053   -0.0530  -14.1092 C   0  0  0  0  0  0  0  0  0  0  0  0
  -31.1127   -6.1511   -4.8767 O   0  0  0  0  0  0  0  0  0  0  0  0
  -30.2455   -7.2057   -5.1047 C   0  0  0  0  0  0  0  0  0  0  0  0
  -30.1025   -7.8210   -6.3368 C   0  0  0  0  0  0  0  0  0  0  0  0
  -29.2624   -8.9349   -6.4829 C   0  0  0  0  0  0  0  0  0  0  0  0
  -28.5108   -9.4252   -5.4096 C   0  0  0  0  0  0  0  0  0  0  0  0
  -28.6226   -8.7417   -4.1847 C   0  0  0  0  0  0  0  0  0  0  0  0
  -27.9714   -9.1713   -3.0914 F   0  0  0  0  0  0  0  0  0  0  0  0
  -29.4760   -7.6401   -4.0300 C   0  0  0  0  0  0  0  0  0  0  0  0
  -27.6695  -10.5690   -5.5935 N   0  0  0  0  0  0  0  0  0  0  0  0
  -26.2786  -10.5171   -5.5971 C   0  0  0  0  0  0  0  0  0  0  0  0
  -25.6123   -9.5039   -5.4337 O   0  0  0  0  0  0  0  0  0  0  0  0
  -25.6697  -11.7347   -5.8646 N   0  0  0  0  0  0  0  0  0  0  0  0
  -28.1257  -11.4579   -5.7960 H   0  0  0  0  0  0  0  0  0  0  0  0
  -26.1535  -12.3009   -6.5474 H   0  0  0  0  0  0  0  0  0  0  0  0
  -24.2436  -11.7767   -5.9519 C   0  0  0  0  0  0  0  0  0  0  0  0
  -23.4492  -11.8773   -4.7953 C   0  0  0  0  0  0  0  0  0  0  0  0
  -22.0539  -12.0221   -4.9003 C   0  0  0  0  0  0  0  0  0  0  0  0
  -21.1887  -12.2096   -3.6877 C   0  0  0  0  0  0  0  0  0  0  0  0
  -21.4550  -12.0304   -6.1668 C   0  0  0  0  0  0  0  0  0  0  0  0
  -22.2322  -11.8790   -7.3142 C   0  0  0  0  0  0  0  0  0  0  0  0
  -23.6150  -11.7519   -7.1975 C   0  0  0  0  0  0  0  0  0  0  0  0
  -24.3400  -11.5694   -8.3124 F   0  0  0  0  0  0  0  0  0  0  0  0
 23 24  1  0  0  0
 24 22  1  0  0  0
 22 20  1  0  0  0
 20 21  2  0  0  0
 20 19  1  0  0  0
 19 18  1  0  0  0
 18 17  1  0  0  0
 17 13  1  0  0  0
 13 14  1  0  0  0
 13 16  1  0  0  0
 14 15  2  0  0  0
 14  7  1  0  0  0
  7  8  2  0  0  0
  7 11  1  0  0  0
  8  9  1  0  0  0
  9 10  1  0  0  0
  9 12  1  0  0  0
 10  1  1  0  0  0
 10 11  2  0  0  0
  1  2  1  0  0  0
  1  6  2  0  0  0
  2  3  2  0  0  0
  3 25  1  0  0  0
  3  4  1  0  0  0
 25 26  1  0  0  0
 26 27  1  0  0  0
 26 32  2  0  0  0
 27 28  2  0  0  0
 28 29  1  0  0  0
 29 33  1  0  0  0
 29 30  2  0  0  0
 33 34  1  0  0  0
 33 37  1  0  0  0
 34 35  2  0  0  0
 34 36  1  0  0  0
 36 39  1  0  0  0
 36 38  1  0  0  0
 39 40  1  0  0  0
 39 45  2  0  0  0
 40 41  2  0  0  0
 41 42  1  0  0  0
 41 43  1  0  0  0
 43 44  2  0  0  0
 44 45  1  0  0  0
 45 46  1  0  0  0
 30 31  1  0  0  0
 30 32  1  0  0  0
  4  5  2  0  0  0
  5  6  1  0  0  0
M  END
> <minimizedAffinity>
-9.77160

$$$$
