CHEMBL2023227


 37 41  0  0  0  0  0  0  0  0999 V2000
  -19.2261    1.4785  -15.0594 C   0  0  0  0  0  0  0  0  0  0  0  0
  -20.1842    1.9228  -14.1534 C   0  0  0  0  0  0  0  0  0  0  0  0
  -21.2432    1.0990  -13.7741 C   0  0  0  0  0  0  0  0  0  0  0  0
  -21.4547   -0.1410  -14.3806 C   0  0  0  0  0  0  0  0  0  0  0  0
  -20.5651   -0.5477  -15.3736 C   0  0  0  0  0  0  0  0  0  0  0  0
  -19.4451    0.2447  -15.6922 C   0  0  0  0  0  0  0  0  0  0  0  0
  -14.3965    3.0326  -15.4520 C   0  0  0  0  0  0  0  0  0  0  0  0
  -13.8664    1.8199  -15.0462 C   0  0  0  0  0  0  0  0  0  0  0  0
  -14.5875    0.7314  -14.7404 N   0  0  0  0  0  0  0  0  0  0  0  0
  -15.9313    0.7685  -14.8222 C   0  0  0  0  0  0  0  0  0  0  0  0
  -16.5232   -0.4496  -14.5237 N   0  0  0  0  0  0  0  0  0  0  0  0
  -16.6108    1.9700  -15.1944 C   0  0  0  0  0  0  0  0  0  0  0  0
  -18.0435    2.3045  -15.3257 C   0  0  0  0  0  0  0  0  0  0  0  0
  -18.2304    3.6130  -15.7164 C   0  0  0  0  0  0  0  0  0  0  0  0
  -16.7858    4.4594  -15.9106 S   0  0  0  0  0  0  0  0  0  0  0  0
  -15.8089    3.0898  -15.5064 C   0  0  0  0  0  0  0  0  0  0  0  0
  -15.8130   -1.1707  -14.4582 H   0  0  0  0  0  0  0  0  0  0  0  0
  -17.3316   -0.6818  -15.0836 H   0  0  0  0  0  0  0  0  0  0  0  0
  -11.1976    6.8039  -15.0823 C   0  0  0  0  0  0  0  0  0  0  0  0
  -12.1098    5.8127  -15.5942 N   0  0  0  0  0  0  0  0  0  0  0  0
  -12.7400    4.8293  -14.8898 C   0  0  0  0  0  0  0  0  0  0  0  0
  -13.5439    4.1557  -15.7900 C   0  0  0  0  0  0  0  0  0  0  0  0
  -13.2805    4.8038  -17.0202 C   0  0  0  0  0  0  0  0  0  0  0  0
  -12.4149    5.8132  -16.9011 N   0  0  0  0  0  0  0  0  0  0  0  0
  -22.5197   -0.9967  -14.0166 N   0  0  0  0  0  0  0  0  0  0  0  0
  -23.5704   -0.6529  -13.1864 C   0  0  0  0  0  0  0  0  0  0  0  0
  -23.7648    0.4629  -12.7152 O   0  0  0  0  0  0  0  0  0  0  0  0
  -24.3912   -1.7307  -12.9025 N   0  0  0  0  0  0  0  0  0  0  0  0
  -22.5729   -1.8935  -14.4718 H   0  0  0  0  0  0  0  0  0  0  0  0
  -23.9131   -2.6141  -12.7766 H   0  0  0  0  0  0  0  0  0  0  0  0
  -25.5546   -1.5529  -12.1129 C   0  0  0  0  0  0  0  0  0  0  0  0
  -25.4991   -1.4845  -10.7178 C   0  0  0  0  0  0  0  0  0  0  0  0
  -26.6759   -1.3771   -9.9690 C   0  0  0  0  0  0  0  0  0  0  0  0
  -27.9107   -1.3325  -10.6140 C   0  0  0  0  0  0  0  0  0  0  0  0
  -27.9718   -1.3789  -12.0066 C   0  0  0  0  0  0  0  0  0  0  0  0
  -26.7949   -1.4735  -12.7471 C   0  0  0  0  0  0  0  0  0  0  0  0
  -26.8637   -1.5512  -14.0858 F   0  0  0  0  0  0  0  0  0  0  0  0
 19 20  1  0  0  0
 20 21  1  0  0  0
 20 24  1  0  0  0
 21 22  2  0  0  0
 22  7  1  0  0  0
 22 23  1  0  0  0
  7  8  1  0  0  0
  7 16  2  0  0  0
  8  9  2  0  0  0
  9 10  1  0  0  0
 10 11  1  0  0  0
 10 12  2  0  0  0
 11 17  1  0  0  0
 11 18  1  0  0  0
 12 13  1  0  0  0
 12 16  1  0  0  0
 13  1  1  0  0  0
 13 14  2  0  0  0
  1  2  1  0  0  0
  1  6  2  0  0  0
  2  3  2  0  0  0
  3  4  1  0  0  0
  4 25  1  0  0  0
  4  5  2  0  0  0
 25 26  1  0  0  0
 25 29  1  0  0  0
 26 27  2  0  0  0
 26 28  1  0  0  0
 28 31  1  0  0  0
 28 30  1  0  0  0
 31 32  1  0  0  0
 31 36  2  0  0  0
 32 33  2  0  0  0
 33 34  1  0  0  0
 34 35  2  0  0  0
 35 36  1  0  0  0
 36 37  1  0  0  0
  5  6  1  0  0  0
 14 15  1  0  0  0
 15 16  1  0  0  0
 23 24  2  0  0  0
M  END
> <minimizedAffinity>
-8.40822

$$$$
