CHEMBL941


 39 43  0  0  0  0  0  0  0  0999 V2000
  -11.2261    0.2831  -16.5546 C   0  0  0  0  0  0  0  0  0  0  0  0
  -12.6600    0.5339  -16.1802 C   0  0  0  0  0  0  0  0  0  0  0  0
  -13.5224    1.0070  -17.1823 C   0  0  0  0  0  0  0  0  0  0  0  0
  -14.8768    1.2234  -16.9307 C   0  0  0  0  0  0  0  0  0  0  0  0
  -15.4112    0.9463  -15.6793 C   0  0  0  0  0  0  0  0  0  0  0  0
  -14.5426    0.5273  -14.6638 C   0  0  0  0  0  0  0  0  0  0  0  0
  -13.1584    0.3553  -14.8760 C   0  0  0  0  0  0  0  0  0  0  0  0
  -16.7864    1.0536  -15.3685 N   0  0  0  0  0  0  0  0  0  0  0  0
  -17.5632    2.1948  -15.4579 C   0  0  0  0  0  0  0  0  0  0  0  0
  -17.1788    3.3077  -15.8014 O   0  0  0  0  0  0  0  0  0  0  0  0
  -17.2487    0.1831  -15.1437 H   0  0  0  0  0  0  0  0  0  0  0  0
  -19.0080    2.0425  -15.1251 C   0  0  0  0  0  0  0  0  0  0  0  0
  -19.6571    0.8044  -15.1004 C   0  0  0  0  0  0  0  0  0  0  0  0
  -20.9976    0.7323  -14.7100 C   0  0  0  0  0  0  0  0  0  0  0  0
  -21.6969    1.8856  -14.3152 C   0  0  0  0  0  0  0  0  0  0  0  0
  -21.0481    3.1235  -14.3597 C   0  0  0  0  0  0  0  0  0  0  0  0
  -19.7125    3.1991  -14.7572 C   0  0  0  0  0  0  0  0  0  0  0  0
  -23.0949    1.7664  -13.7400 C   0  0  0  0  0  0  0  0  0  0  0  0
  -23.3914    0.3884  -13.3277 N   0  0  0  0  0  0  0  0  0  0  0  0
  -24.0369    0.3229  -12.0008 C   0  0  0  0  0  0  0  0  0  0  0  0
  -24.3033   -1.1377  -11.5759 C   0  0  0  0  0  0  0  0  0  0  0  0
  -25.1067   -1.9212  -12.5345 N   0  0  0  0  0  0  0  0  0  0  0  0
  -26.5121   -1.5263  -12.4989 C   0  0  0  0  0  0  0  0  0  0  0  0
  -24.5282   -1.7698  -13.8860 C   0  0  0  0  0  0  0  0  0  0  0  0
  -24.2250   -0.3124  -14.3185 C   0  0  0  0  0  0  0  0  0  0  0  0
  -12.3057    0.0448  -13.7980 N   0  0  0  0  0  0  0  0  0  0  0  0
  -12.0230    0.7931  -13.1848 H   0  0  0  0  0  0  0  0  0  0  0  0
  -12.1910   -1.1676  -13.1071 C   0  0  0  0  0  0  0  0  0  0  0  0
  -11.0423   -1.4033  -12.4618 N   0  0  0  0  0  0  0  0  0  0  0  0
  -10.9690   -2.5469  -11.7523 C   0  0  0  0  0  0  0  0  0  0  0  0
  -12.0084   -3.4398  -11.6228 C   0  0  0  0  0  0  0  0  0  0  0  0
  -13.1663   -3.1160  -12.2945 C   0  0  0  0  0  0  0  0  0  0  0  0
  -13.2369   -2.0022  -13.0496 N   0  0  0  0  0  0  0  0  0  0  0  0
  -14.4250   -3.8818  -12.2199 C   0  0  0  0  0  0  0  0  0  0  0  0
  -15.2701   -3.9948  -13.3376 C   0  0  0  0  0  0  0  0  0  0  0  0
  -16.4706   -4.6982  -13.2589 C   0  0  0  0  0  0  0  0  0  0  0  0
  -16.8052   -5.2830  -12.0557 C   0  0  0  0  0  0  0  0  0  0  0  0
  -16.0282   -5.2193  -10.9537 N   0  0  0  0  0  0  0  0  0  0  0  0
  -14.8651   -4.5285  -11.0655 C   0  0  0  0  0  0  0  0  0  0  0  0
  1  2  1  0  0  0
  2  3  1  0  0  0
  2  7  2  0  0  0
  3  4  2  0  0  0
  4  5  1  0  0  0
  5  8  1  0  0  0
  5  6  2  0  0  0
  8  9  1  0  0  0
  8 11  1  0  0  0
  9 10  2  0  0  0
  9 12  1  0  0  0
 12 13  1  0  0  0
 12 17  2  0  0  0
 13 14  2  0  0  0
 14 15  1  0  0  0
 15 18  1  0  0  0
 15 16  2  0  0  0
 18 19  1  0  0  0
 19 20  1  0  0  0
 19 25  1  0  0  0
 20 21  1  0  0  0
 21 22  1  0  0  0
 22 23  1  0  0  0
 22 24  1  0  0  0
 24 25  1  0  0  0
 16 17  1  0  0  0
  6  7  1  0  0  0
  7 26  1  0  0  0
 26 28  1  0  0  0
 26 27  1  0  0  0
 28 29  1  0  0  0
 28 33  2  0  0  0
 29 30  2  0  0  0
 30 31  1  0  0  0
 31 32  2  0  0  0
 32 34  1  0  0  0
 32 33  1  0  0  0
 34 35  1  0  0  0
 34 39  2  0  0  0
 35 36  2  0  0  0
 36 37  1  0  0  0
 37 38  2  0  0  0
 38 39  1  0  0  0
M  END
> <minimizedAffinity>
-10.18440

$$$$
