CHEMBL3895520


 31 35  0  0  0  0  0  0  0  0999 V2000
  -25.0015   -0.7293  -12.1525 C   0  0  0  0  0  0  0  0  0  0  0  0
  -25.6123   -1.3633  -13.2527 C   0  0  0  0  0  0  0  0  0  0  0  0
  -26.8488   -1.9702  -13.1436 C   0  0  0  0  0  0  0  0  0  0  0  0
  -27.4938   -1.9896  -11.9105 C   0  0  0  0  0  0  0  0  0  0  0  0
  -26.9304   -1.4538  -10.7244 C   0  0  0  0  0  0  0  0  0  0  0  0
  -25.6779   -0.7764  -10.8891 C   0  0  0  0  0  0  0  0  0  0  0  0
  -27.6400   -1.6224   -9.4933 N   0  0  0  0  0  0  0  0  0  0  0  0
  -27.3841   -0.7721   -8.3236 C   0  0  0  0  0  0  0  0  0  0  0  0
  -28.2092   -1.0737   -7.0261 C   0  0  0  0  0  0  0  0  0  0  0  0
  -28.7358   -2.4752   -6.8086 C   0  0  0  0  0  0  0  0  0  0  0  0
  -28.7102   -3.3268   -7.9067 C   0  0  0  0  0  0  0  0  0  0  0  0
  -29.2727   -4.5915   -7.7515 C   0  0  0  0  0  0  0  0  0  0  0  0
  -29.9555   -5.0070   -6.6705 N   0  0  0  0  0  0  0  0  0  0  0  0
  -30.0197   -4.1890   -5.6239 C   0  0  0  0  0  0  0  0  0  0  0  0
  -30.7714   -4.6386   -4.5446 C   0  0  0  0  0  0  0  0  0  0  0  0
  -30.7992   -3.9532   -3.3349 C   0  0  0  0  0  0  0  0  0  0  0  0
  -30.0657   -2.7890   -3.2067 C   0  0  0  0  0  0  0  0  0  0  0  0
  -29.3796   -2.2632   -4.3273 C   0  0  0  0  0  0  0  0  0  0  0  0
  -29.3592   -2.9319   -5.5802 C   0  0  0  0  0  0  0  0  0  0  0  0
  -28.1731   -2.9808   -9.2642 C   0  0  0  0  0  0  0  0  0  0  0  0
  -23.5215    0.7821  -13.5597 N   0  0  0  0  0  0  0  0  0  0  0  0
  -23.6498   -0.1136  -12.5073 C   0  0  0  0  0  0  0  0  0  0  0  0
  -22.6893   -0.4963  -11.8373 O   0  0  0  0  0  0  0  0  0  0  0  0
  -24.3388    0.9911  -14.1143 H   0  0  0  0  0  0  0  0  0  0  0  0
  -18.9330    0.1182  -15.4204 C   0  0  0  0  0  0  0  0  0  0  0  0
  -20.0247    1.0299  -14.9402 C   0  0  0  0  0  0  0  0  0  0  0  0
  -19.7936    2.4107  -14.9050 C   0  0  0  0  0  0  0  0  0  0  0  0
  -20.7875    3.2677  -14.4427 C   0  0  0  0  0  0  0  0  0  0  0  0
  -22.0119    2.7515  -13.9963 C   0  0  0  0  0  0  0  0  0  0  0  0
  -22.2847    1.3698  -14.0165 C   0  0  0  0  0  0  0  0  0  0  0  0
  -21.2680    0.5289  -14.4958 C   0  0  0  0  0  0  0  0  0  0  0  0
 25 26  1  0  0  0
 26 27  1  0  0  0
 26 31  2  0  0  0
 27 28  2  0  0  0
 28 29  1  0  0  0
 29 30  2  0  0  0
 30 21  1  0  0  0
 30 31  1  0  0  0
 21 22  1  0  0  0
 21 24  1  0  0  0
 22 23  2  0  0  0
 22  1  1  0  0  0
  1  2  1  0  0  0
  1  6  2  0  0  0
  2  3  2  0  0  0
  3  4  1  0  0  0
  4  5  2  0  0  0
  5  7  1  0  0  0
  5  6  1  0  0  0
  7  8  1  0  0  0
  7 20  1  0  0  0
  8  9  1  0  0  0
  9 10  1  0  0  0
 10 11  1  0  0  0
 10 19  2  0  0  0
 11 12  2  0  0  0
 11 20  1  0  0  0
 12 13  1  0  0  0
 13 14  2  0  0  0
 14 15  1  0  0  0
 14 19  1  0  0  0
 15 16  2  0  0  0
 16 17  1  0  0  0
 17 18  2  0  0  0
 18 19  1  0  0  0
M  END
> <minimizedAffinity>
-11.75130

$$$$
