CHEMBL75462


 27 30  0  0  0  0  0  0  0  0999 V2000
  -28.1291   11.9282  -14.5359 C   0  0  0  0  0  0  0  0  0  0  0  0
  -28.3528   11.3247  -15.7228 N   0  0  0  0  0  0  0  0  0  0  0  0
  -27.3421   10.7435  -16.4225 N   0  0  0  0  0  0  0  0  0  0  0  0
  -26.0898   10.7232  -15.9183 C   0  0  0  0  0  0  0  0  0  0  0  0
  -25.7814   11.3324  -14.6882 C   0  0  0  0  0  0  0  0  0  0  0  0
  -24.4932   11.3035  -14.1007 C   0  0  0  0  0  0  0  0  0  0  0  0
  -24.2239   11.9524  -12.8956 C   0  0  0  0  0  0  0  0  0  0  0  0
  -25.2333   12.6455  -12.2452 C   0  0  0  0  0  0  0  0  0  0  0  0
  -26.5207   12.6587  -12.7829 C   0  0  0  0  0  0  0  0  0  0  0  0
  -26.8257   11.9987  -13.9990 C   0  0  0  0  0  0  0  0  0  0  0  0
  -29.2347   12.4542  -13.8130 N   0  0  0  0  0  0  0  0  0  0  0  0
  -29.2728   13.4599  -13.9149 H   0  0  0  0  0  0  0  0  0  0  0  0
  -32.9172   11.8812  -14.1267 C   0  0  0  0  0  0  0  0  0  0  0  0
  -33.0534   10.6629  -13.4607 C   0  0  0  0  0  0  0  0  0  0  0  0
  -31.9399   10.0524  -12.8934 C   0  0  0  0  0  0  0  0  0  0  0  0
  -30.6854   10.6473  -13.0113 C   0  0  0  0  0  0  0  0  0  0  0  0
  -30.5080   11.8443  -13.7173 C   0  0  0  0  0  0  0  0  0  0  0  0
  -31.6479   12.4722  -14.2344 C   0  0  0  0  0  0  0  0  0  0  0  0
  -35.1189   11.8529  -15.0180 C   0  0  0  0  0  0  0  0  0  0  0  0
  -33.9391   12.5866  -14.7047 O   0  0  0  0  0  0  0  0  0  0  0  0
  -25.0870    9.9905  -16.7786 C   0  0  0  0  0  0  0  0  0  0  0  0
  -23.9783   10.8315  -17.3769 C   0  0  0  0  0  0  0  0  0  0  0  0
  -22.6268   10.4850  -17.2651 C   0  0  0  0  0  0  0  0  0  0  0  0
  -21.6768   11.2665  -17.9068 C   0  0  0  0  0  0  0  0  0  0  0  0
  -21.9743   12.3487  -18.6557 N   0  0  0  0  0  0  0  0  0  0  0  0
  -23.2817   12.6569  -18.7742 C   0  0  0  0  0  0  0  0  0  0  0  0
  -24.3032   11.9405  -18.1670 C   0  0  0  0  0  0  0  0  0  0  0  0
 19 20  1  0  0  0
 20 13  1  0  0  0
 13 14  1  0  0  0
 13 18  2  0  0  0
 14 15  2  0  0  0
 15 16  1  0  0  0
 16 17  2  0  0  0
 17 11  1  0  0  0
 17 18  1  0  0  0
 11  1  1  0  0  0
 11 12  1  0  0  0
  1  2  1  0  0  0
  1 10  2  0  0  0
  2  3  2  0  0  0
  3  4  1  0  0  0
  4 21  1  0  0  0
  4  5  2  0  0  0
 21 22  1  0  0  0
 22 23  1  0  0  0
 22 27  2  0  0  0
 23 24  2  0  0  0
 24 25  1  0  0  0
 25 26  2  0  0  0
 26 27  1  0  0  0
  5  6  1  0  0  0
  5 10  1  0  0  0
  6  7  2  0  0  0
  7  8  1  0  0  0
  8  9  2  0  0  0
  9 10  1  0  0  0
M  END
> <minimizedAffinity>
-5.52383

$$$$
