CHEMBL3114021


 29 32  0  0  0  0  0  0  0  0999 V2000
  -21.2527    0.9812  -14.4167 C   0  0  0  0  0  0  0  0  0  0  0  0
  -21.9462    2.0692  -14.0703 N   0  0  0  0  0  0  0  0  0  0  0  0
  -21.2785    3.2350  -14.1147 C   0  0  0  0  0  0  0  0  0  0  0  0
  -19.9731    3.3650  -14.5364 C   0  0  0  0  0  0  0  0  0  0  0  0
  -19.3146    2.2093  -14.9079 C   0  0  0  0  0  0  0  0  0  0  0  0
  -19.9695    1.0394  -14.7967 N   0  0  0  0  0  0  0  0  0  0  0  0
  -21.9399   -0.2341  -14.4239 N   0  0  0  0  0  0  0  0  0  0  0  0
  -21.7811   -0.7228  -15.2920 H   0  0  0  0  0  0  0  0  0  0  0  0
  -25.2929   -1.4750  -13.3492 C   0  0  0  0  0  0  0  0  0  0  0  0
  -25.0564   -1.7705  -12.0085 C   0  0  0  0  0  0  0  0  0  0  0  0
  -23.7934   -1.5568  -11.4665 C   0  0  0  0  0  0  0  0  0  0  0  0
  -22.7692   -1.0409  -12.2568 C   0  0  0  0  0  0  0  0  0  0  0  0
  -22.9773   -0.7149  -13.6068 C   0  0  0  0  0  0  0  0  0  0  0  0
  -24.2480   -0.9568  -14.1363 C   0  0  0  0  0  0  0  0  0  0  0  0
  -27.5900   -2.0475  -13.1733 C   0  0  0  0  0  0  0  0  0  0  0  0
  -26.4857   -1.6574  -13.9912 O   0  0  0  0  0  0  0  0  0  0  0  0
  -17.9984    2.2491  -15.4684 N   0  0  0  0  0  0  0  0  0  0  0  0
  -17.6296    3.5722  -16.0058 C   0  0  0  0  0  0  0  0  0  0  0  0
  -16.8595    1.4598  -15.0401 C   0  0  0  0  0  0  0  0  0  0  0  0
  -16.8798    0.8183  -13.7381 C   0  0  0  0  0  0  0  0  0  0  0  0
  -15.7634    0.3271  -13.0256 C   0  0  0  0  0  0  0  0  0  0  0  0
  -14.6756    0.3047  -13.8691 C   0  0  0  0  0  0  0  0  0  0  0  0
  -13.3715   -0.0670  -13.5913 C   0  0  0  0  0  0  0  0  0  0  0  0
  -12.1148    0.7686  -13.4920 C   0  0  0  0  0  0  0  0  0  0  0  0
  -13.3315   -0.9633  -14.6437 N   0  0  0  0  0  0  0  0  0  0  0  0
  -12.8480   -2.3105  -14.5317 C   0  0  0  0  0  0  0  0  0  0  0  0
  -13.7398   -0.3324  -15.7897 N   0  0  0  0  0  0  0  0  0  0  0  0
  -14.7132    0.4820  -15.2967 C   0  0  0  0  0  0  0  0  0  0  0  0
  -15.7395    1.2320  -15.8978 C   0  0  0  0  0  0  0  0  0  0  0  0
 15 16  1  0  0  0
 16  9  1  0  0  0
  9 10  1  0  0  0
  9 14  2  0  0  0
 10 11  2  0  0  0
 11 12  1  0  0  0
 12 13  2  0  0  0
 13  7  1  0  0  0
 13 14  1  0  0  0
  7  1  1  0  0  0
  7  8  1  0  0  0
  1  2  1  0  0  0
  1  6  2  0  0  0
  2  3  2  0  0  0
  3  4  1  0  0  0
  4  5  2  0  0  0
  5 17  1  0  0  0
  5  6  1  0  0  0
 17 18  1  0  0  0
 17 19  1  0  0  0
 19 20  1  0  0  0
 19 29  2  0  0  0
 20 21  2  0  0  0
 21 22  1  0  0  0
 22 23  2  0  0  0
 22 28  1  0  0  0
 23 24  1  0  0  0
 23 25  1  0  0  0
 25 26  1  0  0  0
 25 27  1  0  0  0
 27 28  2  0  0  0
 28 29  1  0  0  0
M  END
> <minimizedAffinity>
-9.09996

$$$$
