CHEMBL3965710


 35 38  0  0  0  0  0  0  0  0999 V2000
  -14.1506   -4.4186  -11.4870 N   0  0  0  0  0  0  0  0  0  0  0  0
  -14.2988   -3.2658  -12.3435 C   0  0  0  0  0  0  0  0  0  0  0  0
  -13.3575   -3.0582  -13.3572 C   0  0  0  0  0  0  0  0  0  0  0  0
  -13.2642   -1.8899  -14.0878 C   0  0  0  0  0  0  0  0  0  0  0  0
  -14.1799   -0.9070  -13.9598 C   0  0  0  0  0  0  0  0  0  0  0  0
  -13.8584    0.1629  -14.6839 N   0  0  0  0  0  0  0  0  0  0  0  0
  -14.8186    1.0598  -14.8427 C   0  0  0  0  0  0  0  0  0  0  0  0
  -16.0816    0.8790  -14.3236 C   0  0  0  0  0  0  0  0  0  0  0  0
  -16.3719   -0.1667  -13.4616 N   0  0  0  0  0  0  0  0  0  0  0  0
  -15.3660   -1.0962  -13.2114 C   0  0  0  0  0  0  0  0  0  0  0  0
  -15.3349   -2.2755  -12.3212 C   0  0  0  0  0  0  0  0  0  0  0  0
  -17.1111    1.7127  -14.9349 C   0  0  0  0  0  0  0  0  0  0  0  0
  -16.9800    2.8168  -15.8164 C   0  0  0  0  0  0  0  0  0  0  0  0
  -18.1150    3.5164  -15.9497 N   0  0  0  0  0  0  0  0  0  0  0  0
  -18.9757    2.8691  -15.1468 N   0  0  0  0  0  0  0  0  0  0  0  0
  -20.3939    3.1313  -15.2180 C   0  0  0  0  0  0  0  0  0  0  0  0
  -18.3766    1.8973  -14.3957 C   0  0  0  0  0  0  0  0  0  0  0  0
  -13.0318   -4.9357  -10.7346 C   0  0  0  0  0  0  0  0  0  0  0  0
  -12.3132   -6.0780  -11.1816 C   0  0  0  0  0  0  0  0  0  0  0  0
  -11.3610   -6.7598  -10.4342 C   0  0  0  0  0  0  0  0  0  0  0  0
  -10.9661   -6.2252   -9.2417 C   0  0  0  0  0  0  0  0  0  0  0  0
  -11.4643   -4.9633   -8.8585 C   0  0  0  0  0  0  0  0  0  0  0  0
  -12.5260   -4.3600   -9.5649 C   0  0  0  0  0  0  0  0  0  0  0  0
  -10.7613   -7.9340  -10.8101 O   0  0  0  0  0  0  0  0  0  0  0  0
  -11.5530   -8.8574  -11.5726 C   0  0  0  0  0  0  0  0  0  0  0  0
  -10.9634   -4.2604   -7.7850 O   0  0  0  0  0  0  0  0  0  0  0  0
  -11.4704   -2.9286   -7.6546 C   0  0  0  0  0  0  0  0  0  0  0  0
  -15.3095   -5.3804  -11.4774 C   0  0  0  0  0  0  0  0  0  0  0  0
  -15.8261   -5.8138  -12.8674 C   0  0  0  0  0  0  0  0  0  0  0  0
  -17.2712   -5.7672  -12.8547 O   0  0  0  0  0  0  0  0  0  0  0  0
  -17.5876   -6.4734  -12.2666 H   0  0  0  0  0  0  0  0  0  0  0  0
  -15.3432   -7.1941  -13.3325 C   0  0  0  0  0  0  0  0  0  0  0  0
  -14.3476   -6.1959  -15.3039 C   0  0  0  0  0  0  0  0  0  0  0  0
  -15.2884   -7.1745  -14.8007 N   0  0  0  0  0  0  0  0  0  0  0  0
  -15.0764   -8.1118  -15.1465 H   0  0  0  0  0  0  0  0  0  0  0  0
 33 34  1  0  0  0
 34 32  1  0  0  0
 34 35  1  0  0  0
 32 29  1  0  0  0
 29 30  1  0  0  0
 29 28  1  0  0  0
 30 31  1  0  0  0
 28  1  1  0  0  0
  1 18  1  0  0  0
  1  2  1  0  0  0
 18 19  1  0  0  0
 18 23  2  0  0  0
 19 20  2  0  0  0
 20 24  1  0  0  0
 20 21  1  0  0  0
 24 25  1  0  0  0
 21 22  2  0  0  0
 22 26  1  0  0  0
 22 23  1  0  0  0
 26 27  1  0  0  0
  2  3  1  0  0  0
  2 11  2  0  0  0
  3  4  2  0  0  0
  4  5  1  0  0  0
  5  6  1  0  0  0
  5 10  2  0  0  0
  6  7  2  0  0  0
  7  8  1  0  0  0
  8 12  1  0  0  0
  8  9  2  0  0  0
 12 13  1  0  0  0
 12 17  2  0  0  0
 13 14  2  0  0  0
 14 15  1  0  0  0
 15 16  1  0  0  0
 15 17  1  0  0  0
  9 10  1  0  0  0
 10 11  1  0  0  0
M  END
> <minimizedAffinity>
-7.26414

$$$$
