CHEMBL3937048


 32 36  0  0  0  0  0  0  0  0999 V2000
  -29.0227   -5.5023   -7.5248 C   0  0  0  0  0  0  0  0  0  0  0  0
  -28.6544   -4.4435   -8.3553 C   0  0  0  0  0  0  0  0  0  0  0  0
  -28.3455   -3.1747   -7.8204 C   0  0  0  0  0  0  0  0  0  0  0  0
  -28.0305   -2.0421   -8.5875 C   0  0  0  0  0  0  0  0  0  0  0  0
  -27.6986   -0.8698   -8.0148 N   0  0  0  0  0  0  0  0  0  0  0  0
  -27.7049   -0.8223   -6.6818 C   0  0  0  0  0  0  0  0  0  0  0  0
  -28.0558   -1.8200   -5.8632 N   0  0  0  0  0  0  0  0  0  0  0  0
  -28.3813   -2.9793   -6.4330 C   0  0  0  0  0  0  0  0  0  0  0  0
  -28.8048   -4.0309   -5.6264 C   0  0  0  0  0  0  0  0  0  0  0  0
  -29.1567   -5.2810   -6.1462 C   0  0  0  0  0  0  0  0  0  0  0  0
  -28.2317   -7.4451   -8.6101 C   0  0  0  0  0  0  0  0  0  0  0  0
  -29.3209   -6.7532   -8.0041 O   0  0  0  0  0  0  0  0  0  0  0  0
  -28.1218   -2.0965  -10.0030 N   0  0  0  0  0  0  0  0  0  0  0  0
  -28.6457   -2.9140  -10.3079 H   0  0  0  0  0  0  0  0  0  0  0  0
  -27.0526   -1.7842  -10.8758 C   0  0  0  0  0  0  0  0  0  0  0  0
  -25.7643   -1.5438  -10.3737 C   0  0  0  0  0  0  0  0  0  0  0  0
  -24.6890   -1.3178  -11.2329 C   0  0  0  0  0  0  0  0  0  0  0  0
  -24.8913   -1.3139  -12.6106 C   0  0  0  0  0  0  0  0  0  0  0  0
  -26.1759   -1.5046  -13.1229 C   0  0  0  0  0  0  0  0  0  0  0  0
  -26.4098   -1.4927  -14.8288 Cl  0  0  0  0  0  0  0  0  0  0  0  0
  -27.2497   -1.7221  -12.2591 C   0  0  0  0  0  0  0  0  0  0  0  0
  -28.4901   -1.9057  -12.7449 F   0  0  0  0  0  0  0  0  0  0  0  0
  -29.5881   -6.3389   -5.3883 O   0  0  0  0  0  0  0  0  0  0  0  0
  -28.6180   -7.1034   -4.6593 C   0  0  0  0  0  0  0  0  0  0  0  0
  -29.0461   -7.1607   -3.1875 C   0  0  0  0  0  0  0  0  0  0  0  0
  -29.1244   -8.5351   -2.7715 O   0  0  0  0  0  0  0  0  0  0  0  0
  -28.5318   -9.3401   -3.7886 C   0  0  0  0  0  0  0  0  0  0  0  0
  -27.0383   -9.5201   -3.6016 C   0  0  0  0  0  0  0  0  0  0  0  0
  -26.7763  -10.6876   -2.9631 F   0  0  0  0  0  0  0  0  0  0  0  0
  -26.5187   -9.5662   -5.0214 C   0  0  0  0  0  0  0  0  0  0  0  0
  -27.4808   -8.9191   -5.8698 O   0  0  0  0  0  0  0  0  0  0  0  0
  -28.6302   -8.5699   -5.0829 C   0  0  0  0  0  0  0  0  0  0  0  0
 11 12  1  0  0  0
 12  1  1  0  0  0
  1  2  1  0  0  0
  1 10  2  0  0  0
  2  3  2  0  0  0
  3  4  1  0  0  0
  3  8  1  0  0  0
  4 13  1  0  0  0
  4  5  2  0  0  0
 13 15  1  0  0  0
 13 14  1  0  0  0
 15 16  1  0  0  0
 15 21  2  0  0  0
 16 17  2  0  0  0
 17 18  1  0  0  0
 18 19  2  0  0  0
 19 20  1  0  0  0
 19 21  1  0  0  0
 21 22  1  0  0  0
  5  6  1  0  0  0
  6  7  2  0  0  0
  7  8  1  0  0  0
  8  9  2  0  0  0
  9 10  1  0  0  0
 10 23  1  0  0  0
 24 25  1  0  0  0
 24 32  1  0  0  0
 24 23  1  0  0  0
 25 26  1  0  0  0
 26 27  1  0  0  0
 27 28  1  0  0  0
 27 32  1  0  0  0
 28 29  1  0  0  0
 28 30  1  0  0  0
 30 31  1  0  0  0
 31 32  1  0  0  0
M  END
> <minimizedAffinity>
-8.51518

$$$$
