CHEMBL2010871


 37 43  0  0  0  0  0  0  0  0999 V2000
  -13.4387   -7.7981  -12.6657 N   0  0  0  0  0  0  0  0  0  0  0  0
  -13.4322   -7.9130  -14.0709 C   0  0  0  0  0  0  0  0  0  0  0  0
  -13.4103   -9.0353  -14.9144 C   0  0  0  0  0  0  0  0  0  0  0  0
  -13.2059   -8.8320  -16.2949 C   0  0  0  0  0  0  0  0  0  0  0  0
  -13.1092   -7.5620  -16.8515 C   0  0  0  0  0  0  0  0  0  0  0  0
  -13.1746   -6.4588  -15.9971 C   0  0  0  0  0  0  0  0  0  0  0  0
  -13.2905   -6.6259  -14.6078 C   0  0  0  0  0  0  0  0  0  0  0  0
  -13.1749   -5.8418  -13.4783 C   0  0  0  0  0  0  0  0  0  0  0  0
  -12.5694   -4.5694  -13.5017 C   0  0  0  0  0  0  0  0  0  0  0  0
  -12.0243   -4.1446  -12.2728 C   0  0  0  0  0  0  0  0  0  0  0  0
  -12.1667   -4.8436  -11.0641 C   0  0  0  0  0  0  0  0  0  0  0  0
  -13.2759   -5.7469  -11.0661 C   0  0  0  0  0  0  0  0  0  0  0  0
  -13.4205   -6.4585  -12.2839 C   0  0  0  0  0  0  0  0  0  0  0  0
  -14.5090   -5.1845  -10.2488 C   0  0  0  0  0  0  0  0  0  0  0  0
  -14.3581   -3.6695   -9.8082 C   0  0  0  0  0  0  0  0  0  0  0  0
  -13.0210   -3.5467   -9.1685 C   0  0  0  0  0  0  0  0  0  0  0  0
  -12.7530   -3.2244   -7.9039 N   0  0  0  0  0  0  0  0  0  0  0  0
  -11.4964   -3.7091   -7.7382 N   0  0  0  0  0  0  0  0  0  0  0  0
  -10.8898   -3.6851   -6.4289 C   0  0  0  0  0  0  0  0  0  0  0  0
  -11.0233   -4.3939   -8.8326 C   0  0  0  0  0  0  0  0  0  0  0  0
  -11.9332   -4.1427   -9.8253 C   0  0  0  0  0  0  0  0  0  0  0  0
  -11.4566   -2.8410  -12.4962 C   0  0  0  0  0  0  0  0  0  0  0  0
  -10.8944   -2.0263  -11.7731 O   0  0  0  0  0  0  0  0  0  0  0  0
  -11.7319   -2.5739  -13.8326 N   0  0  0  0  0  0  0  0  0  0  0  0
  -12.3713   -3.6245  -14.5833 C   0  0  0  0  0  0  0  0  0  0  0  0
  -11.5104   -1.6641  -14.2063 H   0  0  0  0  0  0  0  0  0  0  0  0
  -12.8516   -7.3056  -18.2023 N   0  0  0  0  0  0  0  0  0  0  0  0
  -12.3990   -8.0313  -18.7405 H   0  0  0  0  0  0  0  0  0  0  0  0
  -13.1759   -6.2549  -19.0502 C   0  0  0  0  0  0  0  0  0  0  0  0
  -12.2303   -5.5211  -19.6564 N   0  0  0  0  0  0  0  0  0  0  0  0
  -12.6447   -4.5049  -20.4338 C   0  0  0  0  0  0  0  0  0  0  0  0
  -13.9665   -4.1951  -20.6369 C   0  0  0  0  0  0  0  0  0  0  0  0
  -14.8626   -4.9997  -19.9736 C   0  0  0  0  0  0  0  0  0  0  0  0
  -14.4934   -6.0137  -19.1716 N   0  0  0  0  0  0  0  0  0  0  0  0
  -13.1949   -8.9266  -11.7721 C   0  0  0  0  0  0  0  0  0  0  0  0
  -10.6965   -8.4611  -11.4214 C   0  0  0  0  0  0  0  0  0  0  0  0
  -11.7568   -9.4748  -11.8257 C   0  0  0  0  0  0  0  0  0  0  0  0
 36 37  1  0  0  0
 37 35  1  0  0  0
 35  1  1  0  0  0
  1  2  1  0  0  0
  1 13  1  0  0  0
  2  3  1  0  0  0
  2  7  2  0  0  0
  3  4  2  0  0  0
  4  5  1  0  0  0
  5 27  1  0  0  0
  5  6  2  0  0  0
 27 29  1  0  0  0
 27 28  1  0  0  0
 29 30  1  0  0  0
 29 34  2  0  0  0
 30 31  2  0  0  0
 31 32  1  0  0  0
 32 33  2  0  0  0
 33 34  1  0  0  0
  6  7  1  0  0  0
  7  8  1  0  0  0
  8  9  1  0  0  0
  8 13  2  0  0  0
  9 10  2  0  0  0
  9 25  1  0  0  0
 10 11  1  0  0  0
 10 22  1  0  0  0
 11 12  2  0  0  0
 11 21  1  0  0  0
 12 13  1  0  0  0
 12 14  1  0  0  0
 14 15  1  0  0  0
 15 16  1  0  0  0
 16 17  2  0  0  0
 16 21  1  0  0  0
 17 18  1  0  0  0
 18 19  1  0  0  0
 18 20  1  0  0  0
 20 21  2  0  0  0
 22 23  2  0  0  0
 22 24  1  0  0  0
 24 25  1  0  0  0
 24 26  1  0  0  0
M  END
> <minimizedAffinity>
-7.53033

$$$$
