CHEMBL3409414


 33 35  0  0  0  0  0  0  0  0999 V2000
  -26.2045   -2.3723  -11.2745 N   0  0  0  0  0  0  0  0  0  0  0  0
  -26.6525   -2.0056  -10.0190 C   0  0  0  0  0  0  0  0  0  0  0  0
  -26.2823   -1.0176   -9.3954 O   0  0  0  0  0  0  0  0  0  0  0  0
  -27.5552   -2.9309   -9.5089 N   0  0  0  0  0  0  0  0  0  0  0  0
  -26.7641   -3.0526  -11.7668 H   0  0  0  0  0  0  0  0  0  0  0  0
  -27.3802   -3.8832   -9.7985 H   0  0  0  0  0  0  0  0  0  0  0  0
  -28.1339   -2.7567   -8.2323 C   0  0  0  0  0  0  0  0  0  0  0  0
  -28.6931   -3.8569   -7.5916 C   0  0  0  0  0  0  0  0  0  0  0  0
  -29.2026   -3.7172   -6.2991 C   0  0  0  0  0  0  0  0  0  0  0  0
  -29.1991   -2.4723   -5.6525 C   0  0  0  0  0  0  0  0  0  0  0  0
  -29.8751   -2.4335   -4.0663 Cl  0  0  0  0  0  0  0  0  0  0  0  0
  -28.6707   -1.3474   -6.2916 C   0  0  0  0  0  0  0  0  0  0  0  0
  -28.1385   -1.5128   -7.5899 C   0  0  0  0  0  0  0  0  0  0  0  0
  -28.6134    0.0356   -5.6973 C   0  0  0  0  0  0  0  0  0  0  0  0
  -27.8196    0.1931   -4.6057 F   0  0  0  0  0  0  0  0  0  0  0  0
  -28.1757    0.9631   -6.5970 F   0  0  0  0  0  0  0  0  0  0  0  0
  -29.8485    0.4671   -5.3056 F   0  0  0  0  0  0  0  0  0  0  0  0
  -23.0127   -0.8086  -13.5520 C   0  0  0  0  0  0  0  0  0  0  0  0
  -22.8078   -1.0857  -12.2032 C   0  0  0  0  0  0  0  0  0  0  0  0
  -23.8581   -1.5846  -11.4278 C   0  0  0  0  0  0  0  0  0  0  0  0
  -25.1262   -1.7953  -11.9834 C   0  0  0  0  0  0  0  0  0  0  0  0
  -25.3364   -1.4596  -13.3239 C   0  0  0  0  0  0  0  0  0  0  0  0
  -24.2904   -0.9502  -14.0961 C   0  0  0  0  0  0  0  0  0  0  0  0
  -21.9315   -0.3446  -14.2672 O   0  0  0  0  0  0  0  0  0  0  0  0
  -18.9206    3.2254  -14.4725 N   0  0  0  0  0  0  0  0  0  0  0  0
  -20.2089    2.7654  -14.3005 C   0  0  0  0  0  0  0  0  0  0  0  0
  -21.1817    3.6668  -14.1441 N   0  0  0  0  0  0  0  0  0  0  0  0
  -22.4315    3.1863  -13.9949 C   0  0  0  0  0  0  0  0  0  0  0  0
  -22.7352    1.8494  -14.0044 C   0  0  0  0  0  0  0  0  0  0  0  0
  -21.6595    1.0176  -14.1878 C   0  0  0  0  0  0  0  0  0  0  0  0
  -20.3876    1.4485  -14.2941 N   0  0  0  0  0  0  0  0  0  0  0  0
  -18.8285    4.1473  -14.0719 H   0  0  0  0  0  0  0  0  0  0  0  0
  -18.2683    2.5155  -14.1690 H   0  0  0  0  0  0  0  0  0  0  0  0
 25 26  1  0  0  0
 25 32  1  0  0  0
 25 33  1  0  0  0
 26 27  1  0  0  0
 26 31  2  0  0  0
 27 28  2  0  0  0
 28 29  1  0  0  0
 29 30  2  0  0  0
 30 24  1  0  0  0
 30 31  1  0  0  0
 24 18  1  0  0  0
 18 19  1  0  0  0
 18 23  2  0  0  0
 19 20  2  0  0  0
 20 21  1  0  0  0
 21  1  1  0  0  0
 21 22  2  0  0  0
  1  2  1  0  0  0
  1  5  1  0  0  0
  2  3  2  0  0  0
  2  4  1  0  0  0
  4  7  1  0  0  0
  4  6  1  0  0  0
  7  8  1  0  0  0
  7 13  2  0  0  0
  8  9  2  0  0  0
  9 10  1  0  0  0
 10 11  1  0  0  0
 10 12  2  0  0  0
 12 14  1  0  0  0
 12 13  1  0  0  0
 14 15  1  0  0  0
 14 16  1  0  0  0
 14 17  1  0  0  0
 22 23  1  0  0  0
M  END
> <minimizedAffinity>
-11.37475

$$$$
