CHEMBL4245874


 20 22  0  0  0  0  0  0  0  0999 V2000
  -23.5828   -1.3213  -12.3652 N   0  0  0  0  0  0  0  0  0  0  0  0
  -22.9051   -1.7598  -11.7574 H   0  0  0  0  0  0  0  0  0  0  0  0
  -24.9097   -1.4504  -11.9150 C   0  0  0  0  0  0  0  0  0  0  0  0
  -25.1491   -1.4708  -10.5759 N   0  0  0  0  0  0  0  0  0  0  0  0
  -26.4038   -1.6167  -10.1224 C   0  0  0  0  0  0  0  0  0  0  0  0
  -27.5141   -1.7569  -10.8416 N   0  0  0  0  0  0  0  0  0  0  0  0
  -27.2536   -1.7175  -12.1534 C   0  0  0  0  0  0  0  0  0  0  0  0
  -28.2310   -1.8432  -13.0912 O   0  0  0  0  0  0  0  0  0  0  0  0
  -27.6382   -1.7616  -14.3047 C   0  0  0  0  0  0  0  0  0  0  0  0
  -26.2760   -1.5847  -14.1846 C   0  0  0  0  0  0  0  0  0  0  0  0
  -25.3093   -1.4455  -15.2988 C   0  0  0  0  0  0  0  0  0  0  0  0
  -26.0184   -1.5612  -12.7718 C   0  0  0  0  0  0  0  0  0  0  0  0
  -22.0203    2.1437  -14.2271 C   0  0  0  0  0  0  0  0  0  0  0  0
  -21.4500    0.8991  -14.4788 C   0  0  0  0  0  0  0  0  0  0  0  0
  -21.9652   -0.2439  -13.8644 C   0  0  0  0  0  0  0  0  0  0  0  0
  -23.0517   -0.1691  -12.9849 C   0  0  0  0  0  0  0  0  0  0  0  0
  -23.6455    1.0761  -12.7667 C   0  0  0  0  0  0  0  0  0  0  0  0
  -23.1237    2.2254  -13.3738 C   0  0  0  0  0  0  0  0  0  0  0  0
  -20.2327    3.3884  -15.1647 C   0  0  0  0  0  0  0  0  0  0  0  0
  -21.5942    3.3330  -14.7517 O   0  0  0  0  0  0  0  0  0  0  0  0
 19 20  1  0  0  0
 20 13  1  0  0  0
 13 14  1  0  0  0
 13 18  2  0  0  0
 14 15  2  0  0  0
 15 16  1  0  0  0
 16  1  1  0  0  0
 16 17  2  0  0  0
  1  3  1  0  0  0
  1  2  1  0  0  0
  3  4  1  0  0  0
  3 12  2  0  0  0
  4  5  2  0  0  0
  5  6  1  0  0  0
  6  7  2  0  0  0
  7  8  1  0  0  0
  7 12  1  0  0  0
  8  9  1  0  0  0
  9 10  2  0  0  0
 10 11  1  0  0  0
 10 12  1  0  0  0
 17 18  1  0  0  0
M  END
> <minimizedAffinity>
-7.48255

$$$$
