CHEMBL4465866


 69 79  0  0  0  0  0  0  0  0999 V2000
  -27.9325   -4.2368   -5.4193 N   0  0  0  0  0  0  0  0  0  0  0  0
  -28.0838   -4.1086   -6.4237 H   0  0  0  0  0  0  0  0  0  0  0  0
  -29.6548   -5.9865   -5.5419 C   0  0  0  0  0  0  0  0  0  0  0  0
  -28.4807   -5.4460   -4.7578 C   0  0  0  0  0  0  0  0  0  0  0  0
  -27.5271   -6.6491   -4.4300 C   0  0  0  0  0  0  0  0  0  0  0  0
  -28.1378   -8.0126   -4.1933 C   0  0  0  0  0  0  0  0  0  0  0  0
  -29.5949   -8.1442   -4.4036 O   0  0  0  0  0  0  0  0  0  0  0  0
  -30.0118   -7.5653   -5.6332 C   0  0  0  0  0  0  0  0  0  0  0  0
  -31.5148   -7.2258   -6.1466 C   0  0  0  0  0  0  0  0  0  0  0  0
  -29.6319   -8.5809   -6.5972 N   0  0  0  0  0  0  0  0  0  0  0  0
  -30.5063   -9.5429   -7.0076 C   0  0  0  0  0  0  0  0  0  0  0  0
  -31.6961   -9.9111   -6.3481 C   0  0  0  0  0  0  0  0  0  0  0  0
  -32.5454  -10.8104   -6.9380 C   0  0  0  0  0  0  0  0  0  0  0  0
  -32.1834  -11.3765   -8.1718 C   0  0  0  0  0  0  0  0  0  0  0  0
  -30.9030  -11.1210   -8.7474 C   0  0  0  0  0  0  0  0  0  0  0  0
  -30.0564  -10.2180   -8.0932 C   0  0  0  0  0  0  0  0  0  0  0  0
  -28.6986   -9.9497   -8.0873 C   0  0  0  0  0  0  0  0  0  0  0  0
  -27.6400  -10.5263   -8.7172 C   0  0  0  0  0  0  0  0  0  0  0  0
  -26.4463  -10.6735   -8.0021 C   0  0  0  0  0  0  0  0  0  0  0  0
  -26.4017  -10.2144   -6.6432 C   0  0  0  0  0  0  0  0  0  0  0  0
  -25.6808  -10.4768   -5.4760 C   0  0  0  0  0  0  0  0  0  0  0  0
  -24.7985  -11.5011   -5.1082 C   0  0  0  0  0  0  0  0  0  0  0  0
  -24.3150  -11.5211   -3.7771 C   0  0  0  0  0  0  0  0  0  0  0  0
  -24.6215  -10.4732   -2.8845 C   0  0  0  0  0  0  0  0  0  0  0  0
  -25.5468   -9.4894   -3.2495 C   0  0  0  0  0  0  0  0  0  0  0  0
  -26.1395   -9.5813   -4.5135 C   0  0  0  0  0  0  0  0  0  0  0  0
  -27.2433   -8.9255   -4.9527 N   0  0  0  0  0  0  0  0  0  0  0  0
  -27.3859   -9.3239   -6.2199 C   0  0  0  0  0  0  0  0  0  0  0  0
  -28.4988   -9.1526   -6.9929 C   0  0  0  0  0  0  0  0  0  0  0  0
  -25.5753  -11.3824   -8.9268 C   0  0  0  0  0  0  0  0  0  0  0  0
  -24.4008  -11.6491   -8.7389 O   0  0  0  0  0  0  0  0  0  0  0  0
  -26.2168  -11.6076  -10.1032 N   0  0  0  0  0  0  0  0  0  0  0  0
  -27.5861  -11.1444  -10.0507 C   0  0  0  0  0  0  0  0  0  0  0  0
  -25.7942  -12.0334  -10.9405 H   0  0  0  0  0  0  0  0  0  0  0  0
  -30.0879   -4.7564   -7.5912 C   0  0  0  0  0  0  0  0  0  0  0  0
  -30.4147   -4.9841   -6.2420 O   0  0  0  0  0  0  0  0  0  0  0  0
  -27.9483   -2.9038   -4.7813 C   0  0  0  0  0  0  0  0  0  0  0  0
  -28.0835   -1.8111   -5.8421 C   0  0  0  0  0  0  0  0  0  0  0  0
  -27.5718   -2.2723   -7.0673 O   0  0  0  0  0  0  0  0  0  0  0  0
  -27.7821   -1.3306   -8.1075 C   0  0  0  0  0  0  0  0  0  0  0  0
  -27.4962   -1.8397   -9.5481 C   0  0  0  0  0  0  0  0  0  0  0  0
  -26.1386   -1.6256   -9.9046 O   0  0  0  0  0  0  0  0  0  0  0  0
  -25.9718   -1.6714  -11.3064 C   0  0  0  0  0  0  0  0  0  0  0  0
  -24.5040   -1.4185  -11.6773 C   0  0  0  0  0  0  0  0  0  0  0  0
  -24.3896   -0.5573  -12.7837 O   0  0  0  0  0  0  0  0  0  0  0  0
  -23.0395   -0.1389  -12.8956 C   0  0  0  0  0  0  0  0  0  0  0  0
  -23.0002    1.2498  -13.4739 C   0  0  0  0  0  0  0  0  0  0  0  0
  -21.8320    1.4029  -14.3208 N   0  0  0  0  0  0  0  0  0  0  0  0
  -21.1451    2.6080  -14.6472 C   0  0  0  0  0  0  0  0  0  0  0  0
  -21.6474    3.6081  -14.1412 O   0  0  0  0  0  0  0  0  0  0  0  0
  -21.6517    0.4643  -14.6321 H   0  0  0  0  0  0  0  0  0  0  0  0
  -19.8418    2.9311  -15.5046 C   0  0  0  0  0  0  0  0  0  0  0  0
  -18.3661    2.3926  -15.3513 C   0  0  0  0  0  0  0  0  0  0  0  0
  -16.9429    2.0376  -14.8484 C   0  0  0  0  0  0  0  0  0  0  0  0
  -15.7376    2.4722  -15.2409 N   0  0  0  0  0  0  0  0  0  0  0  0
  -14.9419    1.3165  -15.0538 C   0  0  0  0  0  0  0  0  0  0  0  0
  -14.1213    0.8896  -16.0292 C   0  0  0  0  0  0  0  0  0  0  0  0
  -13.9887    1.7235  -17.2513 C   0  0  0  0  0  0  0  0  0  0  0  0
  -13.8219    1.2804  -18.5535 C   0  0  0  0  0  0  0  0  0  0  0  0
  -14.0706   -0.0994  -19.0669 C   0  0  0  0  0  0  0  0  0  0  0  0
  -13.7639    2.3823  -19.3664 C   0  0  0  0  0  0  0  0  0  0  0  0
  -14.0184    3.4715  -18.5579 C   0  0  0  0  0  0  0  0  0  0  0  0
  -14.1375    4.8460  -19.1488 C   0  0  0  0  0  0  0  0  0  0  0  0
  -14.2490    3.0471  -17.2711 N   0  0  0  0  0  0  0  0  0  0  0  0
  -14.9917    3.6595  -16.0309 B   0  0  0  0  0  0  0  0  0  0  0  0
  -13.9869    4.2413  -15.1587 F   0  0  0  0  0  0  0  0  0  0  0  0
  -15.8185    4.7720  -16.3900 F   0  0  0  0  0  0  0  0  0  0  0  0
  -15.5263    0.3710  -14.1445 C   0  0  0  0  0  0  0  0  0  0  0  0
  -16.8213    0.7835  -14.0664 C   0  0  0  0  0  0  0  0  0  0  0  0
 35 36  1  0  0  0
 36  3  1  0  0  0
  3  4  1  0  0  0
  3  8  1  0  0  0
  4  1  1  0  0  0
  4  5  1  0  0  0
  1 37  1  0  0  0
  1  2  1  0  0  0
 37 38  1  0  0  0
 38 39  1  0  0  0
 39 40  1  0  0  0
 40 41  1  0  0  0
 41 42  1  0  0  0
 42 43  1  0  0  0
 43 44  1  0  0  0
 44 45  1  0  0  0
 45 46  1  0  0  0
 46 47  1  0  0  0
 47 48  1  0  0  0
 48 49  1  0  0  0
 48 51  1  0  0  0
 49 50  2  0  0  0
 49 52  1  0  0  0
 52 53  1  0  0  0
 53 54  1  0  0  0
 54 55  2  0  0  0
 54 69  1  0  0  0
 55 56  1  0  0  0
 55 65  1  0  0  0
 56 57  2  0  0  0
 56 68  1  0  0  0
 57 58  1  0  0  0
 58 59  2  0  0  0
 58 64  1  0  0  0
 59 60  1  0  0  0
 59 61  1  0  0  0
 61 62  2  0  0  0
 62 63  1  0  0  0
 62 64  1  0  0  0
 64 65  1  0  0  0
 65 66  1  0  0  0
 65 67  1  0  0  0
 68 69  2  0  0  0
  5  6  1  0  0  0
  6  7  1  0  0  0
  6 27  1  0  0  0
  7  8  1  0  0  0
  8  9  1  0  0  0
  8 10  1  0  0  0
 10 11  1  0  0  0
 10 29  1  0  0  0
 11 12  1  0  0  0
 11 16  2  0  0  0
 12 13  2  0  0  0
 13 14  1  0  0  0
 14 15  2  0  0  0
 15 16  1  0  0  0
 16 17  1  0  0  0
 17 18  1  0  0  0
 17 29  2  0  0  0
 18 19  2  0  0  0
 18 33  1  0  0  0
 19 20  1  0  0  0
 19 30  1  0  0  0
 20 21  1  0  0  0
 20 28  2  0  0  0
 21 22  1  0  0  0
 21 26  2  0  0  0
 22 23  2  0  0  0
 23 24  1  0  0  0
 24 25  2  0  0  0
 25 26  1  0  0  0
 26 27  1  0  0  0
 27 28  1  0  0  0
 28 29  1  0  0  0
 30 31  2  0  0  0
 30 32  1  0  0  0
 32 33  1  0  0  0
 32 34  1  0  0  0
M  CHG 1  55   1
M  CHG 1  65  -1
M  END
> <minimizedAffinity>
-9.83506

$$$$
