CHEMBL4285414


 33 36  0  0  0  0  0  0  0  0999 V2000
  -17.7973    2.3456  -15.0343 C   0  0  0  0  0  0  0  0  0  0  0  0
  -17.5820    3.5726  -15.6688 C   0  0  0  0  0  0  0  0  0  0  0  0
  -16.5077    3.7459  -16.5506 C   0  0  0  0  0  0  0  0  0  0  0  0
  -15.6213    2.7014  -16.7930 C   0  0  0  0  0  0  0  0  0  0  0  0
  -15.7752    1.5149  -16.0712 C   0  0  0  0  0  0  0  0  0  0  0  0
  -14.8966    0.5080  -16.1848 F   0  0  0  0  0  0  0  0  0  0  0  0
  -16.8680    1.3216  -15.2275 C   0  0  0  0  0  0  0  0  0  0  0  0
  -20.3691    1.0704  -15.6999 O   0  0  0  0  0  0  0  0  0  0  0  0
  -20.1015    1.4792  -14.5771 C   0  0  0  0  0  0  0  0  0  0  0  0
  -20.9866    1.3980  -13.5030 N   0  0  0  0  0  0  0  0  0  0  0  0
  -18.9027    2.0669  -14.2005 N   0  0  0  0  0  0  0  0  0  0  0  0
  -20.8069    1.8999  -12.6466 H   0  0  0  0  0  0  0  0  0  0  0  0
  -18.7745    2.2329  -13.2148 H   0  0  0  0  0  0  0  0  0  0  0  0
  -22.2337    0.8976  -13.7292 N   0  0  0  0  0  0  0  0  0  0  0  0
  -22.6863    0.0377  -12.8779 C   0  0  0  0  0  0  0  0  0  0  0  0
  -24.0415   -0.5315  -13.0355 C   0  0  0  0  0  0  0  0  0  0  0  0
  -24.4055   -1.1618  -14.2317 C   0  0  0  0  0  0  0  0  0  0  0  0
  -25.6810   -1.7097  -14.3731 C   0  0  0  0  0  0  0  0  0  0  0  0
  -26.5896   -1.6203  -13.3201 C   0  0  0  0  0  0  0  0  0  0  0  0
  -28.3143   -2.3712  -13.5070 Br  0  0  0  0  0  0  0  0  0  0  0  0
  -26.2352   -0.9842  -12.1284 C   0  0  0  0  0  0  0  0  0  0  0  0
  -24.9562   -0.4374  -11.9829 C   0  0  0  0  0  0  0  0  0  0  0  0
  -14.6297    2.9612  -17.7087 O   0  0  0  0  0  0  0  0  0  0  0  0
  -14.2896    4.2608  -18.0186 C   0  0  0  0  0  0  0  0  0  0  0  0
  -14.6524    4.9157  -19.2006 C   0  0  0  0  0  0  0  0  0  0  0  0
  -14.1745    6.1962  -19.4399 C   0  0  0  0  0  0  0  0  0  0  0  0
  -13.4326    6.9352  -18.5881 N   0  0  0  0  0  0  0  0  0  0  0  0
  -13.1974    6.2999  -17.4249 C   0  0  0  0  0  0  0  0  0  0  0  0
  -12.5047    6.8441  -16.3808 N   0  0  0  0  0  0  0  0  0  0  0  0
  -12.4579    5.9563  -15.3371 C   0  0  0  0  0  0  0  0  0  0  0  0
  -13.1071    4.8062  -15.7369 C   0  0  0  0  0  0  0  0  0  0  0  0
  -13.5783    5.0120  -17.0662 C   0  0  0  0  0  0  0  0  0  0  0  0
  -12.1135    7.7737  -16.3955 H   0  0  0  0  0  0  0  0  0  0  0  0
  8  9  2  0  0  0
  9 10  1  0  0  0
  9 11  1  0  0  0
 10 14  1  0  0  0
 10 12  1  0  0  0
 14 15  2  0  0  0
 15 16  1  0  0  0
 16 17  1  0  0  0
 16 22  2  0  0  0
 17 18  2  0  0  0
 18 19  1  0  0  0
 19 20  1  0  0  0
 19 21  2  0  0  0
 21 22  1  0  0  0
 11  1  1  0  0  0
 11 13  1  0  0  0
  1  2  1  0  0  0
  1  7  2  0  0  0
  2  3  2  0  0  0
  3  4  1  0  0  0
  4 23  1  0  0  0
  4  5  2  0  0  0
 23 24  1  0  0  0
 24 25  1  0  0  0
 24 32  2  0  0  0
 25 26  2  0  0  0
 26 27  1  0  0  0
 27 28  2  0  0  0
 28 29  1  0  0  0
 28 32  1  0  0  0
 29 30  1  0  0  0
 29 33  1  0  0  0
 30 31  2  0  0  0
 31 32  1  0  0  0
  5  6  1  0  0  0
  5  7  1  0  0  0
M  END
> <minimizedAffinity>
-9.03954

$$$$
