CHEMBL4559188


 36 39  0  0  0  0  0  0  0  0999 V2000
  -24.0079   -1.0812  -13.2074 C   0  0  0  0  0  0  0  0  0  0  0  0
  -25.2917   -1.3387  -13.6942 C   0  0  0  0  0  0  0  0  0  0  0  0
  -26.3649   -1.5445  -12.8240 C   0  0  0  0  0  0  0  0  0  0  0  0
  -26.1512   -1.4772  -11.4503 C   0  0  0  0  0  0  0  0  0  0  0  0
  -24.8584   -1.2925  -10.9480 C   0  0  0  0  0  0  0  0  0  0  0  0
  -23.7903   -1.0882  -11.8249 C   0  0  0  0  0  0  0  0  0  0  0  0
  -21.9233    0.9169  -12.9024 O   0  0  0  0  0  0  0  0  0  0  0  0
  -21.9373    0.1823  -13.8659 C   0  0  0  0  0  0  0  0  0  0  0  0
  -21.0597    0.2397  -14.9356 N   0  0  0  0  0  0  0  0  0  0  0  0
  -22.8826   -0.8298  -14.0424 N   0  0  0  0  0  0  0  0  0  0  0  0
  -21.2764   -0.3319  -15.7347 H   0  0  0  0  0  0  0  0  0  0  0  0
  -22.6859   -1.5246  -14.7464 H   0  0  0  0  0  0  0  0  0  0  0  0
  -20.0523    1.2146  -15.1008 C   0  0  0  0  0  0  0  0  0  0  0  0
  -20.3059    2.5836  -15.2387 C   0  0  0  0  0  0  0  0  0  0  0  0
  -19.2664    3.4825  -15.4956 C   0  0  0  0  0  0  0  0  0  0  0  0
  -17.9603    3.0173  -15.5926 C   0  0  0  0  0  0  0  0  0  0  0  0
  -16.6866    4.1146  -15.9527 Cl  0  0  0  0  0  0  0  0  0  0  0  0
  -17.6844    1.6653  -15.4102 C   0  0  0  0  0  0  0  0  0  0  0  0
  -18.7275    0.7671  -15.1566 C   0  0  0  0  0  0  0  0  0  0  0  0
  -27.2918   -1.6579  -10.5288 C   0  0  0  0  0  0  0  0  0  0  0  0
  -28.3598   -1.1092  -10.7702 O   0  0  0  0  0  0  0  0  0  0  0  0
  -27.0193   -2.4744   -9.4306 N   0  0  0  0  0  0  0  0  0  0  0  0
  -26.0492   -2.7543   -9.2970 H   0  0  0  0  0  0  0  0  0  0  0  0
  -27.9992   -3.3409   -9.0682 N   0  0  0  0  0  0  0  0  0  0  0  0
  -28.4796   -3.1701   -7.8791 C   0  0  0  0  0  0  0  0  0  0  0  0
  -28.2444   -2.0238   -6.8933 C   0  0  0  0  0  0  0  0  0  0  0  0
  -27.8516   -0.9146   -7.1727 O   0  0  0  0  0  0  0  0  0  0  0  0
  -28.4926   -2.5777   -5.6557 N   0  0  0  0  0  0  0  0  0  0  0  0
  -28.6925   -3.9462   -5.7814 C   0  0  0  0  0  0  0  0  0  0  0  0
  -28.3494   -4.9219   -4.8687 C   0  0  0  0  0  0  0  0  0  0  0  0
  -28.3453   -6.2510   -5.3255 C   0  0  0  0  0  0  0  0  0  0  0  0
  -28.7822   -6.5820   -6.6263 C   0  0  0  0  0  0  0  0  0  0  0  0
  -28.7419   -8.3814   -7.2010 Br  0  0  0  0  0  0  0  0  0  0  0  0
  -29.1166   -5.5919   -7.5397 C   0  0  0  0  0  0  0  0  0  0  0  0
  -28.9850   -4.2897   -7.1002 C   0  0  0  0  0  0  0  0  0  0  0  0
  -28.5912   -2.0280   -4.8135 H   0  0  0  0  0  0  0  0  0  0  0  0
  7  8  2  0  0  0
  8  9  1  0  0  0
  8 10  1  0  0  0
  9 13  1  0  0  0
  9 11  1  0  0  0
 13 14  1  0  0  0
 13 19  2  0  0  0
 14 15  2  0  0  0
 15 16  1  0  0  0
 16 17  1  0  0  0
 16 18  2  0  0  0
 18 19  1  0  0  0
 10  1  1  0  0  0
 10 12  1  0  0  0
  1  2  1  0  0  0
  1  6  2  0  0  0
  2  3  2  0  0  0
  3  4  1  0  0  0
  4 20  1  0  0  0
  4  5  2  0  0  0
 20 21  2  0  0  0
 20 22  1  0  0  0
 22 24  1  0  0  0
 22 23  1  0  0  0
 24 25  2  0  0  0
 25 26  1  0  0  0
 25 35  1  0  0  0
 26 27  2  0  0  0
 26 28  1  0  0  0
 28 29  1  0  0  0
 28 36  1  0  0  0
 29 30  1  0  0  0
 29 35  2  0  0  0
 30 31  2  0  0  0
 31 32  1  0  0  0
 32 33  1  0  0  0
 32 34  2  0  0  0
 34 35  1  0  0  0
  5  6  1  0  0  0
M  END
> <minimizedAffinity>
-11.69816

$$$$
