CHEMBL4795330


 38 40  0  0  0  0  0  0  0  0999 V2000
  -14.3574   -4.3745  -11.5913 C   0  0  0  0  0  0  0  0  0  0  0  0
  -14.6009   -3.5630  -10.4907 C   0  0  0  0  0  0  0  0  0  0  0  0
  -14.2244   -3.6185   -9.0538 C   0  0  0  0  0  0  0  0  0  0  0  0
  -15.3221   -2.4827  -10.9298 N   0  0  0  0  0  0  0  0  0  0  0  0
  -15.5763   -2.5407  -12.2757 C   0  0  0  0  0  0  0  0  0  0  0  0
  -14.9598   -3.6984  -12.7294 C   0  0  0  0  0  0  0  0  0  0  0  0
  -14.9234   -4.2044  -14.1373 C   0  0  0  0  0  0  0  0  0  0  0  0
  -15.6857   -1.7712  -10.3084 H   0  0  0  0  0  0  0  0  0  0  0  0
  -16.2800   -1.4696  -12.9110 C   0  0  0  0  0  0  0  0  0  0  0  0
  -15.7303   -0.4346  -13.5821 C   0  0  0  0  0  0  0  0  0  0  0  0
  -14.2563   -0.1291  -13.7721 C   0  0  0  0  0  0  0  0  0  0  0  0
  -13.2828   -0.7289  -13.3586 O   0  0  0  0  0  0  0  0  0  0  0  0
  -14.2082    0.9823  -14.5828 N   0  0  0  0  0  0  0  0  0  0  0  0
  -15.4763    1.4348  -14.9027 C   0  0  0  0  0  0  0  0  0  0  0  0
  -15.7600    2.5188  -15.7014 C   0  0  0  0  0  0  0  0  0  0  0  0
  -17.1021    2.8424  -15.8833 C   0  0  0  0  0  0  0  0  0  0  0  0
  -18.1314    2.0900  -15.2677 C   0  0  0  0  0  0  0  0  0  0  0  0
  -17.7971    0.9512  -14.4952 C   0  0  0  0  0  0  0  0  0  0  0  0
  -16.4578    0.6345  -14.3065 C   0  0  0  0  0  0  0  0  0  0  0  0
  -13.3377    1.3930  -14.8826 H   0  0  0  0  0  0  0  0  0  0  0  0
  -19.5655    2.5262  -15.5178 C   0  0  0  0  0  0  0  0  0  0  0  0
  -20.5338    2.2485  -14.3639 C   0  0  0  0  0  0  0  0  0  0  0  0
  -21.6059    1.3422  -14.7310 N   0  0  0  0  0  0  0  0  0  0  0  0
  -22.2114    0.5323  -13.7978 C   0  0  0  0  0  0  0  0  0  0  0  0
  -23.3800   -0.2603  -14.3193 C   0  0  0  0  0  0  0  0  0  0  0  0
  -21.8516    0.4633  -12.6272 O   0  0  0  0  0  0  0  0  0  0  0  0
  -21.9390    1.3447  -15.6862 H   0  0  0  0  0  0  0  0  0  0  0  0
  -12.3105   -5.5431  -12.1581 N   0  0  0  0  0  0  0  0  0  0  0  0
  -13.5816   -5.6223  -11.6297 C   0  0  0  0  0  0  0  0  0  0  0  0
  -14.0362   -6.6813  -11.1987 O   0  0  0  0  0  0  0  0  0  0  0  0
  -11.8584   -4.6376  -12.2047 H   0  0  0  0  0  0  0  0  0  0  0  0
  -11.4899   -6.7344  -12.2549 C   0  0  0  0  0  0  0  0  0  0  0  0
  -11.2440   -7.2272  -13.6969 C   0  0  0  0  0  0  0  0  0  0  0  0
  -12.0461   -8.3963  -14.1288 N   0  0  0  0  0  0  0  0  0  0  0  0
  -11.9285  -10.1988  -12.3577 C   0  0  0  0  0  0  0  0  0  0  0  0
  -12.7081   -9.0466  -12.9835 C   0  0  0  0  0  0  0  0  0  0  0  0
  -12.9743   -8.0314  -15.2188 C   0  0  0  0  0  0  0  0  0  0  0  0
  -13.0870   -9.0091  -16.3892 C   0  0  0  0  0  0  0  0  0  0  0  0
 35 36  1  0  0  0
 36 34  1  0  0  0
 34 37  1  0  0  0
 34 33  1  0  0  0
 37 38  1  0  0  0
 33 32  1  0  0  0
 32 28  1  0  0  0
 28 29  1  0  0  0
 28 31  1  0  0  0
 29 30  2  0  0  0
 29  1  1  0  0  0
  1  2  2  0  0  0
  1  6  1  0  0  0
  2  3  1  0  0  0
  2  4  1  0  0  0
  4  5  1  0  0  0
  4  8  1  0  0  0
  5  9  1  0  0  0
  5  6  2  0  0  0
  9 10  2  0  0  0
 10 11  1  0  0  0
 10 19  1  0  0  0
 11 12  2  0  0  0
 11 13  1  0  0  0
 13 14  1  0  0  0
 13 20  1  0  0  0
 14 15  1  0  0  0
 14 19  2  0  0  0
 15 16  2  0  0  0
 16 17  1  0  0  0
 17 21  1  0  0  0
 17 18  2  0  0  0
 21 22  1  0  0  0
 22 23  1  0  0  0
 23 24  1  0  0  0
 23 27  1  0  0  0
 24 25  1  0  0  0
 24 26  2  0  0  0
 18 19  1  0  0  0
  6  7  1  0  0  0
M  END
> <minimizedAffinity>
-7.58472

$$$$
