CHEMBL3933707


 39 43  0  0  0  0  0  0  0  0999 V2000
  -28.5352   -7.9746   -5.8626 N   0  0  0  0  0  0  0  0  0  0  0  0
  -28.2686   -6.5562   -5.6546 C   0  0  0  0  0  0  0  0  0  0  0  0
  -27.6151   -6.2797   -4.4596 C   0  0  0  0  0  0  0  0  0  0  0  0
  -27.7365   -5.0526   -3.8467 C   0  0  0  0  0  0  0  0  0  0  0  0
  -28.3981   -4.0234   -4.4583 C   0  0  0  0  0  0  0  0  0  0  0  0
  -28.5919   -2.9732   -3.6525 N   0  0  0  0  0  0  0  0  0  0  0  0
  -29.0903   -1.8658   -4.2128 C   0  0  0  0  0  0  0  0  0  0  0  0
  -29.3169   -1.7674   -5.5682 C   0  0  0  0  0  0  0  0  0  0  0  0
  -29.2341   -2.8827   -6.3896 N   0  0  0  0  0  0  0  0  0  0  0  0
  -28.8120   -4.0927   -5.8100 C   0  0  0  0  0  0  0  0  0  0  0  0
  -28.7809   -5.4377   -6.3746 C   0  0  0  0  0  0  0  0  0  0  0  0
  -29.5099   -0.4138   -6.0796 C   0  0  0  0  0  0  0  0  0  0  0  0
  -28.5449    0.5516   -6.4802 C   0  0  0  0  0  0  0  0  0  0  0  0
  -29.0694    1.7698   -6.6720 N   0  0  0  0  0  0  0  0  0  0  0  0
  -30.3710    1.5924   -6.3911 N   0  0  0  0  0  0  0  0  0  0  0  0
  -31.3541    2.5602   -6.8195 C   0  0  0  0  0  0  0  0  0  0  0  0
  -30.6332    0.3650   -5.8433 C   0  0  0  0  0  0  0  0  0  0  0  0
  -28.7427  -10.0551   -8.9697 C   0  0  0  0  0  0  0  0  0  0  0  0
  -30.1218  -10.1734   -9.1385 C   0  0  0  0  0  0  0  0  0  0  0  0
  -30.9858   -9.4925   -8.2839 C   0  0  0  0  0  0  0  0  0  0  0  0
  -30.4644   -8.7114   -7.2401 C   0  0  0  0  0  0  0  0  0  0  0  0
  -29.0845   -8.5905   -7.0164 C   0  0  0  0  0  0  0  0  0  0  0  0
  -28.2357   -9.2632   -7.9192 C   0  0  0  0  0  0  0  0  0  0  0  0
  -27.1989   -9.9863  -10.7895 C   0  0  0  0  0  0  0  0  0  0  0  0
  -27.8105  -10.7206   -9.7282 O   0  0  0  0  0  0  0  0  0  0  0  0
  -32.3552   -9.5339   -8.3423 O   0  0  0  0  0  0  0  0  0  0  0  0
  -33.0677   -8.8343   -7.3271 C   0  0  0  0  0  0  0  0  0  0  0  0
  -28.9568   -8.5391   -4.5235 C   0  0  0  0  0  0  0  0  0  0  0  0
  -28.5737   -9.9796   -4.1105 C   0  0  0  0  0  0  0  0  0  0  0  0
  -27.1950  -10.2787   -3.4566 C   0  0  0  0  0  0  0  0  0  0  0  0
  -26.2282  -10.7886   -4.4692 N   0  0  0  0  0  0  0  0  0  0  0  0
  -25.1509  -11.6394   -3.9415 C   0  0  0  0  0  0  0  0  0  0  0  0
  -23.9705  -10.7100   -3.7367 C   0  0  0  0  0  0  0  0  0  0  0  0
  -24.0516   -9.7839   -4.9381 C   0  0  0  0  0  0  0  0  0  0  0  0
  -25.5415   -9.7655   -5.2940 C   0  0  0  0  0  0  0  0  0  0  0  0
  -22.9788  -10.3746   -6.2544 S   0  0  0  0  0  0  0  0  0  0  0  0
  -21.7564  -11.3876   -5.4627 C   0  0  0  0  0  0  0  0  0  0  0  0
  -23.7813  -11.2691   -7.0844 O   0  0  0  0  0  0  0  0  0  0  0  0
  -22.2844   -9.2495   -6.8575 O   0  0  0  0  0  0  0  0  0  0  0  0
 24 25  1  0  0  0
 25 18  1  0  0  0
 18 19  1  0  0  0
 18 23  2  0  0  0
 19 20  2  0  0  0
 20 26  1  0  0  0
 20 21  1  0  0  0
 26 27  1  0  0  0
 21 22  2  0  0  0
 22  1  1  0  0  0
 22 23  1  0  0  0
  1 28  1  0  0  0
  1  2  1  0  0  0
 28 29  1  0  0  0
 29 30  1  0  0  0
 30 31  1  0  0  0
 31 32  1  0  0  0
 31 35  1  0  0  0
 32 33  1  0  0  0
 33 34  1  0  0  0
 34 36  1  0  0  0
 34 35  1  0  0  0
 36 37  1  0  0  0
 36 38  2  0  0  0
 36 39  2  0  0  0
  2  3  1  0  0  0
  2 11  2  0  0  0
  3  4  2  0  0  0
  4  5  1  0  0  0
  5  6  1  0  0  0
  5 10  2  0  0  0
  6  7  2  0  0  0
  7  8  1  0  0  0
  8 12  1  0  0  0
  8  9  2  0  0  0
 12 13  1  0  0  0
 12 17  2  0  0  0
 13 14  2  0  0  0
 14 15  1  0  0  0
 15 16  1  0  0  0
 15 17  1  0  0  0
  9 10  1  0  0  0
 10 11  1  0  0  0
M  END
> <minimizedAffinity>
-8.17774

$$$$
