CHEMBL1084061


 35 41  0  0  0  0  0  0  0  0999 V2000
  -13.0950   -3.2326  -15.5242 N   0  0  0  0  0  0  0  0  0  0  0  0
  -13.6440   -1.9384  -15.3796 C   0  0  0  0  0  0  0  0  0  0  0  0
  -13.3428   -0.7068  -15.9932 C   0  0  0  0  0  0  0  0  0  0  0  0
  -14.0421    0.4431  -15.5618 C   0  0  0  0  0  0  0  0  0  0  0  0
  -15.0549    0.3954  -14.5874 C   0  0  0  0  0  0  0  0  0  0  0  0
  -15.3240   -0.8374  -13.9992 C   0  0  0  0  0  0  0  0  0  0  0  0
  -14.5994   -1.9865  -14.3592 C   0  0  0  0  0  0  0  0  0  0  0  0
  -14.4595   -3.2757  -13.8866 C   0  0  0  0  0  0  0  0  0  0  0  0
  -14.7909   -3.6065  -12.5635 C   0  0  0  0  0  0  0  0  0  0  0  0
  -14.0778   -4.6908  -12.0152 C   0  0  0  0  0  0  0  0  0  0  0  0
  -13.2203   -5.5180  -12.7645 C   0  0  0  0  0  0  0  0  0  0  0  0
  -13.4603   -5.4418  -14.1801 C   0  0  0  0  0  0  0  0  0  0  0  0
  -13.6970   -4.1239  -14.6275 C   0  0  0  0  0  0  0  0  0  0  0  0
  -14.3067   -6.6853  -14.6919 C   0  0  0  0  0  0  0  0  0  0  0  0
  -14.8822   -7.6099  -13.5401 C   0  0  0  0  0  0  0  0  0  0  0  0
  -13.7451   -7.9055  -12.6280 C   0  0  0  0  0  0  0  0  0  0  0  0
  -13.1968   -9.0932  -12.3701 N   0  0  0  0  0  0  0  0  0  0  0  0
  -11.9707   -8.7569  -11.9036 N   0  0  0  0  0  0  0  0  0  0  0  0
  -10.9951   -9.7858  -11.6419 C   0  0  0  0  0  0  0  0  0  0  0  0
  -11.7172   -7.4009  -11.9404 C   0  0  0  0  0  0  0  0  0  0  0  0
  -12.9282   -6.8288  -12.2474 C   0  0  0  0  0  0  0  0  0  0  0  0
  -14.5222   -4.8479  -10.6468 C   0  0  0  0  0  0  0  0  0  0  0  0
  -14.2415   -5.6335   -9.7582 O   0  0  0  0  0  0  0  0  0  0  0  0
  -15.4885   -3.8625  -10.4915 N   0  0  0  0  0  0  0  0  0  0  0  0
  -15.6865   -2.9715  -11.6048 C   0  0  0  0  0  0  0  0  0  0  0  0
  -16.0203   -3.8255   -9.6349 H   0  0  0  0  0  0  0  0  0  0  0  0
  -15.8950    1.6251  -14.2521 C   0  0  0  0  0  0  0  0  0  0  0  0
  -17.3603    1.3473  -13.8848 C   0  0  0  0  0  0  0  0  0  0  0  0
  -18.3097    1.4116  -15.0735 C   0  0  0  0  0  0  0  0  0  0  0  0
  -18.1068    2.7267  -15.8050 C   0  0  0  0  0  0  0  0  0  0  0  0
  -16.6630    2.8239  -16.2549 C   0  0  0  0  0  0  0  0  0  0  0  0
  -15.7408    2.7234  -15.1716 O   0  0  0  0  0  0  0  0  0  0  0  0
  -11.9238   -3.5356  -16.3376 C   0  0  0  0  0  0  0  0  0  0  0  0
  -13.4852   -4.2000  -18.2561 C   0  0  0  0  0  0  0  0  0  0  0  0
  -12.1920   -4.4923  -17.5103 C   0  0  0  0  0  0  0  0  0  0  0  0
 34 35  1  0  0  0
 35 33  1  0  0  0
 33  1  1  0  0  0
  1  2  1  0  0  0
  1 13  1  0  0  0
  2  3  1  0  0  0
  2  7  2  0  0  0
  3  4  2  0  0  0
  4  5  1  0  0  0
  5 27  1  0  0  0
  5  6  2  0  0  0
 27 28  1  0  0  0
 27 32  1  0  0  0
 28 29  1  0  0  0
 29 30  1  0  0  0
 30 31  1  0  0  0
 31 32  1  0  0  0
  6  7  1  0  0  0
  7  8  1  0  0  0
  8  9  1  0  0  0
  8 13  2  0  0  0
  9 10  2  0  0  0
  9 25  1  0  0  0
 10 11  1  0  0  0
 10 22  1  0  0  0
 11 12  2  0  0  0
 11 21  1  0  0  0
 12 13  1  0  0  0
 12 14  1  0  0  0
 14 15  1  0  0  0
 15 16  1  0  0  0
 16 17  2  0  0  0
 16 21  1  0  0  0
 17 18  1  0  0  0
 18 19  1  0  0  0
 18 20  1  0  0  0
 20 21  2  0  0  0
 22 23  2  0  0  0
 22 24  1  0  0  0
 24 25  1  0  0  0
 24 26  1  0  0  0
M  END
> <minimizedAffinity>
-7.94460

$$$$
