CHEMBL4079937


 32 35  0  0  0  0  0  0  0  0999 V2000
  -29.6658   -7.0726   -6.0610 C   0  0  0  0  0  0  0  0  0  0  0  0
  -28.8674   -6.8753   -7.1889 C   0  0  0  0  0  0  0  0  0  0  0  0
  -28.5560   -5.5852   -7.6496 C   0  0  0  0  0  0  0  0  0  0  0  0
  -29.1292   -4.4855   -6.9872 C   0  0  0  0  0  0  0  0  0  0  0  0
  -29.9916   -4.6722   -5.8952 C   0  0  0  0  0  0  0  0  0  0  0  0
  -30.3949   -3.3943   -5.4381 C   0  0  0  0  0  0  0  0  0  0  0  0
  -29.7125   -2.4644   -6.1770 C   0  0  0  0  0  0  0  0  0  0  0  0
  -28.9394   -3.1064   -7.1305 N   0  0  0  0  0  0  0  0  0  0  0  0
  -28.0265   -2.4189   -7.9538 C   0  0  0  0  0  0  0  0  0  0  0  0
  -27.3135   -1.5786   -7.4227 O   0  0  0  0  0  0  0  0  0  0  0  0
  -28.2377   -2.6801   -9.2902 N   0  0  0  0  0  0  0  0  0  0  0  0
  -30.2672   -5.9771   -5.4376 C   0  0  0  0  0  0  0  0  0  0  0  0
  -29.0740   -3.1721   -9.5816 H   0  0  0  0  0  0  0  0  0  0  0  0
  -27.5290   -1.9862  -10.2672 C   0  0  0  0  0  0  0  0  0  0  0  0
  -26.1773   -2.2140  -10.6389 C   0  0  0  0  0  0  0  0  0  0  0  0
  -25.9337   -1.3178  -11.6585 C   0  0  0  0  0  0  0  0  0  0  0  0
  -27.0540   -0.5754  -11.8580 O   0  0  0  0  0  0  0  0  0  0  0  0
  -28.0437   -0.9918  -10.9991 N   0  0  0  0  0  0  0  0  0  0  0  0
  -24.7649   -1.0018  -12.5341 C   0  0  0  0  0  0  0  0  0  0  0  0
  -23.4600   -1.5612  -11.9601 C   0  0  0  0  0  0  0  0  0  0  0  0
  -24.9862   -1.5351  -13.9505 C   0  0  0  0  0  0  0  0  0  0  0  0
  -29.9540   -8.3000   -5.5026 O   0  0  0  0  0  0  0  0  0  0  0  0
  -26.7788   -9.4636   -4.1466 C   0  0  0  0  0  0  0  0  0  0  0  0
  -27.7150   -8.5569   -4.6047 C   0  0  0  0  0  0  0  0  0  0  0  0
  -28.9488   -9.0646   -4.9486 C   0  0  0  0  0  0  0  0  0  0  0  0
  -29.2919  -10.3477   -4.7319 N   0  0  0  0  0  0  0  0  0  0  0  0
  -28.3343  -11.1316   -4.2212 C   0  0  0  0  0  0  0  0  0  0  0  0
  -27.0750  -10.7648   -3.9430 N   0  0  0  0  0  0  0  0  0  0  0  0
  -25.3650   -9.0029   -3.8563 C   0  0  0  0  0  0  0  0  0  0  0  0
  -23.5408  -10.3102   -4.7556 C   0  0  0  0  0  0  0  0  0  0  0  0
  -24.4367   -9.1803   -4.9827 N   0  0  0  0  0  0  0  0  0  0  0  0
  -24.9852   -9.3644   -5.8223 H   0  0  0  0  0  0  0  0  0  0  0  0
 30 31  1  0  0  0
 31 29  1  0  0  0
 31 32  1  0  0  0
 29 23  1  0  0  0
 23 24  1  0  0  0
 23 28  2  0  0  0
 24 25  2  0  0  0
 25 22  1  0  0  0
 25 26  1  0  0  0
 22  1  1  0  0  0
  1  2  1  0  0  0
  1 12  2  0  0  0
  2  3  2  0  0  0
  3  4  1  0  0  0
  4  5  2  0  0  0
  4  8  1  0  0  0
  5  6  1  0  0  0
  5 12  1  0  0  0
  6  7  2  0  0  0
  7  8  1  0  0  0
  8  9  1  0  0  0
  9 10  2  0  0  0
  9 11  1  0  0  0
 11 14  1  0  0  0
 11 13  1  0  0  0
 14 15  1  0  0  0
 14 18  2  0  0  0
 15 16  2  0  0  0
 16 19  1  0  0  0
 16 17  1  0  0  0
 19 20  1  0  0  0
 19 21  1  0  0  0
 17 18  1  0  0  0
 26 27  2  0  0  0
 27 28  1  0  0  0
M  END
> <minimizedAffinity>
-8.93927

$$$$
