CHEMBL234067


 27 29  0  0  0  0  0  0  0  0999 V2000
  -28.1726   -3.0569   -6.4199 C   0  0  0  0  0  0  0  0  0  0  0  0
  -27.7519   -1.7852   -6.7298 C   0  0  0  0  0  0  0  0  0  0  0  0
  -27.6847   -1.3134   -7.9811 N   0  0  0  0  0  0  0  0  0  0  0  0
  -28.0749   -2.1214   -8.9774 C   0  0  0  0  0  0  0  0  0  0  0  0
  -28.5517   -3.3593   -8.7680 N   0  0  0  0  0  0  0  0  0  0  0  0
  -28.5891   -3.8365   -7.4889 C   0  0  0  0  0  0  0  0  0  0  0  0
  -29.0804   -5.2372   -7.3732 C   0  0  0  0  0  0  0  0  0  0  0  0
  -30.2249   -5.5332   -6.6046 C   0  0  0  0  0  0  0  0  0  0  0  0
  -30.7124   -6.8418   -6.4795 C   0  0  0  0  0  0  0  0  0  0  0  0
  -30.0666   -7.8848   -7.1332 C   0  0  0  0  0  0  0  0  0  0  0  0
  -30.7118   -9.6530   -6.9715 Br  0  0  0  0  0  0  0  0  0  0  0  0
  -28.9337   -7.6320   -7.8958 C   0  0  0  0  0  0  0  0  0  0  0  0
  -28.4390   -6.3260   -7.9964 C   0  0  0  0  0  0  0  0  0  0  0  0
  -28.0981   -3.7933   -3.9478 N   0  0  0  0  0  0  0  0  0  0  0  0
  -28.1131   -3.4724   -5.0625 C   0  0  0  0  0  0  0  0  0  0  0  0
  -28.0089   -1.6531  -10.2856 N   0  0  0  0  0  0  0  0  0  0  0  0
  -28.9050   -1.3887  -10.6609 H   0  0  0  0  0  0  0  0  0  0  0  0
  -26.8950   -1.6275  -11.1358 C   0  0  0  0  0  0  0  0  0  0  0  0
  -25.6087   -1.3523  -10.6491 C   0  0  0  0  0  0  0  0  0  0  0  0
  -24.5173   -1.2060  -11.5073 C   0  0  0  0  0  0  0  0  0  0  0  0
  -24.6955   -1.2989  -12.8882 C   0  0  0  0  0  0  0  0  0  0  0  0
  -25.9721   -1.5965  -13.3852 C   0  0  0  0  0  0  0  0  0  0  0  0
  -27.0586   -1.7658  -12.5168 C   0  0  0  0  0  0  0  0  0  0  0  0
  -23.5371   -1.0570  -13.8270 C   0  0  0  0  0  0  0  0  0  0  0  0
  -22.6030    0.0596  -13.3669 C   0  0  0  0  0  0  0  0  0  0  0  0
  -23.1514    1.3444  -13.6406 O   0  0  0  0  0  0  0  0  0  0  0  0
  -23.1628    1.4411  -14.6101 H   0  0  0  0  0  0  0  0  0  0  0  0
 14 15  3  0  0  0
 15  1  1  0  0  0
  1  2  1  0  0  0
  1  6  2  0  0  0
  2  3  2  0  0  0
  3  4  1  0  0  0
  4 16  1  0  0  0
  4  5  2  0  0  0
 16 18  1  0  0  0
 16 17  1  0  0  0
 18 19  1  0  0  0
 18 23  2  0  0  0
 19 20  2  0  0  0
 20 21  1  0  0  0
 21 24  1  0  0  0
 21 22  2  0  0  0
 24 25  1  0  0  0
 25 26  1  0  0  0
 26 27  1  0  0  0
 22 23  1  0  0  0
  5  6  1  0  0  0
  6  7  1  0  0  0
  7  8  1  0  0  0
  7 13  2  0  0  0
  8  9  2  0  0  0
  9 10  1  0  0  0
 10 11  1  0  0  0
 10 12  2  0  0  0
 12 13  1  0  0  0
M  END
> <minimizedAffinity>
-8.33442

$$$$
