CHEMBL494270


 34 38  0  0  0  0  0  0  0  0999 V2000
  -17.8755    1.2397  -14.6317 C   0  0  0  0  0  0  0  0  0  0  0  0
  -17.2478    0.7387  -13.4699 C   0  0  0  0  0  0  0  0  0  0  0  0
  -15.9101    0.3204  -13.4585 C   0  0  0  0  0  0  0  0  0  0  0  0
  -15.0952    0.4287  -14.6080 C   0  0  0  0  0  0  0  0  0  0  0  0
  -13.7144    0.1254  -14.6666 C   0  0  0  0  0  0  0  0  0  0  0  0
  -13.0230    0.2971  -15.8163 N   0  0  0  0  0  0  0  0  0  0  0  0
  -13.6288    0.7461  -16.9516 N   0  0  0  0  0  0  0  0  0  0  0  0
  -14.9350    1.0454  -16.9163 C   0  0  0  0  0  0  0  0  0  0  0  0
  -15.7175    0.9082  -15.7744 C   0  0  0  0  0  0  0  0  0  0  0  0
  -17.0800    1.2634  -15.7861 C   0  0  0  0  0  0  0  0  0  0  0  0
  -18.8671    4.0882  -15.4792 C   0  0  0  0  0  0  0  0  0  0  0  0
  -19.7631    2.9858  -14.9707 C   0  0  0  0  0  0  0  0  0  0  0  0
  -21.1302    3.3166  -14.8142 C   0  0  0  0  0  0  0  0  0  0  0  0
  -22.0490    2.4029  -14.2902 C   0  0  0  0  0  0  0  0  0  0  0  0
  -21.6208    1.1271  -13.9421 C   0  0  0  0  0  0  0  0  0  0  0  0
  -20.2708    0.7855  -14.1126 C   0  0  0  0  0  0  0  0  0  0  0  0
  -19.2982    1.6912  -14.6035 C   0  0  0  0  0  0  0  0  0  0  0  0
  -22.5175    0.1090  -13.3293 C   0  0  0  0  0  0  0  0  0  0  0  0
  -22.3489   -0.2250  -12.1611 O   0  0  0  0  0  0  0  0  0  0  0  0
  -23.4926   -0.4324  -14.1439 N   0  0  0  0  0  0  0  0  0  0  0  0
  -23.5195   -0.1908  -15.1249 H   0  0  0  0  0  0  0  0  0  0  0  0
  -24.3738   -1.4560  -13.6762 C   0  0  0  0  0  0  0  0  0  0  0  0
  -25.7535   -1.6018  -14.2544 C   0  0  0  0  0  0  0  0  0  0  0  0
  -25.5790   -1.1142  -12.8468 C   0  0  0  0  0  0  0  0  0  0  0  0
  -13.0498   -0.3923  -13.5233 N   0  0  0  0  0  0  0  0  0  0  0  0
  -13.6697   -0.2169  -12.7340 H   0  0  0  0  0  0  0  0  0  0  0  0
  -12.6642   -1.8136  -13.6010 C   0  0  0  0  0  0  0  0  0  0  0  0
  -13.8231   -2.7214  -13.1181 C   0  0  0  0  0  0  0  0  0  0  0  0
  -14.1298   -2.6160  -11.6764 N   0  0  0  0  0  0  0  0  0  0  0  0
  -13.5702   -3.6923  -10.8340 C   0  0  0  0  0  0  0  0  0  0  0  0
  -14.3376   -5.0276  -10.8697 C   0  0  0  0  0  0  0  0  0  0  0  0
  -15.7397   -4.8535  -10.6344 O   0  0  0  0  0  0  0  0  0  0  0  0
  -16.2933   -3.9095  -11.5584 C   0  0  0  0  0  0  0  0  0  0  0  0
  -15.5880   -2.5496  -11.4311 C   0  0  0  0  0  0  0  0  0  0  0  0
 11 12  1  0  0  0
 12 13  1  0  0  0
 12 17  2  0  0  0
 13 14  2  0  0  0
 14 15  1  0  0  0
 15 18  1  0  0  0
 15 16  2  0  0  0
 18 19  2  0  0  0
 18 20  1  0  0  0
 20 22  1  0  0  0
 20 21  1  0  0  0
 22 23  1  0  0  0
 22 24  1  0  0  0
 23 24  1  0  0  0
 16 17  1  0  0  0
 17  1  1  0  0  0
  1  2  1  0  0  0
  1 10  2  0  0  0
  2  3  2  0  0  0
  3  4  1  0  0  0
  4  5  1  0  0  0
  4  9  2  0  0  0
  5 25  1  0  0  0
  5  6  2  0  0  0
 25 27  1  0  0  0
 25 26  1  0  0  0
 27 28  1  0  0  0
 28 29  1  0  0  0
 29 30  1  0  0  0
 29 34  1  0  0  0
 30 31  1  0  0  0
 31 32  1  0  0  0
 32 33  1  0  0  0
 33 34  1  0  0  0
  6  7  1  0  0  0
  7  8  2  0  0  0
  8  9  1  0  0  0
  9 10  1  0  0  0
M  END
> <minimizedAffinity>
-9.24816

$$$$
