CHEMBL3964043


 39 43  0  0  0  0  0  0  0  0999 V2000
  -16.4864    1.9074  -15.4088 N   0  0  0  0  0  0  0  0  0  0  0  0
  -17.9150    1.8384  -15.5081 C   0  0  0  0  0  0  0  0  0  0  0  0
  -18.5391    3.0332  -15.8480 C   0  0  0  0  0  0  0  0  0  0  0  0
  -19.8228    3.2829  -15.4027 C   0  0  0  0  0  0  0  0  0  0  0  0
  -20.5669    2.3146  -14.7765 C   0  0  0  0  0  0  0  0  0  0  0  0
  -21.6761    2.7703  -14.1865 N   0  0  0  0  0  0  0  0  0  0  0  0
  -22.5325    1.8479  -13.7375 C   0  0  0  0  0  0  0  0  0  0  0  0
  -22.3346    0.4998  -13.9489 C   0  0  0  0  0  0  0  0  0  0  0  0
  -21.1307    0.0237  -14.4200 N   0  0  0  0  0  0  0  0  0  0  0  0
  -20.1608    0.9617  -14.7808 C   0  0  0  0  0  0  0  0  0  0  0  0
  -18.7636    0.7644  -15.1112 C   0  0  0  0  0  0  0  0  0  0  0  0
  -23.5097   -0.3442  -13.7673 C   0  0  0  0  0  0  0  0  0  0  0  0
  -24.4312   -0.8426  -14.7287 C   0  0  0  0  0  0  0  0  0  0  0  0
  -25.5283   -1.3748  -14.1730 N   0  0  0  0  0  0  0  0  0  0  0  0
  -25.3181   -1.2125  -12.8562 N   0  0  0  0  0  0  0  0  0  0  0  0
  -26.1115   -1.9324  -11.8880 C   0  0  0  0  0  0  0  0  0  0  0  0
  -24.2226   -0.4403  -12.5830 C   0  0  0  0  0  0  0  0  0  0  0  0
  -14.0709    0.5901  -18.0280 C   0  0  0  0  0  0  0  0  0  0  0  0
  -13.6827    1.7614  -18.6560 C   0  0  0  0  0  0  0  0  0  0  0  0
  -14.1075    2.9885  -18.1454 C   0  0  0  0  0  0  0  0  0  0  0  0
  -14.9944    3.0352  -17.0468 C   0  0  0  0  0  0  0  0  0  0  0  0
  -15.4941    1.8692  -16.4470 C   0  0  0  0  0  0  0  0  0  0  0  0
  -14.9169    0.6588  -16.9107 C   0  0  0  0  0  0  0  0  0  0  0  0
  -12.8270   -0.7651  -19.5373 C   0  0  0  0  0  0  0  0  0  0  0  0
  -13.6965   -0.6731  -18.4098 O   0  0  0  0  0  0  0  0  0  0  0  0
  -13.7289    4.2074  -18.6513 O   0  0  0  0  0  0  0  0  0  0  0  0
  -14.1916    5.3617  -17.9524 C   0  0  0  0  0  0  0  0  0  0  0  0
  -15.9720    1.4843  -14.0402 C   0  0  0  0  0  0  0  0  0  0  0  0
  -15.9478    0.0439  -13.6480 C   0  0  0  0  0  0  0  0  0  0  0  0
  -15.9592   -1.1182  -13.3199 C   0  0  0  0  0  0  0  0  0  0  0  0
  -15.9464   -2.4565  -12.7900 C   0  0  0  0  0  0  0  0  0  0  0  0
  -15.5690   -2.6641  -11.4847 C   0  0  0  0  0  0  0  0  0  0  0  0
  -15.5450   -3.9691  -11.0784 C   0  0  0  0  0  0  0  0  0  0  0  0
  -15.8917   -4.9847  -11.8803 N   0  0  0  0  0  0  0  0  0  0  0  0
  -16.2749   -4.6770  -13.1242 C   0  0  0  0  0  0  0  0  0  0  0  0
  -16.6206   -5.7374  -13.9284 N   0  0  0  0  0  0  0  0  0  0  0  0
  -16.2910   -3.4414  -13.6265 N   0  0  0  0  0  0  0  0  0  0  0  0
  -16.2030   -6.5917  -13.5610 H   0  0  0  0  0  0  0  0  0  0  0  0
  -16.4433   -5.5236  -14.8953 H   0  0  0  0  0  0  0  0  0  0  0  0
 24 25  1  0  0  0
 25 18  1  0  0  0
 18 19  1  0  0  0
 18 23  2  0  0  0
 19 20  2  0  0  0
 20 26  1  0  0  0
 20 21  1  0  0  0
 26 27  1  0  0  0
 21 22  2  0  0  0
 22  1  1  0  0  0
 22 23  1  0  0  0
  1 28  1  0  0  0
  1  2  1  0  0  0
 28 29  1  0  0  0
 29 30  3  0  0  0
 30 31  1  0  0  0
 31 32  1  0  0  0
 31 37  2  0  0  0
 32 33  2  0  0  0
 33 34  1  0  0  0
 34 35  2  0  0  0
 35 36  1  0  0  0
 35 37  1  0  0  0
 36 38  1  0  0  0
 36 39  1  0  0  0
  2  3  1  0  0  0
  2 11  2  0  0  0
  3  4  2  0  0  0
  4  5  1  0  0  0
  5  6  1  0  0  0
  5 10  2  0  0  0
  6  7  2  0  0  0
  7  8  1  0  0  0
  8 12  1  0  0  0
  8  9  2  0  0  0
 12 13  1  0  0  0
 12 17  2  0  0  0
 13 14  2  0  0  0
 14 15  1  0  0  0
 15 16  1  0  0  0
 15 17  1  0  0  0
  9 10  1  0  0  0
 10 11  1  0  0  0
M  END
> <minimizedAffinity>
-9.38949

$$$$
