CHEMBL3931364


 38 41  0  0  0  0  0  0  0  0999 V2000
  -31.0840   -6.3843   -5.4797 C   0  0  0  0  0  0  0  0  0  0  0  0
  -29.8805   -5.5051   -5.3381 C   0  0  0  0  0  0  0  0  0  0  0  0
  -29.7217   -4.4532   -6.2520 C   0  0  0  0  0  0  0  0  0  0  0  0
  -28.6133   -3.6110   -6.2187 C   0  0  0  0  0  0  0  0  0  0  0  0
  -27.6956   -3.8501   -5.2070 C   0  0  0  0  0  0  0  0  0  0  0  0
  -27.7899   -4.8695   -4.3184 N   0  0  0  0  0  0  0  0  0  0  0  0
  -28.8805   -5.6784   -4.3874 C   0  0  0  0  0  0  0  0  0  0  0  0
  -28.3921   -2.5803   -7.1649 N   0  0  0  0  0  0  0  0  0  0  0  0
  -27.8560   -2.7787   -8.4264 C   0  0  0  0  0  0  0  0  0  0  0  0
  -27.5499   -3.8671   -8.9010 O   0  0  0  0  0  0  0  0  0  0  0  0
  -27.6269   -1.5883   -9.1009 N   0  0  0  0  0  0  0  0  0  0  0  0
  -28.5567   -1.6297   -6.8668 H   0  0  0  0  0  0  0  0  0  0  0  0
  -27.3489   -0.8198   -8.5083 H   0  0  0  0  0  0  0  0  0  0  0  0
  -27.0441   -1.6224  -10.3903 C   0  0  0  0  0  0  0  0  0  0  0  0
  -27.8767   -1.6645  -11.5016 C   0  0  0  0  0  0  0  0  0  0  0  0
  -27.3202   -1.6101  -12.7806 C   0  0  0  0  0  0  0  0  0  0  0  0
  -25.9297   -1.5682  -12.9630 C   0  0  0  0  0  0  0  0  0  0  0  0
  -25.3758   -1.5190  -14.5956 Cl  0  0  0  0  0  0  0  0  0  0  0  0
  -25.0727   -1.5672  -11.8589 C   0  0  0  0  0  0  0  0  0  0  0  0
  -25.6546   -1.5779  -10.5707 C   0  0  0  0  0  0  0  0  0  0  0  0
  -23.5675   -1.5533  -11.9388 C   0  0  0  0  0  0  0  0  0  0  0  0
  -23.0033   -2.3743  -12.8630 F   0  0  0  0  0  0  0  0  0  0  0  0
  -23.0750   -0.3105  -12.2070 F   0  0  0  0  0  0  0  0  0  0  0  0
  -23.0004   -1.9177  -10.7502 F   0  0  0  0  0  0  0  0  0  0  0  0
  -28.9918   -6.7309   -3.4723 O   0  0  0  0  0  0  0  0  0  0  0  0
  -28.5327   -7.9737   -3.8795 C   0  0  0  0  0  0  0  0  0  0  0  0
  -29.2600   -9.1345   -3.6350 C   0  0  0  0  0  0  0  0  0  0  0  0
  -28.7042  -10.3319   -4.0073 C   0  0  0  0  0  0  0  0  0  0  0  0
  -27.5352  -10.4340   -4.6587 N   0  0  0  0  0  0  0  0  0  0  0  0
  -26.8585   -9.3136   -4.9624 C   0  0  0  0  0  0  0  0  0  0  0  0
  -27.3276   -8.0527   -4.5917 C   0  0  0  0  0  0  0  0  0  0  0  0
  -25.6501   -9.4329   -5.6773 N   0  0  0  0  0  0  0  0  0  0  0  0
  -24.4494   -9.7872   -5.0757 C   0  0  0  0  0  0  0  0  0  0  0  0
  -24.2482  -10.0027   -3.8953 O   0  0  0  0  0  0  0  0  0  0  0  0
  -25.6666   -9.2537   -6.6659 H   0  0  0  0  0  0  0  0  0  0  0  0
  -23.2813   -9.8711   -6.0203 C   0  0  0  0  0  0  0  0  0  0  0  0
  -23.1261  -11.1163   -6.8777 C   0  0  0  0  0  0  0  0  0  0  0  0
  -22.1732  -10.8712   -5.7439 C   0  0  0  0  0  0  0  0  0  0  0  0
  1  2  1  0  0  0
  2  3  1  0  0  0
  2  7  2  0  0  0
  3  4  2  0  0  0
  4  8  1  0  0  0
  4  5  1  0  0  0
  8  9  1  0  0  0
  8 12  1  0  0  0
  9 10  2  0  0  0
  9 11  1  0  0  0
 11 14  1  0  0  0
 11 13  1  0  0  0
 14 15  1  0  0  0
 14 20  2  0  0  0
 15 16  2  0  0  0
 16 17  1  0  0  0
 17 18  1  0  0  0
 17 19  2  0  0  0
 19 21  1  0  0  0
 19 20  1  0  0  0
 21 22  1  0  0  0
 21 23  1  0  0  0
 21 24  1  0  0  0
  5  6  2  0  0  0
  6  7  1  0  0  0
  7 25  1  0  0  0
 25 26  1  0  0  0
 26 27  1  0  0  0
 26 31  2  0  0  0
 27 28  2  0  0  0
 28 29  1  0  0  0
 29 30  2  0  0  0
 30 32  1  0  0  0
 30 31  1  0  0  0
 32 33  1  0  0  0
 32 35  1  0  0  0
 33 34  2  0  0  0
 33 36  1  0  0  0
 36 37  1  0  0  0
 36 38  1  0  0  0
 37 38  1  0  0  0
M  END
> <minimizedAffinity>
-9.58965

$$$$
