CHEMBL3944753


 43 47  0  0  0  0  0  0  0  0999 V2000
  -29.4445   -4.1819   -4.0491 C   0  0  0  0  0  0  0  0  0  0  0  0
  -30.7545   -3.8345   -3.7225 C   0  0  0  0  0  0  0  0  0  0  0  0
  -31.6299   -4.8168   -3.3137 C   0  0  0  0  0  0  0  0  0  0  0  0
  -31.3520   -6.1268   -3.2674 N   0  0  0  0  0  0  0  0  0  0  0  0
  -30.1016   -6.4853   -3.6752 C   0  0  0  0  0  0  0  0  0  0  0  0
  -29.6168   -7.8224   -3.7399 C   0  0  0  0  0  0  0  0  0  0  0  0
  -28.3146   -7.8993   -4.1989 C   0  0  0  0  0  0  0  0  0  0  0  0
  -27.6823   -6.3427   -4.5188 S   0  0  0  0  0  0  0  0  0  0  0  0
  -29.1394   -5.5535   -4.0707 C   0  0  0  0  0  0  0  0  0  0  0  0
  -27.5248   -9.1083   -4.3984 C   0  0  0  0  0  0  0  0  0  0  0  0
  -27.6153  -10.0942   -3.6732 O   0  0  0  0  0  0  0  0  0  0  0  0
  -26.6570   -9.0776   -5.4736 N   0  0  0  0  0  0  0  0  0  0  0  0
  -26.6386   -8.2388   -6.0389 H   0  0  0  0  0  0  0  0  0  0  0  0
  -25.8227  -10.2013   -5.8396 C   0  0  0  0  0  0  0  0  0  0  0  0
  -24.4942  -10.2164   -5.0859 C   0  0  0  0  0  0  0  0  0  0  0  0
  -23.4665  -11.1083   -5.7868 C   0  0  0  0  0  0  0  0  0  0  0  0
  -22.3470  -10.3497   -6.3872 C   0  0  0  0  0  0  0  0  0  0  0  0
  -22.4485   -9.0322   -6.7420 N   0  0  0  0  0  0  0  0  0  0  0  0
  -21.2890   -8.7060   -7.2967 N   0  0  0  0  0  0  0  0  0  0  0  0
  -20.5620   -9.8303   -7.2536 N   0  0  0  0  0  0  0  0  0  0  0  0
  -21.1628  -10.8962   -6.7001 N   0  0  0  0  0  0  0  0  0  0  0  0
  -19.6180   -9.8721   -7.6272 H   0  0  0  0  0  0  0  0  0  0  0  0
  -28.4800   -3.2380   -4.3730 O   0  0  0  0  0  0  0  0  0  0  0  0
  -28.1917   -1.7077   -8.2710 C   0  0  0  0  0  0  0  0  0  0  0  0
  -28.6112   -3.0231   -8.0744 C   0  0  0  0  0  0  0  0  0  0  0  0
  -28.7646   -3.5389   -6.7892 C   0  0  0  0  0  0  0  0  0  0  0  0
  -28.4262   -2.7683   -5.6708 C   0  0  0  0  0  0  0  0  0  0  0  0
  -28.0246   -1.4465   -5.8572 C   0  0  0  0  0  0  0  0  0  0  0  0
  -27.8895   -0.9159   -7.1545 C   0  0  0  0  0  0  0  0  0  0  0  0
  -26.9761   -0.8023  -11.5912 N   0  0  0  0  0  0  0  0  0  0  0  0
  -26.9400   -1.3195  -10.3021 C   0  0  0  0  0  0  0  0  0  0  0  0
  -25.9901   -1.9150   -9.8141 O   0  0  0  0  0  0  0  0  0  0  0  0
  -28.1432   -1.1817   -9.5987 N   0  0  0  0  0  0  0  0  0  0  0  0
  -27.8501   -0.4250  -11.9193 H   0  0  0  0  0  0  0  0  0  0  0  0
  -28.9808   -1.2799  -10.1499 H   0  0  0  0  0  0  0  0  0  0  0  0
  -22.2349    0.3545  -12.6897 C   0  0  0  0  0  0  0  0  0  0  0  0
  -23.5537   -0.2727  -13.0572 C   0  0  0  0  0  0  0  0  0  0  0  0
  -23.6764   -0.8659  -14.3149 C   0  0  0  0  0  0  0  0  0  0  0  0
  -24.8840   -1.4614  -14.6727 C   0  0  0  0  0  0  0  0  0  0  0  0
  -25.9522   -1.4730  -13.7932 C   0  0  0  0  0  0  0  0  0  0  0  0
  -27.0101   -2.1823  -14.1976 F   0  0  0  0  0  0  0  0  0  0  0  0
  -25.8884   -0.8579  -12.5290 C   0  0  0  0  0  0  0  0  0  0  0  0
  -24.6552   -0.2700  -12.1684 C   0  0  0  0  0  0  0  0  0  0  0  0
 36 37  1  0  0  0
 37 38  1  0  0  0
 37 43  2  0  0  0
 38 39  2  0  0  0
 39 40  1  0  0  0
 40 41  1  0  0  0
 40 42  2  0  0  0
 42 30  1  0  0  0
 42 43  1  0  0  0
 30 31  1  0  0  0
 30 34  1  0  0  0
 31 32  2  0  0  0
 31 33  1  0  0  0
 33 24  1  0  0  0
 33 35  1  0  0  0
 24 25  1  0  0  0
 24 29  2  0  0  0
 25 26  2  0  0  0
 26 27  1  0  0  0
 27 23  1  0  0  0
 27 28  2  0  0  0
 23  1  1  0  0  0
  1  2  1  0  0  0
  1  9  2  0  0  0
  2  3  2  0  0  0
  3  4  1  0  0  0
  4  5  2  0  0  0
  5  6  1  0  0  0
  5  9  1  0  0  0
  6  7  2  0  0  0
  7 10  1  0  0  0
  7  8  1  0  0  0
 10 11  2  0  0  0
 10 12  1  0  0  0
 12 14  1  0  0  0
 12 13  1  0  0  0
 14 15  1  0  0  0
 15 16  1  0  0  0
 16 17  1  0  0  0
 17 18  1  0  0  0
 17 21  2  0  0  0
 18 19  2  0  0  0
 19 20  1  0  0  0
 20 21  1  0  0  0
 20 22  1  0  0  0
  8  9  1  0  0  0
 28 29  1  0  0  0
M  END
> <minimizedAffinity>
-10.23948

$$$$
