CHEMBL427025


 24 26  0  0  0  0  0  0  0  0999 V2000
  -28.1058   -2.2787   -8.1408 C   0  0  0  0  0  0  0  0  0  0  0  0
  -28.6082   -3.2986   -7.3573 C   0  0  0  0  0  0  0  0  0  0  0  0
  -28.7238   -3.1190   -5.9975 C   0  0  0  0  0  0  0  0  0  0  0  0
  -28.2579   -1.9946   -5.4352 N   0  0  0  0  0  0  0  0  0  0  0  0
  -27.6725   -1.1038   -6.2502 C   0  0  0  0  0  0  0  0  0  0  0  0
  -27.5787   -1.1792   -7.5870 N   0  0  0  0  0  0  0  0  0  0  0  0
  -29.3126   -4.0808   -5.2034 N   0  0  0  0  0  0  0  0  0  0  0  0
  -29.0297   -5.4877   -5.4589 C   0  0  0  0  0  0  0  0  0  0  0  0
  -30.3431   -6.2649   -5.4438 C   0  0  0  0  0  0  0  0  0  0  0  0
  -31.1787   -5.9982   -4.1812 C   0  0  0  0  0  0  0  0  0  0  0  0
  -30.6191   -6.6521   -2.9920 N   0  0  0  0  0  0  0  0  0  0  0  0
  -31.3356   -4.4937   -3.9419 C   0  0  0  0  0  0  0  0  0  0  0  0
  -29.9971   -3.7646   -3.9527 C   0  0  0  0  0  0  0  0  0  0  0  0
  -29.6775   -6.3129   -2.8026 H   0  0  0  0  0  0  0  0  0  0  0  0
  -30.5298   -7.6529   -3.1636 H   0  0  0  0  0  0  0  0  0  0  0  0
  -28.1698   -2.3181   -9.5451 N   0  0  0  0  0  0  0  0  0  0  0  0
  -28.7255   -3.1171   -9.8270 H   0  0  0  0  0  0  0  0  0  0  0  0
  -25.7284   -1.4284  -12.2601 C   0  0  0  0  0  0  0  0  0  0  0  0
  -25.1010   -1.4125  -11.0398 C   0  0  0  0  0  0  0  0  0  0  0  0
  -25.9212   -1.6582   -9.9679 N   0  0  0  0  0  0  0  0  0  0  0  0
  -27.1546   -1.9181  -10.3516 C   0  0  0  0  0  0  0  0  0  0  0  0
  -27.3974   -1.7514  -12.0551 S   0  0  0  0  0  0  0  0  0  0  0  0
  -24.5502   -1.0446  -14.5220 N   0  0  0  0  0  0  0  0  0  0  0  0
  -25.0802   -1.2299  -13.5042 C   0  0  0  0  0  0  0  0  0  0  0  0
 23 24  3  0  0  0
 24 18  1  0  0  0
 18 19  2  0  0  0
 18 22  1  0  0  0
 19 20  1  0  0  0
 20 21  2  0  0  0
 21 16  1  0  0  0
 21 22  1  0  0  0
 16  1  1  0  0  0
 16 17  1  0  0  0
  1  2  1  0  0  0
  1  6  2  0  0  0
  2  3  2  0  0  0
  3  7  1  0  0  0
  3  4  1  0  0  0
  7  8  1  0  0  0
  7 13  1  0  0  0
  8  9  1  0  0  0
  9 10  1  0  0  0
 10 11  1  0  0  0
 10 12  1  0  0  0
 11 14  1  0  0  0
 11 15  1  0  0  0
 12 13  1  0  0  0
  4  5  2  0  0  0
  5  6  1  0  0  0
M  END
> <minimizedAffinity>
-8.01086

$$$$
