CHEMBL3933359


 35 39  0  0  0  0  0  0  0  0999 V2000
  -28.3174   -8.8900   -7.2694 C   0  0  0  0  0  0  0  0  0  0  0  0
  -28.8358   -7.6414   -6.9265 C   0  0  0  0  0  0  0  0  0  0  0  0
  -29.2221   -7.3457   -5.6084 C   0  0  0  0  0  0  0  0  0  0  0  0
  -29.7907   -6.1251   -5.2195 C   0  0  0  0  0  0  0  0  0  0  0  0
  -30.0802   -5.8613   -3.9360 N   0  0  0  0  0  0  0  0  0  0  0  0
  -29.8286   -6.8295   -3.0496 C   0  0  0  0  0  0  0  0  0  0  0  0
  -29.3205   -8.0383   -3.3221 N   0  0  0  0  0  0  0  0  0  0  0  0
  -29.0214   -8.2894   -4.5982 C   0  0  0  0  0  0  0  0  0  0  0  0
  -28.5012   -9.5356   -4.9453 C   0  0  0  0  0  0  0  0  0  0  0  0
  -28.1706   -9.8684   -6.2679 C   0  0  0  0  0  0  0  0  0  0  0  0
  -28.9796   -9.4530   -9.4866 C   0  0  0  0  0  0  0  0  0  0  0  0
  -27.9252   -9.2080   -8.5464 O   0  0  0  0  0  0  0  0  0  0  0  0
  -30.0852   -5.1413   -6.2114 N   0  0  0  0  0  0  0  0  0  0  0  0
  -31.0853   -5.1423   -6.3869 H   0  0  0  0  0  0  0  0  0  0  0  0
  -29.5335   -3.8386   -6.1778 C   0  0  0  0  0  0  0  0  0  0  0  0
  -29.8717   -2.9744   -5.1277 C   0  0  0  0  0  0  0  0  0  0  0  0
  -29.5150   -1.6305   -5.1623 C   0  0  0  0  0  0  0  0  0  0  0  0
  -28.7914   -1.1361   -6.2469 C   0  0  0  0  0  0  0  0  0  0  0  0
  -28.4922    0.7378   -6.3060 Br  0  0  0  0  0  0  0  0  0  0  0  0
  -28.3606   -2.0101   -7.2517 C   0  0  0  0  0  0  0  0  0  0  0  0
  -27.4284   -1.4750   -8.6074 Cl  0  0  0  0  0  0  0  0  0  0  0  0
  -28.7176   -3.3643   -7.2077 C   0  0  0  0  0  0  0  0  0  0  0  0
  -27.7799  -11.1261   -6.6641 O   0  0  0  0  0  0  0  0  0  0  0  0
  -26.5493  -11.6651   -6.1430 C   0  0  0  0  0  0  0  0  0  0  0  0
  -25.6769  -12.2822   -7.2344 C   0  0  0  0  0  0  0  0  0  0  0  0
  -24.9370  -11.2097   -7.8364 O   0  0  0  0  0  0  0  0  0  0  0  0
  -24.6671  -10.2532   -6.8075 C   0  0  0  0  0  0  0  0  0  0  0  0
  -23.3021  -10.4998   -6.1604 C   0  0  0  0  0  0  0  0  0  0  0  0
  -23.6153  -10.2627   -4.6954 C   0  0  0  0  0  0  0  0  0  0  0  0
  -24.9257  -10.8082   -4.4978 O   0  0  0  0  0  0  0  0  0  0  0  0
  -25.6808  -10.4923   -5.6858 C   0  0  0  0  0  0  0  0  0  0  0  0
  -22.2804   -9.5939   -6.6114 O   0  0  0  0  0  0  0  0  0  0  0  0
  -21.1984  -10.1782   -7.1813 C   0  0  0  0  0  0  0  0  0  0  0  0
  -21.4149  -11.6495   -7.3976 C   0  0  0  0  0  0  0  0  0  0  0  0
  -20.1748   -9.5983   -7.5387 O   0  0  0  0  0  0  0  0  0  0  0  0
 11 12  1  0  0  0
 12  1  1  0  0  0
  1  2  1  0  0  0
  1 10  2  0  0  0
  2  3  2  0  0  0
  3  4  1  0  0  0
  3  8  1  0  0  0
  4 13  1  0  0  0
  4  5  2  0  0  0
 13 15  1  0  0  0
 13 14  1  0  0  0
 15 16  1  0  0  0
 15 22  2  0  0  0
 16 17  2  0  0  0
 17 18  1  0  0  0
 18 19  1  0  0  0
 18 20  2  0  0  0
 20 21  1  0  0  0
 20 22  1  0  0  0
  5  6  1  0  0  0
  6  7  2  0  0  0
  7  8  1  0  0  0
  8  9  2  0  0  0
  9 10  1  0  0  0
 10 23  1  0  0  0
 24 25  1  0  0  0
 24 31  1  0  0  0
 24 23  1  0  0  0
 25 26  1  0  0  0
 26 27  1  0  0  0
 27 28  1  0  0  0
 27 31  1  0  0  0
 28 32  1  0  0  0
 28 29  1  0  0  0
 32 33  1  0  0  0
 33 34  1  0  0  0
 33 35  2  0  0  0
 29 30  1  0  0  0
 30 31  1  0  0  0
M  END
> <minimizedAffinity>
-8.59799

$$$$
