CHEMBL425262


 40 45  0  0  0  0  0  0  0  0999 V2000
  -12.8104   -3.5614  -11.7274 C   0  0  0  0  0  0  0  0  0  0  0  0
  -12.6074   -4.7917  -11.1328 N   0  0  0  0  0  0  0  0  0  0  0  0
  -13.7832   -5.3901  -10.7134 N   0  0  0  0  0  0  0  0  0  0  0  0
  -14.6987   -4.4005  -10.8072 C   0  0  0  0  0  0  0  0  0  0  0  0
  -14.0461   -3.1939  -11.2252 C   0  0  0  0  0  0  0  0  0  0  0  0
  -15.0621   -2.2814  -11.7845 C   0  0  0  0  0  0  0  0  0  0  0  0
  -15.8024   -3.4655  -12.4348 C   0  0  0  0  0  0  0  0  0  0  0  0
  -15.3890   -4.2065  -13.5901 C   0  0  0  0  0  0  0  0  0  0  0  0
  -15.9320   -5.4785  -13.8279 C   0  0  0  0  0  0  0  0  0  0  0  0
  -17.0268   -5.7885  -13.0550 C   0  0  0  0  0  0  0  0  0  0  0  0
  -17.0304   -5.2909  -11.7469 C   0  0  0  0  0  0  0  0  0  0  0  0
  -16.1072   -4.3319  -11.3796 C   0  0  0  0  0  0  0  0  0  0  0  0
  -11.7650   -5.3566  -11.1655 H   0  0  0  0  0  0  0  0  0  0  0  0
  -11.3707   -1.3696  -14.5998 C   0  0  0  0  0  0  0  0  0  0  0  0
  -11.5974   -2.6286  -15.1142 C   0  0  0  0  0  0  0  0  0  0  0  0
  -11.8584   -3.5398  -14.0741 C   0  0  0  0  0  0  0  0  0  0  0  0
  -12.1212   -2.9350  -12.8456 C   0  0  0  0  0  0  0  0  0  0  0  0
  -11.4186   -1.3750  -12.8771 S   0  0  0  0  0  0  0  0  0  0  0  0
  -11.1083   -0.1195  -15.3803 C   0  0  0  0  0  0  0  0  0  0  0  0
  -14.3826    1.1072  -16.6703 N   0  0  0  0  0  0  0  0  0  0  0  0
  -14.3050    0.5344  -18.0132 C   0  0  0  0  0  0  0  0  0  0  0  0
  -13.3251    0.8796  -15.7489 C   0  0  0  0  0  0  0  0  0  0  0  0
  -13.2951    1.2456  -14.5744 O   0  0  0  0  0  0  0  0  0  0  0  0
  -12.2459    0.1448  -16.2509 N   0  0  0  0  0  0  0  0  0  0  0  0
  -12.0150    0.2739  -17.2233 H   0  0  0  0  0  0  0  0  0  0  0  0
  -19.1527    1.1489  -14.9424 C   0  0  0  0  0  0  0  0  0  0  0  0
  -17.9402    1.8832  -15.4609 C   0  0  0  0  0  0  0  0  0  0  0  0
  -17.9852    3.2910  -15.5640 C   0  0  0  0  0  0  0  0  0  0  0  0
  -16.8390    3.9444  -16.0231 C   0  0  0  0  0  0  0  0  0  0  0  0
  -15.6709    3.2323  -16.3851 C   0  0  0  0  0  0  0  0  0  0  0  0
  -15.5948    1.8473  -16.3008 C   0  0  0  0  0  0  0  0  0  0  0  0
  -16.7601    1.1799  -15.8252 C   0  0  0  0  0  0  0  0  0  0  0  0
  -15.2184   -6.5981  -14.5814 C   0  0  0  0  0  0  0  0  0  0  0  0
  -13.8705   -6.2777  -15.0645 N   0  0  0  0  0  0  0  0  0  0  0  0
  -12.9126   -7.3283  -14.6886 C   0  0  0  0  0  0  0  0  0  0  0  0
  -11.4899   -7.0314  -15.2049 C   0  0  0  0  0  0  0  0  0  0  0  0
  -11.3879   -6.8263  -16.6610 N   0  0  0  0  0  0  0  0  0  0  0  0
  -11.5237   -8.0857  -17.3877 C   0  0  0  0  0  0  0  0  0  0  0  0
  -12.4011   -5.8309  -17.0695 C   0  0  0  0  0  0  0  0  0  0  0  0
  -13.8401   -6.0880  -16.5365 C   0  0  0  0  0  0  0  0  0  0  0  0
 26 27  1  0  0  0
 27 28  1  0  0  0
 27 32  2  0  0  0
 28 29  2  0  0  0
 29 30  1  0  0  0
 30 31  2  0  0  0
 31 20  1  0  0  0
 31 32  1  0  0  0
 20 21  1  0  0  0
 20 22  1  0  0  0
 22 23  2  0  0  0
 22 24  1  0  0  0
 24 19  1  0  0  0
 24 25  1  0  0  0
 19 14  1  0  0  0
 14 15  2  0  0  0
 14 18  1  0  0  0
 15 16  1  0  0  0
 16 17  2  0  0  0
 17  1  1  0  0  0
 17 18  1  0  0  0
  1  2  1  0  0  0
  1  5  2  0  0  0
  2  3  1  0  0  0
  2 13  1  0  0  0
  3  4  2  0  0  0
  4  5  1  0  0  0
  4 12  1  0  0  0
  5  6  1  0  0  0
  6  7  1  0  0  0
  7  8  1  0  0  0
  7 12  2  0  0  0
  8  9  2  0  0  0
  9 33  1  0  0  0
  9 10  1  0  0  0
 33 34  1  0  0  0
 34 35  1  0  0  0
 34 40  1  0  0  0
 35 36  1  0  0  0
 36 37  1  0  0  0
 37 38  1  0  0  0
 37 39  1  0  0  0
 39 40  1  0  0  0
 10 11  2  0  0  0
 11 12  1  0  0  0
M  END
> <minimizedAffinity>
-8.68905

$$$$
