CHEMBL3694651


 37 40  0  0  0  0  0  0  0  0999 V2000
  -29.8331   -5.6256   -6.7744 C   0  0  0  0  0  0  0  0  0  0  0  0
  -29.7788   -4.5000   -7.7177 C   0  0  0  0  0  0  0  0  0  0  0  0
  -29.7352   -3.2381   -7.2669 C   0  0  0  0  0  0  0  0  0  0  0  0
  -29.7859   -2.9894   -5.8959 N   0  0  0  0  0  0  0  0  0  0  0  0
  -29.8055   -1.7957   -5.1812 C   0  0  0  0  0  0  0  0  0  0  0  0
  -29.7809   -2.2080   -3.8549 C   0  0  0  0  0  0  0  0  0  0  0  0
  -29.7987   -3.5684   -3.7286 N   0  0  0  0  0  0  0  0  0  0  0  0
  -29.8148   -4.0233   -4.9605 C   0  0  0  0  0  0  0  0  0  0  0  0
  -29.8382   -5.3628   -5.4452 C   0  0  0  0  0  0  0  0  0  0  0  0
  -29.8754   -9.6049   -8.1570 C   0  0  0  0  0  0  0  0  0  0  0  0
  -30.8288   -9.1052   -7.2884 C   0  0  0  0  0  0  0  0  0  0  0  0
  -30.8503   -7.8407   -6.8246 N   0  0  0  0  0  0  0  0  0  0  0  0
  -29.8617   -7.0337   -7.2470 C   0  0  0  0  0  0  0  0  0  0  0  0
  -28.8759   -7.4131   -8.0807 N   0  0  0  0  0  0  0  0  0  0  0  0
  -28.9067   -8.6888   -8.5133 C   0  0  0  0  0  0  0  0  0  0  0  0
  -29.4984  -12.0079   -7.5631 C   0  0  0  0  0  0  0  0  0  0  0  0
  -29.8992  -11.0234   -8.6684 C   0  0  0  0  0  0  0  0  0  0  0  0
  -28.9950  -11.1807   -9.8960 C   0  0  0  0  0  0  0  0  0  0  0  0
  -31.2308  -11.3595   -9.0740 O   0  0  0  0  0  0  0  0  0  0  0  0
  -31.2254  -12.2788   -9.3926 H   0  0  0  0  0  0  0  0  0  0  0  0
  -29.7724   -0.4295   -5.7251 C   0  0  0  0  0  0  0  0  0  0  0  0
  -28.5287    0.1536   -6.0081 C   0  0  0  0  0  0  0  0  0  0  0  0
  -28.4457    1.4361   -6.5425 C   0  0  0  0  0  0  0  0  0  0  0  0
  -29.6079    2.1330   -6.8567 C   0  0  0  0  0  0  0  0  0  0  0  0
  -30.8613    1.5676   -6.6241 C   0  0  0  0  0  0  0  0  0  0  0  0
  -30.9340    0.3220   -5.9833 C   0  0  0  0  0  0  0  0  0  0  0  0
  -32.0638    2.1985   -7.0275 N   0  0  0  0  0  0  0  0  0  0  0  0
  -32.4182    2.4395   -8.3380 C   0  0  0  0  0  0  0  0  0  0  0  0
  -31.7923    2.1170   -9.3366 O   0  0  0  0  0  0  0  0  0  0  0  0
  -33.5924    3.1471   -8.4549 N   0  0  0  0  0  0  0  0  0  0  0  0
  -32.7893    2.2797   -6.3337 H   0  0  0  0  0  0  0  0  0  0  0  0
  -34.2682    3.0792   -7.7072 H   0  0  0  0  0  0  0  0  0  0  0  0
  -34.0929    3.4481   -9.8038 C   0  0  0  0  0  0  0  0  0  0  0  0
  -34.6016    4.8787  -10.0377 C   0  0  0  0  0  0  0  0  0  0  0  0
  -33.7265    5.8111   -9.5952 F   0  0  0  0  0  0  0  0  0  0  0  0
  -34.7610    5.0960  -11.3690 F   0  0  0  0  0  0  0  0  0  0  0  0
  -35.7945    5.1058   -9.4524 F   0  0  0  0  0  0  0  0  0  0  0  0
 16 17  1  0  0  0
 17 18  1  0  0  0
 17 19  1  0  0  0
 17 10  1  0  0  0
 19 20  1  0  0  0
 10 11  1  0  0  0
 10 15  2  0  0  0
 11 12  2  0  0  0
 12 13  1  0  0  0
 13  1  1  0  0  0
 13 14  2  0  0  0
  1  2  1  0  0  0
  1  9  2  0  0  0
  2  3  2  0  0  0
  3  4  1  0  0  0
  4  5  1  0  0  0
  4  8  1  0  0  0
  5 21  1  0  0  0
  5  6  2  0  0  0
 21 22  1  0  0  0
 21 26  2  0  0  0
 22 23  2  0  0  0
 23 24  1  0  0  0
 24 25  2  0  0  0
 25 27  1  0  0  0
 25 26  1  0  0  0
 27 28  1  0  0  0
 27 31  1  0  0  0
 28 29  2  0  0  0
 28 30  1  0  0  0
 30 33  1  0  0  0
 30 32  1  0  0  0
 33 34  1  0  0  0
 34 35  1  0  0  0
 34 36  1  0  0  0
 34 37  1  0  0  0
  6  7  1  0  0  0
  7  8  2  0  0  0
  8  9  1  0  0  0
 14 15  1  0  0  0
M  END
> <minimizedAffinity>
-8.28542

$$$$
