CHEMBL3931533


 29 32  0  0  0  0  0  0  0  0999 V2000
  -28.9542   11.5266  -13.6100 C   0  0  0  0  0  0  0  0  0  0  0  0
  -27.8203   12.2698  -13.6099 C   0  0  0  0  0  0  0  0  0  0  0  0
  -26.8212   11.9230  -14.4213 C   0  0  0  0  0  0  0  0  0  0  0  0
  -26.9149   11.0082  -15.3903 C   0  0  0  0  0  0  0  0  0  0  0  0
  -26.4131   11.5785  -16.3960 N   0  0  0  0  0  0  0  0  0  0  0  0
  -25.2001   11.1151  -16.5952 C   0  0  0  0  0  0  0  0  0  0  0  0
  -24.9655    9.9921  -17.2973 C   0  0  0  0  0  0  0  0  0  0  0  0
  -26.3444    9.4035  -16.7551 N   0  0  0  0  0  0  0  0  0  0  0  0
  -27.5914    9.9508  -15.6789 C   0  0  0  0  0  0  0  0  0  0  0  0
  -28.9386   10.4160  -14.6581 C   0  0  0  0  0  0  0  0  0  0  0  0
  -23.4156   10.7755  -17.7685 C   0  0  0  0  0  0  0  0  0  0  0  0
  -22.0003   10.8507  -17.1589 C   0  0  0  0  0  0  0  0  0  0  0  0
  -21.0265   11.4877  -17.8458 N   0  0  0  0  0  0  0  0  0  0  0  0
  -21.6181   11.9130  -18.9687 N   0  0  0  0  0  0  0  0  0  0  0  0
  -20.7988   12.5932  -20.0168 C   0  0  0  0  0  0  0  0  0  0  0  0
  -23.0225   11.5331  -18.9396 C   0  0  0  0  0  0  0  0  0  0  0  0
  -29.9063   11.9039  -12.5846 N   0  0  0  0  0  0  0  0  0  0  0  0
  -31.2418   11.4777  -12.5150 C   0  0  0  0  0  0  0  0  0  0  0  0
  -31.9620   11.8099  -11.3666 C   0  0  0  0  0  0  0  0  0  0  0  0
  -33.2942   11.4969  -11.1828 C   0  0  0  0  0  0  0  0  0  0  0  0
  -33.9712   10.9097  -12.2352 C   0  0  0  0  0  0  0  0  0  0  0  0
  -33.3192   10.6667  -13.4500 C   0  0  0  0  0  0  0  0  0  0  0  0
  -31.9276   10.8243  -13.5403 C   0  0  0  0  0  0  0  0  0  0  0  0
  -33.9971   11.8052  -10.0510 O   0  0  0  0  0  0  0  0  0  0  0  0
  -35.3772   12.1353  -10.2517 C   0  0  0  0  0  0  0  0  0  0  0  0
  -33.9830   10.3387  -14.6078 O   0  0  0  0  0  0  0  0  0  0  0  0
  -35.0152    9.3580  -14.4599 C   0  0  0  0  0  0  0  0  0  0  0  0
  -28.3222   11.9167  -10.4984 C   0  0  0  0  0  0  0  0  0  0  0  0
  -29.3553   12.6590  -11.3665 C   0  0  0  0  0  0  0  0  0  0  0  0
 28 29  1  0  0  0
 29 17  1  0  0  0
 17 18  1  0  0  0
 17  1  1  0  0  0
 18 19  1  0  0  0
 18 23  2  0  0  0
 19 20  2  0  0  0
 20 24  1  0  0  0
 20 21  1  0  0  0
 24 25  1  0  0  0
 21 22  2  0  0  0
 22 26  1  0  0  0
 22 23  1  0  0  0
 26 27  1  0  0  0
  1  2  1  0  0  0
  1 10  2  0  0  0
  2  3  2  0  0  0
  3  4  1  0  0  0
  4  5  1  0  0  0
  4  9  2  0  0  0
  5  6  2  0  0  0
  6  7  1  0  0  0
  7 11  1  0  0  0
  7  8  2  0  0  0
 11 12  1  0  0  0
 11 16  2  0  0  0
 12 13  2  0  0  0
 13 14  1  0  0  0
 14 15  1  0  0  0
 14 16  1  0  0  0
  8  9  1  0  0  0
  9 10  1  0  0  0
M  END
> <minimizedAffinity>
-5.57314

$$$$
