CHEMBL1241772


 23 25  0  0  0  0  0  0  0  0999 V2000
  -15.0079    2.9059  -16.4822 N   0  0  0  0  0  0  0  0  0  0  0  0
  -16.3602    2.9525  -16.5040 N   0  0  0  0  0  0  0  0  0  0  0  0
  -16.7394    2.2399  -15.4281 C   0  0  0  0  0  0  0  0  0  0  0  0
  -15.6091    1.6789  -14.7512 C   0  0  0  0  0  0  0  0  0  0  0  0
  -15.3317    0.8597  -13.6435 C   0  0  0  0  0  0  0  0  0  0  0  0
  -16.2727    0.2635  -12.8186 N   0  0  0  0  0  0  0  0  0  0  0  0
  -14.0416    0.6055  -13.3320 N   0  0  0  0  0  0  0  0  0  0  0  0
  -13.0722    1.1357  -14.1006 C   0  0  0  0  0  0  0  0  0  0  0  0
  -13.2155    1.9112  -15.1858 N   0  0  0  0  0  0  0  0  0  0  0  0
  -14.5102    2.1500  -15.4587 C   0  0  0  0  0  0  0  0  0  0  0  0
  -17.0974   -0.0772  -13.2978 H   0  0  0  0  0  0  0  0  0  0  0  0
  -15.8199   -0.4194  -12.2165 H   0  0  0  0  0  0  0  0  0  0  0  0
  -18.1611    2.1394  -15.0959 C   0  0  0  0  0  0  0  0  0  0  0  0
  -18.8674    0.9385  -15.2127 C   0  0  0  0  0  0  0  0  0  0  0  0
  -20.2243    0.8871  -14.8989 C   0  0  0  0  0  0  0  0  0  0  0  0
  -20.8339    2.0346  -14.4210 C   0  0  0  0  0  0  0  0  0  0  0  0
  -20.1844    3.2161  -14.2719 N   0  0  0  0  0  0  0  0  0  0  0  0
  -18.8668    3.2363  -14.6094 C   0  0  0  0  0  0  0  0  0  0  0  0
  -22.2134    2.0060  -14.0095 C   0  0  0  0  0  0  0  0  0  0  0  0
  -23.3116    1.9437  -13.6346 N   0  0  0  0  0  0  0  0  0  0  0  0
  -13.8868    2.7673  -18.6858 C   0  0  0  0  0  0  0  0  0  0  0  0
  -14.2319    3.6400  -17.4803 C   0  0  0  0  0  0  0  0  0  0  0  0
  -14.9424    4.9202  -17.9227 C   0  0  0  0  0  0  0  0  0  0  0  0
 21 22  1  0  0  0
 22 23  1  0  0  0
 22  1  1  0  0  0
  1  2  1  0  0  0
  1 10  1  0  0  0
  2  3  2  0  0  0
  3 13  1  0  0  0
  3  4  1  0  0  0
 13 14  1  0  0  0
 13 18  2  0  0  0
 14 15  2  0  0  0
 15 16  1  0  0  0
 16 19  1  0  0  0
 16 17  2  0  0  0
 19 20  3  0  0  0
 17 18  1  0  0  0
  4  5  1  0  0  0
  4 10  2  0  0  0
  5  6  1  0  0  0
  5  7  2  0  0  0
  6 11  1  0  0  0
  6 12  1  0  0  0
  7  8  1  0  0  0
  8  9  2  0  0  0
  9 10  1  0  0  0
M  END
> <minimizedAffinity>
-6.49974

$$$$
