CHEMBL3937330


 34 38  0  0  0  0  0  0  0  0999 V2000
  -15.5422   -2.2109  -12.6613 C   0  0  0  0  0  0  0  0  0  0  0  0
  -15.5788   -2.4073  -11.2696 C   0  0  0  0  0  0  0  0  0  0  0  0
  -15.2699   -3.6342  -10.7131 C   0  0  0  0  0  0  0  0  0  0  0  0
  -14.9513   -4.7001  -11.5497 C   0  0  0  0  0  0  0  0  0  0  0  0
  -14.9410   -4.6180  -12.9659 C   0  0  0  0  0  0  0  0  0  0  0  0
  -15.2112   -3.3200  -13.5098 C   0  0  0  0  0  0  0  0  0  0  0  0
  -14.6540   -5.8022  -13.7270 N   0  0  0  0  0  0  0  0  0  0  0  0
  -14.0385   -6.9994  -13.1320 C   0  0  0  0  0  0  0  0  0  0  0  0
  -13.7592   -8.2204  -14.0899 C   0  0  0  0  0  0  0  0  0  0  0  0
  -13.6591   -7.9792  -15.5822 C   0  0  0  0  0  0  0  0  0  0  0  0
  -14.0063   -6.7111  -16.0281 C   0  0  0  0  0  0  0  0  0  0  0  0
  -13.9892   -6.4775  -17.3996 C   0  0  0  0  0  0  0  0  0  0  0  0
  -13.8115   -7.4121  -18.3413 N   0  0  0  0  0  0  0  0  0  0  0  0
  -13.5064   -8.6441  -17.9370 C   0  0  0  0  0  0  0  0  0  0  0  0
  -13.3578   -9.5762  -18.9531 C   0  0  0  0  0  0  0  0  0  0  0  0
  -12.8762  -10.8539  -18.7093 C   0  0  0  0  0  0  0  0  0  0  0  0
  -12.5489  -11.1997  -17.4052 C   0  0  0  0  0  0  0  0  0  0  0  0
  -12.7998  -10.3026  -16.3461 C   0  0  0  0  0  0  0  0  0  0  0  0
  -13.3184   -8.9919  -16.5710 C   0  0  0  0  0  0  0  0  0  0  0  0
  -14.4263   -5.5623  -15.1631 C   0  0  0  0  0  0  0  0  0  0  0  0
  -15.5491    0.1165  -12.3442 O   0  0  0  0  0  0  0  0  0  0  0  0
  -15.9382   -0.7989  -13.0654 C   0  0  0  0  0  0  0  0  0  0  0  0
  -16.6592   -0.5973  -14.2269 N   0  0  0  0  0  0  0  0  0  0  0  0
  -16.9138   -1.4140  -14.7629 H   0  0  0  0  0  0  0  0  0  0  0  0
  -17.0254    0.6655  -14.8069 C   0  0  0  0  0  0  0  0  0  0  0  0
  -16.1672    1.4622  -15.5781 C   0  0  0  0  0  0  0  0  0  0  0  0
  -16.5847    2.6969  -16.1022 C   0  0  0  0  0  0  0  0  0  0  0  0
  -17.8761    3.1559  -15.8689 C   0  0  0  0  0  0  0  0  0  0  0  0
  -18.7660    2.3827  -15.1211 C   0  0  0  0  0  0  0  0  0  0  0  0
  -18.3310    1.1397  -14.5994 C   0  0  0  0  0  0  0  0  0  0  0  0
  -20.1730    2.8719  -14.8706 C   0  0  0  0  0  0  0  0  0  0  0  0
  -20.6770    3.6412  -15.8773 F   0  0  0  0  0  0  0  0  0  0  0  0
  -21.0580    1.8500  -14.7071 F   0  0  0  0  0  0  0  0  0  0  0  0
  -20.2662    3.6306  -13.7433 F   0  0  0  0  0  0  0  0  0  0  0  0
 21 22  2  0  0  0
 22 23  1  0  0  0
 22  1  1  0  0  0
 23 25  1  0  0  0
 23 24  1  0  0  0
 25 26  1  0  0  0
 25 30  2  0  0  0
 26 27  2  0  0  0
 27 28  1  0  0  0
 28 29  2  0  0  0
 29 31  1  0  0  0
 29 30  1  0  0  0
 31 32  1  0  0  0
 31 33  1  0  0  0
 31 34  1  0  0  0
  1  2  1  0  0  0
  1  6  2  0  0  0
  2  3  2  0  0  0
  3  4  1  0  0  0
  4  5  2  0  0  0
  5  7  1  0  0  0
  5  6  1  0  0  0
  7  8  1  0  0  0
  7 20  1  0  0  0
  8  9  1  0  0  0
  9 10  1  0  0  0
 10 11  1  0  0  0
 10 19  2  0  0  0
 11 12  2  0  0  0
 11 20  1  0  0  0
 12 13  1  0  0  0
 13 14  2  0  0  0
 14 15  1  0  0  0
 14 19  1  0  0  0
 15 16  2  0  0  0
 16 17  1  0  0  0
 17 18  2  0  0  0
 18 19  1  0  0  0
M  END
> <minimizedAffinity>
-10.58588

$$$$
