CHEMBL233225


 32 36  0  0  0  0  0  0  0  0999 V2000
  -12.6617   -0.1454  -13.5462 Cl  0  0  0  0  0  0  0  0  0  0  0  0
  -14.1270    0.5082  -14.1873 C   0  0  0  0  0  0  0  0  0  0  0  0
  -14.0549    1.7746  -14.7095 C   0  0  0  0  0  0  0  0  0  0  0  0
  -15.0995    2.4329  -15.2210 N   0  0  0  0  0  0  0  0  0  0  0  0
  -16.3364    1.8081  -15.2138 C   0  0  0  0  0  0  0  0  0  0  0  0
  -16.4689    0.5754  -14.6901 N   0  0  0  0  0  0  0  0  0  0  0  0
  -15.3815   -0.0708  -14.1632 C   0  0  0  0  0  0  0  0  0  0  0  0
  -15.7112   -1.2857  -13.4093 C   0  0  0  0  0  0  0  0  0  0  0  0
  -15.7871   -1.2109  -12.0037 C   0  0  0  0  0  0  0  0  0  0  0  0
  -15.7722   -2.3426  -11.1889 C   0  0  0  0  0  0  0  0  0  0  0  0
  -15.8729   -3.5889  -11.8151 C   0  0  0  0  0  0  0  0  0  0  0  0
  -15.8853   -4.9358  -11.4103 C   0  0  0  0  0  0  0  0  0  0  0  0
  -16.8882   -5.4811  -12.1750 C   0  0  0  0  0  0  0  0  0  0  0  0
  -16.7421   -4.8623  -13.3874 N   0  0  0  0  0  0  0  0  0  0  0  0
  -16.1591   -3.6276  -13.1741 C   0  0  0  0  0  0  0  0  0  0  0  0
  -15.9564   -2.5330  -14.0232 C   0  0  0  0  0  0  0  0  0  0  0  0
  -17.2047   -5.1365  -14.2342 H   0  0  0  0  0  0  0  0  0  0  0  0
  -17.4577    2.4845  -15.6992 N   0  0  0  0  0  0  0  0  0  0  0  0
  -17.2301    3.1191  -16.4210 H   0  0  0  0  0  0  0  0  0  0  0  0
  -18.7865    2.2383  -15.3338 C   0  0  0  0  0  0  0  0  0  0  0  0
  -19.6331    3.2391  -14.8618 C   0  0  0  0  0  0  0  0  0  0  0  0
  -20.9042    2.9692  -14.3420 C   0  0  0  0  0  0  0  0  0  0  0  0
  -21.3567    1.6643  -14.2839 C   0  0  0  0  0  0  0  0  0  0  0  0
  -20.5231    0.6371  -14.7679 C   0  0  0  0  0  0  0  0  0  0  0  0
  -19.2435    0.9231  -15.2797 C   0  0  0  0  0  0  0  0  0  0  0  0
  -22.6751    1.2919  -13.6367 C   0  0  0  0  0  0  0  0  0  0  0  0
  -23.3673    0.0455  -14.2246 C   0  0  0  0  0  0  0  0  0  0  0  0
  -23.9071   -0.8343  -13.1731 N   0  0  0  0  0  0  0  0  0  0  0  0
  -24.8956   -1.8030  -13.6662 C   0  0  0  0  0  0  0  0  0  0  0  0
  -26.2048   -1.4796  -12.9636 C   0  0  0  0  0  0  0  0  0  0  0  0
  -25.7579   -0.8481  -11.6606 C   0  0  0  0  0  0  0  0  0  0  0  0
  -24.5025   -0.0941  -12.0587 C   0  0  0  0  0  0  0  0  0  0  0  0
  1  2  1  0  0  0
  2  3  1  0  0  0
  2  7  2  0  0  0
  3  4  2  0  0  0
  4  5  1  0  0  0
  5 18  1  0  0  0
  5  6  2  0  0  0
 18 20  1  0  0  0
 18 19  1  0  0  0
 20 21  1  0  0  0
 20 25  2  0  0  0
 21 22  2  0  0  0
 22 23  1  0  0  0
 23 26  1  0  0  0
 23 24  2  0  0  0
 26 27  1  0  0  0
 27 28  1  0  0  0
 28 29  1  0  0  0
 28 32  1  0  0  0
 29 30  1  0  0  0
 30 31  1  0  0  0
 31 32  1  0  0  0
 24 25  1  0  0  0
  6  7  1  0  0  0
  7  8  1  0  0  0
  8  9  1  0  0  0
  8 16  2  0  0  0
  9 10  2  0  0  0
 10 11  1  0  0  0
 11 12  1  0  0  0
 11 15  2  0  0  0
 12 13  2  0  0  0
 13 14  1  0  0  0
 14 15  1  0  0  0
 14 17  1  0  0  0
 15 16  1  0  0  0
M  END
> <minimizedAffinity>
-10.35083

$$$$
