CHEMBL501256


 21 23  0  0  0  0  0  0  0  0999 V2000
  -32.4087   -8.1944   -6.5849 N   0  0  0  0  0  0  0  0  0  0  0  0
  -31.2141   -7.4859   -6.6025 C   0  0  0  0  0  0  0  0  0  0  0  0
  -30.3782   -7.6699   -7.6514 N   0  0  0  0  0  0  0  0  0  0  0  0
  -29.2049   -7.0014   -7.6582 C   0  0  0  0  0  0  0  0  0  0  0  0
  -28.7228   -6.1347   -6.7435 N   0  0  0  0  0  0  0  0  0  0  0  0
  -29.6007   -5.9686   -5.7389 C   0  0  0  0  0  0  0  0  0  0  0  0
  -30.8343   -6.5846   -5.5950 C   0  0  0  0  0  0  0  0  0  0  0  0
  -31.4550   -6.1734   -4.4313 N   0  0  0  0  0  0  0  0  0  0  0  0
  -30.6072   -5.3306   -3.8784 C   0  0  0  0  0  0  0  0  0  0  0  0
  -29.4693   -5.1805   -4.6274 N   0  0  0  0  0  0  0  0  0  0  0  0
  -32.6869   -8.4956   -7.5100 H   0  0  0  0  0  0  0  0  0  0  0  0
  -33.1158   -7.7690   -5.9951 H   0  0  0  0  0  0  0  0  0  0  0  0
  -28.2734   -4.4526   -4.2395 C   0  0  0  0  0  0  0  0  0  0  0  0
  -28.5375   -3.0535   -3.7297 C   0  0  0  0  0  0  0  0  0  0  0  0
  -28.7530   -2.7943   -2.5477 O   0  0  0  0  0  0  0  0  0  0  0  0
  -28.5171   -1.9338   -4.7121 C   0  0  0  0  0  0  0  0  0  0  0  0
  -27.5308   -1.7832   -5.6912 C   0  0  0  0  0  0  0  0  0  0  0  0
  -27.6162   -0.7232   -6.5952 C   0  0  0  0  0  0  0  0  0  0  0  0
  -28.6805    0.1566   -6.4864 C   0  0  0  0  0  0  0  0  0  0  0  0
  -29.6356    0.0539   -5.5391 N   0  0  0  0  0  0  0  0  0  0  0  0
  -29.5331   -0.9844   -4.6719 C   0  0  0  0  0  0  0  0  0  0  0  0
  1  2  1  0  0  0
  1 11  1  0  0  0
  1 12  1  0  0  0
  2  3  1  0  0  0
  2  7  2  0  0  0
  3  4  2  0  0  0
  4  5  1  0  0  0
  5  6  2  0  0  0
  6  7  1  0  0  0
  6 10  1  0  0  0
  7  8  1  0  0  0
  8  9  2  0  0  0
  9 10  1  0  0  0
 10 13  1  0  0  0
 13 14  1  0  0  0
 14 15  2  0  0  0
 14 16  1  0  0  0
 16 17  1  0  0  0
 16 21  2  0  0  0
 17 18  2  0  0  0
 18 19  1  0  0  0
 19 20  2  0  0  0
 20 21  1  0  0  0
M  END
> <minimizedAffinity>
-6.91877

$$$$
