CHEMBL493315


 37 40  0  0  0  0  0  0  0  0999 V2000
  -16.2990    4.6081  -16.4107 C   0  0  0  0  0  0  0  0  0  0  0  0
  -16.1843    3.2243  -15.8316 C   0  0  0  0  0  0  0  0  0  0  0  0
  -14.8958    2.7609  -15.5250 C   0  0  0  0  0  0  0  0  0  0  0  0
  -14.6925    1.4995  -14.9688 C   0  0  0  0  0  0  0  0  0  0  0  0
  -15.7650    0.6527  -14.7186 C   0  0  0  0  0  0  0  0  0  0  0  0
  -17.0526    1.1017  -15.0501 C   0  0  0  0  0  0  0  0  0  0  0  0
  -17.2962    2.3844  -15.6020 C   0  0  0  0  0  0  0  0  0  0  0  0
  -15.6279   -0.6293  -14.1292 N   0  0  0  0  0  0  0  0  0  0  0  0
  -15.6920   -0.9352  -12.7764 C   0  0  0  0  0  0  0  0  0  0  0  0
  -15.8300   -0.0984  -11.8868 O   0  0  0  0  0  0  0  0  0  0  0  0
  -15.5053   -1.4110  -14.7625 H   0  0  0  0  0  0  0  0  0  0  0  0
  -15.5893   -2.3503  -12.4214 C   0  0  0  0  0  0  0  0  0  0  0  0
  -15.8742   -2.8747  -11.1754 C   0  0  0  0  0  0  0  0  0  0  0  0
  -15.7056   -4.2832  -11.1175 C   0  0  0  0  0  0  0  0  0  0  0  0
  -15.2900   -4.8301  -12.3207 C   0  0  0  0  0  0  0  0  0  0  0  0
  -15.1091   -3.5795  -13.5036 S   0  0  0  0  0  0  0  0  0  0  0  0
  -15.0156   -6.1855  -12.6767 C   0  0  0  0  0  0  0  0  0  0  0  0
  -14.1400   -6.9337  -11.9859 C   0  0  0  0  0  0  0  0  0  0  0  0
  -13.8751   -8.3380  -12.3787 C   0  0  0  0  0  0  0  0  0  0  0  0
  -14.4523   -8.9046  -13.3009 O   0  0  0  0  0  0  0  0  0  0  0  0
  -12.9174   -8.9411  -11.6093 N   0  0  0  0  0  0  0  0  0  0  0  0
  -12.5929  -10.2795  -11.9302 O   0  0  0  0  0  0  0  0  0  0  0  0
  -12.3995   -8.5126  -10.8536 H   0  0  0  0  0  0  0  0  0  0  0  0
  -13.1845  -10.4639  -12.6895 H   0  0  0  0  0  0  0  0  0  0  0  0
  -18.6111    2.8598  -15.8340 N   0  0  0  0  0  0  0  0  0  0  0  0
  -18.6957    3.5358  -16.5824 H   0  0  0  0  0  0  0  0  0  0  0  0
  -19.7422    2.5030  -15.1737 C   0  0  0  0  0  0  0  0  0  0  0  0
  -20.5530    3.3205  -14.5390 N   0  0  0  0  0  0  0  0  0  0  0  0
  -21.5895    2.6341  -13.9553 C   0  0  0  0  0  0  0  0  0  0  0  0
  -21.5999    1.2650  -14.1372 C   0  0  0  0  0  0  0  0  0  0  0  0
  -20.2597    0.8482  -15.1349 S   0  0  0  0  0  0  0  0  0  0  0  0
  -22.5584    0.2849  -13.6122 C   0  0  0  0  0  0  0  0  0  0  0  0
  -22.4156   -0.2220  -12.3122 C   0  0  0  0  0  0  0  0  0  0  0  0
  -23.2810   -1.2056  -11.8345 C   0  0  0  0  0  0  0  0  0  0  0  0
  -24.2804   -1.6610  -12.6742 C   0  0  0  0  0  0  0  0  0  0  0  0
  -24.4635   -1.2025  -13.9297 N   0  0  0  0  0  0  0  0  0  0  0  0
  -23.6016   -0.2472  -14.3675 C   0  0  0  0  0  0  0  0  0  0  0  0
  1  2  1  0  0  0
  2  3  1  0  0  0
  2  7  2  0  0  0
  3  4  2  0  0  0
  4  5  1  0  0  0
  5  8  1  0  0  0
  5  6  2  0  0  0
  8  9  1  0  0  0
  8 11  1  0  0  0
  9 10  2  0  0  0
  9 12  1  0  0  0
 12 13  2  0  0  0
 12 16  1  0  0  0
 13 14  1  0  0  0
 14 15  2  0  0  0
 15 17  1  0  0  0
 15 16  1  0  0  0
 17 18  2  0  0  0
 18 19  1  0  0  0
 19 20  2  0  0  0
 19 21  1  0  0  0
 21 22  1  0  0  0
 21 23  1  0  0  0
 22 24  1  0  0  0
  6  7  1  0  0  0
  7 25  1  0  0  0
 25 27  1  0  0  0
 25 26  1  0  0  0
 27 28  2  0  0  0
 27 31  1  0  0  0
 28 29  1  0  0  0
 29 30  2  0  0  0
 30 32  1  0  0  0
 30 31  1  0  0  0
 32 33  1  0  0  0
 32 37  2  0  0  0
 33 34  2  0  0  0
 34 35  1  0  0  0
 35 36  2  0  0  0
 36 37  1  0  0  0
M  END
> <minimizedAffinity>
-10.98600

$$$$
