CHEMBL270953


 32 36  0  0  0  0  0  0  0  0999 V2000
  -16.8998    1.0994  -13.7325 O   0  0  0  0  0  0  0  0  0  0  0  0
  -16.8232    1.6036  -14.8542 C   0  0  0  0  0  0  0  0  0  0  0  0
  -17.9141    1.9938  -15.5972 N   0  0  0  0  0  0  0  0  0  0  0  0
  -15.5949    1.7020  -15.4905 N   0  0  0  0  0  0  0  0  0  0  0  0
  -14.4798    0.9597  -14.9008 C   0  0  0  0  0  0  0  0  0  0  0  0
  -13.7040    0.2705  -16.0043 C   0  0  0  0  0  0  0  0  0  0  0  0
  -13.1563    1.2111  -16.9280 O   0  0  0  0  0  0  0  0  0  0  0  0
  -14.0021    2.2497  -17.2445 C   0  0  0  0  0  0  0  0  0  0  0  0
  -13.5502    3.0666  -18.2757 C   0  0  0  0  0  0  0  0  0  0  0  0
  -14.2769    4.1979  -18.6494 C   0  0  0  0  0  0  0  0  0  0  0  0
  -15.4895    4.4752  -18.0233 C   0  0  0  0  0  0  0  0  0  0  0  0
  -15.9457    3.6574  -16.9867 C   0  0  0  0  0  0  0  0  0  0  0  0
  -15.2152    2.5283  -16.5852 C   0  0  0  0  0  0  0  0  0  0  0  0
  -17.7604    2.0521  -16.5929 H   0  0  0  0  0  0  0  0  0  0  0  0
  -19.2549    1.9844  -15.1677 C   0  0  0  0  0  0  0  0  0  0  0  0
  -19.9190    3.1360  -14.7427 C   0  0  0  0  0  0  0  0  0  0  0  0
  -21.2050    3.0633  -14.2132 C   0  0  0  0  0  0  0  0  0  0  0  0
  -21.8516    1.8319  -14.1408 C   0  0  0  0  0  0  0  0  0  0  0  0
  -23.4155    1.7358  -13.4413 Cl  0  0  0  0  0  0  0  0  0  0  0  0
  -21.2232    0.6832  -14.6193 C   0  0  0  0  0  0  0  0  0  0  0  0
  -19.9307    0.7585  -15.1454 C   0  0  0  0  0  0  0  0  0  0  0  0
  -13.8905    5.0523  -19.6509 O   0  0  0  0  0  0  0  0  0  0  0  0
  -13.6516    6.3775  -19.3161 C   0  0  0  0  0  0  0  0  0  0  0  0
  -12.6187    6.7053  -18.4960 N   0  0  0  0  0  0  0  0  0  0  0  0
  -12.4244    8.0070  -18.2216 C   0  0  0  0  0  0  0  0  0  0  0  0
  -13.1602    9.0562  -18.6245 N   0  0  0  0  0  0  0  0  0  0  0  0
  -14.1844    8.6697  -19.4001 C   0  0  0  0  0  0  0  0  0  0  0  0
  -15.1120    9.5120  -19.9465 N   0  0  0  0  0  0  0  0  0  0  0  0
  -16.0010    8.7931  -20.7059 C   0  0  0  0  0  0  0  0  0  0  0  0
  -15.6406    7.4637  -20.6312 C   0  0  0  0  0  0  0  0  0  0  0  0
  -14.4943    7.3786  -19.7924 C   0  0  0  0  0  0  0  0  0  0  0  0
  -15.1168   10.5122  -19.8008 H   0  0  0  0  0  0  0  0  0  0  0  0
  1  2  2  0  0  0
  2  3  1  0  0  0
  2  4  1  0  0  0
  3 15  1  0  0  0
  3 14  1  0  0  0
 15 16  1  0  0  0
 15 21  2  0  0  0
 16 17  2  0  0  0
 17 18  1  0  0  0
 18 19  1  0  0  0
 18 20  2  0  0  0
 20 21  1  0  0  0
  4  5  1  0  0  0
  4 13  1  0  0  0
  5  6  1  0  0  0
  6  7  1  0  0  0
  7  8  1  0  0  0
  8  9  1  0  0  0
  8 13  2  0  0  0
  9 10  2  0  0  0
 10 22  1  0  0  0
 10 11  1  0  0  0
 22 23  1  0  0  0
 23 24  1  0  0  0
 23 31  2  0  0  0
 24 25  2  0  0  0
 25 26  1  0  0  0
 26 27  2  0  0  0
 27 28  1  0  0  0
 27 31  1  0  0  0
 28 29  1  0  0  0
 28 32  1  0  0  0
 29 30  2  0  0  0
 30 31  1  0  0  0
 11 12  2  0  0  0
 12 13  1  0  0  0
M  END
> <minimizedAffinity>
-8.61852

$$$$
