CHEMBL1940847


 22 24  0  0  0  0  0  0  0  0999 V2000
  -21.5029    0.8174  -13.1468 C   0  0  0  0  0  0  0  0  0  0  0  0
  -22.8360    0.1512  -13.3168 C   0  0  0  0  0  0  0  0  0  0  0  0
  -23.3139   -0.1943  -14.5810 C   0  0  0  0  0  0  0  0  0  0  0  0
  -24.5619   -0.8143  -14.7184 C   0  0  0  0  0  0  0  0  0  0  0  0
  -25.3613   -1.1013  -13.6207 C   0  0  0  0  0  0  0  0  0  0  0  0
  -26.5538   -1.6896  -13.7981 N   0  0  0  0  0  0  0  0  0  0  0  0
  -27.3128   -1.9415  -12.7014 C   0  0  0  0  0  0  0  0  0  0  0  0
  -28.8081   -2.6905  -13.1246 Cl  0  0  0  0  0  0  0  0  0  0  0  0
  -26.9486   -1.6550  -11.3823 C   0  0  0  0  0  0  0  0  0  0  0  0
  -25.6990   -1.0367  -11.2336 C   0  0  0  0  0  0  0  0  0  0  0  0
  -24.8851   -0.7529  -12.3446 C   0  0  0  0  0  0  0  0  0  0  0  0
  -23.6282   -0.1338  -12.2003 C   0  0  0  0  0  0  0  0  0  0  0  0
  -27.8240   -1.9183  -10.2143 C   0  0  0  0  0  0  0  0  0  0  0  0
  -27.4092   -2.4586   -9.0582 C   0  0  0  0  0  0  0  0  0  0  0  0
  -28.3410   -2.7072   -7.9007 C   0  0  0  0  0  0  0  0  0  0  0  0
  -29.2165   -3.5553   -8.0020 O   0  0  0  0  0  0  0  0  0  0  0  0
  -28.1329   -1.8750   -6.7147 C   0  0  0  0  0  0  0  0  0  0  0  0
  -28.0194   -0.1617   -6.9070 S   0  0  0  0  0  0  0  0  0  0  0  0
  -27.7780    0.0898   -5.2444 C   0  0  0  0  0  0  0  0  0  0  0  0
  -27.7481   -1.0919   -4.5432 C   0  0  0  0  0  0  0  0  0  0  0  0
  -27.9322   -2.2169   -5.3944 C   0  0  0  0  0  0  0  0  0  0  0  0
  -27.8859   -3.9561   -4.6512 Br  0  0  0  0  0  0  0  0  0  0  0  0
  1  2  1  0  0  0
  2  3  1  0  0  0
  2 12  2  0  0  0
  3  4  2  0  0  0
  4  5  1  0  0  0
  5  6  1  0  0  0
  5 11  2  0  0  0
  6  7  2  0  0  0
  7  8  1  0  0  0
  7  9  1  0  0  0
  9 13  1  0  0  0
  9 10  2  0  0  0
 13 14  2  0  0  0
 14 15  1  0  0  0
 15 16  2  0  0  0
 15 17  1  0  0  0
 17 18  1  0  0  0
 17 21  2  0  0  0
 18 19  1  0  0  0
 19 20  2  0  0  0
 20 21  1  0  0  0
 21 22  1  0  0  0
 10 11  1  0  0  0
 11 12  1  0  0  0
M  END
> <minimizedAffinity>
-8.84176

$$$$
