CHEMBL541643


 23 26  0  0  0  0  0  0  0  0999 V2000
  -29.3922   -5.9827   -7.4151 C   0  0  0  0  0  0  0  0  0  0  0  0
  -28.3950   -6.7826   -7.9110 N   0  0  0  0  0  0  0  0  0  0  0  0
  -28.6100   -8.0866   -8.2648 C   0  0  0  0  0  0  0  0  0  0  0  0
  -29.9062   -8.5966   -8.0726 C   0  0  0  0  0  0  0  0  0  0  0  0
  -30.5567  -10.1339   -8.3119 S   0  0  0  0  0  0  0  0  0  0  0  0
  -32.1098   -9.7516   -7.7737 C   0  0  0  0  0  0  0  0  0  0  0  0
  -32.1334   -8.4162   -7.3841 C   0  0  0  0  0  0  0  0  0  0  0  0
  -30.8962   -7.7883   -7.5504 C   0  0  0  0  0  0  0  0  0  0  0  0
  -30.6427   -6.4980   -7.2340 N   0  0  0  0  0  0  0  0  0  0  0  0
  -29.7736   -2.0854   -4.4799 O   0  0  0  0  0  0  0  0  0  0  0  0
  -29.3310   -2.6210   -5.6354 C   0  0  0  0  0  0  0  0  0  0  0  0
  -28.5935   -1.8490   -6.5435 C   0  0  0  0  0  0  0  0  0  0  0  0
  -28.1321   -2.4174   -7.7308 C   0  0  0  0  0  0  0  0  0  0  0  0
  -28.3976   -3.7584   -8.0166 C   0  0  0  0  0  0  0  0  0  0  0  0
  -29.1382   -4.5505   -7.1168 C   0  0  0  0  0  0  0  0  0  0  0  0
  -29.6062   -3.9643   -5.9247 C   0  0  0  0  0  0  0  0  0  0  0  0
  -29.5890   -1.1668   -4.2361 H   0  0  0  0  0  0  0  0  0  0  0  0
  -27.5284   -8.8716   -8.7877 N   0  0  0  0  0  0  0  0  0  0  0  0
  -27.1022   -8.7523  -10.1714 C   0  0  0  0  0  0  0  0  0  0  0  0
  -27.1654  -10.1341  -10.8310 C   0  0  0  0  0  0  0  0  0  0  0  0
  -26.4027  -11.0737  -10.0894 O   0  0  0  0  0  0  0  0  0  0  0  0
  -26.9535  -11.2162   -8.7901 C   0  0  0  0  0  0  0  0  0  0  0  0
  -26.8464   -9.8979   -8.0135 C   0  0  0  0  0  0  0  0  0  0  0  0
 10 11  1  0  0  0
 10 17  1  0  0  0
 11 12  1  0  0  0
 11 16  2  0  0  0
 12 13  2  0  0  0
 13 14  1  0  0  0
 14 15  2  0  0  0
 15  1  1  0  0  0
 15 16  1  0  0  0
  1  2  1  0  0  0
  1  9  2  0  0  0
  2  3  2  0  0  0
  3 18  1  0  0  0
  3  4  1  0  0  0
 18 19  1  0  0  0
 18 23  1  0  0  0
 19 20  1  0  0  0
 20 21  1  0  0  0
 21 22  1  0  0  0
 22 23  1  0  0  0
  4  5  1  0  0  0
  4  8  2  0  0  0
  5  6  1  0  0  0
  6  7  2  0  0  0
  7  8  1  0  0  0
  8  9  1  0  0  0
M  END
> <minimizedAffinity>
-7.46956

$$$$
