CHEMBL1970083


 41 45  0  0  0  0  0  0  0  0999 V2000
  -22.5324   -0.2896  -13.8348 C   0  0  0  0  0  0  0  0  0  0  0  0
  -22.5980   -0.5385  -12.4616 C   0  0  0  0  0  0  0  0  0  0  0  0
  -23.7619   -1.0142  -11.8719 C   0  0  0  0  0  0  0  0  0  0  0  0
  -24.9268   -1.1980  -12.6145 C   0  0  0  0  0  0  0  0  0  0  0  0
  -24.8772   -0.9511  -13.9901 C   0  0  0  0  0  0  0  0  0  0  0  0
  -23.6787   -0.5345  -14.5993 C   0  0  0  0  0  0  0  0  0  0  0  0
  -22.4711    3.0334  -13.5504 N   0  0  0  0  0  0  0  0  0  0  0  0
  -21.2579    2.8144  -14.1925 C   0  0  0  0  0  0  0  0  0  0  0  0
  -20.5758    3.9387  -14.4712 N   0  0  0  0  0  0  0  0  0  0  0  0
  -19.3722    3.8619  -15.0677 C   0  0  0  0  0  0  0  0  0  0  0  0
  -18.7020    2.6943  -15.4188 C   0  0  0  0  0  0  0  0  0  0  0  0
  -19.4268    1.5163  -15.0963 C   0  0  0  0  0  0  0  0  0  0  0  0
  -18.8722   -0.1178  -15.2623 S   0  0  0  0  0  0  0  0  0  0  0  0
  -20.3714   -0.7599  -14.8576 C   0  0  0  0  0  0  0  0  0  0  0  0
  -21.2630    0.1875  -14.3946 C   0  0  0  0  0  0  0  0  0  0  0  0
  -20.7217    1.5424  -14.5290 C   0  0  0  0  0  0  0  0  0  0  0  0
  -22.5029    3.9976  -13.2357 H   0  0  0  0  0  0  0  0  0  0  0  0
  -22.6783    2.3454  -12.8375 H   0  0  0  0  0  0  0  0  0  0  0  0
  -17.3658    2.7156  -16.0599 C   0  0  0  0  0  0  0  0  0  0  0  0
  -16.5669    1.5629  -16.1170 C   0  0  0  0  0  0  0  0  0  0  0  0
  -15.3144    1.6225  -16.7174 C   0  0  0  0  0  0  0  0  0  0  0  0
  -14.8058    2.7320  -17.2872 N   0  0  0  0  0  0  0  0  0  0  0  0
  -15.5717    3.8367  -17.2296 C   0  0  0  0  0  0  0  0  0  0  0  0
  -16.8143    3.8805  -16.6135 C   0  0  0  0  0  0  0  0  0  0  0  0
  -26.1446   -1.6308  -12.0307 N   0  0  0  0  0  0  0  0  0  0  0  0
  -26.4243   -1.5820  -10.6830 C   0  0  0  0  0  0  0  0  0  0  0  0
  -25.6819   -1.1137   -9.8229 O   0  0  0  0  0  0  0  0  0  0  0  0
  -27.6433   -2.1683  -10.3567 N   0  0  0  0  0  0  0  0  0  0  0  0
  -26.8995   -1.8765  -12.6539 H   0  0  0  0  0  0  0  0  0  0  0  0
  -27.8339   -3.0197  -10.8693 H   0  0  0  0  0  0  0  0  0  0  0  0
  -27.9878   -2.2060   -8.9801 C   0  0  0  0  0  0  0  0  0  0  0  0
  -28.2708   -1.0254   -8.2785 C   0  0  0  0  0  0  0  0  0  0  0  0
  -28.3731   -1.0280   -6.8812 C   0  0  0  0  0  0  0  0  0  0  0  0
  -28.2170   -2.2455   -6.1964 C   0  0  0  0  0  0  0  0  0  0  0  0
  -27.9992   -3.4356   -6.9000 C   0  0  0  0  0  0  0  0  0  0  0  0
  -27.9055   -3.4113   -8.2878 C   0  0  0  0  0  0  0  0  0  0  0  0
  -27.6320   -4.5451   -8.9512 F   0  0  0  0  0  0  0  0  0  0  0  0
  -28.5951    0.2591   -6.1232 C   0  0  0  0  0  0  0  0  0  0  0  0
  -28.6813    1.3624   -6.9187 F   0  0  0  0  0  0  0  0  0  0  0  0
  -29.7480    0.2353   -5.3998 F   0  0  0  0  0  0  0  0  0  0  0  0
  -27.6008    0.5180   -5.2297 F   0  0  0  0  0  0  0  0  0  0  0  0
  7  8  1  0  0  0
  7 17  1  0  0  0
  7 18  1  0  0  0
  8  9  1  0  0  0
  8 16  2  0  0  0
  9 10  2  0  0  0
 10 11  1  0  0  0
 11 19  1  0  0  0
 11 12  2  0  0  0
 19 20  1  0  0  0
 19 24  2  0  0  0
 20 21  2  0  0  0
 21 22  1  0  0  0
 22 23  2  0  0  0
 23 24  1  0  0  0
 12 13  1  0  0  0
 12 16  1  0  0  0
 13 14  1  0  0  0
 14 15  2  0  0  0
 15  1  1  0  0  0
 15 16  1  0  0  0
  1  2  1  0  0  0
  1  6  2  0  0  0
  2  3  2  0  0  0
  3  4  1  0  0  0
  4 25  1  0  0  0
  4  5  2  0  0  0
 25 26  1  0  0  0
 25 29  1  0  0  0
 26 27  2  0  0  0
 26 28  1  0  0  0
 28 31  1  0  0  0
 28 30  1  0  0  0
 31 32  1  0  0  0
 31 36  2  0  0  0
 32 33  2  0  0  0
 33 38  1  0  0  0
 33 34  1  0  0  0
 38 39  1  0  0  0
 38 40  1  0  0  0
 38 41  1  0  0  0
 34 35  2  0  0  0
 35 36  1  0  0  0
 36 37  1  0  0  0
  5  6  1  0  0  0
M  END
> <minimizedAffinity>
-10.09271

$$$$
