CHEMBL382710


 37 41  0  0  0  0  0  0  0  0999 V2000
  -14.7569    2.3213  -15.3245 C   0  0  0  0  0  0  0  0  0  0  0  0
  -13.8632    1.7156  -14.5074 N   0  0  0  0  0  0  0  0  0  0  0  0
  -14.2822    0.8827  -13.4961 N   0  0  0  0  0  0  0  0  0  0  0  0
  -15.5898    0.5969  -13.3260 C   0  0  0  0  0  0  0  0  0  0  0  0
  -16.5606    1.1488  -14.2022 C   0  0  0  0  0  0  0  0  0  0  0  0
  -17.9347    0.7878  -14.1718 C   0  0  0  0  0  0  0  0  0  0  0  0
  -18.8840    1.4394  -14.9635 C   0  0  0  0  0  0  0  0  0  0  0  0
  -18.4970    2.4939  -15.7655 C   0  0  0  0  0  0  0  0  0  0  0  0
  -17.1530    2.8380  -15.8395 C   0  0  0  0  0  0  0  0  0  0  0  0
  -16.1440    2.1169  -15.1443 C   0  0  0  0  0  0  0  0  0  0  0  0
  -13.1223    4.8593  -18.4379 C   0  0  0  0  0  0  0  0  0  0  0  0
  -13.7087    3.6357  -18.7691 C   0  0  0  0  0  0  0  0  0  0  0  0
  -14.1800    2.7857  -17.7605 C   0  0  0  0  0  0  0  0  0  0  0  0
  -14.1468    3.1516  -16.3984 C   0  0  0  0  0  0  0  0  0  0  0  0
  -13.5100    4.3658  -16.0896 C   0  0  0  0  0  0  0  0  0  0  0  0
  -13.0382    5.2233  -17.0934 C   0  0  0  0  0  0  0  0  0  0  0  0
  -11.5539    5.4996  -20.0353 O   0  0  0  0  0  0  0  0  0  0  0  0
  -12.6687    5.7334  -19.5591 C   0  0  0  0  0  0  0  0  0  0  0  0
  -13.4672    6.7900  -20.0017 N   0  0  0  0  0  0  0  0  0  0  0  0
  -13.0562    7.5115  -21.2063 C   0  0  0  0  0  0  0  0  0  0  0  0
  -13.3836    9.0068  -21.1115 C   0  0  0  0  0  0  0  0  0  0  0  0
  -14.7729    9.2113  -20.8141 O   0  0  0  0  0  0  0  0  0  0  0  0
  -15.0939    8.6274  -19.5462 C   0  0  0  0  0  0  0  0  0  0  0  0
  -14.8215    7.1220  -19.5370 C   0  0  0  0  0  0  0  0  0  0  0  0
  -16.0030   -0.2972  -12.2898 N   0  0  0  0  0  0  0  0  0  0  0  0
  -15.5385   -0.0073  -11.4325 H   0  0  0  0  0  0  0  0  0  0  0  0
  -15.8742   -1.7131  -12.3170 C   0  0  0  0  0  0  0  0  0  0  0  0
  -15.8944   -2.4954  -11.1570 C   0  0  0  0  0  0  0  0  0  0  0  0
  -15.9118   -3.8969  -11.2281 C   0  0  0  0  0  0  0  0  0  0  0  0
  -15.9250   -4.5365  -12.4654 C   0  0  0  0  0  0  0  0  0  0  0  0
  -15.9436   -3.7606  -13.6265 C   0  0  0  0  0  0  0  0  0  0  0  0
  -15.9465   -2.3640  -13.5525 C   0  0  0  0  0  0  0  0  0  0  0  0
  -15.8652   -5.8825  -12.6803 O   0  0  0  0  0  0  0  0  0  0  0  0
  -14.6157   -6.5370  -12.4969 C   0  0  0  0  0  0  0  0  0  0  0  0
  -13.5931   -5.7359  -12.8822 F   0  0  0  0  0  0  0  0  0  0  0  0
  -14.4481   -6.8400  -11.1860 F   0  0  0  0  0  0  0  0  0  0  0  0
  -14.5869   -8.0193  -13.4618 Cl  0  0  0  0  0  0  0  0  0  0  0  0
 17 18  2  0  0  0
 18 11  1  0  0  0
 18 19  1  0  0  0
 11 12  1  0  0  0
 11 16  2  0  0  0
 12 13  2  0  0  0
 13 14  1  0  0  0
 14  1  1  0  0  0
 14 15  2  0  0  0
  1  2  1  0  0  0
  1 10  2  0  0  0
  2  3  2  0  0  0
  3  4  1  0  0  0
  4 25  1  0  0  0
  4  5  2  0  0  0
 25 27  1  0  0  0
 25 26  1  0  0  0
 27 28  1  0  0  0
 27 32  2  0  0  0
 28 29  2  0  0  0
 29 30  1  0  0  0
 30 33  1  0  0  0
 30 31  2  0  0  0
 33 34  1  0  0  0
 34 35  1  0  0  0
 34 36  1  0  0  0
 34 37  1  0  0  0
 31 32  1  0  0  0
  5  6  1  0  0  0
  5 10  1  0  0  0
  6  7  2  0  0  0
  7  8  1  0  0  0
  8  9  2  0  0  0
  9 10  1  0  0  0
 15 16  1  0  0  0
 19 20  1  0  0  0
 19 24  1  0  0  0
 20 21  1  0  0  0
 21 22  1  0  0  0
 22 23  1  0  0  0
 23 24  1  0  0  0
M  END
> <minimizedAffinity>
-8.35206

$$$$
