CHEMBL2105717


 39 43  0  0  0  0  0  0  0  0999 V2000
  -28.6163   -2.2474   -7.5871 C   0  0  0  0  0  0  0  0  0  0  0  0
  -27.9462   -1.0306   -7.6946 C   0  0  0  0  0  0  0  0  0  0  0  0
  -27.2057   -0.7405   -8.8494 C   0  0  0  0  0  0  0  0  0  0  0  0
  -27.0570   -1.6898   -9.8626 C   0  0  0  0  0  0  0  0  0  0  0  0
  -27.6000   -2.9665   -9.6668 C   0  0  0  0  0  0  0  0  0  0  0  0
  -28.3783   -3.2431   -8.5356 C   0  0  0  0  0  0  0  0  0  0  0  0
  -26.4106   -1.4281  -11.0903 N   0  0  0  0  0  0  0  0  0  0  0  0
  -25.0636   -1.5696  -11.3708 C   0  0  0  0  0  0  0  0  0  0  0  0
  -24.1774   -1.9656  -10.6254 O   0  0  0  0  0  0  0  0  0  0  0  0
  -26.9762   -0.9951  -11.8180 H   0  0  0  0  0  0  0  0  0  0  0  0
  -24.6904   -1.1909  -12.7754 C   0  0  0  0  0  0  0  0  0  0  0  0
  -25.7686   -1.3902  -13.8461 C   0  0  0  0  0  0  0  0  0  0  0  0
  -24.5829   -2.3000  -13.8214 C   0  0  0  0  0  0  0  0  0  0  0  0
  -23.8199    0.0231  -12.8991 C   0  0  0  0  0  0  0  0  0  0  0  0
  -24.0211    0.9377  -12.1125 O   0  0  0  0  0  0  0  0  0  0  0  0
  -22.8863   -0.0139  -13.9233 N   0  0  0  0  0  0  0  0  0  0  0  0
  -22.9190   -0.8065  -14.5530 H   0  0  0  0  0  0  0  0  0  0  0  0
  -21.9673    1.0157  -14.2378 C   0  0  0  0  0  0  0  0  0  0  0  0
  -22.2676    2.3723  -14.0687 C   0  0  0  0  0  0  0  0  0  0  0  0
  -21.3602    3.3605  -14.4612 C   0  0  0  0  0  0  0  0  0  0  0  0
  -20.1457    2.9921  -15.0167 C   0  0  0  0  0  0  0  0  0  0  0  0
  -19.2924    3.9400  -15.4258 F   0  0  0  0  0  0  0  0  0  0  0  0
  -19.8052    1.6526  -15.1533 C   0  0  0  0  0  0  0  0  0  0  0  0
  -20.7100    0.6607  -14.7497 C   0  0  0  0  0  0  0  0  0  0  0  0
  -29.5461   -2.5480   -6.6193 O   0  0  0  0  0  0  0  0  0  0  0  0
  -29.2650   -7.5737   -5.1652 C   0  0  0  0  0  0  0  0  0  0  0  0
  -28.8928   -6.7246   -4.1097 C   0  0  0  0  0  0  0  0  0  0  0  0
  -28.8599   -5.3413   -4.2333 C   0  0  0  0  0  0  0  0  0  0  0  0
  -28.6197   -4.6210   -3.1263 N   0  0  0  0  0  0  0  0  0  0  0  0
  -28.6752   -3.2778   -3.2135 C   0  0  0  0  0  0  0  0  0  0  0  0
  -28.9828   -2.6013   -4.3738 C   0  0  0  0  0  0  0  0  0  0  0  0
  -29.2290   -3.3419   -5.5287 C   0  0  0  0  0  0  0  0  0  0  0  0
  -29.1136   -4.7598   -5.4895 C   0  0  0  0  0  0  0  0  0  0  0  0
  -29.2543   -5.6399   -6.5855 C   0  0  0  0  0  0  0  0  0  0  0  0
  -29.4219   -7.0200   -6.4333 C   0  0  0  0  0  0  0  0  0  0  0  0
  -28.2536   -9.7071   -4.9091 C   0  0  0  0  0  0  0  0  0  0  0  0
  -29.4432   -8.9199   -4.9887 O   0  0  0  0  0  0  0  0  0  0  0  0
  -29.7588   -7.6107   -7.6172 O   0  0  0  0  0  0  0  0  0  0  0  0
  -28.7773   -8.2877   -8.3811 C   0  0  0  0  0  0  0  0  0  0  0  0
 36 37  1  0  0  0
 37 26  1  0  0  0
 26 27  1  0  0  0
 26 35  2  0  0  0
 27 28  2  0  0  0
 28 29  1  0  0  0
 28 33  1  0  0  0
 29 30  2  0  0  0
 30 31  1  0  0  0
 31 32  2  0  0  0
 32 25  1  0  0  0
 32 33  1  0  0  0
 25  1  1  0  0  0
  1  2  1  0  0  0
  1  6  2  0  0  0
  2  3  2  0  0  0
  3  4  1  0  0  0
  4  7  1  0  0  0
  4  5  2  0  0  0
  7  8  1  0  0  0
  7 10  1  0  0  0
  8  9  2  0  0  0
  8 11  1  0  0  0
 11 14  1  0  0  0
 11 12  1  0  0  0
 11 13  1  0  0  0
 14 15  2  0  0  0
 14 16  1  0  0  0
 16 18  1  0  0  0
 16 17  1  0  0  0
 18 19  1  0  0  0
 18 24  2  0  0  0
 19 20  2  0  0  0
 20 21  1  0  0  0
 21 22  1  0  0  0
 21 23  2  0  0  0
 23 24  1  0  0  0
 12 13  1  0  0  0
  5  6  1  0  0  0
 33 34  2  0  0  0
 34 35  1  0  0  0
 35 38  1  0  0  0
 38 39  1  0  0  0
M  END
> <minimizedAffinity>
-9.30144

$$$$
