CHEMBL523823


 21 23  0  0  0  0  0  0  0  0999 V2000
  -28.8536   -4.3235   -4.2984 N   0  0  0  0  0  0  0  0  0  0  0  0
  -28.6318   -3.8132   -5.6083 C   0  0  0  0  0  0  0  0  0  0  0  0
  -28.3877   -2.4550   -5.8811 C   0  0  0  0  0  0  0  0  0  0  0  0
  -28.1784   -2.0013   -7.1891 C   0  0  0  0  0  0  0  0  0  0  0  0
  -27.8901   -0.3225   -7.4642 Cl  0  0  0  0  0  0  0  0  0  0  0  0
  -28.2017   -2.8930   -8.2575 C   0  0  0  0  0  0  0  0  0  0  0  0
  -27.9986   -2.4933   -9.5476 O   0  0  0  0  0  0  0  0  0  0  0  0
  -28.4338   -4.2400   -8.0332 C   0  0  0  0  0  0  0  0  0  0  0  0
  -28.6429   -4.6950   -6.7221 C   0  0  0  0  0  0  0  0  0  0  0  0
  -28.8848   -6.1449   -6.5167 C   0  0  0  0  0  0  0  0  0  0  0  0
  -28.9666   -6.9166   -7.4621 O   0  0  0  0  0  0  0  0  0  0  0  0
  -29.0119   -6.5731   -5.1337 C   0  0  0  0  0  0  0  0  0  0  0  0
  -29.2748   -7.8986   -4.5731 C   0  0  0  0  0  0  0  0  0  0  0  0
  -29.4251   -8.9503   -5.1645 O   0  0  0  0  0  0  0  0  0  0  0  0
  -29.3759   -7.7304   -3.2068 O   0  0  0  0  0  0  0  0  0  0  0  0
  -29.1165   -6.3791   -2.9285 N   0  0  0  0  0  0  0  0  0  0  0  0
  -28.9826   -5.6983   -4.1200 C   0  0  0  0  0  0  0  0  0  0  0  0
  -27.8403   -1.5307   -9.5400 H   0  0  0  0  0  0  0  0  0  0  0  0
  -29.7951   -5.9681   -2.2908 H   0  0  0  0  0  0  0  0  0  0  0  0
  -30.3491   -2.9132   -2.9069 C   0  0  0  0  0  0  0  0  0  0  0  0
  -28.9261   -3.3875   -3.1609 C   0  0  0  0  0  0  0  0  0  0  0  0
 20 21  1  0  0  0
 21  1  1  0  0  0
  1  2  1  0  0  0
  1 17  1  0  0  0
  2  3  1  0  0  0
  2  9  2  0  0  0
  3  4  2  0  0  0
  4  5  1  0  0  0
  4  6  1  0  0  0
  6  7  1  0  0  0
  6  8  2  0  0  0
  7 18  1  0  0  0
  8  9  1  0  0  0
  9 10  1  0  0  0
 10 11  2  0  0  0
 10 12  1  0  0  0
 12 13  1  0  0  0
 12 17  2  0  0  0
 13 14  2  0  0  0
 13 15  1  0  0  0
 15 16  1  0  0  0
 16 17  1  0  0  0
 16 19  1  0  0  0
M  END
> <minimizedAffinity>
-7.71457

$$$$
