CHEMBL3955800


 35 39  0  0  0  0  0  0  0  0999 V2000
  -28.6422   -9.0991   -5.4065 N   0  0  0  0  0  0  0  0  0  0  0  0
  -28.7547   -7.6993   -4.9493 C   0  0  0  0  0  0  0  0  0  0  0  0
  -29.6052   -7.5379   -3.8507 C   0  0  0  0  0  0  0  0  0  0  0  0
  -30.1007   -6.3403   -3.4784 C   0  0  0  0  0  0  0  0  0  0  0  0
  -29.7430   -5.2030   -4.1134 C   0  0  0  0  0  0  0  0  0  0  0  0
  -30.4069   -4.1162   -3.7285 N   0  0  0  0  0  0  0  0  0  0  0  0
  -30.1302   -2.9165   -4.1974 C   0  0  0  0  0  0  0  0  0  0  0  0
  -29.0508   -2.7177   -5.0585 C   0  0  0  0  0  0  0  0  0  0  0  0
  -28.3993   -3.8648   -5.5726 N   0  0  0  0  0  0  0  0  0  0  0  0
  -28.7569   -5.1506   -5.1211 C   0  0  0  0  0  0  0  0  0  0  0  0
  -28.2460   -6.4631   -5.5839 C   0  0  0  0  0  0  0  0  0  0  0  0
  -28.7047   -1.2291   -5.2039 C   0  0  0  0  0  0  0  0  0  0  0  0
  -29.6867   -0.2234   -5.3662 C   0  0  0  0  0  0  0  0  0  0  0  0
  -29.1235    0.9863   -5.4184 N   0  0  0  0  0  0  0  0  0  0  0  0
  -27.8264    0.8249   -5.2908 N   0  0  0  0  0  0  0  0  0  0  0  0
  -27.5200   -0.4932   -5.1530 C   0  0  0  0  0  0  0  0  0  0  0  0
  -27.1723    1.6389   -5.2846 H   0  0  0  0  0  0  0  0  0  0  0  0
  -31.1576  -10.6913   -7.7570 C   0  0  0  0  0  0  0  0  0  0  0  0
  -30.4859  -10.5014   -8.9816 C   0  0  0  0  0  0  0  0  0  0  0  0
  -29.2157   -9.9391   -9.0189 C   0  0  0  0  0  0  0  0  0  0  0  0
  -28.6155   -9.5338   -7.8157 C   0  0  0  0  0  0  0  0  0  0  0  0
  -29.2444   -9.6864   -6.5763 C   0  0  0  0  0  0  0  0  0  0  0  0
  -30.5250  -10.2860   -6.5508 C   0  0  0  0  0  0  0  0  0  0  0  0
  -33.1503  -11.4222   -6.5616 C   0  0  0  0  0  0  0  0  0  0  0  0
  -32.4076  -11.2298   -7.7172 O   0  0  0  0  0  0  0  0  0  0  0  0
  -28.6107   -9.7700  -10.2262 O   0  0  0  0  0  0  0  0  0  0  0  0
  -27.4956  -10.4442  -10.6674 C   0  0  0  0  0  0  0  0  0  0  0  0
  -27.8707   -9.9697   -4.4508 C   0  0  0  0  0  0  0  0  0  0  0  0
  -26.6254   -9.5200   -3.6193 C   0  0  0  0  0  0  0  0  0  0  0  0
  -25.3006   -9.1168   -4.3288 C   0  0  0  0  0  0  0  0  0  0  0  0
  -24.7409  -10.2725   -5.1022 N   0  0  0  0  0  0  0  0  0  0  0  0
  -24.1984  -11.3766   -4.2762 C   0  0  0  0  0  0  0  0  0  0  0  0
  -22.7049  -11.1515   -4.2069 C   0  0  0  0  0  0  0  0  0  0  0  0
  -22.4396  -10.8300   -5.6507 C   0  0  0  0  0  0  0  0  0  0  0  0
  -23.5981   -9.8783   -5.9702 C   0  0  0  0  0  0  0  0  0  0  0  0
 24 25  1  0  0  0
 25 18  1  0  0  0
 18 19  1  0  0  0
 18 23  2  0  0  0
 19 20  2  0  0  0
 20 26  1  0  0  0
 20 21  1  0  0  0
 26 27  1  0  0  0
 21 22  2  0  0  0
 22  1  1  0  0  0
 22 23  1  0  0  0
  1 28  1  0  0  0
  1  2  1  0  0  0
 28 29  1  0  0  0
 29 30  1  0  0  0
 30 31  1  0  0  0
 31 32  1  0  0  0
 31 35  1  0  0  0
 32 33  1  0  0  0
 33 34  1  0  0  0
 34 35  1  0  0  0
  2  3  1  0  0  0
  2 11  2  0  0  0
  3  4  2  0  0  0
  4  5  1  0  0  0
  5  6  1  0  0  0
  5 10  2  0  0  0
  6  7  2  0  0  0
  7  8  1  0  0  0
  8 12  1  0  0  0
  8  9  2  0  0  0
 12 13  1  0  0  0
 12 16  2  0  0  0
 13 14  2  0  0  0
 14 15  1  0  0  0
 15 16  1  0  0  0
 15 17  1  0  0  0
  9 10  1  0  0  0
 10 11  1  0  0  0
M  END
> <minimizedAffinity>
-7.90679

$$$$
