CHEMBL424321


 36 41  0  0  0  0  0  0  0  0999 V2000
  -18.9527    1.4413  -15.1262 C   0  0  0  0  0  0  0  0  0  0  0  0
  -18.6352    2.5808  -15.8765 C   0  0  0  0  0  0  0  0  0  0  0  0
  -17.3329    3.0599  -15.9750 C   0  0  0  0  0  0  0  0  0  0  0  0
  -16.3460    2.3719  -15.2517 C   0  0  0  0  0  0  0  0  0  0  0  0
  -16.6380    1.2106  -14.5258 C   0  0  0  0  0  0  0  0  0  0  0  0
  -17.9441    0.7288  -14.4854 C   0  0  0  0  0  0  0  0  0  0  0  0
  -15.3871    0.7953  -14.1696 C   0  0  0  0  0  0  0  0  0  0  0  0
  -14.9705   -0.5180  -13.9611 C   0  0  0  0  0  0  0  0  0  0  0  0
  -13.5168   -0.6961  -14.1134 C   0  0  0  0  0  0  0  0  0  0  0  0
  -12.4979    0.3222  -14.3044 C   0  0  0  0  0  0  0  0  0  0  0  0
  -13.2510    1.3102  -13.5952 C   0  0  0  0  0  0  0  0  0  0  0  0
  -14.4522    1.7519  -14.1304 C   0  0  0  0  0  0  0  0  0  0  0  0
  -14.9521    2.4954  -15.2224 N   0  0  0  0  0  0  0  0  0  0  0  0
  -12.3301    1.8915  -12.6140 C   0  0  0  0  0  0  0  0  0  0  0  0
  -11.5429    2.4626  -13.7039 C   0  0  0  0  0  0  0  0  0  0  0  0
  -11.3772    3.8447  -13.8007 C   0  0  0  0  0  0  0  0  0  0  0  0
  -11.1686    4.3565  -15.0529 C   0  0  0  0  0  0  0  0  0  0  0  0
  -10.9867    3.4652  -16.1290 C   0  0  0  0  0  0  0  0  0  0  0  0
  -11.1808    2.0387  -16.0119 C   0  0  0  0  0  0  0  0  0  0  0  0
  -11.6190    1.5133  -14.7930 C   0  0  0  0  0  0  0  0  0  0  0  0
  -13.2701   -1.8659  -13.2509 C   0  0  0  0  0  0  0  0  0  0  0  0
  -12.2294   -2.3696  -12.8273 O   0  0  0  0  0  0  0  0  0  0  0  0
  -14.5141   -2.2820  -12.7468 N   0  0  0  0  0  0  0  0  0  0  0  0
  -15.6676   -1.5256  -13.1648 C   0  0  0  0  0  0  0  0  0  0  0  0
  -14.5256   -2.8244  -11.8930 H   0  0  0  0  0  0  0  0  0  0  0  0
  -20.3748    0.9970  -15.0188 C   0  0  0  0  0  0  0  0  0  0  0  0
  -21.1099    2.0558  -14.4245 O   0  0  0  0  0  0  0  0  0  0  0  0
  -22.3768    1.5877  -14.0014 C   0  0  0  0  0  0  0  0  0  0  0  0
  -22.2394    0.1353  -13.5967 C   0  0  0  0  0  0  0  0  0  0  0  0
  -23.0714   -1.5908  -11.9805 C   0  0  0  0  0  0  0  0  0  0  0  0
  -23.0923   -0.1266  -12.3641 C   0  0  0  0  0  0  0  0  0  0  0  0
  -14.2911    3.2144  -16.2950 C   0  0  0  0  0  0  0  0  0  0  0  0
  -14.3350    2.6334  -17.7267 C   0  0  0  0  0  0  0  0  0  0  0  0
  -13.8013    1.2303  -17.9773 C   0  0  0  0  0  0  0  0  0  0  0  0
  -14.8212    0.2848  -17.6265 O   0  0  0  0  0  0  0  0  0  0  0  0
  -14.9801    0.3464  -16.6682 H   0  0  0  0  0  0  0  0  0  0  0  0
 30 31  1  0  0  0
 31 29  1  0  0  0
 29 28  1  0  0  0
 28 27  1  0  0  0
 27 26  1  0  0  0
 26  1  1  0  0  0
  1  2  1  0  0  0
  1  6  2  0  0  0
  2  3  2  0  0  0
  3  4  1  0  0  0
  4  5  2  0  0  0
  4 13  1  0  0  0
  5  6  1  0  0  0
  5  7  1  0  0  0
  7  8  1  0  0  0
  7 12  2  0  0  0
  8  9  2  0  0  0
  8 24  1  0  0  0
  9 10  1  0  0  0
  9 21  1  0  0  0
 10 11  2  0  0  0
 10 20  1  0  0  0
 11 12  1  0  0  0
 11 14  1  0  0  0
 12 13  1  0  0  0
 13 32  1  0  0  0
 32 33  1  0  0  0
 33 34  1  0  0  0
 34 35  1  0  0  0
 35 36  1  0  0  0
 14 15  1  0  0  0
 15 16  1  0  0  0
 15 20  2  0  0  0
 16 17  2  0  0  0
 17 18  1  0  0  0
 18 19  2  0  0  0
 19 20  1  0  0  0
 21 22  2  0  0  0
 21 23  1  0  0  0
 23 24  1  0  0  0
 23 25  1  0  0  0
M  END
> <minimizedAffinity>
-7.98325

$$$$
