CHEMBL4091628


 43 47  0  0  0  0  0  0  0  0999 V2000
  -13.4020    0.4636  -14.0479 N   0  0  0  0  0  0  0  0  0  0  0  0
  -13.9497    1.3853  -14.9396 C   0  0  0  0  0  0  0  0  0  0  0  0
  -14.8228    1.1408  -15.7692 O   0  0  0  0  0  0  0  0  0  0  0  0
  -12.6257    0.7396  -13.4646 H   0  0  0  0  0  0  0  0  0  0  0  0
  -13.4201    2.7811  -14.9469 C   0  0  0  0  0  0  0  0  0  0  0  0
  -12.5507    3.2784  -13.9737 C   0  0  0  0  0  0  0  0  0  0  0  0
  -12.0170    4.5660  -14.1125 C   0  0  0  0  0  0  0  0  0  0  0  0
  -12.3258    5.3536  -15.2298 C   0  0  0  0  0  0  0  0  0  0  0  0
  -11.5918    6.9146  -15.3442 Cl  0  0  0  0  0  0  0  0  0  0  0  0
  -13.1802    4.8623  -16.2228 C   0  0  0  0  0  0  0  0  0  0  0  0
  -13.7357    3.5862  -16.0627 C   0  0  0  0  0  0  0  0  0  0  0  0
  -13.4435    5.5851  -17.4357 C   0  0  0  0  0  0  0  0  0  0  0  0
  -13.5895    6.1792  -18.4741 C   0  0  0  0  0  0  0  0  0  0  0  0
  -13.6909    6.8694  -19.7240 C   0  0  0  0  0  0  0  0  0  0  0  0
  -12.7437    6.6913  -20.7180 C   0  0  0  0  0  0  0  0  0  0  0  0
  -12.8126    7.2835  -21.9301 N   0  0  0  0  0  0  0  0  0  0  0  0
  -13.8883    8.0857  -22.1483 C   0  0  0  0  0  0  0  0  0  0  0  0
  -14.9099    8.3561  -21.2332 C   0  0  0  0  0  0  0  0  0  0  0  0
  -14.7764    7.7090  -19.9960 C   0  0  0  0  0  0  0  0  0  0  0  0
  -15.9728    9.1898  -21.5069 N   0  0  0  0  0  0  0  0  0  0  0  0
  -16.2061   10.4628  -20.8082 C   0  0  0  0  0  0  0  0  0  0  0  0
  -17.6203   10.4868  -20.2080 C   0  0  0  0  0  0  0  0  0  0  0  0
  -18.6225   10.2023  -21.1995 O   0  0  0  0  0  0  0  0  0  0  0  0
  -18.3954    8.9069  -21.7800 C   0  0  0  0  0  0  0  0  0  0  0  0
  -17.0224    8.8281  -22.4714 C   0  0  0  0  0  0  0  0  0  0  0  0
  -14.4895   -3.6542  -13.7127 C   0  0  0  0  0  0  0  0  0  0  0  0
  -13.7668   -3.1634  -14.8127 C   0  0  0  0  0  0  0  0  0  0  0  0
  -13.4006   -1.8283  -14.9234 C   0  0  0  0  0  0  0  0  0  0  0  0
  -13.7919   -0.9000  -13.9707 C   0  0  0  0  0  0  0  0  0  0  0  0
  -14.5890   -1.3481  -12.9068 C   0  0  0  0  0  0  0  0  0  0  0  0
  -14.9078   -2.7304  -12.7341 C   0  0  0  0  0  0  0  0  0  0  0  0
  -15.6814   -3.1052  -11.4821 C   0  0  0  0  0  0  0  0  0  0  0  0
  -16.7834   -3.8783  -11.6608 F   0  0  0  0  0  0  0  0  0  0  0  0
  -14.9050   -3.7728  -10.5806 F   0  0  0  0  0  0  0  0  0  0  0  0
  -16.1259   -1.9964  -10.8189 F   0  0  0  0  0  0  0  0  0  0  0  0
  -14.7416   -5.1551  -13.6896 C   0  0  0  0  0  0  0  0  0  0  0  0
  -13.0702   -9.2702  -15.4552 C   0  0  0  0  0  0  0  0  0  0  0  0
  -13.0526   -8.4280  -14.2615 N   0  0  0  0  0  0  0  0  0  0  0  0
  -12.4658   -7.1130  -14.5637 C   0  0  0  0  0  0  0  0  0  0  0  0
  -12.5016   -6.1759  -13.3334 C   0  0  0  0  0  0  0  0  0  0  0  0
  -13.8585   -5.9233  -12.7907 N   0  0  0  0  0  0  0  0  0  0  0  0
  -14.4514   -7.2591  -12.5085 C   0  0  0  0  0  0  0  0  0  0  0  0
  -14.4056   -8.2662  -13.6946 C   0  0  0  0  0  0  0  0  0  0  0  0
 37 38  1  0  0  0
 38 39  1  0  0  0
 38 43  1  0  0  0
 39 40  1  0  0  0
 40 41  1  0  0  0
 41 36  1  0  0  0
 41 42  1  0  0  0
 36 26  1  0  0  0
 26 27  1  0  0  0
 26 31  2  0  0  0
 27 28  2  0  0  0
 28 29  1  0  0  0
 29  1  1  0  0  0
 29 30  2  0  0  0
  1  2  1  0  0  0
  1  4  1  0  0  0
  2  3  2  0  0  0
  2  5  1  0  0  0
  5  6  1  0  0  0
  5 11  2  0  0  0
  6  7  2  0  0  0
  7  8  1  0  0  0
  8  9  1  0  0  0
  8 10  2  0  0  0
 10 12  1  0  0  0
 10 11  1  0  0  0
 12 13  3  0  0  0
 13 14  1  0  0  0
 14 15  1  0  0  0
 14 19  2  0  0  0
 15 16  2  0  0  0
 16 17  1  0  0  0
 17 18  2  0  0  0
 18 20  1  0  0  0
 18 19  1  0  0  0
 20 21  1  0  0  0
 20 25  1  0  0  0
 21 22  1  0  0  0
 22 23  1  0  0  0
 23 24  1  0  0  0
 24 25  1  0  0  0
 30 31  1  0  0  0
 31 32  1  0  0  0
 32 33  1  0  0  0
 32 34  1  0  0  0
 32 35  1  0  0  0
 42 43  1  0  0  0
M  END
> <minimizedAffinity>
-6.96370

$$$$
