CHEMBL96150


 23 26  0  0  0  0  0  0  0  0999 V2000
  -29.9969   -3.6847   -4.8983 C   0  0  0  0  0  0  0  0  0  0  0  0
  -30.9048   -4.2639   -3.9844 C   0  0  0  0  0  0  0  0  0  0  0  0
  -31.2199   -5.5243   -4.2798 N   0  0  0  0  0  0  0  0  0  0  0  0
  -30.5157   -5.7911   -5.4053 N   0  0  0  0  0  0  0  0  0  0  0  0
  -30.5071   -6.9780   -6.1309 C   0  0  0  0  0  0  0  0  0  0  0  0
  -29.7560   -7.0952   -7.2376 C   0  0  0  0  0  0  0  0  0  0  0  0
  -28.9574   -5.8795   -7.5817 C   0  0  0  0  0  0  0  0  0  0  0  0
  -28.9476   -4.7561   -6.9295 N   0  0  0  0  0  0  0  0  0  0  0  0
  -29.7439   -4.6933   -5.8125 C   0  0  0  0  0  0  0  0  0  0  0  0
  -27.7107    1.4239   -5.0401 F   0  0  0  0  0  0  0  0  0  0  0  0
  -28.2792    0.2103   -5.0016 C   0  0  0  0  0  0  0  0  0  0  0  0
  -27.5175   -0.8709   -4.5722 C   0  0  0  0  0  0  0  0  0  0  0  0
  -28.0876   -2.1469   -4.5295 C   0  0  0  0  0  0  0  0  0  0  0  0
  -29.4220   -2.3472   -4.9191 C   0  0  0  0  0  0  0  0  0  0  0  0
  -30.1739   -1.2416   -5.3475 C   0  0  0  0  0  0  0  0  0  0  0  0
  -29.6043    0.0320   -5.3865 C   0  0  0  0  0  0  0  0  0  0  0  0
  -30.5519    1.3657   -5.9226 Cl  0  0  0  0  0  0  0  0  0  0  0  0
  -29.7255   -8.3061   -8.0529 C   0  0  0  0  0  0  0  0  0  0  0  0
  -30.8040   -9.1917   -8.0387 C   0  0  0  0  0  0  0  0  0  0  0  0
  -30.7227  -10.3364   -8.8141 C   0  0  0  0  0  0  0  0  0  0  0  0
  -29.6588  -10.6438   -9.5851 N   0  0  0  0  0  0  0  0  0  0  0  0
  -28.6288   -9.7714   -9.5827 C   0  0  0  0  0  0  0  0  0  0  0  0
  -28.6140   -8.6010   -8.8427 C   0  0  0  0  0  0  0  0  0  0  0  0
 10 11  1  0  0  0
 11 12  1  0  0  0
 11 16  2  0  0  0
 12 13  2  0  0  0
 13 14  1  0  0  0
 14  1  1  0  0  0
 14 15  2  0  0  0
  1  2  1  0  0  0
  1  9  2  0  0  0
  2  3  2  0  0  0
  3  4  1  0  0  0
  4  5  1  0  0  0
  4  9  1  0  0  0
  5  6  2  0  0  0
  6 18  1  0  0  0
  6  7  1  0  0  0
 18 19  1  0  0  0
 18 23  2  0  0  0
 19 20  2  0  0  0
 20 21  1  0  0  0
 21 22  2  0  0  0
 22 23  1  0  0  0
  7  8  2  0  0  0
  8  9  1  0  0  0
 15 16  1  0  0  0
 16 17  1  0  0  0
M  END
> <minimizedAffinity>
-8.97549

$$$$
