CHEMBL3984441


 43 47  0  0  0  0  0  0  0  0999 V2000
  -12.9950   -3.2007  -17.5503 C   0  0  0  0  0  0  0  0  0  0  0  0
  -13.1117   -2.9284  -16.1853 C   0  0  0  0  0  0  0  0  0  0  0  0
  -13.0599   -1.6102  -15.7071 C   0  0  0  0  0  0  0  0  0  0  0  0
  -12.8968   -0.5397  -16.5835 C   0  0  0  0  0  0  0  0  0  0  0  0
  -12.7964   -0.8195  -17.9567 C   0  0  0  0  0  0  0  0  0  0  0  0
  -12.6927    0.1672  -18.8608 F   0  0  0  0  0  0  0  0  0  0  0  0
  -12.7995   -2.1339  -18.4322 C   0  0  0  0  0  0  0  0  0  0  0  0
  -13.9856   -4.9236  -19.0767 C   0  0  0  0  0  0  0  0  0  0  0  0
  -14.8721   -4.2407  -19.5795 O   0  0  0  0  0  0  0  0  0  0  0  0
  -13.0955   -4.4948  -18.1048 N   0  0  0  0  0  0  0  0  0  0  0  0
  -12.3606   -5.1534  -17.8366 H   0  0  0  0  0  0  0  0  0  0  0  0
  -13.4121   -5.9941  -22.0756 C   0  0  0  0  0  0  0  0  0  0  0  0
  -13.4155   -6.7645  -20.7901 C   0  0  0  0  0  0  0  0  0  0  0  0
  -13.7285   -6.3041  -19.5594 C   0  0  0  0  0  0  0  0  0  0  0  0
  -13.8287   -7.5262  -18.7205 C   0  0  0  0  0  0  0  0  0  0  0  0
  -14.0475   -7.4970  -17.5167 O   0  0  0  0  0  0  0  0  0  0  0  0
  -13.6048   -8.6217  -19.5567 N   0  0  0  0  0  0  0  0  0  0  0  0
  -13.1265   -8.1423  -20.7861 N   0  0  0  0  0  0  0  0  0  0  0  0
  -13.2728   -8.9874  -21.9693 C   0  0  0  0  0  0  0  0  0  0  0  0
  -13.3631   -9.9072  -19.0455 C   0  0  0  0  0  0  0  0  0  0  0  0
  -12.0431  -10.2272  -18.7001 C   0  0  0  0  0  0  0  0  0  0  0  0
  -11.7268  -11.4843  -18.1916 C   0  0  0  0  0  0  0  0  0  0  0  0
  -12.7255  -12.4451  -18.0614 C   0  0  0  0  0  0  0  0  0  0  0  0
  -14.0408  -12.1413  -18.4208 C   0  0  0  0  0  0  0  0  0  0  0  0
  -14.3671  -10.8662  -18.8947 C   0  0  0  0  0  0  0  0  0  0  0  0
  -12.9142    0.7183  -16.0176 O   0  0  0  0  0  0  0  0  0  0  0  0
  -13.8880    1.6293  -16.3731 C   0  0  0  0  0  0  0  0  0  0  0  0
  -13.6507    2.6144  -17.3306 C   0  0  0  0  0  0  0  0  0  0  0  0
  -14.6939    3.4473  -17.6661 C   0  0  0  0  0  0  0  0  0  0  0  0
  -15.9137    3.3966  -17.0924 N   0  0  0  0  0  0  0  0  0  0  0  0
  -16.1213    2.4982  -16.1162 C   0  0  0  0  0  0  0  0  0  0  0  0
  -17.3674    2.4709  -15.5004 C   0  0  0  0  0  0  0  0  0  0  0  0
  -17.6709    1.5942  -14.4554 C   0  0  0  0  0  0  0  0  0  0  0  0
  -16.6857    0.7236  -14.0038 C   0  0  0  0  0  0  0  0  0  0  0  0
  -15.4277    0.7145  -14.6230 C   0  0  0  0  0  0  0  0  0  0  0  0
  -15.1308    1.5905  -15.6953 C   0  0  0  0  0  0  0  0  0  0  0  0
  -18.9504    1.6949  -13.9750 O   0  0  0  0  0  0  0  0  0  0  0  0
  -19.5654    2.9892  -14.0235 C   0  0  0  0  0  0  0  0  0  0  0  0
  -21.0110    2.8618  -14.5603 C   0  0  0  0  0  0  0  0  0  0  0  0
  -21.0982    3.1627  -16.0579 C   0  0  0  0  0  0  0  0  0  0  0  0
  -21.5501    1.4607  -14.2701 C   0  0  0  0  0  0  0  0  0  0  0  0
  -21.8580    3.7943  -13.8773 O   0  0  0  0  0  0  0  0  0  0  0  0
  -21.4554    4.6747  -14.0006 H   0  0  0  0  0  0  0  0  0  0  0  0
 12 13  1  0  0  0
 13 14  2  0  0  0
 13 18  1  0  0  0
 14  8  1  0  0  0
 14 15  1  0  0  0
  8  9  2  0  0  0
  8 10  1  0  0  0
 10  1  1  0  0  0
 10 11  1  0  0  0
  1  2  1  0  0  0
  1  7  2  0  0  0
  2  3  2  0  0  0
  3  4  1  0  0  0
  4 26  1  0  0  0
  4  5  2  0  0  0
 26 27  1  0  0  0
 27 28  1  0  0  0
 27 36  2  0  0  0
 28 29  2  0  0  0
 29 30  1  0  0  0
 30 31  2  0  0  0
 31 32  1  0  0  0
 31 36  1  0  0  0
 32 33  2  0  0  0
 33 37  1  0  0  0
 33 34  1  0  0  0
 37 38  1  0  0  0
 38 39  1  0  0  0
 39 40  1  0  0  0
 39 41  1  0  0  0
 39 42  1  0  0  0
 42 43  1  0  0  0
 34 35  2  0  0  0
 35 36  1  0  0  0
  5  6  1  0  0  0
  5  7  1  0  0  0
 15 16  2  0  0  0
 15 17  1  0  0  0
 17 20  1  0  0  0
 17 18  1  0  0  0
 20 21  1  0  0  0
 20 25  2  0  0  0
 21 22  2  0  0  0
 22 23  1  0  0  0
 23 24  2  0  0  0
 24 25  1  0  0  0
 18 19  1  0  0  0
M  END
> <minimizedAffinity>
-8.17562

$$$$
