CHEMBL2086747


 37 41  0  0  0  0  0  0  0  0999 V2000
  -28.2799   -0.9399   -6.8034 C   0  0  0  0  0  0  0  0  0  0  0  0
  -27.8679   -0.8629   -8.1500 C   0  0  0  0  0  0  0  0  0  0  0  0
  -27.6741   -2.0283   -8.8838 C   0  0  0  0  0  0  0  0  0  0  0  0
  -27.9344   -3.2292   -8.2493 C   0  0  0  0  0  0  0  0  0  0  0  0
  -28.3971   -3.3322   -6.9277 C   0  0  0  0  0  0  0  0  0  0  0  0
  -28.5573   -2.1715   -6.1820 C   0  0  0  0  0  0  0  0  0  0  0  0
  -28.6053   -4.7846   -6.6799 C   0  0  0  0  0  0  0  0  0  0  0  0
  -29.1497   -5.4363   -5.6227 C   0  0  0  0  0  0  0  0  0  0  0  0
  -28.1808   -5.4882   -7.9593 C   0  0  0  0  0  0  0  0  0  0  0  0
  -28.2326   -6.6645   -8.2536 O   0  0  0  0  0  0  0  0  0  0  0  0
  -27.7971   -4.4803   -8.8251 N   0  0  0  0  0  0  0  0  0  0  0  0
  -27.4987   -4.6735   -9.7696 H   0  0  0  0  0  0  0  0  0  0  0  0
  -29.2752   -6.8618   -5.6326 C   0  0  0  0  0  0  0  0  0  0  0  0
  -28.6168   -7.8171   -4.9996 N   0  0  0  0  0  0  0  0  0  0  0  0
  -29.1901   -9.0029   -5.4203 C   0  0  0  0  0  0  0  0  0  0  0  0
  -28.8669  -10.3345   -5.1163 C   0  0  0  0  0  0  0  0  0  0  0  0
  -29.5938  -11.3650   -5.7332 C   0  0  0  0  0  0  0  0  0  0  0  0
  -30.6389  -11.0789   -6.6162 C   0  0  0  0  0  0  0  0  0  0  0  0
  -31.0025   -9.7600   -6.9008 C   0  0  0  0  0  0  0  0  0  0  0  0
  -30.2483   -8.7584   -6.2874 C   0  0  0  0  0  0  0  0  0  0  0  0
  -30.3107   -7.3959   -6.3583 N   0  0  0  0  0  0  0  0  0  0  0  0
  -30.9822   -6.8688   -6.8926 H   0  0  0  0  0  0  0  0  0  0  0  0
  -29.7524   -4.6887   -4.4979 C   0  0  0  0  0  0  0  0  0  0  0  0
  -28.9221   -3.9274   -3.6600 C   0  0  0  0  0  0  0  0  0  0  0  0
  -29.4725   -3.1339   -2.6561 C   0  0  0  0  0  0  0  0  0  0  0  0
  -30.8525   -3.1075   -2.4730 C   0  0  0  0  0  0  0  0  0  0  0  0
  -31.6841   -3.8727   -3.2935 C   0  0  0  0  0  0  0  0  0  0  0  0
  -31.1382   -4.6580   -4.3102 C   0  0  0  0  0  0  0  0  0  0  0  0
  -28.5212    0.5926   -5.9238 S   0  0  0  0  0  0  0  0  0  0  0  0
  -28.3068    1.6833   -6.8430 O   0  0  0  0  0  0  0  0  0  0  0  0
  -27.7767    0.4574   -4.6884 O   0  0  0  0  0  0  0  0  0  0  0  0
  -30.1598    0.5264   -5.5315 N   0  0  0  0  0  0  0  0  0  0  0  0
  -30.6069   -0.3575   -5.7623 H   0  0  0  0  0  0  0  0  0  0  0  0
  -30.9733    1.7361   -5.7714 C   0  0  0  0  0  0  0  0  0  0  0  0
  -31.8236    1.5841   -7.0418 C   0  0  0  0  0  0  0  0  0  0  0  0
  -32.6700    2.7229   -8.9331 C   0  0  0  0  0  0  0  0  0  0  0  0
  -31.9185    2.8323   -7.7311 O   0  0  0  0  0  0  0  0  0  0  0  0
 36 37  1  0  0  0
 37 35  1  0  0  0
 35 34  1  0  0  0
 34 32  1  0  0  0
 32 29  1  0  0  0
 32 33  1  0  0  0
 29 30  2  0  0  0
 29 31  2  0  0  0
 29  1  1  0  0  0
  1  2  1  0  0  0
  1  6  2  0  0  0
  2  3  2  0  0  0
  3  4  1  0  0  0
  4  5  2  0  0  0
  4 11  1  0  0  0
  5  6  1  0  0  0
  5  7  1  0  0  0
  7  8  2  0  0  0
  7  9  1  0  0  0
  8 23  1  0  0  0
  8 13  1  0  0  0
 23 24  1  0  0  0
 23 28  2  0  0  0
 24 25  2  0  0  0
 25 26  1  0  0  0
 26 27  2  0  0  0
 27 28  1  0  0  0
 13 14  2  0  0  0
 13 21  1  0  0  0
 14 15  1  0  0  0
 15 16  1  0  0  0
 15 20  2  0  0  0
 16 17  2  0  0  0
 17 18  1  0  0  0
 18 19  2  0  0  0
 19 20  1  0  0  0
 20 21  1  0  0  0
 21 22  1  0  0  0
  9 10  2  0  0  0
  9 11  1  0  0  0
 11 12  1  0  0  0
M  END
> <minimizedAffinity>
-8.47832

$$$$
