CHEMBL1098157


 37 41  0  0  0  0  0  0  0  0999 V2000
  -18.5666    2.0056  -14.6719 C   0  0  0  0  0  0  0  0  0  0  0  0
  -18.8783    0.8261  -15.3447 C   0  0  0  0  0  0  0  0  0  0  0  0
  -20.1892    0.3583  -15.3585 C   0  0  0  0  0  0  0  0  0  0  0  0
  -21.2185    1.0977  -14.7703 C   0  0  0  0  0  0  0  0  0  0  0  0
  -20.9345    2.3618  -14.2486 C   0  0  0  0  0  0  0  0  0  0  0  0
  -19.6092    2.7966  -14.1893 C   0  0  0  0  0  0  0  0  0  0  0  0
  -19.3479    3.9865  -13.6259 F   0  0  0  0  0  0  0  0  0  0  0  0
  -22.5404    0.6157  -14.6985 N   0  0  0  0  0  0  0  0  0  0  0  0
  -22.9726   -0.3447  -13.7944 C   0  0  0  0  0  0  0  0  0  0  0  0
  -22.3248   -0.7719  -12.8474 O   0  0  0  0  0  0  0  0  0  0  0  0
  -23.2261    1.0492  -15.2989 H   0  0  0  0  0  0  0  0  0  0  0  0
  -24.3132   -0.8362  -14.0406 C   0  0  0  0  0  0  0  0  0  0  0  0
  -24.9476   -1.1573  -15.2576 C   0  0  0  0  0  0  0  0  0  0  0  0
  -26.1948   -1.5933  -15.0854 N   0  0  0  0  0  0  0  0  0  0  0  0
  -26.3782   -1.5342  -13.7529 N   0  0  0  0  0  0  0  0  0  0  0  0
  -27.6353   -1.9839  -13.1951 C   0  0  0  0  0  0  0  0  0  0  0  0
  -25.2854   -1.0664  -13.0752 C   0  0  0  0  0  0  0  0  0  0  0  0
  -25.3007   -0.9237  -11.6040 C   0  0  0  0  0  0  0  0  0  0  0  0
  -26.5308   -0.9322  -11.0467 F   0  0  0  0  0  0  0  0  0  0  0  0
  -24.5785   -1.9046  -11.0063 F   0  0  0  0  0  0  0  0  0  0  0  0
  -24.7289    0.2521  -11.2307 F   0  0  0  0  0  0  0  0  0  0  0  0
  -17.2812    2.4487  -14.4603 O   0  0  0  0  0  0  0  0  0  0  0  0
  -15.0407   -1.2741  -12.9091 C   0  0  0  0  0  0  0  0  0  0  0  0
  -14.2190   -1.1372  -14.0045 C   0  0  0  0  0  0  0  0  0  0  0  0
  -14.6258   -0.0667  -14.8536 C   0  0  0  0  0  0  0  0  0  0  0  0
  -14.0266    0.2786  -16.0266 N   0  0  0  0  0  0  0  0  0  0  0  0
  -14.5864    1.3072  -16.6895 C   0  0  0  0  0  0  0  0  0  0  0  0
  -15.6781    2.0354  -16.2575 C   0  0  0  0  0  0  0  0  0  0  0  0
  -16.2404    1.7312  -15.0171 C   0  0  0  0  0  0  0  0  0  0  0  0
  -15.7280    0.6177  -14.3390 C   0  0  0  0  0  0  0  0  0  0  0  0
  -16.2625   -0.0883  -12.8706 S   0  0  0  0  0  0  0  0  0  0  0  0
  -13.4224   -5.2404  -10.3944 C   0  0  0  0  0  0  0  0  0  0  0  0
  -14.1857   -4.0887  -10.7991 N   0  0  0  0  0  0  0  0  0  0  0  0
  -15.1402   -3.4438  -10.0699 C   0  0  0  0  0  0  0  0  0  0  0  0
  -15.5718   -2.3679  -10.6924 N   0  0  0  0  0  0  0  0  0  0  0  0
  -14.8895   -2.3419  -11.8859 C   0  0  0  0  0  0  0  0  0  0  0  0
  -14.0361   -3.4186  -11.9781 C   0  0  0  0  0  0  0  0  0  0  0  0
 32 33  1  0  0  0
 33 34  1  0  0  0
 33 37  1  0  0  0
 34 35  2  0  0  0
 35 36  1  0  0  0
 36 23  1  0  0  0
 36 37  2  0  0  0
 23 24  2  0  0  0
 23 31  1  0  0  0
 24 25  1  0  0  0
 25 26  1  0  0  0
 25 30  2  0  0  0
 26 27  2  0  0  0
 27 28  1  0  0  0
 28 29  2  0  0  0
 29 22  1  0  0  0
 29 30  1  0  0  0
 22  1  1  0  0  0
  1  2  1  0  0  0
  1  6  2  0  0  0
  2  3  2  0  0  0
  3  4  1  0  0  0
  4  8  1  0  0  0
  4  5  2  0  0  0
  8  9  1  0  0  0
  8 11  1  0  0  0
  9 10  2  0  0  0
  9 12  1  0  0  0
 12 13  1  0  0  0
 12 17  2  0  0  0
 13 14  2  0  0  0
 14 15  1  0  0  0
 15 16  1  0  0  0
 15 17  1  0  0  0
 17 18  1  0  0  0
 18 19  1  0  0  0
 18 20  1  0  0  0
 18 21  1  0  0  0
  5  6  1  0  0  0
  6  7  1  0  0  0
 30 31  1  0  0  0
M  END
> <minimizedAffinity>
-9.67446

$$$$
