CHEMBL4077291


 34 39  0  0  0  0  0  0  0  0999 V2000
  -29.5004   -6.7219   -6.0095 C   0  0  0  0  0  0  0  0  0  0  0  0
  -28.8726   -6.5069   -7.2374 C   0  0  0  0  0  0  0  0  0  0  0  0
  -28.6329   -5.2186   -7.7176 C   0  0  0  0  0  0  0  0  0  0  0  0
  -29.1042   -4.1303   -6.9628 C   0  0  0  0  0  0  0  0  0  0  0  0
  -29.8295   -4.3256   -5.7836 C   0  0  0  0  0  0  0  0  0  0  0  0
  -30.1520   -3.0381   -5.2785 C   0  0  0  0  0  0  0  0  0  0  0  0
  -29.5102   -2.1104   -6.0639 C   0  0  0  0  0  0  0  0  0  0  0  0
  -28.8669   -2.7612   -7.1019 N   0  0  0  0  0  0  0  0  0  0  0  0
  -27.9827   -2.1378   -8.0058 C   0  0  0  0  0  0  0  0  0  0  0  0
  -27.1934   -1.3036   -7.5920 O   0  0  0  0  0  0  0  0  0  0  0  0
  -28.2471   -2.5038   -9.3069 N   0  0  0  0  0  0  0  0  0  0  0  0
  -30.0513   -5.6447   -5.3061 C   0  0  0  0  0  0  0  0  0  0  0  0
  -29.2144   -2.6697   -9.5527 H   0  0  0  0  0  0  0  0  0  0  0  0
  -27.4866   -1.9503  -10.3240 C   0  0  0  0  0  0  0  0  0  0  0  0
  -26.1751   -2.3181  -10.6992 C   0  0  0  0  0  0  0  0  0  0  0  0
  -25.8432   -1.4437  -11.7042 C   0  0  0  0  0  0  0  0  0  0  0  0
  -26.9021   -0.6183  -11.9356 O   0  0  0  0  0  0  0  0  0  0  0  0
  -27.9640   -0.9872  -11.1168 N   0  0  0  0  0  0  0  0  0  0  0  0
  -24.5108   -1.4155  -12.4319 C   0  0  0  0  0  0  0  0  0  0  0  0
  -23.2556   -1.7510  -11.6542 C   0  0  0  0  0  0  0  0  0  0  0  0
  -23.5054   -0.3425  -12.0695 C   0  0  0  0  0  0  0  0  0  0  0  0
  -29.5853   -7.9918   -5.4497 O   0  0  0  0  0  0  0  0  0  0  0  0
  -24.8065   -9.7840   -5.0355 N   0  0  0  0  0  0  0  0  0  0  0  0
  -25.6402   -9.2807   -3.9301 C   0  0  0  0  0  0  0  0  0  0  0  0
  -26.8757   -8.5401   -4.4853 C   0  0  0  0  0  0  0  0  0  0  0  0
  -27.5761   -9.3036   -5.5725 C   0  0  0  0  0  0  0  0  0  0  0  0
  -26.9401  -10.3682   -6.2046 C   0  0  0  0  0  0  0  0  0  0  0  0
  -27.5034  -11.0812   -7.2055 N   0  0  0  0  0  0  0  0  0  0  0  0
  -28.6938  -10.6575   -7.6311 C   0  0  0  0  0  0  0  0  0  0  0  0
  -29.3775   -9.6290   -7.1307 N   0  0  0  0  0  0  0  0  0  0  0  0
  -28.8279   -8.9907   -6.0742 C   0  0  0  0  0  0  0  0  0  0  0  0
  -25.5648  -10.8240   -5.7579 C   0  0  0  0  0  0  0  0  0  0  0  0
  -23.5783  -10.9111   -3.1672 C   0  0  0  0  0  0  0  0  0  0  0  0
  -23.5077  -10.2772   -4.5563 C   0  0  0  0  0  0  0  0  0  0  0  0
 33 34  1  0  0  0
 34 23  1  0  0  0
 23 24  1  0  0  0
 23 32  1  0  0  0
 24 25  1  0  0  0
 25 26  1  0  0  0
 26 27  1  0  0  0
 26 31  2  0  0  0
 27 28  2  0  0  0
 27 32  1  0  0  0
 28 29  1  0  0  0
 29 30  2  0  0  0
 30 31  1  0  0  0
 31 22  1  0  0  0
 22  1  1  0  0  0
  1  2  1  0  0  0
  1 12  2  0  0  0
  2  3  2  0  0  0
  3  4  1  0  0  0
  4  5  2  0  0  0
  4  8  1  0  0  0
  5  6  1  0  0  0
  5 12  1  0  0  0
  6  7  2  0  0  0
  7  8  1  0  0  0
  8  9  1  0  0  0
  9 10  2  0  0  0
  9 11  1  0  0  0
 11 14  1  0  0  0
 11 13  1  0  0  0
 14 15  1  0  0  0
 14 18  2  0  0  0
 15 16  2  0  0  0
 16 19  1  0  0  0
 16 17  1  0  0  0
 19 20  1  0  0  0
 19 21  1  0  0  0
 20 21  1  0  0  0
 17 18  1  0  0  0
M  END
> <minimizedAffinity>
-9.81612

$$$$
