CHEMBL3690494


 34 37  0  0  0  0  0  0  0  0999 V2000
  -14.2327   -3.1960  -13.6988 C   0  0  0  0  0  0  0  0  0  0  0  0
  -13.3654   -2.7034  -14.7836 C   0  0  0  0  0  0  0  0  0  0  0  0
  -13.5666   -1.4648  -15.2868 C   0  0  0  0  0  0  0  0  0  0  0  0
  -14.4725   -0.6175  -14.6263 N   0  0  0  0  0  0  0  0  0  0  0  0
  -14.6853    0.7592  -14.6992 C   0  0  0  0  0  0  0  0  0  0  0  0
  -14.2067    1.0722  -13.4190 C   0  0  0  0  0  0  0  0  0  0  0  0
  -14.5663    0.0625  -12.5491 N   0  0  0  0  0  0  0  0  0  0  0  0
  -14.8791   -0.9411  -13.3317 C   0  0  0  0  0  0  0  0  0  0  0  0
  -15.0433   -2.3195  -13.0522 C   0  0  0  0  0  0  0  0  0  0  0  0
  -16.7170   -4.8625  -13.5761 C   0  0  0  0  0  0  0  0  0  0  0  0
  -15.3674   -5.3768  -13.1554 C   0  0  0  0  0  0  0  0  0  0  0  0
  -15.2300   -6.6833  -12.6832 C   0  0  0  0  0  0  0  0  0  0  0  0
  -13.9740   -7.1171  -12.3134 C   0  0  0  0  0  0  0  0  0  0  0  0
  -13.7194   -8.7015  -11.7236 Cl  0  0  0  0  0  0  0  0  0  0  0  0
  -12.8790   -6.3367  -12.3829 N   0  0  0  0  0  0  0  0  0  0  0  0
  -12.9979   -5.0506  -12.8345 N   0  0  0  0  0  0  0  0  0  0  0  0
  -14.2147   -4.5813  -13.2101 C   0  0  0  0  0  0  0  0  0  0  0  0
  -15.8919    1.4641  -15.2228 C   0  0  0  0  0  0  0  0  0  0  0  0
  -15.6757    2.5221  -16.1198 C   0  0  0  0  0  0  0  0  0  0  0  0
  -16.6947    3.4168  -16.4327 C   0  0  0  0  0  0  0  0  0  0  0  0
  -17.9607    3.2571  -15.8763 C   0  0  0  0  0  0  0  0  0  0  0  0
  -18.2329    2.2086  -14.9990 C   0  0  0  0  0  0  0  0  0  0  0  0
  -17.1866    1.3117  -14.6713 C   0  0  0  0  0  0  0  0  0  0  0  0
  -19.5060    2.0510  -14.3860 N   0  0  0  0  0  0  0  0  0  0  0  0
  -20.4387    1.0644  -14.6609 C   0  0  0  0  0  0  0  0  0  0  0  0
  -20.3251    0.1259  -15.4376 O   0  0  0  0  0  0  0  0  0  0  0  0
  -21.6167    1.2478  -13.9634 N   0  0  0  0  0  0  0  0  0  0  0  0
  -19.7681    2.7427  -13.6993 H   0  0  0  0  0  0  0  0  0  0  0  0
  -21.5416    1.6974  -13.0630 H   0  0  0  0  0  0  0  0  0  0  0  0
  -22.6815    0.2389  -14.1062 C   0  0  0  0  0  0  0  0  0  0  0  0
  -23.0190   -0.5626  -12.8388 C   0  0  0  0  0  0  0  0  0  0  0  0
  -22.8664   -1.8938  -13.0276 F   0  0  0  0  0  0  0  0  0  0  0  0
  -22.1751   -0.2139  -11.8340 F   0  0  0  0  0  0  0  0  0  0  0  0
  -24.2744   -0.3379  -12.4010 F   0  0  0  0  0  0  0  0  0  0  0  0
 10 11  1  0  0  0
 11 12  1  0  0  0
 11 17  2  0  0  0
 12 13  2  0  0  0
 13 14  1  0  0  0
 13 15  1  0  0  0
 15 16  2  0  0  0
 16 17  1  0  0  0
 17  1  1  0  0  0
  1  2  1  0  0  0
  1  9  2  0  0  0
  2  3  2  0  0  0
  3  4  1  0  0  0
  4  5  1  0  0  0
  4  8  1  0  0  0
  5 18  1  0  0  0
  5  6  2  0  0  0
 18 19  1  0  0  0
 18 23  2  0  0  0
 19 20  2  0  0  0
 20 21  1  0  0  0
 21 22  2  0  0  0
 22 24  1  0  0  0
 22 23  1  0  0  0
 24 25  1  0  0  0
 24 28  1  0  0  0
 25 26  2  0  0  0
 25 27  1  0  0  0
 27 30  1  0  0  0
 27 29  1  0  0  0
 30 31  1  0  0  0
 31 32  1  0  0  0
 31 33  1  0  0  0
 31 34  1  0  0  0
  6  7  1  0  0  0
  7  8  2  0  0  0
  8  9  1  0  0  0
M  END
> <minimizedAffinity>
-9.77222

$$$$
