CHEMBL1999556


 20 22  0  0  0  0  0  0  0  0999 V2000
  -29.2008   -6.2058   -6.9693 C   0  0  0  0  0  0  0  0  0  0  0  0
  -29.0013   -4.9558   -6.4214 C   0  0  0  0  0  0  0  0  0  0  0  0
  -29.8823   -4.6364   -5.3225 C   0  0  0  0  0  0  0  0  0  0  0  0
  -30.0543   -3.4523   -4.5443 C   0  0  0  0  0  0  0  0  0  0  0  0
  -30.9795   -3.5571   -3.4978 C   0  0  0  0  0  0  0  0  0  0  0  0
  -31.7011   -4.6533   -3.1818 N   0  0  0  0  0  0  0  0  0  0  0  0
  -31.5539   -5.7567   -3.9393 C   0  0  0  0  0  0  0  0  0  0  0  0
  -30.6616   -5.7583   -5.0120 C   0  0  0  0  0  0  0  0  0  0  0  0
  -30.3810   -7.0658   -6.0974 S   0  0  0  0  0  0  0  0  0  0  0  0
  -29.3121   -2.2007   -4.8126 C   0  0  0  0  0  0  0  0  0  0  0  0
  -27.9155   -2.1128   -4.6673 C   0  0  0  0  0  0  0  0  0  0  0  0
  -27.2263   -0.9142   -4.8798 C   0  0  0  0  0  0  0  0  0  0  0  0
  -27.9126    0.2188   -5.2996 C   0  0  0  0  0  0  0  0  0  0  0  0
  -29.2859    0.1516   -5.5054 C   0  0  0  0  0  0  0  0  0  0  0  0
  -29.9767   -1.0400   -5.2550 C   0  0  0  0  0  0  0  0  0  0  0  0
  -27.6022   -5.9548   -8.7505 N   0  0  0  0  0  0  0  0  0  0  0  0
  -28.5186   -6.7552   -8.1275 C   0  0  0  0  0  0  0  0  0  0  0  0
  -28.7077   -7.8902   -8.5606 O   0  0  0  0  0  0  0  0  0  0  0  0
  -27.0970   -6.3362   -9.5384 H   0  0  0  0  0  0  0  0  0  0  0  0
  -27.3809   -5.0294   -8.4124 H   0  0  0  0  0  0  0  0  0  0  0  0
 16 17  1  0  0  0
 16 19  1  0  0  0
 16 20  1  0  0  0
 17 18  2  0  0  0
 17  1  1  0  0  0
  1  2  2  0  0  0
  1  9  1  0  0  0
  2  3  1  0  0  0
  3  4  1  0  0  0
  3  8  2  0  0  0
  4 10  1  0  0  0
  4  5  2  0  0  0
 10 11  1  0  0  0
 10 15  2  0  0  0
 11 12  2  0  0  0
 12 13  1  0  0  0
 13 14  2  0  0  0
 14 15  1  0  0  0
  5  6  1  0  0  0
  6  7  2  0  0  0
  7  8  1  0  0  0
  8  9  1  0  0  0
M  END
> <minimizedAffinity>
-7.79301

$$$$
