CHEMBL3353337


 22 25  0  0  0  0  0  0  0  0999 V2000
  -29.1011   -7.7328   -4.7525 O   0  0  0  0  0  0  0  0  0  0  0  0
  -29.1662   -6.5202   -4.7736 C   0  0  0  0  0  0  0  0  0  0  0  0
  -28.7913   -5.6604   -3.7524 N   0  0  0  0  0  0  0  0  0  0  0  0
  -29.0003   -4.3305   -4.1008 C   0  0  0  0  0  0  0  0  0  0  0  0
  -28.7472   -3.2240   -3.3158 C   0  0  0  0  0  0  0  0  0  0  0  0
  -29.0415   -1.9723   -3.8597 C   0  0  0  0  0  0  0  0  0  0  0  0
  -29.5721   -1.8602   -5.1589 C   0  0  0  0  0  0  0  0  0  0  0  0
  -29.8194   -2.9986   -5.9380 C   0  0  0  0  0  0  0  0  0  0  0  0
  -29.5273   -4.2371   -5.3934 C   0  0  0  0  0  0  0  0  0  0  0  0
  -29.6580   -5.6171   -5.8790 C   0  0  0  0  0  0  0  0  0  0  0  0
  -30.1374   -5.9936   -7.0722 C   0  0  0  0  0  0  0  0  0  0  0  0
  -28.4212   -5.9926   -2.8758 H   0  0  0  0  0  0  0  0  0  0  0  0
  -30.2894   -7.3819   -7.5211 C   0  0  0  0  0  0  0  0  0  0  0  0
  -29.2524   -8.0152   -8.2169 C   0  0  0  0  0  0  0  0  0  0  0  0
  -29.3943   -9.3287   -8.6895 C   0  0  0  0  0  0  0  0  0  0  0  0
  -30.6034  -10.0049   -8.4550 C   0  0  0  0  0  0  0  0  0  0  0  0
  -31.1411  -11.2741   -8.7651 C   0  0  0  0  0  0  0  0  0  0  0  0
  -32.3813  -11.4396   -8.2962 N   0  0  0  0  0  0  0  0  0  0  0  0
  -32.6313  -10.2768   -7.6666 N   0  0  0  0  0  0  0  0  0  0  0  0
  -31.6125   -9.3645   -7.7461 C   0  0  0  0  0  0  0  0  0  0  0  0
  -31.4922   -8.0570   -7.2606 C   0  0  0  0  0  0  0  0  0  0  0  0
  -33.5259  -10.1639   -7.2048 H   0  0  0  0  0  0  0  0  0  0  0  0
  1  2  2  0  0  0
  2  3  1  0  0  0
  2 10  1  0  0  0
  3  4  1  0  0  0
  3 12  1  0  0  0
  4  5  1  0  0  0
  4  9  2  0  0  0
  5  6  2  0  0  0
  6  7  1  0  0  0
  7  8  2  0  0  0
  8  9  1  0  0  0
  9 10  1  0  0  0
 10 11  2  0  0  0
 11 13  1  0  0  0
 13 14  1  0  0  0
 13 21  2  0  0  0
 14 15  2  0  0  0
 15 16  1  0  0  0
 16 17  1  0  0  0
 16 20  2  0  0  0
 17 18  2  0  0  0
 18 19  1  0  0  0
 19 20  1  0  0  0
 19 22  1  0  0  0
 20 21  1  0  0  0
M  END
> <minimizedAffinity>
-8.53083

$$$$
