CHEMBL4777374


 38 42  0  0  0  0  0  0  0  0999 V2000
  -28.9104   -7.4985   -4.2795 C   0  0  0  0  0  0  0  0  0  0  0  0
  -29.4555   -7.5497   -5.4977 N   0  0  0  0  0  0  0  0  0  0  0  0
  -29.4901   -8.7559   -6.1101 C   0  0  0  0  0  0  0  0  0  0  0  0
  -28.9857   -9.8972   -5.5277 C   0  0  0  0  0  0  0  0  0  0  0  0
  -28.4319   -9.7382   -4.2850 C   0  0  0  0  0  0  0  0  0  0  0  0
  -28.4486   -8.5692   -3.6421 N   0  0  0  0  0  0  0  0  0  0  0  0
  -28.5371   -3.9131   -3.8311 N   0  0  0  0  0  0  0  0  0  0  0  0
  -28.5121   -5.1172   -4.5163 C   0  0  0  0  0  0  0  0  0  0  0  0
  -28.3270   -5.1765   -5.7276 O   0  0  0  0  0  0  0  0  0  0  0  0
  -28.7289   -6.2237   -3.7255 N   0  0  0  0  0  0  0  0  0  0  0  0
  -28.4001   -3.9422   -2.8313 H   0  0  0  0  0  0  0  0  0  0  0  0
  -28.9851   -6.1498   -2.7572 H   0  0  0  0  0  0  0  0  0  0  0  0
  -28.6347    1.2859   -6.3003 C   0  0  0  0  0  0  0  0  0  0  0  0
  -28.6153   -0.0706   -5.6647 C   0  0  0  0  0  0  0  0  0  0  0  0
  -27.4065   -0.7250   -5.4620 C   0  0  0  0  0  0  0  0  0  0  0  0
  -27.3796   -1.9922   -4.8791 C   0  0  0  0  0  0  0  0  0  0  0  0
  -28.5501   -2.6382   -4.4557 C   0  0  0  0  0  0  0  0  0  0  0  0
  -29.7662   -1.9861   -4.6768 C   0  0  0  0  0  0  0  0  0  0  0  0
  -29.7945   -0.7125   -5.2710 C   0  0  0  0  0  0  0  0  0  0  0  0
  -29.9470   -8.8601   -7.4406 N   0  0  0  0  0  0  0  0  0  0  0  0
  -30.7538   -8.2855   -7.6409 H   0  0  0  0  0  0  0  0  0  0  0  0
  -29.2014   -9.2704   -8.5575 C   0  0  0  0  0  0  0  0  0  0  0  0
  -27.9057   -8.7842   -8.7820 C   0  0  0  0  0  0  0  0  0  0  0  0
  -27.1718   -9.1775   -9.8989 C   0  0  0  0  0  0  0  0  0  0  0  0
  -27.7314  -10.0648  -10.8120 C   0  0  0  0  0  0  0  0  0  0  0  0
  -29.0153  -10.5625  -10.6031 C   0  0  0  0  0  0  0  0  0  0  0  0
  -29.7458  -10.1711   -9.4778 C   0  0  0  0  0  0  0  0  0  0  0  0
  -27.4172  -11.0189   -3.5572 S   0  0  0  0  0  0  0  0  0  0  0  0
  -25.8620  -10.4052   -4.1013 C   0  0  0  0  0  0  0  0  0  0  0  0
  -25.6115   -9.7690   -5.2965 C   0  0  0  0  0  0  0  0  0  0  0  0
  -24.2595   -9.5553   -5.3489 N   0  0  0  0  0  0  0  0  0  0  0  0
  -23.6455  -10.4183   -4.4689 C   0  0  0  0  0  0  0  0  0  0  0  0
  -22.3513  -10.9451   -4.4373 C   0  0  0  0  0  0  0  0  0  0  0  0
  -22.0193  -11.7407   -3.3363 C   0  0  0  0  0  0  0  0  0  0  0  0
  -22.8992  -11.8901   -2.2643 C   0  0  0  0  0  0  0  0  0  0  0  0
  -24.1986  -11.3783   -2.3301 C   0  0  0  0  0  0  0  0  0  0  0  0
  -24.6088  -10.7286   -3.5084 C   0  0  0  0  0  0  0  0  0  0  0  0
  -23.7823   -8.9496   -6.0029 H   0  0  0  0  0  0  0  0  0  0  0  0
 13 14  1  0  0  0
 14 15  1  0  0  0
 14 19  2  0  0  0
 15 16  2  0  0  0
 16 17  1  0  0  0
 17  7  1  0  0  0
 17 18  2  0  0  0
  7  8  1  0  0  0
  7 11  1  0  0  0
  8  9  2  0  0  0
  8 10  1  0  0  0
 10  1  1  0  0  0
 10 12  1  0  0  0
  1  2  1  0  0  0
  1  6  2  0  0  0
  2  3  2  0  0  0
  3 20  1  0  0  0
  3  4  1  0  0  0
 20 22  1  0  0  0
 20 21  1  0  0  0
 22 23  1  0  0  0
 22 27  2  0  0  0
 23 24  2  0  0  0
 24 25  1  0  0  0
 25 26  2  0  0  0
 26 27  1  0  0  0
  4  5  2  0  0  0
  5 28  1  0  0  0
  5  6  1  0  0  0
 28 29  1  0  0  0
 29 30  2  0  0  0
 29 37  1  0  0  0
 30 31  1  0  0  0
 31 32  1  0  0  0
 31 38  1  0  0  0
 32 33  1  0  0  0
 32 37  2  0  0  0
 33 34  2  0  0  0
 34 35  1  0  0  0
 35 36  2  0  0  0
 36 37  1  0  0  0
 18 19  1  0  0  0
M  END
> <minimizedAffinity>
-10.23516

$$$$
