CHEMBL356245


 28 30  0  0  0  0  0  0  0  0999 V2000
  -13.6076   -4.3929  -12.2871 C   0  0  0  0  0  0  0  0  0  0  0  0
  -13.3137   -4.1235  -13.6375 C   0  0  0  0  0  0  0  0  0  0  0  0
  -13.8204   -2.9794  -14.2809 C   0  0  0  0  0  0  0  0  0  0  0  0
  -14.6172   -2.1132  -13.5563 C   0  0  0  0  0  0  0  0  0  0  0  0
  -14.8850   -2.3870  -12.2110 C   0  0  0  0  0  0  0  0  0  0  0  0
  -14.4035   -3.5057  -11.5587 C   0  0  0  0  0  0  0  0  0  0  0  0
  -15.6736   -1.3875  -11.6539 N   0  0  0  0  0  0  0  0  0  0  0  0
  -15.9678   -0.3967  -12.5758 C   0  0  0  0  0  0  0  0  0  0  0  0
  -16.5836    0.6221  -12.3456 O   0  0  0  0  0  0  0  0  0  0  0  0
  -15.3228   -0.8551  -13.8662 C   0  0  0  0  0  0  0  0  0  0  0  0
  -15.4107   -0.2655  -15.0703 C   0  0  0  0  0  0  0  0  0  0  0  0
  -15.9857   -1.3426  -10.6983 H   0  0  0  0  0  0  0  0  0  0  0  0
  -16.1839    0.9017  -15.3084 C   0  0  0  0  0  0  0  0  0  0  0  0
  -15.5336    2.0874  -15.5174 N   0  0  0  0  0  0  0  0  0  0  0  0
  -16.4384    3.1072  -15.6969 C   0  0  0  0  0  0  0  0  0  0  0  0
  -15.9605    4.5057  -15.8703 C   0  0  0  0  0  0  0  0  0  0  0  0
  -17.7171    2.5661  -15.6104 C   0  0  0  0  0  0  0  0  0  0  0  0
  -17.5462    1.1517  -15.3712 C   0  0  0  0  0  0  0  0  0  0  0  0
  -18.6086    0.1295  -15.1546 C   0  0  0  0  0  0  0  0  0  0  0  0
  -14.5309    2.2086  -15.4807 H   0  0  0  0  0  0  0  0  0  0  0  0
  -19.0287    3.3127  -15.6487 C   0  0  0  0  0  0  0  0  0  0  0  0
  -19.7383    3.4114  -14.3022 C   0  0  0  0  0  0  0  0  0  0  0  0
  -21.1464    2.8657  -14.3827 C   0  0  0  0  0  0  0  0  0  0  0  0
  -21.4513    1.7175  -14.6607 O   0  0  0  0  0  0  0  0  0  0  0  0
  -22.0795    3.8088  -14.1054 O   0  0  0  0  0  0  0  0  0  0  0  0
  -21.7017    4.6847  -13.9001 H   0  0  0  0  0  0  0  0  0  0  0  0
  -14.1116   -6.5210  -11.3451 C   0  0  0  0  0  0  0  0  0  0  0  0
  -13.1725   -5.4774  -11.5720 O   0  0  0  0  0  0  0  0  0  0  0  0
 27 28  1  0  0  0
 28  1  1  0  0  0
  1  2  1  0  0  0
  1  6  2  0  0  0
  2  3  2  0  0  0
  3  4  1  0  0  0
  4  5  2  0  0  0
  4 10  1  0  0  0
  5  6  1  0  0  0
  5  7  1  0  0  0
  7  8  1  0  0  0
  7 12  1  0  0  0
  8  9  2  0  0  0
  8 10  1  0  0  0
 10 11  2  0  0  0
 11 13  1  0  0  0
 13 14  1  0  0  0
 13 18  2  0  0  0
 14 15  1  0  0  0
 14 20  1  0  0  0
 15 16  1  0  0  0
 15 17  2  0  0  0
 17 21  1  0  0  0
 17 18  1  0  0  0
 21 22  1  0  0  0
 22 23  1  0  0  0
 23 24  2  0  0  0
 23 25  1  0  0  0
 25 26  1  0  0  0
 18 19  1  0  0  0
M  END
> <minimizedAffinity>
-7.03146

$$$$
