CHEMBL1987658


 28 31  0  0  0  0  0  0  0  0999 V2000
  -29.8348   -5.8763   -7.1519 C   0  0  0  0  0  0  0  0  0  0  0  0
  -30.5513   -5.4688   -6.0159 C   0  0  0  0  0  0  0  0  0  0  0  0
  -30.3905   -4.1809   -5.4991 C   0  0  0  0  0  0  0  0  0  0  0  0
  -29.5236   -3.3125   -6.1482 C   0  0  0  0  0  0  0  0  0  0  0  0
  -28.8383   -3.7205   -7.3107 C   0  0  0  0  0  0  0  0  0  0  0  0
  -28.9761   -5.0001   -7.8197 C   0  0  0  0  0  0  0  0  0  0  0  0
  -28.0195   -2.5611   -7.7612 C   0  0  0  0  0  0  0  0  0  0  0  0
  -27.2409   -2.3935   -8.7832 N   0  0  0  0  0  0  0  0  0  0  0  0
  -27.1831   -3.5166   -9.6059 O   0  0  0  0  0  0  0  0  0  0  0  0
  -28.2409   -1.4830   -6.7697 C   0  0  0  0  0  0  0  0  0  0  0  0
  -27.6854   -0.2181   -6.7128 C   0  0  0  0  0  0  0  0  0  0  0  0
  -28.0598    0.5977   -5.6438 C   0  0  0  0  0  0  0  0  0  0  0  0
  -28.9703    0.1380   -4.6744 C   0  0  0  0  0  0  0  0  0  0  0  0
  -29.5241   -1.1453   -4.7567 C   0  0  0  0  0  0  0  0  0  0  0  0
  -29.1510   -1.9568   -5.8157 C   0  0  0  0  0  0  0  0  0  0  0  0
  -26.5455   -3.2409  -10.2905 H   0  0  0  0  0  0  0  0  0  0  0  0
  -29.9724   -7.2020   -7.6300 N   0  0  0  0  0  0  0  0  0  0  0  0
  -30.8077   -7.4708   -8.1450 H   0  0  0  0  0  0  0  0  0  0  0  0
  -28.0407   -7.8608   -6.1688 O   0  0  0  0  0  0  0  0  0  0  0  0
  -29.1501   -8.4615   -6.8782 S   0  0  0  0  0  0  0  0  0  0  0  0
  -30.1050   -9.3158   -6.2069 O   0  0  0  0  0  0  0  0  0  0  0  0
  -28.4423   -9.3787   -8.2281 C   0  0  0  0  0  0  0  0  0  0  0  0
  -27.1608   -9.9314   -8.1181 C   0  0  0  0  0  0  0  0  0  0  0  0
  -26.5980  -10.5923   -9.2139 C   0  0  0  0  0  0  0  0  0  0  0  0
  -27.3160  -10.7020  -10.4059 C   0  0  0  0  0  0  0  0  0  0  0  0
  -28.5872  -10.1434  -10.4981 C   0  0  0  0  0  0  0  0  0  0  0  0
  -29.2717  -10.2500  -11.6445 F   0  0  0  0  0  0  0  0  0  0  0  0
  -29.1580   -9.4725   -9.4249 C   0  0  0  0  0  0  0  0  0  0  0  0
 19 20  2  0  0  0
 20 21  2  0  0  0
 20 17  1  0  0  0
 20 22  1  0  0  0
 17  1  1  0  0  0
 17 18  1  0  0  0
  1  2  1  0  0  0
  1  6  2  0  0  0
  2  3  2  0  0  0
  3  4  1  0  0  0
  4  5  2  0  0  0
  4 15  1  0  0  0
  5  6  1  0  0  0
  5  7  1  0  0  0
  7  8  2  0  0  0
  7 10  1  0  0  0
  8  9  1  0  0  0
  9 16  1  0  0  0
 10 11  1  0  0  0
 10 15  2  0  0  0
 11 12  2  0  0  0
 12 13  1  0  0  0
 13 14  2  0  0  0
 14 15  1  0  0  0
 22 23  1  0  0  0
 22 28  2  0  0  0
 23 24  2  0  0  0
 24 25  1  0  0  0
 25 26  2  0  0  0
 26 27  1  0  0  0
 26 28  1  0  0  0
M  END
> <minimizedAffinity>
-9.74175

$$$$
