CHEMBL4169257


 38 42  0  0  0  0  0  0  0  0999 V2000
  -18.5317    2.2920  -14.9434 C   0  0  0  0  0  0  0  0  0  0  0  0
  -18.5289    1.1901  -14.0637 C   0  0  0  0  0  0  0  0  0  0  0  0
  -17.3838    0.3955  -13.8881 C   0  0  0  0  0  0  0  0  0  0  0  0
  -16.2472    0.7020  -14.6112 C   0  0  0  0  0  0  0  0  0  0  0  0
  -16.2632    1.8291  -15.4457 C   0  0  0  0  0  0  0  0  0  0  0  0
  -17.3627    2.6489  -15.6163 C   0  0  0  0  0  0  0  0  0  0  0  0
  -15.0724    1.9491  -16.1500 N   0  0  0  0  0  0  0  0  0  0  0  0
  -14.2706    0.8555  -15.9238 C   0  0  0  0  0  0  0  0  0  0  0  0
  -13.3329    0.4930  -16.6279 O   0  0  0  0  0  0  0  0  0  0  0  0
  -14.9082    0.1002  -14.7886 C   0  0  0  0  0  0  0  0  0  0  0  0
  -14.2413   -0.8865  -14.1494 C   0  0  0  0  0  0  0  0  0  0  0  0
  -14.9126    2.6016  -16.9047 H   0  0  0  0  0  0  0  0  0  0  0  0
  -14.9825   -1.8656  -13.3127 C   0  0  0  0  0  0  0  0  0  0  0  0
  -15.5664   -2.9791  -13.9403 C   0  0  0  0  0  0  0  0  0  0  0  0
  -16.2468   -3.9432  -13.1943 C   0  0  0  0  0  0  0  0  0  0  0  0
  -16.3350   -3.8161  -11.8104 C   0  0  0  0  0  0  0  0  0  0  0  0
  -15.7440   -2.7254  -11.1749 C   0  0  0  0  0  0  0  0  0  0  0  0
  -15.0798   -1.7498  -11.9185 C   0  0  0  0  0  0  0  0  0  0  0  0
  -19.7402    3.1027  -15.2563 C   0  0  0  0  0  0  0  0  0  0  0  0
  -19.6995    4.2910  -15.5122 O   0  0  0  0  0  0  0  0  0  0  0  0
  -21.8577    2.8041  -14.3526 C   0  0  0  0  0  0  0  0  0  0  0  0
  -20.8515    2.3279  -15.2441 O   0  0  0  0  0  0  0  0  0  0  0  0
  -12.8996   -1.2088  -14.2747 N   0  0  0  0  0  0  0  0  0  0  0  0
  -12.2577   -0.5881  -13.7872 H   0  0  0  0  0  0  0  0  0  0  0  0
  -12.3957   -2.5438  -14.4152 C   0  0  0  0  0  0  0  0  0  0  0  0
  -12.5899   -3.2134  -15.6339 C   0  0  0  0  0  0  0  0  0  0  0  0
  -12.4282   -4.6035  -15.7573 C   0  0  0  0  0  0  0  0  0  0  0  0
  -12.0450   -5.3049  -14.6075 C   0  0  0  0  0  0  0  0  0  0  0  0
  -11.7196   -4.6691  -13.4259 C   0  0  0  0  0  0  0  0  0  0  0  0
  -11.8907   -3.2775  -13.3251 C   0  0  0  0  0  0  0  0  0  0  0  0
  -11.2837   -5.5802  -12.4890 N   0  0  0  0  0  0  0  0  0  0  0  0
  -11.3702   -6.7707  -13.0635 C   0  0  0  0  0  0  0  0  0  0  0  0
  -11.9403   -6.6462  -14.3159 N   0  0  0  0  0  0  0  0  0  0  0  0
  -12.4527   -7.6806  -15.1820 C   0  0  0  0  0  0  0  0  0  0  0  0
  -10.9154   -8.0591  -12.4184 C   0  0  0  0  0  0  0  0  0  0  0  0
  -11.9737   -8.7952  -11.6905 N   0  0  0  0  0  0  0  0  0  0  0  0
  -13.2424   -8.0545  -11.6655 C   0  0  0  0  0  0  0  0  0  0  0  0
  -12.2136  -10.0954  -12.3368 C   0  0  0  0  0  0  0  0  0  0  0  0
 21 22  1  0  0  0
 22 19  1  0  0  0
 19 20  2  0  0  0
 19  1  1  0  0  0
  1  2  1  0  0  0
  1  6  2  0  0  0
  2  3  2  0  0  0
  3  4  1  0  0  0
  4  5  2  0  0  0
  4 10  1  0  0  0
  5  6  1  0  0  0
  5  7  1  0  0  0
  7  8  1  0  0  0
  7 12  1  0  0  0
  8  9  2  0  0  0
  8 10  1  0  0  0
 10 11  2  0  0  0
 11 23  1  0  0  0
 11 13  1  0  0  0
 23 25  1  0  0  0
 23 24  1  0  0  0
 25 26  1  0  0  0
 25 30  2  0  0  0
 26 27  2  0  0  0
 27 28  1  0  0  0
 28 29  2  0  0  0
 28 33  1  0  0  0
 29 30  1  0  0  0
 29 31  1  0  0  0
 31 32  2  0  0  0
 32 35  1  0  0  0
 32 33  1  0  0  0
 35 36  1  0  0  0
 36 37  1  0  0  0
 36 38  1  0  0  0
 33 34  1  0  0  0
 13 14  1  0  0  0
 13 18  2  0  0  0
 14 15  2  0  0  0
 15 16  1  0  0  0
 16 17  2  0  0  0
 17 18  1  0  0  0
M  END
> <minimizedAffinity>
-7.32789

$$$$
