CHEMBL243410


 39 41  0  0  0  0  0  0  0  0999 V2000
  -28.2857   -1.9449   -6.8034 C   0  0  0  0  0  0  0  0  0  0  0  0
  -29.0477   -2.1791   -5.6432 C   0  0  0  0  0  0  0  0  0  0  0  0
  -29.6896   -3.3901   -5.3947 C   0  0  0  0  0  0  0  0  0  0  0  0
  -30.4111   -3.5415   -4.2790 N   0  0  0  0  0  0  0  0  0  0  0  0
  -31.0058   -4.7268   -4.1034 C   0  0  0  0  0  0  0  0  0  0  0  0
  -30.9262   -5.7777   -4.9223 N   0  0  0  0  0  0  0  0  0  0  0  0
  -30.1947   -5.6280   -6.0433 C   0  0  0  0  0  0  0  0  0  0  0  0
  -29.5636   -4.4108   -6.3395 C   0  0  0  0  0  0  0  0  0  0  0  0
  -28.8347   -4.1712   -7.5168 C   0  0  0  0  0  0  0  0  0  0  0  0
  -28.1440   -2.9738   -7.7451 C   0  0  0  0  0  0  0  0  0  0  0  0
  -27.2709   -2.8755   -8.8570 N   0  0  0  0  0  0  0  0  0  0  0  0
  -27.4450   -2.0338   -9.9298 C   0  0  0  0  0  0  0  0  0  0  0  0
  -28.3247   -1.1863  -10.0482 O   0  0  0  0  0  0  0  0  0  0  0  0
  -26.4462   -3.4625   -8.8445 H   0  0  0  0  0  0  0  0  0  0  0  0
  -26.4068   -2.1702  -10.9783 C   0  0  0  0  0  0  0  0  0  0  0  0
  -26.2206   -1.1114  -11.7845 C   0  0  0  0  0  0  0  0  0  0  0  0
  -25.2101   -0.9569  -12.8731 C   0  0  0  0  0  0  0  0  0  0  0  0
  -23.9008   -0.4315  -12.4690 N   0  0  0  0  0  0  0  0  0  0  0  0
  -23.0353   -1.4905  -11.9354 C   0  0  0  0  0  0  0  0  0  0  0  0
  -23.2531    0.1620  -13.6457 C   0  0  0  0  0  0  0  0  0  0  0  0
  -30.0896   -6.7402   -6.9373 N   0  0  0  0  0  0  0  0  0  0  0  0
  -30.0441   -6.4185   -7.9077 H   0  0  0  0  0  0  0  0  0  0  0  0
  -29.1745   -7.7607   -6.6832 C   0  0  0  0  0  0  0  0  0  0  0  0
  -28.6592   -7.9961   -5.4750 C   0  0  0  0  0  0  0  0  0  0  0  0
  -27.4892   -8.8538   -5.2696 C   0  0  0  0  0  0  0  0  0  0  0  0
  -26.8380   -8.7250   -4.2366 O   0  0  0  0  0  0  0  0  0  0  0  0
  -27.1416   -9.8255   -6.3408 C   0  0  0  0  0  0  0  0  0  0  0  0
  -27.7283   -9.6833   -7.5405 C   0  0  0  0  0  0  0  0  0  0  0  0
  -28.7255   -8.6201   -7.8303 C   0  0  0  0  0  0  0  0  0  0  0  0
  -29.1818   -8.4706   -8.9524 O   0  0  0  0  0  0  0  0  0  0  0  0
  -26.2128  -10.8433   -6.1575 O   0  0  0  0  0  0  0  0  0  0  0  0
  -24.9032  -10.7134   -6.7514 C   0  0  0  0  0  0  0  0  0  0  0  0
  -23.9019  -10.0028   -5.8407 C   0  0  0  0  0  0  0  0  0  0  0  0
  -24.1327  -10.3655   -4.5470 F   0  0  0  0  0  0  0  0  0  0  0  0
  -24.3844  -12.1172   -7.0481 C   0  0  0  0  0  0  0  0  0  0  0  0
  -23.0471  -12.1725   -6.8050 F   0  0  0  0  0  0  0  0  0  0  0  0
  -27.7614   -0.6766   -6.8689 O   0  0  0  0  0  0  0  0  0  0  0  0
  -29.1150    1.3188   -6.6635 C   0  0  0  0  0  0  0  0  0  0  0  0
  -28.2681    0.2869   -5.9437 C   0  0  0  0  0  0  0  0  0  0  0  0
 38 39  1  0  0  0
 39 37  1  0  0  0
 37  1  1  0  0  0
  1  2  1  0  0  0
  1 10  2  0  0  0
  2  3  2  0  0  0
  3  4  1  0  0  0
  3  8  1  0  0  0
  4  5  2  0  0  0
  5  6  1  0  0  0
  6  7  2  0  0  0
  7 21  1  0  0  0
  7  8  1  0  0  0
 21 23  1  0  0  0
 21 22  1  0  0  0
 23 24  2  0  0  0
 23 29  1  0  0  0
 24 25  1  0  0  0
 25 26  2  0  0  0
 25 27  1  0  0  0
 27 31  1  0  0  0
 27 28  2  0  0  0
 31 32  1  0  0  0
 32 33  1  0  0  0
 32 35  1  0  0  0
 33 34  1  0  0  0
 35 36  1  0  0  0
 28 29  1  0  0  0
 29 30  2  0  0  0
  8  9  2  0  0  0
  9 10  1  0  0  0
 10 11  1  0  0  0
 11 12  1  0  0  0
 11 14  1  0  0  0
 12 13  2  0  0  0
 12 15  1  0  0  0
 15 16  2  0  0  0
 16 17  1  0  0  0
 17 18  1  0  0  0
 18 19  1  0  0  0
 18 20  1  0  0  0
M  END
> <minimizedAffinity>
-8.21157

$$$$
