CHEMBL231467


 37 41  0  0  0  0  0  0  0  0999 V2000
  -29.4226   -3.0096   -4.1630 C   0  0  0  0  0  0  0  0  0  0  0  0
  -30.5836   -3.1805   -3.3967 C   0  0  0  0  0  0  0  0  0  0  0  0
  -31.3541   -4.3521   -3.4774 C   0  0  0  0  0  0  0  0  0  0  0  0
  -30.8915   -5.3363   -4.3534 C   0  0  0  0  0  0  0  0  0  0  0  0
  -31.3355   -6.5986   -4.6744 N   0  0  0  0  0  0  0  0  0  0  0  0
  -30.5239   -7.1057   -5.6636 C   0  0  0  0  0  0  0  0  0  0  0  0
  -29.5550   -6.2617   -5.9343 N   0  0  0  0  0  0  0  0  0  0  0  0
  -29.7761   -5.1647   -5.1574 C   0  0  0  0  0  0  0  0  0  0  0  0
  -29.0468   -3.9759   -5.1014 C   0  0  0  0  0  0  0  0  0  0  0  0
  -32.1581   -7.0476   -4.3079 H   0  0  0  0  0  0  0  0  0  0  0  0
  -30.7943   -8.3022   -6.2320 N   0  0  0  0  0  0  0  0  0  0  0  0
  -31.7453   -8.6508   -6.2592 H   0  0  0  0  0  0  0  0  0  0  0  0
  -29.9503   -8.9661   -7.1556 C   0  0  0  0  0  0  0  0  0  0  0  0
  -30.1032   -8.8703   -8.5448 C   0  0  0  0  0  0  0  0  0  0  0  0
  -29.2927   -9.5962   -9.4173 C   0  0  0  0  0  0  0  0  0  0  0  0
  -28.2814  -10.4197   -8.9251 C   0  0  0  0  0  0  0  0  0  0  0  0
  -27.3924  -11.3472  -10.0726 Cl  0  0  0  0  0  0  0  0  0  0  0  0
  -28.0487  -10.4880   -7.5427 C   0  0  0  0  0  0  0  0  0  0  0  0
  -28.8863   -9.7459   -6.6775 C   0  0  0  0  0  0  0  0  0  0  0  0
  -26.9500  -11.3433   -6.9459 C   0  0  0  0  0  0  0  0  0  0  0  0
  -25.9500  -10.5546   -6.2099 N   0  0  0  0  0  0  0  0  0  0  0  0
  -25.8583  -10.9507   -4.7889 C   0  0  0  0  0  0  0  0  0  0  0  0
  -24.8136  -10.0885   -4.0442 C   0  0  0  0  0  0  0  0  0  0  0  0
  -23.4573  -10.1196   -4.6273 N   0  0  0  0  0  0  0  0  0  0  0  0
  -22.7878  -11.3879   -4.3460 C   0  0  0  0  0  0  0  0  0  0  0  0
  -23.5474   -9.8603   -6.0790 C   0  0  0  0  0  0  0  0  0  0  0  0
  -24.6177  -10.6876   -6.8319 C   0  0  0  0  0  0  0  0  0  0  0  0
  -28.7166   -1.8424   -3.9570 O   0  0  0  0  0  0  0  0  0  0  0  0
  -29.9244    0.8932   -5.8066 C   0  0  0  0  0  0  0  0  0  0  0  0
  -28.9975    1.1230   -6.7450 N   0  0  0  0  0  0  0  0  0  0  0  0
  -27.9183    0.3230   -6.7466 C   0  0  0  0  0  0  0  0  0  0  0  0
  -27.7265   -0.6842   -5.8374 C   0  0  0  0  0  0  0  0  0  0  0  0
  -28.7505   -0.8640   -4.9328 C   0  0  0  0  0  0  0  0  0  0  0  0
  -29.8352   -0.0716   -4.8860 N   0  0  0  0  0  0  0  0  0  0  0  0
  -31.4778    2.0828   -7.1682 C   0  0  0  0  0  0  0  0  0  0  0  0
  -31.0221    1.7426   -5.8386 N   0  0  0  0  0  0  0  0  0  0  0  0
  -31.7143    1.3335   -5.2228 H   0  0  0  0  0  0  0  0  0  0  0  0
 35 36  1  0  0  0
 36 29  1  0  0  0
 36 37  1  0  0  0
 29 30  1  0  0  0
 29 34  2  0  0  0
 30 31  2  0  0  0
 31 32  1  0  0  0
 32 33  2  0  0  0
 33 28  1  0  0  0
 33 34  1  0  0  0
 28  1  1  0  0  0
  1  2  1  0  0  0
  1  9  2  0  0  0
  2  3  2  0  0  0
  3  4  1  0  0  0
  4  5  1  0  0  0
  4  8  2  0  0  0
  5  6  1  0  0  0
  5 10  1  0  0  0
  6 11  1  0  0  0
  6  7  2  0  0  0
 11 13  1  0  0  0
 11 12  1  0  0  0
 13 14  1  0  0  0
 13 19  2  0  0  0
 14 15  2  0  0  0
 15 16  1  0  0  0
 16 17  1  0  0  0
 16 18  2  0  0  0
 18 20  1  0  0  0
 18 19  1  0  0  0
 20 21  1  0  0  0
 21 22  1  0  0  0
 21 27  1  0  0  0
 22 23  1  0  0  0
 23 24  1  0  0  0
 24 25  1  0  0  0
 24 26  1  0  0  0
 26 27  1  0  0  0
  7  8  1  0  0  0
  8  9  1  0  0  0
M  END
> <minimizedAffinity>
-8.81184

$$$$
