CHEMBL3741625


 38 42  0  0  0  0  0  0  0  0999 V2000
  -25.8311  -10.4448   -6.5167 C   0  0  0  0  0  0  0  0  0  0  0  0
  -24.6566  -10.6576   -5.9117 N   0  0  0  0  0  0  0  0  0  0  0  0
  -24.4056   -9.9294   -4.8011 C   0  0  0  0  0  0  0  0  0  0  0  0
  -25.3007   -9.0525   -4.2292 C   0  0  0  0  0  0  0  0  0  0  0  0
  -26.5038   -8.9609   -4.8740 C   0  0  0  0  0  0  0  0  0  0  0  0
  -26.7400   -9.5951   -6.0325 N   0  0  0  0  0  0  0  0  0  0  0  0
  -26.1179  -11.1850   -7.6641 N   0  0  0  0  0  0  0  0  0  0  0  0
  -25.3625  -11.8109   -7.8958 H   0  0  0  0  0  0  0  0  0  0  0  0
  -29.5686  -11.3478   -9.0750 C   0  0  0  0  0  0  0  0  0  0  0  0
  -29.3704  -10.7420  -10.3237 C   0  0  0  0  0  0  0  0  0  0  0  0
  -28.1098  -10.2899  -10.6935 C   0  0  0  0  0  0  0  0  0  0  0  0
  -27.0347  -10.4473   -9.8230 C   0  0  0  0  0  0  0  0  0  0  0  0
  -27.1791  -11.0713   -8.5776 C   0  0  0  0  0  0  0  0  0  0  0  0
  -28.4596  -11.5238   -8.2214 C   0  0  0  0  0  0  0  0  0  0  0  0
  -30.9489  -11.8197   -8.6937 C   0  0  0  0  0  0  0  0  0  0  0  0
  -32.9686  -11.6382   -6.7954 C   0  0  0  0  0  0  0  0  0  0  0  0
  -31.7471  -10.6395   -7.6051 S   0  0  0  0  0  0  0  0  0  0  0  0
  -32.4713   -9.6635   -8.3968 O   0  0  0  0  0  0  0  0  0  0  0  0
  -30.8104  -10.2271   -6.5787 O   0  0  0  0  0  0  0  0  0  0  0  0
  -27.5252   -8.2014   -4.2875 O   0  0  0  0  0  0  0  0  0  0  0  0
  -28.1086   -7.2069   -5.0578 C   0  0  0  0  0  0  0  0  0  0  0  0
  -28.9664   -7.4849   -6.1248 C   0  0  0  0  0  0  0  0  0  0  0  0
  -29.3147   -6.4850   -7.0310 C   0  0  0  0  0  0  0  0  0  0  0  0
  -28.9842   -5.1550   -6.7632 C   0  0  0  0  0  0  0  0  0  0  0  0
  -29.4094   -4.0948   -7.5799 C   0  0  0  0  0  0  0  0  0  0  0  0
  -30.4349   -3.4224   -6.9635 C   0  0  0  0  0  0  0  0  0  0  0  0
  -30.2248   -3.0997   -5.6228 C   0  0  0  0  0  0  0  0  0  0  0  0
  -29.1789   -3.7015   -4.9077 C   0  0  0  0  0  0  0  0  0  0  0  0
  -28.6029   -4.8682   -5.4468 C   0  0  0  0  0  0  0  0  0  0  0  0
  -27.9556   -5.8696   -4.6804 C   0  0  0  0  0  0  0  0  0  0  0  0
  -28.2729   -3.0972   -7.9838 C   0  0  0  0  0  0  0  0  0  0  0  0
  -27.5430   -2.5615   -7.1568 O   0  0  0  0  0  0  0  0  0  0  0  0
  -28.1738   -2.8091   -9.3511 N   0  0  0  0  0  0  0  0  0  0  0  0
  -28.7777   -3.3195   -9.9729 H   0  0  0  0  0  0  0  0  0  0  0  0
  -27.2900   -1.7575   -9.9205 C   0  0  0  0  0  0  0  0  0  0  0  0
  -27.8533   -0.9723  -11.1453 C   0  0  0  0  0  0  0  0  0  0  0  0
  -26.4106   -0.9749  -11.7063 C   0  0  0  0  0  0  0  0  0  0  0  0
  -26.2137   -2.2903  -10.9207 C   0  0  0  0  0  0  0  0  0  0  0  0
 16 17  1  0  0  0
 17 18  2  0  0  0
 17 19  2  0  0  0
 17 15  1  0  0  0
 15  9  1  0  0  0
  9 10  1  0  0  0
  9 14  2  0  0  0
 10 11  2  0  0  0
 11 12  1  0  0  0
 12 13  2  0  0  0
 13  7  1  0  0  0
 13 14  1  0  0  0
  7  1  1  0  0  0
  7  8  1  0  0  0
  1  2  1  0  0  0
  1  6  2  0  0  0
  2  3  2  0  0  0
  3  4  1  0  0  0
  4  5  2  0  0  0
  5 20  1  0  0  0
  5  6  1  0  0  0
 20 21  1  0  0  0
 21 22  1  0  0  0
 21 30  2  0  0  0
 22 23  2  0  0  0
 23 24  1  0  0  0
 24 25  1  0  0  0
 24 29  2  0  0  0
 25 31  1  0  0  0
 25 26  2  0  0  0
 31 32  2  0  0  0
 31 33  1  0  0  0
 33 35  1  0  0  0
 33 34  1  0  0  0
 35 36  1  0  0  0
 35 38  1  0  0  0
 36 37  1  0  0  0
 37 38  1  0  0  0
 26 27  1  0  0  0
 27 28  2  0  0  0
 28 29  1  0  0  0
 29 30  1  0  0  0
M  END
> <minimizedAffinity>
-9.24407

$$$$
