CHEMBL3220326


 43 45  0  0  0  0  0  0  0  0999 V2000
  -28.4672   -9.9343   -5.3868 C   0  0  0  0  0  0  0  0  0  0  0  0
  -28.8416   -8.5922   -5.1468 C   0  0  0  0  0  0  0  0  0  0  0  0
  -29.9043   -7.9443   -5.7669 C   0  0  0  0  0  0  0  0  0  0  0  0
  -30.6474   -8.6556   -6.6980 C   0  0  0  0  0  0  0  0  0  0  0  0
  -30.2943   -9.9837   -7.0141 C   0  0  0  0  0  0  0  0  0  0  0  0
  -29.2129  -10.6380   -6.3639 C   0  0  0  0  0  0  0  0  0  0  0  0
  -24.8796  -10.4349   -4.1261 C   0  0  0  0  0  0  0  0  0  0  0  0
  -26.0200   -9.9282   -4.7594 C   0  0  0  0  0  0  0  0  0  0  0  0
  -27.3196  -10.4616   -4.5795 C   0  0  0  0  0  0  0  0  0  0  0  0
  -27.4268  -11.5471   -3.7002 C   0  0  0  0  0  0  0  0  0  0  0  0
  -26.3055  -12.0243   -3.0024 C   0  0  0  0  0  0  0  0  0  0  0  0
  -25.0342  -11.4527   -3.1838 C   0  0  0  0  0  0  0  0  0  0  0  0
  -23.9065  -11.9281   -2.3199 C   0  0  0  0  0  0  0  0  0  0  0  0
  -22.6433  -12.4647   -2.9776 C   0  0  0  0  0  0  0  0  0  0  0  0
  -24.0086  -11.8111   -1.0244 N   0  0  0  0  0  0  0  0  0  0  0  0
  -22.8470  -12.2603   -0.3814 O   0  0  0  0  0  0  0  0  0  0  0  0
  -23.0649  -12.1305    0.5575 H   0  0  0  0  0  0  0  0  0  0  0  0
  -23.2533  -10.1225   -5.8415 C   0  0  0  0  0  0  0  0  0  0  0  0
  -23.6092  -10.0447   -4.4656 O   0  0  0  0  0  0  0  0  0  0  0  0
  -30.2535   -6.6081   -5.4453 N   0  0  0  0  0  0  0  0  0  0  0  0
  -29.4274   -5.5139   -5.6634 C   0  0  0  0  0  0  0  0  0  0  0  0
  -28.3285   -5.5594   -6.2060 O   0  0  0  0  0  0  0  0  0  0  0  0
  -29.9757   -4.3306   -5.1941 N   0  0  0  0  0  0  0  0  0  0  0  0
  -31.2230   -6.4111   -5.2449 H   0  0  0  0  0  0  0  0  0  0  0  0
  -30.4731   -4.4237   -4.3210 H   0  0  0  0  0  0  0  0  0  0  0  0
  -29.2626   -3.1173   -5.3956 C   0  0  0  0  0  0  0  0  0  0  0  0
  -29.0222   -2.6797   -6.7129 C   0  0  0  0  0  0  0  0  0  0  0  0
  -28.2802   -1.5195   -6.9537 C   0  0  0  0  0  0  0  0  0  0  0  0
  -27.7774   -0.8025   -5.8768 C   0  0  0  0  0  0  0  0  0  0  0  0
  -28.0127   -1.2277   -4.5648 C   0  0  0  0  0  0  0  0  0  0  0  0
  -28.7528   -2.3897   -4.3131 C   0  0  0  0  0  0  0  0  0  0  0  0
  -28.8350   -2.9101   -2.9029 C   0  0  0  0  0  0  0  0  0  0  0  0
  -27.9400   -1.0516   -8.1956 O   0  0  0  0  0  0  0  0  0  0  0  0
  -27.3935   -2.0313   -9.0813 C   0  0  0  0  0  0  0  0  0  0  0  0
  -27.6129   -1.5719  -10.5186 C   0  0  0  0  0  0  0  0  0  0  0  0
  -26.3671   -1.8004  -11.3822 C   0  0  0  0  0  0  0  0  0  0  0  0
  -26.5303   -1.3955  -12.7903 N   0  0  0  0  0  0  0  0  0  0  0  0
  -25.3250   -1.6527  -13.5817 C   0  0  0  0  0  0  0  0  0  0  0  0
  -27.6735   -2.0888  -13.3870 C   0  0  0  0  0  0  0  0  0  0  0  0
  -31.0882  -10.7024   -7.8745 O   0  0  0  0  0  0  0  0  0  0  0  0
  -32.1369  -11.4444   -7.2585 C   0  0  0  0  0  0  0  0  0  0  0  0
  -28.8664  -11.9518   -6.5763 O   0  0  0  0  0  0  0  0  0  0  0  0
  -27.9982  -12.2342   -7.6705 C   0  0  0  0  0  0  0  0  0  0  0  0
 18 19  1  0  0  0
 19  7  1  0  0  0
  7  8  1  0  0  0
  7 12  2  0  0  0
  8  9  2  0  0  0
  9  1  1  0  0  0
  9 10  1  0  0  0
  1  2  1  0  0  0
  1  6  2  0  0  0
  2  3  2  0  0  0
  3 20  1  0  0  0
  3  4  1  0  0  0
 20 21  1  0  0  0
 20 24  1  0  0  0
 21 22  2  0  0  0
 21 23  1  0  0  0
 23 26  1  0  0  0
 23 25  1  0  0  0
 26 27  1  0  0  0
 26 31  2  0  0  0
 27 28  2  0  0  0
 28 33  1  0  0  0
 28 29  1  0  0  0
 33 34  1  0  0  0
 34 35  1  0  0  0
 35 36  1  0  0  0
 36 37  1  0  0  0
 37 38  1  0  0  0
 37 39  1  0  0  0
 29 30  2  0  0  0
 30 31  1  0  0  0
 31 32  1  0  0  0
  4  5  2  0  0  0
  5 40  1  0  0  0
  5  6  1  0  0  0
 40 41  1  0  0  0
  6 42  1  0  0  0
 42 43  1  0  0  0
 10 11  2  0  0  0
 11 12  1  0  0  0
 12 13  1  0  0  0
 13 14  1  0  0  0
 13 15  2  0  0  0
 15 16  1  0  0  0
 16 17  1  0  0  0
M  END
> <minimizedAffinity>
-8.40858

$$$$
