CHEMBL602704


 42 46  0  0  0  0  0  0  0  0999 V2000
  -30.4108   -6.6849   -6.1406 C   0  0  0  0  0  0  0  0  0  0  0  0
  -30.0416   -6.1383   -7.3705 C   0  0  0  0  0  0  0  0  0  0  0  0
  -29.8217   -4.7616   -7.4872 C   0  0  0  0  0  0  0  0  0  0  0  0
  -29.9027   -3.9132   -6.3762 C   0  0  0  0  0  0  0  0  0  0  0  0
  -30.2298   -4.4829   -5.1429 C   0  0  0  0  0  0  0  0  0  0  0  0
  -30.4865   -5.8461   -5.0331 C   0  0  0  0  0  0  0  0  0  0  0  0
  -30.8064   -6.3453   -3.8297 F   0  0  0  0  0  0  0  0  0  0  0  0
  -29.5737   -2.5833   -6.5338 N   0  0  0  0  0  0  0  0  0  0  0  0
  -30.2874   -1.9417   -6.8720 H   0  0  0  0  0  0  0  0  0  0  0  0
  -28.1956   -2.0477   -6.4037 C   0  0  0  0  0  0  0  0  0  0  0  0
  -27.9225   -1.4666   -4.9876 C   0  0  0  0  0  0  0  0  0  0  0  0
  -26.8278   -0.6597   -5.0023 F   0  0  0  0  0  0  0  0  0  0  0  0
  -28.9551   -0.7207   -4.5403 F   0  0  0  0  0  0  0  0  0  0  0  0
  -27.6682   -2.4291   -4.0709 F   0  0  0  0  0  0  0  0  0  0  0  0
  -27.9757   -0.9824   -7.4971 C   0  0  0  0  0  0  0  0  0  0  0  0
  -27.5012   -1.6417   -8.7685 C   0  0  0  0  0  0  0  0  0  0  0  0
  -27.2279   -2.8402   -8.7839 O   0  0  0  0  0  0  0  0  0  0  0  0
  -27.3856   -0.7805   -9.8485 N   0  0  0  0  0  0  0  0  0  0  0  0
  -27.3194    0.2083   -9.6391 H   0  0  0  0  0  0  0  0  0  0  0  0
  -26.8294   -1.2037  -11.0755 C   0  0  0  0  0  0  0  0  0  0  0  0
  -25.4611   -1.0819  -11.3470 C   0  0  0  0  0  0  0  0  0  0  0  0
  -24.9680   -1.3688  -12.6197 C   0  0  0  0  0  0  0  0  0  0  0  0
  -25.8477   -1.7716  -13.6150 C   0  0  0  0  0  0  0  0  0  0  0  0
  -25.3896   -1.9799  -14.8558 F   0  0  0  0  0  0  0  0  0  0  0  0
  -27.2005   -1.9503  -13.3444 C   0  0  0  0  0  0  0  0  0  0  0  0
  -27.6905   -1.6964  -12.0608 C   0  0  0  0  0  0  0  0  0  0  0  0
  -30.6689   -8.0157   -5.9094 O   0  0  0  0  0  0  0  0  0  0  0  0
  -26.5812  -10.1191   -6.3744 C   0  0  0  0  0  0  0  0  0  0  0  0
  -27.1163  -10.7116   -7.4977 C   0  0  0  0  0  0  0  0  0  0  0  0
  -28.4796  -10.3532   -7.7033 C   0  0  0  0  0  0  0  0  0  0  0  0
  -29.2668  -10.8149   -8.7118 N   0  0  0  0  0  0  0  0  0  0  0  0
  -30.5396  -10.3674   -8.7134 C   0  0  0  0  0  0  0  0  0  0  0  0
  -31.0696   -9.4689   -7.8112 C   0  0  0  0  0  0  0  0  0  0  0  0
  -30.2359   -8.9435   -6.8277 C   0  0  0  0  0  0  0  0  0  0  0  0
  -28.9293   -9.4451   -6.7453 C   0  0  0  0  0  0  0  0  0  0  0  0
  -27.7034   -9.1072   -5.5902 S   0  0  0  0  0  0  0  0  0  0  0  0
  -21.7563  -11.3339   -6.1786 C   0  0  0  0  0  0  0  0  0  0  0  0
  -23.0842  -10.8939   -5.8291 N   0  0  0  0  0  0  0  0  0  0  0  0
  -23.4640  -10.3414   -4.6429 C   0  0  0  0  0  0  0  0  0  0  0  0
  -24.7279   -9.9788   -4.6688 N   0  0  0  0  0  0  0  0  0  0  0  0
  -25.1888  -10.3494   -5.9133 C   0  0  0  0  0  0  0  0  0  0  0  0
  -24.1746  -10.9388   -6.6442 C   0  0  0  0  0  0  0  0  0  0  0  0
 37 38  1  0  0  0
 38 39  1  0  0  0
 38 42  1  0  0  0
 39 40  2  0  0  0
 40 41  1  0  0  0
 41 28  1  0  0  0
 41 42  2  0  0  0
 28 29  2  0  0  0
 28 36  1  0  0  0
 29 30  1  0  0  0
 30 31  1  0  0  0
 30 35  2  0  0  0
 31 32  2  0  0  0
 32 33  1  0  0  0
 33 34  2  0  0  0
 34 27  1  0  0  0
 34 35  1  0  0  0
 27  1  1  0  0  0
  1  2  1  0  0  0
  1  6  2  0  0  0
  2  3  2  0  0  0
  3  4  1  0  0  0
  4  8  1  0  0  0
  4  5  2  0  0  0
  8 10  1  0  0  0
  8  9  1  0  0  0
 10 15  1  0  0  0
 10 11  1  0  0  0
 15 16  1  0  0  0
 16 17  2  0  0  0
 16 18  1  0  0  0
 18 20  1  0  0  0
 18 19  1  0  0  0
 20 21  1  0  0  0
 20 26  2  0  0  0
 21 22  2  0  0  0
 22 23  1  0  0  0
 23 24  1  0  0  0
 23 25  2  0  0  0
 25 26  1  0  0  0
 11 12  1  0  0  0
 11 13  1  0  0  0
 11 14  1  0  0  0
  5  6  1  0  0  0
  6  7  1  0  0  0
 35 36  1  0  0  0
M  END
> <minimizedAffinity>
-9.81989

$$$$
