CHEMBL196609


 33 36  0  0  0  0  0  0  0  0999 V2000
  -15.0089    2.5481  -15.6799 C   0  0  0  0  0  0  0  0  0  0  0  0
  -14.0548    1.9130  -14.9650 N   0  0  0  0  0  0  0  0  0  0  0  0
  -14.3873    1.0389  -13.9646 N   0  0  0  0  0  0  0  0  0  0  0  0
  -15.6700    0.7219  -13.7040 C   0  0  0  0  0  0  0  0  0  0  0  0
  -16.7100    1.3296  -14.4394 C   0  0  0  0  0  0  0  0  0  0  0  0
  -18.0740    0.9786  -14.2683 C   0  0  0  0  0  0  0  0  0  0  0  0
  -19.0970    1.6404  -14.9451 C   0  0  0  0  0  0  0  0  0  0  0  0
  -18.7878    2.7088  -15.7667 C   0  0  0  0  0  0  0  0  0  0  0  0
  -17.4530    3.0590  -15.9673 C   0  0  0  0  0  0  0  0  0  0  0  0
  -16.3788    2.3330  -15.3877 C   0  0  0  0  0  0  0  0  0  0  0  0
  -13.4843    5.1083  -18.8390 C   0  0  0  0  0  0  0  0  0  0  0  0
  -13.8325    3.7857  -19.1150 C   0  0  0  0  0  0  0  0  0  0  0  0
  -14.2776    2.9423  -18.0886 C   0  0  0  0  0  0  0  0  0  0  0  0
  -14.4560    3.4021  -16.7708 C   0  0  0  0  0  0  0  0  0  0  0  0
  -14.0194    4.7174  -16.5055 C   0  0  0  0  0  0  0  0  0  0  0  0
  -13.5304    5.5572  -17.5176 C   0  0  0  0  0  0  0  0  0  0  0  0
  -13.2041    8.2036  -20.9968 C   0  0  0  0  0  0  0  0  0  0  0  0
  -13.4788    7.2974  -19.9114 N   0  0  0  0  0  0  0  0  0  0  0  0
  -13.0566    5.9843  -19.9667 C   0  0  0  0  0  0  0  0  0  0  0  0
  -12.4108    5.5218  -20.9003 O   0  0  0  0  0  0  0  0  0  0  0  0
  -14.1857    7.5622  -19.2400 H   0  0  0  0  0  0  0  0  0  0  0  0
  -15.9842   -0.1995  -12.6628 N   0  0  0  0  0  0  0  0  0  0  0  0
  -15.7819    0.2475  -11.7709 H   0  0  0  0  0  0  0  0  0  0  0  0
  -15.6375   -1.5714  -12.6164 C   0  0  0  0  0  0  0  0  0  0  0  0
  -15.6952   -2.2660  -11.4015 C   0  0  0  0  0  0  0  0  0  0  0  0
  -15.3445   -3.6242  -11.3201 C   0  0  0  0  0  0  0  0  0  0  0  0
  -14.9446   -4.3423  -12.4568 C   0  0  0  0  0  0  0  0  0  0  0  0
  -14.9763   -3.6559  -13.6833 C   0  0  0  0  0  0  0  0  0  0  0  0
  -15.3367   -2.3071  -13.7608 C   0  0  0  0  0  0  0  0  0  0  0  0
  -14.4765   -5.8049  -12.4147 C   0  0  0  0  0  0  0  0  0  0  0  0
  -14.1785   -6.3171  -10.9891 C   0  0  0  0  0  0  0  0  0  0  0  0
  -15.5601   -6.7204  -13.0227 C   0  0  0  0  0  0  0  0  0  0  0  0
  -13.1740   -5.9585  -13.2334 C   0  0  0  0  0  0  0  0  0  0  0  0
 17 18  1  0  0  0
 18 19  1  0  0  0
 18 21  1  0  0  0
 19 20  2  0  0  0
 19 11  1  0  0  0
 11 12  1  0  0  0
 11 16  2  0  0  0
 12 13  2  0  0  0
 13 14  1  0  0  0
 14  1  1  0  0  0
 14 15  2  0  0  0
  1  2  1  0  0  0
  1 10  2  0  0  0
  2  3  2  0  0  0
  3  4  1  0  0  0
  4 22  1  0  0  0
  4  5  2  0  0  0
 22 24  1  0  0  0
 22 23  1  0  0  0
 24 25  1  0  0  0
 24 29  2  0  0  0
 25 26  2  0  0  0
 26 27  1  0  0  0
 27 30  1  0  0  0
 27 28  2  0  0  0
 30 31  1  0  0  0
 30 32  1  0  0  0
 30 33  1  0  0  0
 28 29  1  0  0  0
  5  6  1  0  0  0
  5 10  1  0  0  0
  6  7  2  0  0  0
  7  8  1  0  0  0
  8  9  2  0  0  0
  9 10  1  0  0  0
 15 16  1  0  0  0
M  END
> <minimizedAffinity>
-7.98936

$$$$
