CHEMBL3656092


 42 45  0  0  0  0  0  0  0  0999 V2000
  -29.6639   -5.0271   -5.0879 O   0  0  0  0  0  0  0  0  0  0  0  0
  -28.3114   -2.3910   -8.0526 C   0  0  0  0  0  0  0  0  0  0  0  0
  -29.0332   -3.5465   -8.3648 C   0  0  0  0  0  0  0  0  0  0  0  0
  -29.4725   -4.4035   -7.3473 C   0  0  0  0  0  0  0  0  0  0  0  0
  -29.2010   -4.1103   -6.0078 C   0  0  0  0  0  0  0  0  0  0  0  0
  -28.4348   -2.9861   -5.6933 C   0  0  0  0  0  0  0  0  0  0  0  0
  -28.0025   -2.1380   -6.7138 C   0  0  0  0  0  0  0  0  0  0  0  0
  -27.3300   -1.0222   -6.3906 F   0  0  0  0  0  0  0  0  0  0  0  0
  -26.6735   -0.7774  -10.8835 N   0  0  0  0  0  0  0  0  0  0  0  0
  -26.9530   -1.8150   -9.9998 C   0  0  0  0  0  0  0  0  0  0  0  0
  -26.4628   -2.9369  -10.0496 O   0  0  0  0  0  0  0  0  0  0  0  0
  -27.8959   -1.4602   -9.0464 N   0  0  0  0  0  0  0  0  0  0  0  0
  -26.9599    0.1476  -10.5964 H   0  0  0  0  0  0  0  0  0  0  0  0
  -28.6186   -0.8303   -9.3707 H   0  0  0  0  0  0  0  0  0  0  0  0
  -22.4437    0.3132  -13.2438 C   0  0  0  0  0  0  0  0  0  0  0  0
  -23.7961   -0.3360  -13.2168 C   0  0  0  0  0  0  0  0  0  0  0  0
  -24.2519   -1.0240  -14.3466 C   0  0  0  0  0  0  0  0  0  0  0  0
  -25.5017   -1.6275  -14.3377 C   0  0  0  0  0  0  0  0  0  0  0  0
  -26.3056   -1.5537  -13.2001 C   0  0  0  0  0  0  0  0  0  0  0  0
  -25.8790   -0.8832  -12.0505 C   0  0  0  0  0  0  0  0  0  0  0  0
  -24.6143   -0.2721  -12.0695 C   0  0  0  0  0  0  0  0  0  0  0  0
  -29.5720   -6.3773   -5.3419 C   0  0  0  0  0  0  0  0  0  0  0  0
  -30.5496   -7.1125   -6.0055 C   0  0  0  0  0  0  0  0  0  0  0  0
  -30.3320   -8.4653   -6.1861 C   0  0  0  0  0  0  0  0  0  0  0  0
  -29.2085   -9.1040   -5.7977 N   0  0  0  0  0  0  0  0  0  0  0  0
  -28.2393   -8.3564   -5.2105 C   0  0  0  0  0  0  0  0  0  0  0  0
  -28.3782   -6.9978   -4.9684 C   0  0  0  0  0  0  0  0  0  0  0  0
  -27.0456   -9.1238   -4.8623 C   0  0  0  0  0  0  0  0  0  0  0  0
  -25.9151   -9.5061   -5.5665 C   0  0  0  0  0  0  0  0  0  0  0  0
  -25.0586  -10.2643   -4.7010 C   0  0  0  0  0  0  0  0  0  0  0  0
  -25.7142  -10.3181   -3.4816 C   0  0  0  0  0  0  0  0  0  0  0  0
  -26.8935   -9.6351   -3.5927 N   0  0  0  0  0  0  0  0  0  0  0  0
  -27.5863   -9.5047   -2.8648 H   0  0  0  0  0  0  0  0  0  0  0  0
  -23.7627  -10.8508   -5.0461 C   0  0  0  0  0  0  0  0  0  0  0  0
  -23.4144  -11.9630   -4.6603 O   0  0  0  0  0  0  0  0  0  0  0  0
  -22.9596  -10.0674   -5.8359 N   0  0  0  0  0  0  0  0  0  0  0  0
  -23.2724   -9.1509   -6.1368 H   0  0  0  0  0  0  0  0  0  0  0  0
  -21.6526  -10.4985   -6.2808 C   0  0  0  0  0  0  0  0  0  0  0  0
  -21.0288   -9.4132   -7.1491 C   0  0  0  0  0  0  0  0  0  0  0  0
  -20.1202   -9.6108   -7.9447 O   0  0  0  0  0  0  0  0  0  0  0  0
  -21.5744   -8.1897   -6.9630 O   0  0  0  0  0  0  0  0  0  0  0  0
  -22.2923   -8.1656   -6.3003 H   0  0  0  0  0  0  0  0  0  0  0  0
 15 16  1  0  0  0
 16 17  1  0  0  0
 16 21  2  0  0  0
 17 18  2  0  0  0
 18 19  1  0  0  0
 19 20  2  0  0  0
 20  9  1  0  0  0
 20 21  1  0  0  0
  9 10  1  0  0  0
  9 13  1  0  0  0
 10 11  2  0  0  0
 10 12  1  0  0  0
 12  2  1  0  0  0
 12 14  1  0  0  0
  2  3  1  0  0  0
  2  7  2  0  0  0
  3  4  2  0  0  0
  4  5  1  0  0  0
  5  1  1  0  0  0
  5  6  2  0  0  0
  1 22  1  0  0  0
 22 23  1  0  0  0
 22 27  2  0  0  0
 23 24  2  0  0  0
 24 25  1  0  0  0
 25 26  2  0  0  0
 26 28  1  0  0  0
 26 27  1  0  0  0
 28 29  2  0  0  0
 28 32  1  0  0  0
 29 30  1  0  0  0
 30 34  1  0  0  0
 30 31  2  0  0  0
 34 35  2  0  0  0
 34 36  1  0  0  0
 36 38  1  0  0  0
 36 37  1  0  0  0
 38 39  1  0  0  0
 39 40  2  0  0  0
 39 41  1  0  0  0
 41 42  1  0  0  0
 31 32  1  0  0  0
 32 33  1  0  0  0
  6  7  1  0  0  0
  7  8  1  0  0  0
M  END
> <minimizedAffinity>
-10.23789

$$$$
