CHEMBL3753904


 30 32  0  0  0  0  0  0  0  0999 V2000
  -27.6518   -1.8275   -8.9982 C   0  0  0  0  0  0  0  0  0  0  0  0
  -27.9464   -3.1236   -8.5523 C   0  0  0  0  0  0  0  0  0  0  0  0
  -28.4000   -3.4187   -7.2601 C   0  0  0  0  0  0  0  0  0  0  0  0
  -28.5466   -2.3609   -6.3608 C   0  0  0  0  0  0  0  0  0  0  0  0
  -28.2641   -1.0401   -6.7642 C   0  0  0  0  0  0  0  0  0  0  0  0
  -27.8543   -0.7875   -8.0869 C   0  0  0  0  0  0  0  0  0  0  0  0
  -25.7172   -1.5393  -12.7593 C   0  0  0  0  0  0  0  0  0  0  0  0
  -27.0939   -1.6285  -12.7600 C   0  0  0  0  0  0  0  0  0  0  0  0
  -27.7532   -1.6539  -11.5276 C   0  0  0  0  0  0  0  0  0  0  0  0
  -27.0298   -1.6236  -10.3247 C   0  0  0  0  0  0  0  0  0  0  0  0
  -25.6462   -1.5092  -10.4592 C   0  0  0  0  0  0  0  0  0  0  0  0
  -24.9790   -1.4529  -11.6316 N   0  0  0  0  0  0  0  0  0  0  0  0
  -23.9320   -0.7296  -14.0145 C   0  0  0  0  0  0  0  0  0  0  0  0
  -25.0744   -1.5834  -13.9767 O   0  0  0  0  0  0  0  0  0  0  0  0
  -28.6582   -4.7501   -6.8289 N   0  0  0  0  0  0  0  0  0  0  0  0
  -29.7087   -5.5374   -7.2815 C   0  0  0  0  0  0  0  0  0  0  0  0
  -30.5775   -5.1507   -8.0551 O   0  0  0  0  0  0  0  0  0  0  0  0
  -29.7005   -6.8230   -6.7690 N   0  0  0  0  0  0  0  0  0  0  0  0
  -28.0168   -5.1549   -6.1637 H   0  0  0  0  0  0  0  0  0  0  0  0
  -29.2752   -6.9533   -5.8634 H   0  0  0  0  0  0  0  0  0  0  0  0
  -30.6277   -7.8145   -7.1991 C   0  0  0  0  0  0  0  0  0  0  0  0
  -30.2833   -8.8294   -8.0974 C   0  0  0  0  0  0  0  0  0  0  0  0
  -31.2647   -9.6917   -8.5507 C   0  0  0  0  0  0  0  0  0  0  0  0
  -32.5459   -9.6389   -8.1398 N   0  0  0  0  0  0  0  0  0  0  0  0
  -32.8477   -8.6844   -7.2341 C   0  0  0  0  0  0  0  0  0  0  0  0
  -31.9357   -7.7660   -6.7294 C   0  0  0  0  0  0  0  0  0  0  0  0
  -28.3239    0.1219   -5.8025 C   0  0  0  0  0  0  0  0  0  0  0  0
  -29.4488    0.1417   -5.0377 F   0  0  0  0  0  0  0  0  0  0  0  0
  -27.2785    0.1139   -4.9285 F   0  0  0  0  0  0  0  0  0  0  0  0
  -28.2720    1.3266   -6.4327 F   0  0  0  0  0  0  0  0  0  0  0  0
 13 14  1  0  0  0
 14  7  1  0  0  0
  7  8  1  0  0  0
  7 12  2  0  0  0
  8  9  2  0  0  0
  9 10  1  0  0  0
 10  1  1  0  0  0
 10 11  2  0  0  0
  1  2  1  0  0  0
  1  6  2  0  0  0
  2  3  2  0  0  0
  3 15  1  0  0  0
  3  4  1  0  0  0
 15 16  1  0  0  0
 15 19  1  0  0  0
 16 17  2  0  0  0
 16 18  1  0  0  0
 18 21  1  0  0  0
 18 20  1  0  0  0
 21 22  1  0  0  0
 21 26  2  0  0  0
 22 23  2  0  0  0
 23 24  1  0  0  0
 24 25  2  0  0  0
 25 26  1  0  0  0
  4  5  2  0  0  0
  5 27  1  0  0  0
  5  6  1  0  0  0
 27 28  1  0  0  0
 27 29  1  0  0  0
 27 30  1  0  0  0
 11 12  1  0  0  0
M  END
> <minimizedAffinity>
-9.57684

$$$$
