CHEMBL395393


 28 31  0  0  0  0  0  0  0  0999 V2000
  -27.9394   -1.6841   -7.8818 C   0  0  0  0  0  0  0  0  0  0  0  0
  -27.8726   -0.5581   -7.1524 N   0  0  0  0  0  0  0  0  0  0  0  0
  -28.4076   -0.9135   -5.9705 N   0  0  0  0  0  0  0  0  0  0  0  0
  -28.8046   -2.2163   -5.9128 C   0  0  0  0  0  0  0  0  0  0  0  0
  -28.5111   -2.7586   -7.1431 C   0  0  0  0  0  0  0  0  0  0  0  0
  -28.4742   -0.2111   -5.2410 H   0  0  0  0  0  0  0  0  0  0  0  0
  -25.2812   -1.5840  -13.2824 C   0  0  0  0  0  0  0  0  0  0  0  0
  -26.6051   -1.6975  -13.7203 C   0  0  0  0  0  0  0  0  0  0  0  0
  -27.6633   -1.7824  -12.8052 C   0  0  0  0  0  0  0  0  0  0  0  0
  -27.3739   -1.7494  -11.4365 C   0  0  0  0  0  0  0  0  0  0  0  0
  -28.2263   -1.8118  -10.3675 N   0  0  0  0  0  0  0  0  0  0  0  0
  -27.4603   -1.7151   -9.2986 C   0  0  0  0  0  0  0  0  0  0  0  0
  -26.1367   -1.6240   -9.6503 N   0  0  0  0  0  0  0  0  0  0  0  0
  -26.0542   -1.6301  -11.0190 C   0  0  0  0  0  0  0  0  0  0  0  0
  -24.9818   -1.5418  -11.9108 C   0  0  0  0  0  0  0  0  0  0  0  0
  -25.3794   -1.5459   -8.9868 H   0  0  0  0  0  0  0  0  0  0  0  0
  -23.4783   -0.2670  -14.0991 C   0  0  0  0  0  0  0  0  0  0  0  0
  -24.1844   -1.5029  -14.1022 O   0  0  0  0  0  0  0  0  0  0  0  0
  -28.7356   -4.1031   -7.5650 C   0  0  0  0  0  0  0  0  0  0  0  0
  -29.5022   -5.0230   -6.9567 C   0  0  0  0  0  0  0  0  0  0  0  0
  -29.6501   -6.3977   -7.4563 C   0  0  0  0  0  0  0  0  0  0  0  0
  -28.6013   -7.0148   -8.1345 C   0  0  0  0  0  0  0  0  0  0  0  0
  -28.6530   -8.2689   -8.6480 N   0  0  0  0  0  0  0  0  0  0  0  0
  -29.8122   -8.9471   -8.4781 C   0  0  0  0  0  0  0  0  0  0  0  0
  -30.9199   -8.4255   -7.8311 C   0  0  0  0  0  0  0  0  0  0  0  0
  -30.8382   -7.1266   -7.3258 C   0  0  0  0  0  0  0  0  0  0  0  0
  -32.1097   -9.1992   -7.6833 C   0  0  0  0  0  0  0  0  0  0  0  0
  -33.0809   -9.8254   -7.5668 N   0  0  0  0  0  0  0  0  0  0  0  0
 17 18  1  0  0  0
 18  7  1  0  0  0
  7  8  1  0  0  0
  7 15  2  0  0  0
  8  9  2  0  0  0
  9 10  1  0  0  0
 10 11  1  0  0  0
 10 14  2  0  0  0
 11 12  2  0  0  0
 12  1  1  0  0  0
 12 13  1  0  0  0
  1  2  2  0  0  0
  1  5  1  0  0  0
  2  3  1  0  0  0
  3  4  1  0  0  0
  3  6  1  0  0  0
  4  5  2  0  0  0
  5 19  1  0  0  0
 19 20  2  0  0  0
 20 21  1  0  0  0
 21 22  1  0  0  0
 21 26  2  0  0  0
 22 23  2  0  0  0
 23 24  1  0  0  0
 24 25  2  0  0  0
 25 27  1  0  0  0
 25 26  1  0  0  0
 27 28  3  0  0  0
 13 14  1  0  0  0
 13 16  1  0  0  0
 14 15  1  0  0  0
M  END
> <minimizedAffinity>
-8.81851

$$$$
