CHEMBL189584


 41 43  0  0  0  0  0  0  0  0999 V2000
  -21.5544    1.7846  -14.1913 C   0  0  0  0  0  0  0  0  0  0  0  0
  -21.5931    3.0972  -14.4479 N   0  0  0  0  0  0  0  0  0  0  0  0
  -20.4966    3.6448  -14.9533 C   0  0  0  0  0  0  0  0  0  0  0  0
  -19.3315    2.9301  -15.1906 C   0  0  0  0  0  0  0  0  0  0  0  0
  -18.1859    3.5487  -15.6860 C   0  0  0  0  0  0  0  0  0  0  0  0
  -16.9841    2.8413  -15.8809 C   0  0  0  0  0  0  0  0  0  0  0  0
  -17.0500    1.4568  -15.5730 C   0  0  0  0  0  0  0  0  0  0  0  0
  -18.2129    0.8520  -15.1691 N   0  0  0  0  0  0  0  0  0  0  0  0
  -19.3370    1.5735  -14.9207 C   0  0  0  0  0  0  0  0  0  0  0  0
  -20.4676    1.0123  -14.4371 N   0  0  0  0  0  0  0  0  0  0  0  0
  -15.8120    3.5856  -16.4014 C   0  0  0  0  0  0  0  0  0  0  0  0
  -15.7422    3.9817  -17.7572 C   0  0  0  0  0  0  0  0  0  0  0  0
  -14.6809    4.7330  -18.2642 C   0  0  0  0  0  0  0  0  0  0  0  0
  -13.6504    5.1190  -17.4075 C   0  0  0  0  0  0  0  0  0  0  0  0
  -13.6739    4.7254  -16.0723 C   0  0  0  0  0  0  0  0  0  0  0  0
  -14.7151    3.9284  -15.5951 C   0  0  0  0  0  0  0  0  0  0  0  0
  -14.5541    5.1590  -19.5588 O   0  0  0  0  0  0  0  0  0  0  0  0
  -14.2738    6.5403  -19.7645 C   0  0  0  0  0  0  0  0  0  0  0  0
  -12.7269    5.0483  -15.1384 O   0  0  0  0  0  0  0  0  0  0  0  0
  -12.2013    6.3661  -15.2424 C   0  0  0  0  0  0  0  0  0  0  0  0
  -15.9285    0.6081  -15.8299 N   0  0  0  0  0  0  0  0  0  0  0  0
  -15.0421    0.2949  -14.7926 C   0  0  0  0  0  0  0  0  0  0  0  0
  -15.1360    0.7282  -13.6590 O   0  0  0  0  0  0  0  0  0  0  0  0
  -14.0485   -0.5905  -15.1951 N   0  0  0  0  0  0  0  0  0  0  0  0
  -16.2140   -0.2436  -16.2922 H   0  0  0  0  0  0  0  0  0  0  0  0
  -13.7938   -0.5709  -16.1783 H   0  0  0  0  0  0  0  0  0  0  0  0
  -13.0023   -1.1639  -14.2678 C   0  0  0  0  0  0  0  0  0  0  0  0
  -13.6773   -2.0195  -13.1827 C   0  0  0  0  0  0  0  0  0  0  0  0
  -12.0055   -2.0853  -15.0194 C   0  0  0  0  0  0  0  0  0  0  0  0
  -12.1640   -0.0698  -13.5821 C   0  0  0  0  0  0  0  0  0  0  0  0
  -22.6593    1.1749  -13.6289 N   0  0  0  0  0  0  0  0  0  0  0  0
  -22.7684    1.5333  -12.6899 H   0  0  0  0  0  0  0  0  0  0  0  0
  -22.7572   -0.2768  -13.7834 C   0  0  0  0  0  0  0  0  0  0  0  0
  -22.8836   -0.9620  -12.4152 C   0  0  0  0  0  0  0  0  0  0  0  0
  -24.0445   -1.9600  -12.3200 C   0  0  0  0  0  0  0  0  0  0  0  0
  -25.1519   -1.5884  -11.3134 C   0  0  0  0  0  0  0  0  0  0  0  0
  -26.4267   -1.1360  -11.9138 N   0  0  0  0  0  0  0  0  0  0  0  0
  -27.9109   -2.2334  -13.6640 C   0  0  0  0  0  0  0  0  0  0  0  0
  -26.5615   -1.6269  -13.2953 C   0  0  0  0  0  0  0  0  0  0  0  0
  -27.5764   -1.4870  -11.0524 C   0  0  0  0  0  0  0  0  0  0  0  0
  -27.2688   -1.7733   -9.5828 C   0  0  0  0  0  0  0  0  0  0  0  0
 38 39  1  0  0  0
 39 37  1  0  0  0
 37 40  1  0  0  0
 37 36  1  0  0  0
 40 41  1  0  0  0
 36 35  1  0  0  0
 35 34  1  0  0  0
 34 33  1  0  0  0
 33 31  1  0  0  0
 31  1  1  0  0  0
 31 32  1  0  0  0
  1  2  1  0  0  0
  1 10  2  0  0  0
  2  3  2  0  0  0
  3  4  1  0  0  0
  4  5  1  0  0  0
  4  9  2  0  0  0
  5  6  2  0  0  0
  6 11  1  0  0  0
  6  7  1  0  0  0
 11 12  1  0  0  0
 11 16  2  0  0  0
 12 13  2  0  0  0
 13 17  1  0  0  0
 13 14  1  0  0  0
 17 18  1  0  0  0
 14 15  2  0  0  0
 15 19  1  0  0  0
 15 16  1  0  0  0
 19 20  1  0  0  0
  7 21  1  0  0  0
  7  8  2  0  0  0
 21 22  1  0  0  0
 21 25  1  0  0  0
 22 23  2  0  0  0
 22 24  1  0  0  0
 24 27  1  0  0  0
 24 26  1  0  0  0
 27 28  1  0  0  0
 27 29  1  0  0  0
 27 30  1  0  0  0
  8  9  1  0  0  0
  9 10  1  0  0  0
M  END
> <minimizedAffinity>
-8.81994

$$$$
