CHEMBL3939238


 45 49  0  0  0  0  0  0  0  0999 V2000
  -15.7207    0.3940  -13.0367 N   0  0  0  0  0  0  0  0  0  0  0  0
  -15.7613   -0.9973  -13.0225 C   0  0  0  0  0  0  0  0  0  0  0  0
  -16.3289   -1.6879  -13.8706 O   0  0  0  0  0  0  0  0  0  0  0  0
  -15.1296   -1.5739  -11.9207 N   0  0  0  0  0  0  0  0  0  0  0  0
  -15.3256    0.8680  -12.2408 H   0  0  0  0  0  0  0  0  0  0  0  0
  -15.2389   -1.0665  -11.0548 H   0  0  0  0  0  0  0  0  0  0  0  0
  -15.1150   -2.9977  -11.8267 C   0  0  0  0  0  0  0  0  0  0  0  0
  -13.8969   -3.6861  -11.8663 C   0  0  0  0  0  0  0  0  0  0  0  0
  -13.8593   -5.0854  -11.8665 C   0  0  0  0  0  0  0  0  0  0  0  0
  -15.0376   -5.8290  -11.7656 C   0  0  0  0  0  0  0  0  0  0  0  0
  -16.2530   -5.1342  -11.7392 C   0  0  0  0  0  0  0  0  0  0  0  0
  -17.4105   -5.8129  -11.7148 F   0  0  0  0  0  0  0  0  0  0  0  0
  -16.3012   -3.7296  -11.7512 C   0  0  0  0  0  0  0  0  0  0  0  0
  -15.0752   -7.2130  -11.7427 O   0  0  0  0  0  0  0  0  0  0  0  0
  -14.2526   -7.9358  -12.5909 C   0  0  0  0  0  0  0  0  0  0  0  0
  -13.2752   -8.8200  -12.1328 C   0  0  0  0  0  0  0  0  0  0  0  0
  -12.4690   -9.4300  -13.0573 C   0  0  0  0  0  0  0  0  0  0  0  0
  -12.6104   -9.2741  -14.3834 N   0  0  0  0  0  0  0  0  0  0  0  0
  -13.6043   -8.4982  -14.8464 C   0  0  0  0  0  0  0  0  0  0  0  0
  -14.4482   -7.8018  -13.9743 C   0  0  0  0  0  0  0  0  0  0  0  0
  -13.7782   -8.3837  -16.2434 N   0  0  0  0  0  0  0  0  0  0  0  0
  -13.1390   -7.4129  -17.0010 C   0  0  0  0  0  0  0  0  0  0  0  0
  -12.3829   -6.5424  -16.6098 O   0  0  0  0  0  0  0  0  0  0  0  0
  -14.3651   -9.0560  -16.7040 H   0  0  0  0  0  0  0  0  0  0  0  0
  -13.3999   -7.4176  -18.4799 C   0  0  0  0  0  0  0  0  0  0  0  0
  -12.7568   -6.5650  -19.5384 C   0  0  0  0  0  0  0  0  0  0  0  0
  -14.1649   -6.2748  -19.1030 C   0  0  0  0  0  0  0  0  0  0  0  0
  -16.1085    2.4616  -16.1654 C   0  0  0  0  0  0  0  0  0  0  0  0
  -15.5325    1.7571  -15.1036 C   0  0  0  0  0  0  0  0  0  0  0  0
  -16.3012    1.1974  -14.0694 C   0  0  0  0  0  0  0  0  0  0  0  0
  -17.6726    1.4800  -14.0561 C   0  0  0  0  0  0  0  0  0  0  0  0
  -18.2506    2.2836  -15.0682 C   0  0  0  0  0  0  0  0  0  0  0  0
  -17.4643    2.7290  -16.1422 C   0  0  0  0  0  0  0  0  0  0  0  0
  -19.6774    2.7683  -15.0013 C   0  0  0  0  0  0  0  0  0  0  0  0
  -20.2025    2.7427  -13.7464 F   0  0  0  0  0  0  0  0  0  0  0  0
  -19.7914    4.0577  -15.4283 F   0  0  0  0  0  0  0  0  0  0  0  0
  -20.5237    2.0447  -15.7824 F   0  0  0  0  0  0  0  0  0  0  0  0
  -15.2487    2.8985  -17.1306 O   0  0  0  0  0  0  0  0  0  0  0  0
  -11.1988    3.7802  -18.9420 C   0  0  0  0  0  0  0  0  0  0  0  0
  -12.4208    4.4537  -18.4910 N   0  0  0  0  0  0  0  0  0  0  0  0
  -13.5599    3.9888  -19.2978 C   0  0  0  0  0  0  0  0  0  0  0  0
  -14.8560    4.6511  -18.8357 C   0  0  0  0  0  0  0  0  0  0  0  0
  -15.1374    4.3157  -17.3677 C   0  0  0  0  0  0  0  0  0  0  0  0
  -13.9440    4.8141  -16.5490 C   0  0  0  0  0  0  0  0  0  0  0  0
  -12.6361    4.1945  -17.0563 C   0  0  0  0  0  0  0  0  0  0  0  0
 39 40  1  0  0  0
 40 41  1  0  0  0
 40 45  1  0  0  0
 41 42  1  0  0  0
 42 43  1  0  0  0
 43 38  1  0  0  0
 43 44  1  0  0  0
 38 28  1  0  0  0
 28 29  1  0  0  0
 28 33  2  0  0  0
 29 30  2  0  0  0
 30  1  1  0  0  0
 30 31  1  0  0  0
  1  2  1  0  0  0
  1  5  1  0  0  0
  2  3  2  0  0  0
  2  4  1  0  0  0
  4  7  1  0  0  0
  4  6  1  0  0  0
  7  8  1  0  0  0
  7 13  2  0  0  0
  8  9  2  0  0  0
  9 10  1  0  0  0
 10 14  1  0  0  0
 10 11  2  0  0  0
 14 15  1  0  0  0
 15 16  1  0  0  0
 15 20  2  0  0  0
 16 17  2  0  0  0
 17 18  1  0  0  0
 18 19  2  0  0  0
 19 21  1  0  0  0
 19 20  1  0  0  0
 21 22  1  0  0  0
 21 24  1  0  0  0
 22 23  2  0  0  0
 22 25  1  0  0  0
 25 26  1  0  0  0
 25 27  1  0  0  0
 26 27  1  0  0  0
 11 12  1  0  0  0
 11 13  1  0  0  0
 31 32  2  0  0  0
 32 34  1  0  0  0
 32 33  1  0  0  0
 34 35  1  0  0  0
 34 36  1  0  0  0
 34 37  1  0  0  0
 44 45  1  0  0  0
M  END
> <minimizedAffinity>
-9.23265

$$$$
