CHEMBL2071205


 34 37  0  0  0  0  0  0  0  0999 V2000
  -28.7595   -6.5184   -8.0097 C   0  0  0  0  0  0  0  0  0  0  0  0
  -29.9841   -7.0467   -7.9732 N   0  0  0  0  0  0  0  0  0  0  0  0
  -30.7578   -6.6209   -6.9720 C   0  0  0  0  0  0  0  0  0  0  0  0
  -30.3668   -5.6622   -6.0547 C   0  0  0  0  0  0  0  0  0  0  0  0
  -29.2606   -4.9235   -6.3798 C   0  0  0  0  0  0  0  0  0  0  0  0
  -28.4221   -5.3988   -7.3343 N   0  0  0  0  0  0  0  0  0  0  0  0
  -30.9662   -5.7096   -4.7028 C   0  0  0  0  0  0  0  0  0  0  0  0
  -32.0087   -6.5902   -4.6142 F   0  0  0  0  0  0  0  0  0  0  0  0
  -30.0779   -6.1353   -3.7528 F   0  0  0  0  0  0  0  0  0  0  0  0
  -31.4637   -4.5280   -4.2545 F   0  0  0  0  0  0  0  0  0  0  0  0
  -27.8126   -7.3806   -8.6048 N   0  0  0  0  0  0  0  0  0  0  0  0
  -27.5615   -6.9124   -9.4730 H   0  0  0  0  0  0  0  0  0  0  0  0
  -28.2723  -12.0425   -9.9375 C   0  0  0  0  0  0  0  0  0  0  0  0
  -28.0124  -10.8270   -9.2039 N   0  0  0  0  0  0  0  0  0  0  0  0
  -27.9845   -9.5512   -9.6916 C   0  0  0  0  0  0  0  0  0  0  0  0
  -27.8298   -8.7318   -8.5913 C   0  0  0  0  0  0  0  0  0  0  0  0
  -27.7351   -9.6177   -7.5024 C   0  0  0  0  0  0  0  0  0  0  0  0
  -27.8402  -10.9039   -7.8661 N   0  0  0  0  0  0  0  0  0  0  0  0
  -28.8362   -3.7631   -5.7695 N   0  0  0  0  0  0  0  0  0  0  0  0
  -27.8158   -3.7062   -5.8490 H   0  0  0  0  0  0  0  0  0  0  0  0
  -29.5260   -2.4675   -5.5428 C   0  0  0  0  0  0  0  0  0  0  0  0
  -29.2288   -1.9091   -4.1237 C   0  0  0  0  0  0  0  0  0  0  0  0
  -28.0677   -0.8823   -4.0862 C   0  0  0  0  0  0  0  0  0  0  0  0
  -27.8448   -0.1911   -5.4417 C   0  0  0  0  0  0  0  0  0  0  0  0
  -27.6299   -1.2059   -6.6055 C   0  0  0  0  0  0  0  0  0  0  0  0
  -29.1812   -1.3525   -6.5836 C   0  0  0  0  0  0  0  0  0  0  0  0
  -29.1557    0.2550   -6.1926 C   0  0  0  0  0  0  0  0  0  0  0  0
  -28.8637    1.2609   -7.3400 C   0  0  0  0  0  0  0  0  0  0  0  0
  -30.2133    0.9493   -5.3242 C   0  0  0  0  0  0  0  0  0  0  0  0
  -29.1101   -2.9544   -3.0223 C   0  0  0  0  0  0  0  0  0  0  0  0
  -29.9484   -2.7905   -1.9571 N   0  0  0  0  0  0  0  0  0  0  0  0
  -28.2800   -3.8565   -3.0192 O   0  0  0  0  0  0  0  0  0  0  0  0
  -30.7819   -2.2213   -2.0012 H   0  0  0  0  0  0  0  0  0  0  0  0
  -29.9152   -3.5110   -1.2464 H   0  0  0  0  0  0  0  0  0  0  0  0
 13 14  1  0  0  0
 14 15  1  0  0  0
 14 18  1  0  0  0
 15 16  2  0  0  0
 16 11  1  0  0  0
 16 17  1  0  0  0
 11  1  1  0  0  0
 11 12  1  0  0  0
  1  2  1  0  0  0
  1  6  2  0  0  0
  2  3  2  0  0  0
  3  4  1  0  0  0
  4  7  1  0  0  0
  4  5  2  0  0  0
  7  8  1  0  0  0
  7  9  1  0  0  0
  7 10  1  0  0  0
  5 19  1  0  0  0
  5  6  1  0  0  0
 19 21  1  0  0  0
 19 20  1  0  0  0
 21 22  1  0  0  0
 21 26  1  0  0  0
 22 30  1  0  0  0
 22 23  1  0  0  0
 30 31  1  0  0  0
 30 32  2  0  0  0
 31 33  1  0  0  0
 31 34  1  0  0  0
 23 24  1  0  0  0
 24 25  1  0  0  0
 24 27  1  0  0  0
 25 26  1  0  0  0
 26 27  1  0  0  0
 27 28  1  0  0  0
 27 29  1  0  0  0
 17 18  2  0  0  0
M  END
> <minimizedAffinity>
-8.38058

$$$$
