CHEMBL3977708


 35 39  0  0  0  0  0  0  0  0999 V2000
  -16.9940    1.9303  -15.5212 N   0  0  0  0  0  0  0  0  0  0  0  0
  -18.4421    1.8971  -15.4615 C   0  0  0  0  0  0  0  0  0  0  0  0
  -19.0465    3.1340  -15.6120 C   0  0  0  0  0  0  0  0  0  0  0  0
  -20.3081    3.3530  -15.1053 C   0  0  0  0  0  0  0  0  0  0  0  0
  -21.0708    2.3374  -14.5745 C   0  0  0  0  0  0  0  0  0  0  0  0
  -22.1908    2.7429  -13.9620 N   0  0  0  0  0  0  0  0  0  0  0  0
  -23.0628    1.7862  -13.6163 C   0  0  0  0  0  0  0  0  0  0  0  0
  -22.8717    0.4625  -13.9567 C   0  0  0  0  0  0  0  0  0  0  0  0
  -21.6603    0.0231  -14.4467 N   0  0  0  0  0  0  0  0  0  0  0  0
  -20.6754    0.9867  -14.7114 C   0  0  0  0  0  0  0  0  0  0  0  0
  -19.2863    0.8003  -15.0997 C   0  0  0  0  0  0  0  0  0  0  0  0
  -24.1007   -0.2984  -14.1685 C   0  0  0  0  0  0  0  0  0  0  0  0
  -24.7283   -0.8651  -15.2966 C   0  0  0  0  0  0  0  0  0  0  0  0
  -25.7819   -1.6340  -14.9768 N   0  0  0  0  0  0  0  0  0  0  0  0
  -25.8365   -1.5585  -13.6351 N   0  0  0  0  0  0  0  0  0  0  0  0
  -26.9870   -2.0389  -12.9045 C   0  0  0  0  0  0  0  0  0  0  0  0
  -24.7688   -0.8989  -13.1030 C   0  0  0  0  0  0  0  0  0  0  0  0
  -15.3749   -0.4401  -13.0629 C   0  0  0  0  0  0  0  0  0  0  0  0
  -14.2949   -0.9141  -13.7872 C   0  0  0  0  0  0  0  0  0  0  0  0
  -14.0065   -0.3515  -15.0314 C   0  0  0  0  0  0  0  0  0  0  0  0
  -14.8869    0.5943  -15.6069 C   0  0  0  0  0  0  0  0  0  0  0  0
  -16.0380    1.0361  -14.9322 C   0  0  0  0  0  0  0  0  0  0  0  0
  -16.1759    0.5711  -13.6044 C   0  0  0  0  0  0  0  0  0  0  0  0
  -15.6020   -2.2708  -11.5719 C   0  0  0  0  0  0  0  0  0  0  0  0
  -15.7490   -0.8754  -11.8193 O   0  0  0  0  0  0  0  0  0  0  0  0
  -12.9022   -0.6897  -15.7768 O   0  0  0  0  0  0  0  0  0  0  0  0
  -13.0887   -0.6932  -17.1944 C   0  0  0  0  0  0  0  0  0  0  0  0
  -16.5558    3.4166  -15.6052 C   0  0  0  0  0  0  0  0  0  0  0  0
  -15.5396    3.4030  -16.7355 C   0  0  0  0  0  0  0  0  0  0  0  0
  -14.6679    3.3912  -17.7051 C   0  0  0  0  0  0  0  0  0  0  0  0
  -13.6842    3.4371  -18.7341 C   0  0  0  0  0  0  0  0  0  0  0  0
  -13.2413    2.3423  -19.3141 N   0  0  0  0  0  0  0  0  0  0  0  0
  -12.2961    2.6751  -20.2656 C   0  0  0  0  0  0  0  0  0  0  0  0
  -12.0397    4.0216  -20.4071 C   0  0  0  0  0  0  0  0  0  0  0  0
  -13.0178    4.9107  -19.3159 S   0  0  0  0  0  0  0  0  0  0  0  0
 24 25  1  0  0  0
 25 18  1  0  0  0
 18 19  1  0  0  0
 18 23  2  0  0  0
 19 20  2  0  0  0
 20 26  1  0  0  0
 20 21  1  0  0  0
 26 27  1  0  0  0
 21 22  2  0  0  0
 22  1  1  0  0  0
 22 23  1  0  0  0
  1 28  1  0  0  0
  1  2  1  0  0  0
 28 29  1  0  0  0
 29 30  3  0  0  0
 30 31  1  0  0  0
 31 32  2  0  0  0
 31 35  1  0  0  0
 32 33  1  0  0  0
 33 34  2  0  0  0
 34 35  1  0  0  0
  2  3  1  0  0  0
  2 11  2  0  0  0
  3  4  2  0  0  0
  4  5  1  0  0  0
  5  6  1  0  0  0
  5 10  2  0  0  0
  6  7  2  0  0  0
  7  8  1  0  0  0
  8 12  1  0  0  0
  8  9  2  0  0  0
 12 13  1  0  0  0
 12 17  2  0  0  0
 13 14  2  0  0  0
 14 15  1  0  0  0
 15 16  1  0  0  0
 15 17  1  0  0  0
  9 10  1  0  0  0
 10 11  1  0  0  0
M  END
> <minimizedAffinity>
-8.62509

$$$$
