CHEMBL94542


 20 23  0  0  0  0  0  0  0  0999 V2000
  -29.7775   -2.5942   -4.6799 C   0  0  0  0  0  0  0  0  0  0  0  0
  -30.2739   -3.1263   -3.4712 C   0  0  0  0  0  0  0  0  0  0  0  0
  -30.5983   -4.4159   -3.5542 N   0  0  0  0  0  0  0  0  0  0  0  0
  -30.3172   -4.7456   -4.8365 N   0  0  0  0  0  0  0  0  0  0  0  0
  -30.5030   -5.9851   -5.4374 C   0  0  0  0  0  0  0  0  0  0  0  0
  -30.1835   -6.1709   -6.7269 C   0  0  0  0  0  0  0  0  0  0  0  0
  -29.6203   -4.9660   -7.4107 C   0  0  0  0  0  0  0  0  0  0  0  0
  -29.4362   -3.7935   -6.8796 N   0  0  0  0  0  0  0  0  0  0  0  0
  -29.7981   -3.6620   -5.5610 C   0  0  0  0  0  0  0  0  0  0  0  0
  -30.3747   -7.4463   -7.4114 C   0  0  0  0  0  0  0  0  0  0  0  0
  -29.3490   -7.9896   -8.1853 C   0  0  0  0  0  0  0  0  0  0  0  0
  -29.5829   -9.1923   -8.8304 C   0  0  0  0  0  0  0  0  0  0  0  0
  -30.7481   -9.8690   -8.7538 N   0  0  0  0  0  0  0  0  0  0  0  0
  -31.7265   -9.3195   -8.0034 C   0  0  0  0  0  0  0  0  0  0  0  0
  -31.5912   -8.1225   -7.3205 C   0  0  0  0  0  0  0  0  0  0  0  0
  -30.0721   -0.2438   -5.4234 C   0  0  0  0  0  0  0  0  0  0  0  0
  -29.3543   -1.2576   -4.9216 C   0  0  0  0  0  0  0  0  0  0  0  0
  -27.9559   -0.8293   -4.5945 C   0  0  0  0  0  0  0  0  0  0  0  0
  -27.8552    0.5596   -5.2314 C   0  0  0  0  0  0  0  0  0  0  0  0
  -29.2832    1.0179   -5.5122 C   0  0  0  0  0  0  0  0  0  0  0  0
 16 17  2  0  0  0
 16 20  1  0  0  0
 17  1  1  0  0  0
 17 18  1  0  0  0
  1  2  1  0  0  0
  1  9  2  0  0  0
  2  3  2  0  0  0
  3  4  1  0  0  0
  4  5  1  0  0  0
  4  9  1  0  0  0
  5  6  2  0  0  0
  6 10  1  0  0  0
  6  7  1  0  0  0
 10 11  1  0  0  0
 10 15  2  0  0  0
 11 12  2  0  0  0
 12 13  1  0  0  0
 13 14  2  0  0  0
 14 15  1  0  0  0
  7  8  2  0  0  0
  8  9  1  0  0  0
 18 19  1  0  0  0
 19 20  1  0  0  0
M  END
> <minimizedAffinity>
-8.32579

$$$$
