CHEMBL56569


 35 38  0  0  0  0  0  0  0  0999 V2000
  -28.6904   -1.4969   -5.1258 C   0  0  0  0  0  0  0  0  0  0  0  0
  -28.4315   -1.7605   -3.7644 C   0  0  0  0  0  0  0  0  0  0  0  0
  -28.3038   -3.0725   -3.3172 C   0  0  0  0  0  0  0  0  0  0  0  0
  -28.4201   -4.0784   -4.2584 C   0  0  0  0  0  0  0  0  0  0  0  0
  -28.6516   -3.8444   -5.6228 C   0  0  0  0  0  0  0  0  0  0  0  0
  -28.7922   -2.5386   -6.0746 C   0  0  0  0  0  0  0  0  0  0  0  0
  -28.6671   -5.1832   -6.2580 C   0  0  0  0  0  0  0  0  0  0  0  0
  -28.8031   -5.4806   -7.5624 C   0  0  0  0  0  0  0  0  0  0  0  0
  -28.4649   -6.1887   -5.1480 C   0  0  0  0  0  0  0  0  0  0  0  0
  -28.4391   -7.4024   -5.2111 O   0  0  0  0  0  0  0  0  0  0  0  0
  -28.3128   -5.4382   -3.9993 N   0  0  0  0  0  0  0  0  0  0  0  0
  -28.1611   -5.8589   -3.0976 H   0  0  0  0  0  0  0  0  0  0  0  0
  -28.7881   -6.8125   -8.0718 C   0  0  0  0  0  0  0  0  0  0  0  0
  -27.6446   -7.2516   -8.7010 N   0  0  0  0  0  0  0  0  0  0  0  0
  -27.8336   -8.5257   -9.1572 C   0  0  0  0  0  0  0  0  0  0  0  0
  -29.1065   -8.9361   -8.8156 C   0  0  0  0  0  0  0  0  0  0  0  0
  -29.7220   -7.8505   -8.1048 C   0  0  0  0  0  0  0  0  0  0  0  0
  -29.6226  -10.2886   -9.2135 C   0  0  0  0  0  0  0  0  0  0  0  0
  -28.5091  -11.2199   -9.7283 C   0  0  0  0  0  0  0  0  0  0  0  0
  -27.5029  -10.4900  -10.6282 C   0  0  0  0  0  0  0  0  0  0  0  0
  -26.8121   -9.3371   -9.8792 C   0  0  0  0  0  0  0  0  0  0  0  0
  -26.7921   -6.7181   -8.8038 H   0  0  0  0  0  0  0  0  0  0  0  0
  -31.0965   -7.7798   -7.4969 C   0  0  0  0  0  0  0  0  0  0  0  0
  -31.5140   -8.9086   -6.5651 C   0  0  0  0  0  0  0  0  0  0  0  0
  -32.6834   -9.7862   -6.9716 C   0  0  0  0  0  0  0  0  0  0  0  0
  -33.1664  -10.7013   -6.0954 N   0  0  0  0  0  0  0  0  0  0  0  0
  -33.2392   -9.6388   -8.0602 O   0  0  0  0  0  0  0  0  0  0  0  0
  -32.5973  -11.1175   -5.3583 H   0  0  0  0  0  0  0  0  0  0  0  0
  -33.8689  -11.3312   -6.4585 H   0  0  0  0  0  0  0  0  0  0  0  0
  -28.7442    0.2091   -5.6420 S   0  0  0  0  0  0  0  0  0  0  0  0
  -28.4074    0.2491   -7.0474 O   0  0  0  0  0  0  0  0  0  0  0  0
  -28.0301    1.0032   -4.6670 O   0  0  0  0  0  0  0  0  0  0  0  0
  -30.8946    1.6725   -6.3887 C   0  0  0  0  0  0  0  0  0  0  0  0
  -30.3802    0.5929   -5.5476 N   0  0  0  0  0  0  0  0  0  0  0  0
  -30.9477   -0.2537   -5.4901 H   0  0  0  0  0  0  0  0  0  0  0  0
 33 34  1  0  0  0
 34 30  1  0  0  0
 34 35  1  0  0  0
 30 31  2  0  0  0
 30 32  2  0  0  0
 30  1  1  0  0  0
  1  2  1  0  0  0
  1  6  2  0  0  0
  2  3  2  0  0  0
  3  4  1  0  0  0
  4  5  2  0  0  0
  4 11  1  0  0  0
  5  6  1  0  0  0
  5  7  1  0  0  0
  7  8  2  0  0  0
  7  9  1  0  0  0
  8 13  1  0  0  0
 13 14  1  0  0  0
 13 17  2  0  0  0
 14 15  1  0  0  0
 14 22  1  0  0  0
 15 16  2  0  0  0
 15 21  1  0  0  0
 16 17  1  0  0  0
 16 18  1  0  0  0
 17 23  1  0  0  0
 23 24  1  0  0  0
 24 25  1  0  0  0
 25 26  1  0  0  0
 25 27  2  0  0  0
 26 28  1  0  0  0
 26 29  1  0  0  0
 18 19  1  0  0  0
 19 20  1  0  0  0
 20 21  1  0  0  0
  9 10  2  0  0  0
  9 11  1  0  0  0
 11 12  1  0  0  0
M  END
> <minimizedAffinity>
-9.38217

$$$$
