CHEMBL245377


 40 45  0  0  0  0  0  0  0  0999 V2000
  -27.9322   -1.3664   -7.2613 C   0  0  0  0  0  0  0  0  0  0  0  0
  -28.0606   -0.0026   -6.9610 C   0  0  0  0  0  0  0  0  0  0  0  0
  -28.8239    0.4332   -5.8552 C   0  0  0  0  0  0  0  0  0  0  0  0
  -29.4440   -0.4842   -5.0029 C   0  0  0  0  0  0  0  0  0  0  0  0
  -29.2837   -1.8179   -5.3019 C   0  0  0  0  0  0  0  0  0  0  0  0
  -28.5382   -2.2855   -6.4194 C   0  0  0  0  0  0  0  0  0  0  0  0
  -28.4446   -3.8174   -6.4699 C   0  0  0  0  0  0  0  0  0  0  0  0
  -29.2589   -4.1154   -5.2600 C   0  0  0  0  0  0  0  0  0  0  0  0
  -29.7415   -2.9732   -4.6143 C   0  0  0  0  0  0  0  0  0  0  0  0
  -30.4867   -3.2227   -3.5476 N   0  0  0  0  0  0  0  0  0  0  0  0
  -30.4901   -4.5823   -3.5295 N   0  0  0  0  0  0  0  0  0  0  0  0
  -29.7506   -5.1662   -4.5358 C   0  0  0  0  0  0  0  0  0  0  0  0
  -31.0188   -5.0468   -2.8009 H   0  0  0  0  0  0  0  0  0  0  0  0
  -29.5578   -6.6195   -4.7650 C   0  0  0  0  0  0  0  0  0  0  0  0
  -29.0053   -7.4587   -3.8232 C   0  0  0  0  0  0  0  0  0  0  0  0
  -28.9181   -9.0768   -4.3759 S   0  0  0  0  0  0  0  0  0  0  0  0
  -29.5912   -8.6559   -5.8856 C   0  0  0  0  0  0  0  0  0  0  0  0
  -29.9058   -7.3180   -5.9575 C   0  0  0  0  0  0  0  0  0  0  0  0
  -29.7940   -9.5912   -6.9371 C   0  0  0  0  0  0  0  0  0  0  0  0
  -29.9630  -10.4310   -7.9201 C   0  0  0  0  0  0  0  0  0  0  0  0
  -30.1599  -11.4100   -9.0661 C   0  0  0  0  0  0  0  0  0  0  0  0
  -28.8839  -11.7639   -9.5968 O   0  0  0  0  0  0  0  0  0  0  0  0
  -28.4165  -10.9227  -10.5715 C   0  0  0  0  0  0  0  0  0  0  0  0
  -29.0422  -10.7091  -11.8004 C   0  0  0  0  0  0  0  0  0  0  0  0
  -28.4747   -9.8468  -12.7385 C   0  0  0  0  0  0  0  0  0  0  0  0
  -27.2889   -9.1784  -12.4439 C   0  0  0  0  0  0  0  0  0  0  0  0
  -26.6816   -9.3555  -11.2028 C   0  0  0  0  0  0  0  0  0  0  0  0
  -27.2463  -10.2233  -10.2645 C   0  0  0  0  0  0  0  0  0  0  0  0
  -27.5943   -1.5214   -9.6734 C   0  0  0  0  0  0  0  0  0  0  0  0
  -28.6555   -0.9603   -9.9665 O   0  0  0  0  0  0  0  0  0  0  0  0
  -27.1581   -1.7631   -8.3806 N   0  0  0  0  0  0  0  0  0  0  0  0
  -26.1482   -1.7568   -8.2697 H   0  0  0  0  0  0  0  0  0  0  0  0
  -26.6212   -1.9708  -10.7708 C   0  0  0  0  0  0  0  0  0  0  0  0
  -22.6149   -0.8906  -13.4421 C   0  0  0  0  0  0  0  0  0  0  0  0
  -24.0563   -0.7298  -13.2835 N   0  0  0  0  0  0  0  0  0  0  0  0
  -24.7489   -2.0283  -13.3331 C   0  0  0  0  0  0  0  0  0  0  0  0
  -26.2795   -1.8370  -13.2115 C   0  0  0  0  0  0  0  0  0  0  0  0
  -26.7372   -1.1350  -11.9849 N   0  0  0  0  0  0  0  0  0  0  0  0
  -25.9382    0.1106  -11.8518 C   0  0  0  0  0  0  0  0  0  0  0  0
  -24.4013   -0.0353  -12.0326 C   0  0  0  0  0  0  0  0  0  0  0  0
 34 35  1  0  0  0
 35 36  1  0  0  0
 35 40  1  0  0  0
 36 37  1  0  0  0
 37 38  1  0  0  0
 38 33  1  0  0  0
 38 39  1  0  0  0
 33 29  1  0  0  0
 29 30  2  0  0  0
 29 31  1  0  0  0
 31  1  1  0  0  0
 31 32  1  0  0  0
  1  2  1  0  0  0
  1  6  2  0  0  0
  2  3  2  0  0  0
  3  4  1  0  0  0
  4  5  2  0  0  0
  5  6  1  0  0  0
  5  9  1  0  0  0
  6  7  1  0  0  0
  7  8  1  0  0  0
  8  9  1  0  0  0
  8 12  2  0  0  0
  9 10  2  0  0  0
 10 11  1  0  0  0
 11 12  1  0  0  0
 11 13  1  0  0  0
 12 14  1  0  0  0
 14 15  2  0  0  0
 14 18  1  0  0  0
 15 16  1  0  0  0
 16 17  1  0  0  0
 17 19  1  0  0  0
 17 18  2  0  0  0
 19 20  3  0  0  0
 20 21  1  0  0  0
 21 22  1  0  0  0
 22 23  1  0  0  0
 23 24  1  0  0  0
 23 28  2  0  0  0
 24 25  2  0  0  0
 25 26  1  0  0  0
 26 27  2  0  0  0
 27 28  1  0  0  0
 39 40  1  0  0  0
M  END
> <minimizedAffinity>
-9.25130

$$$$
