CHEMBL1998829


 27 30  0  0  0  0  0  0  0  0999 V2000
  -27.8615   -7.8111   -4.6450 C   0  0  0  0  0  0  0  0  0  0  0  0
  -28.8605   -8.3214   -3.8119 C   0  0  0  0  0  0  0  0  0  0  0  0
  -29.8486   -7.6107   -3.2170 N   0  0  0  0  0  0  0  0  0  0  0  0
  -29.8090   -6.3065   -3.5273 C   0  0  0  0  0  0  0  0  0  0  0  0
  -30.7435   -5.4081   -3.1056 N   0  0  0  0  0  0  0  0  0  0  0  0
  -30.4554   -4.1708   -3.6126 C   0  0  0  0  0  0  0  0  0  0  0  0
  -29.3051   -4.2690   -4.3821 C   0  0  0  0  0  0  0  0  0  0  0  0
  -28.8791   -5.6406   -4.3184 C   0  0  0  0  0  0  0  0  0  0  0  0
  -27.8449   -6.4273   -4.8753 C   0  0  0  0  0  0  0  0  0  0  0  0
  -31.5377   -5.6596   -2.5359 H   0  0  0  0  0  0  0  0  0  0  0  0
  -28.7705   -3.1360   -5.1313 C   0  0  0  0  0  0  0  0  0  0  0  0
  -28.2505   -2.0150   -4.4745 C   0  0  0  0  0  0  0  0  0  0  0  0
  -27.7011   -0.9554   -5.2046 C   0  0  0  0  0  0  0  0  0  0  0  0
  -27.6784   -0.9997   -6.5974 C   0  0  0  0  0  0  0  0  0  0  0  0
  -28.2100   -2.0992   -7.2643 C   0  0  0  0  0  0  0  0  0  0  0  0
  -28.7498   -3.1608   -6.5355 C   0  0  0  0  0  0  0  0  0  0  0  0
  -25.4528   -8.9607   -3.4842 O   0  0  0  0  0  0  0  0  0  0  0  0
  -25.7592   -9.1213   -4.6617 C   0  0  0  0  0  0  0  0  0  0  0  0
  -26.8859   -8.6151   -5.2859 N   0  0  0  0  0  0  0  0  0  0  0  0
  -27.1271   -8.9846   -6.1981 H   0  0  0  0  0  0  0  0  0  0  0  0
  -24.8900  -10.0023   -5.4756 C   0  0  0  0  0  0  0  0  0  0  0  0
  -23.5061   -9.9378   -5.2540 C   0  0  0  0  0  0  0  0  0  0  0  0
  -22.6337  -10.7058   -6.0252 C   0  0  0  0  0  0  0  0  0  0  0  0
  -23.1460  -11.5275   -7.0269 C   0  0  0  0  0  0  0  0  0  0  0  0
  -22.0715  -12.4608   -7.9932 Cl  0  0  0  0  0  0  0  0  0  0  0  0
  -24.5219  -11.5889   -7.2607 C   0  0  0  0  0  0  0  0  0  0  0  0
  -25.4006  -10.8254   -6.4840 C   0  0  0  0  0  0  0  0  0  0  0  0
 17 18  2  0  0  0
 18 19  1  0  0  0
 18 21  1  0  0  0
 19  1  1  0  0  0
 19 20  1  0  0  0
  1  2  1  0  0  0
  1  9  2  0  0  0
  2  3  2  0  0  0
  3  4  1  0  0  0
  4  5  1  0  0  0
  4  8  2  0  0  0
  5  6  1  0  0  0
  5 10  1  0  0  0
  6  7  2  0  0  0
  7 11  1  0  0  0
  7  8  1  0  0  0
 11 12  1  0  0  0
 11 16  2  0  0  0
 12 13  2  0  0  0
 13 14  1  0  0  0
 14 15  2  0  0  0
 15 16  1  0  0  0
  8  9  1  0  0  0
 21 22  1  0  0  0
 21 27  2  0  0  0
 22 23  2  0  0  0
 23 24  1  0  0  0
 24 25  1  0  0  0
 24 26  2  0  0  0
 26 27  1  0  0  0
M  END
> <minimizedAffinity>
-8.60956

$$$$
