CHEMBL3690395


 32 35  0  0  0  0  0  0  0  0999 V2000
  -29.8695   -6.1766   -3.5042 C   0  0  0  0  0  0  0  0  0  0  0  0
  -31.2148   -6.0876   -3.1470 C   0  0  0  0  0  0  0  0  0  0  0  0
  -31.9851   -5.0035   -3.5579 C   0  0  0  0  0  0  0  0  0  0  0  0
  -31.4075   -3.9787   -4.3020 C   0  0  0  0  0  0  0  0  0  0  0  0
  -30.0356   -3.9781   -4.5780 C   0  0  0  0  0  0  0  0  0  0  0  0
  -29.2855   -5.1131   -4.2150 C   0  0  0  0  0  0  0  0  0  0  0  0
  -29.3825   -2.8158   -5.2002 C   0  0  0  0  0  0  0  0  0  0  0  0
  -29.2596   -1.5118   -4.7469 C   0  0  0  0  0  0  0  0  0  0  0  0
  -28.6252   -0.7024   -5.6521 N   0  0  0  0  0  0  0  0  0  0  0  0
  -28.3508   -1.4777   -6.6791 C   0  0  0  0  0  0  0  0  0  0  0  0
  -27.7219   -1.1832   -7.9277 C   0  0  0  0  0  0  0  0  0  0  0  0
  -27.5589   -2.1378   -8.8760 C   0  0  0  0  0  0  0  0  0  0  0  0
  -28.0099   -3.5069   -8.5801 C   0  0  0  0  0  0  0  0  0  0  0  0
  -28.6325   -3.7813   -7.4252 C   0  0  0  0  0  0  0  0  0  0  0  0
  -28.7966   -2.7812   -6.4650 N   0  0  0  0  0  0  0  0  0  0  0  0
  -26.9410   -1.7839  -10.1812 C   0  0  0  0  0  0  0  0  0  0  0  0
  -27.6916   -1.7246  -11.3592 C   0  0  0  0  0  0  0  0  0  0  0  0
  -27.1666   -1.4299  -12.5737 N   0  0  0  0  0  0  0  0  0  0  0  0
  -25.8419   -1.1786  -12.5744 C   0  0  0  0  0  0  0  0  0  0  0  0
  -25.0842   -1.2163  -11.4160 C   0  0  0  0  0  0  0  0  0  0  0  0
  -25.6111   -1.5145  -10.2020 N   0  0  0  0  0  0  0  0  0  0  0  0
  -28.0431   -7.7631   -5.2363 O   0  0  0  0  0  0  0  0  0  0  0  0
  -28.2206   -7.9733   -4.0439 C   0  0  0  0  0  0  0  0  0  0  0  0
  -27.5336   -8.9756   -3.3912 N   0  0  0  0  0  0  0  0  0  0  0  0
  -29.0587   -7.2902   -3.1899 N   0  0  0  0  0  0  0  0  0  0  0  0
  -27.9868   -9.3747   -2.5822 H   0  0  0  0  0  0  0  0  0  0  0  0
  -29.0628   -7.5910   -2.2273 H   0  0  0  0  0  0  0  0  0  0  0  0
  -26.7052   -9.8910   -4.1869 C   0  0  0  0  0  0  0  0  0  0  0  0
  -25.1957   -9.6105   -4.1444 C   0  0  0  0  0  0  0  0  0  0  0  0
  -24.9269   -8.3487   -3.7342 F   0  0  0  0  0  0  0  0  0  0  0  0
  -24.5339  -10.4653   -3.3389 F   0  0  0  0  0  0  0  0  0  0  0  0
  -24.6686   -9.7346   -5.3884 F   0  0  0  0  0  0  0  0  0  0  0  0
 22 23  2  0  0  0
 23 24  1  0  0  0
 23 25  1  0  0  0
 24 28  1  0  0  0
 24 26  1  0  0  0
 28 29  1  0  0  0
 29 30  1  0  0  0
 29 31  1  0  0  0
 29 32  1  0  0  0
 25  1  1  0  0  0
 25 27  1  0  0  0
  1  2  1  0  0  0
  1  6  2  0  0  0
  2  3  2  0  0  0
  3  4  1  0  0  0
  4  5  2  0  0  0
  5  7  1  0  0  0
  5  6  1  0  0  0
  7  8  2  0  0  0
  7 15  1  0  0  0
  8  9  1  0  0  0
  9 10  2  0  0  0
 10 11  1  0  0  0
 10 15  1  0  0  0
 11 12  2  0  0  0
 12 16  1  0  0  0
 12 13  1  0  0  0
 16 17  1  0  0  0
 16 21  2  0  0  0
 17 18  2  0  0  0
 18 19  1  0  0  0
 19 20  2  0  0  0
 20 21  1  0  0  0
 13 14  2  0  0  0
 14 15  1  0  0  0
M  END
> <minimizedAffinity>
-9.41116

$$$$
