CHEMBL1982957


 27 30  0  0  0  0  0  0  0  0999 V2000
  -17.9696    1.4170  -14.9894 C   0  0  0  0  0  0  0  0  0  0  0  0
  -17.0283    2.1915  -15.6840 C   0  0  0  0  0  0  0  0  0  0  0  0
  -15.6950    1.9618  -15.7998 N   0  0  0  0  0  0  0  0  0  0  0  0
  -15.3030    0.8648  -15.1287 C   0  0  0  0  0  0  0  0  0  0  0  0
  -14.0078    0.4340  -15.0469 N   0  0  0  0  0  0  0  0  0  0  0  0
  -13.9454   -0.7057  -14.2835 C   0  0  0  0  0  0  0  0  0  0  0  0
  -15.2295   -1.0222  -13.8700 C   0  0  0  0  0  0  0  0  0  0  0  0
  -16.0971   -0.0123  -14.4022 C   0  0  0  0  0  0  0  0  0  0  0  0
  -17.4772    0.2624  -14.3637 C   0  0  0  0  0  0  0  0  0  0  0  0
  -13.2344    0.9046  -15.4912 H   0  0  0  0  0  0  0  0  0  0  0  0
  -21.7004    1.3222  -14.2298 C   0  0  0  0  0  0  0  0  0  0  0  0
  -22.0465    2.6673  -14.3773 C   0  0  0  0  0  0  0  0  0  0  0  0
  -21.0879    3.5861  -14.8002 C   0  0  0  0  0  0  0  0  0  0  0  0
  -19.7767    3.1704  -15.0491 C   0  0  0  0  0  0  0  0  0  0  0  0
  -19.3817    1.8353  -14.8578 C   0  0  0  0  0  0  0  0  0  0  0  0
  -20.3766    0.9187  -14.4642 C   0  0  0  0  0  0  0  0  0  0  0  0
  -22.5582   -0.1645  -12.4912 N   0  0  0  0  0  0  0  0  0  0  0  0
  -22.6782    0.2970  -13.7726 C   0  0  0  0  0  0  0  0  0  0  0  0
  -23.5793   -0.1020  -14.4980 O   0  0  0  0  0  0  0  0  0  0  0  0
  -23.2823   -0.7964  -12.1734 H   0  0  0  0  0  0  0  0  0  0  0  0
  -21.9974    0.2966  -11.7907 H   0  0  0  0  0  0  0  0  0  0  0  0
  -15.5631   -2.1999  -13.0785 C   0  0  0  0  0  0  0  0  0  0  0  0
  -15.5785   -2.1361  -11.6782 C   0  0  0  0  0  0  0  0  0  0  0  0
  -16.0302   -3.2178  -10.9187 C   0  0  0  0  0  0  0  0  0  0  0  0
  -16.4432   -4.3878  -11.5515 C   0  0  0  0  0  0  0  0  0  0  0  0
  -16.3855   -4.4824  -12.9404 C   0  0  0  0  0  0  0  0  0  0  0  0
  -15.9478   -3.3953  -13.7008 C   0  0  0  0  0  0  0  0  0  0  0  0
 17 18  1  0  0  0
 17 20  1  0  0  0
 17 21  1  0  0  0
 18 19  2  0  0  0
 18 11  1  0  0  0
 11 12  1  0  0  0
 11 16  2  0  0  0
 12 13  2  0  0  0
 13 14  1  0  0  0
 14 15  2  0  0  0
 15  1  1  0  0  0
 15 16  1  0  0  0
  1  2  1  0  0  0
  1  9  2  0  0  0
  2  3  2  0  0  0
  3  4  1  0  0  0
  4  5  1  0  0  0
  4  8  2  0  0  0
  5  6  1  0  0  0
  5 10  1  0  0  0
  6  7  2  0  0  0
  7 22  1  0  0  0
  7  8  1  0  0  0
 22 23  1  0  0  0
 22 27  2  0  0  0
 23 24  2  0  0  0
 24 25  1  0  0  0
 25 26  2  0  0  0
 26 27  1  0  0  0
  8  9  1  0  0  0
M  END
> <minimizedAffinity>
-10.10170

$$$$
