CHEMBL2001641


 20 22  0  0  0  0  0  0  0  0999 V2000
  -28.8632   -0.6828   -6.1963 C   0  0  0  0  0  0  0  0  0  0  0  0
  -29.6069   -1.7337   -5.7100 C   0  0  0  0  0  0  0  0  0  0  0  0
  -29.1445   -2.8453   -6.3646 N   0  0  0  0  0  0  0  0  0  0  0  0
  -28.1364   -2.4846   -7.1978 N   0  0  0  0  0  0  0  0  0  0  0  0
  -27.9716   -1.1701   -7.1140 N   0  0  0  0  0  0  0  0  0  0  0  0
  -29.5963   -4.1856   -6.2438 C   0  0  0  0  0  0  0  0  0  0  0  0
  -30.2784   -4.5927   -5.0855 C   0  0  0  0  0  0  0  0  0  0  0  0
  -30.7388   -5.9044   -4.9327 C   0  0  0  0  0  0  0  0  0  0  0  0
  -30.4575   -6.7985   -5.9653 C   0  0  0  0  0  0  0  0  0  0  0  0
  -30.7306   -8.1332   -6.1072 N   0  0  0  0  0  0  0  0  0  0  0  0
  -30.2800   -8.6666   -7.2557 N   0  0  0  0  0  0  0  0  0  0  0  0
  -29.7048   -7.6304   -7.8728 C   0  0  0  0  0  0  0  0  0  0  0  0
  -29.7815   -6.4341   -7.1237 C   0  0  0  0  0  0  0  0  0  0  0  0
  -29.3556   -5.1014   -7.2864 C   0  0  0  0  0  0  0  0  0  0  0  0
  -31.2081   -8.7391   -5.4496 H   0  0  0  0  0  0  0  0  0  0  0  0
  -28.1251    1.0679   -4.5736 C   0  0  0  0  0  0  0  0  0  0  0  0
  -28.9410    0.7714   -5.8363 C   0  0  0  0  0  0  0  0  0  0  0  0
  -30.3958    1.2160   -5.6547 C   0  0  0  0  0  0  0  0  0  0  0  0
  -28.3828    1.5733   -6.8951 O   0  0  0  0  0  0  0  0  0  0  0  0
  -28.4650    2.5043   -6.6300 H   0  0  0  0  0  0  0  0  0  0  0  0
 16 17  1  0  0  0
 17 18  1  0  0  0
 17 19  1  0  0  0
 17  1  1  0  0  0
 19 20  1  0  0  0
  1  2  2  0  0  0
  1  5  1  0  0  0
  2  3  1  0  0  0
  3  6  1  0  0  0
  3  4  1  0  0  0
  6  7  1  0  0  0
  6 14  2  0  0  0
  7  8  2  0  0  0
  8  9  1  0  0  0
  9 10  1  0  0  0
  9 13  2  0  0  0
 10 11  1  0  0  0
 10 15  1  0  0  0
 11 12  2  0  0  0
 12 13  1  0  0  0
 13 14  1  0  0  0
  4  5  2  0  0  0
M  END
> <minimizedAffinity>
-7.73519

$$$$
