CHEMBL3892529


 39 42  0  0  0  0  0  0  0  0999 V2000
  -29.7134   -6.5402   -6.0473 N   0  0  0  0  0  0  0  0  0  0  0  0
  -29.3648   -5.1975   -6.3779 C   0  0  0  0  0  0  0  0  0  0  0  0
  -29.4395   -4.1902   -5.4123 C   0  0  0  0  0  0  0  0  0  0  0  0
  -29.0518   -2.8793   -5.6993 C   0  0  0  0  0  0  0  0  0  0  0  0
  -28.5439   -2.5334   -6.9417 C   0  0  0  0  0  0  0  0  0  0  0  0
  -28.1492   -1.2683   -7.1727 N   0  0  0  0  0  0  0  0  0  0  0  0
  -27.6214   -1.0213   -8.3962 C   0  0  0  0  0  0  0  0  0  0  0  0
  -27.4749   -1.9973   -9.3704 C   0  0  0  0  0  0  0  0  0  0  0  0
  -27.8986   -3.2657   -9.1476 N   0  0  0  0  0  0  0  0  0  0  0  0
  -28.4343   -3.5294   -7.9361 C   0  0  0  0  0  0  0  0  0  0  0  0
  -28.8718   -4.8195   -7.6426 C   0  0  0  0  0  0  0  0  0  0  0  0
  -26.8288   -1.7192  -10.6409 C   0  0  0  0  0  0  0  0  0  0  0  0
  -27.3502   -1.6571  -11.9547 C   0  0  0  0  0  0  0  0  0  0  0  0
  -26.4307   -1.3295  -12.8655 N   0  0  0  0  0  0  0  0  0  0  0  0
  -25.3107   -1.1718  -12.1377 N   0  0  0  0  0  0  0  0  0  0  0  0
  -24.0841   -0.7691  -12.7822 C   0  0  0  0  0  0  0  0  0  0  0  0
  -25.4944   -1.4003  -10.8052 C   0  0  0  0  0  0  0  0  0  0  0  0
  -31.9232   -9.1164   -7.7656 C   0  0  0  0  0  0  0  0  0  0  0  0
  -31.0673   -9.5970   -8.7490 C   0  0  0  0  0  0  0  0  0  0  0  0
  -29.7701   -9.0985   -8.8538 C   0  0  0  0  0  0  0  0  0  0  0  0
  -29.3268   -8.1189   -7.9478 C   0  0  0  0  0  0  0  0  0  0  0  0
  -28.0350   -7.7551   -7.9870 F   0  0  0  0  0  0  0  0  0  0  0  0
  -30.1689   -7.5503   -6.9634 C   0  0  0  0  0  0  0  0  0  0  0  0
  -31.4864   -8.0750   -6.9233 C   0  0  0  0  0  0  0  0  0  0  0  0
  -32.3843   -7.5724   -6.0579 F   0  0  0  0  0  0  0  0  0  0  0  0
  -33.3216  -10.7378   -6.7351 C   0  0  0  0  0  0  0  0  0  0  0  0
  -33.1970   -9.5848   -7.5659 O   0  0  0  0  0  0  0  0  0  0  0  0
  -29.0519   -9.6780   -9.8669 O   0  0  0  0  0  0  0  0  0  0  0  0
  -29.1268  -11.0907  -10.0006 C   0  0  0  0  0  0  0  0  0  0  0  0
  -29.3782   -6.9735   -4.6632 C   0  0  0  0  0  0  0  0  0  0  0  0
  -27.9713   -7.5835   -4.5249 C   0  0  0  0  0  0  0  0  0  0  0  0
  -27.8663   -9.1017   -4.6986 C   0  0  0  0  0  0  0  0  0  0  0  0
  -26.7098   -9.3390   -5.5704 N   0  0  0  0  0  0  0  0  0  0  0  0
  -26.2369   -8.4550   -5.7747 H   0  0  0  0  0  0  0  0  0  0  0  0
  -25.7225  -10.2962   -5.0244 C   0  0  0  0  0  0  0  0  0  0  0  0
  -24.5258   -9.6524   -4.2753 C   0  0  0  0  0  0  0  0  0  0  0  0
  -24.0114  -10.4701   -3.3263 F   0  0  0  0  0  0  0  0  0  0  0  0
  -23.5195   -9.3627   -5.1346 F   0  0  0  0  0  0  0  0  0  0  0  0
  -24.8867   -8.4979   -3.6688 F   0  0  0  0  0  0  0  0  0  0  0  0
 26 27  1  0  0  0
 27 18  1  0  0  0
 18 19  1  0  0  0
 18 24  2  0  0  0
 19 20  2  0  0  0
 20 28  1  0  0  0
 20 21  1  0  0  0
 28 29  1  0  0  0
 21 22  1  0  0  0
 21 23  2  0  0  0
 23  1  1  0  0  0
 23 24  1  0  0  0
  1 30  1  0  0  0
  1  2  1  0  0  0
 30 31  1  0  0  0
 31 32  1  0  0  0
 32 33  1  0  0  0
 33 35  1  0  0  0
 33 34  1  0  0  0
 35 36  1  0  0  0
 36 37  1  0  0  0
 36 38  1  0  0  0
 36 39  1  0  0  0
  2  3  1  0  0  0
  2 11  2  0  0  0
  3  4  2  0  0  0
  4  5  1  0  0  0
  5  6  1  0  0  0
  5 10  2  0  0  0
  6  7  2  0  0  0
  7  8  1  0  0  0
  8 12  1  0  0  0
  8  9  2  0  0  0
 12 13  1  0  0  0
 12 17  2  0  0  0
 13 14  2  0  0  0
 14 15  1  0  0  0
 15 16  1  0  0  0
 15 17  1  0  0  0
  9 10  1  0  0  0
 10 11  1  0  0  0
 24 25  1  0  0  0
M  END
> <minimizedAffinity>
-8.60394

$$$$
