CHEMBL378440


 39 44  0  0  0  0  0  0  0  0999 V2000
  -13.9516   -3.4804  -11.8355 C   0  0  0  0  0  0  0  0  0  0  0  0
  -12.6799   -3.9139  -11.8182 N   0  0  0  0  0  0  0  0  0  0  0  0
  -12.7864   -5.2527  -11.5023 N   0  0  0  0  0  0  0  0  0  0  0  0
  -14.0757   -5.7081  -11.3150 C   0  0  0  0  0  0  0  0  0  0  0  0
  -14.7806   -4.4922  -11.2738 C   0  0  0  0  0  0  0  0  0  0  0  0
  -16.1992   -4.7425  -11.5587 C   0  0  0  0  0  0  0  0  0  0  0  0
  -15.8142   -5.6785  -12.7226 C   0  0  0  0  0  0  0  0  0  0  0  0
  -15.3041   -5.3531  -14.0123 C   0  0  0  0  0  0  0  0  0  0  0  0
  -14.7013   -6.3482  -14.7944 C   0  0  0  0  0  0  0  0  0  0  0  0
  -14.8258   -7.6269  -14.2924 C   0  0  0  0  0  0  0  0  0  0  0  0
  -14.8317   -7.7668  -12.9005 C   0  0  0  0  0  0  0  0  0  0  0  0
  -15.0067   -6.6435  -12.1202 C   0  0  0  0  0  0  0  0  0  0  0  0
  -11.9321   -5.7248  -11.2157 H   0  0  0  0  0  0  0  0  0  0  0  0
  -14.8933   -0.2042  -13.9185 C   0  0  0  0  0  0  0  0  0  0  0  0
  -15.6957   -0.2459  -12.8061 C   0  0  0  0  0  0  0  0  0  0  0  0
  -15.5818   -1.4900  -12.1703 C   0  0  0  0  0  0  0  0  0  0  0  0
  -14.5098   -2.2674  -12.6056 C   0  0  0  0  0  0  0  0  0  0  0  0
  -14.0649   -1.7039  -14.1606 S   0  0  0  0  0  0  0  0  0  0  0  0
  -14.7083    0.9792  -14.8068 C   0  0  0  0  0  0  0  0  0  0  0  0
  -15.6938    0.9184  -15.8540 O   0  0  0  0  0  0  0  0  0  0  0  0
  -17.8572    1.0788  -15.3259 N   0  0  0  0  0  0  0  0  0  0  0  0
  -16.7452    1.7722  -15.6815 C   0  0  0  0  0  0  0  0  0  0  0  0
  -16.6263    3.0002  -15.8254 O   0  0  0  0  0  0  0  0  0  0  0  0
  -17.7227    0.0854  -15.2651 H   0  0  0  0  0  0  0  0  0  0  0  0
  -22.6104    0.3441  -14.0729 C   0  0  0  0  0  0  0  0  0  0  0  0
  -21.4709    1.2519  -14.4176 C   0  0  0  0  0  0  0  0  0  0  0  0
  -21.6819    2.6344  -14.4169 C   0  0  0  0  0  0  0  0  0  0  0  0
  -20.6560    3.5130  -14.7231 C   0  0  0  0  0  0  0  0  0  0  0  0
  -19.3864    2.9914  -15.0399 C   0  0  0  0  0  0  0  0  0  0  0  0
  -19.1295    1.6152  -15.0525 C   0  0  0  0  0  0  0  0  0  0  0  0
  -20.1919    0.7543  -14.7226 C   0  0  0  0  0  0  0  0  0  0  0  0
  -13.6715   -6.0650  -15.8828 C   0  0  0  0  0  0  0  0  0  0  0  0
  -14.0749   -6.4830  -17.2335 N   0  0  0  0  0  0  0  0  0  0  0  0
  -13.8649   -5.3973  -18.2039 C   0  0  0  0  0  0  0  0  0  0  0  0
  -14.2730   -5.8221  -19.6298 C   0  0  0  0  0  0  0  0  0  0  0  0
  -13.5884   -7.0263  -20.1372 N   0  0  0  0  0  0  0  0  0  0  0  0
  -12.1967   -6.7439  -20.4787 C   0  0  0  0  0  0  0  0  0  0  0  0
  -13.7041   -8.1029  -19.1314 C   0  0  0  0  0  0  0  0  0  0  0  0
  -13.3448   -7.6928  -17.6765 C   0  0  0  0  0  0  0  0  0  0  0  0
 25 26  1  0  0  0
 26 27  1  0  0  0
 26 31  2  0  0  0
 27 28  2  0  0  0
 28 29  1  0  0  0
 29 30  2  0  0  0
 30 21  1  0  0  0
 30 31  1  0  0  0
 21 22  1  0  0  0
 21 24  1  0  0  0
 22 23  2  0  0  0
 22 20  1  0  0  0
 20 19  1  0  0  0
 19 14  1  0  0  0
 14 15  2  0  0  0
 14 18  1  0  0  0
 15 16  1  0  0  0
 16 17  2  0  0  0
 17  1  1  0  0  0
 17 18  1  0  0  0
  1  2  2  0  0  0
  1  5  1  0  0  0
  2  3  1  0  0  0
  3  4  1  0  0  0
  3 13  1  0  0  0
  4  5  2  0  0  0
  4 12  1  0  0  0
  5  6  1  0  0  0
  6  7  1  0  0  0
  7  8  1  0  0  0
  7 12  2  0  0  0
  8  9  2  0  0  0
  9 32  1  0  0  0
  9 10  1  0  0  0
 32 33  1  0  0  0
 33 34  1  0  0  0
 33 39  1  0  0  0
 34 35  1  0  0  0
 35 36  1  0  0  0
 36 37  1  0  0  0
 36 38  1  0  0  0
 38 39  1  0  0  0
 10 11  2  0  0  0
 11 12  1  0  0  0
M  END
> <minimizedAffinity>
-10.02774

$$$$
