CHEMBL1242202


 28 31  0  0  0  0  0  0  0  0999 V2000
  -16.7696    2.1379  -15.2753 C   0  0  0  0  0  0  0  0  0  0  0  0
  -16.3605    2.9213  -16.2918 N   0  0  0  0  0  0  0  0  0  0  0  0
  -15.0195    2.9959  -16.1443 N   0  0  0  0  0  0  0  0  0  0  0  0
  -14.5477    2.2407  -15.1049 C   0  0  0  0  0  0  0  0  0  0  0  0
  -13.2629    2.1067  -14.7263 N   0  0  0  0  0  0  0  0  0  0  0  0
  -13.1467    1.3070  -13.6593 C   0  0  0  0  0  0  0  0  0  0  0  0
  -14.1250    0.6645  -12.9933 N   0  0  0  0  0  0  0  0  0  0  0  0
  -15.3977    0.8155  -13.4186 C   0  0  0  0  0  0  0  0  0  0  0  0
  -16.3544    0.1055  -12.7014 N   0  0  0  0  0  0  0  0  0  0  0  0
  -15.6524    1.6548  -14.5200 C   0  0  0  0  0  0  0  0  0  0  0  0
  -15.9236   -0.5786  -12.0892 H   0  0  0  0  0  0  0  0  0  0  0  0
  -17.1423   -0.2264  -13.2426 H   0  0  0  0  0  0  0  0  0  0  0  0
  -20.9628    1.4130  -14.6720 C   0  0  0  0  0  0  0  0  0  0  0  0
  -20.1230    0.3923  -15.1094 C   0  0  0  0  0  0  0  0  0  0  0  0
  -18.7541    0.6248  -15.2597 C   0  0  0  0  0  0  0  0  0  0  0  0
  -18.2027    1.8967  -15.0700 C   0  0  0  0  0  0  0  0  0  0  0  0
  -19.0470    2.9275  -14.6395 C   0  0  0  0  0  0  0  0  0  0  0  0
  -20.4081    2.6772  -14.4282 C   0  0  0  0  0  0  0  0  0  0  0  0
  -21.2173    3.6817  -13.9657 O   0  0  0  0  0  0  0  0  0  0  0  0
  -20.6734    4.4635  -13.7828 H   0  0  0  0  0  0  0  0  0  0  0  0
  -22.7448   -0.0055  -13.9843 C   0  0  0  0  0  0  0  0  0  0  0  0
  -22.3041    1.2675  -14.4385 O   0  0  0  0  0  0  0  0  0  0  0  0
  -14.2315    3.8290  -17.0363 C   0  0  0  0  0  0  0  0  0  0  0  0
  -15.0218    5.0002  -17.6521 C   0  0  0  0  0  0  0  0  0  0  0  0
  -14.9230    4.8209  -19.1653 C   0  0  0  0  0  0  0  0  0  0  0  0
  -13.6256    4.0472  -19.3872 C   0  0  0  0  0  0  0  0  0  0  0  0
  -12.3981    4.9565  -19.3743 C   0  0  0  0  0  0  0  0  0  0  0  0
  -13.6272    3.0559  -18.2224 C   0  0  0  0  0  0  0  0  0  0  0  0
 21 22  1  0  0  0
 22 13  1  0  0  0
 13 14  1  0  0  0
 13 18  2  0  0  0
 14 15  2  0  0  0
 15 16  1  0  0  0
 16  1  1  0  0  0
 16 17  2  0  0  0
  1  2  2  0  0  0
  1 10  1  0  0  0
  2  3  1  0  0  0
  3 23  1  0  0  0
  3  4  1  0  0  0
 23 24  1  0  0  0
 23 28  1  0  0  0
 24 25  1  0  0  0
 25 26  1  0  0  0
 26 27  1  0  0  0
 26 28  1  0  0  0
  4  5  1  0  0  0
  4 10  2  0  0  0
  5  6  2  0  0  0
  6  7  1  0  0  0
  7  8  2  0  0  0
  8  9  1  0  0  0
  8 10  1  0  0  0
  9 11  1  0  0  0
  9 12  1  0  0  0
 17 18  1  0  0  0
 18 19  1  0  0  0
 19 20  1  0  0  0
M  END
> <minimizedAffinity>
-7.91727

$$$$
