CHEMBL339856


 41 44  0  0  0  0  0  0  0  0999 V2000
  -28.4673   -8.0368   -5.4522 C   0  0  0  0  0  0  0  0  0  0  0  0
  -28.0533   -6.9133   -4.7077 C   0  0  0  0  0  0  0  0  0  0  0  0
  -28.1690   -5.6131   -5.2124 C   0  0  0  0  0  0  0  0  0  0  0  0
  -27.7954   -4.4805   -4.4872 C   0  0  0  0  0  0  0  0  0  0  0  0
  -27.9119   -3.2177   -4.9469 N   0  0  0  0  0  0  0  0  0  0  0  0
  -28.4495   -3.0564   -6.1677 C   0  0  0  0  0  0  0  0  0  0  0  0
  -28.8394   -4.1470   -6.9469 C   0  0  0  0  0  0  0  0  0  0  0  0
  -28.6780   -5.4473   -6.4941 C   0  0  0  0  0  0  0  0  0  0  0  0
  -29.0164   -6.5007   -7.2704 N   0  0  0  0  0  0  0  0  0  0  0  0
  -28.9628   -7.7525   -6.7393 C   0  0  0  0  0  0  0  0  0  0  0  0
  -26.7174  -11.2042   -4.2411 C   0  0  0  0  0  0  0  0  0  0  0  0
  -27.7207  -11.8034   -3.4803 C   0  0  0  0  0  0  0  0  0  0  0  0
  -28.9702  -11.1979   -3.3932 C   0  0  0  0  0  0  0  0  0  0  0  0
  -29.2345  -10.0365   -4.1260 C   0  0  0  0  0  0  0  0  0  0  0  0
  -28.2308   -9.3830   -4.8714 C   0  0  0  0  0  0  0  0  0  0  0  0
  -26.9735  -10.0016   -4.9108 C   0  0  0  0  0  0  0  0  0  0  0  0
  -24.6032  -10.9412   -5.2845 C   0  0  0  0  0  0  0  0  0  0  0  0
  -25.4407  -11.6699   -4.3986 O   0  0  0  0  0  0  0  0  0  0  0  0
  -30.0047  -11.6443   -2.6123 O   0  0  0  0  0  0  0  0  0  0  0  0
  -30.9570  -12.4642   -3.2857 C   0  0  0  0  0  0  0  0  0  0  0  0
  -29.3775   -8.7710   -7.6328 N   0  0  0  0  0  0  0  0  0  0  0  0
  -28.5285   -9.0957   -8.6796 C   0  0  0  0  0  0  0  0  0  0  0  0
  -27.4439   -8.5741   -8.8837 O   0  0  0  0  0  0  0  0  0  0  0  0
  -29.0427  -10.1471   -9.4276 N   0  0  0  0  0  0  0  0  0  0  0  0
  -29.5574   -9.6222   -7.1174 H   0  0  0  0  0  0  0  0  0  0  0  0
  -30.0492  -10.1261   -9.5125 H   0  0  0  0  0  0  0  0  0  0  0  0
  -28.2936  -10.8227  -10.5104 C   0  0  0  0  0  0  0  0  0  0  0  0
  -28.3754  -12.3489  -10.3322 C   0  0  0  0  0  0  0  0  0  0  0  0
  -28.9319  -10.4786  -11.8736 C   0  0  0  0  0  0  0  0  0  0  0  0
  -26.8239  -10.3749  -10.5608 C   0  0  0  0  0  0  0  0  0  0  0  0
  -28.7467   -1.7677   -6.6340 N   0  0  0  0  0  0  0  0  0  0  0  0
  -29.6914   -1.7267   -6.9878 H   0  0  0  0  0  0  0  0  0  0  0  0
  -27.7769   -1.1867   -7.5643 C   0  0  0  0  0  0  0  0  0  0  0  0
  -28.1161   -1.7121   -8.9633 C   0  0  0  0  0  0  0  0  0  0  0  0
  -26.8794   -1.9962   -9.8227 C   0  0  0  0  0  0  0  0  0  0  0  0
  -26.6154   -0.9139  -10.7894 N   0  0  0  0  0  0  0  0  0  0  0  0
  -27.4556   -0.9513  -12.0071 C   0  0  0  0  0  0  0  0  0  0  0  0
  -27.0596   -2.0340  -13.0254 C   0  0  0  0  0  0  0  0  0  0  0  0
  -25.6760   -1.9442  -13.3851 O   0  0  0  0  0  0  0  0  0  0  0  0
  -24.8412   -2.0048  -12.2225 C   0  0  0  0  0  0  0  0  0  0  0  0
  -25.1991   -0.8943  -11.2204 C   0  0  0  0  0  0  0  0  0  0  0  0
 17 18  1  0  0  0
 18 11  1  0  0  0
 11 12  1  0  0  0
 11 16  2  0  0  0
 12 13  2  0  0  0
 13 19  1  0  0  0
 13 14  1  0  0  0
 19 20  1  0  0  0
 14 15  2  0  0  0
 15  1  1  0  0  0
 15 16  1  0  0  0
  1  2  1  0  0  0
  1 10  2  0  0  0
  2  3  2  0  0  0
  3  4  1  0  0  0
  3  8  1  0  0  0
  4  5  2  0  0  0
  5  6  1  0  0  0
  6 31  1  0  0  0
  6  7  2  0  0  0
 31 33  1  0  0  0
 31 32  1  0  0  0
 33 34  1  0  0  0
 34 35  1  0  0  0
 35 36  1  0  0  0
 36 37  1  0  0  0
 36 41  1  0  0  0
 37 38  1  0  0  0
 38 39  1  0  0  0
 39 40  1  0  0  0
 40 41  1  0  0  0
  7  8  1  0  0  0
  8  9  2  0  0  0
  9 10  1  0  0  0
 10 21  1  0  0  0
 21 22  1  0  0  0
 21 25  1  0  0  0
 22 23  2  0  0  0
 22 24  1  0  0  0
 24 27  1  0  0  0
 24 26  1  0  0  0
 27 28  1  0  0  0
 27 29  1  0  0  0
 27 30  1  0  0  0
M  END
> <minimizedAffinity>
-7.78238

$$$$
