CHEMBL1087649


 38 42  0  0  0  0  0  0  0  0999 V2000
  -28.0783   -4.6724   -5.8996 N   0  0  0  0  0  0  0  0  0  0  0  0
  -27.8986   -4.7790   -4.9012 H   0  0  0  0  0  0  0  0  0  0  0  0
  -28.8101   -5.6644   -6.4914 C   0  0  0  0  0  0  0  0  0  0  0  0
  -28.4464   -6.4453   -7.4875 N   0  0  0  0  0  0  0  0  0  0  0  0
  -29.4471   -7.3457   -7.6699 C   0  0  0  0  0  0  0  0  0  0  0  0
  -29.5068   -8.4008   -8.5928 C   0  0  0  0  0  0  0  0  0  0  0  0
  -30.6495   -9.2013   -8.6318 C   0  0  0  0  0  0  0  0  0  0  0  0
  -31.7268   -8.9295   -7.7929 C   0  0  0  0  0  0  0  0  0  0  0  0
  -31.6876   -7.8685   -6.8781 C   0  0  0  0  0  0  0  0  0  0  0  0
  -30.5053   -7.1089   -6.7988 C   0  0  0  0  0  0  0  0  0  0  0  0
  -30.0806   -6.0268   -6.0252 N   0  0  0  0  0  0  0  0  0  0  0  0
  -30.7733   -5.3942   -4.9505 C   0  0  0  0  0  0  0  0  0  0  0  0
  -31.1926   -6.1461   -3.8720 C   0  0  0  0  0  0  0  0  0  0  0  0
  -31.8227   -5.4674   -2.8543 C   0  0  0  0  0  0  0  0  0  0  0  0
  -32.1545   -6.1311   -1.6770 N   0  0  0  0  0  0  0  0  0  0  0  0
  -32.0609   -4.1539   -2.8970 N   0  0  0  0  0  0  0  0  0  0  0  0
  -31.6135   -3.5051   -3.9791 C   0  0  0  0  0  0  0  0  0  0  0  0
  -30.9420   -4.0505   -5.0038 N   0  0  0  0  0  0  0  0  0  0  0  0
  -32.6793   -6.9838   -1.8272 H   0  0  0  0  0  0  0  0  0  0  0  0
  -32.6387   -5.4786   -1.0659 H   0  0  0  0  0  0  0  0  0  0  0  0
  -28.0192   -2.4202   -3.9703 C   0  0  0  0  0  0  0  0  0  0  0  0
  -28.0613   -2.2442   -5.4669 C   0  0  0  0  0  0  0  0  0  0  0  0
  -28.1406   -0.9332   -5.9776 C   0  0  0  0  0  0  0  0  0  0  0  0
  -28.0618   -0.6923   -7.3456 C   0  0  0  0  0  0  0  0  0  0  0  0
  -27.8461   -1.7498   -8.2242 C   0  0  0  0  0  0  0  0  0  0  0  0
  -27.7683   -3.0511   -7.7217 C   0  0  0  0  0  0  0  0  0  0  0  0
  -27.9735   -3.3353   -6.3612 C   0  0  0  0  0  0  0  0  0  0  0  0
  -27.6683   -1.4722   -9.6730 C   0  0  0  0  0  0  0  0  0  0  0  0
  -28.5877   -0.9158  -10.2632 O   0  0  0  0  0  0  0  0  0  0  0  0
  -26.4858   -1.9284  -10.2330 N   0  0  0  0  0  0  0  0  0  0  0  0
  -25.9073   -2.5360   -9.6690 H   0  0  0  0  0  0  0  0  0  0  0  0
  -26.0959   -1.7659  -11.5824 C   0  0  0  0  0  0  0  0  0  0  0  0
  -26.9685   -1.9405  -12.6588 C   0  0  0  0  0  0  0  0  0  0  0  0
  -26.5160   -1.8181  -13.9776 C   0  0  0  0  0  0  0  0  0  0  0  0
  -25.1801   -1.5177  -14.2262 C   0  0  0  0  0  0  0  0  0  0  0  0
  -24.3092   -1.3096  -13.1586 C   0  0  0  0  0  0  0  0  0  0  0  0
  -22.6579   -0.9456  -13.4633 Cl  0  0  0  0  0  0  0  0  0  0  0  0
  -24.7630   -1.4162  -11.8403 C   0  0  0  0  0  0  0  0  0  0  0  0
 21 22  1  0  0  0
 22 23  1  0  0  0
 22 27  2  0  0  0
 23 24  2  0  0  0
 24 25  1  0  0  0
 25 28  1  0  0  0
 25 26  2  0  0  0
 28 29  2  0  0  0
 28 30  1  0  0  0
 30 32  1  0  0  0
 30 31  1  0  0  0
 32 33  1  0  0  0
 32 38  2  0  0  0
 33 34  2  0  0  0
 34 35  1  0  0  0
 35 36  2  0  0  0
 36 37  1  0  0  0
 36 38  1  0  0  0
 26 27  1  0  0  0
 27  1  1  0  0  0
  1  3  1  0  0  0
  1  2  1  0  0  0
  3  4  2  0  0  0
  3 11  1  0  0  0
  4  5  1  0  0  0
  5  6  1  0  0  0
  5 10  2  0  0  0
  6  7  2  0  0  0
  7  8  1  0  0  0
  8  9  2  0  0  0
  9 10  1  0  0  0
 10 11  1  0  0  0
 11 12  1  0  0  0
 12 13  1  0  0  0
 12 18  2  0  0  0
 13 14  2  0  0  0
 14 15  1  0  0  0
 14 16  1  0  0  0
 15 19  1  0  0  0
 15 20  1  0  0  0
 16 17  2  0  0  0
 17 18  1  0  0  0
M  END
> <minimizedAffinity>
-10.17144

$$$$
