CHEMBL204446


 29 32  0  0  0  0  0  0  0  0999 V2000
  -16.2270   -4.5075  -12.1266 C   0  0  0  0  0  0  0  0  0  0  0  0
  -15.8312   -3.5689  -13.0557 C   0  0  0  0  0  0  0  0  0  0  0  0
  -15.3946   -2.3322  -12.6387 C   0  0  0  0  0  0  0  0  0  0  0  0
  -15.4518   -2.0126  -11.3394 N   0  0  0  0  0  0  0  0  0  0  0  0
  -15.9817   -2.9322  -10.5146 C   0  0  0  0  0  0  0  0  0  0  0  0
  -16.3659   -4.1793  -10.8367 N   0  0  0  0  0  0  0  0  0  0  0  0
  -14.8727   -1.4328  -13.5466 N   0  0  0  0  0  0  0  0  0  0  0  0
  -13.7355   -1.7590  -14.4129 C   0  0  0  0  0  0  0  0  0  0  0  0
  -12.5408   -0.8091  -14.1563 C   0  0  0  0  0  0  0  0  0  0  0  0
  -12.8761    0.6443  -14.2173 N   0  0  0  0  0  0  0  0  0  0  0  0
  -13.9759    0.8734  -13.2470 C   0  0  0  0  0  0  0  0  0  0  0  0
  -15.2386   -0.0182  -13.4216 C   0  0  0  0  0  0  0  0  0  0  0  0
  -13.2476    1.0094  -15.6038 C   0  0  0  0  0  0  0  0  0  0  0  0
  -13.6487    2.4886  -15.8833 C   0  0  0  0  0  0  0  0  0  0  0  0
  -14.7326    2.5776  -16.8824 N   0  0  0  0  0  0  0  0  0  0  0  0
  -15.2806    3.9326  -17.0862 C   0  0  0  0  0  0  0  0  0  0  0  0
  -16.3217    4.3655  -16.0448 C   0  0  0  0  0  0  0  0  0  0  0  0
  -17.4093    3.4377  -15.9985 O   0  0  0  0  0  0  0  0  0  0  0  0
  -16.9335    2.1309  -15.6586 C   0  0  0  0  0  0  0  0  0  0  0  0
  -15.8478    1.6390  -16.6345 C   0  0  0  0  0  0  0  0  0  0  0  0
  -16.4428   -5.8544  -12.4806 N   0  0  0  0  0  0  0  0  0  0  0  0
  -17.2993   -6.1843  -12.0494 H   0  0  0  0  0  0  0  0  0  0  0  0
  -13.2999   -7.8980  -12.7241 C   0  0  0  0  0  0  0  0  0  0  0  0
  -14.2037   -8.3159  -13.6672 C   0  0  0  0  0  0  0  0  0  0  0  0
  -15.4168   -7.6788  -13.6106 N   0  0  0  0  0  0  0  0  0  0  0  0
  -15.4353   -6.7378  -12.6892 C   0  0  0  0  0  0  0  0  0  0  0  0
  -13.9880   -6.6742  -11.7493 S   0  0  0  0  0  0  0  0  0  0  0  0
  -10.9208   -8.8509  -12.4793 N   0  0  0  0  0  0  0  0  0  0  0  0
  -11.9802   -8.4073  -12.5887 C   0  0  0  0  0  0  0  0  0  0  0  0
 28 29  3  0  0  0
 29 23  1  0  0  0
 23 24  2  0  0  0
 23 27  1  0  0  0
 24 25  1  0  0  0
 25 26  2  0  0  0
 26 21  1  0  0  0
 26 27  1  0  0  0
 21  1  1  0  0  0
 21 22  1  0  0  0
  1  2  1  0  0  0
  1  6  2  0  0  0
  2  3  2  0  0  0
  3  7  1  0  0  0
  3  4  1  0  0  0
  7  8  1  0  0  0
  7 12  1  0  0  0
  8  9  1  0  0  0
  9 10  1  0  0  0
 10 13  1  0  0  0
 10 11  1  0  0  0
 13 14  1  0  0  0
 14 15  1  0  0  0
 15 16  1  0  0  0
 15 20  1  0  0  0
 16 17  1  0  0  0
 17 18  1  0  0  0
 18 19  1  0  0  0
 19 20  1  0  0  0
 11 12  1  0  0  0
  4  5  2  0  0  0
  5  6  1  0  0  0
M  END
> <minimizedAffinity>
-6.80214

$$$$
