CHEMBL1681960


 26 27  0  0  0  0  0  0  0  0999 V2000
  -17.3798    1.6690  -15.6914 O   0  0  0  0  0  0  0  0  0  0  0  0
  -16.4132    1.3206  -14.7447 C   0  0  0  0  0  0  0  0  0  0  0  0
  -16.7684    0.4959  -13.7334 N   0  0  0  0  0  0  0  0  0  0  0  0
  -15.8250    0.2328  -12.8276 C   0  0  0  0  0  0  0  0  0  0  0  0
  -14.5646    0.6754  -12.8634 N   0  0  0  0  0  0  0  0  0  0  0  0
  -14.2262    1.4536  -13.9067 C   0  0  0  0  0  0  0  0  0  0  0  0
  -12.8686    1.7503  -13.9758 N   0  0  0  0  0  0  0  0  0  0  0  0
  -15.1340    1.8242  -14.8919 C   0  0  0  0  0  0  0  0  0  0  0  0
  -12.4113    1.5310  -13.0987 H   0  0  0  0  0  0  0  0  0  0  0  0
  -12.6878    2.6826  -14.3461 H   0  0  0  0  0  0  0  0  0  0  0  0
  -14.7955    2.7419  -15.9936 C   0  0  0  0  0  0  0  0  0  0  0  0
  -14.4635    3.9777  -15.7784 N   0  0  0  0  0  0  0  0  0  0  0  0
  -14.1935    4.6089  -16.9983 O   0  0  0  0  0  0  0  0  0  0  0  0
  -14.2790    3.6314  -18.0306 C   0  0  0  0  0  0  0  0  0  0  0  0
  -21.3309    1.6301  -14.3234 C   0  0  0  0  0  0  0  0  0  0  0  0
  -20.5898    2.8155  -14.2649 C   0  0  0  0  0  0  0  0  0  0  0  0
  -19.2847    2.8575  -14.7546 C   0  0  0  0  0  0  0  0  0  0  0  0
  -18.6959    1.7044  -15.2746 C   0  0  0  0  0  0  0  0  0  0  0  0
  -19.4553    0.5442  -15.4256 C   0  0  0  0  0  0  0  0  0  0  0  0
  -20.7711    0.5073  -14.9513 C   0  0  0  0  0  0  0  0  0  0  0  0
  -22.6979    1.5704  -13.6902 C   0  0  0  0  0  0  0  0  0  0  0  0
  -23.1222   -1.6776  -11.7891 C   0  0  0  0  0  0  0  0  0  0  0  0
  -22.7461   -0.3512  -12.2056 N   0  0  0  0  0  0  0  0  0  0  0  0
  -23.1766    0.1605  -13.4114 C   0  0  0  0  0  0  0  0  0  0  0  0
  -23.9013   -0.4584  -14.1853 O   0  0  0  0  0  0  0  0  0  0  0  0
  -22.0421    0.1465  -11.6777 H   0  0  0  0  0  0  0  0  0  0  0  0
 22 23  1  0  0  0
 23 24  1  0  0  0
 23 26  1  0  0  0
 24 25  2  0  0  0
 24 21  1  0  0  0
 21 15  1  0  0  0
 15 16  1  0  0  0
 15 20  2  0  0  0
 16 17  2  0  0  0
 17 18  1  0  0  0
 18  1  1  0  0  0
 18 19  2  0  0  0
  1  2  1  0  0  0
  2  3  1  0  0  0
  2  8  2  0  0  0
  3  4  2  0  0  0
  4  5  1  0  0  0
  5  6  2  0  0  0
  6  7  1  0  0  0
  6  8  1  0  0  0
  7  9  1  0  0  0
  7 10  1  0  0  0
  8 11  1  0  0  0
 11 12  2  0  0  0
 12 13  1  0  0  0
 13 14  1  0  0  0
 19 20  1  0  0  0
M  END
> <minimizedAffinity>
-7.55666

$$$$
