CHEMBL1086860


 40 45  0  0  0  0  0  0  0  0999 V2000
  -16.2646    3.2632  -16.2100 C   0  0  0  0  0  0  0  0  0  0  0  0
  -17.4669    2.6781  -15.5175 C   0  0  0  0  0  0  0  0  0  0  0  0
  -18.7195    3.1338  -15.9585 C   0  0  0  0  0  0  0  0  0  0  0  0
  -19.8967    2.5442  -15.5214 C   0  0  0  0  0  0  0  0  0  0  0  0
  -19.8626    1.4436  -14.6860 C   0  0  0  0  0  0  0  0  0  0  0  0
  -18.6228    1.0559  -14.1452 C   0  0  0  0  0  0  0  0  0  0  0  0
  -17.4137    1.7043  -14.4922 C   0  0  0  0  0  0  0  0  0  0  0  0
  -21.0214    0.6993  -14.3521 N   0  0  0  0  0  0  0  0  0  0  0  0
  -22.2176    1.2585  -13.9273 C   0  0  0  0  0  0  0  0  0  0  0  0
  -22.4358    2.4614  -13.8155 O   0  0  0  0  0  0  0  0  0  0  0  0
  -21.0028   -0.2893  -14.5509 H   0  0  0  0  0  0  0  0  0  0  0  0
  -23.2769    0.3374  -13.6120 C   0  0  0  0  0  0  0  0  0  0  0  0
  -23.9889    0.0035  -12.4796 C   0  0  0  0  0  0  0  0  0  0  0  0
  -24.8933   -0.9926  -12.8992 C   0  0  0  0  0  0  0  0  0  0  0  0
  -24.7814   -1.2700  -14.1971 N   0  0  0  0  0  0  0  0  0  0  0  0
  -23.7958   -0.4604  -14.6038 N   0  0  0  0  0  0  0  0  0  0  0  0
  -23.5111   -0.4738  -15.5761 H   0  0  0  0  0  0  0  0  0  0  0  0
  -25.9249   -1.7124  -12.0471 C   0  0  0  0  0  0  0  0  0  0  0  0
  -27.2943   -2.0096  -12.6131 C   0  0  0  0  0  0  0  0  0  0  0  0
  -27.1442   -0.9552  -11.5694 C   0  0  0  0  0  0  0  0  0  0  0  0
  -16.1864    1.4045  -13.8357 N   0  0  0  0  0  0  0  0  0  0  0  0
  -15.9079    2.1117  -13.1561 H   0  0  0  0  0  0  0  0  0  0  0  0
  -15.6443    0.1562  -13.6770 C   0  0  0  0  0  0  0  0  0  0  0  0
  -16.2787   -0.9996  -13.6971 N   0  0  0  0  0  0  0  0  0  0  0  0
  -15.3332   -1.9757  -13.6478 C   0  0  0  0  0  0  0  0  0  0  0  0
  -15.5143   -3.3674  -13.6964 C   0  0  0  0  0  0  0  0  0  0  0  0
  -14.3957   -4.2023  -13.6486 C   0  0  0  0  0  0  0  0  0  0  0  0
  -13.1220   -3.6616  -13.5066 C   0  0  0  0  0  0  0  0  0  0  0  0
  -12.9292   -2.2769  -13.4195 C   0  0  0  0  0  0  0  0  0  0  0  0
  -14.0549   -1.4386  -13.5449 C   0  0  0  0  0  0  0  0  0  0  0  0
  -14.2604   -0.0554  -13.5584 N   0  0  0  0  0  0  0  0  0  0  0  0
  -13.2654    0.9674  -13.5105 C   0  0  0  0  0  0  0  0  0  0  0  0
  -12.4558    1.1763  -14.6079 C   0  0  0  0  0  0  0  0  0  0  0  0
  -11.5619    2.2172  -14.5333 C   0  0  0  0  0  0  0  0  0  0  0  0
  -10.7452    2.5015  -15.6240 N   0  0  0  0  0  0  0  0  0  0  0  0
  -11.4079    2.9603  -13.4354 N   0  0  0  0  0  0  0  0  0  0  0  0
  -12.2259    2.6778  -12.4124 C   0  0  0  0  0  0  0  0  0  0  0  0
  -13.1924    1.7461  -12.4053 N   0  0  0  0  0  0  0  0  0  0  0  0
  -11.2691    2.5928  -16.4898 H   0  0  0  0  0  0  0  0  0  0  0  0
  -10.2234    3.3526  -15.4127 H   0  0  0  0  0  0  0  0  0  0  0  0
  1  2  1  0  0  0
  2  3  1  0  0  0
  2  7  2  0  0  0
  3  4  2  0  0  0
  4  5  1  0  0  0
  5  8  1  0  0  0
  5  6  2  0  0  0
  8  9  1  0  0  0
  8 11  1  0  0  0
  9 10  2  0  0  0
  9 12  1  0  0  0
 12 13  2  0  0  0
 12 16  1  0  0  0
 13 14  1  0  0  0
 14 18  1  0  0  0
 14 15  2  0  0  0
 18 19  1  0  0  0
 18 20  1  0  0  0
 19 20  1  0  0  0
 15 16  1  0  0  0
 16 17  1  0  0  0
  6  7  1  0  0  0
  7 21  1  0  0  0
 21 23  1  0  0  0
 21 22  1  0  0  0
 23 24  2  0  0  0
 23 31  1  0  0  0
 24 25  1  0  0  0
 25 26  1  0  0  0
 25 30  2  0  0  0
 26 27  2  0  0  0
 27 28  1  0  0  0
 28 29  2  0  0  0
 29 30  1  0  0  0
 30 31  1  0  0  0
 31 32  1  0  0  0
 32 33  1  0  0  0
 32 38  2  0  0  0
 33 34  2  0  0  0
 34 35  1  0  0  0
 34 36  1  0  0  0
 35 39  1  0  0  0
 35 40  1  0  0  0
 36 37  2  0  0  0
 37 38  1  0  0  0
M  END
> <minimizedAffinity>
-9.68658

$$$$
