CHEMBL3980252


 39 43  0  0  0  0  0  0  0  0999 V2000
  -15.5139    1.0814  -14.3636 N   0  0  0  0  0  0  0  0  0  0  0  0
  -14.9726   -0.2879  -14.0849 C   0  0  0  0  0  0  0  0  0  0  0  0
  -15.6200   -0.7947  -13.0149 C   0  0  0  0  0  0  0  0  0  0  0  0
  -15.3015   -1.9215  -12.4806 C   0  0  0  0  0  0  0  0  0  0  0  0
  -14.3215   -2.6913  -12.9156 C   0  0  0  0  0  0  0  0  0  0  0  0
  -14.0113   -3.4753  -11.9546 N   0  0  0  0  0  0  0  0  0  0  0  0
  -13.1567   -4.3999  -11.9955 C   0  0  0  0  0  0  0  0  0  0  0  0
  -12.6943   -4.8960  -13.1543 C   0  0  0  0  0  0  0  0  0  0  0  0
  -12.7929   -3.8723  -14.2461 N   0  0  0  0  0  0  0  0  0  0  0  0
  -13.6008   -2.6263  -14.0691 C   0  0  0  0  0  0  0  0  0  0  0  0
  -13.9395   -1.2503  -14.7659 C   0  0  0  0  0  0  0  0  0  0  0  0
  -12.3152   -6.4773  -12.7067 C   0  0  0  0  0  0  0  0  0  0  0  0
  -11.8970   -6.7364  -11.3282 C   0  0  0  0  0  0  0  0  0  0  0  0
  -11.6359   -8.0227  -11.0910 N   0  0  0  0  0  0  0  0  0  0  0  0
  -11.8957   -8.7103  -12.1763 N   0  0  0  0  0  0  0  0  0  0  0  0
  -11.6798  -10.1645  -12.1891 C   0  0  0  0  0  0  0  0  0  0  0  0
  -12.2528   -7.8187  -13.2056 C   0  0  0  0  0  0  0  0  0  0  0  0
  -14.1391    4.2017  -16.3232 C   0  0  0  0  0  0  0  0  0  0  0  0
  -13.0214    4.4706  -15.5411 C   0  0  0  0  0  0  0  0  0  0  0  0
  -12.6470    3.6266  -14.5020 C   0  0  0  0  0  0  0  0  0  0  0  0
  -13.4712    2.5394  -14.1643 C   0  0  0  0  0  0  0  0  0  0  0  0
  -14.6611    2.2202  -14.8642 C   0  0  0  0  0  0  0  0  0  0  0  0
  -14.9213    3.0312  -16.0468 C   0  0  0  0  0  0  0  0  0  0  0  0
  -15.0763    4.7419  -18.5189 C   0  0  0  0  0  0  0  0  0  0  0  0
  -14.5092    5.1024  -17.2888 O   0  0  0  0  0  0  0  0  0  0  0  0
  -11.5035    3.8582  -13.8009 O   0  0  0  0  0  0  0  0  0  0  0  0
  -11.3466    3.5506  -12.4586 C   0  0  0  0  0  0  0  0  0  0  0  0
  -16.8189    1.3821  -13.7992 C   0  0  0  0  0  0  0  0  0  0  0  0
  -18.1658    1.2321  -14.6009 C   0  0  0  0  0  0  0  0  0  0  0  0
  -17.7908    1.1056  -15.9469 O   0  0  0  0  0  0  0  0  0  0  0  0
  -17.3955    1.9800  -16.2108 H   0  0  0  0  0  0  0  0  0  0  0  0
  -19.2707    2.3276  -14.5388 C   0  0  0  0  0  0  0  0  0  0  0  0
  -20.4985    1.7353  -13.9738 N   0  0  0  0  0  0  0  0  0  0  0  0
  -21.6323    2.6744  -13.8076 C   0  0  0  0  0  0  0  0  0  0  0  0
  -22.8635    1.9632  -14.3575 C   0  0  0  0  0  0  0  0  0  0  0  0
  -22.4990    0.4963  -14.2642 C   0  0  0  0  0  0  0  0  0  0  0  0
  -21.0389    0.5897  -14.7234 C   0  0  0  0  0  0  0  0  0  0  0  0
  -22.5464   -0.0542  -12.9074 C   0  0  0  0  0  0  0  0  0  0  0  0
  -22.6148   -0.4954  -11.8661 N   0  0  0  0  0  0  0  0  0  0  0  0
 24 25  1  0  0  0
 25 18  1  0  0  0
 18 19  1  0  0  0
 18 23  2  0  0  0
 19 20  2  0  0  0
 20 26  1  0  0  0
 20 21  1  0  0  0
 26 27  1  0  0  0
 21 22  2  0  0  0
 22  1  1  0  0  0
 22 23  1  0  0  0
  1 28  1  0  0  0
  1  2  1  0  0  0
 29 32  1  0  0  0
 29 30  1  0  0  0
 29 28  1  0  0  0
 30 31  1  0  0  0
 32 33  1  0  0  0
 33 34  1  0  0  0
 33 37  1  0  0  0
 34 35  1  0  0  0
 35 36  1  0  0  0
 36 38  1  0  0  0
 36 37  1  0  0  0
 38 39  3  0  0  0
  2  3  1  0  0  0
  2 11  2  0  0  0
  3  4  2  0  0  0
  4  5  1  0  0  0
  5  6  1  0  0  0
  5 10  2  0  0  0
  6  7  2  0  0  0
  7  8  1  0  0  0
  8 12  1  0  0  0
  8  9  2  0  0  0
 12 13  1  0  0  0
 12 17  2  0  0  0
 13 14  2  0  0  0
 14 15  1  0  0  0
 15 16  1  0  0  0
 15 17  1  0  0  0
  9 10  1  0  0  0
 10 11  1  0  0  0
M  END
> <minimizedAffinity>
-6.77205

$$$$
