CHEMBL394619


 31 34  0  0  0  0  0  0  0  0999 V2000
  -30.2146   -6.3150   -5.0766 C   0  0  0  0  0  0  0  0  0  0  0  0
  -29.2102   -7.2284   -4.7485 C   0  0  0  0  0  0  0  0  0  0  0  0
  -29.0323   -8.3929   -5.5017 C   0  0  0  0  0  0  0  0  0  0  0  0
  -29.8773   -8.6913   -6.5813 C   0  0  0  0  0  0  0  0  0  0  0  0
  -30.9596   -7.8313   -6.8127 C   0  0  0  0  0  0  0  0  0  0  0  0
  -31.1162   -6.6393   -6.0879 C   0  0  0  0  0  0  0  0  0  0  0  0
  -29.6067   -9.8547   -7.4482 C   0  0  0  0  0  0  0  0  0  0  0  0
  -30.2236  -11.0612   -7.1626 C   0  0  0  0  0  0  0  0  0  0  0  0
  -29.7848  -12.3169   -8.2130 S   0  0  0  0  0  0  0  0  0  0  0  0
  -28.7468  -11.2907   -9.1165 C   0  0  0  0  0  0  0  0  0  0  0  0
  -27.9954  -11.6885  -10.2292 C   0  0  0  0  0  0  0  0  0  0  0  0
  -27.2244  -10.7160  -10.8174 C   0  0  0  0  0  0  0  0  0  0  0  0
  -27.1473   -9.4532  -10.3748 N   0  0  0  0  0  0  0  0  0  0  0  0
  -27.8528   -9.0653   -9.2881 C   0  0  0  0  0  0  0  0  0  0  0  0
  -27.6187   -7.7465   -8.9166 N   0  0  0  0  0  0  0  0  0  0  0  0
  -28.7153   -9.9797   -8.6144 C   0  0  0  0  0  0  0  0  0  0  0  0
  -26.8171   -7.4043   -9.4361 H   0  0  0  0  0  0  0  0  0  0  0  0
  -27.5575   -7.6245   -7.9134 H   0  0  0  0  0  0  0  0  0  0  0  0
  -29.7951   -2.7934   -4.2918 N   0  0  0  0  0  0  0  0  0  0  0  0
  -29.6189   -3.9660   -5.0047 C   0  0  0  0  0  0  0  0  0  0  0  0
  -28.9756   -4.0647   -6.0484 O   0  0  0  0  0  0  0  0  0  0  0  0
  -30.2901   -5.0457   -4.4439 N   0  0  0  0  0  0  0  0  0  0  0  0
  -30.1768   -2.8769   -3.3626 H   0  0  0  0  0  0  0  0  0  0  0  0
  -31.1734   -4.8139   -4.0125 H   0  0  0  0  0  0  0  0  0  0  0  0
  -30.7677    1.6193   -6.3662 C   0  0  0  0  0  0  0  0  0  0  0  0
  -29.8113    0.6620   -5.7139 C   0  0  0  0  0  0  0  0  0  0  0  0
  -28.4844    1.0514   -5.5083 C   0  0  0  0  0  0  0  0  0  0  0  0
  -27.5841    0.1813   -4.9084 C   0  0  0  0  0  0  0  0  0  0  0  0
  -28.0067   -1.0890   -4.5095 C   0  0  0  0  0  0  0  0  0  0  0  0
  -29.3307   -1.5072   -4.6907 C   0  0  0  0  0  0  0  0  0  0  0  0
  -30.2287   -0.6252   -5.2979 C   0  0  0  0  0  0  0  0  0  0  0  0
 25 26  1  0  0  0
 26 27  1  0  0  0
 26 31  2  0  0  0
 27 28  2  0  0  0
 28 29  1  0  0  0
 29 30  2  0  0  0
 30 19  1  0  0  0
 30 31  1  0  0  0
 19 20  1  0  0  0
 19 23  1  0  0  0
 20 21  2  0  0  0
 20 22  1  0  0  0
 22  1  1  0  0  0
 22 24  1  0  0  0
  1  2  1  0  0  0
  1  6  2  0  0  0
  2  3  2  0  0  0
  3  4  1  0  0  0
  4  7  1  0  0  0
  4  5  2  0  0  0
  7  8  2  0  0  0
  7 16  1  0  0  0
  8  9  1  0  0  0
  9 10  1  0  0  0
 10 11  1  0  0  0
 10 16  2  0  0  0
 11 12  2  0  0  0
 12 13  1  0  0  0
 13 14  2  0  0  0
 14 15  1  0  0  0
 14 16  1  0  0  0
 15 17  1  0  0  0
 15 18  1  0  0  0
  5  6  1  0  0  0
M  END
> <minimizedAffinity>
-9.17660

$$$$
