CHEMBL3690470


 36 39  0  0  0  0  0  0  0  0999 V2000
  -14.9115    0.5320  -15.2042 C   0  0  0  0  0  0  0  0  0  0  0  0
  -13.6929    0.3855  -15.8519 C   0  0  0  0  0  0  0  0  0  0  0  0
  -12.9517   -0.6462  -15.3434 N   0  0  0  0  0  0  0  0  0  0  0  0
  -13.6817   -1.1458  -14.3722 C   0  0  0  0  0  0  0  0  0  0  0  0
  -13.4285   -2.2399  -13.4931 C   0  0  0  0  0  0  0  0  0  0  0  0
  -14.3364   -2.5840  -12.5522 C   0  0  0  0  0  0  0  0  0  0  0  0
  -15.5696   -1.8155  -12.4060 C   0  0  0  0  0  0  0  0  0  0  0  0
  -15.8026   -0.7731  -13.2167 C   0  0  0  0  0  0  0  0  0  0  0  0
  -14.8829   -0.4517  -14.2191 N   0  0  0  0  0  0  0  0  0  0  0  0
  -18.2404    2.3676  -15.0261 C   0  0  0  0  0  0  0  0  0  0  0  0
  -17.9158    3.5385  -15.7081 C   0  0  0  0  0  0  0  0  0  0  0  0
  -16.6531    3.6923  -16.2831 C   0  0  0  0  0  0  0  0  0  0  0  0
  -15.6859    2.6982  -16.1342 C   0  0  0  0  0  0  0  0  0  0  0  0
  -15.9707    1.5272  -15.4221 C   0  0  0  0  0  0  0  0  0  0  0  0
  -17.2745    1.3542  -14.9275 C   0  0  0  0  0  0  0  0  0  0  0  0
  -20.2649    0.2268  -15.4963 O   0  0  0  0  0  0  0  0  0  0  0  0
  -20.3832    1.1296  -14.6783 C   0  0  0  0  0  0  0  0  0  0  0  0
  -21.5004    1.2224  -13.8724 N   0  0  0  0  0  0  0  0  0  0  0  0
  -19.4867    2.1362  -14.4049 N   0  0  0  0  0  0  0  0  0  0  0  0
  -21.7713    2.1584  -13.6053 H   0  0  0  0  0  0  0  0  0  0  0  0
  -19.7412    2.7636  -13.6579 H   0  0  0  0  0  0  0  0  0  0  0  0
  -22.5993    0.2729  -14.0809 C   0  0  0  0  0  0  0  0  0  0  0  0
  -22.9745   -0.5724  -12.8560 C   0  0  0  0  0  0  0  0  0  0  0  0
  -22.8337   -1.8976  -13.0952 F   0  0  0  0  0  0  0  0  0  0  0  0
  -22.2422   -0.2596  -11.7686 F   0  0  0  0  0  0  0  0  0  0  0  0
  -24.2786   -0.3721  -12.5394 F   0  0  0  0  0  0  0  0  0  0  0  0
  -14.0623   -3.7438  -11.6919 C   0  0  0  0  0  0  0  0  0  0  0  0
  -13.8794   -3.5870  -10.3145 C   0  0  0  0  0  0  0  0  0  0  0  0
  -13.6954   -4.7065   -9.5024 C   0  0  0  0  0  0  0  0  0  0  0  0
  -13.7086   -5.9875  -10.0595 C   0  0  0  0  0  0  0  0  0  0  0  0
  -13.8985   -6.1601  -11.4358 C   0  0  0  0  0  0  0  0  0  0  0  0
  -14.0640   -5.0282  -12.2461 C   0  0  0  0  0  0  0  0  0  0  0  0
  -13.9820   -7.5385  -12.0480 C   0  0  0  0  0  0  0  0  0  0  0  0
  -14.9587   -7.6007  -13.2241 C   0  0  0  0  0  0  0  0  0  0  0  0
  -14.6937   -8.7177  -14.0731 O   0  0  0  0  0  0  0  0  0  0  0  0
  -13.8426   -8.5379  -14.5124 H   0  0  0  0  0  0  0  0  0  0  0  0
 16 17  2  0  0  0
 17 18  1  0  0  0
 17 19  1  0  0  0
 18 22  1  0  0  0
 18 20  1  0  0  0
 22 23  1  0  0  0
 23 24  1  0  0  0
 23 25  1  0  0  0
 23 26  1  0  0  0
 19 10  1  0  0  0
 19 21  1  0  0  0
 10 11  1  0  0  0
 10 15  2  0  0  0
 11 12  2  0  0  0
 12 13  1  0  0  0
 13 14  2  0  0  0
 14  1  1  0  0  0
 14 15  1  0  0  0
  1  2  2  0  0  0
  1  9  1  0  0  0
  2  3  1  0  0  0
  3  4  2  0  0  0
  4  5  1  0  0  0
  4  9  1  0  0  0
  5  6  2  0  0  0
  6 27  1  0  0  0
  6  7  1  0  0  0
 27 28  1  0  0  0
 27 32  2  0  0  0
 28 29  2  0  0  0
 29 30  1  0  0  0
 30 31  2  0  0  0
 31 33  1  0  0  0
 31 32  1  0  0  0
 33 34  1  0  0  0
 34 35  1  0  0  0
 35 36  1  0  0  0
  7  8  2  0  0  0
  8  9  1  0  0  0
M  END
> <minimizedAffinity>
-9.43070

$$$$
