CHEMBL2088105


 26 28  0  0  0  0  0  0  0  0999 V2000
  -27.5528   -2.4168   -8.7892 C   0  0  0  0  0  0  0  0  0  0  0  0
  -27.3923   -1.2213   -8.2201 N   0  0  0  0  0  0  0  0  0  0  0  0
  -27.9166   -1.0706   -6.9838 C   0  0  0  0  0  0  0  0  0  0  0  0
  -28.6100   -2.0555   -6.3146 C   0  0  0  0  0  0  0  0  0  0  0  0
  -29.3088   -1.7286   -4.5938 Br  0  0  0  0  0  0  0  0  0  0  0  0
  -28.7207   -3.2663   -6.9683 C   0  0  0  0  0  0  0  0  0  0  0  0
  -28.1854   -3.4327   -8.1973 N   0  0  0  0  0  0  0  0  0  0  0  0
  -27.0540   -2.5722  -10.0758 N   0  0  0  0  0  0  0  0  0  0  0  0
  -26.0463   -2.6270   -9.9915 H   0  0  0  0  0  0  0  0  0  0  0  0
  -27.5847   -1.5971  -11.0276 C   0  0  0  0  0  0  0  0  0  0  0  0
  -27.0484   -1.8275  -12.4416 C   0  0  0  0  0  0  0  0  0  0  0  0
  -22.4427   -0.1991  -13.9001 C   0  0  0  0  0  0  0  0  0  0  0  0
  -23.7154   -0.4944  -13.2077 C   0  0  0  0  0  0  0  0  0  0  0  0
  -24.7661   -1.3325  -13.6366 C   0  0  0  0  0  0  0  0  0  0  0  0
  -25.7050   -1.2351  -12.6404 C   0  0  0  0  0  0  0  0  0  0  0  0
  -25.2468   -0.4030  -11.6706 O   0  0  0  0  0  0  0  0  0  0  0  0
  -23.9891    0.0617  -12.0198 N   0  0  0  0  0  0  0  0  0  0  0  0
  -29.3727   -4.3673   -6.3690 N   0  0  0  0  0  0  0  0  0  0  0  0
  -30.1750   -4.6557   -6.9188 H   0  0  0  0  0  0  0  0  0  0  0  0
  -28.7468   -5.3746   -5.7185 C   0  0  0  0  0  0  0  0  0  0  0  0
  -28.7976   -6.7275   -6.1275 C   0  0  0  0  0  0  0  0  0  0  0  0
  -28.1358   -7.4333   -5.1523 C   0  0  0  0  0  0  0  0  0  0  0  0
  -27.9591   -8.8879   -4.9585 C   0  0  0  0  0  0  0  0  0  0  0  0
  -27.6538   -6.4887   -4.2957 N   0  0  0  0  0  0  0  0  0  0  0  0
  -27.9882   -5.2260   -4.6312 N   0  0  0  0  0  0  0  0  0  0  0  0
  -27.1046   -6.6294   -3.4517 H   0  0  0  0  0  0  0  0  0  0  0  0
 12 13  1  0  0  0
 13 14  1  0  0  0
 13 17  2  0  0  0
 14 15  2  0  0  0
 15 11  1  0  0  0
 15 16  1  0  0  0
 11 10  1  0  0  0
 10  8  1  0  0  0
  8  1  1  0  0  0
  8  9  1  0  0  0
  1  2  1  0  0  0
  1  7  2  0  0  0
  2  3  2  0  0  0
  3  4  1  0  0  0
  4  5  1  0  0  0
  4  6  2  0  0  0
  6 18  1  0  0  0
  6  7  1  0  0  0
 18 20  1  0  0  0
 18 19  1  0  0  0
 20 21  1  0  0  0
 20 25  2  0  0  0
 21 22  2  0  0  0
 22 23  1  0  0  0
 22 24  1  0  0  0
 24 25  1  0  0  0
 24 26  1  0  0  0
 16 17  1  0  0  0
M  END
> <minimizedAffinity>
-8.39492

$$$$
