CHEMBL234275


 32 34  0  0  0  0  0  0  0  0999 V2000
  -28.2431   -3.5785   -6.2763 C   0  0  0  0  0  0  0  0  0  0  0  0
  -27.8433   -2.2688   -6.3707 C   0  0  0  0  0  0  0  0  0  0  0  0
  -27.7836   -1.5964   -7.5252 N   0  0  0  0  0  0  0  0  0  0  0  0
  -28.1635   -2.2315   -8.6445 C   0  0  0  0  0  0  0  0  0  0  0  0
  -28.6274   -3.4927   -8.6434 N   0  0  0  0  0  0  0  0  0  0  0  0
  -28.6542   -4.1733   -7.4608 C   0  0  0  0  0  0  0  0  0  0  0  0
  -29.1457   -5.5723   -7.5768 C   0  0  0  0  0  0  0  0  0  0  0  0
  -30.4233   -5.9334   -7.0959 C   0  0  0  0  0  0  0  0  0  0  0  0
  -30.9030   -7.2469   -7.1953 C   0  0  0  0  0  0  0  0  0  0  0  0
  -30.1118   -8.2207   -7.8027 C   0  0  0  0  0  0  0  0  0  0  0  0
  -28.8394   -7.9043   -8.2691 C   0  0  0  0  0  0  0  0  0  0  0  0
  -28.3620   -6.5983   -8.1403 C   0  0  0  0  0  0  0  0  0  0  0  0
  -30.6922   -9.8824   -7.9529 S   0  0  0  0  0  0  0  0  0  0  0  0
  -32.2189   -9.6380   -8.6044 N   0  0  0  0  0  0  0  0  0  0  0  0
  -29.9276  -10.5648   -8.9704 O   0  0  0  0  0  0  0  0  0  0  0  0
  -30.9000  -10.4369   -6.6362 O   0  0  0  0  0  0  0  0  0  0  0  0
  -32.2714  -10.0428   -9.5394 H   0  0  0  0  0  0  0  0  0  0  0  0
  -32.9327   -9.9780   -7.9603 H   0  0  0  0  0  0  0  0  0  0  0  0
  -28.0927   -4.7349   -3.9712 N   0  0  0  0  0  0  0  0  0  0  0  0
  -28.1818   -4.2138   -5.0039 C   0  0  0  0  0  0  0  0  0  0  0  0
  -28.1039   -1.5558   -9.8560 N   0  0  0  0  0  0  0  0  0  0  0  0
  -28.9452   -1.0465  -10.0779 H   0  0  0  0  0  0  0  0  0  0  0  0
  -27.0770   -1.5933  -10.8072 C   0  0  0  0  0  0  0  0  0  0  0  0
  -25.7337   -1.4221  -10.4392 C   0  0  0  0  0  0  0  0  0  0  0  0
  -24.7184   -1.3303  -11.3917 C   0  0  0  0  0  0  0  0  0  0  0  0
  -25.0297   -1.3738  -12.7509 C   0  0  0  0  0  0  0  0  0  0  0  0
  -26.3652   -1.5657  -13.1322 C   0  0  0  0  0  0  0  0  0  0  0  0
  -27.3763   -1.6808  -12.1706 C   0  0  0  0  0  0  0  0  0  0  0  0
  -23.9482   -1.1907  -13.7892 C   0  0  0  0  0  0  0  0  0  0  0  0
  -22.7262   -0.4364  -13.2710 C   0  0  0  0  0  0  0  0  0  0  0  0
  -21.8966    0.0104  -14.3379 O   0  0  0  0  0  0  0  0  0  0  0  0
  -21.5122   -0.7875  -14.7441 H   0  0  0  0  0  0  0  0  0  0  0  0
 19 20  3  0  0  0
 20  1  1  0  0  0
  1  2  1  0  0  0
  1  6  2  0  0  0
  2  3  2  0  0  0
  3  4  1  0  0  0
  4 21  1  0  0  0
  4  5  2  0  0  0
 21 23  1  0  0  0
 21 22  1  0  0  0
 23 24  1  0  0  0
 23 28  2  0  0  0
 24 25  2  0  0  0
 25 26  1  0  0  0
 26 29  1  0  0  0
 26 27  2  0  0  0
 29 30  1  0  0  0
 30 31  1  0  0  0
 31 32  1  0  0  0
 27 28  1  0  0  0
  5  6  1  0  0  0
  6  7  1  0  0  0
  7  8  1  0  0  0
  7 12  2  0  0  0
  8  9  2  0  0  0
  9 10  1  0  0  0
 10 13  1  0  0  0
 10 11  2  0  0  0
 13 14  1  0  0  0
 13 15  2  0  0  0
 13 16  2  0  0  0
 14 17  1  0  0  0
 14 18  1  0  0  0
 11 12  1  0  0  0
M  END
> <minimizedAffinity>
-8.79187

$$$$
