CHEMBL3978754


 40 44  0  0  0  0  0  0  0  0999 V2000
  -14.5115    0.5241  -14.5337 N   0  0  0  0  0  0  0  0  0  0  0  0
  -13.8791   -0.7217  -14.8659 C   0  0  0  0  0  0  0  0  0  0  0  0
  -13.1221   -0.8435  -16.0375 C   0  0  0  0  0  0  0  0  0  0  0  0
  -12.5633   -2.0537  -16.4255 C   0  0  0  0  0  0  0  0  0  0  0  0
  -12.7530   -3.1961  -15.6879 C   0  0  0  0  0  0  0  0  0  0  0  0
  -12.3046   -4.3230  -16.2499 N   0  0  0  0  0  0  0  0  0  0  0  0
  -12.5368   -5.4564  -15.5670 C   0  0  0  0  0  0  0  0  0  0  0  0
  -13.1193   -5.4784  -14.3091 C   0  0  0  0  0  0  0  0  0  0  0  0
  -13.5543   -4.3218  -13.7187 N   0  0  0  0  0  0  0  0  0  0  0  0
  -13.4264   -3.1542  -14.4427 C   0  0  0  0  0  0  0  0  0  0  0  0
  -13.9682   -1.8920  -14.0613 C   0  0  0  0  0  0  0  0  0  0  0  0
  -13.2704   -6.7695  -13.6451 C   0  0  0  0  0  0  0  0  0  0  0  0
  -14.4560   -7.4997  -13.3553 C   0  0  0  0  0  0  0  0  0  0  0  0
  -14.2177   -8.7038  -12.8336 N   0  0  0  0  0  0  0  0  0  0  0  0
  -12.8761   -8.7664  -12.7961 N   0  0  0  0  0  0  0  0  0  0  0  0
  -12.2367  -10.0012  -12.4074 C   0  0  0  0  0  0  0  0  0  0  0  0
  -12.2643   -7.6200  -13.2322 C   0  0  0  0  0  0  0  0  0  0  0  0
  -14.0758    1.8606  -14.8679 C   0  0  0  0  0  0  0  0  0  0  0  0
  -12.9973    2.5104  -14.2145 C   0  0  0  0  0  0  0  0  0  0  0  0
  -12.3376    1.8738  -13.2349 F   0  0  0  0  0  0  0  0  0  0  0  0
  -12.6112    3.8317  -14.5286 C   0  0  0  0  0  0  0  0  0  0  0  0
  -13.3066    4.5505  -15.5037 C   0  0  0  0  0  0  0  0  0  0  0  0
  -14.3639    3.9636  -16.1759 C   0  0  0  0  0  0  0  0  0  0  0  0
  -14.7201    2.6416  -15.8655 C   0  0  0  0  0  0  0  0  0  0  0  0
  -15.7162    2.1302  -16.6063 F   0  0  0  0  0  0  0  0  0  0  0  0
  -11.5948    4.5706  -13.9815 O   0  0  0  0  0  0  0  0  0  0  0  0
  -11.3518    5.8719  -14.4910 C   0  0  0  0  0  0  0  0  0  0  0  0
  -15.1196    4.5616  -17.1497 O   0  0  0  0  0  0  0  0  0  0  0  0
  -14.5003    4.7980  -18.4064 C   0  0  0  0  0  0  0  0  0  0  0  0
  -15.4910    0.4340  -13.3992 C   0  0  0  0  0  0  0  0  0  0  0  0
  -17.9282    1.3944  -13.9579 C   0  0  0  0  0  0  0  0  0  0  0  0
  -16.8406    0.9427  -13.7386 C   0  0  0  0  0  0  0  0  0  0  0  0
  -21.4394    1.8609  -14.3226 C   0  0  0  0  0  0  0  0  0  0  0  0
  -21.5192    3.0213  -15.0596 C   0  0  0  0  0  0  0  0  0  0  0  0
  -20.3247    3.6580  -15.2952 C   0  0  0  0  0  0  0  0  0  0  0  0
  -19.1394    3.1829  -14.8753 N   0  0  0  0  0  0  0  0  0  0  0  0
  -19.1900    2.0230  -14.2011 C   0  0  0  0  0  0  0  0  0  0  0  0
  -20.2877    1.3279  -13.8819 N   0  0  0  0  0  0  0  0  0  0  0  0
  -22.4826    0.0688  -13.2407 C   0  0  0  0  0  0  0  0  0  0  0  0
  -22.6374    1.2206  -14.0657 O   0  0  0  0  0  0  0  0  0  0  0  0
 39 40  1  0  0  0
 40 33  1  0  0  0
 33 34  1  0  0  0
 33 38  2  0  0  0
 34 35  2  0  0  0
 35 36  1  0  0  0
 36 37  2  0  0  0
 37 31  1  0  0  0
 37 38  1  0  0  0
 31 32  3  0  0  0
 32 30  1  0  0  0
 30  1  1  0  0  0
  1  2  1  0  0  0
  1 18  1  0  0  0
  2  3  1  0  0  0
  2 11  2  0  0  0
  3  4  2  0  0  0
  4  5  1  0  0  0
  5  6  1  0  0  0
  5 10  2  0  0  0
  6  7  2  0  0  0
  7  8  1  0  0  0
  8 12  1  0  0  0
  8  9  2  0  0  0
 12 13  1  0  0  0
 12 17  2  0  0  0
 13 14  2  0  0  0
 14 15  1  0  0  0
 15 16  1  0  0  0
 15 17  1  0  0  0
  9 10  1  0  0  0
 10 11  1  0  0  0
 18 19  1  0  0  0
 18 24  2  0  0  0
 19 20  1  0  0  0
 19 21  2  0  0  0
 21 26  1  0  0  0
 21 22  1  0  0  0
 26 27  1  0  0  0
 22 23  2  0  0  0
 23 28  1  0  0  0
 23 24  1  0  0  0
 28 29  1  0  0  0
 24 25  1  0  0  0
M  END
> <minimizedAffinity>
-7.53291

$$$$
