CHEMBL567475


 40 44  0  0  0  0  0  0  0  0999 V2000
  -29.1780   -4.3670   -5.0619 C   0  0  0  0  0  0  0  0  0  0  0  0
  -30.2537   -5.0940   -5.5619 C   0  0  0  0  0  0  0  0  0  0  0  0
  -30.1091   -6.4591   -6.0008 C   0  0  0  0  0  0  0  0  0  0  0  0
  -29.0063   -7.2641   -5.6805 C   0  0  0  0  0  0  0  0  0  0  0  0
  -28.0533   -6.6371   -4.8761 C   0  0  0  0  0  0  0  0  0  0  0  0
  -28.1306   -5.2244   -4.6121 C   0  0  0  0  0  0  0  0  0  0  0  0
  -27.1305   -4.7132   -3.8749 F   0  0  0  0  0  0  0  0  0  0  0  0
  -28.8536   -8.6372   -6.1120 N   0  0  0  0  0  0  0  0  0  0  0  0
  -28.3440   -9.0619   -7.3423 C   0  0  0  0  0  0  0  0  0  0  0  0
  -27.9683   -8.2861   -8.2267 O   0  0  0  0  0  0  0  0  0  0  0  0
  -29.1893   -9.3685   -5.4764 H   0  0  0  0  0  0  0  0  0  0  0  0
  -28.1936  -10.5700   -7.6479 C   0  0  0  0  0  0  0  0  0  0  0  0
  -26.8585  -11.1903   -7.3270 C   0  0  0  0  0  0  0  0  0  0  0  0
  -26.8404  -12.3294   -6.8528 O   0  0  0  0  0  0  0  0  0  0  0  0
  -25.6978  -10.4424   -7.5666 N   0  0  0  0  0  0  0  0  0  0  0  0
  -25.7658   -9.4321   -7.6393 H   0  0  0  0  0  0  0  0  0  0  0  0
  -24.4465  -10.9981   -7.1686 C   0  0  0  0  0  0  0  0  0  0  0  0
  -23.8400  -10.5530   -5.9855 C   0  0  0  0  0  0  0  0  0  0  0  0
  -22.5984  -11.0538   -5.5852 C   0  0  0  0  0  0  0  0  0  0  0  0
  -21.8732  -11.8380   -6.4668 C   0  0  0  0  0  0  0  0  0  0  0  0
  -20.6472  -12.2599   -6.1280 F   0  0  0  0  0  0  0  0  0  0  0  0
  -22.4183  -12.2058   -7.6913 C   0  0  0  0  0  0  0  0  0  0  0  0
  -23.7648  -11.9186   -7.9711 C   0  0  0  0  0  0  0  0  0  0  0  0
  -29.2080   -3.0162   -4.6133 O   0  0  0  0  0  0  0  0  0  0  0  0
  -27.5953   -1.5157   -8.6523 C   0  0  0  0  0  0  0  0  0  0  0  0
  -27.5792   -0.2947   -8.0741 C   0  0  0  0  0  0  0  0  0  0  0  0
  -28.2430   -0.4104   -6.8798 C   0  0  0  0  0  0  0  0  0  0  0  0
  -28.8266    0.6626   -6.3785 N   0  0  0  0  0  0  0  0  0  0  0  0
  -28.7815    0.8653   -5.0945 C   0  0  0  0  0  0  0  0  0  0  0  0
  -29.3002   -0.3101   -4.6265 C   0  0  0  0  0  0  0  0  0  0  0  0
  -29.3338   -1.7565   -5.2765 C   0  0  0  0  0  0  0  0  0  0  0  0
  -28.6621   -1.6649   -6.4894 C   0  0  0  0  0  0  0  0  0  0  0  0
  -28.3212   -2.7565   -7.7467 S   0  0  0  0  0  0  0  0  0  0  0  0
  -26.8155   -1.8849  -12.0547 N   0  0  0  0  0  0  0  0  0  0  0  0
  -25.5837   -1.8339  -11.4776 C   0  0  0  0  0  0  0  0  0  0  0  0
  -25.6838   -1.5915  -10.1994 N   0  0  0  0  0  0  0  0  0  0  0  0
  -27.0349   -1.6366   -9.9685 C   0  0  0  0  0  0  0  0  0  0  0  0
  -27.7669   -1.7836  -11.1048 C   0  0  0  0  0  0  0  0  0  0  0  0
  -25.8926   -1.5085  -14.2628 C   0  0  0  0  0  0  0  0  0  0  0  0
  -27.0853   -1.9657  -13.4594 C   0  0  0  0  0  0  0  0  0  0  0  0
 39 40  1  0  0  0
 40 34  1  0  0  0
 34 35  1  0  0  0
 34 38  1  0  0  0
 35 36  2  0  0  0
 36 37  1  0  0  0
 37 25  1  0  0  0
 37 38  2  0  0  0
 25 26  2  0  0  0
 25 33  1  0  0  0
 26 27  1  0  0  0
 27 28  1  0  0  0
 27 32  2  0  0  0
 28 29  2  0  0  0
 29 30  1  0  0  0
 30 31  2  0  0  0
 31 24  1  0  0  0
 31 32  1  0  0  0
 24  1  1  0  0  0
  1  2  1  0  0  0
  1  6  2  0  0  0
  2  3  2  0  0  0
  3  4  1  0  0  0
  4  8  1  0  0  0
  4  5  2  0  0  0
  8  9  1  0  0  0
  8 11  1  0  0  0
  9 10  2  0  0  0
  9 12  1  0  0  0
 12 13  1  0  0  0
 13 14  2  0  0  0
 13 15  1  0  0  0
 15 17  1  0  0  0
 15 16  1  0  0  0
 17 18  1  0  0  0
 17 23  2  0  0  0
 18 19  2  0  0  0
 19 20  1  0  0  0
 20 21  1  0  0  0
 20 22  2  0  0  0
 22 23  1  0  0  0
  5  6  1  0  0  0
  6  7  1  0  0  0
 32 33  1  0  0  0
M  END
> <minimizedAffinity>
-9.14804

$$$$
