CHEMBL449757


 46 52  0  0  0  0  0  0  0  0999 V2000
  -26.9697   -1.6876   -9.6899 C   0  0  0  0  0  0  0  0  0  0  0  0
  -27.5556   -2.9278   -9.4459 C   0  0  0  0  0  0  0  0  0  0  0  0
  -28.3563   -3.1132   -8.3222 C   0  0  0  0  0  0  0  0  0  0  0  0
  -28.5831   -2.0620   -7.4335 C   0  0  0  0  0  0  0  0  0  0  0  0
  -28.0105   -0.8163   -7.6937 C   0  0  0  0  0  0  0  0  0  0  0  0
  -28.2531    0.2459   -6.9122 F   0  0  0  0  0  0  0  0  0  0  0  0
  -27.1786   -0.6334   -8.7936 C   0  0  0  0  0  0  0  0  0  0  0  0
  -27.1876   -2.7020  -12.4671 O   0  0  0  0  0  0  0  0  0  0  0  0
  -26.3200   -1.9160  -12.0936 C   0  0  0  0  0  0  0  0  0  0  0  0
  -26.1805   -1.4209  -10.8131 N   0  0  0  0  0  0  0  0  0  0  0  0
  -25.3970   -1.3947  -12.9862 N   0  0  0  0  0  0  0  0  0  0  0  0
  -25.4024   -1.7057  -14.3942 C   0  0  0  0  0  0  0  0  0  0  0  0
  -24.6037   -0.5648  -15.0075 C   0  0  0  0  0  0  0  0  0  0  0  0
  -23.7546   -0.1342  -13.9214 N   0  0  0  0  0  0  0  0  0  0  0  0
  -24.3310   -0.5232  -12.6991 C   0  0  0  0  0  0  0  0  0  0  0  0
  -24.0336   -0.1542  -11.5698 O   0  0  0  0  0  0  0  0  0  0  0  0
  -25.4665   -0.7017  -10.7037 H   0  0  0  0  0  0  0  0  0  0  0  0
  -22.6716    0.7628  -14.0422 C   0  0  0  0  0  0  0  0  0  0  0  0
  -22.8706    2.1382  -13.8521 C   0  0  0  0  0  0  0  0  0  0  0  0
  -21.8243    3.0488  -13.9998 C   0  0  0  0  0  0  0  0  0  0  0  0
  -20.5577    2.5947  -14.3403 C   0  0  0  0  0  0  0  0  0  0  0  0
  -20.3375    1.2275  -14.5116 C   0  0  0  0  0  0  0  0  0  0  0  0
  -21.3841    0.3144  -14.3472 C   0  0  0  0  0  0  0  0  0  0  0  0
  -29.4308   -2.3687   -6.4002 O   0  0  0  0  0  0  0  0  0  0  0  0
  -29.0450   -3.2677   -5.4367 C   0  0  0  0  0  0  0  0  0  0  0  0
  -28.1822   -2.9571   -4.3935 C   0  0  0  0  0  0  0  0  0  0  0  0
  -27.8566   -3.9521   -3.4935 C   0  0  0  0  0  0  0  0  0  0  0  0
  -28.2732   -5.2324   -3.5524 N   0  0  0  0  0  0  0  0  0  0  0  0
  -29.0717   -5.5429   -4.6097 C   0  0  0  0  0  0  0  0  0  0  0  0
  -29.6069   -6.8342   -4.8906 C   0  0  0  0  0  0  0  0  0  0  0  0
  -30.3489   -6.8490   -6.0495 C   0  0  0  0  0  0  0  0  0  0  0  0
  -30.4316   -5.3150   -6.7807 S   0  0  0  0  0  0  0  0  0  0  0  0
  -29.4599   -4.6014   -5.5610 C   0  0  0  0  0  0  0  0  0  0  0  0
  -30.9962   -8.0649   -6.6068 C   0  0  0  0  0  0  0  0  0  0  0  0
  -30.4591   -9.3323   -6.5850 C   0  0  0  0  0  0  0  0  0  0  0  0
  -31.4081  -10.1300   -7.1573 N   0  0  0  0  0  0  0  0  0  0  0  0
  -32.4480   -9.3278   -7.5309 C   0  0  0  0  0  0  0  0  0  0  0  0
  -32.2328   -8.0732   -7.2014 N   0  0  0  0  0  0  0  0  0  0  0  0
  -31.3044  -11.5702   -7.2876 C   0  0  0  0  0  0  0  0  0  0  0  0
  -30.9549  -12.0339   -8.6948 C   0  0  0  0  0  0  0  0  0  0  0  0
  -29.4398  -12.1232   -8.8918 C   0  0  0  0  0  0  0  0  0  0  0  0
  -28.8410  -10.7857   -8.9996 N   0  0  0  0  0  0  0  0  0  0  0  0
  -29.4304  -10.0184  -10.1092 C   0  0  0  0  0  0  0  0  0  0  0  0
  -28.6202  -10.4160  -11.3269 C   0  0  0  0  0  0  0  0  0  0  0  0
  -27.2150  -10.5577  -10.7764 C   0  0  0  0  0  0  0  0  0  0  0  0
  -27.3951  -10.8189   -9.2863 C   0  0  0  0  0  0  0  0  0  0  0  0
  8  9  2  0  0  0
  9 10  1  0  0  0
  9 11  1  0  0  0
 10  1  1  0  0  0
 10 17  1  0  0  0
  1  2  1  0  0  0
  1  7  2  0  0  0
  2  3  2  0  0  0
  3  4  1  0  0  0
  4 24  1  0  0  0
  4  5  2  0  0  0
 24 25  1  0  0  0
 25 26  1  0  0  0
 25 33  2  0  0  0
 26 27  2  0  0  0
 27 28  1  0  0  0
 28 29  2  0  0  0
 29 30  1  0  0  0
 29 33  1  0  0  0
 30 31  2  0  0  0
 31 34  1  0  0  0
 31 32  1  0  0  0
 34 35  2  0  0  0
 34 38  1  0  0  0
 35 36  1  0  0  0
 36 39  1  0  0  0
 36 37  1  0  0  0
 39 40  1  0  0  0
 40 41  1  0  0  0
 41 42  1  0  0  0
 42 43  1  0  0  0
 42 46  1  0  0  0
 43 44  1  0  0  0
 44 45  1  0  0  0
 45 46  1  0  0  0
 37 38  2  0  0  0
 32 33  1  0  0  0
  5  6  1  0  0  0
  5  7  1  0  0  0
 11 12  1  0  0  0
 11 15  1  0  0  0
 12 13  1  0  0  0
 13 14  1  0  0  0
 14 18  1  0  0  0
 14 15  1  0  0  0
 18 19  1  0  0  0
 18 23  2  0  0  0
 19 20  2  0  0  0
 20 21  1  0  0  0
 21 22  2  0  0  0
 22 23  1  0  0  0
 15 16  2  0  0  0
M  END
> <minimizedAffinity>
-10.01617

$$$$
