CHEMBL3690410


 36 39  0  0  0  0  0  0  0  0999 V2000
  -29.0655   -2.8729   -5.3731 C   0  0  0  0  0  0  0  0  0  0  0  0
  -28.7660   -1.6157   -4.8703 C   0  0  0  0  0  0  0  0  0  0  0  0
  -28.1377   -0.8248   -5.7967 N   0  0  0  0  0  0  0  0  0  0  0  0
  -28.0499   -1.5653   -6.8803 C   0  0  0  0  0  0  0  0  0  0  0  0
  -27.4914   -1.2703   -8.1607 C   0  0  0  0  0  0  0  0  0  0  0  0
  -27.5003   -2.1877   -9.1570 C   0  0  0  0  0  0  0  0  0  0  0  0
  -28.1272   -3.4931   -8.9139 C   0  0  0  0  0  0  0  0  0  0  0  0
  -28.6776   -3.7631   -7.7225 C   0  0  0  0  0  0  0  0  0  0  0  0
  -28.6193   -2.8203   -6.6931 N   0  0  0  0  0  0  0  0  0  0  0  0
  -29.6747   -6.1655   -3.5882 C   0  0  0  0  0  0  0  0  0  0  0  0
  -31.0186   -6.0121   -3.2450 C   0  0  0  0  0  0  0  0  0  0  0  0
  -31.7504   -4.9262   -3.7130 C   0  0  0  0  0  0  0  0  0  0  0  0
  -31.1320   -3.9603   -4.4972 C   0  0  0  0  0  0  0  0  0  0  0  0
  -29.7558   -4.0105   -4.7470 C   0  0  0  0  0  0  0  0  0  0  0  0
  -29.0466   -5.1542   -4.3368 C   0  0  0  0  0  0  0  0  0  0  0  0
  -28.0053   -7.9822   -5.2453 O   0  0  0  0  0  0  0  0  0  0  0  0
  -28.1511   -8.0916   -4.0353 C   0  0  0  0  0  0  0  0  0  0  0  0
  -27.5084   -9.0898   -3.3332 N   0  0  0  0  0  0  0  0  0  0  0  0
  -28.9083   -7.2907   -3.2080 N   0  0  0  0  0  0  0  0  0  0  0  0
  -27.9525   -9.3914   -2.4781 H   0  0  0  0  0  0  0  0  0  0  0  0
  -28.8708   -7.4970   -2.2217 H   0  0  0  0  0  0  0  0  0  0  0  0
  -26.7784  -10.1182   -4.0861 C   0  0  0  0  0  0  0  0  0  0  0  0
  -25.2530   -9.9436   -4.1225 C   0  0  0  0  0  0  0  0  0  0  0  0
  -24.6033  -11.1058   -3.8797 F   0  0  0  0  0  0  0  0  0  0  0  0
  -24.8179   -9.4567   -5.3021 F   0  0  0  0  0  0  0  0  0  0  0  0
  -24.8656   -9.0728   -3.1567 F   0  0  0  0  0  0  0  0  0  0  0  0
  -26.8858   -1.8504  -10.4728 C   0  0  0  0  0  0  0  0  0  0  0  0
  -27.6954   -1.6577  -11.5269 N   0  0  0  0  0  0  0  0  0  0  0  0
  -27.1094   -1.3299  -12.6885 C   0  0  0  0  0  0  0  0  0  0  0  0
  -25.7511   -1.1856  -12.8386 C   0  0  0  0  0  0  0  0  0  0  0  0
  -24.9769   -1.4058  -11.7122 C   0  0  0  0  0  0  0  0  0  0  0  0
  -25.5436   -1.7401  -10.5199 N   0  0  0  0  0  0  0  0  0  0  0  0
  -23.4662   -1.2794  -11.7915 C   0  0  0  0  0  0  0  0  0  0  0  0
  -22.9493   -1.7519  -12.9651 F   0  0  0  0  0  0  0  0  0  0  0  0
  -23.0325    0.0096  -11.6978 F   0  0  0  0  0  0  0  0  0  0  0  0
  -22.8212   -1.9688  -10.8085 F   0  0  0  0  0  0  0  0  0  0  0  0
 16 17  2  0  0  0
 17 18  1  0  0  0
 17 19  1  0  0  0
 18 22  1  0  0  0
 18 20  1  0  0  0
 22 23  1  0  0  0
 23 24  1  0  0  0
 23 25  1  0  0  0
 23 26  1  0  0  0
 19 10  1  0  0  0
 19 21  1  0  0  0
 10 11  1  0  0  0
 10 15  2  0  0  0
 11 12  2  0  0  0
 12 13  1  0  0  0
 13 14  2  0  0  0
 14  1  1  0  0  0
 14 15  1  0  0  0
  1  2  2  0  0  0
  1  9  1  0  0  0
  2  3  1  0  0  0
  3  4  2  0  0  0
  4  5  1  0  0  0
  4  9  1  0  0  0
  5  6  2  0  0  0
  6 27  1  0  0  0
  6  7  1  0  0  0
 27 28  1  0  0  0
 27 32  2  0  0  0
 28 29  2  0  0  0
 29 30  1  0  0  0
 30 31  2  0  0  0
 31 33  1  0  0  0
 31 32  1  0  0  0
 33 34  1  0  0  0
 33 35  1  0  0  0
 33 36  1  0  0  0
  7  8  2  0  0  0
  8  9  1  0  0  0
M  END
> <minimizedAffinity>
-10.56467

$$$$
