CHEMBL3577115


 38 41  0  0  0  0  0  0  0  0999 V2000
  -27.7218   -1.9393   -9.8912 C   0  0  0  0  0  0  0  0  0  0  0  0
  -28.5880   -1.4374  -10.8725 C   0  0  0  0  0  0  0  0  0  0  0  0
  -28.1152   -1.2014  -12.1651 C   0  0  0  0  0  0  0  0  0  0  0  0
  -26.7802   -1.4515  -12.4676 C   0  0  0  0  0  0  0  0  0  0  0  0
  -26.3615   -1.2599  -13.7265 F   0  0  0  0  0  0  0  0  0  0  0  0
  -25.9051   -1.9491  -11.4967 C   0  0  0  0  0  0  0  0  0  0  0  0
  -26.3849   -2.2095  -10.2144 C   0  0  0  0  0  0  0  0  0  0  0  0
  -28.6577   -1.4955   -6.2347 N   0  0  0  0  0  0  0  0  0  0  0  0
  -28.0541   -1.2308   -7.4615 C   0  0  0  0  0  0  0  0  0  0  0  0
  -27.4481   -0.1861   -7.7014 O   0  0  0  0  0  0  0  0  0  0  0  0
  -28.1920   -2.2659   -8.5368 C   0  0  0  0  0  0  0  0  0  0  0  0
  -28.8107   -3.4315   -8.2924 C   0  0  0  0  0  0  0  0  0  0  0  0
  -29.3113   -3.7256   -6.9533 C   0  0  0  0  0  0  0  0  0  0  0  0
  -29.8883   -4.9485   -6.6382 C   0  0  0  0  0  0  0  0  0  0  0  0
  -30.3276   -5.2911   -5.4042 N   0  0  0  0  0  0  0  0  0  0  0  0
  -30.2130   -4.3846   -4.4186 C   0  0  0  0  0  0  0  0  0  0  0  0
  -29.7004   -3.1110   -4.6663 C   0  0  0  0  0  0  0  0  0  0  0  0
  -29.2301   -2.7710   -5.9393 C   0  0  0  0  0  0  0  0  0  0  0  0
  -30.6790   -4.6546   -3.1250 N   0  0  0  0  0  0  0  0  0  0  0  0
  -32.0613   -5.0816   -2.9864 C   0  0  0  0  0  0  0  0  0  0  0  0
  -30.0446   -5.2943   -2.6549 H   0  0  0  0  0  0  0  0  0  0  0  0
  -29.7832    0.5454   -5.3990 C   0  0  0  0  0  0  0  0  0  0  0  0
  -28.6261   -0.4271   -5.2397 C   0  0  0  0  0  0  0  0  0  0  0  0
  -24.5577   -2.2497  -11.7597 N   0  0  0  0  0  0  0  0  0  0  0  0
  -23.6381   -1.5158  -12.4588 C   0  0  0  0  0  0  0  0  0  0  0  0
  -22.5546   -2.0419  -12.7142 O   0  0  0  0  0  0  0  0  0  0  0  0
  -23.9621   -0.2002  -12.6493 N   0  0  0  0  0  0  0  0  0  0  0  0
  -24.1592   -3.0682  -11.3230 H   0  0  0  0  0  0  0  0  0  0  0  0
  -24.7854    0.1624  -12.1911 H   0  0  0  0  0  0  0  0  0  0  0  0
  -23.0922    0.7105  -13.1815 C   0  0  0  0  0  0  0  0  0  0  0  0
  -21.7983    0.5526  -13.6132 C   0  0  0  0  0  0  0  0  0  0  0  0
  -21.4311    1.8324  -14.1064 C   0  0  0  0  0  0  0  0  0  0  0  0
  -22.4305    2.7127  -13.9394 N   0  0  0  0  0  0  0  0  0  0  0  0
  -23.4673    2.0038  -13.3684 O   0  0  0  0  0  0  0  0  0  0  0  0
  -20.1359    2.2348  -14.7820 C   0  0  0  0  0  0  0  0  0  0  0  0
  -20.4514    2.9845  -16.0931 C   0  0  0  0  0  0  0  0  0  0  0  0
  -19.2822    3.1636  -13.8934 C   0  0  0  0  0  0  0  0  0  0  0  0
  -19.2966    0.9855  -15.1110 C   0  0  0  0  0  0  0  0  0  0  0  0
 22 23  1  0  0  0
 23  8  1  0  0  0
  8  9  1  0  0  0
  8 18  1  0  0  0
  9 10  2  0  0  0
  9 11  1  0  0  0
 11  1  1  0  0  0
 11 12  2  0  0  0
  1  2  1  0  0  0
  1  7  2  0  0  0
  2  3  2  0  0  0
  3  4  1  0  0  0
  4  5  1  0  0  0
  4  6  2  0  0  0
  6 24  1  0  0  0
  6  7  1  0  0  0
 24 25  1  0  0  0
 24 28  1  0  0  0
 25 26  2  0  0  0
 25 27  1  0  0  0
 27 30  1  0  0  0
 27 29  1  0  0  0
 30 31  2  0  0  0
 30 34  1  0  0  0
 31 32  1  0  0  0
 32 35  1  0  0  0
 32 33  2  0  0  0
 35 36  1  0  0  0
 35 37  1  0  0  0
 35 38  1  0  0  0
 33 34  1  0  0  0
 12 13  1  0  0  0
 13 14  1  0  0  0
 13 18  2  0  0  0
 14 15  2  0  0  0
 15 16  1  0  0  0
 16 19  1  0  0  0
 16 17  2  0  0  0
 19 20  1  0  0  0
 19 21  1  0  0  0
 17 18  1  0  0  0
M  END
> <minimizedAffinity>
-10.16742

$$$$
