CHEMBL3955706


 32 35  0  0  0  0  0  0  0  0999 V2000
  -15.5589    2.3575  -16.1752 N   0  0  0  0  0  0  0  0  0  0  0  0
  -16.9144    2.3275  -15.6565 C   0  0  0  0  0  0  0  0  0  0  0  0
  -17.3520    1.1602  -15.0801 C   0  0  0  0  0  0  0  0  0  0  0  0
  -18.6275    1.1121  -14.6065 C   0  0  0  0  0  0  0  0  0  0  0  0
  -19.5783    2.0747  -14.8534 C   0  0  0  0  0  0  0  0  0  0  0  0
  -20.5508    1.3551  -15.2289 N   0  0  0  0  0  0  0  0  0  0  0  0
  -21.2998    1.0915  -14.2061 C   0  0  0  0  0  0  0  0  0  0  0  0
  -22.1811    1.9718  -13.8511 C   0  0  0  0  0  0  0  0  0  0  0  0
  -21.3324    3.2415  -14.5471 N   0  0  0  0  0  0  0  0  0  0  0  0
  -19.6721    3.3250  -15.1480 C   0  0  0  0  0  0  0  0  0  0  0  0
  -17.9835    3.3729  -15.7474 C   0  0  0  0  0  0  0  0  0  0  0  0
  -23.3663    0.5673  -13.5954 C   0  0  0  0  0  0  0  0  0  0  0  0
  -23.9850   -0.7158  -14.1641 C   0  0  0  0  0  0  0  0  0  0  0  0
  -24.8280   -1.4709  -13.3812 N   0  0  0  0  0  0  0  0  0  0  0  0
  -24.8647   -0.8703  -12.1876 N   0  0  0  0  0  0  0  0  0  0  0  0
  -25.6067   -1.4937  -11.0324 C   0  0  0  0  0  0  0  0  0  0  0  0
  -24.0533    0.3307  -12.2813 C   0  0  0  0  0  0  0  0  0  0  0  0
  -13.2200    5.3876  -16.2977 C   0  0  0  0  0  0  0  0  0  0  0  0
  -13.4467    5.8052  -17.5583 C   0  0  0  0  0  0  0  0  0  0  0  0
  -14.4115    5.1635  -18.3483 C   0  0  0  0  0  0  0  0  0  0  0  0
  -15.1561    4.0856  -17.8556 C   0  0  0  0  0  0  0  0  0  0  0  0
  -14.8933    3.5559  -16.6043 C   0  0  0  0  0  0  0  0  0  0  0  0
  -14.0029    4.3592  -15.8564 C   0  0  0  0  0  0  0  0  0  0  0  0
  -11.9846    7.1940  -15.4773 C   0  0  0  0  0  0  0  0  0  0  0  0
  -12.2616    5.8071  -15.4268 O   0  0  0  0  0  0  0  0  0  0  0  0
  -14.6647    5.5152  -19.6454 O   0  0  0  0  0  0  0  0  0  0  0  0
  -14.6022    6.9172  -19.8867 C   0  0  0  0  0  0  0  0  0  0  0  0
  -15.0960    1.0322  -16.6948 C   0  0  0  0  0  0  0  0  0  0  0  0
  -13.6486    0.7675  -16.3998 C   0  0  0  0  0  0  0  0  0  0  0  0
  -13.2872   -0.0321  -15.2642 C   0  0  0  0  0  0  0  0  0  0  0  0
  -13.9028    0.4171  -13.9492 C   0  0  0  0  0  0  0  0  0  0  0  0
  -14.4135    0.7899  -12.8582 N   0  0  0  0  0  0  0  0  0  0  0  0
 24 25  1  0  0  0
 25 18  1  0  0  0
 18 19  1  0  0  0
 18 23  2  0  0  0
 19 20  2  0  0  0
 20 26  1  0  0  0
 20 21  1  0  0  0
 26 27  1  0  0  0
 21 22  2  0  0  0
 22  1  1  0  0  0
 22 23  1  0  0  0
  1 28  1  0  0  0
  1  2  1  0  0  0
 28 29  1  0  0  0
 29 30  1  0  0  0
 30 31  1  0  0  0
 31 32  3  0  0  0
  2  3  1  0  0  0
  2 11  2  0  0  0
  3  4  2  0  0  0
  4  5  1  0  0  0
  5  6  1  0  0  0
  5 10  2  0  0  0
  6  7  2  0  0  0
  7  8  1  0  0  0
  8 12  1  0  0  0
  8  9  2  0  0  0
 12 13  1  0  0  0
 12 17  2  0  0  0
 13 14  2  0  0  0
 14 15  1  0  0  0
 15 16  1  0  0  0
 15 17  1  0  0  0
  9 10  1  0  0  0
 10 11  1  0  0  0
M  END
> <minimizedAffinity>
-8.87771

$$$$
