CHEMBL3696073


 45 48  0  0  0  0  0  0  0  0999 V2000
  -27.5864   -2.5538   -8.9203 C   0  0  0  0  0  0  0  0  0  0  0  0
  -27.9280   -3.8326   -9.1292 N   0  0  0  0  0  0  0  0  0  0  0  0
  -28.6103   -4.4686   -7.7766 S   0  0  0  0  0  0  0  0  0  0  0  0
  -28.4983   -3.0557   -6.8416 C   0  0  0  0  0  0  0  0  0  0  0  0
  -27.9347   -2.0388   -7.5994 C   0  0  0  0  0  0  0  0  0  0  0  0
  -25.5550   -0.7153  -12.2312 C   0  0  0  0  0  0  0  0  0  0  0  0
  -26.9124   -1.0359  -12.3149 C   0  0  0  0  0  0  0  0  0  0  0  0
  -27.5695   -1.6120  -11.2243 C   0  0  0  0  0  0  0  0  0  0  0  0
  -26.8849   -1.8735  -10.0265 C   0  0  0  0  0  0  0  0  0  0  0  0
  -25.5206   -1.5555   -9.9567 C   0  0  0  0  0  0  0  0  0  0  0  0
  -24.8548   -0.9952  -11.0582 C   0  0  0  0  0  0  0  0  0  0  0  0
  -23.0902    1.0332  -14.2305 N   0  0  0  0  0  0  0  0  0  0  0  0
  -23.5842    0.3532  -13.1303 C   0  0  0  0  0  0  0  0  0  0  0  0
  -22.9486    0.0791  -12.1189 O   0  0  0  0  0  0  0  0  0  0  0  0
  -24.8943   -0.0831  -13.3150 N   0  0  0  0  0  0  0  0  0  0  0  0
  -23.6479    1.0133  -15.0668 H   0  0  0  0  0  0  0  0  0  0  0  0
  -25.0716   -0.4747  -14.2280 H   0  0  0  0  0  0  0  0  0  0  0  0
  -18.3322    0.2114  -15.3164 C   0  0  0  0  0  0  0  0  0  0  0  0
  -19.4151    1.1364  -14.8420 C   0  0  0  0  0  0  0  0  0  0  0  0
  -19.0952    2.4417  -14.4544 C   0  0  0  0  0  0  0  0  0  0  0  0
  -20.0999    3.3120  -14.0542 C   0  0  0  0  0  0  0  0  0  0  0  0
  -21.4236    2.8842  -14.0206 C   0  0  0  0  0  0  0  0  0  0  0  0
  -22.3385    3.8263  -13.7626 F   0  0  0  0  0  0  0  0  0  0  0  0
  -21.7755    1.5627  -14.3336 C   0  0  0  0  0  0  0  0  0  0  0  0
  -20.7565    0.7041  -14.7867 C   0  0  0  0  0  0  0  0  0  0  0  0
  -28.9023   -3.0761   -5.5102 N   0  0  0  0  0  0  0  0  0  0  0  0
  -30.1521   -3.5766   -5.1876 C   0  0  0  0  0  0  0  0  0  0  0  0
  -31.0020   -3.9261   -5.9967 O   0  0  0  0  0  0  0  0  0  0  0  0
  -30.3747   -3.6049   -3.8293 N   0  0  0  0  0  0  0  0  0  0  0  0
  -28.6046   -2.2829   -4.9507 H   0  0  0  0  0  0  0  0  0  0  0  0
  -29.5578   -3.6223   -3.2351 H   0  0  0  0  0  0  0  0  0  0  0  0
  -31.6099   -4.1846   -3.3174 C   0  0  0  0  0  0  0  0  0  0  0  0
  -31.6988   -5.6897   -3.5908 C   0  0  0  0  0  0  0  0  0  0  0  0
  -30.3320   -6.3887   -3.4853 C   0  0  0  0  0  0  0  0  0  0  0  0
  -29.5961   -6.3909   -4.7634 N   0  0  0  0  0  0  0  0  0  0  0  0
  -30.0873   -7.3859   -5.7452 C   0  0  0  0  0  0  0  0  0  0  0  0
  -29.6904   -8.8403   -5.4386 C   0  0  0  0  0  0  0  0  0  0  0  0
  -28.2720   -8.9772   -5.2854 O   0  0  0  0  0  0  0  0  0  0  0  0
  -27.7838   -8.0974   -4.2665 C   0  0  0  0  0  0  0  0  0  0  0  0
  -28.1463   -6.6328   -4.5700 C   0  0  0  0  0  0  0  0  0  0  0  0
  -27.8023   -0.6934   -7.0694 C   0  0  0  0  0  0  0  0  0  0  0  0
  -28.4053    0.3037   -7.7745 N   0  0  0  0  0  0  0  0  0  0  0  0
  -27.2499   -0.4533   -5.9992 O   0  0  0  0  0  0  0  0  0  0  0  0
  -29.0478    0.1199   -8.5369 H   0  0  0  0  0  0  0  0  0  0  0  0
  -28.4275    1.2232   -7.3512 H   0  0  0  0  0  0  0  0  0  0  0  0
 18 19  1  0  0  0
 19 20  1  0  0  0
 19 25  2  0  0  0
 20 21  2  0  0  0
 21 22  1  0  0  0
 22 23  1  0  0  0
 22 24  2  0  0  0
 24 12  1  0  0  0
 24 25  1  0  0  0
 12 13  1  0  0  0
 12 16  1  0  0  0
 13 14  2  0  0  0
 13 15  1  0  0  0
 15  6  1  0  0  0
 15 17  1  0  0  0
  6  7  1  0  0  0
  6 11  2  0  0  0
  7  8  2  0  0  0
  8  9  1  0  0  0
  9  1  1  0  0  0
  9 10  2  0  0  0
  1  2  2  0  0  0
  1  5  1  0  0  0
  2  3  1  0  0  0
  3  4  1  0  0  0
  4 26  1  0  0  0
  4  5  2  0  0  0
 26 27  1  0  0  0
 26 30  1  0  0  0
 27 28  2  0  0  0
 27 29  1  0  0  0
 29 32  1  0  0  0
 29 31  1  0  0  0
 32 33  1  0  0  0
 33 34  1  0  0  0
 34 35  1  0  0  0
 35 36  1  0  0  0
 35 40  1  0  0  0
 36 37  1  0  0  0
 37 38  1  0  0  0
 38 39  1  0  0  0
 39 40  1  0  0  0
  5 41  1  0  0  0
 41 42  1  0  0  0
 41 43  2  0  0  0
 42 44  1  0  0  0
 42 45  1  0  0  0
 10 11  1  0  0  0
M  END
> <minimizedAffinity>
-8.41581

$$$$
