CHEMBL4780971


 42 47  0  0  0  0  0  0  0  0999 V2000
  -28.6018   -4.2512   -8.1346 C   0  0  0  0  0  0  0  0  0  0  0  0
  -28.7543   -3.7667   -6.9177 N   0  0  0  0  0  0  0  0  0  0  0  0
  -28.2627   -2.5359   -6.7169 C   0  0  0  0  0  0  0  0  0  0  0  0
  -27.5812   -1.8278   -7.6857 C   0  0  0  0  0  0  0  0  0  0  0  0
  -27.4786   -2.3832   -8.9241 C   0  0  0  0  0  0  0  0  0  0  0  0
  -27.9903   -3.6068   -9.1534 N   0  0  0  0  0  0  0  0  0  0  0  0
  -29.6468   -7.6409   -8.1359 O   0  0  0  0  0  0  0  0  0  0  0  0
  -29.1146   -6.6445   -7.6471 C   0  0  0  0  0  0  0  0  0  0  0  0
  -28.4787   -6.5860   -6.4473 N   0  0  0  0  0  0  0  0  0  0  0  0
  -29.1657   -5.4901   -8.3851 N   0  0  0  0  0  0  0  0  0  0  0  0
  -28.2272   -5.6463   -6.1572 H   0  0  0  0  0  0  0  0  0  0  0  0
  -29.6418   -5.5554   -9.2783 H   0  0  0  0  0  0  0  0  0  0  0  0
  -28.2313   -7.6293   -5.5352 C   0  0  0  0  0  0  0  0  0  0  0  0
  -27.0713   -7.7437   -4.7685 C   0  0  0  0  0  0  0  0  0  0  0  0
  -26.9110   -8.8059   -3.8712 C   0  0  0  0  0  0  0  0  0  0  0  0
  -27.9146   -9.7591   -3.7190 C   0  0  0  0  0  0  0  0  0  0  0  0
  -29.0875   -9.6473   -4.4586 C   0  0  0  0  0  0  0  0  0  0  0  0
  -29.2456   -8.5834   -5.3539 C   0  0  0  0  0  0  0  0  0  0  0  0
  -26.9207   -1.7237   -9.9897 N   0  0  0  0  0  0  0  0  0  0  0  0
  -27.6716   -1.2591  -11.1560 C   0  0  0  0  0  0  0  0  0  0  0  0
  -27.0131   -1.7995  -12.4512 C   0  0  0  0  0  0  0  0  0  0  0  0
  -25.5756   -1.4658  -12.5978 N   0  0  0  0  0  0  0  0  0  0  0  0
  -24.8758   -1.9757  -11.3890 C   0  0  0  0  0  0  0  0  0  0  0  0
  -25.4665   -1.5101  -10.0316 C   0  0  0  0  0  0  0  0  0  0  0  0
  -25.3210   -0.0201  -12.7439 C   0  0  0  0  0  0  0  0  0  0  0  0
  -23.9543    0.3468  -13.2748 C   0  0  0  0  0  0  0  0  0  0  0  0
  -23.1076   -0.6458  -13.7945 C   0  0  0  0  0  0  0  0  0  0  0  0
  -21.8695   -0.3074  -14.3430 C   0  0  0  0  0  0  0  0  0  0  0  0
  -21.4667    1.0255  -14.3816 C   0  0  0  0  0  0  0  0  0  0  0  0
  -22.2964    2.0196  -13.8646 C   0  0  0  0  0  0  0  0  0  0  0  0
  -23.5324    1.6820  -13.3093 C   0  0  0  0  0  0  0  0  0  0  0  0
  -28.6874   -1.7050   -5.1882 S   0  0  0  0  0  0  0  0  0  0  0  0
  -28.7719   -3.1349   -4.1741 C   0  0  0  0  0  0  0  0  0  0  0  0
  -27.7231   -3.9997   -3.9510 C   0  0  0  0  0  0  0  0  0  0  0  0
  -28.2160   -4.9332   -3.0890 N   0  0  0  0  0  0  0  0  0  0  0  0
  -29.5692   -5.0337   -3.2813 C   0  0  0  0  0  0  0  0  0  0  0  0
  -30.4658   -6.0931   -3.1219 C   0  0  0  0  0  0  0  0  0  0  0  0
  -31.8175   -5.8039   -3.3189 C   0  0  0  0  0  0  0  0  0  0  0  0
  -32.2506   -4.4896   -3.5094 C   0  0  0  0  0  0  0  0  0  0  0  0
  -31.3326   -3.4440   -3.6636 C   0  0  0  0  0  0  0  0  0  0  0  0
  -29.9609   -3.7547   -3.6829 C   0  0  0  0  0  0  0  0  0  0  0  0
  -27.6905   -5.3966   -2.3548 H   0  0  0  0  0  0  0  0  0  0  0  0
  7  8  2  0  0  0
  8  9  1  0  0  0
  8 10  1  0  0  0
  9 13  1  0  0  0
  9 11  1  0  0  0
 13 14  1  0  0  0
 13 18  2  0  0  0
 14 15  2  0  0  0
 15 16  1  0  0  0
 16 17  2  0  0  0
 17 18  1  0  0  0
 10  1  1  0  0  0
 10 12  1  0  0  0
  1  2  1  0  0  0
  1  6  2  0  0  0
  2  3  2  0  0  0
  3 32  1  0  0  0
  3  4  1  0  0  0
 32 33  1  0  0  0
 33 34  2  0  0  0
 33 41  1  0  0  0
 34 35  1  0  0  0
 35 36  1  0  0  0
 35 42  1  0  0  0
 36 37  1  0  0  0
 36 41  2  0  0  0
 37 38  2  0  0  0
 38 39  1  0  0  0
 39 40  2  0  0  0
 40 41  1  0  0  0
  4  5  2  0  0  0
  5 19  1  0  0  0
  5  6  1  0  0  0
 19 20  1  0  0  0
 19 24  1  0  0  0
 20 21  1  0  0  0
 21 22  1  0  0  0
 22 25  1  0  0  0
 22 23  1  0  0  0
 25 26  1  0  0  0
 26 27  1  0  0  0
 26 31  2  0  0  0
 27 28  2  0  0  0
 28 29  1  0  0  0
 29 30  2  0  0  0
 30 31  1  0  0  0
 23 24  1  0  0  0
M  END
> <minimizedAffinity>
-8.25647

$$$$
