CHEMBL203585


 24 26  0  0  0  0  0  0  0  0999 V2000
  -28.6639   -3.5877   -6.9177 C   0  0  0  0  0  0  0  0  0  0  0  0
  -28.5720   -3.4624   -8.2891 C   0  0  0  0  0  0  0  0  0  0  0  0
  -28.1254   -2.2737   -8.8378 C   0  0  0  0  0  0  0  0  0  0  0  0
  -27.8404   -1.2161   -8.0679 N   0  0  0  0  0  0  0  0  0  0  0  0
  -27.9466   -1.4163   -6.7477 C   0  0  0  0  0  0  0  0  0  0  0  0
  -28.3314   -2.5474   -6.1380 N   0  0  0  0  0  0  0  0  0  0  0  0
  -28.7407   -9.0986   -3.8432 C   0  0  0  0  0  0  0  0  0  0  0  0
  -29.0721   -8.7616   -5.2750 C   0  0  0  0  0  0  0  0  0  0  0  0
  -29.6934   -9.5670   -5.9688 O   0  0  0  0  0  0  0  0  0  0  0  0
  -28.6708   -7.5267   -5.7420 N   0  0  0  0  0  0  0  0  0  0  0  0
  -27.9465   -6.5100   -4.9726 C   0  0  0  0  0  0  0  0  0  0  0  0
  -28.6968   -5.1637   -4.9631 C   0  0  0  0  0  0  0  0  0  0  0  0
  -29.0642   -4.7674   -6.3292 N   0  0  0  0  0  0  0  0  0  0  0  0
  -29.7782   -5.7833   -7.1196 C   0  0  0  0  0  0  0  0  0  0  0  0
  -29.0058   -7.1138   -7.1128 C   0  0  0  0  0  0  0  0  0  0  0  0
  -27.9497   -2.1026  -10.2159 N   0  0  0  0  0  0  0  0  0  0  0  0
  -28.8217   -1.8193  -10.6458 H   0  0  0  0  0  0  0  0  0  0  0  0
  -26.7909   -1.7790  -10.8330 C   0  0  0  0  0  0  0  0  0  0  0  0
  -25.6233   -1.5911  -10.2515 N   0  0  0  0  0  0  0  0  0  0  0  0
  -24.6686   -1.2114  -11.1664 C   0  0  0  0  0  0  0  0  0  0  0  0
  -25.1057   -1.1455  -12.4656 C   0  0  0  0  0  0  0  0  0  0  0  0
  -26.7640   -1.5472  -12.5445 S   0  0  0  0  0  0  0  0  0  0  0  0
  -24.3024   -0.7880  -13.5837 C   0  0  0  0  0  0  0  0  0  0  0  0
  -23.6408   -0.4740  -14.4828 N   0  0  0  0  0  0  0  0  0  0  0  0
  7  8  1  0  0  0
  8  9  2  0  0  0
  8 10  1  0  0  0
 10 11  1  0  0  0
 10 15  1  0  0  0
 11 12  1  0  0  0
 12 13  1  0  0  0
 13  1  1  0  0  0
 13 14  1  0  0  0
  1  2  1  0  0  0
  1  6  2  0  0  0
  2  3  2  0  0  0
  3 16  1  0  0  0
  3  4  1  0  0  0
 16 18  1  0  0  0
 16 17  1  0  0  0
 18 19  2  0  0  0
 18 22  1  0  0  0
 19 20  1  0  0  0
 20 21  2  0  0  0
 21 23  1  0  0  0
 21 22  1  0  0  0
 23 24  3  0  0  0
  4  5  2  0  0  0
  5  6  1  0  0  0
 14 15  1  0  0  0
M  END
> <minimizedAffinity>
-7.39184

$$$$
