CHEMBL2023475


 32 35  0  0  0  0  0  0  0  0999 V2000
  -29.1072   -2.9632   -6.7511 C   0  0  0  0  0  0  0  0  0  0  0  0
  -28.6821   -3.6458   -7.9228 C   0  0  0  0  0  0  0  0  0  0  0  0
  -27.8629   -3.1242   -8.9445 C   0  0  0  0  0  0  0  0  0  0  0  0
  -27.4525   -1.8085   -8.9120 C   0  0  0  0  0  0  0  0  0  0  0  0
  -27.7355   -1.1354   -7.6859 C   0  0  0  0  0  0  0  0  0  0  0  0
  -28.5300   -1.6925   -6.5796 C   0  0  0  0  0  0  0  0  0  0  0  0
  -28.7362   -0.9994   -5.3746 O   0  0  0  0  0  0  0  0  0  0  0  0
  -27.9243    0.1726   -5.0934 C   0  0  0  0  0  0  0  0  0  0  0  0
  -30.1773   -3.6712   -5.8959 C   0  0  0  0  0  0  0  0  0  0  0  0
  -28.9317   -5.3964   -4.5892 N   0  0  0  0  0  0  0  0  0  0  0  0
  -29.9304   -5.1179   -5.4911 C   0  0  0  0  0  0  0  0  0  0  0  0
  -30.6497   -6.0032   -5.9563 O   0  0  0  0  0  0  0  0  0  0  0  0
  -28.2671   -4.6779   -4.3163 H   0  0  0  0  0  0  0  0  0  0  0  0
  -27.8885   -8.7695   -4.1373 N   0  0  0  0  0  0  0  0  0  0  0  0
  -27.7029   -7.5601   -4.7265 C   0  0  0  0  0  0  0  0  0  0  0  0
  -28.6941   -6.7249   -4.2506 C   0  0  0  0  0  0  0  0  0  0  0  0
  -29.3867   -7.5306   -3.3322 C   0  0  0  0  0  0  0  0  0  0  0  0
  -28.8864   -8.7683   -3.2362 N   0  0  0  0  0  0  0  0  0  0  0  0
  -25.6864   -9.6899   -4.6764 C   0  0  0  0  0  0  0  0  0  0  0  0
  -27.1570   -9.9796   -4.4580 C   0  0  0  0  0  0  0  0  0  0  0  0
  -26.8537   -1.4082  -10.0955 O   0  0  0  0  0  0  0  0  0  0  0  0
  -26.9116   -1.6479  -11.4833 C   0  0  0  0  0  0  0  0  0  0  0  0
  -28.0452   -2.0587  -12.6105 C   0  0  0  0  0  0  0  0  0  0  0  0
  -27.8948   -2.1175  -14.0001 C   0  0  0  0  0  0  0  0  0  0  0  0
  -26.7237   -1.7965  -13.6601 N   0  0  0  0  0  0  0  0  0  0  0  0
  -25.5220   -1.4559  -13.3853 C   0  0  0  0  0  0  0  0  0  0  0  0
  -24.5430   -1.2100  -14.3223 C   0  0  0  0  0  0  0  0  0  0  0  0
  -23.3828   -0.7384  -13.7951 C   0  0  0  0  0  0  0  0  0  0  0  0
  -23.2796   -0.5594  -12.4044 C   0  0  0  0  0  0  0  0  0  0  0  0
  -22.1017   -0.1593  -11.9209 F   0  0  0  0  0  0  0  0  0  0  0  0
  -24.3334   -0.8213  -11.5160 C   0  0  0  0  0  0  0  0  0  0  0  0
  -25.5457   -1.3125  -12.0474 C   0  0  0  0  0  0  0  0  0  0  0  0
 19 20  1  0  0  0
 20 14  1  0  0  0
 14 15  1  0  0  0
 14 18  1  0  0  0
 15 16  2  0  0  0
 16 10  1  0  0  0
 16 17  1  0  0  0
 10 11  1  0  0  0
 10 13  1  0  0  0
 11 12  2  0  0  0
 11  9  1  0  0  0
  9  1  1  0  0  0
  1  2  1  0  0  0
  1  6  2  0  0  0
  2  3  2  0  0  0
  3  4  1  0  0  0
  4 21  1  0  0  0
  4  5  2  0  0  0
 21 22  1  0  0  0
 22 23  1  0  0  0
 22 32  2  0  0  0
 23 24  2  0  0  0
 24 25  1  0  0  0
 25 26  2  0  0  0
 26 27  1  0  0  0
 26 32  1  0  0  0
 27 28  2  0  0  0
 28 29  1  0  0  0
 29 30  1  0  0  0
 29 31  2  0  0  0
 31 32  1  0  0  0
  5  6  1  0  0  0
  6  7  1  0  0  0
  7  8  1  0  0  0
 17 18  2  0  0  0
M  END
> <minimizedAffinity>
-9.61286

$$$$
