CHEMBL373365


 36 39  0  0  0  0  0  0  0  0999 V2000
  -29.6131   -7.6638   -6.0638 C   0  0  0  0  0  0  0  0  0  0  0  0
  -29.5078   -8.6457   -5.2096 N   0  0  0  0  0  0  0  0  0  0  0  0
  -29.0459   -8.4178   -3.9474 C   0  0  0  0  0  0  0  0  0  0  0  0
  -28.6784   -7.2804   -3.4570 N   0  0  0  0  0  0  0  0  0  0  0  0
  -28.7614   -6.2660   -4.3237 N   0  0  0  0  0  0  0  0  0  0  0  0
  -28.3955   -4.9869   -4.0229 C   0  0  0  0  0  0  0  0  0  0  0  0
  -28.5720   -4.2149   -5.1500 C   0  0  0  0  0  0  0  0  0  0  0  0
  -29.0482   -5.0790   -6.2097 C   0  0  0  0  0  0  0  0  0  0  0  0
  -29.1964   -6.3462   -5.6243 C   0  0  0  0  0  0  0  0  0  0  0  0
  -28.2612   -2.7471   -5.1720 C   0  0  0  0  0  0  0  0  0  0  0  0
  -27.0681   -2.2402   -4.9206 N   0  0  0  0  0  0  0  0  0  0  0  0
  -27.1673   -0.8745   -5.0154 N   0  0  0  0  0  0  0  0  0  0  0  0
  -28.4178   -0.6181   -5.3245 C   0  0  0  0  0  0  0  0  0  0  0  0
  -29.1771   -1.7520   -5.4573 O   0  0  0  0  0  0  0  0  0  0  0  0
  -29.0590    0.7133   -5.5151 C   0  0  0  0  0  0  0  0  0  0  0  0
  -28.6683    1.3452   -6.8472 C   0  0  0  0  0  0  0  0  0  0  0  0
  -30.5753    0.6331   -5.3614 C   0  0  0  0  0  0  0  0  0  0  0  0
  -29.2436   -4.6220   -7.6458 C   0  0  0  0  0  0  0  0  0  0  0  0
  -30.5992   -3.9619   -7.8939 C   0  0  0  0  0  0  0  0  0  0  0  0
  -28.0686   -3.8345   -8.2215 C   0  0  0  0  0  0  0  0  0  0  0  0
  -30.1482   -7.9364   -7.3014 N   0  0  0  0  0  0  0  0  0  0  0  0
  -30.6551   -7.2093   -7.7777 H   0  0  0  0  0  0  0  0  0  0  0  0
  -28.5176  -10.0764   -9.9003 C   0  0  0  0  0  0  0  0  0  0  0  0
  -28.8027   -8.9762   -9.0773 C   0  0  0  0  0  0  0  0  0  0  0  0
  -29.8343   -9.0287   -8.1342 C   0  0  0  0  0  0  0  0  0  0  0  0
  -30.5451  -10.2327   -8.0091 C   0  0  0  0  0  0  0  0  0  0  0  0
  -31.5410  -10.3197   -7.1139 F   0  0  0  0  0  0  0  0  0  0  0  0
  -30.2518  -11.3460   -8.7930 C   0  0  0  0  0  0  0  0  0  0  0  0
  -29.2373  -11.2578   -9.7392 C   0  0  0  0  0  0  0  0  0  0  0  0
  -28.9791  -12.3288  -10.5052 F   0  0  0  0  0  0  0  0  0  0  0  0
  -27.9279   -9.5095  -12.1898 N   0  0  0  0  0  0  0  0  0  0  0  0
  -27.4845   -9.9019  -10.9461 C   0  0  0  0  0  0  0  0  0  0  0  0
  -26.3142  -10.1417  -10.6615 O   0  0  0  0  0  0  0  0  0  0  0  0
  -28.8053   -9.0099  -12.2967 H   0  0  0  0  0  0  0  0  0  0  0  0
  -27.3709   -9.3431  -14.4189 C   0  0  0  0  0  0  0  0  0  0  0  0
  -26.9031   -9.1266  -13.0890 O   0  0  0  0  0  0  0  0  0  0  0  0
 35 36  1  0  0  0
 36 31  1  0  0  0
 31 32  1  0  0  0
 31 34  1  0  0  0
 32 33  2  0  0  0
 32 23  1  0  0  0
 23 24  1  0  0  0
 23 29  2  0  0  0
 24 25  2  0  0  0
 25 21  1  0  0  0
 25 26  1  0  0  0
 21  1  1  0  0  0
 21 22  1  0  0  0
  1  2  2  0  0  0
  1  9  1  0  0  0
  2  3  1  0  0  0
  3  4  2  0  0  0
  4  5  1  0  0  0
  5  6  1  0  0  0
  5  9  1  0  0  0
  6  7  2  0  0  0
  7 10  1  0  0  0
  7  8  1  0  0  0
 10 11  2  0  0  0
 10 14  1  0  0  0
 11 12  1  0  0  0
 12 13  2  0  0  0
 13 15  1  0  0  0
 13 14  1  0  0  0
 15 16  1  0  0  0
 15 17  1  0  0  0
  8 18  1  0  0  0
  8  9  2  0  0  0
 18 19  1  0  0  0
 18 20  1  0  0  0
 26 27  1  0  0  0
 26 28  2  0  0  0
 28 29  1  0  0  0
 29 30  1  0  0  0
M  END
> <minimizedAffinity>
-8.79328

$$$$
