CHEMBL374985


 38 41  0  0  0  0  0  0  0  0999 V2000
  -16.5709    1.1113  -15.4725 C   0  0  0  0  0  0  0  0  0  0  0  0
  -16.2991    0.1201  -14.8037 O   0  0  0  0  0  0  0  0  0  0  0  0
  -15.7190    1.7345  -16.3630 N   0  0  0  0  0  0  0  0  0  0  0  0
  -15.9212    2.6786  -16.6629 H   0  0  0  0  0  0  0  0  0  0  0  0
  -20.2438    1.5947  -14.6672 C   0  0  0  0  0  0  0  0  0  0  0  0
  -20.4351    2.9346  -15.0205 C   0  0  0  0  0  0  0  0  0  0  0  0
  -19.3660    3.6896  -15.4982 C   0  0  0  0  0  0  0  0  0  0  0  0
  -18.1076    3.1063  -15.6175 C   0  0  0  0  0  0  0  0  0  0  0  0
  -17.1121    3.8774  -16.0720 F   0  0  0  0  0  0  0  0  0  0  0  0
  -17.8958    1.7672  -15.2804 C   0  0  0  0  0  0  0  0  0  0  0  0
  -18.9771    1.0091  -14.8015 C   0  0  0  0  0  0  0  0  0  0  0  0
  -22.3110    0.2230  -13.7796 C   0  0  0  0  0  0  0  0  0  0  0  0
  -21.3592    0.8284  -14.2005 C   0  0  0  0  0  0  0  0  0  0  0  0
  -26.8868   -2.2158  -11.8997 N   0  0  0  0  0  0  0  0  0  0  0  0
  -25.7263   -1.6359  -12.3622 C   0  0  0  0  0  0  0  0  0  0  0  0
  -25.5156   -1.6444  -13.6823 N   0  0  0  0  0  0  0  0  0  0  0  0
  -24.3871   -1.0409  -14.1176 C   0  0  0  0  0  0  0  0  0  0  0  0
  -23.4662   -0.4499  -13.2847 C   0  0  0  0  0  0  0  0  0  0  0  0
  -23.7682   -0.5308  -11.9439 C   0  0  0  0  0  0  0  0  0  0  0  0
  -24.8819   -1.1260  -11.4601 N   0  0  0  0  0  0  0  0  0  0  0  0
  -27.2330   -2.8877  -12.5692 H   0  0  0  0  0  0  0  0  0  0  0  0
  -26.7740   -2.5169  -10.9430 H   0  0  0  0  0  0  0  0  0  0  0  0
  -14.4514    1.2240  -16.7116 C   0  0  0  0  0  0  0  0  0  0  0  0
  -14.4080    0.3414  -17.8007 C   0  0  0  0  0  0  0  0  0  0  0  0
  -13.2026   -0.2486  -18.1984 C   0  0  0  0  0  0  0  0  0  0  0  0
  -12.0386    0.0708  -17.4917 C   0  0  0  0  0  0  0  0  0  0  0  0
  -12.0881    0.9380  -16.3924 C   0  0  0  0  0  0  0  0  0  0  0  0
  -13.2918    1.5159  -15.9468 C   0  0  0  0  0  0  0  0  0  0  0  0
  -13.3131    2.2651  -14.7758 N   0  0  0  0  0  0  0  0  0  0  0  0
  -12.9836    3.6913  -14.7485 C   0  0  0  0  0  0  0  0  0  0  0  0
  -11.7152    3.9318  -13.9278 C   0  0  0  0  0  0  0  0  0  0  0  0
  -11.8272    3.3071  -12.5385 C   0  0  0  0  0  0  0  0  0  0  0  0
  -12.1613    1.8263  -12.6488 C   0  0  0  0  0  0  0  0  0  0  0  0
  -13.4203    1.5982  -13.4791 C   0  0  0  0  0  0  0  0  0  0  0  0
  -13.1524   -1.2234  -19.3461 C   0  0  0  0  0  0  0  0  0  0  0  0
  -14.0843   -2.2144  -19.2612 F   0  0  0  0  0  0  0  0  0  0  0  0
  -13.3471   -0.6291  -20.5550 F   0  0  0  0  0  0  0  0  0  0  0  0
  -11.9491   -1.8580  -19.4324 F   0  0  0  0  0  0  0  0  0  0  0  0
 14 15  1  0  0  0
 14 21  1  0  0  0
 14 22  1  0  0  0
 15 16  1  0  0  0
 15 20  2  0  0  0
 16 17  2  0  0  0
 17 18  1  0  0  0
 18 12  1  0  0  0
 18 19  2  0  0  0
 12 13  3  0  0  0
 13  5  1  0  0  0
  5  6  1  0  0  0
  5 11  2  0  0  0
  6  7  2  0  0  0
  7  8  1  0  0  0
  8  9  1  0  0  0
  8 10  2  0  0  0
 10  1  1  0  0  0
 10 11  1  0  0  0
  1  2  2  0  0  0
  1  3  1  0  0  0
  3 23  1  0  0  0
  3  4  1  0  0  0
 23 24  1  0  0  0
 23 28  2  0  0  0
 24 25  2  0  0  0
 25 35  1  0  0  0
 25 26  1  0  0  0
 35 36  1  0  0  0
 35 37  1  0  0  0
 35 38  1  0  0  0
 26 27  2  0  0  0
 27 28  1  0  0  0
 28 29  1  0  0  0
 29 30  1  0  0  0
 29 34  1  0  0  0
 30 31  1  0  0  0
 31 32  1  0  0  0
 32 33  1  0  0  0
 33 34  1  0  0  0
 19 20  1  0  0  0
M  END
> <minimizedAffinity>
-10.06553

$$$$
