CHEMBL3690575


 36 39  0  0  0  0  0  0  0  0999 V2000
  -27.5872   -2.2337   -9.0194 C   0  0  0  0  0  0  0  0  0  0  0  0
  -27.9969   -3.6048   -8.6887 C   0  0  0  0  0  0  0  0  0  0  0  0
  -28.5079   -3.8862   -7.4777 C   0  0  0  0  0  0  0  0  0  0  0  0
  -28.6765   -2.8636   -6.5422 N   0  0  0  0  0  0  0  0  0  0  0  0
  -29.2272   -2.8610   -5.2656 C   0  0  0  0  0  0  0  0  0  0  0  0
  -29.0363   -1.5564   -4.8255 C   0  0  0  0  0  0  0  0  0  0  0  0
  -28.4473   -0.7668   -5.7691 N   0  0  0  0  0  0  0  0  0  0  0  0
  -28.2628   -1.5585   -6.7986 C   0  0  0  0  0  0  0  0  0  0  0  0
  -27.7238   -1.2673   -8.0804 C   0  0  0  0  0  0  0  0  0  0  0  0
  -27.9726   -1.8976  -13.9960 C   0  0  0  0  0  0  0  0  0  0  0  0
  -27.2387   -1.7102  -12.7061 C   0  0  0  0  0  0  0  0  0  0  0  0
  -27.8320   -2.0412  -11.5061 C   0  0  0  0  0  0  0  0  0  0  0  0
  -27.0722   -1.8696  -10.3659 C   0  0  0  0  0  0  0  0  0  0  0  0
  -25.8219   -1.3611  -10.4023 N   0  0  0  0  0  0  0  0  0  0  0  0
  -25.3234   -1.0546  -11.6171 C   0  0  0  0  0  0  0  0  0  0  0  0
  -25.9876   -1.2152  -12.7737 N   0  0  0  0  0  0  0  0  0  0  0  0
  -23.9183   -0.4953  -11.6992 C   0  0  0  0  0  0  0  0  0  0  0  0
  -22.8821   -1.6149  -11.7843 C   0  0  0  0  0  0  0  0  0  0  0  0
  -23.7739    0.4742  -12.8710 C   0  0  0  0  0  0  0  0  0  0  0  0
  -29.8396   -3.9837   -4.5435 C   0  0  0  0  0  0  0  0  0  0  0  0
  -31.2231   -3.9533   -4.3164 C   0  0  0  0  0  0  0  0  0  0  0  0
  -31.8588   -4.9953   -3.6541 C   0  0  0  0  0  0  0  0  0  0  0  0
  -31.1219   -6.0932   -3.2201 C   0  0  0  0  0  0  0  0  0  0  0  0
  -29.7516   -6.1877   -3.4710 C   0  0  0  0  0  0  0  0  0  0  0  0
  -29.1162   -5.1197   -4.1278 C   0  0  0  0  0  0  0  0  0  0  0  0
  -28.9777   -7.3203   -3.1050 N   0  0  0  0  0  0  0  0  0  0  0  0
  -28.1798   -8.0539   -3.9584 C   0  0  0  0  0  0  0  0  0  0  0  0
  -27.9867   -7.8440   -5.1494 O   0  0  0  0  0  0  0  0  0  0  0  0
  -27.6085   -9.1509   -3.3544 N   0  0  0  0  0  0  0  0  0  0  0  0
  -28.9759   -7.5803   -2.1354 H   0  0  0  0  0  0  0  0  0  0  0  0
  -27.4277   -9.1054   -2.3609 H   0  0  0  0  0  0  0  0  0  0  0  0
  -26.7218   -9.9919   -4.1727 C   0  0  0  0  0  0  0  0  0  0  0  0
  -25.2124   -9.7316   -4.0373 C   0  0  0  0  0  0  0  0  0  0  0  0
  -24.6050   -9.5849   -5.2369 F   0  0  0  0  0  0  0  0  0  0  0  0
  -25.0074   -8.5770   -3.3527 F   0  0  0  0  0  0  0  0  0  0  0  0
  -24.5795  -10.7122   -3.3602 F   0  0  0  0  0  0  0  0  0  0  0  0
 10 11  1  0  0  0
 11 12  1  0  0  0
 11 16  2  0  0  0
 12 13  2  0  0  0
 13  1  1  0  0  0
 13 14  1  0  0  0
  1  2  1  0  0  0
  1  9  2  0  0  0
  2  3  2  0  0  0
  3  4  1  0  0  0
  4  5  1  0  0  0
  4  8  1  0  0  0
  5 20  1  0  0  0
  5  6  2  0  0  0
 20 21  1  0  0  0
 20 25  2  0  0  0
 21 22  2  0  0  0
 22 23  1  0  0  0
 23 24  2  0  0  0
 24 26  1  0  0  0
 24 25  1  0  0  0
 26 27  1  0  0  0
 26 30  1  0  0  0
 27 28  2  0  0  0
 27 29  1  0  0  0
 29 32  1  0  0  0
 29 31  1  0  0  0
 32 33  1  0  0  0
 33 34  1  0  0  0
 33 35  1  0  0  0
 33 36  1  0  0  0
  6  7  1  0  0  0
  7  8  2  0  0  0
  8  9  1  0  0  0
 14 15  2  0  0  0
 15 17  1  0  0  0
 15 16  1  0  0  0
 17 18  1  0  0  0
 17 19  1  0  0  0
M  END
> <minimizedAffinity>
-10.73036

$$$$
