CHEMBL514499


 35 38  0  0  0  0  0  0  0  0999 V2000
  -28.6035   -9.2901   -8.2443 C   0  0  0  0  0  0  0  0  0  0  0  0
  -28.6995   -7.9471   -7.9783 C   0  0  0  0  0  0  0  0  0  0  0  0
  -30.0564   -7.5647   -7.7390 C   0  0  0  0  0  0  0  0  0  0  0  0
  -30.9162   -8.6541   -7.7269 C   0  0  0  0  0  0  0  0  0  0  0  0
  -30.0845  -10.0930   -8.1615 S   0  0  0  0  0  0  0  0  0  0  0  0
  -24.2717  -11.6165   -6.3436 C   0  0  0  0  0  0  0  0  0  0  0  0
  -24.4229  -11.6985   -7.7394 C   0  0  0  0  0  0  0  0  0  0  0  0
  -25.5386  -11.1172   -8.3521 C   0  0  0  0  0  0  0  0  0  0  0  0
  -25.9423  -11.2137   -9.6545 N   0  0  0  0  0  0  0  0  0  0  0  0
  -27.0940  -10.5879   -9.6889 C   0  0  0  0  0  0  0  0  0  0  0  0
  -27.4388  -10.0183   -8.4772 N   0  0  0  0  0  0  0  0  0  0  0  0
  -26.4338  -10.3770   -7.5895 C   0  0  0  0  0  0  0  0  0  0  0  0
  -26.2551  -10.2130   -6.2074 C   0  0  0  0  0  0  0  0  0  0  0  0
  -25.1590  -10.8337   -5.5891 C   0  0  0  0  0  0  0  0  0  0  0  0
  -22.0357  -11.6490   -5.6011 C   0  0  0  0  0  0  0  0  0  0  0  0
  -23.2905  -12.3251   -5.6936 O   0  0  0  0  0  0  0  0  0  0  0  0
  -25.1637  -10.6491   -4.2297 O   0  0  0  0  0  0  0  0  0  0  0  0
  -25.0516   -9.3161   -3.7535 C   0  0  0  0  0  0  0  0  0  0  0  0
  -32.3309   -8.7700   -7.4183 C   0  0  0  0  0  0  0  0  0  0  0  0
  -32.7713   -8.0467   -6.3497 N   0  0  0  0  0  0  0  0  0  0  0  0
  -33.1421   -9.4513   -8.0302 O   0  0  0  0  0  0  0  0  0  0  0  0
  -32.1686   -7.3967   -5.8656 H   0  0  0  0  0  0  0  0  0  0  0  0
  -33.7572   -8.0693   -6.1326 H   0  0  0  0  0  0  0  0  0  0  0  0
  -30.4991   -6.3250   -7.4129 O   0  0  0  0  0  0  0  0  0  0  0  0
  -29.9473   -5.7704   -6.2163 C   0  0  0  0  0  0  0  0  0  0  0  0
  -29.4036   -4.4025   -6.5744 C   0  0  0  0  0  0  0  0  0  0  0  0
  -28.8201   -4.2376   -7.8468 C   0  0  0  0  0  0  0  0  0  0  0  0
  -28.2304   -3.0306   -8.2201 C   0  0  0  0  0  0  0  0  0  0  0  0
  -28.2134   -1.9641   -7.3316 C   0  0  0  0  0  0  0  0  0  0  0  0
  -28.7981   -2.1013   -6.0746 C   0  0  0  0  0  0  0  0  0  0  0  0
  -29.4030   -3.3118   -5.6745 C   0  0  0  0  0  0  0  0  0  0  0  0
  -29.9886   -3.3479   -4.2797 C   0  0  0  0  0  0  0  0  0  0  0  0
  -31.2644   -3.8130   -4.1943 F   0  0  0  0  0  0  0  0  0  0  0  0
  -29.2638   -4.1407   -3.4393 F   0  0  0  0  0  0  0  0  0  0  0  0
  -30.0150   -2.1171   -3.6970 F   0  0  0  0  0  0  0  0  0  0  0  0
 15 16  1  0  0  0
 16  6  1  0  0  0
  6  7  1  0  0  0
  6 14  2  0  0  0
  7  8  2  0  0  0
  8  9  1  0  0  0
  8 12  1  0  0  0
  9 10  2  0  0  0
 10 11  1  0  0  0
 11  1  1  0  0  0
 11 12  1  0  0  0
  1  2  2  0  0  0
  1  5  1  0  0  0
  2  3  1  0  0  0
  3 24  1  0  0  0
  3  4  2  0  0  0
 24 25  1  0  0  0
 25 26  1  0  0  0
 26 27  1  0  0  0
 26 31  2  0  0  0
 27 28  2  0  0  0
 28 29  1  0  0  0
 29 30  2  0  0  0
 30 31  1  0  0  0
 31 32  1  0  0  0
 32 33  1  0  0  0
 32 34  1  0  0  0
 32 35  1  0  0  0
  4 19  1  0  0  0
  4  5  1  0  0  0
 19 20  1  0  0  0
 19 21  2  0  0  0
 20 22  1  0  0  0
 20 23  1  0  0  0
 12 13  2  0  0  0
 13 14  1  0  0  0
 14 17  1  0  0  0
 17 18  1  0  0  0
M  END
> <minimizedAffinity>
-8.57491

$$$$
