CHEMBL3775879


 25 27  0  0  0  0  0  0  0  0999 V2000
  -28.4054   -0.8567   -6.3964 C   0  0  0  0  0  0  0  0  0  0  0  0
  -29.2198   -1.1301   -5.2801 C   0  0  0  0  0  0  0  0  0  0  0  0
  -29.4857   -2.4195   -4.8452 C   0  0  0  0  0  0  0  0  0  0  0  0
  -30.1892   -2.5885   -3.7210 N   0  0  0  0  0  0  0  0  0  0  0  0
  -30.3692   -3.8484   -3.3138 C   0  0  0  0  0  0  0  0  0  0  0  0
  -29.9058   -4.9395   -3.9238 N   0  0  0  0  0  0  0  0  0  0  0  0
  -29.2093   -4.7607   -5.0609 C   0  0  0  0  0  0  0  0  0  0  0  0
  -28.9741   -3.4826   -5.5897 C   0  0  0  0  0  0  0  0  0  0  0  0
  -28.2705   -3.2228   -6.7818 C   0  0  0  0  0  0  0  0  0  0  0  0
  -27.9615   -1.9210   -7.1864 C   0  0  0  0  0  0  0  0  0  0  0  0
  -29.0942    1.4033   -6.6035 C   0  0  0  0  0  0  0  0  0  0  0  0
  -28.0541    0.4274   -6.7195 O   0  0  0  0  0  0  0  0  0  0  0  0
  -28.6602   -5.8940   -5.7245 N   0  0  0  0  0  0  0  0  0  0  0  0
  -27.9935   -6.3473   -5.1099 H   0  0  0  0  0  0  0  0  0  0  0  0
  -29.4010   -6.8245   -6.4850 C   0  0  0  0  0  0  0  0  0  0  0  0
  -30.7162   -7.1506   -6.1154 C   0  0  0  0  0  0  0  0  0  0  0  0
  -31.4695   -8.0410   -6.8858 C   0  0  0  0  0  0  0  0  0  0  0  0
  -30.9023   -8.6110   -8.0201 C   0  0  0  0  0  0  0  0  0  0  0  0
  -31.6250   -9.4361   -8.7871 F   0  0  0  0  0  0  0  0  0  0  0  0
  -29.5880   -8.3364   -8.3710 C   0  0  0  0  0  0  0  0  0  0  0  0
  -29.0125   -8.8856   -9.4805 O   0  0  0  0  0  0  0  0  0  0  0  0
  -28.8308   -7.4633   -7.5991 C   0  0  0  0  0  0  0  0  0  0  0  0
  -29.7147   -9.3741   -9.9453 H   0  0  0  0  0  0  0  0  0  0  0  0
  -27.2053   -1.9291   -8.3217 O   0  0  0  0  0  0  0  0  0  0  0  0
  -27.8081   -1.7844   -9.5940 C   0  0  0  0  0  0  0  0  0  0  0  0
 11 12  1  0  0  0
 12  1  1  0  0  0
  1  2  1  0  0  0
  1 10  2  0  0  0
  2  3  2  0  0  0
  3  4  1  0  0  0
  3  8  1  0  0  0
  4  5  2  0  0  0
  5  6  1  0  0  0
  6  7  2  0  0  0
  7 13  1  0  0  0
  7  8  1  0  0  0
 13 15  1  0  0  0
 13 14  1  0  0  0
 15 16  1  0  0  0
 15 22  2  0  0  0
 16 17  2  0  0  0
 17 18  1  0  0  0
 18 19  1  0  0  0
 18 20  2  0  0  0
 20 21  1  0  0  0
 20 22  1  0  0  0
 21 23  1  0  0  0
  8  9  2  0  0  0
  9 10  1  0  0  0
 10 24  1  0  0  0
 24 25  1  0  0  0
M  END
> <minimizedAffinity>
-7.77892

$$$$
