CHEMBL4098962


 44 49  0  0  0  0  0  0  0  0999 V2000
  -12.7893  -10.1607  -17.8644 C   0  0  0  0  0  0  0  0  0  0  0  0
  -12.3889   -8.9141  -18.4002 C   0  0  0  0  0  0  0  0  0  0  0  0
  -12.4815   -7.7267  -17.6499 C   0  0  0  0  0  0  0  0  0  0  0  0
  -12.9918   -7.7851  -16.3662 C   0  0  0  0  0  0  0  0  0  0  0  0
  -13.3428   -9.0418  -15.8442 C   0  0  0  0  0  0  0  0  0  0  0  0
  -13.2524  -10.2230  -16.5468 C   0  0  0  0  0  0  0  0  0  0  0  0
  -13.9046   -8.9249  -14.5806 N   0  0  0  0  0  0  0  0  0  0  0  0
  -14.0782   -7.5965  -14.2408 C   0  0  0  0  0  0  0  0  0  0  0  0
  -14.8448   -7.1874  -13.3888 O   0  0  0  0  0  0  0  0  0  0  0  0
  -13.3223   -6.8104  -15.2959 C   0  0  0  0  0  0  0  0  0  0  0  0
  -13.1306   -5.4804  -15.1438 C   0  0  0  0  0  0  0  0  0  0  0  0
  -14.3580   -9.6665  -14.0731 H   0  0  0  0  0  0  0  0  0  0  0  0
  -12.7215   -4.6588  -16.2988 C   0  0  0  0  0  0  0  0  0  0  0  0
  -13.6957   -4.2441  -17.2192 C   0  0  0  0  0  0  0  0  0  0  0  0
  -13.3424   -3.4407  -18.3036 C   0  0  0  0  0  0  0  0  0  0  0  0
  -12.0179   -3.0412  -18.4694 C   0  0  0  0  0  0  0  0  0  0  0  0
  -11.0445   -3.4413  -17.5531 C   0  0  0  0  0  0  0  0  0  0  0  0
  -11.3946   -4.2468  -16.4676 C   0  0  0  0  0  0  0  0  0  0  0  0
  -12.8208  -11.4262  -18.6568 C   0  0  0  0  0  0  0  0  0  0  0  0
  -11.8131  -11.9285  -19.1443 O   0  0  0  0  0  0  0  0  0  0  0  0
  -14.7425  -11.5545  -19.9478 C   0  0  0  0  0  0  0  0  0  0  0  0
  -14.0698  -11.9176  -18.7399 O   0  0  0  0  0  0  0  0  0  0  0  0
  -13.2878   -4.7180  -13.9839 N   0  0  0  0  0  0  0  0  0  0  0  0
  -12.5904   -4.8939  -13.2701 H   0  0  0  0  0  0  0  0  0  0  0  0
  -13.9344   -3.4642  -13.9216 C   0  0  0  0  0  0  0  0  0  0  0  0
  -13.1976   -2.2758  -13.9191 C   0  0  0  0  0  0  0  0  0  0  0  0
  -13.8085   -1.0405  -13.6774 C   0  0  0  0  0  0  0  0  0  0  0  0
  -15.1856   -0.9492  -13.4522 C   0  0  0  0  0  0  0  0  0  0  0  0
  -15.9426   -2.1263  -13.5437 C   0  0  0  0  0  0  0  0  0  0  0  0
  -15.3232   -3.3683  -13.7736 C   0  0  0  0  0  0  0  0  0  0  0  0
  -15.8158    0.3606  -13.0346 C   0  0  0  0  0  0  0  0  0  0  0  0
  -16.6541    0.9768  -14.0608 N   0  0  0  0  0  0  0  0  0  0  0  0
  -18.0218    1.1070  -13.9363 C   0  0  0  0  0  0  0  0  0  0  0  0
  -18.5112    1.6926  -15.0793 C   0  0  0  0  0  0  0  0  0  0  0  0
  -17.3995    2.0327  -15.8746 C   0  0  0  0  0  0  0  0  0  0  0  0
  -16.2492    1.6189  -15.2176 C   0  0  0  0  0  0  0  0  0  0  0  0
  -14.8275    1.7869  -15.6693 C   0  0  0  0  0  0  0  0  0  0  0  0
  -14.6965    1.6695  -17.1238 N   0  0  0  0  0  0  0  0  0  0  0  0
  -13.8705    2.7393  -17.7160 C   0  0  0  0  0  0  0  0  0  0  0  0
  -13.7692    2.5984  -19.2504 C   0  0  0  0  0  0  0  0  0  0  0  0
  -13.2651    1.2946  -19.7236 N   0  0  0  0  0  0  0  0  0  0  0  0
  -11.8243    1.1762  -19.5216 C   0  0  0  0  0  0  0  0  0  0  0  0
  -14.0127    0.2164  -19.0465 C   0  0  0  0  0  0  0  0  0  0  0  0
  -14.1388    0.3598  -17.5083 C   0  0  0  0  0  0  0  0  0  0  0  0
 21 22  1  0  0  0
 22 19  1  0  0  0
 19 20  2  0  0  0
 19  1  1  0  0  0
  1  2  1  0  0  0
  1  6  2  0  0  0
  2  3  2  0  0  0
  3  4  1  0  0  0
  4  5  2  0  0  0
  4 10  1  0  0  0
  5  6  1  0  0  0
  5  7  1  0  0  0
  7  8  1  0  0  0
  7 12  1  0  0  0
  8  9  2  0  0  0
  8 10  1  0  0  0
 10 11  2  0  0  0
 11 23  1  0  0  0
 11 13  1  0  0  0
 23 25  1  0  0  0
 23 24  1  0  0  0
 25 26  1  0  0  0
 25 30  2  0  0  0
 26 27  2  0  0  0
 27 28  1  0  0  0
 28 31  1  0  0  0
 28 29  2  0  0  0
 31 32  1  0  0  0
 32 33  1  0  0  0
 32 36  1  0  0  0
 33 34  2  0  0  0
 34 35  1  0  0  0
 35 36  2  0  0  0
 36 37  1  0  0  0
 37 38  1  0  0  0
 38 39  1  0  0  0
 38 44  1  0  0  0
 39 40  1  0  0  0
 40 41  1  0  0  0
 41 42  1  0  0  0
 41 43  1  0  0  0
 43 44  1  0  0  0
 29 30  1  0  0  0
 13 14  1  0  0  0
 13 18  2  0  0  0
 14 15  2  0  0  0
 15 16  1  0  0  0
 16 17  2  0  0  0
 17 18  1  0  0  0
M  END
> <minimizedAffinity>
-6.52693

$$$$
