CHEMBL3987037


 32 35  0  0  0  0  0  0  0  0999 V2000
  -15.5031    2.2606  -16.2602 N   0  0  0  0  0  0  0  0  0  0  0  0
  -16.8452    2.2756  -15.7476 C   0  0  0  0  0  0  0  0  0  0  0  0
  -17.3600    1.1109  -15.2563 C   0  0  0  0  0  0  0  0  0  0  0  0
  -18.6422    1.0747  -14.8104 C   0  0  0  0  0  0  0  0  0  0  0  0
  -19.5186    2.1044  -14.9391 C   0  0  0  0  0  0  0  0  0  0  0  0
  -20.5518    1.4599  -15.2646 N   0  0  0  0  0  0  0  0  0  0  0  0
  -21.2524    1.0978  -14.2185 C   0  0  0  0  0  0  0  0  0  0  0  0
  -22.0762    2.0102  -13.8924 C   0  0  0  0  0  0  0  0  0  0  0  0
  -21.1936    3.3411  -14.4941 N   0  0  0  0  0  0  0  0  0  0  0  0
  -19.5825    3.3836  -15.0985 C   0  0  0  0  0  0  0  0  0  0  0  0
  -17.8511    3.3935  -15.7388 C   0  0  0  0  0  0  0  0  0  0  0  0
  -23.3332    0.6329  -13.6577 C   0  0  0  0  0  0  0  0  0  0  0  0
  -23.9558   -0.7427  -14.1565 C   0  0  0  0  0  0  0  0  0  0  0  0
  -24.7865   -1.4968  -13.3437 N   0  0  0  0  0  0  0  0  0  0  0  0
  -24.8291   -0.8568  -12.1713 N   0  0  0  0  0  0  0  0  0  0  0  0
  -25.5409   -1.4596  -10.9755 C   0  0  0  0  0  0  0  0  0  0  0  0
  -24.0348    0.3795  -12.3238 C   0  0  0  0  0  0  0  0  0  0  0  0
  -14.5648    5.1530  -18.5454 C   0  0  0  0  0  0  0  0  0  0  0  0
  -13.7250    5.8170  -17.7267 C   0  0  0  0  0  0  0  0  0  0  0  0
  -13.3923    5.3134  -16.4712 C   0  0  0  0  0  0  0  0  0  0  0  0
  -13.9186    4.1011  -16.0302 C   0  0  0  0  0  0  0  0  0  0  0  0
  -14.8596    3.4173  -16.7903 C   0  0  0  0  0  0  0  0  0  0  0  0
  -15.0135    3.9514  -18.0833 C   0  0  0  0  0  0  0  0  0  0  0  0
  -14.8900    6.9699  -19.9815 C   0  0  0  0  0  0  0  0  0  0  0  0
  -15.0664    5.5834  -19.7371 O   0  0  0  0  0  0  0  0  0  0  0  0
  -12.5829    5.9848  -15.6006 O   0  0  0  0  0  0  0  0  0  0  0  0
  -11.8795    5.1457  -14.6870 C   0  0  0  0  0  0  0  0  0  0  0  0
  -15.0953    0.8905  -16.6992 C   0  0  0  0  0  0  0  0  0  0  0  0
  -13.9257    0.3137  -15.9319 C   0  0  0  0  0  0  0  0  0  0  0  0
  -14.0648   -0.9331  -15.2284 N   0  0  0  0  0  0  0  0  0  0  0  0
  -14.7609   -0.7497  -14.5138 H   0  0  0  0  0  0  0  0  0  0  0  0
  -13.1761   -1.0863  -14.7413 H   0  0  0  0  0  0  0  0  0  0  0  0
 24 25  1  0  0  0
 25 18  1  0  0  0
 18 19  1  0  0  0
 18 23  2  0  0  0
 19 20  2  0  0  0
 20 26  1  0  0  0
 20 21  1  0  0  0
 26 27  1  0  0  0
 21 22  2  0  0  0
 22  1  1  0  0  0
 22 23  1  0  0  0
  1 28  1  0  0  0
  1  2  1  0  0  0
 28 29  1  0  0  0
 29 30  1  0  0  0
 30 31  1  0  0  0
 30 32  1  0  0  0
  2  3  1  0  0  0
  2 11  2  0  0  0
  3  4  2  0  0  0
  4  5  1  0  0  0
  5  6  1  0  0  0
  5 10  2  0  0  0
  6  7  2  0  0  0
  7  8  1  0  0  0
  8 12  1  0  0  0
  8  9  2  0  0  0
 12 13  1  0  0  0
 12 17  2  0  0  0
 13 14  2  0  0  0
 14 15  1  0  0  0
 15 16  1  0  0  0
 15 17  1  0  0  0
  9 10  1  0  0  0
 10 11  1  0  0  0
M  END
> <minimizedAffinity>
-9.09473

$$$$
