CHEMBL2018767


 30 32  0  0  0  0  0  0  0  0999 V2000
  -28.8008   -5.0291   -5.7119 C   0  0  0  0  0  0  0  0  0  0  0  0
  -28.3898   -3.7176   -5.3885 C   0  0  0  0  0  0  0  0  0  0  0  0
  -28.1559   -2.7375   -6.3408 C   0  0  0  0  0  0  0  0  0  0  0  0
  -27.7449   -1.5180   -5.9450 N   0  0  0  0  0  0  0  0  0  0  0  0
  -27.5098   -0.6200   -6.9072 C   0  0  0  0  0  0  0  0  0  0  0  0
  -27.6590   -0.8173   -8.2211 N   0  0  0  0  0  0  0  0  0  0  0  0
  -28.0815   -2.0339   -8.6119 C   0  0  0  0  0  0  0  0  0  0  0  0
  -28.3404   -3.0575   -7.6855 C   0  0  0  0  0  0  0  0  0  0  0  0
  -28.7687   -4.3701   -8.0202 C   0  0  0  0  0  0  0  0  0  0  0  0
  -29.0450   -5.3390   -7.0544 C   0  0  0  0  0  0  0  0  0  0  0  0
  -28.2844   -2.3022   -9.9985 N   0  0  0  0  0  0  0  0  0  0  0  0
  -29.2368   -2.0440  -10.2351 H   0  0  0  0  0  0  0  0  0  0  0  0
  -27.4198   -2.0345  -11.0828 C   0  0  0  0  0  0  0  0  0  0  0  0
  -27.8751   -1.7957  -12.3798 C   0  0  0  0  0  0  0  0  0  0  0  0
  -26.9804   -1.5771  -13.4312 C   0  0  0  0  0  0  0  0  0  0  0  0
  -25.5988   -1.5497  -13.2042 C   0  0  0  0  0  0  0  0  0  0  0  0
  -24.6709   -1.4086  -14.3761 C   0  0  0  0  0  0  0  0  0  0  0  0
  -25.1438   -1.6713  -11.8863 C   0  0  0  0  0  0  0  0  0  0  0  0
  -23.2982   -1.5552  -11.4470 Br  0  0  0  0  0  0  0  0  0  0  0  0
  -26.0454   -1.8976  -10.8377 C   0  0  0  0  0  0  0  0  0  0  0  0
  -29.4267   -6.5347   -7.5883 O   0  0  0  0  0  0  0  0  0  0  0  0
  -30.7156   -7.0265   -7.2195 C   0  0  0  0  0  0  0  0  0  0  0  0
  -28.8563   -5.8392   -4.6115 O   0  0  0  0  0  0  0  0  0  0  0  0
  -28.0049   -6.9791   -4.5697 C   0  0  0  0  0  0  0  0  0  0  0  0
  -28.7160   -8.1895   -3.9609 C   0  0  0  0  0  0  0  0  0  0  0  0
  -28.2515   -9.4743   -4.5325 N   0  0  0  0  0  0  0  0  0  0  0  0
  -28.4425  -10.1067   -6.9605 C   0  0  0  0  0  0  0  0  0  0  0  0
  -27.7500   -9.2597   -5.8975 C   0  0  0  0  0  0  0  0  0  0  0  0
  -27.3506  -10.2429   -3.6632 C   0  0  0  0  0  0  0  0  0  0  0  0
  -25.8702   -9.8881   -3.7425 C   0  0  0  0  0  0  0  0  0  0  0  0
 27 28  1  0  0  0
 28 26  1  0  0  0
 26 29  1  0  0  0
 26 25  1  0  0  0
 29 30  1  0  0  0
 25 24  1  0  0  0
 24 23  1  0  0  0
 23  1  1  0  0  0
  1  2  1  0  0  0
  1 10  2  0  0  0
  2  3  2  0  0  0
  3  4  1  0  0  0
  3  8  1  0  0  0
  4  5  2  0  0  0
  5  6  1  0  0  0
  6  7  2  0  0  0
  7 11  1  0  0  0
  7  8  1  0  0  0
 11 13  1  0  0  0
 11 12  1  0  0  0
 13 14  1  0  0  0
 13 20  2  0  0  0
 14 15  2  0  0  0
 15 16  1  0  0  0
 16 17  1  0  0  0
 16 18  2  0  0  0
 18 19  1  0  0  0
 18 20  1  0  0  0
  8  9  2  0  0  0
  9 10  1  0  0  0
 10 21  1  0  0  0
 21 22  1  0  0  0
M  END
> <minimizedAffinity>
-7.42812

$$$$
