CHEMBL1969834


 46 52  0  0  0  0  0  0  0  0999 V2000
  -28.2805   -6.8677   -7.9811 C   0  0  0  0  0  0  0  0  0  0  0  0
  -27.9998   -7.6493   -9.0354 N   0  0  0  0  0  0  0  0  0  0  0  0
  -27.8711   -8.9002   -8.5430 N   0  0  0  0  0  0  0  0  0  0  0  0
  -27.5358  -10.0482   -9.2679 C   0  0  0  0  0  0  0  0  0  0  0  0
  -27.4167  -11.2336   -8.6477 C   0  0  0  0  0  0  0  0  0  0  0  0
  -27.6540  -11.2948   -7.2185 C   0  0  0  0  0  0  0  0  0  0  0  0
  -27.9995  -10.2047   -6.5154 C   0  0  0  0  0  0  0  0  0  0  0  0
  -28.1025   -8.9348   -7.1651 C   0  0  0  0  0  0  0  0  0  0  0  0
  -28.3871   -7.6360   -6.7782 C   0  0  0  0  0  0  0  0  0  0  0  0
  -27.6725   -3.3594   -9.2616 C   0  0  0  0  0  0  0  0  0  0  0  0
  -28.6243   -2.6493   -8.5324 C   0  0  0  0  0  0  0  0  0  0  0  0
  -29.4346   -3.3020   -7.6024 C   0  0  0  0  0  0  0  0  0  0  0  0
  -29.3055   -4.6750   -7.4020 C   0  0  0  0  0  0  0  0  0  0  0  0
  -28.3877   -5.4149   -8.1557 C   0  0  0  0  0  0  0  0  0  0  0  0
  -27.5919   -4.7453   -9.0987 C   0  0  0  0  0  0  0  0  0  0  0  0
  -28.2337   -1.5633  -11.5295 O   0  0  0  0  0  0  0  0  0  0  0  0
  -27.1064   -1.9321  -11.2261 C   0  0  0  0  0  0  0  0  0  0  0  0
  -26.7746   -2.7602  -10.1681 N   0  0  0  0  0  0  0  0  0  0  0  0
  -25.7903   -2.9013   -9.9718 H   0  0  0  0  0  0  0  0  0  0  0  0
  -25.9695   -1.4426  -12.0307 C   0  0  0  0  0  0  0  0  0  0  0  0
  -25.9638   -1.6529  -13.4144 C   0  0  0  0  0  0  0  0  0  0  0  0
  -26.9998   -2.2305  -14.0349 F   0  0  0  0  0  0  0  0  0  0  0  0
  -24.8897   -1.2302  -14.1896 C   0  0  0  0  0  0  0  0  0  0  0  0
  -23.7988   -0.5978  -13.5981 C   0  0  0  0  0  0  0  0  0  0  0  0
  -23.7960   -0.3830  -12.2163 C   0  0  0  0  0  0  0  0  0  0  0  0
  -24.8805   -0.8078  -11.4480 C   0  0  0  0  0  0  0  0  0  0  0  0
  -24.8382   -0.5829  -10.1257 F   0  0  0  0  0  0  0  0  0  0  0  0
  -28.7053   -7.2029   -5.4238 C   0  0  0  0  0  0  0  0  0  0  0  0
  -29.3228   -8.0440   -4.5267 C   0  0  0  0  0  0  0  0  0  0  0  0
  -29.5378   -7.5315   -3.2793 C   0  0  0  0  0  0  0  0  0  0  0  0
  -29.1403   -6.3067   -2.9226 N   0  0  0  0  0  0  0  0  0  0  0  0
  -28.5188   -5.5504   -3.8422 C   0  0  0  0  0  0  0  0  0  0  0  0
  -28.2930   -5.9602   -5.0935 N   0  0  0  0  0  0  0  0  0  0  0  0
  -28.0479   -4.2930   -3.4662 N   0  0  0  0  0  0  0  0  0  0  0  0
  -27.0559   -4.3126   -3.2721 H   0  0  0  0  0  0  0  0  0  0  0  0
  -28.5516   -3.0641   -3.9264 C   0  0  0  0  0  0  0  0  0  0  0  0
  -29.8326   -2.6462   -3.5594 C   0  0  0  0  0  0  0  0  0  0  0  0
  -30.3874   -1.4861   -4.1139 C   0  0  0  0  0  0  0  0  0  0  0  0
  -29.6429   -0.6931   -4.9972 C   0  0  0  0  0  0  0  0  0  0  0  0
  -28.3168   -1.0447   -5.2809 C   0  0  0  0  0  0  0  0  0  0  0  0
  -27.8049   -2.2445   -4.7839 C   0  0  0  0  0  0  0  0  0  0  0  0
  -27.4415   -0.1459   -6.1141 C   0  0  0  0  0  0  0  0  0  0  0  0
  -27.8542    1.2581   -5.9899 N   0  0  0  0  0  0  0  0  0  0  0  0
  -29.2419    1.3739   -6.4516 C   0  0  0  0  0  0  0  0  0  0  0  0
  -30.2418    0.5445   -5.6217 C   0  0  0  0  0  0  0  0  0  0  0  0
  -27.8225    1.4926   -4.9956 H   0  0  0  0  0  0  0  0  0  0  0  0
 16 17  2  0  0  0
 17 18  1  0  0  0
 17 20  1  0  0  0
 18 10  1  0  0  0
 18 19  1  0  0  0
 10 11  1  0  0  0
 10 15  2  0  0  0
 11 12  2  0  0  0
 12 13  1  0  0  0
 13 14  2  0  0  0
 14  1  1  0  0  0
 14 15  1  0  0  0
  1  2  2  0  0  0
  1  9  1  0  0  0
  2  3  1  0  0  0
  3  4  1  0  0  0
  3  8  1  0  0  0
  4  5  2  0  0  0
  5  6  1  0  0  0
  6  7  2  0  0  0
  7  8  1  0  0  0
  8  9  2  0  0  0
  9 28  1  0  0  0
 28 29  1  0  0  0
 28 33  2  0  0  0
 29 30  2  0  0  0
 30 31  1  0  0  0
 31 32  2  0  0  0
 32 34  1  0  0  0
 32 33  1  0  0  0
 34 36  1  0  0  0
 34 35  1  0  0  0
 36 37  1  0  0  0
 36 41  2  0  0  0
 37 38  2  0  0  0
 38 39  1  0  0  0
 39 40  2  0  0  0
 39 45  1  0  0  0
 40 41  1  0  0  0
 40 42  1  0  0  0
 42 43  1  0  0  0
 43 44  1  0  0  0
 43 46  1  0  0  0
 44 45  1  0  0  0
 20 21  1  0  0  0
 20 26  2  0  0  0
 21 22  1  0  0  0
 21 23  2  0  0  0
 23 24  1  0  0  0
 24 25  2  0  0  0
 25 26  1  0  0  0
 26 27  1  0  0  0
M  END
> <minimizedAffinity>
-9.16394

$$$$
