CHEMBL462338


 29 33  0  0  0  0  0  0  0  0999 V2000
  -19.4981    2.2007  -15.0932 C   0  0  0  0  0  0  0  0  0  0  0  0
  -19.6660    0.8152  -15.2310 C   0  0  0  0  0  0  0  0  0  0  0  0
  -20.8386    0.1603  -14.7766 C   0  0  0  0  0  0  0  0  0  0  0  0
  -21.8892    0.8716  -14.1755 C   0  0  0  0  0  0  0  0  0  0  0  0
  -21.6995    2.2519  -14.0251 C   0  0  0  0  0  0  0  0  0  0  0  0
  -20.5346    2.8916  -14.4659 C   0  0  0  0  0  0  0  0  0  0  0  0
  -23.1425    0.1982  -13.7339 C   0  0  0  0  0  0  0  0  0  0  0  0
  -23.9860   -0.4661  -14.5057 N   0  0  0  0  0  0  0  0  0  0  0  0
  -25.0682   -0.9435  -13.7600 C   0  0  0  0  0  0  0  0  0  0  0  0
  -26.1701   -1.6879  -14.2369 C   0  0  0  0  0  0  0  0  0  0  0  0
  -27.1942   -2.0729  -13.3565 C   0  0  0  0  0  0  0  0  0  0  0  0
  -27.1353   -1.7344  -12.0086 C   0  0  0  0  0  0  0  0  0  0  0  0
  -26.0531   -1.0101  -11.5091 C   0  0  0  0  0  0  0  0  0  0  0  0
  -25.0384   -0.6249  -12.4031 C   0  0  0  0  0  0  0  0  0  0  0  0
  -23.6185    0.2638  -12.0708 S   0  0  0  0  0  0  0  0  0  0  0  0
  -18.3825    2.8616  -15.6517 N   0  0  0  0  0  0  0  0  0  0  0  0
  -18.5800    3.7084  -16.1645 H   0  0  0  0  0  0  0  0  0  0  0  0
  -15.3203    1.1861  -14.6363 C   0  0  0  0  0  0  0  0  0  0  0  0
  -16.6210    1.4943  -14.7733 N   0  0  0  0  0  0  0  0  0  0  0  0
  -17.0107    2.5497  -15.5371 C   0  0  0  0  0  0  0  0  0  0  0  0
  -15.9790    3.2941  -16.1553 C   0  0  0  0  0  0  0  0  0  0  0  0
  -15.8702    4.4177  -17.0276 C   0  0  0  0  0  0  0  0  0  0  0  0
  -14.5287    4.6371  -17.2767 C   0  0  0  0  0  0  0  0  0  0  0  0
  -13.8178    3.6994  -16.5812 N   0  0  0  0  0  0  0  0  0  0  0  0
  -14.6757    2.8739  -15.9097 C   0  0  0  0  0  0  0  0  0  0  0  0
  -14.2802    1.8403  -15.1589 N   0  0  0  0  0  0  0  0  0  0  0  0
  -12.8109    3.5936  -16.5563 H   0  0  0  0  0  0  0  0  0  0  0  0
  -15.7924   -0.0064  -12.7069 C   0  0  0  0  0  0  0  0  0  0  0  0
  -14.9855    0.0837  -13.8758 O   0  0  0  0  0  0  0  0  0  0  0  0
 28 29  1  0  0  0
 29 18  1  0  0  0
 18 19  1  0  0  0
 18 26  2  0  0  0
 19 20  2  0  0  0
 20 16  1  0  0  0
 20 21  1  0  0  0
 16  1  1  0  0  0
 16 17  1  0  0  0
  1  2  1  0  0  0
  1  6  2  0  0  0
  2  3  2  0  0  0
  3  4  1  0  0  0
  4  7  1  0  0  0
  4  5  2  0  0  0
  7  8  2  0  0  0
  7 15  1  0  0  0
  8  9  1  0  0  0
  9 10  1  0  0  0
  9 14  2  0  0  0
 10 11  2  0  0  0
 11 12  1  0  0  0
 12 13  2  0  0  0
 13 14  1  0  0  0
 14 15  1  0  0  0
  5  6  1  0  0  0
 21 22  1  0  0  0
 21 25  2  0  0  0
 22 23  2  0  0  0
 23 24  1  0  0  0
 24 25  1  0  0  0
 24 27  1  0  0  0
 25 26  1  0  0  0
M  END
> <minimizedAffinity>
-9.55665

$$$$
