CHEMBL1972584


 47 53  0  0  0  0  0  0  0  0999 V2000
  -27.0186   -1.3096  -10.9130 N   0  0  0  0  0  0  0  0  0  0  0  0
  -25.8505   -0.6422  -10.8167 N   0  0  0  0  0  0  0  0  0  0  0  0
  -25.4148   -0.5492  -12.0885 C   0  0  0  0  0  0  0  0  0  0  0  0
  -26.3226   -1.1896  -12.9972 C   0  0  0  0  0  0  0  0  0  0  0  0
  -26.4306   -1.4829  -14.3671 C   0  0  0  0  0  0  0  0  0  0  0  0
  -25.4850   -1.1804  -15.3396 N   0  0  0  0  0  0  0  0  0  0  0  0
  -27.5177   -2.1493  -14.8060 N   0  0  0  0  0  0  0  0  0  0  0  0
  -28.4470   -2.5281  -13.9120 C   0  0  0  0  0  0  0  0  0  0  0  0
  -28.4418   -2.3284  -12.5878 N   0  0  0  0  0  0  0  0  0  0  0  0
  -27.3507   -1.6504  -12.1927 C   0  0  0  0  0  0  0  0  0  0  0  0
  -24.5285   -1.2822  -15.0227 H   0  0  0  0  0  0  0  0  0  0  0  0
  -25.7010   -1.6841  -16.1947 H   0  0  0  0  0  0  0  0  0  0  0  0
  -28.0628   -2.5811   -6.8644 C   0  0  0  0  0  0  0  0  0  0  0  0
  -28.1258   -1.0849   -7.2590 C   0  0  0  0  0  0  0  0  0  0  0  0
  -27.3575   -0.7440   -8.5319 C   0  0  0  0  0  0  0  0  0  0  0  0
  -27.7698   -1.6338   -9.7061 C   0  0  0  0  0  0  0  0  0  0  0  0
  -27.6314   -3.1126   -9.3363 C   0  0  0  0  0  0  0  0  0  0  0  0
  -28.4438   -3.4498   -8.0879 C   0  0  0  0  0  0  0  0  0  0  0  0
  -28.2834   -7.9253   -4.3176 C   0  0  0  0  0  0  0  0  0  0  0  0
  -29.2491   -7.2403   -5.2519 C   0  0  0  0  0  0  0  0  0  0  0  0
  -30.1010   -7.8955   -5.8522 O   0  0  0  0  0  0  0  0  0  0  0  0
  -29.1206   -5.8650   -5.3947 N   0  0  0  0  0  0  0  0  0  0  0  0
  -27.9865   -5.0988   -4.8749 C   0  0  0  0  0  0  0  0  0  0  0  0
  -28.3591   -3.6325   -4.6021 C   0  0  0  0  0  0  0  0  0  0  0  0
  -28.9725   -2.9265   -5.7442 N   0  0  0  0  0  0  0  0  0  0  0  0
  -30.1576   -3.7145   -6.1716 C   0  0  0  0  0  0  0  0  0  0  0  0
  -29.8904   -5.2083   -6.4541 C   0  0  0  0  0  0  0  0  0  0  0  0
  -24.1116    0.0584  -12.3760 C   0  0  0  0  0  0  0  0  0  0  0  0
  -22.9370   -0.5868  -11.9739 C   0  0  0  0  0  0  0  0  0  0  0  0
  -21.6851   -0.1234  -12.3930 C   0  0  0  0  0  0  0  0  0  0  0  0
  -21.5911    0.9771  -13.2396 C   0  0  0  0  0  0  0  0  0  0  0  0
  -22.7560    1.6727  -13.5782 C   0  0  0  0  0  0  0  0  0  0  0  0
  -24.0000    1.2412  -13.1086 C   0  0  0  0  0  0  0  0  0  0  0  0
  -20.3889    1.4381  -13.8005 N   0  0  0  0  0  0  0  0  0  0  0  0
  -19.7146    0.9432  -14.9003 C   0  0  0  0  0  0  0  0  0  0  0  0
  -20.0771   -0.0154  -15.5829 O   0  0  0  0  0  0  0  0  0  0  0  0
  -20.0131    2.2866  -13.4021 H   0  0  0  0  0  0  0  0  0  0  0  0
  -18.5269    1.7068  -15.2233 C   0  0  0  0  0  0  0  0  0  0  0  0
  -18.4401    2.9742  -15.7806 C   0  0  0  0  0  0  0  0  0  0  0  0
  -17.0777    3.2728  -16.0179 C   0  0  0  0  0  0  0  0  0  0  0  0
  -16.4224    4.3690  -16.6108 C   0  0  0  0  0  0  0  0  0  0  0  0
  -15.0327    4.3511  -16.7271 C   0  0  0  0  0  0  0  0  0  0  0  0
  -14.2976    3.2731  -16.2416 C   0  0  0  0  0  0  0  0  0  0  0  0
  -14.9280    2.1843  -15.6318 C   0  0  0  0  0  0  0  0  0  0  0  0
  -16.3285    2.1976  -15.5399 C   0  0  0  0  0  0  0  0  0  0  0  0
  -17.2255    1.2767  -15.0271 N   0  0  0  0  0  0  0  0  0  0  0  0
  -16.8704   -0.0021  -14.4422 C   0  0  0  0  0  0  0  0  0  0  0  0
 19 20  1  0  0  0
 20 21  2  0  0  0
 20 22  1  0  0  0
 22 23  1  0  0  0
 22 27  1  0  0  0
 23 24  1  0  0  0
 24 25  1  0  0  0
 25 13  1  0  0  0
 25 26  1  0  0  0
 13 14  1  0  0  0
 13 18  1  0  0  0
 14 15  1  0  0  0
 15 16  1  0  0  0
 16  1  1  0  0  0
 16 17  1  0  0  0
  1  2  1  0  0  0
  1 10  1  0  0  0
  2  3  2  0  0  0
  3 28  1  0  0  0
  3  4  1  0  0  0
 28 29  1  0  0  0
 28 33  2  0  0  0
 29 30  2  0  0  0
 30 31  1  0  0  0
 31 34  1  0  0  0
 31 32  2  0  0  0
 34 35  1  0  0  0
 34 37  1  0  0  0
 35 36  2  0  0  0
 35 38  1  0  0  0
 38 39  2  0  0  0
 38 46  1  0  0  0
 39 40  1  0  0  0
 40 41  1  0  0  0
 40 45  2  0  0  0
 41 42  2  0  0  0
 42 43  1  0  0  0
 43 44  2  0  0  0
 44 45  1  0  0  0
 45 46  1  0  0  0
 46 47  1  0  0  0
 32 33  1  0  0  0
  4  5  1  0  0  0
  4 10  2  0  0  0
  5  6  1  0  0  0
  5  7  2  0  0  0
  6 11  1  0  0  0
  6 12  1  0  0  0
  7  8  1  0  0  0
  8  9  2  0  0  0
  9 10  1  0  0  0
 17 18  1  0  0  0
 26 27  1  0  0  0
M  END
> <minimizedAffinity>
-10.29195

$$$$
