CHEMBL3928460


 40 43  0  0  0  0  0  0  0  0999 V2000
  -13.1862   -2.4180  -12.8916 N   0  0  0  0  0  0  0  0  0  0  0  0
  -14.3355   -1.7955  -13.3445 C   0  0  0  0  0  0  0  0  0  0  0  0
  -15.4647   -2.2756  -13.2816 O   0  0  0  0  0  0  0  0  0  0  0  0
  -14.0835   -0.5673  -13.9472 N   0  0  0  0  0  0  0  0  0  0  0  0
  -12.3065   -1.9534  -13.0562 H   0  0  0  0  0  0  0  0  0  0  0  0
  -13.2282   -0.5237  -14.4806 H   0  0  0  0  0  0  0  0  0  0  0  0
  -13.1615   -6.1162  -12.3686 C   0  0  0  0  0  0  0  0  0  0  0  0
  -13.2559   -4.8776  -12.9980 C   0  0  0  0  0  0  0  0  0  0  0  0
  -13.1536   -3.6908  -12.2704 C   0  0  0  0  0  0  0  0  0  0  0  0
  -13.0277   -3.7708  -10.8785 C   0  0  0  0  0  0  0  0  0  0  0  0
  -12.9542   -5.0219  -10.2260 C   0  0  0  0  0  0  0  0  0  0  0  0
  -13.0009   -6.2009  -10.9890 C   0  0  0  0  0  0  0  0  0  0  0  0
  -13.9806   -7.0017  -14.9136 C   0  0  0  0  0  0  0  0  0  0  0  0
  -13.3279   -7.5793  -13.3680 S   0  0  0  0  0  0  0  0  0  0  0  0
  -14.3273   -8.4061  -12.7198 O   0  0  0  0  0  0  0  0  0  0  0  0
  -11.9901   -8.0792  -13.6161 O   0  0  0  0  0  0  0  0  0  0  0  0
  -12.8507   -5.1224   -8.7219 C   0  0  0  0  0  0  0  0  0  0  0  0
  -13.9524   -5.6718   -8.1395 F   0  0  0  0  0  0  0  0  0  0  0  0
  -11.7978   -5.8885   -8.3267 F   0  0  0  0  0  0  0  0  0  0  0  0
  -12.6793   -3.9095   -8.1294 F   0  0  0  0  0  0  0  0  0  0  0  0
  -15.1656    0.2117  -14.4249 C   0  0  0  0  0  0  0  0  0  0  0  0
  -16.2618    0.5004  -13.6039 C   0  0  0  0  0  0  0  0  0  0  0  0
  -17.3617    1.1965  -14.1087 C   0  0  0  0  0  0  0  0  0  0  0  0
  -17.3495    1.6605  -15.4250 C   0  0  0  0  0  0  0  0  0  0  0  0
  -16.2654    1.3587  -16.2509 C   0  0  0  0  0  0  0  0  0  0  0  0
  -15.1612    0.6569  -15.7470 C   0  0  0  0  0  0  0  0  0  0  0  0
  -18.3929    2.3732  -15.9900 O   0  0  0  0  0  0  0  0  0  0  0  0
  -19.6046    2.4216  -15.3250 C   0  0  0  0  0  0  0  0  0  0  0  0
  -20.1801    3.5939  -14.8558 C   0  0  0  0  0  0  0  0  0  0  0  0
  -21.3595    3.4965  -14.1572 C   0  0  0  0  0  0  0  0  0  0  0  0
  -22.0057    2.3384  -13.9601 N   0  0  0  0  0  0  0  0  0  0  0  0
  -21.4939    1.2094  -14.4793 C   0  0  0  0  0  0  0  0  0  0  0  0
  -20.2876    1.2063  -15.1691 C   0  0  0  0  0  0  0  0  0  0  0  0
  -22.1992    0.0012  -14.3173 N   0  0  0  0  0  0  0  0  0  0  0  0
  -22.5483   -0.5164  -13.0830 C   0  0  0  0  0  0  0  0  0  0  0  0
  -22.2951   -0.0531  -11.9837 O   0  0  0  0  0  0  0  0  0  0  0  0
  -22.4729   -0.4980  -15.1486 H   0  0  0  0  0  0  0  0  0  0  0  0
  -23.3165   -1.8017  -13.1441 C   0  0  0  0  0  0  0  0  0  0  0  0
  -24.8241   -1.7527  -13.3087 C   0  0  0  0  0  0  0  0  0  0  0  0
  -24.2330   -2.1663  -11.9921 C   0  0  0  0  0  0  0  0  0  0  0  0
 13 14  1  0  0  0
 14 15  2  0  0  0
 14 16  2  0  0  0
 14  7  1  0  0  0
  7  8  1  0  0  0
  7 12  2  0  0  0
  8  9  2  0  0  0
  9  1  1  0  0  0
  9 10  1  0  0  0
  1  2  1  0  0  0
  1  5  1  0  0  0
  2  3  2  0  0  0
  2  4  1  0  0  0
  4 21  1  0  0  0
  4  6  1  0  0  0
 21 22  1  0  0  0
 21 26  2  0  0  0
 22 23  2  0  0  0
 23 24  1  0  0  0
 24 27  1  0  0  0
 24 25  2  0  0  0
 27 28  1  0  0  0
 28 29  1  0  0  0
 28 33  2  0  0  0
 29 30  2  0  0  0
 30 31  1  0  0  0
 31 32  2  0  0  0
 32 34  1  0  0  0
 32 33  1  0  0  0
 34 35  1  0  0  0
 34 37  1  0  0  0
 35 36  2  0  0  0
 35 38  1  0  0  0
 38 39  1  0  0  0
 38 40  1  0  0  0
 39 40  1  0  0  0
 25 26  1  0  0  0
 10 11  2  0  0  0
 11 17  1  0  0  0
 11 12  1  0  0  0
 17 18  1  0  0  0
 17 19  1  0  0  0
 17 20  1  0  0  0
M  END
> <minimizedAffinity>
-9.58825

$$$$
