CHEMBL211845


 44 48  0  0  0  0  0  0  0  0999 V2000
  -13.7338    2.2845  -15.9377 N   0  0  0  0  0  0  0  0  0  0  0  0
  -13.3676    3.6292  -15.7610 C   0  0  0  0  0  0  0  0  0  0  0  0
  -13.4651    4.2353  -14.6986 O   0  0  0  0  0  0  0  0  0  0  0  0
  -12.2449   -0.0606  -19.1652 C   0  0  0  0  0  0  0  0  0  0  0  0
  -13.4598    0.6003  -19.2952 C   0  0  0  0  0  0  0  0  0  0  0  0
  -13.9649    1.3626  -18.2241 C   0  0  0  0  0  0  0  0  0  0  0  0
  -13.2393    1.4945  -17.0241 C   0  0  0  0  0  0  0  0  0  0  0  0
  -12.0111    0.8191  -16.8986 C   0  0  0  0  0  0  0  0  0  0  0  0
  -11.5357    0.0448  -17.9680 C   0  0  0  0  0  0  0  0  0  0  0  0
  -11.0690   -0.2113  -21.2397 C   0  0  0  0  0  0  0  0  0  0  0  0
  -11.6271   -0.8456  -20.0998 O   0  0  0  0  0  0  0  0  0  0  0  0
  -11.3839    0.8884  -15.6796 O   0  0  0  0  0  0  0  0  0  0  0  0
  -11.3845   -0.3012  -14.8966 C   0  0  0  0  0  0  0  0  0  0  0  0
  -14.9281    1.8498  -15.3097 C   0  0  0  0  0  0  0  0  0  0  0  0
  -16.1396    2.2901  -15.7931 C   0  0  0  0  0  0  0  0  0  0  0  0
  -17.2501    1.7912  -15.1591 C   0  0  0  0  0  0  0  0  0  0  0  0
  -17.2019    0.9692  -14.0934 N   0  0  0  0  0  0  0  0  0  0  0  0
  -15.9836    0.6250  -13.6559 C   0  0  0  0  0  0  0  0  0  0  0  0
  -14.8459    1.0268  -14.2470 N   0  0  0  0  0  0  0  0  0  0  0  0
  -15.9245   -0.1784  -12.5160 N   0  0  0  0  0  0  0  0  0  0  0  0
  -15.5741    0.3461  -11.7275 H   0  0  0  0  0  0  0  0  0  0  0  0
  -15.6807   -1.5634  -12.4889 C   0  0  0  0  0  0  0  0  0  0  0  0
  -15.6856   -2.2817  -11.2901 C   0  0  0  0  0  0  0  0  0  0  0  0
  -15.3123   -3.6239  -11.2545 C   0  0  0  0  0  0  0  0  0  0  0  0
  -14.9191   -4.3109  -12.4094 C   0  0  0  0  0  0  0  0  0  0  0  0
  -15.0032   -3.6006  -13.6174 C   0  0  0  0  0  0  0  0  0  0  0  0
  -14.6626   -4.1870  -14.7790 F   0  0  0  0  0  0  0  0  0  0  0  0
  -15.3865   -2.2536  -13.6649 C   0  0  0  0  0  0  0  0  0  0  0  0
  -14.5344   -5.6372  -12.2751 N   0  0  0  0  0  0  0  0  0  0  0  0
  -13.8839   -6.1283  -11.0546 C   0  0  0  0  0  0  0  0  0  0  0  0
  -13.0120   -7.3528  -11.4352 C   0  0  0  0  0  0  0  0  0  0  0  0
  -13.7830   -8.4352  -12.0969 N   0  0  0  0  0  0  0  0  0  0  0  0
  -12.8917   -9.5163  -12.5106 C   0  0  0  0  0  0  0  0  0  0  0  0
  -14.5050   -7.8872  -13.2698 C   0  0  0  0  0  0  0  0  0  0  0  0
  -15.3818   -6.6641  -12.9166 C   0  0  0  0  0  0  0  0  0  0  0  0
  -12.9402    4.2331  -16.9536 O   0  0  0  0  0  0  0  0  0  0  0  0
  -13.4063    5.4968  -17.4428 C   0  0  0  0  0  0  0  0  0  0  0  0
  -14.4884    5.6257  -18.3369 C   0  0  0  0  0  0  0  0  0  0  0  0
  -15.4926    4.5692  -18.6962 C   0  0  0  0  0  0  0  0  0  0  0  0
  -14.6522    6.8552  -19.0081 C   0  0  0  0  0  0  0  0  0  0  0  0
  -13.7960    7.9291  -18.7866 C   0  0  0  0  0  0  0  0  0  0  0  0
  -12.7686    7.8063  -17.8572 C   0  0  0  0  0  0  0  0  0  0  0  0
  -12.5583    6.5970  -17.1795 C   0  0  0  0  0  0  0  0  0  0  0  0
  -11.4546    6.5218  -16.1622 C   0  0  0  0  0  0  0  0  0  0  0  0
 10 11  1  0  0  0
 11  4  1  0  0  0
  4  5  1  0  0  0
  4  9  2  0  0  0
  5  6  2  0  0  0
  6  7  1  0  0  0
  7  1  1  0  0  0
  7  8  2  0  0  0
  1  2  1  0  0  0
  1 14  1  0  0  0
  2  3  2  0  0  0
  2 36  1  0  0  0
 36 37  1  0  0  0
 37 38  1  0  0  0
 37 43  2  0  0  0
 38 39  1  0  0  0
 38 40  2  0  0  0
 40 41  1  0  0  0
 41 42  2  0  0  0
 42 43  1  0  0  0
 43 44  1  0  0  0
 14 15  1  0  0  0
 14 19  2  0  0  0
 15 16  2  0  0  0
 16 17  1  0  0  0
 17 18  2  0  0  0
 18 20  1  0  0  0
 18 19  1  0  0  0
 20 22  1  0  0  0
 20 21  1  0  0  0
 22 23  1  0  0  0
 22 28  2  0  0  0
 23 24  2  0  0  0
 24 25  1  0  0  0
 25 29  1  0  0  0
 25 26  2  0  0  0
 29 30  1  0  0  0
 29 35  1  0  0  0
 30 31  1  0  0  0
 31 32  1  0  0  0
 32 33  1  0  0  0
 32 34  1  0  0  0
 34 35  1  0  0  0
 26 27  1  0  0  0
 26 28  1  0  0  0
  8 12  1  0  0  0
  8  9  1  0  0  0
 12 13  1  0  0  0
M  END
> <minimizedAffinity>
-7.57276

$$$$
