CHEMBL491473


 34 38  0  0  0  0  0  0  0  0999 V2000
  -27.9918   -9.0916   -8.1474 C   0  0  0  0  0  0  0  0  0  0  0  0
  -28.7169   -7.9900   -7.6819 C   0  0  0  0  0  0  0  0  0  0  0  0
  -28.9396   -7.7965   -6.2987 C   0  0  0  0  0  0  0  0  0  0  0  0
  -29.7099   -6.7733   -5.7389 C   0  0  0  0  0  0  0  0  0  0  0  0
  -29.9224   -6.6363   -4.4158 N   0  0  0  0  0  0  0  0  0  0  0  0
  -29.3043   -7.5221   -3.6364 C   0  0  0  0  0  0  0  0  0  0  0  0
  -28.5363   -8.5344   -4.0514 N   0  0  0  0  0  0  0  0  0  0  0  0
  -28.3726   -8.6744   -5.3704 C   0  0  0  0  0  0  0  0  0  0  0  0
  -27.5911   -9.7200   -5.8410 C   0  0  0  0  0  0  0  0  0  0  0  0
  -27.3661   -9.9314   -7.2073 C   0  0  0  0  0  0  0  0  0  0  0  0
  -28.8729  -10.1963  -10.0903 C   0  0  0  0  0  0  0  0  0  0  0  0
  -27.8708   -9.3929   -9.4760 O   0  0  0  0  0  0  0  0  0  0  0  0
  -30.3199   -5.8583   -6.6030 O   0  0  0  0  0  0  0  0  0  0  0  0
  -29.6890   -4.6395   -6.7823 C   0  0  0  0  0  0  0  0  0  0  0  0
  -28.7775   -4.4322   -7.8227 C   0  0  0  0  0  0  0  0  0  0  0  0
  -28.1165   -3.2125   -7.9732 C   0  0  0  0  0  0  0  0  0  0  0  0
  -28.4652   -2.1761   -7.1042 C   0  0  0  0  0  0  0  0  0  0  0  0
  -27.9977   -0.8842   -7.0480 N   0  0  0  0  0  0  0  0  0  0  0  0
  -28.7388   -0.1495   -6.1584 C   0  0  0  0  0  0  0  0  0  0  0  0
  -28.5976    1.3234   -6.0620 C   0  0  0  0  0  0  0  0  0  0  0  0
  -29.5685   -1.0326   -5.4937 C   0  0  0  0  0  0  0  0  0  0  0  0
  -29.4292   -2.3184   -6.1032 C   0  0  0  0  0  0  0  0  0  0  0  0
  -30.0363   -3.5806   -5.9352 C   0  0  0  0  0  0  0  0  0  0  0  0
  -30.9623   -3.7628   -4.9793 F   0  0  0  0  0  0  0  0  0  0  0  0
  -27.2720   -0.5161   -7.6478 H   0  0  0  0  0  0  0  0  0  0  0  0
  -26.5204  -10.9926   -7.4589 O   0  0  0  0  0  0  0  0  0  0  0  0
  -25.5332  -11.2259   -6.4585 C   0  0  0  0  0  0  0  0  0  0  0  0
  -24.2725  -10.3818   -6.6755 C   0  0  0  0  0  0  0  0  0  0  0  0
  -23.5331  -10.3482   -5.3290 C   0  0  0  0  0  0  0  0  0  0  0  0
  -23.5100  -11.5828   -4.5365 N   0  0  0  0  0  0  0  0  0  0  0  0
  -23.4353  -11.3565   -3.0857 C   0  0  0  0  0  0  0  0  0  0  0  0
  -21.9580  -11.3099   -2.7514 C   0  0  0  0  0  0  0  0  0  0  0  0
  -21.3724  -12.3575   -3.6732 C   0  0  0  0  0  0  0  0  0  0  0  0
  -22.2936  -12.3559   -4.8894 C   0  0  0  0  0  0  0  0  0  0  0  0
 11 12  1  0  0  0
 12  1  1  0  0  0
  1  2  1  0  0  0
  1 10  2  0  0  0
  2  3  2  0  0  0
  3  4  1  0  0  0
  3  8  1  0  0  0
  4 13  1  0  0  0
  4  5  2  0  0  0
 13 14  1  0  0  0
 14 15  1  0  0  0
 14 23  2  0  0  0
 15 16  2  0  0  0
 16 17  1  0  0  0
 17 18  1  0  0  0
 17 22  2  0  0  0
 18 19  1  0  0  0
 18 25  1  0  0  0
 19 20  1  0  0  0
 19 21  2  0  0  0
 21 22  1  0  0  0
 22 23  1  0  0  0
 23 24  1  0  0  0
  5  6  1  0  0  0
  6  7  2  0  0  0
  7  8  1  0  0  0
  8  9  2  0  0  0
  9 10  1  0  0  0
 10 26  1  0  0  0
 26 27  1  0  0  0
 27 28  1  0  0  0
 28 29  1  0  0  0
 29 30  1  0  0  0
 30 31  1  0  0  0
 30 34  1  0  0  0
 31 32  1  0  0  0
 32 33  1  0  0  0
 33 34  1  0  0  0
M  END
> <minimizedAffinity>
-8.32972

$$$$
