CHEMBL3660274


 41 44  0  0  0  0  0  0  0  0999 V2000
  -14.5667   -1.1983  -12.4851 O   0  0  0  0  0  0  0  0  0  0  0  0
  -16.3459    1.3482  -14.4864 C   0  0  0  0  0  0  0  0  0  0  0  0
  -16.1325    0.3685  -13.5255 C   0  0  0  0  0  0  0  0  0  0  0  0
  -14.8767   -0.2100  -13.4024 C   0  0  0  0  0  0  0  0  0  0  0  0
  -13.8514    0.2734  -14.2039 C   0  0  0  0  0  0  0  0  0  0  0  0
  -14.1506    1.2655  -15.1303 C   0  0  0  0  0  0  0  0  0  0  0  0
  -15.3828    1.7999  -15.3119 N   0  0  0  0  0  0  0  0  0  0  0  0
  -19.9237    2.2884  -14.6416 C   0  0  0  0  0  0  0  0  0  0  0  0
  -19.3017    3.2779  -15.3877 C   0  0  0  0  0  0  0  0  0  0  0  0
  -17.9424    3.0905  -15.3120 N   0  0  0  0  0  0  0  0  0  0  0  0
  -17.6675    1.9397  -14.6190 C   0  0  0  0  0  0  0  0  0  0  0  0
  -18.8771    1.4825  -14.1270 C   0  0  0  0  0  0  0  0  0  0  0  0
  -17.2332    3.6739  -15.7471 H   0  0  0  0  0  0  0  0  0  0  0  0
  -21.7433    0.7593  -14.3554 N   0  0  0  0  0  0  0  0  0  0  0  0
  -21.3441    2.0687  -14.4215 C   0  0  0  0  0  0  0  0  0  0  0  0
  -22.1357    3.0139  -14.2933 O   0  0  0  0  0  0  0  0  0  0  0  0
  -21.0252    0.0659  -14.1940 H   0  0  0  0  0  0  0  0  0  0  0  0
  -23.1218    0.4291  -14.0411 C   0  0  0  0  0  0  0  0  0  0  0  0
  -23.3654    0.2128  -12.5489 C   0  0  0  0  0  0  0  0  0  0  0  0
  -23.5180   -2.0142  -11.7851 C   0  0  0  0  0  0  0  0  0  0  0  0
  -22.6421   -0.9389  -12.1043 O   0  0  0  0  0  0  0  0  0  0  0  0
  -14.5397   -2.5153  -12.9000 C   0  0  0  0  0  0  0  0  0  0  0  0
  -13.3723   -3.2671  -12.9225 C   0  0  0  0  0  0  0  0  0  0  0  0
  -13.3773   -4.5564  -13.4487 C   0  0  0  0  0  0  0  0  0  0  0  0
  -14.5463   -5.1602  -13.9198 C   0  0  0  0  0  0  0  0  0  0  0  0
  -15.7444   -4.4431  -13.7858 C   0  0  0  0  0  0  0  0  0  0  0  0
  -15.7386   -3.1250  -13.2793 C   0  0  0  0  0  0  0  0  0  0  0  0
  -14.5533   -6.4493  -14.5324 N   0  0  0  0  0  0  0  0  0  0  0  0
  -13.9785   -6.7283  -15.7730 C   0  0  0  0  0  0  0  0  0  0  0  0
  -13.4055   -5.9155  -16.4697 O   0  0  0  0  0  0  0  0  0  0  0  0
  -14.1026   -8.0616  -16.1618 N   0  0  0  0  0  0  0  0  0  0  0  0
  -15.0386   -7.1912  -14.0557 H   0  0  0  0  0  0  0  0  0  0  0  0
  -14.9786   -8.5077  -15.9200 H   0  0  0  0  0  0  0  0  0  0  0  0
  -13.5521   -8.4403  -17.4262 C   0  0  0  0  0  0  0  0  0  0  0  0
  -13.7669   -7.6500  -18.5644 C   0  0  0  0  0  0  0  0  0  0  0  0
  -13.2525   -8.0188  -19.8181 C   0  0  0  0  0  0  0  0  0  0  0  0
  -13.4812   -7.1460  -21.0189 C   0  0  0  0  0  0  0  0  0  0  0  0
  -12.5274   -9.2110  -19.9331 C   0  0  0  0  0  0  0  0  0  0  0  0
  -12.3040  -10.0053  -18.8060 C   0  0  0  0  0  0  0  0  0  0  0  0
  -12.7997   -9.6083  -17.5605 C   0  0  0  0  0  0  0  0  0  0  0  0
  -12.5999  -10.4027  -16.4976 F   0  0  0  0  0  0  0  0  0  0  0  0
 20 21  1  0  0  0
 21 19  1  0  0  0
 19 18  1  0  0  0
 18 14  1  0  0  0
 14 15  1  0  0  0
 14 17  1  0  0  0
 15 16  2  0  0  0
 15  8  1  0  0  0
  8  9  2  0  0  0
  8 12  1  0  0  0
  9 10  1  0  0  0
 10 11  1  0  0  0
 10 13  1  0  0  0
 11  2  1  0  0  0
 11 12  2  0  0  0
  2  3  1  0  0  0
  2  7  2  0  0  0
  3  4  2  0  0  0
  4  1  1  0  0  0
  4  5  1  0  0  0
  1 22  1  0  0  0
 22 23  1  0  0  0
 22 27  2  0  0  0
 23 24  2  0  0  0
 24 25  1  0  0  0
 25 28  1  0  0  0
 25 26  2  0  0  0
 28 29  1  0  0  0
 28 32  1  0  0  0
 29 30  2  0  0  0
 29 31  1  0  0  0
 31 34  1  0  0  0
 31 33  1  0  0  0
 34 35  1  0  0  0
 34 40  2  0  0  0
 35 36  2  0  0  0
 36 37  1  0  0  0
 36 38  1  0  0  0
 38 39  2  0  0  0
 39 40  1  0  0  0
 40 41  1  0  0  0
 26 27  1  0  0  0
  5  6  2  0  0  0
  6  7  1  0  0  0
M  END
> <minimizedAffinity>
-8.39432

$$$$
