CHEMBL3774451


 38 42  0  0  0  0  0  0  0  0999 V2000
  -27.8168   -0.9461  -10.5740 O   0  0  0  0  0  0  0  0  0  0  0  0
  -27.1643   -1.7514   -9.9240 C   0  0  0  0  0  0  0  0  0  0  0  0
  -25.8603   -2.1343  -10.2182 N   0  0  0  0  0  0  0  0  0  0  0  0
  -25.4874   -2.8828   -9.6415 H   0  0  0  0  0  0  0  0  0  0  0  0
  -25.0492   -1.6833  -11.2920 C   0  0  0  0  0  0  0  0  0  0  0  0
  -23.7253   -1.2523  -11.1591 C   0  0  0  0  0  0  0  0  0  0  0  0
  -22.9997   -0.7819  -12.2736 C   0  0  0  0  0  0  0  0  0  0  0  0
  -23.5860   -0.7198  -13.5402 C   0  0  0  0  0  0  0  0  0  0  0  0
  -24.8850   -1.2138  -13.6779 C   0  0  0  0  0  0  0  0  0  0  0  0
  -25.4888   -1.2517  -14.8748 F   0  0  0  0  0  0  0  0  0  0  0  0
  -25.6124   -1.6767  -12.5723 C   0  0  0  0  0  0  0  0  0  0  0  0
  -22.7899   -0.2440  -14.5642 O   0  0  0  0  0  0  0  0  0  0  0  0
  -22.1570    0.9830  -14.4616 C   0  0  0  0  0  0  0  0  0  0  0  0
  -22.7799    2.1399  -13.9806 C   0  0  0  0  0  0  0  0  0  0  0  0
  -22.0787    3.3395  -13.9611 C   0  0  0  0  0  0  0  0  0  0  0  0
  -20.7864    3.5041  -14.3127 N   0  0  0  0  0  0  0  0  0  0  0  0
  -20.1945    2.3506  -14.6786 C   0  0  0  0  0  0  0  0  0  0  0  0
  -18.8803    2.2510  -15.0314 N   0  0  0  0  0  0  0  0  0  0  0  0
  -18.5760    0.9451  -15.3162 C   0  0  0  0  0  0  0  0  0  0  0  0
  -19.7321    0.2047  -15.1682 C   0  0  0  0  0  0  0  0  0  0  0  0
  -20.7795    1.0886  -14.7684 C   0  0  0  0  0  0  0  0  0  0  0  0
  -18.2442    3.0338  -15.0494 H   0  0  0  0  0  0  0  0  0  0  0  0
  -27.7381   -2.4528   -8.7610 C   0  0  0  0  0  0  0  0  0  0  0  0
  -27.9382   -3.8082   -8.7729 N   0  0  0  0  0  0  0  0  0  0  0  0
  -28.3791   -4.1750   -7.5785 N   0  0  0  0  0  0  0  0  0  0  0  0
  -28.5968   -3.0660   -6.8293 N   0  0  0  0  0  0  0  0  0  0  0  0
  -28.1164   -1.9605   -7.5158 C   0  0  0  0  0  0  0  0  0  0  0  0
  -29.2545   -3.2088   -5.5627 C   0  0  0  0  0  0  0  0  0  0  0  0
  -30.5489   -3.7652   -5.5334 C   0  0  0  0  0  0  0  0  0  0  0  0
  -31.2396   -3.8987   -4.3236 C   0  0  0  0  0  0  0  0  0  0  0  0
  -30.6592   -3.4556   -3.1457 C   0  0  0  0  0  0  0  0  0  0  0  0
  -31.3283   -3.5653   -1.9915 F   0  0  0  0  0  0  0  0  0  0  0  0
  -29.3958   -2.8788   -3.1549 C   0  0  0  0  0  0  0  0  0  0  0  0
  -28.6887   -2.7562   -4.3624 C   0  0  0  0  0  0  0  0  0  0  0  0
  -27.9659   -0.6462   -6.8906 C   0  0  0  0  0  0  0  0  0  0  0  0
  -27.4997    0.3179   -7.7121 F   0  0  0  0  0  0  0  0  0  0  0  0
  -29.1392   -0.1794   -6.3982 F   0  0  0  0  0  0  0  0  0  0  0  0
  -27.0934   -0.6985   -5.8511 F   0  0  0  0  0  0  0  0  0  0  0  0
  1  2  2  0  0  0
  2  3  1  0  0  0
  2 23  1  0  0  0
  3  5  1  0  0  0
  3  4  1  0  0  0
  5  6  1  0  0  0
  5 11  2  0  0  0
  6  7  2  0  0  0
  7  8  1  0  0  0
  8 12  1  0  0  0
  8  9  2  0  0  0
 12 13  1  0  0  0
 13 14  1  0  0  0
 13 21  2  0  0  0
 14 15  2  0  0  0
 15 16  1  0  0  0
 16 17  2  0  0  0
 17 18  1  0  0  0
 17 21  1  0  0  0
 18 19  1  0  0  0
 18 22  1  0  0  0
 19 20  2  0  0  0
 20 21  1  0  0  0
  9 10  1  0  0  0
  9 11  1  0  0  0
 23 24  1  0  0  0
 23 27  2  0  0  0
 24 25  2  0  0  0
 25 26  1  0  0  0
 26 28  1  0  0  0
 26 27  1  0  0  0
 28 29  1  0  0  0
 28 34  2  0  0  0
 29 30  2  0  0  0
 30 31  1  0  0  0
 31 32  1  0  0  0
 31 33  2  0  0  0
 33 34  1  0  0  0
 27 35  1  0  0  0
 35 36  1  0  0  0
 35 37  1  0  0  0
 35 38  1  0  0  0
M  END
> <minimizedAffinity>
-10.80163

$$$$
