CHEMBL3775585


 26 28  0  0  0  0  0  0  0  0999 V2000
  -27.9505   -2.4389   -5.4770 C   0  0  0  0  0  0  0  0  0  0  0  0
  -28.2241   -3.3273   -4.4191 C   0  0  0  0  0  0  0  0  0  0  0  0
  -28.9120   -4.5180   -4.6024 C   0  0  0  0  0  0  0  0  0  0  0  0
  -29.0510   -5.3511   -3.5655 N   0  0  0  0  0  0  0  0  0  0  0  0
  -29.6751   -6.5077   -3.8101 C   0  0  0  0  0  0  0  0  0  0  0  0
  -30.1556   -6.9103   -4.9886 N   0  0  0  0  0  0  0  0  0  0  0  0
  -30.0423   -6.0462   -6.0141 C   0  0  0  0  0  0  0  0  0  0  0  0
  -29.4088   -4.8044   -5.8742 C   0  0  0  0  0  0  0  0  0  0  0  0
  -29.2575   -3.8570   -6.9092 C   0  0  0  0  0  0  0  0  0  0  0  0
  -28.5183   -2.6838   -6.7316 C   0  0  0  0  0  0  0  0  0  0  0  0
  -27.8494   -0.1247   -4.9800 C   0  0  0  0  0  0  0  0  0  0  0  0
  -27.1571   -1.3384   -5.2867 O   0  0  0  0  0  0  0  0  0  0  0  0
  -30.5475   -6.4280   -7.2901 N   0  0  0  0  0  0  0  0  0  0  0  0
  -30.3123   -5.6966   -7.9614 H   0  0  0  0  0  0  0  0  0  0  0  0
  -30.3503   -7.7165   -7.8636 C   0  0  0  0  0  0  0  0  0  0  0  0
  -29.1456   -8.0720   -8.5082 C   0  0  0  0  0  0  0  0  0  0  0  0
  -27.7332   -7.0685   -8.4704 Cl  0  0  0  0  0  0  0  0  0  0  0  0
  -29.0176   -9.3070   -9.1544 C   0  0  0  0  0  0  0  0  0  0  0  0
  -30.0624  -10.2299   -9.1337 C   0  0  0  0  0  0  0  0  0  0  0  0
  -31.2339   -9.9235   -8.4451 C   0  0  0  0  0  0  0  0  0  0  0  0
  -32.2421  -10.8473   -8.3970 O   0  0  0  0  0  0  0  0  0  0  0  0
  -31.3819   -8.6809   -7.8073 C   0  0  0  0  0  0  0  0  0  0  0  0
  -32.8433   -8.3261   -6.9397 Cl  0  0  0  0  0  0  0  0  0  0  0  0
  -31.9833  -11.6448   -8.8869 H   0  0  0  0  0  0  0  0  0  0  0  0
  -28.4541   -1.9578   -7.8846 O   0  0  0  0  0  0  0  0  0  0  0  0
  -27.5658   -2.3393   -8.9193 C   0  0  0  0  0  0  0  0  0  0  0  0
 11 12  1  0  0  0
 12  1  1  0  0  0
  1  2  1  0  0  0
  1 10  2  0  0  0
  2  3  2  0  0  0
  3  4  1  0  0  0
  3  8  1  0  0  0
  4  5  2  0  0  0
  5  6  1  0  0  0
  6  7  2  0  0  0
  7 13  1  0  0  0
  7  8  1  0  0  0
 13 15  1  0  0  0
 13 14  1  0  0  0
 15 16  1  0  0  0
 15 22  2  0  0  0
 16 17  1  0  0  0
 16 18  2  0  0  0
 18 19  1  0  0  0
 19 20  2  0  0  0
 20 21  1  0  0  0
 20 22  1  0  0  0
 21 24  1  0  0  0
 22 23  1  0  0  0
  8  9  2  0  0  0
  9 10  1  0  0  0
 10 25  1  0  0  0
 25 26  1  0  0  0
M  END
> <minimizedAffinity>
-7.69957

$$$$
