CHEMBL3932698


 36 39  0  0  0  0  0  0  0  0999 V2000
  -23.9941   -0.6405  -13.7229 C   0  0  0  0  0  0  0  0  0  0  0  0
  -25.0847   -1.2908  -14.3264 C   0  0  0  0  0  0  0  0  0  0  0  0
  -26.2573   -1.5574  -13.6475 C   0  0  0  0  0  0  0  0  0  0  0  0
  -27.2607   -2.1721  -14.2805 N   0  0  0  0  0  0  0  0  0  0  0  0
  -28.3721   -2.3774  -13.5679 C   0  0  0  0  0  0  0  0  0  0  0  0
  -28.5780   -2.0019  -12.3009 N   0  0  0  0  0  0  0  0  0  0  0  0
  -27.5648   -1.3778  -11.6787 C   0  0  0  0  0  0  0  0  0  0  0  0
  -26.3377   -1.1565  -12.3163 C   0  0  0  0  0  0  0  0  0  0  0  0
  -25.2347   -0.5392  -11.6885 C   0  0  0  0  0  0  0  0  0  0  0  0
  -24.0718   -0.2375  -12.3892 C   0  0  0  0  0  0  0  0  0  0  0  0
  -27.7203   -0.8895  -10.3496 N   0  0  0  0  0  0  0  0  0  0  0  0
  -28.3607   -0.1010  -10.3793 H   0  0  0  0  0  0  0  0  0  0  0  0
  -27.9120   -1.6337   -9.1706 C   0  0  0  0  0  0  0  0  0  0  0  0
  -28.1977   -2.9999   -9.1805 C   0  0  0  0  0  0  0  0  0  0  0  0
  -28.4102   -3.6945   -7.9930 C   0  0  0  0  0  0  0  0  0  0  0  0
  -28.2831   -3.0399   -6.7651 C   0  0  0  0  0  0  0  0  0  0  0  0
  -28.6183   -3.9486   -5.3370 Cl  0  0  0  0  0  0  0  0  0  0  0  0
  -27.8996   -1.7013   -6.7328 C   0  0  0  0  0  0  0  0  0  0  0  0
  -27.6667   -0.8315   -5.2552 Cl  0  0  0  0  0  0  0  0  0  0  0  0
  -27.6964   -1.0063   -7.9302 C   0  0  0  0  0  0  0  0  0  0  0  0
  -23.0596    0.4876  -11.8129 O   0  0  0  0  0  0  0  0  0  0  0  0
  -22.0053   -0.2897  -11.2313 C   0  0  0  0  0  0  0  0  0  0  0  0
  -22.9651   -0.4826  -14.5959 O   0  0  0  0  0  0  0  0  0  0  0  0
  -21.8678    0.3783  -14.3055 C   0  0  0  0  0  0  0  0  0  0  0  0
  -19.1643    2.0356  -15.3167 N   0  0  0  0  0  0  0  0  0  0  0  0
  -19.4452    3.3271  -14.6570 C   0  0  0  0  0  0  0  0  0  0  0  0
  -20.6740    3.2912  -13.7358 C   0  0  0  0  0  0  0  0  0  0  0  0
  -21.8494    2.8739  -14.4253 O   0  0  0  0  0  0  0  0  0  0  0  0
  -21.6902    1.6503  -15.1605 C   0  0  0  0  0  0  0  0  0  0  0  0
  -20.3962    1.6149  -16.0039 C   0  0  0  0  0  0  0  0  0  0  0  0
  -18.5973    1.0596  -14.3779 C   0  0  0  0  0  0  0  0  0  0  0  0
  -17.0951    0.8047  -14.5524 C   0  0  0  0  0  0  0  0  0  0  0  0
  -16.4346    0.4483  -13.2232 C   0  0  0  0  0  0  0  0  0  0  0  0
  -15.5014   -0.7473  -13.3683 C   0  0  0  0  0  0  0  0  0  0  0  0
  -15.9596   -3.0796  -12.5634 C   0  0  0  0  0  0  0  0  0  0  0  0
  -15.6109   -1.6612  -12.1509 C   0  0  0  0  0  0  0  0  0  0  0  0
 35 36  1  0  0  0
 36 34  1  0  0  0
 34 33  1  0  0  0
 33 32  1  0  0  0
 32 31  1  0  0  0
 31 25  1  0  0  0
 25 26  1  0  0  0
 25 30  1  0  0  0
 26 27  1  0  0  0
 27 28  1  0  0  0
 28 29  1  0  0  0
 29 24  1  0  0  0
 29 30  1  0  0  0
 24 23  1  0  0  0
 23  1  1  0  0  0
  1  2  1  0  0  0
  1 10  2  0  0  0
  2  3  2  0  0  0
  3  4  1  0  0  0
  3  8  1  0  0  0
  4  5  2  0  0  0
  5  6  1  0  0  0
  6  7  2  0  0  0
  7 11  1  0  0  0
  7  8  1  0  0  0
 11 13  1  0  0  0
 11 12  1  0  0  0
 13 14  1  0  0  0
 13 20  2  0  0  0
 14 15  2  0  0  0
 15 16  1  0  0  0
 16 17  1  0  0  0
 16 18  2  0  0  0
 18 19  1  0  0  0
 18 20  1  0  0  0
  8  9  2  0  0  0
  9 10  1  0  0  0
 10 21  1  0  0  0
 21 22  1  0  0  0
M  END
> <minimizedAffinity>
-5.91863

$$$$
