CHEMBL423221


 32 37  0  0  0  0  0  0  0  0999 V2000
  -11.9722   -4.2175  -18.3113 C   0  0  0  0  0  0  0  0  0  0  0  0
  -12.1740   -2.8931  -17.9179 C   0  0  0  0  0  0  0  0  0  0  0  0
  -12.8911   -2.6056  -16.7696 C   0  0  0  0  0  0  0  0  0  0  0  0
  -13.4096   -3.6699  -16.0121 C   0  0  0  0  0  0  0  0  0  0  0  0
  -13.1211   -5.0144  -16.3740 C   0  0  0  0  0  0  0  0  0  0  0  0
  -12.3891   -5.2975  -17.5258 C   0  0  0  0  0  0  0  0  0  0  0  0
  -13.6693   -5.7091  -15.3176 C   0  0  0  0  0  0  0  0  0  0  0  0
  -13.2755   -6.9682  -14.7940 C   0  0  0  0  0  0  0  0  0  0  0  0
  -13.5530   -7.1538  -13.3686 C   0  0  0  0  0  0  0  0  0  0  0  0
  -14.2394   -6.1410  -12.6824 C   0  0  0  0  0  0  0  0  0  0  0  0
  -15.1841   -5.6175  -13.5649 C   0  0  0  0  0  0  0  0  0  0  0  0
  -14.5955   -4.9970  -14.6222 C   0  0  0  0  0  0  0  0  0  0  0  0
  -14.1310   -3.6863  -14.8112 N   0  0  0  0  0  0  0  0  0  0  0  0
  -16.4950   -5.5522  -12.9040 C   0  0  0  0  0  0  0  0  0  0  0  0
  -15.9913   -5.0221  -11.5936 C   0  0  0  0  0  0  0  0  0  0  0  0
  -16.5389   -3.8317  -11.1076 C   0  0  0  0  0  0  0  0  0  0  0  0
  -15.6885   -2.9577  -10.4622 C   0  0  0  0  0  0  0  0  0  0  0  0
  -14.3495   -3.3295  -10.2463 C   0  0  0  0  0  0  0  0  0  0  0  0
  -13.8204   -4.5785  -10.6994 C   0  0  0  0  0  0  0  0  0  0  0  0
  -14.6305   -5.4726  -11.4217 C   0  0  0  0  0  0  0  0  0  0  0  0
  -13.5728   -8.5872  -13.1662 C   0  0  0  0  0  0  0  0  0  0  0  0
  -13.9355   -9.2922  -12.2320 O   0  0  0  0  0  0  0  0  0  0  0  0
  -13.2671   -9.1384  -14.4265 N   0  0  0  0  0  0  0  0  0  0  0  0
  -13.0163   -8.2051  -15.5121 C   0  0  0  0  0  0  0  0  0  0  0  0
  -13.5933  -10.0776  -14.6129 H   0  0  0  0  0  0  0  0  0  0  0  0
  -11.1362   -5.6208  -20.0189 O   0  0  0  0  0  0  0  0  0  0  0  0
  -11.3365   -4.4820  -19.6149 C   0  0  0  0  0  0  0  0  0  0  0  0
  -13.9029   -2.7655  -13.6821 C   0  0  0  0  0  0  0  0  0  0  0  0
  -14.7624   -1.5109  -13.5239 C   0  0  0  0  0  0  0  0  0  0  0  0
  -13.9545   -0.2141  -13.6037 C   0  0  0  0  0  0  0  0  0  0  0  0
  -14.4585    0.7157  -12.6487 O   0  0  0  0  0  0  0  0  0  0  0  0
  -15.3496    0.9856  -12.9311 H   0  0  0  0  0  0  0  0  0  0  0  0
 26 27  2  0  0  0
 27  1  1  0  0  0
  1  2  1  0  0  0
  1  6  2  0  0  0
  2  3  2  0  0  0
  3  4  1  0  0  0
  4  5  2  0  0  0
  4 13  1  0  0  0
  5  6  1  0  0  0
  5  7  1  0  0  0
  7  8  1  0  0  0
  7 12  2  0  0  0
  8  9  2  0  0  0
  8 24  1  0  0  0
  9 10  1  0  0  0
  9 21  1  0  0  0
 10 11  2  0  0  0
 10 20  1  0  0  0
 11 12  1  0  0  0
 11 14  1  0  0  0
 12 13  1  0  0  0
 13 28  1  0  0  0
 28 29  1  0  0  0
 29 30  1  0  0  0
 30 31  1  0  0  0
 31 32  1  0  0  0
 14 15  1  0  0  0
 15 16  1  0  0  0
 15 20  2  0  0  0
 16 17  2  0  0  0
 17 18  1  0  0  0
 18 19  2  0  0  0
 19 20  1  0  0  0
 21 22  2  0  0  0
 21 23  1  0  0  0
 23 24  1  0  0  0
 23 25  1  0  0  0
M  END
> <minimizedAffinity>
-7.46516

$$$$
