CHEMBL231269


 42 46  0  0  0  0  0  0  0  0999 V2000
  -23.2715   -0.4990  -13.5988 C   0  0  0  0  0  0  0  0  0  0  0  0
  -22.5453   -1.1250  -12.5764 C   0  0  0  0  0  0  0  0  0  0  0  0
  -23.1799   -1.6454  -11.4389 C   0  0  0  0  0  0  0  0  0  0  0  0
  -24.5666   -1.5092  -11.3941 C   0  0  0  0  0  0  0  0  0  0  0  0
  -25.5228   -1.9373  -10.5135 N   0  0  0  0  0  0  0  0  0  0  0  0
  -26.7510   -1.5940  -11.0082 C   0  0  0  0  0  0  0  0  0  0  0  0
  -26.6304   -0.8753  -12.0987 N   0  0  0  0  0  0  0  0  0  0  0  0
  -25.2967   -0.8422  -12.3684 C   0  0  0  0  0  0  0  0  0  0  0  0
  -24.6453   -0.2778  -13.4644 C   0  0  0  0  0  0  0  0  0  0  0  0
  -25.3661   -2.5131   -9.6992 H   0  0  0  0  0  0  0  0  0  0  0  0
  -27.8559   -2.0142  -10.3763 N   0  0  0  0  0  0  0  0  0  0  0  0
  -28.6528   -2.3357  -10.9034 H   0  0  0  0  0  0  0  0  0  0  0  0
  -28.0801   -1.9683   -8.9823 C   0  0  0  0  0  0  0  0  0  0  0  0
  -27.7598   -0.8981   -8.1658 C   0  0  0  0  0  0  0  0  0  0  0  0
  -27.9469   -0.9803   -6.7803 C   0  0  0  0  0  0  0  0  0  0  0  0
  -28.4733   -2.1418   -6.1727 C   0  0  0  0  0  0  0  0  0  0  0  0
  -28.8808   -3.2017   -7.0000 C   0  0  0  0  0  0  0  0  0  0  0  0
  -28.6291   -3.1015   -8.3815 C   0  0  0  0  0  0  0  0  0  0  0  0
  -28.4899   -2.1853   -4.6647 C   0  0  0  0  0  0  0  0  0  0  0  0
  -27.9498   -1.0585   -4.1012 F   0  0  0  0  0  0  0  0  0  0  0  0
  -29.7340   -2.2862   -4.1225 F   0  0  0  0  0  0  0  0  0  0  0  0
  -27.7562   -3.2116   -4.1518 F   0  0  0  0  0  0  0  0  0  0  0  0
  -29.5168   -4.3087   -6.4603 O   0  0  0  0  0  0  0  0  0  0  0  0
  -28.6976   -5.5022   -6.4377 C   0  0  0  0  0  0  0  0  0  0  0  0
  -29.0957   -6.6113   -5.4401 C   0  0  0  0  0  0  0  0  0  0  0  0
  -29.1356   -6.1137   -3.9971 C   0  0  0  0  0  0  0  0  0  0  0  0
  -30.6049   -6.1528   -3.5984 C   0  0  0  0  0  0  0  0  0  0  0  0
  -31.3569   -6.4510   -4.8836 C   0  0  0  0  0  0  0  0  0  0  0  0
  -30.3975   -7.2707   -5.6181 N   0  0  0  0  0  0  0  0  0  0  0  0
  -30.7925   -7.5196   -6.9932 C   0  0  0  0  0  0  0  0  0  0  0  0
  -22.5661   -0.0990  -14.7162 O   0  0  0  0  0  0  0  0  0  0  0  0
  -19.7612    2.2850  -14.8919 C   0  0  0  0  0  0  0  0  0  0  0  0
  -20.4321    1.0763  -15.0094 C   0  0  0  0  0  0  0  0  0  0  0  0
  -21.7743    1.0306  -14.6334 C   0  0  0  0  0  0  0  0  0  0  0  0
  -22.3726    2.1669  -14.0967 C   0  0  0  0  0  0  0  0  0  0  0  0
  -21.6155    3.3249  -14.0031 C   0  0  0  0  0  0  0  0  0  0  0  0
  -20.3232    3.4205  -14.3903 N   0  0  0  0  0  0  0  0  0  0  0  0
  -16.4805    3.9006  -15.8805 C   0  0  0  0  0  0  0  0  0  0  0  0
  -17.8353    3.6556  -15.4623 N   0  0  0  0  0  0  0  0  0  0  0  0
  -18.3323    2.3745  -15.3405 C   0  0  0  0  0  0  0  0  0  0  0  0
  -17.6702    1.3678  -15.5689 O   0  0  0  0  0  0  0  0  0  0  0  0
  -18.4616    4.4199  -15.2284 H   0  0  0  0  0  0  0  0  0  0  0  0
 38 39  1  0  0  0
 39 40  1  0  0  0
 39 42  1  0  0  0
 40 41  2  0  0  0
 40 32  1  0  0  0
 32 33  1  0  0  0
 32 37  2  0  0  0
 33 34  2  0  0  0
 34 31  1  0  0  0
 34 35  1  0  0  0
 31  1  1  0  0  0
  1  2  1  0  0  0
  1  9  2  0  0  0
  2  3  2  0  0  0
  3  4  1  0  0  0
  4  5  1  0  0  0
  4  8  2  0  0  0
  5  6  1  0  0  0
  5 10  1  0  0  0
  6 11  1  0  0  0
  6  7  2  0  0  0
 11 13  1  0  0  0
 11 12  1  0  0  0
 13 14  1  0  0  0
 13 18  2  0  0  0
 14 15  2  0  0  0
 15 16  1  0  0  0
 16 19  1  0  0  0
 16 17  2  0  0  0
 19 20  1  0  0  0
 19 21  1  0  0  0
 19 22  1  0  0  0
 17 23  1  0  0  0
 17 18  1  0  0  0
 23 24  1  0  0  0
 24 25  1  0  0  0
 25 26  1  0  0  0
 25 29  1  0  0  0
 26 27  1  0  0  0
 27 28  1  0  0  0
 28 29  1  0  0  0
 29 30  1  0  0  0
  7  8  1  0  0  0
  8  9  1  0  0  0
 35 36  2  0  0  0
 36 37  1  0  0  0
M  END
> <minimizedAffinity>
-11.35081

$$$$
