CHEMBL231650


 27 29  0  0  0  0  0  0  0  0999 V2000
  -27.9159   -2.3977   -7.9188 C   0  0  0  0  0  0  0  0  0  0  0  0
  -28.8030   -3.4317   -8.2049 C   0  0  0  0  0  0  0  0  0  0  0  0
  -29.5536   -4.0030   -7.1840 C   0  0  0  0  0  0  0  0  0  0  0  0
  -29.4318   -3.5367   -5.8604 C   0  0  0  0  0  0  0  0  0  0  0  0
  -30.1342   -4.0745   -4.7759 C   0  0  0  0  0  0  0  0  0  0  0  0
  -30.0663   -3.5337   -3.5450 N   0  0  0  0  0  0  0  0  0  0  0  0
  -29.2520   -2.4873   -3.3919 C   0  0  0  0  0  0  0  0  0  0  0  0
  -28.4932   -1.9327   -4.3429 N   0  0  0  0  0  0  0  0  0  0  0  0
  -28.5839   -2.4549   -5.5742 C   0  0  0  0  0  0  0  0  0  0  0  0
  -27.8304   -1.9156   -6.6074 C   0  0  0  0  0  0  0  0  0  0  0  0
  -30.9244   -5.2468   -4.9682 N   0  0  0  0  0  0  0  0  0  0  0  0
  -31.5408   -5.1004   -5.7653 H   0  0  0  0  0  0  0  0  0  0  0  0
  -30.3616   -6.5404   -4.9884 C   0  0  0  0  0  0  0  0  0  0  0  0
  -29.6508   -7.0159   -3.8797 C   0  0  0  0  0  0  0  0  0  0  0  0
  -28.9736   -8.2313   -3.9422 C   0  0  0  0  0  0  0  0  0  0  0  0
  -28.2214   -8.6302   -2.8717 O   0  0  0  0  0  0  0  0  0  0  0  0
  -29.0444   -9.0153   -5.0972 C   0  0  0  0  0  0  0  0  0  0  0  0
  -28.1664  -10.4939   -5.2274 Cl  0  0  0  0  0  0  0  0  0  0  0  0
  -29.8095   -8.5923   -6.1841 C   0  0  0  0  0  0  0  0  0  0  0  0
  -30.4619   -7.3633   -6.1190 C   0  0  0  0  0  0  0  0  0  0  0  0
  -31.1667   -6.9417   -7.1811 F   0  0  0  0  0  0  0  0  0  0  0  0
  -28.1275   -7.8782   -2.2617 H   0  0  0  0  0  0  0  0  0  0  0  0
  -27.0981   -1.7851   -8.8359 O   0  0  0  0  0  0  0  0  0  0  0  0
  -27.6592   -1.6404  -10.1420 C   0  0  0  0  0  0  0  0  0  0  0  0
  -26.5784   -1.6798  -11.2123 C   0  0  0  0  0  0  0  0  0  0  0  0
  -24.2293   -1.6078  -11.4593 C   0  0  0  0  0  0  0  0  0  0  0  0
  -25.3174   -1.5696  -10.5497 O   0  0  0  0  0  0  0  0  0  0  0  0
 26 27  1  0  0  0
 27 25  1  0  0  0
 25 24  1  0  0  0
 24 23  1  0  0  0
 23  1  1  0  0  0
  1  2  1  0  0  0
  1 10  2  0  0  0
  2  3  2  0  0  0
  3  4  1  0  0  0
  4  5  1  0  0  0
  4  9  2  0  0  0
  5 11  1  0  0  0
  5  6  2  0  0  0
 11 13  1  0  0  0
 11 12  1  0  0  0
 13 14  1  0  0  0
 13 20  2  0  0  0
 14 15  2  0  0  0
 15 16  1  0  0  0
 15 17  1  0  0  0
 16 22  1  0  0  0
 17 18  1  0  0  0
 17 19  2  0  0  0
 19 20  1  0  0  0
 20 21  1  0  0  0
  6  7  1  0  0  0
  7  8  2  0  0  0
  8  9  1  0  0  0
  9 10  1  0  0  0
M  END
> <minimizedAffinity>
-7.96683

$$$$
