CHEMBL4218563


 40 42  0  0  0  0  0  0  0  0999 V2000
  -15.8261   -1.4968  -12.2477 C   0  0  0  0  0  0  0  0  0  0  0  0
  -15.8681   -0.4611  -11.5864 O   0  0  0  0  0  0  0  0  0  0  0  0
  -15.8488   -1.5560  -13.6327 N   0  0  0  0  0  0  0  0  0  0  0  0
  -16.2156   -2.4149  -14.0269 H   0  0  0  0  0  0  0  0  0  0  0  0
  -15.9008   -0.4084  -14.4511 C   0  0  0  0  0  0  0  0  0  0  0  0
  -14.7565   -0.0541  -15.1529 C   0  0  0  0  0  0  0  0  0  0  0  0
  -14.7716    1.0523  -16.0051 C   0  0  0  0  0  0  0  0  0  0  0  0
  -15.9086    1.8766  -16.1353 C   0  0  0  0  0  0  0  0  0  0  0  0
  -17.0731    1.5344  -15.4066 C   0  0  0  0  0  0  0  0  0  0  0  0
  -17.0460    0.3832  -14.5741 C   0  0  0  0  0  0  0  0  0  0  0  0
  -18.3836    2.3017  -15.4385 C   0  0  0  0  0  0  0  0  0  0  0  0
  -18.5485    3.2294  -14.4576 F   0  0  0  0  0  0  0  0  0  0  0  0
  -18.5554    2.9856  -16.6049 F   0  0  0  0  0  0  0  0  0  0  0  0
  -19.4631    1.4740  -15.3339 F   0  0  0  0  0  0  0  0  0  0  0  0
  -15.8009    3.0659  -17.0797 C   0  0  0  0  0  0  0  0  0  0  0  0
  -15.2442    4.4044  -16.4982 C   0  0  0  0  0  0  0  0  0  0  0  0
  -14.0602    4.2103  -15.5417 C   0  0  0  0  0  0  0  0  0  0  0  0
  -14.8489    5.3826  -17.6155 C   0  0  0  0  0  0  0  0  0  0  0  0
  -16.3094    5.0705  -15.7205 N   0  0  0  0  0  0  0  0  0  0  0  0
  -16.5901    4.4764  -14.9393 H   0  0  0  0  0  0  0  0  0  0  0  0
  -17.1409    5.1986  -16.2956 H   0  0  0  0  0  0  0  0  0  0  0  0
  -15.7746   -2.8594  -11.5766 C   0  0  0  0  0  0  0  0  0  0  0  0
  -14.4164   -6.2220  -13.9659 C   0  0  0  0  0  0  0  0  0  0  0  0
  -15.7846   -6.0381  -13.7222 C   0  0  0  0  0  0  0  0  0  0  0  0
  -16.2372   -4.9386  -12.9742 C   0  0  0  0  0  0  0  0  0  0  0  0
  -15.3307   -3.9980  -12.4663 C   0  0  0  0  0  0  0  0  0  0  0  0
  -13.9706   -4.1902  -12.7330 C   0  0  0  0  0  0  0  0  0  0  0  0
  -13.0725   -3.3100  -12.2673 F   0  0  0  0  0  0  0  0  0  0  0  0
  -13.5109   -5.2821  -13.4671 C   0  0  0  0  0  0  0  0  0  0  0  0
  -13.6966   -8.7073  -14.2054 C   0  0  0  0  0  0  0  0  0  0  0  0
  -13.2852   -9.7163  -15.0024 C   0  0  0  0  0  0  0  0  0  0  0  0
  -13.0490   -9.4761  -16.4456 C   0  0  0  0  0  0  0  0  0  0  0  0
  -12.6887  -10.3819  -17.1860 O   0  0  0  0  0  0  0  0  0  0  0  0
  -13.2654   -8.1956  -16.8809 N   0  0  0  0  0  0  0  0  0  0  0  0
  -13.6838   -7.1656  -16.0700 C   0  0  0  0  0  0  0  0  0  0  0  0
  -13.9104   -7.3694  -14.7563 C   0  0  0  0  0  0  0  0  0  0  0  0
  -13.1165   -8.0387  -17.8697 H   0  0  0  0  0  0  0  0  0  0  0  0
  -13.9700   -8.8005  -12.8559 O   0  0  0  0  0  0  0  0  0  0  0  0
  -12.0432   -8.1808  -11.5942 C   0  0  0  0  0  0  0  0  0  0  0  0
  -12.9479   -9.3241  -12.0096 C   0  0  0  0  0  0  0  0  0  0  0  0
 39 40  1  0  0  0
 40 38  1  0  0  0
 38 30  1  0  0  0
 30 31  2  0  0  0
 30 36  1  0  0  0
 31 32  1  0  0  0
 32 33  2  0  0  0
 32 34  1  0  0  0
 34 35  1  0  0  0
 34 37  1  0  0  0
 35 36  2  0  0  0
 36 23  1  0  0  0
 23 24  1  0  0  0
 23 29  2  0  0  0
 24 25  2  0  0  0
 25 26  1  0  0  0
 26 22  1  0  0  0
 26 27  2  0  0  0
 22  1  1  0  0  0
  1  2  2  0  0  0
  1  3  1  0  0  0
  3  5  1  0  0  0
  3  4  1  0  0  0
  5  6  1  0  0  0
  5 10  2  0  0  0
  6  7  2  0  0  0
  7  8  1  0  0  0
  8 15  1  0  0  0
  8  9  2  0  0  0
 15 16  1  0  0  0
 16 17  1  0  0  0
 16 18  1  0  0  0
 16 19  1  0  0  0
 19 20  1  0  0  0
 19 21  1  0  0  0
  9 11  1  0  0  0
  9 10  1  0  0  0
 11 12  1  0  0  0
 11 13  1  0  0  0
 11 14  1  0  0  0
 27 28  1  0  0  0
 27 29  1  0  0  0
M  END
> <minimizedAffinity>
-8.20162

$$$$
