CHEMBL3696083


 42 44  0  0  0  0  0  0  0  0999 V2000
  -28.5416   -4.4963   -6.0188 C   0  0  0  0  0  0  0  0  0  0  0  0
  -28.3794   -3.9754   -4.7943 N   0  0  0  0  0  0  0  0  0  0  0  0
  -28.8145   -5.0650   -3.6493 S   0  0  0  0  0  0  0  0  0  0  0  0
  -29.2442   -6.2964   -4.7405 C   0  0  0  0  0  0  0  0  0  0  0  0
  -28.9973   -5.8816   -6.0401 C   0  0  0  0  0  0  0  0  0  0  0  0
  -27.5738   -1.9311   -9.3208 C   0  0  0  0  0  0  0  0  0  0  0  0
  -27.7573   -3.3049   -9.5053 C   0  0  0  0  0  0  0  0  0  0  0  0
  -28.1172   -4.1215   -8.4341 C   0  0  0  0  0  0  0  0  0  0  0  0
  -28.2848   -3.5853   -7.1491 C   0  0  0  0  0  0  0  0  0  0  0  0
  -28.0940   -2.2071   -6.9697 C   0  0  0  0  0  0  0  0  0  0  0  0
  -27.7290   -1.3848   -8.0471 C   0  0  0  0  0  0  0  0  0  0  0  0
  -25.8106   -0.1556  -11.9444 N   0  0  0  0  0  0  0  0  0  0  0  0
  -25.9785   -0.9979  -10.8566 C   0  0  0  0  0  0  0  0  0  0  0  0
  -25.0775   -1.6482  -10.3282 O   0  0  0  0  0  0  0  0  0  0  0  0
  -27.2914   -1.0863  -10.4256 N   0  0  0  0  0  0  0  0  0  0  0  0
  -26.5793    0.4526  -12.1865 H   0  0  0  0  0  0  0  0  0  0  0  0
  -27.9825   -1.0545  -11.1605 H   0  0  0  0  0  0  0  0  0  0  0  0
  -20.8454    0.5574  -14.7718 C   0  0  0  0  0  0  0  0  0  0  0  0
  -22.1362    0.3577  -14.0358 C   0  0  0  0  0  0  0  0  0  0  0  0
  -22.7256    1.4328  -13.3794 C   0  0  0  0  0  0  0  0  0  0  0  0
  -23.9272    1.2698  -12.6930 C   0  0  0  0  0  0  0  0  0  0  0  0
  -24.5847    0.0358  -12.6417 C   0  0  0  0  0  0  0  0  0  0  0  0
  -23.9927   -1.0475  -13.3009 C   0  0  0  0  0  0  0  0  0  0  0  0
  -22.7776   -0.8871  -13.9930 C   0  0  0  0  0  0  0  0  0  0  0  0
  -29.7945   -7.4669   -4.2331 N   0  0  0  0  0  0  0  0  0  0  0  0
  -29.0055   -8.5998   -4.2476 C   0  0  0  0  0  0  0  0  0  0  0  0
  -27.8977   -8.6719   -4.7727 O   0  0  0  0  0  0  0  0  0  0  0  0
  -29.5623   -9.6561   -3.5660 N   0  0  0  0  0  0  0  0  0  0  0  0
  -30.7737   -7.6221   -4.4494 H   0  0  0  0  0  0  0  0  0  0  0  0
  -30.5637   -9.6532   -3.4319 H   0  0  0  0  0  0  0  0  0  0  0  0
  -28.8812  -10.9425   -3.5351 C   0  0  0  0  0  0  0  0  0  0  0  0
  -29.5186  -11.9998   -4.4497 C   0  0  0  0  0  0  0  0  0  0  0  0
  -29.0586  -11.8976   -5.9025 C   0  0  0  0  0  0  0  0  0  0  0  0
  -29.9018  -10.9189   -6.6808 C   0  0  0  0  0  0  0  0  0  0  0  0
  -29.5444  -10.3517   -7.7018 O   0  0  0  0  0  0  0  0  0  0  0  0
  -31.1283  -10.7310   -6.1447 O   0  0  0  0  0  0  0  0  0  0  0  0
  -31.2895  -11.2555   -5.3373 H   0  0  0  0  0  0  0  0  0  0  0  0
  -29.1723   -6.7777   -7.1685 C   0  0  0  0  0  0  0  0  0  0  0  0
  -28.0833   -7.5289   -7.5255 N   0  0  0  0  0  0  0  0  0  0  0  0
  -30.2392   -6.9166   -7.7433 O   0  0  0  0  0  0  0  0  0  0  0  0
  -27.2617   -7.6107   -6.9438 H   0  0  0  0  0  0  0  0  0  0  0  0
  -28.2068   -8.2109   -8.2643 H   0  0  0  0  0  0  0  0  0  0  0  0
 18 19  1  0  0  0
 19 20  1  0  0  0
 19 24  2  0  0  0
 20 21  2  0  0  0
 21 22  1  0  0  0
 22 12  1  0  0  0
 22 23  2  0  0  0
 12 13  1  0  0  0
 12 16  1  0  0  0
 13 14  2  0  0  0
 13 15  1  0  0  0
 15  6  1  0  0  0
 15 17  1  0  0  0
  6  7  1  0  0  0
  6 11  2  0  0  0
  7  8  2  0  0  0
  8  9  1  0  0  0
  9  1  1  0  0  0
  9 10  2  0  0  0
  1  2  2  0  0  0
  1  5  1  0  0  0
  2  3  1  0  0  0
  3  4  1  0  0  0
  4 25  1  0  0  0
  4  5  2  0  0  0
 25 26  1  0  0  0
 25 29  1  0  0  0
 26 27  2  0  0  0
 26 28  1  0  0  0
 28 31  1  0  0  0
 28 30  1  0  0  0
 31 32  1  0  0  0
 32 33  1  0  0  0
 33 34  1  0  0  0
 34 35  2  0  0  0
 34 36  1  0  0  0
 36 37  1  0  0  0
  5 38  1  0  0  0
 38 39  1  0  0  0
 38 40  2  0  0  0
 39 41  1  0  0  0
 39 42  1  0  0  0
 10 11  1  0  0  0
 23 24  1  0  0  0
M  END
> <minimizedAffinity>
-7.59016

$$$$
