CHEMBL1940181


 36 41  0  0  0  0  0  0  0  0999 V2000
  -13.2696   -3.8254  -16.6739 C   0  0  0  0  0  0  0  0  0  0  0  0
  -12.9110   -4.7247  -15.5218 C   0  0  0  0  0  0  0  0  0  0  0  0
  -12.8430   -4.0922  -14.2656 C   0  0  0  0  0  0  0  0  0  0  0  0
  -12.5240   -4.7929  -13.0984 C   0  0  0  0  0  0  0  0  0  0  0  0
  -12.3105   -6.1804  -13.1410 C   0  0  0  0  0  0  0  0  0  0  0  0
  -12.3758   -6.7961  -14.4035 C   0  0  0  0  0  0  0  0  0  0  0  0
  -12.6182   -6.1008  -15.6124 C   0  0  0  0  0  0  0  0  0  0  0  0
  -12.0092   -7.0224  -11.8853 C   0  0  0  0  0  0  0  0  0  0  0  0
  -13.1775   -8.0004  -11.6365 C   0  0  0  0  0  0  0  0  0  0  0  0
  -10.6966   -7.8115  -12.0924 C   0  0  0  0  0  0  0  0  0  0  0  0
  -11.8603   -6.1187  -10.6851 C   0  0  0  0  0  0  0  0  0  0  0  0
  -11.5371   -6.5167   -9.4129 N   0  0  0  0  0  0  0  0  0  0  0  0
  -11.4838   -5.4212   -8.5781 C   0  0  0  0  0  0  0  0  0  0  0  0
  -11.1944   -5.3387   -7.2112 C   0  0  0  0  0  0  0  0  0  0  0  0
  -11.2131   -4.0646   -6.6231 C   0  0  0  0  0  0  0  0  0  0  0  0
  -11.5026   -2.9231   -7.3736 C   0  0  0  0  0  0  0  0  0  0  0  0
  -11.7894   -3.0283   -8.7359 C   0  0  0  0  0  0  0  0  0  0  0  0
  -11.7858   -4.2966   -9.3437 C   0  0  0  0  0  0  0  0  0  0  0  0
  -12.0355   -4.7501  -10.6650 C   0  0  0  0  0  0  0  0  0  0  0  0
  -12.4044   -4.0000  -11.8426 C   0  0  0  0  0  0  0  0  0  0  0  0
  -12.5949   -2.7889  -11.8313 O   0  0  0  0  0  0  0  0  0  0  0  0
  -11.3591   -7.4677   -9.1198 H   0  0  0  0  0  0  0  0  0  0  0  0
  -12.5462   -6.8799  -16.7769 N   0  0  0  0  0  0  0  0  0  0  0  0
  -11.3061   -7.5678  -17.1131 C   0  0  0  0  0  0  0  0  0  0  0  0
  -11.3154   -7.9444  -18.5868 C   0  0  0  0  0  0  0  0  0  0  0  0
  -12.5081   -8.8435  -18.9673 C   0  0  0  0  0  0  0  0  0  0  0  0
  -13.7944   -8.1127  -18.5069 C   0  0  0  0  0  0  0  0  0  0  0  0
  -13.7574   -7.6891  -17.0343 C   0  0  0  0  0  0  0  0  0  0  0  0
  -12.4985  -10.2361  -18.4501 N   0  0  0  0  0  0  0  0  0  0  0  0
  -11.4321  -11.1255  -18.9666 C   0  0  0  0  0  0  0  0  0  0  0  0
  -11.6399  -11.5976  -20.4140 C   0  0  0  0  0  0  0  0  0  0  0  0
  -12.8865  -12.2882  -20.5492 O   0  0  0  0  0  0  0  0  0  0  0  0
  -13.9689  -11.4384  -20.1567 C   0  0  0  0  0  0  0  0  0  0  0  0
  -13.7954  -10.9256  -18.7112 C   0  0  0  0  0  0  0  0  0  0  0  0
  -10.9297   -3.9328   -5.2231 C   0  0  0  0  0  0  0  0  0  0  0  0
  -10.6979   -3.8238   -4.0959 N   0  0  0  0  0  0  0  0  0  0  0  0
  1  2  1  0  0  0
  2  3  1  0  0  0
  2  7  2  0  0  0
  3  4  2  0  0  0
  4  5  1  0  0  0
  4 20  1  0  0  0
  5  6  2  0  0  0
  5  8  1  0  0  0
  6  7  1  0  0  0
  7 23  1  0  0  0
 23 24  1  0  0  0
 23 28  1  0  0  0
 24 25  1  0  0  0
 25 26  1  0  0  0
 26 29  1  0  0  0
 26 27  1  0  0  0
 29 30  1  0  0  0
 29 34  1  0  0  0
 30 31  1  0  0  0
 31 32  1  0  0  0
 32 33  1  0  0  0
 33 34  1  0  0  0
 27 28  1  0  0  0
  8  9  1  0  0  0
  8 10  1  0  0  0
  8 11  1  0  0  0
 11 12  1  0  0  0
 11 19  2  0  0  0
 12 13  1  0  0  0
 12 22  1  0  0  0
 13 14  1  0  0  0
 13 18  2  0  0  0
 14 15  2  0  0  0
 15 35  1  0  0  0
 15 16  1  0  0  0
 35 36  3  0  0  0
 16 17  2  0  0  0
 17 18  1  0  0  0
 18 19  1  0  0  0
 19 20  1  0  0  0
 20 21  2  0  0  0
M  END
> <minimizedAffinity>
-7.52515

$$$$
