CHEMBL262623


 21 23  0  0  0  0  0  0  0  0999 V2000
  -29.3089   -6.2693   -2.8748 N   0  0  0  0  0  0  0  0  0  0  0  0
  -29.0747   -6.8113   -4.1504 C   0  0  0  0  0  0  0  0  0  0  0  0
  -29.2440   -8.1363   -4.2705 N   0  0  0  0  0  0  0  0  0  0  0  0
  -29.0724   -8.6269   -5.5036 C   0  0  0  0  0  0  0  0  0  0  0  0
  -28.7636   -7.9303   -6.6078 N   0  0  0  0  0  0  0  0  0  0  0  0
  -28.6135   -6.6008   -6.4565 C   0  0  0  0  0  0  0  0  0  0  0  0
  -28.7615   -5.9636   -5.2188 C   0  0  0  0  0  0  0  0  0  0  0  0
  -28.5282   -4.5871   -4.9631 N   0  0  0  0  0  0  0  0  0  0  0  0
  -28.9951   -3.6929   -5.7804 C   0  0  0  0  0  0  0  0  0  0  0  0
  -29.8145   -4.0532   -7.0027 C   0  0  0  0  0  0  0  0  0  0  0  0
  -28.9290   -4.7203   -8.0412 C   0  0  0  0  0  0  0  0  0  0  0  0
  -28.2506   -5.9430   -7.6270 N   0  0  0  0  0  0  0  0  0  0  0  0
  -29.3325   -7.0217   -2.1968 H   0  0  0  0  0  0  0  0  0  0  0  0
  -28.6278   -5.5388   -2.6886 H   0  0  0  0  0  0  0  0  0  0  0  0
  -28.2254   -6.6539   -8.3553 H   0  0  0  0  0  0  0  0  0  0  0  0
  -28.7379   -2.2538   -5.4831 C   0  0  0  0  0  0  0  0  0  0  0  0
  -27.4541   -1.7869   -5.1769 C   0  0  0  0  0  0  0  0  0  0  0  0
  -27.2505   -0.4307   -4.9105 C   0  0  0  0  0  0  0  0  0  0  0  0
  -28.3235    0.4593   -4.9385 C   0  0  0  0  0  0  0  0  0  0  0  0
  -29.6064   -0.0038   -5.2291 C   0  0  0  0  0  0  0  0  0  0  0  0
  -29.8137   -1.3567   -5.4973 C   0  0  0  0  0  0  0  0  0  0  0  0
  1  2  1  0  0  0
  1 13  1  0  0  0
  1 14  1  0  0  0
  2  3  1  0  0  0
  2  7  2  0  0  0
  3  4  2  0  0  0
  4  5  1  0  0  0
  5  6  2  0  0  0
  6  7  1  0  0  0
  6 12  1  0  0  0
  7  8  1  0  0  0
  8  9  2  0  0  0
  9 16  1  0  0  0
  9 10  1  0  0  0
 16 17  1  0  0  0
 16 21  2  0  0  0
 17 18  2  0  0  0
 18 19  1  0  0  0
 19 20  2  0  0  0
 20 21  1  0  0  0
 10 11  1  0  0  0
 11 12  1  0  0  0
 12 15  1  0  0  0
M  END
> <minimizedAffinity>
-7.77397

$$$$
