CHEMBL4227281


 35 38  0  0  0  0  0  0  0  0999 V2000
  -27.9484   -2.0635   -8.1203 N   0  0  0  0  0  0  0  0  0  0  0  0
  -28.0555   -3.3581   -7.6331 C   0  0  0  0  0  0  0  0  0  0  0  0
  -27.9765   -4.3494   -8.3600 O   0  0  0  0  0  0  0  0  0  0  0  0
  -28.3026   -3.4850   -6.2686 N   0  0  0  0  0  0  0  0  0  0  0  0
  -28.4357   -2.4139   -5.2865 C   0  0  0  0  0  0  0  0  0  0  0  0
  -29.8829   -2.3213   -4.8266 C   0  0  0  0  0  0  0  0  0  0  0  0
  -30.4121   -3.6674   -4.4061 C   0  0  0  0  0  0  0  0  0  0  0  0
  -31.5114   -3.6427   -3.6252 N   0  0  0  0  0  0  0  0  0  0  0  0
  -32.0357   -4.8312   -3.3160 C   0  0  0  0  0  0  0  0  0  0  0  0
  -31.5618   -6.0187   -3.7013 N   0  0  0  0  0  0  0  0  0  0  0  0
  -30.4596   -6.0261   -4.4773 C   0  0  0  0  0  0  0  0  0  0  0  0
  -29.8323   -4.8459   -4.8675 C   0  0  0  0  0  0  0  0  0  0  0  0
  -28.6059   -4.8245   -5.7450 C   0  0  0  0  0  0  0  0  0  0  0  0
  -27.7839   -1.2815   -7.5101 H   0  0  0  0  0  0  0  0  0  0  0  0
  -26.5449   -1.7962   -9.8876 C   0  0  0  0  0  0  0  0  0  0  0  0
  -27.7661   -1.8732   -9.4614 N   0  0  0  0  0  0  0  0  0  0  0  0
  -25.3824   -1.1155  -15.5182 C   0  0  0  0  0  0  0  0  0  0  0  0
  -25.6883   -1.2894  -14.0588 C   0  0  0  0  0  0  0  0  0  0  0  0
  -26.9426   -1.7505  -13.6443 C   0  0  0  0  0  0  0  0  0  0  0  0
  -27.2239   -1.9121  -12.2862 C   0  0  0  0  0  0  0  0  0  0  0  0
  -26.2510   -1.6149  -11.3276 C   0  0  0  0  0  0  0  0  0  0  0  0
  -24.9948   -1.1528  -11.7289 C   0  0  0  0  0  0  0  0  0  0  0  0
  -24.7172   -0.9915  -13.0917 C   0  0  0  0  0  0  0  0  0  0  0  0
  -29.9334   -7.2793   -4.8734 N   0  0  0  0  0  0  0  0  0  0  0  0
  -30.0758   -7.9600   -4.1354 H   0  0  0  0  0  0  0  0  0  0  0  0
  -30.0600   -7.8451   -6.1643 C   0  0  0  0  0  0  0  0  0  0  0  0
  -31.2972   -8.3181   -6.6170 C   0  0  0  0  0  0  0  0  0  0  0  0
  -31.4150   -8.9288   -7.8702 C   0  0  0  0  0  0  0  0  0  0  0  0
  -30.2897   -9.1034   -8.6760 C   0  0  0  0  0  0  0  0  0  0  0  0
  -29.0335   -8.6748   -8.2323 C   0  0  0  0  0  0  0  0  0  0  0  0
  -28.9353   -8.0533   -6.9766 C   0  0  0  0  0  0  0  0  0  0  0  0
  -27.7896   -8.8743   -9.0586 C   0  0  0  0  0  0  0  0  0  0  0  0
  -26.8137   -9.5741   -8.4130 F   0  0  0  0  0  0  0  0  0  0  0  0
  -28.0285   -9.5548  -10.2143 F   0  0  0  0  0  0  0  0  0  0  0  0
  -27.2135   -7.6971   -9.4311 F   0  0  0  0  0  0  0  0  0  0  0  0
 17 18  1  0  0  0
 18 19  1  0  0  0
 18 23  2  0  0  0
 19 20  2  0  0  0
 20 21  1  0  0  0
 21 15  1  0  0  0
 21 22  2  0  0  0
 15 16  2  0  0  0
 16  1  1  0  0  0
  1  2  1  0  0  0
  1 14  1  0  0  0
  2  3  2  0  0  0
  2  4  1  0  0  0
  4  5  1  0  0  0
  4 13  1  0  0  0
  5  6  1  0  0  0
  6  7  1  0  0  0
  7  8  1  0  0  0
  7 12  2  0  0  0
  8  9  2  0  0  0
  9 10  1  0  0  0
 10 11  2  0  0  0
 11 24  1  0  0  0
 11 12  1  0  0  0
 24 26  1  0  0  0
 24 25  1  0  0  0
 26 27  1  0  0  0
 26 31  2  0  0  0
 27 28  2  0  0  0
 28 29  1  0  0  0
 29 30  2  0  0  0
 30 32  1  0  0  0
 30 31  1  0  0  0
 32 33  1  0  0  0
 32 34  1  0  0  0
 32 35  1  0  0  0
 12 13  1  0  0  0
 22 23  1  0  0  0
M  END
> <minimizedAffinity>
-10.47359

$$$$
