CHEMBL3975986


 33 37  0  0  0  0  0  0  0  0999 V2000
  -28.7547   -8.1270   -5.8194 N   0  0  0  0  0  0  0  0  0  0  0  0
  -28.7266   -6.6475   -5.6543 C   0  0  0  0  0  0  0  0  0  0  0  0
  -27.7919   -6.2689   -4.6903 C   0  0  0  0  0  0  0  0  0  0  0  0
  -27.7319   -5.0540   -4.1487 C   0  0  0  0  0  0  0  0  0  0  0  0
  -28.5251   -4.0667   -4.5600 C   0  0  0  0  0  0  0  0  0  0  0  0
  -28.4612   -2.9745   -3.8212 N   0  0  0  0  0  0  0  0  0  0  0  0
  -29.0846   -1.8664   -4.1472 C   0  0  0  0  0  0  0  0  0  0  0  0
  -29.7262   -1.7506   -5.3788 C   0  0  0  0  0  0  0  0  0  0  0  0
  -29.9396   -2.9402   -6.1198 N   0  0  0  0  0  0  0  0  0  0  0  0
  -29.3679   -4.1603   -5.6791 C   0  0  0  0  0  0  0  0  0  0  0  0
  -29.5164   -5.5239   -6.2400 C   0  0  0  0  0  0  0  0  0  0  0  0
  -29.8631   -0.2601   -5.7829 C   0  0  0  0  0  0  0  0  0  0  0  0
  -28.7887    0.4664   -6.3627 C   0  0  0  0  0  0  0  0  0  0  0  0
  -29.1911    1.6536   -6.7976 N   0  0  0  0  0  0  0  0  0  0  0  0
  -30.4708    1.7629   -6.5318 N   0  0  0  0  0  0  0  0  0  0  0  0
  -31.2121    2.9272   -7.0027 C   0  0  0  0  0  0  0  0  0  0  0  0
  -30.9286    0.6466   -5.8881 C   0  0  0  0  0  0  0  0  0  0  0  0
  -29.2582   -9.9370   -9.1637 C   0  0  0  0  0  0  0  0  0  0  0  0
  -30.5156  -10.4949   -8.9433 C   0  0  0  0  0  0  0  0  0  0  0  0
  -31.2183  -10.2373   -7.7703 C   0  0  0  0  0  0  0  0  0  0  0  0
  -30.6465   -9.4300   -6.7672 C   0  0  0  0  0  0  0  0  0  0  0  0
  -29.3593   -8.9105   -6.8911 C   0  0  0  0  0  0  0  0  0  0  0  0
  -28.6761   -9.1563   -8.1337 C   0  0  0  0  0  0  0  0  0  0  0  0
  -32.4489  -10.7859   -7.6335 O   0  0  0  0  0  0  0  0  0  0  0  0
  -32.9243  -11.3435   -6.4683 C   0  0  0  0  0  0  0  0  0  0  0  0
  -28.5647  -10.1932  -10.4998 C   0  0  0  0  0  0  0  0  0  0  0  0
  -27.0261  -10.0826  -10.4023 C   0  0  0  0  0  0  0  0  0  0  0  0
  -27.3573   -9.3189  -12.5523 C   0  0  0  0  0  0  0  0  0  0  0  0
  -26.5343   -9.2213  -11.4081 O   0  0  0  0  0  0  0  0  0  0  0  0
  -28.2555   -8.8976   -4.6300 C   0  0  0  0  0  0  0  0  0  0  0  0
  -26.9425   -9.7200   -4.8625 C   0  0  0  0  0  0  0  0  0  0  0  0
  -26.3975  -10.3351   -3.5591 C   0  0  0  0  0  0  0  0  0  0  0  0
  -25.6546   -9.1921   -4.1979 C   0  0  0  0  0  0  0  0  0  0  0  0
 28 29  1  0  0  0
 29 27  1  0  0  0
 27 26  1  0  0  0
 26 18  1  0  0  0
 18 19  1  0  0  0
 18 23  2  0  0  0
 19 20  2  0  0  0
 20 24  1  0  0  0
 20 21  1  0  0  0
 24 25  1  0  0  0
 21 22  2  0  0  0
 22  1  1  0  0  0
 22 23  1  0  0  0
  1 30  1  0  0  0
  1  2  1  0  0  0
 30 31  1  0  0  0
 31 32  1  0  0  0
 31 33  1  0  0  0
 32 33  1  0  0  0
  2  3  1  0  0  0
  2 11  2  0  0  0
  3  4  2  0  0  0
  4  5  1  0  0  0
  5  6  1  0  0  0
  5 10  2  0  0  0
  6  7  2  0  0  0
  7  8  1  0  0  0
  8 12  1  0  0  0
  8  9  2  0  0  0
 12 13  1  0  0  0
 12 17  2  0  0  0
 13 14  2  0  0  0
 14 15  1  0  0  0
 15 16  1  0  0  0
 15 17  1  0  0  0
  9 10  1  0  0  0
 10 11  1  0  0  0
M  END
> <minimizedAffinity>
-7.25924

$$$$
