CHEMBL3648104


 28 29  0  0  0  0  0  0  0  0999 V2000
  -14.6942    1.2501  -14.9976 C   0  0  0  0  0  0  0  0  0  0  0  0
  -16.0173    1.4063  -15.2691 N   0  0  0  0  0  0  0  0  0  0  0  0
  -16.4065    2.6071  -15.7343 C   0  0  0  0  0  0  0  0  0  0  0  0
  -15.5656    3.6477  -15.8727 N   0  0  0  0  0  0  0  0  0  0  0  0
  -14.2826    3.4785  -15.5227 C   0  0  0  0  0  0  0  0  0  0  0  0
  -13.7776    2.2874  -15.0773 C   0  0  0  0  0  0  0  0  0  0  0  0
  -11.9414    2.1791  -14.6439 Br  0  0  0  0  0  0  0  0  0  0  0  0
  -17.7434    2.8049  -16.0848 N   0  0  0  0  0  0  0  0  0  0  0  0
  -17.8627    3.3472  -16.9245 H   0  0  0  0  0  0  0  0  0  0  0  0
  -18.8784    2.3590  -15.3887 C   0  0  0  0  0  0  0  0  0  0  0  0
  -19.2258    0.9984  -15.3727 C   0  0  0  0  0  0  0  0  0  0  0  0
  -20.4268    0.5512  -14.8177 C   0  0  0  0  0  0  0  0  0  0  0  0
  -21.3153    1.4733  -14.2732 C   0  0  0  0  0  0  0  0  0  0  0  0
  -20.9844    2.8369  -14.2445 C   0  0  0  0  0  0  0  0  0  0  0  0
  -19.7668    3.2685  -14.7971 C   0  0  0  0  0  0  0  0  0  0  0  0
  -22.9121    0.8980  -13.7194 S   0  0  0  0  0  0  0  0  0  0  0  0
  -22.5617   -0.0023  -12.2313 C   0  0  0  0  0  0  0  0  0  0  0  0
  -23.7114    2.1623  -13.3469 N   0  0  0  0  0  0  0  0  0  0  0  0
  -23.3624   -0.0932  -14.6793 O   0  0  0  0  0  0  0  0  0  0  0  0
  -23.3507    2.6554  -12.5311 H   0  0  0  0  0  0  0  0  0  0  0  0
  -14.1082   -0.4304  -14.7676 S   0  0  0  0  0  0  0  0  0  0  0  0
  -15.6782   -0.4679  -12.4591 C   0  0  0  0  0  0  0  0  0  0  0  0
  -15.4329   -1.2371  -13.7577 C   0  0  0  0  0  0  0  0  0  0  0  0
  -15.0298   -2.7356  -13.5189 C   0  0  0  0  0  0  0  0  0  0  0  0
  -13.8914   -2.9396  -12.5044 C   0  0  0  0  0  0  0  0  0  0  0  0
  -16.2309   -3.5845  -13.0806 C   0  0  0  0  0  0  0  0  0  0  0  0
  -14.5980   -3.3110  -14.7666 O   0  0  0  0  0  0  0  0  0  0  0  0
  -13.8997   -2.7229  -15.1158 H   0  0  0  0  0  0  0  0  0  0  0  0
 22 23  1  0  0  0
 23 21  1  0  0  0
 23 24  1  0  0  0
 21  1  1  0  0  0
  1  2  1  0  0  0
  1  6  2  0  0  0
  2  3  2  0  0  0
  3  8  1  0  0  0
  3  4  1  0  0  0
  8 10  1  0  0  0
  8  9  1  0  0  0
 10 11  1  0  0  0
 10 15  2  0  0  0
 11 12  2  0  0  0
 12 13  1  0  0  0
 13 16  1  0  0  0
 13 14  2  0  0  0
 16 17  1  0  0  0
 16 18  2  0  0  0
 16 19  2  0  0  0
 18 20  1  0  0  0
 14 15  1  0  0  0
  4  5  2  0  0  0
  5  6  1  0  0  0
  6  7  1  0  0  0
 24 25  1  0  0  0
 24 26  1  0  0  0
 24 27  1  0  0  0
 27 28  1  0  0  0
M  END
> <minimizedAffinity>
-7.10483

$$$$
