CHEMBL3686064


 38 41  0  0  0  0  0  0  0  0999 V2000
  -23.2089    0.3203  -13.7974 C   0  0  0  0  0  0  0  0  0  0  0  0
  -22.0516   -0.4047  -14.3435 C   0  0  0  0  0  0  0  0  0  0  0  0
  -21.0345    0.2616  -14.9074 C   0  0  0  0  0  0  0  0  0  0  0  0
  -20.9449    1.6352  -14.7146 N   0  0  0  0  0  0  0  0  0  0  0  0
  -19.8551    2.4815  -14.8524 C   0  0  0  0  0  0  0  0  0  0  0  0
  -20.3574    3.7202  -14.4766 C   0  0  0  0  0  0  0  0  0  0  0  0
  -21.6589    3.6495  -14.0536 N   0  0  0  0  0  0  0  0  0  0  0  0
  -21.9731    2.3763  -14.1392 C   0  0  0  0  0  0  0  0  0  0  0  0
  -23.1452    1.6743  -13.7254 C   0  0  0  0  0  0  0  0  0  0  0  0
  -18.4665    2.1039  -15.1665 C   0  0  0  0  0  0  0  0  0  0  0  0
  -17.6506    3.0280  -15.8274 C   0  0  0  0  0  0  0  0  0  0  0  0
  -16.3095    2.7461  -16.0633 C   0  0  0  0  0  0  0  0  0  0  0  0
  -15.7585    1.5382  -15.6327 C   0  0  0  0  0  0  0  0  0  0  0  0
  -16.5321    0.5913  -14.9627 C   0  0  0  0  0  0  0  0  0  0  0  0
  -17.8893    0.8866  -14.7355 C   0  0  0  0  0  0  0  0  0  0  0  0
  -16.0118   -0.6483  -14.5049 N   0  0  0  0  0  0  0  0  0  0  0  0
  -15.6224   -0.9483  -13.2179 C   0  0  0  0  0  0  0  0  0  0  0  0
  -15.6718   -0.2131  -12.2466 O   0  0  0  0  0  0  0  0  0  0  0  0
  -15.0998   -2.2179  -13.1085 N   0  0  0  0  0  0  0  0  0  0  0  0
  -15.9252   -1.3832  -15.1908 H   0  0  0  0  0  0  0  0  0  0  0  0
  -15.4763   -2.9143  -13.7351 H   0  0  0  0  0  0  0  0  0  0  0  0
  -14.6548   -2.6813  -11.7866 C   0  0  0  0  0  0  0  0  0  0  0  0
  -15.7258   -3.3542  -10.9180 C   0  0  0  0  0  0  0  0  0  0  0  0
  -16.7602   -3.8161  -11.6584 F   0  0  0  0  0  0  0  0  0  0  0  0
  -15.1937   -4.4280  -10.2810 F   0  0  0  0  0  0  0  0  0  0  0  0
  -16.2172   -2.5304   -9.9710 F   0  0  0  0  0  0  0  0  0  0  0  0
  -26.1960   -1.1163  -12.3778 N   0  0  0  0  0  0  0  0  0  0  0  0
  -25.2606   -0.1145  -12.4128 C   0  0  0  0  0  0  0  0  0  0  0  0
  -24.3860   -0.4215  -13.4359 C   0  0  0  0  0  0  0  0  0  0  0  0
  -24.9112   -1.6076  -13.9876 C   0  0  0  0  0  0  0  0  0  0  0  0
  -26.0519   -1.9847  -13.4008 N   0  0  0  0  0  0  0  0  0  0  0  0
  -28.4891   -1.9904  -12.1578 C   0  0  0  0  0  0  0  0  0  0  0  0
  -27.3408   -1.2315  -11.4651 C   0  0  0  0  0  0  0  0  0  0  0  0
  -27.8959    0.1381  -11.0150 C   0  0  0  0  0  0  0  0  0  0  0  0
  -26.8862   -1.9742  -10.2098 C   0  0  0  0  0  0  0  0  0  0  0  0
  -26.7558   -1.4533   -9.1091 O   0  0  0  0  0  0  0  0  0  0  0  0
  -26.6057   -3.2902  -10.3979 O   0  0  0  0  0  0  0  0  0  0  0  0
  -26.7671   -3.6145  -11.3118 H   0  0  0  0  0  0  0  0  0  0  0  0
 32 33  1  0  0  0
 33 34  1  0  0  0
 33 35  1  0  0  0
 33 27  1  0  0  0
 35 36  2  0  0  0
 35 37  1  0  0  0
 37 38  1  0  0  0
 27 28  1  0  0  0
 27 31  1  0  0  0
 28 29  2  0  0  0
 29  1  1  0  0  0
 29 30  1  0  0  0
  1  2  1  0  0  0
  1  9  2  0  0  0
  2  3  2  0  0  0
  3  4  1  0  0  0
  4  5  1  0  0  0
  4  8  1  0  0  0
  5 10  1  0  0  0
  5  6  2  0  0  0
 10 11  1  0  0  0
 10 15  2  0  0  0
 11 12  2  0  0  0
 12 13  1  0  0  0
 13 14  2  0  0  0
 14 16  1  0  0  0
 14 15  1  0  0  0
 16 17  1  0  0  0
 16 20  1  0  0  0
 17 18  2  0  0  0
 17 19  1  0  0  0
 19 22  1  0  0  0
 19 21  1  0  0  0
 22 23  1  0  0  0
 23 24  1  0  0  0
 23 25  1  0  0  0
 23 26  1  0  0  0
  6  7  1  0  0  0
  7  8  2  0  0  0
  8  9  1  0  0  0
 30 31  2  0  0  0
M  END
> <minimizedAffinity>
-9.92763

$$$$
