CHEMBL243909


 37 40  0  0  0  0  0  0  0  0999 V2000
  -17.3000    1.6133  -15.0623 C   0  0  0  0  0  0  0  0  0  0  0  0
  -16.2811    1.2096  -15.9176 C   0  0  0  0  0  0  0  0  0  0  0  0
  -15.2075    0.4578  -15.4235 C   0  0  0  0  0  0  0  0  0  0  0  0
  -15.1320    0.0863  -14.0759 C   0  0  0  0  0  0  0  0  0  0  0  0
  -16.1172    0.5695  -13.2070 C   0  0  0  0  0  0  0  0  0  0  0  0
  -17.1721    1.3543  -13.6934 C   0  0  0  0  0  0  0  0  0  0  0  0
  -14.1242   -0.7649  -13.5505 N   0  0  0  0  0  0  0  0  0  0  0  0
  -14.3073   -2.0773  -13.1627 C   0  0  0  0  0  0  0  0  0  0  0  0
  -15.3625   -2.7039  -13.2639 O   0  0  0  0  0  0  0  0  0  0  0  0
  -13.1670   -2.6502  -12.6142 N   0  0  0  0  0  0  0  0  0  0  0  0
  -13.1917   -0.3894  -13.4841 H   0  0  0  0  0  0  0  0  0  0  0  0
  -12.6558   -2.0355  -11.9923 H   0  0  0  0  0  0  0  0  0  0  0  0
  -13.2487   -4.0047  -12.1767 C   0  0  0  0  0  0  0  0  0  0  0  0
  -12.9775   -5.0648  -13.0494 C   0  0  0  0  0  0  0  0  0  0  0  0
  -13.1586   -6.3764  -12.6192 C   0  0  0  0  0  0  0  0  0  0  0  0
  -12.9021   -7.3884  -13.4583 F   0  0  0  0  0  0  0  0  0  0  0  0
  -13.6159   -6.6555  -11.3345 C   0  0  0  0  0  0  0  0  0  0  0  0
  -13.8768   -5.6035  -10.4557 C   0  0  0  0  0  0  0  0  0  0  0  0
  -13.6720   -4.2881  -10.8748 C   0  0  0  0  0  0  0  0  0  0  0  0
  -13.9626   -3.2824  -10.0359 F   0  0  0  0  0  0  0  0  0  0  0  0
  -18.3679    2.2679  -15.6373 O   0  0  0  0  0  0  0  0  0  0  0  0
  -23.4538    0.1168  -13.7477 C   0  0  0  0  0  0  0  0  0  0  0  0
  -23.4417    1.4234  -13.6704 N   0  0  0  0  0  0  0  0  0  0  0  0
  -22.1908    1.8146  -14.0492 C   0  0  0  0  0  0  0  0  0  0  0  0
  -21.6550    3.1028  -14.1237 C   0  0  0  0  0  0  0  0  0  0  0  0
  -20.3496    3.2556  -14.5952 C   0  0  0  0  0  0  0  0  0  0  0  0
  -19.6162    2.1513  -15.0528 C   0  0  0  0  0  0  0  0  0  0  0  0
  -20.1134    0.8440  -14.9126 C   0  0  0  0  0  0  0  0  0  0  0  0
  -21.4113    0.7186  -14.4032 C   0  0  0  0  0  0  0  0  0  0  0  0
  -22.2245   -0.3589  -14.1391 N   0  0  0  0  0  0  0  0  0  0  0  0
  -21.9836   -1.3261  -14.2771 H   0  0  0  0  0  0  0  0  0  0  0  0
  -25.2732   -1.2394  -14.4890 C   0  0  0  0  0  0  0  0  0  0  0  0
  -25.1173   -1.1291  -15.6937 O   0  0  0  0  0  0  0  0  0  0  0  0
  -24.5080   -0.7160  -13.4791 N   0  0  0  0  0  0  0  0  0  0  0  0
  -24.7168   -1.0279  -12.5456 H   0  0  0  0  0  0  0  0  0  0  0  0
  -26.5811   -1.6051  -12.5876 C   0  0  0  0  0  0  0  0  0  0  0  0
  -26.2639   -1.9922  -13.9293 O   0  0  0  0  0  0  0  0  0  0  0  0
 36 37  1  0  0  0
 37 32  1  0  0  0
 32 33  2  0  0  0
 32 34  1  0  0  0
 34 22  1  0  0  0
 34 35  1  0  0  0
 22 23  2  0  0  0
 22 30  1  0  0  0
 23 24  1  0  0  0
 24 25  1  0  0  0
 24 29  2  0  0  0
 25 26  2  0  0  0
 26 27  1  0  0  0
 27 21  1  0  0  0
 27 28  2  0  0  0
 21  1  1  0  0  0
  1  2  1  0  0  0
  1  6  2  0  0  0
  2  3  2  0  0  0
  3  4  1  0  0  0
  4  7  1  0  0  0
  4  5  2  0  0  0
  7  8  1  0  0  0
  7 11  1  0  0  0
  8  9  2  0  0  0
  8 10  1  0  0  0
 10 13  1  0  0  0
 10 12  1  0  0  0
 13 14  1  0  0  0
 13 19  2  0  0  0
 14 15  2  0  0  0
 15 16  1  0  0  0
 15 17  1  0  0  0
 17 18  2  0  0  0
 18 19  1  0  0  0
 19 20  1  0  0  0
  5  6  1  0  0  0
 28 29  1  0  0  0
 29 30  1  0  0  0
 30 31  1  0  0  0
M  END
> <minimizedAffinity>
-9.67507

$$$$
