CHEMBL3970430


 40 44  0  0  0  0  0  0  0  0999 V2000
  -15.2907    3.6136  -15.9419 C   0  0  0  0  0  0  0  0  0  0  0  0
  -15.1127    2.4416  -15.2500 C   0  0  0  0  0  0  0  0  0  0  0  0
  -16.1727    1.5938  -15.1018 C   0  0  0  0  0  0  0  0  0  0  0  0
  -17.4545    1.9292  -15.3761 C   0  0  0  0  0  0  0  0  0  0  0  0
  -18.1192    0.7844  -15.4258 N   0  0  0  0  0  0  0  0  0  0  0  0
  -19.4166    0.8285  -15.2181 C   0  0  0  0  0  0  0  0  0  0  0  0
  -20.1159    1.9630  -14.8992 C   0  0  0  0  0  0  0  0  0  0  0  0
  -19.4550    3.2003  -15.1331 N   0  0  0  0  0  0  0  0  0  0  0  0
  -17.9480    3.2228  -15.5044 C   0  0  0  0  0  0  0  0  0  0  0  0
  -16.6929    4.0821  -15.9392 C   0  0  0  0  0  0  0  0  0  0  0  0
  -21.4214    1.5546  -14.2014 C   0  0  0  0  0  0  0  0  0  0  0  0
  -22.5701    2.1726  -13.6422 C   0  0  0  0  0  0  0  0  0  0  0  0
  -23.6286    1.3686  -13.4827 N   0  0  0  0  0  0  0  0  0  0  0  0
  -23.2073    0.1659  -13.9122 N   0  0  0  0  0  0  0  0  0  0  0  0
  -21.9095    0.2318  -14.3389 C   0  0  0  0  0  0  0  0  0  0  0  0
  -24.1277   -0.9654  -14.0461 C   0  0  0  0  0  0  0  0  0  0  0  0
  -24.4301   -1.7736  -12.7891 C   0  0  0  0  0  0  0  0  0  0  0  0
  -26.0537   -1.5160  -12.1105 S   0  0  0  0  0  0  0  0  0  0  0  0
  -27.1786   -1.9678  -13.4102 C   0  0  0  0  0  0  0  0  0  0  0  0
  -26.2223   -2.4930  -11.0504 O   0  0  0  0  0  0  0  0  0  0  0  0
  -26.2189   -0.1073  -11.8254 O   0  0  0  0  0  0  0  0  0  0  0  0
  -14.1202    4.0573  -16.6982 N   0  0  0  0  0  0  0  0  0  0  0  0
  -14.6807    6.3548  -19.6352 C   0  0  0  0  0  0  0  0  0  0  0  0
  -13.7302    7.3447  -19.3689 C   0  0  0  0  0  0  0  0  0  0  0  0
  -12.8880    7.2207  -18.2744 C   0  0  0  0  0  0  0  0  0  0  0  0
  -12.9841    6.0806  -17.4710 C   0  0  0  0  0  0  0  0  0  0  0  0
  -13.9586    5.0808  -17.6654 C   0  0  0  0  0  0  0  0  0  0  0  0
  -14.7912    5.2299  -18.7845 C   0  0  0  0  0  0  0  0  0  0  0  0
  -15.9131    7.7175  -21.1587 C   0  0  0  0  0  0  0  0  0  0  0  0
  -15.5673    6.4134  -20.6853 O   0  0  0  0  0  0  0  0  0  0  0  0
  -11.9583    8.1419  -17.8713 O   0  0  0  0  0  0  0  0  0  0  0  0
  -11.0068    7.7133  -16.9035 C   0  0  0  0  0  0  0  0  0  0  0  0
  -12.7880    3.4977  -16.1144 C   0  0  0  0  0  0  0  0  0  0  0  0
  -11.8401    2.4550  -16.7988 C   0  0  0  0  0  0  0  0  0  0  0  0
  -11.5133    2.5225  -18.3134 C   0  0  0  0  0  0  0  0  0  0  0  0
  -11.9163    1.2666  -19.0022 N   0  0  0  0  0  0  0  0  0  0  0  0
  -13.0330    1.3677  -19.9509 C   0  0  0  0  0  0  0  0  0  0  0  0
  -14.2193    0.6964  -19.2858 C   0  0  0  0  0  0  0  0  0  0  0  0
  -13.5732   -0.4272  -18.5095 C   0  0  0  0  0  0  0  0  0  0  0  0
  -12.2154    0.1408  -18.0990 C   0  0  0  0  0  0  0  0  0  0  0  0
 29 30  1  0  0  0
 30 23  1  0  0  0
 23 24  1  0  0  0
 23 28  2  0  0  0
 24 25  2  0  0  0
 25 31  1  0  0  0
 25 26  1  0  0  0
 31 32  1  0  0  0
 26 27  2  0  0  0
 27 22  1  0  0  0
 27 28  1  0  0  0
 22 33  1  0  0  0
 22  1  1  0  0  0
 33 34  1  0  0  0
 34 35  1  0  0  0
 35 36  1  0  0  0
 36 37  1  0  0  0
 36 40  1  0  0  0
 37 38  1  0  0  0
 38 39  1  0  0  0
 39 40  1  0  0  0
  1  2  1  0  0  0
  1 10  2  0  0  0
  2  3  2  0  0  0
  3  4  1  0  0  0
  4  5  1  0  0  0
  4  9  2  0  0  0
  5  6  2  0  0  0
  6  7  1  0  0  0
  7 11  1  0  0  0
  7  8  2  0  0  0
 11 12  1  0  0  0
 11 15  2  0  0  0
 12 13  2  0  0  0
 13 14  1  0  0  0
 14 16  1  0  0  0
 14 15  1  0  0  0
 16 17  1  0  0  0
 17 18  1  0  0  0
 18 19  1  0  0  0
 18 20  2  0  0  0
 18 21  2  0  0  0
  8  9  1  0  0  0
  9 10  1  0  0  0
M  END
> <minimizedAffinity>
-7.17029

$$$$
