CHEMBL1985311


 35 38  0  0  0  0  0  0  0  0999 V2000
  -29.4309   -8.6516   -7.1032 C   0  0  0  0  0  0  0  0  0  0  0  0
  -28.5180   -8.2329   -6.1373 C   0  0  0  0  0  0  0  0  0  0  0  0
  -28.6635   -7.0166   -5.4700 C   0  0  0  0  0  0  0  0  0  0  0  0
  -29.7856   -6.2106   -5.6567 C   0  0  0  0  0  0  0  0  0  0  0  0
  -30.7676   -6.6590   -6.5416 C   0  0  0  0  0  0  0  0  0  0  0  0
  -30.5815   -7.8542   -7.2656 C   0  0  0  0  0  0  0  0  0  0  0  0
  -27.1075   -7.7865   -9.4430 N   0  0  0  0  0  0  0  0  0  0  0  0
  -27.3550   -9.0825   -9.6778 C   0  0  0  0  0  0  0  0  0  0  0  0
  -26.7005   -9.7067  -10.6524 N   0  0  0  0  0  0  0  0  0  0  0  0
  -27.1792  -10.9496  -10.6125 N   0  0  0  0  0  0  0  0  0  0  0  0
  -28.1188  -11.1656   -9.6430 C   0  0  0  0  0  0  0  0  0  0  0  0
  -28.8180  -12.3319   -9.3202 C   0  0  0  0  0  0  0  0  0  0  0  0
  -29.7101  -12.2646   -8.2585 C   0  0  0  0  0  0  0  0  0  0  0  0
  -29.8931  -11.0749   -7.5565 C   0  0  0  0  0  0  0  0  0  0  0  0
  -29.1988   -9.8833   -7.8847 C   0  0  0  0  0  0  0  0  0  0  0  0
  -28.2726   -9.9452   -8.9765 C   0  0  0  0  0  0  0  0  0  0  0  0
  -26.5117   -7.3113  -10.1111 H   0  0  0  0  0  0  0  0  0  0  0  0
  -27.7979   -7.1859   -9.0115 H   0  0  0  0  0  0  0  0  0  0  0  0
  -26.8153  -11.6207  -11.2775 H   0  0  0  0  0  0  0  0  0  0  0  0
  -29.9733   -4.9910   -4.9643 N   0  0  0  0  0  0  0  0  0  0  0  0
  -29.6200   -3.7452   -5.4555 C   0  0  0  0  0  0  0  0  0  0  0  0
  -29.2068   -3.5288   -6.5896 O   0  0  0  0  0  0  0  0  0  0  0  0
  -29.7479   -2.7371   -4.5083 N   0  0  0  0  0  0  0  0  0  0  0  0
  -30.5336   -5.0074   -4.1235 H   0  0  0  0  0  0  0  0  0  0  0  0
  -29.4586   -3.0063   -3.5780 H   0  0  0  0  0  0  0  0  0  0  0  0
  -29.3745   -1.4160   -4.8916 C   0  0  0  0  0  0  0  0  0  0  0  0
  -30.3417   -0.4639   -5.2379 C   0  0  0  0  0  0  0  0  0  0  0  0
  -29.9719    0.7785   -5.7896 C   0  0  0  0  0  0  0  0  0  0  0  0
  -28.6071    1.0658   -5.9266 C   0  0  0  0  0  0  0  0  0  0  0  0
  -27.6385    0.1359   -5.5410 C   0  0  0  0  0  0  0  0  0  0  0  0
  -28.0287   -1.0935   -5.0105 C   0  0  0  0  0  0  0  0  0  0  0  0
  -27.0901   -1.9985   -4.6954 F   0  0  0  0  0  0  0  0  0  0  0  0
  -31.0102    1.8042   -6.1613 C   0  0  0  0  0  0  0  0  0  0  0  0
  -30.8674    2.2710   -7.4972 O   0  0  0  0  0  0  0  0  0  0  0  0
  -29.9195    2.4404   -7.6464 H   0  0  0  0  0  0  0  0  0  0  0  0
  7  8  1  0  0  0
  7 17  1  0  0  0
  7 18  1  0  0  0
  8  9  2  0  0  0
  8 16  1  0  0  0
  9 10  1  0  0  0
 10 11  1  0  0  0
 10 19  1  0  0  0
 11 12  1  0  0  0
 11 16  2  0  0  0
 12 13  2  0  0  0
 13 14  1  0  0  0
 14 15  2  0  0  0
 15  1  1  0  0  0
 15 16  1  0  0  0
  1  2  1  0  0  0
  1  6  2  0  0  0
  2  3  2  0  0  0
  3  4  1  0  0  0
  4 20  1  0  0  0
  4  5  2  0  0  0
 20 21  1  0  0  0
 20 24  1  0  0  0
 21 22  2  0  0  0
 21 23  1  0  0  0
 23 26  1  0  0  0
 23 25  1  0  0  0
 26 27  1  0  0  0
 26 31  2  0  0  0
 27 28  2  0  0  0
 28 33  1  0  0  0
 28 29  1  0  0  0
 33 34  1  0  0  0
 34 35  1  0  0  0
 29 30  2  0  0  0
 30 31  1  0  0  0
 31 32  1  0  0  0
  5  6  1  0  0  0
M  END
> <minimizedAffinity>
-9.31234

$$$$
