CHEMBL3899216


 29 32  0  0  0  0  0  0  0  0999 V2000
  -28.6680   -3.3270   -5.9111 C   0  0  0  0  0  0  0  0  0  0  0  0
  -28.2363   -2.0121   -6.1058 C   0  0  0  0  0  0  0  0  0  0  0  0
  -27.9611   -1.5497   -7.4034 C   0  0  0  0  0  0  0  0  0  0  0  0
  -28.0695   -2.3954   -8.5151 C   0  0  0  0  0  0  0  0  0  0  0  0
  -28.5060   -3.7140   -8.2915 C   0  0  0  0  0  0  0  0  0  0  0  0
  -28.7960   -4.1849   -7.0036 C   0  0  0  0  0  0  0  0  0  0  0  0
  -28.9547   -3.9348   -4.2576 S   0  0  0  0  0  0  0  0  0  0  0  0
  -29.7202   -2.9128   -3.5754 O   0  0  0  0  0  0  0  0  0  0  0  0
  -27.6952   -4.4098   -3.7232 O   0  0  0  0  0  0  0  0  0  0  0  0
  -29.9860   -5.2575   -4.4508 N   0  0  0  0  0  0  0  0  0  0  0  0
  -30.4741   -5.1860   -5.3394 H   0  0  0  0  0  0  0  0  0  0  0  0
  -27.4838   -9.5666   -4.4064 C   0  0  0  0  0  0  0  0  0  0  0  0
  -28.3456   -8.3870   -4.2133 C   0  0  0  0  0  0  0  0  0  0  0  0
  -28.6135   -7.2656   -4.9586 C   0  0  0  0  0  0  0  0  0  0  0  0
  -29.5084   -6.5264   -4.1614 C   0  0  0  0  0  0  0  0  0  0  0  0
  -29.7401   -7.1231   -2.9925 N   0  0  0  0  0  0  0  0  0  0  0  0
  -29.0406   -8.3213   -3.0442 O   0  0  0  0  0  0  0  0  0  0  0  0
  -27.9217   -1.9548   -9.8466 N   0  0  0  0  0  0  0  0  0  0  0  0
  -28.6913   -2.2347  -10.4434 H   0  0  0  0  0  0  0  0  0  0  0  0
  -26.7533   -1.7664  -10.6373 C   0  0  0  0  0  0  0  0  0  0  0  0
  -25.5561   -1.5378  -10.0503 N   0  0  0  0  0  0  0  0  0  0  0  0
  -24.4237   -1.3600  -10.8048 N   0  0  0  0  0  0  0  0  0  0  0  0
  -24.5200   -1.3741  -12.1427 C   0  0  0  0  0  0  0  0  0  0  0  0
  -25.7166   -1.5632  -12.8182 C   0  0  0  0  0  0  0  0  0  0  0  0
  -25.7873   -1.5042  -14.2280 C   0  0  0  0  0  0  0  0  0  0  0  0
  -27.0025   -1.6980  -14.8825 C   0  0  0  0  0  0  0  0  0  0  0  0
  -28.1469   -1.9822  -14.1478 C   0  0  0  0  0  0  0  0  0  0  0  0
  -28.0846   -2.0335  -12.7515 C   0  0  0  0  0  0  0  0  0  0  0  0
  -26.8747   -1.8036  -12.0485 C   0  0  0  0  0  0  0  0  0  0  0  0
 12 13  1  0  0  0
 13 14  2  0  0  0
 13 17  1  0  0  0
 14 15  1  0  0  0
 15 10  1  0  0  0
 15 16  2  0  0  0
 10  7  1  0  0  0
 10 11  1  0  0  0
  7  8  2  0  0  0
  7  9  2  0  0  0
  7  1  1  0  0  0
  1  2  1  0  0  0
  1  6  2  0  0  0
  2  3  2  0  0  0
  3  4  1  0  0  0
  4 18  1  0  0  0
  4  5  2  0  0  0
 18 20  1  0  0  0
 18 19  1  0  0  0
 20 21  1  0  0  0
 20 29  2  0  0  0
 21 22  2  0  0  0
 22 23  1  0  0  0
 23 24  2  0  0  0
 24 25  1  0  0  0
 24 29  1  0  0  0
 25 26  2  0  0  0
 26 27  1  0  0  0
 27 28  2  0  0  0
 28 29  1  0  0  0
  5  6  1  0  0  0
 16 17  1  0  0  0
M  END
> <minimizedAffinity>
-9.20186

$$$$
