CHEMBL3690545


 43 47  0  0  0  0  0  0  0  0999 V2000
  -27.5272   -1.9338   -9.6589 C   0  0  0  0  0  0  0  0  0  0  0  0
  -28.2019   -3.1384   -9.1648 C   0  0  0  0  0  0  0  0  0  0  0  0
  -28.5973   -3.2149   -7.8812 C   0  0  0  0  0  0  0  0  0  0  0  0
  -28.3904   -2.1319   -7.0243 N   0  0  0  0  0  0  0  0  0  0  0  0
  -28.7191   -1.9305   -5.6870 C   0  0  0  0  0  0  0  0  0  0  0  0
  -28.1923   -0.6746   -5.4032 C   0  0  0  0  0  0  0  0  0  0  0  0
  -27.5994   -0.0976   -6.4871 N   0  0  0  0  0  0  0  0  0  0  0  0
  -27.7422   -0.9758   -7.4476 C   0  0  0  0  0  0  0  0  0  0  0  0
  -27.3263   -0.9000   -8.8042 C   0  0  0  0  0  0  0  0  0  0  0  0
  -28.4741   -2.4291  -14.3838 C   0  0  0  0  0  0  0  0  0  0  0  0
  -27.5225   -2.0242  -13.3002 C   0  0  0  0  0  0  0  0  0  0  0  0
  -27.9392   -2.1743  -12.0292 N   0  0  0  0  0  0  0  0  0  0  0  0
  -27.0783   -1.7976  -11.0691 C   0  0  0  0  0  0  0  0  0  0  0  0
  -25.8298   -1.3089  -11.3741 C   0  0  0  0  0  0  0  0  0  0  0  0
  -25.4966   -1.1357  -12.7014 C   0  0  0  0  0  0  0  0  0  0  0  0
  -26.3287   -1.5189  -13.6786 N   0  0  0  0  0  0  0  0  0  0  0  0
  -24.2567   -0.5790  -12.9727 N   0  0  0  0  0  0  0  0  0  0  0  0
  -23.8122   -0.4221  -14.3569 C   0  0  0  0  0  0  0  0  0  0  0  0
  -22.2554   -0.3145  -14.3435 C   0  0  0  0  0  0  0  0  0  0  0  0
  -21.6784    0.7241  -13.4315 N   0  0  0  0  0  0  0  0  0  0  0  0
  -22.2856    0.5490  -12.0882 C   0  0  0  0  0  0  0  0  0  0  0  0
  -23.8273    0.5115  -12.0853 C   0  0  0  0  0  0  0  0  0  0  0  0
  -21.9014    2.0746  -13.9934 C   0  0  0  0  0  0  0  0  0  0  0  0
  -20.7383    2.5872  -14.8609 C   0  0  0  0  0  0  0  0  0  0  0  0
  -20.1882    3.7818  -14.3165 O   0  0  0  0  0  0  0  0  0  0  0  0
  -20.9547    4.3172  -14.0326 H   0  0  0  0  0  0  0  0  0  0  0  0
  -29.4196   -2.8397   -4.7712 C   0  0  0  0  0  0  0  0  0  0  0  0
  -30.0222   -2.2921   -3.6288 C   0  0  0  0  0  0  0  0  0  0  0  0
  -30.7455   -3.0877   -2.7502 C   0  0  0  0  0  0  0  0  0  0  0  0
  -30.8820   -4.4502   -3.0006 C   0  0  0  0  0  0  0  0  0  0  0  0
  -30.3200   -5.0297   -4.1388 C   0  0  0  0  0  0  0  0  0  0  0  0
  -29.5845   -4.2156   -5.0184 C   0  0  0  0  0  0  0  0  0  0  0  0
  -30.4669   -6.4058   -4.4530 N   0  0  0  0  0  0  0  0  0  0  0  0
  -30.5725   -6.9385   -5.7187 C   0  0  0  0  0  0  0  0  0  0  0  0
  -30.5332   -6.3357   -6.7778 O   0  0  0  0  0  0  0  0  0  0  0  0
  -30.7839   -8.3011   -5.7061 N   0  0  0  0  0  0  0  0  0  0  0  0
  -30.4697   -7.0526   -3.6810 H   0  0  0  0  0  0  0  0  0  0  0  0
  -30.3773   -8.8208   -4.9415 H   0  0  0  0  0  0  0  0  0  0  0  0
  -30.8862   -8.9874   -7.0017 C   0  0  0  0  0  0  0  0  0  0  0  0
  -32.3082   -9.3080   -7.4901 C   0  0  0  0  0  0  0  0  0  0  0  0
  -33.1001   -8.2109   -7.5092 F   0  0  0  0  0  0  0  0  0  0  0  0
  -32.2601   -9.7749   -8.7640 F   0  0  0  0  0  0  0  0  0  0  0  0
  -32.9119  -10.2529   -6.7414 F   0  0  0  0  0  0  0  0  0  0  0  0
 10 11  1  0  0  0
 11 12  1  0  0  0
 11 16  2  0  0  0
 12 13  2  0  0  0
 13  1  1  0  0  0
 13 14  1  0  0  0
  1  2  1  0  0  0
  1  9  2  0  0  0
  2  3  2  0  0  0
  3  4  1  0  0  0
  4  5  1  0  0  0
  4  8  1  0  0  0
  5 27  1  0  0  0
  5  6  2  0  0  0
 27 28  1  0  0  0
 27 32  2  0  0  0
 28 29  2  0  0  0
 29 30  1  0  0  0
 30 31  2  0  0  0
 31 33  1  0  0  0
 31 32  1  0  0  0
 33 34  1  0  0  0
 33 37  1  0  0  0
 34 35  2  0  0  0
 34 36  1  0  0  0
 36 39  1  0  0  0
 36 38  1  0  0  0
 39 40  1  0  0  0
 40 41  1  0  0  0
 40 42  1  0  0  0
 40 43  1  0  0  0
  6  7  1  0  0  0
  7  8  2  0  0  0
  8  9  1  0  0  0
 14 15  2  0  0  0
 15 17  1  0  0  0
 15 16  1  0  0  0
 17 18  1  0  0  0
 17 22  1  0  0  0
 18 19  1  0  0  0
 19 20  1  0  0  0
 20 23  1  0  0  0
 20 21  1  0  0  0
 23 24  1  0  0  0
 24 25  1  0  0  0
 25 26  1  0  0  0
 21 22  1  0  0  0
M  END
> <minimizedAffinity>
-9.55208

$$$$
