CHEMBL202466


 28 30  0  0  0  0  0  0  0  0999 V2000
  -14.9657    0.6160  -12.7104 O   0  0  0  0  0  0  0  0  0  0  0  0
  -15.2055    0.3278  -13.8820 C   0  0  0  0  0  0  0  0  0  0  0  0
  -15.1148   -0.9796  -14.3532 N   0  0  0  0  0  0  0  0  0  0  0  0
  -15.0880   -1.1017  -15.3581 H   0  0  0  0  0  0  0  0  0  0  0  0
  -14.8533   -2.1011  -13.5288 C   0  0  0  0  0  0  0  0  0  0  0  0
  -13.6614   -2.2478  -12.8187 C   0  0  0  0  0  0  0  0  0  0  0  0
  -13.3966   -3.4046  -12.0881 C   0  0  0  0  0  0  0  0  0  0  0  0
  -14.3315   -4.4386  -12.0344 C   0  0  0  0  0  0  0  0  0  0  0  0
  -13.8716   -5.8340  -11.1366 Cl  0  0  0  0  0  0  0  0  0  0  0  0
  -15.5605   -4.3021  -12.6952 C   0  0  0  0  0  0  0  0  0  0  0  0
  -15.8140   -3.1097  -13.4246 C   0  0  0  0  0  0  0  0  0  0  0  0
  -16.6365   -5.3568  -12.6904 C   0  0  0  0  0  0  0  0  0  0  0  0
  -16.2404   -6.6355  -12.9169 F   0  0  0  0  0  0  0  0  0  0  0  0
  -17.3044   -5.3846  -11.5022 F   0  0  0  0  0  0  0  0  0  0  0  0
  -17.5892   -5.1024  -13.6339 F   0  0  0  0  0  0  0  0  0  0  0  0
  -15.5542    1.3657  -14.8405 C   0  0  0  0  0  0  0  0  0  0  0  0
  -14.4239    2.0793  -15.9149 S   0  0  0  0  0  0  0  0  0  0  0  0
  -15.6645    3.0810  -16.5410 C   0  0  0  0  0  0  0  0  0  0  0  0
  -16.8558    2.9230  -16.0124 N   0  0  0  0  0  0  0  0  0  0  0  0
  -16.8128    1.9321  -15.0402 C   0  0  0  0  0  0  0  0  0  0  0  0
  -18.0739    1.6035  -14.2841 C   0  0  0  0  0  0  0  0  0  0  0  0
  -19.1680    0.9467  -15.1247 C   0  0  0  0  0  0  0  0  0  0  0  0
  -20.5410    1.3862  -14.6698 C   0  0  0  0  0  0  0  0  0  0  0  0
  -20.8433    2.7424  -14.5246 C   0  0  0  0  0  0  0  0  0  0  0  0
  -22.1111    3.0989  -14.0883 C   0  0  0  0  0  0  0  0  0  0  0  0
  -23.0804    2.2104  -13.7828 N   0  0  0  0  0  0  0  0  0  0  0  0
  -22.7639    0.9049  -13.9142 C   0  0  0  0  0  0  0  0  0  0  0  0
  -21.5256    0.4489  -14.3437 C   0  0  0  0  0  0  0  0  0  0  0  0
  1  2  2  0  0  0
  2  3  1  0  0  0
  2 16  1  0  0  0
  3  5  1  0  0  0
  3  4  1  0  0  0
  5  6  1  0  0  0
  5 11  2  0  0  0
  6  7  2  0  0  0
  7  8  1  0  0  0
  8  9  1  0  0  0
  8 10  2  0  0  0
 10 12  1  0  0  0
 10 11  1  0  0  0
 12 13  1  0  0  0
 12 14  1  0  0  0
 12 15  1  0  0  0
 16 17  1  0  0  0
 16 20  2  0  0  0
 17 18  1  0  0  0
 18 19  2  0  0  0
 19 20  1  0  0  0
 20 21  1  0  0  0
 21 22  1  0  0  0
 22 23  1  0  0  0
 23 24  1  0  0  0
 23 28  2  0  0  0
 24 25  2  0  0  0
 25 26  1  0  0  0
 26 27  2  0  0  0
 27 28  1  0  0  0
M  END
> <minimizedAffinity>
-8.90769

$$$$
