CHEMBL1987334


 27 30  0  0  0  0  0  0  0  0999 V2000
  -12.7506   -3.6707   -9.1555 C   0  0  0  0  0  0  0  0  0  0  0  0
  -12.5870   -3.7012  -10.6910 C   0  0  0  0  0  0  0  0  0  0  0  0
  -11.1469   -3.2737  -11.0475 C   0  0  0  0  0  0  0  0  0  0  0  0
  -13.5786   -2.6481  -11.2974 C   0  0  0  0  0  0  0  0  0  0  0  0
  -14.5222   -3.1000  -12.3959 C   0  0  0  0  0  0  0  0  0  0  0  0
  -14.5973   -4.3883  -12.7768 C   0  0  0  0  0  0  0  0  0  0  0  0
  -13.7965   -5.4258  -12.2100 C   0  0  0  0  0  0  0  0  0  0  0  0
  -12.8667   -5.0957  -11.2398 C   0  0  0  0  0  0  0  0  0  0  0  0
  -12.0003   -6.4751  -10.7226 S   0  0  0  0  0  0  0  0  0  0  0  0
  -12.8519   -7.4945  -11.7840 C   0  0  0  0  0  0  0  0  0  0  0  0
  -12.5516   -8.8036  -11.8195 N   0  0  0  0  0  0  0  0  0  0  0  0
  -13.3084   -9.4715  -12.6876 C   0  0  0  0  0  0  0  0  0  0  0  0
  -14.2825   -8.9802  -13.4640 N   0  0  0  0  0  0  0  0  0  0  0  0
  -14.5714   -7.6654  -13.3946 C   0  0  0  0  0  0  0  0  0  0  0  0
  -15.6296   -7.2658  -14.1962 N   0  0  0  0  0  0  0  0  0  0  0  0
  -13.8198   -6.8350  -12.5331 C   0  0  0  0  0  0  0  0  0  0  0  0
  -15.8543   -7.9768  -14.8837 H   0  0  0  0  0  0  0  0  0  0  0  0
  -15.6546   -6.3148  -14.5176 H   0  0  0  0  0  0  0  0  0  0  0  0
  -15.3874   -2.1117  -13.0333 C   0  0  0  0  0  0  0  0  0  0  0  0
  -15.0382   -0.8493  -13.3358 C   0  0  0  0  0  0  0  0  0  0  0  0
  -15.9234    0.1371  -13.9664 C   0  0  0  0  0  0  0  0  0  0  0  0
  -17.0015    0.7275  -13.2956 C   0  0  0  0  0  0  0  0  0  0  0  0
  -17.7824    1.7038  -13.9271 C   0  0  0  0  0  0  0  0  0  0  0  0
  -17.4732    2.1027  -15.2240 C   0  0  0  0  0  0  0  0  0  0  0  0
  -18.4245    3.3112  -15.9940 Cl  0  0  0  0  0  0  0  0  0  0  0  0
  -16.3960    1.5345  -15.8995 C   0  0  0  0  0  0  0  0  0  0  0  0
  -15.6232    0.5571  -15.2704 C   0  0  0  0  0  0  0  0  0  0  0  0
  1  2  1  0  0  0
  2  3  1  0  0  0
  2  4  1  0  0  0
  2  8  1  0  0  0
  4  5  1  0  0  0
  5 19  1  0  0  0
  5  6  2  0  0  0
 19 20  2  0  0  0
 20 21  1  0  0  0
 21 22  1  0  0  0
 21 27  2  0  0  0
 22 23  2  0  0  0
 23 24  1  0  0  0
 24 25  1  0  0  0
 24 26  2  0  0  0
 26 27  1  0  0  0
  6  7  1  0  0  0
  7  8  2  0  0  0
  7 16  1  0  0  0
  8  9  1  0  0  0
  9 10  1  0  0  0
 10 11  1  0  0  0
 10 16  2  0  0  0
 11 12  2  0  0  0
 12 13  1  0  0  0
 13 14  2  0  0  0
 14 15  1  0  0  0
 14 16  1  0  0  0
 15 17  1  0  0  0
 15 18  1  0  0  0
M  END
> <minimizedAffinity>
-7.23414

$$$$
