CHEMBL392743


 30 33  0  0  0  0  0  0  0  0999 V2000
  -28.2101   -2.1543   -8.9461 C   0  0  0  0  0  0  0  0  0  0  0  0
  -27.7606   -1.0714   -8.3095 N   0  0  0  0  0  0  0  0  0  0  0  0
  -27.6603   -1.1634   -6.9644 C   0  0  0  0  0  0  0  0  0  0  0  0
  -28.0019   -2.2815   -6.2333 C   0  0  0  0  0  0  0  0  0  0  0  0
  -27.6748   -2.2906   -4.5445 Cl  0  0  0  0  0  0  0  0  0  0  0  0
  -28.5184   -3.3380   -6.9670 C   0  0  0  0  0  0  0  0  0  0  0  0
  -28.5893   -3.2774   -8.3166 N   0  0  0  0  0  0  0  0  0  0  0  0
  -28.9773   -4.6231   -6.4173 C   0  0  0  0  0  0  0  0  0  0  0  0
  -28.5568   -5.8660   -6.9530 C   0  0  0  0  0  0  0  0  0  0  0  0
  -28.9154   -7.0814   -6.3712 C   0  0  0  0  0  0  0  0  0  0  0  0
  -29.6287   -7.1166   -5.1738 C   0  0  0  0  0  0  0  0  0  0  0  0
  -30.1072   -5.8959   -4.6907 C   0  0  0  0  0  0  0  0  0  0  0  0
  -30.8054   -5.6036   -3.5418 N   0  0  0  0  0  0  0  0  0  0  0  0
  -31.3977   -4.3772   -3.6694 C   0  0  0  0  0  0  0  0  0  0  0  0
  -30.8134   -3.7566   -4.7485 C   0  0  0  0  0  0  0  0  0  0  0  0
  -29.9006   -4.6808   -5.3481 C   0  0  0  0  0  0  0  0  0  0  0  0
  -30.9170   -6.2330   -2.7589 H   0  0  0  0  0  0  0  0  0  0  0  0
  -28.2524   -2.1145  -10.3407 N   0  0  0  0  0  0  0  0  0  0  0  0
  -28.8944   -2.8144  -10.6854 H   0  0  0  0  0  0  0  0  0  0  0  0
  -25.0587   -1.1790  -12.9434 C   0  0  0  0  0  0  0  0  0  0  0  0
  -24.8856   -1.1001  -11.5591 C   0  0  0  0  0  0  0  0  0  0  0  0
  -25.9295   -1.4285  -10.6992 C   0  0  0  0  0  0  0  0  0  0  0  0
  -27.1794   -1.8179  -11.1942 C   0  0  0  0  0  0  0  0  0  0  0  0
  -27.3460   -1.9163  -12.5785 C   0  0  0  0  0  0  0  0  0  0  0  0
  -26.2990   -1.5901  -13.4477 C   0  0  0  0  0  0  0  0  0  0  0  0
  -23.9226   -0.8132  -13.8690 C   0  0  0  0  0  0  0  0  0  0  0  0
  -22.6398   -0.4669  -13.0906 C   0  0  0  0  0  0  0  0  0  0  0  0
  -21.1368    0.6433  -14.5968 C   0  0  0  0  0  0  0  0  0  0  0  0
  -22.0359    0.8297  -13.4532 N   0  0  0  0  0  0  0  0  0  0  0  0
  -23.0456    1.8377  -13.7767 C   0  0  0  0  0  0  0  0  0  0  0  0
 28 29  1  0  0  0
 29 30  1  0  0  0
 29 27  1  0  0  0
 27 26  1  0  0  0
 26 20  1  0  0  0
 20 21  1  0  0  0
 20 25  2  0  0  0
 21 22  2  0  0  0
 22 23  1  0  0  0
 23 18  1  0  0  0
 23 24  2  0  0  0
 18  1  1  0  0  0
 18 19  1  0  0  0
  1  2  1  0  0  0
  1  7  2  0  0  0
  2  3  2  0  0  0
  3  4  1  0  0  0
  4  5  1  0  0  0
  4  6  2  0  0  0
  6  8  1  0  0  0
  6  7  1  0  0  0
  8  9  1  0  0  0
  8 16  2  0  0  0
  9 10  2  0  0  0
 10 11  1  0  0  0
 11 12  2  0  0  0
 12 13  1  0  0  0
 12 16  1  0  0  0
 13 14  1  0  0  0
 13 17  1  0  0  0
 14 15  2  0  0  0
 15 16  1  0  0  0
 24 25  1  0  0  0
M  END
> <minimizedAffinity>
-9.55949

$$$$
