CHEMBL497290


 25 28  0  0  0  0  0  0  0  0999 V2000
  -28.3473   -3.0486   -7.7009 C   0  0  0  0  0  0  0  0  0  0  0  0
  -29.0786   -3.9960   -6.9809 C   0  0  0  0  0  0  0  0  0  0  0  0
  -29.5546   -3.4698   -5.7838 N   0  0  0  0  0  0  0  0  0  0  0  0
  -29.1584   -2.2309   -5.8223 C   0  0  0  0  0  0  0  0  0  0  0  0
  -29.3376   -0.8591   -4.7717 S   0  0  0  0  0  0  0  0  0  0  0  0
  -28.3836    0.0975   -5.9162 C   0  0  0  0  0  0  0  0  0  0  0  0
  -27.9888   -0.6101   -6.9896 C   0  0  0  0  0  0  0  0  0  0  0  0
  -28.4327   -1.9146   -6.9300 N   0  0  0  0  0  0  0  0  0  0  0  0
  -29.3563   -5.3727   -7.3685 C   0  0  0  0  0  0  0  0  0  0  0  0
  -28.3390   -6.1438   -7.9483 C   0  0  0  0  0  0  0  0  0  0  0  0
  -28.5558   -7.4863   -8.2689 C   0  0  0  0  0  0  0  0  0  0  0  0
  -29.7920   -8.0740   -8.0083 C   0  0  0  0  0  0  0  0  0  0  0  0
  -30.8133   -7.3171   -7.4391 C   0  0  0  0  0  0  0  0  0  0  0  0
  -30.5974   -5.9741   -7.1204 C   0  0  0  0  0  0  0  0  0  0  0  0
  -27.3482   -1.8359   -9.4990 C   0  0  0  0  0  0  0  0  0  0  0  0
  -27.6363   -3.0134   -8.9242 C   0  0  0  0  0  0  0  0  0  0  0  0
  -24.6503   -1.4330  -11.9063 C   0  0  0  0  0  0  0  0  0  0  0  0
  -25.2554   -1.4755  -13.0993 N   0  0  0  0  0  0  0  0  0  0  0  0
  -26.5909   -1.6200  -13.1022 C   0  0  0  0  0  0  0  0  0  0  0  0
  -27.3407   -1.7342  -11.9600 C   0  0  0  0  0  0  0  0  0  0  0  0
  -26.6336   -1.7011  -10.7787 C   0  0  0  0  0  0  0  0  0  0  0  0
  -25.2923   -1.5606  -10.7364 N   0  0  0  0  0  0  0  0  0  0  0  0
  -22.7486   -0.8113  -13.2229 C   0  0  0  0  0  0  0  0  0  0  0  0
  -23.2794   -1.2371  -11.9509 N   0  0  0  0  0  0  0  0  0  0  0  0
  -23.0490   -0.6546  -11.1542 H   0  0  0  0  0  0  0  0  0  0  0  0
 23 24  1  0  0  0
 24 17  1  0  0  0
 24 25  1  0  0  0
 17 18  1  0  0  0
 17 22  2  0  0  0
 18 19  2  0  0  0
 19 20  1  0  0  0
 20 21  2  0  0  0
 21 15  1  0  0  0
 21 22  1  0  0  0
 15 16  2  0  0  0
 16  1  1  0  0  0
  1  2  2  0  0  0
  1  8  1  0  0  0
  2  9  1  0  0  0
  2  3  1  0  0  0
  9 10  1  0  0  0
  9 14  2  0  0  0
 10 11  2  0  0  0
 11 12  1  0  0  0
 12 13  2  0  0  0
 13 14  1  0  0  0
  3  4  2  0  0  0
  4  5  1  0  0  0
  4  8  1  0  0  0
  5  6  1  0  0  0
  6  7  2  0  0  0
  7  8  1  0  0  0
M  END
> <minimizedAffinity>
-8.69770

$$$$
