CHEMBL4459564


 33 36  0  0  0  0  0  0  0  0999 V2000
  -21.1772   11.8406  -19.7365 C   0  0  0  0  0  0  0  0  0  0  0  0
  -21.0226   12.4657  -20.9812 C   0  0  0  0  0  0  0  0  0  0  0  0
  -19.8525   12.2705  -21.7270 C   0  0  0  0  0  0  0  0  0  0  0  0
  -18.8516   11.4345  -21.2335 C   0  0  0  0  0  0  0  0  0  0  0  0
  -19.0120   10.7941  -20.0059 C   0  0  0  0  0  0  0  0  0  0  0  0
  -20.1729   10.9897  -19.2580 C   0  0  0  0  0  0  0  0  0  0  0  0
  -23.3630   12.6586  -19.4815 O   0  0  0  0  0  0  0  0  0  0  0  0
  -22.4144   12.1001  -18.9460 C   0  0  0  0  0  0  0  0  0  0  0  0
  -22.3438   11.7015  -17.6249 N   0  0  0  0  0  0  0  0  0  0  0  0
  -21.4763   11.3280  -17.2630 H   0  0  0  0  0  0  0  0  0  0  0  0
  -23.3513   11.8836  -16.7010 C   0  0  0  0  0  0  0  0  0  0  0  0
  -23.3810   12.5153  -15.4460 C   0  0  0  0  0  0  0  0  0  0  0  0
  -24.5817   12.4330  -14.8646 N   0  0  0  0  0  0  0  0  0  0  0  0
  -25.3364   11.7107  -15.7338 N   0  0  0  0  0  0  0  0  0  0  0  0
  -24.6291   11.4146  -16.8805 C   0  0  0  0  0  0  0  0  0  0  0  0
  -26.6653   11.3168  -15.4091 C   0  0  0  0  0  0  0  0  0  0  0  0
  -27.3399   10.4110  -16.2408 C   0  0  0  0  0  0  0  0  0  0  0  0
  -28.6589   10.0472  -15.9598 C   0  0  0  0  0  0  0  0  0  0  0  0
  -29.3112   10.5820  -14.8506 C   0  0  0  0  0  0  0  0  0  0  0  0
  -28.6453   11.4763  -14.0153 C   0  0  0  0  0  0  0  0  0  0  0  0
  -27.3251   11.8437  -14.2887 C   0  0  0  0  0  0  0  0  0  0  0  0
  -17.6429   11.2163  -21.9464 N   0  0  0  0  0  0  0  0  0  0  0  0
  -17.5928   11.5758  -22.9000 H   0  0  0  0  0  0  0  0  0  0  0  0
  -16.1720   11.4423  -21.1473 S   0  0  0  0  0  0  0  0  0  0  0  0
  -15.2344   11.8897  -22.1538 O   0  0  0  0  0  0  0  0  0  0  0  0
  -16.4033   12.2198  -19.9482 O   0  0  0  0  0  0  0  0  0  0  0  0
  -15.6892    9.7972  -20.6631 C   0  0  0  0  0  0  0  0  0  0  0  0
  -14.8621    9.6008  -19.5532 C   0  0  0  0  0  0  0  0  0  0  0  0
  -14.5493    8.2972  -19.1495 C   0  0  0  0  0  0  0  0  0  0  0  0
  -15.0680    7.2074  -19.8504 C   0  0  0  0  0  0  0  0  0  0  0  0
  -14.6949    5.6062  -19.3435 Cl  0  0  0  0  0  0  0  0  0  0  0  0
  -15.8996    7.4041  -20.9521 C   0  0  0  0  0  0  0  0  0  0  0  0
  -16.2146    8.7013  -21.3610 C   0  0  0  0  0  0  0  0  0  0  0  0
  7  8  2  0  0  0
  8  9  1  0  0  0
  8  1  1  0  0  0
  9 11  1  0  0  0
  9 10  1  0  0  0
 11 12  1  0  0  0
 11 15  2  0  0  0
 12 13  2  0  0  0
 13 14  1  0  0  0
 14 16  1  0  0  0
 14 15  1  0  0  0
 16 17  1  0  0  0
 16 21  2  0  0  0
 17 18  2  0  0  0
 18 19  1  0  0  0
 19 20  2  0  0  0
 20 21  1  0  0  0
  1  2  1  0  0  0
  1  6  2  0  0  0
  2  3  2  0  0  0
  3  4  1  0  0  0
  4 22  1  0  0  0
  4  5  2  0  0  0
 22 24  1  0  0  0
 22 23  1  0  0  0
 24 25  2  0  0  0
 24 26  2  0  0  0
 24 27  1  0  0  0
 27 28  1  0  0  0
 27 33  2  0  0  0
 28 29  2  0  0  0
 29 30  1  0  0  0
 30 31  1  0  0  0
 30 32  2  0  0  0
 32 33  1  0  0  0
  5  6  1  0  0  0
M  END
> <minimizedAffinity>
-6.17395

$$$$
