CHEMBL3628809


 30 33  0  0  0  0  0  0  0  0999 V2000
  -20.7175    3.5200  -15.1011 C   0  0  0  0  0  0  0  0  0  0  0  0
  -19.6912    2.4209  -15.0846 C   0  0  0  0  0  0  0  0  0  0  0  0
  -18.3370    2.8242  -15.0421 C   0  0  0  0  0  0  0  0  0  0  0  0
  -17.2987    1.8933  -15.0807 C   0  0  0  0  0  0  0  0  0  0  0  0
  -17.6044    0.5448  -15.0569 C   0  0  0  0  0  0  0  0  0  0  0  0
  -18.9363    0.1260  -15.0668 C   0  0  0  0  0  0  0  0  0  0  0  0
  -20.0052    1.0437  -15.1078 C   0  0  0  0  0  0  0  0  0  0  0  0
  -21.3598    0.6073  -15.1882 N   0  0  0  0  0  0  0  0  0  0  0  0
  -22.1521    0.2265  -14.1086 C   0  0  0  0  0  0  0  0  0  0  0  0
  -21.8109    0.2584  -12.9316 O   0  0  0  0  0  0  0  0  0  0  0  0
  -23.3887   -0.2708  -14.5062 N   0  0  0  0  0  0  0  0  0  0  0  0
  -21.7682    0.5312  -16.1070 H   0  0  0  0  0  0  0  0  0  0  0  0
  -23.3752   -0.7771  -15.3778 H   0  0  0  0  0  0  0  0  0  0  0  0
  -24.3211   -0.7239  -13.5367 C   0  0  0  0  0  0  0  0  0  0  0  0
  -23.9918   -0.6208  -12.1828 C   0  0  0  0  0  0  0  0  0  0  0  0
  -24.9252   -0.9749  -11.2021 C   0  0  0  0  0  0  0  0  0  0  0  0
  -26.1696   -1.4865  -11.5677 C   0  0  0  0  0  0  0  0  0  0  0  0
  -26.4808   -1.6309  -12.9177 C   0  0  0  0  0  0  0  0  0  0  0  0
  -28.1587   -2.3541  -13.4139 Br  0  0  0  0  0  0  0  0  0  0  0  0
  -25.5710   -1.2427  -13.9016 C   0  0  0  0  0  0  0  0  0  0  0  0
  -15.9665    2.2263  -15.0620 O   0  0  0  0  0  0  0  0  0  0  0  0
  -15.2432    2.0964  -16.2408 C   0  0  0  0  0  0  0  0  0  0  0  0
  -14.7365    0.8945  -16.5991 N   0  0  0  0  0  0  0  0  0  0  0  0
  -14.0640    0.8176  -17.7548 C   0  0  0  0  0  0  0  0  0  0  0  0
  -13.8086    1.8076  -18.6148 N   0  0  0  0  0  0  0  0  0  0  0  0
  -14.2960    2.9891  -18.1996 C   0  0  0  0  0  0  0  0  0  0  0  0
  -14.0758    4.4028  -19.1264 S   0  0  0  0  0  0  0  0  0  0  0  0
  -14.9197    5.3574  -17.9846 C   0  0  0  0  0  0  0  0  0  0  0  0
  -15.3718    4.6068  -16.9208 C   0  0  0  0  0  0  0  0  0  0  0  0
  -15.0108    3.2224  -17.0358 C   0  0  0  0  0  0  0  0  0  0  0  0
  1  2  1  0  0  0
  2  3  1  0  0  0
  2  7  2  0  0  0
  3  4  2  0  0  0
  4 21  1  0  0  0
  4  5  1  0  0  0
 21 22  1  0  0  0
 22 23  1  0  0  0
 22 30  2  0  0  0
 23 24  2  0  0  0
 24 25  1  0  0  0
 25 26  2  0  0  0
 26 27  1  0  0  0
 26 30  1  0  0  0
 27 28  1  0  0  0
 28 29  2  0  0  0
 29 30  1  0  0  0
  5  6  2  0  0  0
  6  7  1  0  0  0
  7  8  1  0  0  0
  8  9  1  0  0  0
  8 12  1  0  0  0
  9 10  2  0  0  0
  9 11  1  0  0  0
 11 14  1  0  0  0
 11 13  1  0  0  0
 14 15  1  0  0  0
 14 20  2  0  0  0
 15 16  2  0  0  0
 16 17  1  0  0  0
 17 18  2  0  0  0
 18 19  1  0  0  0
 18 20  1  0  0  0
M  END
> <minimizedAffinity>
-9.14012

$$$$
