CHEMBL596292


 41 46  0  0  0  0  0  0  0  0999 V2000
  -25.5036  -10.4945   -5.8202 C   0  0  0  0  0  0  0  0  0  0  0  0
  -26.3584  -10.0379   -4.8158 C   0  0  0  0  0  0  0  0  0  0  0  0
  -27.6327  -10.6031   -4.6151 C   0  0  0  0  0  0  0  0  0  0  0  0
  -28.5901  -10.0656   -3.7313 C   0  0  0  0  0  0  0  0  0  0  0  0
  -29.7834  -10.6573   -3.5668 N   0  0  0  0  0  0  0  0  0  0  0  0
  -30.0135  -11.7704   -4.2757 C   0  0  0  0  0  0  0  0  0  0  0  0
  -29.1855  -12.3256   -5.1760 N   0  0  0  0  0  0  0  0  0  0  0  0
  -28.0039  -11.7322   -5.3440 C   0  0  0  0  0  0  0  0  0  0  0  0
  -27.1000  -12.2576   -6.2715 C   0  0  0  0  0  0  0  0  0  0  0  0
  -25.8444  -11.6760   -6.4933 C   0  0  0  0  0  0  0  0  0  0  0  0
  -23.1242  -10.3032   -5.6276 C   0  0  0  0  0  0  0  0  0  0  0  0
  -24.3610   -9.8219   -6.1526 O   0  0  0  0  0  0  0  0  0  0  0  0
  -28.3049   -8.8484   -3.0358 N   0  0  0  0  0  0  0  0  0  0  0  0
  -28.5989   -8.9321   -2.0697 H   0  0  0  0  0  0  0  0  0  0  0  0
  -28.4558   -7.5325   -3.5311 C   0  0  0  0  0  0  0  0  0  0  0  0
  -27.4097   -6.8806   -4.2011 C   0  0  0  0  0  0  0  0  0  0  0  0
  -27.5328   -5.5392   -4.6363 C   0  0  0  0  0  0  0  0  0  0  0  0
  -28.7237   -4.8210   -4.4516 C   0  0  0  0  0  0  0  0  0  0  0  0
  -29.7928   -5.5302   -3.8696 C   0  0  0  0  0  0  0  0  0  0  0  0
  -29.6647   -6.8523   -3.4245 C   0  0  0  0  0  0  0  0  0  0  0  0
  -28.8422   -3.3733   -4.8073 C   0  0  0  0  0  0  0  0  0  0  0  0
  -29.9527   -2.6518   -4.9014 N   0  0  0  0  0  0  0  0  0  0  0  0
  -29.6711   -1.3603   -5.3855 C   0  0  0  0  0  0  0  0  0  0  0  0
  -30.5816   -0.3087   -5.6476 C   0  0  0  0  0  0  0  0  0  0  0  0
  -30.1121    0.8976   -6.1981 C   0  0  0  0  0  0  0  0  0  0  0  0
  -31.2129    2.1808   -6.5367 Cl  0  0  0  0  0  0  0  0  0  0  0  0
  -28.7653    1.0806   -6.4848 C   0  0  0  0  0  0  0  0  0  0  0  0
  -27.8471    0.0782   -6.1984 C   0  0  0  0  0  0  0  0  0  0  0  0
  -28.3220   -1.1240   -5.6533 C   0  0  0  0  0  0  0  0  0  0  0  0
  -27.4083   -2.4910   -5.2084 S   0  0  0  0  0  0  0  0  0  0  0  0
  -25.0491  -12.3758   -7.3774 O   0  0  0  0  0  0  0  0  0  0  0  0
  -25.2329  -11.9911   -8.7396 C   0  0  0  0  0  0  0  0  0  0  0  0
  -26.7046  -11.8984   -9.1225 C   0  0  0  0  0  0  0  0  0  0  0  0
  -26.8374  -10.7665  -10.1549 C   0  0  0  0  0  0  0  0  0  0  0  0
  -27.8719   -9.7836   -9.8469 N   0  0  0  0  0  0  0  0  0  0  0  0
  -29.1762  -10.3976   -9.5478 C   0  0  0  0  0  0  0  0  0  0  0  0
  -30.2383   -9.3079   -9.2951 C   0  0  0  0  0  0  0  0  0  0  0  0
  -29.9170   -8.3794   -8.1923 N   0  0  0  0  0  0  0  0  0  0  0  0
  -30.0940   -9.0193   -6.8919 C   0  0  0  0  0  0  0  0  0  0  0  0
  -28.5420   -7.8683   -8.3700 C   0  0  0  0  0  0  0  0  0  0  0  0
  -27.4727   -8.9413   -8.6956 C   0  0  0  0  0  0  0  0  0  0  0  0
 11 12  1  0  0  0
 12  1  1  0  0  0
  1  2  1  0  0  0
  1 10  2  0  0  0
  2  3  2  0  0  0
  3  4  1  0  0  0
  3  8  1  0  0  0
  4 13  1  0  0  0
  4  5  2  0  0  0
 13 15  1  0  0  0
 13 14  1  0  0  0
 15 16  1  0  0  0
 15 20  2  0  0  0
 16 17  2  0  0  0
 17 18  1  0  0  0
 18 21  1  0  0  0
 18 19  2  0  0  0
 21 22  2  0  0  0
 21 30  1  0  0  0
 22 23  1  0  0  0
 23 24  1  0  0  0
 23 29  2  0  0  0
 24 25  2  0  0  0
 25 26  1  0  0  0
 25 27  1  0  0  0
 27 28  2  0  0  0
 28 29  1  0  0  0
 29 30  1  0  0  0
 19 20  1  0  0  0
  5  6  1  0  0  0
  6  7  2  0  0  0
  7  8  1  0  0  0
  8  9  2  0  0  0
  9 10  1  0  0  0
 10 31  1  0  0  0
 31 32  1  0  0  0
 32 33  1  0  0  0
 33 34  1  0  0  0
 34 35  1  0  0  0
 35 36  1  0  0  0
 35 41  1  0  0  0
 36 37  1  0  0  0
 37 38  1  0  0  0
 38 39  1  0  0  0
 38 40  1  0  0  0
 40 41  1  0  0  0
M  END
> <minimizedAffinity>
-7.06801

$$$$
