CHEMBL2011294


 29 32  0  0  0  0  0  0  0  0999 V2000
  -29.0461   -4.7139   -5.7661 N   0  0  0  0  0  0  0  0  0  0  0  0
  -30.0302   -5.3654   -6.4286 N   0  0  0  0  0  0  0  0  0  0  0  0
  -29.7719   -6.6701   -6.2649 C   0  0  0  0  0  0  0  0  0  0  0  0
  -28.7370   -6.8712   -5.2853 C   0  0  0  0  0  0  0  0  0  0  0  0
  -28.2838   -5.5905   -4.9838 C   0  0  0  0  0  0  0  0  0  0  0  0
  -27.3629   -5.1713   -4.0661 N   0  0  0  0  0  0  0  0  0  0  0  0
  -27.1110   -5.8046   -3.3094 H   0  0  0  0  0  0  0  0  0  0  0  0
  -27.3872   -4.2079   -3.7339 H   0  0  0  0  0  0  0  0  0  0  0  0
  -28.2561   -8.1092   -4.6556 C   0  0  0  0  0  0  0  0  0  0  0  0
  -26.8895   -8.4298   -4.6116 C   0  0  0  0  0  0  0  0  0  0  0  0
  -26.4530   -9.6374   -4.0551 C   0  0  0  0  0  0  0  0  0  0  0  0
  -27.3827  -10.5543   -3.5829 C   0  0  0  0  0  0  0  0  0  0  0  0
  -26.9662  -11.7320   -3.1005 F   0  0  0  0  0  0  0  0  0  0  0  0
  -28.7380  -10.2669   -3.6129 C   0  0  0  0  0  0  0  0  0  0  0  0
  -29.1679   -9.0329   -4.1112 C   0  0  0  0  0  0  0  0  0  0  0  0
  -28.6937   -0.5106   -6.2010 C   0  0  0  0  0  0  0  0  0  0  0  0
  -27.9927   -1.3725   -7.0417 C   0  0  0  0  0  0  0  0  0  0  0  0
  -28.0994   -2.7591   -6.8764 C   0  0  0  0  0  0  0  0  0  0  0  0
  -28.9437   -3.2973   -5.8929 C   0  0  0  0  0  0  0  0  0  0  0  0
  -29.6436   -2.4335   -5.0454 C   0  0  0  0  0  0  0  0  0  0  0  0
  -29.5122   -1.0473   -5.2007 C   0  0  0  0  0  0  0  0  0  0  0  0
  -29.9079    1.5300   -6.3546 C   0  0  0  0  0  0  0  0  0  0  0  0
  -28.6598    0.8559   -6.2404 O   0  0  0  0  0  0  0  0  0  0  0  0
  -30.5579   -7.6584   -7.0158 C   0  0  0  0  0  0  0  0  0  0  0  0
  -29.9666   -8.4924   -7.9667 C   0  0  0  0  0  0  0  0  0  0  0  0
  -30.7418   -9.4672   -8.5729 C   0  0  0  0  0  0  0  0  0  0  0  0
  -32.0623   -9.6304   -8.3410 N   0  0  0  0  0  0  0  0  0  0  0  0
  -32.6331   -8.7794   -7.4673 C   0  0  0  0  0  0  0  0  0  0  0  0
  -31.9325   -7.7899   -6.7941 C   0  0  0  0  0  0  0  0  0  0  0  0
 22 23  1  0  0  0
 23 16  1  0  0  0
 16 17  1  0  0  0
 16 21  2  0  0  0
 17 18  2  0  0  0
 18 19  1  0  0  0
 19  1  1  0  0  0
 19 20  2  0  0  0
  1  2  1  0  0  0
  1  5  1  0  0  0
  2  3  2  0  0  0
  3 24  1  0  0  0
  3  4  1  0  0  0
 24 25  1  0  0  0
 24 29  2  0  0  0
 25 26  2  0  0  0
 26 27  1  0  0  0
 27 28  2  0  0  0
 28 29  1  0  0  0
  4  9  1  0  0  0
  4  5  2  0  0  0
  9 10  1  0  0  0
  9 15  2  0  0  0
 10 11  2  0  0  0
 11 12  1  0  0  0
 12 13  1  0  0  0
 12 14  2  0  0  0
 14 15  1  0  0  0
  5  6  1  0  0  0
  6  7  1  0  0  0
  6  8  1  0  0  0
 20 21  1  0  0  0
M  END
> <minimizedAffinity>
-8.81103

$$$$
