CHEMBL3671564


 40 43  0  0  0  0  0  0  0  0999 V2000
  -17.8164    0.9224  -14.9431 C   0  0  0  0  0  0  0  0  0  0  0  0
  -19.1305    0.5421  -14.6708 C   0  0  0  0  0  0  0  0  0  0  0  0
  -20.1769    1.4787  -14.5955 C   0  0  0  0  0  0  0  0  0  0  0  0
  -21.5127    1.1374  -14.3301 C   0  0  0  0  0  0  0  0  0  0  0  0
  -22.4838    2.0670  -14.2940 N   0  0  0  0  0  0  0  0  0  0  0  0
  -22.0977    3.3325  -14.4755 C   0  0  0  0  0  0  0  0  0  0  0  0
  -20.8570    3.7641  -14.7332 N   0  0  0  0  0  0  0  0  0  0  0  0
  -19.8997    2.8296  -14.8047 C   0  0  0  0  0  0  0  0  0  0  0  0
  -18.5909    3.1991  -15.1186 C   0  0  0  0  0  0  0  0  0  0  0  0
  -17.5431    2.2669  -15.2359 C   0  0  0  0  0  0  0  0  0  0  0  0
  -16.0496   -0.2015  -13.7219 C   0  0  0  0  0  0  0  0  0  0  0  0
  -16.1434    0.4946  -12.7172 O   0  0  0  0  0  0  0  0  0  0  0  0
  -16.8451   -0.0967  -14.8476 N   0  0  0  0  0  0  0  0  0  0  0  0
  -16.5691   -0.6000  -15.6748 H   0  0  0  0  0  0  0  0  0  0  0  0
  -15.2469   -2.4973  -13.5471 C   0  0  0  0  0  0  0  0  0  0  0  0
  -14.9812   -1.2227  -13.8606 C   0  0  0  0  0  0  0  0  0  0  0  0
  -21.8443   -0.2162  -14.0974 N   0  0  0  0  0  0  0  0  0  0  0  0
  -21.0134   -0.8047  -14.0689 H   0  0  0  0  0  0  0  0  0  0  0  0
  -22.9292   -0.7571  -13.3805 C   0  0  0  0  0  0  0  0  0  0  0  0
  -22.8221   -1.0763  -12.0180 C   0  0  0  0  0  0  0  0  0  0  0  0
  -23.9508   -1.4497  -11.2819 C   0  0  0  0  0  0  0  0  0  0  0  0
  -25.1959   -1.5169  -11.9052 C   0  0  0  0  0  0  0  0  0  0  0  0
  -26.7322   -1.9272  -10.8836 Br  0  0  0  0  0  0  0  0  0  0  0  0
  -25.3191   -1.2490  -13.2640 C   0  0  0  0  0  0  0  0  0  0  0  0
  -24.1883   -0.8647  -13.9801 C   0  0  0  0  0  0  0  0  0  0  0  0
  -24.3207   -0.5730  -15.2843 F   0  0  0  0  0  0  0  0  0  0  0  0
  -16.3286    2.8438  -15.5321 O   0  0  0  0  0  0  0  0  0  0  0  0
  -16.3876    4.0795  -16.2384 C   0  0  0  0  0  0  0  0  0  0  0  0
  -15.1123    4.3520  -17.0443 C   0  0  0  0  0  0  0  0  0  0  0  0
  -15.1189    5.6740  -17.6744 N   0  0  0  0  0  0  0  0  0  0  0  0
  -14.6270    5.8276  -18.9471 C   0  0  0  0  0  0  0  0  0  0  0  0
  -14.1732    4.8782  -19.5815 O   0  0  0  0  0  0  0  0  0  0  0  0
  -14.6073    7.1090  -19.4443 N   0  0  0  0  0  0  0  0  0  0  0  0
  -15.0285    8.3381  -18.7646 C   0  0  0  0  0  0  0  0  0  0  0  0
  -15.8133    9.2555  -19.7254 C   0  0  0  0  0  0  0  0  0  0  0  0
  -15.1083    9.5328  -20.9920 N   0  0  0  0  0  0  0  0  0  0  0  0
  -14.7349    8.2585  -21.6375 C   0  0  0  0  0  0  0  0  0  0  0  0
  -13.9153    7.3432  -20.7161 C   0  0  0  0  0  0  0  0  0  0  0  0
  -15.9321    6.2346  -17.4744 H   0  0  0  0  0  0  0  0  0  0  0  0
  -14.2543   10.0493  -20.7851 H   0  0  0  0  0  0  0  0  0  0  0  0
 15 16  2  0  0  0
 16 11  1  0  0  0
 11 12  2  0  0  0
 11 13  1  0  0  0
 13  1  1  0  0  0
 13 14  1  0  0  0
  1  2  1  0  0  0
  1 10  2  0  0  0
  2  3  2  0  0  0
  3  4  1  0  0  0
  3  8  1  0  0  0
  4 17  1  0  0  0
  4  5  2  0  0  0
 17 19  1  0  0  0
 17 18  1  0  0  0
 19 20  1  0  0  0
 19 25  2  0  0  0
 20 21  2  0  0  0
 21 22  1  0  0  0
 22 23  1  0  0  0
 22 24  2  0  0  0
 24 25  1  0  0  0
 25 26  1  0  0  0
  5  6  1  0  0  0
  6  7  2  0  0  0
  7  8  1  0  0  0
  8  9  2  0  0  0
  9 10  1  0  0  0
 10 27  1  0  0  0
 27 28  1  0  0  0
 28 29  1  0  0  0
 29 30  1  0  0  0
 30 31  1  0  0  0
 30 39  1  0  0  0
 31 32  2  0  0  0
 31 33  1  0  0  0
 33 34  1  0  0  0
 33 38  1  0  0  0
 34 35  1  0  0  0
 35 36  1  0  0  0
 36 37  1  0  0  0
 36 40  1  0  0  0
 37 38  1  0  0  0
M  END
> <minimizedAffinity>
-9.95779

$$$$
