CHEMBL4476000


 28 31  0  0  0  0  0  0  0  0999 V2000
  -26.0499   -1.9134  -11.5636 N   0  0  0  0  0  0  0  0  0  0  0  0
  -26.0621   -2.0710  -10.2065 C   0  0  0  0  0  0  0  0  0  0  0  0
  -27.3132   -1.6332   -9.8331 C   0  0  0  0  0  0  0  0  0  0  0  0
  -27.9946   -1.2173  -10.9482 N   0  0  0  0  0  0  0  0  0  0  0  0
  -27.2089   -1.3893  -12.0045 N   0  0  0  0  0  0  0  0  0  0  0  0
  -27.8779   -1.6802   -8.4985 C   0  0  0  0  0  0  0  0  0  0  0  0
  -28.2310   -2.9149   -7.9382 C   0  0  0  0  0  0  0  0  0  0  0  0
  -28.7277   -2.9901   -6.6349 C   0  0  0  0  0  0  0  0  0  0  0  0
  -28.8838   -1.8291   -5.8781 C   0  0  0  0  0  0  0  0  0  0  0  0
  -28.5500   -0.5802   -6.4200 C   0  0  0  0  0  0  0  0  0  0  0  0
  -28.0525   -0.5178   -7.7348 C   0  0  0  0  0  0  0  0  0  0  0  0
  -28.7038    0.6885   -5.6190 C   0  0  0  0  0  0  0  0  0  0  0  0
  -27.8727    0.7626   -4.5427 F   0  0  0  0  0  0  0  0  0  0  0  0
  -28.4498    1.8017   -6.3628 F   0  0  0  0  0  0  0  0  0  0  0  0
  -29.9648    0.8478   -5.1308 F   0  0  0  0  0  0  0  0  0  0  0  0
  -25.0613   -2.4113  -12.5020 C   0  0  0  0  0  0  0  0  0  0  0  0
  -22.2948    0.6871  -13.7433 C   0  0  0  0  0  0  0  0  0  0  0  0
  -23.2789    0.2144  -14.6213 C   0  0  0  0  0  0  0  0  0  0  0  0
  -24.1719   -0.7874  -14.2256 C   0  0  0  0  0  0  0  0  0  0  0  0
  -24.0978   -1.3389  -12.9399 C   0  0  0  0  0  0  0  0  0  0  0  0
  -23.1084   -0.8744  -12.0639 C   0  0  0  0  0  0  0  0  0  0  0  0
  -22.2201    0.1315  -12.4601 C   0  0  0  0  0  0  0  0  0  0  0  0
  -18.2281    3.0534  -15.3394 C   0  0  0  0  0  0  0  0  0  0  0  0
  -19.5633    2.7507  -14.8852 N   0  0  0  0  0  0  0  0  0  0  0  0
  -20.0819    1.5161  -14.6158 C   0  0  0  0  0  0  0  0  0  0  0  0
  -21.3735    1.7240  -14.1746 C   0  0  0  0  0  0  0  0  0  0  0  0
  -21.5257    3.1301  -14.2297 C   0  0  0  0  0  0  0  0  0  0  0  0
  -20.4272    3.7557  -14.6597 N   0  0  0  0  0  0  0  0  0  0  0  0
 23 24  1  0  0  0
 24 25  1  0  0  0
 24 28  1  0  0  0
 25 26  2  0  0  0
 26 17  1  0  0  0
 26 27  1  0  0  0
 17 18  1  0  0  0
 17 22  2  0  0  0
 18 19  2  0  0  0
 19 20  1  0  0  0
 20 16  1  0  0  0
 20 21  2  0  0  0
 16  1  1  0  0  0
  1  2  1  0  0  0
  1  5  1  0  0  0
  2  3  2  0  0  0
  3  6  1  0  0  0
  3  4  1  0  0  0
  6  7  1  0  0  0
  6 11  2  0  0  0
  7  8  2  0  0  0
  8  9  1  0  0  0
  9 10  2  0  0  0
 10 12  1  0  0  0
 10 11  1  0  0  0
 12 13  1  0  0  0
 12 14  1  0  0  0
 12 15  1  0  0  0
  4  5  2  0  0  0
 21 22  1  0  0  0
 27 28  2  0  0  0
M  END
> <minimizedAffinity>
-10.49272

$$$$
