CHEMBL3589741


 31 34  0  0  0  0  0  0  0  0999 V2000
  -28.5241   -2.2134   -7.8283 C   0  0  0  0  0  0  0  0  0  0  0  0
  -29.1427   -3.4063   -8.1499 C   0  0  0  0  0  0  0  0  0  0  0  0
  -29.8626   -4.0922   -7.2076 C   0  0  0  0  0  0  0  0  0  0  0  0
  -29.7764   -3.8095   -5.8481 C   0  0  0  0  0  0  0  0  0  0  0  0
  -29.1134   -2.6374   -5.4893 C   0  0  0  0  0  0  0  0  0  0  0  0
  -28.5040   -1.8251   -6.4819 C   0  0  0  0  0  0  0  0  0  0  0  0
  -30.3891   -4.7030   -4.9300 N   0  0  0  0  0  0  0  0  0  0  0  0
  -29.7214   -5.8169   -4.7464 C   0  0  0  0  0  0  0  0  0  0  0  0
  -28.1858   -5.9160   -4.5001 C   0  0  0  0  0  0  0  0  0  0  0  0
  -27.5235   -5.1649   -3.8178 O   0  0  0  0  0  0  0  0  0  0  0  0
  -27.7437   -6.9581   -5.2871 N   0  0  0  0  0  0  0  0  0  0  0  0
  -28.8055   -7.4911   -6.0187 C   0  0  0  0  0  0  0  0  0  0  0  0
  -28.6916   -8.1005   -7.2620 C   0  0  0  0  0  0  0  0  0  0  0  0
  -29.8634   -8.2440   -8.0217 C   0  0  0  0  0  0  0  0  0  0  0  0
  -31.1180   -7.8641   -7.5034 C   0  0  0  0  0  0  0  0  0  0  0  0
  -31.2152   -7.2445   -6.2550 C   0  0  0  0  0  0  0  0  0  0  0  0
  -30.0407   -7.0228   -5.5508 C   0  0  0  0  0  0  0  0  0  0  0  0
  -26.7649   -7.1306   -5.4572 H   0  0  0  0  0  0  0  0  0  0  0  0
  -26.6870   -3.1109   -9.7875 O   0  0  0  0  0  0  0  0  0  0  0  0
  -27.0188   -1.9298   -9.7474 C   0  0  0  0  0  0  0  0  0  0  0  0
  -27.9733   -1.4207   -8.8673 N   0  0  0  0  0  0  0  0  0  0  0  0
  -26.4488   -0.9725  -10.5597 N   0  0  0  0  0  0  0  0  0  0  0  0
  -28.4855   -0.5990   -9.1481 H   0  0  0  0  0  0  0  0  0  0  0  0
  -26.6201   -0.0078  -10.3140 H   0  0  0  0  0  0  0  0  0  0  0  0
  -25.4297   -1.2417  -11.5232 C   0  0  0  0  0  0  0  0  0  0  0  0
  -24.1183   -1.6007  -11.1875 C   0  0  0  0  0  0  0  0  0  0  0  0
  -23.1489   -1.7982  -12.1652 C   0  0  0  0  0  0  0  0  0  0  0  0
  -23.4840   -1.6719  -13.5045 C   0  0  0  0  0  0  0  0  0  0  0  0
  -24.7941   -1.3415  -13.8500 C   0  0  0  0  0  0  0  0  0  0  0  0
  -25.2186   -1.1874  -15.5115 Cl  0  0  0  0  0  0  0  0  0  0  0  0
  -25.7635   -1.1237  -12.8664 C   0  0  0  0  0  0  0  0  0  0  0  0
 19 20  2  0  0  0
 20 21  1  0  0  0
 20 22  1  0  0  0
 21  1  1  0  0  0
 21 23  1  0  0  0
  1  2  1  0  0  0
  1  6  2  0  0  0
  2  3  2  0  0  0
  3  4  1  0  0  0
  4  7  1  0  0  0
  4  5  2  0  0  0
  7  8  2  0  0  0
  8  9  1  0  0  0
  8 17  1  0  0  0
  9 10  2  0  0  0
  9 11  1  0  0  0
 11 12  1  0  0  0
 11 18  1  0  0  0
 12 13  1  0  0  0
 12 17  2  0  0  0
 13 14  2  0  0  0
 14 15  1  0  0  0
 15 16  2  0  0  0
 16 17  1  0  0  0
  5  6  1  0  0  0
 22 25  1  0  0  0
 22 24  1  0  0  0
 25 26  1  0  0  0
 25 31  2  0  0  0
 26 27  2  0  0  0
 27 28  1  0  0  0
 28 29  2  0  0  0
 29 30  1  0  0  0
 29 31  1  0  0  0
M  END
> <minimizedAffinity>
-9.87776

$$$$
