CHEMBL426528


 42 48  0  0  0  0  0  0  0  0999 V2000
  -28.7951   -4.9808   -4.8635 N   0  0  0  0  0  0  0  0  0  0  0  0
  -28.7163   -4.1083   -5.9737 C   0  0  0  0  0  0  0  0  0  0  0  0
  -28.9953   -2.7390   -6.1147 C   0  0  0  0  0  0  0  0  0  0  0  0
  -28.8774   -2.1550   -7.3945 C   0  0  0  0  0  0  0  0  0  0  0  0
  -28.4764   -2.8822   -8.5175 C   0  0  0  0  0  0  0  0  0  0  0  0
  -28.2237   -4.2440   -8.3646 C   0  0  0  0  0  0  0  0  0  0  0  0
  -28.3557   -4.8598   -7.1015 C   0  0  0  0  0  0  0  0  0  0  0  0
  -28.3157   -6.1388   -6.5928 C   0  0  0  0  0  0  0  0  0  0  0  0
  -28.3859   -7.2759   -7.4032 C   0  0  0  0  0  0  0  0  0  0  0  0
  -28.8692   -8.4326   -6.7644 C   0  0  0  0  0  0  0  0  0  0  0  0
  -29.0763   -8.5363   -5.3766 C   0  0  0  0  0  0  0  0  0  0  0  0
  -28.3521   -7.5469   -4.6310 C   0  0  0  0  0  0  0  0  0  0  0  0
  -28.4031   -6.2679   -5.2341 C   0  0  0  0  0  0  0  0  0  0  0  0
  -27.0306   -8.1531   -3.9854 C   0  0  0  0  0  0  0  0  0  0  0  0
  -26.6793   -9.6257   -4.4646 C   0  0  0  0  0  0  0  0  0  0  0  0
  -27.9254  -10.4258   -4.3224 C   0  0  0  0  0  0  0  0  0  0  0  0
  -28.1297  -11.4861   -3.5422 N   0  0  0  0  0  0  0  0  0  0  0  0
  -29.4835  -11.5217   -3.4464 N   0  0  0  0  0  0  0  0  0  0  0  0
  -30.1119  -12.4658   -2.5545 C   0  0  0  0  0  0  0  0  0  0  0  0
  -30.1069  -10.4649   -4.0656 C   0  0  0  0  0  0  0  0  0  0  0  0
  -29.1178   -9.8496   -4.7873 C   0  0  0  0  0  0  0  0  0  0  0  0
  -28.9198   -9.4724   -7.7616 C   0  0  0  0  0  0  0  0  0  0  0  0
  -29.2431  -10.6471   -7.7375 O   0  0  0  0  0  0  0  0  0  0  0  0
  -28.4252   -8.8723   -8.9157 N   0  0  0  0  0  0  0  0  0  0  0  0
  -28.1201   -7.4687   -8.8211 C   0  0  0  0  0  0  0  0  0  0  0  0
  -28.2776   -9.4407   -9.7353 H   0  0  0  0  0  0  0  0  0  0  0  0
  -28.3123   -2.3409   -9.8222 N   0  0  0  0  0  0  0  0  0  0  0  0
  -27.1098   -1.9587  -10.3848 C   0  0  0  0  0  0  0  0  0  0  0  0
  -26.0319   -2.0697   -9.8197 O   0  0  0  0  0  0  0  0  0  0  0  0
  -27.2572   -1.4615  -11.6753 N   0  0  0  0  0  0  0  0  0  0  0  0
  -29.1014   -2.4079  -10.4477 H   0  0  0  0  0  0  0  0  0  0  0  0
  -28.1469   -1.0423  -11.8982 H   0  0  0  0  0  0  0  0  0  0  0  0
  -26.1615   -1.1312  -12.5155 C   0  0  0  0  0  0  0  0  0  0  0  0
  -26.0683   -1.5893  -13.8372 C   0  0  0  0  0  0  0  0  0  0  0  0
  -24.9321   -1.3423  -14.6107 C   0  0  0  0  0  0  0  0  0  0  0  0
  -23.8836   -0.6020  -14.0800 C   0  0  0  0  0  0  0  0  0  0  0  0
  -24.0032   -0.0857  -12.7953 C   0  0  0  0  0  0  0  0  0  0  0  0
  -23.0016    0.6473  -12.2918 F   0  0  0  0  0  0  0  0  0  0  0  0
  -25.1335   -0.3307  -12.0119 C   0  0  0  0  0  0  0  0  0  0  0  0
  -29.3490   -4.6012   -3.5662 C   0  0  0  0  0  0  0  0  0  0  0  0
  -31.6915   -5.6690   -3.7403 C   0  0  0  0  0  0  0  0  0  0  0  0
  -30.8755   -4.4054   -3.5087 C   0  0  0  0  0  0  0  0  0  0  0  0
 41 42  1  0  0  0
 42 40  1  0  0  0
 40  1  1  0  0  0
  1  2  1  0  0  0
  1 13  1  0  0  0
  2  3  1  0  0  0
  2  7  2  0  0  0
  3  4  2  0  0  0
  4  5  1  0  0  0
  5 27  1  0  0  0
  5  6  2  0  0  0
 27 28  1  0  0  0
 27 31  1  0  0  0
 28 29  2  0  0  0
 28 30  1  0  0  0
 30 33  1  0  0  0
 30 32  1  0  0  0
 33 34  1  0  0  0
 33 39  2  0  0  0
 34 35  2  0  0  0
 35 36  1  0  0  0
 36 37  2  0  0  0
 37 38  1  0  0  0
 37 39  1  0  0  0
  6  7  1  0  0  0
  7  8  1  0  0  0
  8  9  1  0  0  0
  8 13  2  0  0  0
  9 10  2  0  0  0
  9 25  1  0  0  0
 10 11  1  0  0  0
 10 22  1  0  0  0
 11 12  2  0  0  0
 11 21  1  0  0  0
 12 13  1  0  0  0
 12 14  1  0  0  0
 14 15  1  0  0  0
 15 16  1  0  0  0
 16 17  2  0  0  0
 16 21  1  0  0  0
 17 18  1  0  0  0
 18 19  1  0  0  0
 18 20  1  0  0  0
 20 21  2  0  0  0
 22 23  2  0  0  0
 22 24  1  0  0  0
 24 25  1  0  0  0
 24 26  1  0  0  0
M  END
> <minimizedAffinity>
-9.99964

$$$$
