CHEMBL3953117


 35 39  0  0  0  0  0  0  0  0999 V2000
  -15.9243    2.3977  -16.3520 N   0  0  0  0  0  0  0  0  0  0  0  0
  -17.2195    2.3897  -15.6935 C   0  0  0  0  0  0  0  0  0  0  0  0
  -17.6712    1.1679  -15.2950 C   0  0  0  0  0  0  0  0  0  0  0  0
  -18.9220    1.0955  -14.8566 C   0  0  0  0  0  0  0  0  0  0  0  0
  -19.7954    2.0977  -14.9825 C   0  0  0  0  0  0  0  0  0  0  0  0
  -20.8296    1.4054  -15.2590 N   0  0  0  0  0  0  0  0  0  0  0  0
  -21.5141    0.9124  -14.2510 C   0  0  0  0  0  0  0  0  0  0  0  0
  -22.3587    1.7551  -13.7800 C   0  0  0  0  0  0  0  0  0  0  0  0
  -21.5833    3.2156  -14.2583 N   0  0  0  0  0  0  0  0  0  0  0  0
  -19.9143    3.3917  -14.8839 C   0  0  0  0  0  0  0  0  0  0  0  0
  -18.2434    3.5253  -15.4947 C   0  0  0  0  0  0  0  0  0  0  0  0
  -23.6324    0.3948  -13.5331 C   0  0  0  0  0  0  0  0  0  0  0  0
  -24.2662   -1.0006  -13.9804 C   0  0  0  0  0  0  0  0  0  0  0  0
  -25.1165   -1.6838  -13.1218 N   0  0  0  0  0  0  0  0  0  0  0  0
  -25.1040   -1.0018  -11.9698 N   0  0  0  0  0  0  0  0  0  0  0  0
  -25.8725   -1.4945  -10.7557 C   0  0  0  0  0  0  0  0  0  0  0  0
  -24.2220    0.1528  -12.1634 C   0  0  0  0  0  0  0  0  0  0  0  0
  -13.6303    0.0369  -14.4953 C   0  0  0  0  0  0  0  0  0  0  0  0
  -13.2647   -0.8009  -15.4750 C   0  0  0  0  0  0  0  0  0  0  0  0
  -13.4832   -0.4116  -16.7638 C   0  0  0  0  0  0  0  0  0  0  0  0
  -14.2813    0.6998  -17.0404 C   0  0  0  0  0  0  0  0  0  0  0  0
  -14.8839    1.4520  -16.0526 C   0  0  0  0  0  0  0  0  0  0  0  0
  -14.2533    1.2517  -14.8249 C   0  0  0  0  0  0  0  0  0  0  0  0
  -14.2001   -1.7849  -13.0783 C   0  0  0  0  0  0  0  0  0  0  0  0
  -13.6092   -0.5102  -13.2633 O   0  0  0  0  0  0  0  0  0  0  0  0
  -12.9306   -1.0748  -17.8089 O   0  0  0  0  0  0  0  0  0  0  0  0
  -13.3735   -0.6000  -19.0789 C   0  0  0  0  0  0  0  0  0  0  0  0
  -15.5016    3.7600  -16.9287 C   0  0  0  0  0  0  0  0  0  0  0  0
  -14.1142    4.3849  -16.6362 C   0  0  0  0  0  0  0  0  0  0  0  0
  -13.0771    4.6935  -17.5840 C   0  0  0  0  0  0  0  0  0  0  0  0
  -12.3186    5.6856  -16.9958 C   0  0  0  0  0  0  0  0  0  0  0  0
  -11.2884    6.6245  -17.5058 C   0  0  0  0  0  0  0  0  0  0  0  0
  -12.6510    5.5904  -15.6856 N   0  0  0  0  0  0  0  0  0  0  0  0
  -11.7852    6.0187  -14.6247 C   0  0  0  0  0  0  0  0  0  0  0  0
  -13.7680    4.8697  -15.4298 N   0  0  0  0  0  0  0  0  0  0  0  0
 24 25  1  0  0  0
 25 18  1  0  0  0
 18 19  1  0  0  0
 18 23  2  0  0  0
 19 20  2  0  0  0
 20 26  1  0  0  0
 20 21  1  0  0  0
 26 27  1  0  0  0
 21 22  2  0  0  0
 22  1  1  0  0  0
 22 23  1  0  0  0
  1 28  1  0  0  0
  1  2  1  0  0  0
 28 29  1  0  0  0
 29 30  1  0  0  0
 29 35  2  0  0  0
 30 31  2  0  0  0
 31 32  1  0  0  0
 31 33  1  0  0  0
 33 34  1  0  0  0
 33 35  1  0  0  0
  2  3  1  0  0  0
  2 11  2  0  0  0
  3  4  2  0  0  0
  4  5  1  0  0  0
  5  6  1  0  0  0
  5 10  2  0  0  0
  6  7  2  0  0  0
  7  8  1  0  0  0
  8 12  1  0  0  0
  8  9  2  0  0  0
 12 13  1  0  0  0
 12 17  2  0  0  0
 13 14  2  0  0  0
 14 15  1  0  0  0
 15 16  1  0  0  0
 15 17  1  0  0  0
  9 10  1  0  0  0
 10 11  1  0  0  0
M  END
> <minimizedAffinity>
-9.39645

$$$$
