CHEMBL1997617


 38 43  0  0  0  0  0  0  0  0999 V2000
  -15.2465    3.1066  -16.2374 N   0  0  0  0  0  0  0  0  0  0  0  0
  -16.6158    3.0919  -16.2472 C   0  0  0  0  0  0  0  0  0  0  0  0
  -17.0587    2.2445  -15.2475 C   0  0  0  0  0  0  0  0  0  0  0  0
  -15.8881    1.6890  -14.6221 C   0  0  0  0  0  0  0  0  0  0  0  0
  -15.5894    0.7639  -13.6027 C   0  0  0  0  0  0  0  0  0  0  0  0
  -16.5307    0.0329  -12.8861 N   0  0  0  0  0  0  0  0  0  0  0  0
  -14.3019    0.5212  -13.2874 N   0  0  0  0  0  0  0  0  0  0  0  0
  -13.3425    1.1656  -13.9733 C   0  0  0  0  0  0  0  0  0  0  0  0
  -13.4933    2.0405  -14.9766 N   0  0  0  0  0  0  0  0  0  0  0  0
  -14.7873    2.2641  -15.2568 C   0  0  0  0  0  0  0  0  0  0  0  0
  -17.3443   -0.2244  -13.4307 H   0  0  0  0  0  0  0  0  0  0  0  0
  -16.0760   -0.7281  -12.3949 H   0  0  0  0  0  0  0  0  0  0  0  0
  -13.5892    6.4167  -18.5700 C   0  0  0  0  0  0  0  0  0  0  0  0
  -12.8609    5.8910  -17.3090 C   0  0  0  0  0  0  0  0  0  0  0  0
  -13.7700    5.0895  -16.3844 C   0  0  0  0  0  0  0  0  0  0  0  0
  -14.4125    3.9143  -17.1240 C   0  0  0  0  0  0  0  0  0  0  0  0
  -15.2012    4.4221  -18.3349 C   0  0  0  0  0  0  0  0  0  0  0  0
  -14.3095    5.2362  -19.2719 C   0  0  0  0  0  0  0  0  0  0  0  0
  -14.4839   10.9516  -20.0874 C   0  0  0  0  0  0  0  0  0  0  0  0
  -13.5460    9.8474  -20.2661 N   0  0  0  0  0  0  0  0  0  0  0  0
  -12.8653    9.5312  -18.9988 C   0  0  0  0  0  0  0  0  0  0  0  0
  -11.9768    8.2731  -19.0999 C   0  0  0  0  0  0  0  0  0  0  0  0
  -12.6789    7.0535  -19.5515 N   0  0  0  0  0  0  0  0  0  0  0  0
  -13.3478    7.3845  -20.8334 C   0  0  0  0  0  0  0  0  0  0  0  0
  -14.2316    8.6583  -20.8065 C   0  0  0  0  0  0  0  0  0  0  0  0
  -18.4816    2.0491  -14.9974 C   0  0  0  0  0  0  0  0  0  0  0  0
  -19.0775    0.7982  -15.2126 C   0  0  0  0  0  0  0  0  0  0  0  0
  -20.4318    0.5977  -14.9450 C   0  0  0  0  0  0  0  0  0  0  0  0
  -21.1842    1.6184  -14.3654 C   0  0  0  0  0  0  0  0  0  0  0  0
  -20.6214    2.8829  -14.2092 C   0  0  0  0  0  0  0  0  0  0  0  0
  -19.2868    3.1033  -14.5558 C   0  0  0  0  0  0  0  0  0  0  0  0
  -22.4919    1.4916  -13.9661 O   0  0  0  0  0  0  0  0  0  0  0  0
  -22.9345    0.2959  -13.4448 C   0  0  0  0  0  0  0  0  0  0  0  0
  -22.5528   -0.2201  -12.2017 C   0  0  0  0  0  0  0  0  0  0  0  0
  -23.0113   -1.4730  -11.7954 C   0  0  0  0  0  0  0  0  0  0  0  0
  -23.9063   -2.1807  -12.5963 C   0  0  0  0  0  0  0  0  0  0  0  0
  -24.3484   -1.6332  -13.8000 C   0  0  0  0  0  0  0  0  0  0  0  0
  -23.8629   -0.3959  -14.2232 C   0  0  0  0  0  0  0  0  0  0  0  0
 19 20  1  0  0  0
 20 21  1  0  0  0
 20 25  1  0  0  0
 21 22  1  0  0  0
 22 23  1  0  0  0
 23 13  1  0  0  0
 23 24  1  0  0  0
 13 14  1  0  0  0
 13 18  1  0  0  0
 14 15  1  0  0  0
 15 16  1  0  0  0
 16  1  1  0  0  0
 16 17  1  0  0  0
  1  2  1  0  0  0
  1 10  1  0  0  0
  2  3  2  0  0  0
  3 26  1  0  0  0
  3  4  1  0  0  0
 26 27  1  0  0  0
 26 31  2  0  0  0
 27 28  2  0  0  0
 28 29  1  0  0  0
 29 32  1  0  0  0
 29 30  2  0  0  0
 32 33  1  0  0  0
 33 34  1  0  0  0
 33 38  2  0  0  0
 34 35  2  0  0  0
 35 36  1  0  0  0
 36 37  2  0  0  0
 37 38  1  0  0  0
 30 31  1  0  0  0
  4  5  1  0  0  0
  4 10  2  0  0  0
  5  6  1  0  0  0
  5  7  2  0  0  0
  6 11  1  0  0  0
  6 12  1  0  0  0
  7  8  1  0  0  0
  8  9  2  0  0  0
  9 10  1  0  0  0
 17 18  1  0  0  0
 24 25  1  0  0  0
M  END
> <minimizedAffinity>
-10.24581

$$$$
