CHEMBL424910


 42 48  0  0  0  0  0  0  0  0999 V2000
  -13.4970   -5.2118  -11.7484 N   0  0  0  0  0  0  0  0  0  0  0  0
  -13.5412   -6.4746  -12.3766 C   0  0  0  0  0  0  0  0  0  0  0  0
  -13.2113   -7.7568  -11.9105 C   0  0  0  0  0  0  0  0  0  0  0  0
  -13.2388   -8.8310  -12.8182 C   0  0  0  0  0  0  0  0  0  0  0  0
  -13.6354   -8.6766  -14.1471 C   0  0  0  0  0  0  0  0  0  0  0  0
  -13.9660   -7.3951  -14.5957 C   0  0  0  0  0  0  0  0  0  0  0  0
  -13.8827   -6.2886  -13.7226 C   0  0  0  0  0  0  0  0  0  0  0  0
  -13.9265   -4.9086  -13.8165 C   0  0  0  0  0  0  0  0  0  0  0  0
  -13.7509   -4.2349  -15.0338 C   0  0  0  0  0  0  0  0  0  0  0  0
  -13.2667   -2.9132  -14.9339 C   0  0  0  0  0  0  0  0  0  0  0  0
  -13.0954   -2.2351  -13.7144 C   0  0  0  0  0  0  0  0  0  0  0  0
  -13.8787   -2.7913  -12.6493 C   0  0  0  0  0  0  0  0  0  0  0  0
  -13.8787   -4.2076  -12.6437 C   0  0  0  0  0  0  0  0  0  0  0  0
  -15.1833   -1.9190  -12.3749 C   0  0  0  0  0  0  0  0  0  0  0  0
  -15.4623   -0.7957  -13.4632 C   0  0  0  0  0  0  0  0  0  0  0  0
  -14.1884   -0.0434  -13.6241 C   0  0  0  0  0  0  0  0  0  0  0  0
  -13.9612    1.2436  -13.3651 N   0  0  0  0  0  0  0  0  0  0  0  0
  -12.6105    1.2804  -13.2317 N   0  0  0  0  0  0  0  0  0  0  0  0
  -11.9661    2.5005  -12.8094 C   0  0  0  0  0  0  0  0  0  0  0  0
  -12.0167    0.0426  -13.3061 C   0  0  0  0  0  0  0  0  0  0  0  0
  -13.0096   -0.7968  -13.7396 C   0  0  0  0  0  0  0  0  0  0  0  0
  -13.1730   -2.3945  -16.2682 C   0  0  0  0  0  0  0  0  0  0  0  0
  -12.9049   -1.2958  -16.7401 O   0  0  0  0  0  0  0  0  0  0  0  0
  -13.5711   -3.4545  -17.0893 N   0  0  0  0  0  0  0  0  0  0  0  0
  -13.9132   -4.6832  -16.4099 C   0  0  0  0  0  0  0  0  0  0  0  0
  -13.7015   -3.2925  -18.0744 H   0  0  0  0  0  0  0  0  0  0  0  0
  -13.7180   -9.7337  -15.0896 N   0  0  0  0  0  0  0  0  0  0  0  0
  -13.0197   -9.8250  -16.2792 C   0  0  0  0  0  0  0  0  0  0  0  0
  -12.2677   -8.9539  -16.7026 O   0  0  0  0  0  0  0  0  0  0  0  0
  -13.2612  -11.0134  -16.9546 N   0  0  0  0  0  0  0  0  0  0  0  0
  -14.3364  -10.4992  -14.8645 H   0  0  0  0  0  0  0  0  0  0  0  0
  -14.1460  -11.4795  -16.7940 H   0  0  0  0  0  0  0  0  0  0  0  0
  -12.5800  -11.3796  -18.1487 C   0  0  0  0  0  0  0  0  0  0  0  0
  -11.4003  -12.1309  -18.1460 C   0  0  0  0  0  0  0  0  0  0  0  0
  -10.6978  -12.3738  -19.3304 C   0  0  0  0  0  0  0  0  0  0  0  0
  -11.1884  -11.8991  -20.5426 C   0  0  0  0  0  0  0  0  0  0  0  0
  -12.3963  -11.2092  -20.5778 C   0  0  0  0  0  0  0  0  0  0  0  0
  -13.0915  -10.9687  -19.3832 C   0  0  0  0  0  0  0  0  0  0  0  0
  -14.2500  -10.2919  -19.4355 F   0  0  0  0  0  0  0  0  0  0  0  0
  -12.9098   -4.9972  -10.4280 C   0  0  0  0  0  0  0  0  0  0  0  0
  -14.5278   -3.4838   -9.1313 C   0  0  0  0  0  0  0  0  0  0  0  0
  -13.9237   -4.8720   -9.2741 C   0  0  0  0  0  0  0  0  0  0  0  0
 41 42  1  0  0  0
 42 40  1  0  0  0
 40  1  1  0  0  0
  1  2  1  0  0  0
  1 13  1  0  0  0
  2  3  1  0  0  0
  2  7  2  0  0  0
  3  4  2  0  0  0
  4  5  1  0  0  0
  5 27  1  0  0  0
  5  6  2  0  0  0
 27 28  1  0  0  0
 27 31  1  0  0  0
 28 29  2  0  0  0
 28 30  1  0  0  0
 30 33  1  0  0  0
 30 32  1  0  0  0
 33 34  1  0  0  0
 33 38  2  0  0  0
 34 35  2  0  0  0
 35 36  1  0  0  0
 36 37  2  0  0  0
 37 38  1  0  0  0
 38 39  1  0  0  0
  6  7  1  0  0  0
  7  8  1  0  0  0
  8  9  1  0  0  0
  8 13  2  0  0  0
  9 10  2  0  0  0
  9 25  1  0  0  0
 10 11  1  0  0  0
 10 22  1  0  0  0
 11 12  2  0  0  0
 11 21  1  0  0  0
 12 13  1  0  0  0
 12 14  1  0  0  0
 14 15  1  0  0  0
 15 16  1  0  0  0
 16 17  2  0  0  0
 16 21  1  0  0  0
 17 18  1  0  0  0
 18 19  1  0  0  0
 18 20  1  0  0  0
 20 21  2  0  0  0
 22 23  2  0  0  0
 22 24  1  0  0  0
 24 25  1  0  0  0
 24 26  1  0  0  0
M  END
> <minimizedAffinity>
-8.14474

$$$$
