CHEMBL1254356


 33 36  0  0  0  0  0  0  0  0999 V2000
  -28.2702   11.7958  -14.1641 C   0  0  0  0  0  0  0  0  0  0  0  0
  -27.0857   12.4261  -13.7959 C   0  0  0  0  0  0  0  0  0  0  0  0
  -25.8749   12.0481  -14.3721 C   0  0  0  0  0  0  0  0  0  0  0  0
  -25.8123   11.0607  -15.3589 C   0  0  0  0  0  0  0  0  0  0  0  0
  -27.0223   10.4676  -15.7642 C   0  0  0  0  0  0  0  0  0  0  0  0
  -27.0457    9.2624  -17.0077 Cl  0  0  0  0  0  0  0  0  0  0  0  0
  -28.2439   10.8371  -15.1775 C   0  0  0  0  0  0  0  0  0  0  0  0
  -24.5837   10.6673  -15.9613 N   0  0  0  0  0  0  0  0  0  0  0  0
  -23.9663   11.3047  -17.0185 C   0  0  0  0  0  0  0  0  0  0  0  0
  -24.3730   12.3460  -17.5296 O   0  0  0  0  0  0  0  0  0  0  0  0
  -22.8470   10.6401  -17.4835 N   0  0  0  0  0  0  0  0  0  0  0  0
  -24.1003    9.8950  -15.5162 H   0  0  0  0  0  0  0  0  0  0  0  0
  -22.6769    9.6875  -17.2026 H   0  0  0  0  0  0  0  0  0  0  0  0
  -22.1245   11.1347  -18.5616 C   0  0  0  0  0  0  0  0  0  0  0  0
  -22.5661   11.8034  -19.7239 C   0  0  0  0  0  0  0  0  0  0  0  0
  -21.5719   12.0905  -20.5625 N   0  0  0  0  0  0  0  0  0  0  0  0
  -20.4823   11.5823  -19.9588 N   0  0  0  0  0  0  0  0  0  0  0  0
  -20.7623   11.0416  -18.7245 C   0  0  0  0  0  0  0  0  0  0  0  0
  -19.1738   11.6555  -20.6341 C   0  0  0  0  0  0  0  0  0  0  0  0
  -18.0844   12.2379  -19.7014 C   0  0  0  0  0  0  0  0  0  0  0  0
  -18.7426   10.2424  -21.0588 C   0  0  0  0  0  0  0  0  0  0  0  0
  -19.2665   12.5660  -21.8725 C   0  0  0  0  0  0  0  0  0  0  0  0
  -29.4930   12.1156  -13.6137 O   0  0  0  0  0  0  0  0  0  0  0  0
  -32.5490   12.3140  -13.3562 C   0  0  0  0  0  0  0  0  0  0  0  0
  -32.0954   12.3838  -11.9853 N   0  0  0  0  0  0  0  0  0  0  0  0
  -32.9251   12.5326  -10.8969 C   0  0  0  0  0  0  0  0  0  0  0  0
  -32.1380   12.5416   -9.7658 C   0  0  0  0  0  0  0  0  0  0  0  0
  -30.7960   12.3931  -10.1828 C   0  0  0  0  0  0  0  0  0  0  0  0
  -29.6767   12.3515   -9.4304 N   0  0  0  0  0  0  0  0  0  0  0  0
  -28.5597   12.1858  -10.1477 C   0  0  0  0  0  0  0  0  0  0  0  0
  -28.4481   12.0721  -11.4808 N   0  0  0  0  0  0  0  0  0  0  0  0
  -29.5732   12.1675  -12.2254 C   0  0  0  0  0  0  0  0  0  0  0  0
  -30.7878   12.2988  -11.5701 C   0  0  0  0  0  0  0  0  0  0  0  0
 24 25  1  0  0  0
 25 26  1  0  0  0
 25 33  1  0  0  0
 26 27  2  0  0  0
 27 28  1  0  0  0
 28 29  1  0  0  0
 28 33  2  0  0  0
 29 30  2  0  0  0
 30 31  1  0  0  0
 31 32  2  0  0  0
 32 23  1  0  0  0
 32 33  1  0  0  0
 23  1  1  0  0  0
  1  2  1  0  0  0
  1  7  2  0  0  0
  2  3  2  0  0  0
  3  4  1  0  0  0
  4  8  1  0  0  0
  4  5  2  0  0  0
  8  9  1  0  0  0
  8 12  1  0  0  0
  9 10  2  0  0  0
  9 11  1  0  0  0
 11 14  1  0  0  0
 11 13  1  0  0  0
 14 15  1  0  0  0
 14 18  2  0  0  0
 15 16  2  0  0  0
 16 17  1  0  0  0
 17 19  1  0  0  0
 17 18  1  0  0  0
 19 20  1  0  0  0
 19 21  1  0  0  0
 19 22  1  0  0  0
  5  6  1  0  0  0
  5  7  1  0  0  0
M  END
> <minimizedAffinity>
-6.61918

$$$$
