CHEMBL2159198


 20 23  0  0  0  0  0  0  0  0999 V2000
  -27.6996   -2.4757   -8.5457 C   0  0  0  0  0  0  0  0  0  0  0  0
  -28.5027   -3.4213   -7.7255 C   0  0  0  0  0  0  0  0  0  0  0  0
  -28.7246   -4.6697   -8.0986 N   0  0  0  0  0  0  0  0  0  0  0  0
  -29.4760   -5.2316   -7.1066 C   0  0  0  0  0  0  0  0  0  0  0  0
  -29.9877   -6.5329   -6.9595 C   0  0  0  0  0  0  0  0  0  0  0  0
  -30.7296   -6.9193   -5.8784 N   0  0  0  0  0  0  0  0  0  0  0  0
  -30.9359   -5.9561   -4.9659 C   0  0  0  0  0  0  0  0  0  0  0  0
  -31.6412   -6.0741   -3.8026 N   0  0  0  0  0  0  0  0  0  0  0  0
  -31.6344   -4.8698   -3.1352 C   0  0  0  0  0  0  0  0  0  0  0  0
  -30.9093   -3.9558   -3.8830 C   0  0  0  0  0  0  0  0  0  0  0  0
  -30.4701   -4.6600   -5.0331 C   0  0  0  0  0  0  0  0  0  0  0  0
  -29.7235   -4.2944   -6.1201 C   0  0  0  0  0  0  0  0  0  0  0  0
  -29.1014   -3.1469   -6.4933 N   0  0  0  0  0  0  0  0  0  0  0  0
  -32.0915   -6.9261   -3.5028 H   0  0  0  0  0  0  0  0  0  0  0  0
  -28.9984   -1.9035   -5.7405 C   0  0  0  0  0  0  0  0  0  0  0  0
  -29.8696   -0.7510   -6.2626 C   0  0  0  0  0  0  0  0  0  0  0  0
  -29.8075    0.4459   -5.3112 C   0  0  0  0  0  0  0  0  0  0  0  0
  -28.3666    0.8862   -5.0587 C   0  0  0  0  0  0  0  0  0  0  0  0
  -27.5047   -0.2621   -4.5388 C   0  0  0  0  0  0  0  0  0  0  0  0
  -27.5497   -1.4681   -5.4758 C   0  0  0  0  0  0  0  0  0  0  0  0
  1  2  1  0  0  0
  2  3  2  0  0  0
  2 13  1  0  0  0
  3  4  1  0  0  0
  4  5  1  0  0  0
  4 12  2  0  0  0
  5  6  2  0  0  0
  6  7  1  0  0  0
  7  8  1  0  0  0
  7 11  2  0  0  0
  8  9  1  0  0  0
  8 14  1  0  0  0
  9 10  2  0  0  0
 10 11  1  0  0  0
 11 12  1  0  0  0
 12 13  1  0  0  0
 13 15  1  0  0  0
 15 16  1  0  0  0
 15 20  1  0  0  0
 16 17  1  0  0  0
 17 18  1  0  0  0
 18 19  1  0  0  0
 19 20  1  0  0  0
M  END
> <minimizedAffinity>
-7.75288

$$$$
