CHEMBL1094196


 40 44  0  0  0  0  0  0  0  0999 V2000
  -27.5000   -2.1417   -9.3214 N   0  0  0  0  0  0  0  0  0  0  0  0
  -27.4479   -0.8986   -8.7891 C   0  0  0  0  0  0  0  0  0  0  0  0
  -27.8867   -0.9338   -7.4634 C   0  0  0  0  0  0  0  0  0  0  0  0
  -28.2115   -2.2496   -7.2105 C   0  0  0  0  0  0  0  0  0  0  0  0
  -28.5611   -2.9008   -6.0231 C   0  0  0  0  0  0  0  0  0  0  0  0
  -28.7234   -4.2996   -6.0509 C   0  0  0  0  0  0  0  0  0  0  0  0
  -28.6073   -4.9940   -7.2905 C   0  0  0  0  0  0  0  0  0  0  0  0
  -28.2381   -4.3191   -8.4557 C   0  0  0  0  0  0  0  0  0  0  0  0
  -28.0132   -2.9479   -8.3735 C   0  0  0  0  0  0  0  0  0  0  0  0
  -26.7766   -2.5877  -10.5138 C   0  0  0  0  0  0  0  0  0  0  0  0
  -23.9271   -0.0794  -12.5261 C   0  0  0  0  0  0  0  0  0  0  0  0
  -23.4917   -1.1597  -11.7284 C   0  0  0  0  0  0  0  0  0  0  0  0
  -24.4016   -1.9410  -11.0231 C   0  0  0  0  0  0  0  0  0  0  0  0
  -25.7662   -1.6668  -11.1103 C   0  0  0  0  0  0  0  0  0  0  0  0
  -26.2115   -0.5790  -11.8771 C   0  0  0  0  0  0  0  0  0  0  0  0
  -25.3021    0.2141  -12.5721 C   0  0  0  0  0  0  0  0  0  0  0  0
  -21.0524    2.1372  -14.8462 C   0  0  0  0  0  0  0  0  0  0  0  0
  -20.9541    0.7425  -14.7168 C   0  0  0  0  0  0  0  0  0  0  0  0
  -21.8829    0.0406  -13.9624 C   0  0  0  0  0  0  0  0  0  0  0  0
  -22.9486    0.7038  -13.3269 C   0  0  0  0  0  0  0  0  0  0  0  0
  -23.0638    2.0993  -13.4849 C   0  0  0  0  0  0  0  0  0  0  0  0
  -22.1148    2.8078  -14.2298 C   0  0  0  0  0  0  0  0  0  0  0  0
  -18.7995    2.9400  -15.2466 C   0  0  0  0  0  0  0  0  0  0  0  0
  -20.1424    2.8557  -15.5551 O   0  0  0  0  0  0  0  0  0  0  0  0
  -27.7884    0.1685   -6.4430 C   0  0  0  0  0  0  0  0  0  0  0  0
  -29.0018    1.1019   -6.5148 C   0  0  0  0  0  0  0  0  0  0  0  0
  -29.7669    1.0337   -5.2771 N   0  0  0  0  0  0  0  0  0  0  0  0
  -30.1216    0.0602   -5.1427 H   0  0  0  0  0  0  0  0  0  0  0  0
  -30.5888    1.6739   -5.3658 H   0  0  0  0  0  0  0  0  0  0  0  0
  -28.9292   -4.9579   -4.8802 O   0  0  0  0  0  0  0  0  0  0  0  0
  -29.8648   -5.9603   -4.7217 C   0  0  0  0  0  0  0  0  0  0  0  0
  -29.2576   -7.3365   -4.9910 C   0  0  0  0  0  0  0  0  0  0  0  0
  -30.1114   -8.0757   -5.9977 C   0  0  0  0  0  0  0  0  0  0  0  0
  -29.6996   -9.3112   -6.5345 C   0  0  0  0  0  0  0  0  0  0  0  0
  -30.4792   -9.9534   -7.4983 C   0  0  0  0  0  0  0  0  0  0  0  0
  -31.6783   -9.3776   -7.9331 C   0  0  0  0  0  0  0  0  0  0  0  0
  -32.4358   -9.9799   -8.8739 O   0  0  0  0  0  0  0  0  0  0  0  0
  -32.1005   -8.1580   -7.3939 C   0  0  0  0  0  0  0  0  0  0  0  0
  -31.3191   -7.5107   -6.4321 C   0  0  0  0  0  0  0  0  0  0  0  0
  -32.1761  -10.8179   -9.2821 H   0  0  0  0  0  0  0  0  0  0  0  0
 23 24  1  0  0  0
 24 17  1  0  0  0
 17 18  1  0  0  0
 17 22  2  0  0  0
 18 19  2  0  0  0
 19 20  1  0  0  0
 20 11  1  0  0  0
 20 21  2  0  0  0
 11 12  1  0  0  0
 11 16  2  0  0  0
 12 13  2  0  0  0
 13 14  1  0  0  0
 14 10  1  0  0  0
 14 15  2  0  0  0
 10  1  1  0  0  0
  1  2  1  0  0  0
  1  9  1  0  0  0
  2  3  2  0  0  0
  3 25  1  0  0  0
  3  4  1  0  0  0
 25 26  1  0  0  0
 26 27  1  0  0  0
 27 28  1  0  0  0
 27 29  1  0  0  0
  4  5  1  0  0  0
  4  9  2  0  0  0
  5  6  2  0  0  0
  6 30  1  0  0  0
  6  7  1  0  0  0
 30 31  1  0  0  0
 31 32  1  0  0  0
 32 33  1  0  0  0
 33 34  1  0  0  0
 33 39  2  0  0  0
 34 35  2  0  0  0
 35 36  1  0  0  0
 36 37  1  0  0  0
 36 38  2  0  0  0
 37 40  1  0  0  0
 38 39  1  0  0  0
  7  8  2  0  0  0
  8  9  1  0  0  0
 15 16  1  0  0  0
 21 22  1  0  0  0
M  END
> <minimizedAffinity>
-9.75646

$$$$
