CHEMBL1985206


 23 26  0  0  0  0  0  0  0  0999 V2000
  -28.0448   -1.7690   -7.6764 C   0  0  0  0  0  0  0  0  0  0  0  0
  -27.9075   -0.6092   -6.9017 C   0  0  0  0  0  0  0  0  0  0  0  0
  -28.3895   -0.5349   -5.5768 C   0  0  0  0  0  0  0  0  0  0  0  0
  -29.0262   -1.6300   -4.9788 C   0  0  0  0  0  0  0  0  0  0  0  0
  -29.1420   -2.7688   -5.7402 C   0  0  0  0  0  0  0  0  0  0  0  0
  -28.6673   -2.8647   -7.0835 C   0  0  0  0  0  0  0  0  0  0  0  0
  -28.9354   -4.2465   -7.7131 C   0  0  0  0  0  0  0  0  0  0  0  0
  -29.6128   -4.8676   -6.5343 C   0  0  0  0  0  0  0  0  0  0  0  0
  -30.2915   -6.0369   -6.1559 C   0  0  0  0  0  0  0  0  0  0  0  0
  -30.7984   -5.9150   -4.9090 N   0  0  0  0  0  0  0  0  0  0  0  0
  -30.4199   -4.6768   -4.5028 N   0  0  0  0  0  0  0  0  0  0  0  0
  -29.7114   -4.0386   -5.4582 C   0  0  0  0  0  0  0  0  0  0  0  0
  -30.7081   -4.3560   -3.5894 H   0  0  0  0  0  0  0  0  0  0  0  0
  -30.4961   -7.2573   -6.9921 C   0  0  0  0  0  0  0  0  0  0  0  0
  -31.6895   -7.9401   -7.1078 C   0  0  0  0  0  0  0  0  0  0  0  0
  -31.5731   -9.0717   -7.9695 C   0  0  0  0  0  0  0  0  0  0  0  0
  -30.2943   -9.2208   -8.4575 C   0  0  0  0  0  0  0  0  0  0  0  0
  -29.2680   -7.9577   -7.9541 S   0  0  0  0  0  0  0  0  0  0  0  0
  -27.0817   -1.8439  -10.2410 C   0  0  0  0  0  0  0  0  0  0  0  0
  -27.5475   -1.8003   -9.0240 C   0  0  0  0  0  0  0  0  0  0  0  0
  -26.5386   -1.8948  -11.6598 C   0  0  0  0  0  0  0  0  0  0  0  0
  -24.7978   -0.3405  -11.8484 C   0  0  0  0  0  0  0  0  0  0  0  0
  -26.1783   -0.5862  -12.0844 O   0  0  0  0  0  0  0  0  0  0  0  0
 22 23  1  0  0  0
 23 21  1  0  0  0
 21 19  1  0  0  0
 19 20  3  0  0  0
 20  1  1  0  0  0
  1  2  1  0  0  0
  1  6  2  0  0  0
  2  3  2  0  0  0
  3  4  1  0  0  0
  4  5  2  0  0  0
  5  6  1  0  0  0
  5 12  1  0  0  0
  6  7  1  0  0  0
  7  8  1  0  0  0
  8  9  1  0  0  0
  8 12  2  0  0  0
  9 14  1  0  0  0
  9 10  2  0  0  0
 14 15  2  0  0  0
 14 18  1  0  0  0
 15 16  1  0  0  0
 16 17  2  0  0  0
 17 18  1  0  0  0
 10 11  1  0  0  0
 11 12  1  0  0  0
 11 13  1  0  0  0
M  END
> <minimizedAffinity>
-8.42034

$$$$
