CHEMBL3986301


 35 38  0  0  0  0  0  0  0  0999 V2000
  -14.8951   -0.5520  -13.1485 C   0  0  0  0  0  0  0  0  0  0  0  0
  -15.6627   -1.4302  -12.3357 C   0  0  0  0  0  0  0  0  0  0  0  0
  -15.5158   -2.8010  -12.3349 C   0  0  0  0  0  0  0  0  0  0  0  0
  -16.3829   -3.5527  -11.6349 N   0  0  0  0  0  0  0  0  0  0  0  0
  -16.2344   -4.8742  -11.7217 C   0  0  0  0  0  0  0  0  0  0  0  0
  -15.2717   -5.5122  -12.3932 N   0  0  0  0  0  0  0  0  0  0  0  0
  -14.3851   -4.7450  -13.0547 C   0  0  0  0  0  0  0  0  0  0  0  0
  -14.4886   -3.3456  -13.0846 C   0  0  0  0  0  0  0  0  0  0  0  0
  -13.6611   -2.4913  -13.8412 C   0  0  0  0  0  0  0  0  0  0  0  0
  -13.8399   -1.1025  -13.8799 C   0  0  0  0  0  0  0  0  0  0  0  0
  -13.2989   -5.3618  -13.7324 N   0  0  0  0  0  0  0  0  0  0  0  0
  -12.6615   -5.7516  -13.0428 H   0  0  0  0  0  0  0  0  0  0  0  0
  -13.4414   -6.1790  -14.8711 C   0  0  0  0  0  0  0  0  0  0  0  0
  -13.2280   -7.5650  -14.7833 C   0  0  0  0  0  0  0  0  0  0  0  0
  -13.2974   -8.3644  -15.9186 C   0  0  0  0  0  0  0  0  0  0  0  0
  -13.5793   -7.7947  -17.1568 C   0  0  0  0  0  0  0  0  0  0  0  0
  -13.5947   -8.8358  -18.5365 Cl  0  0  0  0  0  0  0  0  0  0  0  0
  -13.8246   -6.4212  -17.2513 C   0  0  0  0  0  0  0  0  0  0  0  0
  -14.1875   -5.6435  -18.7528 Cl  0  0  0  0  0  0  0  0  0  0  0  0
  -13.7680   -5.6187  -16.1070 C   0  0  0  0  0  0  0  0  0  0  0  0
  -12.9273   -0.5509  -14.7226 O   0  0  0  0  0  0  0  0  0  0  0  0
  -13.2673   -0.0709  -16.0061 C   0  0  0  0  0  0  0  0  0  0  0  0
  -15.2400    0.7874  -13.2674 O   0  0  0  0  0  0  0  0  0  0  0  0
  -16.6593    0.9632  -13.4998 C   0  0  0  0  0  0  0  0  0  0  0  0
  -19.2994    2.0478  -14.6979 N   0  0  0  0  0  0  0  0  0  0  0  0
  -18.8765    3.0363  -15.7080 C   0  0  0  0  0  0  0  0  0  0  0  0
  -17.4694    3.5561  -15.4494 C   0  0  0  0  0  0  0  0  0  0  0  0
  -16.3324    2.6617  -15.9298 C   0  0  0  0  0  0  0  0  0  0  0  0
  -16.5712    1.2679  -16.0175 O   0  0  0  0  0  0  0  0  0  0  0  0
  -17.1632    0.6022  -14.9036 C   0  0  0  0  0  0  0  0  0  0  0  0
  -18.7140    0.7162  -14.9607 C   0  0  0  0  0  0  0  0  0  0  0  0
  -20.7860    1.9995  -14.6576 C   0  0  0  0  0  0  0  0  0  0  0  0
  -21.4410    0.6043  -14.5754 C   0  0  0  0  0  0  0  0  0  0  0  0
  -23.0796   -0.5794  -13.3663 C   0  0  0  0  0  0  0  0  0  0  0  0
  -22.0500    0.3988  -13.3000 O   0  0  0  0  0  0  0  0  0  0  0  0
 34 35  1  0  0  0
 35 33  1  0  0  0
 33 32  1  0  0  0
 32 25  1  0  0  0
 25 26  1  0  0  0
 25 31  1  0  0  0
 26 27  1  0  0  0
 27 28  1  0  0  0
 28 29  1  0  0  0
 29 30  1  0  0  0
 30 24  1  0  0  0
 30 31  1  0  0  0
 24 23  1  0  0  0
 23  1  1  0  0  0
  1  2  1  0  0  0
  1 10  2  0  0  0
  2  3  2  0  0  0
  3  4  1  0  0  0
  3  8  1  0  0  0
  4  5  2  0  0  0
  5  6  1  0  0  0
  6  7  2  0  0  0
  7 11  1  0  0  0
  7  8  1  0  0  0
 11 13  1  0  0  0
 11 12  1  0  0  0
 13 14  1  0  0  0
 13 20  2  0  0  0
 14 15  2  0  0  0
 15 16  1  0  0  0
 16 17  1  0  0  0
 16 18  2  0  0  0
 18 19  1  0  0  0
 18 20  1  0  0  0
  8  9  2  0  0  0
  9 10  1  0  0  0
 10 21  1  0  0  0
 21 22  1  0  0  0
M  END
> <minimizedAffinity>
-7.34438

$$$$
