CHEMBL1779202


 33 38  0  0  0  0  0  0  0  0999 V2000
  -29.5288   -6.8140   -3.9230 C   0  0  0  0  0  0  0  0  0  0  0  0
  -30.0730   -6.5434   -5.3413 C   0  0  0  0  0  0  0  0  0  0  0  0
  -31.6182   -6.5463   -5.3339 C   0  0  0  0  0  0  0  0  0  0  0  0
  -29.5958   -7.6413   -6.3176 C   0  0  0  0  0  0  0  0  0  0  0  0
  -29.8981   -8.9944   -6.0694 C   0  0  0  0  0  0  0  0  0  0  0  0
  -29.5137  -10.0168   -6.9566 C   0  0  0  0  0  0  0  0  0  0  0  0
  -28.9378   -9.6506   -8.1732 C   0  0  0  0  0  0  0  0  0  0  0  0
  -28.5671   -8.3391   -8.4178 C   0  0  0  0  0  0  0  0  0  0  0  0
  -28.8651   -7.3444   -7.4900 C   0  0  0  0  0  0  0  0  0  0  0  0
  -28.3835   -5.9809   -7.8187 C   0  0  0  0  0  0  0  0  0  0  0  0
  -27.6603   -5.7761   -8.7874 O   0  0  0  0  0  0  0  0  0  0  0  0
  -28.8246   -4.9382   -6.9300 C   0  0  0  0  0  0  0  0  0  0  0  0
  -29.5870   -5.1916   -5.8080 C   0  0  0  0  0  0  0  0  0  0  0  0
  -29.8438   -3.9862   -5.2052 N   0  0  0  0  0  0  0  0  0  0  0  0
  -29.2739   -2.9663   -5.9385 C   0  0  0  0  0  0  0  0  0  0  0  0
  -29.2863   -1.5833   -5.7329 C   0  0  0  0  0  0  0  0  0  0  0  0
  -28.6117   -0.7861   -6.6725 C   0  0  0  0  0  0  0  0  0  0  0  0
  -27.9598   -1.3430   -7.7695 C   0  0  0  0  0  0  0  0  0  0  0  0
  -27.9555   -2.7262   -7.9566 C   0  0  0  0  0  0  0  0  0  0  0  0
  -28.6216   -3.5442   -7.0265 C   0  0  0  0  0  0  0  0  0  0  0  0
  -30.3859   -3.8504   -4.3620 H   0  0  0  0  0  0  0  0  0  0  0  0
  -29.6779  -11.4694   -6.5250 C   0  0  0  0  0  0  0  0  0  0  0  0
  -29.6695  -11.5848   -4.9897 C   0  0  0  0  0  0  0  0  0  0  0  0
  -28.2656  -11.4561   -4.3936 C   0  0  0  0  0  0  0  0  0  0  0  0
  -27.2846  -12.3992   -4.9661 N   0  0  0  0  0  0  0  0  0  0  0  0
  -27.2576  -12.3470   -6.4345 C   0  0  0  0  0  0  0  0  0  0  0  0
  -28.6489  -12.4641   -7.0807 C   0  0  0  0  0  0  0  0  0  0  0  0
  -25.9535  -12.0381   -4.4035 C   0  0  0  0  0  0  0  0  0  0  0  0
  -25.9404  -10.7439   -3.5722 C   0  0  0  0  0  0  0  0  0  0  0  0
  -24.8482  -10.2143   -4.3767 O   0  0  0  0  0  0  0  0  0  0  0  0
  -25.1732  -11.1791   -5.4189 C   0  0  0  0  0  0  0  0  0  0  0  0
  -28.5987    0.6358   -6.4902 C   0  0  0  0  0  0  0  0  0  0  0  0
  -28.5787    1.7835   -6.3521 N   0  0  0  0  0  0  0  0  0  0  0  0
  1  2  1  0  0  0
  2  3  1  0  0  0
  2  4  1  0  0  0
  2 13  1  0  0  0
  4  5  1  0  0  0
  4  9  2  0  0  0
  5  6  2  0  0  0
  6 22  1  0  0  0
  6  7  1  0  0  0
 22 23  1  0  0  0
 22 27  1  0  0  0
 23 24  1  0  0  0
 24 25  1  0  0  0
 25 28  1  0  0  0
 25 26  1  0  0  0
 28 29  1  0  0  0
 28 31  1  0  0  0
 29 30  1  0  0  0
 30 31  1  0  0  0
 26 27  1  0  0  0
  7  8  2  0  0  0
  8  9  1  0  0  0
  9 10  1  0  0  0
 10 11  2  0  0  0
 10 12  1  0  0  0
 12 13  2  0  0  0
 12 20  1  0  0  0
 13 14  1  0  0  0
 14 15  1  0  0  0
 14 21  1  0  0  0
 15 16  1  0  0  0
 15 20  2  0  0  0
 16 17  2  0  0  0
 17 32  1  0  0  0
 17 18  1  0  0  0
 32 33  3  0  0  0
 18 19  2  0  0  0
 19 20  1  0  0  0
M  END
> <minimizedAffinity>
-8.33001

$$$$
