CHEMBL3902353


 37 41  0  0  0  0  0  0  0  0999 V2000
  -28.5823  -10.0977   -5.5765 N   0  0  0  0  0  0  0  0  0  0  0  0
  -28.5003   -8.6533   -5.2338 C   0  0  0  0  0  0  0  0  0  0  0  0
  -28.9570   -8.4046   -3.9423 C   0  0  0  0  0  0  0  0  0  0  0  0
  -29.3639   -7.1922   -3.5432 C   0  0  0  0  0  0  0  0  0  0  0  0
  -29.2676   -6.1089   -4.3524 C   0  0  0  0  0  0  0  0  0  0  0  0
  -29.8631   -5.0375   -3.8623 N   0  0  0  0  0  0  0  0  0  0  0  0
  -29.8352   -3.8776   -4.4557 C   0  0  0  0  0  0  0  0  0  0  0  0
  -29.0712   -3.6704   -5.6008 C   0  0  0  0  0  0  0  0  0  0  0  0
  -28.5284   -4.8284   -6.2383 N   0  0  0  0  0  0  0  0  0  0  0  0
  -28.6533   -6.1082   -5.6180 C   0  0  0  0  0  0  0  0  0  0  0  0
  -28.2682   -7.4655   -6.1094 C   0  0  0  0  0  0  0  0  0  0  0  0
  -28.9052   -2.1260   -5.8692 C   0  0  0  0  0  0  0  0  0  0  0  0
  -27.8505   -1.6407   -6.6895 C   0  0  0  0  0  0  0  0  0  0  0  0
  -27.9152   -0.3297   -6.8673 N   0  0  0  0  0  0  0  0  0  0  0  0
  -28.9579    0.1168   -6.2109 N   0  0  0  0  0  0  0  0  0  0  0  0
  -29.2758    1.5437   -6.3011 C   0  0  0  0  0  0  0  0  0  0  0  0
  -29.6028   -0.9289   -5.5719 C   0  0  0  0  0  0  0  0  0  0  0  0
  -31.4040  -11.5807   -7.6227 C   0  0  0  0  0  0  0  0  0  0  0  0
  -30.8025  -11.7044   -8.8880 C   0  0  0  0  0  0  0  0  0  0  0  0
  -29.4867  -11.3158   -9.0854 C   0  0  0  0  0  0  0  0  0  0  0  0
  -28.7521  -10.8277   -7.9946 C   0  0  0  0  0  0  0  0  0  0  0  0
  -29.3192  -10.7005   -6.6827 C   0  0  0  0  0  0  0  0  0  0  0  0
  -30.6611  -11.0884   -6.5339 C   0  0  0  0  0  0  0  0  0  0  0  0
  -33.4896  -11.5233   -6.3482 C   0  0  0  0  0  0  0  0  0  0  0  0
  -32.7118  -11.9110   -7.4243 O   0  0  0  0  0  0  0  0  0  0  0  0
  -28.9722  -11.4090  -10.3450 O   0  0  0  0  0  0  0  0  0  0  0  0
  -28.8181  -10.3839  -11.2631 C   0  0  0  0  0  0  0  0  0  0  0  0
  -27.6962  -10.9710   -4.7182 C   0  0  0  0  0  0  0  0  0  0  0  0
  -26.2975  -10.9247   -5.3185 C   0  0  0  0  0  0  0  0  0  0  0  0
  -25.1460  -10.1305   -4.6833 C   0  0  0  0  0  0  0  0  0  0  0  0
  -24.0554  -11.0446   -4.2283 N   0  0  0  0  0  0  0  0  0  0  0  0
  -23.7635  -11.0240   -2.7674 C   0  0  0  0  0  0  0  0  0  0  0  0
  -24.6124  -12.0439   -2.0269 C   0  0  0  0  0  0  0  0  0  0  0  0
  -22.2465  -11.2118   -2.6146 C   0  0  0  0  0  0  0  0  0  0  0  0
  -21.8056  -11.7060   -3.9711 C   0  0  0  0  0  0  0  0  0  0  0  0
  -22.7316  -10.9225   -4.8873 C   0  0  0  0  0  0  0  0  0  0  0  0
  -22.6941  -11.4682   -6.3182 C   0  0  0  0  0  0  0  0  0  0  0  0
 24 25  1  0  0  0
 25 18  1  0  0  0
 18 19  1  0  0  0
 18 23  2  0  0  0
 19 20  2  0  0  0
 20 26  1  0  0  0
 20 21  1  0  0  0
 26 27  1  0  0  0
 21 22  2  0  0  0
 22  1  1  0  0  0
 22 23  1  0  0  0
  1 28  1  0  0  0
  1  2  1  0  0  0
 28 29  1  0  0  0
 29 30  1  0  0  0
 30 31  1  0  0  0
 31 32  1  0  0  0
 31 36  1  0  0  0
 32 33  1  0  0  0
 32 34  1  0  0  0
 34 35  1  0  0  0
 35 36  1  0  0  0
 36 37  1  0  0  0
  2  3  1  0  0  0
  2 11  2  0  0  0
  3  4  2  0  0  0
  4  5  1  0  0  0
  5  6  1  0  0  0
  5 10  2  0  0  0
  6  7  2  0  0  0
  7  8  1  0  0  0
  8 12  1  0  0  0
  8  9  2  0  0  0
 12 13  1  0  0  0
 12 17  2  0  0  0
 13 14  2  0  0  0
 14 15  1  0  0  0
 15 16  1  0  0  0
 15 17  1  0  0  0
  9 10  1  0  0  0
 10 11  1  0  0  0
M  END
> <minimizedAffinity>
-8.09094

$$$$
