CHEMBL2001239


 35 37  0  0  0  0  0  0  0  0999 V2000
  -30.0248   -7.0519   -6.7293 C   0  0  0  0  0  0  0  0  0  0  0  0
  -29.2003   -7.8740   -5.9572 C   0  0  0  0  0  0  0  0  0  0  0  0
  -28.2784   -7.3275   -5.0578 C   0  0  0  0  0  0  0  0  0  0  0  0
  -28.1864   -5.9319   -4.9513 C   0  0  0  0  0  0  0  0  0  0  0  0
  -27.2637   -5.4294   -4.0709 O   0  0  0  0  0  0  0  0  0  0  0  0
  -28.9806   -5.0528   -5.7079 C   0  0  0  0  0  0  0  0  0  0  0  0
  -29.8923   -5.6576   -6.5941 C   0  0  0  0  0  0  0  0  0  0  0  0
  -26.3945   -5.4892   -4.5297 H   0  0  0  0  0  0  0  0  0  0  0  0
  -28.8661   -3.5705   -5.6060 C   0  0  0  0  0  0  0  0  0  0  0  0
  -28.0162   -2.8280   -6.4499 C   0  0  0  0  0  0  0  0  0  0  0  0
  -27.8666   -1.4430   -6.2980 C   0  0  0  0  0  0  0  0  0  0  0  0
  -28.5539   -0.7737   -5.2895 C   0  0  0  0  0  0  0  0  0  0  0  0
  -28.3342    0.9152   -5.0670 Cl  0  0  0  0  0  0  0  0  0  0  0  0
  -29.4181   -1.4703   -4.4583 C   0  0  0  0  0  0  0  0  0  0  0  0
  -29.5865   -2.8437   -4.6382 C   0  0  0  0  0  0  0  0  0  0  0  0
  -30.9008   -7.6424   -7.6483 N   0  0  0  0  0  0  0  0  0  0  0  0
  -31.4105   -7.0424   -8.2777 H   0  0  0  0  0  0  0  0  0  0  0  0
  -33.5592  -11.1080   -6.0782 N   0  0  0  0  0  0  0  0  0  0  0  0
  -32.6013  -10.6359   -6.9595 C   0  0  0  0  0  0  0  0  0  0  0  0
  -32.1506  -11.5042   -7.8510 N   0  0  0  0  0  0  0  0  0  0  0  0
  -31.2525  -10.9994   -8.6871 C   0  0  0  0  0  0  0  0  0  0  0  0
  -30.8266   -9.7504   -8.7003 N   0  0  0  0  0  0  0  0  0  0  0  0
  -31.3393   -8.9617   -7.7617 C   0  0  0  0  0  0  0  0  0  0  0  0
  -32.2398   -9.3686   -6.8690 N   0  0  0  0  0  0  0  0  0  0  0  0
  -34.0050  -11.9312   -6.4638 H   0  0  0  0  0  0  0  0  0  0  0  0
  -34.1628  -10.3587   -5.7725 H   0  0  0  0  0  0  0  0  0  0  0  0
  -27.3855   -8.2240   -4.2479 C   0  0  0  0  0  0  0  0  0  0  0  0
  -26.3143   -8.7946   -5.0389 N   0  0  0  0  0  0  0  0  0  0  0  0
  -25.1750   -9.3814   -4.4892 C   0  0  0  0  0  0  0  0  0  0  0  0
  -24.9261   -9.3522   -3.2812 O   0  0  0  0  0  0  0  0  0  0  0  0
  -26.4050   -8.7778   -6.0492 H   0  0  0  0  0  0  0  0  0  0  0  0
  -24.2503  -10.0690   -5.5140 C   0  0  0  0  0  0  0  0  0  0  0  0
  -24.8927  -10.3118   -6.6945 F   0  0  0  0  0  0  0  0  0  0  0  0
  -23.1601   -9.3166   -5.8196 F   0  0  0  0  0  0  0  0  0  0  0  0
  -23.7926  -11.2703   -5.0707 F   0  0  0  0  0  0  0  0  0  0  0  0
 18 19  1  0  0  0
 18 25  1  0  0  0
 18 26  1  0  0  0
 19 20  1  0  0  0
 19 24  2  0  0  0
 20 21  2  0  0  0
 21 22  1  0  0  0
 22 23  2  0  0  0
 23 16  1  0  0  0
 23 24  1  0  0  0
 16  1  1  0  0  0
 16 17  1  0  0  0
  1  2  1  0  0  0
  1  7  2  0  0  0
  2  3  2  0  0  0
  3 27  1  0  0  0
  3  4  1  0  0  0
 27 28  1  0  0  0
 28 29  1  0  0  0
 28 31  1  0  0  0
 29 30  2  0  0  0
 29 32  1  0  0  0
 32 33  1  0  0  0
 32 34  1  0  0  0
 32 35  1  0  0  0
  4  5  1  0  0  0
  4  6  2  0  0  0
  5  8  1  0  0  0
  6  9  1  0  0  0
  6  7  1  0  0  0
  9 10  1  0  0  0
  9 15  2  0  0  0
 10 11  2  0  0  0
 11 12  1  0  0  0
 12 13  1  0  0  0
 12 14  2  0  0  0
 14 15  1  0  0  0
M  END
> <minimizedAffinity>
-9.11570

$$$$
