CHEMBL1985095


 37 42  0  0  0  0  0  0  0  0999 V2000
  -29.8065   -6.2998   -6.8785 C   0  0  0  0  0  0  0  0  0  0  0  0
  -28.7432   -7.2102   -6.9533 C   0  0  0  0  0  0  0  0  0  0  0  0
  -28.9394   -8.5748   -7.2390 C   0  0  0  0  0  0  0  0  0  0  0  0
  -30.2684   -8.9764   -7.4672 C   0  0  0  0  0  0  0  0  0  0  0  0
  -30.8268  -10.1943   -7.7631 N   0  0  0  0  0  0  0  0  0  0  0  0
  -32.1632  -10.1797   -7.9006 N   0  0  0  0  0  0  0  0  0  0  0  0
  -32.4761   -8.9024   -7.6796 C   0  0  0  0  0  0  0  0  0  0  0  0
  -31.3448   -8.1020   -7.4083 C   0  0  0  0  0  0  0  0  0  0  0  0
  -31.1192   -6.7480   -7.1058 C   0  0  0  0  0  0  0  0  0  0  0  0
  -30.3370  -11.0779   -7.8494 H   0  0  0  0  0  0  0  0  0  0  0  0
  -29.6103   -2.9927   -5.3729 N   0  0  0  0  0  0  0  0  0  0  0  0
  -30.0411   -4.2972   -5.3941 C   0  0  0  0  0  0  0  0  0  0  0  0
  -29.5522   -4.9037   -6.5387 C   0  0  0  0  0  0  0  0  0  0  0  0
  -28.8173   -3.9025   -7.2433 C   0  0  0  0  0  0  0  0  0  0  0  0
  -28.1583   -3.9854   -8.4202 N   0  0  0  0  0  0  0  0  0  0  0  0
  -27.5850   -2.8514   -8.8194 C   0  0  0  0  0  0  0  0  0  0  0  0
  -26.9209   -2.8754  -10.0316 N   0  0  0  0  0  0  0  0  0  0  0  0
  -27.5618   -1.6929   -8.1461 N   0  0  0  0  0  0  0  0  0  0  0  0
  -28.2162   -1.6089   -6.9697 C   0  0  0  0  0  0  0  0  0  0  0  0
  -28.8653   -2.7320   -6.4963 C   0  0  0  0  0  0  0  0  0  0  0  0
  -26.6283   -3.8185  -10.2435 H   0  0  0  0  0  0  0  0  0  0  0  0
  -26.2159   -2.1523  -10.0419 H   0  0  0  0  0  0  0  0  0  0  0  0
  -29.8722   -2.0726   -4.2792 C   0  0  0  0  0  0  0  0  0  0  0  0
  -30.6283   -2.8240   -2.0784 N   0  0  0  0  0  0  0  0  0  0  0  0
  -29.5732   -2.6940   -2.9381 C   0  0  0  0  0  0  0  0  0  0  0  0
  -28.4533   -3.0747   -2.6095 O   0  0  0  0  0  0  0  0  0  0  0  0
  -30.4456   -3.2375   -1.1716 H   0  0  0  0  0  0  0  0  0  0  0  0
  -31.5828   -2.5891   -2.3118 H   0  0  0  0  0  0  0  0  0  0  0  0
  -27.8250   -9.5279   -7.2635 C   0  0  0  0  0  0  0  0  0  0  0  0
  -27.2501  -10.1606   -8.3507 C   0  0  0  0  0  0  0  0  0  0  0  0
  -26.1005  -10.9528   -8.0154 C   0  0  0  0  0  0  0  0  0  0  0  0
  -25.2203  -11.7071   -8.8293 C   0  0  0  0  0  0  0  0  0  0  0  0
  -24.1324  -12.3724   -8.2584 C   0  0  0  0  0  0  0  0  0  0  0  0
  -23.9093  -12.3201   -6.8879 C   0  0  0  0  0  0  0  0  0  0  0  0
  -24.7694  -11.6014   -6.0602 C   0  0  0  0  0  0  0  0  0  0  0  0
  -25.8496  -10.9141   -6.6441 C   0  0  0  0  0  0  0  0  0  0  0  0
  -26.9860   -9.9334   -5.8270 S   0  0  0  0  0  0  0  0  0  0  0  0
 24 25  1  0  0  0
 24 27  1  0  0  0
 24 28  1  0  0  0
 25 26  2  0  0  0
 25 23  1  0  0  0
 23 11  1  0  0  0
 11 12  1  0  0  0
 11 20  1  0  0  0
 12 13  2  0  0  0
 13  1  1  0  0  0
 13 14  1  0  0  0
  1  2  1  0  0  0
  1  9  2  0  0  0
  2  3  2  0  0  0
  3 29  1  0  0  0
  3  4  1  0  0  0
 29 30  2  0  0  0
 29 37  1  0  0  0
 30 31  1  0  0  0
 31 32  1  0  0  0
 31 36  2  0  0  0
 32 33  2  0  0  0
 33 34  1  0  0  0
 34 35  2  0  0  0
 35 36  1  0  0  0
 36 37  1  0  0  0
  4  5  1  0  0  0
  4  8  2  0  0  0
  5  6  1  0  0  0
  5 10  1  0  0  0
  6  7  2  0  0  0
  7  8  1  0  0  0
  8  9  1  0  0  0
 14 15  1  0  0  0
 14 20  2  0  0  0
 15 16  2  0  0  0
 16 17  1  0  0  0
 16 18  1  0  0  0
 17 21  1  0  0  0
 17 22  1  0  0  0
 18 19  2  0  0  0
 19 20  1  0  0  0
M  END
> <minimizedAffinity>
-9.29608

$$$$
