CHEMBL249179


 29 31  0  0  0  0  0  0  0  0999 V2000
  -26.6120   -1.6747  -12.1000 C   0  0  0  0  0  0  0  0  0  0  0  0
  -27.8133   -2.0241  -12.7415 C   0  0  0  0  0  0  0  0  0  0  0  0
  -27.8951   -2.0191  -14.1250 C   0  0  0  0  0  0  0  0  0  0  0  0
  -26.7652   -1.6602  -14.8267 C   0  0  0  0  0  0  0  0  0  0  0  0
  -25.6013   -1.2941  -14.2429 N   0  0  0  0  0  0  0  0  0  0  0  0
  -25.5170   -1.2999  -12.8889 C   0  0  0  0  0  0  0  0  0  0  0  0
  -25.5244   -1.6150  -10.0659 O   0  0  0  0  0  0  0  0  0  0  0  0
  -26.6107   -1.7653  -10.6167 C   0  0  0  0  0  0  0  0  0  0  0  0
  -27.8099   -2.0312   -9.9775 N   0  0  0  0  0  0  0  0  0  0  0  0
  -28.6295   -2.1202  -10.5706 H   0  0  0  0  0  0  0  0  0  0  0  0
  -27.9912   -2.1981   -8.5812 C   0  0  0  0  0  0  0  0  0  0  0  0
  -27.7620   -1.1847   -7.6465 C   0  0  0  0  0  0  0  0  0  0  0  0
  -27.9561   -1.3989   -6.2777 C   0  0  0  0  0  0  0  0  0  0  0  0
  -28.3813   -2.6430   -5.8052 C   0  0  0  0  0  0  0  0  0  0  0  0
  -28.6139   -3.6651   -6.7379 C   0  0  0  0  0  0  0  0  0  0  0  0
  -28.4216   -3.4442   -8.1131 C   0  0  0  0  0  0  0  0  0  0  0  0
  -28.5835   -2.8775   -4.3278 C   0  0  0  0  0  0  0  0  0  0  0  0
  -27.7918   -3.8639   -3.8184 F   0  0  0  0  0  0  0  0  0  0  0  0
  -28.3205   -1.7699   -3.5813 F   0  0  0  0  0  0  0  0  0  0  0  0
  -29.8618   -3.2377   -4.0261 F   0  0  0  0  0  0  0  0  0  0  0  0
  -24.3001   -0.9101  -12.2981 N   0  0  0  0  0  0  0  0  0  0  0  0
  -24.2203   -1.3742  -11.3927 H   0  0  0  0  0  0  0  0  0  0  0  0
  -23.1206   -1.1773  -13.1198 C   0  0  0  0  0  0  0  0  0  0  0  0
  -22.5776    0.1470  -13.5922 C   0  0  0  0  0  0  0  0  0  0  0  0
  -23.2220    1.3505  -13.2998 C   0  0  0  0  0  0  0  0  0  0  0  0
  -22.6751    2.5270  -13.7893 C   0  0  0  0  0  0  0  0  0  0  0  0
  -21.5529    2.5820  -14.5393 N   0  0  0  0  0  0  0  0  0  0  0  0
  -20.9454    1.4082  -14.8101 C   0  0  0  0  0  0  0  0  0  0  0  0
  -21.4129    0.1836  -14.3682 C   0  0  0  0  0  0  0  0  0  0  0  0
  7  8  2  0  0  0
  8  9  1  0  0  0
  8  1  1  0  0  0
  9 11  1  0  0  0
  9 10  1  0  0  0
 11 12  1  0  0  0
 11 16  2  0  0  0
 12 13  2  0  0  0
 13 14  1  0  0  0
 14 17  1  0  0  0
 14 15  2  0  0  0
 17 18  1  0  0  0
 17 19  1  0  0  0
 17 20  1  0  0  0
 15 16  1  0  0  0
  1  2  1  0  0  0
  1  6  2  0  0  0
  2  3  2  0  0  0
  3  4  1  0  0  0
  4  5  2  0  0  0
  5  6  1  0  0  0
  6 21  1  0  0  0
 21 23  1  0  0  0
 21 22  1  0  0  0
 23 24  1  0  0  0
 24 25  1  0  0  0
 24 29  2  0  0  0
 25 26  2  0  0  0
 26 27  1  0  0  0
 27 28  2  0  0  0
 28 29  1  0  0  0
M  END
> <minimizedAffinity>
-9.38608

$$$$
