CHEMBL3221558


 29 31  0  0  0  0  0  0  0  0999 V2000
  -28.2966   -6.3705   -6.1408 N   0  0  0  0  0  0  0  0  0  0  0  0
  -27.3253   -6.1334   -6.3787 H   0  0  0  0  0  0  0  0  0  0  0  0
  -29.0803   -5.4342   -5.3824 C   0  0  0  0  0  0  0  0  0  0  0  0
  -29.9332   -5.8935   -4.4268 N   0  0  0  0  0  0  0  0  0  0  0  0
  -30.7056   -5.0791   -3.6784 C   0  0  0  0  0  0  0  0  0  0  0  0
  -30.6632   -3.7474   -3.8700 N   0  0  0  0  0  0  0  0  0  0  0  0
  -29.8554   -3.2081   -4.8180 C   0  0  0  0  0  0  0  0  0  0  0  0
  -29.8435   -1.8288   -4.9926 C   0  0  0  0  0  0  0  0  0  0  0  0
  -29.0290   -1.2173   -5.9732 C   0  0  0  0  0  0  0  0  0  0  0  0
  -28.2095   -2.0504   -6.7876 C   0  0  0  0  0  0  0  0  0  0  0  0
  -28.2249   -3.4351   -6.5907 C   0  0  0  0  0  0  0  0  0  0  0  0
  -29.0367   -4.0356   -5.6159 C   0  0  0  0  0  0  0  0  0  0  0  0
  -29.0353    0.1371   -6.1233 O   0  0  0  0  0  0  0  0  0  0  0  0
  -30.0660    0.9659   -5.7093 C   0  0  0  0  0  0  0  0  0  0  0  0
  -27.3828   -1.6325   -7.7827 O   0  0  0  0  0  0  0  0  0  0  0  0
  -27.4318   -1.8521   -9.1370 C   0  0  0  0  0  0  0  0  0  0  0  0
  -29.8959   -9.9051   -7.9003 C   0  0  0  0  0  0  0  0  0  0  0  0
  -29.8440   -8.6961   -8.6206 C   0  0  0  0  0  0  0  0  0  0  0  0
  -29.3074   -7.5462   -8.0318 C   0  0  0  0  0  0  0  0  0  0  0  0
  -28.7987   -7.5823   -6.7223 C   0  0  0  0  0  0  0  0  0  0  0  0
  -28.8066   -8.8169   -6.0375 C   0  0  0  0  0  0  0  0  0  0  0  0
  -29.3680   -9.9534   -6.6066 C   0  0  0  0  0  0  0  0  0  0  0  0
  -29.3483  -11.4511   -5.6813 Cl  0  0  0  0  0  0  0  0  0  0  0  0
  -31.7689  -11.4401   -8.2029 C   0  0  0  0  0  0  0  0  0  0  0  0
  -32.2152  -12.4502   -8.7297 O   0  0  0  0  0  0  0  0  0  0  0  0
  -30.4897  -11.0734   -8.4543 N   0  0  0  0  0  0  0  0  0  0  0  0
  -29.9525  -11.6167   -9.1473 H   0  0  0  0  0  0  0  0  0  0  0  0
  -33.3499  -11.0586   -6.4240 C   0  0  0  0  0  0  0  0  0  0  0  0
  -32.5792  -10.6262   -7.4792 O   0  0  0  0  0  0  0  0  0  0  0  0
 28 29  1  0  0  0
 29 24  1  0  0  0
 24 25  2  0  0  0
 24 26  1  0  0  0
 26 17  1  0  0  0
 26 27  1  0  0  0
 17 18  1  0  0  0
 17 22  2  0  0  0
 18 19  2  0  0  0
 19 20  1  0  0  0
 20  1  1  0  0  0
 20 21  2  0  0  0
  1  3  1  0  0  0
  1  2  1  0  0  0
  3  4  1  0  0  0
  3 12  2  0  0  0
  4  5  2  0  0  0
  5  6  1  0  0  0
  6  7  2  0  0  0
  7  8  1  0  0  0
  7 12  1  0  0  0
  8  9  2  0  0  0
  9 13  1  0  0  0
  9 10  1  0  0  0
 13 14  1  0  0  0
 10 15  1  0  0  0
 10 11  2  0  0  0
 15 16  1  0  0  0
 11 12  1  0  0  0
 21 22  1  0  0  0
 22 23  1  0  0  0
M  END
> <minimizedAffinity>
-7.55311

$$$$
