CHEMBL243917


 44 48  0  0  0  0  0  0  0  0999 V2000
  -24.9737   -1.6478  -12.2082 C   0  0  0  0  0  0  0  0  0  0  0  0
  -23.8756   -0.9432  -11.7393 C   0  0  0  0  0  0  0  0  0  0  0  0
  -23.1503   -0.0890  -12.5645 C   0  0  0  0  0  0  0  0  0  0  0  0
  -23.4610   -0.0074  -13.9134 C   0  0  0  0  0  0  0  0  0  0  0  0
  -24.5428   -0.7430  -14.4112 C   0  0  0  0  0  0  0  0  0  0  0  0
  -25.2997   -1.5658  -13.5675 C   0  0  0  0  0  0  0  0  0  0  0  0
  -26.0460   -0.8286   -9.6786 O   0  0  0  0  0  0  0  0  0  0  0  0
  -26.3043   -1.9354  -10.1380 C   0  0  0  0  0  0  0  0  0  0  0  0
  -25.8159   -2.4085  -11.3460 N   0  0  0  0  0  0  0  0  0  0  0  0
  -27.1526   -2.8236   -9.5098 N   0  0  0  0  0  0  0  0  0  0  0  0
  -26.2485   -3.2317  -11.7344 H   0  0  0  0  0  0  0  0  0  0  0  0
  -27.2335   -3.7602   -9.8805 H   0  0  0  0  0  0  0  0  0  0  0  0
  -27.8768   -2.5595   -8.3177 C   0  0  0  0  0  0  0  0  0  0  0  0
  -27.9114   -1.3134   -7.6769 C   0  0  0  0  0  0  0  0  0  0  0  0
  -28.6565   -1.1040   -6.5035 C   0  0  0  0  0  0  0  0  0  0  0  0
  -29.3854   -2.1752   -5.9688 C   0  0  0  0  0  0  0  0  0  0  0  0
  -29.3641   -3.4230   -6.5958 C   0  0  0  0  0  0  0  0  0  0  0  0
  -28.6141   -3.6047   -7.7567 C   0  0  0  0  0  0  0  0  0  0  0  0
  -28.6107   -4.8107   -8.3466 F   0  0  0  0  0  0  0  0  0  0  0  0
  -28.6778    0.2519   -5.8361 C   0  0  0  0  0  0  0  0  0  0  0  0
  -27.6165    0.4839   -5.0118 F   0  0  0  0  0  0  0  0  0  0  0  0
  -28.6734    1.2704   -6.7398 F   0  0  0  0  0  0  0  0  0  0  0  0
  -29.7892    0.4364   -5.0711 F   0  0  0  0  0  0  0  0  0  0  0  0
  -22.8341    0.8423  -14.7804 O   0  0  0  0  0  0  0  0  0  0  0  0
  -21.4930    1.1467  -14.6561 C   0  0  0  0  0  0  0  0  0  0  0  0
  -21.2737    2.4652  -14.2370 C   0  0  0  0  0  0  0  0  0  0  0  0
  -20.0126    3.0464  -14.3207 C   0  0  0  0  0  0  0  0  0  0  0  0
  -18.9926    2.2130  -14.7551 C   0  0  0  0  0  0  0  0  0  0  0  0
  -17.7273    2.4628  -15.1983 N   0  0  0  0  0  0  0  0  0  0  0  0
  -17.0057    1.3060  -15.0979 C   0  0  0  0  0  0  0  0  0  0  0  0
  -17.8450    0.2896  -15.1473 N   0  0  0  0  0  0  0  0  0  0  0  0
  -19.1108    0.8478  -14.9824 C   0  0  0  0  0  0  0  0  0  0  0  0
  -20.4116    0.3096  -15.0161 C   0  0  0  0  0  0  0  0  0  0  0  0
  -17.4708    3.2411  -15.7838 H   0  0  0  0  0  0  0  0  0  0  0  0
  -15.6379    1.4267  -14.9725 N   0  0  0  0  0  0  0  0  0  0  0  0
  -14.9183    1.1421  -13.8407 C   0  0  0  0  0  0  0  0  0  0  0  0
  -15.3451    0.5956  -12.8170 O   0  0  0  0  0  0  0  0  0  0  0  0
  -15.1471    1.8390  -15.7486 H   0  0  0  0  0  0  0  0  0  0  0  0
  -13.4563    1.5028  -13.9028 C   0  0  0  0  0  0  0  0  0  0  0  0
  -12.9998    2.8039  -14.1770 C   0  0  0  0  0  0  0  0  0  0  0  0
  -11.6237    3.0740  -14.2397 C   0  0  0  0  0  0  0  0  0  0  0  0
  -10.6991    2.0530  -14.0180 C   0  0  0  0  0  0  0  0  0  0  0  0
  -11.1438    0.7688  -13.7247 C   0  0  0  0  0  0  0  0  0  0  0  0
  -12.5132    0.4964  -13.6663 C   0  0  0  0  0  0  0  0  0  0  0  0
  7  8  2  0  0  0
  8  9  1  0  0  0
  8 10  1  0  0  0
  9  1  1  0  0  0
  9 11  1  0  0  0
  1  2  1  0  0  0
  1  6  2  0  0  0
  2  3  2  0  0  0
  3  4  1  0  0  0
  4 24  1  0  0  0
  4  5  2  0  0  0
 24 25  1  0  0  0
 25 26  1  0  0  0
 25 33  2  0  0  0
 26 27  2  0  0  0
 27 28  1  0  0  0
 28 29  1  0  0  0
 28 32  2  0  0  0
 29 30  1  0  0  0
 29 34  1  0  0  0
 30 35  1  0  0  0
 30 31  2  0  0  0
 35 36  1  0  0  0
 35 38  1  0  0  0
 36 37  2  0  0  0
 36 39  1  0  0  0
 39 40  1  0  0  0
 39 44  2  0  0  0
 40 41  2  0  0  0
 41 42  1  0  0  0
 42 43  2  0  0  0
 43 44  1  0  0  0
 31 32  1  0  0  0
 32 33  1  0  0  0
  5  6  1  0  0  0
 10 13  1  0  0  0
 10 12  1  0  0  0
 13 14  1  0  0  0
 13 18  2  0  0  0
 14 15  2  0  0  0
 15 20  1  0  0  0
 15 16  1  0  0  0
 20 21  1  0  0  0
 20 22  1  0  0  0
 20 23  1  0  0  0
 16 17  2  0  0  0
 17 18  1  0  0  0
 18 19  1  0  0  0
M  END
> <minimizedAffinity>
-11.88458

$$$$
