CHEMBL45752


 27 30  0  0  0  0  0  0  0  0999 V2000
  -27.4716   -8.6590   -4.9098 C   0  0  0  0  0  0  0  0  0  0  0  0
  -26.7818   -9.6452   -4.3216 N   0  0  0  0  0  0  0  0  0  0  0  0
  -26.5159  -10.7541   -5.0271 C   0  0  0  0  0  0  0  0  0  0  0  0
  -26.9159  -10.9319   -6.3216 C   0  0  0  0  0  0  0  0  0  0  0  0
  -27.5901   -9.8642   -6.8743 C   0  0  0  0  0  0  0  0  0  0  0  0
  -27.8972   -8.7460   -6.1755 N   0  0  0  0  0  0  0  0  0  0  0  0
  -27.8891   -9.8927   -8.2640 N   0  0  0  0  0  0  0  0  0  0  0  0
  -26.9803  -10.1536   -9.2711 C   0  0  0  0  0  0  0  0  0  0  0  0
  -27.7104  -10.2162  -10.4251 C   0  0  0  0  0  0  0  0  0  0  0  0
  -29.0220   -9.9186  -10.1850 N   0  0  0  0  0  0  0  0  0  0  0  0
  -29.1204   -9.6560   -8.8859 C   0  0  0  0  0  0  0  0  0  0  0  0
  -30.3443   -9.1195   -8.2560 C   0  0  0  0  0  0  0  0  0  0  0  0
  -31.4960   -9.9161   -8.2017 C   0  0  0  0  0  0  0  0  0  0  0  0
  -32.6618   -9.4506   -7.5839 C   0  0  0  0  0  0  0  0  0  0  0  0
  -32.6893   -8.1845   -7.0029 C   0  0  0  0  0  0  0  0  0  0  0  0
  -31.5711   -7.3637   -7.0861 C   0  0  0  0  0  0  0  0  0  0  0  0
  -30.4260   -7.8153   -7.7452 C   0  0  0  0  0  0  0  0  0  0  0  0
  -27.7129   -7.4458   -4.2595 N   0  0  0  0  0  0  0  0  0  0  0  0
  -27.3641   -7.5053   -3.3107 H   0  0  0  0  0  0  0  0  0  0  0  0
  -29.1746   -3.5579   -6.9565 C   0  0  0  0  0  0  0  0  0  0  0  0
  -29.4293   -4.5037   -5.8203 C   0  0  0  0  0  0  0  0  0  0  0  0
  -30.5931   -4.4531   -5.0592 C   0  0  0  0  0  0  0  0  0  0  0  0
  -30.7915   -5.3597   -4.0116 C   0  0  0  0  0  0  0  0  0  0  0  0
  -32.0400   -5.2976   -3.1810 C   0  0  0  0  0  0  0  0  0  0  0  0
  -29.8151   -6.3405   -3.7494 C   0  0  0  0  0  0  0  0  0  0  0  0
  -28.6488   -6.4356   -4.5250 C   0  0  0  0  0  0  0  0  0  0  0  0
  -28.4653   -5.4799   -5.5300 C   0  0  0  0  0  0  0  0  0  0  0  0
 20 21  1  0  0  0
 21 22  1  0  0  0
 21 27  2  0  0  0
 22 23  2  0  0  0
 23 24  1  0  0  0
 23 25  1  0  0  0
 25 26  2  0  0  0
 26 18  1  0  0  0
 26 27  1  0  0  0
 18  1  1  0  0  0
 18 19  1  0  0  0
  1  2  1  0  0  0
  1  6  2  0  0  0
  2  3  2  0  0  0
  3  4  1  0  0  0
  4  5  2  0  0  0
  5  7  1  0  0  0
  5  6  1  0  0  0
  7  8  1  0  0  0
  7 11  1  0  0  0
  8  9  2  0  0  0
  9 10  1  0  0  0
 10 11  2  0  0  0
 11 12  1  0  0  0
 12 13  1  0  0  0
 12 17  2  0  0  0
 13 14  2  0  0  0
 14 15  1  0  0  0
 15 16  2  0  0  0
 16 17  1  0  0  0
M  END
> <minimizedAffinity>
-8.03913

$$$$
