CHEMBL205658


 21 23  0  0  0  0  0  0  0  0999 V2000
  -28.8537   -3.6488   -5.3876 C   0  0  0  0  0  0  0  0  0  0  0  0
  -28.4502   -3.3819   -6.6437 C   0  0  0  0  0  0  0  0  0  0  0  0
  -28.2641   -4.2558   -7.8267 C   0  0  0  0  0  0  0  0  0  0  0  0
  -28.5655   -5.4284   -7.9664 O   0  0  0  0  0  0  0  0  0  0  0  0
  -27.6696   -3.4341   -8.7649 N   0  0  0  0  0  0  0  0  0  0  0  0
  -27.5360   -2.1231   -8.3822 N   0  0  0  0  0  0  0  0  0  0  0  0
  -28.0008   -2.0668   -7.1641 C   0  0  0  0  0  0  0  0  0  0  0  0
  -27.4309   -3.7311   -9.7048 H   0  0  0  0  0  0  0  0  0  0  0  0
  -28.5059   -8.4169   -4.2579 C   0  0  0  0  0  0  0  0  0  0  0  0
  -29.1382   -7.0772   -4.2990 C   0  0  0  0  0  0  0  0  0  0  0  0
  -30.3406   -6.6143   -3.8188 C   0  0  0  0  0  0  0  0  0  0  0  0
  -30.4378   -5.2314   -4.1435 C   0  0  0  0  0  0  0  0  0  0  0  0
  -31.5856   -4.3471   -3.7991 C   0  0  0  0  0  0  0  0  0  0  0  0
  -29.2761   -4.8849   -4.8279 C   0  0  0  0  0  0  0  0  0  0  0  0
  -28.5063   -6.0200   -4.8970 N   0  0  0  0  0  0  0  0  0  0  0  0
  -27.5937   -6.0878   -5.3340 H   0  0  0  0  0  0  0  0  0  0  0  0
  -28.0823   -0.8348   -6.4358 C   0  0  0  0  0  0  0  0  0  0  0  0
  -27.6426   -0.4927   -5.1271 C   0  0  0  0  0  0  0  0  0  0  0  0
  -27.9865    0.8216   -4.9243 C   0  0  0  0  0  0  0  0  0  0  0  0
  -28.6184    1.3170   -6.0150 O   0  0  0  0  0  0  0  0  0  0  0  0
  -28.6799    0.3122   -6.9244 C   0  0  0  0  0  0  0  0  0  0  0  0
  9 10  1  0  0  0
 10 11  2  0  0  0
 10 15  1  0  0  0
 11 12  1  0  0  0
 12 13  1  0  0  0
 12 14  2  0  0  0
 14  1  1  0  0  0
 14 15  1  0  0  0
  1  2  2  0  0  0
  2  3  1  0  0  0
  2  7  1  0  0  0
  3  4  2  0  0  0
  3  5  1  0  0  0
  5  6  1  0  0  0
  5  8  1  0  0  0
  6  7  2  0  0  0
  7 17  1  0  0  0
 17 18  1  0  0  0
 17 21  2  0  0  0
 18 19  2  0  0  0
 19 20  1  0  0  0
 20 21  1  0  0  0
 15 16  1  0  0  0
M  END
> <minimizedAffinity>
-7.75670

$$$$
