CHEMBL393924


 29 32  0  0  0  0  0  0  0  0999 V2000
  -12.0562    1.3665  -15.2088 C   0  0  0  0  0  0  0  0  0  0  0  0
  -12.3547   -0.0497  -15.2688 N   0  0  0  0  0  0  0  0  0  0  0  0
  -11.3611   -0.8986  -15.5928 N   0  0  0  0  0  0  0  0  0  0  0  0
  -11.9575   -2.0872  -15.5858 C   0  0  0  0  0  0  0  0  0  0  0  0
  -13.3298   -2.0055  -15.2524 C   0  0  0  0  0  0  0  0  0  0  0  0
  -13.5635   -0.6678  -14.9893 C   0  0  0  0  0  0  0  0  0  0  0  0
  -14.7194    0.0996  -14.5870 C   0  0  0  0  0  0  0  0  0  0  0  0
  -14.8274    0.4587  -13.4166 O   0  0  0  0  0  0  0  0  0  0  0  0
  -15.6604    0.4067  -15.5629 N   0  0  0  0  0  0  0  0  0  0  0  0
  -15.4304    0.1590  -16.5222 H   0  0  0  0  0  0  0  0  0  0  0  0
  -16.8112    1.2089  -15.3257 C   0  0  0  0  0  0  0  0  0  0  0  0
  -16.8182    2.5865  -15.5299 C   0  0  0  0  0  0  0  0  0  0  0  0
  -17.9067    3.3828  -15.4512 N   0  0  0  0  0  0  0  0  0  0  0  0
  -19.0683    2.8156  -15.1304 C   0  0  0  0  0  0  0  0  0  0  0  0
  -20.1943    3.6215  -15.1387 C   0  0  0  0  0  0  0  0  0  0  0  0
  -21.4485    3.1232  -14.7971 C   0  0  0  0  0  0  0  0  0  0  0  0
  -21.5733    1.7922  -14.4158 C   0  0  0  0  0  0  0  0  0  0  0  0
  -20.4512    0.9548  -14.4203 C   0  0  0  0  0  0  0  0  0  0  0  0
  -19.1845    1.4467  -14.8023 C   0  0  0  0  0  0  0  0  0  0  0  0
  -18.0176    0.6421  -14.9034 C   0  0  0  0  0  0  0  0  0  0  0  0
  -14.1556   -3.0810  -15.2091 N   0  0  0  0  0  0  0  0  0  0  0  0
  -15.1526   -2.8642  -15.1534 H   0  0  0  0  0  0  0  0  0  0  0  0
  -13.8931   -4.2705  -14.4061 C   0  0  0  0  0  0  0  0  0  0  0  0
  -14.9005   -4.3483  -13.2793 C   0  0  0  0  0  0  0  0  0  0  0  0
  -15.8109   -5.4088  -13.1589 C   0  0  0  0  0  0  0  0  0  0  0  0
  -16.6934   -5.4232  -12.0917 C   0  0  0  0  0  0  0  0  0  0  0  0
  -16.7186   -4.4763  -11.1331 N   0  0  0  0  0  0  0  0  0  0  0  0
  -15.8281   -3.4691  -11.2515 C   0  0  0  0  0  0  0  0  0  0  0  0
  -14.9113   -3.3636  -12.2872 C   0  0  0  0  0  0  0  0  0  0  0  0
  1  2  1  0  0  0
  2  3  1  0  0  0
  2  6  1  0  0  0
  3  4  2  0  0  0
  4  5  1  0  0  0
  5 21  1  0  0  0
  5  6  2  0  0  0
 21 23  1  0  0  0
 21 22  1  0  0  0
 23 24  1  0  0  0
 24 25  1  0  0  0
 24 29  2  0  0  0
 25 26  2  0  0  0
 26 27  1  0  0  0
 27 28  2  0  0  0
 28 29  1  0  0  0
  6  7  1  0  0  0
  7  8  2  0  0  0
  7  9  1  0  0  0
  9 11  1  0  0  0
  9 10  1  0  0  0
 11 12  1  0  0  0
 11 20  2  0  0  0
 12 13  2  0  0  0
 13 14  1  0  0  0
 14 15  1  0  0  0
 14 19  2  0  0  0
 15 16  2  0  0  0
 16 17  1  0  0  0
 17 18  2  0  0  0
 18 19  1  0  0  0
 19 20  1  0  0  0
M  END
> <minimizedAffinity>
-8.25432

$$$$
