CHEMBL225639


 32 36  0  0  0  0  0  0  0  0999 V2000
  -17.2589    1.7425  -15.7968 C   0  0  0  0  0  0  0  0  0  0  0  0
  -17.6684    3.1024  -15.7316 C   0  0  0  0  0  0  0  0  0  0  0  0
  -18.9075    3.4829  -15.2163 C   0  0  0  0  0  0  0  0  0  0  0  0
  -19.7596    2.4727  -14.8612 C   0  0  0  0  0  0  0  0  0  0  0  0
  -19.4262    1.0978  -14.9937 C   0  0  0  0  0  0  0  0  0  0  0  0
  -18.1641    0.7270  -15.4360 C   0  0  0  0  0  0  0  0  0  0  0  0
  -20.5910    0.1601  -14.6230 C   0  0  0  0  0  0  0  0  0  0  0  0
  -21.5672    1.2130  -14.2394 C   0  0  0  0  0  0  0  0  0  0  0  0
  -22.8840    1.3933  -13.8068 C   0  0  0  0  0  0  0  0  0  0  0  0
  -23.2041    2.6966  -13.6962 N   0  0  0  0  0  0  0  0  0  0  0  0
  -22.0611    3.3485  -14.0332 N   0  0  0  0  0  0  0  0  0  0  0  0
  -21.0881    2.4893  -14.3800 C   0  0  0  0  0  0  0  0  0  0  0  0
  -22.0491    4.3648  -14.0052 H   0  0  0  0  0  0  0  0  0  0  0  0
  -23.8218    0.3057  -13.5209 C   0  0  0  0  0  0  0  0  0  0  0  0
  -24.2065   -0.6539  -14.4349 C   0  0  0  0  0  0  0  0  0  0  0  0
  -25.3245   -1.7635  -13.7701 S   0  0  0  0  0  0  0  0  0  0  0  0
  -25.3154   -0.9544  -12.2638 C   0  0  0  0  0  0  0  0  0  0  0  0
  -24.4558    0.1201  -12.2545 C   0  0  0  0  0  0  0  0  0  0  0  0
  -26.1065   -1.3740  -11.1559 C   0  0  0  0  0  0  0  0  0  0  0  0
  -26.8387   -1.7970  -10.1634 C   0  0  0  0  0  0  0  0  0  0  0  0
  -27.6920   -2.2902   -9.0064 C   0  0  0  0  0  0  0  0  0  0  0  0
  -27.6796   -1.2704   -7.8706 C   0  0  0  0  0  0  0  0  0  0  0  0
  -27.4835   -1.9049   -6.6086 O   0  0  0  0  0  0  0  0  0  0  0  0
  -28.2437   -2.4974   -6.4667 H   0  0  0  0  0  0  0  0  0  0  0  0
  -15.8469    1.4006  -16.2474 C   0  0  0  0  0  0  0  0  0  0  0  0
  -13.1360   -2.2848  -14.6927 C   0  0  0  0  0  0  0  0  0  0  0  0
  -13.3835   -0.8531  -14.5856 N   0  0  0  0  0  0  0  0  0  0  0  0
  -13.2110   -0.1781  -15.8816 C   0  0  0  0  0  0  0  0  0  0  0  0
  -13.4214    1.3426  -15.7089 C   0  0  0  0  0  0  0  0  0  0  0  0
  -14.7868    1.7042  -15.2625 N   0  0  0  0  0  0  0  0  0  0  0  0
  -15.0260    0.9652  -13.9937 C   0  0  0  0  0  0  0  0  0  0  0  0
  -14.7286   -0.5618  -14.0517 C   0  0  0  0  0  0  0  0  0  0  0  0
 26 27  1  0  0  0
 27 28  1  0  0  0
 27 32  1  0  0  0
 28 29  1  0  0  0
 29 30  1  0  0  0
 30 25  1  0  0  0
 30 31  1  0  0  0
 25  1  1  0  0  0
  1  2  1  0  0  0
  1  6  2  0  0  0
  2  3  2  0  0  0
  3  4  1  0  0  0
  4  5  2  0  0  0
  4 12  1  0  0  0
  5  6  1  0  0  0
  5  7  1  0  0  0
  7  8  1  0  0  0
  8  9  1  0  0  0
  8 12  2  0  0  0
  9 14  1  0  0  0
  9 10  2  0  0  0
 14 15  2  0  0  0
 14 18  1  0  0  0
 15 16  1  0  0  0
 16 17  1  0  0  0
 17 19  1  0  0  0
 17 18  2  0  0  0
 19 20  3  0  0  0
 20 21  1  0  0  0
 21 22  1  0  0  0
 22 23  1  0  0  0
 23 24  1  0  0  0
 10 11  1  0  0  0
 11 12  1  0  0  0
 11 13  1  0  0  0
 31 32  1  0  0  0
M  END
> <minimizedAffinity>
-9.78017

$$$$
