CHEMBL3892135


 36 40  0  0  0  0  0  0  0  0999 V2000
  -29.3581   -7.1643   -5.9451 N   0  0  0  0  0  0  0  0  0  0  0  0
  -29.1216   -5.7174   -6.1757 C   0  0  0  0  0  0  0  0  0  0  0  0
  -29.4271   -4.6666   -5.2582 C   0  0  0  0  0  0  0  0  0  0  0  0
  -29.1721   -3.3295   -5.5236 C   0  0  0  0  0  0  0  0  0  0  0  0
  -28.6117   -2.9492   -6.7163 C   0  0  0  0  0  0  0  0  0  0  0  0
  -28.3757   -1.6397   -6.9578 N   0  0  0  0  0  0  0  0  0  0  0  0
  -27.8333   -1.2301   -8.1247 C   0  0  0  0  0  0  0  0  0  0  0  0
  -27.5180   -2.1793   -9.1109 C   0  0  0  0  0  0  0  0  0  0  0  0
  -27.7544   -3.5010   -8.8593 N   0  0  0  0  0  0  0  0  0  0  0  0
  -28.2944   -3.9116   -7.6785 C   0  0  0  0  0  0  0  0  0  0  0  0
  -28.5396   -5.2734   -7.4143 C   0  0  0  0  0  0  0  0  0  0  0  0
  -26.9398   -1.7589  -10.3976 C   0  0  0  0  0  0  0  0  0  0  0  0
  -27.6047   -1.6087  -11.6004 C   0  0  0  0  0  0  0  0  0  0  0  0
  -26.7257   -1.2163  -12.5435 N   0  0  0  0  0  0  0  0  0  0  0  0
  -25.5375   -1.1070  -11.9648 N   0  0  0  0  0  0  0  0  0  0  0  0
  -24.3188   -0.7071  -12.6506 C   0  0  0  0  0  0  0  0  0  0  0  0
  -25.6310   -1.4320  -10.6638 C   0  0  0  0  0  0  0  0  0  0  0  0
  -31.9496   -9.4257   -7.6446 C   0  0  0  0  0  0  0  0  0  0  0  0
  -31.2947   -9.8374   -8.7906 C   0  0  0  0  0  0  0  0  0  0  0  0
  -29.9865   -9.4095   -9.0481 C   0  0  0  0  0  0  0  0  0  0  0  0
  -29.3111   -8.5788   -8.1136 C   0  0  0  0  0  0  0  0  0  0  0  0
  -27.5879   -8.3549   -8.4655 Cl  0  0  0  0  0  0  0  0  0  0  0  0
  -29.9881   -8.0709   -6.9378 C   0  0  0  0  0  0  0  0  0  0  0  0
  -31.3230   -8.5311   -6.7898 C   0  0  0  0  0  0  0  0  0  0  0  0
  -33.4585  -11.0195   -6.5608 C   0  0  0  0  0  0  0  0  0  0  0  0
  -33.1841   -9.8834   -7.2948 O   0  0  0  0  0  0  0  0  0  0  0  0
  -29.3421   -9.8008  -10.1826 O   0  0  0  0  0  0  0  0  0  0  0  0
  -28.8013  -11.0532  -10.4088 C   0  0  0  0  0  0  0  0  0  0  0  0
  -29.1731   -7.5867   -4.5375 C   0  0  0  0  0  0  0  0  0  0  0  0
  -28.3400   -8.8596   -4.2720 C   0  0  0  0  0  0  0  0  0  0  0  0
  -26.8467   -8.7789   -4.5942 C   0  0  0  0  0  0  0  0  0  0  0  0
  -26.1989  -10.0909   -4.8333 N   0  0  0  0  0  0  0  0  0  0  0  0
  -25.9741  -10.7452   -3.5286 C   0  0  0  0  0  0  0  0  0  0  0  0
  -24.5891  -10.2996   -3.0851 C   0  0  0  0  0  0  0  0  0  0  0  0
  -23.8422  -10.4925   -4.3775 C   0  0  0  0  0  0  0  0  0  0  0  0
  -24.8285   -9.9336   -5.3969 C   0  0  0  0  0  0  0  0  0  0  0  0
 25 26  1  0  0  0
 26 18  1  0  0  0
 18 19  1  0  0  0
 18 24  2  0  0  0
 19 20  2  0  0  0
 20 27  1  0  0  0
 20 21  1  0  0  0
 27 28  1  0  0  0
 21 22  1  0  0  0
 21 23  2  0  0  0
 23  1  1  0  0  0
 23 24  1  0  0  0
  1 29  1  0  0  0
  1  2  1  0  0  0
 29 30  1  0  0  0
 30 31  1  0  0  0
 31 32  1  0  0  0
 32 33  1  0  0  0
 32 36  1  0  0  0
 33 34  1  0  0  0
 34 35  1  0  0  0
 35 36  1  0  0  0
  2  3  1  0  0  0
  2 11  2  0  0  0
  3  4  2  0  0  0
  4  5  1  0  0  0
  5  6  1  0  0  0
  5 10  2  0  0  0
  6  7  2  0  0  0
  7  8  1  0  0  0
  8 12  1  0  0  0
  8  9  2  0  0  0
 12 13  1  0  0  0
 12 17  2  0  0  0
 13 14  2  0  0  0
 14 15  1  0  0  0
 15 16  1  0  0  0
 15 17  1  0  0  0
  9 10  1  0  0  0
 10 11  1  0  0  0
M  END
> <minimizedAffinity>
-8.29933

$$$$
