CHEMBL3775557


 26 28  0  0  0  0  0  0  0  0999 V2000
  -30.6953   -7.6944   -7.1795 C   0  0  0  0  0  0  0  0  0  0  0  0
  -31.3688   -7.2335   -6.0350 C   0  0  0  0  0  0  0  0  0  0  0  0
  -30.8883   -6.1937   -5.2538 C   0  0  0  0  0  0  0  0  0  0  0  0
  -31.6313   -5.7543   -4.2337 N   0  0  0  0  0  0  0  0  0  0  0  0
  -31.1445   -4.7168   -3.5426 C   0  0  0  0  0  0  0  0  0  0  0  0
  -30.0027   -4.0735   -3.7911 N   0  0  0  0  0  0  0  0  0  0  0  0
  -29.2555   -4.5349   -4.8099 C   0  0  0  0  0  0  0  0  0  0  0  0
  -29.6560   -5.6302   -5.5917 C   0  0  0  0  0  0  0  0  0  0  0  0
  -28.9132   -6.1717   -6.6577 C   0  0  0  0  0  0  0  0  0  0  0  0
  -29.4222   -7.1920   -7.4660 C   0  0  0  0  0  0  0  0  0  0  0  0
  -32.5135   -9.1632   -7.5598 C   0  0  0  0  0  0  0  0  0  0  0  0
  -31.2564   -8.6396   -7.9974 O   0  0  0  0  0  0  0  0  0  0  0  0
  -28.0538   -3.8509   -5.1411 N   0  0  0  0  0  0  0  0  0  0  0  0
  -27.4341   -4.4933   -5.6333 H   0  0  0  0  0  0  0  0  0  0  0  0
  -28.0345   -2.5703   -5.7475 C   0  0  0  0  0  0  0  0  0  0  0  0
  -28.0559   -2.4070   -7.1392 C   0  0  0  0  0  0  0  0  0  0  0  0
  -28.1819   -3.4730   -7.9467 F   0  0  0  0  0  0  0  0  0  0  0  0
  -27.9745   -1.1466   -7.7299 C   0  0  0  0  0  0  0  0  0  0  0  0
  -27.8840   -0.0081   -6.9298 C   0  0  0  0  0  0  0  0  0  0  0  0
  -27.9020   -0.1462   -5.5435 C   0  0  0  0  0  0  0  0  0  0  0  0
  -27.8291    0.9539   -4.7356 O   0  0  0  0  0  0  0  0  0  0  0  0
  -27.9883   -1.4140   -4.9612 C   0  0  0  0  0  0  0  0  0  0  0  0
  -27.9983   -1.5372   -3.6225 F   0  0  0  0  0  0  0  0  0  0  0  0
  -27.7340    1.7489   -5.2798 H   0  0  0  0  0  0  0  0  0  0  0  0
  -28.5537   -7.5175   -8.4676 O   0  0  0  0  0  0  0  0  0  0  0  0
  -27.9601   -8.8032   -8.4972 C   0  0  0  0  0  0  0  0  0  0  0  0
 11 12  1  0  0  0
 12  1  1  0  0  0
  1  2  1  0  0  0
  1 10  2  0  0  0
  2  3  2  0  0  0
  3  4  1  0  0  0
  3  8  1  0  0  0
  4  5  2  0  0  0
  5  6  1  0  0  0
  6  7  2  0  0  0
  7 13  1  0  0  0
  7  8  1  0  0  0
 13 15  1  0  0  0
 13 14  1  0  0  0
 15 16  1  0  0  0
 15 22  2  0  0  0
 16 17  1  0  0  0
 16 18  2  0  0  0
 18 19  1  0  0  0
 19 20  2  0  0  0
 20 21  1  0  0  0
 20 22  1  0  0  0
 21 24  1  0  0  0
 22 23  1  0  0  0
  8  9  2  0  0  0
  9 10  1  0  0  0
 10 25  1  0  0  0
 25 26  1  0  0  0
M  END
> <minimizedAffinity>
-7.85227

$$$$
