CHEMBL3775164


 25 27  0  0  0  0  0  0  0  0999 V2000
  -15.0816   -6.8937  -12.9817 C   0  0  0  0  0  0  0  0  0  0  0  0
  -15.2560   -6.2260  -11.7524 C   0  0  0  0  0  0  0  0  0  0  0  0
  -15.3949   -4.8598  -11.6145 C   0  0  0  0  0  0  0  0  0  0  0  0
  -15.5067   -4.3297  -10.4098 N   0  0  0  0  0  0  0  0  0  0  0  0
  -15.6216   -2.9984  -10.3331 C   0  0  0  0  0  0  0  0  0  0  0  0
  -15.6881   -2.1609  -11.3733 N   0  0  0  0  0  0  0  0  0  0  0  0
  -15.6114   -2.6967  -12.5915 C   0  0  0  0  0  0  0  0  0  0  0  0
  -15.3876   -4.0820  -12.7939 C   0  0  0  0  0  0  0  0  0  0  0  0
  -15.1481   -4.7480  -14.0193 C   0  0  0  0  0  0  0  0  0  0  0  0
  -15.0769   -6.1408  -14.1606 C   0  0  0  0  0  0  0  0  0  0  0  0
  -13.7177   -8.5921  -12.1895 C   0  0  0  0  0  0  0  0  0  0  0  0
  -14.8539   -8.2468  -12.9945 O   0  0  0  0  0  0  0  0  0  0  0  0
  -15.7952   -1.8390  -13.7164 N   0  0  0  0  0  0  0  0  0  0  0  0
  -16.7630   -1.5474  -13.7865 H   0  0  0  0  0  0  0  0  0  0  0  0
  -14.8732   -0.8321  -14.1414 C   0  0  0  0  0  0  0  0  0  0  0  0
  -13.4950   -1.0603  -14.0114 C   0  0  0  0  0  0  0  0  0  0  0  0
  -12.5646   -0.0375  -14.2113 C   0  0  0  0  0  0  0  0  0  0  0  0
  -12.9978    1.2273  -14.6047 C   0  0  0  0  0  0  0  0  0  0  0  0
  -14.3554    1.4477  -14.8431 C   0  0  0  0  0  0  0  0  0  0  0  0
  -14.7705    2.6944  -15.2326 O   0  0  0  0  0  0  0  0  0  0  0  0
  -15.2976    0.4219  -14.6236 C   0  0  0  0  0  0  0  0  0  0  0  0
  -17.1535    0.7807  -14.8619 Br  0  0  0  0  0  0  0  0  0  0  0  0
  -13.9981    3.2747  -15.3254 H   0  0  0  0  0  0  0  0  0  0  0  0
  -14.9584   -6.5129  -15.4586 O   0  0  0  0  0  0  0  0  0  0  0  0
  -13.8106   -6.1681  -16.2133 C   0  0  0  0  0  0  0  0  0  0  0  0
 11 12  1  0  0  0
 12  1  1  0  0  0
  1  2  1  0  0  0
  1 10  2  0  0  0
  2  3  2  0  0  0
  3  4  1  0  0  0
  3  8  1  0  0  0
  4  5  2  0  0  0
  5  6  1  0  0  0
  6  7  2  0  0  0
  7 13  1  0  0  0
  7  8  1  0  0  0
 13 15  1  0  0  0
 13 14  1  0  0  0
 15 16  1  0  0  0
 15 21  2  0  0  0
 16 17  2  0  0  0
 17 18  1  0  0  0
 18 19  2  0  0  0
 19 20  1  0  0  0
 19 21  1  0  0  0
 20 23  1  0  0  0
 21 22  1  0  0  0
  8  9  2  0  0  0
  9 10  1  0  0  0
 10 24  1  0  0  0
 24 25  1  0  0  0
M  END
> <minimizedAffinity>
-6.83127

$$$$
