CHEMBL362486


 35 38  0  0  0  0  0  0  0  0999 V2000
  -28.8918   -3.3316   -6.1273 C   0  0  0  0  0  0  0  0  0  0  0  0
  -27.9055   -3.8883   -5.3192 C   0  0  0  0  0  0  0  0  0  0  0  0
  -28.1712   -5.0025   -4.5117 C   0  0  0  0  0  0  0  0  0  0  0  0
  -29.4322   -5.6241   -4.4630 C   0  0  0  0  0  0  0  0  0  0  0  0
  -30.4212   -5.0763   -5.2905 C   0  0  0  0  0  0  0  0  0  0  0  0
  -30.1642   -3.9178   -6.0966 C   0  0  0  0  0  0  0  0  0  0  0  0
  -27.5348   -1.4338   -8.9571 N   0  0  0  0  0  0  0  0  0  0  0  0
  -27.9688   -2.5323   -8.2232 C   0  0  0  0  0  0  0  0  0  0  0  0
  -27.8838   -3.6947   -8.6110 O   0  0  0  0  0  0  0  0  0  0  0  0
  -28.5545   -2.2360   -6.9948 N   0  0  0  0  0  0  0  0  0  0  0  0
  -27.5241   -0.5338   -8.5012 H   0  0  0  0  0  0  0  0  0  0  0  0
  -29.1531   -1.4224   -6.9780 H   0  0  0  0  0  0  0  0  0  0  0  0
  -25.8345   -1.5908  -12.8853 C   0  0  0  0  0  0  0  0  0  0  0  0
  -27.2068   -1.6614  -12.7078 C   0  0  0  0  0  0  0  0  0  0  0  0
  -27.7562   -1.6267  -11.4237 C   0  0  0  0  0  0  0  0  0  0  0  0
  -26.9725   -1.5157  -10.2727 C   0  0  0  0  0  0  0  0  0  0  0  0
  -25.5819   -1.4688  -10.4517 C   0  0  0  0  0  0  0  0  0  0  0  0
  -25.0235   -1.5001  -11.7496 C   0  0  0  0  0  0  0  0  0  0  0  0
  -24.1031   -0.7020  -14.2413 C   0  0  0  0  0  0  0  0  0  0  0  0
  -25.2050   -1.6018  -14.1005 O   0  0  0  0  0  0  0  0  0  0  0  0
  -29.3992   -7.1487   -3.5313 S   0  0  0  0  0  0  0  0  0  0  0  0
  -28.5736   -8.5955   -4.1853 C   0  0  0  0  0  0  0  0  0  0  0  0
  -27.4539   -9.1750   -3.5878 C   0  0  0  0  0  0  0  0  0  0  0  0
  -26.9612  -10.3478   -4.1191 C   0  0  0  0  0  0  0  0  0  0  0  0
  -27.4673  -10.9681   -5.1920 N   0  0  0  0  0  0  0  0  0  0  0  0
  -28.5083  -10.4103   -5.8005 C   0  0  0  0  0  0  0  0  0  0  0  0
  -28.9714  -11.1206   -6.8812 C   0  0  0  0  0  0  0  0  0  0  0  0
  -30.0779  -10.7332   -7.6298 C   0  0  0  0  0  0  0  0  0  0  0  0
  -30.6732   -9.5017   -7.3395 C   0  0  0  0  0  0  0  0  0  0  0  0
  -30.2175   -8.7730   -6.2130 C   0  0  0  0  0  0  0  0  0  0  0  0
  -29.1270   -9.2164   -5.3820 C   0  0  0  0  0  0  0  0  0  0  0  0
  -30.5554  -11.5425   -8.6272 O   0  0  0  0  0  0  0  0  0  0  0  0
  -31.7258  -12.2883   -8.2807 C   0  0  0  0  0  0  0  0  0  0  0  0
  -31.7148   -8.9222   -8.0206 O   0  0  0  0  0  0  0  0  0  0  0  0
  -32.8388   -8.4976   -7.2446 C   0  0  0  0  0  0  0  0  0  0  0  0
 19 20  1  0  0  0
 20 13  1  0  0  0
 13 14  1  0  0  0
 13 18  2  0  0  0
 14 15  2  0  0  0
 15 16  1  0  0  0
 16  7  1  0  0  0
 16 17  2  0  0  0
  7  8  1  0  0  0
  7 11  1  0  0  0
  8  9  2  0  0  0
  8 10  1  0  0  0
 10  1  1  0  0  0
 10 12  1  0  0  0
  1  2  1  0  0  0
  1  6  2  0  0  0
  2  3  2  0  0  0
  3  4  1  0  0  0
  4 21  1  0  0  0
  4  5  2  0  0  0
 21 22  1  0  0  0
 22 23  1  0  0  0
 22 31  2  0  0  0
 23 24  2  0  0  0
 24 25  1  0  0  0
 25 26  2  0  0  0
 26 27  1  0  0  0
 26 31  1  0  0  0
 27 28  2  0  0  0
 28 32  1  0  0  0
 28 29  1  0  0  0
 32 33  1  0  0  0
 29 34  1  0  0  0
 29 30  2  0  0  0
 34 35  1  0  0  0
 30 31  1  0  0  0
  5  6  1  0  0  0
 17 18  1  0  0  0
M  END
> <minimizedAffinity>
-8.22949

$$$$
