CHEMBL425749


 32 35  0  0  0  0  0  0  0  0999 V2000
  -29.8681   -6.0518   -5.1106 C   0  0  0  0  0  0  0  0  0  0  0  0
  -30.8886   -6.5232   -5.9350 C   0  0  0  0  0  0  0  0  0  0  0  0
  -30.7419   -7.7486   -6.6063 C   0  0  0  0  0  0  0  0  0  0  0  0
  -29.5848   -8.5343   -6.4483 C   0  0  0  0  0  0  0  0  0  0  0  0
  -28.5745   -8.0270   -5.6297 C   0  0  0  0  0  0  0  0  0  0  0  0
  -27.4163   -8.6895   -5.4793 F   0  0  0  0  0  0  0  0  0  0  0  0
  -28.7213   -6.8287   -4.9416 C   0  0  0  0  0  0  0  0  0  0  0  0
  -29.4295   -9.8154   -7.1529 C   0  0  0  0  0  0  0  0  0  0  0  0
  -30.0245  -10.9514   -6.6240 C   0  0  0  0  0  0  0  0  0  0  0  0
  -29.7992  -12.3393   -7.5835 S   0  0  0  0  0  0  0  0  0  0  0  0
  -28.9248  -11.4583   -8.7442 C   0  0  0  0  0  0  0  0  0  0  0  0
  -28.4866  -12.0916   -9.8448 N   0  0  0  0  0  0  0  0  0  0  0  0
  -27.8073  -11.2870  -10.6569 C   0  0  0  0  0  0  0  0  0  0  0  0
  -27.5124   -9.9987  -10.4566 N   0  0  0  0  0  0  0  0  0  0  0  0
  -27.9419   -9.3985   -9.3291 C   0  0  0  0  0  0  0  0  0  0  0  0
  -27.5228   -8.0793   -9.1956 N   0  0  0  0  0  0  0  0  0  0  0  0
  -28.7391  -10.1202   -8.4083 C   0  0  0  0  0  0  0  0  0  0  0  0
  -27.2475   -7.7321  -10.1090 H   0  0  0  0  0  0  0  0  0  0  0  0
  -28.1866   -7.4825   -8.7261 H   0  0  0  0  0  0  0  0  0  0  0  0
  -29.6150   -2.5162   -4.3221 N   0  0  0  0  0  0  0  0  0  0  0  0
  -29.3784   -3.6649   -5.0546 C   0  0  0  0  0  0  0  0  0  0  0  0
  -28.7348   -3.7133   -6.0962 O   0  0  0  0  0  0  0  0  0  0  0  0
  -29.9937   -4.7803   -4.4987 N   0  0  0  0  0  0  0  0  0  0  0  0
  -29.8912   -2.6387   -3.3608 H   0  0  0  0  0  0  0  0  0  0  0  0
  -30.8481   -4.5942   -3.9920 H   0  0  0  0  0  0  0  0  0  0  0  0
  -31.0277    1.6997   -6.5075 C   0  0  0  0  0  0  0  0  0  0  0  0
  -29.9783    0.8777   -5.8247 C   0  0  0  0  0  0  0  0  0  0  0  0
  -28.6968    1.4035   -5.6234 C   0  0  0  0  0  0  0  0  0  0  0  0
  -27.7185    0.6434   -4.9986 C   0  0  0  0  0  0  0  0  0  0  0  0
  -28.0086   -0.6506   -4.5661 C   0  0  0  0  0  0  0  0  0  0  0  0
  -29.2817   -1.2013   -4.7375 C   0  0  0  0  0  0  0  0  0  0  0  0
  -30.2613   -0.4294   -5.3736 C   0  0  0  0  0  0  0  0  0  0  0  0
 26 27  1  0  0  0
 27 28  1  0  0  0
 27 32  2  0  0  0
 28 29  2  0  0  0
 29 30  1  0  0  0
 30 31  2  0  0  0
 31 20  1  0  0  0
 31 32  1  0  0  0
 20 21  1  0  0  0
 20 24  1  0  0  0
 21 22  2  0  0  0
 21 23  1  0  0  0
 23  1  1  0  0  0
 23 25  1  0  0  0
  1  2  1  0  0  0
  1  7  2  0  0  0
  2  3  2  0  0  0
  3  4  1  0  0  0
  4  8  1  0  0  0
  4  5  2  0  0  0
  8  9  2  0  0  0
  8 17  1  0  0  0
  9 10  1  0  0  0
 10 11  1  0  0  0
 11 12  1  0  0  0
 11 17  2  0  0  0
 12 13  2  0  0  0
 13 14  1  0  0  0
 14 15  2  0  0  0
 15 16  1  0  0  0
 15 17  1  0  0  0
 16 18  1  0  0  0
 16 19  1  0  0  0
  5  6  1  0  0  0
  5  7  1  0  0  0
M  END
> <minimizedAffinity>
-8.91866

$$$$
