CHEMBL603255


 25 28  0  0  0  0  0  0  0  0999 V2000
  -29.9938   -3.0515   -2.9137 O   0  0  0  0  0  0  0  0  0  0  0  0
  -29.8153   -3.1768   -4.1219 C   0  0  0  0  0  0  0  0  0  0  0  0
  -30.7854   -3.9464   -4.9867 C   0  0  0  0  0  0  0  0  0  0  0  0
  -30.1115   -5.1119   -5.6168 C   0  0  0  0  0  0  0  0  0  0  0  0
  -30.4026   -6.4137   -5.2793 C   0  0  0  0  0  0  0  0  0  0  0  0
  -29.7610   -7.4772   -5.7907 N   0  0  0  0  0  0  0  0  0  0  0  0
  -28.8202   -7.2304   -6.7092 C   0  0  0  0  0  0  0  0  0  0  0  0
  -28.4888   -5.9908   -7.1139 N   0  0  0  0  0  0  0  0  0  0  0  0
  -29.1120   -4.9357   -6.5489 C   0  0  0  0  0  0  0  0  0  0  0  0
  -28.6588   -3.5973   -6.9865 C   0  0  0  0  0  0  0  0  0  0  0  0
  -28.3728   -3.3802   -8.3511 C   0  0  0  0  0  0  0  0  0  0  0  0
  -27.9214   -2.1437   -8.8202 C   0  0  0  0  0  0  0  0  0  0  0  0
  -27.6849   -1.1079   -7.9259 C   0  0  0  0  0  0  0  0  0  0  0  0
  -27.9189   -1.3025   -6.5675 C   0  0  0  0  0  0  0  0  0  0  0  0
  -28.4555   -2.5126   -6.0997 C   0  0  0  0  0  0  0  0  0  0  0  0
  -28.7709   -2.5356   -4.7274 N   0  0  0  0  0  0  0  0  0  0  0  0
  -28.3053   -1.8736   -4.1142 H   0  0  0  0  0  0  0  0  0  0  0  0
  -28.1379   -8.3351   -7.2110 N   0  0  0  0  0  0  0  0  0  0  0  0
  -27.7319   -8.8894   -6.4725 H   0  0  0  0  0  0  0  0  0  0  0  0
  -28.2279   -8.9195   -8.4801 C   0  0  0  0  0  0  0  0  0  0  0  0
  -29.4125   -9.5551   -8.8698 C   0  0  0  0  0  0  0  0  0  0  0  0
  -29.4911  -10.2261  -10.0942 C   0  0  0  0  0  0  0  0  0  0  0  0
  -28.3904  -10.2532  -10.9495 C   0  0  0  0  0  0  0  0  0  0  0  0
  -27.2141   -9.6093  -10.5845 C   0  0  0  0  0  0  0  0  0  0  0  0
  -27.1360   -8.9585   -9.3566 C   0  0  0  0  0  0  0  0  0  0  0  0
  1  2  2  0  0  0
  2  3  1  0  0  0
  2 16  1  0  0  0
  3  4  1  0  0  0
  4  5  1  0  0  0
  4  9  2  0  0  0
  5  6  2  0  0  0
  6  7  1  0  0  0
  7 18  1  0  0  0
  7  8  2  0  0  0
 18 20  1  0  0  0
 18 19  1  0  0  0
 20 21  1  0  0  0
 20 25  2  0  0  0
 21 22  2  0  0  0
 22 23  1  0  0  0
 23 24  2  0  0  0
 24 25  1  0  0  0
  8  9  1  0  0  0
  9 10  1  0  0  0
 10 11  1  0  0  0
 10 15  2  0  0  0
 11 12  2  0  0  0
 12 13  1  0  0  0
 13 14  2  0  0  0
 14 15  1  0  0  0
 15 16  1  0  0  0
 16 17  1  0  0  0
M  END
> <minimizedAffinity>
-8.66945

$$$$
