CHEMBL591457


 29 31  0  0  0  0  0  0  0  0999 V2000
  -22.5868    0.5753  -14.3070 C   0  0  0  0  0  0  0  0  0  0  0  0
  -22.8474    1.8788  -13.8913 C   0  0  0  0  0  0  0  0  0  0  0  0
  -21.8475    2.8550  -13.9628 C   0  0  0  0  0  0  0  0  0  0  0  0
  -20.5740    2.5553  -14.4196 C   0  0  0  0  0  0  0  0  0  0  0  0
  -19.6494    3.5253  -14.4984 N   0  0  0  0  0  0  0  0  0  0  0  0
  -18.4103    3.1900  -14.9266 C   0  0  0  0  0  0  0  0  0  0  0  0
  -18.0099    1.9027  -15.2606 C   0  0  0  0  0  0  0  0  0  0  0  0
  -18.9940    0.9138  -15.2097 C   0  0  0  0  0  0  0  0  0  0  0  0
  -20.2951    1.2239  -14.7896 C   0  0  0  0  0  0  0  0  0  0  0  0
  -21.3013    0.2433  -14.7292 C   0  0  0  0  0  0  0  0  0  0  0  0
  -23.6396   -0.2917  -14.2307 O   0  0  0  0  0  0  0  0  0  0  0  0
  -23.1358   -1.8962  -12.4262 C   0  0  0  0  0  0  0  0  0  0  0  0
  -24.0358   -0.7628  -12.9334 C   0  0  0  0  0  0  0  0  0  0  0  0
  -25.4844   -1.2536  -12.9510 C   0  0  0  0  0  0  0  0  0  0  0  0
  -26.1395   -1.4538  -14.1920 C   0  0  0  0  0  0  0  0  0  0  0  0
  -25.3537   -1.1951  -15.7161 Cl  0  0  0  0  0  0  0  0  0  0  0  0
  -27.4852   -1.8372  -14.2597 C   0  0  0  0  0  0  0  0  0  0  0  0
  -28.2144   -2.0319  -13.0943 C   0  0  0  0  0  0  0  0  0  0  0  0
  -27.5978   -1.8310  -11.8672 C   0  0  0  0  0  0  0  0  0  0  0  0
  -28.3328   -2.0006  -10.7564 F   0  0  0  0  0  0  0  0  0  0  0  0
  -26.2552   -1.4348  -11.7802 C   0  0  0  0  0  0  0  0  0  0  0  0
  -25.6459   -1.1293  -10.1873 Cl  0  0  0  0  0  0  0  0  0  0  0  0
  -16.6129    1.5582  -15.7151 C   0  0  0  0  0  0  0  0  0  0  0  0
  -15.5914    1.4399  -14.5827 C   0  0  0  0  0  0  0  0  0  0  0  0
  -15.9794    0.3843  -13.5748 C   0  0  0  0  0  0  0  0  0  0  0  0
  -15.9506   -0.8869  -14.0704 N   0  0  0  0  0  0  0  0  0  0  0  0
  -16.3020    0.6083  -12.4161 O   0  0  0  0  0  0  0  0  0  0  0  0
  -15.6946   -1.1058  -15.0230 H   0  0  0  0  0  0  0  0  0  0  0  0
  -16.2134   -1.6433  -13.4513 H   0  0  0  0  0  0  0  0  0  0  0  0
 12 13  1  0  0  0
 13 11  1  0  0  0
 13 14  1  0  0  0
 11  1  1  0  0  0
  1  2  1  0  0  0
  1 10  2  0  0  0
  2  3  2  0  0  0
  3  4  1  0  0  0
  4  5  1  0  0  0
  4  9  2  0  0  0
  5  6  2  0  0  0
  6  7  1  0  0  0
  7 23  1  0  0  0
  7  8  2  0  0  0
 23 24  1  0  0  0
 24 25  1  0  0  0
 25 26  1  0  0  0
 25 27  2  0  0  0
 26 28  1  0  0  0
 26 29  1  0  0  0
  8  9  1  0  0  0
  9 10  1  0  0  0
 14 15  1  0  0  0
 14 21  2  0  0  0
 15 16  1  0  0  0
 15 17  2  0  0  0
 17 18  1  0  0  0
 18 19  2  0  0  0
 19 20  1  0  0  0
 19 21  1  0  0  0
 21 22  1  0  0  0
M  END
> <minimizedAffinity>
-10.00537

$$$$
