CHEMBL1242107


 35 38  0  0  0  0  0  0  0  0999 V2000
  -28.4955   -2.3945   -8.2464 C   0  0  0  0  0  0  0  0  0  0  0  0
  -27.9281   -2.4136   -6.9719 C   0  0  0  0  0  0  0  0  0  0  0  0
  -28.1388   -3.4716   -6.0927 C   0  0  0  0  0  0  0  0  0  0  0  0
  -29.0665   -4.4697   -6.3755 C   0  0  0  0  0  0  0  0  0  0  0  0
  -29.7631   -4.3663   -7.5901 C   0  0  0  0  0  0  0  0  0  0  0  0
  -29.4466   -3.3707   -8.5417 C   0  0  0  0  0  0  0  0  0  0  0  0
  -29.2539   -5.5908   -5.4332 C   0  0  0  0  0  0  0  0  0  0  0  0
  -29.7303   -5.3876   -4.1315 C   0  0  0  0  0  0  0  0  0  0  0  0
  -30.1867   -4.1625   -3.3911 C   0  0  0  0  0  0  0  0  0  0  0  0
  -29.7731   -6.8425   -3.2270 S   0  0  0  0  0  0  0  0  0  0  0  0
  -29.2073   -7.7579   -4.5286 C   0  0  0  0  0  0  0  0  0  0  0  0
  -29.0552   -9.0823   -4.3672 N   0  0  0  0  0  0  0  0  0  0  0  0
  -28.5997   -9.6788   -5.4631 C   0  0  0  0  0  0  0  0  0  0  0  0
  -28.2798   -9.0980   -6.6242 N   0  0  0  0  0  0  0  0  0  0  0  0
  -28.4250   -7.7644   -6.7454 C   0  0  0  0  0  0  0  0  0  0  0  0
  -28.0137   -7.2578   -7.9731 N   0  0  0  0  0  0  0  0  0  0  0  0
  -28.9384   -7.0080   -5.6653 C   0  0  0  0  0  0  0  0  0  0  0  0
  -27.5105   -7.9802   -8.4780 H   0  0  0  0  0  0  0  0  0  0  0  0
  -27.5262   -6.3732   -7.8992 H   0  0  0  0  0  0  0  0  0  0  0  0
  -26.9390   -0.6917  -11.1012 N   0  0  0  0  0  0  0  0  0  0  0  0
  -27.2899   -1.7674  -10.3043 C   0  0  0  0  0  0  0  0  0  0  0  0
  -26.8968   -2.9087  -10.5205 O   0  0  0  0  0  0  0  0  0  0  0  0
  -28.1045   -1.4403   -9.2299 N   0  0  0  0  0  0  0  0  0  0  0  0
  -27.0555    0.2309  -10.7086 H   0  0  0  0  0  0  0  0  0  0  0  0
  -28.6502   -0.5942   -9.2991 H   0  0  0  0  0  0  0  0  0  0  0  0
  -23.8696   -0.5244  -13.2128 C   0  0  0  0  0  0  0  0  0  0  0  0
  -24.2654   -1.2542  -14.3427 C   0  0  0  0  0  0  0  0  0  0  0  0
  -25.5617   -1.7301  -14.4392 C   0  0  0  0  0  0  0  0  0  0  0  0
  -26.4569   -1.4912  -13.4009 C   0  0  0  0  0  0  0  0  0  0  0  0
  -26.0740   -0.8200  -12.2276 C   0  0  0  0  0  0  0  0  0  0  0  0
  -24.7793   -0.2974  -12.1587 C   0  0  0  0  0  0  0  0  0  0  0  0
  -22.4807   -0.0048  -13.0933 C   0  0  0  0  0  0  0  0  0  0  0  0
  -21.9307    0.2057  -12.0281 O   0  0  0  0  0  0  0  0  0  0  0  0
  -21.0417    1.2715  -14.4424 C   0  0  0  0  0  0  0  0  0  0  0  0
  -21.9444    0.1756  -14.3261 O   0  0  0  0  0  0  0  0  0  0  0  0
 34 35  1  0  0  0
 35 32  1  0  0  0
 32 33  2  0  0  0
 32 26  1  0  0  0
 26 27  1  0  0  0
 26 31  2  0  0  0
 27 28  2  0  0  0
 28 29  1  0  0  0
 29 30  2  0  0  0
 30 20  1  0  0  0
 30 31  1  0  0  0
 20 21  1  0  0  0
 20 24  1  0  0  0
 21 22  2  0  0  0
 21 23  1  0  0  0
 23  1  1  0  0  0
 23 25  1  0  0  0
  1  2  1  0  0  0
  1  6  2  0  0  0
  2  3  2  0  0  0
  3  4  1  0  0  0
  4  7  1  0  0  0
  4  5  2  0  0  0
  7  8  2  0  0  0
  7 17  1  0  0  0
  8  9  1  0  0  0
  8 10  1  0  0  0
 10 11  1  0  0  0
 11 12  1  0  0  0
 11 17  2  0  0  0
 12 13  2  0  0  0
 13 14  1  0  0  0
 14 15  2  0  0  0
 15 16  1  0  0  0
 15 17  1  0  0  0
 16 18  1  0  0  0
 16 19  1  0  0  0
  5  6  1  0  0  0
M  END
> <minimizedAffinity>
-8.48701

$$$$
