CHEMBL2010877


 37 43  0  0  0  0  0  0  0  0999 V2000
  -29.0600   -9.5279   -4.7201 N   0  0  0  0  0  0  0  0  0  0  0  0
  -28.8915  -10.2521   -5.9338 C   0  0  0  0  0  0  0  0  0  0  0  0
  -28.4336  -11.5594   -6.1894 C   0  0  0  0  0  0  0  0  0  0  0  0
  -28.2484  -11.9592   -7.5267 C   0  0  0  0  0  0  0  0  0  0  0  0
  -28.5407  -11.1167   -8.6012 C   0  0  0  0  0  0  0  0  0  0  0  0
  -29.0399   -9.8451   -8.3311 C   0  0  0  0  0  0  0  0  0  0  0  0
  -29.1573   -9.3923   -7.0029 C   0  0  0  0  0  0  0  0  0  0  0  0
  -29.3510   -8.1849   -6.3700 C   0  0  0  0  0  0  0  0  0  0  0  0
  -29.1452   -6.9602   -7.0384 C   0  0  0  0  0  0  0  0  0  0  0  0
  -28.7925   -5.8834   -6.2053 C   0  0  0  0  0  0  0  0  0  0  0  0
  -28.8253   -5.9202   -4.7965 C   0  0  0  0  0  0  0  0  0  0  0  0
  -29.6306   -7.0065   -4.2990 C   0  0  0  0  0  0  0  0  0  0  0  0
  -29.4384   -8.2121   -5.0058 C   0  0  0  0  0  0  0  0  0  0  0  0
  -31.0965   -6.4982   -3.9125 C   0  0  0  0  0  0  0  0  0  0  0  0
  -31.4219   -5.0099   -4.3485 C   0  0  0  0  0  0  0  0  0  0  0  0
  -30.2827   -4.1756   -3.8839 C   0  0  0  0  0  0  0  0  0  0  0  0
  -30.3058   -3.1423   -3.0444 N   0  0  0  0  0  0  0  0  0  0  0  0
  -28.9990   -3.0224   -2.6925 N   0  0  0  0  0  0  0  0  0  0  0  0
  -28.6136   -2.0553   -1.6950 C   0  0  0  0  0  0  0  0  0  0  0  0
  -28.1932   -4.0079   -3.2122 C   0  0  0  0  0  0  0  0  0  0  0  0
  -28.9869   -4.6630   -4.1122 C   0  0  0  0  0  0  0  0  0  0  0  0
  -28.6115   -4.7365   -7.0722 C   0  0  0  0  0  0  0  0  0  0  0  0
  -28.2990   -3.5713   -6.8724 O   0  0  0  0  0  0  0  0  0  0  0  0
  -28.9116   -5.2050   -8.3413 N   0  0  0  0  0  0  0  0  0  0  0  0
  -29.1822   -6.6157   -8.4513 C   0  0  0  0  0  0  0  0  0  0  0  0
  -28.9419   -4.5556   -9.1122 H   0  0  0  0  0  0  0  0  0  0  0  0
  -29.2133  -11.4153   -3.1084 C   0  0  0  0  0  0  0  0  0  0  0  0
  -28.5761  -10.0590   -3.4360 C   0  0  0  0  0  0  0  0  0  0  0  0
  -27.0599  -10.1212   -3.2667 C   0  0  0  0  0  0  0  0  0  0  0  0
  -28.2970  -11.4442   -9.9462 N   0  0  0  0  0  0  0  0  0  0  0  0
  -27.9284  -12.3802  -10.0829 H   0  0  0  0  0  0  0  0  0  0  0  0
  -27.9469  -10.6206  -11.0198 C   0  0  0  0  0  0  0  0  0  0  0  0
  -28.7252  -10.5504  -12.1677 C   0  0  0  0  0  0  0  0  0  0  0  0
  -28.3533   -9.6970  -13.1975 C   0  0  0  0  0  0  0  0  0  0  0  0
  -27.2005   -8.9591  -13.0400 C   0  0  0  0  0  0  0  0  0  0  0  0
  -26.4270   -9.0630  -11.9435 N   0  0  0  0  0  0  0  0  0  0  0  0
  -26.8017   -9.9114  -10.9333 N   0  0  0  0  0  0  0  0  0  0  0  0
 27 28  1  0  0  0
 28 29  1  0  0  0
 28  1  1  0  0  0
  1  2  1  0  0  0
  1 13  1  0  0  0
  2  3  1  0  0  0
  2  7  2  0  0  0
  3  4  2  0  0  0
  4  5  1  0  0  0
  5 30  1  0  0  0
  5  6  2  0  0  0
 30 32  1  0  0  0
 30 31  1  0  0  0
 32 33  1  0  0  0
 32 37  2  0  0  0
 33 34  2  0  0  0
 34 35  1  0  0  0
 35 36  2  0  0  0
 36 37  1  0  0  0
  6  7  1  0  0  0
  7  8  1  0  0  0
  8  9  1  0  0  0
  8 13  2  0  0  0
  9 10  2  0  0  0
  9 25  1  0  0  0
 10 11  1  0  0  0
 10 22  1  0  0  0
 11 12  2  0  0  0
 11 21  1  0  0  0
 12 13  1  0  0  0
 12 14  1  0  0  0
 14 15  1  0  0  0
 15 16  1  0  0  0
 16 17  2  0  0  0
 16 21  1  0  0  0
 17 18  1  0  0  0
 18 19  1  0  0  0
 18 20  1  0  0  0
 20 21  2  0  0  0
 22 23  2  0  0  0
 22 24  1  0  0  0
 24 25  1  0  0  0
 24 26  1  0  0  0
M  END
> <minimizedAffinity>
-7.05809

$$$$
