CHEMBL1668415


 26 27  0  0  0  0  0  0  0  0999 V2000
  -29.8404   -4.5182   -4.3119 C   0  0  0  0  0  0  0  0  0  0  0  0
  -28.4913   -4.7571   -4.0624 C   0  0  0  0  0  0  0  0  0  0  0  0
  -27.9164   -5.9623   -4.4732 C   0  0  0  0  0  0  0  0  0  0  0  0
  -26.5915   -6.1944   -4.2240 O   0  0  0  0  0  0  0  0  0  0  0  0
  -28.6846   -6.9296   -5.1354 C   0  0  0  0  0  0  0  0  0  0  0  0
  -30.0545   -6.7078   -5.3955 C   0  0  0  0  0  0  0  0  0  0  0  0
  -30.6130   -5.4964   -4.9495 C   0  0  0  0  0  0  0  0  0  0  0  0
  -30.8989   -7.7780   -6.0612 C   0  0  0  0  0  0  0  0  0  0  0  0
  -32.1745   -7.3212   -6.7828 C   0  0  0  0  0  0  0  0  0  0  0  0
  -33.1077   -8.4475   -7.2551 C   0  0  0  0  0  0  0  0  0  0  0  0
  -32.4352   -9.6772   -7.8735 C   0  0  0  0  0  0  0  0  0  0  0  0
  -32.4112  -10.8399   -6.8835 C   0  0  0  0  0  0  0  0  0  0  0  0
  -31.5158  -11.9716   -7.3445 C   0  0  0  0  0  0  0  0  0  0  0  0
  -31.6264  -12.4660   -8.4647 O   0  0  0  0  0  0  0  0  0  0  0  0
  -30.4750  -12.4601   -6.3560 C   0  0  0  0  0  0  0  0  0  0  0  0
  -29.2123  -11.6091   -6.4691 C   0  0  0  0  0  0  0  0  0  0  0  0
  -28.0221  -12.4660   -7.7936 Br  0  0  0  0  0  0  0  0  0  0  0  0
  -28.4617  -11.5003   -5.1358 C   0  0  0  0  0  0  0  0  0  0  0  0
  -27.4054  -10.3784   -5.1408 C   0  0  0  0  0  0  0  0  0  0  0  0
  -26.3057  -10.6763   -4.1257 C   0  0  0  0  0  0  0  0  0  0  0  0
  -28.0467   -9.1379   -4.7503 O   0  0  0  0  0  0  0  0  0  0  0  0
  -28.0056   -8.1348   -5.6644 C   0  0  0  0  0  0  0  0  0  0  0  0
  -27.5742   -8.1921   -6.8019 O   0  0  0  0  0  0  0  0  0  0  0  0
  -26.1954   -5.4111   -3.8078 H   0  0  0  0  0  0  0  0  0  0  0  0
  -30.0512   -2.7114   -2.7907 C   0  0  0  0  0  0  0  0  0  0  0  0
  -30.5287   -3.3929   -3.9455 O   0  0  0  0  0  0  0  0  0  0  0  0
 25 26  1  0  0  0
 26  1  1  0  0  0
  1  2  1  0  0  0
  1  7  2  0  0  0
  2  3  2  0  0  0
  3  4  1  0  0  0
  3  5  1  0  0  0
  4 24  1  0  0  0
  5  6  2  0  0  0
  5 22  1  0  0  0
  6  7  1  0  0  0
  6  8  1  0  0  0
  8  9  1  0  0  0
  9 10  1  0  0  0
 10 11  1  0  0  0
 11 12  1  0  0  0
 12 13  1  0  0  0
 13 14  2  0  0  0
 13 15  1  0  0  0
 15 16  1  0  0  0
 16 18  1  0  0  0
 16 17  1  0  0  0
 18 19  1  0  0  0
 19 21  1  0  0  0
 19 20  1  0  0  0
 21 22  1  0  0  0
 22 23  2  0  0  0
M  END
> <minimizedAffinity>
-6.43357

$$$$
