CHEMBL233874


 23 25  0  0  0  0  0  0  0  0999 V2000
  -28.0363   -2.0511   -9.3879 C   0  0  0  0  0  0  0  0  0  0  0  0
  -27.6750   -0.9726   -8.6847 N   0  0  0  0  0  0  0  0  0  0  0  0
  -27.7570   -1.0765   -7.3440 C   0  0  0  0  0  0  0  0  0  0  0  0
  -28.1803   -2.2068   -6.6766 C   0  0  0  0  0  0  0  0  0  0  0  0
  -28.5761   -3.2690   -7.4692 C   0  0  0  0  0  0  0  0  0  0  0  0
  -28.4899   -3.1813   -8.8198 N   0  0  0  0  0  0  0  0  0  0  0  0
  -29.0955   -4.5768   -6.9838 C   0  0  0  0  0  0  0  0  0  0  0  0
  -30.0676   -4.6874   -5.9721 C   0  0  0  0  0  0  0  0  0  0  0  0
  -30.5099   -5.9310   -5.5059 C   0  0  0  0  0  0  0  0  0  0  0  0
  -30.0224   -7.1031   -6.0708 C   0  0  0  0  0  0  0  0  0  0  0  0
  -29.0989   -7.0313   -7.1076 C   0  0  0  0  0  0  0  0  0  0  0  0
  -28.6420   -5.7851   -7.5551 C   0  0  0  0  0  0  0  0  0  0  0  0
  -27.8828   -1.9778  -10.7718 N   0  0  0  0  0  0  0  0  0  0  0  0
  -28.4599   -2.6902  -11.2000 H   0  0  0  0  0  0  0  0  0  0  0  0
  -23.0512   -0.9245  -13.6505 C   0  0  0  0  0  0  0  0  0  0  0  0
  -24.3014   -1.2437  -12.8879 C   0  0  0  0  0  0  0  0  0  0  0  0
  -24.2836   -1.3296  -11.4939 C   0  0  0  0  0  0  0  0  0  0  0  0
  -25.4623   -1.5778  -10.7884 C   0  0  0  0  0  0  0  0  0  0  0  0
  -26.6806   -1.7340  -11.4550 C   0  0  0  0  0  0  0  0  0  0  0  0
  -26.6851   -1.7048  -12.8548 C   0  0  0  0  0  0  0  0  0  0  0  0
  -25.5099   -1.4427  -13.5652 C   0  0  0  0  0  0  0  0  0  0  0  0
  -28.1436   -2.2145   -5.2535 C   0  0  0  0  0  0  0  0  0  0  0  0
  -28.1404   -2.1956   -4.0932 N   0  0  0  0  0  0  0  0  0  0  0  0
 15 16  1  0  0  0
 16 17  1  0  0  0
 16 21  2  0  0  0
 17 18  2  0  0  0
 18 19  1  0  0  0
 19 13  1  0  0  0
 19 20  2  0  0  0
 13  1  1  0  0  0
 13 14  1  0  0  0
  1  2  1  0  0  0
  1  6  2  0  0  0
  2  3  2  0  0  0
  3  4  1  0  0  0
  4 22  1  0  0  0
  4  5  2  0  0  0
 22 23  3  0  0  0
  5  7  1  0  0  0
  5  6  1  0  0  0
  7  8  1  0  0  0
  7 12  2  0  0  0
  8  9  2  0  0  0
  9 10  1  0  0  0
 10 11  2  0  0  0
 11 12  1  0  0  0
 20 21  1  0  0  0
M  END
> <minimizedAffinity>
-8.28148

$$$$
