CHEMBL3934424


 42 45  0  0  0  0  0  0  0  0999 V2000
  -26.8830  -11.1971   -6.2239 C   0  0  0  0  0  0  0  0  0  0  0  0
  -26.4142  -11.4108   -7.5038 C   0  0  0  0  0  0  0  0  0  0  0  0
  -27.3299  -10.9840   -8.5062 C   0  0  0  0  0  0  0  0  0  0  0  0
  -27.1311  -11.1133   -9.8445 N   0  0  0  0  0  0  0  0  0  0  0  0
  -28.0992  -10.6108  -10.6287 C   0  0  0  0  0  0  0  0  0  0  0  0
  -29.2426   -9.9808  -10.1764 C   0  0  0  0  0  0  0  0  0  0  0  0
  -29.4805   -9.9040   -8.8010 C   0  0  0  0  0  0  0  0  0  0  0  0
  -28.4751  -10.4056   -7.9596 C   0  0  0  0  0  0  0  0  0  0  0  0
  -28.4177  -10.4382   -6.2458 S   0  0  0  0  0  0  0  0  0  0  0  0
  -25.0378  -10.8650   -4.7422 N   0  0  0  0  0  0  0  0  0  0  0  0
  -26.2151  -11.5386   -4.9776 C   0  0  0  0  0  0  0  0  0  0  0  0
  -26.6610  -12.3662   -4.1860 O   0  0  0  0  0  0  0  0  0  0  0  0
  -24.6819  -10.2532   -5.4708 H   0  0  0  0  0  0  0  0  0  0  0  0
  -24.1934  -11.1187   -3.6014 C   0  0  0  0  0  0  0  0  0  0  0  0
  -23.1406  -12.1850   -3.8883 C   0  0  0  0  0  0  0  0  0  0  0  0
  -22.0108  -11.7157   -4.8210 C   0  0  0  0  0  0  0  0  0  0  0  0
  -22.4307  -11.3733   -6.1961 N   0  0  0  0  0  0  0  0  0  0  0  0
  -20.8445   -9.8374   -7.4280 C   0  0  0  0  0  0  0  0  0  0  0  0
  -22.0766   -9.9859   -6.5411 C   0  0  0  0  0  0  0  0  0  0  0  0
  -21.9490  -12.3728   -7.1688 C   0  0  0  0  0  0  0  0  0  0  0  0
  -22.7158  -12.4649   -8.4865 C   0  0  0  0  0  0  0  0  0  0  0  0
  -30.6082   -9.3246   -8.2440 O   0  0  0  0  0  0  0  0  0  0  0  0
  -30.4739   -8.1328   -7.5700 C   0  0  0  0  0  0  0  0  0  0  0  0
  -29.5823   -7.1435   -7.9599 C   0  0  0  0  0  0  0  0  0  0  0  0
  -29.3861   -6.0310   -7.1522 C   0  0  0  0  0  0  0  0  0  0  0  0
  -30.1424   -5.8206   -5.9925 C   0  0  0  0  0  0  0  0  0  0  0  0
  -31.1218   -6.7641   -5.6678 C   0  0  0  0  0  0  0  0  0  0  0  0
  -31.2858   -7.9184   -6.4543 C   0  0  0  0  0  0  0  0  0  0  0  0
  -29.9420   -4.7022   -5.1456 N   0  0  0  0  0  0  0  0  0  0  0  0
  -29.7312   -3.4134   -5.5870 C   0  0  0  0  0  0  0  0  0  0  0  0
  -29.7430   -3.0681   -6.7676 O   0  0  0  0  0  0  0  0  0  0  0  0
  -29.4631   -2.5098   -4.5700 N   0  0  0  0  0  0  0  0  0  0  0  0
  -30.0423   -4.8408   -4.1486 H   0  0  0  0  0  0  0  0  0  0  0  0
  -28.8261   -2.8698   -3.8684 H   0  0  0  0  0  0  0  0  0  0  0  0
  -29.2028   -1.1653   -4.9677 C   0  0  0  0  0  0  0  0  0  0  0  0
  -30.2560   -0.3144   -5.3394 C   0  0  0  0  0  0  0  0  0  0  0  0
  -29.9971    0.9195   -5.9432 C   0  0  0  0  0  0  0  0  0  0  0  0
  -31.1310    1.7854   -6.4170 C   0  0  0  0  0  0  0  0  0  0  0  0
  -28.6671    1.3011   -6.1609 C   0  0  0  0  0  0  0  0  0  0  0  0
  -27.6158    0.4834   -5.7324 C   0  0  0  0  0  0  0  0  0  0  0  0
  -27.8905   -0.7324   -5.1159 C   0  0  0  0  0  0  0  0  0  0  0  0
  -26.8784   -1.5384   -4.7623 F   0  0  0  0  0  0  0  0  0  0  0  0
 18 19  1  0  0  0
 19 17  1  0  0  0
 17 20  1  0  0  0
 17 16  1  0  0  0
 20 21  1  0  0  0
 16 15  1  0  0  0
 15 14  1  0  0  0
 14 10  1  0  0  0
 10 11  1  0  0  0
 10 13  1  0  0  0
 11 12  2  0  0  0
 11  1  1  0  0  0
  1  2  2  0  0  0
  1  9  1  0  0  0
  2  3  1  0  0  0
  3  4  1  0  0  0
  3  8  2  0  0  0
  4  5  2  0  0  0
  5  6  1  0  0  0
  6  7  2  0  0  0
  7 22  1  0  0  0
  7  8  1  0  0  0
 22 23  1  0  0  0
 23 24  1  0  0  0
 23 28  2  0  0  0
 24 25  2  0  0  0
 25 26  1  0  0  0
 26 29  1  0  0  0
 26 27  2  0  0  0
 29 30  1  0  0  0
 29 33  1  0  0  0
 30 31  2  0  0  0
 30 32  1  0  0  0
 32 35  1  0  0  0
 32 34  1  0  0  0
 35 36  1  0  0  0
 35 41  2  0  0  0
 36 37  2  0  0  0
 37 38  1  0  0  0
 37 39  1  0  0  0
 39 40  2  0  0  0
 40 41  1  0  0  0
 41 42  1  0  0  0
 27 28  1  0  0  0
  8  9  1  0  0  0
M  END
> <minimizedAffinity>
-8.51258

$$$$
