CHEMBL1077291


 25 28  0  0  0  0  0  0  0  0999 V2000
  -31.5580   -5.3015   -4.0075 O   0  0  0  0  0  0  0  0  0  0  0  0
  -31.0447   -5.8973   -4.9373 C   0  0  0  0  0  0  0  0  0  0  0  0
  -31.2708   -7.2174   -5.3175 N   0  0  0  0  0  0  0  0  0  0  0  0
  -30.4623   -7.5843   -6.3925 C   0  0  0  0  0  0  0  0  0  0  0  0
  -30.4201   -8.8237   -7.0147 C   0  0  0  0  0  0  0  0  0  0  0  0
  -29.5093   -8.9977   -8.0599 C   0  0  0  0  0  0  0  0  0  0  0  0
  -28.6274   -7.9690   -8.3860 C   0  0  0  0  0  0  0  0  0  0  0  0
  -27.7399   -8.1449   -9.3743 F   0  0  0  0  0  0  0  0  0  0  0  0
  -28.6442   -6.7591   -7.7041 C   0  0  0  0  0  0  0  0  0  0  0  0
  -29.6299   -6.5248   -6.7601 C   0  0  0  0  0  0  0  0  0  0  0  0
  -30.0336   -5.3715   -5.9286 C   0  0  0  0  0  0  0  0  0  0  0  0
  -29.7456   -4.0570   -5.9949 C   0  0  0  0  0  0  0  0  0  0  0  0
  -30.1259   -3.0091   -5.1605 N   0  0  0  0  0  0  0  0  0  0  0  0
  -29.3683   -1.8749   -5.4577 C   0  0  0  0  0  0  0  0  0  0  0  0
  -29.4134   -0.6226   -4.8730 C   0  0  0  0  0  0  0  0  0  0  0  0
  -28.6183    0.4012   -5.4169 C   0  0  0  0  0  0  0  0  0  0  0  0
  -27.7969    0.1709   -6.5310 C   0  0  0  0  0  0  0  0  0  0  0  0
  -27.7769   -1.0808   -7.1357 C   0  0  0  0  0  0  0  0  0  0  0  0
  -28.5809   -2.0704   -6.5993 C   0  0  0  0  0  0  0  0  0  0  0  0
  -28.8576   -3.4380   -7.0700 C   0  0  0  0  0  0  0  0  0  0  0  0
  -28.5108   -4.0092   -8.1754 N   0  0  0  0  0  0  0  0  0  0  0  0
  -27.6404   -3.2763   -8.9680 O   0  0  0  0  0  0  0  0  0  0  0  0
  -31.9132   -7.8278   -4.8343 H   0  0  0  0  0  0  0  0  0  0  0  0
  -30.5199   -3.2078   -4.2526 H   0  0  0  0  0  0  0  0  0  0  0  0
  -27.3601   -3.9410   -9.6245 H   0  0  0  0  0  0  0  0  0  0  0  0
  1  2  2  0  0  0
  2  3  1  0  0  0
  2 11  1  0  0  0
  3  4  1  0  0  0
  3 23  1  0  0  0
  4  5  1  0  0  0
  4 10  2  0  0  0
  5  6  2  0  0  0
  6  7  1  0  0  0
  7  8  1  0  0  0
  7  9  2  0  0  0
  9 10  1  0  0  0
 10 11  1  0  0  0
 11 12  2  0  0  0
 12 13  1  0  0  0
 12 20  1  0  0  0
 13 14  1  0  0  0
 13 24  1  0  0  0
 14 15  1  0  0  0
 14 19  2  0  0  0
 15 16  2  0  0  0
 16 17  1  0  0  0
 17 18  2  0  0  0
 18 19  1  0  0  0
 19 20  1  0  0  0
 20 21  2  0  0  0
 21 22  1  0  0  0
 22 25  1  0  0  0
M  END
> <minimizedAffinity>
-9.66948

$$$$
