CHEMBL3925081


 34 37  0  0  0  0  0  0  0  0999 V2000
  -17.0310    2.1070  -15.6241 N   0  0  0  0  0  0  0  0  0  0  0  0
  -18.4843    2.0182  -15.4297 C   0  0  0  0  0  0  0  0  0  0  0  0
  -19.0688    3.2643  -15.2736 C   0  0  0  0  0  0  0  0  0  0  0  0
  -20.3213    3.4428  -14.8423 C   0  0  0  0  0  0  0  0  0  0  0  0
  -21.1155    2.3643  -14.5396 C   0  0  0  0  0  0  0  0  0  0  0  0
  -22.3006    2.7089  -14.0635 N   0  0  0  0  0  0  0  0  0  0  0  0
  -23.1889    1.8210  -13.6726 C   0  0  0  0  0  0  0  0  0  0  0  0
  -22.9557    0.4463  -13.7656 C   0  0  0  0  0  0  0  0  0  0  0  0
  -21.7006    0.0449  -14.3063 N   0  0  0  0  0  0  0  0  0  0  0  0
  -20.7326    1.0224  -14.6899 C   0  0  0  0  0  0  0  0  0  0  0  0
  -19.3354    0.8291  -15.1707 C   0  0  0  0  0  0  0  0  0  0  0  0
  -24.2100   -0.3489  -13.2799 C   0  0  0  0  0  0  0  0  0  0  0  0
  -24.7155   -0.1933  -11.9570 C   0  0  0  0  0  0  0  0  0  0  0  0
  -25.8460   -0.8585  -11.7867 N   0  0  0  0  0  0  0  0  0  0  0  0
  -26.1296   -1.4771  -12.9062 N   0  0  0  0  0  0  0  0  0  0  0  0
  -27.3841   -2.2145  -13.0172 C   0  0  0  0  0  0  0  0  0  0  0  0
  -25.1509   -1.2394  -13.8404 C   0  0  0  0  0  0  0  0  0  0  0  0
  -15.0405   -0.3164  -13.4061 C   0  0  0  0  0  0  0  0  0  0  0  0
  -13.9790   -0.6093  -14.2820 C   0  0  0  0  0  0  0  0  0  0  0  0
  -13.9163   -0.0251  -15.5479 C   0  0  0  0  0  0  0  0  0  0  0  0
  -14.9248    0.8496  -15.9477 C   0  0  0  0  0  0  0  0  0  0  0  0
  -16.0050    1.2093  -15.1061 C   0  0  0  0  0  0  0  0  0  0  0  0
  -16.0505    0.6065  -13.8174 C   0  0  0  0  0  0  0  0  0  0  0  0
  -15.5339   -2.4398  -10.8611 H   0  0  0  0  0  0  0  0  0  0  0  0
  -15.5722   -2.2140  -11.9455 C   0  0  0  0  0  0  0  0  0  0  0  0
  -14.9346   -2.9484  -12.4791 H   0  0  0  0  0  0  0  0  0  0  0  0
  -16.6265   -2.3300  -12.2810 H   0  0  0  0  0  0  0  0  0  0  0  0
  -15.1103   -0.9160  -12.1805 O   0  0  0  0  0  0  0  0  0  0  0  0
  -12.8982   -0.2703  -16.4159 O   0  0  0  0  0  0  0  0  0  0  0  0
  -12.6352   -1.4749  -17.0359 C   0  0  0  0  0  0  0  0  0  0  0  0
  -16.6073    3.2282  -16.5255 C   0  0  0  0  0  0  0  0  0  0  0  0
  -15.7613    4.3879  -15.9037 C   0  0  0  0  0  0  0  0  0  0  0  0
  -14.9538    5.0302  -16.8504 O   0  0  0  0  0  0  0  0  0  0  0  0
  -14.0103    4.8853  -16.5699 H   0  0  0  0  0  0  0  0  0  0  0  0
 24 25  1  0  0  0
 25 26  1  0  0  0
 25 27  1  0  0  0
 25 28  1  0  0  0
 28 18  1  0  0  0
 18 19  1  0  0  0
 18 23  2  0  0  0
 19 20  2  0  0  0
 20 29  1  0  0  0
 20 21  1  0  0  0
 29 30  1  0  0  0
 21 22  2  0  0  0
 22  1  1  0  0  0
 22 23  1  0  0  0
  1 31  1  0  0  0
  1  2  1  0  0  0
 31 32  1  0  0  0
 32 33  1  0  0  0
 33 34  1  0  0  0
  2  3  1  0  0  0
  2 11  2  0  0  0
  3  4  2  0  0  0
  4  5  1  0  0  0
  5  6  1  0  0  0
  5 10  2  0  0  0
  6  7  2  0  0  0
  7  8  1  0  0  0
  8 12  1  0  0  0
  8  9  2  0  0  0
 12 13  1  0  0  0
 12 17  2  0  0  0
 13 14  2  0  0  0
 14 15  1  0  0  0
 15 16  1  0  0  0
 15 17  1  0  0  0
  9 10  1  0  0  0
 10 11  1  0  0  0
M  ISO 1  24   2
M  ISO 1  26   2
M  ISO 1  27   2
M  END
> <minimizedAffinity>
-8.71051

$$$$
