CHEMBL3982717


 37 41  0  0  0  0  0  0  0  0999 V2000
  -30.1426   -6.5937   -4.7187 C   0  0  0  0  0  0  0  0  0  0  0  0
  -31.3546   -6.0986   -4.4415 N   0  0  0  0  0  0  0  0  0  0  0  0
  -31.3942   -4.8420   -3.9460 C   0  0  0  0  0  0  0  0  0  0  0  0
  -30.2843   -4.0480   -3.7432 C   0  0  0  0  0  0  0  0  0  0  0  0
  -30.4935   -2.4267   -3.2265 Cl  0  0  0  0  0  0  0  0  0  0  0  0
  -29.0691   -4.6315   -4.0466 C   0  0  0  0  0  0  0  0  0  0  0  0
  -29.0047   -5.8988   -4.5291 N   0  0  0  0  0  0  0  0  0  0  0  0
  -30.1149   -7.8987   -5.2121 N   0  0  0  0  0  0  0  0  0  0  0  0
  -29.9134   -8.5228   -4.4414 H   0  0  0  0  0  0  0  0  0  0  0  0
  -29.9086   -9.5938   -8.2601 N   0  0  0  0  0  0  0  0  0  0  0  0
  -30.2107   -9.6014   -6.9238 C   0  0  0  0  0  0  0  0  0  0  0  0
  -30.0238   -8.3111   -6.4896 C   0  0  0  0  0  0  0  0  0  0  0  0
  -29.6854   -7.5841   -7.6443 C   0  0  0  0  0  0  0  0  0  0  0  0
  -29.6299   -8.3615   -8.7246 N   0  0  0  0  0  0  0  0  0  0  0  0
  -25.6840  -11.5446   -8.7790 C   0  0  0  0  0  0  0  0  0  0  0  0
  -27.0598  -11.7425   -9.2626 N   0  0  0  0  0  0  0  0  0  0  0  0
  -27.9198  -12.0433   -8.1057 C   0  0  0  0  0  0  0  0  0  0  0  0
  -29.4124  -12.0359   -8.4347 C   0  0  0  0  0  0  0  0  0  0  0  0
  -29.8455  -10.7525   -9.1483 C   0  0  0  0  0  0  0  0  0  0  0  0
  -28.9534  -10.5193  -10.3663 C   0  0  0  0  0  0  0  0  0  0  0  0
  -27.4686  -10.5390  -10.0055 C   0  0  0  0  0  0  0  0  0  0  0  0
  -27.7484   -3.8980   -4.0121 C   0  0  0  0  0  0  0  0  0  0  0  0
  -27.2660   -3.2737   -5.3361 C   0  0  0  0  0  0  0  0  0  0  0  0
  -27.6944   -1.8276   -5.5909 C   0  0  0  0  0  0  0  0  0  0  0  0
  -27.5835   -0.8548   -4.5776 C   0  0  0  0  0  0  0  0  0  0  0  0
  -28.0171    0.4569   -4.7695 C   0  0  0  0  0  0  0  0  0  0  0  0
  -28.6001    0.8217   -5.9702 C   0  0  0  0  0  0  0  0  0  0  0  0
  -28.6672   -0.1063   -7.0036 C   0  0  0  0  0  0  0  0  0  0  0  0
  -28.1656   -1.4222   -6.8692 C   0  0  0  0  0  0  0  0  0  0  0  0
  -28.1172   -2.3061   -8.1253 C   0  0  0  0  0  0  0  0  0  0  0  0
  -26.9060   -2.1548   -9.0461 C   0  0  0  0  0  0  0  0  0  0  0  0
  -28.2159   -1.6004   -9.4865 C   0  0  0  0  0  0  0  0  0  0  0  0
  -28.7934   -3.6431   -8.0260 C   0  0  0  0  0  0  0  0  0  0  0  0
  -28.0425   -4.7059   -8.4494 N   0  0  0  0  0  0  0  0  0  0  0  0
  -29.9264   -3.7694   -7.5889 O   0  0  0  0  0  0  0  0  0  0  0  0
  -27.1311   -4.5921   -8.8663 H   0  0  0  0  0  0  0  0  0  0  0  0
  -28.4806   -5.6150   -8.4588 H   0  0  0  0  0  0  0  0  0  0  0  0
 15 16  1  0  0  0
 16 17  1  0  0  0
 16 21  1  0  0  0
 17 18  1  0  0  0
 18 19  1  0  0  0
 19 10  1  0  0  0
 19 20  1  0  0  0
 10 11  1  0  0  0
 10 14  1  0  0  0
 11 12  2  0  0  0
 12  8  1  0  0  0
 12 13  1  0  0  0
  8  1  1  0  0  0
  8  9  1  0  0  0
  1  2  1  0  0  0
  1  7  2  0  0  0
  2  3  2  0  0  0
  3  4  1  0  0  0
  4  5  1  0  0  0
  4  6  2  0  0  0
  6 22  1  0  0  0
  6  7  1  0  0  0
 22 23  1  0  0  0
 23 24  1  0  0  0
 24 25  1  0  0  0
 24 29  2  0  0  0
 25 26  2  0  0  0
 26 27  1  0  0  0
 27 28  2  0  0  0
 28 29  1  0  0  0
 29 30  1  0  0  0
 30 33  1  0  0  0
 30 31  1  0  0  0
 30 32  1  0  0  0
 33 34  1  0  0  0
 33 35  2  0  0  0
 34 36  1  0  0  0
 34 37  1  0  0  0
 31 32  1  0  0  0
 13 14  2  0  0  0
 20 21  1  0  0  0
M  END
> <minimizedAffinity>
-8.69915

$$$$
