CHEMBL3628907


 34 38  0  0  0  0  0  0  0  0999 V2000
  -14.7932   -0.4058  -14.3152 C   0  0  0  0  0  0  0  0  0  0  0  0
  -15.0588   -1.5875  -13.6100 C   0  0  0  0  0  0  0  0  0  0  0  0
  -14.0392   -2.2774  -12.9456 C   0  0  0  0  0  0  0  0  0  0  0  0
  -12.7293   -1.8104  -12.9969 C   0  0  0  0  0  0  0  0  0  0  0  0
  -12.4490   -0.6210  -13.6775 C   0  0  0  0  0  0  0  0  0  0  0  0
  -13.4709    0.0646  -14.3451 C   0  0  0  0  0  0  0  0  0  0  0  0
  -13.0638    1.5229  -15.1857 Cl  0  0  0  0  0  0  0  0  0  0  0  0
  -17.0512    1.0341  -13.2373 O   0  0  0  0  0  0  0  0  0  0  0  0
  -16.9163    0.8883  -14.4453 C   0  0  0  0  0  0  0  0  0  0  0  0
  -17.8585    1.2493  -15.3956 N   0  0  0  0  0  0  0  0  0  0  0  0
  -15.8052    0.2971  -15.0243 N   0  0  0  0  0  0  0  0  0  0  0  0
  -17.7209    0.8777  -16.3235 H   0  0  0  0  0  0  0  0  0  0  0  0
  -15.5695    0.5780  -15.9661 H   0  0  0  0  0  0  0  0  0  0  0  0
  -19.1375    1.7940  -15.1124 C   0  0  0  0  0  0  0  0  0  0  0  0
  -19.4121    3.1661  -15.1406 C   0  0  0  0  0  0  0  0  0  0  0  0
  -20.6661    3.6585  -14.7675 C   0  0  0  0  0  0  0  0  0  0  0  0
  -21.6695    2.7793  -14.3765 C   0  0  0  0  0  0  0  0  0  0  0  0
  -21.4171    1.4098  -14.3839 C   0  0  0  0  0  0  0  0  0  0  0  0
  -22.7811    0.2132  -13.8489 Br  0  0  0  0  0  0  0  0  0  0  0  0
  -20.1643    0.9119  -14.7590 C   0  0  0  0  0  0  0  0  0  0  0  0
  -11.7884   -2.5419  -12.3003 O   0  0  0  0  0  0  0  0  0  0  0  0
  -12.2630   -3.4767  -11.3895 C   0  0  0  0  0  0  0  0  0  0  0  0
  -12.4037   -3.1055  -10.0952 N   0  0  0  0  0  0  0  0  0  0  0  0
  -12.9561   -3.9792   -9.2483 C   0  0  0  0  0  0  0  0  0  0  0  0
  -13.4005   -5.2040   -9.5289 N   0  0  0  0  0  0  0  0  0  0  0  0
  -13.1946   -5.5513  -10.8103 C   0  0  0  0  0  0  0  0  0  0  0  0
  -13.6972   -7.0757  -11.3760 S   0  0  0  0  0  0  0  0  0  0  0  0
  -13.0932   -6.7612  -12.9313 C   0  0  0  0  0  0  0  0  0  0  0  0
  -12.5044   -5.5126  -13.0385 C   0  0  0  0  0  0  0  0  0  0  0  0
  -12.6060   -4.7731  -11.7998 C   0  0  0  0  0  0  0  0  0  0  0  0
  -11.8266   -5.0803  -14.3102 C   0  0  0  0  0  0  0  0  0  0  0  0
  -12.2491   -5.9429  -15.5134 C   0  0  0  0  0  0  0  0  0  0  0  0
  -12.2527   -7.4403  -15.1746 C   0  0  0  0  0  0  0  0  0  0  0  0
  -13.2341   -7.7577  -14.0399 C   0  0  0  0  0  0  0  0  0  0  0  0
  8  9  2  0  0  0
  9 10  1  0  0  0
  9 11  1  0  0  0
 10 14  1  0  0  0
 10 12  1  0  0  0
 14 15  1  0  0  0
 14 20  2  0  0  0
 15 16  2  0  0  0
 16 17  1  0  0  0
 17 18  2  0  0  0
 18 19  1  0  0  0
 18 20  1  0  0  0
 11  1  1  0  0  0
 11 13  1  0  0  0
  1  2  1  0  0  0
  1  6  2  0  0  0
  2  3  2  0  0  0
  3  4  1  0  0  0
  4 21  1  0  0  0
  4  5  2  0  0  0
 21 22  1  0  0  0
 22 23  1  0  0  0
 22 30  2  0  0  0
 23 24  2  0  0  0
 24 25  1  0  0  0
 25 26  2  0  0  0
 26 27  1  0  0  0
 26 30  1  0  0  0
 27 28  1  0  0  0
 28 29  2  0  0  0
 28 34  1  0  0  0
 29 30  1  0  0  0
 29 31  1  0  0  0
 31 32  1  0  0  0
 32 33  1  0  0  0
 33 34  1  0  0  0
  5  6  1  0  0  0
  6  7  1  0  0  0
M  END
> <minimizedAffinity>
-8.96578

$$$$
