CHEMBL103667


 41 45  0  0  0  0  0  0  0  0999 V2000
  -15.0973   -3.1655  -13.3097 N   0  0  0  0  0  0  0  0  0  0  0  0
  -14.7631   -2.0063  -14.0656 C   0  0  0  0  0  0  0  0  0  0  0  0
  -13.8439   -2.0766  -14.8593 O   0  0  0  0  0  0  0  0  0  0  0  0
  -15.5957   -0.9447  -13.7979 N   0  0  0  0  0  0  0  0  0  0  0  0
  -15.9795   -3.2579  -12.8285 H   0  0  0  0  0  0  0  0  0  0  0  0
  -16.1457   -0.9699  -12.9550 H   0  0  0  0  0  0  0  0  0  0  0  0
  -15.4723    0.3164  -14.4664 C   0  0  0  0  0  0  0  0  0  0  0  0
  -14.1924    0.8459  -14.6826 C   0  0  0  0  0  0  0  0  0  0  0  0
  -14.0120    2.1386  -15.1521 C   0  0  0  0  0  0  0  0  0  0  0  0
  -15.1068    2.9109  -15.5088 C   0  0  0  0  0  0  0  0  0  0  0  0
  -16.4158    2.3859  -15.3954 C   0  0  0  0  0  0  0  0  0  0  0  0
  -17.5304    3.1537  -15.7825 C   0  0  0  0  0  0  0  0  0  0  0  0
  -18.8311    2.6624  -15.6936 C   0  0  0  0  0  0  0  0  0  0  0  0
  -19.0370    1.3741  -15.2202 C   0  0  0  0  0  0  0  0  0  0  0  0
  -17.9515    0.5923  -14.8220 C   0  0  0  0  0  0  0  0  0  0  0  0
  -16.6135    1.0619  -14.8874 C   0  0  0  0  0  0  0  0  0  0  0  0
  -14.9754    4.2059  -15.9658 O   0  0  0  0  0  0  0  0  0  0  0  0
  -13.6985    4.8189  -15.7387 C   0  0  0  0  0  0  0  0  0  0  0  0
  -13.0723    5.1755  -17.0947 C   0  0  0  0  0  0  0  0  0  0  0  0
  -13.9715    5.0277  -18.2550 N   0  0  0  0  0  0  0  0  0  0  0  0
  -13.5215    3.9139  -19.1267 C   0  0  0  0  0  0  0  0  0  0  0  0
  -12.2826    4.2538  -19.9779 C   0  0  0  0  0  0  0  0  0  0  0  0
  -12.5059    5.4183  -20.7821 O   0  0  0  0  0  0  0  0  0  0  0  0
  -12.8590    6.5391  -19.9638 C   0  0  0  0  0  0  0  0  0  0  0  0
  -14.0975    6.2329  -19.1050 C   0  0  0  0  0  0  0  0  0  0  0  0
  -13.2646   -4.7636  -12.6926 N   0  0  0  0  0  0  0  0  0  0  0  0
  -12.6105   -5.7990  -13.2768 N   0  0  0  0  0  0  0  0  0  0  0  0
  -13.3554   -6.1296  -14.3432 C   0  0  0  0  0  0  0  0  0  0  0  0
  -14.4088   -5.1987  -14.5290 C   0  0  0  0  0  0  0  0  0  0  0  0
  -14.3086   -4.3093  -13.4825 C   0  0  0  0  0  0  0  0  0  0  0  0
  -11.7952   -2.9862   -7.4520 C   0  0  0  0  0  0  0  0  0  0  0  0
  -12.1837   -3.4418   -8.8284 C   0  0  0  0  0  0  0  0  0  0  0  0
  -13.4818   -3.8947   -9.0941 C   0  0  0  0  0  0  0  0  0  0  0  0
  -13.8449   -4.2949  -10.3822 C   0  0  0  0  0  0  0  0  0  0  0  0
  -12.8933   -4.2956  -11.4063 C   0  0  0  0  0  0  0  0  0  0  0  0
  -11.5981   -3.8200  -11.1550 C   0  0  0  0  0  0  0  0  0  0  0  0
  -11.2530   -3.3851   -9.8725 C   0  0  0  0  0  0  0  0  0  0  0  0
  -13.0287   -7.3364  -15.2188 C   0  0  0  0  0  0  0  0  0  0  0  0
  -13.8762   -7.3715  -16.5082 C   0  0  0  0  0  0  0  0  0  0  0  0
  -11.5389   -7.3081  -15.6264 C   0  0  0  0  0  0  0  0  0  0  0  0
  -13.2909   -8.6419  -14.4414 C   0  0  0  0  0  0  0  0  0  0  0  0
 31 32  1  0  0  0
 32 33  1  0  0  0
 32 37  2  0  0  0
 33 34  2  0  0  0
 34 35  1  0  0  0
 35 26  1  0  0  0
 35 36  2  0  0  0
 26 27  1  0  0  0
 26 30  1  0  0  0
 27 28  2  0  0  0
 28 38  1  0  0  0
 28 29  1  0  0  0
 38 39  1  0  0  0
 38 40  1  0  0  0
 38 41  1  0  0  0
 29 30  2  0  0  0
 30  1  1  0  0  0
  1  2  1  0  0  0
  1  5  1  0  0  0
  2  3  2  0  0  0
  2  4  1  0  0  0
  4  7  1  0  0  0
  4  6  1  0  0  0
  7  8  1  0  0  0
  7 16  2  0  0  0
  8  9  2  0  0  0
  9 10  1  0  0  0
 10 17  1  0  0  0
 10 11  2  0  0  0
 17 18  1  0  0  0
 18 19  1  0  0  0
 19 20  1  0  0  0
 20 21  1  0  0  0
 20 25  1  0  0  0
 21 22  1  0  0  0
 22 23  1  0  0  0
 23 24  1  0  0  0
 24 25  1  0  0  0
 11 12  1  0  0  0
 11 16  1  0  0  0
 12 13  2  0  0  0
 13 14  1  0  0  0
 14 15  2  0  0  0
 15 16  1  0  0  0
 36 37  1  0  0  0
M  END
> <minimizedAffinity>
-7.75125

$$$$
