CHEMBL1762528


 37 41  0  0  0  0  0  0  0  0999 V2000
  -28.4572   -7.7985   -3.7056 N   0  0  0  0  0  0  0  0  0  0  0  0
  -27.7650   -7.5716   -3.0075 H   0  0  0  0  0  0  0  0  0  0  0  0
  -29.8293   -4.7306   -4.9972 C   0  0  0  0  0  0  0  0  0  0  0  0
  -31.0132   -4.6484   -4.2818 C   0  0  0  0  0  0  0  0  0  0  0  0
  -31.2821   -5.6521   -3.3903 C   0  0  0  0  0  0  0  0  0  0  0  0
  -30.4631   -6.6843   -3.1910 N   0  0  0  0  0  0  0  0  0  0  0  0
  -29.3340   -6.7266   -3.9103 C   0  0  0  0  0  0  0  0  0  0  0  0
  -28.9931   -5.7818   -4.8035 N   0  0  0  0  0  0  0  0  0  0  0  0
  -29.9635   -3.9433   -7.3189 C   0  0  0  0  0  0  0  0  0  0  0  0
  -29.4900   -3.7257   -5.9489 N   0  0  0  0  0  0  0  0  0  0  0  0
  -28.9906   -2.4434   -5.6270 C   0  0  0  0  0  0  0  0  0  0  0  0
  -27.6731   -2.2128   -5.2040 C   0  0  0  0  0  0  0  0  0  0  0  0
  -27.2186   -0.9225   -4.9091 C   0  0  0  0  0  0  0  0  0  0  0  0
  -28.0721    0.1715   -5.0422 C   0  0  0  0  0  0  0  0  0  0  0  0
  -29.3954   -0.0169   -5.4497 C   0  0  0  0  0  0  0  0  0  0  0  0
  -29.8334   -1.3222   -5.7319 C   0  0  0  0  0  0  0  0  0  0  0  0
  -30.3308    1.1339   -5.7072 C   0  0  0  0  0  0  0  0  0  0  0  0
  -29.9990    1.8421   -6.8951 O   0  0  0  0  0  0  0  0  0  0  0  0
  -29.0812    2.1404   -6.7891 H   0  0  0  0  0  0  0  0  0  0  0  0
  -28.0910   -8.7779   -4.6522 C   0  0  0  0  0  0  0  0  0  0  0  0
  -26.8268   -9.3818   -4.6305 C   0  0  0  0  0  0  0  0  0  0  0  0
  -26.4039  -10.2928   -5.6001 C   0  0  0  0  0  0  0  0  0  0  0  0
  -27.3178  -10.5944   -6.6160 C   0  0  0  0  0  0  0  0  0  0  0  0
  -28.6273  -10.0750   -6.6597 C   0  0  0  0  0  0  0  0  0  0  0  0
  -28.9873   -9.1611   -5.6563 C   0  0  0  0  0  0  0  0  0  0  0  0
  -25.1556  -10.8749   -5.5484 N   0  0  0  0  0  0  0  0  0  0  0  0
  -24.6146  -11.4622   -4.3172 C   0  0  0  0  0  0  0  0  0  0  0  0
  -23.2748  -10.8034   -3.9690 C   0  0  0  0  0  0  0  0  0  0  0  0
  -22.3468  -10.8989   -5.0647 O   0  0  0  0  0  0  0  0  0  0  0  0
  -22.8819  -10.2370   -6.2252 C   0  0  0  0  0  0  0  0  0  0  0  0
  -24.2212  -10.8498   -6.6799 C   0  0  0  0  0  0  0  0  0  0  0  0
  -29.4917  -10.4570   -7.6701 N   0  0  0  0  0  0  0  0  0  0  0  0
  -30.2789   -9.5060   -8.4647 C   0  0  0  0  0  0  0  0  0  0  0  0
  -31.7792   -9.7218   -8.2261 C   0  0  0  0  0  0  0  0  0  0  0  0
  -32.1621  -11.0850   -8.4785 O   0  0  0  0  0  0  0  0  0  0  0  0
  -31.4423  -11.9699   -7.6042 C   0  0  0  0  0  0  0  0  0  0  0  0
  -29.9204  -11.8611   -7.8022 C   0  0  0  0  0  0  0  0  0  0  0  0
  9 10  1  0  0  0
 10 11  1  0  0  0
 10  3  1  0  0  0
 11 12  1  0  0  0
 11 16  2  0  0  0
 12 13  2  0  0  0
 13 14  1  0  0  0
 14 15  2  0  0  0
 15 17  1  0  0  0
 15 16  1  0  0  0
 17 18  1  0  0  0
 18 19  1  0  0  0
  3  4  1  0  0  0
  3  8  2  0  0  0
  4  5  2  0  0  0
  5  6  1  0  0  0
  6  7  2  0  0  0
  7  1  1  0  0  0
  7  8  1  0  0  0
  1 20  1  0  0  0
  1  2  1  0  0  0
 20 21  1  0  0  0
 20 25  2  0  0  0
 21 22  2  0  0  0
 22 26  1  0  0  0
 22 23  1  0  0  0
 26 27  1  0  0  0
 26 31  1  0  0  0
 27 28  1  0  0  0
 28 29  1  0  0  0
 29 30  1  0  0  0
 30 31  1  0  0  0
 23 24  2  0  0  0
 24 32  1  0  0  0
 24 25  1  0  0  0
 32 33  1  0  0  0
 32 37  1  0  0  0
 33 34  1  0  0  0
 34 35  1  0  0  0
 35 36  1  0  0  0
 36 37  1  0  0  0
M  END
> <minimizedAffinity>
-9.61392

$$$$
