CHEMBL243910


 40 43  0  0  0  0  0  0  0  0999 V2000
  -24.3132   -1.3722  -13.1003 C   0  0  0  0  0  0  0  0  0  0  0  0
  -25.5553   -1.5886  -13.6716 C   0  0  0  0  0  0  0  0  0  0  0  0
  -26.6632   -1.6917  -12.8287 C   0  0  0  0  0  0  0  0  0  0  0  0
  -26.5251   -1.5873  -11.4502 C   0  0  0  0  0  0  0  0  0  0  0  0
  -25.2242   -1.4280  -10.9748 C   0  0  0  0  0  0  0  0  0  0  0  0
  -24.1213   -1.3340  -11.7610 N   0  0  0  0  0  0  0  0  0  0  0  0
  -27.6191   -1.6086  -10.5338 N   0  0  0  0  0  0  0  0  0  0  0  0
  -27.7017   -2.4089   -9.4092 C   0  0  0  0  0  0  0  0  0  0  0  0
  -26.8206   -3.1690   -9.0142 O   0  0  0  0  0  0  0  0  0  0  0  0
  -28.9196   -2.2882   -8.7499 N   0  0  0  0  0  0  0  0  0  0  0  0
  -28.3684   -0.9523  -10.6908 H   0  0  0  0  0  0  0  0  0  0  0  0
  -29.7222   -2.2020   -9.3609 H   0  0  0  0  0  0  0  0  0  0  0  0
  -29.1468   -3.0587   -7.5752 C   0  0  0  0  0  0  0  0  0  0  0  0
  -29.6644   -4.3595   -7.6448 C   0  0  0  0  0  0  0  0  0  0  0  0
  -29.8914   -5.1084   -6.4756 C   0  0  0  0  0  0  0  0  0  0  0  0
  -29.6155   -4.5224   -5.2282 C   0  0  0  0  0  0  0  0  0  0  0  0
  -29.1150   -3.2203   -5.1539 C   0  0  0  0  0  0  0  0  0  0  0  0
  -28.8681   -2.5066   -6.3244 C   0  0  0  0  0  0  0  0  0  0  0  0
  -28.4179   -1.2454   -6.2389 F   0  0  0  0  0  0  0  0  0  0  0  0
  -30.4127   -6.5254   -6.5458 C   0  0  0  0  0  0  0  0  0  0  0  0
  -29.4400   -7.4749   -6.4754 F   0  0  0  0  0  0  0  0  0  0  0  0
  -31.2746   -6.8030   -5.5271 F   0  0  0  0  0  0  0  0  0  0  0  0
  -31.1017   -6.7758   -7.6930 F   0  0  0  0  0  0  0  0  0  0  0  0
  -23.2427   -1.1920  -13.9719 O   0  0  0  0  0  0  0  0  0  0  0  0
  -19.5779    3.2490  -14.9924 C   0  0  0  0  0  0  0  0  0  0  0  0
  -20.6758    3.6650  -14.4092 N   0  0  0  0  0  0  0  0  0  0  0  0
  -21.4681    2.5664  -14.2610 C   0  0  0  0  0  0  0  0  0  0  0  0
  -22.7354    2.4760  -13.6791 C   0  0  0  0  0  0  0  0  0  0  0  0
  -23.3446    1.2217  -13.6052 C   0  0  0  0  0  0  0  0  0  0  0  0
  -22.6904    0.0729  -14.0694 C   0  0  0  0  0  0  0  0  0  0  0  0
  -21.4479    0.1625  -14.7223 C   0  0  0  0  0  0  0  0  0  0  0  0
  -20.8588    1.4318  -14.7833 C   0  0  0  0  0  0  0  0  0  0  0  0
  -19.6676    1.9050  -15.2801 N   0  0  0  0  0  0  0  0  0  0  0  0
  -18.9652    1.3565  -15.7566 H   0  0  0  0  0  0  0  0  0  0  0  0
  -17.2848    3.4306  -15.6354 C   0  0  0  0  0  0  0  0  0  0  0  0
  -17.0052    2.2440  -15.7306 O   0  0  0  0  0  0  0  0  0  0  0  0
  -18.4784    4.0065  -15.2956 N   0  0  0  0  0  0  0  0  0  0  0  0
  -18.5166    5.0130  -15.3142 H   0  0  0  0  0  0  0  0  0  0  0  0
  -15.0300    3.9554  -15.9763 C   0  0  0  0  0  0  0  0  0  0  0  0
  -16.3817    4.4226  -15.8994 O   0  0  0  0  0  0  0  0  0  0  0  0
 39 40  1  0  0  0
 40 35  1  0  0  0
 35 36  2  0  0  0
 35 37  1  0  0  0
 37 25  1  0  0  0
 37 38  1  0  0  0
 25 26  2  0  0  0
 25 33  1  0  0  0
 26 27  1  0  0  0
 27 28  1  0  0  0
 27 32  2  0  0  0
 28 29  2  0  0  0
 29 30  1  0  0  0
 30 24  1  0  0  0
 30 31  2  0  0  0
 24  1  1  0  0  0
  1  2  1  0  0  0
  1  6  2  0  0  0
  2  3  2  0  0  0
  3  4  1  0  0  0
  4  7  1  0  0  0
  4  5  2  0  0  0
  7  8  1  0  0  0
  7 11  1  0  0  0
  8  9  2  0  0  0
  8 10  1  0  0  0
 10 13  1  0  0  0
 10 12  1  0  0  0
 13 14  1  0  0  0
 13 18  2  0  0  0
 14 15  2  0  0  0
 15 20  1  0  0  0
 15 16  1  0  0  0
 20 21  1  0  0  0
 20 22  1  0  0  0
 20 23  1  0  0  0
 16 17  2  0  0  0
 17 18  1  0  0  0
 18 19  1  0  0  0
  5  6  1  0  0  0
 31 32  1  0  0  0
 32 33  1  0  0  0
 33 34  1  0  0  0
M  END
> <minimizedAffinity>
-10.52566

$$$$
