CHEMBL3671526


 39 41  0  0  0  0  0  0  0  0999 V2000
  -28.7135   -8.1808   -7.7642 C   0  0  0  0  0  0  0  0  0  0  0  0
  -28.4138   -9.1897   -6.8273 C   0  0  0  0  0  0  0  0  0  0  0  0
  -28.4515   -8.9510   -5.4328 C   0  0  0  0  0  0  0  0  0  0  0  0
  -28.0037   -9.8270   -4.4227 C   0  0  0  0  0  0  0  0  0  0  0  0
  -28.1325   -9.5175   -3.1141 N   0  0  0  0  0  0  0  0  0  0  0  0
  -28.6765   -8.3368   -2.8162 C   0  0  0  0  0  0  0  0  0  0  0  0
  -29.0595   -7.4072   -3.6931 N   0  0  0  0  0  0  0  0  0  0  0  0
  -28.9308   -7.7180   -4.9846 C   0  0  0  0  0  0  0  0  0  0  0  0
  -29.2688   -6.7479   -5.9185 C   0  0  0  0  0  0  0  0  0  0  0  0
  -29.1104   -6.9178   -7.3042 C   0  0  0  0  0  0  0  0  0  0  0  0
  -29.1384   -9.5245   -9.7584 C   0  0  0  0  0  0  0  0  0  0  0  0
  -30.1034  -10.1234   -9.2980 O   0  0  0  0  0  0  0  0  0  0  0  0
  -28.5003   -8.4662   -9.1343 N   0  0  0  0  0  0  0  0  0  0  0  0
  -28.0113   -7.7781   -9.6883 H   0  0  0  0  0  0  0  0  0  0  0  0
  -27.2250   -9.9180  -11.2277 C   0  0  0  0  0  0  0  0  0  0  0  0
  -28.5582   -9.8957  -11.0789 C   0  0  0  0  0  0  0  0  0  0  0  0
  -27.2912  -11.0100   -4.7684 N   0  0  0  0  0  0  0  0  0  0  0  0
  -27.5561  -11.8056   -4.1964 H   0  0  0  0  0  0  0  0  0  0  0  0
  -25.9450  -11.0425   -5.2085 C   0  0  0  0  0  0  0  0  0  0  0  0
  -25.6408  -11.4517   -6.5152 C   0  0  0  0  0  0  0  0  0  0  0  0
  -24.3413  -11.3650   -7.0192 C   0  0  0  0  0  0  0  0  0  0  0  0
  -23.3205  -10.8725   -6.2117 C   0  0  0  0  0  0  0  0  0  0  0  0
  -21.5943  -10.6290   -6.9433 Br  0  0  0  0  0  0  0  0  0  0  0  0
  -23.5767  -10.5230   -4.8885 C   0  0  0  0  0  0  0  0  0  0  0  0
  -24.8823  -10.6176   -4.3970 C   0  0  0  0  0  0  0  0  0  0  0  0
  -25.1164  -10.2555   -3.1266 F   0  0  0  0  0  0  0  0  0  0  0  0
  -29.3967   -5.9054   -8.2119 O   0  0  0  0  0  0  0  0  0  0  0  0
  -29.8521   -4.6869   -7.5821 C   0  0  0  0  0  0  0  0  0  0  0  0
  -28.8248   -3.5534   -7.5870 C   0  0  0  0  0  0  0  0  0  0  0  0
  -28.5157   -3.1209   -8.9575 N   0  0  0  0  0  0  0  0  0  0  0  0
  -27.7186   -2.0276   -9.1756 C   0  0  0  0  0  0  0  0  0  0  0  0
  -27.2013   -1.3807   -8.2570 O   0  0  0  0  0  0  0  0  0  0  0  0
  -28.9947   -3.5601   -9.7273 H   0  0  0  0  0  0  0  0  0  0  0  0
  -27.5219   -1.6638  -10.6064 C   0  0  0  0  0  0  0  0  0  0  0  0
  -26.2658   -1.6007  -11.0903 C   0  0  0  0  0  0  0  0  0  0  0  0
  -25.8770   -1.3460  -12.5162 C   0  0  0  0  0  0  0  0  0  0  0  0
  -24.4470   -1.0193  -12.6453 N   0  0  0  0  0  0  0  0  0  0  0  0
  -24.1157    0.2731  -12.0402 C   0  0  0  0  0  0  0  0  0  0  0  0
  -23.6237   -2.0680  -12.0384 C   0  0  0  0  0  0  0  0  0  0  0  0
 15 16  2  0  0  0
 16 11  1  0  0  0
 11 12  2  0  0  0
 11 13  1  0  0  0
 13  1  1  0  0  0
 13 14  1  0  0  0
  1  2  1  0  0  0
  1 10  2  0  0  0
  2  3  2  0  0  0
  3  4  1  0  0  0
  3  8  1  0  0  0
  4 17  1  0  0  0
  4  5  2  0  0  0
 17 19  1  0  0  0
 17 18  1  0  0  0
 19 20  1  0  0  0
 19 25  2  0  0  0
 20 21  2  0  0  0
 21 22  1  0  0  0
 22 23  1  0  0  0
 22 24  2  0  0  0
 24 25  1  0  0  0
 25 26  1  0  0  0
  5  6  1  0  0  0
  6  7  2  0  0  0
  7  8  1  0  0  0
  8  9  2  0  0  0
  9 10  1  0  0  0
 10 27  1  0  0  0
 27 28  1  0  0  0
 28 29  1  0  0  0
 29 30  1  0  0  0
 30 31  1  0  0  0
 30 33  1  0  0  0
 31 32  2  0  0  0
 31 34  1  0  0  0
 34 35  2  0  0  0
 35 36  1  0  0  0
 36 37  1  0  0  0
 37 38  1  0  0  0
 37 39  1  0  0  0
M  END
> <minimizedAffinity>
-7.69509

$$$$
