CHEMBL4204920


 42 46  0  0  0  0  0  0  0  0999 V2000
  -26.0160   -1.4497  -10.0030 N   0  0  0  0  0  0  0  0  0  0  0  0
  -27.3266   -1.8156  -10.0216 C   0  0  0  0  0  0  0  0  0  0  0  0
  -28.0049   -2.0596  -11.0185 O   0  0  0  0  0  0  0  0  0  0  0  0
  -25.6018   -1.2308   -9.0985 H   0  0  0  0  0  0  0  0  0  0  0  0
  -27.9636   -1.9068   -8.6719 C   0  0  0  0  0  0  0  0  0  0  0  0
  -28.2372   -0.7222   -8.1128 C   0  0  0  0  0  0  0  0  0  0  0  0
  -28.7231   -0.6658   -6.7490 C   0  0  0  0  0  0  0  0  0  0  0  0
  -28.7213    0.5882   -6.1510 C   0  0  0  0  0  0  0  0  0  0  0  0
  -27.8106    0.7218   -5.1441 C   0  0  0  0  0  0  0  0  0  0  0  0
  -27.5427   -0.4249   -4.4051 C   0  0  0  0  0  0  0  0  0  0  0  0
  -28.0492   -1.6518   -4.7118 N   0  0  0  0  0  0  0  0  0  0  0  0
  -28.5299   -1.7956   -5.9665 C   0  0  0  0  0  0  0  0  0  0  0  0
  -28.5746   -3.0645   -6.5906 N   0  0  0  0  0  0  0  0  0  0  0  0
  -28.3042   -3.1761   -7.9570 C   0  0  0  0  0  0  0  0  0  0  0  0
  -28.3342   -4.2259   -8.6076 O   0  0  0  0  0  0  0  0  0  0  0  0
  -28.9652   -4.1827   -5.7934 C   0  0  0  0  0  0  0  0  0  0  0  0
  -30.3136   -4.4458   -5.5075 C   0  0  0  0  0  0  0  0  0  0  0  0
  -30.6745   -5.5323   -4.7035 C   0  0  0  0  0  0  0  0  0  0  0  0
  -29.6871   -6.3396   -4.1513 C   0  0  0  0  0  0  0  0  0  0  0  0
  -30.0339   -7.3810   -3.3841 F   0  0  0  0  0  0  0  0  0  0  0  0
  -28.3458   -6.0721   -4.3747 C   0  0  0  0  0  0  0  0  0  0  0  0
  -27.9860   -5.0028   -5.2019 C   0  0  0  0  0  0  0  0  0  0  0  0
  -23.3850   -0.9900  -13.2411 C   0  0  0  0  0  0  0  0  0  0  0  0
  -24.7434   -0.8023  -13.4597 C   0  0  0  0  0  0  0  0  0  0  0  0
  -25.6397   -0.9787  -12.4054 C   0  0  0  0  0  0  0  0  0  0  0  0
  -25.1860   -1.3329  -11.1300 C   0  0  0  0  0  0  0  0  0  0  0  0
  -23.8282   -1.5948  -10.9415 C   0  0  0  0  0  0  0  0  0  0  0  0
  -22.9366   -1.4602  -12.0044 C   0  0  0  0  0  0  0  0  0  0  0  0
  -22.5526   -0.7165  -14.3040 O   0  0  0  0  0  0  0  0  0  0  0  0
  -20.1196    1.9947  -14.7660 C   0  0  0  0  0  0  0  0  0  0  0  0
  -20.5998    0.6968  -14.7158 C   0  0  0  0  0  0  0  0  0  0  0  0
  -21.9189    0.5079  -14.3306 C   0  0  0  0  0  0  0  0  0  0  0  0
  -22.6814    1.5950  -13.9087 C   0  0  0  0  0  0  0  0  0  0  0  0
  -22.1058    2.8513  -13.9661 C   0  0  0  0  0  0  0  0  0  0  0  0
  -20.8438    3.0879  -14.3977 N   0  0  0  0  0  0  0  0  0  0  0  0
  -17.8927    1.1406  -15.2248 N   0  0  0  0  0  0  0  0  0  0  0  0
  -18.7328    2.2315  -15.2829 C   0  0  0  0  0  0  0  0  0  0  0  0
  -18.3948    3.3278  -15.7151 O   0  0  0  0  0  0  0  0  0  0  0  0
  -18.2683    0.2969  -14.7999 H   0  0  0  0  0  0  0  0  0  0  0  0
  -16.5167    1.1974  -15.6660 C   0  0  0  0  0  0  0  0  0  0  0  0
  -15.8942    0.3220  -13.3672 C   0  0  0  0  0  0  0  0  0  0  0  0
  -15.5200    1.2546  -14.5097 C   0  0  0  0  0  0  0  0  0  0  0  0
 41 42  1  0  0  0
 42 40  1  0  0  0
 40 36  1  0  0  0
 36 37  1  0  0  0
 36 39  1  0  0  0
 37 38  2  0  0  0
 37 30  1  0  0  0
 30 31  1  0  0  0
 30 35  2  0  0  0
 31 32  2  0  0  0
 32 29  1  0  0  0
 32 33  1  0  0  0
 29 23  1  0  0  0
 23 24  1  0  0  0
 23 28  2  0  0  0
 24 25  2  0  0  0
 25 26  1  0  0  0
 26  1  1  0  0  0
 26 27  2  0  0  0
  1  2  1  0  0  0
  1  4  1  0  0  0
  2  3  2  0  0  0
  2  5  1  0  0  0
  5  6  2  0  0  0
  5 14  1  0  0  0
  6  7  1  0  0  0
  7  8  1  0  0  0
  7 12  2  0  0  0
  8  9  2  0  0  0
  9 10  1  0  0  0
 10 11  2  0  0  0
 11 12  1  0  0  0
 12 13  1  0  0  0
 13 16  1  0  0  0
 13 14  1  0  0  0
 16 17  1  0  0  0
 16 22  2  0  0  0
 17 18  2  0  0  0
 18 19  1  0  0  0
 19 20  1  0  0  0
 19 21  2  0  0  0
 21 22  1  0  0  0
 14 15  2  0  0  0
 27 28  1  0  0  0
 33 34  2  0  0  0
 34 35  1  0  0  0
M  END
> <minimizedAffinity>
-10.74312

$$$$
