CHEMBL533849


 31 34  0  0  0  0  0  0  0  0999 V2000
  -17.7932    1.1582  -15.0731 C   0  0  0  0  0  0  0  0  0  0  0  0
  -19.0834    0.6266  -14.8050 C   0  0  0  0  0  0  0  0  0  0  0  0
  -20.1845    1.4804  -14.5877 C   0  0  0  0  0  0  0  0  0  0  0  0
  -21.5032    1.0402  -14.3306 C   0  0  0  0  0  0  0  0  0  0  0  0
  -22.4823    1.9700  -14.1319 N   0  0  0  0  0  0  0  0  0  0  0  0
  -22.2437    3.2981  -14.1607 C   0  0  0  0  0  0  0  0  0  0  0  0
  -20.9937    3.7448  -14.3862 N   0  0  0  0  0  0  0  0  0  0  0  0
  -19.9737    2.8748  -14.5964 C   0  0  0  0  0  0  0  0  0  0  0  0
  -18.7227    3.3908  -14.8364 C   0  0  0  0  0  0  0  0  0  0  0  0
  -17.6159    2.5629  -15.1003 C   0  0  0  0  0  0  0  0  0  0  0  0
  -15.6904    0.0807  -14.4339 C   0  0  0  0  0  0  0  0  0  0  0  0
  -16.7230    0.3484  -15.3179 O   0  0  0  0  0  0  0  0  0  0  0  0
  -21.8769   -0.3364  -14.3060 N   0  0  0  0  0  0  0  0  0  0  0  0
  -21.4181   -1.0055  -14.9395 H   0  0  0  0  0  0  0  0  0  0  0  0
  -22.9986   -0.7550  -13.5243 C   0  0  0  0  0  0  0  0  0  0  0  0
  -22.8355   -1.0411  -12.1519 C   0  0  0  0  0  0  0  0  0  0  0  0
  -23.9169   -1.4253  -11.3675 C   0  0  0  0  0  0  0  0  0  0  0  0
  -25.1833   -1.5254  -11.9336 C   0  0  0  0  0  0  0  0  0  0  0  0
  -26.6638   -2.0263  -10.8389 Br  0  0  0  0  0  0  0  0  0  0  0  0
  -25.3631   -1.2604  -13.2984 C   0  0  0  0  0  0  0  0  0  0  0  0
  -24.2730   -0.8876  -14.0977 C   0  0  0  0  0  0  0  0  0  0  0  0
  -24.4684   -0.6159  -15.4122 F   0  0  0  0  0  0  0  0  0  0  0  0
  -16.4074    3.1231  -15.4260 O   0  0  0  0  0  0  0  0  0  0  0  0
  -16.2860    3.9434  -16.5463 C   0  0  0  0  0  0  0  0  0  0  0  0
  -15.2108    3.5031  -17.5525 C   0  0  0  0  0  0  0  0  0  0  0  0
  -13.7970    3.4058  -16.9530 C   0  0  0  0  0  0  0  0  0  0  0  0
  -13.2358    4.7990  -16.5944 C   0  0  0  0  0  0  0  0  0  0  0  0
  -13.2427    5.6913  -17.7762 N   0  0  0  0  0  0  0  0  0  0  0  0
  -12.6859    7.0080  -17.4279 C   0  0  0  0  0  0  0  0  0  0  0  0
  -14.6052    5.8537  -18.3221 C   0  0  0  0  0  0  0  0  0  0  0  0
  -15.1667    4.4892  -18.7434 C   0  0  0  0  0  0  0  0  0  0  0  0
 11 12  1  0  0  0
 12  1  1  0  0  0
  1  2  1  0  0  0
  1 10  2  0  0  0
  2  3  2  0  0  0
  3  4  1  0  0  0
  3  8  1  0  0  0
  4 13  1  0  0  0
  4  5  2  0  0  0
 13 15  1  0  0  0
 13 14  1  0  0  0
 15 16  1  0  0  0
 15 21  2  0  0  0
 16 17  2  0  0  0
 17 18  1  0  0  0
 18 19  1  0  0  0
 18 20  2  0  0  0
 20 21  1  0  0  0
 21 22  1  0  0  0
  5  6  1  0  0  0
  6  7  2  0  0  0
  7  8  1  0  0  0
  8  9  2  0  0  0
  9 10  1  0  0  0
 10 23  1  0  0  0
 23 24  1  0  0  0
 24 25  1  0  0  0
 25 26  1  0  0  0
 25 31  1  0  0  0
 26 27  1  0  0  0
 27 28  1  0  0  0
 28 29  1  0  0  0
 28 30  1  0  0  0
 30 31  1  0  0  0
M  END
> <minimizedAffinity>
-9.01336

$$$$
