CHEMBL396494


 32 35  0  0  0  0  0  0  0  0999 V2000
  -30.0503   -6.0610   -5.0679 C   0  0  0  0  0  0  0  0  0  0  0  0
  -28.9165   -6.8508   -4.8657 C   0  0  0  0  0  0  0  0  0  0  0  0
  -28.7082   -8.0193   -5.5941 C   0  0  0  0  0  0  0  0  0  0  0  0
  -29.6782   -8.4949   -6.4795 C   0  0  0  0  0  0  0  0  0  0  0  0
  -30.8909   -7.7966   -6.5432 C   0  0  0  0  0  0  0  0  0  0  0  0
  -31.0636   -6.5663   -5.8807 C   0  0  0  0  0  0  0  0  0  0  0  0
  -29.3907   -9.6765   -7.3107 C   0  0  0  0  0  0  0  0  0  0  0  0
  -29.9245  -10.9004   -6.9413 C   0  0  0  0  0  0  0  0  0  0  0  0
  -29.4532  -12.1801   -7.9451 S   0  0  0  0  0  0  0  0  0  0  0  0
  -28.5178  -11.1401   -8.9397 C   0  0  0  0  0  0  0  0  0  0  0  0
  -27.7930  -11.5473  -10.0642 C   0  0  0  0  0  0  0  0  0  0  0  0
  -27.1061  -10.5612  -10.7291 C   0  0  0  0  0  0  0  0  0  0  0  0
  -27.0772   -9.2774  -10.3447 N   0  0  0  0  0  0  0  0  0  0  0  0
  -27.7550   -8.8799   -9.2451 C   0  0  0  0  0  0  0  0  0  0  0  0
  -27.5712   -7.5372   -8.9335 N   0  0  0  0  0  0  0  0  0  0  0  0
  -28.5392   -9.8066   -8.4997 C   0  0  0  0  0  0  0  0  0  0  0  0
  -26.8150   -7.1784   -9.5071 H   0  0  0  0  0  0  0  0  0  0  0  0
  -27.4603   -7.3784   -7.9398 H   0  0  0  0  0  0  0  0  0  0  0  0
  -29.8495   -2.4795   -4.3676 N   0  0  0  0  0  0  0  0  0  0  0  0
  -29.7783   -3.6175   -5.1479 C   0  0  0  0  0  0  0  0  0  0  0  0
  -29.3896   -3.6188   -6.3092 O   0  0  0  0  0  0  0  0  0  0  0  0
  -30.1808   -4.7716   -4.4863 N   0  0  0  0  0  0  0  0  0  0  0  0
  -30.2266   -2.5717   -3.4368 H   0  0  0  0  0  0  0  0  0  0  0  0
  -30.8460   -4.6708   -3.7369 H   0  0  0  0  0  0  0  0  0  0  0  0
  -29.9732    0.9069   -5.8914 C   0  0  0  0  0  0  0  0  0  0  0  0
  -28.6817    1.3885   -5.6623 C   0  0  0  0  0  0  0  0  0  0  0  0
  -27.7670    0.5918   -4.9969 C   0  0  0  0  0  0  0  0  0  0  0  0
  -28.1436   -0.6798   -4.5657 C   0  0  0  0  0  0  0  0  0  0  0  0
  -29.4311   -1.1878   -4.7889 C   0  0  0  0  0  0  0  0  0  0  0  0
  -30.3518   -0.3790   -5.4495 C   0  0  0  0  0  0  0  0  0  0  0  0
  -31.6785    2.3863   -7.1391 N   0  0  0  0  0  0  0  0  0  0  0  0
  -30.9108    1.7233   -6.5785 C   0  0  0  0  0  0  0  0  0  0  0  0
 31 32  3  0  0  0
 32 25  1  0  0  0
 25 26  1  0  0  0
 25 30  2  0  0  0
 26 27  2  0  0  0
 27 28  1  0  0  0
 28 29  2  0  0  0
 29 19  1  0  0  0
 29 30  1  0  0  0
 19 20  1  0  0  0
 19 23  1  0  0  0
 20 21  2  0  0  0
 20 22  1  0  0  0
 22  1  1  0  0  0
 22 24  1  0  0  0
  1  2  1  0  0  0
  1  6  2  0  0  0
  2  3  2  0  0  0
  3  4  1  0  0  0
  4  7  1  0  0  0
  4  5  2  0  0  0
  7  8  2  0  0  0
  7 16  1  0  0  0
  8  9  1  0  0  0
  9 10  1  0  0  0
 10 11  1  0  0  0
 10 16  2  0  0  0
 11 12  2  0  0  0
 12 13  1  0  0  0
 13 14  2  0  0  0
 14 15  1  0  0  0
 14 16  1  0  0  0
 15 17  1  0  0  0
 15 18  1  0  0  0
  5  6  1  0  0  0
M  END
> <minimizedAffinity>
-8.80758

$$$$
