CHEMBL1965303


 28 30  0  0  0  0  0  0  0  0999 V2000
  -30.1302   -5.3567   -7.4373 N   0  0  0  0  0  0  0  0  0  0  0  0
  -30.4865   -5.3851   -8.3842 H   0  0  0  0  0  0  0  0  0  0  0  0
  -28.0594   -2.2515   -7.6214 C   0  0  0  0  0  0  0  0  0  0  0  0
  -28.6863   -3.4514   -7.9743 C   0  0  0  0  0  0  0  0  0  0  0  0
  -29.5296   -4.1319   -7.0868 C   0  0  0  0  0  0  0  0  0  0  0  0
  -29.8137   -3.5572   -5.8500 C   0  0  0  0  0  0  0  0  0  0  0  0
  -29.1751   -2.3770   -5.4589 C   0  0  0  0  0  0  0  0  0  0  0  0
  -28.3112   -1.7028   -6.3505 C   0  0  0  0  0  0  0  0  0  0  0  0
  -27.1731   -1.9566   -9.8214 C   0  0  0  0  0  0  0  0  0  0  0  0
  -27.1392   -1.6419   -8.4338 O   0  0  0  0  0  0  0  0  0  0  0  0
  -29.3818   -1.7990   -4.2266 O   0  0  0  0  0  0  0  0  0  0  0  0
  -29.9694   -2.6516   -3.2490 C   0  0  0  0  0  0  0  0  0  0  0  0
  -27.7226   -0.5657   -5.8462 O   0  0  0  0  0  0  0  0  0  0  0  0
  -28.3236    0.6735   -6.1983 C   0  0  0  0  0  0  0  0  0  0  0  0
  -29.6007   -6.6149   -7.1288 C   0  0  0  0  0  0  0  0  0  0  0  0
  -29.9274   -7.1271   -5.9513 N   0  0  0  0  0  0  0  0  0  0  0  0
  -29.3925   -8.3116   -5.7054 C   0  0  0  0  0  0  0  0  0  0  0  0
  -28.5832   -8.9835   -6.5095 N   0  0  0  0  0  0  0  0  0  0  0  0
  -28.2923   -8.3869   -7.6631 C   0  0  0  0  0  0  0  0  0  0  0  0
  -28.8038   -7.2177   -8.0119 N   0  0  0  0  0  0  0  0  0  0  0  0
  -27.3927   -8.9529   -8.5647 N   0  0  0  0  0  0  0  0  0  0  0  0
  -26.7248   -9.5155   -8.0527 H   0  0  0  0  0  0  0  0  0  0  0  0
  -27.5777   -9.2662   -9.8592 C   0  0  0  0  0  0  0  0  0  0  0  0
  -28.6310  -10.0457  -10.3940 C   0  0  0  0  0  0  0  0  0  0  0  0
  -28.3418  -10.1887  -11.7274 C   0  0  0  0  0  0  0  0  0  0  0  0
  -27.1957   -9.4843  -11.9291 N   0  0  0  0  0  0  0  0  0  0  0  0
  -26.7280   -8.8899  -10.8200 N   0  0  0  0  0  0  0  0  0  0  0  0
  -26.6720   -9.3734  -12.7903 H   0  0  0  0  0  0  0  0  0  0  0  0
  9 10  1  0  0  0
 10  3  1  0  0  0
  3  4  1  0  0  0
  3  8  2  0  0  0
  4  5  2  0  0  0
  5  1  1  0  0  0
  5  6  1  0  0  0
  1 15  1  0  0  0
  1  2  1  0  0  0
 15 16  1  0  0  0
 15 20  2  0  0  0
 16 17  2  0  0  0
 17 18  1  0  0  0
 18 19  2  0  0  0
 19 21  1  0  0  0
 19 20  1  0  0  0
 21 23  1  0  0  0
 21 22  1  0  0  0
 23 24  1  0  0  0
 23 27  2  0  0  0
 24 25  2  0  0  0
 25 26  1  0  0  0
 26 27  1  0  0  0
 26 28  1  0  0  0
  6  7  2  0  0  0
  7 11  1  0  0  0
  7  8  1  0  0  0
 11 12  1  0  0  0
  8 13  1  0  0  0
 13 14  1  0  0  0
M  END
> <minimizedAffinity>
-7.31033

$$$$
