CHEMBL3983529


 39 43  0  0  0  0  0  0  0  0999 V2000
  -12.7459   -2.7472  -13.8831 N   0  0  0  0  0  0  0  0  0  0  0  0
  -13.6253   -1.7354  -14.4246 C   0  0  0  0  0  0  0  0  0  0  0  0
  -13.1703   -1.0785  -15.5599 C   0  0  0  0  0  0  0  0  0  0  0  0
  -13.6981    0.1179  -15.9713 C   0  0  0  0  0  0  0  0  0  0  0  0
  -14.8098    0.6376  -15.3861 C   0  0  0  0  0  0  0  0  0  0  0  0
  -15.0623    1.8426  -15.8519 N   0  0  0  0  0  0  0  0  0  0  0  0
  -16.2695    2.3642  -15.5815 C   0  0  0  0  0  0  0  0  0  0  0  0
  -17.2313    1.6463  -14.9111 C   0  0  0  0  0  0  0  0  0  0  0  0
  -16.9197    0.4297  -14.2951 N   0  0  0  0  0  0  0  0  0  0  0  0
  -15.6063   -0.0961  -14.4976 C   0  0  0  0  0  0  0  0  0  0  0  0
  -14.9068   -1.2786  -13.9537 C   0  0  0  0  0  0  0  0  0  0  0  0
  -18.5852    2.2131  -15.0415 C   0  0  0  0  0  0  0  0  0  0  0  0
  -18.9677    3.5617  -15.3009 C   0  0  0  0  0  0  0  0  0  0  0  0
  -20.2414    3.8230  -14.9736 N   0  0  0  0  0  0  0  0  0  0  0  0
  -20.6785    2.6604  -14.4636 N   0  0  0  0  0  0  0  0  0  0  0  0
  -22.0779    2.4647  -14.1586 C   0  0  0  0  0  0  0  0  0  0  0  0
  -19.6827    1.7298  -14.3398 C   0  0  0  0  0  0  0  0  0  0  0  0
  -11.9402   -3.4596  -10.2215 C   0  0  0  0  0  0  0  0  0  0  0  0
  -12.9402   -4.3755   -9.9052 C   0  0  0  0  0  0  0  0  0  0  0  0
  -13.8892   -4.7216  -10.8642 C   0  0  0  0  0  0  0  0  0  0  0  0
  -13.8203   -4.1722  -12.1568 C   0  0  0  0  0  0  0  0  0  0  0  0
  -12.8406   -3.2343  -12.5223 C   0  0  0  0  0  0  0  0  0  0  0  0
  -11.9114   -2.8782  -11.5118 C   0  0  0  0  0  0  0  0  0  0  0  0
  -11.2359   -3.1047   -7.9589 C   0  0  0  0  0  0  0  0  0  0  0  0
  -10.9341   -3.0899   -9.3591 O   0  0  0  0  0  0  0  0  0  0  0  0
  -14.9270   -5.5929  -10.6692 O   0  0  0  0  0  0  0  0  0  0  0  0
  -15.8496   -5.7382  -11.7443 C   0  0  0  0  0  0  0  0  0  0  0  0
  -11.4243   -2.9596  -14.5377 C   0  0  0  0  0  0  0  0  0  0  0  0
  -11.1474   -4.3513  -15.2274 C   0  0  0  0  0  0  0  0  0  0  0  0
  -12.0990   -4.9708  -16.1874 N   0  0  0  0  0  0  0  0  0  0  0  0
  -13.1433   -5.7257  -15.4351 C   0  0  0  0  0  0  0  0  0  0  0  0
  -12.6481   -7.0677  -14.8185 C   0  0  0  0  0  0  0  0  0  0  0  0
  -12.0432   -8.0008  -15.8031 N   0  0  0  0  0  0  0  0  0  0  0  0
  -11.0159   -7.2548  -16.5673 C   0  0  0  0  0  0  0  0  0  0  0  0
  -11.4761   -5.8951  -17.1546 C   0  0  0  0  0  0  0  0  0  0  0  0
  -13.1151   -8.5757  -16.6519 C   0  0  0  0  0  0  0  0  0  0  0  0
  -12.7996   -9.9602  -17.2362 C   0  0  0  0  0  0  0  0  0  0  0  0
  -12.4963  -10.8898  -16.2026 O   0  0  0  0  0  0  0  0  0  0  0  0
  -11.9276  -10.4035  -15.5751 H   0  0  0  0  0  0  0  0  0  0  0  0
 24 25  1  0  0  0
 25 18  1  0  0  0
 18 19  1  0  0  0
 18 23  2  0  0  0
 19 20  2  0  0  0
 20 26  1  0  0  0
 20 21  1  0  0  0
 26 27  1  0  0  0
 21 22  2  0  0  0
 22  1  1  0  0  0
 22 23  1  0  0  0
  1 28  1  0  0  0
  1  2  1  0  0  0
 28 29  1  0  0  0
 29 30  1  0  0  0
 30 31  1  0  0  0
 30 35  1  0  0  0
 31 32  1  0  0  0
 32 33  1  0  0  0
 33 36  1  0  0  0
 33 34  1  0  0  0
 36 37  1  0  0  0
 37 38  1  0  0  0
 38 39  1  0  0  0
 34 35  1  0  0  0
  2  3  1  0  0  0
  2 11  2  0  0  0
  3  4  2  0  0  0
  4  5  1  0  0  0
  5  6  1  0  0  0
  5 10  2  0  0  0
  6  7  2  0  0  0
  7  8  1  0  0  0
  8 12  1  0  0  0
  8  9  2  0  0  0
 12 13  1  0  0  0
 12 17  2  0  0  0
 13 14  2  0  0  0
 14 15  1  0  0  0
 15 16  1  0  0  0
 15 17  1  0  0  0
  9 10  1  0  0  0
 10 11  1  0  0  0
M  END
> <minimizedAffinity>
-6.88927

$$$$
