CHEMBL376307


 30 33  0  0  0  0  0  0  0  0999 V2000
  -13.5336   -3.5215  -10.8864 C   0  0  0  0  0  0  0  0  0  0  0  0
  -14.9169   -3.4536  -10.7708 C   0  0  0  0  0  0  0  0  0  0  0  0
  -15.7003   -2.8653  -11.7642 C   0  0  0  0  0  0  0  0  0  0  0  0
  -15.1612   -2.4051  -12.9671 C   0  0  0  0  0  0  0  0  0  0  0  0
  -13.7851   -2.5598  -13.1467 C   0  0  0  0  0  0  0  0  0  0  0  0
  -12.9833   -3.1019  -12.1137 C   0  0  0  0  0  0  0  0  0  0  0  0
  -12.4047   -6.5290  -11.9803 N   0  0  0  0  0  0  0  0  0  0  0  0
  -11.8570   -6.3920  -10.7638 C   0  0  0  0  0  0  0  0  0  0  0  0
  -11.0442   -7.3350  -10.2991 N   0  0  0  0  0  0  0  0  0  0  0  0
  -10.6967   -6.8898   -9.0912 N   0  0  0  0  0  0  0  0  0  0  0  0
  -11.2488   -5.6856   -8.7501 C   0  0  0  0  0  0  0  0  0  0  0  0
  -11.1048   -4.9324   -7.5832 C   0  0  0  0  0  0  0  0  0  0  0  0
  -11.7757   -3.7157   -7.5212 C   0  0  0  0  0  0  0  0  0  0  0  0
  -12.5589   -3.2791   -8.5894 C   0  0  0  0  0  0  0  0  0  0  0  0
  -12.7196   -4.0421   -9.7702 C   0  0  0  0  0  0  0  0  0  0  0  0
  -12.0322   -5.2975   -9.8430 C   0  0  0  0  0  0  0  0  0  0  0  0
  -12.2597   -7.4165  -12.4479 H   0  0  0  0  0  0  0  0  0  0  0  0
  -13.2693   -6.0677  -12.2290 H   0  0  0  0  0  0  0  0  0  0  0  0
  -10.0681   -7.4574   -8.5372 H   0  0  0  0  0  0  0  0  0  0  0  0
  -15.9531   -1.8094  -13.9848 N   0  0  0  0  0  0  0  0  0  0  0  0
  -16.3751   -0.4891  -13.9561 C   0  0  0  0  0  0  0  0  0  0  0  0
  -16.0487    0.3103  -13.0895 O   0  0  0  0  0  0  0  0  0  0  0  0
  -17.2204   -0.1425  -14.9944 N   0  0  0  0  0  0  0  0  0  0  0  0
  -16.1217   -2.3524  -14.8158 H   0  0  0  0  0  0  0  0  0  0  0  0
  -17.6965   -0.8714  -15.5058 H   0  0  0  0  0  0  0  0  0  0  0  0
  -17.7225    1.1633  -15.1077 C   0  0  0  0  0  0  0  0  0  0  0  0
  -17.0858    2.2874  -15.7351 C   0  0  0  0  0  0  0  0  0  0  0  0
  -17.7828    3.4621  -15.5943 C   0  0  0  0  0  0  0  0  0  0  0  0
  -19.2571    3.2179  -14.7730 S   0  0  0  0  0  0  0  0  0  0  0  0
  -18.9438    1.5394  -14.5892 C   0  0  0  0  0  0  0  0  0  0  0  0
  7  8  1  0  0  0
  7 17  1  0  0  0
  7 18  1  0  0  0
  8  9  2  0  0  0
  8 16  1  0  0  0
  9 10  1  0  0  0
 10 11  1  0  0  0
 10 19  1  0  0  0
 11 12  1  0  0  0
 11 16  2  0  0  0
 12 13  2  0  0  0
 13 14  1  0  0  0
 14 15  2  0  0  0
 15  1  1  0  0  0
 15 16  1  0  0  0
  1  2  1  0  0  0
  1  6  2  0  0  0
  2  3  2  0  0  0
  3  4  1  0  0  0
  4 20  1  0  0  0
  4  5  2  0  0  0
 20 21  1  0  0  0
 20 24  1  0  0  0
 21 22  2  0  0  0
 21 23  1  0  0  0
 23 26  1  0  0  0
 23 25  1  0  0  0
 26 27  1  0  0  0
 26 30  2  0  0  0
 27 28  2  0  0  0
 28 29  1  0  0  0
 29 30  1  0  0  0
  5  6  1  0  0  0
M  END
> <minimizedAffinity>
-7.78365

$$$$
