CHEMBL2086760


 35 39  0  0  0  0  0  0  0  0999 V2000
  -27.8905   -2.1139   -8.8167 C   0  0  0  0  0  0  0  0  0  0  0  0
  -27.6002   -0.8520   -8.2662 C   0  0  0  0  0  0  0  0  0  0  0  0
  -27.9349   -0.5410   -6.9515 C   0  0  0  0  0  0  0  0  0  0  0  0
  -28.5203   -1.5350   -6.2008 C   0  0  0  0  0  0  0  0  0  0  0  0
  -28.7578   -2.8284   -6.6809 C   0  0  0  0  0  0  0  0  0  0  0  0
  -28.4267   -3.1257   -7.9948 C   0  0  0  0  0  0  0  0  0  0  0  0
  -29.3993   -3.5648   -5.5670 C   0  0  0  0  0  0  0  0  0  0  0  0
  -29.8640   -4.8355   -5.4952 C   0  0  0  0  0  0  0  0  0  0  0  0
  -29.4612   -2.5853   -4.4037 C   0  0  0  0  0  0  0  0  0  0  0  0
  -29.7878   -2.7739   -3.2485 O   0  0  0  0  0  0  0  0  0  0  0  0
  -28.9441   -1.4023   -4.8907 N   0  0  0  0  0  0  0  0  0  0  0  0
  -28.8608   -0.5743   -4.3207 H   0  0  0  0  0  0  0  0  0  0  0  0
  -29.7012   -5.8101   -6.5998 C   0  0  0  0  0  0  0  0  0  0  0  0
  -28.4341   -6.0078   -7.1725 C   0  0  0  0  0  0  0  0  0  0  0  0
  -28.2283   -7.0488   -8.0812 C   0  0  0  0  0  0  0  0  0  0  0  0
  -29.2837   -7.8912   -8.4212 C   0  0  0  0  0  0  0  0  0  0  0  0
  -29.0047   -9.2272   -9.4692 Cl  0  0  0  0  0  0  0  0  0  0  0  0
  -30.5559   -7.6770   -7.8938 C   0  0  0  0  0  0  0  0  0  0  0  0
  -30.7643   -6.6396   -6.9809 C   0  0  0  0  0  0  0  0  0  0  0  0
  -30.5924   -5.2455   -4.3395 C   0  0  0  0  0  0  0  0  0  0  0  0
  -30.2969   -6.1405   -3.4145 N   0  0  0  0  0  0  0  0  0  0  0  0
  -31.3573   -6.1308   -2.5408 C   0  0  0  0  0  0  0  0  0  0  0  0
  -32.2788   -5.1834   -2.9022 C   0  0  0  0  0  0  0  0  0  0  0  0
  -31.7825   -4.6212   -4.0436 N   0  0  0  0  0  0  0  0  0  0  0  0
  -32.2208   -3.9031   -4.6023 H   0  0  0  0  0  0  0  0  0  0  0  0
  -27.5997   -2.4392  -10.1526 N   0  0  0  0  0  0  0  0  0  0  0  0
  -26.6380   -2.7742  -10.2116 H   0  0  0  0  0  0  0  0  0  0  0  0
  -25.4467   -1.2893  -12.8458 N   0  0  0  0  0  0  0  0  0  0  0  0
  -26.3506   -2.4495  -12.9258 C   0  0  0  0  0  0  0  0  0  0  0  0
  -27.7863   -2.0339  -12.6128 C   0  0  0  0  0  0  0  0  0  0  0  0
  -27.8938   -1.4393  -11.2033 C   0  0  0  0  0  0  0  0  0  0  0  0
  -26.9051   -0.2792  -11.0942 C   0  0  0  0  0  0  0  0  0  0  0  0
  -25.4918   -0.6932  -11.4991 C   0  0  0  0  0  0  0  0  0  0  0  0
  -23.1369   -1.7472  -12.0096 C   0  0  0  0  0  0  0  0  0  0  0  0
  -24.0801   -1.7065  -13.2065 C   0  0  0  0  0  0  0  0  0  0  0  0
 34 35  1  0  0  0
 35 28  1  0  0  0
 28 29  1  0  0  0
 28 33  1  0  0  0
 29 30  1  0  0  0
 30 31  1  0  0  0
 31 26  1  0  0  0
 31 32  1  0  0  0
 26  1  1  0  0  0
 26 27  1  0  0  0
  1  2  1  0  0  0
  1  6  2  0  0  0
  2  3  2  0  0  0
  3  4  1  0  0  0
  4  5  2  0  0  0
  4 11  1  0  0  0
  5  6  1  0  0  0
  5  7  1  0  0  0
  7  8  2  0  0  0
  7  9  1  0  0  0
  8 13  1  0  0  0
  8 20  1  0  0  0
 13 14  1  0  0  0
 13 19  2  0  0  0
 14 15  2  0  0  0
 15 16  1  0  0  0
 16 17  1  0  0  0
 16 18  2  0  0  0
 18 19  1  0  0  0
 20 21  2  0  0  0
 20 24  1  0  0  0
 21 22  1  0  0  0
 22 23  2  0  0  0
 23 24  1  0  0  0
 24 25  1  0  0  0
  9 10  2  0  0  0
  9 11  1  0  0  0
 11 12  1  0  0  0
 32 33  1  0  0  0
M  END
> <minimizedAffinity>
-8.90497

$$$$
