CHEMBL408211


 32 35  0  0  0  0  0  0  0  0999 V2000
  -23.2034   -0.1422  -13.1918 C   0  0  0  0  0  0  0  0  0  0  0  0
  -23.6502    0.1695  -11.9161 C   0  0  0  0  0  0  0  0  0  0  0  0
  -24.8945   -0.3096  -11.4965 C   0  0  0  0  0  0  0  0  0  0  0  0
  -25.8033   -0.9538  -12.3789 C   0  0  0  0  0  0  0  0  0  0  0  0
  -27.0696   -1.5120  -12.0212 C   0  0  0  0  0  0  0  0  0  0  0  0
  -27.8824   -2.1193  -12.9979 C   0  0  0  0  0  0  0  0  0  0  0  0
  -27.4734   -2.1868  -14.3237 C   0  0  0  0  0  0  0  0  0  0  0  0
  -26.2297   -1.6803  -14.6823 C   0  0  0  0  0  0  0  0  0  0  0  0
  -25.3845   -1.0868  -13.7307 C   0  0  0  0  0  0  0  0  0  0  0  0
  -24.0923   -0.6913  -14.1147 C   0  0  0  0  0  0  0  0  0  0  0  0
  -27.6004   -1.5943  -10.6266 C   0  0  0  0  0  0  0  0  0  0  0  0
  -28.3523   -0.7174  -10.2076 O   0  0  0  0  0  0  0  0  0  0  0  0
  -27.1747   -2.6504   -9.8475 N   0  0  0  0  0  0  0  0  0  0  0  0
  -26.3743   -3.1819  -10.1646 H   0  0  0  0  0  0  0  0  0  0  0  0
  -27.5821   -2.8015   -8.4592 C   0  0  0  0  0  0  0  0  0  0  0  0
  -27.6424   -1.4408   -7.7709 C   0  0  0  0  0  0  0  0  0  0  0  0
  -28.9326   -3.5023   -8.4016 C   0  0  0  0  0  0  0  0  0  0  0  0
  -21.9006   -0.0160  -13.6097 O   0  0  0  0  0  0  0  0  0  0  0  0
  -17.4841    2.2508  -15.3271 C   0  0  0  0  0  0  0  0  0  0  0  0
  -18.5586    3.1569  -15.3398 C   0  0  0  0  0  0  0  0  0  0  0  0
  -19.8474    2.7989  -14.9650 C   0  0  0  0  0  0  0  0  0  0  0  0
  -20.7691    3.7766  -14.9039 N   0  0  0  0  0  0  0  0  0  0  0  0
  -22.0027    3.4647  -14.4603 C   0  0  0  0  0  0  0  0  0  0  0  0
  -22.3689    2.2047  -14.0435 C   0  0  0  0  0  0  0  0  0  0  0  0
  -21.4192    1.1872  -14.1051 C   0  0  0  0  0  0  0  0  0  0  0  0
  -20.1247    1.4585  -14.6374 C   0  0  0  0  0  0  0  0  0  0  0  0
  -19.0774    0.5263  -14.8387 C   0  0  0  0  0  0  0  0  0  0  0  0
  -17.7498    0.9107  -15.0676 C   0  0  0  0  0  0  0  0  0  0  0  0
  -16.0378    3.9461  -16.1450 C   0  0  0  0  0  0  0  0  0  0  0  0
  -16.1984    2.6391  -15.5960 O   0  0  0  0  0  0  0  0  0  0  0  0
  -16.8923   -0.1469  -14.9587 O   0  0  0  0  0  0  0  0  0  0  0  0
  -16.0742   -0.2927  -13.8088 C   0  0  0  0  0  0  0  0  0  0  0  0
 29 30  1  0  0  0
 30 19  1  0  0  0
 19 20  1  0  0  0
 19 28  2  0  0  0
 20 21  2  0  0  0
 21 22  1  0  0  0
 21 26  1  0  0  0
 22 23  2  0  0  0
 23 24  1  0  0  0
 24 25  2  0  0  0
 25 18  1  0  0  0
 25 26  1  0  0  0
 18  1  1  0  0  0
  1  2  1  0  0  0
  1 10  2  0  0  0
  2  3  2  0  0  0
  3  4  1  0  0  0
  4  5  1  0  0  0
  4  9  2  0  0  0
  5 11  1  0  0  0
  5  6  2  0  0  0
 11 12  2  0  0  0
 11 13  1  0  0  0
 13 15  1  0  0  0
 13 14  1  0  0  0
 15 16  1  0  0  0
 15 17  1  0  0  0
  6  7  1  0  0  0
  7  8  2  0  0  0
  8  9  1  0  0  0
  9 10  1  0  0  0
 26 27  2  0  0  0
 27 28  1  0  0  0
 28 31  1  0  0  0
 31 32  1  0  0  0
M  END
> <minimizedAffinity>
-10.52612

$$$$
