CHEMBL3288516


 34 38  0  0  0  0  0  0  0  0999 V2000
  -22.8527   -0.2469  -13.5883 C   0  0  0  0  0  0  0  0  0  0  0  0
  -22.9710   -0.2770  -12.1915 C   0  0  0  0  0  0  0  0  0  0  0  0
  -24.1097   -0.7937  -11.5565 C   0  0  0  0  0  0  0  0  0  0  0  0
  -25.2544   -1.1907  -12.2856 C   0  0  0  0  0  0  0  0  0  0  0  0
  -26.5009   -1.6150  -11.7362 C   0  0  0  0  0  0  0  0  0  0  0  0
  -27.5583   -1.9971  -12.5845 C   0  0  0  0  0  0  0  0  0  0  0  0
  -27.4142   -1.9658  -13.9648 C   0  0  0  0  0  0  0  0  0  0  0  0
  -26.2012   -1.5697  -14.5132 C   0  0  0  0  0  0  0  0  0  0  0  0
  -25.1278   -1.1867  -13.6958 C   0  0  0  0  0  0  0  0  0  0  0  0
  -23.9218   -0.7967  -14.3034 C   0  0  0  0  0  0  0  0  0  0  0  0
  -23.0317    3.1662  -13.3004 N   0  0  0  0  0  0  0  0  0  0  0  0
  -21.9319    2.9488  -14.0381 C   0  0  0  0  0  0  0  0  0  0  0  0
  -21.2417    3.9844  -14.5028 N   0  0  0  0  0  0  0  0  0  0  0  0
  -20.2094    3.4221  -15.1344 N   0  0  0  0  0  0  0  0  0  0  0  0
  -20.2050    2.0531  -15.0976 C   0  0  0  0  0  0  0  0  0  0  0  0
  -19.2739    1.1558  -15.6245 C   0  0  0  0  0  0  0  0  0  0  0  0
  -19.5304   -0.1962  -15.4544 C   0  0  0  0  0  0  0  0  0  0  0  0
  -20.6837   -0.6208  -14.8011 C   0  0  0  0  0  0  0  0  0  0  0  0
  -21.6388    0.2800  -14.2567 C   0  0  0  0  0  0  0  0  0  0  0  0
  -21.3614    1.6786  -14.4044 C   0  0  0  0  0  0  0  0  0  0  0  0
  -23.1908    4.1338  -13.0425 H   0  0  0  0  0  0  0  0  0  0  0  0
  -23.2700    2.5153  -12.5618 H   0  0  0  0  0  0  0  0  0  0  0  0
  -19.5300    4.0272  -15.5740 H   0  0  0  0  0  0  0  0  0  0  0  0
  -26.7998   -1.7394  -10.2758 C   0  0  0  0  0  0  0  0  0  0  0  0
  -25.9906   -1.2397   -9.4981 O   0  0  0  0  0  0  0  0  0  0  0  0
  -27.9373   -2.4407   -9.9237 N   0  0  0  0  0  0  0  0  0  0  0  0
  -28.4841   -2.8431  -10.6734 H   0  0  0  0  0  0  0  0  0  0  0  0
  -28.4055   -2.6941   -8.6135 C   0  0  0  0  0  0  0  0  0  0  0  0
  -29.2123   -3.7847   -8.2739 C   0  0  0  0  0  0  0  0  0  0  0  0
  -29.6922   -3.9447   -6.9702 C   0  0  0  0  0  0  0  0  0  0  0  0
  -29.3515   -3.0239   -5.9835 C   0  0  0  0  0  0  0  0  0  0  0  0
  -28.5225   -1.9533   -6.3064 C   0  0  0  0  0  0  0  0  0  0  0  0
  -28.0792   -0.8237   -5.0850 Cl  0  0  0  0  0  0  0  0  0  0  0  0
  -28.0525   -1.7819   -7.6115 C   0  0  0  0  0  0  0  0  0  0  0  0
 11 12  1  0  0  0
 11 21  1  0  0  0
 11 22  1  0  0  0
 12 13  2  0  0  0
 12 20  1  0  0  0
 13 14  1  0  0  0
 14 15  1  0  0  0
 14 23  1  0  0  0
 15 16  1  0  0  0
 15 20  2  0  0  0
 16 17  2  0  0  0
 17 18  1  0  0  0
 18 19  2  0  0  0
 19  1  1  0  0  0
 19 20  1  0  0  0
  1  2  1  0  0  0
  1 10  2  0  0  0
  2  3  2  0  0  0
  3  4  1  0  0  0
  4  5  1  0  0  0
  4  9  2  0  0  0
  5 24  1  0  0  0
  5  6  2  0  0  0
 24 25  2  0  0  0
 24 26  1  0  0  0
 26 28  1  0  0  0
 26 27  1  0  0  0
 28 29  1  0  0  0
 28 34  2  0  0  0
 29 30  2  0  0  0
 30 31  1  0  0  0
 31 32  2  0  0  0
 32 33  1  0  0  0
 32 34  1  0  0  0
  6  7  1  0  0  0
  7  8  2  0  0  0
  8  9  1  0  0  0
  9 10  1  0  0  0
M  END
> <minimizedAffinity>
-11.33430

$$$$
