CHEMBL4788196


 44 49  0  0  0  0  0  0  0  0999 V2000
  -28.5494   -3.5799   -4.2070 C   0  0  0  0  0  0  0  0  0  0  0  0
  -27.5853   -4.5898   -4.2692 C   0  0  0  0  0  0  0  0  0  0  0  0
  -27.9595   -5.9227   -4.5191 C   0  0  0  0  0  0  0  0  0  0  0  0
  -29.3054   -6.2778   -4.6976 C   0  0  0  0  0  0  0  0  0  0  0  0
  -30.2487   -5.2433   -4.7013 C   0  0  0  0  0  0  0  0  0  0  0  0
  -29.8833   -3.9250   -4.4279 C   0  0  0  0  0  0  0  0  0  0  0  0
  -30.8656   -3.0155   -4.3293 F   0  0  0  0  0  0  0  0  0  0  0  0
  -29.6719   -7.6378   -4.8053 N   0  0  0  0  0  0  0  0  0  0  0  0
  -30.2257   -7.9984   -4.0251 H   0  0  0  0  0  0  0  0  0  0  0  0
  -29.8819   -8.3968   -5.9820 C   0  0  0  0  0  0  0  0  0  0  0  0
  -31.0856   -8.3047   -6.6057 N   0  0  0  0  0  0  0  0  0  0  0  0
  -31.2971   -8.9640   -7.7615 C   0  0  0  0  0  0  0  0  0  0  0  0
  -30.3456   -9.7454   -8.3713 C   0  0  0  0  0  0  0  0  0  0  0  0
  -29.1112   -9.8741   -7.7461 C   0  0  0  0  0  0  0  0  0  0  0  0
  -28.1305  -10.7006   -8.3020 N   0  0  0  0  0  0  0  0  0  0  0  0
  -26.9321  -10.9644   -7.6760 C   0  0  0  0  0  0  0  0  0  0  0  0
  -26.0408  -11.9711   -8.3723 C   0  0  0  0  0  0  0  0  0  0  0  0
  -26.5906  -10.3822   -6.5045 C   0  0  0  0  0  0  0  0  0  0  0  0
  -27.5677   -9.4311   -5.8634 C   0  0  0  0  0  0  0  0  0  0  0  0
  -27.3243   -8.8918   -4.7906 O   0  0  0  0  0  0  0  0  0  0  0  0
  -28.8731   -9.1972   -6.5368 C   0  0  0  0  0  0  0  0  0  0  0  0
  -28.3228  -11.1553   -9.1880 H   0  0  0  0  0  0  0  0  0  0  0  0
  -25.3208  -10.6827   -5.8195 C   0  0  0  0  0  0  0  0  0  0  0  0
  -25.2607  -11.6889   -4.8443 C   0  0  0  0  0  0  0  0  0  0  0  0
  -24.0593  -11.9546   -4.1837 C   0  0  0  0  0  0  0  0  0  0  0  0
  -22.9242  -11.2161   -4.4987 C   0  0  0  0  0  0  0  0  0  0  0  0
  -21.7733  -11.4715   -3.8628 F   0  0  0  0  0  0  0  0  0  0  0  0
  -22.9654  -10.2161   -5.4633 C   0  0  0  0  0  0  0  0  0  0  0  0
  -24.1646   -9.9480   -6.1258 C   0  0  0  0  0  0  0  0  0  0  0  0
  -28.1089   -2.3266   -3.8251 O   0  0  0  0  0  0  0  0  0  0  0  0
  -27.7809   -1.9207   -8.8841 C   0  0  0  0  0  0  0  0  0  0  0  0
  -28.0392   -0.6634   -8.3113 C   0  0  0  0  0  0  0  0  0  0  0  0
  -28.1909   -0.4785   -6.9456 C   0  0  0  0  0  0  0  0  0  0  0  0
  -28.3215    0.7721   -6.4877 N   0  0  0  0  0  0  0  0  0  0  0  0
  -28.4090    0.9279   -5.1606 C   0  0  0  0  0  0  0  0  0  0  0  0
  -28.3987   -0.0452   -4.2513 N   0  0  0  0  0  0  0  0  0  0  0  0
  -28.2262   -1.2887   -4.7429 C   0  0  0  0  0  0  0  0  0  0  0  0
  -28.1573   -1.5932   -6.1103 C   0  0  0  0  0  0  0  0  0  0  0  0
  -28.0352   -2.8829   -6.6879 C   0  0  0  0  0  0  0  0  0  0  0  0
  -27.8303   -3.0557   -8.0663 C   0  0  0  0  0  0  0  0  0  0  0  0
  -26.2074   -1.5910  -10.6280 C   0  0  0  0  0  0  0  0  0  0  0  0
  -27.5041   -2.0431  -10.2211 O   0  0  0  0  0  0  0  0  0  0  0  0
  -27.6878   -4.3722   -8.4080 O   0  0  0  0  0  0  0  0  0  0  0  0
  -28.6712   -5.3117   -8.0014 C   0  0  0  0  0  0  0  0  0  0  0  0
 41 42  1  0  0  0
 42 31  1  0  0  0
 31 32  1  0  0  0
 31 40  2  0  0  0
 32 33  2  0  0  0
 33 34  1  0  0  0
 33 38  1  0  0  0
 34 35  2  0  0  0
 35 36  1  0  0  0
 36 37  2  0  0  0
 37 30  1  0  0  0
 37 38  1  0  0  0
 30  1  1  0  0  0
  1  2  1  0  0  0
  1  6  2  0  0  0
  2  3  2  0  0  0
  3  4  1  0  0  0
  4  8  1  0  0  0
  4  5  2  0  0  0
  8 10  1  0  0  0
  8  9  1  0  0  0
 10 11  1  0  0  0
 10 21  2  0  0  0
 11 12  2  0  0  0
 12 13  1  0  0  0
 13 14  2  0  0  0
 14 15  1  0  0  0
 14 21  1  0  0  0
 15 16  1  0  0  0
 15 22  1  0  0  0
 16 17  1  0  0  0
 16 18  2  0  0  0
 18 23  1  0  0  0
 18 19  1  0  0  0
 23 24  1  0  0  0
 23 29  2  0  0  0
 24 25  2  0  0  0
 25 26  1  0  0  0
 26 27  1  0  0  0
 26 28  2  0  0  0
 28 29  1  0  0  0
 19 20  2  0  0  0
 19 21  1  0  0  0
  5  6  1  0  0  0
  6  7  1  0  0  0
 38 39  2  0  0  0
 39 40  1  0  0  0
 40 43  1  0  0  0
 43 44  1  0  0  0
M  END
> <minimizedAffinity>
-9.55439

$$$$
