CHEMBL3935912


 35 38  0  0  0  0  0  0  0  0999 V2000
  -28.3549   -9.7812   -5.7217 N   0  0  0  0  0  0  0  0  0  0  0  0
  -28.4361   -8.3948   -5.2943 C   0  0  0  0  0  0  0  0  0  0  0  0
  -28.9941   -8.2233   -4.0287 C   0  0  0  0  0  0  0  0  0  0  0  0
  -29.6566   -7.0513   -3.7239 C   0  0  0  0  0  0  0  0  0  0  0  0
  -29.6583   -5.9710   -4.5774 C   0  0  0  0  0  0  0  0  0  0  0  0
  -30.4935   -4.9990   -4.2258 N   0  0  0  0  0  0  0  0  0  0  0  0
  -30.3964   -3.8497   -4.9063 C   0  0  0  0  0  0  0  0  0  0  0  0
  -29.4289   -3.6384   -5.8629 C   0  0  0  0  0  0  0  0  0  0  0  0
  -28.6534   -4.6831   -6.3218 N   0  0  0  0  0  0  0  0  0  0  0  0
  -28.8057   -5.9324   -5.7063 C   0  0  0  0  0  0  0  0  0  0  0  0
  -28.2484   -7.2216   -6.0858 C   0  0  0  0  0  0  0  0  0  0  0  0
  -29.1605   -2.2376   -6.1778 C   0  0  0  0  0  0  0  0  0  0  0  0
  -28.0587   -1.6826   -6.8859 C   0  0  0  0  0  0  0  0  0  0  0  0
  -27.9544   -0.3553   -6.7397 N   0  0  0  0  0  0  0  0  0  0  0  0
  -28.9775   -0.0500   -5.9247 N   0  0  0  0  0  0  0  0  0  0  0  0
  -29.3460    1.3293   -5.7021 C   0  0  0  0  0  0  0  0  0  0  0  0
  -29.6230   -1.1568   -5.4414 C   0  0  0  0  0  0  0  0  0  0  0  0
  -25.0585  -11.4699   -6.3976 C   0  0  0  0  0  0  0  0  0  0  0  0
  -25.0561  -11.4816   -7.7924 C   0  0  0  0  0  0  0  0  0  0  0  0
  -26.1245  -10.9398   -8.5060 C   0  0  0  0  0  0  0  0  0  0  0  0
  -27.2240  -10.4118   -7.8020 C   0  0  0  0  0  0  0  0  0  0  0  0
  -27.2704  -10.4031   -6.3901 C   0  0  0  0  0  0  0  0  0  0  0  0
  -26.1583  -10.9337   -5.7169 C   0  0  0  0  0  0  0  0  0  0  0  0
  -23.4664  -11.0896   -4.6581 C   0  0  0  0  0  0  0  0  0  0  0  0
  -24.0660  -11.9743   -5.6003 O   0  0  0  0  0  0  0  0  0  0  0  0
  -26.1817  -10.8775   -9.8832 O   0  0  0  0  0  0  0  0  0  0  0  0
  -27.4961  -10.7576  -10.4633 C   0  0  0  0  0  0  0  0  0  0  0  0
  -27.4804   -9.7509  -11.6117 C   0  0  0  0  0  0  0  0  0  0  0  0
  -26.5259   -8.7245  -11.3736 O   0  0  0  0  0  0  0  0  0  0  0  0
  -26.7262   -8.3567  -10.4907 H   0  0  0  0  0  0  0  0  0  0  0  0
  -29.7492  -10.1841   -6.1336 C   0  0  0  0  0  0  0  0  0  0  0  0
  -30.4554   -9.3686   -7.2241 C   0  0  0  0  0  0  0  0  0  0  0  0
  -30.9492  -10.1468   -8.4386 C   0  0  0  0  0  0  0  0  0  0  0  0
  -32.2987   -9.7622   -8.7227 O   0  0  0  0  0  0  0  0  0  0  0  0
  -32.8443   -9.9902   -7.9476 H   0  0  0  0  0  0  0  0  0  0  0  0
 24 25  1  0  0  0
 25 18  1  0  0  0
 18 19  1  0  0  0
 18 23  2  0  0  0
 19 20  2  0  0  0
 20 26  1  0  0  0
 20 21  1  0  0  0
 26 27  1  0  0  0
 27 28  1  0  0  0
 28 29  1  0  0  0
 29 30  1  0  0  0
 21 22  2  0  0  0
 22  1  1  0  0  0
 22 23  1  0  0  0
  1 31  1  0  0  0
  1  2  1  0  0  0
 31 32  1  0  0  0
 32 33  1  0  0  0
 33 34  1  0  0  0
 34 35  1  0  0  0
  2  3  1  0  0  0
  2 11  2  0  0  0
  3  4  2  0  0  0
  4  5  1  0  0  0
  5  6  1  0  0  0
  5 10  2  0  0  0
  6  7  2  0  0  0
  7  8  1  0  0  0
  8 12  1  0  0  0
  8  9  2  0  0  0
 12 13  1  0  0  0
 12 17  2  0  0  0
 13 14  2  0  0  0
 14 15  1  0  0  0
 15 16  1  0  0  0
 15 17  1  0  0  0
  9 10  1  0  0  0
 10 11  1  0  0  0
M  END
> <minimizedAffinity>
-7.54568

$$$$
