CHEMBL4553351


 38 44  0  0  0  0  0  0  0  0999 V2000
  -15.4619    1.6054  -14.8283 C   0  0  0  0  0  0  0  0  0  0  0  0
  -16.2580    0.4603  -14.9623 C   0  0  0  0  0  0  0  0  0  0  0  0
  -17.6440    0.5601  -15.1513 C   0  0  0  0  0  0  0  0  0  0  0  0
  -18.2295    1.8400  -15.2174 C   0  0  0  0  0  0  0  0  0  0  0  0
  -19.5416    2.4016  -15.1243 C   0  0  0  0  0  0  0  0  0  0  0  0
  -19.5131    3.7264  -15.3642 N   0  0  0  0  0  0  0  0  0  0  0  0
  -18.2123    4.0151  -15.4750 N   0  0  0  0  0  0  0  0  0  0  0  0
  -17.3886    2.9405  -15.3137 C   0  0  0  0  0  0  0  0  0  0  0  0
  -16.0071    2.8580  -15.1678 C   0  0  0  0  0  0  0  0  0  0  0  0
  -17.9442    4.9846  -15.5967 H   0  0  0  0  0  0  0  0  0  0  0  0
  -13.6573   -0.0053  -18.6747 C   0  0  0  0  0  0  0  0  0  0  0  0
  -13.2316   -1.3433  -18.6116 C   0  0  0  0  0  0  0  0  0  0  0  0
  -12.7280   -1.8871  -17.4274 C   0  0  0  0  0  0  0  0  0  0  0  0
  -12.7037   -1.0650  -16.3207 C   0  0  0  0  0  0  0  0  0  0  0  0
  -13.1609    0.2595  -16.3315 C   0  0  0  0  0  0  0  0  0  0  0  0
  -13.6148    0.8037  -17.5308 C   0  0  0  0  0  0  0  0  0  0  0  0
  -13.0229    0.8053  -14.9246 C   0  0  0  0  0  0  0  0  0  0  0  0
  -12.8610    2.2700  -14.6697 C   0  0  0  0  0  0  0  0  0  0  0  0
  -14.1095    1.5906  -14.1631 C   0  0  0  0  0  0  0  0  0  0  0  0
  -12.3481   -0.3130  -14.1708 C   0  0  0  0  0  0  0  0  0  0  0  0
  -12.0164   -0.2730  -12.9983 O   0  0  0  0  0  0  0  0  0  0  0  0
  -12.2317   -1.3811  -15.0439 N   0  0  0  0  0  0  0  0  0  0  0  0
  -11.8366   -2.2693  -14.7739 H   0  0  0  0  0  0  0  0  0  0  0  0
  -13.2363    0.4453  -20.9730 C   0  0  0  0  0  0  0  0  0  0  0  0
  -14.1572    0.3780  -19.8919 O   0  0  0  0  0  0  0  0  0  0  0  0
  -20.7921    1.7579  -14.7161 C   0  0  0  0  0  0  0  0  0  0  0  0
  -20.9525    0.3682  -14.7690 C   0  0  0  0  0  0  0  0  0  0  0  0
  -22.1131   -0.2437  -14.2680 C   0  0  0  0  0  0  0  0  0  0  0  0
  -23.1465    0.5088  -13.7024 C   0  0  0  0  0  0  0  0  0  0  0  0
  -22.9705    1.9001  -13.6592 C   0  0  0  0  0  0  0  0  0  0  0  0
  -21.8157    2.5169  -14.1498 C   0  0  0  0  0  0  0  0  0  0  0  0
  -24.2856   -0.0632  -13.1723 N   0  0  0  0  0  0  0  0  0  0  0  0
  -24.6776    0.0927  -11.7664 C   0  0  0  0  0  0  0  0  0  0  0  0
  -24.6747   -1.2644  -11.0311 C   0  0  0  0  0  0  0  0  0  0  0  0
  -25.4610   -2.3108  -11.7211 N   0  0  0  0  0  0  0  0  0  0  0  0
  -24.9389   -2.4533  -13.0981 C   0  0  0  0  0  0  0  0  0  0  0  0
  -24.9636   -1.1385  -13.9113 C   0  0  0  0  0  0  0  0  0  0  0  0
  -26.4246   -1.9814  -11.7897 H   0  0  0  0  0  0  0  0  0  0  0  0
 24 25  1  0  0  0
 25 11  1  0  0  0
 11 12  1  0  0  0
 11 16  2  0  0  0
 12 13  2  0  0  0
 13 14  1  0  0  0
 14 15  2  0  0  0
 14 22  1  0  0  0
 15 16  1  0  0  0
 17 15  1  0  0  0
 17 18  1  0  0  0
 17 19  1  0  0  0
 17 20  1  0  0  0
 18 19  1  0  0  0
 19  1  1  0  0  0
  1  2  1  0  0  0
  1  9  2  0  0  0
  2  3  2  0  0  0
  3  4  1  0  0  0
  4  5  1  0  0  0
  4  8  2  0  0  0
  5 26  1  0  0  0
  5  6  2  0  0  0
 26 27  1  0  0  0
 26 31  2  0  0  0
 27 28  2  0  0  0
 28 29  1  0  0  0
 29 32  1  0  0  0
 29 30  2  0  0  0
 32 33  1  0  0  0
 32 37  1  0  0  0
 33 34  1  0  0  0
 34 35  1  0  0  0
 35 36  1  0  0  0
 35 38  1  0  0  0
 36 37  1  0  0  0
 30 31  1  0  0  0
  6  7  1  0  0  0
  7  8  1  0  0  0
  7 10  1  0  0  0
  8  9  1  0  0  0
 20 21  2  0  0  0
 20 22  1  0  0  0
 22 23  1  0  0  0
M  END
> <minimizedAffinity>
-9.34775

$$$$
