CHEMBL245947


 36 39  0  0  0  0  0  0  0  0999 V2000
  -13.9067   -0.0998  -14.4070 C   0  0  0  0  0  0  0  0  0  0  0  0
  -15.3083   -0.0479  -14.3000 C   0  0  0  0  0  0  0  0  0  0  0  0
  -16.0213    1.1102  -14.6028 C   0  0  0  0  0  0  0  0  0  0  0  0
  -15.3175    2.2118  -15.0918 C   0  0  0  0  0  0  0  0  0  0  0  0
  -13.9405    2.1217  -15.3380 C   0  0  0  0  0  0  0  0  0  0  0  0
  -13.2196    0.9592  -15.0147 C   0  0  0  0  0  0  0  0  0  0  0  0
  -11.7613    0.8736  -15.3567 C   0  0  0  0  0  0  0  0  0  0  0  0
  -17.4177    1.2335  -14.4086 N   0  0  0  0  0  0  0  0  0  0  0  0
  -18.2959    1.9273  -15.2272 C   0  0  0  0  0  0  0  0  0  0  0  0
  -18.0100    2.5778  -16.2265 O   0  0  0  0  0  0  0  0  0  0  0  0
  -17.7811    0.8629  -13.5411 H   0  0  0  0  0  0  0  0  0  0  0  0
  -19.7172    1.9432  -14.7867 C   0  0  0  0  0  0  0  0  0  0  0  0
  -20.3781    3.1776  -14.7875 C   0  0  0  0  0  0  0  0  0  0  0  0
  -21.7023    3.2639  -14.3696 C   0  0  0  0  0  0  0  0  0  0  0  0
  -22.3840    2.1112  -13.9814 C   0  0  0  0  0  0  0  0  0  0  0  0
  -21.7594    0.8536  -14.0259 C   0  0  0  0  0  0  0  0  0  0  0  0
  -20.4095    0.7810  -14.4193 C   0  0  0  0  0  0  0  0  0  0  0  0
  -22.5702   -0.3886  -13.6964 C   0  0  0  0  0  0  0  0  0  0  0  0
  -22.7536   -0.5453  -12.1844 C   0  0  0  0  0  0  0  0  0  0  0  0
  -23.9179   -0.4079  -14.4184 C   0  0  0  0  0  0  0  0  0  0  0  0
  -13.1943   -1.1863  -13.9029 O   0  0  0  0  0  0  0  0  0  0  0  0
  -13.9094   -3.5135  -13.7296 C   0  0  0  0  0  0  0  0  0  0  0  0
  -13.9515   -4.7502  -14.4119 C   0  0  0  0  0  0  0  0  0  0  0  0
  -13.6192   -4.8570  -15.7602 C   0  0  0  0  0  0  0  0  0  0  0  0
  -13.2774   -3.7076  -16.4324 C   0  0  0  0  0  0  0  0  0  0  0  0
  -13.2293   -2.5012  -15.8453 N   0  0  0  0  0  0  0  0  0  0  0  0
  -13.4663   -2.4243  -14.5023 C   0  0  0  0  0  0  0  0  0  0  0  0
  -13.9713   -3.7813   -9.9356 C   0  0  0  0  0  0  0  0  0  0  0  0
  -13.5666   -3.9450  -11.2610 C   0  0  0  0  0  0  0  0  0  0  0  0
  -14.3488   -3.4549  -12.3102 C   0  0  0  0  0  0  0  0  0  0  0  0
  -15.5838   -2.8975  -11.9585 C   0  0  0  0  0  0  0  0  0  0  0  0
  -15.9495   -2.8328  -10.6244 C   0  0  0  0  0  0  0  0  0  0  0  0
  -15.1565   -3.2386   -9.6144 N   0  0  0  0  0  0  0  0  0  0  0  0
  -12.2295   -3.2482   -8.3348 C   0  0  0  0  0  0  0  0  0  0  0  0
  -13.1964   -4.1928   -8.8562 N   0  0  0  0  0  0  0  0  0  0  0  0
  -13.8514   -4.5590   -8.1659 H   0  0  0  0  0  0  0  0  0  0  0  0
 34 35  1  0  0  0
 35 28  1  0  0  0
 35 36  1  0  0  0
 28 29  1  0  0  0
 28 33  2  0  0  0
 29 30  2  0  0  0
 30 22  1  0  0  0
 30 31  1  0  0  0
 22 23  1  0  0  0
 22 27  2  0  0  0
 23 24  2  0  0  0
 24 25  1  0  0  0
 25 26  2  0  0  0
 26 27  1  0  0  0
 27 21  1  0  0  0
 21  1  1  0  0  0
  1  2  1  0  0  0
  1  6  2  0  0  0
  2  3  2  0  0  0
  3  8  1  0  0  0
  3  4  1  0  0  0
  8  9  1  0  0  0
  8 11  1  0  0  0
  9 10  2  0  0  0
  9 12  1  0  0  0
 12 13  1  0  0  0
 12 17  2  0  0  0
 13 14  2  0  0  0
 14 15  1  0  0  0
 15 16  2  0  0  0
 16 18  1  0  0  0
 16 17  1  0  0  0
 18 19  1  0  0  0
 18 20  1  0  0  0
  4  5  2  0  0  0
  5  6  1  0  0  0
  6  7  1  0  0  0
 31 32  2  0  0  0
 32 33  1  0  0  0
M  END
> <minimizedAffinity>
-9.66055

$$$$
