CHEMBL3983575


 43 47  0  0  0  0  0  0  0  0999 V2000
  -26.2334   -0.8306   -9.2581 O   0  0  0  0  0  0  0  0  0  0  0  0
  -26.7550   -1.8231   -9.7499 C   0  0  0  0  0  0  0  0  0  0  0  0
  -27.7285   -2.5817   -9.1186 N   0  0  0  0  0  0  0  0  0  0  0  0
  -26.4193   -2.3517  -10.9906 N   0  0  0  0  0  0  0  0  0  0  0  0
  -27.9473   -3.4738   -9.5332 H   0  0  0  0  0  0  0  0  0  0  0  0
  -27.0082   -3.0857  -11.3536 H   0  0  0  0  0  0  0  0  0  0  0  0
  -25.3594   -1.9155  -11.8223 C   0  0  0  0  0  0  0  0  0  0  0  0
  -24.0390   -1.8005  -11.3792 C   0  0  0  0  0  0  0  0  0  0  0  0
  -23.0158   -1.3983  -12.2398 C   0  0  0  0  0  0  0  0  0  0  0  0
  -23.2996   -1.0499  -13.5594 C   0  0  0  0  0  0  0  0  0  0  0  0
  -24.6108   -1.1907  -14.0139 C   0  0  0  0  0  0  0  0  0  0  0  0
  -24.9141   -0.9144  -15.2913 F   0  0  0  0  0  0  0  0  0  0  0  0
  -25.6373   -1.6162  -13.1599 C   0  0  0  0  0  0  0  0  0  0  0  0
  -22.3364   -0.6204  -14.4508 O   0  0  0  0  0  0  0  0  0  0  0  0
  -21.9149    0.6962  -14.4013 C   0  0  0  0  0  0  0  0  0  0  0  0
  -22.6969    1.7239  -13.8784 C   0  0  0  0  0  0  0  0  0  0  0  0
  -22.1576    2.9890  -13.8422 C   0  0  0  0  0  0  0  0  0  0  0  0
  -20.9455    3.2838  -14.3297 N   0  0  0  0  0  0  0  0  0  0  0  0
  -20.2105    2.3116  -14.8922 C   0  0  0  0  0  0  0  0  0  0  0  0
  -20.6618    0.9962  -14.9482 C   0  0  0  0  0  0  0  0  0  0  0  0
  -18.9610    2.6390  -15.4433 N   0  0  0  0  0  0  0  0  0  0  0  0
  -17.7548    2.2189  -14.9092 C   0  0  0  0  0  0  0  0  0  0  0  0
  -17.5678    1.5055  -13.9390 O   0  0  0  0  0  0  0  0  0  0  0  0
  -18.9498    3.2385  -16.2528 H   0  0  0  0  0  0  0  0  0  0  0  0
  -16.5654    2.7722  -15.6318 C   0  0  0  0  0  0  0  0  0  0  0  0
  -15.7387    1.8927  -16.5480 C   0  0  0  0  0  0  0  0  0  0  0  0
  -15.1935    2.2929  -15.2092 C   0  0  0  0  0  0  0  0  0  0  0  0
  -28.2459   -2.3491   -7.8203 C   0  0  0  0  0  0  0  0  0  0  0  0
  -28.6888   -3.3651   -6.9631 C   0  0  0  0  0  0  0  0  0  0  0  0
  -29.2445   -3.1005   -5.7023 C   0  0  0  0  0  0  0  0  0  0  0  0
  -29.3704   -1.7617   -5.3264 C   0  0  0  0  0  0  0  0  0  0  0  0
  -28.8741   -0.7229   -6.1279 C   0  0  0  0  0  0  0  0  0  0  0  0
  -28.3101   -1.0283   -7.3766 C   0  0  0  0  0  0  0  0  0  0  0  0
  -29.6047   -4.1071   -4.8352 N   0  0  0  0  0  0  0  0  0  0  0  0
  -29.4948   -5.5276   -5.1956 C   0  0  0  0  0  0  0  0  0  0  0  0
  -30.8741   -6.1937   -5.1469 C   0  0  0  0  0  0  0  0  0  0  0  0
  -31.5012   -6.0004   -3.8660 O   0  0  0  0  0  0  0  0  0  0  0  0
  -31.6756   -4.5964   -3.6051 C   0  0  0  0  0  0  0  0  0  0  0  0
  -30.3323   -3.8441   -3.5867 C   0  0  0  0  0  0  0  0  0  0  0  0
  -28.8962    0.6968   -5.6322 C   0  0  0  0  0  0  0  0  0  0  0  0
  -30.1136    1.1046   -5.1789 F   0  0  0  0  0  0  0  0  0  0  0  0
  -28.0297    0.8914   -4.5985 F   0  0  0  0  0  0  0  0  0  0  0  0
  -28.5348    1.5922   -6.5928 F   0  0  0  0  0  0  0  0  0  0  0  0
  1  2  2  0  0  0
  2  3  1  0  0  0
  2  4  1  0  0  0
  3 28  1  0  0  0
  3  5  1  0  0  0
 28 29  1  0  0  0
 28 33  2  0  0  0
 29 30  2  0  0  0
 30 34  1  0  0  0
 30 31  1  0  0  0
 34 35  1  0  0  0
 34 39  1  0  0  0
 35 36  1  0  0  0
 36 37  1  0  0  0
 37 38  1  0  0  0
 38 39  1  0  0  0
 31 32  2  0  0  0
 32 40  1  0  0  0
 32 33  1  0  0  0
 40 41  1  0  0  0
 40 42  1  0  0  0
 40 43  1  0  0  0
  4  7  1  0  0  0
  4  6  1  0  0  0
  7  8  1  0  0  0
  7 13  2  0  0  0
  8  9  2  0  0  0
  9 10  1  0  0  0
 10 14  1  0  0  0
 10 11  2  0  0  0
 14 15  1  0  0  0
 15 16  1  0  0  0
 15 20  2  0  0  0
 16 17  2  0  0  0
 17 18  1  0  0  0
 18 19  2  0  0  0
 19 21  1  0  0  0
 19 20  1  0  0  0
 21 22  1  0  0  0
 21 24  1  0  0  0
 22 23  2  0  0  0
 22 25  1  0  0  0
 25 26  1  0  0  0
 25 27  1  0  0  0
 26 27  1  0  0  0
 11 12  1  0  0  0
 11 13  1  0  0  0
M  END
> <minimizedAffinity>
-12.69458

$$$$
