CHEMBL3828439


 39 43  0  0  0  0  0  0  0  0999 V2000
  -12.7764   -2.2585  -12.8389 C   0  0  0  0  0  0  0  0  0  0  0  0
  -11.4600   -1.7966  -12.9374 C   0  0  0  0  0  0  0  0  0  0  0  0
  -11.1595   -0.5042  -13.3869 C   0  0  0  0  0  0  0  0  0  0  0  0
  -12.2384    0.2968  -13.7668 C   0  0  0  0  0  0  0  0  0  0  0  0
  -12.3001    1.5716  -14.2629 N   0  0  0  0  0  0  0  0  0  0  0  0
  -13.5434    1.9884  -14.5735 N   0  0  0  0  0  0  0  0  0  0  0  0
  -14.3158    0.9522  -14.2096 C   0  0  0  0  0  0  0  0  0  0  0  0
  -13.5577   -0.1334  -13.6999 C   0  0  0  0  0  0  0  0  0  0  0  0
  -13.8354   -1.4316  -13.2231 C   0  0  0  0  0  0  0  0  0  0  0  0
  -11.5246    2.2023  -14.4313 H   0  0  0  0  0  0  0  0  0  0  0  0
  -15.7973    0.9876  -14.3743 C   0  0  0  0  0  0  0  0  0  0  0  0
  -16.6237    1.8421  -13.8045 N   0  0  0  0  0  0  0  0  0  0  0  0
  -17.8761    1.4825  -14.2385 C   0  0  0  0  0  0  0  0  0  0  0  0
  -19.1229    2.0558  -13.9509 C   0  0  0  0  0  0  0  0  0  0  0  0
  -20.2825    1.4722  -14.4837 C   0  0  0  0  0  0  0  0  0  0  0  0
  -20.1786    0.3583  -15.3302 C   0  0  0  0  0  0  0  0  0  0  0  0
  -18.9419   -0.2216  -15.6404 C   0  0  0  0  0  0  0  0  0  0  0  0
  -17.8154    0.3734  -15.0743 C   0  0  0  0  0  0  0  0  0  0  0  0
  -16.4772    0.0937  -15.1598 N   0  0  0  0  0  0  0  0  0  0  0  0
  -16.0343   -0.6484  -15.6816 H   0  0  0  0  0  0  0  0  0  0  0  0
  -21.5701    1.9881  -14.1778 N   0  0  0  0  0  0  0  0  0  0  0  0
  -21.8097    3.4057  -14.4130 C   0  0  0  0  0  0  0  0  0  0  0  0
  -22.6226    1.2580  -13.6189 C   0  0  0  0  0  0  0  0  0  0  0  0
  -23.6933    1.8032  -13.3165 O   0  0  0  0  0  0  0  0  0  0  0  0
  -22.4787   -0.2641  -13.4582 C   0  0  0  0  0  0  0  0  0  0  0  0
  -23.6366   -0.8409  -12.7459 N   0  0  0  0  0  0  0  0  0  0  0  0
  -24.5734   -1.4994  -13.6562 C   0  0  0  0  0  0  0  0  0  0  0  0
  -23.1756   -1.7701  -11.7189 C   0  0  0  0  0  0  0  0  0  0  0  0
  -12.8934   -3.5477  -12.3956 O   0  0  0  0  0  0  0  0  0  0  0  0
  -14.0680   -3.8388  -10.2659 C   0  0  0  0  0  0  0  0  0  0  0  0
  -14.1253   -3.9701  -11.7918 C   0  0  0  0  0  0  0  0  0  0  0  0
  -14.3962   -5.4027  -12.2412 C   0  0  0  0  0  0  0  0  0  0  0  0
  -15.4998   -5.7094  -13.0621 C   0  0  0  0  0  0  0  0  0  0  0  0
  -16.6603   -4.5405  -13.5737 Cl  0  0  0  0  0  0  0  0  0  0  0  0
  -15.7098   -7.0195  -13.4897 C   0  0  0  0  0  0  0  0  0  0  0  0
  -14.9188   -8.0582  -13.1555 N   0  0  0  0  0  0  0  0  0  0  0  0
  -13.8691   -7.7623  -12.3580 C   0  0  0  0  0  0  0  0  0  0  0  0
  -13.5675   -6.4839  -11.8857 C   0  0  0  0  0  0  0  0  0  0  0  0
  -12.1726   -6.3391  -10.8794 Cl  0  0  0  0  0  0  0  0  0  0  0  0
 30 31  1  0  0  0
 31 29  1  0  0  0
 31 32  1  0  0  0
 29  1  1  0  0  0
  1  2  1  0  0  0
  1  9  2  0  0  0
  2  3  2  0  0  0
  3  4  1  0  0  0
  4  5  1  0  0  0
  4  8  2  0  0  0
  5  6  1  0  0  0
  5 10  1  0  0  0
  6  7  2  0  0  0
  7 11  1  0  0  0
  7  8  1  0  0  0
 11 12  2  0  0  0
 11 19  1  0  0  0
 12 13  1  0  0  0
 13 14  1  0  0  0
 13 18  2  0  0  0
 14 15  2  0  0  0
 15 21  1  0  0  0
 15 16  1  0  0  0
 21 22  1  0  0  0
 21 23  1  0  0  0
 23 24  2  0  0  0
 23 25  1  0  0  0
 25 26  1  0  0  0
 26 27  1  0  0  0
 26 28  1  0  0  0
 16 17  2  0  0  0
 17 18  1  0  0  0
 18 19  1  0  0  0
 19 20  1  0  0  0
  8  9  1  0  0  0
 32 33  1  0  0  0
 32 38  2  0  0  0
 33 34  1  0  0  0
 33 35  2  0  0  0
 35 36  1  0  0  0
 36 37  2  0  0  0
 37 38  1  0  0  0
 38 39  1  0  0  0
M  END
> <minimizedAffinity>
-8.22672

$$$$
