CHEMBL206536


 32 36  0  0  0  0  0  0  0  0999 V2000
  -30.1179   -6.7416   -5.1203 C   0  0  0  0  0  0  0  0  0  0  0  0
  -28.8395   -6.9715   -4.7688 N   0  0  0  0  0  0  0  0  0  0  0  0
  -28.1231   -8.0377   -5.2790 N   0  0  0  0  0  0  0  0  0  0  0  0
  -28.6627   -8.8598   -6.1991 C   0  0  0  0  0  0  0  0  0  0  0  0
  -30.0282   -8.6953   -6.5780 C   0  0  0  0  0  0  0  0  0  0  0  0
  -30.7118   -9.4870   -7.5515 C   0  0  0  0  0  0  0  0  0  0  0  0
  -32.0675   -9.3301   -7.8473 C   0  0  0  0  0  0  0  0  0  0  0  0
  -32.7921   -8.3413   -7.2297 C   0  0  0  0  0  0  0  0  0  0  0  0
  -32.1480   -7.4859   -6.3281 C   0  0  0  0  0  0  0  0  0  0  0  0
  -30.7823   -7.6449   -5.9829 C   0  0  0  0  0  0  0  0  0  0  0  0
  -27.7168   -9.8531   -6.8132 C   0  0  0  0  0  0  0  0  0  0  0  0
  -27.2387  -10.9269   -6.0329 C   0  0  0  0  0  0  0  0  0  0  0  0
  -26.6967  -12.0727   -6.6131 C   0  0  0  0  0  0  0  0  0  0  0  0
  -26.6255  -12.1746   -7.9924 C   0  0  0  0  0  0  0  0  0  0  0  0
  -26.9387  -11.0697   -8.7925 C   0  0  0  0  0  0  0  0  0  0  0  0
  -26.7934  -11.1385  -10.1798 C   0  0  0  0  0  0  0  0  0  0  0  0
  -26.8217  -10.0738  -11.0054 N   0  0  0  0  0  0  0  0  0  0  0  0
  -27.0366   -8.8840  -10.4181 C   0  0  0  0  0  0  0  0  0  0  0  0
  -27.3633   -8.7330   -9.0753 C   0  0  0  0  0  0  0  0  0  0  0  0
  -27.3642   -9.8528   -8.2091 C   0  0  0  0  0  0  0  0  0  0  0  0
  -30.7780   -5.5464   -4.7249 N   0  0  0  0  0  0  0  0  0  0  0  0
  -31.4233   -5.6855   -3.9624 H   0  0  0  0  0  0  0  0  0  0  0  0
  -29.4377   -1.5476   -5.4677 C   0  0  0  0  0  0  0  0  0  0  0  0
  -29.8097   -1.9766   -4.1826 C   0  0  0  0  0  0  0  0  0  0  0  0
  -30.2657   -3.2724   -3.9364 C   0  0  0  0  0  0  0  0  0  0  0  0
  -30.4319   -4.2009   -4.9579 C   0  0  0  0  0  0  0  0  0  0  0  0
  -30.0703   -3.7847   -6.2503 C   0  0  0  0  0  0  0  0  0  0  0  0
  -29.5887   -2.4851   -6.5025 C   0  0  0  0  0  0  0  0  0  0  0  0
  -30.1103    0.9150   -5.6970 C   0  0  0  0  0  0  0  0  0  0  0  0
  -28.9461   -0.1077   -5.6996 C   0  0  0  0  0  0  0  0  0  0  0  0
  -28.2518   -0.0531   -7.0747 C   0  0  0  0  0  0  0  0  0  0  0  0
  -27.9469    0.3801   -4.6270 C   0  0  0  0  0  0  0  0  0  0  0  0
 29 30  1  0  0  0
 30 31  1  0  0  0
 30 32  1  0  0  0
 30 23  1  0  0  0
 23 24  1  0  0  0
 23 28  2  0  0  0
 24 25  2  0  0  0
 25 26  1  0  0  0
 26 21  1  0  0  0
 26 27  2  0  0  0
 21  1  1  0  0  0
 21 22  1  0  0  0
  1  2  1  0  0  0
  1 10  2  0  0  0
  2  3  2  0  0  0
  3  4  1  0  0  0
  4 11  1  0  0  0
  4  5  2  0  0  0
 11 12  1  0  0  0
 11 20  2  0  0  0
 12 13  2  0  0  0
 13 14  1  0  0  0
 14 15  2  0  0  0
 15 16  1  0  0  0
 15 20  1  0  0  0
 16 17  2  0  0  0
 17 18  1  0  0  0
 18 19  2  0  0  0
 19 20  1  0  0  0
  5  6  1  0  0  0
  5 10  1  0  0  0
  6  7  2  0  0  0
  7  8  1  0  0  0
  8  9  2  0  0  0
  9 10  1  0  0  0
 27 28  1  0  0  0
M  END
> <minimizedAffinity>
-9.40248

$$$$
