CHEMBL3891581


 38 42  0  0  0  0  0  0  0  0999 V2000
  -28.7755   -4.1797   -7.4443 C   0  0  0  0  0  0  0  0  0  0  0  0
  -28.7747   -3.7767   -6.1684 N   0  0  0  0  0  0  0  0  0  0  0  0
  -28.3539   -2.5112   -5.9376 C   0  0  0  0  0  0  0  0  0  0  0  0
  -27.9502   -1.6293   -6.9190 C   0  0  0  0  0  0  0  0  0  0  0  0
  -27.5836   -0.0092   -6.5044 Cl  0  0  0  0  0  0  0  0  0  0  0  0
  -27.9357   -2.1375   -8.2020 C   0  0  0  0  0  0  0  0  0  0  0  0
  -28.3393   -3.4138   -8.4528 N   0  0  0  0  0  0  0  0  0  0  0  0
  -29.3397   -5.4280   -7.7215 N   0  0  0  0  0  0  0  0  0  0  0  0
  -30.3479   -5.3368   -7.6688 H   0  0  0  0  0  0  0  0  0  0  0  0
  -27.9577   -9.1314   -6.3511 C   0  0  0  0  0  0  0  0  0  0  0  0
  -28.1693   -8.9397   -7.7159 C   0  0  0  0  0  0  0  0  0  0  0  0
  -28.6342   -7.7017   -8.1709 C   0  0  0  0  0  0  0  0  0  0  0  0
  -28.8482   -6.6589   -7.2722 C   0  0  0  0  0  0  0  0  0  0  0  0
  -28.6312   -6.9492   -5.9299 C   0  0  0  0  0  0  0  0  0  0  0  0
  -28.2123   -8.1469   -5.4585 N   0  0  0  0  0  0  0  0  0  0  0  0
  -23.2774   -9.7234   -6.1210 C   0  0  0  0  0  0  0  0  0  0  0  0
  -24.5020  -10.4777   -5.8213 N   0  0  0  0  0  0  0  0  0  0  0  0
  -25.2566   -9.7697   -4.7740 C   0  0  0  0  0  0  0  0  0  0  0  0
  -26.6468  -10.3622   -4.5213 C   0  0  0  0  0  0  0  0  0  0  0  0
  -27.4757  -10.4741   -5.8122 C   0  0  0  0  0  0  0  0  0  0  0  0
  -26.6471  -11.2830   -6.8200 C   0  0  0  0  0  0  0  0  0  0  0  0
  -25.2722  -10.6590   -7.0593 C   0  0  0  0  0  0  0  0  0  0  0  0
  -27.6399   -1.3235   -9.4383 C   0  0  0  0  0  0  0  0  0  0  0  0
  -26.5049   -1.8041  -10.3651 C   0  0  0  0  0  0  0  0  0  0  0  0
  -26.8114   -1.7685  -11.8639 C   0  0  0  0  0  0  0  0  0  0  0  0
  -28.1277   -1.9841  -12.3315 C   0  0  0  0  0  0  0  0  0  0  0  0
  -28.4327   -2.0186  -13.6911 C   0  0  0  0  0  0  0  0  0  0  0  0
  -27.4197   -1.8941  -14.6230 C   0  0  0  0  0  0  0  0  0  0  0  0
  -26.1184   -1.6572  -14.1879 C   0  0  0  0  0  0  0  0  0  0  0  0
  -25.7831   -1.5289  -12.8165 C   0  0  0  0  0  0  0  0  0  0  0  0
  -24.3934   -0.9597  -12.4825 C   0  0  0  0  0  0  0  0  0  0  0  0
  -24.3537    0.4565  -11.8891 C   0  0  0  0  0  0  0  0  0  0  0  0
  -23.7721    0.2036  -13.2404 C   0  0  0  0  0  0  0  0  0  0  0  0
  -23.4268   -1.9832  -11.9366 C   0  0  0  0  0  0  0  0  0  0  0  0
  -23.1653   -3.0450  -12.7528 N   0  0  0  0  0  0  0  0  0  0  0  0
  -22.9108   -1.8613  -10.8342 O   0  0  0  0  0  0  0  0  0  0  0  0
  -23.5479   -3.1184  -13.6829 H   0  0  0  0  0  0  0  0  0  0  0  0
  -22.4917   -3.7277  -12.4357 H   0  0  0  0  0  0  0  0  0  0  0  0
 16 17  1  0  0  0
 17 18  1  0  0  0
 17 22  1  0  0  0
 18 19  1  0  0  0
 19 20  1  0  0  0
 20 10  1  0  0  0
 20 21  1  0  0  0
 10 11  1  0  0  0
 10 15  2  0  0  0
 11 12  2  0  0  0
 12 13  1  0  0  0
 13  8  1  0  0  0
 13 14  2  0  0  0
  8  1  1  0  0  0
  8  9  1  0  0  0
  1  2  1  0  0  0
  1  7  2  0  0  0
  2  3  2  0  0  0
  3  4  1  0  0  0
  4  5  1  0  0  0
  4  6  2  0  0  0
  6 23  1  0  0  0
  6  7  1  0  0  0
 23 24  1  0  0  0
 24 25  1  0  0  0
 25 26  1  0  0  0
 25 30  2  0  0  0
 26 27  2  0  0  0
 27 28  1  0  0  0
 28 29  2  0  0  0
 29 30  1  0  0  0
 30 31  1  0  0  0
 31 34  1  0  0  0
 31 32  1  0  0  0
 31 33  1  0  0  0
 34 35  1  0  0  0
 34 36  2  0  0  0
 35 37  1  0  0  0
 35 38  1  0  0  0
 32 33  1  0  0  0
 14 15  1  0  0  0
 21 22  1  0  0  0
M  END
> <minimizedAffinity>
-9.15954

$$$$
