CHEMBL2022853


 42 46  0  0  0  0  0  0  0  0999 V2000
  -29.3403   -2.7642   -5.5355 C   0  0  0  0  0  0  0  0  0  0  0  0
  -29.1596   -1.4766   -5.0617 C   0  0  0  0  0  0  0  0  0  0  0  0
  -28.5849   -0.4797   -5.7472 N   0  0  0  0  0  0  0  0  0  0  0  0
  -28.1261   -0.6998   -6.9929 C   0  0  0  0  0  0  0  0  0  0  0  0
  -27.6231    0.4457   -7.5895 N   0  0  0  0  0  0  0  0  0  0  0  0
  -28.1944   -2.0015   -7.5818 C   0  0  0  0  0  0  0  0  0  0  0  0
  -27.7142   -2.5335   -8.8735 C   0  0  0  0  0  0  0  0  0  0  0  0
  -28.0080   -3.8729   -9.0142 C   0  0  0  0  0  0  0  0  0  0  0  0
  -28.8308   -4.5156   -7.6881 S   0  0  0  0  0  0  0  0  0  0  0  0
  -28.8250   -3.0159   -6.8267 C   0  0  0  0  0  0  0  0  0  0  0  0
  -27.8472    1.2565   -7.0237 H   0  0  0  0  0  0  0  0  0  0  0  0
  -27.8188    0.5315   -8.5776 H   0  0  0  0  0  0  0  0  0  0  0  0
  -26.9711   -1.8516   -9.9418 C   0  0  0  0  0  0  0  0  0  0  0  0
  -27.6314   -1.4656  -11.1024 C   0  0  0  0  0  0  0  0  0  0  0  0
  -26.9268   -0.9773  -12.1964 C   0  0  0  0  0  0  0  0  0  0  0  0
  -25.5639   -0.6989  -12.1096 C   0  0  0  0  0  0  0  0  0  0  0  0
  -24.8989   -0.9896  -10.9183 C   0  0  0  0  0  0  0  0  0  0  0  0
  -25.5957   -1.5763   -9.8473 C   0  0  0  0  0  0  0  0  0  0  0  0
  -24.8502   -0.1375  -13.1912 N   0  0  0  0  0  0  0  0  0  0  0  0
  -23.5420    0.3039  -13.0943 C   0  0  0  0  0  0  0  0  0  0  0  0
  -22.8177    0.1361  -12.1191 O   0  0  0  0  0  0  0  0  0  0  0  0
  -23.1386    0.9905  -14.2270 N   0  0  0  0  0  0  0  0  0  0  0  0
  -25.1920   -0.3177  -14.1242 H   0  0  0  0  0  0  0  0  0  0  0  0
  -23.8626    1.5422  -14.6650 H   0  0  0  0  0  0  0  0  0  0  0  0
  -21.8087    1.4548  -14.3533 C   0  0  0  0  0  0  0  0  0  0  0  0
  -21.4769    2.7980  -14.1210 C   0  0  0  0  0  0  0  0  0  0  0  0
  -20.1751    3.2595  -14.3114 C   0  0  0  0  0  0  0  0  0  0  0  0
  -19.1879    2.3726  -14.7394 C   0  0  0  0  0  0  0  0  0  0  0  0
  -19.5218    1.0393  -14.9542 C   0  0  0  0  0  0  0  0  0  0  0  0
  -18.5779    0.1969  -15.3944 F   0  0  0  0  0  0  0  0  0  0  0  0
  -20.8146    0.5644  -14.7499 C   0  0  0  0  0  0  0  0  0  0  0  0
  -30.3371   -5.6600   -3.6489 N   0  0  0  0  0  0  0  0  0  0  0  0
  -29.4039   -4.9692   -4.3664 C   0  0  0  0  0  0  0  0  0  0  0  0
  -29.9940   -3.7745   -4.7281 C   0  0  0  0  0  0  0  0  0  0  0  0
  -31.2686   -3.8324   -4.1177 C   0  0  0  0  0  0  0  0  0  0  0  0
  -31.4662   -4.9671   -3.4396 N   0  0  0  0  0  0  0  0  0  0  0  0
  -30.2067   -7.0124   -3.1439 C   0  0  0  0  0  0  0  0  0  0  0  0
  -28.7972   -7.5395   -3.3100 C   0  0  0  0  0  0  0  0  0  0  0  0
  -27.1375   -9.2142   -4.7796 C   0  0  0  0  0  0  0  0  0  0  0  0
  -28.8306   -9.0207   -4.2853 S   0  0  0  0  0  0  0  0  0  0  0  0
  -29.6115   -8.7444   -5.4765 O   0  0  0  0  0  0  0  0  0  0  0  0
  -29.1678  -10.1248   -3.4110 O   0  0  0  0  0  0  0  0  0  0  0  0
 39 40  1  0  0  0
 40 41  2  0  0  0
 40 42  2  0  0  0
 40 38  1  0  0  0
 38 37  1  0  0  0
 37 32  1  0  0  0
 32 33  1  0  0  0
 32 36  1  0  0  0
 33 34  2  0  0  0
 34  1  1  0  0  0
 34 35  1  0  0  0
  1  2  1  0  0  0
  1 10  2  0  0  0
  2  3  2  0  0  0
  3  4  1  0  0  0
  4  5  1  0  0  0
  4  6  2  0  0  0
  5 11  1  0  0  0
  5 12  1  0  0  0
  6  7  1  0  0  0
  6 10  1  0  0  0
  7 13  1  0  0  0
  7  8  2  0  0  0
 13 14  1  0  0  0
 13 18  2  0  0  0
 14 15  2  0  0  0
 15 16  1  0  0  0
 16 19  1  0  0  0
 16 17  2  0  0  0
 19 20  1  0  0  0
 19 23  1  0  0  0
 20 21  2  0  0  0
 20 22  1  0  0  0
 22 25  1  0  0  0
 22 24  1  0  0  0
 25 26  1  0  0  0
 25 31  2  0  0  0
 26 27  2  0  0  0
 27 28  1  0  0  0
 28 29  2  0  0  0
 29 30  1  0  0  0
 29 31  1  0  0  0
 17 18  1  0  0  0
  8  9  1  0  0  0
  9 10  1  0  0  0
 35 36  2  0  0  0
M  END
> <minimizedAffinity>
-8.65362

$$$$
