CHEMBL497343


 32 36  0  0  0  0  0  0  0  0999 V2000
  -22.7092    3.4609  -13.7470 C   0  0  0  0  0  0  0  0  0  0  0  0
  -21.3890    2.8503  -14.1587 C   0  0  0  0  0  0  0  0  0  0  0  0
  -20.2726    3.7279  -14.4288 C   0  0  0  0  0  0  0  0  0  0  0  0
  -19.0295    3.2286  -14.3728 C   0  0  0  0  0  0  0  0  0  0  0  0
  -18.8039    1.8702  -14.6070 N   0  0  0  0  0  0  0  0  0  0  0  0
  -19.8626    0.9647  -14.5808 C   0  0  0  0  0  0  0  0  0  0  0  0
  -19.8005   -0.2354  -14.8454 O   0  0  0  0  0  0  0  0  0  0  0  0
  -21.1489    1.5311  -14.1013 C   0  0  0  0  0  0  0  0  0  0  0  0
  -22.1902    0.6107  -13.7040 C   0  0  0  0  0  0  0  0  0  0  0  0
  -23.0742    0.3920  -14.7422 C   0  0  0  0  0  0  0  0  0  0  0  0
  -23.9959   -0.5578  -14.5630 C   0  0  0  0  0  0  0  0  0  0  0  0
  -24.2510   -0.8840  -13.3092 C   0  0  0  0  0  0  0  0  0  0  0  0
  -25.3860   -1.4290  -13.1033 N   0  0  0  0  0  0  0  0  0  0  0  0
  -26.5201   -1.9517  -12.9483 C   0  0  0  0  0  0  0  0  0  0  0  0
  -26.8384   -1.6294  -14.2648 N   0  0  0  0  0  0  0  0  0  0  0  0
  -25.9529   -2.0416  -11.7177 N   0  0  0  0  0  0  0  0  0  0  0  0
  -24.4779   -1.4776  -11.2555 C   0  0  0  0  0  0  0  0  0  0  0  0
  -23.5562   -0.7669  -12.1637 C   0  0  0  0  0  0  0  0  0  0  0  0
  -22.2986   -0.0722  -12.4570 C   0  0  0  0  0  0  0  0  0  0  0  0
  -26.2268   -0.9686  -14.7175 H   0  0  0  0  0  0  0  0  0  0  0  0
  -27.5548   -1.9059  -14.9129 H   0  0  0  0  0  0  0  0  0  0  0  0
  -17.5371    1.3596  -15.0232 C   0  0  0  0  0  0  0  0  0  0  0  0
  -16.8343    0.4040  -14.2559 C   0  0  0  0  0  0  0  0  0  0  0  0
  -15.5047    0.0945  -14.5222 C   0  0  0  0  0  0  0  0  0  0  0  0
  -14.8967    0.6323  -15.6570 C   0  0  0  0  0  0  0  0  0  0  0  0
  -15.6475    1.4388  -16.5219 C   0  0  0  0  0  0  0  0  0  0  0  0
  -16.9329    1.8542  -16.1719 C   0  0  0  0  0  0  0  0  0  0  0  0
  -13.5218    0.3916  -15.9053 N   0  0  0  0  0  0  0  0  0  0  0  0
  -12.8748   -0.8257  -15.8500 C   0  0  0  0  0  0  0  0  0  0  0  0
  -11.5609   -0.6022  -16.1650 C   0  0  0  0  0  0  0  0  0  0  0  0
  -11.4847    0.7812  -16.3827 C   0  0  0  0  0  0  0  0  0  0  0  0
  -12.6686    1.3856  -16.2751 N   0  0  0  0  0  0  0  0  0  0  0  0
  1  2  1  0  0  0
  2  3  1  0  0  0
  2  8  2  0  0  0
  3  4  2  0  0  0
  4  5  1  0  0  0
  5 22  1  0  0  0
  5  6  1  0  0  0
 22 23  1  0  0  0
 22 27  2  0  0  0
 23 24  2  0  0  0
 24 25  1  0  0  0
 25 28  1  0  0  0
 25 26  2  0  0  0
 28 29  1  0  0  0
 28 32  1  0  0  0
 29 30  2  0  0  0
 30 31  1  0  0  0
 31 32  2  0  0  0
 26 27  1  0  0  0
  6  7  2  0  0  0
  6  8  1  0  0  0
  8  9  1  0  0  0
  9 10  1  0  0  0
  9 19  2  0  0  0
 10 11  2  0  0  0
 11 12  1  0  0  0
 12 13  1  0  0  0
 12 18  2  0  0  0
 13 14  2  0  0  0
 14 15  1  0  0  0
 14 16  1  0  0  0
 15 20  1  0  0  0
 15 21  1  0  0  0
 16 17  2  0  0  0
 17 18  1  0  0  0
 18 19  1  0  0  0
M  END
> <minimizedAffinity>
-8.58956

$$$$
