CHEMBL117052


 32 36  0  0  0  0  0  0  0  0999 V2000
  -18.7459    2.1562  -15.2348 C   0  0  0  0  0  0  0  0  0  0  0  0
  -19.4214    3.3752  -15.0864 C   0  0  0  0  0  0  0  0  0  0  0  0
  -20.7633    3.4232  -14.6630 C   0  0  0  0  0  0  0  0  0  0  0  0
  -21.3865    2.2044  -14.3633 C   0  0  0  0  0  0  0  0  0  0  0  0
  -22.6589    1.9085  -13.9271 N   0  0  0  0  0  0  0  0  0  0  0  0
  -22.8354    0.5426  -13.7968 C   0  0  0  0  0  0  0  0  0  0  0  0
  -21.6296   -0.0366  -14.1404 C   0  0  0  0  0  0  0  0  0  0  0  0
  -20.7409    0.9869  -14.5299 C   0  0  0  0  0  0  0  0  0  0  0  0
  -19.4398    0.9637  -15.0376 C   0  0  0  0  0  0  0  0  0  0  0  0
  -23.3936    2.5857  -13.7615 H   0  0  0  0  0  0  0  0  0  0  0  0
  -24.1078   -0.0935  -13.4480 C   0  0  0  0  0  0  0  0  0  0  0  0
  -24.5208   -0.1516  -12.1143 C   0  0  0  0  0  0  0  0  0  0  0  0
  -25.6636   -0.8718  -11.7497 C   0  0  0  0  0  0  0  0  0  0  0  0
  -26.0554   -0.9813  -10.4041 C   0  0  0  0  0  0  0  0  0  0  0  0
  -27.1645   -1.7454  -10.0616 C   0  0  0  0  0  0  0  0  0  0  0  0
  -27.8841   -2.3948  -11.0583 C   0  0  0  0  0  0  0  0  0  0  0  0
  -27.4992   -2.2662  -12.3978 C   0  0  0  0  0  0  0  0  0  0  0  0
  -26.3959   -1.5122  -12.7699 C   0  0  0  0  0  0  0  0  0  0  0  0
  -26.0504   -1.4292  -14.0684 N   0  0  0  0  0  0  0  0  0  0  0  0
  -24.9332   -0.7376  -14.3615 C   0  0  0  0  0  0  0  0  0  0  0  0
  -24.6599   -0.7476  -15.6948 O   0  0  0  0  0  0  0  0  0  0  0  0
  -25.4121   -1.2893  -15.9994 H   0  0  0  0  0  0  0  0  0  0  0  0
  -12.9896    0.2004  -14.4039 N   0  0  0  0  0  0  0  0  0  0  0  0
  -14.1904    1.0055  -14.2141 C   0  0  0  0  0  0  0  0  0  0  0  0
  -15.1346    0.3487  -13.2098 C   0  0  0  0  0  0  0  0  0  0  0  0
  -16.5361    0.7393  -13.6616 C   0  0  0  0  0  0  0  0  0  0  0  0
  -16.3930    1.3819  -14.9628 N   0  0  0  0  0  0  0  0  0  0  0  0
  -17.3245    2.1261  -15.6804 C   0  0  0  0  0  0  0  0  0  0  0  0
  -17.0207    2.7726  -16.6816 O   0  0  0  0  0  0  0  0  0  0  0  0
  -15.0523    1.1752  -15.4739 C   0  0  0  0  0  0  0  0  0  0  0  0
  -12.4796    0.1315  -13.5245 H   0  0  0  0  0  0  0  0  0  0  0  0
  -12.3687    0.6585  -15.0695 H   0  0  0  0  0  0  0  0  0  0  0  0
 23 24  1  0  0  0
 23 31  1  0  0  0
 23 32  1  0  0  0
 24 25  1  0  0  0
 24 30  1  0  0  0
 25 26  1  0  0  0
 26 27  1  0  0  0
 27 28  1  0  0  0
 27 30  1  0  0  0
 28 29  2  0  0  0
 28  1  1  0  0  0
  1  2  1  0  0  0
  1  9  2  0  0  0
  2  3  2  0  0  0
  3  4  1  0  0  0
  4  5  1  0  0  0
  4  8  2  0  0  0
  5  6  1  0  0  0
  5 10  1  0  0  0
  6 11  1  0  0  0
  6  7  2  0  0  0
 11 12  1  0  0  0
 11 20  2  0  0  0
 12 13  2  0  0  0
 13 14  1  0  0  0
 13 18  1  0  0  0
 14 15  2  0  0  0
 15 16  1  0  0  0
 16 17  2  0  0  0
 17 18  1  0  0  0
 18 19  2  0  0  0
 19 20  1  0  0  0
 20 21  1  0  0  0
 21 22  1  0  0  0
  7  8  1  0  0  0
  8  9  1  0  0  0
M  END
> <minimizedAffinity>
-10.18599

$$$$
