CHEMBL3694702


 38 41  0  0  0  0  0  0  0  0999 V2000
  -29.7989   -7.5520   -5.5879 C   0  0  0  0  0  0  0  0  0  0  0  0
  -28.7037   -7.3314   -4.6085 C   0  0  0  0  0  0  0  0  0  0  0  0
  -28.3389   -6.0714   -4.2823 C   0  0  0  0  0  0  0  0  0  0  0  0
  -29.1585   -5.0185   -4.7142 N   0  0  0  0  0  0  0  0  0  0  0  0
  -29.2183   -3.6527   -4.3856 C   0  0  0  0  0  0  0  0  0  0  0  0
  -30.4275   -3.7526   -3.6808 C   0  0  0  0  0  0  0  0  0  0  0  0
  -31.2705   -4.6035   -4.3781 N   0  0  0  0  0  0  0  0  0  0  0  0
  -30.4507   -5.3093   -5.1387 C   0  0  0  0  0  0  0  0  0  0  0  0
  -30.6232   -6.5119   -5.8674 C   0  0  0  0  0  0  0  0  0  0  0  0
  -30.4957  -12.4586   -8.2046 N   0  0  0  0  0  0  0  0  0  0  0  0
  -30.4286  -11.2705   -7.4660 C   0  0  0  0  0  0  0  0  0  0  0  0
  -29.4389  -11.0488   -6.5282 C   0  0  0  0  0  0  0  0  0  0  0  0
  -29.2270   -9.8754   -5.8992 N   0  0  0  0  0  0  0  0  0  0  0  0
  -30.0310   -8.8591   -6.2582 C   0  0  0  0  0  0  0  0  0  0  0  0
  -31.0090   -8.9434   -7.1826 N   0  0  0  0  0  0  0  0  0  0  0  0
  -31.1773  -10.1346   -7.7779 C   0  0  0  0  0  0  0  0  0  0  0  0
  -32.1626  -10.1873   -8.7774 N   0  0  0  0  0  0  0  0  0  0  0  0
  -30.2094  -13.2985   -7.7144 H   0  0  0  0  0  0  0  0  0  0  0  0
  -31.3508  -12.5591   -8.7424 H   0  0  0  0  0  0  0  0  0  0  0  0
  -32.6061   -9.2724   -8.8078 H   0  0  0  0  0  0  0  0  0  0  0  0
  -32.8343  -10.9218   -8.5958 H   0  0  0  0  0  0  0  0  0  0  0  0
  -29.0285   -2.5496   -5.3944 C   0  0  0  0  0  0  0  0  0  0  0  0
  -29.2762   -1.2101   -5.0712 C   0  0  0  0  0  0  0  0  0  0  0  0
  -28.8144   -0.1858   -5.9031 C   0  0  0  0  0  0  0  0  0  0  0  0
  -28.1113   -0.4789   -7.0747 C   0  0  0  0  0  0  0  0  0  0  0  0
  -27.8801   -1.7979   -7.4557 C   0  0  0  0  0  0  0  0  0  0  0  0
  -28.3617   -2.8229   -6.6170 C   0  0  0  0  0  0  0  0  0  0  0  0
  -27.1594   -2.1653   -8.6334 N   0  0  0  0  0  0  0  0  0  0  0  0
  -27.4122   -1.7205   -9.9060 C   0  0  0  0  0  0  0  0  0  0  0  0
  -28.2639   -0.9208  -10.2691 O   0  0  0  0  0  0  0  0  0  0  0  0
  -26.6067   -2.3435  -10.8473 N   0  0  0  0  0  0  0  0  0  0  0  0
  -26.4159   -2.8245   -8.5102 H   0  0  0  0  0  0  0  0  0  0  0  0
  -25.6653   -2.5784  -10.5581 H   0  0  0  0  0  0  0  0  0  0  0  0
  -26.8014   -2.0097  -12.2715 C   0  0  0  0  0  0  0  0  0  0  0  0
  -25.5749   -1.4435  -13.0087 C   0  0  0  0  0  0  0  0  0  0  0  0
  -25.2226   -0.2209  -12.5489 F   0  0  0  0  0  0  0  0  0  0  0  0
  -24.5063   -2.2576  -12.8090 F   0  0  0  0  0  0  0  0  0  0  0  0
  -25.7647   -1.3571  -14.3411 F   0  0  0  0  0  0  0  0  0  0  0  0
 10 11  1  0  0  0
 10 18  1  0  0  0
 10 19  1  0  0  0
 11 12  1  0  0  0
 11 16  2  0  0  0
 12 13  2  0  0  0
 13 14  1  0  0  0
 14  1  1  0  0  0
 14 15  2  0  0  0
  1  2  1  0  0  0
  1  9  2  0  0  0
  2  3  2  0  0  0
  3  4  1  0  0  0
  4  5  1  0  0  0
  4  8  1  0  0  0
  5 22  1  0  0  0
  5  6  2  0  0  0
 22 23  1  0  0  0
 22 27  2  0  0  0
 23 24  2  0  0  0
 24 25  1  0  0  0
 25 26  2  0  0  0
 26 28  1  0  0  0
 26 27  1  0  0  0
 28 29  1  0  0  0
 28 32  1  0  0  0
 29 30  2  0  0  0
 29 31  1  0  0  0
 31 34  1  0  0  0
 31 33  1  0  0  0
 34 35  1  0  0  0
 35 36  1  0  0  0
 35 37  1  0  0  0
 35 38  1  0  0  0
  6  7  1  0  0  0
  7  8  2  0  0  0
  8  9  1  0  0  0
 15 16  1  0  0  0
 16 17  1  0  0  0
 17 20  1  0  0  0
 17 21  1  0  0  0
M  END
> <minimizedAffinity>
-10.01113

$$$$
