CHEMBL1970340


 20 22  0  0  0  0  0  0  0  0999 V2000
  -28.5429   -4.6149   -7.9650 N   0  0  0  0  0  0  0  0  0  0  0  0
  -28.1529   -3.3364   -7.8096 C   0  0  0  0  0  0  0  0  0  0  0  0
  -27.5087   -2.6823   -8.7784 N   0  0  0  0  0  0  0  0  0  0  0  0
  -27.3193   -1.4029   -8.3084 O   0  0  0  0  0  0  0  0  0  0  0  0
  -27.8297   -1.2986   -7.0558 C   0  0  0  0  0  0  0  0  0  0  0  0
  -27.8170   -0.1280   -6.3053 C   0  0  0  0  0  0  0  0  0  0  0  0
  -28.3827   -0.2032   -5.0380 C   0  0  0  0  0  0  0  0  0  0  0  0
  -28.9084   -1.4080   -4.5650 C   0  0  0  0  0  0  0  0  0  0  0  0
  -28.9149   -2.6016   -5.3371 C   0  0  0  0  0  0  0  0  0  0  0  0
  -28.3597   -2.5159   -6.6524 C   0  0  0  0  0  0  0  0  0  0  0  0
  -28.4127   -5.0423   -8.8753 H   0  0  0  0  0  0  0  0  0  0  0  0
  -29.3064   -5.0094   -7.4286 H   0  0  0  0  0  0  0  0  0  0  0  0
  -29.4805   -3.8519   -4.7766 C   0  0  0  0  0  0  0  0  0  0  0  0
  -30.8718   -4.0160   -4.6109 C   0  0  0  0  0  0  0  0  0  0  0  0
  -31.4201   -5.2008   -4.1025 C   0  0  0  0  0  0  0  0  0  0  0  0
  -30.5917   -6.2723   -3.7863 C   0  0  0  0  0  0  0  0  0  0  0  0
  -29.2200   -6.1236   -3.9285 C   0  0  0  0  0  0  0  0  0  0  0  0
  -28.3640   -7.1542   -3.6752 O   0  0  0  0  0  0  0  0  0  0  0  0
  -28.6683   -4.9186   -4.3604 C   0  0  0  0  0  0  0  0  0  0  0  0
  -28.8836   -7.9547   -3.4952 H   0  0  0  0  0  0  0  0  0  0  0  0
  1  2  1  0  0  0
  1 11  1  0  0  0
  1 12  1  0  0  0
  2  3  2  0  0  0
  2 10  1  0  0  0
  3  4  1  0  0  0
  4  5  1  0  0  0
  5  6  1  0  0  0
  5 10  2  0  0  0
  6  7  2  0  0  0
  7  8  1  0  0  0
  8  9  2  0  0  0
  9 13  1  0  0  0
  9 10  1  0  0  0
 13 14  1  0  0  0
 13 19  2  0  0  0
 14 15  2  0  0  0
 15 16  1  0  0  0
 16 17  2  0  0  0
 17 18  1  0  0  0
 17 19  1  0  0  0
 18 20  1  0  0  0
M  END
> <minimizedAffinity>
-8.11900

$$$$
