CHEMBL379733


 45 49  0  0  0  0  0  0  0  0999 V2000
  -27.2522  -10.4692   -7.9335 C   0  0  0  0  0  0  0  0  0  0  0  0
  -27.4266  -11.0662   -9.1691 C   0  0  0  0  0  0  0  0  0  0  0  0
  -27.8891  -10.2523  -10.1646 C   0  0  0  0  0  0  0  0  0  0  0  0
  -28.0846   -8.9417   -9.9943 N   0  0  0  0  0  0  0  0  0  0  0  0
  -27.8525   -8.4285   -8.7753 C   0  0  0  0  0  0  0  0  0  0  0  0
  -27.5177   -9.1629   -7.7122 N   0  0  0  0  0  0  0  0  0  0  0  0
  -26.7643  -11.2705   -6.8677 N   0  0  0  0  0  0  0  0  0  0  0  0
  -27.6378  -11.9317   -6.0016 C   0  0  0  0  0  0  0  0  0  0  0  0
  -27.3166  -12.4657   -4.9451 O   0  0  0  0  0  0  0  0  0  0  0  0
  -22.5578  -10.6888   -6.5592 C   0  0  0  0  0  0  0  0  0  0  0  0
  -23.0767  -11.7469   -7.3064 C   0  0  0  0  0  0  0  0  0  0  0  0
  -24.4639  -12.0019   -7.3397 C   0  0  0  0  0  0  0  0  0  0  0  0
  -25.3504  -11.1889   -6.6265 C   0  0  0  0  0  0  0  0  0  0  0  0
  -24.8032  -10.2000   -5.7846 C   0  0  0  0  0  0  0  0  0  0  0  0
  -23.4316   -9.9215   -5.7932 C   0  0  0  0  0  0  0  0  0  0  0  0
  -20.6167   -9.8544   -7.6756 C   0  0  0  0  0  0  0  0  0  0  0  0
  -21.2480  -10.3078   -6.4846 O   0  0  0  0  0  0  0  0  0  0  0  0
  -25.5491   -9.4855   -4.8779 O   0  0  0  0  0  0  0  0  0  0  0  0
  -25.1447   -9.7740   -3.5339 C   0  0  0  0  0  0  0  0  0  0  0  0
  -28.9606  -11.9817   -6.5170 O   0  0  0  0  0  0  0  0  0  0  0  0
  -30.0303  -11.0317   -6.6981 C   0  0  0  0  0  0  0  0  0  0  0  0
  -30.8718  -11.0707   -7.8208 C   0  0  0  0  0  0  0  0  0  0  0  0
  -31.0627  -12.2459   -8.7283 C   0  0  0  0  0  0  0  0  0  0  0  0
  -31.5736   -9.9006   -8.1611 C   0  0  0  0  0  0  0  0  0  0  0  0
  -31.5021   -8.7529   -7.3746 C   0  0  0  0  0  0  0  0  0  0  0  0
  -30.7468   -8.7641   -6.2094 C   0  0  0  0  0  0  0  0  0  0  0  0
  -29.9936   -9.8956   -5.8564 C   0  0  0  0  0  0  0  0  0  0  0  0
  -29.2085   -9.8596   -4.5764 C   0  0  0  0  0  0  0  0  0  0  0  0
  -27.9310   -7.0479   -8.6165 N   0  0  0  0  0  0  0  0  0  0  0  0
  -27.8692   -6.5533   -9.4936 H   0  0  0  0  0  0  0  0  0  0  0  0
  -28.5761   -6.3779   -7.5649 C   0  0  0  0  0  0  0  0  0  0  0  0
  -29.5026   -5.3795   -7.8613 C   0  0  0  0  0  0  0  0  0  0  0  0
  -30.0334   -4.5787   -6.8455 C   0  0  0  0  0  0  0  0  0  0  0  0
  -29.6589   -4.7753   -5.5121 C   0  0  0  0  0  0  0  0  0  0  0  0
  -28.7829   -5.8071   -5.1995 C   0  0  0  0  0  0  0  0  0  0  0  0
  -28.2464   -6.5967   -6.2167 C   0  0  0  0  0  0  0  0  0  0  0  0
  -30.0724   -4.0233   -4.4432 O   0  0  0  0  0  0  0  0  0  0  0  0
  -29.0175   -3.3609   -3.7469 C   0  0  0  0  0  0  0  0  0  0  0  0
  -27.8507   -3.0727   -4.6977 C   0  0  0  0  0  0  0  0  0  0  0  0
  -27.8188   -1.6667   -5.1528 N   0  0  0  0  0  0  0  0  0  0  0  0
  -27.8824   -1.6141   -6.6217 C   0  0  0  0  0  0  0  0  0  0  0  0
  -27.7778   -0.1752   -7.1298 C   0  0  0  0  0  0  0  0  0  0  0  0
  -28.8509    0.7128   -6.5115 C   0  0  0  0  0  0  0  0  0  0  0  0
  -28.8234    0.5952   -4.9958 C   0  0  0  0  0  0  0  0  0  0  0  0
  -28.8977   -0.8644   -4.5531 C   0  0  0  0  0  0  0  0  0  0  0  0
 16 17  1  0  0  0
 17 10  1  0  0  0
 10 11  1  0  0  0
 10 15  2  0  0  0
 11 12  2  0  0  0
 12 13  1  0  0  0
 13  7  1  0  0  0
 13 14  2  0  0  0
  7  8  1  0  0  0
  7  1  1  0  0  0
  8  9  2  0  0  0
  8 20  1  0  0  0
 20 21  1  0  0  0
 21 22  1  0  0  0
 21 27  2  0  0  0
 22 23  1  0  0  0
 22 24  2  0  0  0
 24 25  1  0  0  0
 25 26  2  0  0  0
 26 27  1  0  0  0
 27 28  1  0  0  0
  1  2  1  0  0  0
  1  6  2  0  0  0
  2  3  2  0  0  0
  3  4  1  0  0  0
  4  5  2  0  0  0
  5 29  1  0  0  0
  5  6  1  0  0  0
 29 31  1  0  0  0
 29 30  1  0  0  0
 31 32  1  0  0  0
 31 36  2  0  0  0
 32 33  2  0  0  0
 33 34  1  0  0  0
 34 37  1  0  0  0
 34 35  2  0  0  0
 37 38  1  0  0  0
 38 39  1  0  0  0
 39 40  1  0  0  0
 40 41  1  0  0  0
 40 45  1  0  0  0
 41 42  1  0  0  0
 42 43  1  0  0  0
 43 44  1  0  0  0
 44 45  1  0  0  0
 35 36  1  0  0  0
 14 18  1  0  0  0
 14 15  1  0  0  0
 18 19  1  0  0  0
M  END
> <minimizedAffinity>
-7.91898

$$$$
