CHEMBL1682349


 23 26  0  0  0  0  0  0  0  0999 V2000
  -21.0340    1.8123  -14.3463 N   0  0  0  0  0  0  0  0  0  0  0  0
  -22.2571    1.6673  -13.7599 C   0  0  0  0  0  0  0  0  0  0  0  0
  -22.5938    0.3579  -14.0228 C   0  0  0  0  0  0  0  0  0  0  0  0
  -21.5906   -0.2280  -14.7517 N   0  0  0  0  0  0  0  0  0  0  0  0
  -20.6510    0.6829  -14.9701 N   0  0  0  0  0  0  0  0  0  0  0  0
  -23.7978   -0.3260  -13.5936 C   0  0  0  0  0  0  0  0  0  0  0  0
  -24.6467   -0.9402  -14.5270 C   0  0  0  0  0  0  0  0  0  0  0  0
  -25.8152   -1.6064  -14.1365 C   0  0  0  0  0  0  0  0  0  0  0  0
  -26.1106   -1.6159  -12.7723 C   0  0  0  0  0  0  0  0  0  0  0  0
  -27.1602   -2.1497  -12.0714 N   0  0  0  0  0  0  0  0  0  0  0  0
  -27.0977   -1.9426  -10.7444 N   0  0  0  0  0  0  0  0  0  0  0  0
  -25.9607   -1.2576  -10.5921 C   0  0  0  0  0  0  0  0  0  0  0  0
  -25.2961   -1.0213  -11.8163 C   0  0  0  0  0  0  0  0  0  0  0  0
  -24.1140   -0.3767  -12.2240 C   0  0  0  0  0  0  0  0  0  0  0  0
  -27.9540   -2.6595  -12.4410 H   0  0  0  0  0  0  0  0  0  0  0  0
  -20.1902    2.9927  -14.3637 C   0  0  0  0  0  0  0  0  0  0  0  0
  -14.5282    1.6786  -15.9863 Cl  0  0  0  0  0  0  0  0  0  0  0  0
  -16.1456    2.0446  -15.5307 C   0  0  0  0  0  0  0  0  0  0  0  0
  -16.7215    1.3979  -14.4414 C   0  0  0  0  0  0  0  0  0  0  0  0
  -18.0330    1.7002  -14.0701 C   0  0  0  0  0  0  0  0  0  0  0  0
  -18.7767    2.6569  -14.7797 C   0  0  0  0  0  0  0  0  0  0  0  0
  -18.1844    3.2949  -15.8806 C   0  0  0  0  0  0  0  0  0  0  0  0
  -16.8720    2.9878  -16.2528 C   0  0  0  0  0  0  0  0  0  0  0  0
 17 18  1  0  0  0
 18 19  1  0  0  0
 18 23  2  0  0  0
 19 20  2  0  0  0
 20 21  1  0  0  0
 21 16  1  0  0  0
 21 22  2  0  0  0
 16  1  1  0  0  0
  1  2  1  0  0  0
  1  5  1  0  0  0
  2  3  2  0  0  0
  3  6  1  0  0  0
  3  4  1  0  0  0
  6  7  1  0  0  0
  6 14  2  0  0  0
  7  8  2  0  0  0
  8  9  1  0  0  0
  9 10  1  0  0  0
  9 13  2  0  0  0
 10 11  1  0  0  0
 10 15  1  0  0  0
 11 12  2  0  0  0
 12 13  1  0  0  0
 13 14  1  0  0  0
  4  5  2  0  0  0
 22 23  1  0  0  0
M  END
> <minimizedAffinity>
-8.96649

$$$$
