CHEMBL3656027


 38 41  0  0  0  0  0  0  0  0999 V2000
  -19.7740    1.5521  -15.2079 C   0  0  0  0  0  0  0  0  0  0  0  0
  -20.0630    2.9083  -15.0805 C   0  0  0  0  0  0  0  0  0  0  0  0
  -21.1758    3.2750  -14.3427 C   0  0  0  0  0  0  0  0  0  0  0  0
  -22.0314    2.3941  -13.7779 N   0  0  0  0  0  0  0  0  0  0  0  0
  -21.7624    1.0777  -13.9673 C   0  0  0  0  0  0  0  0  0  0  0  0
  -20.6601    0.6213  -14.6785 C   0  0  0  0  0  0  0  0  0  0  0  0
  -22.7174    0.1568  -13.3616 C   0  0  0  0  0  0  0  0  0  0  0  0
  -24.1030    0.1518  -13.3339 C   0  0  0  0  0  0  0  0  0  0  0  0
  -24.5563   -0.9528  -12.5517 C   0  0  0  0  0  0  0  0  0  0  0  0
  -23.4075   -1.6155  -12.1492 C   0  0  0  0  0  0  0  0  0  0  0  0
  -22.3161   -0.9579  -12.6576 N   0  0  0  0  0  0  0  0  0  0  0  0
  -21.3488   -1.2239  -12.5361 H   0  0  0  0  0  0  0  0  0  0  0  0
  -25.9461   -1.2910  -12.2407 C   0  0  0  0  0  0  0  0  0  0  0  0
  -26.7825   -1.5329  -13.1024 O   0  0  0  0  0  0  0  0  0  0  0  0
  -26.2471   -1.3073  -10.9001 N   0  0  0  0  0  0  0  0  0  0  0  0
  -25.5331   -1.0995  -10.2134 H   0  0  0  0  0  0  0  0  0  0  0  0
  -27.5712   -1.6077  -10.4070 C   0  0  0  0  0  0  0  0  0  0  0  0
  -27.4689   -2.2920   -9.0497 C   0  0  0  0  0  0  0  0  0  0  0  0
  -27.4416   -1.6956   -7.9809 O   0  0  0  0  0  0  0  0  0  0  0  0
  -27.4100   -3.6415   -9.1288 O   0  0  0  0  0  0  0  0  0  0  0  0
  -27.4407   -3.9909  -10.0405 H   0  0  0  0  0  0  0  0  0  0  0  0
  -18.6704    1.0414  -15.8631 O   0  0  0  0  0  0  0  0  0  0  0  0
  -15.8554    0.0698  -13.7142 C   0  0  0  0  0  0  0  0  0  0  0  0
  -14.9181    1.0433  -14.0683 C   0  0  0  0  0  0  0  0  0  0  0  0
  -15.2462    2.0769  -14.9426 C   0  0  0  0  0  0  0  0  0  0  0  0
  -16.5173    2.1382  -15.4961 C   0  0  0  0  0  0  0  0  0  0  0  0
  -17.4288    1.1060  -15.2615 C   0  0  0  0  0  0  0  0  0  0  0  0
  -17.1132    0.0923  -14.3412 C   0  0  0  0  0  0  0  0  0  0  0  0
  -15.1806   -2.2487  -13.0342 C   0  0  0  0  0  0  0  0  0  0  0  0
  -14.9939   -2.7016  -14.1589 O   0  0  0  0  0  0  0  0  0  0  0  0
  -15.5739   -0.9370  -12.7601 N   0  0  0  0  0  0  0  0  0  0  0  0
  -15.5672   -0.6769  -11.7808 H   0  0  0  0  0  0  0  0  0  0  0  0
  -16.7426   -4.9417  -12.0077 C   0  0  0  0  0  0  0  0  0  0  0  0
  -15.6109   -4.2053  -11.3791 C   0  0  0  0  0  0  0  0  0  0  0  0
  -14.9642   -4.5511  -10.1599 C   0  0  0  0  0  0  0  0  0  0  0  0
  -13.9763   -3.6182   -9.9640 C   0  0  0  0  0  0  0  0  0  0  0  0
  -13.9616   -2.7173  -10.9768 O   0  0  0  0  0  0  0  0  0  0  0  0
  -14.9633   -3.0656  -11.8461 C   0  0  0  0  0  0  0  0  0  0  0  0
 33 34  1  0  0  0
 34 35  1  0  0  0
 34 38  2  0  0  0
 35 36  2  0  0  0
 36 37  1  0  0  0
 37 38  1  0  0  0
 38 29  1  0  0  0
 29 30  2  0  0  0
 29 31  1  0  0  0
 31 23  1  0  0  0
 31 32  1  0  0  0
 23 24  1  0  0  0
 23 28  2  0  0  0
 24 25  2  0  0  0
 25 26  1  0  0  0
 26 27  2  0  0  0
 27 22  1  0  0  0
 27 28  1  0  0  0
 22  1  1  0  0  0
  1  2  1  0  0  0
  1  6  2  0  0  0
  2  3  2  0  0  0
  3  4  1  0  0  0
  4  5  2  0  0  0
  5  7  1  0  0  0
  5  6  1  0  0  0
  7  8  2  0  0  0
  7 11  1  0  0  0
  8  9  1  0  0  0
  9 13  1  0  0  0
  9 10  2  0  0  0
 13 14  2  0  0  0
 13 15  1  0  0  0
 15 17  1  0  0  0
 15 16  1  0  0  0
 17 18  1  0  0  0
 18 19  2  0  0  0
 18 20  1  0  0  0
 20 21  1  0  0  0
 10 11  1  0  0  0
 11 12  1  0  0  0
M  END
> <minimizedAffinity>
-9.47316

$$$$
