CHEMBL396788


 19 21  0  0  0  0  0  0  0  0999 V2000
  -28.9427   -4.6701   -7.5032 C   0  0  0  0  0  0  0  0  0  0  0  0
  -29.1613   -3.7572   -6.3404 C   0  0  0  0  0  0  0  0  0  0  0  0
  -28.5547   -2.4810   -6.3922 C   0  0  0  0  0  0  0  0  0  0  0  0
  -28.7224   -1.5335   -5.3728 C   0  0  0  0  0  0  0  0  0  0  0  0
  -29.5068   -1.8323   -4.2684 C   0  0  0  0  0  0  0  0  0  0  0  0
  -30.0888   -3.0862   -4.2220 C   0  0  0  0  0  0  0  0  0  0  0  0
  -29.9259   -4.0736   -5.2178 C   0  0  0  0  0  0  0  0  0  0  0  0
  -30.7169   -5.2274   -4.7295 C   0  0  0  0  0  0  0  0  0  0  0  0
  -30.9639   -6.4982   -5.0845 C   0  0  0  0  0  0  0  0  0  0  0  0
  -31.3662   -4.8055   -3.4273 C   0  0  0  0  0  0  0  0  0  0  0  0
  -32.1044   -5.4555   -2.7105 O   0  0  0  0  0  0  0  0  0  0  0  0
  -30.9195   -3.5229   -3.1976 N   0  0  0  0  0  0  0  0  0  0  0  0
  -31.1899   -2.9898   -2.3867 H   0  0  0  0  0  0  0  0  0  0  0  0
  -30.4182   -7.1829   -6.1875 C   0  0  0  0  0  0  0  0  0  0  0  0
  -30.9125   -7.5599   -7.4193 C   0  0  0  0  0  0  0  0  0  0  0  0
  -29.9204   -8.3464   -8.0554 C   0  0  0  0  0  0  0  0  0  0  0  0
  -28.8639   -8.4601   -7.1797 C   0  0  0  0  0  0  0  0  0  0  0  0
  -29.1737   -7.7488   -6.0484 N   0  0  0  0  0  0  0  0  0  0  0  0
  -28.5827   -7.6641   -5.2313 H   0  0  0  0  0  0  0  0  0  0  0  0
  1  2  1  0  0  0
  2  3  1  0  0  0
  2  7  2  0  0  0
  3  4  2  0  0  0
  4  5  1  0  0  0
  5  6  2  0  0  0
  6  7  1  0  0  0
  6 12  1  0  0  0
  7  8  1  0  0  0
  8  9  2  0  0  0
  8 10  1  0  0  0
  9 14  1  0  0  0
 14 15  2  0  0  0
 14 18  1  0  0  0
 15 16  1  0  0  0
 16 17  2  0  0  0
 17 18  1  0  0  0
 18 19  1  0  0  0
 10 11  2  0  0  0
 10 12  1  0  0  0
 12 13  1  0  0  0
M  END
> <minimizedAffinity>
-7.20147

$$$$
