CHEMBL3671527


 40 42  0  0  0  0  0  0  0  0999 V2000
  -13.7971   -3.5576  -12.6429 C   0  0  0  0  0  0  0  0  0  0  0  0
  -14.0767   -2.3328  -13.2504 C   0  0  0  0  0  0  0  0  0  0  0  0
  -13.6501   -2.0822  -14.5689 C   0  0  0  0  0  0  0  0  0  0  0  0
  -13.7192   -0.8382  -15.2063 C   0  0  0  0  0  0  0  0  0  0  0  0
  -13.2718   -0.6599  -16.4628 N   0  0  0  0  0  0  0  0  0  0  0  0
  -12.7152   -1.7091  -17.0702 C   0  0  0  0  0  0  0  0  0  0  0  0
  -12.5497   -2.9222  -16.5370 N   0  0  0  0  0  0  0  0  0  0  0  0
  -13.0039   -3.1010  -15.2932 C   0  0  0  0  0  0  0  0  0  0  0  0
  -12.7945   -4.3350  -14.6877 C   0  0  0  0  0  0  0  0  0  0  0  0
  -13.1996   -4.5917  -13.3754 C   0  0  0  0  0  0  0  0  0  0  0  0
  -15.1009   -4.1105  -10.6522 C   0  0  0  0  0  0  0  0  0  0  0  0
  -15.0896   -4.4895   -9.4850 O   0  0  0  0  0  0  0  0  0  0  0  0
  -13.9499   -3.6450  -11.2474 N   0  0  0  0  0  0  0  0  0  0  0  0
  -13.1450   -3.9743  -10.7237 H   0  0  0  0  0  0  0  0  0  0  0  0
  -16.7215   -5.3632  -11.9805 C   0  0  0  0  0  0  0  0  0  0  0  0
  -16.3244   -4.1800  -11.4962 C   0  0  0  0  0  0  0  0  0  0  0  0
  -14.1894    0.3005  -14.4950 N   0  0  0  0  0  0  0  0  0  0  0  0
  -14.0663    0.1824  -13.4914 H   0  0  0  0  0  0  0  0  0  0  0  0
  -15.4029    0.9580  -14.8161 C   0  0  0  0  0  0  0  0  0  0  0  0
  -16.6336    0.3730  -14.4912 C   0  0  0  0  0  0  0  0  0  0  0  0
  -17.8231    1.0815  -14.6414 C   0  0  0  0  0  0  0  0  0  0  0  0
  -17.8010    2.3791  -15.1563 C   0  0  0  0  0  0  0  0  0  0  0  0
  -19.4542    3.3140  -15.2056 Br  0  0  0  0  0  0  0  0  0  0  0  0
  -16.5919    2.9455  -15.5770 C   0  0  0  0  0  0  0  0  0  0  0  0
  -16.5071    4.5264  -16.2710 Cl  0  0  0  0  0  0  0  0  0  0  0  0
  -15.4047    2.2240  -15.4108 C   0  0  0  0  0  0  0  0  0  0  0  0
  -14.2280    2.7581  -15.7839 F   0  0  0  0  0  0  0  0  0  0  0  0
  -12.9078   -5.8542  -12.9151 O   0  0  0  0  0  0  0  0  0  0  0  0
  -13.6437   -6.9058  -13.5502 C   0  0  0  0  0  0  0  0  0  0  0  0
  -12.7163   -7.8567  -14.3114 C   0  0  0  0  0  0  0  0  0  0  0  0
  -13.4870   -8.9038  -14.9720 N   0  0  0  0  0  0  0  0  0  0  0  0
  -13.0500   -9.3943  -16.1748 C   0  0  0  0  0  0  0  0  0  0  0  0
  -12.0061   -9.0217  -16.7002 O   0  0  0  0  0  0  0  0  0  0  0  0
  -13.9226  -10.2960  -16.7239 N   0  0  0  0  0  0  0  0  0  0  0  0
  -14.0623   -9.5132  -14.4091 H   0  0  0  0  0  0  0  0  0  0  0  0
  -14.8776  -10.2277  -16.4036 H   0  0  0  0  0  0  0  0  0  0  0  0
  -13.6827  -10.9532  -18.0228 C   0  0  0  0  0  0  0  0  0  0  0  0
  -12.3646  -11.7433  -17.9678 C   0  0  0  0  0  0  0  0  0  0  0  0
  -14.8259  -11.9461  -18.3073 C   0  0  0  0  0  0  0  0  0  0  0  0
  -13.6493   -9.9374  -19.1799 C   0  0  0  0  0  0  0  0  0  0  0  0
 15 16  2  0  0  0
 16 11  1  0  0  0
 11 12  2  0  0  0
 11 13  1  0  0  0
 13  1  1  0  0  0
 13 14  1  0  0  0
  1  2  1  0  0  0
  1 10  2  0  0  0
  2  3  2  0  0  0
  3  4  1  0  0  0
  3  8  1  0  0  0
  4 17  1  0  0  0
  4  5  2  0  0  0
 17 19  1  0  0  0
 17 18  1  0  0  0
 19 20  1  0  0  0
 19 26  2  0  0  0
 20 21  2  0  0  0
 21 22  1  0  0  0
 22 23  1  0  0  0
 22 24  2  0  0  0
 24 25  1  0  0  0
 24 26  1  0  0  0
 26 27  1  0  0  0
  5  6  1  0  0  0
  6  7  2  0  0  0
  7  8  1  0  0  0
  8  9  2  0  0  0
  9 10  1  0  0  0
 10 28  1  0  0  0
 28 29  1  0  0  0
 29 30  1  0  0  0
 30 31  1  0  0  0
 31 32  1  0  0  0
 31 35  1  0  0  0
 32 33  2  0  0  0
 32 34  1  0  0  0
 34 37  1  0  0  0
 34 36  1  0  0  0
 37 38  1  0  0  0
 37 39  1  0  0  0
 37 40  1  0  0  0
M  END
> <minimizedAffinity>
-8.06874

$$$$
