CHEMBL1971017


 21 23  0  0  0  0  0  0  0  0999 V2000
  -29.1883   -6.2527   -6.9831 C   0  0  0  0  0  0  0  0  0  0  0  0
  -28.9789   -4.9960   -6.4458 C   0  0  0  0  0  0  0  0  0  0  0  0
  -29.8462   -4.6689   -5.3395 C   0  0  0  0  0  0  0  0  0  0  0  0
  -30.0235   -3.4794   -4.5721 C   0  0  0  0  0  0  0  0  0  0  0  0
  -30.9510   -3.5782   -3.5247 C   0  0  0  0  0  0  0  0  0  0  0  0
  -31.6670   -4.6719   -3.1952 N   0  0  0  0  0  0  0  0  0  0  0  0
  -31.5147   -5.7812   -3.9401 C   0  0  0  0  0  0  0  0  0  0  0  0
  -30.6237   -5.7891   -5.0136 C   0  0  0  0  0  0  0  0  0  0  0  0
  -30.3468   -7.1097   -6.0801 S   0  0  0  0  0  0  0  0  0  0  0  0
  -29.3236   -2.2075   -4.8598 C   0  0  0  0  0  0  0  0  0  0  0  0
  -27.9218   -2.1049   -4.7236 C   0  0  0  0  0  0  0  0  0  0  0  0
  -27.2470   -0.8903   -4.9037 C   0  0  0  0  0  0  0  0  0  0  0  0
  -27.9580    0.2505   -5.2544 C   0  0  0  0  0  0  0  0  0  0  0  0
  -29.3329    0.1667   -5.4103 C   0  0  0  0  0  0  0  0  0  0  0  0
  -30.0243    1.2622   -5.7508 F   0  0  0  0  0  0  0  0  0  0  0  0
  -30.0137   -1.0328   -5.2018 C   0  0  0  0  0  0  0  0  0  0  0  0
  -27.5783   -6.0521   -8.7622 N   0  0  0  0  0  0  0  0  0  0  0  0
  -28.5360   -6.8177   -8.1518 C   0  0  0  0  0  0  0  0  0  0  0  0
  -28.7803   -7.9358   -8.5979 O   0  0  0  0  0  0  0  0  0  0  0  0
  -27.0883   -6.4496   -9.5493 H   0  0  0  0  0  0  0  0  0  0  0  0
  -27.3134   -5.1459   -8.4080 H   0  0  0  0  0  0  0  0  0  0  0  0
 17 18  1  0  0  0
 17 20  1  0  0  0
 17 21  1  0  0  0
 18 19  2  0  0  0
 18  1  1  0  0  0
  1  2  2  0  0  0
  1  9  1  0  0  0
  2  3  1  0  0  0
  3  4  1  0  0  0
  3  8  2  0  0  0
  4 10  1  0  0  0
  4  5  2  0  0  0
 10 11  1  0  0  0
 10 16  2  0  0  0
 11 12  2  0  0  0
 12 13  1  0  0  0
 13 14  2  0  0  0
 14 15  1  0  0  0
 14 16  1  0  0  0
  5  6  1  0  0  0
  6  7  2  0  0  0
  7  8  1  0  0  0
  8  9  1  0  0  0
M  END
> <minimizedAffinity>
-8.20735

$$$$
