CHEMBL230520


 24 26  0  0  0  0  0  0  0  0999 V2000
  -14.9278   -6.8809  -12.8730 C   0  0  0  0  0  0  0  0  0  0  0  0
  -14.9679   -6.2164  -11.6297 C   0  0  0  0  0  0  0  0  0  0  0  0
  -15.2010   -4.8560  -11.5134 C   0  0  0  0  0  0  0  0  0  0  0  0
  -15.2825   -4.3220  -10.2890 N   0  0  0  0  0  0  0  0  0  0  0  0
  -15.5444   -3.0095  -10.2301 C   0  0  0  0  0  0  0  0  0  0  0  0
  -15.7363   -2.2017  -11.2696 N   0  0  0  0  0  0  0  0  0  0  0  0
  -15.6581   -2.7540  -12.4980 C   0  0  0  0  0  0  0  0  0  0  0  0
  -15.3647   -4.1114  -12.6784 C   0  0  0  0  0  0  0  0  0  0  0  0
  -15.2285   -4.7461  -13.9323 C   0  0  0  0  0  0  0  0  0  0  0  0
  -15.0240   -6.1246  -14.0458 C   0  0  0  0  0  0  0  0  0  0  0  0
  -13.7338   -8.8069  -12.1754 C   0  0  0  0  0  0  0  0  0  0  0  0
  -14.7968   -8.2430  -12.9491 O   0  0  0  0  0  0  0  0  0  0  0  0
  -15.9071   -1.9427  -13.6374 N   0  0  0  0  0  0  0  0  0  0  0  0
  -16.9089   -1.8172  -13.7396 H   0  0  0  0  0  0  0  0  0  0  0  0
  -15.1778   -0.7713  -13.9577 C   0  0  0  0  0  0  0  0  0  0  0  0
  -13.7873   -0.7656  -13.7658 C   0  0  0  0  0  0  0  0  0  0  0  0
  -13.0305    0.3836  -13.9777 C   0  0  0  0  0  0  0  0  0  0  0  0
  -13.6524    1.5570  -14.3959 C   0  0  0  0  0  0  0  0  0  0  0  0
  -12.8651    2.8228  -14.5492 C   0  0  0  0  0  0  0  0  0  0  0  0
  -15.0301    1.5472  -14.6535 C   0  0  0  0  0  0  0  0  0  0  0  0
  -15.8039    0.3903  -14.4490 C   0  0  0  0  0  0  0  0  0  0  0  0
  -17.2835    0.4511  -14.7130 C   0  0  0  0  0  0  0  0  0  0  0  0
  -14.9967   -6.5036  -15.3547 O   0  0  0  0  0  0  0  0  0  0  0  0
  -13.7826   -6.8252  -16.0048 C   0  0  0  0  0  0  0  0  0  0  0  0
 11 12  1  0  0  0
 12  1  1  0  0  0
  1  2  1  0  0  0
  1 10  2  0  0  0
  2  3  2  0  0  0
  3  4  1  0  0  0
  3  8  1  0  0  0
  4  5  2  0  0  0
  5  6  1  0  0  0
  6  7  2  0  0  0
  7 13  1  0  0  0
  7  8  1  0  0  0
 13 15  1  0  0  0
 13 14  1  0  0  0
 15 16  1  0  0  0
 15 21  2  0  0  0
 16 17  2  0  0  0
 17 18  1  0  0  0
 18 19  1  0  0  0
 18 20  2  0  0  0
 20 21  1  0  0  0
 21 22  1  0  0  0
  8  9  2  0  0  0
  9 10  1  0  0  0
 10 23  1  0  0  0
 23 24  1  0  0  0
M  END
> <minimizedAffinity>
-6.93137

$$$$
