CHEMBL233875


 26 29  0  0  0  0  0  0  0  0999 V2000
  -14.0030   -0.3007  -13.8640 C   0  0  0  0  0  0  0  0  0  0  0  0
  -13.9036    0.8812  -14.5688 C   0  0  0  0  0  0  0  0  0  0  0  0
  -14.9497    1.5237  -15.1237 N   0  0  0  0  0  0  0  0  0  0  0  0
  -16.1510    0.9542  -14.9836 C   0  0  0  0  0  0  0  0  0  0  0  0
  -16.3472   -0.1781  -14.2781 N   0  0  0  0  0  0  0  0  0  0  0  0
  -15.2819   -0.8073  -13.7120 C   0  0  0  0  0  0  0  0  0  0  0  0
  -15.6500   -2.0411  -12.9632 C   0  0  0  0  0  0  0  0  0  0  0  0
  -16.0042   -3.2214  -13.6518 C   0  0  0  0  0  0  0  0  0  0  0  0
  -16.3786   -4.3885  -12.9750 C   0  0  0  0  0  0  0  0  0  0  0  0
  -16.3881   -4.4136  -11.5857 C   0  0  0  0  0  0  0  0  0  0  0  0
  -16.0468   -3.2673  -10.8780 C   0  0  0  0  0  0  0  0  0  0  0  0
  -15.7044   -2.0929  -11.5580 C   0  0  0  0  0  0  0  0  0  0  0  0
  -11.8540   -1.4127  -12.9591 N   0  0  0  0  0  0  0  0  0  0  0  0
  -12.8142   -0.9153  -13.3830 C   0  0  0  0  0  0  0  0  0  0  0  0
  -17.2099    1.5650  -15.6541 N   0  0  0  0  0  0  0  0  0  0  0  0
  -17.0886    1.4893  -16.6543 H   0  0  0  0  0  0  0  0  0  0  0  0
  -18.4615    1.7009  -15.1770 C   0  0  0  0  0  0  0  0  0  0  0  0
  -19.0986    2.8142  -14.8942 N   0  0  0  0  0  0  0  0  0  0  0  0
  -20.3755    2.4263  -14.5518 C   0  0  0  0  0  0  0  0  0  0  0  0
  -21.4947    3.2016  -14.2152 C   0  0  0  0  0  0  0  0  0  0  0  0
  -22.7010    2.5475  -13.9258 C   0  0  0  0  0  0  0  0  0  0  0  0
  -22.7910    1.1527  -13.9655 C   0  0  0  0  0  0  0  0  0  0  0  0
  -21.6855    0.3630  -14.2963 C   0  0  0  0  0  0  0  0  0  0  0  0
  -20.5018    1.0425  -14.5816 C   0  0  0  0  0  0  0  0  0  0  0  0
  -19.2589    0.6105  -14.9433 N   0  0  0  0  0  0  0  0  0  0  0  0
  -18.9606   -0.3411  -15.1009 H   0  0  0  0  0  0  0  0  0  0  0  0
 13 14  3  0  0  0
 14  1  1  0  0  0
  1  2  1  0  0  0
  1  6  2  0  0  0
  2  3  2  0  0  0
  3  4  1  0  0  0
  4 15  1  0  0  0
  4  5  2  0  0  0
 15 17  1  0  0  0
 15 16  1  0  0  0
 17 18  2  0  0  0
 17 25  1  0  0  0
 18 19  1  0  0  0
 19 20  1  0  0  0
 19 24  2  0  0  0
 20 21  2  0  0  0
 21 22  1  0  0  0
 22 23  2  0  0  0
 23 24  1  0  0  0
 24 25  1  0  0  0
 25 26  1  0  0  0
  5  6  1  0  0  0
  6  7  1  0  0  0
  7  8  1  0  0  0
  7 12  2  0  0  0
  8  9  2  0  0  0
  9 10  1  0  0  0
 10 11  2  0  0  0
 11 12  1  0  0  0
M  END
> <minimizedAffinity>
-8.60164

$$$$
