CHEMBL2377476


 17 19  0  0  0  0  0  0  0  0999 V2000
  -17.4881    2.2701  -15.6361 C   0  0  0  0  0  0  0  0  0  0  0  0
  -16.6203    1.1982  -15.8464 C   0  0  0  0  0  0  0  0  0  0  0  0
  -15.3836    1.5954  -16.2890 C   0  0  0  0  0  0  0  0  0  0  0  0
  -14.3605    0.7549  -16.5722 N   0  0  0  0  0  0  0  0  0  0  0  0
  -13.1950    1.2508  -16.9964 N   0  0  0  0  0  0  0  0  0  0  0  0
  -13.0147    2.5678  -17.1463 N   0  0  0  0  0  0  0  0  0  0  0  0
  -14.0143    3.4495  -16.8754 C   0  0  0  0  0  0  0  0  0  0  0  0
  -13.7390    5.1705  -17.0804 Cl  0  0  0  0  0  0  0  0  0  0  0  0
  -15.2360    2.9491  -16.4356 C   0  0  0  0  0  0  0  0  0  0  0  0
  -16.7185    3.8999  -16.0147 Se  0  0  0  0  0  0  0  0  0  0  0  0
  -22.9679    1.6682  -13.7613 C   0  0  0  0  0  0  0  0  0  0  0  0
  -21.5623    1.8395  -14.2547 C   0  0  0  0  0  0  0  0  0  0  0  0
  -20.9616    3.1041  -14.2867 C   0  0  0  0  0  0  0  0  0  0  0  0
  -19.6460    3.2512  -14.7341 C   0  0  0  0  0  0  0  0  0  0  0  0
  -18.9000    2.1336  -15.1654 C   0  0  0  0  0  0  0  0  0  0  0  0
  -19.5216    0.8681  -15.1379 C   0  0  0  0  0  0  0  0  0  0  0  0
  -20.8355    0.7241  -14.6852 C   0  0  0  0  0  0  0  0  0  0  0  0
 11 12  1  0  0  0
 12 13  1  0  0  0
 12 17  2  0  0  0
 13 14  2  0  0  0
 14 15  1  0  0  0
 15  1  1  0  0  0
 15 16  2  0  0  0
  1  2  2  0  0  0
  1 10  1  0  0  0
  2  3  1  0  0  0
  3  4  1  0  0  0
  3  9  2  0  0  0
  4  5  2  0  0  0
  5  6  1  0  0  0
  6  7  2  0  0  0
  7  8  1  0  0  0
  7  9  1  0  0  0
  9 10  1  0  0  0
 16 17  1  0  0  0
M  END
> <minimizedAffinity>
-7.35134

$$$$
