CHEMBL1967998


 35 39  0  0  0  0  0  0  0  0999 V2000
  -25.9947   -1.2668  -11.0909 C   0  0  0  0  0  0  0  0  0  0  0  0
  -27.1005   -1.4242  -11.8290 N   0  0  0  0  0  0  0  0  0  0  0  0
  -26.9202   -1.4538  -13.1697 C   0  0  0  0  0  0  0  0  0  0  0  0
  -25.6958   -1.3504  -13.7942 C   0  0  0  0  0  0  0  0  0  0  0  0
  -25.5596   -1.4737  -15.5012 Cl  0  0  0  0  0  0  0  0  0  0  0  0
  -24.6191   -1.1235  -12.9604 C   0  0  0  0  0  0  0  0  0  0  0  0
  -24.7907   -1.0502  -11.6348 N   0  0  0  0  0  0  0  0  0  0  0  0
  -26.1021   -1.3746   -9.7081 N   0  0  0  0  0  0  0  0  0  0  0  0
  -25.4534   -0.7778   -9.2247 H   0  0  0  0  0  0  0  0  0  0  0  0
  -28.9558   -3.3045   -7.2061 C   0  0  0  0  0  0  0  0  0  0  0  0
  -28.5897   -1.9675   -7.0144 C   0  0  0  0  0  0  0  0  0  0  0  0
  -27.6761   -1.3229   -7.8652 C   0  0  0  0  0  0  0  0  0  0  0  0
  -27.1126   -1.9927   -8.9504 C   0  0  0  0  0  0  0  0  0  0  0  0
  -27.5165   -3.3169   -9.1616 C   0  0  0  0  0  0  0  0  0  0  0  0
  -28.4086   -3.9613   -8.3059 C   0  0  0  0  0  0  0  0  0  0  0  0
  -30.1826   -5.6802   -3.9912 N   0  0  0  0  0  0  0  0  0  0  0  0
  -29.8603   -4.2311   -3.8949 C   0  0  0  0  0  0  0  0  0  0  0  0
  -30.2948   -3.3888   -5.1151 C   0  0  0  0  0  0  0  0  0  0  0  0
  -29.8205   -3.9779   -6.3692 N   0  0  0  0  0  0  0  0  0  0  0  0
  -29.9732   -5.4359   -6.5295 C   0  0  0  0  0  0  0  0  0  0  0  0
  -29.5564   -6.1815   -5.2393 C   0  0  0  0  0  0  0  0  0  0  0  0
  -32.3208   -5.2642   -2.7355 C   0  0  0  0  0  0  0  0  0  0  0  0
  -31.6417   -5.8782   -3.9534 C   0  0  0  0  0  0  0  0  0  0  0  0
  -23.3044   -1.0019  -13.4548 N   0  0  0  0  0  0  0  0  0  0  0  0
  -22.7282   -1.7798  -13.1554 H   0  0  0  0  0  0  0  0  0  0  0  0
  -22.5903    0.2022  -13.6704 C   0  0  0  0  0  0  0  0  0  0  0  0
  -23.2085    1.4497  -13.4855 C   0  0  0  0  0  0  0  0  0  0  0  0
  -22.6213    2.6482  -13.9099 C   0  0  0  0  0  0  0  0  0  0  0  0
  -21.3660    2.5533  -14.5081 C   0  0  0  0  0  0  0  0  0  0  0  0
  -20.5704    3.4909  -15.1115 N   0  0  0  0  0  0  0  0  0  0  0  0
  -19.3683    3.0239  -15.4948 N   0  0  0  0  0  0  0  0  0  0  0  0
  -19.4300    1.7255  -15.1842 C   0  0  0  0  0  0  0  0  0  0  0  0
  -20.6706    1.3562  -14.6171 C   0  0  0  0  0  0  0  0  0  0  0  0
  -21.2878    0.1600  -14.1994 C   0  0  0  0  0  0  0  0  0  0  0  0
  -20.7971    4.4593  -15.3064 H   0  0  0  0  0  0  0  0  0  0  0  0
 22 23  1  0  0  0
 23 16  1  0  0  0
 16 17  1  0  0  0
 16 21  1  0  0  0
 17 18  1  0  0  0
 18 19  1  0  0  0
 19 10  1  0  0  0
 19 20  1  0  0  0
 10 11  1  0  0  0
 10 15  2  0  0  0
 11 12  2  0  0  0
 12 13  1  0  0  0
 13  8  1  0  0  0
 13 14  2  0  0  0
  8  1  1  0  0  0
  8  9  1  0  0  0
  1  2  1  0  0  0
  1  7  2  0  0  0
  2  3  2  0  0  0
  3  4  1  0  0  0
  4  5  1  0  0  0
  4  6  2  0  0  0
  6 24  1  0  0  0
  6  7  1  0  0  0
 24 26  1  0  0  0
 24 25  1  0  0  0
 26 27  1  0  0  0
 26 34  2  0  0  0
 27 28  2  0  0  0
 28 29  1  0  0  0
 29 30  1  0  0  0
 29 33  2  0  0  0
 30 31  1  0  0  0
 30 35  1  0  0  0
 31 32  2  0  0  0
 32 33  1  0  0  0
 33 34  1  0  0  0
 14 15  1  0  0  0
 20 21  1  0  0  0
M  END
> <minimizedAffinity>
-9.39074

$$$$
