CHEMBL4060996


 28 31  0  0  0  0  0  0  0  0999 V2000
  -30.5854   -6.2847   -5.5993 C   0  0  0  0  0  0  0  0  0  0  0  0
  -31.4236   -6.3085   -4.5111 N   0  0  0  0  0  0  0  0  0  0  0  0
  -31.4497   -5.3428   -3.5465 C   0  0  0  0  0  0  0  0  0  0  0  0
  -32.3899   -5.4475   -2.3888 C   0  0  0  0  0  0  0  0  0  0  0  0
  -30.6226   -4.2752   -3.6344 N   0  0  0  0  0  0  0  0  0  0  0  0
  -29.7913   -4.1845   -4.6937 C   0  0  0  0  0  0  0  0  0  0  0  0
  -28.9326   -3.1548   -4.9819 C   0  0  0  0  0  0  0  0  0  0  0  0
  -28.3533   -3.4840   -6.1811 C   0  0  0  0  0  0  0  0  0  0  0  0
  -28.8061   -4.6828   -6.6230 N   0  0  0  0  0  0  0  0  0  0  0  0
  -28.3296   -5.2110   -7.8933 C   0  0  0  0  0  0  0  0  0  0  0  0
  -29.7123   -5.1379   -5.6985 C   0  0  0  0  0  0  0  0  0  0  0  0
  -30.6672   -7.4248   -6.4881 N   0  0  0  0  0  0  0  0  0  0  0  0
  -31.8235   -7.6077   -7.3582 C   0  0  0  0  0  0  0  0  0  0  0  0
  -27.2344   -9.9408   -7.0481 C   0  0  0  0  0  0  0  0  0  0  0  0
  -28.0638   -9.6159   -8.1306 C   0  0  0  0  0  0  0  0  0  0  0  0
  -29.1667   -8.7900   -7.9569 C   0  0  0  0  0  0  0  0  0  0  0  0
  -29.4923   -8.2497   -6.6900 C   0  0  0  0  0  0  0  0  0  0  0  0
  -28.6385   -8.5705   -5.6077 C   0  0  0  0  0  0  0  0  0  0  0  0
  -27.5282   -9.4078   -5.7878 C   0  0  0  0  0  0  0  0  0  0  0  0
  -24.9369  -10.5672   -6.5682 C   0  0  0  0  0  0  0  0  0  0  0  0
  -26.1572  -10.7569   -7.1891 O   0  0  0  0  0  0  0  0  0  0  0  0
  -28.6862   -1.8948   -4.2086 C   0  0  0  0  0  0  0  0  0  0  0  0
  -28.9663   -0.6869   -5.0636 C   0  0  0  0  0  0  0  0  0  0  0  0
  -30.2677   -0.1581   -5.1265 C   0  0  0  0  0  0  0  0  0  0  0  0
  -30.5376    0.9656   -5.9100 C   0  0  0  0  0  0  0  0  0  0  0  0
  -29.5127    1.5720   -6.6393 C   0  0  0  0  0  0  0  0  0  0  0  0
  -28.2151    1.0550   -6.5845 C   0  0  0  0  0  0  0  0  0  0  0  0
  -27.9393   -0.0697   -5.7987 C   0  0  0  0  0  0  0  0  0  0  0  0
 20 21  1  0  0  0
 21 14  1  0  0  0
 14 15  1  0  0  0
 14 19  2  0  0  0
 15 16  2  0  0  0
 16 17  1  0  0  0
 17 12  1  0  0  0
 17 18  2  0  0  0
 12 13  1  0  0  0
 12  1  1  0  0  0
  1  2  1  0  0  0
  1 11  2  0  0  0
  2  3  2  0  0  0
  3  4  1  0  0  0
  3  5  1  0  0  0
  5  6  2  0  0  0
  6  7  1  0  0  0
  6 11  1  0  0  0
  7 22  1  0  0  0
  7  8  2  0  0  0
 22 23  1  0  0  0
 23 24  1  0  0  0
 23 28  2  0  0  0
 24 25  2  0  0  0
 25 26  1  0  0  0
 26 27  2  0  0  0
 27 28  1  0  0  0
  8  9  1  0  0  0
  9 10  1  0  0  0
  9 11  1  0  0  0
 18 19  1  0  0  0
M  END
> <minimizedAffinity>
-8.13771

$$$$
