CHEMBL3781176


 28 31  0  0  0  0  0  0  0  0999 V2000
  -24.5005   -1.3430  -12.1376 C   0  0  0  0  0  0  0  0  0  0  0  0
  -24.4986   -1.3504  -10.7856 N   0  0  0  0  0  0  0  0  0  0  0  0
  -25.6481   -1.6017  -10.0953 N   0  0  0  0  0  0  0  0  0  0  0  0
  -26.8133   -1.8539  -10.7357 C   0  0  0  0  0  0  0  0  0  0  0  0
  -26.8784   -1.8156  -12.1505 C   0  0  0  0  0  0  0  0  0  0  0  0
  -28.0621   -2.0556  -12.9014 C   0  0  0  0  0  0  0  0  0  0  0  0
  -28.0896   -1.9577  -14.2929 C   0  0  0  0  0  0  0  0  0  0  0  0
  -26.9333   -1.6282  -14.9806 C   0  0  0  0  0  0  0  0  0  0  0  0
  -25.7473   -1.4171  -14.2789 C   0  0  0  0  0  0  0  0  0  0  0  0
  -25.6893   -1.5115  -12.8674 C   0  0  0  0  0  0  0  0  0  0  0  0
  -27.9272   -2.2943   -9.9616 N   0  0  0  0  0  0  0  0  0  0  0  0
  -28.7759   -1.8481  -10.2870 H   0  0  0  0  0  0  0  0  0  0  0  0
  -27.9781   -2.2981   -8.5422 C   0  0  0  0  0  0  0  0  0  0  0  0
  -27.7694   -1.1358   -7.7859 C   0  0  0  0  0  0  0  0  0  0  0  0
  -27.9382   -1.1441   -6.3997 C   0  0  0  0  0  0  0  0  0  0  0  0
  -28.3378   -2.3114   -5.7530 C   0  0  0  0  0  0  0  0  0  0  0  0
  -28.5775   -3.4617   -6.5007 C   0  0  0  0  0  0  0  0  0  0  0  0
  -29.0861   -4.9004   -5.7049 Cl  0  0  0  0  0  0  0  0  0  0  0  0
  -28.4174   -3.4549   -7.8875 C   0  0  0  0  0  0  0  0  0  0  0  0
  -23.1266   -1.2856  -12.7651 C   0  0  0  0  0  0  0  0  0  0  0  0
  -21.6583    2.4432  -14.4213 C   0  0  0  0  0  0  0  0  0  0  0  0
  -22.8330    2.4343  -13.6700 C   0  0  0  0  0  0  0  0  0  0  0  0
  -23.3322    1.2334  -13.1461 C   0  0  0  0  0  0  0  0  0  0  0  0
  -22.6731    0.0205  -13.3787 C   0  0  0  0  0  0  0  0  0  0  0  0
  -21.4762    0.0449  -14.1115 C   0  0  0  0  0  0  0  0  0  0  0  0
  -20.9786    1.2435  -14.6294 C   0  0  0  0  0  0  0  0  0  0  0  0
  -19.6677    3.4684  -15.2145 C   0  0  0  0  0  0  0  0  0  0  0  0
  -21.0695    3.5397  -14.9879 O   0  0  0  0  0  0  0  0  0  0  0  0
 27 28  1  0  0  0
 28 21  1  0  0  0
 21 22  1  0  0  0
 21 26  2  0  0  0
 22 23  2  0  0  0
 23 24  1  0  0  0
 24 20  1  0  0  0
 24 25  2  0  0  0
 20  1  1  0  0  0
  1  2  1  0  0  0
  1 10  2  0  0  0
  2  3  2  0  0  0
  3  4  1  0  0  0
  4 11  1  0  0  0
  4  5  2  0  0  0
 11 13  1  0  0  0
 11 12  1  0  0  0
 13 14  1  0  0  0
 13 19  2  0  0  0
 14 15  2  0  0  0
 15 16  1  0  0  0
 16 17  2  0  0  0
 17 18  1  0  0  0
 17 19  1  0  0  0
  5  6  1  0  0  0
  5 10  1  0  0  0
  6  7  2  0  0  0
  7  8  1  0  0  0
  8  9  2  0  0  0
  9 10  1  0  0  0
 25 26  1  0  0  0
M  END
> <minimizedAffinity>
-10.59830

$$$$
