CHEMBL4170879


 38 42  0  0  0  0  0  0  0  0999 V2000
  -21.5593    1.3149  -14.2283 C   0  0  0  0  0  0  0  0  0  0  0  0
  -22.5425    2.2355  -13.8188 C   0  0  0  0  0  0  0  0  0  0  0  0
  -23.7651    1.8152  -13.2728 C   0  0  0  0  0  0  0  0  0  0  0  0
  -24.0218    0.4581  -13.0964 C   0  0  0  0  0  0  0  0  0  0  0  0
  -23.0660   -0.4739  -13.4898 C   0  0  0  0  0  0  0  0  0  0  0  0
  -21.8661   -0.0501  -14.0764 C   0  0  0  0  0  0  0  0  0  0  0  0
  -14.5447   -0.0149  -15.3665 N   0  0  0  0  0  0  0  0  0  0  0  0
  -15.5970    0.8745  -15.4148 C   0  0  0  0  0  0  0  0  0  0  0  0
  -15.3216    2.1239  -15.7922 N   0  0  0  0  0  0  0  0  0  0  0  0
  -16.3612    2.9773  -15.8149 C   0  0  0  0  0  0  0  0  0  0  0  0
  -17.6600    2.6211  -15.4912 C   0  0  0  0  0  0  0  0  0  0  0  0
  -18.7400    3.5177  -15.5065 C   0  0  0  0  0  0  0  0  0  0  0  0
  -20.0096    3.0800  -15.1287 C   0  0  0  0  0  0  0  0  0  0  0  0
  -20.2314    1.7523  -14.7299 C   0  0  0  0  0  0  0  0  0  0  0  0
  -19.1200    0.8790  -14.7637 C   0  0  0  0  0  0  0  0  0  0  0  0
  -17.8366    1.2871  -15.1278 C   0  0  0  0  0  0  0  0  0  0  0  0
  -16.8144    0.4162  -15.1021 N   0  0  0  0  0  0  0  0  0  0  0  0
  -13.8007    0.2946  -15.9753 H   0  0  0  0  0  0  0  0  0  0  0  0
  -14.8770   -0.9620  -15.4729 H   0  0  0  0  0  0  0  0  0  0  0  0
  -25.1942   -0.0013  -12.4740 N   0  0  0  0  0  0  0  0  0  0  0  0
  -25.6543   -1.3010  -12.5519 C   0  0  0  0  0  0  0  0  0  0  0  0
  -25.0895   -2.2425  -13.0922 O   0  0  0  0  0  0  0  0  0  0  0  0
  -25.6399    0.6212  -11.8116 H   0  0  0  0  0  0  0  0  0  0  0  0
  -26.9676   -1.5430  -11.8632 C   0  0  0  0  0  0  0  0  0  0  0  0
  -28.0999   -2.2036  -12.6657 C   0  0  0  0  0  0  0  0  0  0  0  0
  -28.1988   -0.7604  -12.3075 C   0  0  0  0  0  0  0  0  0  0  0  0
  -26.8277   -1.9389  -10.4306 C   0  0  0  0  0  0  0  0  0  0  0  0
  -25.7067   -1.8633   -9.9309 O   0  0  0  0  0  0  0  0  0  0  0  0
  -27.9812   -2.3812   -9.8045 N   0  0  0  0  0  0  0  0  0  0  0  0
  -28.8057   -2.5388  -10.3869 H   0  0  0  0  0  0  0  0  0  0  0  0
  -28.0621   -2.8233   -8.4595 C   0  0  0  0  0  0  0  0  0  0  0  0
  -28.1798   -4.1825   -8.1395 C   0  0  0  0  0  0  0  0  0  0  0  0
  -28.4014   -4.5940   -6.8236 C   0  0  0  0  0  0  0  0  0  0  0  0
  -28.4860   -3.6487   -5.8085 C   0  0  0  0  0  0  0  0  0  0  0  0
  -28.8566   -4.1546   -4.2067 Cl  0  0  0  0  0  0  0  0  0  0  0  0
  -28.2855   -2.3003   -6.0863 C   0  0  0  0  0  0  0  0  0  0  0  0
  -28.0575   -1.8923   -7.4073 C   0  0  0  0  0  0  0  0  0  0  0  0
  -27.8319   -0.2035   -7.7087 Cl  0  0  0  0  0  0  0  0  0  0  0  0
  7  8  1  0  0  0
  7 18  1  0  0  0
  7 19  1  0  0  0
  8  9  1  0  0  0
  8 17  2  0  0  0
  9 10  2  0  0  0
 10 11  1  0  0  0
 11 12  1  0  0  0
 11 16  2  0  0  0
 12 13  2  0  0  0
 13 14  1  0  0  0
 14  1  1  0  0  0
 14 15  2  0  0  0
  1  2  1  0  0  0
  1  6  2  0  0  0
  2  3  2  0  0  0
  3  4  1  0  0  0
  4 20  1  0  0  0
  4  5  2  0  0  0
 20 21  1  0  0  0
 20 23  1  0  0  0
 21 22  2  0  0  0
 21 24  1  0  0  0
 24 27  1  0  0  0
 24 25  1  0  0  0
 24 26  1  0  0  0
 27 28  2  0  0  0
 27 29  1  0  0  0
 29 31  1  0  0  0
 29 30  1  0  0  0
 31 32  1  0  0  0
 31 37  2  0  0  0
 32 33  2  0  0  0
 33 34  1  0  0  0
 34 35  1  0  0  0
 34 36  2  0  0  0
 36 37  1  0  0  0
 37 38  1  0  0  0
 25 26  1  0  0  0
  5  6  1  0  0  0
 15 16  1  0  0  0
 16 17  1  0  0  0
M  END
> <minimizedAffinity>
-10.26366

$$$$
