CHEMBL296586


 22 25  0  0  0  0  0  0  0  0999 V2000
  -16.0571   -0.4635  -13.3785 O   0  0  0  0  0  0  0  0  0  0  0  0
  -16.2686    0.3781  -14.2567 C   0  0  0  0  0  0  0  0  0  0  0  0
  -17.4804    0.2814  -15.1574 C   0  0  0  0  0  0  0  0  0  0  0  0
  -18.2941    1.5158  -15.0999 C   0  0  0  0  0  0  0  0  0  0  0  0
  -17.8007    2.7692  -15.4056 C   0  0  0  0  0  0  0  0  0  0  0  0
  -18.8227    3.6655  -15.1925 N   0  0  0  0  0  0  0  0  0  0  0  0
  -19.9729    3.0125  -14.8065 C   0  0  0  0  0  0  0  0  0  0  0  0
  -21.2431    3.5169  -14.5017 C   0  0  0  0  0  0  0  0  0  0  0  0
  -22.2367    2.5993  -14.1428 C   0  0  0  0  0  0  0  0  0  0  0  0
  -21.9584    1.2360  -14.0894 C   0  0  0  0  0  0  0  0  0  0  0  0
  -23.3296    0.0201  -13.6147 Br  0  0  0  0  0  0  0  0  0  0  0  0
  -20.6839    0.7448  -14.3833 C   0  0  0  0  0  0  0  0  0  0  0  0
  -19.6689    1.6532  -14.7496 C   0  0  0  0  0  0  0  0  0  0  0  0
  -16.4452    3.1241  -15.8339 C   0  0  0  0  0  0  0  0  0  0  0  0
  -16.2696    4.2020  -16.7214 C   0  0  0  0  0  0  0  0  0  0  0  0
  -14.9960    4.5979  -17.1349 C   0  0  0  0  0  0  0  0  0  0  0  0
  -13.8745    3.9372  -16.6502 C   0  0  0  0  0  0  0  0  0  0  0  0
  -14.0274    2.8735  -15.7616 C   0  0  0  0  0  0  0  0  0  0  0  0
  -15.3029    2.4317  -15.3725 C   0  0  0  0  0  0  0  0  0  0  0  0
  -15.3093    1.3245  -14.4972 N   0  0  0  0  0  0  0  0  0  0  0  0
  -18.7446    4.6675  -15.2906 H   0  0  0  0  0  0  0  0  0  0  0  0
  -14.4586    1.1344  -13.9821 H   0  0  0  0  0  0  0  0  0  0  0  0
  1  2  2  0  0  0
  2  3  1  0  0  0
  2 20  1  0  0  0
  3  4  1  0  0  0
  4  5  2  0  0  0
  4 13  1  0  0  0
  5  6  1  0  0  0
  5 14  1  0  0  0
  6  7  1  0  0  0
  6 21  1  0  0  0
  7  8  1  0  0  0
  7 13  2  0  0  0
  8  9  2  0  0  0
  9 10  1  0  0  0
 10 11  1  0  0  0
 10 12  2  0  0  0
 12 13  1  0  0  0
 14 15  1  0  0  0
 14 19  2  0  0  0
 15 16  2  0  0  0
 16 17  1  0  0  0
 17 18  2  0  0  0
 18 19  1  0  0  0
 19 20  1  0  0  0
 20 22  1  0  0  0
M  END
> <minimizedAffinity>
-9.00936

$$$$
