CHEMBL379908


 30 33  0  0  0  0  0  0  0  0999 V2000
  -29.0123   -5.8498   -7.3034 C   0  0  0  0  0  0  0  0  0  0  0  0
  -30.2703   -5.4712   -7.3870 N   0  0  0  0  0  0  0  0  0  0  0  0
  -30.2779   -4.1036   -7.3166 N   0  0  0  0  0  0  0  0  0  0  0  0
  -29.0249   -3.7173   -7.1701 C   0  0  0  0  0  0  0  0  0  0  0  0
  -28.1541   -4.7847   -7.2072 O   0  0  0  0  0  0  0  0  0  0  0  0
  -28.6454   -2.3643   -6.9363 C   0  0  0  0  0  0  0  0  0  0  0  0
  -28.9601   -1.4985   -5.9102 C   0  0  0  0  0  0  0  0  0  0  0  0
  -28.3988   -0.2679   -6.1010 N   0  0  0  0  0  0  0  0  0  0  0  0
  -27.7404   -0.3609   -7.2303 C   0  0  0  0  0  0  0  0  0  0  0  0
  -27.8779   -1.5997   -7.7908 N   0  0  0  0  0  0  0  0  0  0  0  0
  -27.3589   -1.9756   -9.0848 C   0  0  0  0  0  0  0  0  0  0  0  0
  -29.7029   -1.7683   -4.8238 N   0  0  0  0  0  0  0  0  0  0  0  0
  -30.4568   -1.1424   -4.5621 H   0  0  0  0  0  0  0  0  0  0  0  0
  -29.1260   -2.4891   -3.7036 C   0  0  0  0  0  0  0  0  0  0  0  0
  -29.6315   -3.9096   -3.7019 C   0  0  0  0  0  0  0  0  0  0  0  0
  -31.0064   -4.1641   -3.7457 C   0  0  0  0  0  0  0  0  0  0  0  0
  -31.4410   -5.4786   -3.7731 C   0  0  0  0  0  0  0  0  0  0  0  0
  -30.6108   -6.5436   -3.7596 N   0  0  0  0  0  0  0  0  0  0  0  0
  -29.2879   -6.2779   -3.7167 C   0  0  0  0  0  0  0  0  0  0  0  0
  -28.7552   -4.9975   -3.6856 C   0  0  0  0  0  0  0  0  0  0  0  0
  -28.4660   -7.0738   -7.2712 N   0  0  0  0  0  0  0  0  0  0  0  0
  -27.9631   -7.3710   -6.4438 H   0  0  0  0  0  0  0  0  0  0  0  0
  -28.6740  -11.0291  -11.4329 C   0  0  0  0  0  0  0  0  0  0  0  0
  -28.6024   -9.9931  -10.3514 C   0  0  0  0  0  0  0  0  0  0  0  0
  -27.4483   -9.2254  -10.1673 C   0  0  0  0  0  0  0  0  0  0  0  0
  -27.3916   -8.2578   -9.1586 C   0  0  0  0  0  0  0  0  0  0  0  0
  -28.4865   -8.0153   -8.3201 C   0  0  0  0  0  0  0  0  0  0  0  0
  -29.6333   -8.7971   -8.5182 C   0  0  0  0  0  0  0  0  0  0  0  0
  -30.7037   -8.6041   -7.7311 F   0  0  0  0  0  0  0  0  0  0  0  0
  -29.6987   -9.7740   -9.5122 C   0  0  0  0  0  0  0  0  0  0  0  0
 23 24  1  0  0  0
 24 25  1  0  0  0
 24 30  2  0  0  0
 25 26  2  0  0  0
 26 27  1  0  0  0
 27 21  1  0  0  0
 27 28  2  0  0  0
 21  1  1  0  0  0
 21 22  1  0  0  0
  1  2  2  0  0  0
  1  5  1  0  0  0
  2  3  1  0  0  0
  3  4  2  0  0  0
  4  6  1  0  0  0
  4  5  1  0  0  0
  6  7  2  0  0  0
  6 10  1  0  0  0
  7 12  1  0  0  0
  7  8  1  0  0  0
 12 14  1  0  0  0
 12 13  1  0  0  0
 14 15  1  0  0  0
 15 16  1  0  0  0
 15 20  2  0  0  0
 16 17  2  0  0  0
 17 18  1  0  0  0
 18 19  2  0  0  0
 19 20  1  0  0  0
  8  9  2  0  0  0
  9 10  1  0  0  0
 10 11  1  0  0  0
 28 29  1  0  0  0
 28 30  1  0  0  0
M  END
> <minimizedAffinity>
-7.88114

$$$$
