CHEMBL3982058


 37 40  0  0  0  0  0  0  0  0999 V2000
  -15.8790    0.1313  -14.4130 C   0  0  0  0  0  0  0  0  0  0  0  0
  -16.9359    1.0983  -14.8667 C   0  0  0  0  0  0  0  0  0  0  0  0
  -18.1998    1.0096  -14.2507 C   0  0  0  0  0  0  0  0  0  0  0  0
  -19.2469    1.8767  -14.5761 C   0  0  0  0  0  0  0  0  0  0  0  0
  -19.0576    2.7896  -15.6100 C   0  0  0  0  0  0  0  0  0  0  0  0
  -17.8189    2.8661  -16.2618 C   0  0  0  0  0  0  0  0  0  0  0  0
  -16.7388    2.0554  -15.8733 C   0  0  0  0  0  0  0  0  0  0  0  0
  -20.4938    1.8313  -13.9045 N   0  0  0  0  0  0  0  0  0  0  0  0
  -21.4147    0.8099  -14.0575 C   0  0  0  0  0  0  0  0  0  0  0  0
  -21.1944   -0.2492  -14.6388 O   0  0  0  0  0  0  0  0  0  0  0  0
  -22.6460    1.1379  -13.5107 N   0  0  0  0  0  0  0  0  0  0  0  0
  -20.5815    2.3759  -13.0572 H   0  0  0  0  0  0  0  0  0  0  0  0
  -22.8741    2.1195  -13.5826 H   0  0  0  0  0  0  0  0  0  0  0  0
  -23.7320    0.2312  -13.5794 C   0  0  0  0  0  0  0  0  0  0  0  0
  -24.0707   -0.3232  -14.8146 C   0  0  0  0  0  0  0  0  0  0  0  0
  -25.0857   -1.2785  -14.8964 C   0  0  0  0  0  0  0  0  0  0  0  0
  -25.8035   -1.6425  -13.7555 C   0  0  0  0  0  0  0  0  0  0  0  0
  -25.5107   -1.0581  -12.5155 C   0  0  0  0  0  0  0  0  0  0  0  0
  -24.4578   -0.1312  -12.4375 C   0  0  0  0  0  0  0  0  0  0  0  0
  -26.3059   -1.4035  -11.2809 C   0  0  0  0  0  0  0  0  0  0  0  0
  -27.4976   -0.7440  -11.2044 F   0  0  0  0  0  0  0  0  0  0  0  0
  -26.6094   -2.7268  -11.1919 F   0  0  0  0  0  0  0  0  0  0  0  0
  -25.6420   -1.0912  -10.1323 F   0  0  0  0  0  0  0  0  0  0  0  0
  -15.5121    2.1228  -16.5177 O   0  0  0  0  0  0  0  0  0  0  0  0
  -14.6840    3.2072  -16.2276 C   0  0  0  0  0  0  0  0  0  0  0  0
  -14.7577    4.3229  -17.0429 C   0  0  0  0  0  0  0  0  0  0  0  0
  -13.9086    5.3721  -16.7249 C   0  0  0  0  0  0  0  0  0  0  0  0
  -13.0818    5.3080  -15.6752 N   0  0  0  0  0  0  0  0  0  0  0  0
  -13.0763    4.1819  -14.9635 C   0  0  0  0  0  0  0  0  0  0  0  0
  -13.8263    3.1099  -15.2018 N   0  0  0  0  0  0  0  0  0  0  0  0
  -13.8719    6.5105  -17.5564 N   0  0  0  0  0  0  0  0  0  0  0  0
  -13.9846    6.4611  -18.9326 C   0  0  0  0  0  0  0  0  0  0  0  0
  -13.9276    5.4671  -19.6432 O   0  0  0  0  0  0  0  0  0  0  0  0
  -13.7995    7.4129  -17.1116 H   0  0  0  0  0  0  0  0  0  0  0  0
  -14.1880    7.7662  -19.6411 C   0  0  0  0  0  0  0  0  0  0  0  0
  -15.4735    8.5403  -19.4845 C   0  0  0  0  0  0  0  0  0  0  0  0
  -15.0807    8.0026  -20.8306 C   0  0  0  0  0  0  0  0  0  0  0  0
  1  2  1  0  0  0
  2  3  1  0  0  0
  2  7  2  0  0  0
  3  4  2  0  0  0
  4  8  1  0  0  0
  4  5  1  0  0  0
  8  9  1  0  0  0
  8 12  1  0  0  0
  9 10  2  0  0  0
  9 11  1  0  0  0
 11 14  1  0  0  0
 11 13  1  0  0  0
 14 15  1  0  0  0
 14 19  2  0  0  0
 15 16  2  0  0  0
 16 17  1  0  0  0
 17 18  2  0  0  0
 18 20  1  0  0  0
 18 19  1  0  0  0
 20 21  1  0  0  0
 20 22  1  0  0  0
 20 23  1  0  0  0
  5  6  2  0  0  0
  6  7  1  0  0  0
  7 24  1  0  0  0
 24 25  1  0  0  0
 25 26  1  0  0  0
 25 30  2  0  0  0
 26 27  2  0  0  0
 27 31  1  0  0  0
 27 28  1  0  0  0
 31 32  1  0  0  0
 31 34  1  0  0  0
 32 33  2  0  0  0
 32 35  1  0  0  0
 35 36  1  0  0  0
 35 37  1  0  0  0
 36 37  1  0  0  0
 28 29  2  0  0  0
 29 30  1  0  0  0
M  END
> <minimizedAffinity>
-9.14035

$$$$
