CHEMBL371206


 33 36  0  0  0  0  0  0  0  0999 V2000
  -15.3589   -2.7028  -13.1714 C   0  0  0  0  0  0  0  0  0  0  0  0
  -13.9801   -2.5047  -13.2447 C   0  0  0  0  0  0  0  0  0  0  0  0
  -13.1070   -3.2893  -12.4909 C   0  0  0  0  0  0  0  0  0  0  0  0
  -13.5906   -4.2283  -11.5724 C   0  0  0  0  0  0  0  0  0  0  0  0
  -14.9812   -4.3266  -11.4126 C   0  0  0  0  0  0  0  0  0  0  0  0
  -15.8633   -3.5848  -12.2178 C   0  0  0  0  0  0  0  0  0  0  0  0
  -12.6620   -5.1091  -10.8373 C   0  0  0  0  0  0  0  0  0  0  0  0
  -12.0670   -4.7071   -9.6381 C   0  0  0  0  0  0  0  0  0  0  0  0
  -12.1914   -3.4566   -8.8189 C   0  0  0  0  0  0  0  0  0  0  0  0
  -10.9920   -5.8914   -9.0233 S   0  0  0  0  0  0  0  0  0  0  0  0
  -11.3188   -6.9585  -10.2928 C   0  0  0  0  0  0  0  0  0  0  0  0
  -10.7090   -8.1552  -10.3058 N   0  0  0  0  0  0  0  0  0  0  0  0
  -11.0515   -8.8898  -11.3585 C   0  0  0  0  0  0  0  0  0  0  0  0
  -11.8833   -8.5437  -12.3470 N   0  0  0  0  0  0  0  0  0  0  0  0
  -12.4651   -7.3290  -12.3115 C   0  0  0  0  0  0  0  0  0  0  0  0
  -13.2741   -7.0526  -13.4083 N   0  0  0  0  0  0  0  0  0  0  0  0
  -12.2124   -6.4545  -11.2280 C   0  0  0  0  0  0  0  0  0  0  0  0
  -13.1134   -7.7556  -14.1228 H   0  0  0  0  0  0  0  0  0  0  0  0
  -13.1998   -6.0953  -13.7310 H   0  0  0  0  0  0  0  0  0  0  0  0
  -17.4132   -0.2894  -14.9392 N   0  0  0  0  0  0  0  0  0  0  0  0
  -16.5225   -0.7193  -13.9725 C   0  0  0  0  0  0  0  0  0  0  0  0
  -16.0279    0.0086  -13.1195 O   0  0  0  0  0  0  0  0  0  0  0  0
  -16.2363   -2.0754  -14.0890 N   0  0  0  0  0  0  0  0  0  0  0  0
  -18.0782   -0.9776  -15.2601 H   0  0  0  0  0  0  0  0  0  0  0  0
  -16.2365   -2.4246  -15.0365 H   0  0  0  0  0  0  0  0  0  0  0  0
  -20.7805    3.3161  -14.7798 C   0  0  0  0  0  0  0  0  0  0  0  0
  -19.3859    2.8584  -15.0898 C   0  0  0  0  0  0  0  0  0  0  0  0
  -18.4179    3.7722  -15.5258 C   0  0  0  0  0  0  0  0  0  0  0  0
  -17.1168    3.3499  -15.8044 C   0  0  0  0  0  0  0  0  0  0  0  0
  -16.0585    4.3082  -16.2666 C   0  0  0  0  0  0  0  0  0  0  0  0
  -16.7877    1.9979  -15.6283 C   0  0  0  0  0  0  0  0  0  0  0  0
  -17.7311    1.0731  -15.1643 C   0  0  0  0  0  0  0  0  0  0  0  0
  -19.0371    1.5064  -14.9233 C   0  0  0  0  0  0  0  0  0  0  0  0
 26 27  1  0  0  0
 27 28  1  0  0  0
 27 33  2  0  0  0
 28 29  2  0  0  0
 29 30  1  0  0  0
 29 31  1  0  0  0
 31 32  2  0  0  0
 32 20  1  0  0  0
 32 33  1  0  0  0
 20 21  1  0  0  0
 20 24  1  0  0  0
 21 22  2  0  0  0
 21 23  1  0  0  0
 23  1  1  0  0  0
 23 25  1  0  0  0
  1  2  1  0  0  0
  1  6  2  0  0  0
  2  3  2  0  0  0
  3  4  1  0  0  0
  4  7  1  0  0  0
  4  5  2  0  0  0
  7  8  2  0  0  0
  7 17  1  0  0  0
  8  9  1  0  0  0
  8 10  1  0  0  0
 10 11  1  0  0  0
 11 12  1  0  0  0
 11 17  2  0  0  0
 12 13  2  0  0  0
 13 14  1  0  0  0
 14 15  2  0  0  0
 15 16  1  0  0  0
 15 17  1  0  0  0
 16 18  1  0  0  0
 16 19  1  0  0  0
  5  6  1  0  0  0
M  END
> <minimizedAffinity>
-8.94992

$$$$
