CHEMBL526925


 23 25  0  0  0  0  0  0  0  0999 V2000
  -30.9378   -6.3185   -3.4720 C   0  0  0  0  0  0  0  0  0  0  0  0
  -30.5042   -5.0828   -4.0774 N   0  0  0  0  0  0  0  0  0  0  0  0
  -30.6817   -3.8417   -3.5344 C   0  0  0  0  0  0  0  0  0  0  0  0
  -30.1608   -2.9035   -4.2898 N   0  0  0  0  0  0  0  0  0  0  0  0
  -29.6519   -3.5579   -5.3925 C   0  0  0  0  0  0  0  0  0  0  0  0
  -29.8407   -4.9278   -5.2730 C   0  0  0  0  0  0  0  0  0  0  0  0
  -28.9862   -2.8542   -6.4812 C   0  0  0  0  0  0  0  0  0  0  0  0
  -28.5728   -1.5289   -6.2879 C   0  0  0  0  0  0  0  0  0  0  0  0
  -27.8757   -0.8452   -7.2878 C   0  0  0  0  0  0  0  0  0  0  0  0
  -27.5936   -1.4760   -8.4977 C   0  0  0  0  0  0  0  0  0  0  0  0
  -28.0306   -2.7795   -8.7184 C   0  0  0  0  0  0  0  0  0  0  0  0
  -28.7316   -3.4602   -7.7196 C   0  0  0  0  0  0  0  0  0  0  0  0
  -29.5556   -6.0454   -6.0915 C   0  0  0  0  0  0  0  0  0  0  0  0
  -30.4542   -6.5184   -6.9708 C   0  0  0  0  0  0  0  0  0  0  0  0
  -30.2215   -7.7533   -7.7392 C   0  0  0  0  0  0  0  0  0  0  0  0
  -29.0091   -7.9902   -8.3488 C   0  0  0  0  0  0  0  0  0  0  0  0
  -28.9233   -9.1640   -9.0593 C   0  0  0  0  0  0  0  0  0  0  0  0
  -29.9348  -10.0441   -9.1694 N   0  0  0  0  0  0  0  0  0  0  0  0
  -31.0629   -9.7323   -8.5301 C   0  0  0  0  0  0  0  0  0  0  0  0
  -32.1261  -10.6043   -8.6343 N   0  0  0  0  0  0  0  0  0  0  0  0
  -31.2561   -8.6144   -7.8309 N   0  0  0  0  0  0  0  0  0  0  0  0
  -32.0274  -11.1625   -9.4702 H   0  0  0  0  0  0  0  0  0  0  0  0
  -32.9919  -10.0975   -8.5149 H   0  0  0  0  0  0  0  0  0  0  0  0
  1  2  1  0  0  0
  2  3  1  0  0  0
  2  6  1  0  0  0
  3  4  2  0  0  0
  4  5  1  0  0  0
  5  7  1  0  0  0
  5  6  2  0  0  0
  7  8  1  0  0  0
  7 12  2  0  0  0
  8  9  2  0  0  0
  9 10  1  0  0  0
 10 11  2  0  0  0
 11 12  1  0  0  0
  6 13  1  0  0  0
 13 14  2  0  0  0
 14 15  1  0  0  0
 15 16  1  0  0  0
 15 21  2  0  0  0
 16 17  2  0  0  0
 17 18  1  0  0  0
 18 19  2  0  0  0
 19 20  1  0  0  0
 19 21  1  0  0  0
 20 22  1  0  0  0
 20 23  1  0  0  0
M  END
> <minimizedAffinity>
-7.81951

$$$$
