CHEMBL4060326


 30 33  0  0  0  0  0  0  0  0999 V2000
  -15.0694   -2.3578  -12.6423 C   0  0  0  0  0  0  0  0  0  0  0  0
  -13.6780   -2.3606  -12.7644 C   0  0  0  0  0  0  0  0  0  0  0  0
  -12.8754   -2.9867  -11.8012 C   0  0  0  0  0  0  0  0  0  0  0  0
  -13.4307   -3.5908  -10.6588 C   0  0  0  0  0  0  0  0  0  0  0  0
  -14.8162   -3.4408  -10.4917 C   0  0  0  0  0  0  0  0  0  0  0  0
  -15.6348   -2.8584  -11.4754 C   0  0  0  0  0  0  0  0  0  0  0  0
  -12.5818   -4.3084   -9.6794 C   0  0  0  0  0  0  0  0  0  0  0  0
  -12.3359   -3.7566   -8.3994 C   0  0  0  0  0  0  0  0  0  0  0  0
  -11.5401   -4.4200   -7.4766 C   0  0  0  0  0  0  0  0  0  0  0  0
  -10.9481   -5.6079   -7.6796 N   0  0  0  0  0  0  0  0  0  0  0  0
  -11.1878   -6.1069   -8.9046 C   0  0  0  0  0  0  0  0  0  0  0  0
  -10.6971   -7.2922   -9.3532 N   0  0  0  0  0  0  0  0  0  0  0  0
  -11.0452   -7.5850  -10.6118 N   0  0  0  0  0  0  0  0  0  0  0  0
  -11.7801   -6.5272  -10.9949 C   0  0  0  0  0  0  0  0  0  0  0  0
  -12.2781   -6.5343  -12.3947 C   0  0  0  0  0  0  0  0  0  0  0  0
  -11.9461   -5.5596   -9.9398 C   0  0  0  0  0  0  0  0  0  0  0  0
  -10.1138   -7.9379   -8.8372 H   0  0  0  0  0  0  0  0  0  0  0  0
  -17.1357   -0.2785  -14.8075 N   0  0  0  0  0  0  0  0  0  0  0  0
  -16.3415   -0.5948  -13.7239 C   0  0  0  0  0  0  0  0  0  0  0  0
  -15.9841    0.2009  -12.8624 O   0  0  0  0  0  0  0  0  0  0  0  0
  -15.9125   -1.9188  -13.7020 N   0  0  0  0  0  0  0  0  0  0  0  0
  -17.3065   -0.9996  -15.4896 H   0  0  0  0  0  0  0  0  0  0  0  0
  -15.7362   -2.3213  -14.6082 H   0  0  0  0  0  0  0  0  0  0  0  0
  -15.5550    1.6691  -16.4186 C   0  0  0  0  0  0  0  0  0  0  0  0
  -16.9029    1.9640  -15.8157 C   0  0  0  0  0  0  0  0  0  0  0  0
  -17.4289    3.2597  -16.0188 C   0  0  0  0  0  0  0  0  0  0  0  0
  -18.6660    3.6310  -15.4973 C   0  0  0  0  0  0  0  0  0  0  0  0
  -19.4140    2.7052  -14.7958 C   0  0  0  0  0  0  0  0  0  0  0  0
  -18.9166    1.4175  -14.6060 C   0  0  0  0  0  0  0  0  0  0  0  0
  -17.6510    1.0211  -15.0752 C   0  0  0  0  0  0  0  0  0  0  0  0
 24 25  1  0  0  0
 25 26  1  0  0  0
 25 30  2  0  0  0
 26 27  2  0  0  0
 27 28  1  0  0  0
 28 29  2  0  0  0
 29 30  1  0  0  0
 30 18  1  0  0  0
 18 19  1  0  0  0
 18 22  1  0  0  0
 19 20  2  0  0  0
 19 21  1  0  0  0
 21  1  1  0  0  0
 21 23  1  0  0  0
  1  2  1  0  0  0
  1  6  2  0  0  0
  2  3  2  0  0  0
  3  4  1  0  0  0
  4  7  1  0  0  0
  4  5  2  0  0  0
  7  8  1  0  0  0
  7 16  2  0  0  0
  8  9  2  0  0  0
  9 10  1  0  0  0
 10 11  2  0  0  0
 11 12  1  0  0  0
 11 16  1  0  0  0
 12 13  1  0  0  0
 12 17  1  0  0  0
 13 14  2  0  0  0
 14 15  1  0  0  0
 14 16  1  0  0  0
  5  6  1  0  0  0
M  END
> <minimizedAffinity>
-8.75355

$$$$
