CHEMBL406660


 31 34  0  0  0  0  0  0  0  0999 V2000
  -25.9728   11.6158  -15.4661 C   0  0  0  0  0  0  0  0  0  0  0  0
  -25.4211   12.6577  -16.2107 C   0  0  0  0  0  0  0  0  0  0  0  0
  -24.5115   12.4196  -17.2429 C   0  0  0  0  0  0  0  0  0  0  0  0
  -24.1812   11.1216  -17.6300 C   0  0  0  0  0  0  0  0  0  0  0  0
  -24.8033   10.0613  -16.9691 C   0  0  0  0  0  0  0  0  0  0  0  0
  -25.6738   10.3070  -15.8911 C   0  0  0  0  0  0  0  0  0  0  0  0
  -29.0966   10.7582  -16.5208 N   0  0  0  0  0  0  0  0  0  0  0  0
  -29.2733   11.1401  -15.2434 C   0  0  0  0  0  0  0  0  0  0  0  0
  -30.4754   11.0892  -14.6634 N   0  0  0  0  0  0  0  0  0  0  0  0
  -30.3008   11.5655  -13.3838 O   0  0  0  0  0  0  0  0  0  0  0  0
  -28.9981   11.8871  -13.1942 C   0  0  0  0  0  0  0  0  0  0  0  0
  -28.4867   12.3991  -12.0048 C   0  0  0  0  0  0  0  0  0  0  0  0
  -27.1182   12.6586  -11.9817 C   0  0  0  0  0  0  0  0  0  0  0  0
  -26.3281   12.4068  -13.1024 C   0  0  0  0  0  0  0  0  0  0  0  0
  -26.8587   11.8897  -14.3134 C   0  0  0  0  0  0  0  0  0  0  0  0
  -28.2656   11.6312  -14.3460 C   0  0  0  0  0  0  0  0  0  0  0  0
  -29.9233   10.5322  -17.0642 H   0  0  0  0  0  0  0  0  0  0  0  0
  -28.3252   11.1058  -17.0800 H   0  0  0  0  0  0  0  0  0  0  0  0
  -23.2828   10.8441  -18.6861 N   0  0  0  0  0  0  0  0  0  0  0  0
  -21.9105   11.0336  -18.6289 C   0  0  0  0  0  0  0  0  0  0  0  0
  -21.2877   11.3001  -17.6056 O   0  0  0  0  0  0  0  0  0  0  0  0
  -21.3228   10.9603  -19.8835 N   0  0  0  0  0  0  0  0  0  0  0  0
  -23.6243   10.2970  -19.4602 H   0  0  0  0  0  0  0  0  0  0  0  0
  -21.9194   11.2609  -20.6395 H   0  0  0  0  0  0  0  0  0  0  0  0
  -19.9378   11.2110  -20.0381 C   0  0  0  0  0  0  0  0  0  0  0  0
  -19.0807   10.2648  -20.6181 C   0  0  0  0  0  0  0  0  0  0  0  0
  -17.7045   10.4874  -20.6590 C   0  0  0  0  0  0  0  0  0  0  0  0
  -17.1897   11.6582  -20.1186 C   0  0  0  0  0  0  0  0  0  0  0  0
  -15.8655   11.8574  -20.1169 F   0  0  0  0  0  0  0  0  0  0  0  0
  -18.0294   12.6216  -19.5688 C   0  0  0  0  0  0  0  0  0  0  0  0
  -19.4114   12.4117  -19.5503 C   0  0  0  0  0  0  0  0  0  0  0  0
  7  8  1  0  0  0
  7 17  1  0  0  0
  7 18  1  0  0  0
  8  9  2  0  0  0
  8 16  1  0  0  0
  9 10  1  0  0  0
 10 11  1  0  0  0
 11 12  1  0  0  0
 11 16  2  0  0  0
 12 13  2  0  0  0
 13 14  1  0  0  0
 14 15  2  0  0  0
 15  1  1  0  0  0
 15 16  1  0  0  0
  1  2  1  0  0  0
  1  6  2  0  0  0
  2  3  2  0  0  0
  3  4  1  0  0  0
  4 19  1  0  0  0
  4  5  2  0  0  0
 19 20  1  0  0  0
 19 23  1  0  0  0
 20 21  2  0  0  0
 20 22  1  0  0  0
 22 25  1  0  0  0
 22 24  1  0  0  0
 25 26  1  0  0  0
 25 31  2  0  0  0
 26 27  2  0  0  0
 27 28  1  0  0  0
 28 29  1  0  0  0
 28 30  2  0  0  0
 30 31  1  0  0  0
  5  6  1  0  0  0
M  END
> <minimizedAffinity>
-6.80869

$$$$
