CHEMBL151713


 36 41  0  0  0  0  0  0  0  0999 V2000
  -28.0380   -1.9238   -7.6437 C   0  0  0  0  0  0  0  0  0  0  0  0
  -27.6621   -2.6847   -8.7457 C   0  0  0  0  0  0  0  0  0  0  0  0
  -27.8052   -4.0755   -8.7306 C   0  0  0  0  0  0  0  0  0  0  0  0
  -28.3065   -4.6733   -7.5651 C   0  0  0  0  0  0  0  0  0  0  0  0
  -28.7930   -3.8854   -6.5072 C   0  0  0  0  0  0  0  0  0  0  0  0
  -28.6936   -2.4992   -6.5541 C   0  0  0  0  0  0  0  0  0  0  0  0
  -29.3338   -4.8163   -5.6701 C   0  0  0  0  0  0  0  0  0  0  0  0
  -30.3636   -4.6131   -4.7296 C   0  0  0  0  0  0  0  0  0  0  0  0
  -31.1625   -5.7970   -4.4527 C   0  0  0  0  0  0  0  0  0  0  0  0
  -30.7274   -7.0566   -4.8930 C   0  0  0  0  0  0  0  0  0  0  0  0
  -29.3320   -7.0734   -5.0368 C   0  0  0  0  0  0  0  0  0  0  0  0
  -28.8938   -6.0878   -5.8869 C   0  0  0  0  0  0  0  0  0  0  0  0
  -28.5534   -6.0263   -7.2509 N   0  0  0  0  0  0  0  0  0  0  0  0
  -28.8884   -8.4382   -4.7313 C   0  0  0  0  0  0  0  0  0  0  0  0
  -29.9268   -9.1560   -5.5353 C   0  0  0  0  0  0  0  0  0  0  0  0
  -29.5476  -10.1595   -6.4122 C   0  0  0  0  0  0  0  0  0  0  0  0
  -30.2700  -10.2671   -7.5857 C   0  0  0  0  0  0  0  0  0  0  0  0
  -31.3970   -9.4425   -7.7879 C   0  0  0  0  0  0  0  0  0  0  0  0
  -31.8405   -8.4602   -6.8368 C   0  0  0  0  0  0  0  0  0  0  0  0
  -31.0817   -8.2810   -5.6758 C   0  0  0  0  0  0  0  0  0  0  0  0
  -31.7146   -5.5562   -3.1261 C   0  0  0  0  0  0  0  0  0  0  0  0
  -32.3012   -6.2809   -2.3310 O   0  0  0  0  0  0  0  0  0  0  0  0
  -31.2697   -4.2786   -2.7507 N   0  0  0  0  0  0  0  0  0  0  0  0
  -30.4256   -3.5864   -3.7033 C   0  0  0  0  0  0  0  0  0  0  0  0
  -31.2049   -4.0897   -1.7615 H   0  0  0  0  0  0  0  0  0  0  0  0
  -27.6441   -0.4857   -7.5860 C   0  0  0  0  0  0  0  0  0  0  0  0
  -27.5543   -0.0994   -6.2288 O   0  0  0  0  0  0  0  0  0  0  0  0
  -29.7502   -0.2368   -5.1694 C   0  0  0  0  0  0  0  0  0  0  0  0
  -28.6560    0.6707   -5.7435 C   0  0  0  0  0  0  0  0  0  0  0  0
  -29.2014    1.5880   -6.8446 C   0  0  0  0  0  0  0  0  0  0  0  0
  -28.0684    1.5218   -4.6152 C   0  0  0  0  0  0  0  0  0  0  0  0
  -29.0859   -6.9649   -8.2398 C   0  0  0  0  0  0  0  0  0  0  0  0
  -28.2665   -8.1379   -8.7638 C   0  0  0  0  0  0  0  0  0  0  0  0
  -26.9620   -7.6820   -9.3830 C   0  0  0  0  0  0  0  0  0  0  0  0
  -26.7728   -8.3202  -10.6365 O   0  0  0  0  0  0  0  0  0  0  0  0
  -26.6587   -9.2713  -10.4712 H   0  0  0  0  0  0  0  0  0  0  0  0
 28 29  1  0  0  0
 29 30  1  0  0  0
 29 31  1  0  0  0
 29 27  1  0  0  0
 27 26  1  0  0  0
 26  1  1  0  0  0
  1  2  1  0  0  0
  1  6  2  0  0  0
  2  3  2  0  0  0
  3  4  1  0  0  0
  4  5  2  0  0  0
  4 13  1  0  0  0
  5  6  1  0  0  0
  5  7  1  0  0  0
  7  8  1  0  0  0
  7 12  2  0  0  0
  8  9  2  0  0  0
  8 24  1  0  0  0
  9 10  1  0  0  0
  9 21  1  0  0  0
 10 11  2  0  0  0
 10 20  1  0  0  0
 11 12  1  0  0  0
 11 14  1  0  0  0
 12 13  1  0  0  0
 13 32  1  0  0  0
 32 33  1  0  0  0
 33 34  1  0  0  0
 34 35  1  0  0  0
 35 36  1  0  0  0
 14 15  1  0  0  0
 15 16  1  0  0  0
 15 20  2  0  0  0
 16 17  2  0  0  0
 17 18  1  0  0  0
 18 19  2  0  0  0
 19 20  1  0  0  0
 21 22  2  0  0  0
 21 23  1  0  0  0
 23 24  1  0  0  0
 23 25  1  0  0  0
M  END
> <minimizedAffinity>
-7.25639

$$$$
