CHEMBL452827


 29 32  0  0  0  0  0  0  0  0999 V2000
  -16.1610   -2.4427  -13.2545 O   0  0  0  0  0  0  0  0  0  0  0  0
  -13.2391    2.1709  -14.3897 C   0  0  0  0  0  0  0  0  0  0  0  0
  -12.0040    1.7069  -14.1878 N   0  0  0  0  0  0  0  0  0  0  0  0
  -12.1857    0.4259  -13.8367 N   0  0  0  0  0  0  0  0  0  0  0  0
  -11.0651   -0.3531  -13.3655 C   0  0  0  0  0  0  0  0  0  0  0  0
  -13.4917    0.0147  -13.8703 C   0  0  0  0  0  0  0  0  0  0  0  0
  -14.0835   -1.2329  -13.6443 C   0  0  0  0  0  0  0  0  0  0  0  0
  -15.4808   -1.2843  -13.5806 C   0  0  0  0  0  0  0  0  0  0  0  0
  -16.2470   -0.1544  -13.8754 C   0  0  0  0  0  0  0  0  0  0  0  0
  -15.6322    1.0730  -14.1815 C   0  0  0  0  0  0  0  0  0  0  0  0
  -14.2242    1.1626  -14.1572 C   0  0  0  0  0  0  0  0  0  0  0  0
  -13.5338    3.4331  -14.7876 N   0  0  0  0  0  0  0  0  0  0  0  0
  -14.0478    4.0160  -14.1374 H   0  0  0  0  0  0  0  0  0  0  0  0
  -15.2998    4.2319  -16.2760 C   0  0  0  0  0  0  0  0  0  0  0  0
  -13.9049    3.6384  -16.1826 C   0  0  0  0  0  0  0  0  0  0  0  0
  -15.7344   -3.1901  -12.1643 C   0  0  0  0  0  0  0  0  0  0  0  0
  -15.8318   -2.7160  -10.8564 C   0  0  0  0  0  0  0  0  0  0  0  0
  -15.3450   -3.5103   -9.8428 C   0  0  0  0  0  0  0  0  0  0  0  0
  -14.8527   -4.7521  -10.0341 N   0  0  0  0  0  0  0  0  0  0  0  0
  -14.8525   -5.2570  -11.2847 C   0  0  0  0  0  0  0  0  0  0  0  0
  -14.4909   -6.5900  -11.4813 C   0  0  0  0  0  0  0  0  0  0  0  0
  -14.5310   -7.2261  -12.7431 C   0  0  0  0  0  0  0  0  0  0  0  0
  -14.8735   -6.4670  -13.8620 C   0  0  0  0  0  0  0  0  0  0  0  0
  -15.2149   -5.1120  -13.6685 C   0  0  0  0  0  0  0  0  0  0  0  0
  -15.2609   -4.5041  -12.3949 C   0  0  0  0  0  0  0  0  0  0  0  0
  -14.4802   -8.5936  -12.6660 O   0  0  0  0  0  0  0  0  0  0  0  0
  -13.3029   -9.1900  -12.1380 C   0  0  0  0  0  0  0  0  0  0  0  0
  -15.0277   -6.7852  -15.1775 O   0  0  0  0  0  0  0  0  0  0  0  0
  -13.9396   -7.0864  -16.0177 C   0  0  0  0  0  0  0  0  0  0  0  0
 14 15  1  0  0  0
 15 12  1  0  0  0
 12  2  1  0  0  0
 12 13  1  0  0  0
  2  3  2  0  0  0
  2 11  1  0  0  0
  3  4  1  0  0  0
  4  5  1  0  0  0
  4  6  1  0  0  0
  6  7  1  0  0  0
  6 11  2  0  0  0
  7  8  2  0  0  0
  8  1  1  0  0  0
  8  9  1  0  0  0
  1 16  1  0  0  0
 16 17  1  0  0  0
 16 25  2  0  0  0
 17 18  2  0  0  0
 18 19  1  0  0  0
 19 20  2  0  0  0
 20 21  1  0  0  0
 20 25  1  0  0  0
 21 22  2  0  0  0
 22 26  1  0  0  0
 22 23  1  0  0  0
 26 27  1  0  0  0
 23 28  1  0  0  0
 23 24  2  0  0  0
 28 29  1  0  0  0
 24 25  1  0  0  0
  9 10  2  0  0  0
 10 11  1  0  0  0
M  END
> <minimizedAffinity>
-7.08703

$$$$
