CHEMBL3900665


 38 41  0  0  0  0  0  0  0  0999 V2000
  -27.9445    1.1027   -5.0646 C   0  0  0  0  0  0  0  0  0  0  0  0
  -28.0084   -0.2955   -5.6048 C   0  0  0  0  0  0  0  0  0  0  0  0
  -28.1119   -0.4969   -6.9863 C   0  0  0  0  0  0  0  0  0  0  0  0
  -28.1871   -1.7785   -7.5407 C   0  0  0  0  0  0  0  0  0  0  0  0
  -28.1784   -2.8815   -6.6758 C   0  0  0  0  0  0  0  0  0  0  0  0
  -28.0532   -2.6979   -5.2882 C   0  0  0  0  0  0  0  0  0  0  0  0
  -27.9744   -1.4053   -4.7587 C   0  0  0  0  0  0  0  0  0  0  0  0
  -28.3060   -2.0000   -8.9372 N   0  0  0  0  0  0  0  0  0  0  0  0
  -27.2869   -1.8700   -9.8692 C   0  0  0  0  0  0  0  0  0  0  0  0
  -26.1122   -1.6320   -9.6121 O   0  0  0  0  0  0  0  0  0  0  0  0
  -27.7580   -1.9794  -11.1725 N   0  0  0  0  0  0  0  0  0  0  0  0
  -29.1710   -2.4079   -9.2618 H   0  0  0  0  0  0  0  0  0  0  0  0
  -28.6941   -1.6267  -11.3060 H   0  0  0  0  0  0  0  0  0  0  0  0
  -26.8690   -1.8292  -12.2664 C   0  0  0  0  0  0  0  0  0  0  0  0
  -27.3897   -1.8233  -13.5584 C   0  0  0  0  0  0  0  0  0  0  0  0
  -26.5400   -1.6186  -14.6473 C   0  0  0  0  0  0  0  0  0  0  0  0
  -25.1645   -1.4484  -14.4554 C   0  0  0  0  0  0  0  0  0  0  0  0
  -24.6365   -1.4299  -13.1670 C   0  0  0  0  0  0  0  0  0  0  0  0
  -25.4920   -1.6486  -12.0800 C   0  0  0  0  0  0  0  0  0  0  0  0
  -23.3295   -1.2447  -12.8321 O   0  0  0  0  0  0  0  0  0  0  0  0
  -22.7043    0.0079  -13.0708 C   0  0  0  0  0  0  0  0  0  0  0  0
  -23.5410    1.0657  -13.0214 F   0  0  0  0  0  0  0  0  0  0  0  0
  -21.7489    0.1987  -12.1320 F   0  0  0  0  0  0  0  0  0  0  0  0
  -22.1015   -0.0134  -14.2800 F   0  0  0  0  0  0  0  0  0  0  0  0
  -28.1244   -3.7159   -4.3570 O   0  0  0  0  0  0  0  0  0  0  0  0
  -29.2847   -4.4748   -4.2568 C   0  0  0  0  0  0  0  0  0  0  0  0
  -29.2644   -5.7132   -4.8644 C   0  0  0  0  0  0  0  0  0  0  0  0
  -30.4156   -6.4618   -4.7414 C   0  0  0  0  0  0  0  0  0  0  0  0
  -31.4951   -5.9887   -4.1046 N   0  0  0  0  0  0  0  0  0  0  0  0
  -31.4228   -4.7653   -3.5815 C   0  0  0  0  0  0  0  0  0  0  0  0
  -30.3575   -3.9668   -3.6259 N   0  0  0  0  0  0  0  0  0  0  0  0
  -30.4618   -7.7455   -5.3141 N   0  0  0  0  0  0  0  0  0  0  0  0
  -30.7819   -7.9756   -6.6352 C   0  0  0  0  0  0  0  0  0  0  0  0
  -31.1888   -7.1563   -7.4485 O   0  0  0  0  0  0  0  0  0  0  0  0
  -30.2765   -8.5432   -4.7154 H   0  0  0  0  0  0  0  0  0  0  0  0
  -30.6588   -9.4074   -7.0547 C   0  0  0  0  0  0  0  0  0  0  0  0
  -29.6217   -9.7804   -8.0980 C   0  0  0  0  0  0  0  0  0  0  0  0
  -31.0825   -9.8177   -8.4476 C   0  0  0  0  0  0  0  0  0  0  0  0
  1  2  1  0  0  0
  2  3  1  0  0  0
  2  7  2  0  0  0
  3  4  2  0  0  0
  4  8  1  0  0  0
  4  5  1  0  0  0
  8  9  1  0  0  0
  8 12  1  0  0  0
  9 10  2  0  0  0
  9 11  1  0  0  0
 11 14  1  0  0  0
 11 13  1  0  0  0
 14 15  1  0  0  0
 14 19  2  0  0  0
 15 16  2  0  0  0
 16 17  1  0  0  0
 17 18  2  0  0  0
 18 20  1  0  0  0
 18 19  1  0  0  0
 20 21  1  0  0  0
 21 22  1  0  0  0
 21 23  1  0  0  0
 21 24  1  0  0  0
  5  6  2  0  0  0
  6 25  1  0  0  0
  6  7  1  0  0  0
 25 26  1  0  0  0
 26 27  1  0  0  0
 26 31  2  0  0  0
 27 28  2  0  0  0
 28 32  1  0  0  0
 28 29  1  0  0  0
 32 33  1  0  0  0
 32 35  1  0  0  0
 33 34  2  0  0  0
 33 36  1  0  0  0
 36 37  1  0  0  0
 36 38  1  0  0  0
 37 38  1  0  0  0
 29 30  2  0  0  0
 30 31  1  0  0  0
M  END
> <minimizedAffinity>
-11.22626

$$$$
