CHEMBL1744349


 32 35  0  0  0  0  0  0  0  0999 V2000
  -29.3847   -5.2258   -7.0195 C   0  0  0  0  0  0  0  0  0  0  0  0
  -28.9664   -4.3326   -8.0313 C   0  0  0  0  0  0  0  0  0  0  0  0
  -28.5101   -3.0331   -7.7180 C   0  0  0  0  0  0  0  0  0  0  0  0
  -28.1404   -2.0547   -8.6774 C   0  0  0  0  0  0  0  0  0  0  0  0
  -27.7078   -0.8393   -8.2362 N   0  0  0  0  0  0  0  0  0  0  0  0
  -27.6219   -0.5266   -6.9268 C   0  0  0  0  0  0  0  0  0  0  0  0
  -28.0062   -1.4242   -6.0006 N   0  0  0  0  0  0  0  0  0  0  0  0
  -28.4484   -2.6534   -6.3633 C   0  0  0  0  0  0  0  0  0  0  0  0
  -28.8853   -3.5052   -5.3709 C   0  0  0  0  0  0  0  0  0  0  0  0
  -29.3940   -4.7855   -5.6622 C   0  0  0  0  0  0  0  0  0  0  0  0
  -29.0509   -7.4268   -8.1016 C   0  0  0  0  0  0  0  0  0  0  0  0
  -29.7828   -6.4627   -7.4316 O   0  0  0  0  0  0  0  0  0  0  0  0
  -28.1914   -2.2699  -10.0881 N   0  0  0  0  0  0  0  0  0  0  0  0
  -28.9885   -2.7750  -10.5036 H   0  0  0  0  0  0  0  0  0  0  0  0
  -27.0841   -1.9059  -10.9245 C   0  0  0  0  0  0  0  0  0  0  0  0
  -25.8154   -1.6341  -10.3581 C   0  0  0  0  0  0  0  0  0  0  0  0
  -24.7319   -1.2932  -11.1666 C   0  0  0  0  0  0  0  0  0  0  0  0
  -24.8852   -1.2300  -12.5510 C   0  0  0  0  0  0  0  0  0  0  0  0
  -23.5058   -0.8353  -13.5605 Cl  0  0  0  0  0  0  0  0  0  0  0  0
  -26.1370   -1.4791  -13.1256 C   0  0  0  0  0  0  0  0  0  0  0  0
  -27.2377   -1.8008  -12.3154 C   0  0  0  0  0  0  0  0  0  0  0  0
  -28.4377   -2.0522  -12.8981 F   0  0  0  0  0  0  0  0  0  0  0  0
  -29.9460   -5.5293   -4.6551 O   0  0  0  0  0  0  0  0  0  0  0  0
  -29.1567   -6.1768   -3.7073 C   0  0  0  0  0  0  0  0  0  0  0  0
  -28.7864   -7.5642   -4.0987 C   0  0  0  0  0  0  0  0  0  0  0  0
  -27.6218   -7.8779   -4.6771 C   0  0  0  0  0  0  0  0  0  0  0  0
  -27.3126   -9.3153   -4.9954 C   0  0  0  0  0  0  0  0  0  0  0  0
  -26.4990   -9.9635   -3.9348 N   0  0  0  0  0  0  0  0  0  0  0  0
  -25.2499   -9.2142   -3.7297 C   0  0  0  0  0  0  0  0  0  0  0  0
  -24.3081   -9.6964   -4.8234 C   0  0  0  0  0  0  0  0  0  0  0  0
  -24.5428  -11.1857   -4.7527 C   0  0  0  0  0  0  0  0  0  0  0  0
  -26.0224  -11.3084   -4.3461 C   0  0  0  0  0  0  0  0  0  0  0  0
 11 12  1  0  0  0
 12  1  1  0  0  0
  1  2  1  0  0  0
  1 10  2  0  0  0
  2  3  2  0  0  0
  3  4  1  0  0  0
  3  8  1  0  0  0
  4 13  1  0  0  0
  4  5  2  0  0  0
 13 15  1  0  0  0
 13 14  1  0  0  0
 15 16  1  0  0  0
 15 21  2  0  0  0
 16 17  2  0  0  0
 17 18  1  0  0  0
 18 19  1  0  0  0
 18 20  2  0  0  0
 20 21  1  0  0  0
 21 22  1  0  0  0
  5  6  1  0  0  0
  6  7  2  0  0  0
  7  8  1  0  0  0
  8  9  2  0  0  0
  9 10  1  0  0  0
 10 23  1  0  0  0
 23 24  1  0  0  0
 24 25  1  0  0  0
 25 26  2  0  0  0
 26 27  1  0  0  0
 27 28  1  0  0  0
 28 29  1  0  0  0
 28 32  1  0  0  0
 29 30  1  0  0  0
 30 31  1  0  0  0
 31 32  1  0  0  0
M  END
> <minimizedAffinity>
-8.29989

$$$$
