CHEMBL1084453


 45 50  0  0  0  0  0  0  0  0999 V2000
  -30.2719   -8.4529   -8.2689 O   0  0  0  0  0  0  0  0  0  0  0  0
  -30.1789   -7.6317   -7.1527 C   0  0  0  0  0  0  0  0  0  0  0  0
  -30.8483   -6.4088   -7.0989 C   0  0  0  0  0  0  0  0  0  0  0  0
  -30.6113   -5.5307   -6.0504 C   0  0  0  0  0  0  0  0  0  0  0  0
  -29.7625   -5.8774   -4.9927 C   0  0  0  0  0  0  0  0  0  0  0  0
  -29.3070   -7.2289   -4.8992 C   0  0  0  0  0  0  0  0  0  0  0  0
  -28.7002   -7.7654   -3.7344 C   0  0  0  0  0  0  0  0  0  0  0  0
  -28.2108   -9.0709   -3.6865 C   0  0  0  0  0  0  0  0  0  0  0  0
  -28.2861   -9.8726   -4.8137 C   0  0  0  0  0  0  0  0  0  0  0  0
  -28.9042   -9.3884   -5.9676 C   0  0  0  0  0  0  0  0  0  0  0  0
  -29.4630   -8.0915   -6.0228 C   0  0  0  0  0  0  0  0  0  0  0  0
  -29.3688   -4.8991   -4.0304 N   0  0  0  0  0  0  0  0  0  0  0  0
  -28.8354   -5.3167   -3.2807 H   0  0  0  0  0  0  0  0  0  0  0  0
  -29.0567   -3.6099   -4.3250 C   0  0  0  0  0  0  0  0  0  0  0  0
  -27.8970   -2.9917   -4.3729 N   0  0  0  0  0  0  0  0  0  0  0  0
  -28.1698   -1.6855   -4.6870 C   0  0  0  0  0  0  0  0  0  0  0  0
  -27.2986   -0.5994   -4.8520 C   0  0  0  0  0  0  0  0  0  0  0  0
  -27.8373    0.6438   -5.2071 C   0  0  0  0  0  0  0  0  0  0  0  0
  -29.2141    0.8013   -5.3885 C   0  0  0  0  0  0  0  0  0  0  0  0
  -30.1002   -0.2684   -5.2104 C   0  0  0  0  0  0  0  0  0  0  0  0
  -29.5344   -1.4946   -4.8567 C   0  0  0  0  0  0  0  0  0  0  0  0
  -30.0740   -2.7287   -4.6025 N   0  0  0  0  0  0  0  0  0  0  0  0
  -31.0517   -2.9640   -4.6369 H   0  0  0  0  0  0  0  0  0  0  0  0
  -30.2018  -10.8349   -8.6601 C   0  0  0  0  0  0  0  0  0  0  0  0
  -30.8289  -12.0752   -8.4080 C   0  0  0  0  0  0  0  0  0  0  0  0
  -31.9923  -12.1696   -7.6520 C   0  0  0  0  0  0  0  0  0  0  0  0
  -32.5461  -11.0016   -7.1838 C   0  0  0  0  0  0  0  0  0  0  0  0
  -32.0173   -9.7886   -7.4236 N   0  0  0  0  0  0  0  0  0  0  0  0
  -30.8434   -9.7173   -8.1109 C   0  0  0  0  0  0  0  0  0  0  0  0
  -26.6469  -11.1691   -9.2477 C   0  0  0  0  0  0  0  0  0  0  0  0
  -26.4284  -10.6671  -10.4702 N   0  0  0  0  0  0  0  0  0  0  0  0
  -27.4917  -10.2280  -11.1561 C   0  0  0  0  0  0  0  0  0  0  0  0
  -28.7722  -10.2544  -10.6638 C   0  0  0  0  0  0  0  0  0  0  0  0
  -28.9334  -10.8273   -9.4170 C   0  0  0  0  0  0  0  0  0  0  0  0
  -27.8653  -11.3196   -8.7357 N   0  0  0  0  0  0  0  0  0  0  0  0
  -25.5922  -11.4514   -8.3976 N   0  0  0  0  0  0  0  0  0  0  0  0
  -24.7843  -10.9378   -8.7264 H   0  0  0  0  0  0  0  0  0  0  0  0
  -25.8634  -11.4192   -6.9697 C   0  0  0  0  0  0  0  0  0  0  0  0
  -24.5801  -11.2312   -6.1008 C   0  0  0  0  0  0  0  0  0  0  0  0
  -24.5891  -12.3486   -5.0205 C   0  0  0  0  0  0  0  0  0  0  0  0
  -24.5063   -9.8850   -5.3525 C   0  0  0  0  0  0  0  0  0  0  0  0
  -23.2704  -11.4190   -6.9487 C   0  0  0  0  0  0  0  0  0  0  0  0
  -21.1888  -12.3293   -6.1360 C   0  0  0  0  0  0  0  0  0  0  0  0
  -21.9389  -11.0922   -6.3850 N   0  0  0  0  0  0  0  0  0  0  0  0
  -21.1268  -10.2082   -7.2151 C   0  0  0  0  0  0  0  0  0  0  0  0
 43 44  1  0  0  0
 44 45  1  0  0  0
 44 42  1  0  0  0
 42 39  1  0  0  0
 39 40  1  0  0  0
 39 41  1  0  0  0
 39 38  1  0  0  0
 38 36  1  0  0  0
 36 30  1  0  0  0
 36 37  1  0  0  0
 30 31  1  0  0  0
 30 35  2  0  0  0
 31 32  2  0  0  0
 32 33  1  0  0  0
 33 34  2  0  0  0
 34 24  1  0  0  0
 34 35  1  0  0  0
 24 25  1  0  0  0
 24 29  2  0  0  0
 25 26  2  0  0  0
 26 27  1  0  0  0
 27 28  2  0  0  0
 28 29  1  0  0  0
 29  1  1  0  0  0
  1  2  1  0  0  0
  2  3  1  0  0  0
  2 11  2  0  0  0
  3  4  2  0  0  0
  4  5  1  0  0  0
  5 12  1  0  0  0
  5  6  2  0  0  0
 12 14  1  0  0  0
 12 13  1  0  0  0
 14 15  2  0  0  0
 14 22  1  0  0  0
 15 16  1  0  0  0
 16 17  1  0  0  0
 16 21  2  0  0  0
 17 18  2  0  0  0
 18 19  1  0  0  0
 19 20  2  0  0  0
 20 21  1  0  0  0
 21 22  1  0  0  0
 22 23  1  0  0  0
  6  7  1  0  0  0
  6 11  1  0  0  0
  7  8  2  0  0  0
  8  9  1  0  0  0
  9 10  2  0  0  0
 10 11  1  0  0  0
M  END
> <minimizedAffinity>
-9.24626

$$$$
