CHEMBL3774430


 25 28  0  0  0  0  0  0  0  0999 V2000
  -28.2223   -1.6515   -5.4278 C   0  0  0  0  0  0  0  0  0  0  0  0
  -29.0936   -2.1794   -4.4604 C   0  0  0  0  0  0  0  0  0  0  0  0
  -29.7397   -3.4039   -4.6161 C   0  0  0  0  0  0  0  0  0  0  0  0
  -30.4727   -3.8573   -3.5984 N   0  0  0  0  0  0  0  0  0  0  0  0
  -31.0400   -5.0496   -3.7596 C   0  0  0  0  0  0  0  0  0  0  0  0
  -30.9221   -5.8363   -4.8326 N   0  0  0  0  0  0  0  0  0  0  0  0
  -30.1844   -5.3931   -5.8728 C   0  0  0  0  0  0  0  0  0  0  0  0
  -29.5845   -4.1085   -5.8147 C   0  0  0  0  0  0  0  0  0  0  0  0
  -28.8598   -3.4697   -6.8419 C   0  0  0  0  0  0  0  0  0  0  0  0
  -28.1255   -2.2981   -6.6545 C   0  0  0  0  0  0  0  0  0  0  0  0
  -30.0157   -6.2737   -6.9637 N   0  0  0  0  0  0  0  0  0  0  0  0
  -28.6914   -6.5036   -7.5746 C   0  0  0  0  0  0  0  0  0  0  0  0
  -28.6995   -7.8177   -8.3588 C   0  0  0  0  0  0  0  0  0  0  0  0
  -30.0752   -8.3181   -8.1232 C   0  0  0  0  0  0  0  0  0  0  0  0
  -30.6611   -9.4755   -8.6013 C   0  0  0  0  0  0  0  0  0  0  0  0
  -30.0129  -10.3379   -9.4305 O   0  0  0  0  0  0  0  0  0  0  0  0
  -31.9634   -9.7760   -8.2292 C   0  0  0  0  0  0  0  0  0  0  0  0
  -32.6682   -8.9073   -7.3885 C   0  0  0  0  0  0  0  0  0  0  0  0
  -32.0743   -7.7268   -6.9248 C   0  0  0  0  0  0  0  0  0  0  0  0
  -30.7702   -7.4286   -7.2972 C   0  0  0  0  0  0  0  0  0  0  0  0
  -29.1418   -9.9687   -9.6473 H   0  0  0  0  0  0  0  0  0  0  0  0
  -28.2792    0.6682   -4.9656 C   0  0  0  0  0  0  0  0  0  0  0  0
  -27.5062   -0.5064   -5.2133 O   0  0  0  0  0  0  0  0  0  0  0  0
  -27.3804   -2.0073   -7.7591 O   0  0  0  0  0  0  0  0  0  0  0  0
  -27.9905   -1.9702   -9.0360 C   0  0  0  0  0  0  0  0  0  0  0  0
 22 23  1  0  0  0
 23  1  1  0  0  0
  1  2  1  0  0  0
  1 10  2  0  0  0
  2  3  2  0  0  0
  3  4  1  0  0  0
  3  8  1  0  0  0
  4  5  2  0  0  0
  5  6  1  0  0  0
  6  7  2  0  0  0
  7 11  1  0  0  0
  7  8  1  0  0  0
 11 12  1  0  0  0
 11 20  1  0  0  0
 12 13  1  0  0  0
 13 14  1  0  0  0
 14 15  1  0  0  0
 14 20  2  0  0  0
 15 16  1  0  0  0
 15 17  2  0  0  0
 16 21  1  0  0  0
 17 18  1  0  0  0
 18 19  2  0  0  0
 19 20  1  0  0  0
  8  9  2  0  0  0
  9 10  1  0  0  0
 10 24  1  0  0  0
 24 25  1  0  0  0
M  END
> <minimizedAffinity>
-8.95704

$$$$
