CHEMBL234205


 27 29  0  0  0  0  0  0  0  0999 V2000
  -25.1755   -1.5595  -10.1053 O   0  0  0  0  0  0  0  0  0  0  0  0
  -26.1940   -1.6648  -10.7857 C   0  0  0  0  0  0  0  0  0  0  0  0
  -27.4641   -1.9232  -10.2872 N   0  0  0  0  0  0  0  0  0  0  0  0
  -28.1787   -2.0934  -10.9896 H   0  0  0  0  0  0  0  0  0  0  0  0
  -27.8192   -2.1423   -8.9384 C   0  0  0  0  0  0  0  0  0  0  0  0
  -28.2504   -3.3763   -8.4508 C   0  0  0  0  0  0  0  0  0  0  0  0
  -28.6772   -3.5141   -7.1253 C   0  0  0  0  0  0  0  0  0  0  0  0
  -28.6835   -2.4162   -6.2567 C   0  0  0  0  0  0  0  0  0  0  0  0
  -28.1945   -1.1895   -6.7289 C   0  0  0  0  0  0  0  0  0  0  0  0
  -27.7532   -1.0578   -8.0533 C   0  0  0  0  0  0  0  0  0  0  0  0
  -29.2268   -2.5403   -4.8530 C   0  0  0  0  0  0  0  0  0  0  0  0
  -30.1329   -3.5475   -4.7063 F   0  0  0  0  0  0  0  0  0  0  0  0
  -28.2534   -2.7768   -3.9313 F   0  0  0  0  0  0  0  0  0  0  0  0
  -29.8634   -1.4078   -4.4426 F   0  0  0  0  0  0  0  0  0  0  0  0
  -26.1537   -1.5784  -12.2270 C   0  0  0  0  0  0  0  0  0  0  0  0
  -27.1437   -1.9709  -13.0102 N   0  0  0  0  0  0  0  0  0  0  0  0
  -26.7203   -1.7677  -14.2965 N   0  0  0  0  0  0  0  0  0  0  0  0
  -25.4908   -1.2785  -14.3195 N   0  0  0  0  0  0  0  0  0  0  0  0
  -25.1313   -1.1337  -13.0295 N   0  0  0  0  0  0  0  0  0  0  0  0
  -23.7987   -0.6684  -12.6839 C   0  0  0  0  0  0  0  0  0  0  0  0
  -22.8399   -0.6105  -13.8844 C   0  0  0  0  0  0  0  0  0  0  0  0
  -22.1567    0.7206  -14.0968 C   0  0  0  0  0  0  0  0  0  0  0  0
  -20.8927    0.7836  -14.6957 C   0  0  0  0  0  0  0  0  0  0  0  0
  -20.3306    2.0269  -14.9514 C   0  0  0  0  0  0  0  0  0  0  0  0
  -20.9317    3.1965  -14.6528 N   0  0  0  0  0  0  0  0  0  0  0  0
  -22.1504    3.1187  -14.0789 C   0  0  0  0  0  0  0  0  0  0  0  0
  -22.7948    1.9240  -13.7850 C   0  0  0  0  0  0  0  0  0  0  0  0
  1  2  2  0  0  0
  2  3  1  0  0  0
  2 15  1  0  0  0
  3  5  1  0  0  0
  3  4  1  0  0  0
  5  6  1  0  0  0
  5 10  2  0  0  0
  6  7  2  0  0  0
  7  8  1  0  0  0
  8 11  1  0  0  0
  8  9  2  0  0  0
 11 12  1  0  0  0
 11 13  1  0  0  0
 11 14  1  0  0  0
  9 10  1  0  0  0
 15 16  2  0  0  0
 15 19  1  0  0  0
 16 17  1  0  0  0
 17 18  2  0  0  0
 18 19  1  0  0  0
 19 20  1  0  0  0
 20 21  1  0  0  0
 21 22  1  0  0  0
 22 23  1  0  0  0
 22 27  2  0  0  0
 23 24  2  0  0  0
 24 25  1  0  0  0
 25 26  2  0  0  0
 26 27  1  0  0  0
M  END
> <minimizedAffinity>
-9.53642

$$$$
