CHEMBL3671475


 37 40  0  0  0  0  0  0  0  0999 V2000
  -28.6413   -5.8831   -7.4053 C   0  0  0  0  0  0  0  0  0  0  0  0
  -28.3696   -4.7652   -8.1934 C   0  0  0  0  0  0  0  0  0  0  0  0
  -28.2533   -3.4804   -7.6447 C   0  0  0  0  0  0  0  0  0  0  0  0
  -28.0354   -2.3351   -8.4219 C   0  0  0  0  0  0  0  0  0  0  0  0
  -27.8859   -1.1224   -7.8695 N   0  0  0  0  0  0  0  0  0  0  0  0
  -28.0167   -1.0599   -6.5391 C   0  0  0  0  0  0  0  0  0  0  0  0
  -28.2354   -2.0928   -5.7072 N   0  0  0  0  0  0  0  0  0  0  0  0
  -28.3488   -3.3017   -6.2692 C   0  0  0  0  0  0  0  0  0  0  0  0
  -28.5588   -4.4353   -5.4762 C   0  0  0  0  0  0  0  0  0  0  0  0
  -28.6985   -5.7333   -6.0107 C   0  0  0  0  0  0  0  0  0  0  0  0
  -30.1253   -7.6832   -8.0360 C   0  0  0  0  0  0  0  0  0  0  0  0
  -31.1161   -7.2132   -7.4880 O   0  0  0  0  0  0  0  0  0  0  0  0
  -28.8832   -7.0703   -8.1303 N   0  0  0  0  0  0  0  0  0  0  0  0
  -28.1073   -7.6559   -8.3923 H   0  0  0  0  0  0  0  0  0  0  0  0
  -29.1949   -9.3977   -9.4860 C   0  0  0  0  0  0  0  0  0  0  0  0
  -30.1189   -9.0591   -8.5790 C   0  0  0  0  0  0  0  0  0  0  0  0
  -27.9781   -2.4743   -9.8250 N   0  0  0  0  0  0  0  0  0  0  0  0
  -28.8719   -2.7428  -10.2280 H   0  0  0  0  0  0  0  0  0  0  0  0
  -27.0747   -1.9283  -10.7491 C   0  0  0  0  0  0  0  0  0  0  0  0
  -25.7800   -1.5473  -10.3845 C   0  0  0  0  0  0  0  0  0  0  0  0
  -24.8473   -1.1746  -11.3565 C   0  0  0  0  0  0  0  0  0  0  0  0
  -25.2112   -1.1664  -12.7027 C   0  0  0  0  0  0  0  0  0  0  0  0
  -23.9157   -0.7648  -14.0183 Br  0  0  0  0  0  0  0  0  0  0  0  0
  -26.5085   -1.4881  -13.0856 C   0  0  0  0  0  0  0  0  0  0  0  0
  -27.4206   -1.8719  -12.1079 C   0  0  0  0  0  0  0  0  0  0  0  0
  -28.6615   -2.2213  -12.4849 F   0  0  0  0  0  0  0  0  0  0  0  0
  -28.9597   -6.6692   -5.0335 O   0  0  0  0  0  0  0  0  0  0  0  0
  -27.8470   -7.3070   -4.4326 C   0  0  0  0  0  0  0  0  0  0  0  0
  -28.0640   -8.8005   -4.1533 C   0  0  0  0  0  0  0  0  0  0  0  0
  -26.7803   -9.3751   -3.5086 C   0  0  0  0  0  0  0  0  0  0  0  0
  -25.6407   -9.4848   -4.5251 C   0  0  0  0  0  0  0  0  0  0  0  0
  -26.0747  -10.3032   -5.6493 N   0  0  0  0  0  0  0  0  0  0  0  0
  -25.6177  -11.5714   -5.9662 C   0  0  0  0  0  0  0  0  0  0  0  0
  -24.5174  -12.2004   -5.1442 C   0  0  0  0  0  0  0  0  0  0  0  0
  -26.0777  -12.2149   -6.9124 O   0  0  0  0  0  0  0  0  0  0  0  0
  -27.2392   -9.7739   -6.3676 C   0  0  0  0  0  0  0  0  0  0  0  0
  -28.4261   -9.6064   -5.4131 C   0  0  0  0  0  0  0  0  0  0  0  0
 15 16  2  0  0  0
 16 11  1  0  0  0
 11 12  2  0  0  0
 11 13  1  0  0  0
 13  1  1  0  0  0
 13 14  1  0  0  0
  1  2  1  0  0  0
  1 10  2  0  0  0
  2  3  2  0  0  0
  3  4  1  0  0  0
  3  8  1  0  0  0
  4 17  1  0  0  0
  4  5  2  0  0  0
 17 19  1  0  0  0
 17 18  1  0  0  0
 19 20  1  0  0  0
 19 25  2  0  0  0
 20 21  2  0  0  0
 21 22  1  0  0  0
 22 23  1  0  0  0
 22 24  2  0  0  0
 24 25  1  0  0  0
 25 26  1  0  0  0
  5  6  1  0  0  0
  6  7  2  0  0  0
  7  8  1  0  0  0
  8  9  2  0  0  0
  9 10  1  0  0  0
 10 27  1  0  0  0
 27 28  1  0  0  0
 28 29  1  0  0  0
 29 30  1  0  0  0
 29 37  1  0  0  0
 30 31  1  0  0  0
 31 32  1  0  0  0
 32 33  1  0  0  0
 32 36  1  0  0  0
 33 34  1  0  0  0
 33 35  2  0  0  0
 36 37  1  0  0  0
M  END
> <minimizedAffinity>
-8.90480

$$$$
