CHEMBL173799


 34 38  0  0  0  0  0  0  0  0999 V2000
  -31.1410   -8.5381   -7.0142 C   0  0  0  0  0  0  0  0  0  0  0  0
  -30.6160   -7.2715   -6.7712 C   0  0  0  0  0  0  0  0  0  0  0  0
  -29.5388   -7.0849   -5.8952 C   0  0  0  0  0  0  0  0  0  0  0  0
  -29.0694   -5.8156   -5.5311 C   0  0  0  0  0  0  0  0  0  0  0  0
  -27.9992   -5.6526   -4.7501 N   0  0  0  0  0  0  0  0  0  0  0  0
  -27.3903   -6.7680   -4.3411 C   0  0  0  0  0  0  0  0  0  0  0  0
  -27.7813   -8.0296   -4.5840 N   0  0  0  0  0  0  0  0  0  0  0  0
  -28.8633   -8.1799   -5.3641 C   0  0  0  0  0  0  0  0  0  0  0  0
  -29.3182   -9.4583   -5.6973 C   0  0  0  0  0  0  0  0  0  0  0  0
  -30.4332   -9.6461   -6.5344 C   0  0  0  0  0  0  0  0  0  0  0  0
  -33.5379   -8.4854   -6.9898 C   0  0  0  0  0  0  0  0  0  0  0  0
  -32.3136   -8.7149   -7.6921 O   0  0  0  0  0  0  0  0  0  0  0  0
  -29.7833   -4.6646   -6.0031 N   0  0  0  0  0  0  0  0  0  0  0  0
  -30.7337   -4.6812   -5.6374 H   0  0  0  0  0  0  0  0  0  0  0  0
  -29.2481   -3.3621   -5.9891 C   0  0  0  0  0  0  0  0  0  0  0  0
  -29.4189   -2.4619   -4.9126 C   0  0  0  0  0  0  0  0  0  0  0  0
  -30.1357   -3.0025   -3.2301 Br  0  0  0  0  0  0  0  0  0  0  0  0
  -28.9818   -1.1279   -5.0033 C   0  0  0  0  0  0  0  0  0  0  0  0
  -28.3248   -0.6718   -6.1438 C   0  0  0  0  0  0  0  0  0  0  0  0
  -28.0838   -1.5787   -7.1501 C   0  0  0  0  0  0  0  0  0  0  0  0
  -28.5208   -2.8836   -7.0788 C   0  0  0  0  0  0  0  0  0  0  0  0
  -28.1679   -3.5979   -8.1880 O   0  0  0  0  0  0  0  0  0  0  0  0
  -27.4084   -2.6086   -8.9221 C   0  0  0  0  0  0  0  0  0  0  0  0
  -27.4169   -1.3088   -8.3027 O   0  0  0  0  0  0  0  0  0  0  0  0
  -30.7123  -10.9657   -6.8086 O   0  0  0  0  0  0  0  0  0  0  0  0
  -29.5699  -11.7708   -7.1213 C   0  0  0  0  0  0  0  0  0  0  0  0
  -29.6192  -12.2259   -8.5806 C   0  0  0  0  0  0  0  0  0  0  0  0
  -28.5864  -11.4846   -9.4278 C   0  0  0  0  0  0  0  0  0  0  0  0
  -29.0161  -10.1580   -9.9057 N   0  0  0  0  0  0  0  0  0  0  0  0
  -28.7858  -10.0462  -11.3661 C   0  0  0  0  0  0  0  0  0  0  0  0
  -27.2923   -9.9895  -11.7227 C   0  0  0  0  0  0  0  0  0  0  0  0
  -26.6787   -8.8388  -11.1344 O   0  0  0  0  0  0  0  0  0  0  0  0
  -26.8731   -8.7758   -9.7150 C   0  0  0  0  0  0  0  0  0  0  0  0
  -28.3304   -9.0141   -9.2708 C   0  0  0  0  0  0  0  0  0  0  0  0
 11 12  1  0  0  0
 12  1  1  0  0  0
  1  2  1  0  0  0
  1 10  2  0  0  0
  2  3  2  0  0  0
  3  4  1  0  0  0
  3  8  1  0  0  0
  4 13  1  0  0  0
  4  5  2  0  0  0
 13 15  1  0  0  0
 13 14  1  0  0  0
 15 16  1  0  0  0
 15 21  2  0  0  0
 16 17  1  0  0  0
 16 18  2  0  0  0
 18 19  1  0  0  0
 19 20  2  0  0  0
 20 21  1  0  0  0
 20 24  1  0  0  0
 21 22  1  0  0  0
 22 23  1  0  0  0
 23 24  1  0  0  0
  5  6  1  0  0  0
  6  7  2  0  0  0
  7  8  1  0  0  0
  8  9  2  0  0  0
  9 10  1  0  0  0
 10 25  1  0  0  0
 25 26  1  0  0  0
 26 27  1  0  0  0
 27 28  1  0  0  0
 28 29  1  0  0  0
 29 30  1  0  0  0
 29 34  1  0  0  0
 30 31  1  0  0  0
 31 32  1  0  0  0
 32 33  1  0  0  0
 33 34  1  0  0  0
M  END
> <minimizedAffinity>
-7.46312

$$$$
