CHEMBL71722


 30 33  0  0  0  0  0  0  0  0999 V2000
  -25.6214   11.6053  -15.0375 N   0  0  0  0  0  0  0  0  0  0  0  0
  -26.9692   11.4303  -15.2189 C   0  0  0  0  0  0  0  0  0  0  0  0
  -27.6166   11.6985  -14.0267 C   0  0  0  0  0  0  0  0  0  0  0  0
  -26.6009   12.0255  -13.0636 C   0  0  0  0  0  0  0  0  0  0  0  0
  -26.5362   12.3668  -11.6971 C   0  0  0  0  0  0  0  0  0  0  0  0
  -27.6247   12.4134  -10.8349 N   0  0  0  0  0  0  0  0  0  0  0  0
  -25.3406   12.6590  -11.1481 N   0  0  0  0  0  0  0  0  0  0  0  0
  -24.2486   12.5973  -11.9268 C   0  0  0  0  0  0  0  0  0  0  0  0
  -24.1708   12.2528  -13.2212 N   0  0  0  0  0  0  0  0  0  0  0  0
  -25.3806   11.9794  -13.7398 C   0  0  0  0  0  0  0  0  0  0  0  0
  -28.3341   11.7197  -11.0358 H   0  0  0  0  0  0  0  0  0  0  0  0
  -27.3121   12.4561   -9.8720 H   0  0  0  0  0  0  0  0  0  0  0  0
  -29.0678   11.6382  -13.9198 C   0  0  0  0  0  0  0  0  0  0  0  0
  -29.6900   10.5909  -13.2268 C   0  0  0  0  0  0  0  0  0  0  0  0
  -31.0793   10.5391  -13.1129 C   0  0  0  0  0  0  0  0  0  0  0  0
  -31.8591   11.5894  -13.5993 C   0  0  0  0  0  0  0  0  0  0  0  0
  -31.2559   12.6050  -14.3370 C   0  0  0  0  0  0  0  0  0  0  0  0
  -29.8732   12.6067  -14.5261 C   0  0  0  0  0  0  0  0  0  0  0  0
  -33.2219   11.6958  -13.4479 O   0  0  0  0  0  0  0  0  0  0  0  0
  -33.9894   10.5578  -13.3327 C   0  0  0  0  0  0  0  0  0  0  0  0
  -34.2570    9.7060  -14.4149 C   0  0  0  0  0  0  0  0  0  0  0  0
  -35.1007    8.6077  -14.2547 C   0  0  0  0  0  0  0  0  0  0  0  0
  -35.6231    8.3107  -12.9986 C   0  0  0  0  0  0  0  0  0  0  0  0
  -35.2900    9.1048  -11.8984 C   0  0  0  0  0  0  0  0  0  0  0  0
  -34.4728   10.2321  -12.0573 C   0  0  0  0  0  0  0  0  0  0  0  0
  -34.1439   11.0295  -10.9087 C   0  0  0  0  0  0  0  0  0  0  0  0
  -33.8646   11.6918   -9.9973 N   0  0  0  0  0  0  0  0  0  0  0  0
  -24.8764   10.1519  -16.8903 C   0  0  0  0  0  0  0  0  0  0  0  0
  -24.6193   11.4302  -16.0882 C   0  0  0  0  0  0  0  0  0  0  0  0
  -24.5643   12.6503  -17.0117 C   0  0  0  0  0  0  0  0  0  0  0  0
 28 29  1  0  0  0
 29 30  1  0  0  0
 29  1  1  0  0  0
  1  2  1  0  0  0
  1 10  1  0  0  0
  2  3  2  0  0  0
  3 13  1  0  0  0
  3  4  1  0  0  0
 13 14  1  0  0  0
 13 18  2  0  0  0
 14 15  2  0  0  0
 15 16  1  0  0  0
 16 19  1  0  0  0
 16 17  2  0  0  0
 19 20  1  0  0  0
 20 21  1  0  0  0
 20 25  2  0  0  0
 21 22  2  0  0  0
 22 23  1  0  0  0
 23 24  2  0  0  0
 24 25  1  0  0  0
 25 26  1  0  0  0
 26 27  3  0  0  0
 17 18  1  0  0  0
  4  5  1  0  0  0
  4 10  2  0  0  0
  5  6  1  0  0  0
  5  7  2  0  0  0
  6 11  1  0  0  0
  6 12  1  0  0  0
  7  8  1  0  0  0
  8  9  2  0  0  0
  9 10  1  0  0  0
M  END
> <minimizedAffinity>
-5.70446

$$$$
