CHEMBL3933421


 46 49  0  0  0  0  0  0  0  0999 V2000
  -13.9737    5.1936  -18.3813 C   0  0  0  0  0  0  0  0  0  0  0  0
  -13.9394    4.0147  -19.1178 C   0  0  0  0  0  0  0  0  0  0  0  0
  -13.4742    2.8327  -18.6435 N   0  0  0  0  0  0  0  0  0  0  0  0
  -13.0182    2.8310  -17.3676 C   0  0  0  0  0  0  0  0  0  0  0  0
  -13.0101    3.9563  -16.5576 C   0  0  0  0  0  0  0  0  0  0  0  0
  -13.5100    5.1595  -17.0703 C   0  0  0  0  0  0  0  0  0  0  0  0
  -14.8429    7.4543  -19.3913 C   0  0  0  0  0  0  0  0  0  0  0  0
  -14.4818    6.4014  -18.9566 C   0  0  0  0  0  0  0  0  0  0  0  0
  -16.6824   10.6379  -20.1684 C   0  0  0  0  0  0  0  0  0  0  0  0
  -15.6510   11.3405  -20.7995 C   0  0  0  0  0  0  0  0  0  0  0  0
  -14.3984   10.7638  -20.9985 C   0  0  0  0  0  0  0  0  0  0  0  0
  -14.1536    9.4762  -20.5422 C   0  0  0  0  0  0  0  0  0  0  0  0
  -15.1480    8.7804  -19.8488 C   0  0  0  0  0  0  0  0  0  0  0  0
  -16.4074    9.3659  -19.6421 C   0  0  0  0  0  0  0  0  0  0  0  0
  -19.0526   10.8696  -20.9243 C   0  0  0  0  0  0  0  0  0  0  0  0
  -18.9876   10.0945  -21.8765 O   0  0  0  0  0  0  0  0  0  0  0  0
  -17.9915   11.1624  -20.0669 N   0  0  0  0  0  0  0  0  0  0  0  0
  -18.2358   11.6928  -19.2381 H   0  0  0  0  0  0  0  0  0  0  0  0
  -20.5055   11.1703  -18.0234 C   0  0  0  0  0  0  0  0  0  0  0  0
  -20.9486   11.6718  -19.3541 C   0  0  0  0  0  0  0  0  0  0  0  0
  -22.1341   12.4066  -19.6282 C   0  0  0  0  0  0  0  0  0  0  0  0
  -22.1387   12.6590  -20.9795 C   0  0  0  0  0  0  0  0  0  0  0  0
  -21.0312   12.1406  -21.5643 O   0  0  0  0  0  0  0  0  0  0  0  0
  -20.3017   11.5296  -20.5783 C   0  0  0  0  0  0  0  0  0  0  0  0
  -12.4827    3.8777  -15.1774 C   0  0  0  0  0  0  0  0  0  0  0  0
  -12.6659    4.8563  -14.4580 O   0  0  0  0  0  0  0  0  0  0  0  0
  -11.7231    2.7705  -14.7561 N   0  0  0  0  0  0  0  0  0  0  0  0
  -12.3831    1.7821  -13.7779 S   0  0  0  0  0  0  0  0  0  0  0  0
  -12.3503    2.5308  -12.1596 C   0  0  0  0  0  0  0  0  0  0  0  0
  -13.7238    1.2877  -14.0132 O   0  0  0  0  0  0  0  0  0  0  0  0
  -11.2566    0.3824  -13.6090 C   0  0  0  0  0  0  0  0  0  0  0  0
  -11.5789   -0.8012  -14.5196 C   0  0  0  0  0  0  0  0  0  0  0  0
  -12.1628   -1.9933  -13.7540 C   0  0  0  0  0  0  0  0  0  0  0  0
  -13.4207   -2.5335  -14.2956 N   0  0  0  0  0  0  0  0  0  0  0  0
  -14.4547   -2.4820  -13.2194 C   0  0  0  0  0  0  0  0  0  0  0  0
  -14.2788   -3.5299  -12.0783 C   0  0  0  0  0  0  0  0  0  0  0  0
  -14.1026   -4.9258  -12.5454 N   0  0  0  0  0  0  0  0  0  0  0  0
  -13.0355   -4.9372  -13.5678 C   0  0  0  0  0  0  0  0  0  0  0  0
  -13.2880   -3.9435  -14.7270 C   0  0  0  0  0  0  0  0  0  0  0  0
  -15.3745   -5.4696  -13.0605 C   0  0  0  0  0  0  0  0  0  0  0  0
  -15.1798   -6.7690  -13.8506 C   0  0  0  0  0  0  0  0  0  0  0  0
  -15.1162   -7.8866  -12.9629 O   0  0  0  0  0  0  0  0  0  0  0  0
  -13.9863   -8.7031  -13.3023 C   0  0  0  0  0  0  0  0  0  0  0  0
  -12.9561   -8.5930  -12.1901 C   0  0  0  0  0  0  0  0  0  0  0  0
  -13.4860   -7.8330  -11.1062 O   0  0  0  0  0  0  0  0  0  0  0  0
  -13.7809   -6.9907  -11.5033 H   0  0  0  0  0  0  0  0  0  0  0  0
 19 20  1  0  0  0
 20 21  1  0  0  0
 20 24  2  0  0  0
 21 22  2  0  0  0
 22 23  1  0  0  0
 23 24  1  0  0  0
 24 15  1  0  0  0
 15 16  2  0  0  0
 15 17  1  0  0  0
 17  9  1  0  0  0
 17 18  1  0  0  0
  9 10  1  0  0  0
  9 14  2  0  0  0
 10 11  2  0  0  0
 11 12  1  0  0  0
 12 13  2  0  0  0
 13  7  1  0  0  0
 13 14  1  0  0  0
  7  8  3  0  0  0
  8  1  1  0  0  0
  1  2  1  0  0  0
  1  6  2  0  0  0
  2  3  2  0  0  0
  3  4  1  0  0  0
  4  5  2  0  0  0
  5 25  1  0  0  0
  5  6  1  0  0  0
 25 26  2  0  0  0
 25 27  1  0  0  0
 27 28  2  0  0  0
 28 29  1  0  0  0
 28 30  2  0  0  0
 28 31  1  0  0  0
 31 32  1  0  0  0
 32 33  1  0  0  0
 33 34  1  0  0  0
 34 35  1  0  0  0
 34 39  1  0  0  0
 35 36  1  0  0  0
 36 37  1  0  0  0
 37 40  1  0  0  0
 37 38  1  0  0  0
 40 41  1  0  0  0
 41 42  1  0  0  0
 42 43  1  0  0  0
 43 44  1  0  0  0
 44 45  1  0  0  0
 45 46  1  0  0  0
 38 39  1  0  0  0
M  END
> <minimizedAffinity>
-5.73537

$$$$
