CHEMBL1076474


 47 52  0  0  0  0  0  0  0  0999 V2000
  -27.9004   -1.7831   -9.2539 C   0  0  0  0  0  0  0  0  0  0  0  0
  -28.6183   -0.7140   -8.9430 N   0  0  0  0  0  0  0  0  0  0  0  0
  -28.2691   -0.5129   -7.6269 C   0  0  0  0  0  0  0  0  0  0  0  0
  -28.2829    0.6662   -6.8735 C   0  0  0  0  0  0  0  0  0  0  0  0
  -27.7774    0.6313   -5.5700 C   0  0  0  0  0  0  0  0  0  0  0  0
  -27.3433   -0.5715   -5.0042 C   0  0  0  0  0  0  0  0  0  0  0  0
  -27.3790   -1.7741   -5.7216 C   0  0  0  0  0  0  0  0  0  0  0  0
  -27.7915   -1.7043   -7.0579 C   0  0  0  0  0  0  0  0  0  0  0  0
  -27.9531   -2.6068   -8.1190 N   0  0  0  0  0  0  0  0  0  0  0  0
  -28.3608   -3.9654   -8.0256 C   0  0  0  0  0  0  0  0  0  0  0  0
  -29.4706   -4.2826   -7.2445 C   0  0  0  0  0  0  0  0  0  0  0  0
  -29.7344   -5.6232   -7.0337 C   0  0  0  0  0  0  0  0  0  0  0  0
  -28.9988   -6.5748   -7.6304 N   0  0  0  0  0  0  0  0  0  0  0  0
  -27.9667   -6.1780   -8.3895 C   0  0  0  0  0  0  0  0  0  0  0  0
  -27.5797   -4.9121   -8.5911 N   0  0  0  0  0  0  0  0  0  0  0  0
  -30.7593   -6.1153   -6.2512 N   0  0  0  0  0  0  0  0  0  0  0  0
  -31.3537   -6.6982   -6.8380 H   0  0  0  0  0  0  0  0  0  0  0  0
  -30.6426   -6.5256   -4.8492 C   0  0  0  0  0  0  0  0  0  0  0  0
  -31.6927   -5.8970   -3.9372 C   0  0  0  0  0  0  0  0  0  0  0  0
  -31.4906   -4.3917   -3.7714 C   0  0  0  0  0  0  0  0  0  0  0  0
  -30.1508   -4.0462   -3.2786 N   0  0  0  0  0  0  0  0  0  0  0  0
  -29.9905   -2.5842   -3.3018 C   0  0  0  0  0  0  0  0  0  0  0  0
  -29.0598   -4.6770   -4.0306 C   0  0  0  0  0  0  0  0  0  0  0  0
  -29.2519   -6.1719   -4.3059 C   0  0  0  0  0  0  0  0  0  0  0  0
  -26.7067   -1.5484   -9.8702 N   0  0  0  0  0  0  0  0  0  0  0  0
  -26.1548   -0.9628   -9.2379 H   0  0  0  0  0  0  0  0  0  0  0  0
  -28.1555   -2.7151  -12.0226 C   0  0  0  0  0  0  0  0  0  0  0  0
  -26.9575   -1.8237  -12.2410 C   0  0  0  0  0  0  0  0  0  0  0  0
  -26.4566   -1.7157  -13.5368 C   0  0  0  0  0  0  0  0  0  0  0  0
  -25.3338   -0.9390  -13.7857 C   0  0  0  0  0  0  0  0  0  0  0  0
  -24.7085   -0.2317  -12.7562 C   0  0  0  0  0  0  0  0  0  0  0  0
  -25.2145   -0.3240  -11.4425 C   0  0  0  0  0  0  0  0  0  0  0  0
  -26.2966   -1.1687  -11.1649 C   0  0  0  0  0  0  0  0  0  0  0  0
  -23.5675    0.5733  -12.9952 N   0  0  0  0  0  0  0  0  0  0  0  0
  -22.4971    0.2459  -13.8244 C   0  0  0  0  0  0  0  0  0  0  0  0
  -22.3307   -0.8440  -14.3669 O   0  0  0  0  0  0  0  0  0  0  0  0
  -23.5098    1.4148  -12.4404 H   0  0  0  0  0  0  0  0  0  0  0  0
  -21.4416    1.2839  -14.0553 C   0  0  0  0  0  0  0  0  0  0  0  0
  -21.6766    2.6612  -13.9918 C   0  0  0  0  0  0  0  0  0  0  0  0
  -20.6397    3.5633  -14.2511 C   0  0  0  0  0  0  0  0  0  0  0  0
  -19.3619    3.1039  -14.5749 C   0  0  0  0  0  0  0  0  0  0  0  0
  -19.0981    1.7311  -14.6416 C   0  0  0  0  0  0  0  0  0  0  0  0
  -20.1484    0.8327  -14.3877 C   0  0  0  0  0  0  0  0  0  0  0  0
  -17.7187    1.2110  -14.9697 C   0  0  0  0  0  0  0  0  0  0  0  0
  -17.6744   -0.1426  -15.1254 F   0  0  0  0  0  0  0  0  0  0  0  0
  -17.2287    1.7320  -16.1283 F   0  0  0  0  0  0  0  0  0  0  0  0
  -16.8024    1.5040  -14.0070 F   0  0  0  0  0  0  0  0  0  0  0  0
 27 28  1  0  0  0
 28 29  1  0  0  0
 28 33  2  0  0  0
 29 30  2  0  0  0
 30 31  1  0  0  0
 31 34  1  0  0  0
 31 32  2  0  0  0
 34 35  1  0  0  0
 34 37  1  0  0  0
 35 36  2  0  0  0
 35 38  1  0  0  0
 38 39  1  0  0  0
 38 43  2  0  0  0
 39 40  2  0  0  0
 40 41  1  0  0  0
 41 42  2  0  0  0
 42 44  1  0  0  0
 42 43  1  0  0  0
 44 45  1  0  0  0
 44 46  1  0  0  0
 44 47  1  0  0  0
 32 33  1  0  0  0
 33 25  1  0  0  0
 25  1  1  0  0  0
 25 26  1  0  0  0
  1  2  2  0  0  0
  1  9  1  0  0  0
  2  3  1  0  0  0
  3  4  1  0  0  0
  3  8  2  0  0  0
  4  5  2  0  0  0
  5  6  1  0  0  0
  6  7  2  0  0  0
  7  8  1  0  0  0
  8  9  1  0  0  0
  9 10  1  0  0  0
 10 11  1  0  0  0
 10 15  2  0  0  0
 11 12  2  0  0  0
 12 16  1  0  0  0
 12 13  1  0  0  0
 16 18  1  0  0  0
 16 17  1  0  0  0
 18 19  1  0  0  0
 18 24  1  0  0  0
 19 20  1  0  0  0
 20 21  1  0  0  0
 21 22  1  0  0  0
 21 23  1  0  0  0
 23 24  1  0  0  0
 13 14  2  0  0  0
 14 15  1  0  0  0
M  END
> <minimizedAffinity>
-10.60374

$$$$
