CHEMBL2021941


 37 41  0  0  0  0  0  0  0  0999 V2000
  -14.9656    0.5783  -13.9583 C   0  0  0  0  0  0  0  0  0  0  0  0
  -13.6508    0.2789  -13.5946 C   0  0  0  0  0  0  0  0  0  0  0  0
  -13.2650   -1.0376  -13.3418 C   0  0  0  0  0  0  0  0  0  0  0  0
  -14.1974   -2.0869  -13.3976 C   0  0  0  0  0  0  0  0  0  0  0  0
  -15.5382   -1.7540  -13.6269 C   0  0  0  0  0  0  0  0  0  0  0  0
  -15.9202   -0.4352  -13.9285 C   0  0  0  0  0  0  0  0  0  0  0  0
  -13.7461   -3.4801  -13.2342 C   0  0  0  0  0  0  0  0  0  0  0  0
  -13.1304   -4.0977  -14.3043 C   0  0  0  0  0  0  0  0  0  0  0  0
  -12.7700   -5.7199  -14.0280 S   0  0  0  0  0  0  0  0  0  0  0  0
  -13.3066   -5.6637  -12.3849 C   0  0  0  0  0  0  0  0  0  0  0  0
  -13.2615   -6.7081  -11.4299 C   0  0  0  0  0  0  0  0  0  0  0  0
  -13.8146   -6.3984  -10.1989 C   0  0  0  0  0  0  0  0  0  0  0  0
  -14.3851   -5.2246   -9.8787 N   0  0  0  0  0  0  0  0  0  0  0  0
  -14.4357   -4.2328  -10.7883 C   0  0  0  0  0  0  0  0  0  0  0  0
  -15.1011   -3.1013  -10.3314 N   0  0  0  0  0  0  0  0  0  0  0  0
  -13.8668   -4.3980  -12.0856 C   0  0  0  0  0  0  0  0  0  0  0  0
  -15.5699   -3.3356   -9.4622 H   0  0  0  0  0  0  0  0  0  0  0  0
  -15.6971   -2.6811  -11.0338 H   0  0  0  0  0  0  0  0  0  0  0  0
  -12.6805   -8.0203  -11.6973 C   0  0  0  0  0  0  0  0  0  0  0  0
  -11.3558   -8.5110  -11.5085 C   0  0  0  0  0  0  0  0  0  0  0  0
  -11.3166   -9.8239  -11.9215 C   0  0  0  0  0  0  0  0  0  0  0  0
  -12.5754  -10.1721  -12.3224 N   0  0  0  0  0  0  0  0  0  0  0  0
  -13.4096   -9.0906  -12.1900 C   0  0  0  0  0  0  0  0  0  0  0  0
  -12.8492  -11.0847  -12.6635 H   0  0  0  0  0  0  0  0  0  0  0  0
  -15.1272    3.6833  -15.8451 N   0  0  0  0  0  0  0  0  0  0  0  0
  -14.6736    2.4135  -15.5216 C   0  0  0  0  0  0  0  0  0  0  0  0
  -13.8137    1.7990  -16.1488 O   0  0  0  0  0  0  0  0  0  0  0  0
  -15.3214    1.8729  -14.4173 N   0  0  0  0  0  0  0  0  0  0  0  0
  -15.6824    4.1664  -15.1483 H   0  0  0  0  0  0  0  0  0  0  0  0
  -16.2919    2.1331  -14.3231 H   0  0  0  0  0  0  0  0  0  0  0  0
  -12.0216    6.9305  -17.9693 C   0  0  0  0  0  0  0  0  0  0  0  0
  -13.2171    6.0263  -18.0402 C   0  0  0  0  0  0  0  0  0  0  0  0
  -13.9358    5.9334  -19.2353 C   0  0  0  0  0  0  0  0  0  0  0  0
  -15.0455    5.1066  -19.3149 C   0  0  0  0  0  0  0  0  0  0  0  0
  -15.4467    4.3669  -18.2056 C   0  0  0  0  0  0  0  0  0  0  0  0
  -14.7438    4.4232  -16.9941 C   0  0  0  0  0  0  0  0  0  0  0  0
  -13.6255    5.2680  -16.9241 C   0  0  0  0  0  0  0  0  0  0  0  0
 31 32  1  0  0  0
 32 33  1  0  0  0
 32 37  2  0  0  0
 33 34  2  0  0  0
 34 35  1  0  0  0
 35 36  2  0  0  0
 36 25  1  0  0  0
 36 37  1  0  0  0
 25 26  1  0  0  0
 25 29  1  0  0  0
 26 27  2  0  0  0
 26 28  1  0  0  0
 28  1  1  0  0  0
 28 30  1  0  0  0
  1  2  1  0  0  0
  1  6  2  0  0  0
  2  3  2  0  0  0
  3  4  1  0  0  0
  4  7  1  0  0  0
  4  5  2  0  0  0
  7  8  2  0  0  0
  7 16  1  0  0  0
  8  9  1  0  0  0
  9 10  1  0  0  0
 10 11  1  0  0  0
 10 16  2  0  0  0
 11 19  1  0  0  0
 11 12  2  0  0  0
 19 20  1  0  0  0
 19 23  2  0  0  0
 20 21  2  0  0  0
 21 22  1  0  0  0
 22 23  1  0  0  0
 22 24  1  0  0  0
 12 13  1  0  0  0
 13 14  2  0  0  0
 14 15  1  0  0  0
 14 16  1  0  0  0
 15 17  1  0  0  0
 15 18  1  0  0  0
  5  6  1  0  0  0
M  END
> <minimizedAffinity>
-7.33491

$$$$
