CHEMBL3628804


 25 27  0  0  0  0  0  0  0  0999 V2000
  -29.2373   -3.1244   -6.8585 C   0  0  0  0  0  0  0  0  0  0  0  0
  -28.7049   -3.8292   -7.9493 C   0  0  0  0  0  0  0  0  0  0  0  0
  -27.7379   -3.2679   -8.7800 C   0  0  0  0  0  0  0  0  0  0  0  0
  -27.3093   -1.9684   -8.5595 C   0  0  0  0  0  0  0  0  0  0  0  0
  -27.8301   -1.2467   -7.4797 C   0  0  0  0  0  0  0  0  0  0  0  0
  -28.7949   -1.8100   -6.6185 C   0  0  0  0  0  0  0  0  0  0  0  0
  -29.2827   -0.9816   -5.4607 C   0  0  0  0  0  0  0  0  0  0  0  0
  -29.9818   -4.5721   -4.9916 C   0  0  0  0  0  0  0  0  0  0  0  0
  -28.8995   -4.8426   -4.4919 O   0  0  0  0  0  0  0  0  0  0  0  0
  -30.2183   -3.7110   -6.0290 N   0  0  0  0  0  0  0  0  0  0  0  0
  -31.1948   -3.5129   -6.2049 H   0  0  0  0  0  0  0  0  0  0  0  0
  -31.1498   -5.1443   -4.5903 O   0  0  0  0  0  0  0  0  0  0  0  0
  -32.3591   -5.4308   -2.5370 C   0  0  0  0  0  0  0  0  0  0  0  0
  -31.8041   -4.4242   -3.5300 C   0  0  0  0  0  0  0  0  0  0  0  0
  -26.3141   -1.5144   -9.3953 O   0  0  0  0  0  0  0  0  0  0  0  0
  -26.5270   -1.5981  -10.7636 C   0  0  0  0  0  0  0  0  0  0  0  0
  -27.7959   -1.7329  -11.2006 N   0  0  0  0  0  0  0  0  0  0  0  0
  -27.9426   -1.7487  -12.5228 C   0  0  0  0  0  0  0  0  0  0  0  0
  -26.9608   -1.6532  -13.4300 N   0  0  0  0  0  0  0  0  0  0  0  0
  -25.7073   -1.5633  -12.9619 C   0  0  0  0  0  0  0  0  0  0  0  0
  -24.6622   -1.4671  -13.8689 C   0  0  0  0  0  0  0  0  0  0  0  0
  -23.3287   -1.3871  -13.4549 C   0  0  0  0  0  0  0  0  0  0  0  0
  -23.0211   -1.4096  -12.0993 C   0  0  0  0  0  0  0  0  0  0  0  0
  -24.0543   -1.4885  -11.1673 C   0  0  0  0  0  0  0  0  0  0  0  0
  -25.4055   -1.5543  -11.5975 C   0  0  0  0  0  0  0  0  0  0  0  0
 13 14  1  0  0  0
 14 12  1  0  0  0
 12  8  1  0  0  0
  8  9  2  0  0  0
  8 10  1  0  0  0
 10  1  1  0  0  0
 10 11  1  0  0  0
  1  2  1  0  0  0
  1  6  2  0  0  0
  2  3  2  0  0  0
  3  4  1  0  0  0
  4 15  1  0  0  0
  4  5  2  0  0  0
 15 16  1  0  0  0
 16 17  1  0  0  0
 16 25  2  0  0  0
 17 18  2  0  0  0
 18 19  1  0  0  0
 19 20  2  0  0  0
 20 21  1  0  0  0
 20 25  1  0  0  0
 21 22  2  0  0  0
 22 23  1  0  0  0
 23 24  2  0  0  0
 24 25  1  0  0  0
  5  6  1  0  0  0
  6  7  1  0  0  0
M  END
> <minimizedAffinity>
-8.68832

$$$$
