CHEMBL3944610


 35 38  0  0  0  0  0  0  0  0999 V2000
  -28.6799   -9.5826   -5.3576 N   0  0  0  0  0  0  0  0  0  0  0  0
  -28.5773   -8.2157   -4.8796 C   0  0  0  0  0  0  0  0  0  0  0  0
  -29.1297   -8.0128   -3.6270 C   0  0  0  0  0  0  0  0  0  0  0  0
  -29.6422   -6.7846   -3.2656 C   0  0  0  0  0  0  0  0  0  0  0  0
  -29.4568   -5.6723   -4.0538 C   0  0  0  0  0  0  0  0  0  0  0  0
  -30.1729   -4.6290   -3.6348 N   0  0  0  0  0  0  0  0  0  0  0  0
  -29.9395   -3.4562   -4.2354 C   0  0  0  0  0  0  0  0  0  0  0  0
  -28.9671   -3.3085   -5.1924 C   0  0  0  0  0  0  0  0  0  0  0  0
  -28.3113   -4.4134   -5.7229 N   0  0  0  0  0  0  0  0  0  0  0  0
  -28.6076   -5.6821   -5.1901 C   0  0  0  0  0  0  0  0  0  0  0  0
  -28.2279   -7.0332   -5.6112 C   0  0  0  0  0  0  0  0  0  0  0  0
  -28.5814   -1.9115   -5.4623 C   0  0  0  0  0  0  0  0  0  0  0  0
  -27.5395   -1.1347   -4.8808 C   0  0  0  0  0  0  0  0  0  0  0  0
  -27.6821    0.1841   -5.0866 N   0  0  0  0  0  0  0  0  0  0  0  0
  -28.8281    0.2698   -5.7802 N   0  0  0  0  0  0  0  0  0  0  0  0
  -29.2415    1.5274   -6.3621 C   0  0  0  0  0  0  0  0  0  0  0  0
  -29.4710   -0.9354   -5.8936 C   0  0  0  0  0  0  0  0  0  0  0  0
  -31.1097  -10.1595   -8.1831 C   0  0  0  0  0  0  0  0  0  0  0  0
  -30.3022  -10.8147   -9.1145 C   0  0  0  0  0  0  0  0  0  0  0  0
  -28.9810  -11.1089   -8.7941 C   0  0  0  0  0  0  0  0  0  0  0  0
  -28.4738  -10.7545   -7.5331 C   0  0  0  0  0  0  0  0  0  0  0  0
  -29.2493  -10.1054   -6.5548 C   0  0  0  0  0  0  0  0  0  0  0  0
  -30.5890   -9.8324   -6.9064 C   0  0  0  0  0  0  0  0  0  0  0  0
  -33.0521   -8.9743   -7.4328 C   0  0  0  0  0  0  0  0  0  0  0  0
  -32.4011   -9.7610   -8.4365 O   0  0  0  0  0  0  0  0  0  0  0  0
  -28.0719  -11.7001   -9.6336 O   0  0  0  0  0  0  0  0  0  0  0  0
  -27.1366  -10.8451  -10.2851 C   0  0  0  0  0  0  0  0  0  0  0  0
  -28.6899  -10.5056   -4.1537 C   0  0  0  0  0  0  0  0  0  0  0  0
  -27.6279  -11.6485   -4.0903 C   0  0  0  0  0  0  0  0  0  0  0  0
  -26.1940  -11.3571   -4.2969 N   0  0  0  0  0  0  0  0  0  0  0  0
  -26.0552  -11.0721   -5.2666 H   0  0  0  0  0  0  0  0  0  0  0  0
  -25.6611  -10.3225   -3.3962 C   0  0  0  0  0  0  0  0  0  0  0  0
  -25.0349   -9.1478   -4.1704 C   0  0  0  0  0  0  0  0  0  0  0  0
  -25.1938   -7.9260   -3.4552 O   0  0  0  0  0  0  0  0  0  0  0  0
  -26.1466   -7.7270   -3.4960 H   0  0  0  0  0  0  0  0  0  0  0  0
 24 25  1  0  0  0
 25 18  1  0  0  0
 18 19  1  0  0  0
 18 23  2  0  0  0
 19 20  2  0  0  0
 20 26  1  0  0  0
 20 21  1  0  0  0
 26 27  1  0  0  0
 21 22  2  0  0  0
 22  1  1  0  0  0
 22 23  1  0  0  0
  1 28  1  0  0  0
  1  2  1  0  0  0
 28 29  1  0  0  0
 29 30  1  0  0  0
 30 32  1  0  0  0
 30 31  1  0  0  0
 32 33  1  0  0  0
 33 34  1  0  0  0
 34 35  1  0  0  0
  2  3  1  0  0  0
  2 11  2  0  0  0
  3  4  2  0  0  0
  4  5  1  0  0  0
  5  6  1  0  0  0
  5 10  2  0  0  0
  6  7  2  0  0  0
  7  8  1  0  0  0
  8 12  1  0  0  0
  8  9  2  0  0  0
 12 13  1  0  0  0
 12 17  2  0  0  0
 13 14  2  0  0  0
 14 15  1  0  0  0
 15 16  1  0  0  0
 15 17  1  0  0  0
  9 10  1  0  0  0
 10 11  1  0  0  0
M  END
> <minimizedAffinity>
-7.22754

$$$$
