CHEMBL1995172


 14 16  0  0  0  0  0  0  0  0999 V2000
  -23.6385   -0.5265  -13.5437 Br  0  0  0  0  0  0  0  0  0  0  0  0
  -22.3422    0.7692  -14.0207 C   0  0  0  0  0  0  0  0  0  0  0  0
  -22.6978    2.1330  -14.0030 C   0  0  0  0  0  0  0  0  0  0  0  0
  -21.7696    3.1219  -14.3494 C   0  0  0  0  0  0  0  0  0  0  0  0
  -20.4942    2.7187  -14.7090 C   0  0  0  0  0  0  0  0  0  0  0  0
  -20.1605    1.3346  -14.7181 C   0  0  0  0  0  0  0  0  0  0  0  0
  -21.0601    0.3495  -14.3808 C   0  0  0  0  0  0  0  0  0  0  0  0
  -18.8016    1.2945  -15.1265 C   0  0  0  0  0  0  0  0  0  0  0  0
  -17.8106    0.4166  -15.3675 N   0  0  0  0  0  0  0  0  0  0  0  0
  -16.6712    1.0501  -15.7541 N   0  0  0  0  0  0  0  0  0  0  0  0
  -16.9950    2.3569  -15.7435 C   0  0  0  0  0  0  0  0  0  0  0  0
  -18.3196    2.5529  -15.3562 C   0  0  0  0  0  0  0  0  0  0  0  0
  -19.3202    3.6306  -15.1256 C   0  0  0  0  0  0  0  0  0  0  0  0
  -17.8091   -0.5953  -15.3005 H   0  0  0  0  0  0  0  0  0  0  0  0
  1  2  1  0  0  0
  2  3  1  0  0  0
  2  7  2  0  0  0
  3  4  2  0  0  0
  4  5  1  0  0  0
  5  6  2  0  0  0
  5 13  1  0  0  0
  6  7  1  0  0  0
  6  8  1  0  0  0
  8  9  1  0  0  0
  8 12  2  0  0  0
  9 10  1  0  0  0
  9 14  1  0  0  0
 10 11  2  0  0  0
 11 12  1  0  0  0
 12 13  1  0  0  0
M  END
> <minimizedAffinity>
-7.26984

$$$$
