CHEMBL3648078


 33 35  0  0  0  0  0  0  0  0999 V2000
  -30.5297   -7.4520   -7.4694 N   0  0  0  0  0  0  0  0  0  0  0  0
  -31.4077   -7.5238   -7.9615 H   0  0  0  0  0  0  0  0  0  0  0  0
  -28.1321  -10.0980   -7.1569 C   0  0  0  0  0  0  0  0  0  0  0  0
  -28.8620   -9.0010   -6.8424 N   0  0  0  0  0  0  0  0  0  0  0  0
  -29.6253   -8.4633   -7.8110 C   0  0  0  0  0  0  0  0  0  0  0  0
  -29.5968   -8.8717   -9.0874 N   0  0  0  0  0  0  0  0  0  0  0  0
  -28.8574   -9.9485   -9.3789 C   0  0  0  0  0  0  0  0  0  0  0  0
  -28.1409  -10.6385   -8.4374 C   0  0  0  0  0  0  0  0  0  0  0  0
  -27.2214  -12.2074   -8.9385 Br  0  0  0  0  0  0  0  0  0  0  0  0
  -27.3375  -10.7014   -6.1743 N   0  0  0  0  0  0  0  0  0  0  0  0
  -27.8958  -11.1197   -5.4321 H   0  0  0  0  0  0  0  0  0  0  0  0
  -25.0693  -11.1514   -5.5773 C   0  0  0  0  0  0  0  0  0  0  0  0
  -26.1225  -10.0349   -5.6978 C   0  0  0  0  0  0  0  0  0  0  0  0
  -26.3652   -9.2950   -4.3378 C   0  0  0  0  0  0  0  0  0  0  0  0
  -27.3698  -10.0613   -3.4621 C   0  0  0  0  0  0  0  0  0  0  0  0
  -25.0704   -9.1185   -3.5365 C   0  0  0  0  0  0  0  0  0  0  0  0
  -26.8789   -7.9716   -4.5722 O   0  0  0  0  0  0  0  0  0  0  0  0
  -27.7897   -8.0507   -4.8983 H   0  0  0  0  0  0  0  0  0  0  0  0
  -30.2042   -6.2219   -6.8784 C   0  0  0  0  0  0  0  0  0  0  0  0
  -29.6245   -5.1790   -7.6248 C   0  0  0  0  0  0  0  0  0  0  0  0
  -29.1210   -4.0282   -7.0160 C   0  0  0  0  0  0  0  0  0  0  0  0
  -29.2028   -3.9046   -5.6314 C   0  0  0  0  0  0  0  0  0  0  0  0
  -29.8444   -4.8886   -4.8725 C   0  0  0  0  0  0  0  0  0  0  0  0
  -30.3484   -6.0410   -5.4978 C   0  0  0  0  0  0  0  0  0  0  0  0
  -28.5149   -2.4638   -4.8322 S   0  0  0  0  0  0  0  0  0  0  0  0
  -29.2692   -2.3022   -3.4956 N   0  0  0  0  0  0  0  0  0  0  0  0
  -27.0699   -2.6066   -4.8990 O   0  0  0  0  0  0  0  0  0  0  0  0
  -29.0082   -3.0499   -2.8487 H   0  0  0  0  0  0  0  0  0  0  0  0
  -28.9912   -1.0953   -5.8847 C   0  0  0  0  0  0  0  0  0  0  0  0
  -27.8773   -0.0805   -6.1272 C   0  0  0  0  0  0  0  0  0  0  0  0
  -28.5700    1.2634   -6.3461 C   0  0  0  0  0  0  0  0  0  0  0  0
  -30.0249    1.0873   -5.9280 C   0  0  0  0  0  0  0  0  0  0  0  0
  -30.1040   -0.2680   -5.2462 C   0  0  0  0  0  0  0  0  0  0  0  0
 12 13  1  0  0  0
 13 10  1  0  0  0
 13 14  1  0  0  0
 10  3  1  0  0  0
 10 11  1  0  0  0
  3  4  1  0  0  0
  3  8  2  0  0  0
  4  5  2  0  0  0
  5  1  1  0  0  0
  5  6  1  0  0  0
  1 19  1  0  0  0
  1  2  1  0  0  0
 19 20  1  0  0  0
 19 24  2  0  0  0
 20 21  2  0  0  0
 21 22  1  0  0  0
 22 25  1  0  0  0
 22 23  2  0  0  0
 25 26  2  0  0  0
 25 27  2  0  0  0
 25 29  1  0  0  0
 26 28  1  0  0  0
 29 30  1  0  0  0
 29 33  1  0  0  0
 30 31  1  0  0  0
 31 32  1  0  0  0
 32 33  1  0  0  0
 23 24  1  0  0  0
  6  7  2  0  0  0
  7  8  1  0  0  0
  8  9  1  0  0  0
 14 15  1  0  0  0
 14 16  1  0  0  0
 14 17  1  0  0  0
 17 18  1  0  0  0
M  END
> <minimizedAffinity>
-8.07035

$$$$
