CHEMBL3706837


 37 40  0  0  0  0  0  0  0  0999 V2000
  -27.8664   -2.3414  -10.3256 N   0  0  0  0  0  0  0  0  0  0  0  0
  -28.7138   -1.9798  -10.7682 H   0  0  0  0  0  0  0  0  0  0  0  0
  -28.7825   -5.1539   -6.1522 C   0  0  0  0  0  0  0  0  0  0  0  0
  -28.5997   -3.7941   -5.7873 C   0  0  0  0  0  0  0  0  0  0  0  0
  -28.2846   -2.7775   -6.6905 C   0  0  0  0  0  0  0  0  0  0  0  0
  -28.0852   -1.5246   -6.2620 N   0  0  0  0  0  0  0  0  0  0  0  0
  -27.7797   -0.6071   -7.1907 C   0  0  0  0  0  0  0  0  0  0  0  0
  -27.6871   -0.8181   -8.5060 N   0  0  0  0  0  0  0  0  0  0  0  0
  -27.9034   -2.0768   -8.9297 C   0  0  0  0  0  0  0  0  0  0  0  0
  -28.1803   -3.1216   -8.0357 C   0  0  0  0  0  0  0  0  0  0  0  0
  -28.3298   -4.4708   -8.4121 C   0  0  0  0  0  0  0  0  0  0  0  0
  -28.6501   -5.4971   -7.5041 C   0  0  0  0  0  0  0  0  0  0  0  0
  -28.6824   -6.6692   -8.1926 O   0  0  0  0  0  0  0  0  0  0  0  0
  -29.5587   -7.7401   -7.9183 C   0  0  0  0  0  0  0  0  0  0  0  0
  -29.0279   -5.9186   -5.0356 O   0  0  0  0  0  0  0  0  0  0  0  0
  -30.3568   -6.3463   -4.8221 C   0  0  0  0  0  0  0  0  0  0  0  0
  -30.9450   -5.9718   -3.4690 C   0  0  0  0  0  0  0  0  0  0  0  0
  -30.9793   -3.6151   -3.1348 C   0  0  0  0  0  0  0  0  0  0  0  0
  -31.6352   -4.7363   -3.6947 O   0  0  0  0  0  0  0  0  0  0  0  0
  -26.7409   -2.0525  -11.0988 C   0  0  0  0  0  0  0  0  0  0  0  0
  -25.4921   -1.9992  -10.6382 C   0  0  0  0  0  0  0  0  0  0  0  0
  -24.3355   -1.6231  -11.4635 C   0  0  0  0  0  0  0  0  0  0  0  0
  -23.2203   -1.5658  -10.9581 O   0  0  0  0  0  0  0  0  0  0  0  0
  -24.5783   -1.3268  -12.9095 C   0  0  0  0  0  0  0  0  0  0  0  0
  -25.8272   -1.4175  -13.3894 C   0  0  0  0  0  0  0  0  0  0  0  0
  -26.9721   -1.8157  -12.5484 C   0  0  0  0  0  0  0  0  0  0  0  0
  -28.0885   -1.9527  -13.0522 O   0  0  0  0  0  0  0  0  0  0  0  0
  -23.4553   -1.0024  -13.6483 O   0  0  0  0  0  0  0  0  0  0  0  0
  -23.4077    0.2976  -14.2312 C   0  0  0  0  0  0  0  0  0  0  0  0
  -22.0207    0.6562  -14.5063 C   0  0  0  0  0  0  0  0  0  0  0  0
  -20.8886    1.0096  -14.7294 C   0  0  0  0  0  0  0  0  0  0  0  0
  -19.5642    1.4690  -15.0050 C   0  0  0  0  0  0  0  0  0  0  0  0
  -19.3354    2.8217  -15.2737 C   0  0  0  0  0  0  0  0  0  0  0  0
  -18.0454    3.2706  -15.5640 C   0  0  0  0  0  0  0  0  0  0  0  0
  -16.9816    2.3696  -15.5847 C   0  0  0  0  0  0  0  0  0  0  0  0
  -17.2044    1.0214  -15.3028 C   0  0  0  0  0  0  0  0  0  0  0  0
  -18.4931    0.5707  -15.0107 C   0  0  0  0  0  0  0  0  0  0  0  0
 18 19  1  0  0  0
 19 17  1  0  0  0
 17 16  1  0  0  0
 16 15  1  0  0  0
 15  3  1  0  0  0
  3  4  1  0  0  0
  3 12  2  0  0  0
  4  5  2  0  0  0
  5  6  1  0  0  0
  5 10  1  0  0  0
  6  7  2  0  0  0
  7  8  1  0  0  0
  8  9  2  0  0  0
  9  1  1  0  0  0
  9 10  1  0  0  0
  1 20  1  0  0  0
  1  2  1  0  0  0
 20 21  2  0  0  0
 20 26  1  0  0  0
 21 22  1  0  0  0
 22 23  2  0  0  0
 22 24  1  0  0  0
 24 28  1  0  0  0
 24 25  2  0  0  0
 28 29  1  0  0  0
 29 30  1  0  0  0
 30 31  3  0  0  0
 31 32  1  0  0  0
 32 33  1  0  0  0
 32 37  2  0  0  0
 33 34  2  0  0  0
 34 35  1  0  0  0
 35 36  2  0  0  0
 36 37  1  0  0  0
 25 26  1  0  0  0
 26 27  2  0  0  0
 10 11  2  0  0  0
 11 12  1  0  0  0
 12 13  1  0  0  0
 13 14  1  0  0  0
M  END
> <minimizedAffinity>
-9.51696

$$$$
