CHEMBL3706843


 39 43  0  0  0  0  0  0  0  0999 V2000
  -28.8518   -5.4245   -7.4156 C   0  0  0  0  0  0  0  0  0  0  0  0
  -28.6262   -4.3781   -8.3139 C   0  0  0  0  0  0  0  0  0  0  0  0
  -28.3004   -3.0822   -7.8813 C   0  0  0  0  0  0  0  0  0  0  0  0
  -27.9768   -2.0340   -8.7571 C   0  0  0  0  0  0  0  0  0  0  0  0
  -27.6077   -0.8207   -8.3208 N   0  0  0  0  0  0  0  0  0  0  0  0
  -27.5961   -0.6556   -6.9930 C   0  0  0  0  0  0  0  0  0  0  0  0
  -27.8916   -1.5844   -6.0714 N   0  0  0  0  0  0  0  0  0  0  0  0
  -28.2313   -2.8031   -6.5126 C   0  0  0  0  0  0  0  0  0  0  0  0
  -28.4989   -3.8424   -5.6176 C   0  0  0  0  0  0  0  0  0  0  0  0
  -28.8036   -5.1571   -6.0320 C   0  0  0  0  0  0  0  0  0  0  0  0
  -30.4080   -7.2374   -7.7088 C   0  0  0  0  0  0  0  0  0  0  0  0
  -29.1008   -6.6960   -7.8514 O   0  0  0  0  0  0  0  0  0  0  0  0
  -28.0695   -2.2563  -10.1722 N   0  0  0  0  0  0  0  0  0  0  0  0
  -28.8749   -1.7055  -10.4923 H   0  0  0  0  0  0  0  0  0  0  0  0
  -26.9646   -1.9821  -10.9733 C   0  0  0  0  0  0  0  0  0  0  0  0
  -25.7073   -1.9322  -10.5161 C   0  0  0  0  0  0  0  0  0  0  0  0
  -24.5684   -1.5476  -11.3616 C   0  0  0  0  0  0  0  0  0  0  0  0
  -23.4321   -1.5982  -10.8984 O   0  0  0  0  0  0  0  0  0  0  0  0
  -24.8646   -1.0804  -12.7514 C   0  0  0  0  0  0  0  0  0  0  0  0
  -26.1046   -1.2209  -13.2393 C   0  0  0  0  0  0  0  0  0  0  0  0
  -27.2181   -1.7435  -12.4247 C   0  0  0  0  0  0  0  0  0  0  0  0
  -28.3240   -1.9533  -12.9142 O   0  0  0  0  0  0  0  0  0  0  0  0
  -23.8912   -0.5291  -13.5746 O   0  0  0  0  0  0  0  0  0  0  0  0
  -23.6930    0.8843  -13.4250 C   0  0  0  0  0  0  0  0  0  0  0  0
  -22.3687    1.2685  -14.0372 C   0  0  0  0  0  0  0  0  0  0  0  0
  -21.9841    2.6155  -14.1067 C   0  0  0  0  0  0  0  0  0  0  0  0
  -20.7474    2.9743  -14.6439 C   0  0  0  0  0  0  0  0  0  0  0  0
  -19.8810    1.9908  -15.1161 C   0  0  0  0  0  0  0  0  0  0  0  0
  -20.2525    0.6488  -15.0555 C   0  0  0  0  0  0  0  0  0  0  0  0
  -21.4904    0.2879  -14.5193 C   0  0  0  0  0  0  0  0  0  0  0  0
  -29.0003   -6.0443   -4.9822 O   0  0  0  0  0  0  0  0  0  0  0  0
  -27.8978   -6.8880   -4.6463 C   0  0  0  0  0  0  0  0  0  0  0  0
  -28.2261   -8.3242   -4.1892 C   0  0  0  0  0  0  0  0  0  0  0  0
  -27.0326   -9.1263   -3.6645 C   0  0  0  0  0  0  0  0  0  0  0  0
  -26.2254   -9.8139   -4.7608 C   0  0  0  0  0  0  0  0  0  0  0  0
  -27.0928  -10.6338   -5.6169 N   0  0  0  0  0  0  0  0  0  0  0  0
  -26.2951  -11.3380   -6.6200 C   0  0  0  0  0  0  0  0  0  0  0  0
  -28.1140   -9.8042   -6.2685 C   0  0  0  0  0  0  0  0  0  0  0  0
  -29.0071   -9.1325   -5.2299 C   0  0  0  0  0  0  0  0  0  0  0  0
 11 12  1  0  0  0
 12  1  1  0  0  0
  1  2  1  0  0  0
  1 10  2  0  0  0
  2  3  2  0  0  0
  3  4  1  0  0  0
  3  8  1  0  0  0
  4 13  1  0  0  0
  4  5  2  0  0  0
 13 15  1  0  0  0
 13 14  1  0  0  0
 15 16  2  0  0  0
 15 21  1  0  0  0
 16 17  1  0  0  0
 17 18  2  0  0  0
 17 19  1  0  0  0
 19 23  1  0  0  0
 19 20  2  0  0  0
 23 24  1  0  0  0
 24 25  1  0  0  0
 25 26  1  0  0  0
 25 30  2  0  0  0
 26 27  2  0  0  0
 27 28  1  0  0  0
 28 29  2  0  0  0
 29 30  1  0  0  0
 20 21  1  0  0  0
 21 22  2  0  0  0
  5  6  1  0  0  0
  6  7  2  0  0  0
  7  8  1  0  0  0
  8  9  2  0  0  0
  9 10  1  0  0  0
 10 31  1  0  0  0
 31 32  1  0  0  0
 32 33  1  0  0  0
 33 34  1  0  0  0
 33 39  1  0  0  0
 34 35  1  0  0  0
 35 36  1  0  0  0
 36 37  1  0  0  0
 36 38  1  0  0  0
 38 39  1  0  0  0
M  END
> <minimizedAffinity>
-9.65283

$$$$
