CHEMBL3690431


 46 48  0  0  0  0  0  0  0  0999 V2000
  -12.4446   -1.1492  -18.3152 C   0  0  0  0  0  0  0  0  0  0  0  0
  -13.6465   -0.4815  -18.8204 C   0  0  0  0  0  0  0  0  0  0  0  0
  -14.3714    0.2986  -17.9997 C   0  0  0  0  0  0  0  0  0  0  0  0
  -13.9993    0.4520  -16.6589 N   0  0  0  0  0  0  0  0  0  0  0  0
  -14.6085    1.1258  -15.5941 C   0  0  0  0  0  0  0  0  0  0  0  0
  -13.7114    0.9595  -14.5483 C   0  0  0  0  0  0  0  0  0  0  0  0
  -12.6318    0.1966  -14.9009 N   0  0  0  0  0  0  0  0  0  0  0  0
  -12.8332   -0.1254  -16.1579 C   0  0  0  0  0  0  0  0  0  0  0  0
  -12.0604   -0.9413  -17.0352 C   0  0  0  0  0  0  0  0  0  0  0  0
  -15.9257    1.7889  -15.5891 C   0  0  0  0  0  0  0  0  0  0  0  0
  -16.0349    3.1428  -15.9311 C   0  0  0  0  0  0  0  0  0  0  0  0
  -17.2603    3.7930  -15.9047 C   0  0  0  0  0  0  0  0  0  0  0  0
  -18.4171    3.0791  -15.6221 C   0  0  0  0  0  0  0  0  0  0  0  0
  -18.3749    1.7074  -15.3691 C   0  0  0  0  0  0  0  0  0  0  0  0
  -17.1174    1.0733  -15.3216 C   0  0  0  0  0  0  0  0  0  0  0  0
  -19.5563    0.9393  -15.1804 N   0  0  0  0  0  0  0  0  0  0  0  0
  -20.6881    1.3519  -14.5116 C   0  0  0  0  0  0  0  0  0  0  0  0
  -20.8734    2.4384  -13.9665 O   0  0  0  0  0  0  0  0  0  0  0  0
  -21.6657    0.3843  -14.4461 N   0  0  0  0  0  0  0  0  0  0  0  0
  -19.5854    0.0307  -15.6216 H   0  0  0  0  0  0  0  0  0  0  0  0
  -21.7187   -0.2735  -15.2102 H   0  0  0  0  0  0  0  0  0  0  0  0
  -22.9215    0.7244  -13.7573 C   0  0  0  0  0  0  0  0  0  0  0  0
  -23.3466   -0.2049  -12.6087 C   0  0  0  0  0  0  0  0  0  0  0  0
  -22.3478   -0.4111  -11.7203 F   0  0  0  0  0  0  0  0  0  0  0  0
  -24.3723    0.3573  -11.9186 F   0  0  0  0  0  0  0  0  0  0  0  0
  -23.7752   -1.4062  -13.0487 F   0  0  0  0  0  0  0  0  0  0  0  0
  -11.6290   -2.0261  -19.2484 C   0  0  0  0  0  0  0  0  0  0  0  0
  -11.2940   -1.3719  -20.5808 C   0  0  0  0  0  0  0  0  0  0  0  0
  -11.8319   -1.6572  -21.7235 N   0  0  0  0  0  0  0  0  0  0  0  0
  -12.5252   -2.4104  -21.6398 H   0  0  0  0  0  0  0  0  0  0  0  0
  -12.7937   -4.0375  -18.4760 N   0  0  0  0  0  0  0  0  0  0  0  0
  -12.3319   -3.3572  -19.4706 C   0  0  0  0  0  0  0  0  0  0  0  0
  -13.3626   -5.3779  -18.7896 C   0  0  0  0  0  0  0  0  0  0  0  0
  -12.2460   -6.2073  -19.4407 C   0  0  0  0  0  0  0  0  0  0  0  0
  -14.5187   -5.2417  -19.7957 C   0  0  0  0  0  0  0  0  0  0  0  0
  -13.7706   -5.3252  -16.3420 N   0  0  0  0  0  0  0  0  0  0  0  0
  -13.8463   -6.0773  -17.4976 C   0  0  0  0  0  0  0  0  0  0  0  0
  -14.2964   -7.2213  -17.5009 O   0  0  0  0  0  0  0  0  0  0  0  0
  -13.6697   -4.3156  -16.4275 H   0  0  0  0  0  0  0  0  0  0  0  0
  -14.2845   -5.8564  -15.0970 C   0  0  0  0  0  0  0  0  0  0  0  0
  -13.8451   -5.0654  -13.8501 C   0  0  0  0  0  0  0  0  0  0  0  0
  -14.8788   -4.2037  -13.2310 N   0  0  0  0  0  0  0  0  0  0  0  0
  -15.5971   -1.7941  -12.9337 C   0  0  0  0  0  0  0  0  0  0  0  0
  -14.7767   -2.8150  -13.7136 C   0  0  0  0  0  0  0  0  0  0  0  0
  -16.2231   -4.7933  -13.4064 C   0  0  0  0  0  0  0  0  0  0  0  0
  -16.8533   -5.4531  -12.1787 C   0  0  0  0  0  0  0  0  0  0  0  0
 43 44  1  0  0  0
 44 42  1  0  0  0
 42 45  1  0  0  0
 42 41  1  0  0  0
 45 46  1  0  0  0
 41 40  1  0  0  0
 40 36  1  0  0  0
 36 37  1  0  0  0
 36 39  1  0  0  0
 37 38  2  0  0  0
 37 33  1  0  0  0
 33 34  1  0  0  0
 33 35  1  0  0  0
 33 31  1  0  0  0
 31 32  2  0  0  0
 32 27  1  0  0  0
 27 28  1  0  0  0
 27  1  1  0  0  0
 28 29  2  0  0  0
 29 30  1  0  0  0
  1  2  1  0  0  0
  1  9  2  0  0  0
  2  3  2  0  0  0
  3  4  1  0  0  0
  4  5  1  0  0  0
  4  8  1  0  0  0
  5 10  1  0  0  0
  5  6  2  0  0  0
 10 11  1  0  0  0
 10 15  2  0  0  0
 11 12  2  0  0  0
 12 13  1  0  0  0
 13 14  2  0  0  0
 14 16  1  0  0  0
 14 15  1  0  0  0
 16 17  1  0  0  0
 16 20  1  0  0  0
 17 18  2  0  0  0
 17 19  1  0  0  0
 19 22  1  0  0  0
 19 21  1  0  0  0
 22 23  1  0  0  0
 23 24  1  0  0  0
 23 25  1  0  0  0
 23 26  1  0  0  0
  6  7  1  0  0  0
  7  8  2  0  0  0
  8  9  1  0  0  0
M  END
> <minimizedAffinity>
-7.94127

$$$$
