CHEMBL2143592


 37 40  0  0  0  0  0  0  0  0999 V2000
  -27.4666   -1.4339   -9.2118 N   0  0  0  0  0  0  0  0  0  0  0  0
  -26.9404   -2.3499  -10.1007 C   0  0  0  0  0  0  0  0  0  0  0  0
  -26.8274   -3.5569   -9.8943 O   0  0  0  0  0  0  0  0  0  0  0  0
  -27.6129   -0.4825   -9.5628 H   0  0  0  0  0  0  0  0  0  0  0  0
  -26.5353   -1.7955  -11.4203 C   0  0  0  0  0  0  0  0  0  0  0  0
  -27.2778   -2.1229  -12.4938 C   0  0  0  0  0  0  0  0  0  0  0  0
  -26.9963   -1.7046  -13.7667 N   0  0  0  0  0  0  0  0  0  0  0  0
  -25.8389   -1.0279  -14.0396 C   0  0  0  0  0  0  0  0  0  0  0  0
  -24.9861   -0.6173  -13.0898 C   0  0  0  0  0  0  0  0  0  0  0  0
  -25.3547   -0.9110  -11.6599 C   0  0  0  0  0  0  0  0  0  0  0  0
  -24.7151   -0.4455  -10.7169 O   0  0  0  0  0  0  0  0  0  0  0  0
  -27.5509   -2.0711  -14.5371 H   0  0  0  0  0  0  0  0  0  0  0  0
  -23.7336    0.0466  -13.4561 C   0  0  0  0  0  0  0  0  0  0  0  0
  -23.6164    1.4411  -13.3935 C   0  0  0  0  0  0  0  0  0  0  0  0
  -22.4365    2.0606  -13.8090 C   0  0  0  0  0  0  0  0  0  0  0  0
  -21.3827    1.2864  -14.2832 C   0  0  0  0  0  0  0  0  0  0  0  0
  -20.2579    1.8851  -14.6947 F   0  0  0  0  0  0  0  0  0  0  0  0
  -21.4794   -0.0982  -14.3421 C   0  0  0  0  0  0  0  0  0  0  0  0
  -22.6580   -0.7210  -13.9293 C   0  0  0  0  0  0  0  0  0  0  0  0
  -29.0871   -2.1812   -5.3876 C   0  0  0  0  0  0  0  0  0  0  0  0
  -29.4199   -3.0219   -6.4447 C   0  0  0  0  0  0  0  0  0  0  0  0
  -28.8700   -2.8040   -7.7102 C   0  0  0  0  0  0  0  0  0  0  0  0
  -27.9883   -1.7409   -7.9371 C   0  0  0  0  0  0  0  0  0  0  0  0
  -27.6268   -0.9210   -6.8704 C   0  0  0  0  0  0  0  0  0  0  0  0
  -28.2117   -1.1161   -5.6199 C   0  0  0  0  0  0  0  0  0  0  0  0
  -27.9064   -0.2494   -4.6426 F   0  0  0  0  0  0  0  0  0  0  0  0
  -29.7004   -2.4569   -4.1869 O   0  0  0  0  0  0  0  0  0  0  0  0
  -28.7395   -7.1314   -3.3941 N   0  0  0  0  0  0  0  0  0  0  0  0
  -29.6154   -6.0627   -3.6001 C   0  0  0  0  0  0  0  0  0  0  0  0
  -30.9213   -6.3852   -3.5102 N   0  0  0  0  0  0  0  0  0  0  0  0
  -31.8187   -5.3809   -3.5847 C   0  0  0  0  0  0  0  0  0  0  0  0
  -31.4760   -4.0568   -3.7495 C   0  0  0  0  0  0  0  0  0  0  0  0
  -30.1283   -3.7419   -3.9317 C   0  0  0  0  0  0  0  0  0  0  0  0
  -29.1704   -4.7516   -3.8080 C   0  0  0  0  0  0  0  0  0  0  0  0
  -27.4793   -4.3979   -3.9224 Cl  0  0  0  0  0  0  0  0  0  0  0  0
  -29.2965   -7.9808   -3.3710 H   0  0  0  0  0  0  0  0  0  0  0  0
  -27.9921   -7.1536   -4.0771 H   0  0  0  0  0  0  0  0  0  0  0  0
 28 29  1  0  0  0
 28 36  1  0  0  0
 28 37  1  0  0  0
 29 30  1  0  0  0
 29 34  2  0  0  0
 30 31  2  0  0  0
 31 32  1  0  0  0
 32 33  2  0  0  0
 33 27  1  0  0  0
 33 34  1  0  0  0
 27 20  1  0  0  0
 20 21  1  0  0  0
 20 25  2  0  0  0
 21 22  2  0  0  0
 22 23  1  0  0  0
 23  1  1  0  0  0
 23 24  2  0  0  0
  1  2  1  0  0  0
  1  4  1  0  0  0
  2  3  2  0  0  0
  2  5  1  0  0  0
  5  6  2  0  0  0
  5 10  1  0  0  0
  6  7  1  0  0  0
  7  8  1  0  0  0
  7 12  1  0  0  0
  8  9  2  0  0  0
  9 13  1  0  0  0
  9 10  1  0  0  0
 13 14  1  0  0  0
 13 19  2  0  0  0
 14 15  2  0  0  0
 15 16  1  0  0  0
 16 17  1  0  0  0
 16 18  2  0  0  0
 18 19  1  0  0  0
 10 11  2  0  0  0
 24 25  1  0  0  0
 25 26  1  0  0  0
 34 35  1  0  0  0
M  END
> <minimizedAffinity>
-9.68373

$$$$
