CHEMBL3933224


 30 32  0  0  0  0  0  0  0  0999 V2000
  -29.4028   -5.0648   -6.8726 C   0  0  0  0  0  0  0  0  0  0  0  0
  -28.6900   -3.7760   -7.2144 C   0  0  0  0  0  0  0  0  0  0  0  0
  -28.5515   -3.4682   -8.5323 N   0  0  0  0  0  0  0  0  0  0  0  0
  -28.0116   -2.2728   -8.8461 C   0  0  0  0  0  0  0  0  0  0  0  0
  -27.5655   -1.4030   -7.9270 N   0  0  0  0  0  0  0  0  0  0  0  0
  -27.7217   -1.7271   -6.6335 C   0  0  0  0  0  0  0  0  0  0  0  0
  -28.3008   -2.8964   -6.2105 C   0  0  0  0  0  0  0  0  0  0  0  0
  -28.5137   -3.1583   -4.5256 Cl  0  0  0  0  0  0  0  0  0  0  0  0
  -28.0019   -1.9249  -10.1981 N   0  0  0  0  0  0  0  0  0  0  0  0
  -28.9070   -1.5403  -10.4344 H   0  0  0  0  0  0  0  0  0  0  0  0
  -26.9398   -1.7786  -11.0182 C   0  0  0  0  0  0  0  0  0  0  0  0
  -26.8803   -1.6834  -12.4265 C   0  0  0  0  0  0  0  0  0  0  0  0
  -25.6255   -1.5862  -12.8785 N   0  0  0  0  0  0  0  0  0  0  0  0
  -24.8876   -1.6170  -11.7557 N   0  0  0  0  0  0  0  0  0  0  0  0
  -23.4506   -1.5405  -11.8435 C   0  0  0  0  0  0  0  0  0  0  0  0
  -25.6290   -1.7206  -10.6118 C   0  0  0  0  0  0  0  0  0  0  0  0
  -28.9861   -6.3154   -7.6511 C   0  0  0  0  0  0  0  0  0  0  0  0
  -29.9340   -8.6346   -8.4399 C   0  0  0  0  0  0  0  0  0  0  0  0
  -31.0229   -9.5368   -8.4173 C   0  0  0  0  0  0  0  0  0  0  0  0
  -32.1828   -9.2691   -7.6932 C   0  0  0  0  0  0  0  0  0  0  0  0
  -32.2785   -8.1014   -6.9516 C   0  0  0  0  0  0  0  0  0  0  0  0
  -31.2221   -7.1910   -6.9529 C   0  0  0  0  0  0  0  0  0  0  0  0
  -30.0409   -7.4251   -7.6940 C   0  0  0  0  0  0  0  0  0  0  0  0
  -27.6605   -9.6222   -8.1246 C   0  0  0  0  0  0  0  0  0  0  0  0
  -28.6498   -9.0700   -9.1625 C   0  0  0  0  0  0  0  0  0  0  0  0
  -28.8201  -10.1303  -10.2650 C   0  0  0  0  0  0  0  0  0  0  0  0
  -29.2426   -9.6781  -11.4848 N   0  0  0  0  0  0  0  0  0  0  0  0
  -28.5422  -11.3221  -10.1338 O   0  0  0  0  0  0  0  0  0  0  0  0
  -29.6530   -8.7643  -11.6122 H   0  0  0  0  0  0  0  0  0  0  0  0
  -29.3892  -10.3795  -12.1980 H   0  0  0  0  0  0  0  0  0  0  0  0
 24 25  1  0  0  0
 25 26  1  0  0  0
 25 18  1  0  0  0
 26 27  1  0  0  0
 26 28  2  0  0  0
 27 29  1  0  0  0
 27 30  1  0  0  0
 18 19  1  0  0  0
 18 23  2  0  0  0
 19 20  2  0  0  0
 20 21  1  0  0  0
 21 22  2  0  0  0
 22 23  1  0  0  0
 23 17  1  0  0  0
 17  1  1  0  0  0
  1  2  1  0  0  0
  2  3  1  0  0  0
  2  7  2  0  0  0
  3  4  2  0  0  0
  4  9  1  0  0  0
  4  5  1  0  0  0
  9 11  1  0  0  0
  9 10  1  0  0  0
 11 12  1  0  0  0
 11 16  2  0  0  0
 12 13  2  0  0  0
 13 14  1  0  0  0
 14 15  1  0  0  0
 14 16  1  0  0  0
  5  6  2  0  0  0
  6  7  1  0  0  0
  7  8  1  0  0  0
M  END
> <minimizedAffinity>
-8.51312

$$$$
