CHEMBL202408


 29 32  0  0  0  0  0  0  0  0999 V2000
  -27.9242   -8.6104   -5.6674 O   0  0  0  0  0  0  0  0  0  0  0  0
  -29.1450   -8.7903   -5.6475 C   0  0  0  0  0  0  0  0  0  0  0  0
  -30.0586   -7.7534   -5.5775 N   0  0  0  0  0  0  0  0  0  0  0  0
  -31.0255   -8.0112   -5.4147 H   0  0  0  0  0  0  0  0  0  0  0  0
  -29.7272   -6.3848   -5.5229 C   0  0  0  0  0  0  0  0  0  0  0  0
  -29.6470   -5.5803   -6.6618 C   0  0  0  0  0  0  0  0  0  0  0  0
  -29.3188   -4.2251   -6.5656 C   0  0  0  0  0  0  0  0  0  0  0  0
  -29.0167   -3.6332   -5.3381 C   0  0  0  0  0  0  0  0  0  0  0  0
  -29.0914   -4.4566   -4.2042 C   0  0  0  0  0  0  0  0  0  0  0  0
  -29.4630   -5.8041   -4.2844 C   0  0  0  0  0  0  0  0  0  0  0  0
  -28.6566   -2.3104   -5.2295 N   0  0  0  0  0  0  0  0  0  0  0  0
  -29.4820   -1.2984   -4.5563 C   0  0  0  0  0  0  0  0  0  0  0  0
  -29.8163   -0.1424   -5.5103 C   0  0  0  0  0  0  0  0  0  0  0  0
  -28.6366    0.3954   -6.1327 O   0  0  0  0  0  0  0  0  0  0  0  0
  -27.9611   -0.6289   -6.8812 C   0  0  0  0  0  0  0  0  0  0  0  0
  -27.5056   -1.7817   -5.9722 C   0  0  0  0  0  0  0  0  0  0  0  0
  -29.6914  -10.1354   -5.6724 C   0  0  0  0  0  0  0  0  0  0  0  0
  -29.5625  -11.2051   -4.3353 S   0  0  0  0  0  0  0  0  0  0  0  0
  -30.5459  -12.3324   -5.1646 C   0  0  0  0  0  0  0  0  0  0  0  0
  -30.8835  -12.0136   -6.3926 N   0  0  0  0  0  0  0  0  0  0  0  0
  -30.3990  -10.7494   -6.7000 C   0  0  0  0  0  0  0  0  0  0  0  0
  -30.6745  -10.1666   -8.0603 C   0  0  0  0  0  0  0  0  0  0  0  0
  -30.0643  -10.9463   -9.2282 C   0  0  0  0  0  0  0  0  0  0  0  0
  -28.8807  -10.2248   -9.8313 C   0  0  0  0  0  0  0  0  0  0  0  0
  -28.4891  -10.4748  -11.1501 C   0  0  0  0  0  0  0  0  0  0  0  0
  -27.3870   -9.8035  -11.6589 C   0  0  0  0  0  0  0  0  0  0  0  0
  -26.6591   -8.9114  -10.9551 N   0  0  0  0  0  0  0  0  0  0  0  0
  -27.0521   -8.6843   -9.6833 C   0  0  0  0  0  0  0  0  0  0  0  0
  -28.1369   -9.3086   -9.0832 C   0  0  0  0  0  0  0  0  0  0  0  0
  1  2  2  0  0  0
  2  3  1  0  0  0
  2 17  1  0  0  0
  3  5  1  0  0  0
  3  4  1  0  0  0
  5  6  1  0  0  0
  5 10  2  0  0  0
  6  7  2  0  0  0
  7  8  1  0  0  0
  8 11  1  0  0  0
  8  9  2  0  0  0
 11 12  1  0  0  0
 11 16  1  0  0  0
 12 13  1  0  0  0
 13 14  1  0  0  0
 14 15  1  0  0  0
 15 16  1  0  0  0
  9 10  1  0  0  0
 17 18  1  0  0  0
 17 21  2  0  0  0
 18 19  1  0  0  0
 19 20  2  0  0  0
 20 21  1  0  0  0
 21 22  1  0  0  0
 22 23  1  0  0  0
 23 24  1  0  0  0
 24 25  1  0  0  0
 24 29  2  0  0  0
 25 26  2  0  0  0
 26 27  1  0  0  0
 27 28  2  0  0  0
 28 29  1  0  0  0
M  END
> <minimizedAffinity>
-7.33176

$$$$
