CHEMBL401153


 26 28  0  0  0  0  0  0  0  0999 V2000
  -29.3630   -7.0958   -7.4340 C   0  0  0  0  0  0  0  0  0  0  0  0
  -28.6070   -7.7591   -8.4170 C   0  0  0  0  0  0  0  0  0  0  0  0
  -28.4685   -9.1384   -8.3830 C   0  0  0  0  0  0  0  0  0  0  0  0
  -29.0967   -9.8147   -7.3612 C   0  0  0  0  0  0  0  0  0  0  0  0
  -29.8539   -9.2116   -6.4167 N   0  0  0  0  0  0  0  0  0  0  0  0
  -29.9979   -7.8628   -6.4476 C   0  0  0  0  0  0  0  0  0  0  0  0
  -30.5676   -5.1094   -7.4173 O   0  0  0  0  0  0  0  0  0  0  0  0
  -29.4602   -5.6167   -7.5682 C   0  0  0  0  0  0  0  0  0  0  0  0
  -28.2813   -4.9375   -7.8084 N   0  0  0  0  0  0  0  0  0  0  0  0
  -27.4586   -5.5192   -7.9599 H   0  0  0  0  0  0  0  0  0  0  0  0
  -28.1065   -3.5362   -7.8595 C   0  0  0  0  0  0  0  0  0  0  0  0
  -27.7809   -2.8359   -9.0240 C   0  0  0  0  0  0  0  0  0  0  0  0
  -27.6271   -1.4453   -9.0110 C   0  0  0  0  0  0  0  0  0  0  0  0
  -27.8001   -0.7393   -7.8262 C   0  0  0  0  0  0  0  0  0  0  0  0
  -28.1304   -1.4281   -6.6623 C   0  0  0  0  0  0  0  0  0  0  0  0
  -28.3466   -0.5575   -5.1930 Cl  0  0  0  0  0  0  0  0  0  0  0  0
  -28.2872   -2.8167   -6.6728 C   0  0  0  0  0  0  0  0  0  0  0  0
  -30.7569   -7.2526   -5.4095 N   0  0  0  0  0  0  0  0  0  0  0  0
  -31.1471   -6.3982   -5.8108 H   0  0  0  0  0  0  0  0  0  0  0  0
  -29.9132   -6.9283   -4.2522 C   0  0  0  0  0  0  0  0  0  0  0  0
  -29.9342   -5.4652   -3.8705 C   0  0  0  0  0  0  0  0  0  0  0  0
  -31.0989   -4.7209   -3.6711 C   0  0  0  0  0  0  0  0  0  0  0  0
  -30.9841   -3.4065   -3.2428 C   0  0  0  0  0  0  0  0  0  0  0  0
  -29.8060   -2.7875   -2.9979 N   0  0  0  0  0  0  0  0  0  0  0  0
  -28.6910   -3.5184   -3.1900 C   0  0  0  0  0  0  0  0  0  0  0  0
  -28.7054   -4.8360   -3.6184 C   0  0  0  0  0  0  0  0  0  0  0  0
  7  8  2  0  0  0
  8  9  1  0  0  0
  8  1  1  0  0  0
  9 11  1  0  0  0
  9 10  1  0  0  0
 11 12  1  0  0  0
 11 17  2  0  0  0
 12 13  2  0  0  0
 13 14  1  0  0  0
 14 15  2  0  0  0
 15 16  1  0  0  0
 15 17  1  0  0  0
  1  2  1  0  0  0
  1  6  2  0  0  0
  2  3  2  0  0  0
  3  4  1  0  0  0
  4  5  2  0  0  0
  5  6  1  0  0  0
  6 18  1  0  0  0
 18 20  1  0  0  0
 18 19  1  0  0  0
 20 21  1  0  0  0
 21 22  1  0  0  0
 21 26  2  0  0  0
 22 23  2  0  0  0
 23 24  1  0  0  0
 24 25  2  0  0  0
 25 26  1  0  0  0
M  END
> <minimizedAffinity>
-7.24967

$$$$
