CHEMBL3963229


 32 36  0  0  0  0  0  0  0  0999 V2000
  -28.0481   -3.2708   -8.1573 C   0  0  0  0  0  0  0  0  0  0  0  0
  -28.4264   -2.3547   -7.1782 C   0  0  0  0  0  0  0  0  0  0  0  0
  -29.2519   -2.7446   -6.1255 C   0  0  0  0  0  0  0  0  0  0  0  0
  -29.7193   -4.0526   -6.0551 C   0  0  0  0  0  0  0  0  0  0  0  0
  -29.4028   -4.9825   -7.0584 C   0  0  0  0  0  0  0  0  0  0  0  0
  -28.5488   -4.5787   -8.1027 C   0  0  0  0  0  0  0  0  0  0  0  0
  -30.0697   -6.3529   -7.1119 C   0  0  0  0  0  0  0  0  0  0  0  0
  -29.1851   -7.4443   -7.7536 C   0  0  0  0  0  0  0  0  0  0  0  0
  -29.3526   -8.7990   -7.1524 N   0  0  0  0  0  0  0  0  0  0  0  0
  -29.3472   -8.7939   -5.8637 C   0  0  0  0  0  0  0  0  0  0  0  0
  -29.0531   -9.9579   -5.0294 C   0  0  0  0  0  0  0  0  0  0  0  0
  -29.8215  -11.0941   -4.8748 C   0  0  0  0  0  0  0  0  0  0  0  0
  -29.3421  -12.0866   -4.0163 C   0  0  0  0  0  0  0  0  0  0  0  0
  -28.0678  -11.9682   -3.4345 C   0  0  0  0  0  0  0  0  0  0  0  0
  -27.3744  -10.7606   -3.5040 C   0  0  0  0  0  0  0  0  0  0  0  0
  -27.9959   -9.7131   -4.1611 C   0  0  0  0  0  0  0  0  0  0  0  0
  -27.9408   -8.4036   -3.6032 N   0  0  0  0  0  0  0  0  0  0  0  0
  -29.0730   -7.5869   -3.8216 C   0  0  0  0  0  0  0  0  0  0  0  0
  -29.6160   -6.9657   -2.9388 O   0  0  0  0  0  0  0  0  0  0  0  0
  -29.5039   -7.6388   -5.1387 N   0  0  0  0  0  0  0  0  0  0  0  0
  -30.4958   -6.7522   -5.6926 C   0  0  0  0  0  0  0  0  0  0  0  0
  -27.0762   -7.9310   -3.8391 H   0  0  0  0  0  0  0  0  0  0  0  0
  -27.3774   -1.8899  -10.1403 C   0  0  0  0  0  0  0  0  0  0  0  0
  -28.3215   -1.0959  -10.1125 O   0  0  0  0  0  0  0  0  0  0  0  0
  -27.1965   -2.9303   -9.2296 N   0  0  0  0  0  0  0  0  0  0  0  0
  -26.3065   -3.4187   -9.2926 H   0  0  0  0  0  0  0  0  0  0  0  0
  -27.4243   -1.9660  -13.4825 C   0  0  0  0  0  0  0  0  0  0  0  0
  -26.2985   -1.7945  -12.5179 C   0  0  0  0  0  0  0  0  0  0  0  0
  -24.9349   -1.5983  -12.8938 C   0  0  0  0  0  0  0  0  0  0  0  0
  -24.2252   -1.4723  -11.7262 C   0  0  0  0  0  0  0  0  0  0  0  0
  -25.0462   -1.5731  -10.6571 O   0  0  0  0  0  0  0  0  0  0  0  0
  -26.3197   -1.7713  -11.1253 C   0  0  0  0  0  0  0  0  0  0  0  0
 27 28  1  0  0  0
 28 29  1  0  0  0
 28 32  2  0  0  0
 29 30  2  0  0  0
 30 31  1  0  0  0
 31 32  1  0  0  0
 32 23  1  0  0  0
 23 24  2  0  0  0
 23 25  1  0  0  0
 25  1  1  0  0  0
 25 26  1  0  0  0
  1  2  1  0  0  0
  1  6  2  0  0  0
  2  3  2  0  0  0
  3  4  1  0  0  0
  4  5  2  0  0  0
  5  7  1  0  0  0
  5  6  1  0  0  0
  7  8  1  0  0  0
  7 21  1  0  0  0
  8  9  1  0  0  0
  9 10  2  0  0  0
 10 11  1  0  0  0
 10 20  1  0  0  0
 11 12  1  0  0  0
 11 16  2  0  0  0
 12 13  2  0  0  0
 13 14  1  0  0  0
 14 15  2  0  0  0
 15 16  1  0  0  0
 16 17  1  0  0  0
 17 18  1  0  0  0
 17 22  1  0  0  0
 18 19  2  0  0  0
 18 20  1  0  0  0
 20 21  1  0  0  0
M  END
> <minimizedAffinity>
-10.33191

$$$$
