CHEMBL185477


 29 32  0  0  0  0  0  0  0  0999 V2000
  -28.0799   -2.2998   -8.4082 C   0  0  0  0  0  0  0  0  0  0  0  0
  -28.5085   -3.6261   -8.5099 C   0  0  0  0  0  0  0  0  0  0  0  0
  -28.8705   -4.3615   -7.3773 C   0  0  0  0  0  0  0  0  0  0  0  0
  -28.8554   -3.7782   -6.1088 C   0  0  0  0  0  0  0  0  0  0  0  0
  -28.3539   -2.4659   -6.0027 C   0  0  0  0  0  0  0  0  0  0  0  0
  -27.9621   -1.7400   -7.1355 C   0  0  0  0  0  0  0  0  0  0  0  0
  -29.5270   -4.4038   -4.9548 C   0  0  0  0  0  0  0  0  0  0  0  0
  -30.8899   -4.1696   -4.6709 C   0  0  0  0  0  0  0  0  0  0  0  0
  -31.6338   -5.0187   -3.8246 C   0  0  0  0  0  0  0  0  0  0  0  0
  -31.0552   -6.1739   -3.3080 C   0  0  0  0  0  0  0  0  0  0  0  0
  -29.7196   -6.3826   -3.5873 C   0  0  0  0  0  0  0  0  0  0  0  0
  -28.9296   -5.4705   -4.2877 C   0  0  0  0  0  0  0  0  0  0  0  0
  -27.5422   -6.0151   -4.3376 C   0  0  0  0  0  0  0  0  0  0  0  0
  -27.7600   -7.4325   -4.1857 N   0  0  0  0  0  0  0  0  0  0  0  0
  -29.0095   -7.6723   -3.6355 C   0  0  0  0  0  0  0  0  0  0  0  0
  -29.5119   -8.7532   -3.4070 O   0  0  0  0  0  0  0  0  0  0  0  0
  -27.5526   -8.0428   -4.9627 H   0  0  0  0  0  0  0  0  0  0  0  0
  -26.0917   -2.7815  -10.4637 O   0  0  0  0  0  0  0  0  0  0  0  0
  -26.7601   -1.7542  -10.4503 C   0  0  0  0  0  0  0  0  0  0  0  0
  -26.5888   -0.6959  -11.3223 N   0  0  0  0  0  0  0  0  0  0  0  0
  -27.7585   -1.4998   -9.5255 N   0  0  0  0  0  0  0  0  0  0  0  0
  -27.1168    0.1413  -11.1330 H   0  0  0  0  0  0  0  0  0  0  0  0
  -28.4147   -0.7620   -9.7536 H   0  0  0  0  0  0  0  0  0  0  0  0
  -25.5873   -0.5978  -12.3251 C   0  0  0  0  0  0  0  0  0  0  0  0
  -25.6476   -1.2603  -13.5504 C   0  0  0  0  0  0  0  0  0  0  0  0
  -24.5925   -1.1858  -14.4596 C   0  0  0  0  0  0  0  0  0  0  0  0
  -23.4623   -0.4331  -14.1508 C   0  0  0  0  0  0  0  0  0  0  0  0
  -23.4019    0.2530  -12.9405 C   0  0  0  0  0  0  0  0  0  0  0  0
  -24.4609    0.1778  -12.0301 C   0  0  0  0  0  0  0  0  0  0  0  0
 18 19  2  0  0  0
 19 20  1  0  0  0
 19 21  1  0  0  0
 20 24  1  0  0  0
 20 22  1  0  0  0
 24 25  1  0  0  0
 24 29  2  0  0  0
 25 26  2  0  0  0
 26 27  1  0  0  0
 27 28  2  0  0  0
 28 29  1  0  0  0
 21  1  1  0  0  0
 21 23  1  0  0  0
  1  2  1  0  0  0
  1  6  2  0  0  0
  2  3  2  0  0  0
  3  4  1  0  0  0
  4  7  1  0  0  0
  4  5  2  0  0  0
  7  8  1  0  0  0
  7 12  2  0  0  0
  8  9  2  0  0  0
  9 10  1  0  0  0
 10 11  2  0  0  0
 11 12  1  0  0  0
 11 15  1  0  0  0
 12 13  1  0  0  0
 13 14  1  0  0  0
 14 15  1  0  0  0
 14 17  1  0  0  0
 15 16  2  0  0  0
  5  6  1  0  0  0
M  END
> <minimizedAffinity>
-9.49564

$$$$
