CHEMBL3893548


 38 41  0  0  0  0  0  0  0  0999 V2000
  -15.2021   -3.0085  -11.7318 C   0  0  0  0  0  0  0  0  0  0  0  0
  -16.2470   -3.9407  -11.7122 C   0  0  0  0  0  0  0  0  0  0  0  0
  -15.9848   -5.3060  -11.5170 C   0  0  0  0  0  0  0  0  0  0  0  0
  -14.6751   -5.7518  -11.3217 C   0  0  0  0  0  0  0  0  0  0  0  0
  -13.6358   -4.8206  -11.4231 C   0  0  0  0  0  0  0  0  0  0  0  0
  -12.3565   -5.2018  -11.2969 F   0  0  0  0  0  0  0  0  0  0  0  0
  -13.8895   -3.4596  -11.6280 C   0  0  0  0  0  0  0  0  0  0  0  0
  -16.0899    0.3027  -12.9484 N   0  0  0  0  0  0  0  0  0  0  0  0
  -15.8745   -1.0623  -13.0349 C   0  0  0  0  0  0  0  0  0  0  0  0
  -16.0885   -1.7615  -14.0174 O   0  0  0  0  0  0  0  0  0  0  0  0
  -15.4493   -1.6094  -11.8261 N   0  0  0  0  0  0  0  0  0  0  0  0
  -15.9290    0.7322  -12.0512 H   0  0  0  0  0  0  0  0  0  0  0  0
  -15.8636   -1.1800  -11.0135 H   0  0  0  0  0  0  0  0  0  0  0  0
  -18.5799    2.2763  -14.9243 C   0  0  0  0  0  0  0  0  0  0  0  0
  -17.7974    2.7506  -15.9849 C   0  0  0  0  0  0  0  0  0  0  0  0
  -16.4410    2.4626  -16.0334 C   0  0  0  0  0  0  0  0  0  0  0  0
  -15.8492    1.6863  -15.0395 C   0  0  0  0  0  0  0  0  0  0  0  0
  -14.5208    1.5764  -15.1096 F   0  0  0  0  0  0  0  0  0  0  0  0
  -16.6025    1.1492  -13.9797 C   0  0  0  0  0  0  0  0  0  0  0  0
  -17.9748    1.4691  -13.9317 C   0  0  0  0  0  0  0  0  0  0  0  0
  -20.9403    1.4434  -14.6296 C   0  0  0  0  0  0  0  0  0  0  0  0
  -20.0460    2.6516  -14.8599 C   0  0  0  0  0  0  0  0  0  0  0  0
  -20.4652    3.2539  -16.0132 F   0  0  0  0  0  0  0  0  0  0  0  0
  -20.3029    3.5560  -13.8703 F   0  0  0  0  0  0  0  0  0  0  0  0
  -14.5093   -7.1084  -11.1167 O   0  0  0  0  0  0  0  0  0  0  0  0
  -13.9013   -7.8929  -12.0798 C   0  0  0  0  0  0  0  0  0  0  0  0
  -12.9838   -8.8971  -11.7956 C   0  0  0  0  0  0  0  0  0  0  0  0
  -12.4177   -9.5647  -12.8586 C   0  0  0  0  0  0  0  0  0  0  0  0
  -12.7513   -9.3384  -14.1415 N   0  0  0  0  0  0  0  0  0  0  0  0
  -13.6910   -8.4212  -14.4262 C   0  0  0  0  0  0  0  0  0  0  0  0
  -14.2947   -7.6762  -13.4133 C   0  0  0  0  0  0  0  0  0  0  0  0
  -14.0717   -8.2261  -15.7723 N   0  0  0  0  0  0  0  0  0  0  0  0
  -13.1804   -7.8463  -16.7609 C   0  0  0  0  0  0  0  0  0  0  0  0
  -12.0044   -7.5399  -16.6112 O   0  0  0  0  0  0  0  0  0  0  0  0
  -15.0319   -8.3968  -16.0212 H   0  0  0  0  0  0  0  0  0  0  0  0
  -13.6751   -7.8035  -18.1710 C   0  0  0  0  0  0  0  0  0  0  0  0
  -12.9670   -7.3257  -19.4079 C   0  0  0  0  0  0  0  0  0  0  0  0
  -14.0297   -6.4675  -18.7817 C   0  0  0  0  0  0  0  0  0  0  0  0
 21 22  1  0  0  0
 22 23  1  0  0  0
 22 24  1  0  0  0
 22 14  1  0  0  0
 14 15  1  0  0  0
 14 20  2  0  0  0
 15 16  2  0  0  0
 16 17  1  0  0  0
 17 18  1  0  0  0
 17 19  2  0  0  0
 19  8  1  0  0  0
 19 20  1  0  0  0
  8  9  1  0  0  0
  8 12  1  0  0  0
  9 10  2  0  0  0
  9 11  1  0  0  0
 11  1  1  0  0  0
 11 13  1  0  0  0
  1  2  1  0  0  0
  1  7  2  0  0  0
  2  3  2  0  0  0
  3  4  1  0  0  0
  4 25  1  0  0  0
  4  5  2  0  0  0
 25 26  1  0  0  0
 26 27  1  0  0  0
 26 31  2  0  0  0
 27 28  2  0  0  0
 28 29  1  0  0  0
 29 30  2  0  0  0
 30 32  1  0  0  0
 30 31  1  0  0  0
 32 33  1  0  0  0
 32 35  1  0  0  0
 33 34  2  0  0  0
 33 36  1  0  0  0
 36 37  1  0  0  0
 36 38  1  0  0  0
 37 38  1  0  0  0
  5  6  1  0  0  0
  5  7  1  0  0  0
M  END
> <minimizedAffinity>
-9.58458

$$$$
