CHEMBL223528


 37 40  0  0  0  0  0  0  0  0999 V2000
  -15.1220    2.9412  -16.6725 C   0  0  0  0  0  0  0  0  0  0  0  0
  -14.3285    1.7986  -16.7019 C   0  0  0  0  0  0  0  0  0  0  0  0
  -14.6147    0.6727  -15.9347 C   0  0  0  0  0  0  0  0  0  0  0  0
  -15.8075    0.5704  -15.2263 C   0  0  0  0  0  0  0  0  0  0  0  0
  -16.6796    1.6562  -15.2587 C   0  0  0  0  0  0  0  0  0  0  0  0
  -16.3358    2.8278  -15.9549 C   0  0  0  0  0  0  0  0  0  0  0  0
  -13.9836    6.5771  -18.7566 C   0  0  0  0  0  0  0  0  0  0  0  0
  -14.8872    5.6732  -19.3100 C   0  0  0  0  0  0  0  0  0  0  0  0
  -15.2323    4.5028  -18.6305 C   0  0  0  0  0  0  0  0  0  0  0  0
  -14.7065    4.1736  -17.3588 C   0  0  0  0  0  0  0  0  0  0  0  0
  -13.7795    5.1115  -16.7731 C   0  0  0  0  0  0  0  0  0  0  0  0
  -12.9915    5.2448  -15.5740 C   0  0  0  0  0  0  0  0  0  0  0  0
  -12.8821    4.3931  -14.5477 N   0  0  0  0  0  0  0  0  0  0  0  0
  -12.2957    6.3723  -15.5379 N   0  0  0  0  0  0  0  0  0  0  0  0
  -12.6374    6.9902  -16.6624 N   0  0  0  0  0  0  0  0  0  0  0  0
  -13.4695    6.2836  -17.4866 C   0  0  0  0  0  0  0  0  0  0  0  0
  -13.5977    3.7157  -14.3204 H   0  0  0  0  0  0  0  0  0  0  0  0
  -12.3522    4.7133  -13.7460 H   0  0  0  0  0  0  0  0  0  0  0  0
  -12.2489    7.9100  -16.8145 H   0  0  0  0  0  0  0  0  0  0  0  0
  -13.7452    7.7130  -19.5125 O   0  0  0  0  0  0  0  0  0  0  0  0
  -14.6740    8.7763  -19.3192 C   0  0  0  0  0  0  0  0  0  0  0  0
  -15.2789    9.1743  -20.6604 C   0  0  0  0  0  0  0  0  0  0  0  0
  -16.6087    7.9372  -22.1592 C   0  0  0  0  0  0  0  0  0  0  0  0
  -16.4948    8.4389  -20.8352 O   0  0  0  0  0  0  0  0  0  0  0  0
  -16.1610   -0.6090  -14.5059 N   0  0  0  0  0  0  0  0  0  0  0  0
  -15.4638   -1.1182  -13.4171 C   0  0  0  0  0  0  0  0  0  0  0  0
  -14.5102   -0.5722  -12.8708 O   0  0  0  0  0  0  0  0  0  0  0  0
  -15.9321   -2.3610  -13.0106 N   0  0  0  0  0  0  0  0  0  0  0  0
  -17.0165   -1.0762  -14.7711 H   0  0  0  0  0  0  0  0  0  0  0  0
  -16.2484   -2.9533  -13.7637 H   0  0  0  0  0  0  0  0  0  0  0  0
  -15.2925   -3.0200  -11.9268 C   0  0  0  0  0  0  0  0  0  0  0  0
  -15.7083   -2.7460  -10.6242 C   0  0  0  0  0  0  0  0  0  0  0  0
  -15.1078   -3.4026   -9.5471 C   0  0  0  0  0  0  0  0  0  0  0  0
  -14.0722   -4.3131   -9.7636 C   0  0  0  0  0  0  0  0  0  0  0  0
  -13.6468   -4.6036  -11.0636 C   0  0  0  0  0  0  0  0  0  0  0  0
  -12.5472   -5.5960  -11.3071 C   0  0  0  0  0  0  0  0  0  0  0  0
  -14.2676   -3.9542  -12.1423 C   0  0  0  0  0  0  0  0  0  0  0  0
 23 24  1  0  0  0
 24 22  1  0  0  0
 22 21  1  0  0  0
 21 20  1  0  0  0
 20  7  1  0  0  0
  7  8  1  0  0  0
  7 16  2  0  0  0
  8  9  2  0  0  0
  9 10  1  0  0  0
 10  1  1  0  0  0
 10 11  2  0  0  0
  1  2  1  0  0  0
  1  6  2  0  0  0
  2  3  2  0  0  0
  3  4  1  0  0  0
  4 25  1  0  0  0
  4  5  2  0  0  0
 25 26  1  0  0  0
 25 29  1  0  0  0
 26 27  2  0  0  0
 26 28  1  0  0  0
 28 31  1  0  0  0
 28 30  1  0  0  0
 31 32  1  0  0  0
 31 37  2  0  0  0
 32 33  2  0  0  0
 33 34  1  0  0  0
 34 35  2  0  0  0
 35 36  1  0  0  0
 35 37  1  0  0  0
  5  6  1  0  0  0
 11 12  1  0  0  0
 11 16  1  0  0  0
 12 13  1  0  0  0
 12 14  2  0  0  0
 13 17  1  0  0  0
 13 18  1  0  0  0
 14 15  1  0  0  0
 15 16  1  0  0  0
 15 19  1  0  0  0
M  END
> <minimizedAffinity>
-7.08197

$$$$
