CHEMBL3656046


 36 39  0  0  0  0  0  0  0  0999 V2000
  -12.7329   -6.8607  -12.7259 C   0  0  0  0  0  0  0  0  0  0  0  0
  -12.4916   -7.9835  -11.9371 C   0  0  0  0  0  0  0  0  0  0  0  0
  -12.4180   -9.2157  -12.5597 C   0  0  0  0  0  0  0  0  0  0  0  0
  -12.6280   -9.4035  -13.8784 N   0  0  0  0  0  0  0  0  0  0  0  0
  -12.9375   -8.3082  -14.6154 C   0  0  0  0  0  0  0  0  0  0  0  0
  -12.9983   -7.0259  -14.0842 C   0  0  0  0  0  0  0  0  0  0  0  0
  -13.1780   -8.6034  -16.0251 C   0  0  0  0  0  0  0  0  0  0  0  0
  -13.2113   -7.8057  -17.1578 C   0  0  0  0  0  0  0  0  0  0  0  0
  -13.4084   -8.6409  -18.3016 C   0  0  0  0  0  0  0  0  0  0  0  0
  -13.5438   -9.9325  -17.8150 C   0  0  0  0  0  0  0  0  0  0  0  0
  -13.4062   -9.8935  -16.4539 N   0  0  0  0  0  0  0  0  0  0  0  0
  -13.4238  -10.6863  -15.8258 H   0  0  0  0  0  0  0  0  0  0  0  0
  -13.4027   -8.2750  -19.7109 C   0  0  0  0  0  0  0  0  0  0  0  0
  -13.6235   -9.0687  -20.6171 O   0  0  0  0  0  0  0  0  0  0  0  0
  -13.0417   -6.9735  -19.9036 O   0  0  0  0  0  0  0  0  0  0  0  0
  -13.9474   -6.1967  -20.7073 C   0  0  0  0  0  0  0  0  0  0  0  0
  -14.7780   -5.2089  -19.8937 C   0  0  0  0  0  0  0  0  0  0  0  0
  -14.4166   -3.8688  -20.2158 O   0  0  0  0  0  0  0  0  0  0  0  0
  -13.4856   -3.7614  -19.9515 H   0  0  0  0  0  0  0  0  0  0  0  0
  -12.7745   -5.5702  -12.2335 O   0  0  0  0  0  0  0  0  0  0  0  0
  -15.2589   -3.0041  -13.0923 C   0  0  0  0  0  0  0  0  0  0  0  0
  -16.3560   -3.4381  -12.3445 C   0  0  0  0  0  0  0  0  0  0  0  0
  -16.2466   -4.5290  -11.4844 C   0  0  0  0  0  0  0  0  0  0  0  0
  -15.0437   -5.2183  -11.3809 C   0  0  0  0  0  0  0  0  0  0  0  0
  -13.9750   -4.8834  -12.2161 C   0  0  0  0  0  0  0  0  0  0  0  0
  -14.0745   -3.7591  -13.0497 C   0  0  0  0  0  0  0  0  0  0  0  0
  -15.3408   -0.5152  -13.4445 C   0  0  0  0  0  0  0  0  0  0  0  0
  -15.3469   -0.1983  -12.2574 O   0  0  0  0  0  0  0  0  0  0  0  0
  -15.2896   -1.8359  -13.8889 N   0  0  0  0  0  0  0  0  0  0  0  0
  -15.1627   -1.9548  -14.8869 H   0  0  0  0  0  0  0  0  0  0  0  0
  -17.8841    0.6449  -14.9409 C   0  0  0  0  0  0  0  0  0  0  0  0
  -16.4545    1.0281  -15.1753 C   0  0  0  0  0  0  0  0  0  0  0  0
  -16.0613    2.0022  -16.1525 C   0  0  0  0  0  0  0  0  0  0  0  0
  -14.7015    2.1935  -16.1948 C   0  0  0  0  0  0  0  0  0  0  0  0
  -13.8864    1.2141  -15.0648 S   0  0  0  0  0  0  0  0  0  0  0  0
  -15.3491    0.5083  -14.5004 C   0  0  0  0  0  0  0  0  0  0  0  0
 31 32  1  0  0  0
 32 33  1  0  0  0
 32 36  2  0  0  0
 33 34  2  0  0  0
 34 35  1  0  0  0
 35 36  1  0  0  0
 36 27  1  0  0  0
 27 28  2  0  0  0
 27 29  1  0  0  0
 29 21  1  0  0  0
 29 30  1  0  0  0
 21 22  1  0  0  0
 21 26  2  0  0  0
 22 23  2  0  0  0
 23 24  1  0  0  0
 24 25  2  0  0  0
 25 20  1  0  0  0
 25 26  1  0  0  0
 20  1  1  0  0  0
  1  2  1  0  0  0
  1  6  2  0  0  0
  2  3  2  0  0  0
  3  4  1  0  0  0
  4  5  2  0  0  0
  5  7  1  0  0  0
  5  6  1  0  0  0
  7  8  2  0  0  0
  7 11  1  0  0  0
  8  9  1  0  0  0
  9 13  1  0  0  0
  9 10  2  0  0  0
 13 14  2  0  0  0
 13 15  1  0  0  0
 15 16  1  0  0  0
 16 17  1  0  0  0
 17 18  1  0  0  0
 18 19  1  0  0  0
 10 11  1  0  0  0
 11 12  1  0  0  0
M  END
> <minimizedAffinity>
-7.44957

$$$$
