CHEMBL3104852


 19 20  0  0  0  0  0  0  0  0999 V2000
  -30.1765   -3.2697   -5.9854 C   0  0  0  0  0  0  0  0  0  0  0  0
  -29.2757   -3.4584   -7.0946 O   0  0  0  0  0  0  0  0  0  0  0  0
  -28.8443   -4.7453   -7.1697 C   0  0  0  0  0  0  0  0  0  0  0  0
  -28.1398   -5.2521   -8.0276 O   0  0  0  0  0  0  0  0  0  0  0  0
  -29.3622   -5.4476   -6.0160 C   0  0  0  0  0  0  0  0  0  0  0  0
  -29.1025   -6.7400   -5.6120 C   0  0  0  0  0  0  0  0  0  0  0  0
  -28.3224   -7.6120   -6.3113 O   0  0  0  0  0  0  0  0  0  0  0  0
  -29.6590   -7.1497   -4.4088 C   0  0  0  0  0  0  0  0  0  0  0  0
  -29.4186   -8.4097   -3.9255 O   0  0  0  0  0  0  0  0  0  0  0  0
  -30.4588   -6.2815   -3.6491 C   0  0  0  0  0  0  0  0  0  0  0  0
  -30.9533   -6.7301   -2.4556 O   0  0  0  0  0  0  0  0  0  0  0  0
  -30.7333   -4.9778   -4.0790 C   0  0  0  0  0  0  0  0  0  0  0  0
  -31.5525   -4.0200   -3.2680 C   0  0  0  0  0  0  0  0  0  0  0  0
  -30.1552   -4.5804   -5.2875 C   0  0  0  0  0  0  0  0  0  0  0  0
  -28.0014   -7.1594   -7.1219 H   0  0  0  0  0  0  0  0  0  0  0  0
  -28.8322   -8.8235   -4.5926 H   0  0  0  0  0  0  0  0  0  0  0  0
  -30.5943   -7.6354   -2.3585 H   0  0  0  0  0  0  0  0  0  0  0  0
  -29.5794   -1.0062   -5.6190 C   0  0  0  0  0  0  0  0  0  0  0  0
  -29.7377   -2.2937   -5.0561 O   0  0  0  0  0  0  0  0  0  0  0  0
 18 19  1  0  0  0
 19  1  1  0  0  0
  1  2  1  0  0  0
  1 14  1  0  0  0
  2  3  1  0  0  0
  3  4  2  0  0  0
  3  5  1  0  0  0
  5  6  1  0  0  0
  5 14  2  0  0  0
  6  7  1  0  0  0
  6  8  2  0  0  0
  7 15  1  0  0  0
  8  9  1  0  0  0
  8 10  1  0  0  0
  9 16  1  0  0  0
 10 11  1  0  0  0
 10 12  2  0  0  0
 11 17  1  0  0  0
 12 13  1  0  0  0
 12 14  1  0  0  0
M  END
> <minimizedAffinity>
-6.91908

$$$$
