CHEMBL393460


 32 34  0  0  0  0  0  0  0  0999 V2000
  -30.1763   -6.3713   -4.1261 C   0  0  0  0  0  0  0  0  0  0  0  0
  -29.7991   -6.9302   -2.9713 N   0  0  0  0  0  0  0  0  0  0  0  0
  -29.1321   -8.0982   -3.0643 C   0  0  0  0  0  0  0  0  0  0  0  0
  -28.8287   -8.7333   -4.2503 C   0  0  0  0  0  0  0  0  0  0  0  0
  -27.8486  -10.1448   -4.1837 Cl  0  0  0  0  0  0  0  0  0  0  0  0
  -29.3056   -8.1214   -5.4011 C   0  0  0  0  0  0  0  0  0  0  0  0
  -29.9643   -6.9364   -5.3274 N   0  0  0  0  0  0  0  0  0  0  0  0
  -29.1532   -8.6354   -6.7870 C   0  0  0  0  0  0  0  0  0  0  0  0
  -29.7231   -9.8440   -7.2071 C   0  0  0  0  0  0  0  0  0  0  0  0
  -29.4968  -10.3695   -8.4862 C   0  0  0  0  0  0  0  0  0  0  0  0
  -28.7206   -9.6849   -9.4324 C   0  0  0  0  0  0  0  0  0  0  0  0
  -28.2306   -8.4233   -9.0534 C   0  0  0  0  0  0  0  0  0  0  0  0
  -28.4416   -7.9124   -7.7611 C   0  0  0  0  0  0  0  0  0  0  0  0
  -28.4072  -10.2673  -10.8175 C   0  0  0  0  0  0  0  0  0  0  0  0
  -27.0865   -9.7014  -11.3626 C   0  0  0  0  0  0  0  0  0  0  0  0
  -28.3370  -11.8038  -10.7476 C   0  0  0  0  0  0  0  0  0  0  0  0
  -29.4372   -9.9577  -11.8248 N   0  0  0  0  0  0  0  0  0  0  0  0
  -29.5223   -8.9480  -11.9249 H   0  0  0  0  0  0  0  0  0  0  0  0
  -30.3354  -10.3144  -11.5088 H   0  0  0  0  0  0  0  0  0  0  0  0
  -30.7866   -5.1195   -4.0431 N   0  0  0  0  0  0  0  0  0  0  0  0
  -31.7230   -5.1995   -4.4197 H   0  0  0  0  0  0  0  0  0  0  0  0
  -28.9346   -1.3996   -4.8042 C   0  0  0  0  0  0  0  0  0  0  0  0
  -29.7902   -1.9687   -5.7542 C   0  0  0  0  0  0  0  0  0  0  0  0
  -30.4112   -3.1903   -5.5054 C   0  0  0  0  0  0  0  0  0  0  0  0
  -30.1712   -3.8872   -4.3176 C   0  0  0  0  0  0  0  0  0  0  0  0
  -29.3452   -3.3029   -3.3527 C   0  0  0  0  0  0  0  0  0  0  0  0
  -28.7166   -2.0777   -3.5991 C   0  0  0  0  0  0  0  0  0  0  0  0
  -28.2515   -0.0844   -5.0936 C   0  0  0  0  0  0  0  0  0  0  0  0
  -28.3322    0.2908   -6.5804 C   0  0  0  0  0  0  0  0  0  0  0  0
  -30.3512    1.5896   -6.4814 C   0  0  0  0  0  0  0  0  0  0  0  0
  -28.9196    1.6230   -6.7512 N   0  0  0  0  0  0  0  0  0  0  0  0
  -28.4704    2.2766   -6.1105 H   0  0  0  0  0  0  0  0  0  0  0  0
 30 31  1  0  0  0
 31 29  1  0  0  0
 31 32  1  0  0  0
 29 28  1  0  0  0
 28 22  1  0  0  0
 22 23  1  0  0  0
 22 27  2  0  0  0
 23 24  2  0  0  0
 24 25  1  0  0  0
 25 20  1  0  0  0
 25 26  2  0  0  0
 20  1  1  0  0  0
 20 21  1  0  0  0
  1  2  1  0  0  0
  1  7  2  0  0  0
  2  3  2  0  0  0
  3  4  1  0  0  0
  4  5  1  0  0  0
  4  6  2  0  0  0
  6  8  1  0  0  0
  6  7  1  0  0  0
  8  9  1  0  0  0
  8 13  2  0  0  0
  9 10  2  0  0  0
 10 11  1  0  0  0
 11 14  1  0  0  0
 11 12  2  0  0  0
 14 15  1  0  0  0
 14 16  1  0  0  0
 14 17  1  0  0  0
 17 18  1  0  0  0
 17 19  1  0  0  0
 12 13  1  0  0  0
 26 27  1  0  0  0
M  END
> <minimizedAffinity>
-8.00420

$$$$
