CHEMBL1991734


 27 30  0  0  0  0  0  0  0  0999 V2000
  -32.3150   -8.2546   -7.2118 C   0  0  0  0  0  0  0  0  0  0  0  0
  -30.8971   -8.3557   -6.8527 N   0  0  0  0  0  0  0  0  0  0  0  0
  -30.3266   -7.4497   -5.9335 C   0  0  0  0  0  0  0  0  0  0  0  0
  -31.0441   -6.4389   -5.2710 C   0  0  0  0  0  0  0  0  0  0  0  0
  -30.4400   -5.5642   -4.3552 C   0  0  0  0  0  0  0  0  0  0  0  0
  -29.0951   -5.6807   -4.0391 C   0  0  0  0  0  0  0  0  0  0  0  0
  -28.4713   -4.7302   -3.2251 N   0  0  0  0  0  0  0  0  0  0  0  0
  -28.3485   -6.6286   -4.7303 C   0  0  0  0  0  0  0  0  0  0  0  0
  -28.9524   -7.5364   -5.6381 C   0  0  0  0  0  0  0  0  0  0  0  0
  -28.0895   -8.6411   -6.2443 C   0  0  0  0  0  0  0  0  0  0  0  0
  -28.7799   -9.4914   -7.3004 C   0  0  0  0  0  0  0  0  0  0  0  0
  -28.0200  -10.4476   -8.0202 C   0  0  0  0  0  0  0  0  0  0  0  0
  -28.6134  -11.3203   -8.9300 C   0  0  0  0  0  0  0  0  0  0  0  0
  -27.8351  -12.1808   -9.7115 N   0  0  0  0  0  0  0  0  0  0  0  0
  -29.9628  -11.1546   -9.2042 C   0  0  0  0  0  0  0  0  0  0  0  0
  -30.7208  -10.1975   -8.5173 C   0  0  0  0  0  0  0  0  0  0  0  0
  -30.1536   -9.3438   -7.5517 C   0  0  0  0  0  0  0  0  0  0  0  0
  -29.0949   -4.3032   -2.5470 H   0  0  0  0  0  0  0  0  0  0  0  0
  -27.6133   -5.0636   -2.7974 H   0  0  0  0  0  0  0  0  0  0  0  0
  -26.9748  -12.4703   -9.2516 H   0  0  0  0  0  0  0  0  0  0  0  0
  -28.3522  -12.9679  -10.0886 H   0  0  0  0  0  0  0  0  0  0  0  0
  -27.4871   -9.5152   -5.1351 C   0  0  0  0  0  0  0  0  0  0  0  0
  -26.1003   -9.5139   -4.9040 C   0  0  0  0  0  0  0  0  0  0  0  0
  -25.5375  -10.3649   -3.9548 C   0  0  0  0  0  0  0  0  0  0  0  0
  -26.3550  -11.2123   -3.2101 C   0  0  0  0  0  0  0  0  0  0  0  0
  -27.7360  -11.2006   -3.4048 C   0  0  0  0  0  0  0  0  0  0  0  0
  -28.3023  -10.3581   -4.3626 C   0  0  0  0  0  0  0  0  0  0  0  0
  1  2  1  0  0  0
  2  3  1  0  0  0
  2 17  1  0  0  0
  3  4  1  0  0  0
  3  9  2  0  0  0
  4  5  2  0  0  0
  5  6  1  0  0  0
  6  7  1  0  0  0
  6  8  2  0  0  0
  7 18  1  0  0  0
  7 19  1  0  0  0
  8  9  1  0  0  0
  9 10  1  0  0  0
 10 22  1  0  0  0
 10 11  1  0  0  0
 22 23  1  0  0  0
 22 27  2  0  0  0
 23 24  2  0  0  0
 24 25  1  0  0  0
 25 26  2  0  0  0
 26 27  1  0  0  0
 11 12  1  0  0  0
 11 17  2  0  0  0
 12 13  2  0  0  0
 13 14  1  0  0  0
 13 15  1  0  0  0
 14 20  1  0  0  0
 14 21  1  0  0  0
 15 16  2  0  0  0
 16 17  1  0  0  0
M  END
> <minimizedAffinity>
-7.18747

$$$$
