CHEMBL3099465


 41 43  0  0  0  0  0  0  0  0999 V2000
  -28.0610   -2.1736   -8.5194 C   0  0  0  0  0  0  0  0  0  0  0  0
  -28.6544   -3.4512   -8.5191 C   0  0  0  0  0  0  0  0  0  0  0  0
  -29.4202   -3.9758   -7.4806 C   0  0  0  0  0  0  0  0  0  0  0  0
  -29.5653   -3.2038   -6.3346 C   0  0  0  0  0  0  0  0  0  0  0  0
  -28.9635   -1.9313   -6.2578 C   0  0  0  0  0  0  0  0  0  0  0  0
  -28.2297   -1.3994   -7.3500 C   0  0  0  0  0  0  0  0  0  0  0  0
  -27.2033   -1.5010  -12.2044 C   0  0  0  0  0  0  0  0  0  0  0  0
  -27.9086   -1.6855  -11.0066 C   0  0  0  0  0  0  0  0  0  0  0  0
  -27.2735   -1.7963   -9.7389 C   0  0  0  0  0  0  0  0  0  0  0  0
  -25.8813   -1.6610   -9.7268 C   0  0  0  0  0  0  0  0  0  0  0  0
  -25.1688   -1.3845  -10.9008 C   0  0  0  0  0  0  0  0  0  0  0  0
  -25.8275   -1.2785  -12.1346 C   0  0  0  0  0  0  0  0  0  0  0  0
  -24.9974   -0.9389  -13.3218 C   0  0  0  0  0  0  0  0  0  0  0  0
  -23.9022    0.0918  -13.2103 C   0  0  0  0  0  0  0  0  0  0  0  0
  -25.1686   -1.5605  -14.3733 O   0  0  0  0  0  0  0  0  0  0  0  0
  -28.5303   -2.7282  -13.7828 C   0  0  0  0  0  0  0  0  0  0  0  0
  -27.7774   -1.5661  -13.4466 O   0  0  0  0  0  0  0  0  0  0  0  0
  -30.0497   -5.2442   -7.5759 N   0  0  0  0  0  0  0  0  0  0  0  0
  -29.4837   -6.4474   -7.1798 C   0  0  0  0  0  0  0  0  0  0  0  0
  -28.3835   -6.5800   -6.6531 O   0  0  0  0  0  0  0  0  0  0  0  0
  -30.2834   -7.5418   -7.4801 N   0  0  0  0  0  0  0  0  0  0  0  0
  -31.0056   -5.2687   -7.8985 H   0  0  0  0  0  0  0  0  0  0  0  0
  -30.7338   -7.4751   -8.3796 H   0  0  0  0  0  0  0  0  0  0  0  0
  -29.8254   -8.8307   -7.0927 C   0  0  0  0  0  0  0  0  0  0  0  0
  -29.8402   -9.1875   -5.7353 C   0  0  0  0  0  0  0  0  0  0  0  0
  -29.3037  -10.3996   -5.3024 C   0  0  0  0  0  0  0  0  0  0  0  0
  -28.7547  -11.2817   -6.2270 C   0  0  0  0  0  0  0  0  0  0  0  0
  -28.7455  -10.9367   -7.5836 C   0  0  0  0  0  0  0  0  0  0  0  0
  -29.2863   -9.7170   -8.0335 C   0  0  0  0  0  0  0  0  0  0  0  0
  -29.1416   -9.3418   -9.4832 C   0  0  0  0  0  0  0  0  0  0  0  0
  -28.1410  -12.4652   -5.9168 O   0  0  0  0  0  0  0  0  0  0  0  0
  -27.3097  -12.4418   -4.7506 C   0  0  0  0  0  0  0  0  0  0  0  0
  -25.8539  -12.3983   -5.2065 C   0  0  0  0  0  0  0  0  0  0  0  0
  -25.1774  -11.0617   -4.8859 C   0  0  0  0  0  0  0  0  0  0  0  0
  -24.7581  -10.2912   -6.0697 N   0  0  0  0  0  0  0  0  0  0  0  0
  -23.3835   -9.7994   -5.9496 C   0  0  0  0  0  0  0  0  0  0  0  0
  -24.8828  -11.1133   -7.2767 C   0  0  0  0  0  0  0  0  0  0  0  0
  -29.1826   -1.1482   -5.1487 O   0  0  0  0  0  0  0  0  0  0  0  0
  -28.4976   -1.5917   -3.9779 C   0  0  0  0  0  0  0  0  0  0  0  0
  -27.7047   -0.1296   -7.3882 O   0  0  0  0  0  0  0  0  0  0  0  0
  -28.5578    0.9478   -7.0217 C   0  0  0  0  0  0  0  0  0  0  0  0
 16 17  1  0  0  0
 17  7  1  0  0  0
  7  8  1  0  0  0
  7 12  2  0  0  0
  8  9  2  0  0  0
  9  1  1  0  0  0
  9 10  1  0  0  0
  1  2  1  0  0  0
  1  6  2  0  0  0
  2  3  2  0  0  0
  3 18  1  0  0  0
  3  4  1  0  0  0
 18 19  1  0  0  0
 18 22  1  0  0  0
 19 20  2  0  0  0
 19 21  1  0  0  0
 21 24  1  0  0  0
 21 23  1  0  0  0
 24 25  1  0  0  0
 24 29  2  0  0  0
 25 26  2  0  0  0
 26 27  1  0  0  0
 27 31  1  0  0  0
 27 28  2  0  0  0
 31 32  1  0  0  0
 32 33  1  0  0  0
 33 34  1  0  0  0
 34 35  1  0  0  0
 35 36  1  0  0  0
 35 37  1  0  0  0
 28 29  1  0  0  0
 29 30  1  0  0  0
  4  5  2  0  0  0
  5 38  1  0  0  0
  5  6  1  0  0  0
 38 39  1  0  0  0
  6 40  1  0  0  0
 40 41  1  0  0  0
 10 11  2  0  0  0
 11 12  1  0  0  0
 12 13  1  0  0  0
 13 14  1  0  0  0
 13 15  2  0  0  0
M  END
> <minimizedAffinity>
-6.82823

$$$$
