CHEMBL3690570


 40 44  0  0  0  0  0  0  0  0999 V2000
  -14.7946   -4.6788  -12.0832 C   0  0  0  0  0  0  0  0  0  0  0  0
  -15.7773   -4.2653  -11.1966 C   0  0  0  0  0  0  0  0  0  0  0  0
  -16.1836   -2.9788  -11.4344 N   0  0  0  0  0  0  0  0  0  0  0  0
  -15.4744   -2.5793  -12.4659 C   0  0  0  0  0  0  0  0  0  0  0  0
  -15.4546   -1.3296  -13.1498 C   0  0  0  0  0  0  0  0  0  0  0  0
  -14.6362   -1.1273  -14.2123 C   0  0  0  0  0  0  0  0  0  0  0  0
  -13.7923   -2.2283  -14.6845 C   0  0  0  0  0  0  0  0  0  0  0  0
  -13.8297   -3.4152  -14.0626 C   0  0  0  0  0  0  0  0  0  0  0  0
  -14.6349   -3.5868  -12.9342 N   0  0  0  0  0  0  0  0  0  0  0  0
  -13.5559   -7.9987  -13.4327 C   0  0  0  0  0  0  0  0  0  0  0  0
  -12.5264   -8.2656  -12.5300 C   0  0  0  0  0  0  0  0  0  0  0  0
  -12.3228   -7.4446  -11.4259 C   0  0  0  0  0  0  0  0  0  0  0  0
  -13.1271   -6.3276  -11.2354 C   0  0  0  0  0  0  0  0  0  0  0  0
  -14.0832   -5.9586  -12.1894 C   0  0  0  0  0  0  0  0  0  0  0  0
  -14.3235   -6.8334  -13.2629 C   0  0  0  0  0  0  0  0  0  0  0  0
  -12.1252   -8.4265  -16.0042 O   0  0  0  0  0  0  0  0  0  0  0  0
  -13.1516   -9.0072  -15.6794 C   0  0  0  0  0  0  0  0  0  0  0  0
  -13.7169   -9.9621  -16.4987 N   0  0  0  0  0  0  0  0  0  0  0  0
  -13.8709   -8.8497  -14.5151 N   0  0  0  0  0  0  0  0  0  0  0  0
  -14.7177  -10.0709  -16.4216 H   0  0  0  0  0  0  0  0  0  0  0  0
  -14.6639   -9.4600  -14.3911 H   0  0  0  0  0  0  0  0  0  0  0  0
  -13.1473  -10.1610  -17.8369 C   0  0  0  0  0  0  0  0  0  0  0  0
  -13.9888  -11.0351  -18.7776 C   0  0  0  0  0  0  0  0  0  0  0  0
  -14.3419  -10.3705  -19.9031 F   0  0  0  0  0  0  0  0  0  0  0  0
  -13.3514  -12.1666  -19.1392 F   0  0  0  0  0  0  0  0  0  0  0  0
  -15.1424  -11.3969  -18.1623 F   0  0  0  0  0  0  0  0  0  0  0  0
  -14.6425    0.1902  -14.8899 C   0  0  0  0  0  0  0  0  0  0  0  0
  -13.5668    0.5079  -15.6375 N   0  0  0  0  0  0  0  0  0  0  0  0
  -13.5898    1.6973  -16.2618 C   0  0  0  0  0  0  0  0  0  0  0  0
  -14.6575    2.5540  -16.1984 C   0  0  0  0  0  0  0  0  0  0  0  0
  -15.7257    2.1143  -15.4458 C   0  0  0  0  0  0  0  0  0  0  0  0
  -15.7382    0.9520  -14.7641 N   0  0  0  0  0  0  0  0  0  0  0  0
  -16.9316    2.9845  -15.3455 C   0  0  0  0  0  0  0  0  0  0  0  0
  -16.8186    4.1481  -15.7319 O   0  0  0  0  0  0  0  0  0  0  0  0
  -18.1365    2.4721  -14.8625 N   0  0  0  0  0  0  0  0  0  0  0  0
  -18.4456    1.0678  -14.5544 C   0  0  0  0  0  0  0  0  0  0  0  0
  -19.7383    0.6257  -15.2593 C   0  0  0  0  0  0  0  0  0  0  0  0
  -20.8260    1.5257  -15.0033 O   0  0  0  0  0  0  0  0  0  0  0  0
  -20.4937    2.8578  -15.4280 C   0  0  0  0  0  0  0  0  0  0  0  0
  -19.2692    3.3773  -14.6712 C   0  0  0  0  0  0  0  0  0  0  0  0
 16 17  2  0  0  0
 17 18  1  0  0  0
 17 19  1  0  0  0
 18 22  1  0  0  0
 18 20  1  0  0  0
 22 23  1  0  0  0
 23 24  1  0  0  0
 23 25  1  0  0  0
 23 26  1  0  0  0
 19 10  1  0  0  0
 19 21  1  0  0  0
 10 11  1  0  0  0
 10 15  2  0  0  0
 11 12  2  0  0  0
 12 13  1  0  0  0
 13 14  2  0  0  0
 14  1  1  0  0  0
 14 15  1  0  0  0
  1  2  2  0  0  0
  1  9  1  0  0  0
  2  3  1  0  0  0
  3  4  2  0  0  0
  4  5  1  0  0  0
  4  9  1  0  0  0
  5  6  2  0  0  0
  6 27  1  0  0  0
  6  7  1  0  0  0
 27 28  1  0  0  0
 27 32  2  0  0  0
 28 29  2  0  0  0
 29 30  1  0  0  0
 30 31  2  0  0  0
 31 33  1  0  0  0
 31 32  1  0  0  0
 33 34  2  0  0  0
 33 35  1  0  0  0
 35 36  1  0  0  0
 35 40  1  0  0  0
 36 37  1  0  0  0
 37 38  1  0  0  0
 38 39  1  0  0  0
 39 40  1  0  0  0
  7  8  2  0  0  0
  8  9  1  0  0  0
M  END
> <minimizedAffinity>
-8.79998

$$$$
