CHEMBL3109347


 34 38  0  0  0  0  0  0  0  0999 V2000
  -14.9187   -1.9239  -13.3194 C   0  0  0  0  0  0  0  0  0  0  0  0
  -15.5884   -2.0153  -12.1117 C   0  0  0  0  0  0  0  0  0  0  0  0
  -15.6544   -3.2503  -11.5003 C   0  0  0  0  0  0  0  0  0  0  0  0
  -15.0180   -4.3486  -12.0836 C   0  0  0  0  0  0  0  0  0  0  0  0
  -15.0200   -5.5709  -11.4089 C   0  0  0  0  0  0  0  0  0  0  0  0
  -14.3055   -6.6412  -11.9191 C   0  0  0  0  0  0  0  0  0  0  0  0
  -13.6198   -6.5093  -13.1238 C   0  0  0  0  0  0  0  0  0  0  0  0
  -13.6489   -5.3062  -13.8477 C   0  0  0  0  0  0  0  0  0  0  0  0
  -14.3486   -4.1919  -13.3247 C   0  0  0  0  0  0  0  0  0  0  0  0
  -14.3473   -2.9875  -13.9353 N   0  0  0  0  0  0  0  0  0  0  0  0
  -17.3788    2.1455  -15.5205 C   0  0  0  0  0  0  0  0  0  0  0  0
  -17.9765    0.9617  -14.9256 C   0  0  0  0  0  0  0  0  0  0  0  0
  -17.1786    0.0163  -14.4059 C   0  0  0  0  0  0  0  0  0  0  0  0
  -15.7905    0.1743  -14.4399 N   0  0  0  0  0  0  0  0  0  0  0  0
  -14.7611   -0.6414  -13.9912 C   0  0  0  0  0  0  0  0  0  0  0  0
  -13.6080    0.0218  -14.3896 C   0  0  0  0  0  0  0  0  0  0  0  0
  -13.8784    1.1997  -15.0233 N   0  0  0  0  0  0  0  0  0  0  0  0
  -15.1892    1.2792  -15.0345 C   0  0  0  0  0  0  0  0  0  0  0  0
  -16.0382    2.2845  -15.5648 C   0  0  0  0  0  0  0  0  0  0  0  0
  -18.3215    3.0287  -15.9871 O   0  0  0  0  0  0  0  0  0  0  0  0
  -19.2843    3.4470  -15.0226 C   0  0  0  0  0  0  0  0  0  0  0  0
  -20.6847    3.1628  -15.5334 C   0  0  0  0  0  0  0  0  0  0  0  0
  -21.5569    1.5154  -14.0965 C   0  0  0  0  0  0  0  0  0  0  0  0
  -21.5157    2.8990  -14.4042 O   0  0  0  0  0  0  0  0  0  0  0  0
  -13.0170   -5.1455  -15.0782 O   0  0  0  0  0  0  0  0  0  0  0  0
  -13.7461   -5.5127  -16.2738 C   0  0  0  0  0  0  0  0  0  0  0  0
  -13.3033   -6.8806  -16.7741 C   0  0  0  0  0  0  0  0  0  0  0  0
  -11.8461   -6.8328  -17.2134 C   0  0  0  0  0  0  0  0  0  0  0  0
  -11.5834   -5.8989  -18.2965 N   0  0  0  0  0  0  0  0  0  0  0  0
  -12.3557   -4.6605  -18.3262 C   0  0  0  0  0  0  0  0  0  0  0  0
  -13.5746   -4.4763  -17.4018 C   0  0  0  0  0  0  0  0  0  0  0  0
  -13.6230   -3.1428  -16.8845 O   0  0  0  0  0  0  0  0  0  0  0  0
  -10.5876   -5.6734  -18.3267 H   0  0  0  0  0  0  0  0  0  0  0  0
  -13.2136   -3.1733  -15.9978 H   0  0  0  0  0  0  0  0  0  0  0  0
 23 24  1  0  0  0
 24 22  1  0  0  0
 22 21  1  0  0  0
 21 20  1  0  0  0
 20 11  1  0  0  0
 11 12  1  0  0  0
 11 19  2  0  0  0
 12 13  2  0  0  0
 13 14  1  0  0  0
 14 15  1  0  0  0
 14 18  1  0  0  0
 15  1  1  0  0  0
 15 16  2  0  0  0
  1  2  1  0  0  0
  1 10  2  0  0  0
  2  3  2  0  0  0
  3  4  1  0  0  0
  4  5  1  0  0  0
  4  9  2  0  0  0
  5  6  2  0  0  0
  6  7  1  0  0  0
  7  8  2  0  0  0
  8 25  1  0  0  0
  8  9  1  0  0  0
 26 27  1  0  0  0
 26 31  1  0  0  0
 26 25  1  0  0  0
 27 28  1  0  0  0
 28 29  1  0  0  0
 29 30  1  0  0  0
 29 33  1  0  0  0
 30 31  1  0  0  0
 31 32  1  0  0  0
 32 34  1  0  0  0
  9 10  1  0  0  0
 16 17  1  0  0  0
 17 18  2  0  0  0
 18 19  1  0  0  0
M  END
> <minimizedAffinity>
-7.00167

$$$$
