CHEMBL387313


 24 26  0  0  0  0  0  0  0  0999 V2000
  -15.1028    1.3838  -14.6054 C   0  0  0  0  0  0  0  0  0  0  0  0
  -13.9543    2.1427  -14.4009 C   0  0  0  0  0  0  0  0  0  0  0  0
  -12.9303    1.7476  -13.5414 N   0  0  0  0  0  0  0  0  0  0  0  0
  -13.6783    3.2525  -15.1043 N   0  0  0  0  0  0  0  0  0  0  0  0
  -14.5825    3.6200  -16.0164 C   0  0  0  0  0  0  0  0  0  0  0  0
  -15.7190    2.9771  -16.2891 N   0  0  0  0  0  0  0  0  0  0  0  0
  -15.9476    1.8343  -15.6016 C   0  0  0  0  0  0  0  0  0  0  0  0
  -13.2974    1.3859  -12.6604 H   0  0  0  0  0  0  0  0  0  0  0  0
  -12.2557    2.4982  -13.4448 H   0  0  0  0  0  0  0  0  0  0  0  0
  -15.3482    0.2509  -12.4917 N   0  0  0  0  0  0  0  0  0  0  0  0
  -15.4018    0.1947  -13.7871 C   0  0  0  0  0  0  0  0  0  0  0  0
  -15.4166   -1.9895  -12.9323 C   0  0  0  0  0  0  0  0  0  0  0  0
  -15.6582   -0.9958  -11.9385 O   0  0  0  0  0  0  0  0  0  0  0  0
  -17.1034    1.1106  -15.9054 O   0  0  0  0  0  0  0  0  0  0  0  0
  -18.3150    1.6689  -15.5293 C   0  0  0  0  0  0  0  0  0  0  0  0
  -18.5516    3.0441  -15.5984 C   0  0  0  0  0  0  0  0  0  0  0  0
  -19.7513    3.6014  -15.1438 C   0  0  0  0  0  0  0  0  0  0  0  0
  -20.7325    2.7241  -14.6803 C   0  0  0  0  0  0  0  0  0  0  0  0
  -21.9813    2.9899  -14.1632 N   0  0  0  0  0  0  0  0  0  0  0  0
  -22.6309    1.8210  -13.8726 C   0  0  0  0  0  0  0  0  0  0  0  0
  -21.7790    0.7830  -14.1800 C   0  0  0  0  0  0  0  0  0  0  0  0
  -20.5649    1.3387  -14.6711 C   0  0  0  0  0  0  0  0  0  0  0  0
  -19.3318    0.7988  -15.1084 C   0  0  0  0  0  0  0  0  0  0  0  0
  -22.3570    3.9183  -14.0257 H   0  0  0  0  0  0  0  0  0  0  0  0
 12 13  1  0  0  0
 13 10  1  0  0  0
 10 11  2  0  0  0
 11  1  1  0  0  0
  1  2  1  0  0  0
  1  7  2  0  0  0
  2  3  1  0  0  0
  2  4  2  0  0  0
  3  8  1  0  0  0
  3  9  1  0  0  0
  4  5  1  0  0  0
  5  6  2  0  0  0
  6  7  1  0  0  0
  7 14  1  0  0  0
 14 15  1  0  0  0
 15 16  1  0  0  0
 15 23  2  0  0  0
 16 17  2  0  0  0
 17 18  1  0  0  0
 18 19  1  0  0  0
 18 22  2  0  0  0
 19 20  1  0  0  0
 19 24  1  0  0  0
 20 21  2  0  0  0
 21 22  1  0  0  0
 22 23  1  0  0  0
M  END
> <minimizedAffinity>
-7.76618

$$$$
