CHEMBL1993510


 31 34  0  0  0  0  0  0  0  0999 V2000
  -25.6852   -8.4746   -4.2578 O   0  0  0  0  0  0  0  0  0  0  0  0
  -26.6803   -9.1889   -4.2481 C   0  0  0  0  0  0  0  0  0  0  0  0
  -27.9355   -8.7914   -4.6979 N   0  0  0  0  0  0  0  0  0  0  0  0
  -26.6839  -10.4820   -3.7584 N   0  0  0  0  0  0  0  0  0  0  0  0
  -28.7209   -9.3850   -4.4832 H   0  0  0  0  0  0  0  0  0  0  0  0
  -27.5200  -11.0253   -3.9011 H   0  0  0  0  0  0  0  0  0  0  0  0
  -28.2230   -7.5333   -5.2839 C   0  0  0  0  0  0  0  0  0  0  0  0
  -28.0413   -6.3425   -4.5838 C   0  0  0  0  0  0  0  0  0  0  0  0
  -28.2859   -5.1212   -5.1835 C   0  0  0  0  0  0  0  0  0  0  0  0
  -28.7038   -5.0616   -6.5140 C   0  0  0  0  0  0  0  0  0  0  0  0
  -28.9498   -6.2283   -7.2322 C   0  0  0  0  0  0  0  0  0  0  0  0
  -28.6870   -7.4682   -6.6118 C   0  0  0  0  0  0  0  0  0  0  0  0
  -28.7759   -3.7637   -7.0698 N   0  0  0  0  0  0  0  0  0  0  0  0
  -28.0355   -3.4181   -8.1857 C   0  0  0  0  0  0  0  0  0  0  0  0
  -27.5934   -2.1858   -8.1371 N   0  0  0  0  0  0  0  0  0  0  0  0
  -28.1128   -1.6861   -6.9743 C   0  0  0  0  0  0  0  0  0  0  0  0
  -27.8403   -0.4584   -6.3578 C   0  0  0  0  0  0  0  0  0  0  0  0
  -28.5091   -0.1397   -5.1744 C   0  0  0  0  0  0  0  0  0  0  0  0
  -29.4594   -1.0108   -4.6364 C   0  0  0  0  0  0  0  0  0  0  0  0
  -29.7127   -2.2649   -5.2105 C   0  0  0  0  0  0  0  0  0  0  0  0
  -28.9868   -2.5907   -6.3641 C   0  0  0  0  0  0  0  0  0  0  0  0
  -25.5969  -11.1347   -3.1283 C   0  0  0  0  0  0  0  0  0  0  0  0
  -25.6802  -11.7848   -1.8919 C   0  0  0  0  0  0  0  0  0  0  0  0
  -24.5718  -12.4326   -1.3421 C   0  0  0  0  0  0  0  0  0  0  0  0
  -23.3652  -12.4449   -2.0218 C   0  0  0  0  0  0  0  0  0  0  0  0
  -23.2512  -11.8073   -3.2647 C   0  0  0  0  0  0  0  0  0  0  0  0
  -24.3706  -11.1469   -3.8017 C   0  0  0  0  0  0  0  0  0  0  0  0
  -21.9561  -11.8344   -4.0321 C   0  0  0  0  0  0  0  0  0  0  0  0
  -22.0446  -12.4648   -5.2383 F   0  0  0  0  0  0  0  0  0  0  0  0
  -21.4891  -10.5825   -4.2979 F   0  0  0  0  0  0  0  0  0  0  0  0
  -20.9620  -12.4650   -3.3439 F   0  0  0  0  0  0  0  0  0  0  0  0
  1  2  2  0  0  0
  2  3  1  0  0  0
  2  4  1  0  0  0
  3  7  1  0  0  0
  3  5  1  0  0  0
  7  8  1  0  0  0
  7 12  2  0  0  0
  8  9  2  0  0  0
  9 10  1  0  0  0
 10 13  1  0  0  0
 10 11  2  0  0  0
 13 14  1  0  0  0
 13 21  1  0  0  0
 14 15  2  0  0  0
 15 16  1  0  0  0
 16 17  1  0  0  0
 16 21  2  0  0  0
 17 18  2  0  0  0
 18 19  1  0  0  0
 19 20  2  0  0  0
 20 21  1  0  0  0
 11 12  1  0  0  0
  4 22  1  0  0  0
  4  6  1  0  0  0
 22 23  1  0  0  0
 22 27  2  0  0  0
 23 24  2  0  0  0
 24 25  1  0  0  0
 25 26  2  0  0  0
 26 28  1  0  0  0
 26 27  1  0  0  0
 28 29  1  0  0  0
 28 30  1  0  0  0
 28 31  1  0  0  0
M  END
> <minimizedAffinity>
-8.61594

$$$$
