CHEMBL4469077


 25 28  0  0  0  0  0  0  0  0999 V2000
  -19.5606    3.3242  -15.0173 C   0  0  0  0  0  0  0  0  0  0  0  0
  -22.8099    0.7175  -13.8251 C   0  0  0  0  0  0  0  0  0  0  0  0
  -22.9078    2.1030  -13.6517 C   0  0  0  0  0  0  0  0  0  0  0  0
  -21.8628    2.9502  -14.0359 C   0  0  0  0  0  0  0  0  0  0  0  0
  -20.6931    2.4227  -14.6018 C   0  0  0  0  0  0  0  0  0  0  0  0
  -20.5923    1.0367  -14.7710 C   0  0  0  0  0  0  0  0  0  0  0  0
  -21.6413    0.1928  -14.3921 C   0  0  0  0  0  0  0  0  0  0  0  0
  -26.2240   -1.6278  -11.0807 C   0  0  0  0  0  0  0  0  0  0  0  0
  -25.4112   -1.1678  -12.1799 N   0  0  0  0  0  0  0  0  0  0  0  0
  -24.4456   -0.2031  -12.1423 C   0  0  0  0  0  0  0  0  0  0  0  0
  -23.9030   -0.1465  -13.4102 C   0  0  0  0  0  0  0  0  0  0  0  0
  -24.6369   -1.1156  -14.1350 C   0  0  0  0  0  0  0  0  0  0  0  0
  -25.5539   -1.7374  -13.3892 N   0  0  0  0  0  0  0  0  0  0  0  0
  -18.3261    2.5922  -15.2294 N   0  0  0  0  0  0  0  0  0  0  0  0
  -17.7106    1.7410  -14.3592 C   0  0  0  0  0  0  0  0  0  0  0  0
  -16.4774    1.5146  -14.9275 C   0  0  0  0  0  0  0  0  0  0  0  0
  -16.4141    2.1714  -16.1314 N   0  0  0  0  0  0  0  0  0  0  0  0
  -17.5479    2.8427  -16.2997 N   0  0  0  0  0  0  0  0  0  0  0  0
  -15.3923    0.7365  -14.3651 C   0  0  0  0  0  0  0  0  0  0  0  0
  -15.6235   -0.5808  -13.9409 C   0  0  0  0  0  0  0  0  0  0  0  0
  -14.5818   -1.3528  -13.4141 C   0  0  0  0  0  0  0  0  0  0  0  0
  -13.2959   -0.8231  -13.3138 C   0  0  0  0  0  0  0  0  0  0  0  0
  -13.0516    0.4809  -13.7378 C   0  0  0  0  0  0  0  0  0  0  0  0
  -14.0937    1.2486  -14.2555 C   0  0  0  0  0  0  0  0  0  0  0  0
  -13.8032    2.4929  -14.6686 F   0  0  0  0  0  0  0  0  0  0  0  0
  8  9  1  0  0  0
  9 10  1  0  0  0
  9 13  1  0  0  0
 10 11  2  0  0  0
 11  2  1  0  0  0
 11 12  1  0  0  0
  2  3  1  0  0  0
  2  7  2  0  0  0
  3  4  2  0  0  0
  4  5  1  0  0  0
  5  1  1  0  0  0
  5  6  2  0  0  0
  1 14  1  0  0  0
 14 15  1  0  0  0
 14 18  1  0  0  0
 15 16  2  0  0  0
 16 19  1  0  0  0
 16 17  1  0  0  0
 19 20  1  0  0  0
 19 24  2  0  0  0
 20 21  2  0  0  0
 21 22  1  0  0  0
 22 23  2  0  0  0
 23 24  1  0  0  0
 24 25  1  0  0  0
 17 18  2  0  0  0
  6  7  1  0  0  0
 12 13  2  0  0  0
M  END
> <minimizedAffinity>
-8.75098

$$$$
