CHEMBL3908877


 32 35  0  0  0  0  0  0  0  0999 V2000
  -28.5361   -8.9269   -5.5521 N   0  0  0  0  0  0  0  0  0  0  0  0
  -28.9154   -7.5659   -5.2103 C   0  0  0  0  0  0  0  0  0  0  0  0
  -28.5382   -6.6390   -6.1356 C   0  0  0  0  0  0  0  0  0  0  0  0
  -28.7948   -5.4204   -5.9924 C   0  0  0  0  0  0  0  0  0  0  0  0
  -29.3599   -4.9489   -5.0048 C   0  0  0  0  0  0  0  0  0  0  0  0
  -29.2178   -3.8104   -5.1755 N   0  0  0  0  0  0  0  0  0  0  0  0
  -29.0684   -2.7526   -5.3718 C   0  0  0  0  0  0  0  0  0  0  0  0
  -29.7237   -2.0921   -4.5317 C   0  0  0  0  0  0  0  0  0  0  0  0
  -30.2950   -3.5958   -3.3964 N   0  0  0  0  0  0  0  0  0  0  0  0
  -29.8870   -5.2524   -3.8698 C   0  0  0  0  0  0  0  0  0  0  0  0
  -29.6106   -7.0022   -3.9690 C   0  0  0  0  0  0  0  0  0  0  0  0
  -29.2778   -0.2068   -5.4019 C   0  0  0  0  0  0  0  0  0  0  0  0
  -28.2321    0.6153   -6.0994 C   0  0  0  0  0  0  0  0  0  0  0  0
  -28.7604    1.7743   -6.7767 N   0  0  0  0  0  0  0  0  0  0  0  0
  -30.0651    1.8035   -6.5909 N   0  0  0  0  0  0  0  0  0  0  0  0
  -30.3909    0.6496   -5.8143 C   0  0  0  0  0  0  0  0  0  0  0  0
  -30.7150    2.5923   -6.9734 H   0  0  0  0  0  0  0  0  0  0  0  0
  -30.8908   -9.7796   -8.1965 C   0  0  0  0  0  0  0  0  0  0  0  0
  -30.1092  -10.2920   -9.1563 C   0  0  0  0  0  0  0  0  0  0  0  0
  -28.7924  -10.5769   -8.8732 C   0  0  0  0  0  0  0  0  0  0  0  0
  -28.2954  -10.2253   -7.6307 C   0  0  0  0  0  0  0  0  0  0  0  0
  -29.0723   -9.5061   -6.7527 C   0  0  0  0  0  0  0  0  0  0  0  0
  -30.3812   -9.4452   -7.1010 C   0  0  0  0  0  0  0  0  0  0  0  0
  -32.9505   -8.8835   -7.3662 C   0  0  0  0  0  0  0  0  0  0  0  0
  -32.2269   -9.8165   -8.1804 O   0  0  0  0  0  0  0  0  0  0  0  0
  -28.0121  -11.1625   -9.7833 O   0  0  0  0  0  0  0  0  0  0  0  0
  -27.0985  -10.4501  -10.5312 C   0  0  0  0  0  0  0  0  0  0  0  0
  -27.8381   -9.7178   -4.5282 C   0  0  0  0  0  0  0  0  0  0  0  0
  -26.3551   -9.5446   -4.4863 C   0  0  0  0  0  0  0  0  0  0  0  0
  -25.7948   -8.3228   -4.0907 N   0  0  0  0  0  0  0  0  0  0  0  0
  -26.1257   -7.6804   -4.8269 H   0  0  0  0  0  0  0  0  0  0  0  0
  -24.7492   -8.4417   -4.1961 H   0  0  0  0  0  0  0  0  0  0  0  0
 24 25  1  0  0  0
 25 18  1  0  0  0
 18 19  1  0  0  0
 18 23  2  0  0  0
 19 20  2  0  0  0
 20 26  1  0  0  0
 20 21  1  0  0  0
 26 27  1  0  0  0
 21 22  2  0  0  0
 22  1  1  0  0  0
 22 23  1  0  0  0
  1 28  1  0  0  0
  1  2  1  0  0  0
 28 29  1  0  0  0
 29 30  1  0  0  0
 30 31  1  0  0  0
 30 32  1  0  0  0
  2  3  1  0  0  0
  2 11  2  0  0  0
  3  4  2  0  0  0
  4  5  1  0  0  0
  5  6  1  0  0  0
  5 10  2  0  0  0
  6  7  2  0  0  0
  7  8  1  0  0  0
  8 12  1  0  0  0
  8  9  2  0  0  0
 12 13  1  0  0  0
 12 16  2  0  0  0
 13 14  2  0  0  0
 14 15  1  0  0  0
 15 16  1  0  0  0
 15 17  1  0  0  0
  9 10  1  0  0  0
 10 11  1  0  0  0
M  END
> <minimizedAffinity>
-8.26815

$$$$
