CHEMBL1081198


 40 44  0  0  0  0  0  0  0  0999 V2000
  -28.5098   -1.8508   -6.4666 C   0  0  0  0  0  0  0  0  0  0  0  0
  -28.8643   -1.1350   -5.3202 C   0  0  0  0  0  0  0  0  0  0  0  0
  -29.2037   -1.7950   -4.1429 C   0  0  0  0  0  0  0  0  0  0  0  0
  -29.2219   -3.1850   -4.1083 C   0  0  0  0  0  0  0  0  0  0  0  0
  -28.9390   -3.9393   -5.2599 C   0  0  0  0  0  0  0  0  0  0  0  0
  -28.5612   -3.2531   -6.4295 C   0  0  0  0  0  0  0  0  0  0  0  0
  -29.0419   -5.4235   -5.2533 C   0  0  0  0  0  0  0  0  0  0  0  0
  -27.9819   -6.1432   -4.8278 C   0  0  0  0  0  0  0  0  0  0  0  0
  -28.0809   -7.5122   -4.8011 N   0  0  0  0  0  0  0  0  0  0  0  0
  -27.2007   -8.4858   -4.4187 C   0  0  0  0  0  0  0  0  0  0  0  0
  -27.8810   -9.6707   -4.5899 C   0  0  0  0  0  0  0  0  0  0  0  0
  -29.1414   -9.4461   -5.0802 N   0  0  0  0  0  0  0  0  0  0  0  0
  -29.2289   -8.1358   -5.1941 C   0  0  0  0  0  0  0  0  0  0  0  0
  -30.3581   -7.3293   -5.6327 C   0  0  0  0  0  0  0  0  0  0  0  0
  -30.2458   -6.0127   -5.6402 N   0  0  0  0  0  0  0  0  0  0  0  0
  -31.5700   -7.8453   -6.0347 N   0  0  0  0  0  0  0  0  0  0  0  0
  -32.3333   -7.6300   -5.4065 H   0  0  0  0  0  0  0  0  0  0  0  0
  -31.9439   -8.0254   -7.4214 C   0  0  0  0  0  0  0  0  0  0  0  0
  -31.3628   -9.3015   -7.9759 C   0  0  0  0  0  0  0  0  0  0  0  0
  -30.1568   -9.2894   -8.6816 C   0  0  0  0  0  0  0  0  0  0  0  0
  -29.6319  -10.4939   -9.1276 C   0  0  0  0  0  0  0  0  0  0  0  0
  -30.2129  -11.6937   -8.9185 N   0  0  0  0  0  0  0  0  0  0  0  0
  -31.3723  -11.6886   -8.2286 C   0  0  0  0  0  0  0  0  0  0  0  0
  -31.9745  -10.5385   -7.7453 C   0  0  0  0  0  0  0  0  0  0  0  0
  -27.3005   -3.0736   -8.8135 O   0  0  0  0  0  0  0  0  0  0  0  0
  -27.5269   -1.8721   -8.7632 C   0  0  0  0  0  0  0  0  0  0  0  0
  -28.1018   -1.2301   -7.6731 N   0  0  0  0  0  0  0  0  0  0  0  0
  -27.2659   -0.9860   -9.7974 N   0  0  0  0  0  0  0  0  0  0  0  0
  -28.3957   -0.2744   -7.8006 H   0  0  0  0  0  0  0  0  0  0  0  0
  -27.3931   -0.0055   -9.6020 H   0  0  0  0  0  0  0  0  0  0  0  0
  -26.7864   -1.3190  -11.0890 C   0  0  0  0  0  0  0  0  0  0  0  0
  -27.6105   -1.4996  -12.2021 C   0  0  0  0  0  0  0  0  0  0  0  0
  -27.0739   -1.8140  -13.4524 C   0  0  0  0  0  0  0  0  0  0  0  0
  -25.6983   -1.9388  -13.6093 C   0  0  0  0  0  0  0  0  0  0  0  0
  -24.8467   -1.7498  -12.5133 C   0  0  0  0  0  0  0  0  0  0  0  0
  -25.4028   -1.4520  -11.2530 C   0  0  0  0  0  0  0  0  0  0  0  0
  -23.3507   -1.8392  -12.6747 C   0  0  0  0  0  0  0  0  0  0  0  0
  -22.6538   -1.3356  -11.6183 F   0  0  0  0  0  0  0  0  0  0  0  0
  -22.9248   -3.1246  -12.8232 F   0  0  0  0  0  0  0  0  0  0  0  0
  -22.9030   -1.1696  -13.7724 F   0  0  0  0  0  0  0  0  0  0  0  0
 25 26  2  0  0  0
 26 27  1  0  0  0
 26 28  1  0  0  0
 27  1  1  0  0  0
 27 29  1  0  0  0
  1  2  1  0  0  0
  1  6  2  0  0  0
  2  3  2  0  0  0
  3  4  1  0  0  0
  4  5  2  0  0  0
  5  7  1  0  0  0
  5  6  1  0  0  0
  7  8  2  0  0  0
  7 15  1  0  0  0
  8  9  1  0  0  0
  9 10  1  0  0  0
  9 13  1  0  0  0
 10 11  2  0  0  0
 11 12  1  0  0  0
 12 13  2  0  0  0
 13 14  1  0  0  0
 14 16  1  0  0  0
 14 15  2  0  0  0
 16 18  1  0  0  0
 16 17  1  0  0  0
 18 19  1  0  0  0
 19 20  1  0  0  0
 19 24  2  0  0  0
 20 21  2  0  0  0
 21 22  1  0  0  0
 22 23  2  0  0  0
 23 24  1  0  0  0
 28 31  1  0  0  0
 28 30  1  0  0  0
 31 32  1  0  0  0
 31 36  2  0  0  0
 32 33  2  0  0  0
 33 34  1  0  0  0
 34 35  2  0  0  0
 35 37  1  0  0  0
 35 36  1  0  0  0
 37 38  1  0  0  0
 37 39  1  0  0  0
 37 40  1  0  0  0
M  END
> <minimizedAffinity>
-11.04151

$$$$
