CHEMBL1242665


 24 27  0  0  0  0  0  0  0  0999 V2000
  -26.2551   -1.3299  -10.9454 N   0  0  0  0  0  0  0  0  0  0  0  0
  -25.0480   -0.7315  -11.0867 N   0  0  0  0  0  0  0  0  0  0  0  0
  -24.8829   -0.6463  -12.4183 C   0  0  0  0  0  0  0  0  0  0  0  0
  -25.9874   -1.1950  -13.1273 C   0  0  0  0  0  0  0  0  0  0  0  0
  -26.3753   -1.4205  -14.4548 C   0  0  0  0  0  0  0  0  0  0  0  0
  -25.5895   -1.1636  -15.5630 N   0  0  0  0  0  0  0  0  0  0  0  0
  -27.5938   -1.9528  -14.6855 N   0  0  0  0  0  0  0  0  0  0  0  0
  -28.3684   -2.2761  -13.6312 C   0  0  0  0  0  0  0  0  0  0  0  0
  -28.0847   -2.1459  -12.3246 N   0  0  0  0  0  0  0  0  0  0  0  0
  -26.8724   -1.5951  -12.1399 C   0  0  0  0  0  0  0  0  0  0  0  0
  -24.8336   -0.5006  -15.4789 H   0  0  0  0  0  0  0  0  0  0  0  0
  -26.1156   -1.1689  -16.4285 H   0  0  0  0  0  0  0  0  0  0  0  0
  -23.7273   -0.0559  -13.0328 C   0  0  0  0  0  0  0  0  0  0  0  0
  -22.6979   -0.9340  -13.6107 C   0  0  0  0  0  0  0  0  0  0  0  0
  -21.6330   -0.3988  -14.2310 C   0  0  0  0  0  0  0  0  0  0  0  0
  -21.5227    0.9845  -14.3114 N   0  0  0  0  0  0  0  0  0  0  0  0
  -20.5525    1.7529  -14.9011 C   0  0  0  0  0  0  0  0  0  0  0  0
  -20.9465    3.0562  -14.7024 C   0  0  0  0  0  0  0  0  0  0  0  0
  -22.1303    3.1142  -14.0113 N   0  0  0  0  0  0  0  0  0  0  0  0
  -22.4597    1.8599  -13.7766 C   0  0  0  0  0  0  0  0  0  0  0  0
  -23.5833    1.2891  -13.1149 C   0  0  0  0  0  0  0  0  0  0  0  0
  -27.9250   -0.6900   -9.2318 C   0  0  0  0  0  0  0  0  0  0  0  0
  -26.7782   -1.6267   -9.6152 C   0  0  0  0  0  0  0  0  0  0  0  0
  -27.2006   -3.0905   -9.4962 C   0  0  0  0  0  0  0  0  0  0  0  0
 22 23  1  0  0  0
 23 24  1  0  0  0
 23  1  1  0  0  0
  1  2  1  0  0  0
  1 10  1  0  0  0
  2  3  2  0  0  0
  3 13  1  0  0  0
  3  4  1  0  0  0
 13 14  1  0  0  0
 13 21  2  0  0  0
 14 15  2  0  0  0
 15 16  1  0  0  0
 16 17  1  0  0  0
 16 20  1  0  0  0
 17 18  2  0  0  0
 18 19  1  0  0  0
 19 20  2  0  0  0
 20 21  1  0  0  0
  4  5  1  0  0  0
  4 10  2  0  0  0
  5  6  1  0  0  0
  5  7  2  0  0  0
  6 11  1  0  0  0
  6 12  1  0  0  0
  7  8  1  0  0  0
  8  9  2  0  0  0
  9 10  1  0  0  0
M  END
> <minimizedAffinity>
-5.98685

$$$$
