CHEMBL184997


 30 33  0  0  0  0  0  0  0  0999 V2000
  -30.8331   -6.2653   -4.5176 C   0  0  0  0  0  0  0  0  0  0  0  0
  -29.7007   -7.0677   -4.4045 C   0  0  0  0  0  0  0  0  0  0  0  0
  -29.3662   -7.9505   -5.4351 C   0  0  0  0  0  0  0  0  0  0  0  0
  -30.1838   -8.1015   -6.5706 C   0  0  0  0  0  0  0  0  0  0  0  0
  -31.3670   -7.3440   -6.6078 C   0  0  0  0  0  0  0  0  0  0  0  0
  -31.6766   -6.4142   -5.6155 C   0  0  0  0  0  0  0  0  0  0  0  0
  -29.8183   -9.0308   -7.6633 C   0  0  0  0  0  0  0  0  0  0  0  0
  -30.5525  -10.2253   -7.8702 C   0  0  0  0  0  0  0  0  0  0  0  0
  -30.2487  -11.1377   -8.8999 C   0  0  0  0  0  0  0  0  0  0  0  0
  -29.1986  -10.8864   -9.7727 C   0  0  0  0  0  0  0  0  0  0  0  0
  -28.4740   -9.7306   -9.5628 C   0  0  0  0  0  0  0  0  0  0  0  0
  -28.7520   -8.8146   -8.5412 C   0  0  0  0  0  0  0  0  0  0  0  0
  -27.7415   -7.7094   -8.6063 C   0  0  0  0  0  0  0  0  0  0  0  0
  -26.8998   -8.0898   -9.7095 N   0  0  0  0  0  0  0  0  0  0  0  0
  -27.3210   -9.2457  -10.3187 C   0  0  0  0  0  0  0  0  0  0  0  0
  -26.8444   -9.7580  -11.3114 O   0  0  0  0  0  0  0  0  0  0  0  0
  -26.1679   -7.5218  -10.1141 H   0  0  0  0  0  0  0  0  0  0  0  0
  -29.7373   -3.6891   -4.5827 N   0  0  0  0  0  0  0  0  0  0  0  0
  -30.6967   -3.9449   -3.6146 C   0  0  0  0  0  0  0  0  0  0  0  0
  -31.1403   -3.1043   -2.8328 O   0  0  0  0  0  0  0  0  0  0  0  0
  -31.1018   -5.2886   -3.5320 N   0  0  0  0  0  0  0  0  0  0  0  0
  -32.0472   -5.6856   -2.4914 C   0  0  0  0  0  0  0  0  0  0  0  0
  -29.4409   -4.4755   -5.1379 H   0  0  0  0  0  0  0  0  0  0  0  0
  -30.1756    1.0816   -5.7740 C   0  0  0  0  0  0  0  0  0  0  0  0
  -29.3126   -0.1096   -5.4742 C   0  0  0  0  0  0  0  0  0  0  0  0
  -27.9198    0.0094   -5.4848 C   0  0  0  0  0  0  0  0  0  0  0  0
  -27.1201   -1.0914   -5.1866 C   0  0  0  0  0  0  0  0  0  0  0  0
  -27.7007   -2.3214   -4.8716 C   0  0  0  0  0  0  0  0  0  0  0  0
  -29.0857   -2.4698   -4.8647 C   0  0  0  0  0  0  0  0  0  0  0  0
  -29.8880   -1.3556   -5.1697 C   0  0  0  0  0  0  0  0  0  0  0  0
 24 25  1  0  0  0
 25 26  1  0  0  0
 25 30  2  0  0  0
 26 27  2  0  0  0
 27 28  1  0  0  0
 28 29  2  0  0  0
 29 18  1  0  0  0
 29 30  1  0  0  0
 18 19  1  0  0  0
 18 23  1  0  0  0
 19 20  2  0  0  0
 19 21  1  0  0  0
 21 22  1  0  0  0
 21  1  1  0  0  0
  1  2  1  0  0  0
  1  6  2  0  0  0
  2  3  2  0  0  0
  3  4  1  0  0  0
  4  7  1  0  0  0
  4  5  2  0  0  0
  7  8  1  0  0  0
  7 12  2  0  0  0
  8  9  2  0  0  0
  9 10  1  0  0  0
 10 11  2  0  0  0
 11 12  1  0  0  0
 11 15  1  0  0  0
 12 13  1  0  0  0
 13 14  1  0  0  0
 14 15  1  0  0  0
 14 17  1  0  0  0
 15 16  2  0  0  0
  5  6  1  0  0  0
M  END
> <minimizedAffinity>
-9.41909

$$$$
