CHEMBL3918092


 35 39  0  0  0  0  0  0  0  0999 V2000
  -28.5691   -9.9603   -5.6037 N   0  0  0  0  0  0  0  0  0  0  0  0
  -28.5094   -8.5765   -5.1286 C   0  0  0  0  0  0  0  0  0  0  0  0
  -29.0353   -8.4490   -3.8536 C   0  0  0  0  0  0  0  0  0  0  0  0
  -29.5146   -7.2734   -3.4025 C   0  0  0  0  0  0  0  0  0  0  0  0
  -29.3967   -6.1419   -4.1431 C   0  0  0  0  0  0  0  0  0  0  0  0
  -30.0860   -5.1077   -3.6834 N   0  0  0  0  0  0  0  0  0  0  0  0
  -30.0138   -3.9111   -4.2447 C   0  0  0  0  0  0  0  0  0  0  0  0
  -29.1083   -3.6490   -5.2531 C   0  0  0  0  0  0  0  0  0  0  0  0
  -28.4712   -4.7539   -5.8609 N   0  0  0  0  0  0  0  0  0  0  0  0
  -28.6545   -6.0522   -5.3329 C   0  0  0  0  0  0  0  0  0  0  0  0
  -28.1989   -7.3443   -5.8836 C   0  0  0  0  0  0  0  0  0  0  0  0
  -28.8233   -2.1231   -5.3563 C   0  0  0  0  0  0  0  0  0  0  0  0
  -27.5097   -1.6109   -5.1990 C   0  0  0  0  0  0  0  0  0  0  0  0
  -27.4526   -0.3210   -5.4918 N   0  0  0  0  0  0  0  0  0  0  0  0
  -28.6591    0.0666   -5.8330 N   0  0  0  0  0  0  0  0  0  0  0  0
  -28.8607    1.4298   -6.3129 C   0  0  0  0  0  0  0  0  0  0  0  0
  -29.5459   -0.9760   -5.7394 C   0  0  0  0  0  0  0  0  0  0  0  0
  -29.5303  -11.1449   -9.0893 C   0  0  0  0  0  0  0  0  0  0  0  0
  -30.9059  -11.3970   -8.9240 C   0  0  0  0  0  0  0  0  0  0  0  0
  -31.5035  -11.2296   -7.6686 C   0  0  0  0  0  0  0  0  0  0  0  0
  -30.7300  -10.7774   -6.6027 C   0  0  0  0  0  0  0  0  0  0  0  0
  -29.3426  -10.4497   -6.7396 C   0  0  0  0  0  0  0  0  0  0  0  0
  -28.7645  -10.6694   -8.0007 C   0  0  0  0  0  0  0  0  0  0  0  0
  -28.8607  -10.4455  -11.3324 C   0  0  0  0  0  0  0  0  0  0  0  0
  -28.8976  -11.3330  -10.2749 O   0  0  0  0  0  0  0  0  0  0  0  0
  -32.8261  -11.4919   -7.4440 O   0  0  0  0  0  0  0  0  0  0  0  0
  -33.3983  -11.8788   -6.2423 C   0  0  0  0  0  0  0  0  0  0  0  0
  -27.5614  -10.9169   -5.0331 C   0  0  0  0  0  0  0  0  0  0  0  0
  -26.1463  -10.3986   -4.5871 C   0  0  0  0  0  0  0  0  0  0  0  0
  -25.1453  -10.2845   -5.7515 C   0  0  0  0  0  0  0  0  0  0  0  0
  -23.8030   -9.7864   -5.3422 N   0  0  0  0  0  0  0  0  0  0  0  0
  -22.7729   -9.9378   -6.3822 C   0  0  0  0  0  0  0  0  0  0  0  0
  -22.3051  -11.3706   -6.2585 C   0  0  0  0  0  0  0  0  0  0  0  0
  -22.1235  -11.4502   -4.7617 C   0  0  0  0  0  0  0  0  0  0  0  0
  -23.2952  -10.6216   -4.2213 C   0  0  0  0  0  0  0  0  0  0  0  0
 24 25  1  0  0  0
 25 18  1  0  0  0
 18 19  1  0  0  0
 18 23  2  0  0  0
 19 20  2  0  0  0
 20 26  1  0  0  0
 20 21  1  0  0  0
 26 27  1  0  0  0
 21 22  2  0  0  0
 22  1  1  0  0  0
 22 23  1  0  0  0
  1 28  1  0  0  0
  1  2  1  0  0  0
 28 29  1  0  0  0
 29 30  1  0  0  0
 30 31  1  0  0  0
 31 32  1  0  0  0
 31 35  1  0  0  0
 32 33  1  0  0  0
 33 34  1  0  0  0
 34 35  1  0  0  0
  2  3  1  0  0  0
  2 11  2  0  0  0
  3  4  2  0  0  0
  4  5  1  0  0  0
  5  6  1  0  0  0
  5 10  2  0  0  0
  6  7  2  0  0  0
  7  8  1  0  0  0
  8 12  1  0  0  0
  8  9  2  0  0  0
 12 13  1  0  0  0
 12 17  2  0  0  0
 13 14  2  0  0  0
 14 15  1  0  0  0
 15 16  1  0  0  0
 15 17  1  0  0  0
  9 10  1  0  0  0
 10 11  1  0  0  0
M  END
> <minimizedAffinity>
-7.72839

$$$$
