CHEMBL292864


 24 27  0  0  0  0  0  0  0  0999 V2000
  -20.0237    4.0968  -14.9693 O   0  0  0  0  0  0  0  0  0  0  0  0
  -20.7309    3.1702  -14.6231 C   0  0  0  0  0  0  0  0  0  0  0  0
  -22.0822    3.2342  -14.3247 N   0  0  0  0  0  0  0  0  0  0  0  0
  -22.5654    2.0065  -13.8885 C   0  0  0  0  0  0  0  0  0  0  0  0
  -23.8566    1.7151  -13.4992 C   0  0  0  0  0  0  0  0  0  0  0  0
  -24.1253    0.4042  -13.0978 C   0  0  0  0  0  0  0  0  0  0  0  0
  -23.1063   -0.5657  -13.0967 C   0  0  0  0  0  0  0  0  0  0  0  0
  -23.5065   -2.3352  -12.5585 Br  0  0  0  0  0  0  0  0  0  0  0  0
  -21.8035   -0.2514  -13.4909 C   0  0  0  0  0  0  0  0  0  0  0  0
  -21.5460    1.0506  -13.8873 C   0  0  0  0  0  0  0  0  0  0  0  0
  -20.3373    1.7345  -14.3769 C   0  0  0  0  0  0  0  0  0  0  0  0
  -19.1768    1.0955  -14.5835 C   0  0  0  0  0  0  0  0  0  0  0  0
  -22.6162    4.0866  -14.4026 H   0  0  0  0  0  0  0  0  0  0  0  0
  -17.9818    1.6011  -15.1511 C   0  0  0  0  0  0  0  0  0  0  0  0
  -17.9651    2.5902  -16.1100 N   0  0  0  0  0  0  0  0  0  0  0  0
  -16.6698    2.9095  -16.4395 C   0  0  0  0  0  0  0  0  0  0  0  0
  -15.8334    2.1062  -15.6978 C   0  0  0  0  0  0  0  0  0  0  0  0
  -16.6619    1.2849  -14.8923 C   0  0  0  0  0  0  0  0  0  0  0  0
  -16.0489    0.2961  -13.9727 C   0  0  0  0  0  0  0  0  0  0  0  0
  -14.6571   -0.0644  -14.5043 C   0  0  0  0  0  0  0  0  0  0  0  0
  -13.8465    1.0868  -14.8560 O   0  0  0  0  0  0  0  0  0  0  0  0
  -14.3806    2.0596  -15.6744 C   0  0  0  0  0  0  0  0  0  0  0  0
  -13.6675    2.8456  -16.2857 O   0  0  0  0  0  0  0  0  0  0  0  0
  -18.7874    2.9977  -16.5470 H   0  0  0  0  0  0  0  0  0  0  0  0
  1  2  2  0  0  0
  2  3  1  0  0  0
  2 11  1  0  0  0
  3  4  1  0  0  0
  3 13  1  0  0  0
  4  5  1  0  0  0
  4 10  2  0  0  0
  5  6  2  0  0  0
  6  7  1  0  0  0
  7  8  1  0  0  0
  7  9  2  0  0  0
  9 10  1  0  0  0
 10 11  1  0  0  0
 11 12  2  0  0  0
 12 14  1  0  0  0
 14 15  1  0  0  0
 14 18  2  0  0  0
 15 16  1  0  0  0
 15 24  1  0  0  0
 16 17  2  0  0  0
 17 18  1  0  0  0
 17 22  1  0  0  0
 18 19  1  0  0  0
 19 20  1  0  0  0
 20 21  1  0  0  0
 21 22  1  0  0  0
 22 23  2  0  0  0
M  END
> <minimizedAffinity>
-8.60067

$$$$
