CHEMBL190405


 44 47  0  0  0  0  0  0  0  0999 V2000
  -28.4992   -8.0008   -5.5996 C   0  0  0  0  0  0  0  0  0  0  0  0
  -28.1553   -6.9984   -4.6699 C   0  0  0  0  0  0  0  0  0  0  0  0
  -28.5748   -5.6726   -4.8258 C   0  0  0  0  0  0  0  0  0  0  0  0
  -28.2663   -4.6711   -3.9054 C   0  0  0  0  0  0  0  0  0  0  0  0
  -28.6361   -3.3801   -4.0375 N   0  0  0  0  0  0  0  0  0  0  0  0
  -29.3654   -3.0543   -5.1167 C   0  0  0  0  0  0  0  0  0  0  0  0
  -29.7174   -4.0110   -6.0742 C   0  0  0  0  0  0  0  0  0  0  0  0
  -29.3100   -5.3375   -5.9578 C   0  0  0  0  0  0  0  0  0  0  0  0
  -29.6018   -6.2584   -6.9095 N   0  0  0  0  0  0  0  0  0  0  0  0
  -29.2477   -7.5616   -6.7086 C   0  0  0  0  0  0  0  0  0  0  0  0
  -26.0470  -10.9071   -5.2541 C   0  0  0  0  0  0  0  0  0  0  0  0
  -26.8510  -11.8840   -4.6740 C   0  0  0  0  0  0  0  0  0  0  0  0
  -28.1947  -11.6135   -4.4270 C   0  0  0  0  0  0  0  0  0  0  0  0
  -28.7380  -10.3888   -4.8258 C   0  0  0  0  0  0  0  0  0  0  0  0
  -27.9456   -9.3631   -5.3816 C   0  0  0  0  0  0  0  0  0  0  0  0
  -26.5909   -9.6601   -5.5870 C   0  0  0  0  0  0  0  0  0  0  0  0
  -23.9245   -9.8529   -5.3830 C   0  0  0  0  0  0  0  0  0  0  0  0
  -24.7112  -11.0267   -5.5287 O   0  0  0  0  0  0  0  0  0  0  0  0
  -29.0627  -12.4659   -3.7986 O   0  0  0  0  0  0  0  0  0  0  0  0
  -30.0424  -11.8397   -2.9727 C   0  0  0  0  0  0  0  0  0  0  0  0
  -29.6143   -8.4385   -7.7631 N   0  0  0  0  0  0  0  0  0  0  0  0
  -28.6682   -8.7184   -8.7353 C   0  0  0  0  0  0  0  0  0  0  0  0
  -27.5386   -8.2354   -8.7559 O   0  0  0  0  0  0  0  0  0  0  0  0
  -29.1207   -9.6561   -9.6446 N   0  0  0  0  0  0  0  0  0  0  0  0
  -29.9309   -9.3221   -7.3834 H   0  0  0  0  0  0  0  0  0  0  0  0
  -30.1107   -9.5672   -9.8608 H   0  0  0  0  0  0  0  0  0  0  0  0
  -28.2683  -10.2589  -10.7032 C   0  0  0  0  0  0  0  0  0  0  0  0
  -27.9769  -11.7292  -10.3540 C   0  0  0  0  0  0  0  0  0  0  0  0
  -29.0053  -10.2429  -12.0616 C   0  0  0  0  0  0  0  0  0  0  0  0
  -26.9459   -9.4979  -10.8925 C   0  0  0  0  0  0  0  0  0  0  0  0
  -29.7476   -1.7237   -5.3399 N   0  0  0  0  0  0  0  0  0  0  0  0
  -30.5832   -1.5103   -4.8060 H   0  0  0  0  0  0  0  0  0  0  0  0
  -28.6961   -0.7105   -5.2578 C   0  0  0  0  0  0  0  0  0  0  0  0
  -27.5498   -1.0480   -6.2231 C   0  0  0  0  0  0  0  0  0  0  0  0
  -27.9703   -0.8667   -7.6840 C   0  0  0  0  0  0  0  0  0  0  0  0
  -27.7971   -2.1388   -8.5122 C   0  0  0  0  0  0  0  0  0  0  0  0
  -27.3780   -1.7799   -9.9369 C   0  0  0  0  0  0  0  0  0  0  0  0
  -25.9727   -1.5427   -9.9667 O   0  0  0  0  0  0  0  0  0  0  0  0
  -25.3852   -1.5631  -11.2045 C   0  0  0  0  0  0  0  0  0  0  0  0
  -24.0131   -1.6335  -11.4600 C   0  0  0  0  0  0  0  0  0  0  0  0
  -23.5413   -1.6587  -12.7757 C   0  0  0  0  0  0  0  0  0  0  0  0
  -24.4361   -1.6121  -13.8418 C   0  0  0  0  0  0  0  0  0  0  0  0
  -25.8051   -1.5339  -13.5942 C   0  0  0  0  0  0  0  0  0  0  0  0
  -26.2749   -1.5076  -12.2797 C   0  0  0  0  0  0  0  0  0  0  0  0
 17 18  1  0  0  0
 18 11  1  0  0  0
 11 12  1  0  0  0
 11 16  2  0  0  0
 12 13  2  0  0  0
 13 19  1  0  0  0
 13 14  1  0  0  0
 19 20  1  0  0  0
 14 15  2  0  0  0
 15  1  1  0  0  0
 15 16  1  0  0  0
  1  2  1  0  0  0
  1 10  2  0  0  0
  2  3  2  0  0  0
  3  4  1  0  0  0
  3  8  1  0  0  0
  4  5  2  0  0  0
  5  6  1  0  0  0
  6 31  1  0  0  0
  6  7  2  0  0  0
 31 33  1  0  0  0
 31 32  1  0  0  0
 33 34  1  0  0  0
 34 35  1  0  0  0
 35 36  1  0  0  0
 36 37  1  0  0  0
 37 38  1  0  0  0
 38 39  1  0  0  0
 39 40  1  0  0  0
 39 44  2  0  0  0
 40 41  2  0  0  0
 41 42  1  0  0  0
 42 43  2  0  0  0
 43 44  1  0  0  0
  7  8  1  0  0  0
  8  9  2  0  0  0
  9 10  1  0  0  0
 10 21  1  0  0  0
 21 22  1  0  0  0
 21 25  1  0  0  0
 22 23  2  0  0  0
 22 24  1  0  0  0
 24 27  1  0  0  0
 24 26  1  0  0  0
 27 28  1  0  0  0
 27 29  1  0  0  0
 27 30  1  0  0  0
M  END
> <minimizedAffinity>
-9.30567

$$$$
