CHEMBL216020


 27 31  0  0  0  0  0  0  0  0999 V2000
  -30.1142   -4.1199   -5.9053 C   0  0  0  0  0  0  0  0  0  0  0  0
  -30.8535   -3.8260   -4.7373 C   0  0  0  0  0  0  0  0  0  0  0  0
  -31.2818   -4.8268   -3.8440 C   0  0  0  0  0  0  0  0  0  0  0  0
  -31.0534   -6.1713   -4.1079 C   0  0  0  0  0  0  0  0  0  0  0  0
  -30.4129   -6.4693   -5.2893 C   0  0  0  0  0  0  0  0  0  0  0  0
  -29.9357   -5.4678   -6.1893 C   0  0  0  0  0  0  0  0  0  0  0  0
  -29.2824   -6.0840   -7.4524 C   0  0  0  0  0  0  0  0  0  0  0  0
  -29.5075   -7.5197   -7.1088 C   0  0  0  0  0  0  0  0  0  0  0  0
  -29.3553   -8.8069   -7.6596 C   0  0  0  0  0  0  0  0  0  0  0  0
  -29.8807   -9.7321   -6.8200 N   0  0  0  0  0  0  0  0  0  0  0  0
  -30.3387   -9.0271   -5.7552 N   0  0  0  0  0  0  0  0  0  0  0  0
  -30.1190   -7.7070   -5.9097 C   0  0  0  0  0  0  0  0  0  0  0  0
  -30.7971   -9.5227   -4.9989 H   0  0  0  0  0  0  0  0  0  0  0  0
  -28.7778   -9.1500   -8.9529 C   0  0  0  0  0  0  0  0  0  0  0  0
  -29.5329   -9.8704   -9.8874 C   0  0  0  0  0  0  0  0  0  0  0  0
  -28.9606  -10.2950  -11.0905 C   0  0  0  0  0  0  0  0  0  0  0  0
  -27.6322   -9.9871  -11.3685 C   0  0  0  0  0  0  0  0  0  0  0  0
  -26.8824   -9.2331  -10.4646 C   0  0  0  0  0  0  0  0  0  0  0  0
  -27.4532   -8.8106   -9.2596 C   0  0  0  0  0  0  0  0  0  0  0  0
  -29.5725   -3.0034   -6.7803 C   0  0  0  0  0  0  0  0  0  0  0  0
  -28.1617    1.1375   -4.7345 C   0  0  0  0  0  0  0  0  0  0  0  0
  -27.7040   -0.0943   -5.3657 N   0  0  0  0  0  0  0  0  0  0  0  0
  -28.1581   -1.2802   -4.6209 C   0  0  0  0  0  0  0  0  0  0  0  0
  -27.6218   -2.5643   -5.2935 C   0  0  0  0  0  0  0  0  0  0  0  0
  -28.1143   -2.7618   -6.6770 N   0  0  0  0  0  0  0  0  0  0  0  0
  -27.7295   -1.5391   -7.4343 C   0  0  0  0  0  0  0  0  0  0  0  0
  -28.1404   -0.1908   -6.7722 C   0  0  0  0  0  0  0  0  0  0  0  0
 21 22  1  0  0  0
 22 23  1  0  0  0
 22 27  1  0  0  0
 23 24  1  0  0  0
 24 25  1  0  0  0
 25 20  1  0  0  0
 25 26  1  0  0  0
 20  1  1  0  0  0
  1  2  1  0  0  0
  1  6  2  0  0  0
  2  3  2  0  0  0
  3  4  1  0  0  0
  4  5  2  0  0  0
  5  6  1  0  0  0
  5 12  1  0  0  0
  6  7  1  0  0  0
  7  8  1  0  0  0
  8  9  1  0  0  0
  8 12  2  0  0  0
  9 14  1  0  0  0
  9 10  2  0  0  0
 14 15  1  0  0  0
 14 19  2  0  0  0
 15 16  2  0  0  0
 16 17  1  0  0  0
 17 18  2  0  0  0
 18 19  1  0  0  0
 10 11  1  0  0  0
 11 12  1  0  0  0
 11 13  1  0  0  0
 26 27  1  0  0  0
M  END
> <minimizedAffinity>
-9.51735

$$$$
