CHEMBL219677


 32 35  0  0  0  0  0  0  0  0999 V2000
  -15.3928    2.3907  -15.8151 C   0  0  0  0  0  0  0  0  0  0  0  0
  -15.1244    3.5285  -16.4902 N   0  0  0  0  0  0  0  0  0  0  0  0
  -14.0016    4.1637  -16.1509 C   0  0  0  0  0  0  0  0  0  0  0  0
  -13.1490    3.7883  -15.1943 N   0  0  0  0  0  0  0  0  0  0  0  0
  -13.4536    2.6706  -14.5130 C   0  0  0  0  0  0  0  0  0  0  0  0
  -12.4885    2.2985  -13.5888 N   0  0  0  0  0  0  0  0  0  0  0  0
  -14.5887    1.9174  -14.7893 C   0  0  0  0  0  0  0  0  0  0  0  0
  -11.8041    3.0388  -13.4629 H   0  0  0  0  0  0  0  0  0  0  0  0
  -12.8520    1.8900  -12.7361 H   0  0  0  0  0  0  0  0  0  0  0  0
  -14.9394    0.7087  -14.0241 C   0  0  0  0  0  0  0  0  0  0  0  0
  -14.8302    0.6885  -12.7326 N   0  0  0  0  0  0  0  0  0  0  0  0
  -15.1946   -0.5728  -12.2501 O   0  0  0  0  0  0  0  0  0  0  0  0
  -15.5446   -1.3880  -13.3708 C   0  0  0  0  0  0  0  0  0  0  0  0
  -15.5194   -2.8541  -12.9406 C   0  0  0  0  0  0  0  0  0  0  0  0
  -16.4584   -3.7058  -13.8091 C   0  0  0  0  0  0  0  0  0  0  0  0
  -16.4352   -5.1669  -13.3709 C   0  0  0  0  0  0  0  0  0  0  0  0
  -16.7796   -5.3123  -11.8916 C   0  0  0  0  0  0  0  0  0  0  0  0
  -15.8710   -4.4533  -11.0161 C   0  0  0  0  0  0  0  0  0  0  0  0
  -15.8824   -2.9921  -11.4569 C   0  0  0  0  0  0  0  0  0  0  0  0
  -16.5315    1.6740  -16.1756 O   0  0  0  0  0  0  0  0  0  0  0  0
  -23.4675    0.9835  -13.7942 C   0  0  0  0  0  0  0  0  0  0  0  0
  -22.0382    1.3067  -14.0273 C   0  0  0  0  0  0  0  0  0  0  0  0
  -20.9388    0.4850  -14.1742 C   0  0  0  0  0  0  0  0  0  0  0  0
  -19.8609    1.2807  -14.6583 C   0  0  0  0  0  0  0  0  0  0  0  0
  -18.5597    1.0060  -15.1288 C   0  0  0  0  0  0  0  0  0  0  0  0
  -18.1092   -0.2591  -15.1399 F   0  0  0  0  0  0  0  0  0  0  0  0
  -17.7558    2.0382  -15.6324 C   0  0  0  0  0  0  0  0  0  0  0  0
  -18.2555    3.3425  -15.6641 C   0  0  0  0  0  0  0  0  0  0  0  0
  -19.5282    3.6559  -15.1543 C   0  0  0  0  0  0  0  0  0  0  0  0
  -20.3128    2.6013  -14.6788 C   0  0  0  0  0  0  0  0  0  0  0  0
  -21.6011    2.5992  -14.1905 N   0  0  0  0  0  0  0  0  0  0  0  0
  -22.1732    3.4257  -14.0820 H   0  0  0  0  0  0  0  0  0  0  0  0
 21 22  1  0  0  0
 22 23  2  0  0  0
 22 31  1  0  0  0
 23 24  1  0  0  0
 24 25  1  0  0  0
 24 30  2  0  0  0
 25 26  1  0  0  0
 25 27  2  0  0  0
 27 20  1  0  0  0
 27 28  1  0  0  0
 20  1  1  0  0  0
  1  2  1  0  0  0
  1  7  2  0  0  0
  2  3  2  0  0  0
  3  4  1  0  0  0
  4  5  2  0  0  0
  5  6  1  0  0  0
  5  7  1  0  0  0
  6  8  1  0  0  0
  6  9  1  0  0  0
  7 10  1  0  0  0
 10 11  2  0  0  0
 11 12  1  0  0  0
 12 13  1  0  0  0
 13 14  1  0  0  0
 14 15  1  0  0  0
 14 19  1  0  0  0
 15 16  1  0  0  0
 16 17  1  0  0  0
 17 18  1  0  0  0
 18 19  1  0  0  0
 28 29  2  0  0  0
 29 30  1  0  0  0
 30 31  1  0  0  0
 31 32  1  0  0  0
M  END
> <minimizedAffinity>
-9.67683

$$$$
