CHEMBL1945498


 36 39  0  0  0  0  0  0  0  0999 V2000
  -17.0013    0.6858  -15.5286 N   0  0  0  0  0  0  0  0  0  0  0  0
  -16.3470    1.0068  -16.2387 H   0  0  0  0  0  0  0  0  0  0  0  0
  -16.2270    0.1221  -14.4841 C   0  0  0  0  0  0  0  0  0  0  0  0
  -15.2820    0.8881  -13.9090 N   0  0  0  0  0  0  0  0  0  0  0  0
  -14.2401    0.2875  -13.3361 C   0  0  0  0  0  0  0  0  0  0  0  0
  -14.1397   -1.0769  -13.2761 C   0  0  0  0  0  0  0  0  0  0  0  0
  -15.2884   -1.7782  -13.5851 C   0  0  0  0  0  0  0  0  0  0  0  0
  -16.3199   -1.2010  -14.2492 N   0  0  0  0  0  0  0  0  0  0  0  0
  -15.2626   -3.2385  -13.4187 C   0  0  0  0  0  0  0  0  0  0  0  0
  -15.8399   -3.8758  -12.3079 C   0  0  0  0  0  0  0  0  0  0  0  0
  -15.7176   -5.2622  -12.1398 C   0  0  0  0  0  0  0  0  0  0  0  0
  -15.1071   -6.0288  -13.1317 C   0  0  0  0  0  0  0  0  0  0  0  0
  -14.9854   -7.7352  -12.9436 Cl  0  0  0  0  0  0  0  0  0  0  0  0
  -14.5079   -5.4177  -14.2285 C   0  0  0  0  0  0  0  0  0  0  0  0
  -14.4689   -4.0218  -14.2794 C   0  0  0  0  0  0  0  0  0  0  0  0
  -13.4609   -3.4404  -15.0779 N   0  0  0  0  0  0  0  0  0  0  0  0
  -12.6185   -2.4333  -14.6437 C   0  0  0  0  0  0  0  0  0  0  0  0
  -11.3493   -1.9594  -15.6287 S   0  0  0  0  0  0  0  0  0  0  0  0
  -12.8308   -1.7896  -13.2532 C   0  0  0  0  0  0  0  0  0  0  0  0
  -13.1332   -3.9504  -15.8923 H   0  0  0  0  0  0  0  0  0  0  0  0
  -20.6088    1.3589  -14.7794 C   0  0  0  0  0  0  0  0  0  0  0  0
  -20.6562    2.7472  -14.7872 C   0  0  0  0  0  0  0  0  0  0  0  0
  -19.5204    3.4719  -15.1439 C   0  0  0  0  0  0  0  0  0  0  0  0
  -18.2963    2.8302  -15.4607 C   0  0  0  0  0  0  0  0  0  0  0  0
  -18.2065    1.4252  -15.3738 C   0  0  0  0  0  0  0  0  0  0  0  0
  -19.3994    0.7255  -15.0948 C   0  0  0  0  0  0  0  0  0  0  0  0
  -17.1479    3.6880  -15.8997 C   0  0  0  0  0  0  0  0  0  0  0  0
  -16.7311    3.4482  -17.1814 F   0  0  0  0  0  0  0  0  0  0  0  0
  -17.4230    5.0231  -15.8530 F   0  0  0  0  0  0  0  0  0  0  0  0
  -16.0375    3.5157  -15.1274 F   0  0  0  0  0  0  0  0  0  0  0  0
  -21.8236    0.5345  -14.4323 C   0  0  0  0  0  0  0  0  0  0  0  0
  -22.8936    1.3115  -13.6520 C   0  0  0  0  0  0  0  0  0  0  0  0
  -23.6972    0.4536  -12.6677 C   0  0  0  0  0  0  0  0  0  0  0  0
  -23.2694   -1.7364  -11.6923 C   0  0  0  0  0  0  0  0  0  0  0  0
  -23.6034   -0.9962  -12.9097 N   0  0  0  0  0  0  0  0  0  0  0  0
  -24.8629   -1.4957  -13.4708 C   0  0  0  0  0  0  0  0  0  0  0  0
 34 35  1  0  0  0
 35 36  1  0  0  0
 35 33  1  0  0  0
 33 32  1  0  0  0
 32 31  1  0  0  0
 31 21  1  0  0  0
 21 22  1  0  0  0
 21 26  2  0  0  0
 22 23  2  0  0  0
 23 24  1  0  0  0
 24 27  1  0  0  0
 24 25  2  0  0  0
 27 28  1  0  0  0
 27 29  1  0  0  0
 27 30  1  0  0  0
 25  1  1  0  0  0
 25 26  1  0  0  0
  1  3  1  0  0  0
  1  2  1  0  0  0
  3  4  1  0  0  0
  3  8  2  0  0  0
  4  5  2  0  0  0
  5  6  1  0  0  0
  6  7  2  0  0  0
  6 19  1  0  0  0
  7  8  1  0  0  0
  7  9  1  0  0  0
  9 10  1  0  0  0
  9 15  2  0  0  0
 10 11  2  0  0  0
 11 12  1  0  0  0
 12 13  1  0  0  0
 12 14  2  0  0  0
 14 15  1  0  0  0
 15 16  1  0  0  0
 16 17  1  0  0  0
 16 20  1  0  0  0
 17 18  2  0  0  0
 17 19  1  0  0  0
M  END
> <minimizedAffinity>
-9.29870

$$$$
