CHEMBL3951694


 37 40  0  0  0  0  0  0  0  0999 V2000
  -27.4684   -1.8335   -9.5209 C   0  0  0  0  0  0  0  0  0  0  0  0
  -28.3429   -1.7521  -10.6032 C   0  0  0  0  0  0  0  0  0  0  0  0
  -27.8428   -1.6890  -11.8960 C   0  0  0  0  0  0  0  0  0  0  0  0
  -26.5073   -1.5297  -12.1508 C   0  0  0  0  0  0  0  0  0  0  0  0
  -26.1735   -1.7037  -13.4316 N   0  0  0  0  0  0  0  0  0  0  0  0
  -24.9506   -1.3066  -13.7975 C   0  0  0  0  0  0  0  0  0  0  0  0
  -24.1088   -0.6320  -12.9345 C   0  0  0  0  0  0  0  0  0  0  0  0
  -24.3741   -0.6246  -11.5768 N   0  0  0  0  0  0  0  0  0  0  0  0
  -25.6038   -1.1633  -11.1252 C   0  0  0  0  0  0  0  0  0  0  0  0
  -26.1198   -1.4258   -9.7798 C   0  0  0  0  0  0  0  0  0  0  0  0
  -23.1851    0.3056  -13.6051 C   0  0  0  0  0  0  0  0  0  0  0  0
  -23.0834    1.7146  -13.6771 C   0  0  0  0  0  0  0  0  0  0  0  0
  -21.9399    2.1388  -14.2540 N   0  0  0  0  0  0  0  0  0  0  0  0
  -21.2982    1.0020  -14.5884 N   0  0  0  0  0  0  0  0  0  0  0  0
  -21.9535   -0.1076  -14.1151 C   0  0  0  0  0  0  0  0  0  0  0  0
  -20.2044    1.0203  -15.5557 C   0  0  0  0  0  0  0  0  0  0  0  0
  -18.7948    0.7351  -15.0356 C   0  0  0  0  0  0  0  0  0  0  0  0
  -17.8405    2.2630  -15.0781 S   0  0  0  0  0  0  0  0  0  0  0  0
  -16.1307    1.7620  -15.1064 C   0  0  0  0  0  0  0  0  0  0  0  0
  -18.1117    2.9184  -16.3437 O   0  0  0  0  0  0  0  0  0  0  0  0
  -18.0581    2.9616  -13.8266 O   0  0  0  0  0  0  0  0  0  0  0  0
  -28.0277   -2.5034   -8.3549 N   0  0  0  0  0  0  0  0  0  0  0  0
  -28.8068   -0.2967   -5.4131 C   0  0  0  0  0  0  0  0  0  0  0  0
  -28.6871   -1.1961   -4.3520 C   0  0  0  0  0  0  0  0  0  0  0  0
  -28.2940   -2.5083   -4.5982 C   0  0  0  0  0  0  0  0  0  0  0  0
  -28.0183   -2.9190   -5.9113 C   0  0  0  0  0  0  0  0  0  0  0  0
  -28.1196   -2.0501   -7.0112 C   0  0  0  0  0  0  0  0  0  0  0  0
  -28.5082   -0.7231   -6.7274 C   0  0  0  0  0  0  0  0  0  0  0  0
  -30.4924    1.3433   -5.8801 C   0  0  0  0  0  0  0  0  0  0  0  0
  -29.2429    1.0007   -5.2749 O   0  0  0  0  0  0  0  0  0  0  0  0
  -28.1772   -3.4939   -3.6570 O   0  0  0  0  0  0  0  0  0  0  0  0
  -27.8122   -4.7867   -4.1120 C   0  0  0  0  0  0  0  0  0  0  0  0
  -27.7547   -3.9902   -8.5251 C   0  0  0  0  0  0  0  0  0  0  0  0
  -28.7507   -5.0098   -7.9089 C   0  0  0  0  0  0  0  0  0  0  0  0
  -28.2353   -6.3635   -7.6637 N   0  0  0  0  0  0  0  0  0  0  0  0
  -28.2413   -6.8729   -8.5497 H   0  0  0  0  0  0  0  0  0  0  0  0
  -28.8963   -6.8669   -7.0568 H   0  0  0  0  0  0  0  0  0  0  0  0
 29 30  1  0  0  0
 30 23  1  0  0  0
 23 24  1  0  0  0
 23 28  2  0  0  0
 24 25  2  0  0  0
 25 31  1  0  0  0
 25 26  1  0  0  0
 31 32  1  0  0  0
 26 27  2  0  0  0
 27 22  1  0  0  0
 27 28  1  0  0  0
 22 33  1  0  0  0
 22  1  1  0  0  0
 33 34  1  0  0  0
 34 35  1  0  0  0
 35 36  1  0  0  0
 35 37  1  0  0  0
  1  2  1  0  0  0
  1 10  2  0  0  0
  2  3  2  0  0  0
  3  4  1  0  0  0
  4  5  1  0  0  0
  4  9  2  0  0  0
  5  6  2  0  0  0
  6  7  1  0  0  0
  7 11  1  0  0  0
  7  8  2  0  0  0
 11 12  1  0  0  0
 11 15  2  0  0  0
 12 13  2  0  0  0
 13 14  1  0  0  0
 14 16  1  0  0  0
 14 15  1  0  0  0
 16 17  1  0  0  0
 17 18  1  0  0  0
 18 19  1  0  0  0
 18 20  2  0  0  0
 18 21  2  0  0  0
  8  9  1  0  0  0
  9 10  1  0  0  0
M  END
> <minimizedAffinity>
-8.35919

$$$$
