CHEMBL3753341


 23 26  0  0  0  0  0  0  0  0999 V2000
  -28.7565   -0.9010   -6.3222 N   0  0  0  0  0  0  0  0  0  0  0  0
  -28.2594   -0.4270   -7.4916 N   0  0  0  0  0  0  0  0  0  0  0  0
  -28.0085   -1.5430   -8.1977 C   0  0  0  0  0  0  0  0  0  0  0  0
  -28.2988   -2.7258   -7.4708 C   0  0  0  0  0  0  0  0  0  0  0  0
  -28.1978   -4.1143   -7.6272 C   0  0  0  0  0  0  0  0  0  0  0  0
  -27.6724   -4.7474   -8.7424 N   0  0  0  0  0  0  0  0  0  0  0  0
  -28.6160   -4.9100   -6.6212 N   0  0  0  0  0  0  0  0  0  0  0  0
  -29.0892   -4.3346   -5.4992 C   0  0  0  0  0  0  0  0  0  0  0  0
  -29.2135   -3.0246   -5.2296 N   0  0  0  0  0  0  0  0  0  0  0  0
  -28.7948   -2.2698   -6.2619 C   0  0  0  0  0  0  0  0  0  0  0  0
  -27.7177   -4.2113   -9.6077 H   0  0  0  0  0  0  0  0  0  0  0  0
  -27.9565   -5.7161   -8.8004 H   0  0  0  0  0  0  0  0  0  0  0  0
  -27.4610   -1.5233   -9.5582 C   0  0  0  0  0  0  0  0  0  0  0  0
  -26.0895   -1.6196   -9.8770 C   0  0  0  0  0  0  0  0  0  0  0  0
  -26.0715   -1.6735  -11.2496 C   0  0  0  0  0  0  0  0  0  0  0  0
  -27.3425   -1.5553  -11.7211 O   0  0  0  0  0  0  0  0  0  0  0  0
  -28.2198   -1.4470  -10.6599 N   0  0  0  0  0  0  0  0  0  0  0  0
  -24.8485   -1.8612  -12.1218 C   0  0  0  0  0  0  0  0  0  0  0  0
  -23.4882   -1.7554  -11.4645 C   0  0  0  0  0  0  0  0  0  0  0  0
  -23.9584   -0.6560  -12.3523 C   0  0  0  0  0  0  0  0  0  0  0  0
  -27.9655    0.8669   -4.7945 C   0  0  0  0  0  0  0  0  0  0  0  0
  -29.1493    0.0206   -5.2603 C   0  0  0  0  0  0  0  0  0  0  0  0
  -30.3280    0.8974   -5.6806 C   0  0  0  0  0  0  0  0  0  0  0  0
 21 22  1  0  0  0
 22 23  1  0  0  0
 22  1  1  0  0  0
  1  2  1  0  0  0
  1 10  1  0  0  0
  2  3  2  0  0  0
  3 13  1  0  0  0
  3  4  1  0  0  0
 13 14  1  0  0  0
 13 17  2  0  0  0
 14 15  2  0  0  0
 15 18  1  0  0  0
 15 16  1  0  0  0
 18 19  1  0  0  0
 18 20  1  0  0  0
 19 20  1  0  0  0
 16 17  1  0  0  0
  4  5  1  0  0  0
  4 10  2  0  0  0
  5  6  1  0  0  0
  5  7  2  0  0  0
  6 11  1  0  0  0
  6 12  1  0  0  0
  7  8  1  0  0  0
  8  9  2  0  0  0
  9 10  1  0  0  0
M  END
> <minimizedAffinity>
-7.70476

$$$$
