CHEMBL3897034


 34 37  0  0  0  0  0  0  0  0999 V2000
  -29.2243   -4.8459   -5.7708 C   0  0  0  0  0  0  0  0  0  0  0  0
  -29.1881   -3.7820   -4.8633 C   0  0  0  0  0  0  0  0  0  0  0  0
  -28.8008   -2.5061   -5.2724 C   0  0  0  0  0  0  0  0  0  0  0  0
  -28.3919   -2.2686   -6.5711 C   0  0  0  0  0  0  0  0  0  0  0  0
  -28.0613   -1.0177   -6.9347 N   0  0  0  0  0  0  0  0  0  0  0  0
  -27.6531   -0.8583   -8.2120 C   0  0  0  0  0  0  0  0  0  0  0  0
  -27.5487   -1.9120   -9.1071 C   0  0  0  0  0  0  0  0  0  0  0  0
  -27.8986   -3.1705   -8.7482 N   0  0  0  0  0  0  0  0  0  0  0  0
  -28.3275   -3.3470   -7.4834 C   0  0  0  0  0  0  0  0  0  0  0  0
  -28.7433   -4.6052   -7.0687 C   0  0  0  0  0  0  0  0  0  0  0  0
  -27.0303   -1.7297  -10.4476 C   0  0  0  0  0  0  0  0  0  0  0  0
  -27.6784   -1.6688  -11.7014 C   0  0  0  0  0  0  0  0  0  0  0  0
  -26.8343   -1.4407  -12.7113 N   0  0  0  0  0  0  0  0  0  0  0  0
  -25.6340   -1.3570  -12.1056 N   0  0  0  0  0  0  0  0  0  0  0  0
  -25.6998   -1.5275  -10.7548 C   0  0  0  0  0  0  0  0  0  0  0  0
  -24.4439   -1.0814  -12.8876 C   0  0  0  0  0  0  0  0  0  0  0  0
  -23.7425    0.2014  -12.4574 C   0  0  0  0  0  0  0  0  0  0  0  0
  -23.2635    0.9403  -13.5801 O   0  0  0  0  0  0  0  0  0  0  0  0
  -22.4770    0.4707  -13.9085 H   0  0  0  0  0  0  0  0  0  0  0  0
  -29.8026   -6.1009   -5.4469 N   0  0  0  0  0  0  0  0  0  0  0  0
  -28.7486   -8.9346   -7.6843 C   0  0  0  0  0  0  0  0  0  0  0  0
  -29.9642   -9.3543   -8.1986 C   0  0  0  0  0  0  0  0  0  0  0  0
  -31.1240   -8.7154   -7.7806 C   0  0  0  0  0  0  0  0  0  0  0  0
  -32.3026   -9.1113   -8.2810 F   0  0  0  0  0  0  0  0  0  0  0  0
  -31.0964   -7.6591   -6.8675 C   0  0  0  0  0  0  0  0  0  0  0  0
  -29.8866   -7.2123   -6.3246 C   0  0  0  0  0  0  0  0  0  0  0  0
  -28.7188   -7.8982   -6.7358 C   0  0  0  0  0  0  0  0  0  0  0  0
  -27.1382   -9.3182   -9.3719 C   0  0  0  0  0  0  0  0  0  0  0  0
  -27.5354   -9.4858   -8.0116 O   0  0  0  0  0  0  0  0  0  0  0  0
  -30.3360   -6.2264   -4.0660 C   0  0  0  0  0  0  0  0  0  0  0  0
  -31.8281   -5.8710   -3.9213 C   0  0  0  0  0  0  0  0  0  0  0  0
  -32.1527   -4.9313   -2.7710 C   0  0  0  0  0  0  0  0  0  0  0  0
  -32.3752   -5.6929   -1.5848 O   0  0  0  0  0  0  0  0  0  0  0  0
  -32.9999   -6.4088   -1.7905 H   0  0  0  0  0  0  0  0  0  0  0  0
 28 29  1  0  0  0
 29 21  1  0  0  0
 21 22  1  0  0  0
 21 27  2  0  0  0
 22 23  2  0  0  0
 23 24  1  0  0  0
 23 25  1  0  0  0
 25 26  2  0  0  0
 26 20  1  0  0  0
 26 27  1  0  0  0
 20 30  1  0  0  0
 20  1  1  0  0  0
 30 31  1  0  0  0
 31 32  1  0  0  0
 32 33  1  0  0  0
 33 34  1  0  0  0
  1  2  1  0  0  0
  1 10  2  0  0  0
  2  3  2  0  0  0
  3  4  1  0  0  0
  4  5  1  0  0  0
  4  9  2  0  0  0
  5  6  2  0  0  0
  6  7  1  0  0  0
  7 11  1  0  0  0
  7  8  2  0  0  0
 11 12  1  0  0  0
 11 15  2  0  0  0
 12 13  2  0  0  0
 13 14  1  0  0  0
 14 16  1  0  0  0
 14 15  1  0  0  0
 16 17  1  0  0  0
 17 18  1  0  0  0
 18 19  1  0  0  0
  8  9  1  0  0  0
  9 10  1  0  0  0
M  END
> <minimizedAffinity>
-8.50974

$$$$
