CHEMBL1082829


 36 42  0  0  0  0  0  0  0  0999 V2000
  -28.3089   -6.0056   -7.5061 N   0  0  0  0  0  0  0  0  0  0  0  0
  -28.6144   -7.3750   -7.3311 C   0  0  0  0  0  0  0  0  0  0  0  0
  -28.4981   -8.4808   -8.1909 C   0  0  0  0  0  0  0  0  0  0  0  0
  -29.0465   -9.7147   -7.7843 C   0  0  0  0  0  0  0  0  0  0  0  0
  -29.6808   -9.8782   -6.5498 C   0  0  0  0  0  0  0  0  0  0  0  0
  -29.7143   -8.7785   -5.6903 C   0  0  0  0  0  0  0  0  0  0  0  0
  -29.2248   -7.5196   -6.0831 C   0  0  0  0  0  0  0  0  0  0  0  0
  -29.2331   -6.2414   -5.5962 C   0  0  0  0  0  0  0  0  0  0  0  0
  -30.1087   -5.8437   -4.5782 C   0  0  0  0  0  0  0  0  0  0  0  0
  -30.4582   -4.4806   -4.5902 C   0  0  0  0  0  0  0  0  0  0  0  0
  -29.8486   -3.5207   -5.4211 C   0  0  0  0  0  0  0  0  0  0  0  0
  -28.5629   -3.9466   -5.9039 C   0  0  0  0  0  0  0  0  0  0  0  0
  -28.5611   -5.2987   -6.3247 C   0  0  0  0  0  0  0  0  0  0  0  0
  -27.3904   -3.3227   -5.0116 C   0  0  0  0  0  0  0  0  0  0  0  0
  -27.8751   -2.5379   -3.7185 C   0  0  0  0  0  0  0  0  0  0  0  0
  -28.9528   -1.6144   -4.1657 C   0  0  0  0  0  0  0  0  0  0  0  0
  -28.9440   -0.2823   -4.1330 N   0  0  0  0  0  0  0  0  0  0  0  0
  -29.8766    0.0376   -5.0656 N   0  0  0  0  0  0  0  0  0  0  0  0
  -30.0681    1.4172   -5.4406 C   0  0  0  0  0  0  0  0  0  0  0  0
  -30.3834   -1.0515   -5.7323 C   0  0  0  0  0  0  0  0  0  0  0  0
  -29.9328   -2.1365   -5.0272 C   0  0  0  0  0  0  0  0  0  0  0  0
  -31.4061   -4.2827   -3.5210 C   0  0  0  0  0  0  0  0  0  0  0  0
  -32.0330   -3.3131   -3.1182 O   0  0  0  0  0  0  0  0  0  0  0  0
  -31.5016   -5.5248   -2.9052 N   0  0  0  0  0  0  0  0  0  0  0  0
  -30.8041   -6.6091   -3.5514 C   0  0  0  0  0  0  0  0  0  0  0  0
  -32.1007   -5.6383   -2.1022 H   0  0  0  0  0  0  0  0  0  0  0  0
  -30.2919  -11.1686   -6.0282 C   0  0  0  0  0  0  0  0  0  0  0  0
  -30.1012  -12.4409   -6.8508 C   0  0  0  0  0  0  0  0  0  0  0  0
  -30.9990  -12.4653   -8.0812 C   0  0  0  0  0  0  0  0  0  0  0  0
  -32.4467  -12.2031   -7.6936 C   0  0  0  0  0  0  0  0  0  0  0  0
  -32.5754  -10.9726   -6.8061 C   0  0  0  0  0  0  0  0  0  0  0  0
  -31.6853  -11.0114   -5.6906 O   0  0  0  0  0  0  0  0  0  0  0  0
  -27.9609   -5.4234   -8.7995 C   0  0  0  0  0  0  0  0  0  0  0  0
  -27.3588   -3.9990   -8.7588 C   0  0  0  0  0  0  0  0  0  0  0  0
  -27.8865   -1.5252   -8.4721 C   0  0  0  0  0  0  0  0  0  0  0  0
  -28.3116   -2.8474   -9.0864 C   0  0  0  0  0  0  0  0  0  0  0  0
 35 36  1  0  0  0
 36 34  1  0  0  0
 34 33  1  0  0  0
 33  1  1  0  0  0
  1  2  1  0  0  0
  1 13  1  0  0  0
  2  3  1  0  0  0
  2  7  2  0  0  0
  3  4  2  0  0  0
  4  5  1  0  0  0
  5 27  1  0  0  0
  5  6  2  0  0  0
 27 28  1  0  0  0
 27 32  1  0  0  0
 28 29  1  0  0  0
 29 30  1  0  0  0
 30 31  1  0  0  0
 31 32  1  0  0  0
  6  7  1  0  0  0
  7  8  1  0  0  0
  8  9  1  0  0  0
  8 13  2  0  0  0
  9 10  2  0  0  0
  9 25  1  0  0  0
 10 11  1  0  0  0
 10 22  1  0  0  0
 11 12  2  0  0  0
 11 21  1  0  0  0
 12 13  1  0  0  0
 12 14  1  0  0  0
 14 15  1  0  0  0
 15 16  1  0  0  0
 16 17  2  0  0  0
 16 21  1  0  0  0
 17 18  1  0  0  0
 18 19  1  0  0  0
 18 20  1  0  0  0
 20 21  2  0  0  0
 22 23  2  0  0  0
 22 24  1  0  0  0
 24 25  1  0  0  0
 24 26  1  0  0  0
M  END
> <minimizedAffinity>
-5.36149

$$$$
