CHEMBL250837


 26 29  0  0  0  0  0  0  0  0999 V2000
  -29.6287   -7.9513   -7.4329 C   0  0  0  0  0  0  0  0  0  0  0  0
  -30.3824   -8.9024   -8.0130 C   0  0  0  0  0  0  0  0  0  0  0  0
  -31.8557   -9.0914   -7.9526 C   0  0  0  0  0  0  0  0  0  0  0  0
  -32.7318   -8.3328   -7.5955 O   0  0  0  0  0  0  0  0  0  0  0  0
  -32.0269  -10.3701   -8.4525 N   0  0  0  0  0  0  0  0  0  0  0  0
  -30.8960  -10.9505   -8.9678 N   0  0  0  0  0  0  0  0  0  0  0  0
  -29.9125  -10.1009   -8.7728 C   0  0  0  0  0  0  0  0  0  0  0  0
  -32.9368  -10.7995   -8.5770 H   0  0  0  0  0  0  0  0  0  0  0  0
  -28.7982   -3.3293   -7.4146 C   0  0  0  0  0  0  0  0  0  0  0  0
  -29.4115   -2.7117   -6.3274 C   0  0  0  0  0  0  0  0  0  0  0  0
  -30.1637   -3.4494   -5.4105 C   0  0  0  0  0  0  0  0  0  0  0  0
  -30.2837   -4.8328   -5.6084 C   0  0  0  0  0  0  0  0  0  0  0  0
  -29.6919   -5.4899   -6.6935 C   0  0  0  0  0  0  0  0  0  0  0  0
  -28.9375   -4.7152   -7.6072 C   0  0  0  0  0  0  0  0  0  0  0  0
  -30.0362   -6.8788   -6.5783 C   0  0  0  0  0  0  0  0  0  0  0  0
  -30.7518   -7.0250   -5.4109 C   0  0  0  0  0  0  0  0  0  0  0  0
  -30.9354   -5.7880   -4.8613 N   0  0  0  0  0  0  0  0  0  0  0  0
  -31.6867   -5.5303   -3.6540 C   0  0  0  0  0  0  0  0  0  0  0  0
  -27.7352   -1.3155   -8.1132 C   0  0  0  0  0  0  0  0  0  0  0  0
  -28.0341   -2.6881   -8.3579 O   0  0  0  0  0  0  0  0  0  0  0  0
  -28.6017  -10.3819   -9.2841 C   0  0  0  0  0  0  0  0  0  0  0  0
  -27.2410  -10.6241   -8.2698 S   0  0  0  0  0  0  0  0  0  0  0  0
  -26.1878  -10.8273   -9.5417 N   0  0  0  0  0  0  0  0  0  0  0  0
  -26.7677  -10.6626  -10.7153 N   0  0  0  0  0  0  0  0  0  0  0  0
  -28.1244  -10.3772  -10.5920 C   0  0  0  0  0  0  0  0  0  0  0  0
  -28.8831  -10.1159  -11.8433 C   0  0  0  0  0  0  0  0  0  0  0  0
 19 20  1  0  0  0
 20  9  1  0  0  0
  9 10  1  0  0  0
  9 14  2  0  0  0
 10 11  2  0  0  0
 11 12  1  0  0  0
 12 13  2  0  0  0
 12 17  1  0  0  0
 13 14  1  0  0  0
 13 15  1  0  0  0
 15  1  1  0  0  0
 15 16  2  0  0  0
  1  2  2  0  0  0
  2  3  1  0  0  0
  2  7  1  0  0  0
  3  4  2  0  0  0
  3  5  1  0  0  0
  5  6  1  0  0  0
  5  8  1  0  0  0
  6  7  2  0  0  0
  7 21  1  0  0  0
 21 22  1  0  0  0
 21 25  2  0  0  0
 22 23  1  0  0  0
 23 24  2  0  0  0
 24 25  1  0  0  0
 25 26  1  0  0  0
 16 17  1  0  0  0
 17 18  1  0  0  0
M  END
> <minimizedAffinity>
-8.79954

$$$$
