CHEMBL3593286


 40 44  0  0  0  0  0  0  0  0999 V2000
  -26.4302   -2.0261  -10.7974 C   0  0  0  0  0  0  0  0  0  0  0  0
  -27.0956   -1.1421  -11.5055 N   0  0  0  0  0  0  0  0  0  0  0  0
  -26.2633   -0.4236  -12.3160 C   0  0  0  0  0  0  0  0  0  0  0  0
  -24.9180   -0.7102  -12.2053 C   0  0  0  0  0  0  0  0  0  0  0  0
  -24.7153   -1.9470  -11.0310 S   0  0  0  0  0  0  0  0  0  0  0  0
  -23.8157   -0.0635  -12.9184 C   0  0  0  0  0  0  0  0  0  0  0  0
  -23.7849    1.3317  -12.9397 C   0  0  0  0  0  0  0  0  0  0  0  0
  -22.8303    2.0211  -13.6810 C   0  0  0  0  0  0  0  0  0  0  0  0
  -21.8662    1.3488  -14.4322 C   0  0  0  0  0  0  0  0  0  0  0  0
  -21.8633   -0.0487  -14.3899 C   0  0  0  0  0  0  0  0  0  0  0  0
  -22.8330   -0.7506  -13.6413 C   0  0  0  0  0  0  0  0  0  0  0  0
  -20.9110    2.0293  -15.2352 N   0  0  0  0  0  0  0  0  0  0  0  0
  -19.5489    2.0729  -14.9812 C   0  0  0  0  0  0  0  0  0  0  0  0
  -19.0195    1.5326  -14.0144 O   0  0  0  0  0  0  0  0  0  0  0  0
  -18.8284    2.8050  -15.9080 N   0  0  0  0  0  0  0  0  0  0  0  0
  -21.2569    2.5280  -16.0439 H   0  0  0  0  0  0  0  0  0  0  0  0
  -19.3257    3.5155  -16.4253 H   0  0  0  0  0  0  0  0  0  0  0  0
  -17.4073    2.9053  -15.8730 C   0  0  0  0  0  0  0  0  0  0  0  0
  -16.7373    4.1393  -15.8911 C   0  0  0  0  0  0  0  0  0  0  0  0
  -15.3452    4.2146  -15.9572 C   0  0  0  0  0  0  0  0  0  0  0  0
  -14.5948    3.0479  -15.9671 C   0  0  0  0  0  0  0  0  0  0  0  0
  -15.2448    1.8174  -15.8900 C   0  0  0  0  0  0  0  0  0  0  0  0
  -14.3063    0.3728  -15.8835 Cl  0  0  0  0  0  0  0  0  0  0  0  0
  -16.6432    1.7359  -15.8358 C   0  0  0  0  0  0  0  0  0  0  0  0
  -26.9873   -2.9483   -9.9744 N   0  0  0  0  0  0  0  0  0  0  0  0
  -27.3355   -3.8136  -10.3633 H   0  0  0  0  0  0  0  0  0  0  0  0
  -27.8481    0.1841   -6.4710 C   0  0  0  0  0  0  0  0  0  0  0  0
  -28.0092   -1.1928   -7.0363 C   0  0  0  0  0  0  0  0  0  0  0  0
  -27.4765   -1.4291   -8.2569 N   0  0  0  0  0  0  0  0  0  0  0  0
  -27.6144   -2.6686   -8.7489 C   0  0  0  0  0  0  0  0  0  0  0  0
  -28.3375   -3.6103   -8.0531 C   0  0  0  0  0  0  0  0  0  0  0  0
  -28.8635   -3.2954   -6.8166 C   0  0  0  0  0  0  0  0  0  0  0  0
  -28.6771   -2.0877   -6.2788 N   0  0  0  0  0  0  0  0  0  0  0  0
  -29.5592   -4.3014   -6.1587 N   0  0  0  0  0  0  0  0  0  0  0  0
  -30.5524   -3.9612   -5.1439 C   0  0  0  0  0  0  0  0  0  0  0  0
  -30.7724   -5.2224   -4.2596 C   0  0  0  0  0  0  0  0  0  0  0  0
  -31.1308   -6.4492   -5.0121 N   0  0  0  0  0  0  0  0  0  0  0  0
  -30.1417   -6.6735   -6.0920 C   0  0  0  0  0  0  0  0  0  0  0  0
  -29.9458   -5.4420   -7.0001 C   0  0  0  0  0  0  0  0  0  0  0  0
  -32.0384   -6.2925   -5.4519 H   0  0  0  0  0  0  0  0  0  0  0  0
 27 28  1  0  0  0
 28 29  1  0  0  0
 28 33  2  0  0  0
 29 30  2  0  0  0
 30 25  1  0  0  0
 30 31  1  0  0  0
 25  1  1  0  0  0
 25 26  1  0  0  0
  1  2  2  0  0  0
  1  5  1  0  0  0
  2  3  1  0  0  0
  3  4  2  0  0  0
  4  6  1  0  0  0
  4  5  1  0  0  0
  6  7  1  0  0  0
  6 11  2  0  0  0
  7  8  2  0  0  0
  8  9  1  0  0  0
  9 12  1  0  0  0
  9 10  2  0  0  0
 12 13  1  0  0  0
 12 16  1  0  0  0
 13 14  2  0  0  0
 13 15  1  0  0  0
 15 18  1  0  0  0
 15 17  1  0  0  0
 18 19  1  0  0  0
 18 24  2  0  0  0
 19 20  2  0  0  0
 20 21  1  0  0  0
 21 22  2  0  0  0
 22 23  1  0  0  0
 22 24  1  0  0  0
 10 11  1  0  0  0
 31 32  2  0  0  0
 32 34  1  0  0  0
 32 33  1  0  0  0
 34 35  1  0  0  0
 34 39  1  0  0  0
 35 36  1  0  0  0
 36 37  1  0  0  0
 37 38  1  0  0  0
 37 40  1  0  0  0
 38 39  1  0  0  0
M  END
> <minimizedAffinity>
-10.98814

$$$$
