CHEMBL3924505


 42 44  0  0  0  0  0  0  0  0999 V2000
  -20.9162    1.5377  -14.1226 C   0  0  0  0  0  0  0  0  0  0  0  0
  -19.6811    0.9139  -14.3331 C   0  0  0  0  0  0  0  0  0  0  0  0
  -18.5910    1.6806  -14.7517 C   0  0  0  0  0  0  0  0  0  0  0  0
  -18.7761    3.0479  -14.8935 C   0  0  0  0  0  0  0  0  0  0  0  0
  -19.9565    3.6820  -14.6755 N   0  0  0  0  0  0  0  0  0  0  0  0
  -21.0143    2.9244  -14.3171 C   0  0  0  0  0  0  0  0  0  0  0  0
  -22.2298    3.6028  -14.2758 N   0  0  0  0  0  0  0  0  0  0  0  0
  -22.0448    4.5985  -14.3567 H   0  0  0  0  0  0  0  0  0  0  0  0
  -22.8095    3.3562  -13.4847 H   0  0  0  0  0  0  0  0  0  0  0  0
  -23.0369    0.1181  -13.4564 C   0  0  0  0  0  0  0  0  0  0  0  0
  -22.0536    0.7460  -13.7425 C   0  0  0  0  0  0  0  0  0  0  0  0
  -25.8981   -1.4481  -11.6179 C   0  0  0  0  0  0  0  0  0  0  0  0
  -26.5322   -2.1080  -12.6742 C   0  0  0  0  0  0  0  0  0  0  0  0
  -26.0457   -2.0034  -13.9788 C   0  0  0  0  0  0  0  0  0  0  0  0
  -24.9055   -1.2455  -14.2382 C   0  0  0  0  0  0  0  0  0  0  0  0
  -24.2713   -0.5640  -13.1981 C   0  0  0  0  0  0  0  0  0  0  0  0
  -24.7896   -0.6336  -11.8967 C   0  0  0  0  0  0  0  0  0  0  0  0
  -27.6117   -1.5935   -9.7965 C   0  0  0  0  0  0  0  0  0  0  0  0
  -28.6138   -1.4807  -10.4966 O   0  0  0  0  0  0  0  0  0  0  0  0
  -26.3043   -1.5897  -10.2733 N   0  0  0  0  0  0  0  0  0  0  0  0
  -25.5986   -1.8450   -9.5901 H   0  0  0  0  0  0  0  0  0  0  0  0
  -28.5571   -4.2270   -8.1150 C   0  0  0  0  0  0  0  0  0  0  0  0
  -28.1093   -2.9045   -7.6111 C   0  0  0  0  0  0  0  0  0  0  0  0
  -28.0025   -2.5105   -6.2447 C   0  0  0  0  0  0  0  0  0  0  0  0
  -27.5421   -1.2214   -6.2460 C   0  0  0  0  0  0  0  0  0  0  0  0
  -27.3506   -0.7789   -7.5141 O   0  0  0  0  0  0  0  0  0  0  0  0
  -27.7029   -1.8009   -8.3543 C   0  0  0  0  0  0  0  0  0  0  0  0
  -17.2682    1.0850  -15.0808 C   0  0  0  0  0  0  0  0  0  0  0  0
  -16.8225    1.3071  -16.2025 O   0  0  0  0  0  0  0  0  0  0  0  0
  -16.5305    0.3951  -14.1039 N   0  0  0  0  0  0  0  0  0  0  0  0
  -15.0144    0.1633  -14.2607 S   0  0  0  0  0  0  0  0  0  0  0  0
  -14.3998   -0.3583  -15.4667 O   0  0  0  0  0  0  0  0  0  0  0  0
  -14.1450    1.6755  -13.8359 C   0  0  0  0  0  0  0  0  0  0  0  0
  -12.8951    1.3981  -12.9979 C   0  0  0  0  0  0  0  0  0  0  0  0
  -12.1136    2.6639  -12.6828 C   0  0  0  0  0  0  0  0  0  0  0  0
  -12.4512    3.1521  -11.3952 O   0  0  0  0  0  0  0  0  0  0  0  0
  -13.4148    3.2915  -11.3689 H   0  0  0  0  0  0  0  0  0  0  0  0
  -14.5563   -0.9476  -12.9285 C   0  0  0  0  0  0  0  0  0  0  0  0
  -15.7374   -1.7307  -12.3665 C   0  0  0  0  0  0  0  0  0  0  0  0
  -15.3593   -2.7064  -11.2584 C   0  0  0  0  0  0  0  0  0  0  0  0
  -16.4286   -3.6190  -11.0503 O   0  0  0  0  0  0  0  0  0  0  0  0
  -17.1785   -3.1170  -10.6849 H   0  0  0  0  0  0  0  0  0  0  0  0
 22 23  1  0  0  0
 23 24  1  0  0  0
 23 27  2  0  0  0
 24 25  2  0  0  0
 25 26  1  0  0  0
 26 27  1  0  0  0
 27 18  1  0  0  0
 18 19  2  0  0  0
 18 20  1  0  0  0
 20 12  1  0  0  0
 20 21  1  0  0  0
 12 13  1  0  0  0
 12 17  2  0  0  0
 13 14  2  0  0  0
 14 15  1  0  0  0
 15 16  2  0  0  0
 16 10  1  0  0  0
 16 17  1  0  0  0
 10 11  3  0  0  0
 11  1  1  0  0  0
  1  2  1  0  0  0
  1  6  2  0  0  0
  2  3  2  0  0  0
  3 28  1  0  0  0
  3  4  1  0  0  0
 28 29  2  0  0  0
 28 30  1  0  0  0
 30 31  2  0  0  0
 31 32  2  0  0  0
 31 33  1  0  0  0
 31 38  1  0  0  0
 33 34  1  0  0  0
 34 35  1  0  0  0
 35 36  1  0  0  0
 36 37  1  0  0  0
 38 39  1  0  0  0
 39 40  1  0  0  0
 40 41  1  0  0  0
 41 42  1  0  0  0
  4  5  2  0  0  0
  5  6  1  0  0  0
  6  7  1  0  0  0
  7  8  1  0  0  0
  7  9  1  0  0  0
M  END
> <minimizedAffinity>
-9.81667

$$$$
