CHEMBL2180604


 35 39  0  0  0  0  0  0  0  0999 V2000
  -26.5405   -2.0155  -12.2060 C   0  0  0  0  0  0  0  0  0  0  0  0
  -25.1537   -1.7901  -12.1919 C   0  0  0  0  0  0  0  0  0  0  0  0
  -24.4653   -1.4401  -13.3522 C   0  0  0  0  0  0  0  0  0  0  0  0
  -25.1250   -1.3509  -14.5668 C   0  0  0  0  0  0  0  0  0  0  0  0
  -26.4987   -1.5728  -14.6052 C   0  0  0  0  0  0  0  0  0  0  0  0
  -27.2224   -1.8948  -13.4369 C   0  0  0  0  0  0  0  0  0  0  0  0
  -28.7083   -2.0864  -13.5738 C   0  0  0  0  0  0  0  0  0  0  0  0
  -26.9310   -1.9937   -9.7320 C   0  0  0  0  0  0  0  0  0  0  0  0
  -26.0392   -1.1867   -9.4931 O   0  0  0  0  0  0  0  0  0  0  0  0
  -27.2567   -2.3831  -11.0260 N   0  0  0  0  0  0  0  0  0  0  0  0
  -28.1243   -2.8820  -11.1543 H   0  0  0  0  0  0  0  0  0  0  0  0
  -29.8583   -4.7832   -6.6064 C   0  0  0  0  0  0  0  0  0  0  0  0
  -29.0258   -3.7471   -7.2638 C   0  0  0  0  0  0  0  0  0  0  0  0
  -28.2658   -3.8217   -8.4547 C   0  0  0  0  0  0  0  0  0  0  0  0
  -27.7387   -2.5523   -8.6580 C   0  0  0  0  0  0  0  0  0  0  0  0
  -28.1460   -1.8353   -7.5475 N   0  0  0  0  0  0  0  0  0  0  0  0
  -27.8704   -0.4712   -7.1609 C   0  0  0  0  0  0  0  0  0  0  0  0
  -28.9468   -2.5361   -6.7173 N   0  0  0  0  0  0  0  0  0  0  0  0
  -23.0618   -1.3200  -13.2618 O   0  0  0  0  0  0  0  0  0  0  0  0
  -22.4155   -0.1608  -13.6738 C   0  0  0  0  0  0  0  0  0  0  0  0
  -23.2939    0.9828  -13.3337 C   0  0  0  0  0  0  0  0  0  0  0  0
  -22.8128    2.2037  -13.5980 C   0  0  0  0  0  0  0  0  0  0  0  0
  -21.5425    2.3261  -14.2031 C   0  0  0  0  0  0  0  0  0  0  0  0
  -20.8542    3.3858  -14.5602 N   0  0  0  0  0  0  0  0  0  0  0  0
  -19.6987    2.9076  -15.1035 C   0  0  0  0  0  0  0  0  0  0  0  0
  -19.6732    1.5315  -15.0757 C   0  0  0  0  0  0  0  0  0  0  0  0
  -20.8566    1.1586  -14.4924 N   0  0  0  0  0  0  0  0  0  0  0  0
  -21.2501   -0.1219  -14.2354 N   0  0  0  0  0  0  0  0  0  0  0  0
  -18.7016    3.7039  -15.6149 N   0  0  0  0  0  0  0  0  0  0  0  0
  -17.3625    3.3827  -15.5781 C   0  0  0  0  0  0  0  0  0  0  0  0
  -16.8400    2.3728  -15.1323 O   0  0  0  0  0  0  0  0  0  0  0  0
  -18.9858    4.5826  -16.0187 H   0  0  0  0  0  0  0  0  0  0  0  0
  -16.4941    4.4652  -16.1473 C   0  0  0  0  0  0  0  0  0  0  0  0
  -15.6305    4.2072  -17.3629 C   0  0  0  0  0  0  0  0  0  0  0  0
  -14.9927    4.3422  -16.0119 C   0  0  0  0  0  0  0  0  0  0  0  0
 12 13  1  0  0  0
 13 14  1  0  0  0
 13 18  2  0  0  0
 14 15  2  0  0  0
 15  8  1  0  0  0
 15 16  1  0  0  0
  8  9  2  0  0  0
  8 10  1  0  0  0
 10  1  1  0  0  0
 10 11  1  0  0  0
  1  2  1  0  0  0
  1  6  2  0  0  0
  2  3  2  0  0  0
  3 19  1  0  0  0
  3  4  1  0  0  0
 19 20  1  0  0  0
 20 21  1  0  0  0
 20 28  2  0  0  0
 21 22  2  0  0  0
 22 23  1  0  0  0
 23 24  2  0  0  0
 23 27  1  0  0  0
 24 25  1  0  0  0
 25 29  1  0  0  0
 25 26  2  0  0  0
 29 30  1  0  0  0
 29 32  1  0  0  0
 30 31  2  0  0  0
 30 33  1  0  0  0
 33 34  1  0  0  0
 33 35  1  0  0  0
 34 35  1  0  0  0
 26 27  1  0  0  0
 27 28  1  0  0  0
  4  5  2  0  0  0
  5  6  1  0  0  0
  6  7  1  0  0  0
 16 17  1  0  0  0
 16 18  1  0  0  0
M  END
> <minimizedAffinity>
-10.60740

$$$$
