CHEMBL1969588


 26 29  0  0  0  0  0  0  0  0999 V2000
  -15.6992    3.7837  -17.0291 Cl  0  0  0  0  0  0  0  0  0  0  0  0
  -16.6316    2.7169  -16.0591 C   0  0  0  0  0  0  0  0  0  0  0  0
  -17.9258    3.0449  -15.7017 C   0  0  0  0  0  0  0  0  0  0  0  0
  -18.6332    2.1327  -14.9284 C   0  0  0  0  0  0  0  0  0  0  0  0
  -17.9772    0.9680  -14.5220 C   0  0  0  0  0  0  0  0  0  0  0  0
  -16.6748    0.7131  -14.9454 C   0  0  0  0  0  0  0  0  0  0  0  0
  -15.9976    1.5768  -15.7180 N   0  0  0  0  0  0  0  0  0  0  0  0
  -20.0334    2.3569  -14.5871 C   0  0  0  0  0  0  0  0  0  0  0  0
  -20.5789    3.6207  -14.4237 C   0  0  0  0  0  0  0  0  0  0  0  0
  -21.9013    3.4808  -14.0895 N   0  0  0  0  0  0  0  0  0  0  0  0
  -22.2266    2.1568  -14.0286 C   0  0  0  0  0  0  0  0  0  0  0  0
  -23.4536    1.6970  -13.7229 N   0  0  0  0  0  0  0  0  0  0  0  0
  -23.5211    0.3474  -13.7065 C   0  0  0  0  0  0  0  0  0  0  0  0
  -22.4659   -0.5175  -13.9593 C   0  0  0  0  0  0  0  0  0  0  0  0
  -21.2128    0.0152  -14.2662 C   0  0  0  0  0  0  0  0  0  0  0  0
  -21.0841    1.4164  -14.3192 C   0  0  0  0  0  0  0  0  0  0  0  0
  -22.5576    4.2244  -13.9016 H   0  0  0  0  0  0  0  0  0  0  0  0
  -16.1208   -0.5128  -14.5856 N   0  0  0  0  0  0  0  0  0  0  0  0
  -16.7544   -1.2807  -14.7803 H   0  0  0  0  0  0  0  0  0  0  0  0
  -15.4996   -0.6076  -13.2761 C   0  0  0  0  0  0  0  0  0  0  0  0
  -15.7869   -1.9902  -12.7275 C   0  0  0  0  0  0  0  0  0  0  0  0
  -15.7695   -2.2078  -11.3361 C   0  0  0  0  0  0  0  0  0  0  0  0
  -16.0358   -3.4700  -10.8057 C   0  0  0  0  0  0  0  0  0  0  0  0
  -16.3380   -4.5280  -11.6604 C   0  0  0  0  0  0  0  0  0  0  0  0
  -16.3672   -4.3248  -13.0400 C   0  0  0  0  0  0  0  0  0  0  0  0
  -16.0936   -3.0626  -13.5740 C   0  0  0  0  0  0  0  0  0  0  0  0
  1  2  1  0  0  0
  2  3  1  0  0  0
  2  7  2  0  0  0
  3  4  2  0  0  0
  4  8  1  0  0  0
  4  5  1  0  0  0
  8  9  2  0  0  0
  8 16  1  0  0  0
  9 10  1  0  0  0
 10 11  1  0  0  0
 10 17  1  0  0  0
 11 12  1  0  0  0
 11 16  2  0  0  0
 12 13  2  0  0  0
 13 14  1  0  0  0
 14 15  2  0  0  0
 15 16  1  0  0  0
  5  6  2  0  0  0
  6 18  1  0  0  0
  6  7  1  0  0  0
 18 20  1  0  0  0
 18 19  1  0  0  0
 20 21  1  0  0  0
 21 22  1  0  0  0
 21 26  2  0  0  0
 22 23  2  0  0  0
 23 24  1  0  0  0
 24 25  2  0  0  0
 25 26  1  0  0  0
M  END
> <minimizedAffinity>
-9.76199

$$$$
