CHEMBL2058042


 33 36  0  0  0  0  0  0  0  0999 V2000
  -30.1162   -7.6194   -5.9605 C   0  0  0  0  0  0  0  0  0  0  0  0
  -29.4452   -8.7537   -6.4047 C   0  0  0  0  0  0  0  0  0  0  0  0
  -28.1925   -9.1241   -5.8878 C   0  0  0  0  0  0  0  0  0  0  0  0
  -27.4831  -10.2517   -6.3313 C   0  0  0  0  0  0  0  0  0  0  0  0
  -26.2927  -10.5883   -5.8023 N   0  0  0  0  0  0  0  0  0  0  0  0
  -25.8153   -9.7931   -4.8441 C   0  0  0  0  0  0  0  0  0  0  0  0
  -26.3962   -8.6801   -4.3825 N   0  0  0  0  0  0  0  0  0  0  0  0
  -27.5768   -8.3467   -4.9125 C   0  0  0  0  0  0  0  0  0  0  0  0
  -28.2223   -7.1757   -4.5065 C   0  0  0  0  0  0  0  0  0  0  0  0
  -29.4798   -6.7922   -5.0086 C   0  0  0  0  0  0  0  0  0  0  0  0
  -32.1784   -8.1861   -7.1438 C   0  0  0  0  0  0  0  0  0  0  0  0
  -31.3328   -7.2683   -6.4646 O   0  0  0  0  0  0  0  0  0  0  0  0
  -28.0098  -11.0331   -7.3973 N   0  0  0  0  0  0  0  0  0  0  0  0
  -27.7477  -12.0104   -7.2948 H   0  0  0  0  0  0  0  0  0  0  0  0
  -28.0250  -10.6348   -8.7511 C   0  0  0  0  0  0  0  0  0  0  0  0
  -26.8492  -10.2365   -9.3984 C   0  0  0  0  0  0  0  0  0  0  0  0
  -26.8502   -9.9431  -10.7616 C   0  0  0  0  0  0  0  0  0  0  0  0
  -28.0401  -10.0223  -11.4821 C   0  0  0  0  0  0  0  0  0  0  0  0
  -28.0178   -9.7237  -13.3476 Br  0  0  0  0  0  0  0  0  0  0  0  0
  -29.2362  -10.3422  -10.8445 C   0  0  0  0  0  0  0  0  0  0  0  0
  -29.2185  -10.6327   -9.4834 C   0  0  0  0  0  0  0  0  0  0  0  0
  -30.3690  -10.9566   -8.8708 F   0  0  0  0  0  0  0  0  0  0  0  0
  -29.9388   -5.5948   -4.4748 O   0  0  0  0  0  0  0  0  0  0  0  0
  -29.2603   -4.4301   -4.9393 C   0  0  0  0  0  0  0  0  0  0  0  0
  -30.0372   -3.5517   -5.9361 C   0  0  0  0  0  0  0  0  0  0  0  0
  -29.8664   -3.9489   -7.4082 C   0  0  0  0  0  0  0  0  0  0  0  0
  -28.4738   -3.6214   -7.9445 C   0  0  0  0  0  0  0  0  0  0  0  0
  -28.0295   -2.1964   -7.5938 C   0  0  0  0  0  0  0  0  0  0  0  0
  -28.1421   -1.9606   -6.1489 N   0  0  0  0  0  0  0  0  0  0  0  0
  -29.5528   -2.0977   -5.7295 C   0  0  0  0  0  0  0  0  0  0  0  0
  -27.5800   -0.6738   -5.7100 C   0  0  0  0  0  0  0  0  0  0  0  0
  -28.6056    0.3491   -5.2099 C   0  0  0  0  0  0  0  0  0  0  0  0
  -27.9847    1.2051   -4.3496 F   0  0  0  0  0  0  0  0  0  0  0  0
 11 12  1  0  0  0
 12  1  1  0  0  0
  1  2  1  0  0  0
  1 10  2  0  0  0
  2  3  2  0  0  0
  3  4  1  0  0  0
  3  8  1  0  0  0
  4 13  1  0  0  0
  4  5  2  0  0  0
 13 15  1  0  0  0
 13 14  1  0  0  0
 15 16  1  0  0  0
 15 21  2  0  0  0
 16 17  2  0  0  0
 17 18  1  0  0  0
 18 19  1  0  0  0
 18 20  2  0  0  0
 20 21  1  0  0  0
 21 22  1  0  0  0
  5  6  1  0  0  0
  6  7  2  0  0  0
  7  8  1  0  0  0
  8  9  2  0  0  0
  9 10  1  0  0  0
 10 23  1  0  0  0
 23 24  1  0  0  0
 24 25  1  0  0  0
 25 26  1  0  0  0
 25 30  1  0  0  0
 26 27  1  0  0  0
 27 28  1  0  0  0
 28 29  1  0  0  0
 29 31  1  0  0  0
 29 30  1  0  0  0
 31 32  1  0  0  0
 32 33  1  0  0  0
M  END
> <minimizedAffinity>
-8.10471

$$$$
