CHEMBL4792804


 47 52  0  0  0  0  0  0  0  0999 V2000
  -12.7164    3.1584  -16.5249 C   0  0  0  0  0  0  0  0  0  0  0  0
  -12.4613    4.2011  -15.6322 C   0  0  0  0  0  0  0  0  0  0  0  0
  -12.7243    5.5419  -16.0021 C   0  0  0  0  0  0  0  0  0  0  0  0
  -13.1953    5.8760  -17.2829 C   0  0  0  0  0  0  0  0  0  0  0  0
  -13.4869    4.8161  -18.1471 C   0  0  0  0  0  0  0  0  0  0  0  0
  -13.2426    3.4914  -17.7765 C   0  0  0  0  0  0  0  0  0  0  0  0
  -13.5171    2.5252  -18.6661 F   0  0  0  0  0  0  0  0  0  0  0  0
  -13.2671    7.2313  -17.6965 N   0  0  0  0  0  0  0  0  0  0  0  0
  -13.3344    7.9155  -16.9406 H   0  0  0  0  0  0  0  0  0  0  0  0
  -12.6533    7.7961  -18.8485 C   0  0  0  0  0  0  0  0  0  0  0  0
  -11.3304    7.5489  -19.0394 N   0  0  0  0  0  0  0  0  0  0  0  0
  -10.6966    8.0547  -20.1133 C   0  0  0  0  0  0  0  0  0  0  0  0
  -11.3107    8.8472  -21.0530 C   0  0  0  0  0  0  0  0  0  0  0  0
  -12.6583    9.1346  -20.8788 C   0  0  0  0  0  0  0  0  0  0  0  0
  -13.3226    9.9322  -21.8248 N   0  0  0  0  0  0  0  0  0  0  0  0
  -14.6261   10.2966  -21.6407 C   0  0  0  0  0  0  0  0  0  0  0  0
  -15.4122    9.8543  -20.6482 C   0  0  0  0  0  0  0  0  0  0  0  0
  -14.8006    8.9149  -19.6449 C   0  0  0  0  0  0  0  0  0  0  0  0
  -15.4566    8.4635  -18.7098 O   0  0  0  0  0  0  0  0  0  0  0  0
  -13.3558    8.5789  -19.7800 C   0  0  0  0  0  0  0  0  0  0  0  0
  -12.7645   10.4760  -22.4757 H   0  0  0  0  0  0  0  0  0  0  0  0
  -16.7912   10.3431  -20.5309 C   0  0  0  0  0  0  0  0  0  0  0  0
  -17.8498    9.6770  -21.1667 C   0  0  0  0  0  0  0  0  0  0  0  0
  -19.1560   10.1589  -21.0459 C   0  0  0  0  0  0  0  0  0  0  0  0
  -19.3993   11.3064  -20.2995 C   0  0  0  0  0  0  0  0  0  0  0  0
  -20.6530   11.7605  -20.1772 F   0  0  0  0  0  0  0  0  0  0  0  0
  -18.3597   11.9922  -19.6824 C   0  0  0  0  0  0  0  0  0  0  0  0
  -17.0539   11.5117  -19.8005 C   0  0  0  0  0  0  0  0  0  0  0  0
  -12.4804    1.8129  -16.3246 O   0  0  0  0  0  0  0  0  0  0  0  0
  -16.6668    2.2361  -15.2982 C   0  0  0  0  0  0  0  0  0  0  0  0
  -15.3813    2.0054  -15.7699 C   0  0  0  0  0  0  0  0  0  0  0  0
  -14.5211    1.0988  -15.1533 C   0  0  0  0  0  0  0  0  0  0  0  0
  -13.1482    1.0373  -15.3973 C   0  0  0  0  0  0  0  0  0  0  0  0
  -12.3696    0.0880  -14.8502 N   0  0  0  0  0  0  0  0  0  0  0  0
  -12.9768   -0.7575  -14.0076 C   0  0  0  0  0  0  0  0  0  0  0  0
  -14.2746   -0.7468  -13.6657 N   0  0  0  0  0  0  0  0  0  0  0  0
  -15.0416    0.1918  -14.2320 C   0  0  0  0  0  0  0  0  0  0  0  0
  -16.3991    0.2770  -13.9145 C   0  0  0  0  0  0  0  0  0  0  0  0
  -17.2216    1.3164  -14.3937 C   0  0  0  0  0  0  0  0  0  0  0  0
  -16.6872    4.5427  -15.9614 C   0  0  0  0  0  0  0  0  0  0  0  0
  -17.3959    3.3179  -15.7172 O   0  0  0  0  0  0  0  0  0  0  0  0
  -18.5519    1.4674  -14.0443 O   0  0  0  0  0  0  0  0  0  0  0  0
  -19.5103    1.0380  -15.0209 C   0  0  0  0  0  0  0  0  0  0  0  0
  -20.8985    1.6435  -14.8075 C   0  0  0  0  0  0  0  0  0  0  0  0
  -20.9633    3.1282  -15.1262 C   0  0  0  0  0  0  0  0  0  0  0  0
  -19.8629    3.7974  -14.5159 O   0  0  0  0  0  0  0  0  0  0  0  0
  -20.0321    3.8320  -13.5588 H   0  0  0  0  0  0  0  0  0  0  0  0
 40 41  1  0  0  0
 41 30  1  0  0  0
 30 31  1  0  0  0
 30 39  2  0  0  0
 31 32  2  0  0  0
 32 33  1  0  0  0
 32 37  1  0  0  0
 33 29  1  0  0  0
 33 34  2  0  0  0
 29  1  1  0  0  0
  1  2  1  0  0  0
  1  6  2  0  0  0
  2  3  2  0  0  0
  3  4  1  0  0  0
  4  8  1  0  0  0
  4  5  2  0  0  0
  8 10  1  0  0  0
  8  9  1  0  0  0
 10 11  1  0  0  0
 10 20  2  0  0  0
 11 12  2  0  0  0
 12 13  1  0  0  0
 13 14  2  0  0  0
 14 15  1  0  0  0
 14 20  1  0  0  0
 15 16  1  0  0  0
 15 21  1  0  0  0
 16 17  2  0  0  0
 17 22  1  0  0  0
 17 18  1  0  0  0
 22 23  1  0  0  0
 22 28  2  0  0  0
 23 24  2  0  0  0
 24 25  1  0  0  0
 25 26  1  0  0  0
 25 27  2  0  0  0
 27 28  1  0  0  0
 18 19  2  0  0  0
 18 20  1  0  0  0
  5  6  1  0  0  0
  6  7  1  0  0  0
 34 35  1  0  0  0
 35 36  2  0  0  0
 36 37  1  0  0  0
 37 38  2  0  0  0
 38 39  1  0  0  0
 39 42  1  0  0  0
 42 43  1  0  0  0
 43 44  1  0  0  0
 44 45  1  0  0  0
 45 46  1  0  0  0
 46 47  1  0  0  0
M  END
> <minimizedAffinity>
-7.26847

$$$$
