CHEMBL4553056


 38 42  0  0  0  0  0  0  0  0999 V2000
  -30.3653   -5.6661   -5.7915 N   0  0  0  0  0  0  0  0  0  0  0  0
  -31.2713   -5.7004   -6.2558 H   0  0  0  0  0  0  0  0  0  0  0  0
  -29.9246   -4.3942   -5.3150 C   0  0  0  0  0  0  0  0  0  0  0  0
  -30.3650   -3.9782   -4.0795 N   0  0  0  0  0  0  0  0  0  0  0  0
  -29.9678   -2.7673   -3.6527 C   0  0  0  0  0  0  0  0  0  0  0  0
  -28.8815   -2.1466   -4.2172 C   0  0  0  0  0  0  0  0  0  0  0  0
  -28.6209   -2.3567   -5.5538 C   0  0  0  0  0  0  0  0  0  0  0  0
  -27.8016   -1.3744   -6.3999 C   0  0  0  0  0  0  0  0  0  0  0  0
  -27.7236   -1.8351   -7.5315 C   0  0  0  0  0  0  0  0  0  0  0  0
  -27.6251   -2.2745   -8.7115 N   0  0  0  0  0  0  0  0  0  0  0  0
  -28.7549   -3.5871   -7.8296 C   0  0  0  0  0  0  0  0  0  0  0  0
  -29.3347   -4.5962   -8.0291 O   0  0  0  0  0  0  0  0  0  0  0  0
  -29.1484   -3.4777   -6.1274 C   0  0  0  0  0  0  0  0  0  0  0  0
  -26.8360   -1.3477   -9.9007 C   0  0  0  0  0  0  0  0  0  0  0  0
  -27.9055   -1.3703  -10.6923 C   0  0  0  0  0  0  0  0  0  0  0  0
  -27.9100   -1.5263  -12.0357 C   0  0  0  0  0  0  0  0  0  0  0  0
  -26.7714   -1.8376  -12.7022 C   0  0  0  0  0  0  0  0  0  0  0  0
  -26.8248   -1.9988  -14.0270 F   0  0  0  0  0  0  0  0  0  0  0  0
  -25.6113   -1.9343  -11.9835 C   0  0  0  0  0  0  0  0  0  0  0  0
  -25.5942   -1.3626  -10.6903 C   0  0  0  0  0  0  0  0  0  0  0  0
  -27.9638   -9.1337   -5.2524 C   0  0  0  0  0  0  0  0  0  0  0  0
  -28.3058   -8.6648   -6.5036 C   0  0  0  0  0  0  0  0  0  0  0  0
  -29.3730   -7.7642   -6.6547 C   0  0  0  0  0  0  0  0  0  0  0  0
  -29.6547   -6.8663   -5.6412 C   0  0  0  0  0  0  0  0  0  0  0  0
  -29.1269   -7.1862   -4.4040 C   0  0  0  0  0  0  0  0  0  0  0  0
  -28.3258   -8.3155   -4.1889 C   0  0  0  0  0  0  0  0  0  0  0  0
  -28.2377   -8.8210   -2.9370 F   0  0  0  0  0  0  0  0  0  0  0  0
  -27.3085  -10.3472   -5.0769 O   0  0  0  0  0  0  0  0  0  0  0  0
  -22.9808  -11.1143   -7.1203 N   0  0  0  0  0  0  0  0  0  0  0  0
  -23.7444  -10.8989   -5.9695 C   0  0  0  0  0  0  0  0  0  0  0  0
  -23.1459  -10.7524   -4.7663 N   0  0  0  0  0  0  0  0  0  0  0  0
  -23.9379  -10.4882   -3.7018 C   0  0  0  0  0  0  0  0  0  0  0  0
  -25.2224  -10.0090   -3.8776 C   0  0  0  0  0  0  0  0  0  0  0  0
  -25.9150  -10.4138   -5.0250 C   0  0  0  0  0  0  0  0  0  0  0  0
  -25.1318  -10.8721   -6.0748 C   0  0  0  0  0  0  0  0  0  0  0  0
  -25.7570  -11.4568   -8.0172 I   0  0  0  0  0  0  0  0  0  0  0  0
  -21.9799  -11.1434   -7.0964 H   0  0  0  0  0  0  0  0  0  0  0  0
  -23.4368  -11.2423   -8.0252 H   0  0  0  0  0  0  0  0  0  0  0  0
 29 30  1  0  0  0
 29 37  1  0  0  0
 29 38  1  0  0  0
 30 31  1  0  0  0
 30 35  2  0  0  0
 31 32  2  0  0  0
 32 33  1  0  0  0
 33 34  2  0  0  0
 34 28  1  0  0  0
 34 35  1  0  0  0
 28 21  1  0  0  0
 21 22  1  0  0  0
 21 26  2  0  0  0
 22 23  2  0  0  0
 23 24  1  0  0  0
 24  1  1  0  0  0
 24 25  2  0  0  0
  1  3  1  0  0  0
  1  2  1  0  0  0
  3  4  1  0  0  0
  3 13  2  0  0  0
  4  5  2  0  0  0
  5  6  1  0  0  0
  6  7  2  0  0  0
  7  8  1  0  0  0
  7 13  1  0  0  0
  8  9  2  0  0  0
  9 10  1  0  0  0
 10 14  1  0  0  0
 10 11  1  0  0  0
 14 15  1  0  0  0
 14 20  2  0  0  0
 15 16  2  0  0  0
 16 17  1  0  0  0
 17 18  1  0  0  0
 17 19  2  0  0  0
 19 20  1  0  0  0
 11 12  2  0  0  0
 11 13  1  0  0  0
 25 26  1  0  0  0
 26 27  1  0  0  0
 35 36  1  0  0  0
M  END
> <minimizedAffinity>
-10.68327

$$$$
