CHEMBL1082755


 35 41  0  0  0  0  0  0  0  0999 V2000
  -12.8989   -0.8771  -15.8695 N   0  0  0  0  0  0  0  0  0  0  0  0
  -13.5197   -1.8955  -15.1188 C   0  0  0  0  0  0  0  0  0  0  0  0
  -13.4521   -3.3008  -15.1732 C   0  0  0  0  0  0  0  0  0  0  0  0
  -14.2454   -4.0490  -14.2696 C   0  0  0  0  0  0  0  0  0  0  0  0
  -15.0602   -3.4441  -13.2967 C   0  0  0  0  0  0  0  0  0  0  0  0
  -15.1142   -2.0510  -13.2893 C   0  0  0  0  0  0  0  0  0  0  0  0
  -14.3993   -1.2832  -14.2215 C   0  0  0  0  0  0  0  0  0  0  0  0
  -14.3870    0.0327  -14.6288 C   0  0  0  0  0  0  0  0  0  0  0  0
  -15.5629    0.7921  -14.5588 C   0  0  0  0  0  0  0  0  0  0  0  0
  -15.7227    1.7463  -15.5968 C   0  0  0  0  0  0  0  0  0  0  0  0
  -14.7075    2.0688  -16.5187 C   0  0  0  0  0  0  0  0  0  0  0  0
  -13.4036    1.6765  -16.0744 C   0  0  0  0  0  0  0  0  0  0  0  0
  -13.4071    0.3814  -15.5166 C   0  0  0  0  0  0  0  0  0  0  0  0
  -12.6474    2.8972  -15.3681 C   0  0  0  0  0  0  0  0  0  0  0  0
  -13.5184    4.2053  -15.1702 C   0  0  0  0  0  0  0  0  0  0  0  0
  -14.1896    4.4674  -16.4721 C   0  0  0  0  0  0  0  0  0  0  0  0
  -14.0660    5.5362  -17.2575 N   0  0  0  0  0  0  0  0  0  0  0  0
  -14.5130    5.0721  -18.4533 N   0  0  0  0  0  0  0  0  0  0  0  0
  -14.4253    5.9053  -19.6265 C   0  0  0  0  0  0  0  0  0  0  0  0
  -14.8213    3.7346  -18.4485 C   0  0  0  0  0  0  0  0  0  0  0  0
  -14.7798    3.3745  -17.1303 C   0  0  0  0  0  0  0  0  0  0  0  0
  -17.0084    2.3699  -15.4072 C   0  0  0  0  0  0  0  0  0  0  0  0
  -17.6257    3.2355  -16.0084 O   0  0  0  0  0  0  0  0  0  0  0  0
  -17.5085    1.7833  -14.2478 N   0  0  0  0  0  0  0  0  0  0  0  0
  -16.7280    0.7221  -13.6812 C   0  0  0  0  0  0  0  0  0  0  0  0
  -18.3900    2.0988  -13.8748 H   0  0  0  0  0  0  0  0  0  0  0  0
  -15.7637   -4.2499  -12.2053 C   0  0  0  0  0  0  0  0  0  0  0  0
  -16.2993   -3.4702  -11.0017 C   0  0  0  0  0  0  0  0  0  0  0  0
  -15.2013   -3.1266  -10.0058 C   0  0  0  0  0  0  0  0  0  0  0  0
  -14.4466   -4.3780   -9.5883 C   0  0  0  0  0  0  0  0  0  0  0  0
  -14.0226   -5.2134  -10.7825 C   0  0  0  0  0  0  0  0  0  0  0  0
  -15.0465   -5.4159  -11.7543 O   0  0  0  0  0  0  0  0  0  0  0  0
  -11.8916   -1.1225  -16.9092 C   0  0  0  0  0  0  0  0  0  0  0  0
  -13.5889   -0.9172  -18.8217 C   0  0  0  0  0  0  0  0  0  0  0  0
  -12.3976   -1.2636  -18.3223 C   0  0  0  0  0  0  0  0  0  0  0  0
 34 35  2  0  0  0
 35 33  1  0  0  0
 33  1  1  0  0  0
  1  2  1  0  0  0
  1 13  1  0  0  0
  2  3  1  0  0  0
  2  7  2  0  0  0
  3  4  2  0  0  0
  4  5  1  0  0  0
  5 27  1  0  0  0
  5  6  2  0  0  0
 27 28  1  0  0  0
 27 32  1  0  0  0
 28 29  1  0  0  0
 29 30  1  0  0  0
 30 31  1  0  0  0
 31 32  1  0  0  0
  6  7  1  0  0  0
  7  8  1  0  0  0
  8  9  1  0  0  0
  8 13  2  0  0  0
  9 10  2  0  0  0
  9 25  1  0  0  0
 10 11  1  0  0  0
 10 22  1  0  0  0
 11 12  2  0  0  0
 11 21  1  0  0  0
 12 13  1  0  0  0
 12 14  1  0  0  0
 14 15  1  0  0  0
 15 16  1  0  0  0
 16 17  2  0  0  0
 16 21  1  0  0  0
 17 18  1  0  0  0
 18 19  1  0  0  0
 18 20  1  0  0  0
 20 21  2  0  0  0
 22 23  2  0  0  0
 22 24  1  0  0  0
 24 25  1  0  0  0
 24 26  1  0  0  0
M  END
> <minimizedAffinity>
-7.87618

$$$$
