CHEMBL2086737


 32 36  0  0  0  0  0  0  0  0999 V2000
  -13.3540   -0.5132  -14.6530 O   0  0  0  0  0  0  0  0  0  0  0  0
  -13.7738    0.4737  -15.2359 C   0  0  0  0  0  0  0  0  0  0  0  0
  -13.0788    1.1913  -16.1908 N   0  0  0  0  0  0  0  0  0  0  0  0
  -13.8515    2.2051  -16.7385 C   0  0  0  0  0  0  0  0  0  0  0  0
  -13.4501    3.0869  -17.7311 C   0  0  0  0  0  0  0  0  0  0  0  0
  -14.3619    4.0626  -18.1570 C   0  0  0  0  0  0  0  0  0  0  0  0
  -15.6471    4.1075  -17.5827 C   0  0  0  0  0  0  0  0  0  0  0  0
  -16.0243    3.1907  -16.5778 C   0  0  0  0  0  0  0  0  0  0  0  0
  -15.1244    2.2215  -16.1543 C   0  0  0  0  0  0  0  0  0  0  0  0
  -15.1570    1.1020  -15.1598 C   0  0  0  0  0  0  0  0  0  0  0  0
  -16.1677    0.6213  -14.3900 C   0  0  0  0  0  0  0  0  0  0  0  0
  -12.1316    0.9621  -16.4578 H   0  0  0  0  0  0  0  0  0  0  0  0
  -15.9873   -0.5092  -13.5190 C   0  0  0  0  0  0  0  0  0  0  0  0
  -15.8164   -0.6370  -12.2106 N   0  0  0  0  0  0  0  0  0  0  0  0
  -15.7312   -2.0054  -11.9726 C   0  0  0  0  0  0  0  0  0  0  0  0
  -15.4848   -2.7371  -10.7955 C   0  0  0  0  0  0  0  0  0  0  0  0
  -15.3475   -4.1372  -10.8803 C   0  0  0  0  0  0  0  0  0  0  0  0
  -15.4950   -4.8032  -12.0994 C   0  0  0  0  0  0  0  0  0  0  0  0
  -15.8194   -4.1007  -13.2608 C   0  0  0  0  0  0  0  0  0  0  0  0
  -15.9157   -2.7128  -13.1524 C   0  0  0  0  0  0  0  0  0  0  0  0
  -16.1791   -1.7480  -14.0835 N   0  0  0  0  0  0  0  0  0  0  0  0
  -16.4302   -1.9216  -15.0421 H   0  0  0  0  0  0  0  0  0  0  0  0
  -17.5405    1.1628  -14.5650 C   0  0  0  0  0  0  0  0  0  0  0  0
  -18.5137    0.3959  -15.2288 C   0  0  0  0  0  0  0  0  0  0  0  0
  -19.8246    0.8587  -15.3393 C   0  0  0  0  0  0  0  0  0  0  0  0
  -20.1735    2.0902  -14.7912 C   0  0  0  0  0  0  0  0  0  0  0  0
  -19.2114    2.8605  -14.1370 C   0  0  0  0  0  0  0  0  0  0  0  0
  -17.8965    2.4019  -14.0241 C   0  0  0  0  0  0  0  0  0  0  0  0
  -13.9305    4.9716  -19.2571 C   0  0  0  0  0  0  0  0  0  0  0  0
  -14.4694    6.0461  -19.4577 O   0  0  0  0  0  0  0  0  0  0  0  0
  -12.9293    4.5057  -20.0329 O   0  0  0  0  0  0  0  0  0  0  0  0
  -12.6545    3.5835  -19.8893 H   0  0  0  0  0  0  0  0  0  0  0  0
  1  2  2  0  0  0
  2  3  1  0  0  0
  2 10  1  0  0  0
  3  4  1  0  0  0
  3 12  1  0  0  0
  4  5  1  0  0  0
  4  9  2  0  0  0
  5  6  2  0  0  0
  6 29  1  0  0  0
  6  7  1  0  0  0
 29 30  2  0  0  0
 29 31  1  0  0  0
 31 32  1  0  0  0
  7  8  2  0  0  0
  8  9  1  0  0  0
  9 10  1  0  0  0
 10 11  2  0  0  0
 11 23  1  0  0  0
 11 13  1  0  0  0
 23 24  1  0  0  0
 23 28  2  0  0  0
 24 25  2  0  0  0
 25 26  1  0  0  0
 26 27  2  0  0  0
 27 28  1  0  0  0
 13 14  2  0  0  0
 13 21  1  0  0  0
 14 15  1  0  0  0
 15 16  1  0  0  0
 15 20  2  0  0  0
 16 17  2  0  0  0
 17 18  1  0  0  0
 18 19  2  0  0  0
 19 20  1  0  0  0
 20 21  1  0  0  0
 21 22  1  0  0  0
M  END
> <minimizedAffinity>
-9.13326

$$$$
