CHEMBL3939307


 30 33  0  0  0  0  0  0  0  0999 V2000
  -14.7140   -1.0815  -13.6723 C   0  0  0  0  0  0  0  0  0  0  0  0
  -15.4765   -0.4604  -12.6703 C   0  0  0  0  0  0  0  0  0  0  0  0
  -16.2565    0.6918  -12.9436 C   0  0  0  0  0  0  0  0  0  0  0  0
  -16.1532    1.2801  -14.2193 C   0  0  0  0  0  0  0  0  0  0  0  0
  -16.6452    2.4093  -14.9684 C   0  0  0  0  0  0  0  0  0  0  0  0
  -15.5399    2.9820  -15.4989 N   0  0  0  0  0  0  0  0  0  0  0  0
  -14.7833    1.8928  -15.7796 N   0  0  0  0  0  0  0  0  0  0  0  0
  -15.1430    0.7978  -15.0423 C   0  0  0  0  0  0  0  0  0  0  0  0
  -14.5462   -0.4556  -14.9092 C   0  0  0  0  0  0  0  0  0  0  0  0
  -13.9481    2.0219  -16.3310 H   0  0  0  0  0  0  0  0  0  0  0  0
  -13.7198   -2.5356  -13.3475 S   0  0  0  0  0  0  0  0  0  0  0  0
  -15.2026   -4.1774  -11.5428 C   0  0  0  0  0  0  0  0  0  0  0  0
  -16.2023   -5.1490  -11.3183 C   0  0  0  0  0  0  0  0  0  0  0  0
  -16.9795   -5.6309  -12.3680 C   0  0  0  0  0  0  0  0  0  0  0  0
  -16.7763   -5.1489  -13.6580 C   0  0  0  0  0  0  0  0  0  0  0  0
  -15.7778   -4.2079  -13.8938 C   0  0  0  0  0  0  0  0  0  0  0  0
  -14.9634   -3.7270  -12.8533 C   0  0  0  0  0  0  0  0  0  0  0  0
  -12.4208   -3.7373   -9.0000 C   0  0  0  0  0  0  0  0  0  0  0  0
  -13.2611   -4.2144  -10.0731 N   0  0  0  0  0  0  0  0  0  0  0  0
  -14.4954   -3.6837  -10.3195 C   0  0  0  0  0  0  0  0  0  0  0  0
  -14.9924   -2.7822   -9.6343 O   0  0  0  0  0  0  0  0  0  0  0  0
  -12.8721   -4.8956  -10.7204 H   0  0  0  0  0  0  0  0  0  0  0  0
  -17.7721    2.4221  -16.0048 C   0  0  0  0  0  0  0  0  0  0  0  0
  -19.0516    3.1942  -15.7705 C   0  0  0  0  0  0  0  0  0  0  0  0
  -20.2504    2.4998  -15.1895 C   0  0  0  0  0  0  0  0  0  0  0  0
  -20.3449    1.1210  -15.0227 C   0  0  0  0  0  0  0  0  0  0  0  0
  -21.4482    0.5985  -14.3468 C   0  0  0  0  0  0  0  0  0  0  0  0
  -22.4181    1.4578  -13.8473 C   0  0  0  0  0  0  0  0  0  0  0  0
  -22.2518    2.8132  -14.0543 C   0  0  0  0  0  0  0  0  0  0  0  0
  -21.1984    3.3450  -14.7080 N   0  0  0  0  0  0  0  0  0  0  0  0
 18 19  1  0  0  0
 19 20  1  0  0  0
 19 22  1  0  0  0
 20 21  2  0  0  0
 20 12  1  0  0  0
 12 13  1  0  0  0
 12 17  2  0  0  0
 13 14  2  0  0  0
 14 15  1  0  0  0
 15 16  2  0  0  0
 16 17  1  0  0  0
 17 11  1  0  0  0
 11  1  1  0  0  0
  1  2  1  0  0  0
  1  9  2  0  0  0
  2  3  2  0  0  0
  3  4  1  0  0  0
  4  5  1  0  0  0
  4  8  2  0  0  0
  5 23  1  0  0  0
  5  6  2  0  0  0
 23 24  1  0  0  0
 24 25  1  0  0  0
 25 26  1  0  0  0
 25 30  2  0  0  0
 26 27  2  0  0  0
 27 28  1  0  0  0
 28 29  2  0  0  0
 29 30  1  0  0  0
  6  7  1  0  0  0
  7  8  1  0  0  0
  7 10  1  0  0  0
  8  9  1  0  0  0
M  END
> <minimizedAffinity>
-8.58341

$$$$
