CHEMBL272252


 28 31  0  0  0  0  0  0  0  0999 V2000
  -30.2335   -4.6423   -5.2862 C   0  0  0  0  0  0  0  0  0  0  0  0
  -30.3493   -3.5833   -4.3946 C   0  0  0  0  0  0  0  0  0  0  0  0
  -29.7660   -2.3453   -4.6866 C   0  0  0  0  0  0  0  0  0  0  0  0
  -29.1022   -2.0919   -5.9123 C   0  0  0  0  0  0  0  0  0  0  0  0
  -28.5709   -0.8244   -6.3086 C   0  0  0  0  0  0  0  0  0  0  0  0
  -27.9219   -0.6858   -7.5489 C   0  0  0  0  0  0  0  0  0  0  0  0
  -27.7752   -1.7790   -8.3942 C   0  0  0  0  0  0  0  0  0  0  0  0
  -28.3004   -3.0157   -8.0258 C   0  0  0  0  0  0  0  0  0  0  0  0
  -28.9782   -3.1883   -6.8078 C   0  0  0  0  0  0  0  0  0  0  0  0
  -29.5462   -4.4422   -6.4861 C   0  0  0  0  0  0  0  0  0  0  0  0
  -28.7724    0.4109   -5.4835 C   0  0  0  0  0  0  0  0  0  0  0  0
  -29.9554    1.0847   -5.6264 N   0  0  0  0  0  0  0  0  0  0  0  0
  -27.9400    0.8269   -4.6887 O   0  0  0  0  0  0  0  0  0  0  0  0
  -30.6440    0.8856   -6.3355 H   0  0  0  0  0  0  0  0  0  0  0  0
  -30.0618    1.9295   -5.0784 H   0  0  0  0  0  0  0  0  0  0  0  0
  -30.8021   -5.8911   -5.0840 O   0  0  0  0  0  0  0  0  0  0  0  0
  -31.6806  -10.0808   -7.8778 C   0  0  0  0  0  0  0  0  0  0  0  0
  -32.4511   -8.9479   -7.6427 C   0  0  0  0  0  0  0  0  0  0  0  0
  -31.9489   -7.9244   -6.8231 C   0  0  0  0  0  0  0  0  0  0  0  0
  -30.6641   -8.0177   -6.2399 C   0  0  0  0  0  0  0  0  0  0  0  0
  -30.0744   -7.0256   -5.4123 C   0  0  0  0  0  0  0  0  0  0  0  0
  -28.7514   -7.1713   -4.9909 C   0  0  0  0  0  0  0  0  0  0  0  0
  -28.1029   -8.3446   -5.2900 C   0  0  0  0  0  0  0  0  0  0  0  0
  -28.6513   -9.3427   -6.0096 N   0  0  0  0  0  0  0  0  0  0  0  0
  -29.8932   -9.1733   -6.4931 C   0  0  0  0  0  0  0  0  0  0  0  0
  -30.4222  -10.1843   -7.2826 C   0  0  0  0  0  0  0  0  0  0  0  0
  -31.4994  -12.4101   -8.2463 C   0  0  0  0  0  0  0  0  0  0  0  0
  -32.0590  -11.1592   -8.6287 O   0  0  0  0  0  0  0  0  0  0  0  0
 27 28  1  0  0  0
 28 17  1  0  0  0
 17 18  1  0  0  0
 17 26  2  0  0  0
 18 19  2  0  0  0
 19 20  1  0  0  0
 20 21  1  0  0  0
 20 25  2  0  0  0
 21 16  1  0  0  0
 21 22  2  0  0  0
 16  1  1  0  0  0
  1  2  1  0  0  0
  1 10  2  0  0  0
  2  3  2  0  0  0
  3  4  1  0  0  0
  4  5  1  0  0  0
  4  9  2  0  0  0
  5 11  1  0  0  0
  5  6  2  0  0  0
 11 12  1  0  0  0
 11 13  2  0  0  0
 12 14  1  0  0  0
 12 15  1  0  0  0
  6  7  1  0  0  0
  7  8  2  0  0  0
  8  9  1  0  0  0
  9 10  1  0  0  0
 22 23  1  0  0  0
 23 24  2  0  0  0
 24 25  1  0  0  0
 25 26  1  0  0  0
M  END
> <minimizedAffinity>
-8.79747

$$$$
