CHEMBL3893950


 36 39  0  0  0  0  0  0  0  0999 V2000
  -30.7062   -6.4983   -6.6213 N   0  0  0  0  0  0  0  0  0  0  0  0
  -29.7234   -5.5907   -7.3155 C   0  0  0  0  0  0  0  0  0  0  0  0
  -30.2201   -4.3231   -7.2526 C   0  0  0  0  0  0  0  0  0  0  0  0
  -29.6644   -3.3178   -7.7710 C   0  0  0  0  0  0  0  0  0  0  0  0
  -28.5522   -3.4079   -8.4524 C   0  0  0  0  0  0  0  0  0  0  0  0
  -28.4243   -2.2885   -8.9684 N   0  0  0  0  0  0  0  0  0  0  0  0
  -27.5735   -1.9192   -9.7707 C   0  0  0  0  0  0  0  0  0  0  0  0
  -26.4646   -2.5868  -10.1091 C   0  0  0  0  0  0  0  0  0  0  0  0
  -26.5858   -3.9547   -9.6201 N   0  0  0  0  0  0  0  0  0  0  0  0
  -27.7238   -4.4568   -8.7481 C   0  0  0  0  0  0  0  0  0  0  0  0
  -28.3576   -5.7200   -8.0684 C   0  0  0  0  0  0  0  0  0  0  0  0
  -25.6374   -1.3566  -10.9547 C   0  0  0  0  0  0  0  0  0  0  0  0
  -24.1791   -1.5183  -11.1850 C   0  0  0  0  0  0  0  0  0  0  0  0
  -23.6357   -0.5143  -11.8199 N   0  0  0  0  0  0  0  0  0  0  0  0
  -24.5634    0.3536  -12.1162 N   0  0  0  0  0  0  0  0  0  0  0  0
  -24.0874    1.5148  -12.8967 C   0  0  0  0  0  0  0  0  0  0  0  0
  -25.8100   -0.0832  -11.6373 C   0  0  0  0  0  0  0  0  0  0  0  0
  -30.5689   -9.8270   -8.3926 C   0  0  0  0  0  0  0  0  0  0  0  0
  -31.7638  -10.4280   -7.9920 C   0  0  0  0  0  0  0  0  0  0  0  0
  -32.6350   -9.7684   -7.1245 C   0  0  0  0  0  0  0  0  0  0  0  0
  -32.3073   -8.4736   -6.7145 C   0  0  0  0  0  0  0  0  0  0  0  0
  -31.0965   -7.8098   -7.1181 C   0  0  0  0  0  0  0  0  0  0  0  0
  -30.2355   -8.5327   -7.9402 C   0  0  0  0  0  0  0  0  0  0  0  0
  -29.0158   -9.8500  -10.2582 C   0  0  0  0  0  0  0  0  0  0  0  0
  -29.6438  -10.4240   -9.1817 O   0  0  0  0  0  0  0  0  0  0  0  0
  -33.7628  -10.4091   -6.7029 O   0  0  0  0  0  0  0  0  0  0  0  0
  -33.9295  -11.7702   -6.4821 C   0  0  0  0  0  0  0  0  0  0  0  0
  -30.9319   -6.2882   -5.1257 C   0  0  0  0  0  0  0  0  0  0  0  0
  -29.6538   -6.4132   -4.3232 C   0  0  0  0  0  0  0  0  0  0  0  0
  -29.3346   -7.8222   -4.1678 N   0  0  0  0  0  0  0  0  0  0  0  0
  -30.1315   -8.3848   -4.5533 H   0  0  0  0  0  0  0  0  0  0  0  0
  -28.1212   -8.1091   -4.9185 C   0  0  0  0  0  0  0  0  0  0  0  0
  -27.8563   -9.9360   -4.9586 Si  0  0  0  0  0  0  0  0  0  0  0  0
  -29.5204  -10.7662   -4.9606 C   0  0  0  0  0  0  0  0  0  0  0  0
  -26.9116  -10.3572   -6.5093 C   0  0  0  0  0  0  0  0  0  0  0  0
  -26.8801  -10.4331   -3.4504 C   0  0  0  0  0  0  0  0  0  0  0  0
 24 25  1  0  0  0
 25 18  1  0  0  0
 18 19  1  0  0  0
 18 23  2  0  0  0
 19 20  2  0  0  0
 20 26  1  0  0  0
 20 21  1  0  0  0
 26 27  1  0  0  0
 21 22  2  0  0  0
 22  1  1  0  0  0
 22 23  1  0  0  0
  1 28  1  0  0  0
  1  2  1  0  0  0
 28 29  1  0  0  0
 29 30  1  0  0  0
 30 32  1  0  0  0
 30 31  1  0  0  0
 32 33  1  0  0  0
 33 34  1  0  0  0
 33 35  1  0  0  0
 33 36  1  0  0  0
  2  3  1  0  0  0
  2 11  2  0  0  0
  3  4  2  0  0  0
  4  5  1  0  0  0
  5  6  1  0  0  0
  5 10  2  0  0  0
  6  7  2  0  0  0
  7  8  1  0  0  0
  8 12  1  0  0  0
  8  9  2  0  0  0
 12 13  1  0  0  0
 12 17  2  0  0  0
 13 14  2  0  0  0
 14 15  1  0  0  0
 15 16  1  0  0  0
 15 17  1  0  0  0
  9 10  1  0  0  0
 10 11  1  0  0  0
M  END
> <minimizedAffinity>
-4.37422

$$$$
