CHEMBL1087128


 41 45  0  0  0  0  0  0  0  0999 V2000
  -29.4043   -5.1703   -4.0428 C   0  0  0  0  0  0  0  0  0  0  0  0
  -29.0481   -4.4299   -5.3110 C   0  0  0  0  0  0  0  0  0  0  0  0
  -28.7340   -3.0675   -5.2222 C   0  0  0  0  0  0  0  0  0  0  0  0
  -28.3560   -2.3545   -6.3595 C   0  0  0  0  0  0  0  0  0  0  0  0
  -28.1962   -3.0099   -7.5847 C   0  0  0  0  0  0  0  0  0  0  0  0
  -28.4927   -4.3707   -7.6616 C   0  0  0  0  0  0  0  0  0  0  0  0
  -29.0158   -5.0724   -6.5735 C   0  0  0  0  0  0  0  0  0  0  0  0
  -27.8381   -2.2058   -8.7944 C   0  0  0  0  0  0  0  0  0  0  0  0
  -28.1523   -1.0189   -8.7633 O   0  0  0  0  0  0  0  0  0  0  0  0
  -27.2218   -2.8686   -9.8583 N   0  0  0  0  0  0  0  0  0  0  0  0
  -27.0668   -3.8613   -9.7877 H   0  0  0  0  0  0  0  0  0  0  0  0
  -26.8905   -2.2924  -11.1170 C   0  0  0  0  0  0  0  0  0  0  0  0
  -27.7334   -2.3771  -12.2178 C   0  0  0  0  0  0  0  0  0  0  0  0
  -27.3433   -1.8479  -13.4406 C   0  0  0  0  0  0  0  0  0  0  0  0
  -26.0995   -1.2417  -13.5862 C   0  0  0  0  0  0  0  0  0  0  0  0
  -25.2065   -1.1181  -12.5100 C   0  0  0  0  0  0  0  0  0  0  0  0
  -25.6500   -1.6239  -11.2619 C   0  0  0  0  0  0  0  0  0  0  0  0
  -23.8121   -0.4746  -12.6995 C   0  0  0  0  0  0  0  0  0  0  0  0
  -23.2823   -0.5747  -14.1499 C   0  0  0  0  0  0  0  0  0  0  0  0
  -23.8572    1.0166  -12.3089 C   0  0  0  0  0  0  0  0  0  0  0  0
  -22.7338   -1.1575  -11.8393 C   0  0  0  0  0  0  0  0  0  0  0  0
  -29.5119   -6.3812   -6.6804 N   0  0  0  0  0  0  0  0  0  0  0  0
  -30.5247   -6.3974   -6.7488 H   0  0  0  0  0  0  0  0  0  0  0  0
  -29.0179   -7.5347   -7.2064 C   0  0  0  0  0  0  0  0  0  0  0  0
  -29.5382   -7.9606   -8.3416 N   0  0  0  0  0  0  0  0  0  0  0  0
  -30.1990   -9.0915   -7.9483 C   0  0  0  0  0  0  0  0  0  0  0  0
  -31.2440   -9.7640   -8.5831 C   0  0  0  0  0  0  0  0  0  0  0  0
  -31.8495  -10.8276   -7.9090 C   0  0  0  0  0  0  0  0  0  0  0  0
  -31.3791  -11.2538   -6.6633 C   0  0  0  0  0  0  0  0  0  0  0  0
  -30.2891  -10.6358   -6.0435 C   0  0  0  0  0  0  0  0  0  0  0  0
  -29.7484   -9.5271   -6.7019 C   0  0  0  0  0  0  0  0  0  0  0  0
  -28.6883   -8.6633   -6.4631 N   0  0  0  0  0  0  0  0  0  0  0  0
  -27.4786   -9.0091   -5.8130 C   0  0  0  0  0  0  0  0  0  0  0  0
  -26.6655  -10.0056   -6.3288 C   0  0  0  0  0  0  0  0  0  0  0  0
  -25.5185  -10.2734   -5.6224 C   0  0  0  0  0  0  0  0  0  0  0  0
  -24.5438  -11.1275   -6.1109 N   0  0  0  0  0  0  0  0  0  0  0  0
  -25.2308   -9.6507   -4.4818 N   0  0  0  0  0  0  0  0  0  0  0  0
  -26.0806   -8.7165   -4.0494 C   0  0  0  0  0  0  0  0  0  0  0  0
  -27.1953   -8.3521   -4.6685 N   0  0  0  0  0  0  0  0  0  0  0  0
  -24.8792  -12.0493   -6.3570 H   0  0  0  0  0  0  0  0  0  0  0  0
  -23.7697  -11.1629   -5.4499 H   0  0  0  0  0  0  0  0  0  0  0  0
  1  2  1  0  0  0
  2  3  1  0  0  0
  2  7  2  0  0  0
  3  4  2  0  0  0
  4  5  1  0  0  0
  5  8  1  0  0  0
  5  6  2  0  0  0
  8  9  2  0  0  0
  8 10  1  0  0  0
 10 12  1  0  0  0
 10 11  1  0  0  0
 12 13  1  0  0  0
 12 17  2  0  0  0
 13 14  2  0  0  0
 14 15  1  0  0  0
 15 16  2  0  0  0
 16 18  1  0  0  0
 16 17  1  0  0  0
 18 19  1  0  0  0
 18 20  1  0  0  0
 18 21  1  0  0  0
  6  7  1  0  0  0
  7 22  1  0  0  0
 22 24  1  0  0  0
 22 23  1  0  0  0
 24 25  2  0  0  0
 24 32  1  0  0  0
 25 26  1  0  0  0
 26 27  1  0  0  0
 26 31  2  0  0  0
 27 28  2  0  0  0
 28 29  1  0  0  0
 29 30  2  0  0  0
 30 31  1  0  0  0
 31 32  1  0  0  0
 32 33  1  0  0  0
 33 34  1  0  0  0
 33 39  2  0  0  0
 34 35  2  0  0  0
 35 36  1  0  0  0
 35 37  1  0  0  0
 36 40  1  0  0  0
 36 41  1  0  0  0
 37 38  2  0  0  0
 38 39  1  0  0  0
M  END
> <minimizedAffinity>
-10.32285

$$$$
