CHEMBL4780565


 36 40  0  0  0  0  0  0  0  0999 V2000
  -17.0445    0.9906  -15.3968 C   0  0  0  0  0  0  0  0  0  0  0  0
  -18.2121    1.5288  -15.0023 N   0  0  0  0  0  0  0  0  0  0  0  0
  -18.3037    2.8707  -15.0673 C   0  0  0  0  0  0  0  0  0  0  0  0
  -17.3098    3.6459  -15.6287 C   0  0  0  0  0  0  0  0  0  0  0  0
  -16.1982    2.9864  -16.1030 C   0  0  0  0  0  0  0  0  0  0  0  0
  -16.0473    1.6562  -15.9918 N   0  0  0  0  0  0  0  0  0  0  0  0
  -15.9318   -1.9191  -13.6034 N   0  0  0  0  0  0  0  0  0  0  0  0
  -15.9978   -0.5769  -13.9778 C   0  0  0  0  0  0  0  0  0  0  0  0
  -15.4423    0.3427  -13.3844 O   0  0  0  0  0  0  0  0  0  0  0  0
  -16.8489   -0.3624  -15.0537 N   0  0  0  0  0  0  0  0  0  0  0  0
  -16.4136   -2.5804  -14.1948 H   0  0  0  0  0  0  0  0  0  0  0  0
  -17.7397   -0.8086  -14.9075 H   0  0  0  0  0  0  0  0  0  0  0  0
  -13.0801   -2.7822  -13.8173 C   0  0  0  0  0  0  0  0  0  0  0  0
  -13.8964   -2.8580  -12.5549 C   0  0  0  0  0  0  0  0  0  0  0  0
  -13.2545   -3.3863  -11.4098 C   0  0  0  0  0  0  0  0  0  0  0  0
  -13.9300   -3.5112  -10.1991 C   0  0  0  0  0  0  0  0  0  0  0  0
  -13.1385   -4.1844   -8.8292 Cl  0  0  0  0  0  0  0  0  0  0  0  0
  -15.2434   -3.0921  -10.0977 C   0  0  0  0  0  0  0  0  0  0  0  0
  -15.8832   -2.5531  -11.2171 C   0  0  0  0  0  0  0  0  0  0  0  0
  -15.2459   -2.4349  -12.4626 C   0  0  0  0  0  0  0  0  0  0  0  0
  -19.4229    3.5656  -14.5318 N   0  0  0  0  0  0  0  0  0  0  0  0
  -19.2772    3.6970  -13.5326 H   0  0  0  0  0  0  0  0  0  0  0  0
  -20.7865    3.2048  -14.9182 C   0  0  0  0  0  0  0  0  0  0  0  0
  -21.8906    3.3807  -13.9121 C   0  0  0  0  0  0  0  0  0  0  0  0
  -21.4524    2.0012  -14.3000 C   0  0  0  0  0  0  0  0  0  0  0  0
  -14.9263    3.9417  -16.9304 S   0  0  0  0  0  0  0  0  0  0  0  0
  -13.6074    4.0353  -15.7803 C   0  0  0  0  0  0  0  0  0  0  0  0
  -13.1141    5.1737  -15.1811 C   0  0  0  0  0  0  0  0  0  0  0  0
  -12.1204    4.8069  -14.3198 N   0  0  0  0  0  0  0  0  0  0  0  0
  -11.9275    3.4462  -14.3677 C   0  0  0  0  0  0  0  0  0  0  0  0
  -11.0178    2.6516  -13.6598 C   0  0  0  0  0  0  0  0  0  0  0  0
  -11.0273    1.2788  -13.9073 C   0  0  0  0  0  0  0  0  0  0  0  0
  -11.9112    0.7265  -14.8307 C   0  0  0  0  0  0  0  0  0  0  0  0
  -12.8213    1.5369  -15.5268 C   0  0  0  0  0  0  0  0  0  0  0  0
  -12.8420    2.9306  -15.2920 C   0  0  0  0  0  0  0  0  0  0  0  0
  -11.6021    5.4432  -13.7317 H   0  0  0  0  0  0  0  0  0  0  0  0
 13 14  1  0  0  0
 14 15  1  0  0  0
 14 20  2  0  0  0
 15 16  2  0  0  0
 16 17  1  0  0  0
 16 18  1  0  0  0
 18 19  2  0  0  0
 19 20  1  0  0  0
 20  7  1  0  0  0
  7  8  1  0  0  0
  7 11  1  0  0  0
  8  9  2  0  0  0
  8 10  1  0  0  0
 10  1  1  0  0  0
 10 12  1  0  0  0
  1  2  1  0  0  0
  1  6  2  0  0  0
  2  3  2  0  0  0
  3 21  1  0  0  0
  3  4  1  0  0  0
 21 23  1  0  0  0
 21 22  1  0  0  0
 23 24  1  0  0  0
 23 25  1  0  0  0
 24 25  1  0  0  0
  4  5  2  0  0  0
  5 26  1  0  0  0
  5  6  1  0  0  0
 26 27  1  0  0  0
 27 28  2  0  0  0
 27 35  1  0  0  0
 28 29  1  0  0  0
 29 30  1  0  0  0
 29 36  1  0  0  0
 30 31  1  0  0  0
 30 35  2  0  0  0
 31 32  2  0  0  0
 32 33  1  0  0  0
 33 34  2  0  0  0
 34 35  1  0  0  0
M  END
> <minimizedAffinity>
-8.12106

$$$$
