CHEMBL3752786


 31 35  0  0  0  0  0  0  0  0999 V2000
  -27.8539   -2.1854   -8.6126 C   0  0  0  0  0  0  0  0  0  0  0  0
  -28.1728   -3.4969   -8.6660 N   0  0  0  0  0  0  0  0  0  0  0  0
  -28.7719   -4.1510   -7.6165 N   0  0  0  0  0  0  0  0  0  0  0  0
  -29.0258   -3.5104   -6.4576 C   0  0  0  0  0  0  0  0  0  0  0  0
  -28.6663   -2.1530   -6.3005 C   0  0  0  0  0  0  0  0  0  0  0  0
  -28.8047   -1.4361   -5.0787 C   0  0  0  0  0  0  0  0  0  0  0  0
  -28.5995   -0.0608   -4.9824 C   0  0  0  0  0  0  0  0  0  0  0  0
  -28.2292    0.6408   -6.1064 C   0  0  0  0  0  0  0  0  0  0  0  0
  -28.0120   -0.0480   -7.2962 C   0  0  0  0  0  0  0  0  0  0  0  0
  -28.1470   -1.4584   -7.4268 C   0  0  0  0  0  0  0  0  0  0  0  0
  -26.0933   -1.7364  -12.4184 N   0  0  0  0  0  0  0  0  0  0  0  0
  -27.5583   -1.6779  -12.1631 C   0  0  0  0  0  0  0  0  0  0  0  0
  -27.9684   -0.9722  -10.8432 C   0  0  0  0  0  0  0  0  0  0  0  0
  -27.2795   -1.6462   -9.7434 N   0  0  0  0  0  0  0  0  0  0  0  0
  -25.8179   -1.5823   -9.8520 C   0  0  0  0  0  0  0  0  0  0  0  0
  -25.4023   -2.2403  -11.1971 C   0  0  0  0  0  0  0  0  0  0  0  0
  -25.5459   -0.4313  -12.8254 C   0  0  0  0  0  0  0  0  0  0  0  0
  -24.5691   -1.4775  -14.7634 O   0  0  0  0  0  0  0  0  0  0  0  0
  -24.4882   -0.5879  -13.9161 C   0  0  0  0  0  0  0  0  0  0  0  0
  -23.3553    0.3786  -13.9724 C   0  0  0  0  0  0  0  0  0  0  0  0
  -22.1057   -0.1049  -14.3689 C   0  0  0  0  0  0  0  0  0  0  0  0
  -21.0117    0.7619  -14.4607 C   0  0  0  0  0  0  0  0  0  0  0  0
  -21.1642    2.1091  -14.1387 C   0  0  0  0  0  0  0  0  0  0  0  0
  -22.4085    2.5936  -13.7234 C   0  0  0  0  0  0  0  0  0  0  0  0
  -23.5043    1.7305  -13.6391 C   0  0  0  0  0  0  0  0  0  0  0  0
  -29.7514   -4.3468   -5.4613 C   0  0  0  0  0  0  0  0  0  0  0  0
  -29.3049   -5.6450   -5.1477 C   0  0  0  0  0  0  0  0  0  0  0  0
  -29.9608   -6.4390   -4.1987 C   0  0  0  0  0  0  0  0  0  0  0  0
  -31.0760   -5.9475   -3.5270 C   0  0  0  0  0  0  0  0  0  0  0  0
  -31.5659   -4.6870   -3.8432 C   0  0  0  0  0  0  0  0  0  0  0  0
  -30.9332   -3.9175   -4.8250 C   0  0  0  0  0  0  0  0  0  0  0  0
 18 19  2  0  0  0
 19 17  1  0  0  0
 19 20  1  0  0  0
 17 11  1  0  0  0
 11 12  1  0  0  0
 11 16  1  0  0  0
 12 13  1  0  0  0
 13 14  1  0  0  0
 14  1  1  0  0  0
 14 15  1  0  0  0
  1  2  1  0  0  0
  1 10  2  0  0  0
  2  3  2  0  0  0
  3  4  1  0  0  0
  4 26  1  0  0  0
  4  5  2  0  0  0
 26 27  1  0  0  0
 26 31  2  0  0  0
 27 28  2  0  0  0
 28 29  1  0  0  0
 29 30  2  0  0  0
 30 31  1  0  0  0
  5  6  1  0  0  0
  5 10  1  0  0  0
  6  7  2  0  0  0
  7  8  1  0  0  0
  8  9  2  0  0  0
  9 10  1  0  0  0
 15 16  1  0  0  0
 20 21  1  0  0  0
 20 25  2  0  0  0
 21 22  2  0  0  0
 22 23  1  0  0  0
 23 24  2  0  0  0
 24 25  1  0  0  0
M  END
> <minimizedAffinity>
-9.29082

$$$$
