CHEMBL4076112


 34 37  0  0  0  0  0  0  0  0999 V2000
  -13.7261    5.0080  -17.7819 C   0  0  0  0  0  0  0  0  0  0  0  0
  -14.9803    5.3450  -17.2711 C   0  0  0  0  0  0  0  0  0  0  0  0
  -15.8145    4.3795  -16.6907 C   0  0  0  0  0  0  0  0  0  0  0  0
  -15.3857    3.0415  -16.7019 C   0  0  0  0  0  0  0  0  0  0  0  0
  -14.1687    2.6719  -17.2886 C   0  0  0  0  0  0  0  0  0  0  0  0
  -14.0337    1.2693  -17.1457 C   0  0  0  0  0  0  0  0  0  0  0  0
  -15.0965    0.8281  -16.3961 C   0  0  0  0  0  0  0  0  0  0  0  0
  -15.9312    1.8962  -16.1183 N   0  0  0  0  0  0  0  0  0  0  0  0
  -17.0253    1.8309  -15.2354 C   0  0  0  0  0  0  0  0  0  0  0  0
  -16.8480    1.3853  -14.1124 O   0  0  0  0  0  0  0  0  0  0  0  0
  -18.2070    2.1347  -15.8762 N   0  0  0  0  0  0  0  0  0  0  0  0
  -13.3345    3.6674  -17.8450 C   0  0  0  0  0  0  0  0  0  0  0  0
  -18.2590    1.9686  -16.8739 H   0  0  0  0  0  0  0  0  0  0  0  0
  -19.3946    1.9115  -15.2096 C   0  0  0  0  0  0  0  0  0  0  0  0
  -20.0792    0.6856  -15.0620 C   0  0  0  0  0  0  0  0  0  0  0  0
  -21.2224    0.9872  -14.3501 C   0  0  0  0  0  0  0  0  0  0  0  0
  -21.2069    2.3460  -14.2065 N   0  0  0  0  0  0  0  0  0  0  0  0
  -22.2843    3.2136  -13.7812 C   0  0  0  0  0  0  0  0  0  0  0  0
  -20.0334    2.9027  -14.5885 N   0  0  0  0  0  0  0  0  0  0  0  0
  -22.3109    0.1408  -13.8344 C   0  0  0  0  0  0  0  0  0  0  0  0
  -22.1259   -1.1707  -14.1209 F   0  0  0  0  0  0  0  0  0  0  0  0
  -22.4163    0.2376  -12.4846 F   0  0  0  0  0  0  0  0  0  0  0  0
  -23.5142    0.4964  -14.3471 F   0  0  0  0  0  0  0  0  0  0  0  0
  -12.8149    5.9197  -18.2768 O   0  0  0  0  0  0  0  0  0  0  0  0
  -14.2789    8.1404  -20.7705 C   0  0  0  0  0  0  0  0  0  0  0  0
  -13.9967    6.9487  -20.1310 C   0  0  0  0  0  0  0  0  0  0  0  0
  -13.2591    7.0290  -18.9693 C   0  0  0  0  0  0  0  0  0  0  0  0
  -12.9372    8.2026  -18.3950 N   0  0  0  0  0  0  0  0  0  0  0  0
  -13.3159    9.3023  -19.0587 C   0  0  0  0  0  0  0  0  0  0  0  0
  -13.9478    9.3369  -20.2413 N   0  0  0  0  0  0  0  0  0  0  0  0
  -14.9671    8.1264  -22.1204 C   0  0  0  0  0  0  0  0  0  0  0  0
  -17.3512    8.1747  -21.7222 C   0  0  0  0  0  0  0  0  0  0  0  0
  -16.2204    7.3570  -22.1511 N   0  0  0  0  0  0  0  0  0  0  0  0
  -16.3838    7.0544  -23.1109 H   0  0  0  0  0  0  0  0  0  0  0  0
 32 33  1  0  0  0
 33 31  1  0  0  0
 33 34  1  0  0  0
 31 25  1  0  0  0
 25 26  1  0  0  0
 25 30  2  0  0  0
 26 27  2  0  0  0
 27 24  1  0  0  0
 27 28  1  0  0  0
 24  1  1  0  0  0
  1  2  1  0  0  0
  1 12  2  0  0  0
  2  3  2  0  0  0
  3  4  1  0  0  0
  4  5  2  0  0  0
  4  8  1  0  0  0
  5  6  1  0  0  0
  5 12  1  0  0  0
  6  7  2  0  0  0
  7  8  1  0  0  0
  8  9  1  0  0  0
  9 10  2  0  0  0
  9 11  1  0  0  0
 11 14  1  0  0  0
 11 13  1  0  0  0
 14 15  1  0  0  0
 14 19  2  0  0  0
 15 16  2  0  0  0
 16 20  1  0  0  0
 16 17  1  0  0  0
 20 21  1  0  0  0
 20 22  1  0  0  0
 20 23  1  0  0  0
 17 18  1  0  0  0
 17 19  1  0  0  0
 28 29  2  0  0  0
 29 30  1  0  0  0
M  END
> <minimizedAffinity>
-7.71861

$$$$
