CHEMBL45388


 27 30  0  0  0  0  0  0  0  0999 V2000
  -28.7350   -6.4632   -7.1503 C   0  0  0  0  0  0  0  0  0  0  0  0
  -28.3283   -5.6179   -8.0979 N   0  0  0  0  0  0  0  0  0  0  0  0
  -28.6862   -4.3259   -7.9981 C   0  0  0  0  0  0  0  0  0  0  0  0
  -29.4445   -3.8322   -6.9719 C   0  0  0  0  0  0  0  0  0  0  0  0
  -29.7955   -4.7549   -6.0116 C   0  0  0  0  0  0  0  0  0  0  0  0
  -29.4805   -6.0678   -6.1097 N   0  0  0  0  0  0  0  0  0  0  0  0
  -30.4185   -4.2995   -4.8150 N   0  0  0  0  0  0  0  0  0  0  0  0
  -31.4110   -4.9669   -4.1277 C   0  0  0  0  0  0  0  0  0  0  0  0
  -31.6231   -4.2468   -2.9812 C   0  0  0  0  0  0  0  0  0  0  0  0
  -30.8578   -3.1165   -2.9762 N   0  0  0  0  0  0  0  0  0  0  0  0
  -30.1759   -3.1112   -4.1156 C   0  0  0  0  0  0  0  0  0  0  0  0
  -29.3604   -1.9643   -4.5669 C   0  0  0  0  0  0  0  0  0  0  0  0
  -29.9910   -0.8455   -5.1268 C   0  0  0  0  0  0  0  0  0  0  0  0
  -29.2507    0.2751   -5.5203 C   0  0  0  0  0  0  0  0  0  0  0  0
  -27.8681    0.2974   -5.3495 C   0  0  0  0  0  0  0  0  0  0  0  0
  -27.2189   -0.8223   -4.8443 C   0  0  0  0  0  0  0  0  0  0  0  0
  -27.9571   -1.9567   -4.5013 C   0  0  0  0  0  0  0  0  0  0  0  0
  -28.3324   -7.7974   -7.1341 N   0  0  0  0  0  0  0  0  0  0  0  0
  -27.3857   -7.8471   -6.7749 H   0  0  0  0  0  0  0  0  0  0  0  0
  -28.9846  -10.3196  -11.5837 Cl  0  0  0  0  0  0  0  0  0  0  0  0
  -29.1777  -10.1864   -9.8778 C   0  0  0  0  0  0  0  0  0  0  0  0
  -29.7822  -11.2132   -9.1682 C   0  0  0  0  0  0  0  0  0  0  0  0
  -29.9263  -11.0826   -7.7925 C   0  0  0  0  0  0  0  0  0  0  0  0
  -30.6876  -12.3421   -6.8992 Cl  0  0  0  0  0  0  0  0  0  0  0  0
  -29.4574   -9.9434   -7.1269 C   0  0  0  0  0  0  0  0  0  0  0  0
  -28.8168   -8.9127   -7.8316 C   0  0  0  0  0  0  0  0  0  0  0  0
  -28.7119   -9.0468   -9.2224 C   0  0  0  0  0  0  0  0  0  0  0  0
 20 21  1  0  0  0
 21 22  1  0  0  0
 21 27  2  0  0  0
 22 23  2  0  0  0
 23 24  1  0  0  0
 23 25  1  0  0  0
 25 26  2  0  0  0
 26 18  1  0  0  0
 26 27  1  0  0  0
 18  1  1  0  0  0
 18 19  1  0  0  0
  1  2  1  0  0  0
  1  6  2  0  0  0
  2  3  2  0  0  0
  3  4  1  0  0  0
  4  5  2  0  0  0
  5  7  1  0  0  0
  5  6  1  0  0  0
  7  8  1  0  0  0
  7 11  1  0  0  0
  8  9  2  0  0  0
  9 10  1  0  0  0
 10 11  2  0  0  0
 11 12  1  0  0  0
 12 13  1  0  0  0
 12 17  2  0  0  0
 13 14  2  0  0  0
 14 15  1  0  0  0
 15 16  2  0  0  0
 16 17  1  0  0  0
M  END
> <minimizedAffinity>
-8.75110

$$$$
