CHEMBL3958277


 47 50  0  0  0  0  0  0  0  0999 V2000
  -28.1401   -1.7583   -8.4309 C   0  0  0  0  0  0  0  0  0  0  0  0
  -27.7234   -0.5090   -7.9701 C   0  0  0  0  0  0  0  0  0  0  0  0
  -27.5797   -0.3093   -6.6116 C   0  0  0  0  0  0  0  0  0  0  0  0
  -27.7620   -1.2471   -5.6671 N   0  0  0  0  0  0  0  0  0  0  0  0
  -28.1011   -2.4839   -6.1179 C   0  0  0  0  0  0  0  0  0  0  0  0
  -28.3035   -3.6226   -5.2878 C   0  0  0  0  0  0  0  0  0  0  0  0
  -28.6475   -4.7556   -5.9977 C   0  0  0  0  0  0  0  0  0  0  0  0
  -28.7148   -4.4283   -7.6783 S   0  0  0  0  0  0  0  0  0  0  0  0
  -28.2950   -2.7732   -7.4683 C   0  0  0  0  0  0  0  0  0  0  0  0
  -28.9383   -6.0736   -5.4454 C   0  0  0  0  0  0  0  0  0  0  0  0
  -30.0740   -6.4353   -5.1487 O   0  0  0  0  0  0  0  0  0  0  0  0
  -27.8482   -6.9033   -5.2847 N   0  0  0  0  0  0  0  0  0  0  0  0
  -26.9428   -6.5475   -5.5649 H   0  0  0  0  0  0  0  0  0  0  0  0
  -27.9473   -8.2652   -4.8028 C   0  0  0  0  0  0  0  0  0  0  0  0
  -27.9176   -9.2970   -5.9306 C   0  0  0  0  0  0  0  0  0  0  0  0
  -29.3222   -9.7334   -6.3463 C   0  0  0  0  0  0  0  0  0  0  0  0
  -29.3956  -10.1363   -7.7351 N   0  0  0  0  0  0  0  0  0  0  0  0
  -29.4977   -9.2078   -8.7276 C   0  0  0  0  0  0  0  0  0  0  0  0
  -29.4674   -8.0023   -8.5291 O   0  0  0  0  0  0  0  0  0  0  0  0
  -29.4134  -11.1105   -7.9991 H   0  0  0  0  0  0  0  0  0  0  0  0
  -29.6610   -9.8156   -9.9325 O   0  0  0  0  0  0  0  0  0  0  0  0
  -28.4828  -10.3294  -10.6173 C   0  0  0  0  0  0  0  0  0  0  0  0
  -28.2543  -11.8084  -10.2813 C   0  0  0  0  0  0  0  0  0  0  0  0
  -28.7701  -10.2226  -12.1259 C   0  0  0  0  0  0  0  0  0  0  0  0
  -27.2500   -9.4652  -10.3176 C   0  0  0  0  0  0  0  0  0  0  0  0
  -28.3214   -2.0544   -9.7666 O   0  0  0  0  0  0  0  0  0  0  0  0
  -25.2654   -1.5237  -12.5696 C   0  0  0  0  0  0  0  0  0  0  0  0
  -26.6130   -1.4527  -12.9366 C   0  0  0  0  0  0  0  0  0  0  0  0
  -27.6124   -1.6524  -11.9772 C   0  0  0  0  0  0  0  0  0  0  0  0
  -27.2711   -1.9099  -10.6462 C   0  0  0  0  0  0  0  0  0  0  0  0
  -25.9260   -1.9381  -10.2705 C   0  0  0  0  0  0  0  0  0  0  0  0
  -24.9384   -1.7932  -11.2408 C   0  0  0  0  0  0  0  0  0  0  0  0
  -23.6489   -1.8486  -10.8733 F   0  0  0  0  0  0  0  0  0  0  0  0
  -22.4981   -0.0057  -14.3514 N   0  0  0  0  0  0  0  0  0  0  0  0
  -23.4784   -0.1036  -13.3777 C   0  0  0  0  0  0  0  0  0  0  0  0
  -23.6618    0.6819  -12.4577 O   0  0  0  0  0  0  0  0  0  0  0  0
  -24.2207   -1.2758  -13.5002 N   0  0  0  0  0  0  0  0  0  0  0  0
  -22.3756   -0.8071  -14.9543 H   0  0  0  0  0  0  0  0  0  0  0  0
  -23.6568   -2.0891  -13.7107 H   0  0  0  0  0  0  0  0  0  0  0  0
  -17.7927    1.2572  -15.2453 C   0  0  0  0  0  0  0  0  0  0  0  0
  -19.1952    1.6446  -14.8748 C   0  0  0  0  0  0  0  0  0  0  0  0
  -19.4913    2.9795  -14.5826 C   0  0  0  0  0  0  0  0  0  0  0  0
  -20.7920    3.3500  -14.2717 C   0  0  0  0  0  0  0  0  0  0  0  0
  -21.8047    2.3971  -14.2342 C   0  0  0  0  0  0  0  0  0  0  0  0
  -23.0428    2.8632  -14.0569 F   0  0  0  0  0  0  0  0  0  0  0  0
  -21.5353    1.0377  -14.4569 C   0  0  0  0  0  0  0  0  0  0  0  0
  -20.2218    0.6784  -14.8114 C   0  0  0  0  0  0  0  0  0  0  0  0
 40 41  1  0  0  0
 41 42  1  0  0  0
 41 47  2  0  0  0
 42 43  2  0  0  0
 43 44  1  0  0  0
 44 45  1  0  0  0
 44 46  2  0  0  0
 46 34  1  0  0  0
 46 47  1  0  0  0
 34 35  1  0  0  0
 34 38  1  0  0  0
 35 36  2  0  0  0
 35 37  1  0  0  0
 37 27  1  0  0  0
 37 39  1  0  0  0
 27 28  1  0  0  0
 27 32  2  0  0  0
 28 29  2  0  0  0
 29 30  1  0  0  0
 30 26  1  0  0  0
 30 31  2  0  0  0
 26  1  1  0  0  0
  1  2  1  0  0  0
  1  9  2  0  0  0
  2  3  2  0  0  0
  3  4  1  0  0  0
  4  5  2  0  0  0
  5  6  1  0  0  0
  5  9  1  0  0  0
  6  7  2  0  0  0
  7 10  1  0  0  0
  7  8  1  0  0  0
 10 11  2  0  0  0
 10 12  1  0  0  0
 12 14  1  0  0  0
 12 13  1  0  0  0
 14 15  1  0  0  0
 15 16  1  0  0  0
 16 17  1  0  0  0
 17 18  1  0  0  0
 17 20  1  0  0  0
 18 19  2  0  0  0
 18 21  1  0  0  0
 21 22  1  0  0  0
 22 23  1  0  0  0
 22 24  1  0  0  0
 22 25  1  0  0  0
  8  9  1  0  0  0
 31 32  1  0  0  0
 32 33  1  0  0  0
M  END
> <minimizedAffinity>
-10.84052

$$$$
