CHEMBL244100


 41 44  0  0  0  0  0  0  0  0999 V2000
  -25.4136   -1.2506  -12.7194 C   0  0  0  0  0  0  0  0  0  0  0  0
  -26.7799   -1.4804  -12.8666 C   0  0  0  0  0  0  0  0  0  0  0  0
  -27.5929   -1.6498  -11.7433 C   0  0  0  0  0  0  0  0  0  0  0  0
  -27.0706   -1.5869  -10.4455 C   0  0  0  0  0  0  0  0  0  0  0  0
  -25.6939   -1.3666  -10.3014 C   0  0  0  0  0  0  0  0  0  0  0  0
  -24.8738   -1.1834  -11.4278 C   0  0  0  0  0  0  0  0  0  0  0  0
  -27.8661   -1.7041   -9.2797 N   0  0  0  0  0  0  0  0  0  0  0  0
  -27.9289   -2.8154   -8.4612 C   0  0  0  0  0  0  0  0  0  0  0  0
  -27.2542   -3.8339   -8.5946 O   0  0  0  0  0  0  0  0  0  0  0  0
  -28.8734   -2.6904   -7.4504 N   0  0  0  0  0  0  0  0  0  0  0  0
  -28.3927   -0.8900   -8.9872 H   0  0  0  0  0  0  0  0  0  0  0  0
  -29.7438   -2.2636   -7.7533 H   0  0  0  0  0  0  0  0  0  0  0  0
  -29.0318   -3.7791   -6.5485 C   0  0  0  0  0  0  0  0  0  0  0  0
  -29.8348   -4.8781   -6.8827 C   0  0  0  0  0  0  0  0  0  0  0  0
  -30.0756   -5.9020   -5.9531 C   0  0  0  0  0  0  0  0  0  0  0  0
  -29.5080   -5.8009   -4.6713 C   0  0  0  0  0  0  0  0  0  0  0  0
  -28.6926   -4.7133   -4.3412 C   0  0  0  0  0  0  0  0  0  0  0  0
  -28.4418   -3.7242   -5.2864 C   0  0  0  0  0  0  0  0  0  0  0  0
  -27.6854   -2.6676   -4.9506 F   0  0  0  0  0  0  0  0  0  0  0  0
  -30.9340   -7.0899   -6.3179 C   0  0  0  0  0  0  0  0  0  0  0  0
  -32.1316   -7.1248   -5.6690 F   0  0  0  0  0  0  0  0  0  0  0  0
  -31.2352   -7.1134   -7.6464 F   0  0  0  0  0  0  0  0  0  0  0  0
  -30.3274   -8.2797   -6.0531 F   0  0  0  0  0  0  0  0  0  0  0  0
  -24.6103   -1.0258  -13.9448 C   0  0  0  0  0  0  0  0  0  0  0  0
  -24.8188   -1.7330  -14.9370 O   0  0  0  0  0  0  0  0  0  0  0  0
  -19.5042    1.8699  -14.8537 C   0  0  0  0  0  0  0  0  0  0  0  0
  -20.3416    2.6412  -14.2025 N   0  0  0  0  0  0  0  0  0  0  0  0
  -21.5017    1.9133  -14.1141 C   0  0  0  0  0  0  0  0  0  0  0  0
  -22.7594    2.2882  -13.6206 C   0  0  0  0  0  0  0  0  0  0  0  0
  -23.7805    1.3301  -13.5762 C   0  0  0  0  0  0  0  0  0  0  0  0
  -23.5580    0.0218  -14.0280 C   0  0  0  0  0  0  0  0  0  0  0  0
  -22.3048   -0.3625  -14.5446 C   0  0  0  0  0  0  0  0  0  0  0  0
  -21.3185    0.6226  -14.5958 C   0  0  0  0  0  0  0  0  0  0  0  0
  -20.0412    0.6297  -15.0939 N   0  0  0  0  0  0  0  0  0  0  0  0
  -19.5696   -0.1287  -15.5640 H   0  0  0  0  0  0  0  0  0  0  0  0
  -17.2586    1.3179  -15.2904 C   0  0  0  0  0  0  0  0  0  0  0  0
  -17.2558    0.2353  -14.7188 O   0  0  0  0  0  0  0  0  0  0  0  0
  -18.2567    2.2522  -15.2556 N   0  0  0  0  0  0  0  0  0  0  0  0
  -18.2205    2.9242  -16.0110 H   0  0  0  0  0  0  0  0  0  0  0  0
  -16.1808    3.1714  -16.2429 C   0  0  0  0  0  0  0  0  0  0  0  0
  -16.2895    1.7510  -16.1370 O   0  0  0  0  0  0  0  0  0  0  0  0
 40 41  1  0  0  0
 41 36  1  0  0  0
 36 37  2  0  0  0
 36 38  1  0  0  0
 38 26  1  0  0  0
 38 39  1  0  0  0
 26 27  2  0  0  0
 26 34  1  0  0  0
 27 28  1  0  0  0
 28 29  1  0  0  0
 28 33  2  0  0  0
 29 30  2  0  0  0
 30 31  1  0  0  0
 31 24  1  0  0  0
 31 32  2  0  0  0
 24 25  2  0  0  0
 24  1  1  0  0  0
  1  2  1  0  0  0
  1  6  2  0  0  0
  2  3  2  0  0  0
  3  4  1  0  0  0
  4  7  1  0  0  0
  4  5  2  0  0  0
  7  8  1  0  0  0
  7 11  1  0  0  0
  8  9  2  0  0  0
  8 10  1  0  0  0
 10 13  1  0  0  0
 10 12  1  0  0  0
 13 14  1  0  0  0
 13 18  2  0  0  0
 14 15  2  0  0  0
 15 20  1  0  0  0
 15 16  1  0  0  0
 20 21  1  0  0  0
 20 22  1  0  0  0
 20 23  1  0  0  0
 16 17  2  0  0  0
 17 18  1  0  0  0
 18 19  1  0  0  0
  5  6  1  0  0  0
 32 33  1  0  0  0
 33 34  1  0  0  0
 34 35  1  0  0  0
M  END
> <minimizedAffinity>
-10.35922

$$$$
