CHEMBL383434


 32 35  0  0  0  0  0  0  0  0999 V2000
  -24.1989   11.3021  -17.4531 C   0  0  0  0  0  0  0  0  0  0  0  0
  -24.6610   10.0827  -17.2876 N   0  0  0  0  0  0  0  0  0  0  0  0
  -25.1348   10.0092  -15.9924 N   0  0  0  0  0  0  0  0  0  0  0  0
  -24.9529   11.1938  -15.4515 C   0  0  0  0  0  0  0  0  0  0  0  0
  -24.3715   12.0705  -16.3362 O   0  0  0  0  0  0  0  0  0  0  0  0
  -25.2489   11.7144  -14.1119 C   0  0  0  0  0  0  0  0  0  0  0  0
  -24.2123   11.7197  -13.1568 C   0  0  0  0  0  0  0  0  0  0  0  0
  -24.4502   12.1946  -11.8797 C   0  0  0  0  0  0  0  0  0  0  0  0
  -25.6422   12.6584  -11.4778 N   0  0  0  0  0  0  0  0  0  0  0  0
  -26.6337   12.6469  -12.3924 C   0  0  0  0  0  0  0  0  0  0  0  0
  -26.5106   12.2070  -13.7177 C   0  0  0  0  0  0  0  0  0  0  0  0
  -27.7531   12.2804  -14.5863 C   0  0  0  0  0  0  0  0  0  0  0  0
  -28.5020   10.9358  -14.6606 C   0  0  0  0  0  0  0  0  0  0  0  0
  -29.9216   10.8903  -14.1391 C   0  0  0  0  0  0  0  0  0  0  0  0
  -30.3519   10.0873  -13.0810 C   0  0  0  0  0  0  0  0  0  0  0  0
  -31.6838   10.1444  -12.6916 C   0  0  0  0  0  0  0  0  0  0  0  0
  -32.6093   10.9358  -13.2759 N   0  0  0  0  0  0  0  0  0  0  0  0
  -32.1804   11.7022  -14.2993 C   0  0  0  0  0  0  0  0  0  0  0  0
  -30.8731   11.7135  -14.7592 C   0  0  0  0  0  0  0  0  0  0  0  0
  -23.6646   11.8459  -18.5649 N   0  0  0  0  0  0  0  0  0  0  0  0
  -24.3420   12.0749  -19.2840 H   0  0  0  0  0  0  0  0  0  0  0  0
  -19.7163   11.7577  -20.1243 C   0  0  0  0  0  0  0  0  0  0  0  0
  -19.9600   11.2664  -18.8476 C   0  0  0  0  0  0  0  0  0  0  0  0
  -21.2606   11.2769  -18.3206 C   0  0  0  0  0  0  0  0  0  0  0  0
  -22.3412   11.7987  -19.0404 C   0  0  0  0  0  0  0  0  0  0  0  0
  -22.0615   12.3713  -20.2901 C   0  0  0  0  0  0  0  0  0  0  0  0
  -20.7687   12.3471  -20.8255 C   0  0  0  0  0  0  0  0  0  0  0  0
  -18.5285   11.7502  -20.7860 O   0  0  0  0  0  0  0  0  0  0  0  0
  -17.0581   10.5315  -22.1099 F   0  0  0  0  0  0  0  0  0  0  0  0
  -17.8581   10.5207  -21.0229 C   0  0  0  0  0  0  0  0  0  0  0  0
  -18.7630    9.5274  -21.1518 F   0  0  0  0  0  0  0  0  0  0  0  0
  -17.0807   10.2473  -19.9503 F   0  0  0  0  0  0  0  0  0  0  0  0
 29 30  1  0  0  0
 30 31  1  0  0  0
 30 32  1  0  0  0
 30 28  1  0  0  0
 28 22  1  0  0  0
 22 23  1  0  0  0
 22 27  2  0  0  0
 23 24  2  0  0  0
 24 25  1  0  0  0
 25 20  1  0  0  0
 25 26  2  0  0  0
 20  1  1  0  0  0
 20 21  1  0  0  0
  1  2  2  0  0  0
  1  5  1  0  0  0
  2  3  1  0  0  0
  3  4  2  0  0  0
  4  6  1  0  0  0
  4  5  1  0  0  0
  6  7  1  0  0  0
  6 11  2  0  0  0
  7  8  2  0  0  0
  8  9  1  0  0  0
  9 10  2  0  0  0
 10 11  1  0  0  0
 11 12  1  0  0  0
 12 13  1  0  0  0
 13 14  1  0  0  0
 14 15  1  0  0  0
 14 19  2  0  0  0
 15 16  2  0  0  0
 16 17  1  0  0  0
 17 18  2  0  0  0
 18 19  1  0  0  0
 26 27  1  0  0  0
M  END
> <minimizedAffinity>
-6.17305

$$$$
