CHEMBL537435


 32 35  0  0  0  0  0  0  0  0999 V2000
  -30.2277   -6.3436   -5.0818 C   0  0  0  0  0  0  0  0  0  0  0  0
  -29.2288   -7.2860   -4.7821 C   0  0  0  0  0  0  0  0  0  0  0  0
  -29.0930   -8.4481   -5.5414 C   0  0  0  0  0  0  0  0  0  0  0  0
  -29.9434   -8.7066   -6.6329 C   0  0  0  0  0  0  0  0  0  0  0  0
  -30.9837   -7.7900   -6.8886 C   0  0  0  0  0  0  0  0  0  0  0  0
  -31.1265   -6.6254   -6.1200 C   0  0  0  0  0  0  0  0  0  0  0  0
  -29.7271   -9.9237   -7.4882 C   0  0  0  0  0  0  0  0  0  0  0  0
  -30.3530  -11.1723   -7.2049 C   0  0  0  0  0  0  0  0  0  0  0  0
  -31.3310  -11.5434   -6.1261 C   0  0  0  0  0  0  0  0  0  0  0  0
  -29.9347  -12.3155   -8.3585 S   0  0  0  0  0  0  0  0  0  0  0  0
  -28.9751  -11.2913   -9.2436 C   0  0  0  0  0  0  0  0  0  0  0  0
  -28.3221  -11.6486  -10.3704 N   0  0  0  0  0  0  0  0  0  0  0  0
  -27.5479  -10.7334  -11.0016 C   0  0  0  0  0  0  0  0  0  0  0  0
  -27.4054   -9.4889  -10.4763 N   0  0  0  0  0  0  0  0  0  0  0  0
  -28.0280   -9.0938   -9.3304 C   0  0  0  0  0  0  0  0  0  0  0  0
  -27.6855   -7.8071   -8.8365 N   0  0  0  0  0  0  0  0  0  0  0  0
  -28.9037  -10.0164   -8.6715 C   0  0  0  0  0  0  0  0  0  0  0  0
  -27.0945   -7.1929   -9.4022 H   0  0  0  0  0  0  0  0  0  0  0  0
  -27.8367   -7.5450   -7.8567 H   0  0  0  0  0  0  0  0  0  0  0  0
  -29.8312   -2.7684   -4.1999 N   0  0  0  0  0  0  0  0  0  0  0  0
  -29.6490   -3.9735   -4.8280 C   0  0  0  0  0  0  0  0  0  0  0  0
  -28.9418   -4.0505   -5.8185 O   0  0  0  0  0  0  0  0  0  0  0  0
  -30.3111   -5.0910   -4.3900 N   0  0  0  0  0  0  0  0  0  0  0  0
  -30.3989   -2.7734   -3.3383 H   0  0  0  0  0  0  0  0  0  0  0  0
  -31.0155   -4.9852   -3.6427 H   0  0  0  0  0  0  0  0  0  0  0  0
  -30.7943    1.5858   -6.4127 C   0  0  0  0  0  0  0  0  0  0  0  0
  -29.8182    0.6571   -5.7510 C   0  0  0  0  0  0  0  0  0  0  0  0
  -28.4783    1.0343   -5.6119 C   0  0  0  0  0  0  0  0  0  0  0  0
  -27.5717    0.1749   -5.0026 C   0  0  0  0  0  0  0  0  0  0  0  0
  -27.9865   -1.0666   -4.5215 C   0  0  0  0  0  0  0  0  0  0  0  0
  -29.3392   -1.4827   -4.6415 C   0  0  0  0  0  0  0  0  0  0  0  0
  -30.2409   -0.5964   -5.2705 C   0  0  0  0  0  0  0  0  0  0  0  0
 26 27  1  0  0  0
 27 28  1  0  0  0
 27 32  2  0  0  0
 28 29  2  0  0  0
 29 30  1  0  0  0
 30 31  2  0  0  0
 31 20  1  0  0  0
 31 32  1  0  0  0
 20 21  1  0  0  0
 20 24  1  0  0  0
 21 22  2  0  0  0
 21 23  1  0  0  0
 23  1  1  0  0  0
 23 25  1  0  0  0
  1  2  1  0  0  0
  1  6  2  0  0  0
  2  3  2  0  0  0
  3  4  1  0  0  0
  4  7  1  0  0  0
  4  5  2  0  0  0
  7  8  2  0  0  0
  7 17  1  0  0  0
  8  9  1  0  0  0
  8 10  1  0  0  0
 10 11  1  0  0  0
 11 12  1  0  0  0
 11 17  2  0  0  0
 12 13  2  0  0  0
 13 14  1  0  0  0
 14 15  2  0  0  0
 15 16  1  0  0  0
 15 17  1  0  0  0
 16 18  1  0  0  0
 16 19  1  0  0  0
  5  6  1  0  0  0
M  END
> <minimizedAffinity>
-9.09464

$$$$
