CHEMBL497949


 38 42  0  0  0  0  0  0  0  0999 V2000
  -19.4139    2.3200  -14.8954 C   0  0  0  0  0  0  0  0  0  0  0  0
  -18.6772    2.9130  -15.9541 C   0  0  0  0  0  0  0  0  0  0  0  0
  -17.2881    2.7018  -16.0927 C   0  0  0  0  0  0  0  0  0  0  0  0
  -16.6323    1.9335  -15.1493 C   0  0  0  0  0  0  0  0  0  0  0  0
  -17.3955    1.3394  -14.1271 C   0  0  0  0  0  0  0  0  0  0  0  0
  -18.7577    1.5042  -13.9811 C   0  0  0  0  0  0  0  0  0  0  0  0
  -16.5783    0.6684  -13.2246 N   0  0  0  0  0  0  0  0  0  0  0  0
  -15.2421    0.8926  -13.5044 C   0  0  0  0  0  0  0  0  0  0  0  0
  -14.3320    0.7324  -12.7103 O   0  0  0  0  0  0  0  0  0  0  0  0
  -15.2257    1.5688  -14.8659 C   0  0  0  0  0  0  0  0  0  0  0  0
  -14.0645    1.7685  -15.5332 C   0  0  0  0  0  0  0  0  0  0  0  0
  -16.8830    0.2891  -12.3388 H   0  0  0  0  0  0  0  0  0  0  0  0
  -13.9906    2.7049  -16.6724 C   0  0  0  0  0  0  0  0  0  0  0  0
  -14.0694    2.1873  -17.9717 C   0  0  0  0  0  0  0  0  0  0  0  0
  -14.0641    3.0436  -19.0731 C   0  0  0  0  0  0  0  0  0  0  0  0
  -13.9881    4.4198  -18.8847 C   0  0  0  0  0  0  0  0  0  0  0  0
  -13.9149    4.9463  -17.5936 C   0  0  0  0  0  0  0  0  0  0  0  0
  -13.9159    4.0923  -16.4879 C   0  0  0  0  0  0  0  0  0  0  0  0
  -21.6464    1.6074  -14.2363 N   0  0  0  0  0  0  0  0  0  0  0  0
  -20.8484    2.6064  -14.6741 C   0  0  0  0  0  0  0  0  0  0  0  0
  -21.2944    3.7365  -14.8577 O   0  0  0  0  0  0  0  0  0  0  0  0
  -22.5775    1.8593  -13.9714 H   0  0  0  0  0  0  0  0  0  0  0  0
  -21.2626    0.7638  -13.8275 H   0  0  0  0  0  0  0  0  0  0  0  0
  -12.8299    1.1998  -15.2260 N   0  0  0  0  0  0  0  0  0  0  0  0
  -12.0572    1.8214  -15.0615 H   0  0  0  0  0  0  0  0  0  0  0  0
  -12.5543   -0.1845  -15.2695 C   0  0  0  0  0  0  0  0  0  0  0  0
  -13.0634   -0.9919  -16.2946 C   0  0  0  0  0  0  0  0  0  0  0  0
  -13.0796   -2.3820  -16.1830 C   0  0  0  0  0  0  0  0  0  0  0  0
  -12.5553   -3.0070  -15.0499 C   0  0  0  0  0  0  0  0  0  0  0  0
  -11.9304   -2.2084  -14.0763 C   0  0  0  0  0  0  0  0  0  0  0  0
  -11.9261   -0.8098  -14.1894 C   0  0  0  0  0  0  0  0  0  0  0  0
  -12.7730   -4.4905  -14.8151 C   0  0  0  0  0  0  0  0  0  0  0  0
  -14.1870   -4.9177  -14.6916 N   0  0  0  0  0  0  0  0  0  0  0  0
  -14.2622   -6.3406  -14.3273 C   0  0  0  0  0  0  0  0  0  0  0  0
  -15.6715   -6.8054  -13.9598 C   0  0  0  0  0  0  0  0  0  0  0  0
  -16.2638   -5.9393  -12.8608 C   0  0  0  0  0  0  0  0  0  0  0  0
  -16.2761   -4.4912  -13.3213 C   0  0  0  0  0  0  0  0  0  0  0  0
  -14.8806   -4.0238  -13.7444 C   0  0  0  0  0  0  0  0  0  0  0  0
 19 20  1  0  0  0
 19 22  1  0  0  0
 19 23  1  0  0  0
 20 21  2  0  0  0
 20  1  1  0  0  0
  1  2  1  0  0  0
  1  6  2  0  0  0
  2  3  2  0  0  0
  3  4  1  0  0  0
  4  5  2  0  0  0
  4 10  1  0  0  0
  5  6  1  0  0  0
  5  7  1  0  0  0
  7  8  1  0  0  0
  7 12  1  0  0  0
  8  9  2  0  0  0
  8 10  1  0  0  0
 10 11  2  0  0  0
 11 24  1  0  0  0
 11 13  1  0  0  0
 24 26  1  0  0  0
 24 25  1  0  0  0
 26 27  1  0  0  0
 26 31  2  0  0  0
 27 28  2  0  0  0
 28 29  1  0  0  0
 29 32  1  0  0  0
 29 30  2  0  0  0
 32 33  1  0  0  0
 33 34  1  0  0  0
 33 38  1  0  0  0
 34 35  1  0  0  0
 35 36  1  0  0  0
 36 37  1  0  0  0
 37 38  1  0  0  0
 30 31  1  0  0  0
 13 14  1  0  0  0
 13 18  2  0  0  0
 14 15  2  0  0  0
 15 16  1  0  0  0
 16 17  2  0  0  0
 17 18  1  0  0  0
M  END
> <minimizedAffinity>
-8.31575

$$$$
