CHEMBL2401832


 35 38  0  0  0  0  0  0  0  0999 V2000
  -29.4491   -8.0060   -6.0136 C   0  0  0  0  0  0  0  0  0  0  0  0
  -30.4095   -7.8585   -7.0253 C   0  0  0  0  0  0  0  0  0  0  0  0
  -31.0640   -8.9677   -7.5651 N   0  0  0  0  0  0  0  0  0  0  0  0
  -30.7489   -6.6806   -7.5971 N   0  0  0  0  0  0  0  0  0  0  0  0
  -30.1901   -5.5292   -7.1545 C   0  0  0  0  0  0  0  0  0  0  0  0
  -29.2954   -5.5522   -6.0867 C   0  0  0  0  0  0  0  0  0  0  0  0
  -28.5804   -4.5825   -5.3346 C   0  0  0  0  0  0  0  0  0  0  0  0
  -27.8595   -5.2712   -4.3871 C   0  0  0  0  0  0  0  0  0  0  0  0
  -28.0777   -6.6048   -4.5112 O   0  0  0  0  0  0  0  0  0  0  0  0
  -28.9508   -6.7905   -5.5480 C   0  0  0  0  0  0  0  0  0  0  0  0
  -31.4289   -9.5627   -6.8285 H   0  0  0  0  0  0  0  0  0  0  0  0
  -31.7817   -8.6207   -8.1940 H   0  0  0  0  0  0  0  0  0  0  0  0
  -28.5945   -3.1704   -5.4924 C   0  0  0  0  0  0  0  0  0  0  0  0
  -27.9266   -2.5232   -6.4639 C   0  0  0  0  0  0  0  0  0  0  0  0
  -27.9879   -1.0414   -6.6937 C   0  0  0  0  0  0  0  0  0  0  0  0
  -28.9833   -0.4046   -5.8359 N   0  0  0  0  0  0  0  0  0  0  0  0
  -29.5606    0.8172   -6.0887 C   0  0  0  0  0  0  0  0  0  0  0  0
  -29.2395    1.4190   -7.2588 N   0  0  0  0  0  0  0  0  0  0  0  0
  -30.3127    1.4032   -5.3161 O   0  0  0  0  0  0  0  0  0  0  0  0
  -29.0903   -0.9385   -4.4780 C   0  0  0  0  0  0  0  0  0  0  0  0
  -29.4394   -2.4268   -4.4910 C   0  0  0  0  0  0  0  0  0  0  0  0
  -29.1087    0.8624   -8.0862 H   0  0  0  0  0  0  0  0  0  0  0  0
  -29.7770    2.2642   -7.4135 H   0  0  0  0  0  0  0  0  0  0  0  0
  -29.1715   -9.2692   -5.5133 O   0  0  0  0  0  0  0  0  0  0  0  0
  -28.6720  -11.5841   -6.2301 C   0  0  0  0  0  0  0  0  0  0  0  0
  -28.3049  -10.0946   -6.3108 C   0  0  0  0  0  0  0  0  0  0  0  0
  -26.8292   -9.9645   -5.9069 C   0  0  0  0  0  0  0  0  0  0  0  0
  -25.8199  -10.1964   -6.8781 C   0  0  0  0  0  0  0  0  0  0  0  0
  -26.1740  -10.4488   -8.5573 Cl  0  0  0  0  0  0  0  0  0  0  0  0
  -24.4638  -10.2746   -6.5303 C   0  0  0  0  0  0  0  0  0  0  0  0
  -24.0722  -10.1105   -5.2095 C   0  0  0  0  0  0  0  0  0  0  0  0
  -25.0366   -9.8476   -4.2469 C   0  0  0  0  0  0  0  0  0  0  0  0
  -24.6285   -9.6916   -2.9779 F   0  0  0  0  0  0  0  0  0  0  0  0
  -26.4008   -9.7768   -4.5739 C   0  0  0  0  0  0  0  0  0  0  0  0
  -27.4912   -9.5049   -3.2580 Cl  0  0  0  0  0  0  0  0  0  0  0  0
 25 26  1  0  0  0
 26 24  1  0  0  0
 26 27  1  0  0  0
 24  1  1  0  0  0
  1  2  1  0  0  0
  1 10  2  0  0  0
  2  3  1  0  0  0
  2  4  2  0  0  0
  3 11  1  0  0  0
  3 12  1  0  0  0
  4  5  1  0  0  0
  5  6  2  0  0  0
  6  7  1  0  0  0
  6 10  1  0  0  0
  7 13  1  0  0  0
  7  8  2  0  0  0
 13 14  2  0  0  0
 13 21  1  0  0  0
 14 15  1  0  0  0
 15 16  1  0  0  0
 16 17  1  0  0  0
 16 20  1  0  0  0
 17 18  1  0  0  0
 17 19  2  0  0  0
 18 22  1  0  0  0
 18 23  1  0  0  0
 20 21  1  0  0  0
  8  9  1  0  0  0
  9 10  1  0  0  0
 27 28  1  0  0  0
 27 34  2  0  0  0
 28 29  1  0  0  0
 28 30  2  0  0  0
 30 31  1  0  0  0
 31 32  2  0  0  0
 32 33  1  0  0  0
 32 34  1  0  0  0
 34 35  1  0  0  0
M  END
> <minimizedAffinity>
-8.79065

$$$$
