CHEMBL2071203


 32 35  0  0  0  0  0  0  0  0999 V2000
  -28.7848   -6.8487   -7.9885 C   0  0  0  0  0  0  0  0  0  0  0  0
  -29.9435   -7.4778   -7.7731 N   0  0  0  0  0  0  0  0  0  0  0  0
  -30.6653   -7.0397   -6.7350 C   0  0  0  0  0  0  0  0  0  0  0  0
  -30.2801   -5.9892   -5.9263 C   0  0  0  0  0  0  0  0  0  0  0  0
  -29.1350   -5.3008   -6.2943 C   0  0  0  0  0  0  0  0  0  0  0  0
  -28.3924   -5.7327   -7.3264 N   0  0  0  0  0  0  0  0  0  0  0  0
  -31.0817   -5.6798   -4.7122 C   0  0  0  0  0  0  0  0  0  0  0  0
  -32.1880   -6.4780   -4.5904 F   0  0  0  0  0  0  0  0  0  0  0  0
  -30.3846   -5.8737   -3.5569 F   0  0  0  0  0  0  0  0  0  0  0  0
  -31.5589   -4.4077   -4.6658 F   0  0  0  0  0  0  0  0  0  0  0  0
  -27.9216   -7.5476   -8.8466 N   0  0  0  0  0  0  0  0  0  0  0  0
  -27.9110   -7.0200   -9.7132 H   0  0  0  0  0  0  0  0  0  0  0  0
  -28.1414  -12.2376  -10.0846 C   0  0  0  0  0  0  0  0  0  0  0  0
  -27.8153  -10.9860   -9.4490 N   0  0  0  0  0  0  0  0  0  0  0  0
  -28.1086   -9.7284   -9.8902 C   0  0  0  0  0  0  0  0  0  0  0  0
  -27.7304   -8.8841   -8.8812 C   0  0  0  0  0  0  0  0  0  0  0  0
  -27.1935   -9.7251   -7.8976 C   0  0  0  0  0  0  0  0  0  0  0  0
  -27.2211  -11.0139   -8.2411 N   0  0  0  0  0  0  0  0  0  0  0  0
  -28.7082   -4.2384   -5.5171 N   0  0  0  0  0  0  0  0  0  0  0  0
  -27.7623   -4.4263   -5.1624 H   0  0  0  0  0  0  0  0  0  0  0  0
  -28.9217   -2.7912   -5.6420 C   0  0  0  0  0  0  0  0  0  0  0  0
  -27.8349   -1.9229   -6.3162 C   0  0  0  0  0  0  0  0  0  0  0  0
  -28.5442   -0.6711   -6.9014 C   0  0  0  0  0  0  0  0  0  0  0  0
  -28.8917    0.1582   -5.6482 C   0  0  0  0  0  0  0  0  0  0  0  0
  -28.3690   -0.7276   -4.4961 C   0  0  0  0  0  0  0  0  0  0  0  0
  -27.1011   -1.2746   -5.1441 C   0  0  0  0  0  0  0  0  0  0  0  0
  -29.2872   -1.9733   -4.3806 C   0  0  0  0  0  0  0  0  0  0  0  0
  -29.3358   -2.7586   -3.0861 C   0  0  0  0  0  0  0  0  0  0  0  0
  -30.4609   -2.6912   -2.3265 N   0  0  0  0  0  0  0  0  0  0  0  0
  -28.4404   -3.5476   -2.7820 O   0  0  0  0  0  0  0  0  0  0  0  0
  -30.4166   -3.2034   -1.4528 H   0  0  0  0  0  0  0  0  0  0  0  0
  -31.0181   -1.8476   -2.2822 H   0  0  0  0  0  0  0  0  0  0  0  0
 13 14  1  0  0  0
 14 15  1  0  0  0
 14 18  1  0  0  0
 15 16  2  0  0  0
 16 11  1  0  0  0
 16 17  1  0  0  0
 11  1  1  0  0  0
 11 12  1  0  0  0
  1  2  1  0  0  0
  1  6  2  0  0  0
  2  3  2  0  0  0
  3  4  1  0  0  0
  4  7  1  0  0  0
  4  5  2  0  0  0
  7  8  1  0  0  0
  7  9  1  0  0  0
  7 10  1  0  0  0
  5 19  1  0  0  0
  5  6  1  0  0  0
 19 21  1  0  0  0
 19 20  1  0  0  0
 21 22  1  0  0  0
 21 27  1  0  0  0
 22 23  1  0  0  0
 22 26  1  0  0  0
 23 24  1  0  0  0
 24 25  1  0  0  0
 25 26  1  0  0  0
 25 27  1  0  0  0
 27 28  1  0  0  0
 28 29  1  0  0  0
 28 30  2  0  0  0
 29 31  1  0  0  0
 29 32  1  0  0  0
 17 18  2  0  0  0
M  END
> <minimizedAffinity>
-8.44916

$$$$
