CHEMBL3890870


 35 39  0  0  0  0  0  0  0  0999 V2000
  -16.8947    2.0282  -15.1362 N   0  0  0  0  0  0  0  0  0  0  0  0
  -18.3359    1.9276  -15.1896 C   0  0  0  0  0  0  0  0  0  0  0  0
  -18.9729    3.1173  -15.5432 C   0  0  0  0  0  0  0  0  0  0  0  0
  -20.2742    3.3663  -15.1384 C   0  0  0  0  0  0  0  0  0  0  0  0
  -21.0465    2.4005  -14.5488 C   0  0  0  0  0  0  0  0  0  0  0  0
  -22.2084    2.8614  -14.0937 N   0  0  0  0  0  0  0  0  0  0  0  0
  -23.1103    1.9503  -13.7040 C   0  0  0  0  0  0  0  0  0  0  0  0
  -22.8876    0.6000  -13.8583 C   0  0  0  0  0  0  0  0  0  0  0  0
  -21.6202    0.1165  -14.1777 N   0  0  0  0  0  0  0  0  0  0  0  0
  -20.6199    1.0504  -14.4924 C   0  0  0  0  0  0  0  0  0  0  0  0
  -19.1847    0.8636  -14.7609 C   0  0  0  0  0  0  0  0  0  0  0  0
  -24.1005   -0.2115  -13.9895 C   0  0  0  0  0  0  0  0  0  0  0  0
  -24.7223   -0.8945  -15.0589 C   0  0  0  0  0  0  0  0  0  0  0  0
  -25.7502   -1.6624  -14.6637 N   0  0  0  0  0  0  0  0  0  0  0  0
  -25.8025   -1.4642  -13.3345 N   0  0  0  0  0  0  0  0  0  0  0  0
  -26.9315   -1.9221  -12.5553 C   0  0  0  0  0  0  0  0  0  0  0  0
  -24.7506   -0.7281  -12.8739 C   0  0  0  0  0  0  0  0  0  0  0  0
  -14.4667    3.5072  -17.5979 C   0  0  0  0  0  0  0  0  0  0  0  0
  -13.7896    2.3714  -18.0413 C   0  0  0  0  0  0  0  0  0  0  0  0
  -14.1731    1.1154  -17.5766 C   0  0  0  0  0  0  0  0  0  0  0  0
  -15.2381    0.9974  -16.6668 C   0  0  0  0  0  0  0  0  0  0  0  0
  -15.9549    2.1105  -16.2028 C   0  0  0  0  0  0  0  0  0  0  0  0
  -15.5550    3.3674  -16.7045 C   0  0  0  0  0  0  0  0  0  0  0  0
  -14.6843    5.3274  -19.1472 C   0  0  0  0  0  0  0  0  0  0  0  0
  -14.1293    4.7950  -17.9413 O   0  0  0  0  0  0  0  0  0  0  0  0
  -13.5692   -0.0717  -17.9001 O   0  0  0  0  0  0  0  0  0  0  0  0
  -13.7721   -0.5690  -19.2185 C   0  0  0  0  0  0  0  0  0  0  0  0
  -16.4400    1.2649  -13.9052 C   0  0  0  0  0  0  0  0  0  0  0  0
  -15.0189    0.6741  -13.8644 C   0  0  0  0  0  0  0  0  0  0  0  0
  -14.8438   -0.6263  -13.2549 N   0  0  0  0  0  0  0  0  0  0  0  0
  -14.2624   -1.7315  -13.7933 C   0  0  0  0  0  0  0  0  0  0  0  0
  -14.5351   -2.7879  -13.0603 N   0  0  0  0  0  0  0  0  0  0  0  0
  -15.3290   -2.2876  -12.0629 C   0  0  0  0  0  0  0  0  0  0  0  0
  -15.9291   -3.1547  -11.0213 C   0  0  0  0  0  0  0  0  0  0  0  0
  -15.5390   -0.9621  -12.1355 N   0  0  0  0  0  0  0  0  0  0  0  0
 24 25  1  0  0  0
 25 18  1  0  0  0
 18 19  1  0  0  0
 18 23  2  0  0  0
 19 20  2  0  0  0
 20 26  1  0  0  0
 20 21  1  0  0  0
 26 27  1  0  0  0
 21 22  2  0  0  0
 22  1  1  0  0  0
 22 23  1  0  0  0
  1 28  1  0  0  0
  1  2  1  0  0  0
 28 29  1  0  0  0
 29 30  1  0  0  0
 30 31  1  0  0  0
 30 35  1  0  0  0
 31 32  2  0  0  0
 32 33  1  0  0  0
 33 34  1  0  0  0
 33 35  2  0  0  0
  2  3  1  0  0  0
  2 11  2  0  0  0
  3  4  2  0  0  0
  4  5  1  0  0  0
  5  6  1  0  0  0
  5 10  2  0  0  0
  6  7  2  0  0  0
  7  8  1  0  0  0
  8 12  1  0  0  0
  8  9  2  0  0  0
 12 13  1  0  0  0
 12 17  2  0  0  0
 13 14  2  0  0  0
 14 15  1  0  0  0
 15 16  1  0  0  0
 15 17  1  0  0  0
  9 10  1  0  0  0
 10 11  1  0  0  0
M  END
> <minimizedAffinity>
-8.94528

$$$$
