CHEMBL1278148


 23 25  0  0  0  0  0  0  0  0999 V2000
  -12.8289    3.3635  -15.1905 C   0  0  0  0  0  0  0  0  0  0  0  0
  -13.0284    2.4512  -14.1448 C   0  0  0  0  0  0  0  0  0  0  0  0
  -14.1526    1.6489  -14.0619 C   0  0  0  0  0  0  0  0  0  0  0  0
  -14.2729    0.8525  -12.9972 N   0  0  0  0  0  0  0  0  0  0  0  0
  -15.3716    0.0957  -12.9202 C   0  0  0  0  0  0  0  0  0  0  0  0
  -16.3545    0.0605  -13.8153 N   0  0  0  0  0  0  0  0  0  0  0  0
  -16.2275    0.8990  -14.8683 C   0  0  0  0  0  0  0  0  0  0  0  0
  -15.1176    1.7279  -15.0703 C   0  0  0  0  0  0  0  0  0  0  0  0
  -14.9129    2.6095  -16.1615 C   0  0  0  0  0  0  0  0  0  0  0  0
  -13.7576    3.4045  -16.2358 C   0  0  0  0  0  0  0  0  0  0  0  0
  -11.2060    4.5562  -13.9412 C   0  0  0  0  0  0  0  0  0  0  0  0
  -11.7653    4.2302  -15.2148 O   0  0  0  0  0  0  0  0  0  0  0  0
  -13.7168    4.2221  -17.3323 O   0  0  0  0  0  0  0  0  0  0  0  0
  -14.9257    4.8998  -17.6631 C   0  0  0  0  0  0  0  0  0  0  0  0
  -17.2630    0.9424  -15.8063 O   0  0  0  0  0  0  0  0  0  0  0  0
  -18.4297    1.5728  -15.4229 C   0  0  0  0  0  0  0  0  0  0  0  0
  -18.5506    2.9705  -15.4079 C   0  0  0  0  0  0  0  0  0  0  0  0
  -19.7228    3.5659  -14.9469 C   0  0  0  0  0  0  0  0  0  0  0  0
  -20.7890    2.7635  -14.5566 C   0  0  0  0  0  0  0  0  0  0  0  0
  -21.9042    3.3566  -14.1036 F   0  0  0  0  0  0  0  0  0  0  0  0
  -20.6990    1.3735  -14.6327 C   0  0  0  0  0  0  0  0  0  0  0  0
  -22.0382    0.3878  -14.1830 Cl  0  0  0  0  0  0  0  0  0  0  0  0
  -19.5172    0.7705  -15.0701 C   0  0  0  0  0  0  0  0  0  0  0  0
 11 12  1  0  0  0
 12  1  1  0  0  0
  1  2  1  0  0  0
  1 10  2  0  0  0
  2  3  2  0  0  0
  3  4  1  0  0  0
  3  8  1  0  0  0
  4  5  2  0  0  0
  5  6  1  0  0  0
  6  7  2  0  0  0
  7 15  1  0  0  0
  7  8  1  0  0  0
 15 16  1  0  0  0
 16 17  1  0  0  0
 16 23  2  0  0  0
 17 18  2  0  0  0
 18 19  1  0  0  0
 19 20  1  0  0  0
 19 21  2  0  0  0
 21 22  1  0  0  0
 21 23  1  0  0  0
  8  9  2  0  0  0
  9 10  1  0  0  0
 10 13  1  0  0  0
 13 14  1  0  0  0
M  END
> <minimizedAffinity>
-7.33265

$$$$
