CHEMBL3818404


 28 31  0  0  0  0  0  0  0  0999 V2000
  -30.2988   -6.5642   -5.7981 C   0  0  0  0  0  0  0  0  0  0  0  0
  -29.7612   -7.5372   -5.0548 N   0  0  0  0  0  0  0  0  0  0  0  0
  -29.2440   -7.1636   -3.8719 C   0  0  0  0  0  0  0  0  0  0  0  0
  -29.2303   -5.8658   -3.4184 C   0  0  0  0  0  0  0  0  0  0  0  0
  -29.8424   -4.9350   -4.2211 C   0  0  0  0  0  0  0  0  0  0  0  0
  -30.3811   -5.2872   -5.4002 N   0  0  0  0  0  0  0  0  0  0  0  0
  -30.7446   -6.9158   -7.0787 N   0  0  0  0  0  0  0  0  0  0  0  0
  -31.7568   -6.8699   -7.0478 H   0  0  0  0  0  0  0  0  0  0  0  0
  -28.6579  -11.5060  -10.2362 Cl  0  0  0  0  0  0  0  0  0  0  0  0
  -29.2330  -10.1467   -9.3417 C   0  0  0  0  0  0  0  0  0  0  0  0
  -30.5076  -10.2306   -8.7834 C   0  0  0  0  0  0  0  0  0  0  0  0
  -31.0150   -9.1629   -8.0421 C   0  0  0  0  0  0  0  0  0  0  0  0
  -30.2565   -8.0046   -7.8264 C   0  0  0  0  0  0  0  0  0  0  0  0
  -28.9958   -7.9106   -8.4265 C   0  0  0  0  0  0  0  0  0  0  0  0
  -28.4751   -8.9825   -9.1614 C   0  0  0  0  0  0  0  0  0  0  0  0
  -26.8850   -8.8093   -9.8188 Cl  0  0  0  0  0  0  0  0  0  0  0  0
  -29.9310   -3.5931   -3.7823 N   0  0  0  0  0  0  0  0  0  0  0  0
  -29.9722   -3.5208   -2.7738 H   0  0  0  0  0  0  0  0  0  0  0  0
  -29.3288   -2.4898   -4.4304 C   0  0  0  0  0  0  0  0  0  0  0  0
  -27.9302   -2.4191   -4.5383 C   0  0  0  0  0  0  0  0  0  0  0  0
  -27.2730   -1.3316   -5.1195 C   0  0  0  0  0  0  0  0  0  0  0  0
  -28.0776   -0.2975   -5.5910 C   0  0  0  0  0  0  0  0  0  0  0  0
  -27.7632    0.9067   -6.1625 N   0  0  0  0  0  0  0  0  0  0  0  0
  -28.8318    1.6559   -6.4861 N   0  0  0  0  0  0  0  0  0  0  0  0
  -29.8648    0.9012   -6.1001 C   0  0  0  0  0  0  0  0  0  0  0  0
  -29.4657   -0.3297   -5.5302 C   0  0  0  0  0  0  0  0  0  0  0  0
  -30.1097   -1.4476   -4.9585 C   0  0  0  0  0  0  0  0  0  0  0  0
  -26.8381    1.2789   -6.3448 H   0  0  0  0  0  0  0  0  0  0  0  0
  9 10  1  0  0  0
 10 11  1  0  0  0
 10 15  2  0  0  0
 11 12  2  0  0  0
 12 13  1  0  0  0
 13  7  1  0  0  0
 13 14  2  0  0  0
  7  1  1  0  0  0
  7  8  1  0  0  0
  1  2  1  0  0  0
  1  6  2  0  0  0
  2  3  2  0  0  0
  3  4  1  0  0  0
  4  5  2  0  0  0
  5 17  1  0  0  0
  5  6  1  0  0  0
 17 19  1  0  0  0
 17 18  1  0  0  0
 19 20  1  0  0  0
 19 27  2  0  0  0
 20 21  2  0  0  0
 21 22  1  0  0  0
 22 23  1  0  0  0
 22 26  2  0  0  0
 23 24  1  0  0  0
 23 28  1  0  0  0
 24 25  2  0  0  0
 25 26  1  0  0  0
 26 27  1  0  0  0
 14 15  1  0  0  0
 15 16  1  0  0  0
M  END
> <minimizedAffinity>
-8.33386

$$$$
