CHEMBL3951171


 47 51  0  0  0  0  0  0  0  0999 V2000
  -18.8179    2.0083  -15.3196 C   0  0  0  0  0  0  0  0  0  0  0  0
  -19.6134    3.1667  -15.2161 C   0  0  0  0  0  0  0  0  0  0  0  0
  -20.8511    3.2201  -14.7348 C   0  0  0  0  0  0  0  0  0  0  0  0
  -21.4980    2.1292  -14.3487 C   0  0  0  0  0  0  0  0  0  0  0  0
  -22.6595    2.3919  -13.7755 N   0  0  0  0  0  0  0  0  0  0  0  0
  -23.4934    1.4586  -13.3896 C   0  0  0  0  0  0  0  0  0  0  0  0
  -23.2582    0.1255  -13.6653 C   0  0  0  0  0  0  0  0  0  0  0  0
  -21.9320   -0.2234  -14.1775 N   0  0  0  0  0  0  0  0  0  0  0  0
  -21.0078    0.8151  -14.5184 C   0  0  0  0  0  0  0  0  0  0  0  0
  -19.5764    0.7437  -15.0164 C   0  0  0  0  0  0  0  0  0  0  0  0
  -24.5715   -0.6954  -13.4064 C   0  0  0  0  0  0  0  0  0  0  0  0
  -25.2792   -1.6468  -14.1368 C   0  0  0  0  0  0  0  0  0  0  0  0
  -26.4330   -1.9743  -13.4787 N   0  0  0  0  0  0  0  0  0  0  0  0
  -26.5267   -1.2669  -12.3559 N   0  0  0  0  0  0  0  0  0  0  0  0
  -25.4188   -0.5059  -12.2608 C   0  0  0  0  0  0  0  0  0  0  0  0
  -27.7330   -1.2704  -11.4401 C   0  0  0  0  0  0  0  0  0  0  0  0
  -27.2193   -1.6464  -10.0014 C   0  0  0  0  0  0  0  0  0  0  0  0
  -27.8372   -1.5613   -8.5382 C   0  0  0  0  0  0  0  0  0  0  0  0
  -27.5426   -2.6662   -7.5802 N   0  0  0  0  0  0  0  0  0  0  0  0
  -28.1739   -3.9298   -7.9921 C   0  0  0  0  0  0  0  0  0  0  0  0
  -29.7002   -3.9488   -7.6912 C   0  0  0  0  0  0  0  0  0  0  0  0
  -29.9852   -3.7844   -6.2521 N   0  0  0  0  0  0  0  0  0  0  0  0
  -29.3870   -2.5142   -5.7844 C   0  0  0  0  0  0  0  0  0  0  0  0
  -27.8785   -2.3875   -6.1396 C   0  0  0  0  0  0  0  0  0  0  0  0
  -29.6448   -5.0177   -5.4931 C   0  0  0  0  0  0  0  0  0  0  0  0
  -30.8426   -5.9100   -5.1275 C   0  0  0  0  0  0  0  0  0  0  0  0
  -31.4216   -5.6154   -3.7394 C   0  0  0  0  0  0  0  0  0  0  0  0
  -31.7192   -4.2496   -3.6149 O   0  0  0  0  0  0  0  0  0  0  0  0
  -30.8614   -3.7558   -3.7019 H   0  0  0  0  0  0  0  0  0  0  0  0
  -17.3659    2.3102  -15.6272 N   0  0  0  0  0  0  0  0  0  0  0  0
  -14.8566   -0.0592  -14.0127 C   0  0  0  0  0  0  0  0  0  0  0  0
  -14.0229   -0.3365  -15.1155 C   0  0  0  0  0  0  0  0  0  0  0  0
  -14.2387    0.2924  -16.3453 C   0  0  0  0  0  0  0  0  0  0  0  0
  -15.3017    1.2087  -16.4583 C   0  0  0  0  0  0  0  0  0  0  0  0
  -16.1789    1.5084  -15.3836 C   0  0  0  0  0  0  0  0  0  0  0  0
  -15.9328    0.8656  -14.1524 C   0  0  0  0  0  0  0  0  0  0  0  0
  -13.4675    0.0447  -17.4435 O   0  0  0  0  0  0  0  0  0  0  0  0
  -13.0430   -1.1887  -17.8928 C   0  0  0  0  0  0  0  0  0  0  0  0
  -15.5355   -1.5796  -12.2186 C   0  0  0  0  0  0  0  0  0  0  0  0
  -14.6720   -0.6721  -12.8098 O   0  0  0  0  0  0  0  0  0  0  0  0
  -17.1466    3.7128  -16.1343 C   0  0  0  0  0  0  0  0  0  0  0  0
  -15.8422    4.3953  -16.6408 C   0  0  0  0  0  0  0  0  0  0  0  0
  -14.9927    4.9630  -15.5744 N   0  0  0  0  0  0  0  0  0  0  0  0
  -15.2539    4.4838  -14.6751 H   0  0  0  0  0  0  0  0  0  0  0  0
  -13.5586    4.6591  -15.8003 C   0  0  0  0  0  0  0  0  0  0  0  0
  -13.0437    3.6371  -14.7763 C   0  0  0  0  0  0  0  0  0  0  0  0
  -13.3559    4.0927  -17.2133 C   0  0  0  0  0  0  0  0  0  0  0  0
 39 40  1  0  0  0
 40 31  1  0  0  0
 31 32  1  0  0  0
 31 36  2  0  0  0
 32 33  2  0  0  0
 33 37  1  0  0  0
 33 34  1  0  0  0
 37 38  1  0  0  0
 34 35  2  0  0  0
 35 30  1  0  0  0
 35 36  1  0  0  0
 30 41  1  0  0  0
 30  1  1  0  0  0
 41 42  1  0  0  0
 42 43  1  0  0  0
 43 45  1  0  0  0
 43 44  1  0  0  0
 45 46  1  0  0  0
 45 47  1  0  0  0
  1  2  1  0  0  0
  1 10  2  0  0  0
  2  3  2  0  0  0
  3  4  1  0  0  0
  4  5  1  0  0  0
  4  9  2  0  0  0
  5  6  2  0  0  0
  6  7  1  0  0  0
  7 11  1  0  0  0
  7  8  2  0  0  0
 11 12  1  0  0  0
 11 15  2  0  0  0
 12 13  2  0  0  0
 13 14  1  0  0  0
 14 16  1  0  0  0
 14 15  1  0  0  0
 16 17  1  0  0  0
 17 18  1  0  0  0
 18 19  1  0  0  0
 19 20  1  0  0  0
 19 24  1  0  0  0
 20 21  1  0  0  0
 21 22  1  0  0  0
 22 25  1  0  0  0
 22 23  1  0  0  0
 25 26  1  0  0  0
 26 27  1  0  0  0
 27 28  1  0  0  0
 28 29  1  0  0  0
 23 24  1  0  0  0
  8  9  1  0  0  0
  9 10  1  0  0  0
M  END
> <minimizedAffinity>
-9.34151

$$$$
