CHEMBL450163


 43 47  0  0  0  0  0  0  0  0999 V2000
  -27.4280  -11.1019   -3.8652 C   0  0  0  0  0  0  0  0  0  0  0  0
  -26.9362   -9.8173   -3.6197 C   0  0  0  0  0  0  0  0  0  0  0  0
  -27.5293   -8.6799   -4.2070 C   0  0  0  0  0  0  0  0  0  0  0  0
  -28.6312   -8.8425   -5.0750 C   0  0  0  0  0  0  0  0  0  0  0  0
  -29.4776   -7.9969   -5.8731 C   0  0  0  0  0  0  0  0  0  0  0  0
  -30.3786   -8.7280   -6.5283 N   0  0  0  0  0  0  0  0  0  0  0  0
  -30.1143   -9.9944   -6.2049 N   0  0  0  0  0  0  0  0  0  0  0  0
  -30.8697  -11.0513   -6.8338 C   0  0  0  0  0  0  0  0  0  0  0  0
  -29.0816  -10.1412   -5.3189 C   0  0  0  0  0  0  0  0  0  0  0  0
  -28.5016  -11.2853   -4.7442 C   0  0  0  0  0  0  0  0  0  0  0  0
  -29.3894   -6.6110   -5.9921 N   0  0  0  0  0  0  0  0  0  0  0  0
  -28.8541   -5.9781   -7.1055 C   0  0  0  0  0  0  0  0  0  0  0  0
  -28.4453   -6.5167   -8.1312 O   0  0  0  0  0  0  0  0  0  0  0  0
  -29.7468   -6.0795   -5.2167 H   0  0  0  0  0  0  0  0  0  0  0  0
  -28.7523   -4.4844   -7.0791 C   0  0  0  0  0  0  0  0  0  0  0  0
  -29.0354   -3.7022   -5.9524 C   0  0  0  0  0  0  0  0  0  0  0  0
  -28.8287   -2.3086   -5.9792 C   0  0  0  0  0  0  0  0  0  0  0  0
  -28.3301   -1.7042   -7.1479 C   0  0  0  0  0  0  0  0  0  0  0  0
  -28.0175   -2.4688   -8.2792 C   0  0  0  0  0  0  0  0  0  0  0  0
  -28.2444   -3.8564   -8.2314 C   0  0  0  0  0  0  0  0  0  0  0  0
  -29.0923   -1.4513   -4.7607 C   0  0  0  0  0  0  0  0  0  0  0  0
  -27.9644   -0.8961   -4.2391 F   0  0  0  0  0  0  0  0  0  0  0  0
  -29.9333   -0.4161   -5.0294 F   0  0  0  0  0  0  0  0  0  0  0  0
  -29.6688   -2.1538   -3.7482 F   0  0  0  0  0  0  0  0  0  0  0  0
  -27.4119   -1.8429   -9.5152 C   0  0  0  0  0  0  0  0  0  0  0  0
  -26.4080   -0.9645   -9.2355 F   0  0  0  0  0  0  0  0  0  0  0  0
  -26.8718   -2.7674  -10.3547 F   0  0  0  0  0  0  0  0  0  0  0  0
  -28.3219   -1.1478  -10.2494 F   0  0  0  0  0  0  0  0  0  0  0  0
  -26.7612  -12.1562   -3.2584 O   0  0  0  0  0  0  0  0  0  0  0  0
  -22.4923  -11.5095   -5.9878 C   0  0  0  0  0  0  0  0  0  0  0  0
  -22.1773  -11.5266   -4.6191 C   0  0  0  0  0  0  0  0  0  0  0  0
  -23.1359  -11.6803   -3.6301 C   0  0  0  0  0  0  0  0  0  0  0  0
  -22.7080  -11.7718   -2.3621 N   0  0  0  0  0  0  0  0  0  0  0  0
  -23.6247  -11.9523   -1.3920 C   0  0  0  0  0  0  0  0  0  0  0  0
  -24.9775  -12.0589   -1.6263 C   0  0  0  0  0  0  0  0  0  0  0  0
  -25.4188  -12.0055   -2.9488 C   0  0  0  0  0  0  0  0  0  0  0  0
  -24.4903  -11.7647   -3.9948 C   0  0  0  0  0  0  0  0  0  0  0  0
  -24.8231  -11.6212   -5.3636 C   0  0  0  0  0  0  0  0  0  0  0  0
  -23.8390  -11.5036   -6.3647 C   0  0  0  0  0  0  0  0  0  0  0  0
  -21.0002  -10.1791   -7.2641 C   0  0  0  0  0  0  0  0  0  0  0  0
  -21.5033  -11.4790   -6.9364 O   0  0  0  0  0  0  0  0  0  0  0  0
  -24.3838  -11.4189   -7.6170 O   0  0  0  0  0  0  0  0  0  0  0  0
  -25.7202  -10.9674   -7.7769 C   0  0  0  0  0  0  0  0  0  0  0  0
 40 41  1  0  0  0
 41 30  1  0  0  0
 30 31  1  0  0  0
 30 39  2  0  0  0
 31 32  2  0  0  0
 32 33  1  0  0  0
 32 37  1  0  0  0
 33 34  2  0  0  0
 34 35  1  0  0  0
 35 36  2  0  0  0
 36 29  1  0  0  0
 36 37  1  0  0  0
 29  1  1  0  0  0
  1  2  1  0  0  0
  1 10  2  0  0  0
  2  3  2  0  0  0
  3  4  1  0  0  0
  4  5  1  0  0  0
  4  9  2  0  0  0
  5 11  1  0  0  0
  5  6  2  0  0  0
 11 12  1  0  0  0
 11 14  1  0  0  0
 12 13  2  0  0  0
 12 15  1  0  0  0
 15 16  1  0  0  0
 15 20  2  0  0  0
 16 17  2  0  0  0
 17 21  1  0  0  0
 17 18  1  0  0  0
 21 22  1  0  0  0
 21 23  1  0  0  0
 21 24  1  0  0  0
 18 19  2  0  0  0
 19 25  1  0  0  0
 19 20  1  0  0  0
 25 26  1  0  0  0
 25 27  1  0  0  0
 25 28  1  0  0  0
  6  7  1  0  0  0
  7  8  1  0  0  0
  7  9  1  0  0  0
  9 10  1  0  0  0
 37 38  2  0  0  0
 38 39  1  0  0  0
 39 42  1  0  0  0
 42 43  1  0  0  0
M  END
> <minimizedAffinity>
-9.79733

$$$$
