CHEMBL3927794


 33 36  0  0  0  0  0  0  0  0999 V2000
  -28.9165   -8.8306   -5.7959 C   0  0  0  0  0  0  0  0  0  0  0  0
  -30.2002   -8.7516   -6.3399 C   0  0  0  0  0  0  0  0  0  0  0  0
  -30.6167   -7.5853   -6.9548 C   0  0  0  0  0  0  0  0  0  0  0  0
  -29.8849   -6.4301   -6.8953 C   0  0  0  0  0  0  0  0  0  0  0  0
  -30.3125   -5.4613   -7.7142 N   0  0  0  0  0  0  0  0  0  0  0  0
  -29.7811   -4.2438   -7.5349 C   0  0  0  0  0  0  0  0  0  0  0  0
  -28.9487   -3.9544   -6.4696 C   0  0  0  0  0  0  0  0  0  0  0  0
  -28.3673   -4.9857   -5.7530 N   0  0  0  0  0  0  0  0  0  0  0  0
  -28.7862   -6.3083   -6.0151 C   0  0  0  0  0  0  0  0  0  0  0  0
  -28.2646   -7.5874   -5.5359 C   0  0  0  0  0  0  0  0  0  0  0  0
  -29.0487   -2.5654   -5.9604 C   0  0  0  0  0  0  0  0  0  0  0  0
  -29.3987   -1.9832   -4.7054 C   0  0  0  0  0  0  0  0  0  0  0  0
  -29.8691   -2.5961   -3.4391 C   0  0  0  0  0  0  0  0  0  0  0  0
  -29.2202   -0.6566   -4.6909 N   0  0  0  0  0  0  0  0  0  0  0  0
  -28.7796   -0.3639   -5.9177 N   0  0  0  0  0  0  0  0  0  0  0  0
  -28.7136    1.0186   -6.3344 C   0  0  0  0  0  0  0  0  0  0  0  0
  -28.4857   -1.4778   -6.6589 C   0  0  0  0  0  0  0  0  0  0  0  0
  -27.7073   -1.3881   -7.9315 C   0  0  0  0  0  0  0  0  0  0  0  0
  -28.3469  -10.1619   -5.8029 N   0  0  0  0  0  0  0  0  0  0  0  0
  -26.2128  -10.9877   -8.7912 C   0  0  0  0  0  0  0  0  0  0  0  0
  -25.0499  -11.4422   -8.1708 C   0  0  0  0  0  0  0  0  0  0  0  0
  -24.9796  -11.5116   -6.7850 C   0  0  0  0  0  0  0  0  0  0  0  0
  -26.0929  -11.1479   -6.0135 C   0  0  0  0  0  0  0  0  0  0  0  0
  -27.2932  -10.7062   -6.5857 C   0  0  0  0  0  0  0  0  0  0  0  0
  -27.3319  -10.6359   -7.9984 C   0  0  0  0  0  0  0  0  0  0  0  0
  -27.0678   -9.6686  -10.5930 C   0  0  0  0  0  0  0  0  0  0  0  0
  -26.3498  -10.8262  -10.1531 O   0  0  0  0  0  0  0  0  0  0  0  0
  -23.8783  -11.8909   -6.0617 O   0  0  0  0  0  0  0  0  0  0  0  0
  -22.7518  -11.0369   -6.1085 C   0  0  0  0  0  0  0  0  0  0  0  0
  -29.4570  -11.1368   -5.4429 C   0  0  0  0  0  0  0  0  0  0  0  0
  -29.4264  -11.7373   -4.0225 C   0  0  0  0  0  0  0  0  0  0  0  0
  -30.2195  -10.9856   -3.1048 O   0  0  0  0  0  0  0  0  0  0  0  0
  -29.7044  -10.9091   -2.2825 H   0  0  0  0  0  0  0  0  0  0  0  0
 26 27  1  0  0  0
 27 20  1  0  0  0
 20 21  1  0  0  0
 20 25  2  0  0  0
 21 22  2  0  0  0
 22 28  1  0  0  0
 22 23  1  0  0  0
 28 29  1  0  0  0
 23 24  2  0  0  0
 24 19  1  0  0  0
 24 25  1  0  0  0
 19 30  1  0  0  0
 19  1  1  0  0  0
 30 31  1  0  0  0
 31 32  1  0  0  0
 32 33  1  0  0  0
  1  2  1  0  0  0
  1 10  2  0  0  0
  2  3  2  0  0  0
  3  4  1  0  0  0
  4  5  1  0  0  0
  4  9  2  0  0  0
  5  6  2  0  0  0
  6  7  1  0  0  0
  7 11  1  0  0  0
  7  8  2  0  0  0
 11 12  1  0  0  0
 11 17  2  0  0  0
 12 13  1  0  0  0
 12 14  2  0  0  0
 14 15  1  0  0  0
 15 16  1  0  0  0
 15 17  1  0  0  0
 17 18  1  0  0  0
  8  9  1  0  0  0
  9 10  1  0  0  0
M  END
> <minimizedAffinity>
-7.93056

$$$$
