CHEMBL2409776


 35 39  0  0  0  0  0  0  0  0999 V2000
  -27.1845   -9.8892   -7.5270 C   0  0  0  0  0  0  0  0  0  0  0  0
  -28.2218   -9.2772   -6.7833 C   0  0  0  0  0  0  0  0  0  0  0  0
  -29.4591   -8.9591   -7.3433 C   0  0  0  0  0  0  0  0  0  0  0  0
  -29.6387   -9.1718   -8.6996 C   0  0  0  0  0  0  0  0  0  0  0  0
  -28.6538   -9.8067   -9.4560 C   0  0  0  0  0  0  0  0  0  0  0  0
  -27.4293  -10.1928   -8.8824 C   0  0  0  0  0  0  0  0  0  0  0  0
  -26.4752  -10.9614   -9.7579 C   0  0  0  0  0  0  0  0  0  0  0  0
  -25.6595  -11.4016   -6.2599 C   0  0  0  0  0  0  0  0  0  0  0  0
  -26.4599  -12.3219   -6.2236 O   0  0  0  0  0  0  0  0  0  0  0  0
  -25.9281  -10.2036   -6.9272 N   0  0  0  0  0  0  0  0  0  0  0  0
  -25.1524   -9.5855   -7.1123 H   0  0  0  0  0  0  0  0  0  0  0  0
  -21.5543  -11.5240   -3.2538 C   0  0  0  0  0  0  0  0  0  0  0  0
  -22.5228  -11.5958   -4.3734 C   0  0  0  0  0  0  0  0  0  0  0  0
  -23.9324  -11.5111   -4.3329 C   0  0  0  0  0  0  0  0  0  0  0  0
  -24.3523  -11.5462   -5.6531 C   0  0  0  0  0  0  0  0  0  0  0  0
  -23.1932  -11.7475   -6.3787 N   0  0  0  0  0  0  0  0  0  0  0  0
  -22.9990  -11.9198   -7.8025 C   0  0  0  0  0  0  0  0  0  0  0  0
  -22.0773  -11.7480   -5.6204 N   0  0  0  0  0  0  0  0  0  0  0  0
  -30.4144   -8.4359   -6.5089 O   0  0  0  0  0  0  0  0  0  0  0  0
  -30.2227   -7.2190   -5.8618 C   0  0  0  0  0  0  0  0  0  0  0  0
  -29.9727   -7.1741   -4.4211 C   0  0  0  0  0  0  0  0  0  0  0  0
  -29.8696   -6.0090   -3.7516 C   0  0  0  0  0  0  0  0  0  0  0  0
  -29.9104   -4.7804   -4.4690 C   0  0  0  0  0  0  0  0  0  0  0  0
  -29.7833   -3.5205   -4.0998 N   0  0  0  0  0  0  0  0  0  0  0  0
  -29.8980   -2.8389   -5.2822 C   0  0  0  0  0  0  0  0  0  0  0  0
  -30.0600   -3.6066   -6.3561 N   0  0  0  0  0  0  0  0  0  0  0  0
  -30.0682   -4.8545   -5.8550 N   0  0  0  0  0  0  0  0  0  0  0  0
  -30.2159   -6.0609   -6.5414 C   0  0  0  0  0  0  0  0  0  0  0  0
  -29.8265   -1.4696   -5.2708 N   0  0  0  0  0  0  0  0  0  0  0  0
  -28.6531   -0.7822   -5.0527 C   0  0  0  0  0  0  0  0  0  0  0  0
  -27.5458   -1.2556   -4.8365 O   0  0  0  0  0  0  0  0  0  0  0  0
  -30.6684   -0.9937   -5.5531 H   0  0  0  0  0  0  0  0  0  0  0  0
  -28.7868    0.7030   -5.1986 C   0  0  0  0  0  0  0  0  0  0  0  0
  -30.1272    1.2550   -5.6314 C   0  0  0  0  0  0  0  0  0  0  0  0
  -28.9527    1.3603   -6.5562 C   0  0  0  0  0  0  0  0  0  0  0  0
 12 13  1  0  0  0
 13 14  1  0  0  0
 13 18  2  0  0  0
 14 15  2  0  0  0
 15  8  1  0  0  0
 15 16  1  0  0  0
  8  9  2  0  0  0
  8 10  1  0  0  0
 10  1  1  0  0  0
 10 11  1  0  0  0
  1  2  1  0  0  0
  1  6  2  0  0  0
  2  3  2  0  0  0
  3 19  1  0  0  0
  3  4  1  0  0  0
 19 20  1  0  0  0
 20 21  1  0  0  0
 20 28  2  0  0  0
 21 22  2  0  0  0
 22 23  1  0  0  0
 23 24  2  0  0  0
 23 27  1  0  0  0
 24 25  1  0  0  0
 25 29  1  0  0  0
 25 26  2  0  0  0
 29 30  1  0  0  0
 29 32  1  0  0  0
 30 31  2  0  0  0
 30 33  1  0  0  0
 33 34  1  0  0  0
 33 35  1  0  0  0
 34 35  1  0  0  0
 26 27  1  0  0  0
 27 28  1  0  0  0
  4  5  2  0  0  0
  5  6  1  0  0  0
  6  7  1  0  0  0
 16 17  1  0  0  0
 16 18  1  0  0  0
M  END
> <minimizedAffinity>
-9.10350

$$$$
