CHEMBL398436


 24 27  0  0  0  0  0  0  0  0999 V2000
  -29.6792   -7.8852   -7.5198 C   0  0  0  0  0  0  0  0  0  0  0  0
  -30.4429   -8.8594   -8.0377 C   0  0  0  0  0  0  0  0  0  0  0  0
  -31.9112   -9.0815   -7.9140 C   0  0  0  0  0  0  0  0  0  0  0  0
  -32.7958   -8.2812   -7.6761 O   0  0  0  0  0  0  0  0  0  0  0  0
  -32.0563  -10.4090   -8.2277 N   0  0  0  0  0  0  0  0  0  0  0  0
  -30.9348  -11.0057   -8.7593 N   0  0  0  0  0  0  0  0  0  0  0  0
  -29.9826  -10.1037   -8.7148 C   0  0  0  0  0  0  0  0  0  0  0  0
  -32.9574  -10.8729   -8.2825 H   0  0  0  0  0  0  0  0  0  0  0  0
  -31.6329   -5.5298   -3.6270 C   0  0  0  0  0  0  0  0  0  0  0  0
  -30.8890   -5.7662   -4.8457 N   0  0  0  0  0  0  0  0  0  0  0  0
  -30.7390   -6.9935   -5.4331 C   0  0  0  0  0  0  0  0  0  0  0  0
  -30.0798   -6.8266   -6.6314 C   0  0  0  0  0  0  0  0  0  0  0  0
  -29.7414   -5.4353   -6.7292 C   0  0  0  0  0  0  0  0  0  0  0  0
  -29.0561   -4.6454   -7.6810 C   0  0  0  0  0  0  0  0  0  0  0  0
  -28.8344   -3.2887   -7.4126 C   0  0  0  0  0  0  0  0  0  0  0  0
  -27.8983   -2.2351   -8.6766 Br  0  0  0  0  0  0  0  0  0  0  0  0
  -29.2784   -2.7016   -6.2330 C   0  0  0  0  0  0  0  0  0  0  0  0
  -29.9906   -3.4492   -5.2954 C   0  0  0  0  0  0  0  0  0  0  0  0
  -30.2163   -4.8066   -5.5697 C   0  0  0  0  0  0  0  0  0  0  0  0
  -28.7116  -10.3276   -9.3258 C   0  0  0  0  0  0  0  0  0  0  0  0
  -27.4545  -10.5453   -8.7946 C   0  0  0  0  0  0  0  0  0  0  0  0
  -26.4237  -10.6362   -9.7169 N   0  0  0  0  0  0  0  0  0  0  0  0
  -26.8642  -10.4883  -10.9543 N   0  0  0  0  0  0  0  0  0  0  0  0
  -28.5149  -10.2284  -11.0302 S   0  0  0  0  0  0  0  0  0  0  0  0
  9 10  1  0  0  0
 10 11  1  0  0  0
 10 19  1  0  0  0
 11 12  2  0  0  0
 12  1  1  0  0  0
 12 13  1  0  0  0
  1  2  2  0  0  0
  2  3  1  0  0  0
  2  7  1  0  0  0
  3  4  2  0  0  0
  3  5  1  0  0  0
  5  6  1  0  0  0
  5  8  1  0  0  0
  6  7  2  0  0  0
  7 20  1  0  0  0
 20 21  2  0  0  0
 20 24  1  0  0  0
 21 22  1  0  0  0
 22 23  2  0  0  0
 23 24  1  0  0  0
 13 14  1  0  0  0
 13 19  2  0  0  0
 14 15  2  0  0  0
 15 16  1  0  0  0
 15 17  1  0  0  0
 17 18  2  0  0  0
 18 19  1  0  0  0
M  END
> <minimizedAffinity>
-8.54844

$$$$
