CHEMBL92238


 21 24  0  0  0  0  0  0  0  0999 V2000
  -29.8271   -2.9378   -4.6631 C   0  0  0  0  0  0  0  0  0  0  0  0
  -30.5171   -3.4853   -3.5595 C   0  0  0  0  0  0  0  0  0  0  0  0
  -30.8599   -4.7614   -3.7307 N   0  0  0  0  0  0  0  0  0  0  0  0
  -30.3998   -5.0632   -4.9685 N   0  0  0  0  0  0  0  0  0  0  0  0
  -30.5446   -6.2723   -5.6348 C   0  0  0  0  0  0  0  0  0  0  0  0
  -30.0584   -6.4421   -6.8772 C   0  0  0  0  0  0  0  0  0  0  0  0
  -29.3421   -5.2421   -7.4159 C   0  0  0  0  0  0  0  0  0  0  0  0
  -29.1986   -4.0926   -6.8220 N   0  0  0  0  0  0  0  0  0  0  0  0
  -29.7433   -3.9837   -5.5675 C   0  0  0  0  0  0  0  0  0  0  0  0
  -28.4332    1.0270   -5.3916 C   0  0  0  0  0  0  0  0  0  0  0  0
  -27.5533    0.0622   -4.9074 C   0  0  0  0  0  0  0  0  0  0  0  0
  -28.0079   -1.2333   -4.6477 C   0  0  0  0  0  0  0  0  0  0  0  0
  -29.3451   -1.5819   -4.8784 C   0  0  0  0  0  0  0  0  0  0  0  0
  -30.2253   -0.5941   -5.3448 C   0  0  0  0  0  0  0  0  0  0  0  0
  -29.7706    0.7016   -5.6035 C   0  0  0  0  0  0  0  0  0  0  0  0
  -30.1681   -7.6872   -7.6427 C   0  0  0  0  0  0  0  0  0  0  0  0
  -31.3055   -8.4911   -7.5834 C   0  0  0  0  0  0  0  0  0  0  0  0
  -31.3388   -9.6733   -8.3189 C   0  0  0  0  0  0  0  0  0  0  0  0
  -30.2448  -10.0180   -9.1003 C   0  0  0  0  0  0  0  0  0  0  0  0
  -29.1614   -9.1574   -9.1192 C   0  0  0  0  0  0  0  0  0  0  0  0
  -29.1032   -8.0036   -8.4158 N   0  0  0  0  0  0  0  0  0  0  0  0
 10 11  1  0  0  0
 10 15  2  0  0  0
 11 12  2  0  0  0
 12 13  1  0  0  0
 13  1  1  0  0  0
 13 14  2  0  0  0
  1  2  1  0  0  0
  1  9  2  0  0  0
  2  3  2  0  0  0
  3  4  1  0  0  0
  4  5  1  0  0  0
  4  9  1  0  0  0
  5  6  2  0  0  0
  6 16  1  0  0  0
  6  7  1  0  0  0
 16 17  1  0  0  0
 16 21  2  0  0  0
 17 18  2  0  0  0
 18 19  1  0  0  0
 19 20  2  0  0  0
 20 21  1  0  0  0
  7  8  2  0  0  0
  8  9  1  0  0  0
 14 15  1  0  0  0
M  END
> <minimizedAffinity>
-8.58449

$$$$
