CHEMBL3908272


 29 32  0  0  0  0  0  0  0  0999 V2000
  -27.1295   10.9556  -15.4150 C   0  0  0  0  0  0  0  0  0  0  0  0
  -28.0984   10.2935  -16.1566 C   0  0  0  0  0  0  0  0  0  0  0  0
  -29.4489   10.5142  -15.8840 C   0  0  0  0  0  0  0  0  0  0  0  0
  -29.8677   11.4144  -14.8948 C   0  0  0  0  0  0  0  0  0  0  0  0
  -28.8697   12.0394  -14.1280 C   0  0  0  0  0  0  0  0  0  0  0  0
  -27.5074   11.8187  -14.3850 C   0  0  0  0  0  0  0  0  0  0  0  0
  -25.3642    9.4688  -16.6205 O   0  0  0  0  0  0  0  0  0  0  0  0
  -25.4173   10.6174  -15.7431 S   0  0  0  0  0  0  0  0  0  0  0  0
  -24.7416   10.6049  -14.4582 O   0  0  0  0  0  0  0  0  0  0  0  0
  -24.8858   12.0202  -16.4976 N   0  0  0  0  0  0  0  0  0  0  0  0
  -24.6443   12.6904  -15.7743 H   0  0  0  0  0  0  0  0  0  0  0  0
  -23.7936   11.8136  -17.3384 C   0  0  0  0  0  0  0  0  0  0  0  0
  -23.9788   11.9901  -18.6495 N   0  0  0  0  0  0  0  0  0  0  0  0
  -22.9110   11.7149  -19.4203 C   0  0  0  0  0  0  0  0  0  0  0  0
  -21.7109   11.2655  -18.9179 C   0  0  0  0  0  0  0  0  0  0  0  0
  -21.6515   11.1252  -17.5497 C   0  0  0  0  0  0  0  0  0  0  0  0
  -22.6769   11.4125  -16.7262 N   0  0  0  0  0  0  0  0  0  0  0  0
  -31.2240   11.5864  -14.5354 N   0  0  0  0  0  0  0  0  0  0  0  0
  -31.8272   11.7215  -15.3401 H   0  0  0  0  0  0  0  0  0  0  0  0
  -31.9372   11.0356  -13.4406 C   0  0  0  0  0  0  0  0  0  0  0  0
  -31.4165   11.1063  -12.1929 N   0  0  0  0  0  0  0  0  0  0  0  0
  -32.1271   10.7538  -11.0892 N   0  0  0  0  0  0  0  0  0  0  0  0
  -33.3723   10.2856  -11.2484 C   0  0  0  0  0  0  0  0  0  0  0  0
  -33.9546   10.1011  -12.4916 C   0  0  0  0  0  0  0  0  0  0  0  0
  -35.2366    9.5405  -12.6101 C   0  0  0  0  0  0  0  0  0  0  0  0
  -35.8208    9.3644  -13.8620 C   0  0  0  0  0  0  0  0  0  0  0  0
  -35.1429    9.7753  -15.0035 C   0  0  0  0  0  0  0  0  0  0  0  0
  -33.8695   10.3431  -14.8963 C   0  0  0  0  0  0  0  0  0  0  0  0
  -33.2321   10.4961  -13.6389 C   0  0  0  0  0  0  0  0  0  0  0  0
  7  8  2  0  0  0
  8  9  2  0  0  0
  8 10  1  0  0  0
  8  1  1  0  0  0
 10 12  1  0  0  0
 10 11  1  0  0  0
 12 13  1  0  0  0
 12 17  2  0  0  0
 13 14  2  0  0  0
 14 15  1  0  0  0
 15 16  2  0  0  0
 16 17  1  0  0  0
  1  2  1  0  0  0
  1  6  2  0  0  0
  2  3  2  0  0  0
  3  4  1  0  0  0
  4 18  1  0  0  0
  4  5  2  0  0  0
 18 20  1  0  0  0
 18 19  1  0  0  0
 20 21  1  0  0  0
 20 29  2  0  0  0
 21 22  2  0  0  0
 22 23  1  0  0  0
 23 24  2  0  0  0
 24 25  1  0  0  0
 24 29  1  0  0  0
 25 26  2  0  0  0
 26 27  1  0  0  0
 27 28  2  0  0  0
 28 29  1  0  0  0
  5  6  1  0  0  0
M  END
> <minimizedAffinity>
-7.08097

$$$$
