CHEMBL1242752


 26 28  0  0  0  0  0  0  0  0999 V2000
  -29.1994   -8.2236   -7.9111 C   0  0  0  0  0  0  0  0  0  0  0  0
  -28.1419   -8.6056   -8.6514 N   0  0  0  0  0  0  0  0  0  0  0  0
  -28.4935   -9.8185   -9.1420 N   0  0  0  0  0  0  0  0  0  0  0  0
  -29.7480  -10.2089   -8.7644 C   0  0  0  0  0  0  0  0  0  0  0  0
  -30.3709  -11.3549   -9.0983 N   0  0  0  0  0  0  0  0  0  0  0  0
  -31.6012  -11.4138   -8.5670 C   0  0  0  0  0  0  0  0  0  0  0  0
  -32.2243  -10.4920   -7.8119 N   0  0  0  0  0  0  0  0  0  0  0  0
  -31.5672   -9.3526   -7.5088 C   0  0  0  0  0  0  0  0  0  0  0  0
  -32.2780   -8.4250   -6.7608 N   0  0  0  0  0  0  0  0  0  0  0  0
  -30.2567   -9.1865   -7.9802 C   0  0  0  0  0  0  0  0  0  0  0  0
  -33.2624   -8.6725   -6.7297 H   0  0  0  0  0  0  0  0  0  0  0  0
  -32.0807   -7.4587   -6.9774 H   0  0  0  0  0  0  0  0  0  0  0  0
  -29.4139   -5.6947   -5.1010 C   0  0  0  0  0  0  0  0  0  0  0  0
  -29.4700   -6.8961   -5.8274 C   0  0  0  0  0  0  0  0  0  0  0  0
  -29.1713   -6.9423   -7.1979 C   0  0  0  0  0  0  0  0  0  0  0  0
  -28.8570   -5.7527   -7.8527 C   0  0  0  0  0  0  0  0  0  0  0  0
  -28.7400   -4.5648   -7.1345 C   0  0  0  0  0  0  0  0  0  0  0  0
  -28.9930   -4.5263   -5.7582 C   0  0  0  0  0  0  0  0  0  0  0  0
  -28.8538   -3.2715   -5.2256 O   0  0  0  0  0  0  0  0  0  0  0  0
  -29.7926   -2.2891   -5.6424 C   0  0  0  0  0  0  0  0  0  0  0  0
  -29.7687   -5.6055   -3.7793 O   0  0  0  0  0  0  0  0  0  0  0  0
  -31.8987   -4.5854   -3.3935 C   0  0  0  0  0  0  0  0  0  0  0  0
  -31.1288   -5.8915   -3.4485 C   0  0  0  0  0  0  0  0  0  0  0  0
  -27.5650  -10.5581   -9.9902 C   0  0  0  0  0  0  0  0  0  0  0  0
  -27.1620   -9.7523  -11.2258 C   0  0  0  0  0  0  0  0  0  0  0  0
  -26.3303  -11.0103   -9.2088 C   0  0  0  0  0  0  0  0  0  0  0  0
 22 23  1  0  0  0
 23 21  1  0  0  0
 21 13  1  0  0  0
 13 14  1  0  0  0
 13 18  2  0  0  0
 14 15  2  0  0  0
 15  1  1  0  0  0
 15 16  1  0  0  0
  1  2  2  0  0  0
  1 10  1  0  0  0
  2  3  1  0  0  0
  3 24  1  0  0  0
  3  4  1  0  0  0
 24 25  1  0  0  0
 24 26  1  0  0  0
  4  5  1  0  0  0
  4 10  2  0  0  0
  5  6  2  0  0  0
  6  7  1  0  0  0
  7  8  2  0  0  0
  8  9  1  0  0  0
  8 10  1  0  0  0
  9 11  1  0  0  0
  9 12  1  0  0  0
 16 17  2  0  0  0
 17 18  1  0  0  0
 18 19  1  0  0  0
 19 20  1  0  0  0
M  END
> <minimizedAffinity>
-7.29642

$$$$
