CHEMBL4784431


 42 47  0  0  0  0  0  0  0  0999 V2000
  -18.4444    1.0566  -15.2194 C   0  0  0  0  0  0  0  0  0  0  0  0
  -18.1840    2.3273  -15.7352 C   0  0  0  0  0  0  0  0  0  0  0  0
  -16.8666    2.7789  -15.8593 C   0  0  0  0  0  0  0  0  0  0  0  0
  -15.7930    1.9996  -15.4099 C   0  0  0  0  0  0  0  0  0  0  0  0
  -16.0830    0.7581  -14.8251 C   0  0  0  0  0  0  0  0  0  0  0  0
  -17.3967    0.2865  -14.7253 C   0  0  0  0  0  0  0  0  0  0  0  0
  -14.4825    2.4953  -15.5385 N   0  0  0  0  0  0  0  0  0  0  0  0
  -14.3087    3.0485  -16.3786 H   0  0  0  0  0  0  0  0  0  0  0  0
  -13.4991    2.6965  -14.5519 C   0  0  0  0  0  0  0  0  0  0  0  0
  -13.2773    1.7103  -13.6467 N   0  0  0  0  0  0  0  0  0  0  0  0
  -12.3076    1.8568  -12.7269 C   0  0  0  0  0  0  0  0  0  0  0  0
  -11.5114    2.9769  -12.6315 C   0  0  0  0  0  0  0  0  0  0  0  0
  -11.7296    4.0124  -13.5339 C   0  0  0  0  0  0  0  0  0  0  0  0
  -10.9143    5.1528  -13.5062 N   0  0  0  0  0  0  0  0  0  0  0  0
  -11.1183    6.1830  -14.3880 C   0  0  0  0  0  0  0  0  0  0  0  0
  -12.0368    6.1855  -15.3613 C   0  0  0  0  0  0  0  0  0  0  0  0
  -12.9427    4.9932  -15.4652 C   0  0  0  0  0  0  0  0  0  0  0  0
  -13.8655    4.9668  -16.2770 O   0  0  0  0  0  0  0  0  0  0  0  0
  -12.7235    3.8648  -14.5201 C   0  0  0  0  0  0  0  0  0  0  0  0
  -10.3338    5.3221  -12.6926 H   0  0  0  0  0  0  0  0  0  0  0  0
  -12.2043    7.3388  -16.2533 C   0  0  0  0  0  0  0  0  0  0  0  0
  -12.2297    8.6441  -15.7414 C   0  0  0  0  0  0  0  0  0  0  0  0
  -12.3168    9.7357  -16.6097 C   0  0  0  0  0  0  0  0  0  0  0  0
  -12.3852    9.5180  -17.9813 C   0  0  0  0  0  0  0  0  0  0  0  0
  -12.4425   10.5656  -18.8140 F   0  0  0  0  0  0  0  0  0  0  0  0
  -12.3855    8.2297  -18.5029 C   0  0  0  0  0  0  0  0  0  0  0  0
  -12.2980    7.1372  -17.6383 C   0  0  0  0  0  0  0  0  0  0  0  0
  -19.7136    0.5212  -15.1502 O   0  0  0  0  0  0  0  0  0  0  0  0
  -23.8999    0.2937  -12.2843 C   0  0  0  0  0  0  0  0  0  0  0  0
  -23.7110    1.5984  -12.7711 C   0  0  0  0  0  0  0  0  0  0  0  0
  -22.6852    1.9330  -13.6342 C   0  0  0  0  0  0  0  0  0  0  0  0
  -22.6678    3.1741  -14.1325 N   0  0  0  0  0  0  0  0  0  0  0  0
  -21.7119    3.4524  -15.0214 C   0  0  0  0  0  0  0  0  0  0  0  0
  -20.7548    2.6196  -15.4152 N   0  0  0  0  0  0  0  0  0  0  0  0
  -20.7509    1.3993  -14.8372 C   0  0  0  0  0  0  0  0  0  0  0  0
  -21.7396    0.9608  -13.9548 C   0  0  0  0  0  0  0  0  0  0  0  0
  -21.8565   -0.3356  -13.3990 C   0  0  0  0  0  0  0  0  0  0  0  0
  -22.9499   -0.6879  -12.5934 C   0  0  0  0  0  0  0  0  0  0  0  0
  -26.0657   -0.6568  -12.1866 C   0  0  0  0  0  0  0  0  0  0  0  0
  -24.9843   -0.0162  -11.5028 O   0  0  0  0  0  0  0  0  0  0  0  0
  -22.9201   -2.0072  -12.2376 O   0  0  0  0  0  0  0  0  0  0  0  0
  -23.4746   -2.9863  -13.1020 C   0  0  0  0  0  0  0  0  0  0  0  0
 39 40  1  0  0  0
 40 29  1  0  0  0
 29 30  1  0  0  0
 29 38  2  0  0  0
 30 31  2  0  0  0
 31 32  1  0  0  0
 31 36  1  0  0  0
 32 33  2  0  0  0
 33 34  1  0  0  0
 34 35  2  0  0  0
 35 28  1  0  0  0
 35 36  1  0  0  0
 28  1  1  0  0  0
  1  2  1  0  0  0
  1  6  2  0  0  0
  2  3  2  0  0  0
  3  4  1  0  0  0
  4  7  1  0  0  0
  4  5  2  0  0  0
  7  9  1  0  0  0
  7  8  1  0  0  0
  9 10  1  0  0  0
  9 19  2  0  0  0
 10 11  2  0  0  0
 11 12  1  0  0  0
 12 13  2  0  0  0
 13 14  1  0  0  0
 13 19  1  0  0  0
 14 15  1  0  0  0
 14 20  1  0  0  0
 15 16  2  0  0  0
 16 21  1  0  0  0
 16 17  1  0  0  0
 21 22  1  0  0  0
 21 27  2  0  0  0
 22 23  2  0  0  0
 23 24  1  0  0  0
 24 25  1  0  0  0
 24 26  2  0  0  0
 26 27  1  0  0  0
 17 18  2  0  0  0
 17 19  1  0  0  0
  5  6  1  0  0  0
 36 37  2  0  0  0
 37 38  1  0  0  0
 38 41  1  0  0  0
 41 42  1  0  0  0
M  END
> <minimizedAffinity>
-8.33296

$$$$
