CHEMBL372662


 37 40  0  0  0  0  0  0  0  0999 V2000
  -29.6414   -3.0218   -4.9802 C   0  0  0  0  0  0  0  0  0  0  0  0
  -29.5314   -2.3931   -3.8390 N   0  0  0  0  0  0  0  0  0  0  0  0
  -28.7701   -1.2656   -3.7341 C   0  0  0  0  0  0  0  0  0  0  0  0
  -28.0979   -0.7070   -4.6798 N   0  0  0  0  0  0  0  0  0  0  0  0
  -28.1872   -1.3368   -5.8626 N   0  0  0  0  0  0  0  0  0  0  0  0
  -27.5534   -0.9099   -6.9847 C   0  0  0  0  0  0  0  0  0  0  0  0
  -27.8459   -1.7849   -8.0028 C   0  0  0  0  0  0  0  0  0  0  0  0
  -28.6876   -2.8348   -7.4721 C   0  0  0  0  0  0  0  0  0  0  0  0
  -28.9093   -2.4808   -6.1132 C   0  0  0  0  0  0  0  0  0  0  0  0
  -27.3118   -1.6177   -9.3956 C   0  0  0  0  0  0  0  0  0  0  0  0
  -28.0676   -1.3427  -10.4427 N   0  0  0  0  0  0  0  0  0  0  0  0
  -27.2581   -1.2952  -11.5448 N   0  0  0  0  0  0  0  0  0  0  0  0
  -26.0437   -1.5548  -11.1137 C   0  0  0  0  0  0  0  0  0  0  0  0
  -25.9838   -1.7319   -9.7539 O   0  0  0  0  0  0  0  0  0  0  0  0
  -24.8070   -1.7295  -11.9305 C   0  0  0  0  0  0  0  0  0  0  0  0
  -24.6267   -0.7379  -13.0163 N   0  0  0  0  0  0  0  0  0  0  0  0
  -23.2575   -0.2132  -13.0579 C   0  0  0  0  0  0  0  0  0  0  0  0
  -24.9408   -1.3622  -14.3048 C   0  0  0  0  0  0  0  0  0  0  0  0
  -29.1126   -4.0531   -8.2735 C   0  0  0  0  0  0  0  0  0  0  0  0
  -28.3084   -5.3087   -7.9479 C   0  0  0  0  0  0  0  0  0  0  0  0
  -30.6054   -4.3566   -8.2734 C   0  0  0  0  0  0  0  0  0  0  0  0
  -30.4723   -4.1192   -5.0177 N   0  0  0  0  0  0  0  0  0  0  0  0
  -31.4292   -3.9863   -5.2971 H   0  0  0  0  0  0  0  0  0  0  0  0
  -30.2269   -7.7454   -5.9571 C   0  0  0  0  0  0  0  0  0  0  0  0
  -30.6063   -6.3910   -5.9755 C   0  0  0  0  0  0  0  0  0  0  0  0
  -30.0739   -5.4764   -5.0510 C   0  0  0  0  0  0  0  0  0  0  0  0
  -29.1161   -5.9613   -4.1429 C   0  0  0  0  0  0  0  0  0  0  0  0
  -28.6009   -5.1432   -3.2121 F   0  0  0  0  0  0  0  0  0  0  0  0
  -28.6901   -7.2932   -4.1564 C   0  0  0  0  0  0  0  0  0  0  0  0
  -29.2486   -8.1776   -5.0664 C   0  0  0  0  0  0  0  0  0  0  0  0
  -28.8594   -9.4565   -5.0397 F   0  0  0  0  0  0  0  0  0  0  0  0
  -32.2640   -8.9601   -6.4770 N   0  0  0  0  0  0  0  0  0  0  0  0
  -30.9517   -8.7085   -6.8160 C   0  0  0  0  0  0  0  0  0  0  0  0
  -30.3502   -9.2277   -7.7492 O   0  0  0  0  0  0  0  0  0  0  0  0
  -32.8220   -8.2805   -5.9676 H   0  0  0  0  0  0  0  0  0  0  0  0
  -33.3059  -10.9871   -6.7335 C   0  0  0  0  0  0  0  0  0  0  0  0
  -32.9804   -9.7653   -7.3935 O   0  0  0  0  0  0  0  0  0  0  0  0
 36 37  1  0  0  0
 37 32  1  0  0  0
 32 33  1  0  0  0
 32 35  1  0  0  0
 33 34  2  0  0  0
 33 24  1  0  0  0
 24 25  1  0  0  0
 24 30  2  0  0  0
 25 26  2  0  0  0
 26 22  1  0  0  0
 26 27  1  0  0  0
 22  1  1  0  0  0
 22 23  1  0  0  0
  1  2  2  0  0  0
  1  9  1  0  0  0
  2  3  1  0  0  0
  3  4  2  0  0  0
  4  5  1  0  0  0
  5  6  1  0  0  0
  5  9  1  0  0  0
  6  7  2  0  0  0
  7 10  1  0  0  0
  7  8  1  0  0  0
 10 11  2  0  0  0
 10 14  1  0  0  0
 11 12  1  0  0  0
 12 13  2  0  0  0
 13 15  1  0  0  0
 13 14  1  0  0  0
 15 16  1  0  0  0
 16 17  1  0  0  0
 16 18  1  0  0  0
  8 19  1  0  0  0
  8  9  2  0  0  0
 19 20  1  0  0  0
 19 21  1  0  0  0
 27 28  1  0  0  0
 27 29  2  0  0  0
 29 30  1  0  0  0
 30 31  1  0  0  0
M  END
> <minimizedAffinity>
-8.53488

$$$$
