CHEMBL4159244


 34 36  0  0  0  0  0  0  0  0999 V2000
  -17.2273    2.4956  -15.8274 C   0  0  0  0  0  0  0  0  0  0  0  0
  -18.2383    3.4571  -15.9409 C   0  0  0  0  0  0  0  0  0  0  0  0
  -19.4684    3.3090  -15.2936 C   0  0  0  0  0  0  0  0  0  0  0  0
  -19.7538    2.1881  -14.5259 C   0  0  0  0  0  0  0  0  0  0  0  0
  -18.7747    1.1883  -14.4288 C   0  0  0  0  0  0  0  0  0  0  0  0
  -17.5323    1.3447  -15.0779 C   0  0  0  0  0  0  0  0  0  0  0  0
  -14.4300    4.3052  -17.3202 C   0  0  0  0  0  0  0  0  0  0  0  0
  -13.5082    3.3257  -17.6561 C   0  0  0  0  0  0  0  0  0  0  0  0
  -13.8144    2.0015  -17.3793 C   0  0  0  0  0  0  0  0  0  0  0  0
  -15.0430    1.6963  -16.8044 C   0  0  0  0  0  0  0  0  0  0  0  0
  -15.9147    2.7315  -16.4707 C   0  0  0  0  0  0  0  0  0  0  0  0
  -15.5840    4.0365  -16.6803 N   0  0  0  0  0  0  0  0  0  0  0  0
  -14.5610    6.1959  -18.8338 C   0  0  0  0  0  0  0  0  0  0  0  0
  -15.1026    5.5939  -19.7579 O   0  0  0  0  0  0  0  0  0  0  0  0
  -14.2020    5.6522  -17.6225 N   0  0  0  0  0  0  0  0  0  0  0  0
  -14.1532    6.2548  -16.8139 H   0  0  0  0  0  0  0  0  0  0  0  0
  -15.3125    8.5190  -18.9829 C   0  0  0  0  0  0  0  0  0  0  0  0
  -14.2878    7.6549  -18.9226 C   0  0  0  0  0  0  0  0  0  0  0  0
  -20.9629    2.0228  -13.8107 N   0  0  0  0  0  0  0  0  0  0  0  0
  -21.8348    0.9544  -13.9561 C   0  0  0  0  0  0  0  0  0  0  0  0
  -21.6240   -0.0500  -14.6275 O   0  0  0  0  0  0  0  0  0  0  0  0
  -23.0369    1.1594  -13.2841 N   0  0  0  0  0  0  0  0  0  0  0  0
  -21.1629    2.6742  -13.0639 H   0  0  0  0  0  0  0  0  0  0  0  0
  -23.3437    2.1207  -13.2635 H   0  0  0  0  0  0  0  0  0  0  0  0
  -24.0581    0.1772  -13.3448 C   0  0  0  0  0  0  0  0  0  0  0  0
  -24.2716   -0.5026  -14.5436 C   0  0  0  0  0  0  0  0  0  0  0  0
  -25.2008   -1.5439  -14.5977 C   0  0  0  0  0  0  0  0  0  0  0  0
  -25.9516   -1.8779  -13.4687 C   0  0  0  0  0  0  0  0  0  0  0  0
  -25.7783   -1.1784  -12.2669 C   0  0  0  0  0  0  0  0  0  0  0  0
  -24.8224   -0.1512  -12.2168 C   0  0  0  0  0  0  0  0  0  0  0  0
  -26.5828   -1.5182  -11.0375 C   0  0  0  0  0  0  0  0  0  0  0  0
  -27.8154   -0.9346  -11.0206 F   0  0  0  0  0  0  0  0  0  0  0  0
  -26.8050   -2.8538  -10.8991 F   0  0  0  0  0  0  0  0  0  0  0  0
  -25.9722   -1.1176   -9.8870 F   0  0  0  0  0  0  0  0  0  0  0  0
 17 18  2  0  0  0
 18 13  1  0  0  0
 13 14  2  0  0  0
 13 15  1  0  0  0
 15  7  1  0  0  0
 15 16  1  0  0  0
  7  8  1  0  0  0
  7 12  2  0  0  0
  8  9  2  0  0  0
  9 10  1  0  0  0
 10 11  2  0  0  0
 11  1  1  0  0  0
 11 12  1  0  0  0
  1  2  1  0  0  0
  1  6  2  0  0  0
  2  3  2  0  0  0
  3  4  1  0  0  0
  4 19  1  0  0  0
  4  5  2  0  0  0
 19 20  1  0  0  0
 19 23  1  0  0  0
 20 21  2  0  0  0
 20 22  1  0  0  0
 22 25  1  0  0  0
 22 24  1  0  0  0
 25 26  1  0  0  0
 25 30  2  0  0  0
 26 27  2  0  0  0
 27 28  1  0  0  0
 28 29  2  0  0  0
 29 31  1  0  0  0
 29 30  1  0  0  0
 31 32  1  0  0  0
 31 33  1  0  0  0
 31 34  1  0  0  0
  5  6  1  0  0  0
M  END
> <minimizedAffinity>
-9.69982

$$$$
