CHEMBL249302


 29 33  0  0  0  0  0  0  0  0999 V2000
  -15.1659   -0.2309  -14.2426 C   0  0  0  0  0  0  0  0  0  0  0  0
  -13.9620    0.1822  -14.6767 N   0  0  0  0  0  0  0  0  0  0  0  0
  -14.2389    1.3747  -15.2513 N   0  0  0  0  0  0  0  0  0  0  0  0
  -15.5519    1.7373  -15.1726 C   0  0  0  0  0  0  0  0  0  0  0  0
  -16.0965    2.8733  -15.6407 N   0  0  0  0  0  0  0  0  0  0  0  0
  -17.4335    2.9458  -15.3985 C   0  0  0  0  0  0  0  0  0  0  0  0
  -18.2362    1.9885  -14.7559 C   0  0  0  0  0  0  0  0  0  0  0  0
  -17.5792    0.8293  -14.3048 C   0  0  0  0  0  0  0  0  0  0  0  0
  -16.1949    0.7041  -14.5175 C   0  0  0  0  0  0  0  0  0  0  0  0
  -13.4921    1.9053  -15.6823 H   0  0  0  0  0  0  0  0  0  0  0  0
  -15.1778   -3.8992  -10.9385 C   0  0  0  0  0  0  0  0  0  0  0  0
  -15.6536   -5.2263  -10.9957 C   0  0  0  0  0  0  0  0  0  0  0  0
  -16.2506   -5.7451  -12.1488 C   0  0  0  0  0  0  0  0  0  0  0  0
  -16.4100   -4.9645  -13.2969 C   0  0  0  0  0  0  0  0  0  0  0  0
  -15.9400   -3.6530  -13.2274 C   0  0  0  0  0  0  0  0  0  0  0  0
  -15.9393   -2.6245  -14.1336 N   0  0  0  0  0  0  0  0  0  0  0  0
  -15.3443   -1.5373  -13.5502 C   0  0  0  0  0  0  0  0  0  0  0  0
  -14.9671   -1.8051  -12.3170 N   0  0  0  0  0  0  0  0  0  0  0  0
  -15.3326   -3.1139  -12.0967 C   0  0  0  0  0  0  0  0  0  0  0  0
  -16.3017   -2.6363  -15.0761 H   0  0  0  0  0  0  0  0  0  0  0  0
  -14.5715   -3.3573   -9.6744 C   0  0  0  0  0  0  0  0  0  0  0  0
  -12.4707   -3.4970   -8.6281 C   0  0  0  0  0  0  0  0  0  0  0  0
  -13.1596   -3.2222   -9.8399 O   0  0  0  0  0  0  0  0  0  0  0  0
  -19.6842    2.1792  -14.5627 C   0  0  0  0  0  0  0  0  0  0  0  0
  -20.5893    1.1320  -14.4635 C   0  0  0  0  0  0  0  0  0  0  0  0
  -21.9224    1.2703  -14.2835 N   0  0  0  0  0  0  0  0  0  0  0  0
  -22.3680    2.5295  -14.1894 C   0  0  0  0  0  0  0  0  0  0  0  0
  -21.6124    3.6320  -14.2639 N   0  0  0  0  0  0  0  0  0  0  0  0
  -20.2878    3.4249  -14.4523 C   0  0  0  0  0  0  0  0  0  0  0  0
 22 23  1  0  0  0
 23 21  1  0  0  0
 21 11  1  0  0  0
 11 12  1  0  0  0
 11 19  2  0  0  0
 12 13  2  0  0  0
 13 14  1  0  0  0
 14 15  2  0  0  0
 15 16  1  0  0  0
 15 19  1  0  0  0
 16 17  1  0  0  0
 16 20  1  0  0  0
 17  1  1  0  0  0
 17 18  2  0  0  0
  1  2  2  0  0  0
  1  9  1  0  0  0
  2  3  1  0  0  0
  3  4  1  0  0  0
  3 10  1  0  0  0
  4  5  1  0  0  0
  4  9  2  0  0  0
  5  6  2  0  0  0
  6  7  1  0  0  0
  7 24  1  0  0  0
  7  8  2  0  0  0
 24 25  1  0  0  0
 24 29  2  0  0  0
 25 26  2  0  0  0
 26 27  1  0  0  0
 27 28  2  0  0  0
 28 29  1  0  0  0
  8  9  1  0  0  0
 18 19  1  0  0  0
M  END
> <minimizedAffinity>
-9.08292

$$$$
