CHEMBL3622957


 34 38  0  0  0  0  0  0  0  0999 V2000
  -27.9821   -9.8367   -7.1393 C   0  0  0  0  0  0  0  0  0  0  0  0
  -28.1689  -10.6186   -8.2605 C   0  0  0  0  0  0  0  0  0  0  0  0
  -29.1137  -10.1589   -9.1474 C   0  0  0  0  0  0  0  0  0  0  0  0
  -29.8076   -9.0185   -8.9725 N   0  0  0  0  0  0  0  0  0  0  0  0
  -29.5840   -8.3222   -7.8451 C   0  0  0  0  0  0  0  0  0  0  0  0
  -28.6934   -8.7015   -6.9157 N   0  0  0  0  0  0  0  0  0  0  0  0
  -25.1114   -9.6680   -3.2055 C   0  0  0  0  0  0  0  0  0  0  0  0
  -25.7033  -10.1616   -4.4769 C   0  0  0  0  0  0  0  0  0  0  0  0
  -26.7058   -9.4927   -5.0683 N   0  0  0  0  0  0  0  0  0  0  0  0
  -27.0482  -10.2609   -6.1384 N   0  0  0  0  0  0  0  0  0  0  0  0
  -26.3305  -11.4402   -6.1505 C   0  0  0  0  0  0  0  0  0  0  0  0
  -25.3233  -11.3191   -5.2114 C   0  0  0  0  0  0  0  0  0  0  0  0
  -24.0945  -12.1693   -5.0537 C   0  0  0  0  0  0  0  0  0  0  0  0
  -22.8559  -11.3889   -5.0905 N   0  0  0  0  0  0  0  0  0  0  0  0
  -21.6489  -12.2272   -5.0072 C   0  0  0  0  0  0  0  0  0  0  0  0
  -20.9411  -12.2217   -6.3601 C   0  0  0  0  0  0  0  0  0  0  0  0
  -21.8353  -11.4259   -7.2867 C   0  0  0  0  0  0  0  0  0  0  0  0
  -22.5684  -12.3265   -8.1153 O   0  0  0  0  0  0  0  0  0  0  0  0
  -22.7177  -10.6118   -6.3397 C   0  0  0  0  0  0  0  0  0  0  0  0
  -23.5177  -12.1753   -7.9847 H   0  0  0  0  0  0  0  0  0  0  0  0
  -30.3277   -7.1456   -7.7142 N   0  0  0  0  0  0  0  0  0  0  0  0
  -31.3087   -7.3832   -7.7637 H   0  0  0  0  0  0  0  0  0  0  0  0
  -30.0416   -5.9260   -7.0764 C   0  0  0  0  0  0  0  0  0  0  0  0
  -30.4558   -5.6249   -5.7784 C   0  0  0  0  0  0  0  0  0  0  0  0
  -30.1722   -4.3895   -5.1625 C   0  0  0  0  0  0  0  0  0  0  0  0
  -29.4299   -3.4393   -5.8840 C   0  0  0  0  0  0  0  0  0  0  0  0
  -28.9516   -3.7200   -7.1646 C   0  0  0  0  0  0  0  0  0  0  0  0
  -29.2444   -4.9789   -7.7465 C   0  0  0  0  0  0  0  0  0  0  0  0
  -28.2482   -2.5627   -7.5990 C   0  0  0  0  0  0  0  0  0  0  0  0
  -27.4786   -2.4124   -9.1120 Cl  0  0  0  0  0  0  0  0  0  0  0  0
  -28.3417   -1.5953   -6.6163 C   0  0  0  0  0  0  0  0  0  0  0  0
  -27.8430   -0.1921   -6.6156 C   0  0  0  0  0  0  0  0  0  0  0  0
  -29.0341   -2.1592   -5.5633 N   0  0  0  0  0  0  0  0  0  0  0  0
  -29.3454   -1.5131   -4.3033 C   0  0  0  0  0  0  0  0  0  0  0  0
  7  8  1  0  0  0
  8  9  2  0  0  0
  8 12  1  0  0  0
  9 10  1  0  0  0
 10  1  1  0  0  0
 10 11  1  0  0  0
  1  2  1  0  0  0
  1  6  2  0  0  0
  2  3  2  0  0  0
  3  4  1  0  0  0
  4  5  2  0  0  0
  5 21  1  0  0  0
  5  6  1  0  0  0
 21 23  1  0  0  0
 21 22  1  0  0  0
 23 24  1  0  0  0
 23 28  2  0  0  0
 24 25  2  0  0  0
 25 26  1  0  0  0
 26 27  2  0  0  0
 26 33  1  0  0  0
 27 28  1  0  0  0
 27 29  1  0  0  0
 29 30  1  0  0  0
 29 31  2  0  0  0
 31 32  1  0  0  0
 31 33  1  0  0  0
 33 34  1  0  0  0
 11 12  2  0  0  0
 12 13  1  0  0  0
 13 14  1  0  0  0
 14 15  1  0  0  0
 14 19  1  0  0  0
 15 16  1  0  0  0
 16 17  1  0  0  0
 17 18  1  0  0  0
 17 19  1  0  0  0
 18 20  1  0  0  0
M  END
> <minimizedAffinity>
-8.57805

$$$$
