CHEMBL250684


 30 32  0  0  0  0  0  0  0  0999 V2000
  -27.6448   -3.6969   -8.7716 O   0  0  0  0  0  0  0  0  0  0  0  0
  -27.8052   -2.5219   -8.4601 C   0  0  0  0  0  0  0  0  0  0  0  0
  -27.5575   -1.4259   -9.2710 N   0  0  0  0  0  0  0  0  0  0  0  0
  -27.6946   -0.5038   -8.8638 H   0  0  0  0  0  0  0  0  0  0  0  0
  -27.0226   -1.4762  -10.5860 C   0  0  0  0  0  0  0  0  0  0  0  0
  -27.8052   -1.4706  -11.7431 C   0  0  0  0  0  0  0  0  0  0  0  0
  -27.2206   -1.5762  -13.0081 C   0  0  0  0  0  0  0  0  0  0  0  0
  -25.8353   -1.6744  -13.1479 C   0  0  0  0  0  0  0  0  0  0  0  0
  -25.2365   -1.8229  -14.7579 Cl  0  0  0  0  0  0  0  0  0  0  0  0
  -25.0197   -1.6584  -12.0129 C   0  0  0  0  0  0  0  0  0  0  0  0
  -25.6344   -1.5595  -10.7349 C   0  0  0  0  0  0  0  0  0  0  0  0
  -23.5132   -1.7212  -12.0517 C   0  0  0  0  0  0  0  0  0  0  0  0
  -22.8711   -0.6434  -12.5675 F   0  0  0  0  0  0  0  0  0  0  0  0
  -22.9889   -1.8979  -10.8046 F   0  0  0  0  0  0  0  0  0  0  0  0
  -23.0728   -2.7874  -12.7817 F   0  0  0  0  0  0  0  0  0  0  0  0
  -28.3017   -2.2699   -7.0835 C   0  0  0  0  0  0  0  0  0  0  0  0
  -27.6180   -1.2627   -6.3751 C   0  0  0  0  0  0  0  0  0  0  0  0
  -27.8910   -1.0355   -5.0355 C   0  0  0  0  0  0  0  0  0  0  0  0
  -28.8335   -1.8374   -4.4396 C   0  0  0  0  0  0  0  0  0  0  0  0
  -29.5011   -2.8201   -5.0923 N   0  0  0  0  0  0  0  0  0  0  0  0
  -29.2434   -3.0542   -6.4027 C   0  0  0  0  0  0  0  0  0  0  0  0
  -30.0258   -4.0436   -7.0439 N   0  0  0  0  0  0  0  0  0  0  0  0
  -29.6281   -4.2385   -7.9601 H   0  0  0  0  0  0  0  0  0  0  0  0
  -30.0522   -5.3216   -6.3013 C   0  0  0  0  0  0  0  0  0  0  0  0
  -30.0346   -6.5870   -7.1314 C   0  0  0  0  0  0  0  0  0  0  0  0
  -28.8675   -6.9258   -7.8334 C   0  0  0  0  0  0  0  0  0  0  0  0
  -28.8026   -8.1410   -8.5035 C   0  0  0  0  0  0  0  0  0  0  0  0
  -29.8022   -9.0443   -8.5133 N   0  0  0  0  0  0  0  0  0  0  0  0
  -30.9140   -8.7129   -7.8242 C   0  0  0  0  0  0  0  0  0  0  0  0
  -31.0749   -7.5182   -7.1351 C   0  0  0  0  0  0  0  0  0  0  0  0
  1  2  2  0  0  0
  2  3  1  0  0  0
  2 16  1  0  0  0
  3  5  1  0  0  0
  3  4  1  0  0  0
  5  6  1  0  0  0
  5 11  2  0  0  0
  6  7  2  0  0  0
  7  8  1  0  0  0
  8  9  1  0  0  0
  8 10  2  0  0  0
 10 12  1  0  0  0
 10 11  1  0  0  0
 12 13  1  0  0  0
 12 14  1  0  0  0
 12 15  1  0  0  0
 16 17  1  0  0  0
 16 21  2  0  0  0
 17 18  2  0  0  0
 18 19  1  0  0  0
 19 20  2  0  0  0
 20 21  1  0  0  0
 21 22  1  0  0  0
 22 24  1  0  0  0
 22 23  1  0  0  0
 24 25  1  0  0  0
 25 26  1  0  0  0
 25 30  2  0  0  0
 26 27  2  0  0  0
 27 28  1  0  0  0
 28 29  2  0  0  0
 29 30  1  0  0  0
M  END
> <minimizedAffinity>
-9.69485

$$$$
