CHEMBL1681956


 26 27  0  0  0  0  0  0  0  0999 V2000
  -28.5882   -7.8991   -5.6157 C   0  0  0  0  0  0  0  0  0  0  0  0
  -28.5699   -8.2458   -6.9634 C   0  0  0  0  0  0  0  0  0  0  0  0
  -27.6507   -9.1430   -7.5037 N   0  0  0  0  0  0  0  0  0  0  0  0
  -29.4961   -7.8216   -7.8412 N   0  0  0  0  0  0  0  0  0  0  0  0
  -30.4840   -7.0704   -7.3510 C   0  0  0  0  0  0  0  0  0  0  0  0
  -30.6131   -6.6923   -6.0791 N   0  0  0  0  0  0  0  0  0  0  0  0
  -29.6219   -7.0662   -5.2333 C   0  0  0  0  0  0  0  0  0  0  0  0
  -26.7122   -8.9990   -7.1310 H   0  0  0  0  0  0  0  0  0  0  0  0
  -27.7133   -9.1321   -8.5157 H   0  0  0  0  0  0  0  0  0  0  0  0
  -27.4081   -9.6115   -4.3938 N   0  0  0  0  0  0  0  0  0  0  0  0
  -27.5483   -8.3546   -4.6815 C   0  0  0  0  0  0  0  0  0  0  0  0
  -25.2889   -8.9707   -3.8292 C   0  0  0  0  0  0  0  0  0  0  0  0
  -26.3973   -9.7794   -3.4431 O   0  0  0  0  0  0  0  0  0  0  0  0
  -29.6179   -6.4801   -3.9606 O   0  0  0  0  0  0  0  0  0  0  0  0
  -29.3436   -5.1191   -3.9369 C   0  0  0  0  0  0  0  0  0  0  0  0
  -28.0437   -4.6562   -4.1555 C   0  0  0  0  0  0  0  0  0  0  0  0
  -27.7955   -3.2962   -4.3509 C   0  0  0  0  0  0  0  0  0  0  0  0
  -28.8201   -2.3575   -4.2572 C   0  0  0  0  0  0  0  0  0  0  0  0
  -30.1008   -2.8082   -3.8974 C   0  0  0  0  0  0  0  0  0  0  0  0
  -30.3581   -4.1819   -3.7288 C   0  0  0  0  0  0  0  0  0  0  0  0
  -31.9499   -4.6739   -3.2808 Cl  0  0  0  0  0  0  0  0  0  0  0  0
  -28.6310   -0.9907   -4.5626 N   0  0  0  0  0  0  0  0  0  0  0  0
  -28.4668   -0.4459   -5.8321 C   0  0  0  0  0  0  0  0  0  0  0  0
  -28.5070    1.0561   -5.8613 C   0  0  0  0  0  0  0  0  0  0  0  0
  -28.2881   -1.0670   -6.8729 O   0  0  0  0  0  0  0  0  0  0  0  0
  -28.6319   -0.3445   -3.7808 H   0  0  0  0  0  0  0  0  0  0  0  0
 12 13  1  0  0  0
 13 10  1  0  0  0
 10 11  2  0  0  0
 11  1  1  0  0  0
  1  2  1  0  0  0
  1  7  2  0  0  0
  2  3  1  0  0  0
  2  4  2  0  0  0
  3  8  1  0  0  0
  3  9  1  0  0  0
  4  5  1  0  0  0
  5  6  2  0  0  0
  6  7  1  0  0  0
  7 14  1  0  0  0
 14 15  1  0  0  0
 15 16  1  0  0  0
 15 20  2  0  0  0
 16 17  2  0  0  0
 17 18  1  0  0  0
 18 22  1  0  0  0
 18 19  2  0  0  0
 22 23  1  0  0  0
 22 26  1  0  0  0
 23 24  1  0  0  0
 23 25  2  0  0  0
 19 20  1  0  0  0
 20 21  1  0  0  0
M  END
> <minimizedAffinity>
-7.26487

$$$$
