CHEMBL3894545


 31 34  0  0  0  0  0  0  0  0999 V2000
  -28.3287   -7.3622   -5.6254 C   0  0  0  0  0  0  0  0  0  0  0  0
  -29.2417   -7.4574   -6.6536 C   0  0  0  0  0  0  0  0  0  0  0  0
  -29.8887   -5.9494   -7.1030 S   0  0  0  0  0  0  0  0  0  0  0  0
  -28.9325   -5.1261   -5.9376 C   0  0  0  0  0  0  0  0  0  0  0  0
  -28.2296   -6.0167   -5.1555 C   0  0  0  0  0  0  0  0  0  0  0  0
  -28.9161   -3.6859   -5.9061 C   0  0  0  0  0  0  0  0  0  0  0  0
  -28.2420   -2.8892   -6.8180 C   0  0  0  0  0  0  0  0  0  0  0  0
  -28.4709   -1.5404   -6.4864 C   0  0  0  0  0  0  0  0  0  0  0  0
  -28.0912   -0.3240   -7.0988 C   0  0  0  0  0  0  0  0  0  0  0  0
  -28.4990    0.8853   -6.5343 C   0  0  0  0  0  0  0  0  0  0  0  0
  -29.2614    0.8926   -5.3743 C   0  0  0  0  0  0  0  0  0  0  0  0
  -29.6379   -0.3037   -4.7476 C   0  0  0  0  0  0  0  0  0  0  0  0
  -29.2323   -1.5247   -5.3159 C   0  0  0  0  0  0  0  0  0  0  0  0
  -29.4969   -2.8594   -4.9375 N   0  0  0  0  0  0  0  0  0  0  0  0
  -30.1966   -3.2166   -3.7514 C   0  0  0  0  0  0  0  0  0  0  0  0
  -31.3225   -3.9838   -3.9472 N   0  0  0  0  0  0  0  0  0  0  0  0
  -29.8331   -2.8332   -2.6639 O   0  0  0  0  0  0  0  0  0  0  0  0
  -31.5600   -4.4669   -4.7955 H   0  0  0  0  0  0  0  0  0  0  0  0
  -31.8203   -4.2466   -3.0993 H   0  0  0  0  0  0  0  0  0  0  0  0
  -27.8204   -9.0329   -3.9058 C   0  0  0  0  0  0  0  0  0  0  0  0
  -28.7238   -8.7272   -3.1262 O   0  0  0  0  0  0  0  0  0  0  0  0
  -27.5705   -8.4085   -5.1180 N   0  0  0  0  0  0  0  0  0  0  0  0
  -26.8724   -8.8065   -5.7373 H   0  0  0  0  0  0  0  0  0  0  0  0
  -23.1781  -10.7294   -3.1631 C   0  0  0  0  0  0  0  0  0  0  0  0
  -24.6580  -10.9838   -3.1640 C   0  0  0  0  0  0  0  0  0  0  0  0
  -25.1715  -12.2439   -2.8408 C   0  0  0  0  0  0  0  0  0  0  0  0
  -26.5500  -12.4630   -2.8465 C   0  0  0  0  0  0  0  0  0  0  0  0
  -27.4201  -11.4268   -3.1800 C   0  0  0  0  0  0  0  0  0  0  0  0
  -28.7381  -11.6808   -3.1626 F   0  0  0  0  0  0  0  0  0  0  0  0
  -26.9371  -10.1656   -3.5165 C   0  0  0  0  0  0  0  0  0  0  0  0
  -25.5468   -9.9508   -3.4994 C   0  0  0  0  0  0  0  0  0  0  0  0
 24 25  1  0  0  0
 25 26  1  0  0  0
 25 31  2  0  0  0
 26 27  2  0  0  0
 27 28  1  0  0  0
 28 29  1  0  0  0
 28 30  2  0  0  0
 30 20  1  0  0  0
 30 31  1  0  0  0
 20 21  2  0  0  0
 20 22  1  0  0  0
 22  1  1  0  0  0
 22 23  1  0  0  0
  1  2  2  0  0  0
  1  5  1  0  0  0
  2  3  1  0  0  0
  3  4  1  0  0  0
  4  6  1  0  0  0
  4  5  2  0  0  0
  6  7  2  0  0  0
  6 14  1  0  0  0
  7  8  1  0  0  0
  8  9  1  0  0  0
  8 13  2  0  0  0
  9 10  2  0  0  0
 10 11  1  0  0  0
 11 12  2  0  0  0
 12 13  1  0  0  0
 13 14  1  0  0  0
 14 15  1  0  0  0
 15 16  1  0  0  0
 15 17  2  0  0  0
 16 18  1  0  0  0
 16 19  1  0  0  0
M  END
> <minimizedAffinity>
-9.20205

$$$$
