CHEMBL1966175


 25 28  0  0  0  0  0  0  0  0999 V2000
  -14.6798   -5.0207  -13.2506 C   0  0  0  0  0  0  0  0  0  0  0  0
  -15.5707   -5.6301  -14.0216 N   0  0  0  0  0  0  0  0  0  0  0  0
  -15.3931   -6.9798  -13.8252 C   0  0  0  0  0  0  0  0  0  0  0  0
  -14.3745   -7.2044  -12.9338 C   0  0  0  0  0  0  0  0  0  0  0  0
  -13.7796   -8.3911  -12.3582 C   0  0  0  0  0  0  0  0  0  0  0  0
  -12.7962   -8.3443  -11.4890 N   0  0  0  0  0  0  0  0  0  0  0  0
  -12.3920   -7.0829  -11.1779 C   0  0  0  0  0  0  0  0  0  0  0  0
  -11.3822   -6.7912  -10.3026 N   0  0  0  0  0  0  0  0  0  0  0  0
  -11.2340   -5.4253  -10.2147 C   0  0  0  0  0  0  0  0  0  0  0  0
  -12.1568   -4.8282  -11.0511 C   0  0  0  0  0  0  0  0  0  0  0  0
  -12.8687   -5.8749  -11.6495 C   0  0  0  0  0  0  0  0  0  0  0  0
  -13.9185   -5.9516  -12.5795 N   0  0  0  0  0  0  0  0  0  0  0  0
  -10.8347   -7.4800   -9.8104 H   0  0  0  0  0  0  0  0  0  0  0  0
  -15.9327   -3.5959  -10.8746 C   0  0  0  0  0  0  0  0  0  0  0  0
  -15.8446   -3.0170  -12.2959 C   0  0  0  0  0  0  0  0  0  0  0  0
  -15.8373   -1.4789  -12.2271 C   0  0  0  0  0  0  0  0  0  0  0  0
  -15.6304   -0.8362  -13.5981 C   0  0  0  0  0  0  0  0  0  0  0  0
  -14.4143   -1.3441  -14.2231 N   0  0  0  0  0  0  0  0  0  0  0  0
  -13.3682   -0.5700  -14.7317 C   0  0  0  0  0  0  0  0  0  0  0  0
  -12.3867   -1.1056  -15.2431 O   0  0  0  0  0  0  0  0  0  0  0  0
  -14.3896   -2.8098  -14.3901 C   0  0  0  0  0  0  0  0  0  0  0  0
  -14.5915   -3.5347  -13.0462 C   0  0  0  0  0  0  0  0  0  0  0  0
  -13.4740    0.9599  -14.6251 C   0  0  0  0  0  0  0  0  0  0  0  0
  -12.9962    1.4250  -13.2591 C   0  0  0  0  0  0  0  0  0  0  0  0
  -12.5999    1.8110  -12.1260 N   0  0  0  0  0  0  0  0  0  0  0  0
 14 15  1  0  0  0
 15 16  1  0  0  0
 15 22  1  0  0  0
 16 17  1  0  0  0
 17 18  1  0  0  0
 18 19  1  0  0  0
 18 21  1  0  0  0
 19 20  2  0  0  0
 19 23  1  0  0  0
 23 24  1  0  0  0
 24 25  3  0  0  0
 21 22  1  0  0  0
 22  1  1  0  0  0
  1  2  2  0  0  0
  1 12  1  0  0  0
  2  3  1  0  0  0
  3  4  2  0  0  0
  4  5  1  0  0  0
  4 12  1  0  0  0
  5  6  2  0  0  0
  6  7  1  0  0  0
  7  8  1  0  0  0
  7 11  2  0  0  0
  8  9  1  0  0  0
  8 13  1  0  0  0
  9 10  2  0  0  0
 10 11  1  0  0  0
 11 12  1  0  0  0
M  END
> <minimizedAffinity>
-6.53690

$$$$
