CHEMBL3918357


 36 40  0  0  0  0  0  0  0  0999 V2000
  -29.6812   -4.8749   -7.1577 C   0  0  0  0  0  0  0  0  0  0  0  0
  -30.6256   -5.0917   -7.9221 O   0  0  0  0  0  0  0  0  0  0  0  0
  -29.3212   -5.8946   -6.1220 C   0  0  0  0  0  0  0  0  0  0  0  0
  -29.5680   -5.7273   -4.7431 C   0  0  0  0  0  0  0  0  0  0  0  0
  -29.1367   -6.6768   -3.7901 C   0  0  0  0  0  0  0  0  0  0  0  0
  -28.6317   -7.8978   -4.2690 C   0  0  0  0  0  0  0  0  0  0  0  0
  -28.1577   -9.1617   -3.7762 C   0  0  0  0  0  0  0  0  0  0  0  0
  -28.7864  -10.0820   -4.5330 N   0  0  0  0  0  0  0  0  0  0  0  0
  -28.7167   -9.4940   -5.7399 N   0  0  0  0  0  0  0  0  0  0  0  0
  -28.6914   -8.1202   -5.6411 C   0  0  0  0  0  0  0  0  0  0  0  0
  -28.8351   -7.1177   -6.5959 C   0  0  0  0  0  0  0  0  0  0  0  0
  -28.8472  -10.0547   -6.5685 H   0  0  0  0  0  0  0  0  0  0  0  0
  -26.7839   -9.5538   -3.4869 C   0  0  0  0  0  0  0  0  0  0  0  0
  -25.6980   -9.0317   -4.0918 C   0  0  0  0  0  0  0  0  0  0  0  0
  -24.5724   -9.8884   -4.5356 C   0  0  0  0  0  0  0  0  0  0  0  0
  -23.8449  -10.6246   -3.6050 C   0  0  0  0  0  0  0  0  0  0  0  0
  -22.6489  -11.2282   -3.9997 C   0  0  0  0  0  0  0  0  0  0  0  0
  -22.2022  -11.0755   -5.3060 C   0  0  0  0  0  0  0  0  0  0  0  0
  -22.9835  -10.3336   -6.1720 C   0  0  0  0  0  0  0  0  0  0  0  0
  -24.1501   -9.7464   -5.8179 N   0  0  0  0  0  0  0  0  0  0  0  0
  -27.5272   -2.1136   -8.5733 C   0  0  0  0  0  0  0  0  0  0  0  0
  -27.6914   -1.1334   -7.5907 C   0  0  0  0  0  0  0  0  0  0  0  0
  -28.4264   -1.3876   -6.4347 C   0  0  0  0  0  0  0  0  0  0  0  0
  -29.0236   -2.6278   -6.2540 C   0  0  0  0  0  0  0  0  0  0  0  0
  -28.9667   -3.5803   -7.2738 C   0  0  0  0  0  0  0  0  0  0  0  0
  -28.1901   -3.3389   -8.4168 C   0  0  0  0  0  0  0  0  0  0  0  0
  -27.1148   -1.5017  -10.9601 C   0  0  0  0  0  0  0  0  0  0  0  0
  -28.2630   -1.1812  -11.2518 O   0  0  0  0  0  0  0  0  0  0  0  0
  -26.7072   -1.9395   -9.7074 N   0  0  0  0  0  0  0  0  0  0  0  0
  -25.7098   -2.0542   -9.5772 H   0  0  0  0  0  0  0  0  0  0  0  0
  -22.8332   -0.7851  -13.5361 C   0  0  0  0  0  0  0  0  0  0  0  0
  -24.2093   -1.0958  -13.0929 C   0  0  0  0  0  0  0  0  0  0  0  0
  -24.7563   -0.9686  -11.8015 C   0  0  0  0  0  0  0  0  0  0  0  0
  -26.0555   -1.4007  -11.9323 C   0  0  0  0  0  0  0  0  0  0  0  0
  -26.2736   -1.7590  -13.2276 O   0  0  0  0  0  0  0  0  0  0  0  0
  -25.1145   -1.5671  -13.9604 N   0  0  0  0  0  0  0  0  0  0  0  0
 31 32  1  0  0  0
 32 33  1  0  0  0
 32 36  2  0  0  0
 33 34  2  0  0  0
 34 27  1  0  0  0
 34 35  1  0  0  0
 27 28  2  0  0  0
 27 29  1  0  0  0
 29 21  1  0  0  0
 29 30  1  0  0  0
 21 22  1  0  0  0
 21 26  2  0  0  0
 22 23  2  0  0  0
 23 24  1  0  0  0
 24 25  2  0  0  0
 25  1  1  0  0  0
 25 26  1  0  0  0
  1  2  2  0  0  0
  1  3  1  0  0  0
  3  4  1  0  0  0
  3 11  2  0  0  0
  4  5  2  0  0  0
  5  6  1  0  0  0
  6  7  1  0  0  0
  6 10  2  0  0  0
  7 13  1  0  0  0
  7  8  2  0  0  0
 13 14  2  0  0  0
 14 15  1  0  0  0
 15 16  1  0  0  0
 15 20  2  0  0  0
 16 17  2  0  0  0
 17 18  1  0  0  0
 18 19  2  0  0  0
 19 20  1  0  0  0
  8  9  1  0  0  0
  9 10  1  0  0  0
  9 12  1  0  0  0
 10 11  1  0  0  0
 35 36  1  0  0  0
M  END
> <minimizedAffinity>
-10.18564

$$$$
