CHEMBL248391


 35 39  0  0  0  0  0  0  0  0999 V2000
  -28.8165   -7.3736   -7.4421 C   0  0  0  0  0  0  0  0  0  0  0  0
  -28.8129   -5.9743   -7.5194 C   0  0  0  0  0  0  0  0  0  0  0  0
  -28.6413   -5.1304   -6.3884 C   0  0  0  0  0  0  0  0  0  0  0  0
  -28.5510   -3.6913   -6.4417 C   0  0  0  0  0  0  0  0  0  0  0  0
  -28.2103   -3.0213   -5.2608 C   0  0  0  0  0  0  0  0  0  0  0  0
  -28.1677   -3.7510   -4.0814 C   0  0  0  0  0  0  0  0  0  0  0  0
  -28.3444   -5.0831   -3.9959 N   0  0  0  0  0  0  0  0  0  0  0  0
  -28.5228   -5.7643   -5.1319 C   0  0  0  0  0  0  0  0  0  0  0  0
  -28.5484   -7.1455   -5.0545 C   0  0  0  0  0  0  0  0  0  0  0  0
  -28.6475   -7.9634   -6.1868 C   0  0  0  0  0  0  0  0  0  0  0  0
  -27.7840   -8.6913   -9.1544 C   0  0  0  0  0  0  0  0  0  0  0  0
  -28.9650   -8.1859   -8.5357 O   0  0  0  0  0  0  0  0  0  0  0  0
  -28.6816   -3.0516   -7.7073 N   0  0  0  0  0  0  0  0  0  0  0  0
  -29.5336   -2.5061   -7.7812 H   0  0  0  0  0  0  0  0  0  0  0  0
  -27.5898   -2.4608   -8.5090 C   0  0  0  0  0  0  0  0  0  0  0  0
  -27.7530   -0.9847   -8.7671 C   0  0  0  0  0  0  0  0  0  0  0  0
  -27.8493   -1.9695   -9.9083 C   0  0  0  0  0  0  0  0  0  0  0  0
  -26.9036   -1.7040  -11.0525 C   0  0  0  0  0  0  0  0  0  0  0  0
  -25.5144   -1.5718  -10.9425 C   0  0  0  0  0  0  0  0  0  0  0  0
  -24.6991   -1.5467  -12.0834 C   0  0  0  0  0  0  0  0  0  0  0  0
  -25.2613   -1.6289  -13.3559 C   0  0  0  0  0  0  0  0  0  0  0  0
  -26.6409   -1.6937  -13.4933 C   0  0  0  0  0  0  0  0  0  0  0  0
  -27.4437   -1.7211  -12.3548 C   0  0  0  0  0  0  0  0  0  0  0  0
  -27.7794   -1.6599   -5.1715 C   0  0  0  0  0  0  0  0  0  0  0  0
  -27.3172   -0.6032   -5.0979 N   0  0  0  0  0  0  0  0  0  0  0  0
  -28.5820   -9.3019   -5.8966 O   0  0  0  0  0  0  0  0  0  0  0  0
  -27.6336   -9.6892   -4.9032 C   0  0  0  0  0  0  0  0  0  0  0  0
  -26.2854   -9.9454   -5.5783 C   0  0  0  0  0  0  0  0  0  0  0  0
  -25.1456   -9.5937   -4.6237 C   0  0  0  0  0  0  0  0  0  0  0  0
  -23.8325  -10.1936   -5.0353 C   0  0  0  0  0  0  0  0  0  0  0  0
  -23.3257  -10.0207   -6.3255 C   0  0  0  0  0  0  0  0  0  0  0  0
  -22.1134  -10.6085   -6.6732 C   0  0  0  0  0  0  0  0  0  0  0  0
  -21.4426  -11.3464   -5.7124 C   0  0  0  0  0  0  0  0  0  0  0  0
  -21.8940  -11.5276   -4.4532 N   0  0  0  0  0  0  0  0  0  0  0  0
  -23.0743  -10.9464   -4.1436 C   0  0  0  0  0  0  0  0  0  0  0  0
 11 12  1  0  0  0
 12  1  1  0  0  0
  1  2  1  0  0  0
  1 10  2  0  0  0
  2  3  2  0  0  0
  3  4  1  0  0  0
  3  8  1  0  0  0
  4 13  1  0  0  0
  4  5  2  0  0  0
 13 15  1  0  0  0
 13 14  1  0  0  0
 15 16  1  0  0  0
 15 17  1  0  0  0
 16 17  1  0  0  0
 17 18  1  0  0  0
 18 19  1  0  0  0
 18 23  2  0  0  0
 19 20  2  0  0  0
 20 21  1  0  0  0
 21 22  2  0  0  0
 22 23  1  0  0  0
  5 24  1  0  0  0
  5  6  1  0  0  0
 24 25  3  0  0  0
  6  7  2  0  0  0
  7  8  1  0  0  0
  8  9  2  0  0  0
  9 10  1  0  0  0
 10 26  1  0  0  0
 26 27  1  0  0  0
 27 28  1  0  0  0
 28 29  1  0  0  0
 29 30  1  0  0  0
 30 31  1  0  0  0
 30 35  2  0  0  0
 31 32  2  0  0  0
 32 33  1  0  0  0
 33 34  2  0  0  0
 34 35  1  0  0  0
M  END
> <minimizedAffinity>
-8.86094

$$$$
