CHEMBL3746052


 37 41  0  0  0  0  0  0  0  0999 V2000
  -29.2424   -6.0167   -5.9527 C   0  0  0  0  0  0  0  0  0  0  0  0
  -28.7637   -6.0237   -7.2646 C   0  0  0  0  0  0  0  0  0  0  0  0
  -28.4811   -4.8358   -7.9477 C   0  0  0  0  0  0  0  0  0  0  0  0
  -28.7632   -3.6172   -7.3115 C   0  0  0  0  0  0  0  0  0  0  0  0
  -29.3543   -3.5889   -6.0351 C   0  0  0  0  0  0  0  0  0  0  0  0
  -29.5212   -2.2266   -5.6796 C   0  0  0  0  0  0  0  0  0  0  0  0
  -28.9314   -1.4706   -6.6618 C   0  0  0  0  0  0  0  0  0  0  0  0
  -28.4410   -2.3003   -7.6536 N   0  0  0  0  0  0  0  0  0  0  0  0
  -27.5888   -1.8438   -8.6880 C   0  0  0  0  0  0  0  0  0  0  0  0
  -26.7881   -0.9590   -8.4165 O   0  0  0  0  0  0  0  0  0  0  0  0
  -27.8799   -2.3884   -9.9309 N   0  0  0  0  0  0  0  0  0  0  0  0
  -29.6075   -4.8082   -5.3529 C   0  0  0  0  0  0  0  0  0  0  0  0
  -28.8028   -2.7885  -10.0590 H   0  0  0  0  0  0  0  0  0  0  0  0
  -27.1302   -2.0600  -11.0917 C   0  0  0  0  0  0  0  0  0  0  0  0
  -27.7325   -2.0115  -12.3551 C   0  0  0  0  0  0  0  0  0  0  0  0
  -26.9875   -1.7357  -13.5014 C   0  0  0  0  0  0  0  0  0  0  0  0
  -25.6201   -1.5086  -13.4024 C   0  0  0  0  0  0  0  0  0  0  0  0
  -24.9876   -1.5269  -12.1491 C   0  0  0  0  0  0  0  0  0  0  0  0
  -25.7607   -1.7800  -10.9914 C   0  0  0  0  0  0  0  0  0  0  0  0
  -23.4969   -1.3062  -12.0589 C   0  0  0  0  0  0  0  0  0  0  0  0
  -22.8207   -1.6716  -13.1855 F   0  0  0  0  0  0  0  0  0  0  0  0
  -23.1762   -0.0006  -11.8418 F   0  0  0  0  0  0  0  0  0  0  0  0
  -22.9240   -2.0071  -11.0416 F   0  0  0  0  0  0  0  0  0  0  0  0
  -29.3581   -7.1858   -5.2119 O   0  0  0  0  0  0  0  0  0  0  0  0
  -23.3876   -9.7509   -5.8620 C   0  0  0  0  0  0  0  0  0  0  0  0
  -24.4876  -10.6323   -6.3951 C   0  0  0  0  0  0  0  0  0  0  0  0
  -24.3161  -11.2847   -7.4250 O   0  0  0  0  0  0  0  0  0  0  0  0
  -25.6767  -10.6545   -5.6815 N   0  0  0  0  0  0  0  0  0  0  0  0
  -25.9766   -9.8602   -4.4944 C   0  0  0  0  0  0  0  0  0  0  0  0
  -26.8878   -8.6881   -4.8791 C   0  0  0  0  0  0  0  0  0  0  0  0
  -28.0544   -9.1437   -5.7141 C   0  0  0  0  0  0  0  0  0  0  0  0
  -28.0207  -10.3616   -6.3974 C   0  0  0  0  0  0  0  0  0  0  0  0
  -29.0436  -10.8021   -7.1628 N   0  0  0  0  0  0  0  0  0  0  0  0
  -30.0779   -9.9711   -7.3072 C   0  0  0  0  0  0  0  0  0  0  0  0
  -30.1964   -8.7698   -6.7386 N   0  0  0  0  0  0  0  0  0  0  0  0
  -29.2022   -8.3876   -5.9156 C   0  0  0  0  0  0  0  0  0  0  0  0
  -26.8371  -11.3069   -6.2719 C   0  0  0  0  0  0  0  0  0  0  0  0
 25 26  1  0  0  0
 26 27  2  0  0  0
 26 28  1  0  0  0
 28 29  1  0  0  0
 28 37  1  0  0  0
 29 30  1  0  0  0
 30 31  1  0  0  0
 31 32  1  0  0  0
 31 36  2  0  0  0
 32 33  2  0  0  0
 32 37  1  0  0  0
 33 34  1  0  0  0
 34 35  2  0  0  0
 35 36  1  0  0  0
 36 24  1  0  0  0
 24  1  1  0  0  0
  1  2  1  0  0  0
  1 12  2  0  0  0
  2  3  2  0  0  0
  3  4  1  0  0  0
  4  5  2  0  0  0
  4  8  1  0  0  0
  5  6  1  0  0  0
  5 12  1  0  0  0
  6  7  2  0  0  0
  7  8  1  0  0  0
  8  9  1  0  0  0
  9 10  2  0  0  0
  9 11  1  0  0  0
 11 14  1  0  0  0
 11 13  1  0  0  0
 14 15  1  0  0  0
 14 19  2  0  0  0
 15 16  2  0  0  0
 16 17  1  0  0  0
 17 18  2  0  0  0
 18 20  1  0  0  0
 18 19  1  0  0  0
 20 21  1  0  0  0
 20 22  1  0  0  0
 20 23  1  0  0  0
M  END
> <minimizedAffinity>
-11.28748

$$$$
