CHEMBL98475


 25 28  0  0  0  0  0  0  0  0999 V2000
  -30.1750   -7.5835   -4.5852 N   0  0  0  0  0  0  0  0  0  0  0  0
  -30.4553   -8.0664   -3.7431 H   0  0  0  0  0  0  0  0  0  0  0  0
  -29.8757   -6.2343   -4.3251 C   0  0  0  0  0  0  0  0  0  0  0  0
  -30.8848   -5.2703   -4.2911 C   0  0  0  0  0  0  0  0  0  0  0  0
  -30.5708   -3.9280   -4.2083 C   0  0  0  0  0  0  0  0  0  0  0  0
  -29.2499   -3.5438   -4.0381 C   0  0  0  0  0  0  0  0  0  0  0  0
  -28.3027   -4.5656   -3.9966 C   0  0  0  0  0  0  0  0  0  0  0  0
  -28.5855   -5.8922   -4.1356 N   0  0  0  0  0  0  0  0  0  0  0  0
  -28.8977   -2.0878   -3.8991 C   0  0  0  0  0  0  0  0  0  0  0  0
  -28.7058   -1.3176   -5.1341 N   0  0  0  0  0  0  0  0  0  0  0  0
  -27.5707   -0.3966   -5.1126 C   0  0  0  0  0  0  0  0  0  0  0  0
  -28.1592    0.9686   -4.8150 C   0  0  0  0  0  0  0  0  0  0  0  0
  -29.5286    0.9247   -5.4657 C   0  0  0  0  0  0  0  0  0  0  0  0
  -29.8673   -0.5552   -5.6044 C   0  0  0  0  0  0  0  0  0  0  0  0
  -28.7648   -9.1400   -7.7299 C   0  0  0  0  0  0  0  0  0  0  0  0
  -28.3192   -9.7879   -6.5994 C   0  0  0  0  0  0  0  0  0  0  0  0
  -28.8033   -9.3138   -5.4174 N   0  0  0  0  0  0  0  0  0  0  0  0
  -29.5957   -8.2792   -5.5950 C   0  0  0  0  0  0  0  0  0  0  0  0
  -29.8434   -7.8819   -7.2569 S   0  0  0  0  0  0  0  0  0  0  0  0
  -27.7583   -9.9975  -11.7909 C   0  0  0  0  0  0  0  0  0  0  0  0
  -26.8499   -9.3503  -10.9611 C   0  0  0  0  0  0  0  0  0  0  0  0
  -27.1935   -9.0821   -9.6369 C   0  0  0  0  0  0  0  0  0  0  0  0
  -28.4467   -9.4596   -9.1211 C   0  0  0  0  0  0  0  0  0  0  0  0
  -29.3576  -10.0916   -9.9745 C   0  0  0  0  0  0  0  0  0  0  0  0
  -29.0117  -10.3631  -11.3013 C   0  0  0  0  0  0  0  0  0  0  0  0
 20 21  1  0  0  0
 20 25  2  0  0  0
 21 22  2  0  0  0
 22 23  1  0  0  0
 23 15  1  0  0  0
 23 24  2  0  0  0
 15 16  2  0  0  0
 15 19  1  0  0  0
 16 17  1  0  0  0
 17 18  2  0  0  0
 18  1  1  0  0  0
 18 19  1  0  0  0
  1  3  1  0  0  0
  1  2  1  0  0  0
  3  4  1  0  0  0
  3  8  2  0  0  0
  4  5  2  0  0  0
  5  6  1  0  0  0
  6  9  1  0  0  0
  6  7  2  0  0  0
  9 10  1  0  0  0
 10 11  1  0  0  0
 10 14  1  0  0  0
 11 12  1  0  0  0
 12 13  1  0  0  0
 13 14  1  0  0  0
  7  8  1  0  0  0
 24 25  1  0  0  0
M  END
> <minimizedAffinity>
-8.05092

$$$$
