CHEMBL3397946


 35 37  0  0  0  0  0  0  0  0999 V2000
  -29.4966   -5.1689   -5.8578 C   0  0  0  0  0  0  0  0  0  0  0  0
  -29.1405   -5.5287   -7.1566 C   0  0  0  0  0  0  0  0  0  0  0  0
  -28.6814   -4.5621   -8.0426 C   0  0  0  0  0  0  0  0  0  0  0  0
  -28.5540   -3.2133   -7.6475 C   0  0  0  0  0  0  0  0  0  0  0  0
  -28.9414   -2.7867   -6.3406 C   0  0  0  0  0  0  0  0  0  0  0  0
  -29.4297   -3.8095   -5.4784 C   0  0  0  0  0  0  0  0  0  0  0  0
  -29.8852   -3.5422   -4.2027 O   0  0  0  0  0  0  0  0  0  0  0  0
  -30.1395   -2.6091   -4.1328 H   0  0  0  0  0  0  0  0  0  0  0  0
  -28.8463   -1.3624   -5.8842 C   0  0  0  0  0  0  0  0  0  0  0  0
  -27.6974   -0.8525   -5.2496 C   0  0  0  0  0  0  0  0  0  0  0  0
  -27.6263    0.4731   -4.8028 C   0  0  0  0  0  0  0  0  0  0  0  0
  -28.6724    1.3560   -5.0516 C   0  0  0  0  0  0  0  0  0  0  0  0
  -29.7958    0.8902   -5.7161 C   0  0  0  0  0  0  0  0  0  0  0  0
  -30.8264    1.7228   -6.0405 O   0  0  0  0  0  0  0  0  0  0  0  0
  -29.9055   -0.4514   -6.0839 C   0  0  0  0  0  0  0  0  0  0  0  0
  -30.5963    2.6248   -5.7627 H   0  0  0  0  0  0  0  0  0  0  0  0
  -27.8564   -2.3217   -8.6165 C   0  0  0  0  0  0  0  0  0  0  0  0
  -27.9316   -1.1057   -8.4499 O   0  0  0  0  0  0  0  0  0  0  0  0
  -27.1957   -2.9499   -9.6688 N   0  0  0  0  0  0  0  0  0  0  0  0
  -27.4092   -3.9241   -9.8397 H   0  0  0  0  0  0  0  0  0  0  0  0
  -26.5827   -2.2316  -10.7235 C   0  0  0  0  0  0  0  0  0  0  0  0
  -27.1513   -2.1549  -11.9973 C   0  0  0  0  0  0  0  0  0  0  0  0
  -26.4736   -1.5175  -13.0469 C   0  0  0  0  0  0  0  0  0  0  0  0
  -25.2121   -0.9687  -12.8307 C   0  0  0  0  0  0  0  0  0  0  0  0
  -24.6515   -1.0287  -11.5542 C   0  0  0  0  0  0  0  0  0  0  0  0
  -25.3498   -1.6205  -10.4922 C   0  0  0  0  0  0  0  0  0  0  0  0
  -24.4215   -0.4168  -13.8029 O   0  0  0  0  0  0  0  0  0  0  0  0
  -23.0119   -0.6044  -13.6301 C   0  0  0  0  0  0  0  0  0  0  0  0
  -22.3402    0.7650  -13.6775 C   0  0  0  0  0  0  0  0  0  0  0  0
  -21.1986    0.8272  -14.6988 C   0  0  0  0  0  0  0  0  0  0  0  0
  -20.0698    1.6835  -14.2959 N   0  0  0  0  0  0  0  0  0  0  0  0
  -18.8284    1.3216  -14.9841 C   0  0  0  0  0  0  0  0  0  0  0  0
  -20.3848    3.0911  -14.5555 C   0  0  0  0  0  0  0  0  0  0  0  0
  -29.3472   -7.3410   -4.8599 C   0  0  0  0  0  0  0  0  0  0  0  0
  -29.9189   -6.0430   -4.8867 O   0  0  0  0  0  0  0  0  0  0  0  0
 34 35  1  0  0  0
 35  1  1  0  0  0
  1  2  1  0  0  0
  1  6  2  0  0  0
  2  3  2  0  0  0
  3  4  1  0  0  0
  4 17  1  0  0  0
  4  5  2  0  0  0
 17 18  2  0  0  0
 17 19  1  0  0  0
 19 21  1  0  0  0
 19 20  1  0  0  0
 21 22  1  0  0  0
 21 26  2  0  0  0
 22 23  2  0  0  0
 23 24  1  0  0  0
 24 27  1  0  0  0
 24 25  2  0  0  0
 27 28  1  0  0  0
 28 29  1  0  0  0
 29 30  1  0  0  0
 30 31  1  0  0  0
 31 32  1  0  0  0
 31 33  1  0  0  0
 25 26  1  0  0  0
  5  9  1  0  0  0
  5  6  1  0  0  0
  9 10  1  0  0  0
  9 15  2  0  0  0
 10 11  2  0  0  0
 11 12  1  0  0  0
 12 13  2  0  0  0
 13 14  1  0  0  0
 13 15  1  0  0  0
 14 16  1  0  0  0
  6  7  1  0  0  0
  7  8  1  0  0  0
M  END
> <minimizedAffinity>
-9.31699

$$$$
