CHEMBL3961982


 32 35  0  0  0  0  0  0  0  0999 V2000
  -29.4830   -5.3716   -7.0569 C   0  0  0  0  0  0  0  0  0  0  0  0
  -29.0566   -4.4395   -8.0115 C   0  0  0  0  0  0  0  0  0  0  0  0
  -28.5721   -3.1612   -7.6373 C   0  0  0  0  0  0  0  0  0  0  0  0
  -28.1656   -2.1358   -8.5086 C   0  0  0  0  0  0  0  0  0  0  0  0
  -27.6909   -0.9564   -8.0525 N   0  0  0  0  0  0  0  0  0  0  0  0
  -27.6186   -0.7948   -6.7330 C   0  0  0  0  0  0  0  0  0  0  0  0
  -27.9755   -1.6975   -5.8213 N   0  0  0  0  0  0  0  0  0  0  0  0
  -28.4423   -2.8569   -6.2830 C   0  0  0  0  0  0  0  0  0  0  0  0
  -28.8222   -3.8037   -5.3535 C   0  0  0  0  0  0  0  0  0  0  0  0
  -29.3915   -5.0458   -5.7013 C   0  0  0  0  0  0  0  0  0  0  0  0
  -28.9400   -7.4232   -8.1712 C   0  0  0  0  0  0  0  0  0  0  0  0
  -29.9057   -6.5476   -7.6119 O   0  0  0  0  0  0  0  0  0  0  0  0
  -28.2534   -2.3211   -9.9129 N   0  0  0  0  0  0  0  0  0  0  0  0
  -29.1701   -2.0285  -10.2384 H   0  0  0  0  0  0  0  0  0  0  0  0
  -27.2072   -1.9855  -10.7998 C   0  0  0  0  0  0  0  0  0  0  0  0
  -25.9451   -1.6357  -10.2933 C   0  0  0  0  0  0  0  0  0  0  0  0
  -24.9184   -1.2119  -11.1409 C   0  0  0  0  0  0  0  0  0  0  0  0
  -25.1448   -1.1425  -12.5127 C   0  0  0  0  0  0  0  0  0  0  0  0
  -23.8538   -0.5630  -13.5061 Cl  0  0  0  0  0  0  0  0  0  0  0  0
  -26.3860   -1.5225  -13.0363 C   0  0  0  0  0  0  0  0  0  0  0  0
  -26.7293   -1.4653  -14.7305 Cl  0  0  0  0  0  0  0  0  0  0  0  0
  -27.4102   -1.9512  -12.1808 C   0  0  0  0  0  0  0  0  0  0  0  0
  -29.8320   -5.9304   -4.7375 O   0  0  0  0  0  0  0  0  0  0  0  0
  -28.7667   -6.5025   -3.9669 C   0  0  0  0  0  0  0  0  0  0  0  0
  -28.2576   -7.8277   -4.4736 C   0  0  0  0  0  0  0  0  0  0  0  0
  -26.9069   -8.1821   -4.4356 C   0  0  0  0  0  0  0  0  0  0  0  0
  -26.5206   -9.4726   -4.8058 C   0  0  0  0  0  0  0  0  0  0  0  0
  -24.6935   -9.9591   -4.7282 Br  0  0  0  0  0  0  0  0  0  0  0  0
  -27.4642  -10.4196   -5.2122 C   0  0  0  0  0  0  0  0  0  0  0  0
  -28.8071  -10.0676   -5.2442 C   0  0  0  0  0  0  0  0  0  0  0  0
  -30.1109  -11.3356   -5.7587 Br  0  0  0  0  0  0  0  0  0  0  0  0
  -29.2066   -8.7855   -4.8777 C   0  0  0  0  0  0  0  0  0  0  0  0
 11 12  1  0  0  0
 12  1  1  0  0  0
  1  2  1  0  0  0
  1 10  2  0  0  0
  2  3  2  0  0  0
  3  4  1  0  0  0
  3  8  1  0  0  0
  4 13  1  0  0  0
  4  5  2  0  0  0
 13 15  1  0  0  0
 13 14  1  0  0  0
 15 16  1  0  0  0
 15 22  2  0  0  0
 16 17  2  0  0  0
 17 18  1  0  0  0
 18 19  1  0  0  0
 18 20  2  0  0  0
 20 21  1  0  0  0
 20 22  1  0  0  0
  5  6  1  0  0  0
  6  7  2  0  0  0
  7  8  1  0  0  0
  8  9  2  0  0  0
  9 10  1  0  0  0
 10 23  1  0  0  0
 23 24  1  0  0  0
 24 25  1  0  0  0
 25 26  1  0  0  0
 25 32  2  0  0  0
 26 27  2  0  0  0
 27 28  1  0  0  0
 27 29  1  0  0  0
 29 30  2  0  0  0
 30 31  1  0  0  0
 30 32  1  0  0  0
M  END
> <minimizedAffinity>
-8.42282

$$$$
