CHEMBL2336005


 32 36  0  0  0  0  0  0  0  0999 V2000
  -29.6074   -3.6999   -3.6783 C   0  0  0  0  0  0  0  0  0  0  0  0
  -30.9595   -3.4897   -3.3847 C   0  0  0  0  0  0  0  0  0  0  0  0
  -31.8194   -4.5655   -3.2880 C   0  0  0  0  0  0  0  0  0  0  0  0
  -31.4721   -5.8467   -3.4758 N   0  0  0  0  0  0  0  0  0  0  0  0
  -30.1679   -6.0560   -3.8101 C   0  0  0  0  0  0  0  0  0  0  0  0
  -29.6052   -7.3308   -4.0658 C   0  0  0  0  0  0  0  0  0  0  0  0
  -28.2635   -7.2919   -4.4082 C   0  0  0  0  0  0  0  0  0  0  0  0
  -27.6965   -5.6738   -4.3939 S   0  0  0  0  0  0  0  0  0  0  0  0
  -29.2330   -5.0330   -3.9318 C   0  0  0  0  0  0  0  0  0  0  0  0
  -27.3968   -8.4361   -4.7621 C   0  0  0  0  0  0  0  0  0  0  0  0
  -26.1603   -8.6725   -4.1453 C   0  0  0  0  0  0  0  0  0  0  0  0
  -25.3157   -9.6892   -4.6059 C   0  0  0  0  0  0  0  0  0  0  0  0
  -25.6646  -10.4441   -5.7275 C   0  0  0  0  0  0  0  0  0  0  0  0
  -26.8790  -10.2132   -6.3850 C   0  0  0  0  0  0  0  0  0  0  0  0
  -27.7609   -9.2612   -5.8447 C   0  0  0  0  0  0  0  0  0  0  0  0
  -27.1823  -10.8325   -7.7396 C   0  0  0  0  0  0  0  0  0  0  0  0
  -26.9636   -9.9725   -8.9092 N   0  0  0  0  0  0  0  0  0  0  0  0
  -27.9942   -8.9258   -9.0708 C   0  0  0  0  0  0  0  0  0  0  0  0
  -29.3699   -9.4605   -9.5027 C   0  0  0  0  0  0  0  0  0  0  0  0
  -29.2839  -10.1867  -10.7332 O   0  0  0  0  0  0  0  0  0  0  0  0
  -28.3285  -11.2498  -10.6594 C   0  0  0  0  0  0  0  0  0  0  0  0
  -26.9486  -10.7732  -10.1599 C   0  0  0  0  0  0  0  0  0  0  0  0
  -28.7000   -2.6189   -3.7639 N   0  0  0  0  0  0  0  0  0  0  0  0
  -28.5271   -2.1773   -2.8632 H   0  0  0  0  0  0  0  0  0  0  0  0
  -27.2095   -1.7383   -8.2220 O   0  0  0  0  0  0  0  0  0  0  0  0
  -27.7909   -1.2589   -7.0849 C   0  0  0  0  0  0  0  0  0  0  0  0
  -28.2368    0.0559   -7.0028 C   0  0  0  0  0  0  0  0  0  0  0  0
  -28.8196    0.5034   -5.8197 C   0  0  0  0  0  0  0  0  0  0  0  0
  -28.9676   -0.3702   -4.7396 C   0  0  0  0  0  0  0  0  0  0  0  0
  -28.5448   -1.7037   -4.8277 C   0  0  0  0  0  0  0  0  0  0  0  0
  -27.9307   -2.1326   -6.0088 C   0  0  0  0  0  0  0  0  0  0  0  0
  -27.1993   -1.0304   -8.8868 H   0  0  0  0  0  0  0  0  0  0  0  0
 25 26  1  0  0  0
 25 32  1  0  0  0
 26 27  1  0  0  0
 26 31  2  0  0  0
 27 28  2  0  0  0
 28 29  1  0  0  0
 29 30  2  0  0  0
 30 23  1  0  0  0
 30 31  1  0  0  0
 23  1  1  0  0  0
 23 24  1  0  0  0
  1  2  1  0  0  0
  1  9  2  0  0  0
  2  3  2  0  0  0
  3  4  1  0  0  0
  4  5  2  0  0  0
  5  6  1  0  0  0
  5  9  1  0  0  0
  6  7  2  0  0  0
  7 10  1  0  0  0
  7  8  1  0  0  0
 10 11  1  0  0  0
 10 15  2  0  0  0
 11 12  2  0  0  0
 12 13  1  0  0  0
 13 14  2  0  0  0
 14 16  1  0  0  0
 14 15  1  0  0  0
 16 17  1  0  0  0
 17 18  1  0  0  0
 17 22  1  0  0  0
 18 19  1  0  0  0
 19 20  1  0  0  0
 20 21  1  0  0  0
 21 22  1  0  0  0
  8  9  1  0  0  0
M  END
> <minimizedAffinity>
-9.03669

$$$$
