CHEMBL248108


 38 43  0  0  0  0  0  0  0  0999 V2000
  -29.5240   -3.5357   -6.7389 C   0  0  0  0  0  0  0  0  0  0  0  0
  -30.1849   -3.5027   -5.4637 C   0  0  0  0  0  0  0  0  0  0  0  0
  -29.8742   -2.3146   -4.8565 C   0  0  0  0  0  0  0  0  0  0  0  0
  -29.0762   -1.6084   -5.7060 N   0  0  0  0  0  0  0  0  0  0  0  0
  -28.4891   -0.4511   -5.3809 N   0  0  0  0  0  0  0  0  0  0  0  0
  -27.8090    0.0677   -6.3471 C   0  0  0  0  0  0  0  0  0  0  0  0
  -27.7284   -0.4006   -7.6232 N   0  0  0  0  0  0  0  0  0  0  0  0
  -28.2928   -1.5259   -7.9673 C   0  0  0  0  0  0  0  0  0  0  0  0
  -28.9580   -2.2640   -6.9101 C   0  0  0  0  0  0  0  0  0  0  0  0
  -28.2560   -1.9359   -9.2875 N   0  0  0  0  0  0  0  0  0  0  0  0
  -29.0477   -2.4620   -9.6222 H   0  0  0  0  0  0  0  0  0  0  0  0
  -27.2237   -1.7554  -10.2443 C   0  0  0  0  0  0  0  0  0  0  0  0
  -25.8563   -1.6914   -9.9300 C   0  0  0  0  0  0  0  0  0  0  0  0
  -24.8446   -1.6051  -10.9115 C   0  0  0  0  0  0  0  0  0  0  0  0
  -25.2448   -1.5861  -12.2522 C   0  0  0  0  0  0  0  0  0  0  0  0
  -26.5898   -1.6418  -12.6068 C   0  0  0  0  0  0  0  0  0  0  0  0
  -26.5908   -1.6145  -14.0155 C   0  0  0  0  0  0  0  0  0  0  0  0
  -25.3662   -1.5207  -14.5346 N   0  0  0  0  0  0  0  0  0  0  0  0
  -24.5557   -1.5248  -13.4474 N   0  0  0  0  0  0  0  0  0  0  0  0
  -27.5804   -1.7198  -11.6032 C   0  0  0  0  0  0  0  0  0  0  0  0
  -23.1139   -1.4073  -13.6524 C   0  0  0  0  0  0  0  0  0  0  0  0
  -22.6751    0.0270  -13.8354 C   0  0  0  0  0  0  0  0  0  0  0  0
  -23.4499    1.0905  -13.3384 C   0  0  0  0  0  0  0  0  0  0  0  0
  -23.0771    2.4182  -13.5672 C   0  0  0  0  0  0  0  0  0  0  0  0
  -21.9125    2.6995  -14.2763 C   0  0  0  0  0  0  0  0  0  0  0  0
  -21.1164    1.6520  -14.7221 C   0  0  0  0  0  0  0  0  0  0  0  0
  -19.9841    1.9210  -15.3853 F   0  0  0  0  0  0  0  0  0  0  0  0
  -21.4793    0.3255  -14.5027 C   0  0  0  0  0  0  0  0  0  0  0  0
  -29.5611   -4.7586   -7.6154 C   0  0  0  0  0  0  0  0  0  0  0  0
  -29.0600   -9.3497   -6.1056 N   0  0  0  0  0  0  0  0  0  0  0  0
  -30.0041   -8.2777   -6.4371 C   0  0  0  0  0  0  0  0  0  0  0  0
  -29.8317   -7.8344   -7.8942 C   0  0  0  0  0  0  0  0  0  0  0  0
  -28.5952   -6.9477   -8.1052 C   0  0  0  0  0  0  0  0  0  0  0  0
  -28.5454   -5.7579   -7.2294 N   0  0  0  0  0  0  0  0  0  0  0  0
  -28.6043   -6.2294   -5.8289 C   0  0  0  0  0  0  0  0  0  0  0  0
  -29.8340   -7.0835   -5.4919 C   0  0  0  0  0  0  0  0  0  0  0  0
  -29.1608  -10.1172   -6.7698 H   0  0  0  0  0  0  0  0  0  0  0  0
  -29.2974   -9.7419   -5.1936 H   0  0  0  0  0  0  0  0  0  0  0  0
 30 31  1  0  0  0
 30 37  1  0  0  0
 30 38  1  0  0  0
 31 32  1  0  0  0
 31 36  1  0  0  0
 32 33  1  0  0  0
 33 34  1  0  0  0
 34 29  1  0  0  0
 34 35  1  0  0  0
 29  1  1  0  0  0
  1  2  1  0  0  0
  1  9  2  0  0  0
  2  3  2  0  0  0
  3  4  1  0  0  0
  4  5  1  0  0  0
  4  9  1  0  0  0
  5  6  2  0  0  0
  6  7  1  0  0  0
  7  8  2  0  0  0
  8 10  1  0  0  0
  8  9  1  0  0  0
 10 12  1  0  0  0
 10 11  1  0  0  0
 12 13  1  0  0  0
 12 20  2  0  0  0
 13 14  2  0  0  0
 14 15  1  0  0  0
 15 16  2  0  0  0
 15 19  1  0  0  0
 16 17  1  0  0  0
 16 20  1  0  0  0
 17 18  2  0  0  0
 18 19  1  0  0  0
 19 21  1  0  0  0
 21 22  1  0  0  0
 22 23  1  0  0  0
 22 28  2  0  0  0
 23 24  2  0  0  0
 24 25  1  0  0  0
 25 26  2  0  0  0
 26 27  1  0  0  0
 26 28  1  0  0  0
 35 36  1  0  0  0
M  END
> <minimizedAffinity>
-10.09481

$$$$
