CHEMBL3639935


 34 37  0  0  0  0  0  0  0  0999 V2000
  -14.2892   -2.7401  -11.5874 C   0  0  0  0  0  0  0  0  0  0  0  0
  -15.5423   -1.9717  -11.6509 C   0  0  0  0  0  0  0  0  0  0  0  0
  -15.7796   -1.1286  -12.6691 C   0  0  0  0  0  0  0  0  0  0  0  0
  -14.8172   -0.9505  -13.6664 N   0  0  0  0  0  0  0  0  0  0  0  0
  -14.7759   -0.1058  -14.7809 C   0  0  0  0  0  0  0  0  0  0  0  0
  -13.5930   -0.4628  -15.4146 C   0  0  0  0  0  0  0  0  0  0  0  0
  -12.9009   -1.4244  -14.7294 N   0  0  0  0  0  0  0  0  0  0  0  0
  -13.6312   -1.6841  -13.6695 C   0  0  0  0  0  0  0  0  0  0  0  0
  -13.3903   -2.5884  -12.5905 C   0  0  0  0  0  0  0  0  0  0  0  0
  -12.5414   -5.6884   -7.7603 N   0  0  0  0  0  0  0  0  0  0  0  0
  -13.2420   -5.0542   -8.7177 C   0  0  0  0  0  0  0  0  0  0  0  0
  -14.5044   -5.2810   -8.9875 N   0  0  0  0  0  0  0  0  0  0  0  0
  -14.9762   -4.4867  -10.0102 N   0  0  0  0  0  0  0  0  0  0  0  0
  -14.0549   -3.6873  -10.5246 C   0  0  0  0  0  0  0  0  0  0  0  0
  -12.5280   -3.8574   -9.7155 S   0  0  0  0  0  0  0  0  0  0  0  0
  -12.9478   -6.5461   -7.3978 H   0  0  0  0  0  0  0  0  0  0  0  0
  -11.5309   -5.6898   -7.8121 H   0  0  0  0  0  0  0  0  0  0  0  0
  -15.7435    0.9486  -15.1415 C   0  0  0  0  0  0  0  0  0  0  0  0
  -15.4530    1.8568  -16.1668 C   0  0  0  0  0  0  0  0  0  0  0  0
  -16.3466    2.8643  -16.5080 C   0  0  0  0  0  0  0  0  0  0  0  0
  -17.5865    2.9368  -15.8828 C   0  0  0  0  0  0  0  0  0  0  0  0
  -17.9621    2.0033  -14.9169 C   0  0  0  0  0  0  0  0  0  0  0  0
  -17.0180    1.0284  -14.5281 C   0  0  0  0  0  0  0  0  0  0  0  0
  -19.2529    2.0040  -14.3276 N   0  0  0  0  0  0  0  0  0  0  0  0
  -20.2743    1.1164  -14.5990 C   0  0  0  0  0  0  0  0  0  0  0  0
  -20.2481    0.1836  -15.3921 O   0  0  0  0  0  0  0  0  0  0  0  0
  -21.4274    1.3985  -13.9023 N   0  0  0  0  0  0  0  0  0  0  0  0
  -19.4270    2.6965  -13.6135 H   0  0  0  0  0  0  0  0  0  0  0  0
  -21.3142    1.7963  -12.9804 H   0  0  0  0  0  0  0  0  0  0  0  0
  -22.5916    0.5226  -14.1139 C   0  0  0  0  0  0  0  0  0  0  0  0
  -23.1032   -0.2362  -12.8754 C   0  0  0  0  0  0  0  0  0  0  0  0
  -23.3223   -1.5463  -13.1332 F   0  0  0  0  0  0  0  0  0  0  0  0
  -22.1683   -0.1849  -11.8916 F   0  0  0  0  0  0  0  0  0  0  0  0
  -24.2378    0.2926  -12.3731 F   0  0  0  0  0  0  0  0  0  0  0  0
 10 11  1  0  0  0
 10 16  1  0  0  0
 10 17  1  0  0  0
 11 12  2  0  0  0
 11 15  1  0  0  0
 12 13  1  0  0  0
 13 14  2  0  0  0
 14  1  1  0  0  0
 14 15  1  0  0  0
  1  2  1  0  0  0
  1  9  2  0  0  0
  2  3  2  0  0  0
  3  4  1  0  0  0
  4  5  1  0  0  0
  4  8  1  0  0  0
  5 18  1  0  0  0
  5  6  2  0  0  0
 18 19  1  0  0  0
 18 23  2  0  0  0
 19 20  2  0  0  0
 20 21  1  0  0  0
 21 22  2  0  0  0
 22 24  1  0  0  0
 22 23  1  0  0  0
 24 25  1  0  0  0
 24 28  1  0  0  0
 25 26  2  0  0  0
 25 27  1  0  0  0
 27 30  1  0  0  0
 27 29  1  0  0  0
 30 31  1  0  0  0
 31 32  1  0  0  0
 31 33  1  0  0  0
 31 34  1  0  0  0
  6  7  1  0  0  0
  7  8  2  0  0  0
  8  9  1  0  0  0
M  END
> <minimizedAffinity>
-9.44702

$$$$
