CHEMBL3676382


 40 42  0  0  0  0  0  0  0  0999 V2000
  -28.5380   -9.5366   -9.0736 C   0  0  0  0  0  0  0  0  0  0  0  0
  -28.8155   -8.3084   -8.4758 C   0  0  0  0  0  0  0  0  0  0  0  0
  -28.6817   -8.1424   -7.0796 C   0  0  0  0  0  0  0  0  0  0  0  0
  -29.0473   -6.9809   -6.3768 C   0  0  0  0  0  0  0  0  0  0  0  0
  -28.8532   -6.8573   -5.0521 N   0  0  0  0  0  0  0  0  0  0  0  0
  -28.3264   -7.9081   -4.4206 C   0  0  0  0  0  0  0  0  0  0  0  0
  -27.9895   -9.0754   -4.9795 N   0  0  0  0  0  0  0  0  0  0  0  0
  -28.1716   -9.1902   -6.3003 C   0  0  0  0  0  0  0  0  0  0  0  0
  -27.8443  -10.3884   -6.9297 C   0  0  0  0  0  0  0  0  0  0  0  0
  -28.0006  -10.5812   -8.3102 C   0  0  0  0  0  0  0  0  0  0  0  0
  -27.8454   -9.7068  -11.3665 C   0  0  0  0  0  0  0  0  0  0  0  0
  -26.6501   -9.6144  -11.1322 O   0  0  0  0  0  0  0  0  0  0  0  0
  -28.8733   -9.6920  -10.4375 N   0  0  0  0  0  0  0  0  0  0  0  0
  -29.5708  -10.3964  -10.6328 H   0  0  0  0  0  0  0  0  0  0  0  0
  -27.7146   -9.4607  -13.8212 C   0  0  0  0  0  0  0  0  0  0  0  0
  -28.3703   -9.9153  -12.7479 C   0  0  0  0  0  0  0  0  0  0  0  0
  -29.6945   -5.9197   -7.0819 N   0  0  0  0  0  0  0  0  0  0  0  0
  -30.6821   -6.1065   -7.0525 H   0  0  0  0  0  0  0  0  0  0  0  0
  -29.3563   -4.5512   -6.9601 C   0  0  0  0  0  0  0  0  0  0  0  0
  -28.4542   -4.0378   -7.9205 C   0  0  0  0  0  0  0  0  0  0  0  0
  -27.9678   -2.7225   -7.9221 C   0  0  0  0  0  0  0  0  0  0  0  0
  -28.4383   -1.8606   -6.9385 C   0  0  0  0  0  0  0  0  0  0  0  0
  -27.9666   -0.2105   -6.7409 Cl  0  0  0  0  0  0  0  0  0  0  0  0
  -29.3819   -2.3291   -6.0102 C   0  0  0  0  0  0  0  0  0  0  0  0
  -29.8527   -3.6570   -6.0016 C   0  0  0  0  0  0  0  0  0  0  0  0
  -27.0864   -2.5307   -8.9462 O   0  0  0  0  0  0  0  0  0  0  0  0
  -27.4286   -1.7214  -10.0539 C   0  0  0  0  0  0  0  0  0  0  0  0
  -30.7595   -3.8289   -4.9932 O   0  0  0  0  0  0  0  0  0  0  0  0
  -30.4034   -3.6940   -3.6336 C   0  0  0  0  0  0  0  0  0  0  0  0
  -27.5735  -11.8084   -8.7642 O   0  0  0  0  0  0  0  0  0  0  0  0
  -26.4843  -12.3969   -8.0432 C   0  0  0  0  0  0  0  0  0  0  0  0
  -25.1377  -11.8160   -8.4950 C   0  0  0  0  0  0  0  0  0  0  0  0
  -24.0866  -12.0358   -7.5077 N   0  0  0  0  0  0  0  0  0  0  0  0
  -23.7503  -11.0577   -6.5887 C   0  0  0  0  0  0  0  0  0  0  0  0
  -24.3821  -10.0145   -6.4648 O   0  0  0  0  0  0  0  0  0  0  0  0
  -23.4074  -12.7740   -7.6601 H   0  0  0  0  0  0  0  0  0  0  0  0
  -22.4941  -11.3583   -5.7578 C   0  0  0  0  0  0  0  0  0  0  0  0
  -22.7877  -11.3163   -4.3021 N   0  0  0  0  0  0  0  0  0  0  0  0
  -23.7672  -12.3486   -3.9374 C   0  0  0  0  0  0  0  0  0  0  0  0
  -21.5491  -11.5572   -3.5485 C   0  0  0  0  0  0  0  0  0  0  0  0
 15 16  2  0  0  0
 16 11  1  0  0  0
 11 12  2  0  0  0
 11 13  1  0  0  0
 13  1  1  0  0  0
 13 14  1  0  0  0
  1  2  1  0  0  0
  1 10  2  0  0  0
  2  3  2  0  0  0
  3  4  1  0  0  0
  3  8  1  0  0  0
  4 17  1  0  0  0
  4  5  2  0  0  0
 17 19  1  0  0  0
 17 18  1  0  0  0
 19 20  1  0  0  0
 19 25  2  0  0  0
 20 21  2  0  0  0
 21 26  1  0  0  0
 21 22  1  0  0  0
 26 27  1  0  0  0
 22 23  1  0  0  0
 22 24  2  0  0  0
 24 25  1  0  0  0
 25 28  1  0  0  0
 28 29  1  0  0  0
  5  6  1  0  0  0
  6  7  2  0  0  0
  7  8  1  0  0  0
  8  9  2  0  0  0
  9 10  1  0  0  0
 10 30  1  0  0  0
 30 31  1  0  0  0
 31 32  1  0  0  0
 32 33  1  0  0  0
 33 34  1  0  0  0
 33 36  1  0  0  0
 34 35  2  0  0  0
 34 37  1  0  0  0
 37 38  1  0  0  0
 38 39  1  0  0  0
 38 40  1  0  0  0
M  END
> <minimizedAffinity>
-7.84518

$$$$
