CHEMBL3980166


 46 49  0  0  0  0  0  0  0  0999 V2000
  -21.8027    0.9535  -14.2881 C   0  0  0  0  0  0  0  0  0  0  0  0
  -22.7548    1.9184  -13.9537 C   0  0  0  0  0  0  0  0  0  0  0  0
  -22.3746    3.2439  -13.8930 C   0  0  0  0  0  0  0  0  0  0  0  0
  -21.1494    3.7114  -14.1843 N   0  0  0  0  0  0  0  0  0  0  0  0
  -20.2375    2.7823  -14.5766 C   0  0  0  0  0  0  0  0  0  0  0  0
  -18.8984    3.0747  -14.9615 C   0  0  0  0  0  0  0  0  0  0  0  0
  -18.1724    1.9504  -15.3034 C   0  0  0  0  0  0  0  0  0  0  0  0
  -19.1355    0.5397  -15.1706 S   0  0  0  0  0  0  0  0  0  0  0  0
  -20.5203    1.4178  -14.6405 C   0  0  0  0  0  0  0  0  0  0  0  0
  -16.7746    1.9161  -15.7182 C   0  0  0  0  0  0  0  0  0  0  0  0
  -16.2119    2.8792  -16.2389 O   0  0  0  0  0  0  0  0  0  0  0  0
  -16.0969    0.7354  -15.4904 N   0  0  0  0  0  0  0  0  0  0  0  0
  -16.5876   -0.0139  -15.0161 H   0  0  0  0  0  0  0  0  0  0  0  0
  -14.6954    0.5530  -15.8212 C   0  0  0  0  0  0  0  0  0  0  0  0
  -13.9593   -0.3351  -14.8095 C   0  0  0  0  0  0  0  0  0  0  0  0
  -14.7335   -1.4925  -14.4030 N   0  0  0  0  0  0  0  0  0  0  0  0
  -15.4073   -1.5130  -13.2178 C   0  0  0  0  0  0  0  0  0  0  0  0
  -15.4473   -0.5689  -12.4492 O   0  0  0  0  0  0  0  0  0  0  0  0
  -14.7906   -2.3123  -14.9904 H   0  0  0  0  0  0  0  0  0  0  0  0
  -16.0014   -2.7226  -13.0294 O   0  0  0  0  0  0  0  0  0  0  0  0
  -15.5959   -3.5390  -11.8941 C   0  0  0  0  0  0  0  0  0  0  0  0
  -15.7623   -2.7746  -10.5749 C   0  0  0  0  0  0  0  0  0  0  0  0
  -16.5432   -4.7522  -11.8647 C   0  0  0  0  0  0  0  0  0  0  0  0
  -14.1671   -4.0687  -12.0823 C   0  0  0  0  0  0  0  0  0  0  0  0
  -22.0850   -0.3969  -14.3607 O   0  0  0  0  0  0  0  0  0  0  0  0
  -25.4321   -1.8750  -12.3335 C   0  0  0  0  0  0  0  0  0  0  0  0
  -24.1733   -1.8234  -11.7229 C   0  0  0  0  0  0  0  0  0  0  0  0
  -23.0689   -1.3375  -12.4340 C   0  0  0  0  0  0  0  0  0  0  0  0
  -23.2188   -0.8886  -13.7499 C   0  0  0  0  0  0  0  0  0  0  0  0
  -24.4838   -0.8959  -14.3420 C   0  0  0  0  0  0  0  0  0  0  0  0
  -25.5644   -1.4320  -13.6484 C   0  0  0  0  0  0  0  0  0  0  0  0
  -26.7701   -1.4598  -14.2378 F   0  0  0  0  0  0  0  0  0  0  0  0
  -27.8698   -2.5239   -9.7290 N   0  0  0  0  0  0  0  0  0  0  0  0
  -26.6858   -2.0534  -10.2731 C   0  0  0  0  0  0  0  0  0  0  0  0
  -25.8269   -1.4160   -9.6759 O   0  0  0  0  0  0  0  0  0  0  0  0
  -26.5900   -2.3142  -11.6333 N   0  0  0  0  0  0  0  0  0  0  0  0
  -28.5404   -2.9152  -10.3770 H   0  0  0  0  0  0  0  0  0  0  0  0
  -27.4544   -2.1599  -12.1362 H   0  0  0  0  0  0  0  0  0  0  0  0
  -28.1097    0.4236   -5.7562 C   0  0  0  0  0  0  0  0  0  0  0  0
  -28.3777   -0.9006   -6.4119 C   0  0  0  0  0  0  0  0  0  0  0  0
  -28.9615   -1.9320   -5.6702 C   0  0  0  0  0  0  0  0  0  0  0  0
  -29.2486   -3.1462   -6.2802 C   0  0  0  0  0  0  0  0  0  0  0  0
  -28.9411   -3.3456   -7.6228 C   0  0  0  0  0  0  0  0  0  0  0  0
  -29.3782   -4.4919   -8.1558 F   0  0  0  0  0  0  0  0  0  0  0  0
  -28.2942   -2.3584   -8.3827 C   0  0  0  0  0  0  0  0  0  0  0  0
  -28.0461   -1.1197   -7.7654 C   0  0  0  0  0  0  0  0  0  0  0  0
 39 40  1  0  0  0
 40 41  1  0  0  0
 40 46  2  0  0  0
 41 42  2  0  0  0
 42 43  1  0  0  0
 43 44  1  0  0  0
 43 45  2  0  0  0
 45 33  1  0  0  0
 45 46  1  0  0  0
 33 34  1  0  0  0
 33 37  1  0  0  0
 34 35  2  0  0  0
 34 36  1  0  0  0
 36 26  1  0  0  0
 36 38  1  0  0  0
 26 27  1  0  0  0
 26 31  2  0  0  0
 27 28  2  0  0  0
 28 29  1  0  0  0
 29 25  1  0  0  0
 29 30  2  0  0  0
 25  1  1  0  0  0
  1  2  1  0  0  0
  1  9  2  0  0  0
  2  3  2  0  0  0
  3  4  1  0  0  0
  4  5  2  0  0  0
  5  6  1  0  0  0
  5  9  1  0  0  0
  6  7  2  0  0  0
  7 10  1  0  0  0
  7  8  1  0  0  0
 10 11  2  0  0  0
 10 12  1  0  0  0
 12 14  1  0  0  0
 12 13  1  0  0  0
 14 15  1  0  0  0
 15 16  1  0  0  0
 16 17  1  0  0  0
 16 19  1  0  0  0
 17 18  2  0  0  0
 17 20  1  0  0  0
 20 21  1  0  0  0
 21 22  1  0  0  0
 21 23  1  0  0  0
 21 24  1  0  0  0
  8  9  1  0  0  0
 30 31  1  0  0  0
 31 32  1  0  0  0
M  END
> <minimizedAffinity>
-12.12625

$$$$
