CHEMBL428225


 26 29  0  0  0  0  0  0  0  0999 V2000
  -28.5832   -2.8803   -6.9345 C   0  0  0  0  0  0  0  0  0  0  0  0
  -28.8249   -2.3624   -5.7184 N   0  0  0  0  0  0  0  0  0  0  0  0
  -28.3876   -1.0950   -5.8218 N   0  0  0  0  0  0  0  0  0  0  0  0
  -27.8926   -0.7802   -7.0524 C   0  0  0  0  0  0  0  0  0  0  0  0
  -28.0215   -1.9160   -7.8186 C   0  0  0  0  0  0  0  0  0  0  0  0
  -28.4654   -0.4898   -5.0108 H   0  0  0  0  0  0  0  0  0  0  0  0
  -30.5863   -8.4897   -7.8124 C   0  0  0  0  0  0  0  0  0  0  0  0
  -29.3136   -8.6460   -8.3710 C   0  0  0  0  0  0  0  0  0  0  0  0
  -28.4120   -7.5755   -8.4243 C   0  0  0  0  0  0  0  0  0  0  0  0
  -28.8042   -6.3394   -7.8998 C   0  0  0  0  0  0  0  0  0  0  0  0
  -28.1131   -5.1598   -7.8562 N   0  0  0  0  0  0  0  0  0  0  0  0
  -28.9082   -4.3074   -7.2414 C   0  0  0  0  0  0  0  0  0  0  0  0
  -30.0960   -4.9043   -6.8980 N   0  0  0  0  0  0  0  0  0  0  0  0
  -30.0616   -6.2073   -7.3254 C   0  0  0  0  0  0  0  0  0  0  0  0
  -30.9823   -7.2572   -7.2645 C   0  0  0  0  0  0  0  0  0  0  0  0
  -30.8476   -4.4304   -6.4180 H   0  0  0  0  0  0  0  0  0  0  0  0
  -32.8562   -9.0551   -7.3954 C   0  0  0  0  0  0  0  0  0  0  0  0
  -31.5397   -9.4735   -7.7398 O   0  0  0  0  0  0  0  0  0  0  0  0
  -27.7017   -2.0578   -9.2044 C   0  0  0  0  0  0  0  0  0  0  0  0
  -26.5767   -1.6442   -9.8113 C   0  0  0  0  0  0  0  0  0  0  0  0
  -26.3546   -1.7232  -11.2627 C   0  0  0  0  0  0  0  0  0  0  0  0
  -27.3988   -1.8013  -12.1896 C   0  0  0  0  0  0  0  0  0  0  0  0
  -27.1209   -1.8073  -13.5556 C   0  0  0  0  0  0  0  0  0  0  0  0
  -25.7998   -1.7209  -13.9585 C   0  0  0  0  0  0  0  0  0  0  0  0
  -24.7616   -1.6293  -13.1022 N   0  0  0  0  0  0  0  0  0  0  0  0
  -25.0643   -1.6285  -11.7805 C   0  0  0  0  0  0  0  0  0  0  0  0
 17 18  1  0  0  0
 18  7  1  0  0  0
  7  8  1  0  0  0
  7 15  2  0  0  0
  8  9  2  0  0  0
  9 10  1  0  0  0
 10 11  1  0  0  0
 10 14  2  0  0  0
 11 12  2  0  0  0
 12  1  1  0  0  0
 12 13  1  0  0  0
  1  2  2  0  0  0
  1  5  1  0  0  0
  2  3  1  0  0  0
  3  4  1  0  0  0
  3  6  1  0  0  0
  4  5  2  0  0  0
  5 19  1  0  0  0
 19 20  2  0  0  0
 20 21  1  0  0  0
 21 22  1  0  0  0
 21 26  2  0  0  0
 22 23  2  0  0  0
 23 24  1  0  0  0
 24 25  2  0  0  0
 25 26  1  0  0  0
 13 14  1  0  0  0
 13 16  1  0  0  0
 14 15  1  0  0  0
M  END
> <minimizedAffinity>
-8.63380

$$$$
