CHEMBL413772


 27 31  0  0  0  0  0  0  0  0999 V2000
  -22.2674    1.2334  -13.9901 C   0  0  0  0  0  0  0  0  0  0  0  0
  -22.1510    2.6459  -13.9229 C   0  0  0  0  0  0  0  0  0  0  0  0
  -20.9941    3.3142  -14.3295 C   0  0  0  0  0  0  0  0  0  0  0  0
  -19.9488    2.5367  -14.7623 C   0  0  0  0  0  0  0  0  0  0  0  0
  -20.0067    1.1200  -14.7884 C   0  0  0  0  0  0  0  0  0  0  0  0
  -21.1747    0.4613  -14.4268 C   0  0  0  0  0  0  0  0  0  0  0  0
  -18.6785    0.4719  -15.2274 C   0  0  0  0  0  0  0  0  0  0  0  0
  -17.9219    1.7357  -15.4757 C   0  0  0  0  0  0  0  0  0  0  0  0
  -16.6409    2.1942  -15.8379 C   0  0  0  0  0  0  0  0  0  0  0  0
  -16.6173    3.5488  -15.8370 N   0  0  0  0  0  0  0  0  0  0  0  0
  -17.8676    3.9248  -15.4683 N   0  0  0  0  0  0  0  0  0  0  0  0
  -18.6469    2.8617  -15.2157 C   0  0  0  0  0  0  0  0  0  0  0  0
  -18.0854    4.9143  -15.4106 H   0  0  0  0  0  0  0  0  0  0  0  0
  -15.4547    1.4042  -16.1310 C   0  0  0  0  0  0  0  0  0  0  0  0
  -14.9002    1.3588  -17.4130 C   0  0  0  0  0  0  0  0  0  0  0  0
  -13.8129    0.5265  -17.6700 C   0  0  0  0  0  0  0  0  0  0  0  0
  -13.3057   -0.2318  -16.6280 C   0  0  0  0  0  0  0  0  0  0  0  0
  -13.7950   -0.2020  -15.3703 N   0  0  0  0  0  0  0  0  0  0  0  0
  -14.8532    0.6204  -15.1502 C   0  0  0  0  0  0  0  0  0  0  0  0
  -23.5728    0.5633  -13.5850 C   0  0  0  0  0  0  0  0  0  0  0  0
  -26.6246   -1.7910  -10.7367 C   0  0  0  0  0  0  0  0  0  0  0  0
  -25.6006   -1.9795  -11.7611 N   0  0  0  0  0  0  0  0  0  0  0  0
  -25.9902   -1.3259  -13.0196 C   0  0  0  0  0  0  0  0  0  0  0  0
  -24.8900   -1.4705  -14.0969 C   0  0  0  0  0  0  0  0  0  0  0  0
  -23.5796   -0.9059  -13.7070 N   0  0  0  0  0  0  0  0  0  0  0  0
  -23.2005   -1.5369  -12.4178 C   0  0  0  0  0  0  0  0  0  0  0  0
  -24.2883   -1.4813  -11.3091 C   0  0  0  0  0  0  0  0  0  0  0  0
 21 22  1  0  0  0
 22 23  1  0  0  0
 22 27  1  0  0  0
 23 24  1  0  0  0
 24 25  1  0  0  0
 25 20  1  0  0  0
 25 26  1  0  0  0
 20  1  1  0  0  0
  1  2  1  0  0  0
  1  6  2  0  0  0
  2  3  2  0  0  0
  3  4  1  0  0  0
  4  5  2  0  0  0
  4 12  1  0  0  0
  5  6  1  0  0  0
  5  7  1  0  0  0
  7  8  1  0  0  0
  8  9  1  0  0  0
  8 12  2  0  0  0
  9 14  1  0  0  0
  9 10  2  0  0  0
 14 15  1  0  0  0
 14 19  2  0  0  0
 15 16  2  0  0  0
 16 17  1  0  0  0
 17 18  2  0  0  0
 18 19  1  0  0  0
 10 11  1  0  0  0
 11 12  1  0  0  0
 11 13  1  0  0  0
 26 27  1  0  0  0
M  END
> <minimizedAffinity>
-10.18875

$$$$
