CHEMBL178596


 28 30  0  0  0  0  0  0  0  0999 V2000
  -13.4771    0.9822  -14.9685 C   0  0  0  0  0  0  0  0  0  0  0  0
  -13.1115    1.5430  -16.1747 C   0  0  0  0  0  0  0  0  0  0  0  0
  -14.0940    2.3903  -16.5815 N   0  0  0  0  0  0  0  0  0  0  0  0
  -14.0262    3.0815  -17.7262 N   0  0  0  0  0  0  0  0  0  0  0  0
  -15.0476    3.8410  -17.9294 C   0  0  0  0  0  0  0  0  0  0  0  0
  -16.1247    3.9848  -17.1054 N   0  0  0  0  0  0  0  0  0  0  0  0
  -16.1819    3.3453  -15.9740 C   0  0  0  0  0  0  0  0  0  0  0  0
  -15.1025    2.4386  -15.6470 C   0  0  0  0  0  0  0  0  0  0  0  0
  -14.7518    1.5522  -14.6297 C   0  0  0  0  0  0  0  0  0  0  0  0
  -12.6549    0.0493  -14.2108 C   0  0  0  0  0  0  0  0  0  0  0  0
  -12.2495    0.2524  -13.0695 O   0  0  0  0  0  0  0  0  0  0  0  0
  -12.3075   -1.0353  -14.9628 O   0  0  0  0  0  0  0  0  0  0  0  0
  -12.8031   -3.1371  -13.9580 C   0  0  0  0  0  0  0  0  0  0  0  0
  -13.2561   -2.1060  -14.9774 C   0  0  0  0  0  0  0  0  0  0  0  0
  -17.2447    3.5991  -15.1348 N   0  0  0  0  0  0  0  0  0  0  0  0
  -17.1742    4.4019  -14.5388 H   0  0  0  0  0  0  0  0  0  0  0  0
  -18.4267    2.8526  -14.9750 C   0  0  0  0  0  0  0  0  0  0  0  0
  -18.5067    1.4822  -15.2378 C   0  0  0  0  0  0  0  0  0  0  0  0
  -19.7064    0.7834  -15.0639 C   0  0  0  0  0  0  0  0  0  0  0  0
  -20.8714    1.4456  -14.6563 C   0  0  0  0  0  0  0  0  0  0  0  0
  -22.1454    0.6694  -14.5033 C   0  0  0  0  0  0  0  0  0  0  0  0
  -20.7962    2.8218  -14.4268 C   0  0  0  0  0  0  0  0  0  0  0  0
  -21.8718    3.5699  -14.0384 O   0  0  0  0  0  0  0  0  0  0  0  0
  -19.5962    3.5162  -14.5855 C   0  0  0  0  0  0  0  0  0  0  0  0
  -22.6569    3.0033  -13.9880 H   0  0  0  0  0  0  0  0  0  0  0  0
  -15.3295    1.2903  -13.4325 O   0  0  0  0  0  0  0  0  0  0  0  0
  -16.1874    0.1658  -13.3322 C   0  0  0  0  0  0  0  0  0  0  0  0
  -15.6262   -0.8667  -12.3635 C   0  0  0  0  0  0  0  0  0  0  0  0
 13 14  1  0  0  0
 14 12  1  0  0  0
 12 10  1  0  0  0
 10 11  2  0  0  0
 10  1  1  0  0  0
  1  2  2  0  0  0
  1  9  1  0  0  0
  2  3  1  0  0  0
  3  4  1  0  0  0
  3  8  1  0  0  0
  4  5  2  0  0  0
  5  6  1  0  0  0
  6  7  2  0  0  0
  7 15  1  0  0  0
  7  8  1  0  0  0
 15 17  1  0  0  0
 15 16  1  0  0  0
 17 18  1  0  0  0
 17 24  2  0  0  0
 18 19  2  0  0  0
 19 20  1  0  0  0
 20 21  1  0  0  0
 20 22  2  0  0  0
 22 23  1  0  0  0
 22 24  1  0  0  0
 23 25  1  0  0  0
  8  9  2  0  0  0
  9 26  1  0  0  0
 26 27  1  0  0  0
 27 28  1  0  0  0
M  END
> <minimizedAffinity>
-6.86226

$$$$
