CHEMBL2023221


 36 39  0  0  0  0  0  0  0  0999 V2000
  -22.4869   -0.1064  -13.7881 C   0  0  0  0  0  0  0  0  0  0  0  0
  -22.6589   -0.1098  -12.4094 C   0  0  0  0  0  0  0  0  0  0  0  0
  -23.8396   -0.5775  -11.8397 C   0  0  0  0  0  0  0  0  0  0  0  0
  -24.9364   -0.9197  -12.6312 C   0  0  0  0  0  0  0  0  0  0  0  0
  -24.8055   -0.8538  -14.0196 C   0  0  0  0  0  0  0  0  0  0  0  0
  -23.5865   -0.4602  -14.5914 C   0  0  0  0  0  0  0  0  0  0  0  0
  -18.6016    2.6575  -15.5462 C   0  0  0  0  0  0  0  0  0  0  0  0
  -19.1365    3.8688  -15.1650 C   0  0  0  0  0  0  0  0  0  0  0  0
  -20.3122    4.0092  -14.5326 N   0  0  0  0  0  0  0  0  0  0  0  0
  -21.0471    2.9242  -14.2160 C   0  0  0  0  0  0  0  0  0  0  0  0
  -22.2166    3.2402  -13.5433 N   0  0  0  0  0  0  0  0  0  0  0  0
  -20.5962    1.6083  -14.5559 C   0  0  0  0  0  0  0  0  0  0  0  0
  -21.1928    0.2687  -14.3672 C   0  0  0  0  0  0  0  0  0  0  0  0
  -20.3696   -0.7229  -14.8549 C   0  0  0  0  0  0  0  0  0  0  0  0
  -18.9145   -0.1419  -15.4754 S   0  0  0  0  0  0  0  0  0  0  0  0
  -19.3503    1.5086  -15.2110 C   0  0  0  0  0  0  0  0  0  0  0  0
  -22.2097    4.2216  -13.2861 H   0  0  0  0  0  0  0  0  0  0  0  0
  -22.4739    2.5984  -12.8060 H   0  0  0  0  0  0  0  0  0  0  0  0
  -15.5652    3.9929  -17.3511 C   0  0  0  0  0  0  0  0  0  0  0  0
  -16.7888    3.8841  -16.6033 N   0  0  0  0  0  0  0  0  0  0  0  0
  -17.3004    2.6605  -16.2377 C   0  0  0  0  0  0  0  0  0  0  0  0
  -16.7106    1.6019  -16.4266 O   0  0  0  0  0  0  0  0  0  0  0  0
  -17.3096    4.7278  -16.3975 H   0  0  0  0  0  0  0  0  0  0  0  0
  -26.1597   -1.3420  -12.0658 N   0  0  0  0  0  0  0  0  0  0  0  0
  -26.3535   -1.5444  -10.7118 C   0  0  0  0  0  0  0  0  0  0  0  0
  -25.5475   -1.2451   -9.8375 O   0  0  0  0  0  0  0  0  0  0  0  0
  -27.5673   -2.1545  -10.4534 N   0  0  0  0  0  0  0  0  0  0  0  0
  -26.9978   -1.2370  -12.6238 H   0  0  0  0  0  0  0  0  0  0  0  0
  -27.8517   -2.8364  -11.1432 H   0  0  0  0  0  0  0  0  0  0  0  0
  -28.0072   -2.3658   -9.1244 C   0  0  0  0  0  0  0  0  0  0  0  0
  -28.6864   -3.5290   -8.7570 C   0  0  0  0  0  0  0  0  0  0  0  0
  -29.1419   -3.6920   -7.4491 C   0  0  0  0  0  0  0  0  0  0  0  0
  -28.9333   -2.6860   -6.5074 C   0  0  0  0  0  0  0  0  0  0  0  0
  -28.2562   -1.5134   -6.8657 C   0  0  0  0  0  0  0  0  0  0  0  0
  -28.0998   -0.3909   -5.8823 C   0  0  0  0  0  0  0  0  0  0  0  0
  -27.7678   -1.3706   -8.1742 C   0  0  0  0  0  0  0  0  0  0  0  0
 19 20  1  0  0  0
 20 21  1  0  0  0
 20 23  1  0  0  0
 21 22  2  0  0  0
 21  7  1  0  0  0
  7  8  1  0  0  0
  7 16  2  0  0  0
  8  9  2  0  0  0
  9 10  1  0  0  0
 10 11  1  0  0  0
 10 12  2  0  0  0
 11 17  1  0  0  0
 11 18  1  0  0  0
 12 13  1  0  0  0
 12 16  1  0  0  0
 13  1  1  0  0  0
 13 14  2  0  0  0
  1  2  1  0  0  0
  1  6  2  0  0  0
  2  3  2  0  0  0
  3  4  1  0  0  0
  4 24  1  0  0  0
  4  5  2  0  0  0
 24 25  1  0  0  0
 24 28  1  0  0  0
 25 26  2  0  0  0
 25 27  1  0  0  0
 27 30  1  0  0  0
 27 29  1  0  0  0
 30 31  1  0  0  0
 30 36  2  0  0  0
 31 32  2  0  0  0
 32 33  1  0  0  0
 33 34  2  0  0  0
 34 35  1  0  0  0
 34 36  1  0  0  0
  5  6  1  0  0  0
 14 15  1  0  0  0
 15 16  1  0  0  0
M  END
> <minimizedAffinity>
-8.79249

$$$$
