CHEMBL4765039


 33 36  0  0  0  0  0  0  0  0999 V2000
  -28.8409   -8.1251   -6.7170 C   0  0  0  0  0  0  0  0  0  0  0  0
  -29.2954   -7.1666   -7.6192 C   0  0  0  0  0  0  0  0  0  0  0  0
  -29.2196   -5.8048   -7.3050 C   0  0  0  0  0  0  0  0  0  0  0  0
  -28.7125   -5.3709   -6.0773 C   0  0  0  0  0  0  0  0  0  0  0  0
  -28.3573   -6.3336   -5.1321 C   0  0  0  0  0  0  0  0  0  0  0  0
  -28.4329   -7.6947   -5.4480 C   0  0  0  0  0  0  0  0  0  0  0  0
  -28.4972   -4.0120   -5.7480 N   0  0  0  0  0  0  0  0  0  0  0  0
  -29.4349   -3.1650   -5.1785 C   0  0  0  0  0  0  0  0  0  0  0  0
  -30.5384   -3.4988   -4.7699 O   0  0  0  0  0  0  0  0  0  0  0  0
  -27.5887   -3.6353   -5.9787 H   0  0  0  0  0  0  0  0  0  0  0  0
  -29.0790   -1.7216   -5.0443 C   0  0  0  0  0  0  0  0  0  0  0  0
  -27.8282   -1.2530   -4.6265 C   0  0  0  0  0  0  0  0  0  0  0  0
  -27.5718    0.1247   -4.6275 C   0  0  0  0  0  0  0  0  0  0  0  0
  -28.5465    1.0310   -5.0585 C   0  0  0  0  0  0  0  0  0  0  0  0
  -29.7924    0.5725   -5.4912 C   0  0  0  0  0  0  0  0  0  0  0  0
  -30.8456    1.5008   -6.0158 C   0  0  0  0  0  0  0  0  0  0  0  0
  -30.0493   -0.8012   -5.4651 C   0  0  0  0  0  0  0  0  0  0  0  0
  -28.8351   -9.4877   -7.0761 N   0  0  0  0  0  0  0  0  0  0  0  0
  -29.7645   -9.8621   -7.2324 H   0  0  0  0  0  0  0  0  0  0  0  0
  -24.1083  -11.3147   -6.6383 C   0  0  0  0  0  0  0  0  0  0  0  0
  -24.5300  -11.4487   -7.9724 C   0  0  0  0  0  0  0  0  0  0  0  0
  -25.7940  -11.0737   -8.3984 C   0  0  0  0  0  0  0  0  0  0  0  0
  -26.0715  -11.1246   -9.7030 N   0  0  0  0  0  0  0  0  0  0  0  0
  -27.2611  -10.6519  -10.0803 C   0  0  0  0  0  0  0  0  0  0  0  0
  -28.1895  -10.1321   -9.2752 N   0  0  0  0  0  0  0  0  0  0  0  0
  -27.9082  -10.1013   -7.9580 C   0  0  0  0  0  0  0  0  0  0  0  0
  -26.7000  -10.5966   -7.4473 C   0  0  0  0  0  0  0  0  0  0  0  0
  -26.3304  -10.5881   -6.0840 C   0  0  0  0  0  0  0  0  0  0  0  0
  -25.0402  -10.9323   -5.6679 C   0  0  0  0  0  0  0  0  0  0  0  0
  -21.8346  -10.6983   -6.8767 C   0  0  0  0  0  0  0  0  0  0  0  0
  -22.8078  -11.5598   -6.2773 O   0  0  0  0  0  0  0  0  0  0  0  0
  -24.9009  -10.7967   -4.3169 O   0  0  0  0  0  0  0  0  0  0  0  0
  -24.9375   -9.5100   -3.7268 C   0  0  0  0  0  0  0  0  0  0  0  0
 30 31  1  0  0  0
 31 20  1  0  0  0
 20 21  1  0  0  0
 20 29  2  0  0  0
 21 22  2  0  0  0
 22 23  1  0  0  0
 22 27  1  0  0  0
 23 24  2  0  0  0
 24 25  1  0  0  0
 25 26  2  0  0  0
 26 18  1  0  0  0
 26 27  1  0  0  0
 18  1  1  0  0  0
 18 19  1  0  0  0
  1  2  1  0  0  0
  1  6  2  0  0  0
  2  3  2  0  0  0
  3  4  1  0  0  0
  4  7  1  0  0  0
  4  5  2  0  0  0
  7  8  1  0  0  0
  7 10  1  0  0  0
  8  9  2  0  0  0
  8 11  1  0  0  0
 11 12  1  0  0  0
 11 17  2  0  0  0
 12 13  2  0  0  0
 13 14  1  0  0  0
 14 15  2  0  0  0
 15 16  1  0  0  0
 15 17  1  0  0  0
  5  6  1  0  0  0
 27 28  2  0  0  0
 28 29  1  0  0  0
 29 32  1  0  0  0
 32 33  1  0  0  0
M  END
> <minimizedAffinity>
-8.76142

$$$$
