CHEMBL259380


 24 26  0  0  0  0  0  0  0  0999 V2000
  -29.0871  -10.0892   -5.5979 N   0  0  0  0  0  0  0  0  0  0  0  0
  -28.9907   -8.7205   -5.4493 C   0  0  0  0  0  0  0  0  0  0  0  0
  -29.1783   -8.2248   -4.2280 N   0  0  0  0  0  0  0  0  0  0  0  0
  -29.0573   -6.8949   -4.1040 C   0  0  0  0  0  0  0  0  0  0  0  0
  -29.2910   -6.3742   -2.8180 N   0  0  0  0  0  0  0  0  0  0  0  0
  -28.7883   -6.0306   -5.1690 C   0  0  0  0  0  0  0  0  0  0  0  0
  -28.6516   -6.6645   -6.4071 C   0  0  0  0  0  0  0  0  0  0  0  0
  -28.7571   -8.0003   -6.5492 N   0  0  0  0  0  0  0  0  0  0  0  0
  -28.3483   -6.0116   -7.5937 N   0  0  0  0  0  0  0  0  0  0  0  0
  -28.9647   -4.7503   -7.9767 C   0  0  0  0  0  0  0  0  0  0  0  0
  -29.8737   -4.1148   -6.9409 C   0  0  0  0  0  0  0  0  0  0  0  0
  -29.0535   -3.7547   -5.7204 C   0  0  0  0  0  0  0  0  0  0  0  0
  -28.5802   -4.6507   -4.9078 N   0  0  0  0  0  0  0  0  0  0  0  0
  -29.6441  -10.4759   -4.8492 H   0  0  0  0  0  0  0  0  0  0  0  0
  -29.3520  -10.3160   -6.5455 H   0  0  0  0  0  0  0  0  0  0  0  0
  -29.2977   -7.1419   -2.1559 H   0  0  0  0  0  0  0  0  0  0  0  0
  -28.6076   -5.6478   -2.6218 H   0  0  0  0  0  0  0  0  0  0  0  0
  -28.3401   -6.7146   -8.3292 H   0  0  0  0  0  0  0  0  0  0  0  0
  -28.7828   -2.3143   -5.4345 C   0  0  0  0  0  0  0  0  0  0  0  0
  -27.4705   -1.9101   -5.1600 C   0  0  0  0  0  0  0  0  0  0  0  0
  -27.1877   -0.5675   -4.8983 C   0  0  0  0  0  0  0  0  0  0  0  0
  -28.2127    0.3769   -4.9192 C   0  0  0  0  0  0  0  0  0  0  0  0
  -29.5189   -0.0171   -5.2062 C   0  0  0  0  0  0  0  0  0  0  0  0
  -29.8056   -1.3587   -5.4670 C   0  0  0  0  0  0  0  0  0  0  0  0
  1  2  1  0  0  0
  1 14  1  0  0  0
  1 15  1  0  0  0
  2  3  1  0  0  0
  2  8  2  0  0  0
  3  4  2  0  0  0
  4  5  1  0  0  0
  4  6  1  0  0  0
  5 16  1  0  0  0
  5 17  1  0  0  0
  6  7  2  0  0  0
  6 13  1  0  0  0
  7  8  1  0  0  0
  7  9  1  0  0  0
  9 10  1  0  0  0
  9 18  1  0  0  0
 10 11  1  0  0  0
 11 12  1  0  0  0
 12 19  1  0  0  0
 12 13  2  0  0  0
 19 20  1  0  0  0
 19 24  2  0  0  0
 20 21  2  0  0  0
 21 22  1  0  0  0
 22 23  2  0  0  0
 23 24  1  0  0  0
M  END
> <minimizedAffinity>
-8.04583

$$$$
