CHEMBL1076469


 47 51  0  0  0  0  0  0  0  0999 V2000
  -26.5629  -10.2538   -4.3134 C   0  0  0  0  0  0  0  0  0  0  0  0
  -26.5460  -11.1314   -3.3178 N   0  0  0  0  0  0  0  0  0  0  0  0
  -25.1997  -11.3176   -3.1042 C   0  0  0  0  0  0  0  0  0  0  0  0
  -24.5187  -11.7558   -1.9621 C   0  0  0  0  0  0  0  0  0  0  0  0
  -23.1208  -11.6699   -1.9529 C   0  0  0  0  0  0  0  0  0  0  0  0
  -22.4151  -11.2238   -3.0748 C   0  0  0  0  0  0  0  0  0  0  0  0
  -23.0755  -10.8703   -4.2560 C   0  0  0  0  0  0  0  0  0  0  0  0
  -24.4749  -10.9146   -4.2219 C   0  0  0  0  0  0  0  0  0  0  0  0
  -25.4763  -10.5991   -5.1364 N   0  0  0  0  0  0  0  0  0  0  0  0
  -25.4694  -10.8589   -6.5288 C   0  0  0  0  0  0  0  0  0  0  0  0
  -26.3953  -10.1833   -7.3179 C   0  0  0  0  0  0  0  0  0  0  0  0
  -26.4023  -10.4413   -8.6743 C   0  0  0  0  0  0  0  0  0  0  0  0
  -25.5603  -11.3378   -9.2058 N   0  0  0  0  0  0  0  0  0  0  0  0
  -24.6750  -11.9108   -8.3714 C   0  0  0  0  0  0  0  0  0  0  0  0
  -24.5485  -11.6852   -7.0542 N   0  0  0  0  0  0  0  0  0  0  0  0
  -27.3426   -9.7563   -9.4655 N   0  0  0  0  0  0  0  0  0  0  0  0
  -26.8782   -9.0591  -10.0420 H   0  0  0  0  0  0  0  0  0  0  0  0
  -28.2796  -10.5938  -10.2063 C   0  0  0  0  0  0  0  0  0  0  0  0
  -29.7222  -10.1380   -9.9549 C   0  0  0  0  0  0  0  0  0  0  0  0
  -30.0943  -10.3532   -8.4839 C   0  0  0  0  0  0  0  0  0  0  0  0
  -31.5094  -10.9072   -8.2672 C   0  0  0  0  0  0  0  0  0  0  0  0
  -32.2216  -10.3646   -7.0986 N   0  0  0  0  0  0  0  0  0  0  0  0
  -32.8879   -9.0942   -7.3944 C   0  0  0  0  0  0  0  0  0  0  0  0
  -33.2147  -11.3379   -6.6300 C   0  0  0  0  0  0  0  0  0  0  0  0
  -26.8578   -8.9608   -4.0139 N   0  0  0  0  0  0  0  0  0  0  0  0
  -26.8655   -8.8706   -2.9960 H   0  0  0  0  0  0  0  0  0  0  0  0
  -29.2246  -10.2121   -4.9875 C   0  0  0  0  0  0  0  0  0  0  0  0
  -29.0029   -8.7229   -5.0780 C   0  0  0  0  0  0  0  0  0  0  0  0
  -29.9268   -7.9427   -5.7732 C   0  0  0  0  0  0  0  0  0  0  0  0
  -29.7541   -6.5630   -5.8666 C   0  0  0  0  0  0  0  0  0  0  0  0
  -28.6678   -5.9317   -5.2564 C   0  0  0  0  0  0  0  0  0  0  0  0
  -27.7283   -6.7148   -4.5655 C   0  0  0  0  0  0  0  0  0  0  0  0
  -27.8765   -8.1059   -4.4821 C   0  0  0  0  0  0  0  0  0  0  0  0
  -28.4476   -4.5353   -5.3220 N   0  0  0  0  0  0  0  0  0  0  0  0
  -29.3359   -3.5429   -4.9444 C   0  0  0  0  0  0  0  0  0  0  0  0
  -30.4782   -3.6987   -4.5264 O   0  0  0  0  0  0  0  0  0  0  0  0
  -27.5690   -4.2541   -5.7356 H   0  0  0  0  0  0  0  0  0  0  0  0
  -28.8619   -2.1380   -5.0943 C   0  0  0  0  0  0  0  0  0  0  0  0
  -27.5313   -1.7624   -4.8854 C   0  0  0  0  0  0  0  0  0  0  0  0
  -27.1657   -0.4178   -4.9855 C   0  0  0  0  0  0  0  0  0  0  0  0
  -28.1218    0.5529   -5.2969 C   0  0  0  0  0  0  0  0  0  0  0  0
  -29.4595    0.1942   -5.5142 C   0  0  0  0  0  0  0  0  0  0  0  0
  -29.8200   -1.1567   -5.3982 C   0  0  0  0  0  0  0  0  0  0  0  0
  -30.5050    1.2221   -5.8733 C   0  0  0  0  0  0  0  0  0  0  0  0
  -31.6649    0.6750   -6.3331 F   0  0  0  0  0  0  0  0  0  0  0  0
  -30.8565    1.9942   -4.8079 F   0  0  0  0  0  0  0  0  0  0  0  0
  -30.0882    2.0821   -6.8413 F   0  0  0  0  0  0  0  0  0  0  0  0
 27 28  1  0  0  0
 28 29  1  0  0  0
 28 33  2  0  0  0
 29 30  2  0  0  0
 30 31  1  0  0  0
 31 34  1  0  0  0
 31 32  2  0  0  0
 34 35  1  0  0  0
 34 37  1  0  0  0
 35 36  2  0  0  0
 35 38  1  0  0  0
 38 39  1  0  0  0
 38 43  2  0  0  0
 39 40  2  0  0  0
 40 41  1  0  0  0
 41 42  2  0  0  0
 42 44  1  0  0  0
 42 43  1  0  0  0
 44 45  1  0  0  0
 44 46  1  0  0  0
 44 47  1  0  0  0
 32 33  1  0  0  0
 33 25  1  0  0  0
 25  1  1  0  0  0
 25 26  1  0  0  0
  1  2  2  0  0  0
  1  9  1  0  0  0
  2  3  1  0  0  0
  3  4  1  0  0  0
  3  8  2  0  0  0
  4  5  2  0  0  0
  5  6  1  0  0  0
  6  7  2  0  0  0
  7  8  1  0  0  0
  8  9  1  0  0  0
  9 10  1  0  0  0
 10 11  1  0  0  0
 10 15  2  0  0  0
 11 12  2  0  0  0
 12 16  1  0  0  0
 12 13  1  0  0  0
 16 18  1  0  0  0
 16 17  1  0  0  0
 18 19  1  0  0  0
 19 20  1  0  0  0
 20 21  1  0  0  0
 21 22  1  0  0  0
 22 23  1  0  0  0
 22 24  1  0  0  0
 13 14  2  0  0  0
 14 15  1  0  0  0
M  END
> <minimizedAffinity>
-9.39123

$$$$
