CHEMBL3982410


 37 40  0  0  0  0  0  0  0  0999 V2000
  -25.5778   -1.6555  -12.2272 C   0  0  0  0  0  0  0  0  0  0  0  0
  -25.6503   -1.2692  -13.5721 C   0  0  0  0  0  0  0  0  0  0  0  0
  -24.4992   -0.9180  -14.2849 C   0  0  0  0  0  0  0  0  0  0  0  0
  -23.2611   -0.8814  -13.6436 C   0  0  0  0  0  0  0  0  0  0  0  0
  -23.1856   -1.2540  -12.2957 C   0  0  0  0  0  0  0  0  0  0  0  0
  -24.3415   -1.6183  -11.5809 C   0  0  0  0  0  0  0  0  0  0  0  0
  -27.9633   -2.5320   -9.6166 N   0  0  0  0  0  0  0  0  0  0  0  0
  -26.8014   -2.0112  -10.1680 C   0  0  0  0  0  0  0  0  0  0  0  0
  -25.9272   -1.4357   -9.5301 O   0  0  0  0  0  0  0  0  0  0  0  0
  -26.7234   -2.1652  -11.5500 N   0  0  0  0  0  0  0  0  0  0  0  0
  -28.5115   -3.1550  -10.1953 H   0  0  0  0  0  0  0  0  0  0  0  0
  -27.6054   -2.0874  -12.0350 H   0  0  0  0  0  0  0  0  0  0  0  0
  -29.4935   -2.0031   -4.0717 C   0  0  0  0  0  0  0  0  0  0  0  0
  -29.0854   -2.0746   -5.5185 C   0  0  0  0  0  0  0  0  0  0  0  0
  -29.0544   -3.3354   -6.1164 C   0  0  0  0  0  0  0  0  0  0  0  0
  -28.6853   -3.4874   -7.4522 C   0  0  0  0  0  0  0  0  0  0  0  0
  -28.3440   -2.3961   -8.2486 C   0  0  0  0  0  0  0  0  0  0  0  0
  -28.3690   -1.1265   -7.6560 C   0  0  0  0  0  0  0  0  0  0  0  0
  -28.7334   -0.9478   -6.2900 C   0  0  0  0  0  0  0  0  0  0  0  0
  -28.7169    0.4610   -5.7291 C   0  0  0  0  0  0  0  0  0  0  0  0
  -27.9067    0.6520   -4.6520 F   0  0  0  0  0  0  0  0  0  0  0  0
  -28.3080    1.3739   -6.6558 F   0  0  0  0  0  0  0  0  0  0  0  0
  -29.9540    0.8721   -5.3303 F   0  0  0  0  0  0  0  0  0  0  0  0
  -22.0724   -0.5808  -14.2834 O   0  0  0  0  0  0  0  0  0  0  0  0
  -21.6623    0.7350  -14.4131 C   0  0  0  0  0  0  0  0  0  0  0  0
  -22.3958    1.8189  -13.9441 C   0  0  0  0  0  0  0  0  0  0  0  0
  -21.8839    3.0793  -14.1540 C   0  0  0  0  0  0  0  0  0  0  0  0
  -20.6929    3.3104  -14.7316 N   0  0  0  0  0  0  0  0  0  0  0  0
  -19.9475    2.2686  -15.1221 C   0  0  0  0  0  0  0  0  0  0  0  0
  -20.4019    0.9591  -14.9922 C   0  0  0  0  0  0  0  0  0  0  0  0
  -18.6713    2.5146  -15.6871 N   0  0  0  0  0  0  0  0  0  0  0  0
  -17.4874    2.0678  -15.1215 C   0  0  0  0  0  0  0  0  0  0  0  0
  -17.3599    1.4266  -14.0882 O   0  0  0  0  0  0  0  0  0  0  0  0
  -18.6294    3.0310  -16.5510 H   0  0  0  0  0  0  0  0  0  0  0  0
  -16.2158    2.4012  -15.8379 C   0  0  0  0  0  0  0  0  0  0  0  0
  -15.3366    1.3706  -16.4984 C   0  0  0  0  0  0  0  0  0  0  0  0
  -14.8397    2.1189  -15.2923 C   0  0  0  0  0  0  0  0  0  0  0  0
 13 14  1  0  0  0
 14 15  1  0  0  0
 14 19  2  0  0  0
 15 16  2  0  0  0
 16 17  1  0  0  0
 17  7  1  0  0  0
 17 18  2  0  0  0
  7  8  1  0  0  0
  7 11  1  0  0  0
  8  9  2  0  0  0
  8 10  1  0  0  0
 10  1  1  0  0  0
 10 12  1  0  0  0
  1  2  1  0  0  0
  1  6  2  0  0  0
  2  3  2  0  0  0
  3  4  1  0  0  0
  4 24  1  0  0  0
  4  5  2  0  0  0
 24 25  1  0  0  0
 25 26  1  0  0  0
 25 30  2  0  0  0
 26 27  2  0  0  0
 27 28  1  0  0  0
 28 29  2  0  0  0
 29 31  1  0  0  0
 29 30  1  0  0  0
 31 32  1  0  0  0
 31 34  1  0  0  0
 32 33  2  0  0  0
 32 35  1  0  0  0
 35 36  1  0  0  0
 35 37  1  0  0  0
 36 37  1  0  0  0
  5  6  1  0  0  0
 18 19  1  0  0  0
 19 20  1  0  0  0
 20 21  1  0  0  0
 20 22  1  0  0  0
 20 23  1  0  0  0
M  END
> <minimizedAffinity>
-11.94397

$$$$
