CHEMBL3927585


 34 38  0  0  0  0  0  0  0  0999 V2000
  -15.1613    0.2200  -14.4859 N   0  0  0  0  0  0  0  0  0  0  0  0
  -15.3573   -1.0256  -13.8297 C   0  0  0  0  0  0  0  0  0  0  0  0
  -15.9143   -0.9682  -12.5510 C   0  0  0  0  0  0  0  0  0  0  0  0
  -15.4908   -1.8677  -11.5964 C   0  0  0  0  0  0  0  0  0  0  0  0
  -14.6990   -2.9407  -11.9349 C   0  0  0  0  0  0  0  0  0  0  0  0
  -14.1686   -3.5911  -10.9023 N   0  0  0  0  0  0  0  0  0  0  0  0
  -13.6082   -4.7659  -11.1874 C   0  0  0  0  0  0  0  0  0  0  0  0
  -13.6744   -5.3104  -12.4572 C   0  0  0  0  0  0  0  0  0  0  0  0
  -14.0597   -4.5729  -13.5403 N   0  0  0  0  0  0  0  0  0  0  0  0
  -14.5287   -3.3042  -13.2813 C   0  0  0  0  0  0  0  0  0  0  0  0
  -14.7924   -2.2622  -14.2271 C   0  0  0  0  0  0  0  0  0  0  0  0
  -13.5471   -6.7509  -12.5352 C   0  0  0  0  0  0  0  0  0  0  0  0
  -14.5384   -7.7261  -12.8136 C   0  0  0  0  0  0  0  0  0  0  0  0
  -14.1120   -8.9726  -12.5780 N   0  0  0  0  0  0  0  0  0  0  0  0
  -12.8469   -8.7920  -12.1618 N   0  0  0  0  0  0  0  0  0  0  0  0
  -11.9223   -9.8984  -12.1220 C   0  0  0  0  0  0  0  0  0  0  0  0
  -12.5311   -7.4801  -11.9507 C   0  0  0  0  0  0  0  0  0  0  0  0
  -16.6433    3.3976  -15.9241 C   0  0  0  0  0  0  0  0  0  0  0  0
  -17.9800    3.2432  -15.5877 C   0  0  0  0  0  0  0  0  0  0  0  0
  -18.3781    2.1121  -14.8780 C   0  0  0  0  0  0  0  0  0  0  0  0
  -17.4334    1.1564  -14.4679 C   0  0  0  0  0  0  0  0  0  0  0  0
  -16.0933    1.2274  -14.8582 C   0  0  0  0  0  0  0  0  0  0  0  0
  -15.7330    2.3737  -15.6124 C   0  0  0  0  0  0  0  0  0  0  0  0
  -15.2846    4.1782  -17.6827 C   0  0  0  0  0  0  0  0  0  0  0  0
  -16.1405    4.4924  -16.5826 O   0  0  0  0  0  0  0  0  0  0  0  0
  -19.6746    1.8648  -14.5055 O   0  0  0  0  0  0  0  0  0  0  0  0
  -20.6428    2.6769  -15.1658 C   0  0  0  0  0  0  0  0  0  0  0  0
  -13.7061    0.4870  -14.7145 C   0  0  0  0  0  0  0  0  0  0  0  0
  -13.0766    1.5548  -13.8622 C   0  0  0  0  0  0  0  0  0  0  0  0
  -13.1196    1.5904  -12.5388 N   0  0  0  0  0  0  0  0  0  0  0  0
  -12.3640    2.6590  -12.1566 C   0  0  0  0  0  0  0  0  0  0  0  0
  -11.8113    3.2757  -13.2495 C   0  0  0  0  0  0  0  0  0  0  0  0
  -12.3089    2.6016  -14.3337 N   0  0  0  0  0  0  0  0  0  0  0  0
  -12.0161    2.9622  -15.7009 C   0  0  0  0  0  0  0  0  0  0  0  0
 24 25  1  0  0  0
 25 18  1  0  0  0
 18 19  1  0  0  0
 18 23  2  0  0  0
 19 20  2  0  0  0
 20 26  1  0  0  0
 20 21  1  0  0  0
 26 27  1  0  0  0
 21 22  2  0  0  0
 22  1  1  0  0  0
 22 23  1  0  0  0
  1 28  1  0  0  0
  1  2  1  0  0  0
 28 29  1  0  0  0
 29 30  2  0  0  0
 29 33  1  0  0  0
 30 31  1  0  0  0
 31 32  2  0  0  0
 32 33  1  0  0  0
 33 34  1  0  0  0
  2  3  1  0  0  0
  2 11  2  0  0  0
  3  4  2  0  0  0
  4  5  1  0  0  0
  5  6  1  0  0  0
  5 10  2  0  0  0
  6  7  2  0  0  0
  7  8  1  0  0  0
  8 12  1  0  0  0
  8  9  2  0  0  0
 12 13  1  0  0  0
 12 17  2  0  0  0
 13 14  2  0  0  0
 14 15  1  0  0  0
 15 16  1  0  0  0
 15 17  1  0  0  0
  9 10  1  0  0  0
 10 11  1  0  0  0
M  END
> <minimizedAffinity>
-8.12624

$$$$
