CHEMBL2023483


 34 37  0  0  0  0  0  0  0  0999 V2000
  -20.7247    1.0566  -15.0419 C   0  0  0  0  0  0  0  0  0  0  0  0
  -20.0862   -0.1342  -15.3704 C   0  0  0  0  0  0  0  0  0  0  0  0
  -18.6877   -0.1979  -15.3253 C   0  0  0  0  0  0  0  0  0  0  0  0
  -17.9119    0.9395  -15.0204 C   0  0  0  0  0  0  0  0  0  0  0  0
  -18.5665    2.1802  -14.9336 C   0  0  0  0  0  0  0  0  0  0  0  0
  -19.9680    2.2222  -14.9124 C   0  0  0  0  0  0  0  0  0  0  0  0
  -17.9732    3.3994  -14.7351 O   0  0  0  0  0  0  0  0  0  0  0  0
  -17.1636    3.9166  -15.7889 C   0  0  0  0  0  0  0  0  0  0  0  0
  -22.0720    1.1859  -14.8004 O   0  0  0  0  0  0  0  0  0  0  0  0
  -26.4541   -1.6707  -14.3446 C   0  0  0  0  0  0  0  0  0  0  0  0
  -25.9161   -1.0330  -15.4504 C   0  0  0  0  0  0  0  0  0  0  0  0
  -24.6552   -0.4476  -15.3615 C   0  0  0  0  0  0  0  0  0  0  0  0
  -23.9428   -0.3790  -14.1395 C   0  0  0  0  0  0  0  0  0  0  0  0
  -22.7389    0.3494  -13.9177 C   0  0  0  0  0  0  0  0  0  0  0  0
  -22.0734    0.2153  -12.6989 C   0  0  0  0  0  0  0  0  0  0  0  0
  -22.6453   -0.5649  -11.7213 C   0  0  0  0  0  0  0  0  0  0  0  0
  -23.8321   -1.1893  -11.8606 N   0  0  0  0  0  0  0  0  0  0  0  0
  -24.4671   -1.0908  -13.0436 C   0  0  0  0  0  0  0  0  0  0  0  0
  -25.7057   -1.7181  -13.1666 C   0  0  0  0  0  0  0  0  0  0  0  0
  -28.3292   -2.2960  -13.0419 C   0  0  0  0  0  0  0  0  0  0  0  0
  -27.6729   -2.2891  -14.3060 O   0  0  0  0  0  0  0  0  0  0  0  0
  -16.4241    0.8036  -14.7860 C   0  0  0  0  0  0  0  0  0  0  0  0
  -16.0002   -0.0405  -13.6046 C   0  0  0  0  0  0  0  0  0  0  0  0
  -16.0835    0.3968  -12.4620 O   0  0  0  0  0  0  0  0  0  0  0  0
  -15.5364   -1.2896  -13.9628 N   0  0  0  0  0  0  0  0  0  0  0  0
  -15.0330   -1.3733  -14.8346 H   0  0  0  0  0  0  0  0  0  0  0  0
  -15.2092   -2.2580  -13.0439 C   0  0  0  0  0  0  0  0  0  0  0  0
  -14.2246   -2.0088  -12.1758 N   0  0  0  0  0  0  0  0  0  0  0  0
  -14.2026   -3.0996  -11.3953 N   0  0  0  0  0  0  0  0  0  0  0  0
  -15.0251   -4.1002  -11.8235 C   0  0  0  0  0  0  0  0  0  0  0  0
  -15.0576   -5.4312  -11.1743 C   0  0  0  0  0  0  0  0  0  0  0  0
  -15.7070   -3.5878  -12.9143 C   0  0  0  0  0  0  0  0  0  0  0  0
  -16.6554   -4.3178  -13.7956 C   0  0  0  0  0  0  0  0  0  0  0  0
  -13.5746   -3.1088  -10.5989 H   0  0  0  0  0  0  0  0  0  0  0  0
 20 21  1  0  0  0
 21 10  1  0  0  0
 10 11  1  0  0  0
 10 19  2  0  0  0
 11 12  2  0  0  0
 12 13  1  0  0  0
 13 14  1  0  0  0
 13 18  2  0  0  0
 14  9  1  0  0  0
 14 15  2  0  0  0
  9  1  1  0  0  0
  1  2  1  0  0  0
  1  6  2  0  0  0
  2  3  2  0  0  0
  3  4  1  0  0  0
  4 22  1  0  0  0
  4  5  2  0  0  0
 22 23  1  0  0  0
 23 24  2  0  0  0
 23 25  1  0  0  0
 25 27  1  0  0  0
 25 26  1  0  0  0
 27 28  2  0  0  0
 27 32  1  0  0  0
 28 29  1  0  0  0
 29 30  1  0  0  0
 29 34  1  0  0  0
 30 31  1  0  0  0
 30 32  2  0  0  0
 32 33  1  0  0  0
  5  7  1  0  0  0
  5  6  1  0  0  0
  7  8  1  0  0  0
 15 16  1  0  0  0
 16 17  2  0  0  0
 17 18  1  0  0  0
 18 19  1  0  0  0
M  END
> <minimizedAffinity>
-8.40622

$$$$
