CHEMBL3919864


 38 41  0  0  0  0  0  0  0  0999 V2000
  -28.2729    1.1425   -5.0627 C   0  0  0  0  0  0  0  0  0  0  0  0
  -28.2669   -0.2886   -5.5138 C   0  0  0  0  0  0  0  0  0  0  0  0
  -28.2463   -0.5831   -6.8823 C   0  0  0  0  0  0  0  0  0  0  0  0
  -28.2500   -1.8986   -7.3535 C   0  0  0  0  0  0  0  0  0  0  0  0
  -28.3014   -2.9408   -6.4194 C   0  0  0  0  0  0  0  0  0  0  0  0
  -28.3026   -2.6651   -5.0418 C   0  0  0  0  0  0  0  0  0  0  0  0
  -28.2881   -1.3399   -4.5947 C   0  0  0  0  0  0  0  0  0  0  0  0
  -28.2388   -2.2194   -8.7354 N   0  0  0  0  0  0  0  0  0  0  0  0
  -27.2425   -1.8827   -9.6382 C   0  0  0  0  0  0  0  0  0  0  0  0
  -26.1741   -1.3497   -9.3596 O   0  0  0  0  0  0  0  0  0  0  0  0
  -27.6125   -2.1688  -10.9471 N   0  0  0  0  0  0  0  0  0  0  0  0
  -28.9457   -2.8649   -9.0582 H   0  0  0  0  0  0  0  0  0  0  0  0
  -28.5981   -2.0442  -11.1293 H   0  0  0  0  0  0  0  0  0  0  0  0
  -26.7309   -1.8651  -12.0161 C   0  0  0  0  0  0  0  0  0  0  0  0
  -27.2426   -1.8018  -13.3094 C   0  0  0  0  0  0  0  0  0  0  0  0
  -26.4041   -1.4292  -14.3557 C   0  0  0  0  0  0  0  0  0  0  0  0
  -26.9114   -1.3053  -15.5886 F   0  0  0  0  0  0  0  0  0  0  0  0
  -25.0523   -1.1730  -14.1482 C   0  0  0  0  0  0  0  0  0  0  0  0
  -24.5122   -1.2771  -12.8610 C   0  0  0  0  0  0  0  0  0  0  0  0
  -25.3710   -1.6059  -11.7952 C   0  0  0  0  0  0  0  0  0  0  0  0
  -23.0407   -1.0577  -12.6144 C   0  0  0  0  0  0  0  0  0  0  0  0
  -22.7167    0.2529  -12.4208 F   0  0  0  0  0  0  0  0  0  0  0  0
  -22.5766   -1.7199  -11.5212 F   0  0  0  0  0  0  0  0  0  0  0  0
  -22.2738   -1.4725  -13.6614 F   0  0  0  0  0  0  0  0  0  0  0  0
  -28.4400   -3.6274   -4.0602 O   0  0  0  0  0  0  0  0  0  0  0  0
  -29.5812   -4.4221   -4.0394 C   0  0  0  0  0  0  0  0  0  0  0  0
  -29.4965   -5.6413   -4.6856 C   0  0  0  0  0  0  0  0  0  0  0  0
  -30.6427   -6.4058   -4.6741 C   0  0  0  0  0  0  0  0  0  0  0  0
  -31.7574   -5.9860   -4.0644 N   0  0  0  0  0  0  0  0  0  0  0  0
  -31.7429   -4.7850   -3.4902 C   0  0  0  0  0  0  0  0  0  0  0  0
  -30.6975   -3.9602   -3.4515 N   0  0  0  0  0  0  0  0  0  0  0  0
  -30.6508   -7.6520   -5.3282 N   0  0  0  0  0  0  0  0  0  0  0  0
  -30.8157   -7.7937   -6.6888 C   0  0  0  0  0  0  0  0  0  0  0  0
  -31.0185   -6.9041   -7.5074 O   0  0  0  0  0  0  0  0  0  0  0  0
  -30.5119   -8.4839   -4.7672 H   0  0  0  0  0  0  0  0  0  0  0  0
  -30.7527   -9.2070   -7.1814 C   0  0  0  0  0  0  0  0  0  0  0  0
  -29.4002   -9.8367   -7.4582 C   0  0  0  0  0  0  0  0  0  0  0  0
  -30.3008   -9.4707   -8.6008 C   0  0  0  0  0  0  0  0  0  0  0  0
  1  2  1  0  0  0
  2  3  1  0  0  0
  2  7  2  0  0  0
  3  4  2  0  0  0
  4  8  1  0  0  0
  4  5  1  0  0  0
  8  9  1  0  0  0
  8 12  1  0  0  0
  9 10  2  0  0  0
  9 11  1  0  0  0
 11 14  1  0  0  0
 11 13  1  0  0  0
 14 15  1  0  0  0
 14 20  2  0  0  0
 15 16  2  0  0  0
 16 17  1  0  0  0
 16 18  1  0  0  0
 18 19  2  0  0  0
 19 21  1  0  0  0
 19 20  1  0  0  0
 21 22  1  0  0  0
 21 23  1  0  0  0
 21 24  1  0  0  0
  5  6  2  0  0  0
  6 25  1  0  0  0
  6  7  1  0  0  0
 25 26  1  0  0  0
 26 27  1  0  0  0
 26 31  2  0  0  0
 27 28  2  0  0  0
 28 32  1  0  0  0
 28 29  1  0  0  0
 32 33  1  0  0  0
 32 35  1  0  0  0
 33 34  2  0  0  0
 33 36  1  0  0  0
 36 37  1  0  0  0
 36 38  1  0  0  0
 37 38  1  0  0  0
 29 30  2  0  0  0
 30 31  1  0  0  0
M  END
> <minimizedAffinity>
-11.54818

$$$$
