CHEMBL3920637


 36 40  0  0  0  0  0  0  0  0999 V2000
  -27.9475   -2.0526   -8.6001 N   0  0  0  0  0  0  0  0  0  0  0  0
  -27.4131   -1.5157   -9.8440 C   0  0  0  0  0  0  0  0  0  0  0  0
  -28.2439   -1.6921  -10.9454 C   0  0  0  0  0  0  0  0  0  0  0  0
  -27.7156   -1.7523  -12.2191 C   0  0  0  0  0  0  0  0  0  0  0  0
  -26.4031   -1.4751  -12.4814 C   0  0  0  0  0  0  0  0  0  0  0  0
  -26.0392   -1.7383  -13.7384 N   0  0  0  0  0  0  0  0  0  0  0  0
  -24.8365   -1.2871  -14.1269 C   0  0  0  0  0  0  0  0  0  0  0  0
  -24.0427   -0.5356  -13.2966 C   0  0  0  0  0  0  0  0  0  0  0  0
  -24.3547   -0.3629  -11.9570 N   0  0  0  0  0  0  0  0  0  0  0  0
  -25.5727   -0.8995  -11.4868 C   0  0  0  0  0  0  0  0  0  0  0  0
  -26.1000   -1.0193  -10.1240 C   0  0  0  0  0  0  0  0  0  0  0  0
  -22.9406    0.1908  -13.9404 C   0  0  0  0  0  0  0  0  0  0  0  0
  -21.6984   -0.2822  -14.4268 C   0  0  0  0  0  0  0  0  0  0  0  0
  -20.8374    0.7028  -14.7177 N   0  0  0  0  0  0  0  0  0  0  0  0
  -21.5188    1.8150  -14.3963 N   0  0  0  0  0  0  0  0  0  0  0  0
  -21.0825    3.1080  -14.8716 C   0  0  0  0  0  0  0  0  0  0  0  0
  -22.6911    1.5489  -13.7428 C   0  0  0  0  0  0  0  0  0  0  0  0
  -28.7844    0.3908   -5.8749 C   0  0  0  0  0  0  0  0  0  0  0  0
  -28.4495   -0.3368   -4.7355 C   0  0  0  0  0  0  0  0  0  0  0  0
  -27.8887   -1.6046   -4.8595 C   0  0  0  0  0  0  0  0  0  0  0  0
  -27.6628   -2.1473   -6.1378 C   0  0  0  0  0  0  0  0  0  0  0  0
  -27.9821   -1.4509   -7.3144 C   0  0  0  0  0  0  0  0  0  0  0  0
  -28.5218   -0.1569   -7.1543 C   0  0  0  0  0  0  0  0  0  0  0  0
  -30.7629    1.6694   -6.2974 C   0  0  0  0  0  0  0  0  0  0  0  0
  -29.3974    1.6192   -5.8647 O   0  0  0  0  0  0  0  0  0  0  0  0
  -27.5486   -2.4307   -3.8195 O   0  0  0  0  0  0  0  0  0  0  0  0
  -28.4137   -3.5307   -3.5559 C   0  0  0  0  0  0  0  0  0  0  0  0
  -27.7716   -3.5633   -8.6335 C   0  0  0  0  0  0  0  0  0  0  0  0
  -28.8796   -4.4901   -8.0754 C   0  0  0  0  0  0  0  0  0  0  0  0
  -28.4864   -5.8954   -7.5820 C   0  0  0  0  0  0  0  0  0  0  0  0
  -29.0762   -6.1806   -6.2030 C   0  0  0  0  0  0  0  0  0  0  0  0
  -28.3653   -6.9606   -5.2854 C   0  0  0  0  0  0  0  0  0  0  0  0
  -28.9318   -7.2390   -4.0465 C   0  0  0  0  0  0  0  0  0  0  0  0
  -30.1501   -6.8076   -3.6582 N   0  0  0  0  0  0  0  0  0  0  0  0
  -30.8289   -6.0576   -4.5514 C   0  0  0  0  0  0  0  0  0  0  0  0
  -30.3428   -5.7216   -5.8135 C   0  0  0  0  0  0  0  0  0  0  0  0
 24 25  1  0  0  0
 25 18  1  0  0  0
 18 19  1  0  0  0
 18 23  2  0  0  0
 19 20  2  0  0  0
 20 26  1  0  0  0
 20 21  1  0  0  0
 26 27  1  0  0  0
 21 22  2  0  0  0
 22  1  1  0  0  0
 22 23  1  0  0  0
  1 28  1  0  0  0
  1  2  1  0  0  0
 28 29  1  0  0  0
 29 30  1  0  0  0
 30 31  1  0  0  0
 31 32  1  0  0  0
 31 36  2  0  0  0
 32 33  2  0  0  0
 33 34  1  0  0  0
 34 35  2  0  0  0
 35 36  1  0  0  0
  2  3  1  0  0  0
  2 11  2  0  0  0
  3  4  2  0  0  0
  4  5  1  0  0  0
  5  6  1  0  0  0
  5 10  2  0  0  0
  6  7  2  0  0  0
  7  8  1  0  0  0
  8 12  1  0  0  0
  8  9  2  0  0  0
 12 13  1  0  0  0
 12 17  2  0  0  0
 13 14  2  0  0  0
 14 15  1  0  0  0
 15 16  1  0  0  0
 15 17  1  0  0  0
  9 10  1  0  0  0
 10 11  1  0  0  0
M  END
> <minimizedAffinity>
-9.00787

$$$$
