CHEMBL392306


 36 39  0  0  0  0  0  0  0  0999 V2000
  -27.9327   -1.9578   -9.3923 C   0  0  0  0  0  0  0  0  0  0  0  0
  -27.6500   -1.0371   -8.4662 N   0  0  0  0  0  0  0  0  0  0  0  0
  -27.7668   -1.4313   -7.1819 C   0  0  0  0  0  0  0  0  0  0  0  0
  -28.1619   -2.6897   -6.7803 C   0  0  0  0  0  0  0  0  0  0  0  0
  -28.1336   -3.0537   -5.1005 Cl  0  0  0  0  0  0  0  0  0  0  0  0
  -28.5011   -3.5678   -7.7988 C   0  0  0  0  0  0  0  0  0  0  0  0
  -28.3605   -3.1982   -9.0988 N   0  0  0  0  0  0  0  0  0  0  0  0
  -29.0288   -4.9462   -7.6274 C   0  0  0  0  0  0  0  0  0  0  0  0
  -28.3342   -6.0774   -8.0772 C   0  0  0  0  0  0  0  0  0  0  0  0
  -28.8701   -7.3683   -7.9769 C   0  0  0  0  0  0  0  0  0  0  0  0
  -30.1136   -7.6014   -7.3749 C   0  0  0  0  0  0  0  0  0  0  0  0
  -30.7742   -6.4832   -6.8373 C   0  0  0  0  0  0  0  0  0  0  0  0
  -30.2440   -5.1875   -6.9628 C   0  0  0  0  0  0  0  0  0  0  0  0
  -30.7465   -8.9981   -7.2997 C   0  0  0  0  0  0  0  0  0  0  0  0
  -32.2808   -8.9054   -7.3441 C   0  0  0  0  0  0  0  0  0  0  0  0
  -30.2370   -9.8798   -8.4551 C   0  0  0  0  0  0  0  0  0  0  0  0
  -30.4096   -9.7208   -6.0612 N   0  0  0  0  0  0  0  0  0  0  0  0
  -30.7374   -9.1891   -5.2578 H   0  0  0  0  0  0  0  0  0  0  0  0
  -29.3979   -9.8072   -5.9851 H   0  0  0  0  0  0  0  0  0  0  0  0
  -27.7539   -1.5827  -10.7264 N   0  0  0  0  0  0  0  0  0  0  0  0
  -28.4509   -2.0626  -11.2822 H   0  0  0  0  0  0  0  0  0  0  0  0
  -24.0222   -1.2142  -12.6902 C   0  0  0  0  0  0  0  0  0  0  0  0
  -24.0929   -1.2740  -11.2930 C   0  0  0  0  0  0  0  0  0  0  0  0
  -25.3163   -1.4176  -10.6459 C   0  0  0  0  0  0  0  0  0  0  0  0
  -26.5107   -1.4602  -11.3672 C   0  0  0  0  0  0  0  0  0  0  0  0
  -26.4465   -1.4382  -12.7619 C   0  0  0  0  0  0  0  0  0  0  0  0
  -25.2181   -1.2956  -13.4185 C   0  0  0  0  0  0  0  0  0  0  0  0
  -22.7035   -1.0170  -13.4139 C   0  0  0  0  0  0  0  0  0  0  0  0
  -22.1808    0.4332  -13.3579 C   0  0  0  0  0  0  0  0  0  0  0  0
  -18.0573    2.7584  -14.3319 C   0  0  0  0  0  0  0  0  0  0  0  0
  -19.3928    2.4415  -14.8236 N   0  0  0  0  0  0  0  0  0  0  0  0
  -19.5658    0.9892  -15.0013 C   0  0  0  0  0  0  0  0  0  0  0  0
  -20.9853    0.6512  -15.5092 C   0  0  0  0  0  0  0  0  0  0  0  0
  -22.0789    1.1387  -14.6460 N   0  0  0  0  0  0  0  0  0  0  0  0
  -21.8640    2.5898  -14.4061 C   0  0  0  0  0  0  0  0  0  0  0  0
  -20.4377    2.9701  -13.9287 C   0  0  0  0  0  0  0  0  0  0  0  0
 30 31  1  0  0  0
 31 32  1  0  0  0
 31 36  1  0  0  0
 32 33  1  0  0  0
 33 34  1  0  0  0
 34 29  1  0  0  0
 34 35  1  0  0  0
 29 28  1  0  0  0
 28 22  1  0  0  0
 22 23  1  0  0  0
 22 27  2  0  0  0
 23 24  2  0  0  0
 24 25  1  0  0  0
 25 20  1  0  0  0
 25 26  2  0  0  0
 20  1  1  0  0  0
 20 21  1  0  0  0
  1  2  1  0  0  0
  1  7  2  0  0  0
  2  3  2  0  0  0
  3  4  1  0  0  0
  4  5  1  0  0  0
  4  6  2  0  0  0
  6  8  1  0  0  0
  6  7  1  0  0  0
  8  9  1  0  0  0
  8 13  2  0  0  0
  9 10  2  0  0  0
 10 11  1  0  0  0
 11 14  1  0  0  0
 11 12  2  0  0  0
 14 15  1  0  0  0
 14 16  1  0  0  0
 14 17  1  0  0  0
 17 18  1  0  0  0
 17 19  1  0  0  0
 12 13  1  0  0  0
 26 27  1  0  0  0
 35 36  1  0  0  0
M  END
> <minimizedAffinity>
-9.44310

$$$$
