CHEMBL3915021


 33 36  0  0  0  0  0  0  0  0999 V2000
  -29.1621   -8.4887   -7.4037 N   0  0  0  0  0  0  0  0  0  0  0  0
  -28.9770   -7.3529   -6.5140 C   0  0  0  0  0  0  0  0  0  0  0  0
  -29.3415   -7.6078   -5.1868 C   0  0  0  0  0  0  0  0  0  0  0  0
  -29.8152   -6.5694   -4.4073 C   0  0  0  0  0  0  0  0  0  0  0  0
  -29.7817   -5.2665   -4.8249 C   0  0  0  0  0  0  0  0  0  0  0  0
  -30.4653   -4.4253   -4.0545 N   0  0  0  0  0  0  0  0  0  0  0  0
  -30.3057   -3.1237   -4.2924 C   0  0  0  0  0  0  0  0  0  0  0  0
  -29.4095   -2.6509   -5.2357 C   0  0  0  0  0  0  0  0  0  0  0  0
  -28.8139   -3.5141   -6.1319 N   0  0  0  0  0  0  0  0  0  0  0  0
  -29.0576   -4.8896   -5.9869 C   0  0  0  0  0  0  0  0  0  0  0  0
  -28.7289   -5.9944   -6.8626 C   0  0  0  0  0  0  0  0  0  0  0  0
  -28.9786   -1.2619   -5.0468 C   0  0  0  0  0  0  0  0  0  0  0  0
  -29.6857   -0.0686   -5.3564 C   0  0  0  0  0  0  0  0  0  0  0  0
  -28.9056    1.0162   -5.3944 N   0  0  0  0  0  0  0  0  0  0  0  0
  -27.6756    0.5284   -5.1635 N   0  0  0  0  0  0  0  0  0  0  0  0
  -27.6581   -0.8336   -5.0307 C   0  0  0  0  0  0  0  0  0  0  0  0
  -26.8914    1.1710   -5.1743 H   0  0  0  0  0  0  0  0  0  0  0  0
  -26.3580  -10.8767   -8.1002 C   0  0  0  0  0  0  0  0  0  0  0  0
  -26.4138  -10.9844   -9.4906 C   0  0  0  0  0  0  0  0  0  0  0  0
  -27.3319  -10.2238  -10.2059 C   0  0  0  0  0  0  0  0  0  0  0  0
  -28.1891   -9.3483   -9.5219 C   0  0  0  0  0  0  0  0  0  0  0  0
  -28.1673   -9.2065   -8.1244 C   0  0  0  0  0  0  0  0  0  0  0  0
  -27.2122   -9.9673   -7.4322 C   0  0  0  0  0  0  0  0  0  0  0  0
  -25.2032  -11.0888   -6.0178 C   0  0  0  0  0  0  0  0  0  0  0  0
  -25.5419  -11.6320   -7.2935 O   0  0  0  0  0  0  0  0  0  0  0  0
  -27.5230  -10.2652  -11.5612 O   0  0  0  0  0  0  0  0  0  0  0  0
  -28.8664  -10.2448  -12.0309 C   0  0  0  0  0  0  0  0  0  0  0  0
  -30.5031   -8.3258   -8.0921 C   0  0  0  0  0  0  0  0  0  0  0  0
  -31.6878   -9.3010   -7.7324 C   0  0  0  0  0  0  0  0  0  0  0  0
  -31.3110  -10.4355   -6.7729 C   0  0  0  0  0  0  0  0  0  0  0  0
  -32.7777   -8.4279   -7.0675 C   0  0  0  0  0  0  0  0  0  0  0  0
  -32.3360   -9.8739   -8.8697 O   0  0  0  0  0  0  0  0  0  0  0  0
  -31.8112  -10.6394   -9.1639 H   0  0  0  0  0  0  0  0  0  0  0  0
 24 25  1  0  0  0
 25 18  1  0  0  0
 18 19  1  0  0  0
 18 23  2  0  0  0
 19 20  2  0  0  0
 20 26  1  0  0  0
 20 21  1  0  0  0
 26 27  1  0  0  0
 21 22  2  0  0  0
 22  1  1  0  0  0
 22 23  1  0  0  0
  1 28  1  0  0  0
  1  2  1  0  0  0
 28 29  1  0  0  0
 29 30  1  0  0  0
 29 31  1  0  0  0
 29 32  1  0  0  0
 32 33  1  0  0  0
  2  3  1  0  0  0
  2 11  2  0  0  0
  3  4  2  0  0  0
  4  5  1  0  0  0
  5  6  1  0  0  0
  5 10  2  0  0  0
  6  7  2  0  0  0
  7  8  1  0  0  0
  8 12  1  0  0  0
  8  9  2  0  0  0
 12 13  1  0  0  0
 12 16  2  0  0  0
 13 14  2  0  0  0
 14 15  1  0  0  0
 15 16  1  0  0  0
 15 17  1  0  0  0
  9 10  1  0  0  0
 10 11  1  0  0  0
M  END
> <minimizedAffinity>
-8.50406

$$$$
