CHEMBL389333


 46 50  0  0  0  0  0  0  0  0999 V2000
  -23.0796    1.8013  -13.8297 O   0  0  0  0  0  0  0  0  0  0  0  0
  -26.2114   -2.1636  -10.9049 C   0  0  0  0  0  0  0  0  0  0  0  0
  -25.9030   -2.6085  -12.0987 N   0  0  0  0  0  0  0  0  0  0  0  0
  -25.2907   -1.5549  -12.7281 C   0  0  0  0  0  0  0  0  0  0  0  0
  -24.9053   -1.4224  -14.0686 C   0  0  0  0  0  0  0  0  0  0  0  0
  -24.2316   -0.2610  -14.4620 C   0  0  0  0  0  0  0  0  0  0  0  0
  -23.8655    0.7094  -13.5195 C   0  0  0  0  0  0  0  0  0  0  0  0
  -24.3300    0.6376  -12.1954 C   0  0  0  0  0  0  0  0  0  0  0  0
  -25.0610   -0.5038  -11.8467 C   0  0  0  0  0  0  0  0  0  0  0  0
  -25.7122   -0.8968  -10.7026 N   0  0  0  0  0  0  0  0  0  0  0  0
  -25.8204   -0.3606   -9.8512 H   0  0  0  0  0  0  0  0  0  0  0  0
  -27.4114   -2.2567   -8.8456 C   0  0  0  0  0  0  0  0  0  0  0  0
  -27.2277   -1.0708   -8.5674 O   0  0  0  0  0  0  0  0  0  0  0  0
  -26.9223   -2.8808   -9.9753 N   0  0  0  0  0  0  0  0  0  0  0  0
  -27.4561   -3.6608  -10.3398 H   0  0  0  0  0  0  0  0  0  0  0  0
  -28.1993   -3.1827   -7.9119 C   0  0  0  0  0  0  0  0  0  0  0  0
  -29.0857   -5.6999   -3.8342 C   0  0  0  0  0  0  0  0  0  0  0  0
  -29.2041   -4.4057   -4.4994 N   0  0  0  0  0  0  0  0  0  0  0  0
  -27.8815   -3.8557   -4.8435 C   0  0  0  0  0  0  0  0  0  0  0  0
  -28.0095   -2.4829   -5.5485 C   0  0  0  0  0  0  0  0  0  0  0  0
  -28.8381   -2.4755   -6.7809 N   0  0  0  0  0  0  0  0  0  0  0  0
  -30.1368   -3.1246   -6.4475 C   0  0  0  0  0  0  0  0  0  0  0  0
  -30.0417   -4.4862   -5.7069 C   0  0  0  0  0  0  0  0  0  0  0  0
  -21.7640    1.5968  -14.1927 C   0  0  0  0  0  0  0  0  0  0  0  0
  -20.9182    2.6924  -14.0555 C   0  0  0  0  0  0  0  0  0  0  0  0
  -19.5787    2.5966  -14.4633 C   0  0  0  0  0  0  0  0  0  0  0  0
  -19.0716    1.4160  -15.0062 C   0  0  0  0  0  0  0  0  0  0  0  0
  -19.9125    0.2980  -15.0830 C   0  0  0  0  0  0  0  0  0  0  0  0
  -21.2455    0.3843  -14.6463 C   0  0  0  0  0  0  0  0  0  0  0  0
  -17.7572    1.2843  -15.5090 N   0  0  0  0  0  0  0  0  0  0  0  0
  -16.6095    1.1688  -14.7459 C   0  0  0  0  0  0  0  0  0  0  0  0
  -16.5798    1.0490  -13.5262 O   0  0  0  0  0  0  0  0  0  0  0  0
  -15.4563    1.2396  -15.5198 N   0  0  0  0  0  0  0  0  0  0  0  0
  -17.6475    1.1598  -16.5042 H   0  0  0  0  0  0  0  0  0  0  0  0
  -15.5003    1.9186  -16.2720 H   0  0  0  0  0  0  0  0  0  0  0  0
  -14.1917    1.1344  -14.8846 C   0  0  0  0  0  0  0  0  0  0  0  0
  -13.6738   -0.1105  -14.5057 C   0  0  0  0  0  0  0  0  0  0  0  0
  -12.4797   -0.2006  -13.7741 C   0  0  0  0  0  0  0  0  0  0  0  0
  -11.8101    0.9835  -13.4227 C   0  0  0  0  0  0  0  0  0  0  0  0
  -12.3049    2.2260  -13.8298 C   0  0  0  0  0  0  0  0  0  0  0  0
  -13.4776    2.2915  -14.5773 C   0  0  0  0  0  0  0  0  0  0  0  0
  -13.9612    3.4900  -14.9380 F   0  0  0  0  0  0  0  0  0  0  0  0
  -11.9303   -1.5437  -13.3563 C   0  0  0  0  0  0  0  0  0  0  0  0
  -12.8573   -2.3691  -12.7960 F   0  0  0  0  0  0  0  0  0  0  0  0
  -11.4112   -2.2340  -14.4107 F   0  0  0  0  0  0  0  0  0  0  0  0
  -10.9216   -1.4382  -12.4485 F   0  0  0  0  0  0  0  0  0  0  0  0
 17 18  1  0  0  0
 18 19  1  0  0  0
 18 23  1  0  0  0
 19 20  1  0  0  0
 20 21  1  0  0  0
 21 16  1  0  0  0
 21 22  1  0  0  0
 16 12  1  0  0  0
 12 13  2  0  0  0
 12 14  1  0  0  0
 14  2  1  0  0  0
 14 15  1  0  0  0
  2  3  2  0  0  0
  2 10  1  0  0  0
  3  4  1  0  0  0
  4  5  1  0  0  0
  4  9  2  0  0  0
  5  6  2  0  0  0
  6  7  1  0  0  0
  7  1  1  0  0  0
  7  8  2  0  0  0
  1 24  1  0  0  0
 24 25  1  0  0  0
 24 29  2  0  0  0
 25 26  2  0  0  0
 26 27  1  0  0  0
 27 30  1  0  0  0
 27 28  2  0  0  0
 30 31  1  0  0  0
 30 34  1  0  0  0
 31 32  2  0  0  0
 31 33  1  0  0  0
 33 36  1  0  0  0
 33 35  1  0  0  0
 36 37  1  0  0  0
 36 41  2  0  0  0
 37 38  2  0  0  0
 38 43  1  0  0  0
 38 39  1  0  0  0
 43 44  1  0  0  0
 43 45  1  0  0  0
 43 46  1  0  0  0
 39 40  2  0  0  0
 40 41  1  0  0  0
 41 42  1  0  0  0
 28 29  1  0  0  0
  8  9  1  0  0  0
  9 10  1  0  0  0
 10 11  1  0  0  0
 22 23  1  0  0  0
M  END
> <minimizedAffinity>
-10.09773

$$$$
