CHEMBL445394


 33 36  0  0  0  0  0  0  0  0999 V2000
  -29.7989   -6.4222   -5.2664 C   0  0  0  0  0  0  0  0  0  0  0  0
  -29.7857   -6.7915   -3.9201 C   0  0  0  0  0  0  0  0  0  0  0  0
  -29.1340   -7.9385   -3.4741 C   0  0  0  0  0  0  0  0  0  0  0  0
  -28.6210   -8.8708   -4.3696 C   0  0  0  0  0  0  0  0  0  0  0  0
  -28.7735   -8.5875   -5.7363 C   0  0  0  0  0  0  0  0  0  0  0  0
  -29.3108   -7.3538   -6.1833 C   0  0  0  0  0  0  0  0  0  0  0  0
  -27.9260  -10.0726   -3.8615 C   0  0  0  0  0  0  0  0  0  0  0  0
  -28.6172  -11.2576   -3.5748 C   0  0  0  0  0  0  0  0  0  0  0  0
  -30.0601  -11.6557   -3.7080 C   0  0  0  0  0  0  0  0  0  0  0  0
  -27.5869  -12.4654   -2.9294 S   0  0  0  0  0  0  0  0  0  0  0  0
  -26.2266  -11.4706   -3.0381 C   0  0  0  0  0  0  0  0  0  0  0  0
  -25.0389  -11.9568   -2.6431 N   0  0  0  0  0  0  0  0  0  0  0  0
  -24.0583  -11.0706   -2.7724 C   0  0  0  0  0  0  0  0  0  0  0  0
  -24.1614   -9.8119   -3.2123 N   0  0  0  0  0  0  0  0  0  0  0  0
  -25.3714   -9.3498   -3.5822 C   0  0  0  0  0  0  0  0  0  0  0  0
  -25.3772   -8.0149   -3.9704 N   0  0  0  0  0  0  0  0  0  0  0  0
  -26.4997  -10.2016   -3.5309 C   0  0  0  0  0  0  0  0  0  0  0  0
  -24.4896   -7.5920   -3.7183 H   0  0  0  0  0  0  0  0  0  0  0  0
  -26.1948   -7.5076   -3.6546 H   0  0  0  0  0  0  0  0  0  0  0  0
  -30.0461   -2.8190   -5.9734 N   0  0  0  0  0  0  0  0  0  0  0  0
  -29.4872   -3.9848   -5.4903 C   0  0  0  0  0  0  0  0  0  0  0  0
  -28.3863   -3.9996   -4.9397 O   0  0  0  0  0  0  0  0  0  0  0  0
  -30.2443   -5.1329   -5.6860 N   0  0  0  0  0  0  0  0  0  0  0  0
  -31.0514   -2.7559   -6.0537 H   0  0  0  0  0  0  0  0  0  0  0  0
  -30.9780   -5.0883   -6.3800 H   0  0  0  0  0  0  0  0  0  0  0  0
  -28.4043   -1.2703   -6.9533 C   0  0  0  0  0  0  0  0  0  0  0  0
  -27.7700   -0.0139   -6.9574 C   0  0  0  0  0  0  0  0  0  0  0  0
  -28.0582    0.9437   -5.9827 C   0  0  0  0  0  0  0  0  0  0  0  0
  -28.9683    0.6507   -4.9842 C   0  0  0  0  0  0  0  0  0  0  0  0
  -29.5868   -0.5942   -4.9597 C   0  0  0  0  0  0  0  0  0  0  0  0
  -29.3529   -1.5620   -5.9616 C   0  0  0  0  0  0  0  0  0  0  0  0
  -27.5348   -1.7994   -9.0993 C   0  0  0  0  0  0  0  0  0  0  0  0
  -28.1691   -2.2451   -7.8992 O   0  0  0  0  0  0  0  0  0  0  0  0
 32 33  1  0  0  0
 33 26  1  0  0  0
 26 27  1  0  0  0
 26 31  2  0  0  0
 27 28  2  0  0  0
 28 29  1  0  0  0
 29 30  2  0  0  0
 30 31  1  0  0  0
 31 20  1  0  0  0
 20 21  1  0  0  0
 20 24  1  0  0  0
 21 22  2  0  0  0
 21 23  1  0  0  0
 23  1  1  0  0  0
 23 25  1  0  0  0
  1  2  1  0  0  0
  1  6  2  0  0  0
  2  3  2  0  0  0
  3  4  1  0  0  0
  4  7  1  0  0  0
  4  5  2  0  0  0
  7  8  2  0  0  0
  7 17  1  0  0  0
  8  9  1  0  0  0
  8 10  1  0  0  0
 10 11  1  0  0  0
 11 12  1  0  0  0
 11 17  2  0  0  0
 12 13  2  0  0  0
 13 14  1  0  0  0
 14 15  2  0  0  0
 15 16  1  0  0  0
 15 17  1  0  0  0
 16 18  1  0  0  0
 16 19  1  0  0  0
  5  6  1  0  0  0
M  END
> <minimizedAffinity>
-8.40022

$$$$
