CHEMBL2032018


 42 47  0  0  0  0  0  0  0  0999 V2000
  -15.5699   -0.9084  -14.1981 N   0  0  0  0  0  0  0  0  0  0  0  0
  -15.9250    0.3421  -13.7277 C   0  0  0  0  0  0  0  0  0  0  0  0
  -16.2962    0.5919  -12.5829 O   0  0  0  0  0  0  0  0  0  0  0  0
  -15.2932   -1.0097  -15.1684 H   0  0  0  0  0  0  0  0  0  0  0  0
  -15.7946    1.4723  -14.6719 C   0  0  0  0  0  0  0  0  0  0  0  0
  -16.7783    2.3335  -15.0122 C   0  0  0  0  0  0  0  0  0  0  0  0
  -16.2923    3.4475  -15.7132 N   0  0  0  0  0  0  0  0  0  0  0  0
  -17.0856    4.1999  -16.6872 C   0  0  0  0  0  0  0  0  0  0  0  0
  -14.9665    3.1378  -16.0510 N   0  0  0  0  0  0  0  0  0  0  0  0
  -14.5922    1.9596  -15.3910 C   0  0  0  0  0  0  0  0  0  0  0  0
  -13.5101    1.3925  -15.3560 O   0  0  0  0  0  0  0  0  0  0  0  0
  -18.1767    2.1357  -14.7708 C   0  0  0  0  0  0  0  0  0  0  0  0
  -18.9082    0.9763  -15.1041 C   0  0  0  0  0  0  0  0  0  0  0  0
  -20.1641    1.2157  -14.6095 C   0  0  0  0  0  0  0  0  0  0  0  0
  -21.4227    0.4515  -14.5794 C   0  0  0  0  0  0  0  0  0  0  0  0
  -20.1925    2.4396  -14.0175 O   0  0  0  0  0  0  0  0  0  0  0  0
  -18.9368    3.0219  -14.1027 N   0  0  0  0  0  0  0  0  0  0  0  0
  -14.0986    4.0714  -16.6421 C   0  0  0  0  0  0  0  0  0  0  0  0
  -13.3830    4.9473  -15.8208 C   0  0  0  0  0  0  0  0  0  0  0  0
  -12.4530    5.8310  -16.3738 C   0  0  0  0  0  0  0  0  0  0  0  0
  -12.2689    5.8774  -17.7551 C   0  0  0  0  0  0  0  0  0  0  0  0
  -12.9931    5.0204  -18.5828 C   0  0  0  0  0  0  0  0  0  0  0  0
  -13.8892    4.1033  -18.0264 C   0  0  0  0  0  0  0  0  0  0  0  0
  -15.4161   -4.3476  -11.7906 C   0  0  0  0  0  0  0  0  0  0  0  0
  -14.6521   -3.2292  -11.4571 C   0  0  0  0  0  0  0  0  0  0  0  0
  -14.7087   -2.0695  -12.2507 C   0  0  0  0  0  0  0  0  0  0  0  0
  -15.5297   -2.0564  -13.3735 C   0  0  0  0  0  0  0  0  0  0  0  0
  -16.2983   -3.1192  -13.6729 N   0  0  0  0  0  0  0  0  0  0  0  0
  -16.2515   -4.2202  -12.8852 C   0  0  0  0  0  0  0  0  0  0  0  0
  -15.2541   -5.4752  -11.0176 O   0  0  0  0  0  0  0  0  0  0  0  0
  -12.9681   -9.1696  -13.8285 C   0  0  0  0  0  0  0  0  0  0  0  0
  -14.1852   -8.5232  -13.9836 C   0  0  0  0  0  0  0  0  0  0  0  0
  -14.5271   -7.4872  -13.1245 C   0  0  0  0  0  0  0  0  0  0  0  0
  -13.7087   -7.1354  -12.0304 C   0  0  0  0  0  0  0  0  0  0  0  0
  -14.0610   -6.1806  -11.0458 C   0  0  0  0  0  0  0  0  0  0  0  0
  -13.1439   -5.8330  -10.0576 C   0  0  0  0  0  0  0  0  0  0  0  0
  -11.9294   -6.4894  -10.0417 C   0  0  0  0  0  0  0  0  0  0  0  0
  -11.5873   -7.4595  -10.9166 N   0  0  0  0  0  0  0  0  0  0  0  0
  -12.4603   -7.7806  -11.8876 C   0  0  0  0  0  0  0  0  0  0  0  0
  -12.1201   -8.7889  -12.7850 C   0  0  0  0  0  0  0  0  0  0  0  0
  -12.9473  -10.1040  -15.9891 C   0  0  0  0  0  0  0  0  0  0  0  0
  -12.5273  -10.1882  -14.6289 O   0  0  0  0  0  0  0  0  0  0  0  0
 41 42  1  0  0  0
 42 31  1  0  0  0
 31 32  1  0  0  0
 31 40  2  0  0  0
 32 33  2  0  0  0
 33 34  1  0  0  0
 34 35  1  0  0  0
 34 39  2  0  0  0
 35 30  1  0  0  0
 35 36  2  0  0  0
 30 24  1  0  0  0
 24 25  1  0  0  0
 24 29  2  0  0  0
 25 26  2  0  0  0
 26 27  1  0  0  0
 27  1  1  0  0  0
 27 28  2  0  0  0
  1  2  1  0  0  0
  1  4  1  0  0  0
  2  3  2  0  0  0
  2  5  1  0  0  0
  5  6  2  0  0  0
  5 10  1  0  0  0
  6 12  1  0  0  0
  6  7  1  0  0  0
 12 13  1  0  0  0
 12 17  2  0  0  0
 13 14  2  0  0  0
 14 15  1  0  0  0
 14 16  1  0  0  0
 16 17  1  0  0  0
  7  8  1  0  0  0
  7  9  1  0  0  0
  9 18  1  0  0  0
  9 10  1  0  0  0
 18 19  1  0  0  0
 18 23  2  0  0  0
 19 20  2  0  0  0
 20 21  1  0  0  0
 21 22  2  0  0  0
 22 23  1  0  0  0
 10 11  2  0  0  0
 28 29  1  0  0  0
 36 37  1  0  0  0
 37 38  2  0  0  0
 38 39  1  0  0  0
 39 40  1  0  0  0
M  END
> <minimizedAffinity>
-8.81200

$$$$
