CHEMBL1076200


 49 54  0  0  0  0  0  0  0  0999 V2000
  -14.3840   -0.2386  -14.0334 C   0  0  0  0  0  0  0  0  0  0  0  0
  -14.4264    0.7123  -13.1136 N   0  0  0  0  0  0  0  0  0  0  0  0
  -13.2040    1.3177  -13.2733 C   0  0  0  0  0  0  0  0  0  0  0  0
  -12.8027    2.6208  -12.9726 C   0  0  0  0  0  0  0  0  0  0  0  0
  -11.5553    3.0531  -13.4386 C   0  0  0  0  0  0  0  0  0  0  0  0
  -10.6984    2.1834  -14.1234 C   0  0  0  0  0  0  0  0  0  0  0  0
  -11.0440    0.8477  -14.3530 C   0  0  0  0  0  0  0  0  0  0  0  0
  -12.3227    0.4651  -13.9353 C   0  0  0  0  0  0  0  0  0  0  0  0
  -13.0626   -0.7050  -14.0428 N   0  0  0  0  0  0  0  0  0  0  0  0
  -12.5997   -2.0326  -13.8270 C   0  0  0  0  0  0  0  0  0  0  0  0
  -12.1565   -2.3782  -12.5536 C   0  0  0  0  0  0  0  0  0  0  0  0
  -11.7310   -3.6778  -12.3476 C   0  0  0  0  0  0  0  0  0  0  0  0
  -11.7199   -4.5638  -13.3523 N   0  0  0  0  0  0  0  0  0  0  0  0
  -12.1940   -4.1482  -14.5390 C   0  0  0  0  0  0  0  0  0  0  0  0
  -12.6722   -2.9283  -14.8282 N   0  0  0  0  0  0  0  0  0  0  0  0
  -11.3672   -4.0654  -11.0434 N   0  0  0  0  0  0  0  0  0  0  0  0
  -11.5577   -3.2955  -10.3977 H   0  0  0  0  0  0  0  0  0  0  0  0
  -11.9993   -5.3009  -10.5651 C   0  0  0  0  0  0  0  0  0  0  0  0
  -13.1743   -4.9989   -9.5962 C   0  0  0  0  0  0  0  0  0  0  0  0
  -14.5089   -5.0052  -10.2303 N   0  0  0  0  0  0  0  0  0  0  0  0
  -14.9817   -3.6471  -10.5671 C   0  0  0  0  0  0  0  0  0  0  0  0
  -16.3968   -3.6895  -11.1857 C   0  0  0  0  0  0  0  0  0  0  0  0
  -16.5160   -4.5222  -12.3970 N   0  0  0  0  0  0  0  0  0  0  0  0
  -15.9185   -3.8674  -13.5573 C   0  0  0  0  0  0  0  0  0  0  0  0
  -15.9121   -5.8461  -12.1379 C   0  0  0  0  0  0  0  0  0  0  0  0
  -14.5123   -5.8198  -11.4679 C   0  0  0  0  0  0  0  0  0  0  0  0
  -15.1102   -0.0543  -15.1733 N   0  0  0  0  0  0  0  0  0  0  0  0
  -14.4769   -0.1523  -15.9677 H   0  0  0  0  0  0  0  0  0  0  0  0
  -14.0830    2.0940  -16.7787 C   0  0  0  0  0  0  0  0  0  0  0  0
  -15.4834    2.1036  -16.2072 C   0  0  0  0  0  0  0  0  0  0  0  0
  -16.2799    3.2406  -16.3852 C   0  0  0  0  0  0  0  0  0  0  0  0
  -17.5639    3.2846  -15.8372 C   0  0  0  0  0  0  0  0  0  0  0  0
  -18.0641    2.1893  -15.1219 C   0  0  0  0  0  0  0  0  0  0  0  0
  -17.2890    1.0337  -14.9749 C   0  0  0  0  0  0  0  0  0  0  0  0
  -15.9975    0.9887  -15.5071 C   0  0  0  0  0  0  0  0  0  0  0  0
  -19.4207    2.2801  -14.5229 C   0  0  0  0  0  0  0  0  0  0  0  0
  -19.7509    3.3511  -14.0196 O   0  0  0  0  0  0  0  0  0  0  0  0
  -20.1676    1.1094  -14.5324 N   0  0  0  0  0  0  0  0  0  0  0  0
  -19.6878    0.2551  -14.7916 H   0  0  0  0  0  0  0  0  0  0  0  0
  -21.4771    0.9579  -14.0243 C   0  0  0  0  0  0  0  0  0  0  0  0
  -22.3977    2.0065  -13.9808 C   0  0  0  0  0  0  0  0  0  0  0  0
  -23.6598    1.8254  -13.4173 C   0  0  0  0  0  0  0  0  0  0  0  0
  -24.0168    0.5921  -12.8816 C   0  0  0  0  0  0  0  0  0  0  0  0
  -23.1209   -0.4835  -12.9283 C   0  0  0  0  0  0  0  0  0  0  0  0
  -21.8598   -0.2983  -13.5317 C   0  0  0  0  0  0  0  0  0  0  0  0
  -23.4847   -1.8106  -12.3085 C   0  0  0  0  0  0  0  0  0  0  0  0
  -23.0495   -2.8848  -13.0256 F   0  0  0  0  0  0  0  0  0  0  0  0
  -22.9714   -1.9654  -11.0572 F   0  0  0  0  0  0  0  0  0  0  0  0
  -24.8317   -1.9723  -12.1826 F   0  0  0  0  0  0  0  0  0  0  0  0
 29 30  1  0  0  0
 30 31  1  0  0  0
 30 35  2  0  0  0
 31 32  2  0  0  0
 32 33  1  0  0  0
 33 36  1  0  0  0
 33 34  2  0  0  0
 36 37  2  0  0  0
 36 38  1  0  0  0
 38 40  1  0  0  0
 38 39  1  0  0  0
 40 41  1  0  0  0
 40 45  2  0  0  0
 41 42  2  0  0  0
 42 43  1  0  0  0
 43 44  2  0  0  0
 44 46  1  0  0  0
 44 45  1  0  0  0
 46 47  1  0  0  0
 46 48  1  0  0  0
 46 49  1  0  0  0
 34 35  1  0  0  0
 35 27  1  0  0  0
 27  1  1  0  0  0
 27 28  1  0  0  0
  1  2  2  0  0  0
  1  9  1  0  0  0
  2  3  1  0  0  0
  3  4  1  0  0  0
  3  8  2  0  0  0
  4  5  2  0  0  0
  5  6  1  0  0  0
  6  7  2  0  0  0
  7  8  1  0  0  0
  8  9  1  0  0  0
  9 10  1  0  0  0
 10 11  1  0  0  0
 10 15  2  0  0  0
 11 12  2  0  0  0
 12 16  1  0  0  0
 12 13  1  0  0  0
 16 18  1  0  0  0
 16 17  1  0  0  0
 18 19  1  0  0  0
 19 20  1  0  0  0
 20 21  1  0  0  0
 20 26  1  0  0  0
 21 22  1  0  0  0
 22 23  1  0  0  0
 23 24  1  0  0  0
 23 25  1  0  0  0
 25 26  1  0  0  0
 13 14  2  0  0  0
 14 15  1  0  0  0
M  END
> <minimizedAffinity>
-10.50873

$$$$
