CHEMBL494267


 35 39  0  0  0  0  0  0  0  0999 V2000
  -28.9356   -3.9638   -5.0359 C   0  0  0  0  0  0  0  0  0  0  0  0
  -29.1631   -3.4093   -3.7902 C   0  0  0  0  0  0  0  0  0  0  0  0
  -28.8803   -2.0374   -3.6940 C   0  0  0  0  0  0  0  0  0  0  0  0
  -28.4048   -1.2441   -4.8241 C   0  0  0  0  0  0  0  0  0  0  0  0
  -28.1548   -1.8021   -6.1079 C   0  0  0  0  0  0  0  0  0  0  0  0
  -28.4328   -3.1530   -6.1266 C   0  0  0  0  0  0  0  0  0  0  0  0
  -28.2859   -3.8344   -7.4224 C   0  0  0  0  0  0  0  0  0  0  0  0
  -28.1331   -3.1549   -8.7295 C   0  0  0  0  0  0  0  0  0  0  0  0
  -27.2748   -1.9622   -8.7670 N   0  0  0  0  0  0  0  0  0  0  0  0
  -27.6827   -1.0844   -7.4934 C   0  0  0  0  0  0  0  0  0  0  0  0
  -28.4265   -6.3024   -5.7096 N   0  0  0  0  0  0  0  0  0  0  0  0
  -29.3830   -5.3537   -5.4062 C   0  0  0  0  0  0  0  0  0  0  0  0
  -30.5971   -5.5587   -5.4121 O   0  0  0  0  0  0  0  0  0  0  0  0
  -27.4901   -6.1914   -5.3444 H   0  0  0  0  0  0  0  0  0  0  0  0
  -29.0114   -9.7788   -8.1568 C   0  0  0  0  0  0  0  0  0  0  0  0
  -28.9838   -8.4970   -8.7148 C   0  0  0  0  0  0  0  0  0  0  0  0
  -28.8181   -7.3538   -7.9178 C   0  0  0  0  0  0  0  0  0  0  0  0
  -28.6747   -7.4424   -6.5292 C   0  0  0  0  0  0  0  0  0  0  0  0
  -28.6944   -8.7145   -5.9578 C   0  0  0  0  0  0  0  0  0  0  0  0
  -28.8731   -9.8611   -6.7569 C   0  0  0  0  0  0  0  0  0  0  0  0
  -28.0965  -12.1325   -8.7242 C   0  0  0  0  0  0  0  0  0  0  0  0
  -29.1612  -11.0467   -9.0162 C   0  0  0  0  0  0  0  0  0  0  0  0
  -29.0439  -10.6826  -10.5106 C   0  0  0  0  0  0  0  0  0  0  0  0
  -30.5396  -11.6872   -8.7458 C   0  0  0  0  0  0  0  0  0  0  0  0
  -27.5525   -1.4107  -10.1981 C   0  0  0  0  0  0  0  0  0  0  0  0
  -26.8449   -1.5681  -11.6105 C   0  0  0  0  0  0  0  0  0  0  0  0
  -27.8077   -1.8590  -12.6360 C   0  0  0  0  0  0  0  0  0  0  0  0
  -27.4940   -1.8640  -13.9871 C   0  0  0  0  0  0  0  0  0  0  0  0
  -26.2773   -1.5907  -14.4632 N   0  0  0  0  0  0  0  0  0  0  0  0
  -25.3257   -1.3712  -13.5329 C   0  0  0  0  0  0  0  0  0  0  0  0
  -24.0856   -1.1392  -14.1346 C   0  0  0  0  0  0  0  0  0  0  0  0
  -22.9482   -0.9476  -13.3630 C   0  0  0  0  0  0  0  0  0  0  0  0
  -23.0501   -1.0196  -12.0055 C   0  0  0  0  0  0  0  0  0  0  0  0
  -24.3184   -1.2154  -11.3624 C   0  0  0  0  0  0  0  0  0  0  0  0
  -25.5064   -1.3706  -12.1186 C   0  0  0  0  0  0  0  0  0  0  0  0
 21 22  1  0  0  0
 22 23  1  0  0  0
 22 24  1  0  0  0
 22 15  1  0  0  0
 15 16  1  0  0  0
 15 20  2  0  0  0
 16 17  2  0  0  0
 17 18  1  0  0  0
 18 11  1  0  0  0
 18 19  2  0  0  0
 11 12  1  0  0  0
 11 14  1  0  0  0
 12 13  2  0  0  0
 12  1  1  0  0  0
  1  2  1  0  0  0
  1  6  2  0  0  0
  2  3  2  0  0  0
  3  4  1  0  0  0
  4  5  2  0  0  0
  5  6  1  0  0  0
  5 10  1  0  0  0
  6  7  1  0  0  0
  7  8  1  0  0  0
  8  9  1  0  0  0
  9 25  1  0  0  0
  9 10  1  0  0  0
 25 26  1  0  0  0
 26 27  1  0  0  0
 26 35  2  0  0  0
 27 28  2  0  0  0
 28 29  1  0  0  0
 29 30  2  0  0  0
 30 31  1  0  0  0
 30 35  1  0  0  0
 31 32  2  0  0  0
 32 33  1  0  0  0
 33 34  2  0  0  0
 34 35  1  0  0  0
 19 20  1  0  0  0
M  END
> <minimizedAffinity>
-11.50637

$$$$
