CHEMBL403522


 43 49  0  0  0  0  0  0  0  0999 V2000
  -12.6811    0.9514  -13.6229 C   0  0  0  0  0  0  0  0  0  0  0  0
  -11.4553    0.5060  -13.3219 N   0  0  0  0  0  0  0  0  0  0  0  0
  -11.2662   -0.8028  -13.3614 C   0  0  0  0  0  0  0  0  0  0  0  0
  -12.2914   -1.6708  -13.6450 C   0  0  0  0  0  0  0  0  0  0  0  0
  -11.9747   -3.0645  -13.4131 C   0  0  0  0  0  0  0  0  0  0  0  0
  -11.0397   -3.5537  -14.0360 O   0  0  0  0  0  0  0  0  0  0  0  0
  -12.7245   -3.6636  -12.4377 N   0  0  0  0  0  0  0  0  0  0  0  0
  -13.7488   -2.8563  -11.9083 C   0  0  0  0  0  0  0  0  0  0  0  0
  -14.5599   -3.0371  -10.9013 N   0  0  0  0  0  0  0  0  0  0  0  0
  -15.6458   -3.4592  -11.5886 C   0  0  0  0  0  0  0  0  0  0  0  0
  -16.4441   -4.5220  -11.1456 C   0  0  0  0  0  0  0  0  0  0  0  0
  -16.9274   -5.3753  -12.1282 C   0  0  0  0  0  0  0  0  0  0  0  0
  -16.8137   -5.0229  -13.4772 C   0  0  0  0  0  0  0  0  0  0  0  0
  -16.2226   -3.7907  -13.9197 C   0  0  0  0  0  0  0  0  0  0  0  0
  -15.5633   -3.0116  -12.9320 C   0  0  0  0  0  0  0  0  0  0  0  0
  -14.4585   -2.0791  -12.8426 N   0  0  0  0  0  0  0  0  0  0  0  0
  -13.5970   -1.2215  -13.6607 C   0  0  0  0  0  0  0  0  0  0  0  0
  -13.7989    0.1406  -13.7184 N   0  0  0  0  0  0  0  0  0  0  0  0
  -12.9606   -5.0643  -12.4523 C   0  0  0  0  0  0  0  0  0  0  0  0
  -12.8229   -5.7586  -11.2352 C   0  0  0  0  0  0  0  0  0  0  0  0
  -12.3292   -5.0951   -9.9752 C   0  0  0  0  0  0  0  0  0  0  0  0
  -13.1166   -7.1258  -11.1873 C   0  0  0  0  0  0  0  0  0  0  0  0
  -13.5235   -7.8106  -12.3253 C   0  0  0  0  0  0  0  0  0  0  0  0
  -13.6424   -7.1402  -13.5412 C   0  0  0  0  0  0  0  0  0  0  0  0
  -13.3740   -5.7608  -13.6323 C   0  0  0  0  0  0  0  0  0  0  0  0
  -13.5752   -5.1533  -15.0030 C   0  0  0  0  0  0  0  0  0  0  0  0
  -12.5867    2.3328  -13.8223 N   0  0  0  0  0  0  0  0  0  0  0  0
  -11.7949    2.6253  -13.2531 H   0  0  0  0  0  0  0  0  0  0  0  0
  -14.1578    4.4209  -16.4661 C   0  0  0  0  0  0  0  0  0  0  0  0
  -13.9871    3.4942  -15.4273 C   0  0  0  0  0  0  0  0  0  0  0  0
  -12.7400    3.1171  -14.9712 C   0  0  0  0  0  0  0  0  0  0  0  0
  -11.6223    3.6299  -15.6390 C   0  0  0  0  0  0  0  0  0  0  0  0
  -11.7734    4.5417  -16.6925 C   0  0  0  0  0  0  0  0  0  0  0  0
  -13.0381    5.0011  -17.1089 C   0  0  0  0  0  0  0  0  0  0  0  0
  -13.1361    6.0219  -18.0409 N   0  0  0  0  0  0  0  0  0  0  0  0
  -12.6006    7.3665  -17.7787 C   0  0  0  0  0  0  0  0  0  0  0  0
  -13.6272    8.4509  -18.1948 C   0  0  0  0  0  0  0  0  0  0  0  0
  -14.0827    8.3057  -19.5954 N   0  0  0  0  0  0  0  0  0  0  0  0
  -15.0570    9.3393  -19.9335 C   0  0  0  0  0  0  0  0  0  0  0  0
  -14.6625    6.9507  -19.7649 C   0  0  0  0  0  0  0  0  0  0  0  0
  -13.6538    5.8321  -19.4036 C   0  0  0  0  0  0  0  0  0  0  0  0
  -16.5057    4.2836  -16.1220 C   0  0  0  0  0  0  0  0  0  0  0  0
  -15.4132    4.8194  -16.8575 O   0  0  0  0  0  0  0  0  0  0  0  0
 42 43  1  0  0  0
 43 29  1  0  0  0
 29 30  1  0  0  0
 29 34  2  0  0  0
 30 31  2  0  0  0
 31 27  1  0  0  0
 31 32  1  0  0  0
 27  1  1  0  0  0
 27 28  1  0  0  0
  1  2  1  0  0  0
  1 18  2  0  0  0
  2  3  2  0  0  0
  3  4  1  0  0  0
  4  5  1  0  0  0
  4 17  2  0  0  0
  5  6  2  0  0  0
  5  7  1  0  0  0
  7 19  1  0  0  0
  7  8  1  0  0  0
 19 20  1  0  0  0
 19 25  2  0  0  0
 20 21  1  0  0  0
 20 22  2  0  0  0
 22 23  1  0  0  0
 23 24  2  0  0  0
 24 25  1  0  0  0
 25 26  1  0  0  0
  8  9  2  0  0  0
  8 16  1  0  0  0
  9 10  1  0  0  0
 10 11  1  0  0  0
 10 15  2  0  0  0
 11 12  2  0  0  0
 12 13  1  0  0  0
 13 14  2  0  0  0
 14 15  1  0  0  0
 15 16  1  0  0  0
 16 17  1  0  0  0
 17 18  1  0  0  0
 32 33  2  0  0  0
 33 34  1  0  0  0
 34 35  1  0  0  0
 35 36  1  0  0  0
 35 41  1  0  0  0
 36 37  1  0  0  0
 37 38  1  0  0  0
 38 39  1  0  0  0
 38 40  1  0  0  0
 40 41  1  0  0  0
M  END
> <minimizedAffinity>
-8.40621

$$$$
