CHEMBL184971


 39 44  0  0  0  0  0  0  0  0999 V2000
  -11.9011   -4.1139  -18.0375 C   0  0  0  0  0  0  0  0  0  0  0  0
  -11.9522   -2.8201  -17.5323 C   0  0  0  0  0  0  0  0  0  0  0  0
  -12.5839   -2.5662  -16.3240 C   0  0  0  0  0  0  0  0  0  0  0  0
  -13.2569   -3.5984  -15.6786 C   0  0  0  0  0  0  0  0  0  0  0  0
  -13.0998   -4.9266  -16.1420 C   0  0  0  0  0  0  0  0  0  0  0  0
  -12.3910   -5.1995  -17.3017 C   0  0  0  0  0  0  0  0  0  0  0  0
  -13.6893   -5.6373  -15.1257 C   0  0  0  0  0  0  0  0  0  0  0  0
  -13.2971   -6.9222  -14.6772 C   0  0  0  0  0  0  0  0  0  0  0  0
  -13.5675   -7.1960  -13.2760 C   0  0  0  0  0  0  0  0  0  0  0  0
  -14.3743   -6.3105  -12.5369 C   0  0  0  0  0  0  0  0  0  0  0  0
  -15.2479   -5.6249  -13.3851 C   0  0  0  0  0  0  0  0  0  0  0  0
  -14.5734   -4.9396  -14.3708 C   0  0  0  0  0  0  0  0  0  0  0  0
  -14.0389   -3.6403  -14.4972 N   0  0  0  0  0  0  0  0  0  0  0  0
  -16.4997   -5.4257  -12.6589 C   0  0  0  0  0  0  0  0  0  0  0  0
  -15.8629   -4.9252  -11.3803 C   0  0  0  0  0  0  0  0  0  0  0  0
  -16.3243   -3.7549  -10.8169 C   0  0  0  0  0  0  0  0  0  0  0  0
  -15.3797   -2.9835  -10.1734 C   0  0  0  0  0  0  0  0  0  0  0  0
  -14.0636   -3.4659  -10.0359 C   0  0  0  0  0  0  0  0  0  0  0  0
  -13.6336   -4.7272  -10.5689 C   0  0  0  0  0  0  0  0  0  0  0  0
  -14.5421   -5.4980  -11.3027 C   0  0  0  0  0  0  0  0  0  0  0  0
  -13.6626   -8.6494  -13.2111 C   0  0  0  0  0  0  0  0  0  0  0  0
  -14.0715   -9.4168  -12.3422 O   0  0  0  0  0  0  0  0  0  0  0  0
  -13.3799   -9.1089  -14.5073 N   0  0  0  0  0  0  0  0  0  0  0  0
  -13.0939   -8.0986  -15.5051 C   0  0  0  0  0  0  0  0  0  0  0  0
  -13.7484  -10.0148  -14.7720 H   0  0  0  0  0  0  0  0  0  0  0  0
  -11.3139   -4.3314  -19.3846 C   0  0  0  0  0  0  0  0  0  0  0  0
  -12.2837   -5.0253  -20.1548 O   0  0  0  0  0  0  0  0  0  0  0  0
  -13.1945   -3.8733  -21.9930 C   0  0  0  0  0  0  0  0  0  0  0  0
  -13.3924   -4.2129  -20.5186 C   0  0  0  0  0  0  0  0  0  0  0  0
  -14.6952   -4.9711  -20.3070 C   0  0  0  0  0  0  0  0  0  0  0  0
  -13.8467   -2.7481  -13.3599 C   0  0  0  0  0  0  0  0  0  0  0  0
  -14.3024   -1.2806  -13.3468 C   0  0  0  0  0  0  0  0  0  0  0  0
  -15.7848   -1.0565  -13.6197 C   0  0  0  0  0  0  0  0  0  0  0  0
  -16.2751    0.3159  -13.1999 C   0  0  0  0  0  0  0  0  0  0  0  0
  -16.1569    1.3085  -14.3393 C   0  0  0  0  0  0  0  0  0  0  0  0
  -15.0622    1.6894  -14.7519 O   0  0  0  0  0  0  0  0  0  0  0  0
  -17.3547    1.7459  -14.8843 N   0  0  0  0  0  0  0  0  0  0  0  0
  -18.6762    1.4085  -14.3765 C   0  0  0  0  0  0  0  0  0  0  0  0
  -17.3131    2.6531  -16.0156 C   0  0  0  0  0  0  0  0  0  0  0  0
 28 29  1  0  0  0
 29 30  1  0  0  0
 29 27  1  0  0  0
 27 26  1  0  0  0
 26  1  1  0  0  0
  1  2  1  0  0  0
  1  6  2  0  0  0
  2  3  2  0  0  0
  3  4  1  0  0  0
  4  5  2  0  0  0
  4 13  1  0  0  0
  5  6  1  0  0  0
  5  7  1  0  0  0
  7  8  1  0  0  0
  7 12  2  0  0  0
  8  9  2  0  0  0
  8 24  1  0  0  0
  9 10  1  0  0  0
  9 21  1  0  0  0
 10 11  2  0  0  0
 10 20  1  0  0  0
 11 12  1  0  0  0
 11 14  1  0  0  0
 12 13  1  0  0  0
 13 31  1  0  0  0
 31 32  1  0  0  0
 32 33  1  0  0  0
 33 34  1  0  0  0
 34 35  1  0  0  0
 35 36  2  0  0  0
 35 37  1  0  0  0
 37 38  1  0  0  0
 37 39  1  0  0  0
 14 15  1  0  0  0
 15 16  1  0  0  0
 15 20  2  0  0  0
 16 17  2  0  0  0
 17 18  1  0  0  0
 18 19  2  0  0  0
 19 20  1  0  0  0
 21 22  2  0  0  0
 21 23  1  0  0  0
 23 24  1  0  0  0
 23 25  1  0  0  0
M  END
> <minimizedAffinity>
-7.71584

$$$$
