CHEMBL3676360


 38 40  0  0  0  0  0  0  0  0999 V2000
  -13.4543   -2.1383  -14.4023 C   0  0  0  0  0  0  0  0  0  0  0  0
  -13.6972   -0.9848  -15.1502 C   0  0  0  0  0  0  0  0  0  0  0  0
  -12.9219    0.1743  -14.9424 C   0  0  0  0  0  0  0  0  0  0  0  0
  -13.1375    1.4005  -15.5902 C   0  0  0  0  0  0  0  0  0  0  0  0
  -12.3577    2.4721  -15.3614 N   0  0  0  0  0  0  0  0  0  0  0  0
  -11.3803    2.3273  -14.4617 C   0  0  0  0  0  0  0  0  0  0  0  0
  -11.1026    1.2152  -13.7739 N   0  0  0  0  0  0  0  0  0  0  0  0
  -11.8645    0.1464  -14.0211 C   0  0  0  0  0  0  0  0  0  0  0  0
  -11.6023   -1.0365  -13.3369 C   0  0  0  0  0  0  0  0  0  0  0  0
  -12.3615   -2.1953  -13.5306 C   0  0  0  0  0  0  0  0  0  0  0  0
  -15.5224   -3.1600  -13.5932 C   0  0  0  0  0  0  0  0  0  0  0  0
  -16.5034   -3.8424  -13.8630 O   0  0  0  0  0  0  0  0  0  0  0  0
  -14.4224   -3.1581  -14.4245 N   0  0  0  0  0  0  0  0  0  0  0  0
  -14.6955   -3.5011  -15.3397 H   0  0  0  0  0  0  0  0  0  0  0  0
  -15.8361   -2.7502  -11.2078 C   0  0  0  0  0  0  0  0  0  0  0  0
  -15.4768   -2.2678  -12.4031 C   0  0  0  0  0  0  0  0  0  0  0  0
  -14.2264    1.5431  -16.4985 N   0  0  0  0  0  0  0  0  0  0  0  0
  -14.3344    0.6748  -17.0219 H   0  0  0  0  0  0  0  0  0  0  0  0
  -15.4881    2.0492  -16.0964 C   0  0  0  0  0  0  0  0  0  0  0  0
  -16.5268    1.1708  -15.7616 C   0  0  0  0  0  0  0  0  0  0  0  0
  -17.8083    1.6522  -15.4877 C   0  0  0  0  0  0  0  0  0  0  0  0
  -19.0377    0.4924  -15.1319 Cl  0  0  0  0  0  0  0  0  0  0  0  0
  -18.0570    3.0292  -15.5264 C   0  0  0  0  0  0  0  0  0  0  0  0
  -19.6351    3.6864  -15.2766 Cl  0  0  0  0  0  0  0  0  0  0  0  0
  -17.0153    3.9199  -15.7953 C   0  0  0  0  0  0  0  0  0  0  0  0
  -15.7430    3.4248  -16.0678 C   0  0  0  0  0  0  0  0  0  0  0  0
  -14.7536    4.2872  -16.3485 F   0  0  0  0  0  0  0  0  0  0  0  0
  -11.9715   -3.2776  -12.7795 O   0  0  0  0  0  0  0  0  0  0  0  0
  -11.7985   -3.0197  -11.3796 C   0  0  0  0  0  0  0  0  0  0  0  0
  -12.4806   -4.1038  -10.5405 C   0  0  0  0  0  0  0  0  0  0  0  0
  -12.6918   -5.3245  -11.3072 N   0  0  0  0  0  0  0  0  0  0  0  0
  -13.7406   -6.1804  -11.0257 C   0  0  0  0  0  0  0  0  0  0  0  0
  -14.6537   -5.8884  -10.2559 O   0  0  0  0  0  0  0  0  0  0  0  0
  -11.9146   -5.7473  -11.8076 H   0  0  0  0  0  0  0  0  0  0  0  0
  -13.6788   -7.5296  -11.7516 C   0  0  0  0  0  0  0  0  0  0  0  0
  -13.9049   -7.3900  -13.2168 N   0  0  0  0  0  0  0  0  0  0  0  0
  -13.4925   -8.6039  -13.9347 C   0  0  0  0  0  0  0  0  0  0  0  0
  -15.3393   -7.1698  -13.4576 C   0  0  0  0  0  0  0  0  0  0  0  0
 15 16  2  0  0  0
 16 11  1  0  0  0
 11 12  2  0  0  0
 11 13  1  0  0  0
 13  1  1  0  0  0
 13 14  1  0  0  0
  1  2  1  0  0  0
  1 10  2  0  0  0
  2  3  2  0  0  0
  3  4  1  0  0  0
  3  8  1  0  0  0
  4 17  1  0  0  0
  4  5  2  0  0  0
 17 19  1  0  0  0
 17 18  1  0  0  0
 19 20  1  0  0  0
 19 26  2  0  0  0
 20 21  2  0  0  0
 21 22  1  0  0  0
 21 23  1  0  0  0
 23 24  1  0  0  0
 23 25  2  0  0  0
 25 26  1  0  0  0
 26 27  1  0  0  0
  5  6  1  0  0  0
  6  7  2  0  0  0
  7  8  1  0  0  0
  8  9  2  0  0  0
  9 10  1  0  0  0
 10 28  1  0  0  0
 28 29  1  0  0  0
 29 30  1  0  0  0
 30 31  1  0  0  0
 31 32  1  0  0  0
 31 34  1  0  0  0
 32 33  2  0  0  0
 32 35  1  0  0  0
 35 36  1  0  0  0
 36 37  1  0  0  0
 36 38  1  0  0  0
M  END
> <minimizedAffinity>
-7.15071

$$$$
