CHEMBL2322134


 19 22  0  0  0  0  0  0  0  0999 V2000
  -15.4062   -0.6461  -12.8406 C   0  0  0  0  0  0  0  0  0  0  0  0
  -16.3287    0.2589  -13.3335 C   0  0  0  0  0  0  0  0  0  0  0  0
  -15.6627    0.9807  -14.3349 C   0  0  0  0  0  0  0  0  0  0  0  0
  -14.3633    0.5300  -14.4343 C   0  0  0  0  0  0  0  0  0  0  0  0
  -13.3696    0.9490  -15.2660 N   0  0  0  0  0  0  0  0  0  0  0  0
  -13.7245    1.9199  -16.0715 C   0  0  0  0  0  0  0  0  0  0  0  0
  -15.0525    2.4919  -16.0772 C   0  0  0  0  0  0  0  0  0  0  0  0
  -15.6627    3.4848  -16.7983 C   0  0  0  0  0  0  0  0  0  0  0  0
  -16.9737    3.6257  -16.4075 N   0  0  0  0  0  0  0  0  0  0  0  0
  -17.1811    2.7117  -15.4701 C   0  0  0  0  0  0  0  0  0  0  0  0
  -16.0193    2.0180  -15.2158 N   0  0  0  0  0  0  0  0  0  0  0  0
  -14.2152   -0.4701  -13.5151 N   0  0  0  0  0  0  0  0  0  0  0  0
  -13.3626   -0.9900  -13.3682 H   0  0  0  0  0  0  0  0  0  0  0  0
  -18.4906    2.3919  -14.8203 C   0  0  0  0  0  0  0  0  0  0  0  0
  -19.1220    1.1194  -15.4008 C   0  0  0  0  0  0  0  0  0  0  0  0
  -20.3934    0.7654  -14.6319 C   0  0  0  0  0  0  0  0  0  0  0  0
  -21.3908    1.9215  -14.6373 C   0  0  0  0  0  0  0  0  0  0  0  0
  -20.7648    3.2242  -14.1436 C   0  0  0  0  0  0  0  0  0  0  0  0
  -19.4797    3.5623  -14.9009 C   0  0  0  0  0  0  0  0  0  0  0  0
  1  2  2  0  0  0
  1 12  1  0  0  0
  2  3  1  0  0  0
  3  4  2  0  0  0
  3 11  1  0  0  0
  4  5  1  0  0  0
  4 12  1  0  0  0
  5  6  2  0  0  0
  6  7  1  0  0  0
  7  8  2  0  0  0
  7 11  1  0  0  0
  8  9  1  0  0  0
  9 10  2  0  0  0
 10 14  1  0  0  0
 10 11  1  0  0  0
 14 15  1  0  0  0
 14 19  1  0  0  0
 15 16  1  0  0  0
 16 17  1  0  0  0
 17 18  1  0  0  0
 18 19  1  0  0  0
 12 13  1  0  0  0
M  END
> <minimizedAffinity>
-6.68438

$$$$
