CHEMBL3690436


 40 44  0  0  0  0  0  0  0  0999 V2000
  -27.6800   -2.0131   -8.9711 C   0  0  0  0  0  0  0  0  0  0  0  0
  -28.1180   -3.3879   -8.6820 C   0  0  0  0  0  0  0  0  0  0  0  0
  -28.3739   -3.7652   -7.4161 C   0  0  0  0  0  0  0  0  0  0  0  0
  -28.4225   -2.7988   -6.4122 N   0  0  0  0  0  0  0  0  0  0  0  0
  -28.9117   -2.8567   -5.1143 C   0  0  0  0  0  0  0  0  0  0  0  0
  -28.7060   -1.5735   -4.6255 C   0  0  0  0  0  0  0  0  0  0  0  0
  -28.1625   -0.7403   -5.5599 N   0  0  0  0  0  0  0  0  0  0  0  0
  -28.0587   -1.4755   -6.6422 C   0  0  0  0  0  0  0  0  0  0  0  0
  -27.6517   -1.1169   -7.9552 C   0  0  0  0  0  0  0  0  0  0  0  0
  -29.6182   -3.9622   -4.4549 C   0  0  0  0  0  0  0  0  0  0  0  0
  -31.0130   -3.8937   -4.3339 C   0  0  0  0  0  0  0  0  0  0  0  0
  -31.7360   -4.9652   -3.8328 C   0  0  0  0  0  0  0  0  0  0  0  0
  -31.0785   -6.1232   -3.4267 C   0  0  0  0  0  0  0  0  0  0  0  0
  -29.6889   -6.2461   -3.5309 C   0  0  0  0  0  0  0  0  0  0  0  0
  -28.9677   -5.1506   -4.0486 C   0  0  0  0  0  0  0  0  0  0  0  0
  -28.9914   -7.4239   -3.1825 N   0  0  0  0  0  0  0  0  0  0  0  0
  -28.1365   -8.1405   -3.9896 C   0  0  0  0  0  0  0  0  0  0  0  0
  -27.8834   -7.9388   -5.1776 O   0  0  0  0  0  0  0  0  0  0  0  0
  -27.4933   -9.1540   -3.3125 N   0  0  0  0  0  0  0  0  0  0  0  0
  -29.0693   -7.7206   -2.2254 H   0  0  0  0  0  0  0  0  0  0  0  0
  -28.0060   -9.5945   -2.5628 H   0  0  0  0  0  0  0  0  0  0  0  0
  -26.5460  -10.0030   -4.0531 C   0  0  0  0  0  0  0  0  0  0  0  0
  -25.0581   -9.6514   -3.8995 C   0  0  0  0  0  0  0  0  0  0  0  0
  -24.4854  -10.3094   -2.8651 F   0  0  0  0  0  0  0  0  0  0  0  0
  -24.3462   -9.9125   -5.0145 F   0  0  0  0  0  0  0  0  0  0  0  0
  -24.9241   -8.3257   -3.6385 F   0  0  0  0  0  0  0  0  0  0  0  0
  -25.7601   -1.2952  -11.9390 N   0  0  0  0  0  0  0  0  0  0  0  0
  -25.8411   -1.5175  -10.5853 C   0  0  0  0  0  0  0  0  0  0  0  0
  -27.1736   -1.6745  -10.2712 C   0  0  0  0  0  0  0  0  0  0  0  0
  -27.8339   -1.5066  -11.4989 C   0  0  0  0  0  0  0  0  0  0  0  0
  -26.9879   -1.3108  -12.5165 N   0  0  0  0  0  0  0  0  0  0  0  0
  -24.8148   -1.7327  -14.1972 C   0  0  0  0  0  0  0  0  0  0  0  0
  -24.5344   -1.2395  -12.7638 C   0  0  0  0  0  0  0  0  0  0  0  0
  -23.4579   -2.2105  -12.1956 C   0  0  0  0  0  0  0  0  0  0  0  0
  -23.9084    0.1763  -12.7686 C   0  0  0  0  0  0  0  0  0  0  0  0
  -24.2899    1.0342  -11.9587 O   0  0  0  0  0  0  0  0  0  0  0  0
  -22.8824    0.4953  -13.6080 N   0  0  0  0  0  0  0  0  0  0  0  0
  -22.1298    1.7397  -13.6910 C   0  0  0  0  0  0  0  0  0  0  0  0
  -21.0127    0.8972  -14.3128 C   0  0  0  0  0  0  0  0  0  0  0  0
  -22.0683   -0.1801  -14.5933 C   0  0  0  0  0  0  0  0  0  0  0  0
 32 33  1  0  0  0
 33 34  1  0  0  0
 33 35  1  0  0  0
 33 27  1  0  0  0
 35 36  2  0  0  0
 35 37  1  0  0  0
 37 38  1  0  0  0
 37 40  1  0  0  0
 38 39  1  0  0  0
 39 40  1  0  0  0
 27 28  1  0  0  0
 27 31  1  0  0  0
 28 29  2  0  0  0
 29  1  1  0  0  0
 29 30  1  0  0  0
  1  2  1  0  0  0
  1  9  2  0  0  0
  2  3  2  0  0  0
  3  4  1  0  0  0
  4  5  1  0  0  0
  4  8  1  0  0  0
  5 10  1  0  0  0
  5  6  2  0  0  0
 10 11  1  0  0  0
 10 15  2  0  0  0
 11 12  2  0  0  0
 12 13  1  0  0  0
 13 14  2  0  0  0
 14 16  1  0  0  0
 14 15  1  0  0  0
 16 17  1  0  0  0
 16 20  1  0  0  0
 17 18  2  0  0  0
 17 19  1  0  0  0
 19 22  1  0  0  0
 19 21  1  0  0  0
 22 23  1  0  0  0
 23 24  1  0  0  0
 23 25  1  0  0  0
 23 26  1  0  0  0
  6  7  1  0  0  0
  7  8  2  0  0  0
  8  9  1  0  0  0
 30 31  2  0  0  0
M  END
> <minimizedAffinity>
-11.34192

$$$$
