CHEMBL3694669


 39 42  0  0  0  0  0  0  0  0999 V2000
  -14.4920   -3.1616  -13.0028 C   0  0  0  0  0  0  0  0  0  0  0  0
  -15.7917   -2.8365  -13.6055 C   0  0  0  0  0  0  0  0  0  0  0  0
  -16.0493   -1.5905  -14.0336 C   0  0  0  0  0  0  0  0  0  0  0  0
  -15.1027   -0.5778  -13.8560 N   0  0  0  0  0  0  0  0  0  0  0  0
  -15.1426    0.7908  -14.1459 C   0  0  0  0  0  0  0  0  0  0  0  0
  -13.8802    1.2374  -13.7844 C   0  0  0  0  0  0  0  0  0  0  0  0
  -13.1032    0.2392  -13.2579 N   0  0  0  0  0  0  0  0  0  0  0  0
  -13.8573   -0.8359  -13.2856 C   0  0  0  0  0  0  0  0  0  0  0  0
  -13.5811   -2.1684  -12.8531 C   0  0  0  0  0  0  0  0  0  0  0  0
  -12.3017   -6.1376   -9.9989 N   0  0  0  0  0  0  0  0  0  0  0  0
  -13.0471   -6.0024  -11.1852 C   0  0  0  0  0  0  0  0  0  0  0  0
  -13.3783   -4.7375  -11.4949 N   0  0  0  0  0  0  0  0  0  0  0  0
  -14.1440   -4.5519  -12.5985 C   0  0  0  0  0  0  0  0  0  0  0  0
  -14.5892   -5.5498  -13.3814 N   0  0  0  0  0  0  0  0  0  0  0  0
  -14.2158   -6.7988  -13.0436 C   0  0  0  0  0  0  0  0  0  0  0  0
  -13.4315   -7.0945  -11.9444 C   0  0  0  0  0  0  0  0  0  0  0  0
  -12.1102   -5.1774   -9.6941 H   0  0  0  0  0  0  0  0  0  0  0  0
  -12.8789   -6.5720   -9.2749 H   0  0  0  0  0  0  0  0  0  0  0  0
  -13.0511   -8.4936  -11.7032 C   0  0  0  0  0  0  0  0  0  0  0  0
  -11.9193   -8.8005  -11.3565 O   0  0  0  0  0  0  0  0  0  0  0  0
  -14.0275   -9.4080  -11.8870 O   0  0  0  0  0  0  0  0  0  0  0  0
  -14.9195   -9.0086  -12.0109 H   0  0  0  0  0  0  0  0  0  0  0  0
  -16.3076    1.5592  -14.6232 C   0  0  0  0  0  0  0  0  0  0  0  0
  -16.1758    2.3642  -15.7611 C   0  0  0  0  0  0  0  0  0  0  0  0
  -17.2355    3.1153  -16.2385 C   0  0  0  0  0  0  0  0  0  0  0  0
  -18.4796    3.0085  -15.6353 C   0  0  0  0  0  0  0  0  0  0  0  0
  -18.6967    2.1463  -14.5588 C   0  0  0  0  0  0  0  0  0  0  0  0
  -17.5891    1.4481  -14.0295 C   0  0  0  0  0  0  0  0  0  0  0  0
  -19.9992    1.9441  -14.0132 N   0  0  0  0  0  0  0  0  0  0  0  0
  -20.8806    0.9458  -14.3974 C   0  0  0  0  0  0  0  0  0  0  0  0
  -20.6908    0.0930  -15.2557 O   0  0  0  0  0  0  0  0  0  0  0  0
  -22.0948    0.9982  -13.7586 N   0  0  0  0  0  0  0  0  0  0  0  0
  -20.2769    2.5463  -13.2523 H   0  0  0  0  0  0  0  0  0  0  0  0
  -22.1474    1.4219  -12.8450 H   0  0  0  0  0  0  0  0  0  0  0  0
  -23.0941   -0.0272  -14.1110 C   0  0  0  0  0  0  0  0  0  0  0  0
  -23.6734   -0.8598  -12.9552 C   0  0  0  0  0  0  0  0  0  0  0  0
  -22.7383   -1.6262  -12.3506 F   0  0  0  0  0  0  0  0  0  0  0  0
  -24.1775   -0.0330  -12.0028 F   0  0  0  0  0  0  0  0  0  0  0  0
  -24.6820   -1.6634  -13.3552 F   0  0  0  0  0  0  0  0  0  0  0  0
 10 11  1  0  0  0
 10 17  1  0  0  0
 10 18  1  0  0  0
 11 12  1  0  0  0
 11 16  2  0  0  0
 12 13  2  0  0  0
 13  1  1  0  0  0
 13 14  1  0  0  0
  1  2  1  0  0  0
  1  9  2  0  0  0
  2  3  2  0  0  0
  3  4  1  0  0  0
  4  5  1  0  0  0
  4  8  1  0  0  0
  5 23  1  0  0  0
  5  6  2  0  0  0
 23 24  1  0  0  0
 23 28  2  0  0  0
 24 25  2  0  0  0
 25 26  1  0  0  0
 26 27  2  0  0  0
 27 29  1  0  0  0
 27 28  1  0  0  0
 29 30  1  0  0  0
 29 33  1  0  0  0
 30 31  2  0  0  0
 30 32  1  0  0  0
 32 35  1  0  0  0
 32 34  1  0  0  0
 35 36  1  0  0  0
 36 37  1  0  0  0
 36 38  1  0  0  0
 36 39  1  0  0  0
  6  7  1  0  0  0
  7  8  2  0  0  0
  8  9  1  0  0  0
 14 15  2  0  0  0
 15 16  1  0  0  0
 16 19  1  0  0  0
 19 20  2  0  0  0
 19 21  1  0  0  0
 21 22  1  0  0  0
M  END
> <minimizedAffinity>
-9.49597

$$$$
