CHEMBL1970142


 43 47  0  0  0  0  0  0  0  0999 V2000
  -12.6697    7.2252  -17.6146 C   0  0  0  0  0  0  0  0  0  0  0  0
  -12.0224    7.2658  -16.3921 C   0  0  0  0  0  0  0  0  0  0  0  0
  -12.1447    6.3430  -15.4281 N   0  0  0  0  0  0  0  0  0  0  0  0
  -12.9377    5.2710  -15.6210 C   0  0  0  0  0  0  0  0  0  0  0  0
  -12.8901    4.3672  -14.5700 N   0  0  0  0  0  0  0  0  0  0  0  0
  -13.7038    5.1317  -16.8196 C   0  0  0  0  0  0  0  0  0  0  0  0
  -14.6496    4.0974  -17.2778 C   0  0  0  0  0  0  0  0  0  0  0  0
  -15.1640    4.3848  -18.5236 C   0  0  0  0  0  0  0  0  0  0  0  0
  -14.5134    5.7856  -19.1973 S   0  0  0  0  0  0  0  0  0  0  0  0
  -13.5484    6.1333  -17.8034 C   0  0  0  0  0  0  0  0  0  0  0  0
  -12.1423    4.6215  -13.9343 H   0  0  0  0  0  0  0  0  0  0  0  0
  -12.9093    3.3959  -14.8491 H   0  0  0  0  0  0  0  0  0  0  0  0
  -15.0863    2.8722  -16.6020 C   0  0  0  0  0  0  0  0  0  0  0  0
  -16.2784    2.8592  -15.8896 C   0  0  0  0  0  0  0  0  0  0  0  0
  -16.6210    1.7631  -15.1068 C   0  0  0  0  0  0  0  0  0  0  0  0
  -15.8672    0.5876  -15.1379 C   0  0  0  0  0  0  0  0  0  0  0  0
  -14.7088    0.5561  -15.9110 C   0  0  0  0  0  0  0  0  0  0  0  0
  -14.3145    1.6965  -16.6271 C   0  0  0  0  0  0  0  0  0  0  0  0
  -16.2499   -0.5621  -14.4126 N   0  0  0  0  0  0  0  0  0  0  0  0
  -15.5265   -1.0421  -13.3379 C   0  0  0  0  0  0  0  0  0  0  0  0
  -14.5762   -0.4561  -12.8281 O   0  0  0  0  0  0  0  0  0  0  0  0
  -15.9690   -2.2884  -12.9144 N   0  0  0  0  0  0  0  0  0  0  0  0
  -17.2102   -0.8669  -14.4764 H   0  0  0  0  0  0  0  0  0  0  0  0
  -16.2744   -2.8848  -13.6699 H   0  0  0  0  0  0  0  0  0  0  0  0
  -15.2394   -2.9177  -11.8746 C   0  0  0  0  0  0  0  0  0  0  0  0
  -15.7324   -2.9215  -10.5645 C   0  0  0  0  0  0  0  0  0  0  0  0
  -14.9141   -3.3070   -9.5068 C   0  0  0  0  0  0  0  0  0  0  0  0
  -13.5999   -3.7109   -9.7516 C   0  0  0  0  0  0  0  0  0  0  0  0
  -12.6721   -3.9950   -8.6084 C   0  0  0  0  0  0  0  0  0  0  0  0
  -13.1377   -3.7777  -11.0743 C   0  0  0  0  0  0  0  0  0  0  0  0
  -13.9629   -3.4047  -12.1394 C   0  0  0  0  0  0  0  0  0  0  0  0
  -12.3076   10.1246  -19.7165 N   0  0  0  0  0  0  0  0  0  0  0  0
  -12.9237    9.4618  -18.6903 C   0  0  0  0  0  0  0  0  0  0  0  0
  -12.3822    8.1925  -18.6573 C   0  0  0  0  0  0  0  0  0  0  0  0
  -11.5188    8.1654  -19.7803 C   0  0  0  0  0  0  0  0  0  0  0  0
  -11.4583    9.3402  -20.4101 N   0  0  0  0  0  0  0  0  0  0  0  0
  -12.4635   11.5366  -20.0365 C   0  0  0  0  0  0  0  0  0  0  0  0
  -12.1727   12.4760  -18.8680 C   0  0  0  0  0  0  0  0  0  0  0  0
  -15.4336   11.2166  -22.4093 C   0  0  0  0  0  0  0  0  0  0  0  0
  -14.1619   11.0530  -21.7545 N   0  0  0  0  0  0  0  0  0  0  0  0
  -13.8426   11.7883  -20.6327 C   0  0  0  0  0  0  0  0  0  0  0  0
  -14.6283   12.5857  -20.1207 O   0  0  0  0  0  0  0  0  0  0  0  0
  -13.4071   10.5915  -22.2571 H   0  0  0  0  0  0  0  0  0  0  0  0
 39 40  1  0  0  0
 40 41  1  0  0  0
 40 43  1  0  0  0
 41 42  2  0  0  0
 41 37  1  0  0  0
 37 38  1  0  0  0
 37 32  1  0  0  0
 32 33  1  0  0  0
 32 36  1  0  0  0
 33 34  2  0  0  0
 34  1  1  0  0  0
 34 35  1  0  0  0
  1  2  1  0  0  0
  1 10  2  0  0  0
  2  3  2  0  0  0
  3  4  1  0  0  0
  4  5  1  0  0  0
  4  6  2  0  0  0
  5 11  1  0  0  0
  5 12  1  0  0  0
  6  7  1  0  0  0
  6 10  1  0  0  0
  7 13  1  0  0  0
  7  8  2  0  0  0
 13 14  1  0  0  0
 13 18  2  0  0  0
 14 15  2  0  0  0
 15 16  1  0  0  0
 16 19  1  0  0  0
 16 17  2  0  0  0
 19 20  1  0  0  0
 19 23  1  0  0  0
 20 21  2  0  0  0
 20 22  1  0  0  0
 22 25  1  0  0  0
 22 24  1  0  0  0
 25 26  1  0  0  0
 25 31  2  0  0  0
 26 27  2  0  0  0
 27 28  1  0  0  0
 28 29  1  0  0  0
 28 30  2  0  0  0
 30 31  1  0  0  0
 17 18  1  0  0  0
  8  9  1  0  0  0
  9 10  1  0  0  0
 35 36  2  0  0  0
M  END
> <minimizedAffinity>
-7.50791

$$$$
