CHEMBL4059958


 33 36  0  0  0  0  0  0  0  0999 V2000
  -28.5432   -2.5819   -8.0760 C   0  0  0  0  0  0  0  0  0  0  0  0
  -27.9435   -2.6301   -6.8179 C   0  0  0  0  0  0  0  0  0  0  0  0
  -28.1381   -3.7157   -5.9660 C   0  0  0  0  0  0  0  0  0  0  0  0
  -29.0181   -4.7594   -6.2853 C   0  0  0  0  0  0  0  0  0  0  0  0
  -29.7656   -4.5927   -7.4624 C   0  0  0  0  0  0  0  0  0  0  0  0
  -29.5079   -3.5425   -8.3670 C   0  0  0  0  0  0  0  0  0  0  0  0
  -29.1291   -5.9266   -5.3855 C   0  0  0  0  0  0  0  0  0  0  0  0
  -29.3208   -5.7368   -3.9932 C   0  0  0  0  0  0  0  0  0  0  0  0
  -29.3618   -6.8115   -3.1205 C   0  0  0  0  0  0  0  0  0  0  0  0
  -29.2686   -8.0986   -3.4856 N   0  0  0  0  0  0  0  0  0  0  0  0
  -29.0977   -8.2547   -4.8099 C   0  0  0  0  0  0  0  0  0  0  0  0
  -28.9807   -9.4626   -5.4214 N   0  0  0  0  0  0  0  0  0  0  0  0
  -28.7780   -9.3879   -6.7436 N   0  0  0  0  0  0  0  0  0  0  0  0
  -28.7182   -8.0629   -6.9817 C   0  0  0  0  0  0  0  0  0  0  0  0
  -28.9928   -7.2813   -5.8033 C   0  0  0  0  0  0  0  0  0  0  0  0
  -29.0196  -10.3683   -4.9720 H   0  0  0  0  0  0  0  0  0  0  0  0
  -28.3809   -7.6487   -8.3779 C   0  0  0  0  0  0  0  0  0  0  0  0
  -28.8532   -8.5897   -9.3447 O   0  0  0  0  0  0  0  0  0  0  0  0
  -28.4606   -9.4411   -9.0760 H   0  0  0  0  0  0  0  0  0  0  0  0
  -26.9977   -0.8148  -10.8859 N   0  0  0  0  0  0  0  0  0  0  0  0
  -27.3039   -1.9124  -10.0973 C   0  0  0  0  0  0  0  0  0  0  0  0
  -26.8410   -3.0312  -10.2898 O   0  0  0  0  0  0  0  0  0  0  0  0
  -28.1726   -1.6152   -9.0517 N   0  0  0  0  0  0  0  0  0  0  0  0
  -27.1860    0.0948  -10.4935 H   0  0  0  0  0  0  0  0  0  0  0  0
  -28.7893   -0.8221   -9.1758 H   0  0  0  0  0  0  0  0  0  0  0  0
  -23.8352   -0.4783  -12.8249 C   0  0  0  0  0  0  0  0  0  0  0  0
  -24.1509   -1.1831  -13.9936 C   0  0  0  0  0  0  0  0  0  0  0  0
  -25.4286   -1.6889  -14.1777 C   0  0  0  0  0  0  0  0  0  0  0  0
  -26.3891   -1.5183  -13.1840 C   0  0  0  0  0  0  0  0  0  0  0  0
  -26.0866   -0.8720  -11.9780 C   0  0  0  0  0  0  0  0  0  0  0  0
  -24.8143   -0.3094  -11.8263 C   0  0  0  0  0  0  0  0  0  0  0  0
  -21.9087    0.7257  -13.8478 C   0  0  0  0  0  0  0  0  0  0  0  0
  -22.4198   -0.0061  -12.6150 C   0  0  0  0  0  0  0  0  0  0  0  0
 32 33  1  0  0  0
 33 26  1  0  0  0
 26 27  1  0  0  0
 26 31  2  0  0  0
 27 28  2  0  0  0
 28 29  1  0  0  0
 29 30  2  0  0  0
 30 20  1  0  0  0
 30 31  1  0  0  0
 20 21  1  0  0  0
 20 24  1  0  0  0
 21 22  2  0  0  0
 21 23  1  0  0  0
 23  1  1  0  0  0
 23 25  1  0  0  0
  1  2  1  0  0  0
  1  6  2  0  0  0
  2  3  2  0  0  0
  3  4  1  0  0  0
  4  7  1  0  0  0
  4  5  2  0  0  0
  7  8  1  0  0  0
  7 15  2  0  0  0
  8  9  2  0  0  0
  9 10  1  0  0  0
 10 11  2  0  0  0
 11 12  1  0  0  0
 11 15  1  0  0  0
 12 13  1  0  0  0
 12 16  1  0  0  0
 13 14  2  0  0  0
 14 17  1  0  0  0
 14 15  1  0  0  0
 17 18  1  0  0  0
 18 19  1  0  0  0
  5  6  1  0  0  0
M  END
> <minimizedAffinity>
-9.02669

$$$$
