CHEMBL214556


 41 45  0  0  0  0  0  0  0  0999 V2000
  -26.0964   -1.2013  -15.5462 C   0  0  0  0  0  0  0  0  0  0  0  0
  -26.2369   -1.2989  -14.0462 C   0  0  0  0  0  0  0  0  0  0  0  0
  -27.4371   -1.8745  -13.5765 C   0  0  0  0  0  0  0  0  0  0  0  0
  -27.6616   -2.0715  -12.2183 C   0  0  0  0  0  0  0  0  0  0  0  0
  -26.7002   -1.6764  -11.2964 C   0  0  0  0  0  0  0  0  0  0  0  0
  -25.5172   -1.0743  -11.7447 C   0  0  0  0  0  0  0  0  0  0  0  0
  -25.2479   -0.8671  -13.1203 C   0  0  0  0  0  0  0  0  0  0  0  0
  -23.9568   -0.2220  -13.4995 C   0  0  0  0  0  0  0  0  0  0  0  0
  -22.8181   -0.9886  -13.8119 C   0  0  0  0  0  0  0  0  0  0  0  0
  -21.5781   -0.3911  -14.0883 C   0  0  0  0  0  0  0  0  0  0  0  0
  -21.4291    0.9843  -14.1171 C   0  0  0  0  0  0  0  0  0  0  0  0
  -20.2355    1.5253  -14.3746 N   0  0  0  0  0  0  0  0  0  0  0  0
  -20.1412    2.8617  -14.4086 C   0  0  0  0  0  0  0  0  0  0  0  0
  -21.1762    3.6937  -14.2569 N   0  0  0  0  0  0  0  0  0  0  0  0
  -22.3613    3.1257  -13.9768 C   0  0  0  0  0  0  0  0  0  0  0  0
  -22.5536    1.7600  -13.8652 C   0  0  0  0  0  0  0  0  0  0  0  0
  -23.7846    1.1680  -13.5170 C   0  0  0  0  0  0  0  0  0  0  0  0
  -18.9124    3.4701  -14.6105 N   0  0  0  0  0  0  0  0  0  0  0  0
  -19.0814    4.4689  -14.5675 H   0  0  0  0  0  0  0  0  0  0  0  0
  -18.1933    2.9805  -15.7771 C   0  0  0  0  0  0  0  0  0  0  0  0
  -16.6824    2.9327  -15.4756 C   0  0  0  0  0  0  0  0  0  0  0  0
  -16.0855    1.5876  -15.5801 N   0  0  0  0  0  0  0  0  0  0  0  0
  -16.8842    0.6025  -14.8322 C   0  0  0  0  0  0  0  0  0  0  0  0
  -16.3241    0.6396  -13.4243 C   0  0  0  0  0  0  0  0  0  0  0  0
  -14.8369    0.8088  -13.6594 C   0  0  0  0  0  0  0  0  0  0  0  0
  -14.7270    1.5069  -15.0085 C   0  0  0  0  0  0  0  0  0  0  0  0
  -26.9464   -1.9558   -9.8527 C   0  0  0  0  0  0  0  0  0  0  0  0
  -26.0628   -1.6589   -9.0596 O   0  0  0  0  0  0  0  0  0  0  0  0
  -28.1494   -2.5780   -9.5608 N   0  0  0  0  0  0  0  0  0  0  0  0
  -28.6675   -2.9439  -10.3459 H   0  0  0  0  0  0  0  0  0  0  0  0
  -28.6215   -2.9345   -8.2697 C   0  0  0  0  0  0  0  0  0  0  0  0
  -29.0299   -4.2422   -7.9834 C   0  0  0  0  0  0  0  0  0  0  0  0
  -29.5371   -4.5826   -6.7333 C   0  0  0  0  0  0  0  0  0  0  0  0
  -29.6466   -3.6139   -5.7456 C   0  0  0  0  0  0  0  0  0  0  0  0
  -29.2263   -2.2922   -5.9820 C   0  0  0  0  0  0  0  0  0  0  0  0
  -28.6812   -1.9487   -7.2500 C   0  0  0  0  0  0  0  0  0  0  0  0
  -28.1849   -0.5467   -7.5200 C   0  0  0  0  0  0  0  0  0  0  0  0
  -29.3929   -1.2811   -4.8663 C   0  0  0  0  0  0  0  0  0  0  0  0
  -28.2148   -0.7594   -4.4184 F   0  0  0  0  0  0  0  0  0  0  0  0
  -30.1488   -0.2098   -5.2355 F   0  0  0  0  0  0  0  0  0  0  0  0
  -29.9962   -1.8099   -3.7645 F   0  0  0  0  0  0  0  0  0  0  0  0
  1  2  1  0  0  0
  2  3  1  0  0  0
  2  7  2  0  0  0
  3  4  2  0  0  0
  4  5  1  0  0  0
  5 27  1  0  0  0
  5  6  2  0  0  0
 27 28  2  0  0  0
 27 29  1  0  0  0
 29 31  1  0  0  0
 29 30  1  0  0  0
 31 32  1  0  0  0
 31 36  2  0  0  0
 32 33  2  0  0  0
 33 34  1  0  0  0
 34 35  2  0  0  0
 35 38  1  0  0  0
 35 36  1  0  0  0
 38 39  1  0  0  0
 38 40  1  0  0  0
 38 41  1  0  0  0
 36 37  1  0  0  0
  6  7  1  0  0  0
  7  8  1  0  0  0
  8  9  1  0  0  0
  8 17  2  0  0  0
  9 10  2  0  0  0
 10 11  1  0  0  0
 11 12  1  0  0  0
 11 16  2  0  0  0
 12 13  2  0  0  0
 13 18  1  0  0  0
 13 14  1  0  0  0
 18 20  1  0  0  0
 18 19  1  0  0  0
 20 21  1  0  0  0
 21 22  1  0  0  0
 22 23  1  0  0  0
 22 26  1  0  0  0
 23 24  1  0  0  0
 24 25  1  0  0  0
 25 26  1  0  0  0
 14 15  2  0  0  0
 15 16  1  0  0  0
 16 17  1  0  0  0
M  END
> <minimizedAffinity>
-11.19640

$$$$
