CHEMBL372755


 38 42  0  0  0  0  0  0  0  0999 V2000
  -29.6188   -6.4256   -5.7919 C   0  0  0  0  0  0  0  0  0  0  0  0
  -29.3864   -7.5790   -5.0371 C   0  0  0  0  0  0  0  0  0  0  0  0
  -28.9136   -8.7483   -5.6510 C   0  0  0  0  0  0  0  0  0  0  0  0
  -28.4908   -8.7435   -6.9833 C   0  0  0  0  0  0  0  0  0  0  0  0
  -28.7314   -7.5661   -7.7107 C   0  0  0  0  0  0  0  0  0  0  0  0
  -29.3658   -6.4500   -7.1538 C   0  0  0  0  0  0  0  0  0  0  0  0
  -27.7937   -9.9091   -7.5815 C   0  0  0  0  0  0  0  0  0  0  0  0
  -28.3736  -10.6504   -8.6235 C   0  0  0  0  0  0  0  0  0  0  0  0
  -27.3662  -11.9426   -9.1328 S   0  0  0  0  0  0  0  0  0  0  0  0
  -26.2184  -11.6265   -7.9374 C   0  0  0  0  0  0  0  0  0  0  0  0
  -25.1753  -12.4656   -7.8272 N   0  0  0  0  0  0  0  0  0  0  0  0
  -24.3639  -12.1416   -6.8304 C   0  0  0  0  0  0  0  0  0  0  0  0
  -24.4753  -11.0867   -6.0220 N   0  0  0  0  0  0  0  0  0  0  0  0
  -25.5025  -10.2276   -6.1909 C   0  0  0  0  0  0  0  0  0  0  0  0
  -25.4473   -9.1581   -5.3326 N   0  0  0  0  0  0  0  0  0  0  0  0
  -26.4971  -10.5024   -7.1682 C   0  0  0  0  0  0  0  0  0  0  0  0
  -24.7672   -9.2460   -4.5898 H   0  0  0  0  0  0  0  0  0  0  0  0
  -26.1183   -8.4130   -5.3088 H   0  0  0  0  0  0  0  0  0  0  0  0
  -29.7277  -10.5626   -9.3069 C   0  0  0  0  0  0  0  0  0  0  0  0
  -30.9482  -10.5677   -8.3997 C   0  0  0  0  0  0  0  0  0  0  0  0
  -31.7617   -9.4422   -8.1991 C   0  0  0  0  0  0  0  0  0  0  0  0
  -32.8221   -9.4821   -7.2895 C   0  0  0  0  0  0  0  0  0  0  0  0
  -33.1003  -10.6518   -6.5864 C   0  0  0  0  0  0  0  0  0  0  0  0
  -32.3299  -11.7903   -6.8044 C   0  0  0  0  0  0  0  0  0  0  0  0
  -31.2697  -11.7524   -7.7120 C   0  0  0  0  0  0  0  0  0  0  0  0
  -29.8615   -2.9455   -4.8280 N   0  0  0  0  0  0  0  0  0  0  0  0
  -29.2939   -4.0572   -5.4313 C   0  0  0  0  0  0  0  0  0  0  0  0
  -28.2884   -4.0676   -6.1178 O   0  0  0  0  0  0  0  0  0  0  0  0
  -30.0470   -5.2144   -5.1903 N   0  0  0  0  0  0  0  0  0  0  0  0
  -30.5917   -3.1100   -4.1546 H   0  0  0  0  0  0  0  0  0  0  0  0
  -31.0357   -5.0439   -5.2188 H   0  0  0  0  0  0  0  0  0  0  0  0
  -30.7662    1.7173   -6.2835 C   0  0  0  0  0  0  0  0  0  0  0  0
  -29.8525    0.6916   -5.6855 C   0  0  0  0  0  0  0  0  0  0  0  0
  -28.5685    1.0683   -5.2714 C   0  0  0  0  0  0  0  0  0  0  0  0
  -27.7110    0.1235   -4.7222 C   0  0  0  0  0  0  0  0  0  0  0  0
  -28.1186   -1.1954   -4.5764 C   0  0  0  0  0  0  0  0  0  0  0  0
  -29.3998   -1.6085   -4.9682 C   0  0  0  0  0  0  0  0  0  0  0  0
  -30.2626   -0.6502   -5.5342 C   0  0  0  0  0  0  0  0  0  0  0  0
 32 33  1  0  0  0
 33 34  1  0  0  0
 33 38  2  0  0  0
 34 35  2  0  0  0
 35 36  1  0  0  0
 36 37  2  0  0  0
 37 26  1  0  0  0
 37 38  1  0  0  0
 26 27  1  0  0  0
 26 30  1  0  0  0
 27 28  2  0  0  0
 27 29  1  0  0  0
 29  1  1  0  0  0
 29 31  1  0  0  0
  1  2  1  0  0  0
  1  6  2  0  0  0
  2  3  2  0  0  0
  3  4  1  0  0  0
  4  7  1  0  0  0
  4  5  2  0  0  0
  7  8  2  0  0  0
  7 16  1  0  0  0
  8 19  1  0  0  0
  8  9  1  0  0  0
 19 20  1  0  0  0
 20 21  1  0  0  0
 20 25  2  0  0  0
 21 22  2  0  0  0
 22 23  1  0  0  0
 23 24  2  0  0  0
 24 25  1  0  0  0
  9 10  1  0  0  0
 10 11  1  0  0  0
 10 16  2  0  0  0
 11 12  2  0  0  0
 12 13  1  0  0  0
 13 14  2  0  0  0
 14 15  1  0  0  0
 14 16  1  0  0  0
 15 17  1  0  0  0
 15 18  1  0  0  0
  5  6  1  0  0  0
M  END
> <minimizedAffinity>
-9.53432

$$$$
