CHEMBL260963


 41 47  0  0  0  0  0  0  0  0999 V2000
  -29.3268   -4.3608   -6.0790 N   0  0  0  0  0  0  0  0  0  0  0  0
  -28.5779   -4.8779   -7.1649 C   0  0  0  0  0  0  0  0  0  0  0  0
  -28.3714   -6.0522   -7.4551 O   0  0  0  0  0  0  0  0  0  0  0  0
  -27.9651   -3.8845   -8.0712 C   0  0  0  0  0  0  0  0  0  0  0  0
  -27.6453   -4.1499   -9.3756 C   0  0  0  0  0  0  0  0  0  0  0  0
  -27.2521   -3.1882  -10.2455 N   0  0  0  0  0  0  0  0  0  0  0  0
  -27.1703   -1.9281   -9.7797 C   0  0  0  0  0  0  0  0  0  0  0  0
  -27.3197   -1.6077   -8.4864 N   0  0  0  0  0  0  0  0  0  0  0  0
  -27.7446   -2.5904   -7.6716 C   0  0  0  0  0  0  0  0  0  0  0  0
  -28.3287   -2.2349   -6.4453 N   0  0  0  0  0  0  0  0  0  0  0  0
  -28.4171   -1.0193   -5.8230 C   0  0  0  0  0  0  0  0  0  0  0  0
  -27.5133   -0.0553   -5.3794 C   0  0  0  0  0  0  0  0  0  0  0  0
  -28.0658    1.1923   -5.0840 C   0  0  0  0  0  0  0  0  0  0  0  0
  -29.4144    1.4606   -5.3477 C   0  0  0  0  0  0  0  0  0  0  0  0
  -30.3079    0.4307   -5.6929 C   0  0  0  0  0  0  0  0  0  0  0  0
  -29.7979   -0.8715   -5.7749 C   0  0  0  0  0  0  0  0  0  0  0  0
  -30.3940   -2.1322   -5.7846 N   0  0  0  0  0  0  0  0  0  0  0  0
  -29.3911   -2.9704   -5.9864 C   0  0  0  0  0  0  0  0  0  0  0  0
  -29.4691   -7.1387   -3.5174 C   0  0  0  0  0  0  0  0  0  0  0  0
  -30.6900   -6.8671   -2.9059 C   0  0  0  0  0  0  0  0  0  0  0  0
  -31.3865   -5.7148   -3.2456 C   0  0  0  0  0  0  0  0  0  0  0  0
  -30.8866   -4.8507   -4.2217 C   0  0  0  0  0  0  0  0  0  0  0  0
  -29.6946   -5.1257   -4.9126 C   0  0  0  0  0  0  0  0  0  0  0  0
  -28.9792   -6.2688   -4.5049 C   0  0  0  0  0  0  0  0  0  0  0  0
  -28.0155   -8.8206   -4.3677 C   0  0  0  0  0  0  0  0  0  0  0  0
  -28.6815   -8.2286   -3.2566 O   0  0  0  0  0  0  0  0  0  0  0  0
  -26.9873   -0.9237  -10.7214 N   0  0  0  0  0  0  0  0  0  0  0  0
  -27.5408   -0.1137  -10.4791 H   0  0  0  0  0  0  0  0  0  0  0  0
  -25.8517   -0.6529  -11.5025 C   0  0  0  0  0  0  0  0  0  0  0  0
  -24.8990    0.2296  -10.9994 C   0  0  0  0  0  0  0  0  0  0  0  0
  -23.8054    0.6192  -11.7780 C   0  0  0  0  0  0  0  0  0  0  0  0
  -23.6018    0.1301  -13.0775 C   0  0  0  0  0  0  0  0  0  0  0  0
  -24.5267   -0.8016  -13.5544 C   0  0  0  0  0  0  0  0  0  0  0  0
  -25.6396   -1.1791  -12.7836 C   0  0  0  0  0  0  0  0  0  0  0  0
  -22.4945    0.5512  -13.7927 N   0  0  0  0  0  0  0  0  0  0  0  0
  -21.8892   -0.2703  -14.8496 C   0  0  0  0  0  0  0  0  0  0  0  0
  -20.3867    0.0997  -14.9606 C   0  0  0  0  0  0  0  0  0  0  0  0
  -20.1564    1.5451  -15.2079 N   0  0  0  0  0  0  0  0  0  0  0  0
  -18.7255    1.8433  -15.2057 C   0  0  0  0  0  0  0  0  0  0  0  0
  -20.8461    2.3399  -14.1634 C   0  0  0  0  0  0  0  0  0  0  0  0
  -22.3485    1.9980  -14.0481 C   0  0  0  0  0  0  0  0  0  0  0  0
 25 26  1  0  0  0
 26 19  1  0  0  0
 19 20  1  0  0  0
 19 24  2  0  0  0
 20 21  2  0  0  0
 21 22  1  0  0  0
 22 23  2  0  0  0
 23  1  1  0  0  0
 23 24  1  0  0  0
  1  2  1  0  0  0
  1 18  1  0  0  0
  2  3  2  0  0  0
  2  4  1  0  0  0
  4  5  1  0  0  0
  4  9  2  0  0  0
  5  6  2  0  0  0
  6  7  1  0  0  0
  7 27  1  0  0  0
  7  8  2  0  0  0
 27 29  1  0  0  0
 27 28  1  0  0  0
 29 30  1  0  0  0
 29 34  2  0  0  0
 30 31  2  0  0  0
 31 32  1  0  0  0
 32 35  1  0  0  0
 32 33  2  0  0  0
 35 36  1  0  0  0
 35 41  1  0  0  0
 36 37  1  0  0  0
 37 38  1  0  0  0
 38 39  1  0  0  0
 38 40  1  0  0  0
 40 41  1  0  0  0
 33 34  1  0  0  0
  8  9  1  0  0  0
  9 10  1  0  0  0
 10 11  1  0  0  0
 10 18  1  0  0  0
 11 12  1  0  0  0
 11 16  2  0  0  0
 12 13  2  0  0  0
 13 14  1  0  0  0
 14 15  2  0  0  0
 15 16  1  0  0  0
 16 17  1  0  0  0
 17 18  2  0  0  0
M  END
> <minimizedAffinity>
-7.22933

$$$$
