CHEMBL3985498


 35 38  0  0  0  0  0  0  0  0999 V2000
  -17.5615    2.3717  -15.6051 N   0  0  0  0  0  0  0  0  0  0  0  0
  -18.9832    1.9567  -15.4295 C   0  0  0  0  0  0  0  0  0  0  0  0
  -19.8544    3.0328  -15.4904 C   0  0  0  0  0  0  0  0  0  0  0  0
  -21.0565    3.0062  -14.9345 C   0  0  0  0  0  0  0  0  0  0  0  0
  -21.5498    1.8816  -14.4042 C   0  0  0  0  0  0  0  0  0  0  0  0
  -22.6118    2.0953  -13.6657 N   0  0  0  0  0  0  0  0  0  0  0  0
  -23.3128    1.1367  -13.1369 C   0  0  0  0  0  0  0  0  0  0  0  0
  -23.1094   -0.1877  -13.5190 C   0  0  0  0  0  0  0  0  0  0  0  0
  -21.8653   -0.4632  -14.1891 N   0  0  0  0  0  0  0  0  0  0  0  0
  -21.0099    0.6061  -14.5483 C   0  0  0  0  0  0  0  0  0  0  0  0
  -19.5897    0.6297  -15.0700 C   0  0  0  0  0  0  0  0  0  0  0  0
  -24.5113   -0.9173  -13.3330 C   0  0  0  0  0  0  0  0  0  0  0  0
  -25.2766   -0.7709  -12.1404 C   0  0  0  0  0  0  0  0  0  0  0  0
  -26.5202   -1.1920  -12.3008 N   0  0  0  0  0  0  0  0  0  0  0  0
  -26.6456   -1.6572  -13.5192 N   0  0  0  0  0  0  0  0  0  0  0  0
  -27.9874   -2.0527  -13.9565 C   0  0  0  0  0  0  0  0  0  0  0  0
  -25.4403   -1.5745  -14.1862 C   0  0  0  0  0  0  0  0  0  0  0  0
  -14.3662    0.5024  -16.3855 C   0  0  0  0  0  0  0  0  0  0  0  0
  -14.1408   -0.1335  -15.1712 C   0  0  0  0  0  0  0  0  0  0  0  0
  -14.9930    0.0762  -14.0840 C   0  0  0  0  0  0  0  0  0  0  0  0
  -16.1005    0.9500  -14.2054 C   0  0  0  0  0  0  0  0  0  0  0  0
  -16.3653    1.5891  -15.4135 C   0  0  0  0  0  0  0  0  0  0  0  0
  -15.4841    1.3434  -16.5101 C   0  0  0  0  0  0  0  0  0  0  0  0
  -13.7358   -0.4113  -18.5569 C   0  0  0  0  0  0  0  0  0  0  0  0
  -13.4797    0.2893  -17.3949 O   0  0  0  0  0  0  0  0  0  0  0  0
  -14.7084   -0.5770  -12.9366 O   0  0  0  0  0  0  0  0  0  0  0  0
  -15.5086   -1.5322  -12.3588 C   0  0  0  0  0  0  0  0  0  0  0  0
  -15.2574   -2.8694  -13.0326 C   0  0  0  0  0  0  0  0  0  0  0  0
  -16.2119   -3.0971  -14.0318 O   0  0  0  0  0  0  0  0  0  0  0  0
  -17.0933   -3.1482  -13.5760 H   0  0  0  0  0  0  0  0  0  0  0  0
  -17.3021    3.6865  -16.2913 C   0  0  0  0  0  0  0  0  0  0  0  0
  -15.9998    4.3759  -15.8754 C   0  0  0  0  0  0  0  0  0  0  0  0
  -15.3862    5.1046  -16.9792 N   0  0  0  0  0  0  0  0  0  0  0  0
  -15.0579    4.4294  -17.7062 H   0  0  0  0  0  0  0  0  0  0  0  0
  -14.5504    5.6063  -16.6015 H   0  0  0  0  0  0  0  0  0  0  0  0
 24 25  1  0  0  0
 25 18  1  0  0  0
 18 19  1  0  0  0
 18 23  2  0  0  0
 19 20  2  0  0  0
 20 26  1  0  0  0
 20 21  1  0  0  0
 26 27  1  0  0  0
 27 28  1  0  0  0
 28 29  1  0  0  0
 29 30  1  0  0  0
 21 22  2  0  0  0
 22  1  1  0  0  0
 22 23  1  0  0  0
  1 31  1  0  0  0
  1  2  1  0  0  0
 31 32  1  0  0  0
 32 33  1  0  0  0
 33 34  1  0  0  0
 33 35  1  0  0  0
  2  3  1  0  0  0
  2 11  2  0  0  0
  3  4  2  0  0  0
  4  5  1  0  0  0
  5  6  1  0  0  0
  5 10  2  0  0  0
  6  7  2  0  0  0
  7  8  1  0  0  0
  8 12  1  0  0  0
  8  9  2  0  0  0
 12 13  1  0  0  0
 12 17  2  0  0  0
 13 14  2  0  0  0
 14 15  1  0  0  0
 15 16  1  0  0  0
 15 17  1  0  0  0
  9 10  1  0  0  0
 10 11  1  0  0  0
M  END
> <minimizedAffinity>
-8.32139

$$$$
