CHEMBL3655081


 24 26  0  0  0  0  0  0  0  0999 V2000
  -24.4102   -1.5116  -11.5926 C   0  0  0  0  0  0  0  0  0  0  0  0
  -23.9196   -2.2075  -12.8710 C   0  0  0  0  0  0  0  0  0  0  0  0
  -22.8700   -1.0909  -13.0704 C   0  0  0  0  0  0  0  0  0  0  0  0
  -23.0903   -0.7103  -11.5794 C   0  0  0  0  0  0  0  0  0  0  0  0
  -25.6812   -0.7162  -11.7037 N   0  0  0  0  0  0  0  0  0  0  0  0
  -25.6010    0.2080  -11.2790 H   0  0  0  0  0  0  0  0  0  0  0  0
  -27.2122   -1.4116  -11.5019 S   0  0  0  0  0  0  0  0  0  0  0  0
  -27.4337   -2.2857  -12.6381 O   0  0  0  0  0  0  0  0  0  0  0  0
  -28.1399   -0.3668  -11.1461 O   0  0  0  0  0  0  0  0  0  0  0  0
  -26.9091   -2.4165  -10.0604 C   0  0  0  0  0  0  0  0  0  0  0  0
  -28.4104   -3.1646   -8.2144 C   0  0  0  0  0  0  0  0  0  0  0  0
  -27.7382   -1.9682   -8.8661 C   0  0  0  0  0  0  0  0  0  0  0  0
  -23.2551    0.0092  -13.9352 N   0  0  0  0  0  0  0  0  0  0  0  0
  -23.9285   -0.2781  -15.2041 C   0  0  0  0  0  0  0  0  0  0  0  0
  -22.4052    1.1409  -14.0520 C   0  0  0  0  0  0  0  0  0  0  0  0
  -22.8893    2.3861  -13.7843 N   0  0  0  0  0  0  0  0  0  0  0  0
  -22.0895    3.4580  -13.9423 C   0  0  0  0  0  0  0  0  0  0  0  0
  -20.8191    3.4857  -14.3861 N   0  0  0  0  0  0  0  0  0  0  0  0
  -20.3850    2.2509  -14.6749 C   0  0  0  0  0  0  0  0  0  0  0  0
  -19.1551    1.9677  -15.1997 N   0  0  0  0  0  0  0  0  0  0  0  0
  -19.0303    0.6147  -15.3959 C   0  0  0  0  0  0  0  0  0  0  0  0
  -20.2107    0.0296  -14.9939 C   0  0  0  0  0  0  0  0  0  0  0  0
  -21.0783    1.0580  -14.5396 C   0  0  0  0  0  0  0  0  0  0  0  0
  -18.4667    2.6690  -15.4290 H   0  0  0  0  0  0  0  0  0  0  0  0
 11 12  1  0  0  0
 12 10  1  0  0  0
 10  7  1  0  0  0
  7  8  2  0  0  0
  7  9  2  0  0  0
  7  5  1  0  0  0
  5  6  1  0  0  0
  1  2  1  0  0  0
  1  4  1  0  0  0
  1  5  1  0  0  0
  2  3  1  0  0  0
  3 13  1  0  0  0
  3  4  1  0  0  0
 13 14  1  0  0  0
 13 15  1  0  0  0
 15 16  1  0  0  0
 15 23  2  0  0  0
 16 17  2  0  0  0
 17 18  1  0  0  0
 18 19  2  0  0  0
 19 20  1  0  0  0
 19 23  1  0  0  0
 20 21  1  0  0  0
 20 24  1  0  0  0
 21 22  2  0  0  0
 22 23  1  0  0  0
M  END
> <minimizedAffinity>
-6.18703

$$$$
