CHEMBL3975267


 35 38  0  0  0  0  0  0  0  0999 V2000
  -28.3174   -1.9278   -6.1300 C   0  0  0  0  0  0  0  0  0  0  0  0
  -29.6406   -2.1531   -5.7346 C   0  0  0  0  0  0  0  0  0  0  0  0
  -29.9835   -3.0123   -4.6868 C   0  0  0  0  0  0  0  0  0  0  0  0
  -28.9986   -3.7661   -4.0574 C   0  0  0  0  0  0  0  0  0  0  0  0
  -27.6492   -3.4818   -4.3878 C   0  0  0  0  0  0  0  0  0  0  0  0
  -27.3114   -2.5897   -5.4304 C   0  0  0  0  0  0  0  0  0  0  0  0
  -29.4116   -5.0751   -3.4052 C   0  0  0  0  0  0  0  0  0  0  0  0
  -28.6188   -6.1908   -3.7486 N   0  0  0  0  0  0  0  0  0  0  0  0
  -29.1438   -6.6133   -4.9635 C   0  0  0  0  0  0  0  0  0  0  0  0
  -28.5397   -7.1187   -6.1125 C   0  0  0  0  0  0  0  0  0  0  0  0
  -29.3817   -7.3301   -7.2080 C   0  0  0  0  0  0  0  0  0  0  0  0
  -30.7624   -7.1345   -7.1147 C   0  0  0  0  0  0  0  0  0  0  0  0
  -31.3501   -6.6946   -5.9226 C   0  0  0  0  0  0  0  0  0  0  0  0
  -30.5077   -6.3586   -4.8491 C   0  0  0  0  0  0  0  0  0  0  0  0
  -30.6794   -5.7042   -3.5830 C   0  0  0  0  0  0  0  0  0  0  0  0
  -27.6269   -6.2142   -3.5766 H   0  0  0  0  0  0  0  0  0  0  0  0
  -31.9563   -5.5062   -2.9138 C   0  0  0  0  0  0  0  0  0  0  0  0
  -32.1353   -6.1238   -1.7089 N   0  0  0  0  0  0  0  0  0  0  0  0
  -32.8885   -4.8715   -3.4018 O   0  0  0  0  0  0  0  0  0  0  0  0
  -31.4481   -6.7579   -1.3271 H   0  0  0  0  0  0  0  0  0  0  0  0
  -33.0868   -6.1351   -1.3530 H   0  0  0  0  0  0  0  0  0  0  0  0
  -27.2272   -0.8020   -9.4237 N   0  0  0  0  0  0  0  0  0  0  0  0
  -27.8397   -1.6353   -8.5104 C   0  0  0  0  0  0  0  0  0  0  0  0
  -28.1920   -2.7808   -8.7697 O   0  0  0  0  0  0  0  0  0  0  0  0
  -28.0164   -1.0935   -7.2457 N   0  0  0  0  0  0  0  0  0  0  0  0
  -27.1036    0.1616   -9.1737 H   0  0  0  0  0  0  0  0  0  0  0  0
  -28.2200   -0.1071   -7.1717 H   0  0  0  0  0  0  0  0  0  0  0  0
  -24.9201   -1.8394  -12.1974 C   0  0  0  0  0  0  0  0  0  0  0  0
  -25.8308   -2.1281  -13.2212 C   0  0  0  0  0  0  0  0  0  0  0  0
  -27.1864   -1.9775  -13.0009 C   0  0  0  0  0  0  0  0  0  0  0  0
  -27.6399   -1.5418  -11.7581 C   0  0  0  0  0  0  0  0  0  0  0  0
  -26.7644   -1.2273  -10.7094 C   0  0  0  0  0  0  0  0  0  0  0  0
  -25.3903   -1.3854  -10.9445 C   0  0  0  0  0  0  0  0  0  0  0  0
  -22.7846   -0.8802  -13.0282 C   0  0  0  0  0  0  0  0  0  0  0  0
  -23.4596   -2.1134  -12.4466 C   0  0  0  0  0  0  0  0  0  0  0  0
 34 35  1  0  0  0
 35 28  1  0  0  0
 28 29  1  0  0  0
 28 33  2  0  0  0
 29 30  2  0  0  0
 30 31  1  0  0  0
 31 32  2  0  0  0
 32 22  1  0  0  0
 32 33  1  0  0  0
 22 23  1  0  0  0
 22 26  1  0  0  0
 23 24  2  0  0  0
 23 25  1  0  0  0
 25  1  1  0  0  0
 25 27  1  0  0  0
  1  2  1  0  0  0
  1  6  2  0  0  0
  2  3  2  0  0  0
  3  4  1  0  0  0
  4  7  1  0  0  0
  4  5  2  0  0  0
  7  8  1  0  0  0
  7 15  2  0  0  0
  8  9  1  0  0  0
  8 16  1  0  0  0
  9 10  1  0  0  0
  9 14  2  0  0  0
 10 11  2  0  0  0
 11 12  1  0  0  0
 12 13  2  0  0  0
 13 14  1  0  0  0
 14 15  1  0  0  0
 15 17  1  0  0  0
 17 18  1  0  0  0
 17 19  2  0  0  0
 18 20  1  0  0  0
 18 21  1  0  0  0
  5  6  1  0  0  0
M  END
> <minimizedAffinity>
-9.49483

$$$$
