CHEMBL189168


 21 22  0  0  0  0  0  0  0  0999 V2000
  -15.8632   -1.0732  -13.4173 N   0  0  0  0  0  0  0  0  0  0  0  0
  -15.6019   -1.3039  -12.0923 C   0  0  0  0  0  0  0  0  0  0  0  0
  -15.8233   -2.6470  -11.9328 C   0  0  0  0  0  0  0  0  0  0  0  0
  -15.7130   -3.4051  -10.7750 C   0  0  0  0  0  0  0  0  0  0  0  0
  -15.3822   -2.9512   -9.5178 N   0  0  0  0  0  0  0  0  0  0  0  0
  -15.9989   -4.7171  -10.9694 N   0  0  0  0  0  0  0  0  0  0  0  0
  -16.3723   -5.1396  -12.2246 C   0  0  0  0  0  0  0  0  0  0  0  0
  -16.5091   -4.4508  -13.3900 N   0  0  0  0  0  0  0  0  0  0  0  0
  -16.2092   -3.1411  -13.2034 C   0  0  0  0  0  0  0  0  0  0  0  0
  -16.2300   -2.1705  -14.1142 N   0  0  0  0  0  0  0  0  0  0  0  0
  -14.9454   -2.0474   -9.4259 H   0  0  0  0  0  0  0  0  0  0  0  0
  -15.1557   -3.6774   -8.8515 H   0  0  0  0  0  0  0  0  0  0  0  0
  -15.7857    0.2045  -14.0898 C   0  0  0  0  0  0  0  0  0  0  0  0
  -17.0146    0.4747  -14.9534 C   0  0  0  0  0  0  0  0  0  0  0  0
  -18.0161    1.3751  -14.2314 C   0  0  0  0  0  0  0  0  0  0  0  0
  -19.2085    1.7054  -15.1277 C   0  0  0  0  0  0  0  0  0  0  0  0
  -20.2868    0.6336  -15.0443 C   0  0  0  0  0  0  0  0  0  0  0  0
  -21.3437    1.0079  -14.0081 C   0  0  0  0  0  0  0  0  0  0  0  0
  -22.4073   -0.0815  -13.8950 C   0  0  0  0  0  0  0  0  0  0  0  0
  -23.0447   -1.5605  -11.9670 C   0  0  0  0  0  0  0  0  0  0  0  0
  -22.9984   -0.1338  -12.4887 C   0  0  0  0  0  0  0  0  0  0  0  0
 20 21  1  0  0  0
 21 19  1  0  0  0
 19 18  1  0  0  0
 18 17  1  0  0  0
 17 16  1  0  0  0
 16 15  1  0  0  0
 15 14  1  0  0  0
 14 13  1  0  0  0
 13  1  1  0  0  0
  1  2  1  0  0  0
  1 10  1  0  0  0
  2  3  2  0  0  0
  3  4  1  0  0  0
  3  9  1  0  0  0
  4  5  1  0  0  0
  4  6  2  0  0  0
  5 11  1  0  0  0
  5 12  1  0  0  0
  6  7  1  0  0  0
  7  8  2  0  0  0
  8  9  1  0  0  0
  9 10  2  0  0  0
M  END
> <minimizedAffinity>
-6.97340

$$$$
