CHEMBL1278233


 32 35  0  0  0  0  0  0  0  0999 V2000
  -30.2824  -10.1360   -8.5012 N   0  0  0  0  0  0  0  0  0  0  0  0
  -31.6243  -10.0929   -7.8925 C   0  0  0  0  0  0  0  0  0  0  0  0
  -32.0713   -8.8096   -7.1628 C   0  0  0  0  0  0  0  0  0  0  0  0
  -31.0759   -7.7323   -7.3108 C   0  0  0  0  0  0  0  0  0  0  0  0
  -31.1965   -6.4720   -6.7970 N   0  0  0  0  0  0  0  0  0  0  0  0
  -30.0771   -5.7396   -7.1155 C   0  0  0  0  0  0  0  0  0  0  0  0
  -29.2279   -6.5647   -7.8482 C   0  0  0  0  0  0  0  0  0  0  0  0
  -27.8832   -6.2378   -8.4068 C   0  0  0  0  0  0  0  0  0  0  0  0
  -29.8787   -7.8254   -7.9772 C   0  0  0  0  0  0  0  0  0  0  0  0
  -29.4377   -9.0347   -8.6450 C   0  0  0  0  0  0  0  0  0  0  0  0
  -28.3820   -9.0760   -9.2706 O   0  0  0  0  0  0  0  0  0  0  0  0
  -31.9906   -6.1320   -6.2604 H   0  0  0  0  0  0  0  0  0  0  0  0
  -29.9087   -4.3897   -6.7251 C   0  0  0  0  0  0  0  0  0  0  0  0
  -29.0971   -3.8487   -5.8101 C   0  0  0  0  0  0  0  0  0  0  0  0
  -28.0762   -4.4465   -4.8764 C   0  0  0  0  0  0  0  0  0  0  0  0
  -27.7598   -5.6153   -4.7569 O   0  0  0  0  0  0  0  0  0  0  0  0
  -27.5596   -3.3685   -4.1690 N   0  0  0  0  0  0  0  0  0  0  0  0
  -28.1481   -2.1704   -4.5622 C   0  0  0  0  0  0  0  0  0  0  0  0
  -27.8853   -0.9054   -4.0786 C   0  0  0  0  0  0  0  0  0  0  0  0
  -28.6079    0.1600   -4.6287 C   0  0  0  0  0  0  0  0  0  0  0  0
  -29.5610   -0.0672   -5.6341 C   0  0  0  0  0  0  0  0  0  0  0  0
  -30.5273    1.3890   -6.3611 Br  0  0  0  0  0  0  0  0  0  0  0  0
  -29.8167   -1.3535   -6.1116 C   0  0  0  0  0  0  0  0  0  0  0  0
  -29.0963   -2.3993   -5.5597 C   0  0  0  0  0  0  0  0  0  0  0  0
  -26.8465   -3.4714   -3.4629 H   0  0  0  0  0  0  0  0  0  0  0  0
  -29.8725  -11.3840   -9.1427 C   0  0  0  0  0  0  0  0  0  0  0  0
  -29.4014  -12.4434   -8.1227 C   0  0  0  0  0  0  0  0  0  0  0  0
  -27.9463  -12.4652   -7.8562 N   0  0  0  0  0  0  0  0  0  0  0  0
  -25.7723  -11.6408   -8.8440 C   0  0  0  0  0  0  0  0  0  0  0  0
  -27.2329  -12.0172   -9.0670 C   0  0  0  0  0  0  0  0  0  0  0  0
  -27.5574  -11.7604   -6.6293 C   0  0  0  0  0  0  0  0  0  0  0  0
  -28.7041  -11.3002   -5.7362 C   0  0  0  0  0  0  0  0  0  0  0  0
 29 30  1  0  0  0
 30 28  1  0  0  0
 28 31  1  0  0  0
 28 27  1  0  0  0
 31 32  1  0  0  0
 27 26  1  0  0  0
 26  1  1  0  0  0
  1  2  1  0  0  0
  1 10  1  0  0  0
  2  3  1  0  0  0
  3  4  1  0  0  0
  4  5  1  0  0  0
  4  9  2  0  0  0
  5  6  1  0  0  0
  5 12  1  0  0  0
  6 13  1  0  0  0
  6  7  2  0  0  0
 13 14  2  0  0  0
 14 15  1  0  0  0
 14 24  1  0  0  0
 15 16  2  0  0  0
 15 17  1  0  0  0
 17 18  1  0  0  0
 17 25  1  0  0  0
 18 19  1  0  0  0
 18 24  2  0  0  0
 19 20  2  0  0  0
 20 21  1  0  0  0
 21 22  1  0  0  0
 21 23  2  0  0  0
 23 24  1  0  0  0
  7  8  1  0  0  0
  7  9  1  0  0  0
  9 10  1  0  0  0
 10 11  2  0  0  0
M  END
> <minimizedAffinity>
-6.95232

$$$$
