CHEMBL408565


 23 26  0  0  0  0  0  0  0  0999 V2000
  -30.9908   -7.5897   -6.9478 O   0  0  0  0  0  0  0  0  0  0  0  0
  -30.2751   -8.2838   -7.6408 C   0  0  0  0  0  0  0  0  0  0  0  0
  -30.5252   -9.6035   -7.9871 N   0  0  0  0  0  0  0  0  0  0  0  0
  -29.5474  -10.1005   -8.8385 C   0  0  0  0  0  0  0  0  0  0  0  0
  -29.4938  -11.3770   -9.3646 C   0  0  0  0  0  0  0  0  0  0  0  0
  -28.4094  -11.6833  -10.1857 C   0  0  0  0  0  0  0  0  0  0  0  0
  -27.4183  -10.7207  -10.4566 C   0  0  0  0  0  0  0  0  0  0  0  0
  -27.4983   -9.4300   -9.9151 C   0  0  0  0  0  0  0  0  0  0  0  0
  -28.5783   -9.1268   -9.1079 C   0  0  0  0  0  0  0  0  0  0  0  0
  -28.9860   -7.9321   -8.3511 C   0  0  0  0  0  0  0  0  0  0  0  0
  -28.3046   -6.7754   -8.2733 C   0  0  0  0  0  0  0  0  0  0  0  0
  -31.3283  -10.1049   -7.6460 H   0  0  0  0  0  0  0  0  0  0  0  0
  -28.6732   -5.7565   -7.3658 C   0  0  0  0  0  0  0  0  0  0  0  0
  -29.3545   -4.5717   -7.5430 C   0  0  0  0  0  0  0  0  0  0  0  0
  -29.2939   -3.8574   -6.3183 C   0  0  0  0  0  0  0  0  0  0  0  0
  -28.6493   -4.6631   -5.4130 C   0  0  0  0  0  0  0  0  0  0  0  0
  -28.2868   -5.8254   -6.0497 N   0  0  0  0  0  0  0  0  0  0  0  0
  -28.2936   -4.3378   -4.0180 C   0  0  0  0  0  0  0  0  0  0  0  0
  -28.8190   -2.9665   -3.5668 C   0  0  0  0  0  0  0  0  0  0  0  0
  -29.4368   -2.0052   -4.6053 C   0  0  0  0  0  0  0  0  0  0  0  0
  -28.3087   -0.3791   -4.7135 Br  0  0  0  0  0  0  0  0  0  0  0  0
  -29.7565   -2.4830   -6.0296 C   0  0  0  0  0  0  0  0  0  0  0  0
  -27.7372   -6.5687   -5.6389 H   0  0  0  0  0  0  0  0  0  0  0  0
  1  2  2  0  0  0
  2  3  1  0  0  0
  2 10  1  0  0  0
  3  4  1  0  0  0
  3 12  1  0  0  0
  4  5  1  0  0  0
  4  9  2  0  0  0
  5  6  2  0  0  0
  6  7  1  0  0  0
  7  8  2  0  0  0
  8  9  1  0  0  0
  9 10  1  0  0  0
 10 11  2  0  0  0
 11 13  1  0  0  0
 13 14  2  0  0  0
 13 17  1  0  0  0
 14 15  1  0  0  0
 15 16  2  0  0  0
 15 22  1  0  0  0
 16 17  1  0  0  0
 16 18  1  0  0  0
 17 23  1  0  0  0
 18 19  1  0  0  0
 19 20  1  0  0  0
 20 21  1  0  0  0
 20 22  1  0  0  0
M  END
> <minimizedAffinity>
-8.40725

$$$$
