CHEMBL3644030


 26 27  0  0  0  0  0  0  0  0999 V2000
  -28.1889   -1.8818   -6.3498 C   0  0  0  0  0  0  0  0  0  0  0  0
  -28.1952   -3.2109   -6.0994 N   0  0  0  0  0  0  0  0  0  0  0  0
  -28.9001   -3.6820   -5.0598 C   0  0  0  0  0  0  0  0  0  0  0  0
  -29.5600   -2.8866   -4.2164 N   0  0  0  0  0  0  0  0  0  0  0  0
  -29.5074   -1.5672   -4.4692 C   0  0  0  0  0  0  0  0  0  0  0  0
  -28.8776   -0.9941   -5.5583 C   0  0  0  0  0  0  0  0  0  0  0  0
  -29.0440    0.4707   -5.7265 C   0  0  0  0  0  0  0  0  0  0  0  0
  -28.8945    0.9502   -6.9874 F   0  0  0  0  0  0  0  0  0  0  0  0
  -30.2792    0.8983   -5.3357 F   0  0  0  0  0  0  0  0  0  0  0  0
  -28.1619    1.1687   -4.9560 F   0  0  0  0  0  0  0  0  0  0  0  0
  -29.0501   -5.0508   -4.8570 N   0  0  0  0  0  0  0  0  0  0  0  0
  -28.4730   -5.3707   -4.0932 H   0  0  0  0  0  0  0  0  0  0  0  0
  -29.5659   -6.0296   -5.7135 C   0  0  0  0  0  0  0  0  0  0  0  0
  -30.8630   -6.5338   -5.5633 C   0  0  0  0  0  0  0  0  0  0  0  0
  -31.3363   -7.5682   -6.3728 C   0  0  0  0  0  0  0  0  0  0  0  0
  -30.4949   -8.1235   -7.3379 C   0  0  0  0  0  0  0  0  0  0  0  0
  -29.1985   -7.6370   -7.5098 C   0  0  0  0  0  0  0  0  0  0  0  0
  -28.7454   -6.5818   -6.7090 C   0  0  0  0  0  0  0  0  0  0  0  0
  -31.0345   -9.5586   -8.2434 S   0  0  0  0  0  0  0  0  0  0  0  0
  -30.7175  -10.9085   -7.1408 C   0  0  0  0  0  0  0  0  0  0  0  0
  -32.4721   -9.4530   -8.4176 O   0  0  0  0  0  0  0  0  0  0  0  0
  -30.1563   -9.7063   -9.3830 O   0  0  0  0  0  0  0  0  0  0  0  0
  -27.5372   -1.6118   -7.5162 O   0  0  0  0  0  0  0  0  0  0  0  0
  -27.7725   -2.4527   -8.6385 C   0  0  0  0  0  0  0  0  0  0  0  0
  -26.8359   -1.7060  -10.8250 C   0  0  0  0  0  0  0  0  0  0  0  0
  -27.8033   -1.6458   -9.8981 C   0  0  0  0  0  0  0  0  0  0  0  0
 25 26  2  0  0  0
 26 24  1  0  0  0
 24 23  1  0  0  0
 23  1  1  0  0  0
  1  2  1  0  0  0
  1  6  2  0  0  0
  2  3  2  0  0  0
  3 11  1  0  0  0
  3  4  1  0  0  0
 11 13  1  0  0  0
 11 12  1  0  0  0
 13 14  1  0  0  0
 13 18  2  0  0  0
 14 15  2  0  0  0
 15 16  1  0  0  0
 16 19  1  0  0  0
 16 17  2  0  0  0
 19 20  1  0  0  0
 19 21  2  0  0  0
 19 22  2  0  0  0
 17 18  1  0  0  0
  4  5  2  0  0  0
  5  6  1  0  0  0
  6  7  1  0  0  0
  7  8  1  0  0  0
  7  9  1  0  0  0
  7 10  1  0  0  0
M  END
> <minimizedAffinity>
-8.07531

$$$$
