CHEMBL101221


 28 31  0  0  0  0  0  0  0  0999 V2000
  -30.2283   -8.3895   -6.9404 C   0  0  0  0  0  0  0  0  0  0  0  0
  -30.4024   -7.1984   -6.3029 O   0  0  0  0  0  0  0  0  0  0  0  0
  -29.5448   -6.3329   -6.9307 C   0  0  0  0  0  0  0  0  0  0  0  0
  -28.8568   -6.8911   -7.9100 N   0  0  0  0  0  0  0  0  0  0  0  0
  -29.2597   -8.2045   -7.9091 C   0  0  0  0  0  0  0  0  0  0  0  0
  -29.5280   -4.9567   -6.4232 C   0  0  0  0  0  0  0  0  0  0  0  0
  -28.7749   -3.9564   -7.0724 C   0  0  0  0  0  0  0  0  0  0  0  0
  -28.7553   -2.6239   -6.6094 C   0  0  0  0  0  0  0  0  0  0  0  0
  -28.0128   -1.6213   -7.2604 C   0  0  0  0  0  0  0  0  0  0  0  0
  -28.0186   -0.3067   -6.7892 C   0  0  0  0  0  0  0  0  0  0  0  0
  -28.7618    0.0263   -5.6608 C   0  0  0  0  0  0  0  0  0  0  0  0
  -29.4988   -0.9559   -5.0006 C   0  0  0  0  0  0  0  0  0  0  0  0
  -29.5054   -2.2813   -5.4639 C   0  0  0  0  0  0  0  0  0  0  0  0
  -30.2495   -3.2714   -4.8092 C   0  0  0  0  0  0  0  0  0  0  0  0
  -30.2592   -4.5844   -5.2864 C   0  0  0  0  0  0  0  0  0  0  0  0
  -31.0167   -5.5130   -4.6203 O   0  0  0  0  0  0  0  0  0  0  0  0
  -31.5063   -5.0858   -3.9009 H   0  0  0  0  0  0  0  0  0  0  0  0
  -28.7352   -9.1952   -8.8322 C   0  0  0  0  0  0  0  0  0  0  0  0
  -29.5242   -9.7502   -9.8499 C   0  0  0  0  0  0  0  0  0  0  0  0
  -28.9636  -10.6143  -10.7927 C   0  0  0  0  0  0  0  0  0  0  0  0
  -27.6191  -10.9649  -10.7022 C   0  0  0  0  0  0  0  0  0  0  0  0
  -26.8440  -10.4824   -9.6494 C   0  0  0  0  0  0  0  0  0  0  0  0
  -27.4012   -9.6066   -8.7147 C   0  0  0  0  0  0  0  0  0  0  0  0
  -32.8461  -10.9878   -6.6114 C   0  0  0  0  0  0  0  0  0  0  0  0
  -32.1536   -9.8180   -7.2588 C   0  0  0  0  0  0  0  0  0  0  0  0
  -32.6304   -9.2624   -8.2392 O   0  0  0  0  0  0  0  0  0  0  0  0
  -30.9988   -9.4713   -6.5855 N   0  0  0  0  0  0  0  0  0  0  0  0
  -30.7417   -9.9713   -5.7457 H   0  0  0  0  0  0  0  0  0  0  0  0
 24 25  1  0  0  0
 25 26  2  0  0  0
 25 27  1  0  0  0
 27  1  1  0  0  0
 27 28  1  0  0  0
  1  2  1  0  0  0
  1  5  2  0  0  0
  2  3  1  0  0  0
  3  6  1  0  0  0
  3  4  2  0  0  0
  6  7  1  0  0  0
  6 15  2  0  0  0
  7  8  2  0  0  0
  8  9  1  0  0  0
  8 13  1  0  0  0
  9 10  2  0  0  0
 10 11  1  0  0  0
 11 12  2  0  0  0
 12 13  1  0  0  0
 13 14  2  0  0  0
 14 15  1  0  0  0
 15 16  1  0  0  0
 16 17  1  0  0  0
  4  5  1  0  0  0
  5 18  1  0  0  0
 18 19  1  0  0  0
 18 23  2  0  0  0
 19 20  2  0  0  0
 20 21  1  0  0  0
 21 22  2  0  0  0
 22 23  1  0  0  0
M  END
> <minimizedAffinity>
-9.85341

$$$$
