CHEMBL4208557


 43 47  0  0  0  0  0  0  0  0999 V2000
  -13.4927   -1.8020  -13.0704 C   0  0  0  0  0  0  0  0  0  0  0  0
  -14.8772   -1.9219  -13.2312 C   0  0  0  0  0  0  0  0  0  0  0  0
  -15.6321   -0.8294  -13.6663 C   0  0  0  0  0  0  0  0  0  0  0  0
  -14.9912    0.3533  -14.0341 C   0  0  0  0  0  0  0  0  0  0  0  0
  -13.6000    0.4387  -13.9896 C   0  0  0  0  0  0  0  0  0  0  0  0
  -12.8641   -0.6271  -13.4790 C   0  0  0  0  0  0  0  0  0  0  0  0
  -11.5317   -0.5055  -13.3836 F   0  0  0  0  0  0  0  0  0  0  0  0
  -15.7124    1.4426  -14.5380 N   0  0  0  0  0  0  0  0  0  0  0  0
  -15.9221    1.6878  -15.8832 C   0  0  0  0  0  0  0  0  0  0  0  0
  -15.5305    1.0334  -16.8390 O   0  0  0  0  0  0  0  0  0  0  0  0
  -16.2632    1.9760  -13.8747 H   0  0  0  0  0  0  0  0  0  0  0  0
  -16.7278    2.9313  -16.0909 C   0  0  0  0  0  0  0  0  0  0  0  0
  -15.8191    3.7813  -17.0462 C   0  0  0  0  0  0  0  0  0  0  0  0
  -16.5857    4.5295  -16.1196 C   0  0  0  0  0  0  0  0  0  0  0  0
  -17.8652    2.9122  -15.1168 C   0  0  0  0  0  0  0  0  0  0  0  0
  -17.6927    3.2933  -13.9706 O   0  0  0  0  0  0  0  0  0  0  0  0
  -19.0176    2.4224  -15.7131 N   0  0  0  0  0  0  0  0  0  0  0  0
  -18.9405    2.2115  -16.7083 H   0  0  0  0  0  0  0  0  0  0  0  0
  -20.2389    2.1083  -15.1183 C   0  0  0  0  0  0  0  0  0  0  0  0
  -21.1393    3.0694  -14.6560 C   0  0  0  0  0  0  0  0  0  0  0  0
  -22.3044    2.6765  -14.0094 C   0  0  0  0  0  0  0  0  0  0  0  0
  -22.5807    1.3252  -13.8353 C   0  0  0  0  0  0  0  0  0  0  0  0
  -23.6979    0.9547  -13.1987 F   0  0  0  0  0  0  0  0  0  0  0  0
  -21.7076    0.3538  -14.3056 C   0  0  0  0  0  0  0  0  0  0  0  0
  -20.5362    0.7438  -14.9519 C   0  0  0  0  0  0  0  0  0  0  0  0
  -12.6885   -2.8087  -12.5907 O   0  0  0  0  0  0  0  0  0  0  0  0
  -12.1106   -5.1515  -14.4329 C   0  0  0  0  0  0  0  0  0  0  0  0
  -12.8740   -5.8205  -13.3295 C   0  0  0  0  0  0  0  0  0  0  0  0
  -13.2368   -7.1684  -13.2738 C   0  0  0  0  0  0  0  0  0  0  0  0
  -14.0807   -7.5292  -11.8199 S   0  0  0  0  0  0  0  0  0  0  0  0
  -13.9866   -5.9322  -11.2683 C   0  0  0  0  0  0  0  0  0  0  0  0
  -14.5290   -5.5914  -10.0873 N   0  0  0  0  0  0  0  0  0  0  0  0
  -14.3580   -4.3004   -9.7977 C   0  0  0  0  0  0  0  0  0  0  0  0
  -13.7491   -3.3780  -10.5500 N   0  0  0  0  0  0  0  0  0  0  0  0
  -13.2631   -3.7570  -11.7542 C   0  0  0  0  0  0  0  0  0  0  0  0
  -13.3319   -5.0989  -12.1541 C   0  0  0  0  0  0  0  0  0  0  0  0
  -12.9899   -8.2208  -14.2551 C   0  0  0  0  0  0  0  0  0  0  0  0
  -12.2689   -9.1965  -14.0562 O   0  0  0  0  0  0  0  0  0  0  0  0
  -13.6132   -8.0783  -15.4764 N   0  0  0  0  0  0  0  0  0  0  0  0
  -14.1983   -7.2660  -15.6389 H   0  0  0  0  0  0  0  0  0  0  0  0
  -13.4152   -9.0601  -16.5193 C   0  0  0  0  0  0  0  0  0  0  0  0
  -13.6113   -8.4858  -17.8550 C   0  0  0  0  0  0  0  0  0  0  0  0
  -13.7993   -8.0224  -18.8968 N   0  0  0  0  0  0  0  0  0  0  0  0
 27 28  1  0  0  0
 28 29  2  0  0  0
 28 36  1  0  0  0
 29 37  1  0  0  0
 29 30  1  0  0  0
 37 38  2  0  0  0
 37 39  1  0  0  0
 39 41  1  0  0  0
 39 40  1  0  0  0
 41 42  1  0  0  0
 42 43  3  0  0  0
 30 31  1  0  0  0
 31 32  1  0  0  0
 31 36  2  0  0  0
 32 33  2  0  0  0
 33 34  1  0  0  0
 34 35  2  0  0  0
 35 26  1  0  0  0
 35 36  1  0  0  0
 26  1  1  0  0  0
  1  2  1  0  0  0
  1  6  2  0  0  0
  2  3  2  0  0  0
  3  4  1  0  0  0
  4  8  1  0  0  0
  4  5  2  0  0  0
  8  9  1  0  0  0
  8 11  1  0  0  0
  9 10  2  0  0  0
  9 12  1  0  0  0
 12 15  1  0  0  0
 12 13  1  0  0  0
 12 14  1  0  0  0
 15 16  2  0  0  0
 15 17  1  0  0  0
 17 19  1  0  0  0
 17 18  1  0  0  0
 19 20  1  0  0  0
 19 25  2  0  0  0
 20 21  2  0  0  0
 21 22  1  0  0  0
 22 23  1  0  0  0
 22 24  2  0  0  0
 24 25  1  0  0  0
 13 14  1  0  0  0
  5  6  1  0  0  0
  6  7  1  0  0  0
M  END
> <minimizedAffinity>
-9.14375

$$$$
