CHEMBL189628


 40 42  0  0  0  0  0  0  0  0999 V2000
  -13.5578   -3.2077  -13.2469 C   0  0  0  0  0  0  0  0  0  0  0  0
  -14.3763   -2.2420  -12.6289 C   0  0  0  0  0  0  0  0  0  0  0  0
  -14.8009   -1.0943  -13.2965 C   0  0  0  0  0  0  0  0  0  0  0  0
  -15.6800   -0.1891  -12.7045 C   0  0  0  0  0  0  0  0  0  0  0  0
  -16.1608    0.9064  -13.3185 N   0  0  0  0  0  0  0  0  0  0  0  0
  -15.7637    1.1431  -14.5825 C   0  0  0  0  0  0  0  0  0  0  0  0
  -14.8282    0.3141  -15.2140 C   0  0  0  0  0  0  0  0  0  0  0  0
  -14.3376   -0.8394  -14.5859 C   0  0  0  0  0  0  0  0  0  0  0  0
  -13.4691   -1.7046  -15.1817 N   0  0  0  0  0  0  0  0  0  0  0  0
  -13.1561   -2.8870  -14.5600 C   0  0  0  0  0  0  0  0  0  0  0  0
  -12.0304   -5.3364  -10.4611 C   0  0  0  0  0  0  0  0  0  0  0  0
  -12.6156   -6.5771  -10.7080 C   0  0  0  0  0  0  0  0  0  0  0  0
  -13.4561   -6.7346  -11.8043 C   0  0  0  0  0  0  0  0  0  0  0  0
  -13.6595   -5.6650  -12.6798 C   0  0  0  0  0  0  0  0  0  0  0  0
  -13.1270   -4.3795  -12.4339 C   0  0  0  0  0  0  0  0  0  0  0  0
  -12.2966   -4.2545  -11.3112 C   0  0  0  0  0  0  0  0  0  0  0  0
  -11.7394   -5.2450   -8.1085 C   0  0  0  0  0  0  0  0  0  0  0  0
  -11.2030   -5.0412   -9.4097 O   0  0  0  0  0  0  0  0  0  0  0  0
  -14.1341   -7.8837  -12.1104 O   0  0  0  0  0  0  0  0  0  0  0  0
  -13.3379   -9.0661  -12.1605 C   0  0  0  0  0  0  0  0  0  0  0  0
  -12.3409   -3.7740  -15.3191 N   0  0  0  0  0  0  0  0  0  0  0  0
  -12.9852   -4.7155  -16.1094 C   0  0  0  0  0  0  0  0  0  0  0  0
  -14.2079   -4.8414  -16.1732 O   0  0  0  0  0  0  0  0  0  0  0  0
  -12.0958   -5.4686  -16.8617 N   0  0  0  0  0  0  0  0  0  0  0  0
  -11.7110   -3.2515  -15.9159 H   0  0  0  0  0  0  0  0  0  0  0  0
  -11.2194   -5.6590  -16.3927 H   0  0  0  0  0  0  0  0  0  0  0  0
  -12.5222   -6.4525  -17.8955 C   0  0  0  0  0  0  0  0  0  0  0  0
  -11.2920   -7.0183  -18.6255 C   0  0  0  0  0  0  0  0  0  0  0  0
  -13.2560   -7.6426  -17.2350 C   0  0  0  0  0  0  0  0  0  0  0  0
  -13.4907   -5.8370  -18.9205 C   0  0  0  0  0  0  0  0  0  0  0  0
  -16.3379    2.2656  -15.2404 N   0  0  0  0  0  0  0  0  0  0  0  0
  -15.5909    3.3710  -15.6668 C   0  0  0  0  0  0  0  0  0  0  0  0
  -14.1040    3.4393  -15.4131 C   0  0  0  0  0  0  0  0  0  0  0  0
  -16.1123    4.3027  -16.2934 O   0  0  0  0  0  0  0  0  0  0  0  0
  -17.6643    2.1719  -15.8782 C   0  0  0  0  0  0  0  0  0  0  0  0
  -18.9006    1.9218  -15.0137 C   0  0  0  0  0  0  0  0  0  0  0  0
  -19.9327    3.0491  -15.1136 C   0  0  0  0  0  0  0  0  0  0  0  0
  -21.1948    2.6669  -14.3494 C   0  0  0  0  0  0  0  0  0  0  0  0
  -21.9961    3.8118  -14.1021 O   0  0  0  0  0  0  0  0  0  0  0  0
  -21.5025    4.3910  -13.4974 H   0  0  0  0  0  0  0  0  0  0  0  0
 17 18  1  0  0  0
 18 11  1  0  0  0
 11 12  1  0  0  0
 11 16  2  0  0  0
 12 13  2  0  0  0
 13 19  1  0  0  0
 13 14  1  0  0  0
 19 20  1  0  0  0
 14 15  2  0  0  0
 15  1  1  0  0  0
 15 16  1  0  0  0
  1  2  1  0  0  0
  1 10  2  0  0  0
  2  3  2  0  0  0
  3  4  1  0  0  0
  3  8  1  0  0  0
  4  5  2  0  0  0
  5  6  1  0  0  0
  6 31  1  0  0  0
  6  7  2  0  0  0
 31 35  1  0  0  0
 31 32  1  0  0  0
 35 36  1  0  0  0
 36 37  1  0  0  0
 37 38  1  0  0  0
 38 39  1  0  0  0
 39 40  1  0  0  0
 32 33  1  0  0  0
 32 34  2  0  0  0
  7  8  1  0  0  0
  8  9  2  0  0  0
  9 10  1  0  0  0
 10 21  1  0  0  0
 21 22  1  0  0  0
 21 25  1  0  0  0
 22 23  2  0  0  0
 22 24  1  0  0  0
 24 27  1  0  0  0
 24 26  1  0  0  0
 27 28  1  0  0  0
 27 29  1  0  0  0
 27 30  1  0  0  0
M  END
> <minimizedAffinity>
-6.77418

$$$$
