CHEMBL515625


 27 30  0  0  0  0  0  0  0  0999 V2000
  -17.5069    2.3430  -15.4582 C   0  0  0  0  0  0  0  0  0  0  0  0
  -18.5823    3.2455  -15.5161 C   0  0  0  0  0  0  0  0  0  0  0  0
  -19.8494    2.9154  -15.0694 C   0  0  0  0  0  0  0  0  0  0  0  0
  -20.7815    3.8795  -15.0406 N   0  0  0  0  0  0  0  0  0  0  0  0
  -21.9651    3.5399  -14.5309 C   0  0  0  0  0  0  0  0  0  0  0  0
  -22.2971    2.3372  -14.0611 N   0  0  0  0  0  0  0  0  0  0  0  0
  -21.3679    1.3659  -14.1199 C   0  0  0  0  0  0  0  0  0  0  0  0
  -20.0889    1.6089  -14.6314 C   0  0  0  0  0  0  0  0  0  0  0  0
  -19.0523    0.6580  -14.7190 C   0  0  0  0  0  0  0  0  0  0  0  0
  -17.7558    1.0141  -15.1025 C   0  0  0  0  0  0  0  0  0  0  0  0
  -16.0901    4.1432  -16.0462 C   0  0  0  0  0  0  0  0  0  0  0  0
  -16.2326    2.7499  -15.7493 O   0  0  0  0  0  0  0  0  0  0  0  0
  -21.6788    0.0630  -13.6286 N   0  0  0  0  0  0  0  0  0  0  0  0
  -21.0684   -0.1522  -12.8466 H   0  0  0  0  0  0  0  0  0  0  0  0
  -22.9699   -0.4848  -13.4292 C   0  0  0  0  0  0  0  0  0  0  0  0
  -23.8234   -0.7580  -14.5051 C   0  0  0  0  0  0  0  0  0  0  0  0
  -25.1226   -1.2396  -14.3194 C   0  0  0  0  0  0  0  0  0  0  0  0
  -25.5562   -1.5089  -13.0154 C   0  0  0  0  0  0  0  0  0  0  0  0
  -26.7665   -1.9351  -12.4145 C   0  0  0  0  0  0  0  0  0  0  0  0
  -28.0667   -2.1913  -13.0801 C   0  0  0  0  0  0  0  0  0  0  0  0
  -26.6420   -2.0802  -11.0897 N   0  0  0  0  0  0  0  0  0  0  0  0
  -25.3657   -1.7302  -10.8488 N   0  0  0  0  0  0  0  0  0  0  0  0
  -24.6697   -1.3395  -11.9601 C   0  0  0  0  0  0  0  0  0  0  0  0
  -23.3668   -0.8492  -12.1288 C   0  0  0  0  0  0  0  0  0  0  0  0
  -25.0341   -1.7599   -9.8923 H   0  0  0  0  0  0  0  0  0  0  0  0
  -16.9089   -0.0531  -15.0233 O   0  0  0  0  0  0  0  0  0  0  0  0
  -16.0659   -0.2079  -13.8964 C   0  0  0  0  0  0  0  0  0  0  0  0
 11 12  1  0  0  0
 12  1  1  0  0  0
  1  2  1  0  0  0
  1 10  2  0  0  0
  2  3  2  0  0  0
  3  4  1  0  0  0
  3  8  1  0  0  0
  4  5  2  0  0  0
  5  6  1  0  0  0
  6  7  2  0  0  0
  7 13  1  0  0  0
  7  8  1  0  0  0
 13 15  1  0  0  0
 13 14  1  0  0  0
 15 16  1  0  0  0
 15 24  2  0  0  0
 16 17  2  0  0  0
 17 18  1  0  0  0
 18 19  1  0  0  0
 18 23  2  0  0  0
 19 20  1  0  0  0
 19 21  2  0  0  0
 21 22  1  0  0  0
 22 23  1  0  0  0
 22 25  1  0  0  0
 23 24  1  0  0  0
  8  9  2  0  0  0
  9 10  1  0  0  0
 10 26  1  0  0  0
 26 27  1  0  0  0
M  END
> <minimizedAffinity>
-9.31927

$$$$
