CHEMBL3942161


 38 41  0  0  0  0  0  0  0  0999 V2000
  -28.6834   -5.2658   -5.7602 C   0  0  0  0  0  0  0  0  0  0  0  0
  -28.3379   -3.9803   -5.2903 C   0  0  0  0  0  0  0  0  0  0  0  0
  -28.1067   -2.9031   -6.1533 C   0  0  0  0  0  0  0  0  0  0  0  0
  -27.8001   -1.6824   -5.6915 N   0  0  0  0  0  0  0  0  0  0  0  0
  -27.6142   -0.7132   -6.6034 C   0  0  0  0  0  0  0  0  0  0  0  0
  -27.7234   -0.8381   -7.9327 N   0  0  0  0  0  0  0  0  0  0  0  0
  -28.0433   -2.0577   -8.3880 C   0  0  0  0  0  0  0  0  0  0  0  0
  -28.2057   -3.1441   -7.5229 C   0  0  0  0  0  0  0  0  0  0  0  0
  -28.4631   -4.4332   -7.9993 C   0  0  0  0  0  0  0  0  0  0  0  0
  -28.7781   -5.4792   -7.1439 C   0  0  0  0  0  0  0  0  0  0  0  0
  -28.2927   -2.2640   -9.7787 N   0  0  0  0  0  0  0  0  0  0  0  0
  -29.2428   -1.9694   -9.9854 H   0  0  0  0  0  0  0  0  0  0  0  0
  -27.3975   -1.9671  -10.8202 C   0  0  0  0  0  0  0  0  0  0  0  0
  -27.8702   -1.7388  -12.1150 C   0  0  0  0  0  0  0  0  0  0  0  0
  -26.9842   -1.5162  -13.1665 C   0  0  0  0  0  0  0  0  0  0  0  0
  -25.6101   -1.5102  -12.9318 C   0  0  0  0  0  0  0  0  0  0  0  0
  -24.5662   -1.3014  -14.2902 Cl  0  0  0  0  0  0  0  0  0  0  0  0
  -25.1272   -1.6840  -11.6302 C   0  0  0  0  0  0  0  0  0  0  0  0
  -23.4387   -1.6759  -11.2601 Cl  0  0  0  0  0  0  0  0  0  0  0  0
  -26.0213   -1.8950  -10.5751 C   0  0  0  0  0  0  0  0  0  0  0  0
  -29.1164   -6.6967   -7.6666 O   0  0  0  0  0  0  0  0  0  0  0  0
  -30.5005   -7.0498   -7.6005 C   0  0  0  0  0  0  0  0  0  0  0  0
  -28.9373   -6.1954   -4.7685 O   0  0  0  0  0  0  0  0  0  0  0  0
  -27.9593   -7.2345   -4.6733 C   0  0  0  0  0  0  0  0  0  0  0  0
  -26.6772   -9.9694   -4.7279 N   0  0  0  0  0  0  0  0  0  0  0  0
  -27.6318  -10.7237   -5.5556 C   0  0  0  0  0  0  0  0  0  0  0  0
  -28.8393   -9.8267   -5.8901 C   0  0  0  0  0  0  0  0  0  0  0  0
  -29.4175   -9.2132   -4.7211 O   0  0  0  0  0  0  0  0  0  0  0  0
  -28.4379   -8.4926   -3.9252 C   0  0  0  0  0  0  0  0  0  0  0  0
  -27.3134   -9.4420   -3.5087 C   0  0  0  0  0  0  0  0  0  0  0  0
  -25.3017   -9.9217   -4.8525 C   0  0  0  0  0  0  0  0  0  0  0  0
  -24.7925  -10.0293   -6.0405 N   0  0  0  0  0  0  0  0  0  0  0  0
  -24.6940   -9.8101   -3.6264 N   0  0  0  0  0  0  0  0  0  0  0  0
  -25.1106   -9.0914   -3.0541 H   0  0  0  0  0  0  0  0  0  0  0  0
  -22.7761  -11.1360   -2.9024 C   0  0  0  0  0  0  0  0  0  0  0  0
  -24.2825  -10.9505   -2.8116 C   0  0  0  0  0  0  0  0  0  0  0  0
  -23.4841   -9.9875   -6.2428 C   0  0  0  0  0  0  0  0  0  0  0  0
  -22.3425   -9.9677   -6.4666 N   0  0  0  0  0  0  0  0  0  0  0  0
 35 36  1  0  0  0
 36 33  1  0  0  0
 33 31  1  0  0  0
 33 34  1  0  0  0
 31 32  2  0  0  0
 31 25  1  0  0  0
 32 37  1  0  0  0
 37 38  3  0  0  0
 25 26  1  0  0  0
 25 30  1  0  0  0
 26 27  1  0  0  0
 27 28  1  0  0  0
 28 29  1  0  0  0
 29 24  1  0  0  0
 29 30  1  0  0  0
 24 23  1  0  0  0
 23  1  1  0  0  0
  1  2  1  0  0  0
  1 10  2  0  0  0
  2  3  2  0  0  0
  3  4  1  0  0  0
  3  8  1  0  0  0
  4  5  2  0  0  0
  5  6  1  0  0  0
  6  7  2  0  0  0
  7 11  1  0  0  0
  7  8  1  0  0  0
 11 13  1  0  0  0
 11 12  1  0  0  0
 13 14  1  0  0  0
 13 20  2  0  0  0
 14 15  2  0  0  0
 15 16  1  0  0  0
 16 17  1  0  0  0
 16 18  2  0  0  0
 18 19  1  0  0  0
 18 20  1  0  0  0
  8  9  2  0  0  0
  9 10  1  0  0  0
 10 21  1  0  0  0
 21 22  1  0  0  0
M  END
> <minimizedAffinity>
-8.51478

$$$$
