CHEMBL3690376


 34 37  0  0  0  0  0  0  0  0999 V2000
  -31.1046   11.7850  -13.3736 C   0  0  0  0  0  0  0  0  0  0  0  0
  -31.6014   12.0192  -12.0908 C   0  0  0  0  0  0  0  0  0  0  0  0
  -30.7555   12.4262  -11.0653 C   0  0  0  0  0  0  0  0  0  0  0  0
  -29.3954   12.5728  -11.3106 C   0  0  0  0  0  0  0  0  0  0  0  0
  -28.8464   12.2279  -12.5465 C   0  0  0  0  0  0  0  0  0  0  0  0
  -29.7199   11.8790  -13.5935 C   0  0  0  0  0  0  0  0  0  0  0  0
  -27.3888   12.2048  -12.7506 C   0  0  0  0  0  0  0  0  0  0  0  0
  -26.3529   12.1965  -11.8282 C   0  0  0  0  0  0  0  0  0  0  0  0
  -25.1229   12.1895  -12.4313 N   0  0  0  0  0  0  0  0  0  0  0  0
  -25.3730   12.2058  -13.7168 C   0  0  0  0  0  0  0  0  0  0  0  0
  -24.4920   12.2098  -14.8390 C   0  0  0  0  0  0  0  0  0  0  0  0
  -24.9953   12.2388  -16.0874 C   0  0  0  0  0  0  0  0  0  0  0  0
  -26.4174   12.2864  -16.3417 C   0  0  0  0  0  0  0  0  0  0  0  0
  -27.2494   12.3120  -15.2909 C   0  0  0  0  0  0  0  0  0  0  0  0
  -26.7408   12.2444  -13.9858 N   0  0  0  0  0  0  0  0  0  0  0  0
  -24.0414   12.2538  -17.2706 C   0  0  0  0  0  0  0  0  0  0  0  0
  -23.2231   12.2667  -18.2857 C   0  0  0  0  0  0  0  0  0  0  0  0
  -22.2846   12.3246  -19.3603 C   0  0  0  0  0  0  0  0  0  0  0  0
  -20.9166   12.2211  -19.1201 C   0  0  0  0  0  0  0  0  0  0  0  0
  -20.0242   12.3483  -20.1828 C   0  0  0  0  0  0  0  0  0  0  0  0
  -20.5380   12.5718  -21.4510 C   0  0  0  0  0  0  0  0  0  0  0  0
  -21.8588   12.6580  -21.7214 N   0  0  0  0  0  0  0  0  0  0  0  0
  -22.7024   12.5307  -20.6682 C   0  0  0  0  0  0  0  0  0  0  0  0
  -33.8932   10.7606  -13.4172 O   0  0  0  0  0  0  0  0  0  0  0  0
  -33.2205   10.9759  -14.4159 C   0  0  0  0  0  0  0  0  0  0  0  0
  -33.7333   10.7622  -15.6786 N   0  0  0  0  0  0  0  0  0  0  0  0
  -31.9292   11.4520  -14.4697 N   0  0  0  0  0  0  0  0  0  0  0  0
  -33.0560   10.5174  -16.3867 H   0  0  0  0  0  0  0  0  0  0  0  0
  -31.5640   11.6564  -15.3855 H   0  0  0  0  0  0  0  0  0  0  0  0
  -35.0456   10.1145  -15.7971 C   0  0  0  0  0  0  0  0  0  0  0  0
  -35.0125    8.6918  -16.3724 C   0  0  0  0  0  0  0  0  0  0  0  0
  -33.7696    8.3428  -16.7809 F   0  0  0  0  0  0  0  0  0  0  0  0
  -35.4400    7.7674  -15.4894 F   0  0  0  0  0  0  0  0  0  0  0  0
  -35.8155    8.6157  -17.4631 F   0  0  0  0  0  0  0  0  0  0  0  0
 24 25  2  0  0  0
 25 26  1  0  0  0
 25 27  1  0  0  0
 26 30  1  0  0  0
 26 28  1  0  0  0
 30 31  1  0  0  0
 31 32  1  0  0  0
 31 33  1  0  0  0
 31 34  1  0  0  0
 27  1  1  0  0  0
 27 29  1  0  0  0
  1  2  1  0  0  0
  1  6  2  0  0  0
  2  3  2  0  0  0
  3  4  1  0  0  0
  4  5  2  0  0  0
  5  7  1  0  0  0
  5  6  1  0  0  0
  7  8  2  0  0  0
  7 15  1  0  0  0
  8  9  1  0  0  0
  9 10  2  0  0  0
 10 11  1  0  0  0
 10 15  1  0  0  0
 11 12  2  0  0  0
 12 16  1  0  0  0
 12 13  1  0  0  0
 16 17  3  0  0  0
 17 18  1  0  0  0
 18 19  1  0  0  0
 18 23  2  0  0  0
 19 20  2  0  0  0
 20 21  1  0  0  0
 21 22  2  0  0  0
 22 23  1  0  0  0
 13 14  2  0  0  0
 14 15  1  0  0  0
M  END
> <minimizedAffinity>
-4.23881

$$$$
