CHEMBL1241483


 24 26  0  0  0  0  0  0  0  0999 V2000
  -29.6689   -7.8648   -7.5706 C   0  0  0  0  0  0  0  0  0  0  0  0
  -28.4770   -8.2041   -8.0972 N   0  0  0  0  0  0  0  0  0  0  0  0
  -28.6550   -9.4593   -8.5594 N   0  0  0  0  0  0  0  0  0  0  0  0
  -29.9264   -9.9303   -8.3770 C   0  0  0  0  0  0  0  0  0  0  0  0
  -30.3996  -11.1360   -8.7354 N   0  0  0  0  0  0  0  0  0  0  0  0
  -31.6937  -11.2730   -8.4096 C   0  0  0  0  0  0  0  0  0  0  0  0
  -32.4959  -10.3719   -7.8138 N   0  0  0  0  0  0  0  0  0  0  0  0
  -31.9815   -9.1713   -7.4754 C   0  0  0  0  0  0  0  0  0  0  0  0
  -32.8712   -8.2778   -6.8919 N   0  0  0  0  0  0  0  0  0  0  0  0
  -30.6279   -8.9142   -7.7441 C   0  0  0  0  0  0  0  0  0  0  0  0
  -33.8232   -8.6090   -7.0082 H   0  0  0  0  0  0  0  0  0  0  0  0
  -32.7197   -7.3080   -7.1387 H   0  0  0  0  0  0  0  0  0  0  0  0
  -30.3196   -5.2288   -4.9315 C   0  0  0  0  0  0  0  0  0  0  0  0
  -30.1568   -6.4697   -5.5637 C   0  0  0  0  0  0  0  0  0  0  0  0
  -29.8358   -6.5567   -6.9299 C   0  0  0  0  0  0  0  0  0  0  0  0
  -29.7064   -5.3726   -7.6652 C   0  0  0  0  0  0  0  0  0  0  0  0
  -29.8310   -4.1330   -7.0388 C   0  0  0  0  0  0  0  0  0  0  0  0
  -30.1363   -4.0659   -5.6826 C   0  0  0  0  0  0  0  0  0  0  0  0
  -30.2487   -2.8468   -5.1363 F   0  0  0  0  0  0  0  0  0  0  0  0
  -32.0061   -5.0783   -3.2610 C   0  0  0  0  0  0  0  0  0  0  0  0
  -30.6440   -5.3072   -3.6033 O   0  0  0  0  0  0  0  0  0  0  0  0
  -27.5487  -10.1683   -9.1948 C   0  0  0  0  0  0  0  0  0  0  0  0
  -27.1216   -9.4887  -10.4958 C   0  0  0  0  0  0  0  0  0  0  0  0
  -26.3614  -10.3305   -8.2452 C   0  0  0  0  0  0  0  0  0  0  0  0
 20 21  1  0  0  0
 21 13  1  0  0  0
 13 14  1  0  0  0
 13 18  2  0  0  0
 14 15  2  0  0  0
 15  1  1  0  0  0
 15 16  1  0  0  0
  1  2  2  0  0  0
  1 10  1  0  0  0
  2  3  1  0  0  0
  3 22  1  0  0  0
  3  4  1  0  0  0
 22 23  1  0  0  0
 22 24  1  0  0  0
  4  5  1  0  0  0
  4 10  2  0  0  0
  5  6  2  0  0  0
  6  7  1  0  0  0
  7  8  2  0  0  0
  8  9  1  0  0  0
  8 10  1  0  0  0
  9 11  1  0  0  0
  9 12  1  0  0  0
 16 17  2  0  0  0
 17 18  1  0  0  0
 18 19  1  0  0  0
M  END
> <minimizedAffinity>
-7.25318

$$$$
