CHEMBL2430252


 37 42  0  0  0  0  0  0  0  0999 V2000
  -28.6973   -8.2788   -3.6834 C   0  0  0  0  0  0  0  0  0  0  0  0
  -29.2307   -7.3744   -4.7380 C   0  0  0  0  0  0  0  0  0  0  0  0
  -29.0766   -6.0096   -4.5810 N   0  0  0  0  0  0  0  0  0  0  0  0
  -29.5152   -5.3413   -5.6859 C   0  0  0  0  0  0  0  0  0  0  0  0
  -30.0212   -6.2907   -6.5476 C   0  0  0  0  0  0  0  0  0  0  0  0
  -29.8701   -7.5884   -5.9582 C   0  0  0  0  0  0  0  0  0  0  0  0
  -30.6041   -5.9981   -7.8828 C   0  0  0  0  0  0  0  0  0  0  0  0
  -30.6148   -4.5299   -8.2709 C   0  0  0  0  0  0  0  0  0  0  0  0
  -30.0181   -3.5054   -7.2995 C   0  0  0  0  0  0  0  0  0  0  0  0
  -29.4535   -3.9394   -5.9453 C   0  0  0  0  0  0  0  0  0  0  0  0
  -28.9304   -2.9898   -5.1222 C   0  0  0  0  0  0  0  0  0  0  0  0
  -28.3030   -3.1502   -3.7434 C   0  0  0  0  0  0  0  0  0  0  0  0
  -28.1429   -4.1587   -3.0826 O   0  0  0  0  0  0  0  0  0  0  0  0
  -27.9277   -1.8787   -3.3456 N   0  0  0  0  0  0  0  0  0  0  0  0
  -28.2416   -0.9288   -4.3006 C   0  0  0  0  0  0  0  0  0  0  0  0
  -28.0014    0.4343   -4.2053 C   0  0  0  0  0  0  0  0  0  0  0  0
  -28.3885    1.2394   -5.2757 C   0  0  0  0  0  0  0  0  0  0  0  0
  -28.9974    0.6612   -6.3921 C   0  0  0  0  0  0  0  0  0  0  0  0
  -29.3701    1.4376   -7.4179 F   0  0  0  0  0  0  0  0  0  0  0  0
  -29.2291   -0.7073   -6.4668 C   0  0  0  0  0  0  0  0  0  0  0  0
  -28.8513   -1.5232   -5.4088 C   0  0  0  0  0  0  0  0  0  0  0  0
  -28.6414   -5.5783   -3.7701 H   0  0  0  0  0  0  0  0  0  0  0  0
  -27.4843   -1.6987   -2.4601 H   0  0  0  0  0  0  0  0  0  0  0  0
  -30.2558   -8.8138   -6.6747 C   0  0  0  0  0  0  0  0  0  0  0  0
  -31.3955   -9.2612   -6.5240 O   0  0  0  0  0  0  0  0  0  0  0  0
  -29.3187   -9.5312   -7.4265 N   0  0  0  0  0  0  0  0  0  0  0  0
  -29.8507  -10.6493   -8.1981 C   0  0  0  0  0  0  0  0  0  0  0  0
  -28.8093  -11.7114   -8.4921 C   0  0  0  0  0  0  0  0  0  0  0  0
  -27.5119  -11.1583   -9.1073 C   0  0  0  0  0  0  0  0  0  0  0  0
  -26.9809  -10.0616   -8.1751 C   0  0  0  0  0  0  0  0  0  0  0  0
  -28.0097   -9.0135   -7.7871 C   0  0  0  0  0  0  0  0  0  0  0  0
  -27.5071  -10.8277  -10.5572 N   0  0  0  0  0  0  0  0  0  0  0  0
  -28.8452  -11.0221  -11.1390 C   0  0  0  0  0  0  0  0  0  0  0  0
  -28.8707  -10.8219  -12.6518 C   0  0  0  0  0  0  0  0  0  0  0  0
  -28.3501   -9.4406  -13.0142 C   0  0  0  0  0  0  0  0  0  0  0  0
  -26.9437   -9.2819  -12.4642 C   0  0  0  0  0  0  0  0  0  0  0  0
  -26.9036   -9.5539  -10.9582 C   0  0  0  0  0  0  0  0  0  0  0  0
  1  2  1  0  0  0
  2  3  1  0  0  0
  2  6  2  0  0  0
  3  4  1  0  0  0
  3 22  1  0  0  0
  4  5  2  0  0  0
  4 10  1  0  0  0
  5  6  1  0  0  0
  5  7  1  0  0  0
  6 24  1  0  0  0
 24 25  2  0  0  0
 24 26  1  0  0  0
 26 27  1  0  0  0
 26 31  1  0  0  0
 27 28  1  0  0  0
 28 29  1  0  0  0
 29 32  1  0  0  0
 29 30  1  0  0  0
 32 33  1  0  0  0
 32 37  1  0  0  0
 33 34  1  0  0  0
 34 35  1  0  0  0
 35 36  1  0  0  0
 36 37  1  0  0  0
 30 31  1  0  0  0
  7  8  1  0  0  0
  8  9  1  0  0  0
  9 10  1  0  0  0
 10 11  2  0  0  0
 11 12  1  0  0  0
 11 21  1  0  0  0
 12 13  2  0  0  0
 12 14  1  0  0  0
 14 15  1  0  0  0
 14 23  1  0  0  0
 15 16  1  0  0  0
 15 21  2  0  0  0
 16 17  2  0  0  0
 17 18  1  0  0  0
 18 19  1  0  0  0
 18 20  2  0  0  0
 20 21  1  0  0  0
M  END
> <minimizedAffinity>
-8.16385

$$$$
