CHEMBL4210100


 47 52  0  0  0  0  0  0  0  0999 V2000
  -15.3768    1.6089  -14.8271 C   0  0  0  0  0  0  0  0  0  0  0  0
  -14.2900    1.3263  -13.9890 C   0  0  0  0  0  0  0  0  0  0  0  0
  -14.3158    0.2077  -13.1644 C   0  0  0  0  0  0  0  0  0  0  0  0
  -15.4368   -0.6182  -13.0969 C   0  0  0  0  0  0  0  0  0  0  0  0
  -16.5596   -0.2890  -13.8707 C   0  0  0  0  0  0  0  0  0  0  0  0
  -16.5233    0.8222  -14.7226 C   0  0  0  0  0  0  0  0  0  0  0  0
  -17.6084    1.1141  -15.4569 F   0  0  0  0  0  0  0  0  0  0  0  0
  -15.4580   -1.7896  -12.3049 N   0  0  0  0  0  0  0  0  0  0  0  0
  -15.1782   -3.0778  -12.7397 C   0  0  0  0  0  0  0  0  0  0  0  0
  -14.7515   -3.4238  -13.8330 O   0  0  0  0  0  0  0  0  0  0  0  0
  -15.7492   -1.6829  -11.3385 H   0  0  0  0  0  0  0  0  0  0  0  0
  -15.4353   -4.1509  -11.7250 C   0  0  0  0  0  0  0  0  0  0  0  0
  -15.4728   -5.5998  -12.2240 C   0  0  0  0  0  0  0  0  0  0  0  0
  -16.7436   -4.9262  -11.8134 C   0  0  0  0  0  0  0  0  0  0  0  0
  -14.7824   -3.9236  -10.3991 C   0  0  0  0  0  0  0  0  0  0  0  0
  -15.4760   -3.3949   -9.5328 O   0  0  0  0  0  0  0  0  0  0  0  0
  -13.4573   -4.3179  -10.2679 N   0  0  0  0  0  0  0  0  0  0  0  0
  -12.9662   -4.6072  -11.1061 H   0  0  0  0  0  0  0  0  0  0  0  0
  -12.7170   -4.2424   -9.0612 C   0  0  0  0  0  0  0  0  0  0  0  0
  -12.6837   -5.3020   -8.1446 C   0  0  0  0  0  0  0  0  0  0  0  0
  -12.0378   -5.1771   -6.9139 C   0  0  0  0  0  0  0  0  0  0  0  0
  -11.3971   -3.9901   -6.6022 C   0  0  0  0  0  0  0  0  0  0  0  0
  -10.8080   -3.8545   -5.4069 F   0  0  0  0  0  0  0  0  0  0  0  0
  -11.3555   -2.9460   -7.5190 C   0  0  0  0  0  0  0  0  0  0  0  0
  -12.0021   -3.0768   -8.7572 C   0  0  0  0  0  0  0  0  0  0  0  0
  -15.3158    2.6389  -15.7384 O   0  0  0  0  0  0  0  0  0  0  0  0
  -12.0794    8.5013  -17.6980 C   0  0  0  0  0  0  0  0  0  0  0  0
  -12.3398    7.6740  -16.5914 C   0  0  0  0  0  0  0  0  0  0  0  0
  -12.0141    6.3134  -16.6120 C   0  0  0  0  0  0  0  0  0  0  0  0
  -11.5137    5.7475  -17.7838 C   0  0  0  0  0  0  0  0  0  0  0  0
  -11.3221    6.5542  -18.9087 C   0  0  0  0  0  0  0  0  0  0  0  0
  -11.5951    7.9290  -18.8833 C   0  0  0  0  0  0  0  0  0  0  0  0
  -11.2883    4.3616  -17.8544 N   0  0  0  0  0  0  0  0  0  0  0  0
  -12.3007    3.4166  -17.6041 C   0  0  0  0  0  0  0  0  0  0  0  0
  -12.2797    2.4057  -18.4994 N   0  0  0  0  0  0  0  0  0  0  0  0
  -13.2956    1.5468  -18.4560 C   0  0  0  0  0  0  0  0  0  0  0  0
  -14.3198    1.6031  -17.6132 N   0  0  0  0  0  0  0  0  0  0  0  0
  -14.2653    2.5754  -16.6737 C   0  0  0  0  0  0  0  0  0  0  0  0
  -13.2435    3.5237  -16.5659 C   0  0  0  0  0  0  0  0  0  0  0  0
  -13.2968    4.5227  -15.5738 N   0  0  0  0  0  0  0  0  0  0  0  0
  -12.1790    5.4363  -15.4021 C   0  0  0  0  0  0  0  0  0  0  0  0
  -10.8390    4.0660  -18.7165 H   0  0  0  0  0  0  0  0  0  0  0  0
  -13.6359    4.1362  -14.6951 H   0  0  0  0  0  0  0  0  0  0  0  0
  -11.6438   10.5341  -16.5703 C   0  0  0  0  0  0  0  0  0  0  0  0
  -12.3078    9.8503  -17.6341 O   0  0  0  0  0  0  0  0  0  0  0  0
  -11.3097    8.5208  -20.0838 O   0  0  0  0  0  0  0  0  0  0  0  0
  -11.6996    7.8853  -21.2886 C   0  0  0  0  0  0  0  0  0  0  0  0
 44 45  1  0  0  0
 45 27  1  0  0  0
 27 28  1  0  0  0
 27 32  2  0  0  0
 28 29  2  0  0  0
 29 30  1  0  0  0
 29 41  1  0  0  0
 30 31  2  0  0  0
 30 33  1  0  0  0
 31 32  1  0  0  0
 32 46  1  0  0  0
 46 47  1  0  0  0
 33 34  1  0  0  0
 33 42  1  0  0  0
 34 35  1  0  0  0
 34 39  2  0  0  0
 35 36  2  0  0  0
 36 37  1  0  0  0
 37 38  2  0  0  0
 38 26  1  0  0  0
 38 39  1  0  0  0
 26  1  1  0  0  0
  1  2  1  0  0  0
  1  6  2  0  0  0
  2  3  2  0  0  0
  3  4  1  0  0  0
  4  8  1  0  0  0
  4  5  2  0  0  0
  8  9  1  0  0  0
  8 11  1  0  0  0
  9 10  2  0  0  0
  9 12  1  0  0  0
 12 15  1  0  0  0
 12 13  1  0  0  0
 12 14  1  0  0  0
 15 16  2  0  0  0
 15 17  1  0  0  0
 17 19  1  0  0  0
 17 18  1  0  0  0
 19 20  1  0  0  0
 19 25  2  0  0  0
 20 21  2  0  0  0
 21 22  1  0  0  0
 22 23  1  0  0  0
 22 24  2  0  0  0
 24 25  1  0  0  0
 13 14  1  0  0  0
  5  6  1  0  0  0
  6  7  1  0  0  0
 39 40  1  0  0  0
 40 41  1  0  0  0
 40 43  1  0  0  0
M  END
> <minimizedAffinity>
-7.83597

$$$$
