CHEMBL1970074


 33 36  0  0  0  0  0  0  0  0999 V2000
  -22.5724   -0.2811  -13.7725 C   0  0  0  0  0  0  0  0  0  0  0  0
  -23.7247   -0.5070  -14.5375 C   0  0  0  0  0  0  0  0  0  0  0  0
  -24.9104   -0.9843  -13.9668 C   0  0  0  0  0  0  0  0  0  0  0  0
  -24.9794   -1.3308  -12.6190 C   0  0  0  0  0  0  0  0  0  0  0  0
  -23.8371   -1.1537  -11.8453 C   0  0  0  0  0  0  0  0  0  0  0  0
  -22.6904   -0.5672  -12.4072 C   0  0  0  0  0  0  0  0  0  0  0  0
  -22.9925    3.2547  -13.3918 C   0  0  0  0  0  0  0  0  0  0  0  0
  -21.7333    2.9640  -14.1364 C   0  0  0  0  0  0  0  0  0  0  0  0
  -21.0344    4.0219  -14.5532 N   0  0  0  0  0  0  0  0  0  0  0  0
  -19.9607    3.4904  -15.1367 N   0  0  0  0  0  0  0  0  0  0  0  0
  -19.9278    2.1247  -15.1248 C   0  0  0  0  0  0  0  0  0  0  0  0
  -18.9500    1.2619  -15.6241 C   0  0  0  0  0  0  0  0  0  0  0  0
  -19.1722   -0.0992  -15.4871 C   0  0  0  0  0  0  0  0  0  0  0  0
  -20.3409   -0.5624  -14.8909 C   0  0  0  0  0  0  0  0  0  0  0  0
  -21.3506    0.3022  -14.3789 C   0  0  0  0  0  0  0  0  0  0  0  0
  -21.1095    1.7106  -14.4953 C   0  0  0  0  0  0  0  0  0  0  0  0
  -19.2610    4.1122  -15.5229 H   0  0  0  0  0  0  0  0  0  0  0  0
  -26.1578   -1.7958  -11.9895 N   0  0  0  0  0  0  0  0  0  0  0  0
  -26.4125   -1.7331  -10.6334 C   0  0  0  0  0  0  0  0  0  0  0  0
  -25.6888   -1.2014   -9.7994 O   0  0  0  0  0  0  0  0  0  0  0  0
  -27.5856   -2.3894  -10.2834 N   0  0  0  0  0  0  0  0  0  0  0  0
  -26.8788   -2.1806  -12.5813 H   0  0  0  0  0  0  0  0  0  0  0  0
  -27.7738   -3.2227  -10.8203 H   0  0  0  0  0  0  0  0  0  0  0  0
  -27.9639   -2.4234   -8.9183 C   0  0  0  0  0  0  0  0  0  0  0  0
  -28.2867   -3.6452   -8.3306 C   0  0  0  0  0  0  0  0  0  0  0  0
  -28.5811   -3.6998   -6.9668 C   0  0  0  0  0  0  0  0  0  0  0  0
  -28.5775   -2.5314   -6.1962 C   0  0  0  0  0  0  0  0  0  0  0  0
  -28.2690   -1.2964   -6.7759 C   0  0  0  0  0  0  0  0  0  0  0  0
  -27.9634   -1.2547   -8.1441 C   0  0  0  0  0  0  0  0  0  0  0  0
  -28.2433   -0.0317   -5.9561 C   0  0  0  0  0  0  0  0  0  0  0  0
  -29.3037    0.0816   -5.1056 F   0  0  0  0  0  0  0  0  0  0  0  0
  -27.1326    0.0752   -5.1765 F   0  0  0  0  0  0  0  0  0  0  0  0
  -28.2703    1.0910   -6.7276 F   0  0  0  0  0  0  0  0  0  0  0  0
  7  8  1  0  0  0
  8  9  2  0  0  0
  8 16  1  0  0  0
  9 10  1  0  0  0
 10 11  1  0  0  0
 10 17  1  0  0  0
 11 12  1  0  0  0
 11 16  2  0  0  0
 12 13  2  0  0  0
 13 14  1  0  0  0
 14 15  2  0  0  0
 15  1  1  0  0  0
 15 16  1  0  0  0
  1  2  1  0  0  0
  1  6  2  0  0  0
  2  3  2  0  0  0
  3  4  1  0  0  0
  4 18  1  0  0  0
  4  5  2  0  0  0
 18 19  1  0  0  0
 18 22  1  0  0  0
 19 20  2  0  0  0
 19 21  1  0  0  0
 21 24  1  0  0  0
 21 23  1  0  0  0
 24 25  1  0  0  0
 24 29  2  0  0  0
 25 26  2  0  0  0
 26 27  1  0  0  0
 27 28  2  0  0  0
 28 30  1  0  0  0
 28 29  1  0  0  0
 30 31  1  0  0  0
 30 32  1  0  0  0
 30 33  1  0  0  0
  5  6  1  0  0  0
M  END
> <minimizedAffinity>
-9.98056

$$$$
