CHEMBL244101


 40 43  0  0  0  0  0  0  0  0999 V2000
  -17.9070   11.2374  -20.5113 C   0  0  0  0  0  0  0  0  0  0  0  0
  -17.8471   12.1958  -19.5070 C   0  0  0  0  0  0  0  0  0  0  0  0
  -19.0259   12.6587  -18.9148 C   0  0  0  0  0  0  0  0  0  0  0  0
  -20.2764   12.1811  -19.3247 C   0  0  0  0  0  0  0  0  0  0  0  0
  -20.3271   11.2557  -20.3721 C   0  0  0  0  0  0  0  0  0  0  0  0
  -19.1494   10.7998  -20.9740 C   0  0  0  0  0  0  0  0  0  0  0  0
  -21.4970   12.5613  -18.7205 N   0  0  0  0  0  0  0  0  0  0  0  0
  -22.1954   11.8370  -17.7765 C   0  0  0  0  0  0  0  0  0  0  0  0
  -21.8100   10.7980  -17.2511 O   0  0  0  0  0  0  0  0  0  0  0  0
  -23.4366   12.3999  -17.5015 N   0  0  0  0  0  0  0  0  0  0  0  0
  -21.8428   13.4878  -18.9238 H   0  0  0  0  0  0  0  0  0  0  0  0
  -23.9129   12.7765  -18.3123 H   0  0  0  0  0  0  0  0  0  0  0  0
  -24.2816   11.7795  -16.5460 C   0  0  0  0  0  0  0  0  0  0  0  0
  -25.4638   11.1359  -16.9319 C   0  0  0  0  0  0  0  0  0  0  0  0
  -26.3401   10.6062  -15.9718 C   0  0  0  0  0  0  0  0  0  0  0  0
  -26.0179   10.7444  -14.6109 C   0  0  0  0  0  0  0  0  0  0  0  0
  -24.8260   11.3629  -14.2232 C   0  0  0  0  0  0  0  0  0  0  0  0
  -23.9554   11.8527  -15.1924 C   0  0  0  0  0  0  0  0  0  0  0  0
  -22.8248   12.4665  -14.8109 F   0  0  0  0  0  0  0  0  0  0  0  0
  -27.6116    9.9055  -16.3884 C   0  0  0  0  0  0  0  0  0  0  0  0
  -28.5287   10.7260  -16.9708 F   0  0  0  0  0  0  0  0  0  0  0  0
  -27.3746    8.9152  -17.2943 F   0  0  0  0  0  0  0  0  0  0  0  0
  -28.2484    9.3085  -15.3440 F   0  0  0  0  0  0  0  0  0  0  0  0
  -16.7127   10.8158  -21.0451 O   0  0  0  0  0  0  0  0  0  0  0  0
  -14.3570    6.2333  -18.5190 C   0  0  0  0  0  0  0  0  0  0  0  0
  -14.9591    5.8608  -19.6282 N   0  0  0  0  0  0  0  0  0  0  0  0
  -15.4933    6.9977  -20.1633 C   0  0  0  0  0  0  0  0  0  0  0  0
  -16.1829    7.2225  -21.3573 C   0  0  0  0  0  0  0  0  0  0  0  0
  -16.5653    8.5390  -21.6277 C   0  0  0  0  0  0  0  0  0  0  0  0
  -16.2739    9.5385  -20.6987 C   0  0  0  0  0  0  0  0  0  0  0  0
  -15.5962    9.3645  -19.5305 N   0  0  0  0  0  0  0  0  0  0  0  0
  -15.2507    8.0818  -19.3368 C   0  0  0  0  0  0  0  0  0  0  0  0
  -14.5654    7.5660  -18.2746 N   0  0  0  0  0  0  0  0  0  0  0  0
  -14.2346    8.1047  -17.4899 H   0  0  0  0  0  0  0  0  0  0  0  0
  -14.1566    4.5822  -16.8098 C   0  0  0  0  0  0  0  0  0  0  0  0
  -15.3388    4.3945  -16.5712 O   0  0  0  0  0  0  0  0  0  0  0  0
  -13.5869    5.4694  -17.6884 N   0  0  0  0  0  0  0  0  0  0  0  0
  -12.5842    5.4433  -17.7577 H   0  0  0  0  0  0  0  0  0  0  0  0
  -13.2721    3.8375  -14.7851 C   0  0  0  0  0  0  0  0  0  0  0  0
  -13.1564    3.8694  -16.2097 O   0  0  0  0  0  0  0  0  0  0  0  0
 39 40  1  0  0  0
 40 35  1  0  0  0
 35 36  2  0  0  0
 35 37  1  0  0  0
 37 25  1  0  0  0
 37 38  1  0  0  0
 25 26  2  0  0  0
 25 33  1  0  0  0
 26 27  1  0  0  0
 27 28  1  0  0  0
 27 32  2  0  0  0
 28 29  2  0  0  0
 29 30  1  0  0  0
 30 24  1  0  0  0
 30 31  2  0  0  0
 24  1  1  0  0  0
  1  2  1  0  0  0
  1  6  2  0  0  0
  2  3  2  0  0  0
  3  4  1  0  0  0
  4  7  1  0  0  0
  4  5  2  0  0  0
  7  8  1  0  0  0
  7 11  1  0  0  0
  8  9  2  0  0  0
  8 10  1  0  0  0
 10 13  1  0  0  0
 10 12  1  0  0  0
 13 14  1  0  0  0
 13 18  2  0  0  0
 14 15  2  0  0  0
 15 20  1  0  0  0
 15 16  1  0  0  0
 20 21  1  0  0  0
 20 22  1  0  0  0
 20 23  1  0  0  0
 16 17  2  0  0  0
 17 18  1  0  0  0
 18 19  1  0  0  0
  5  6  1  0  0  0
 31 32  1  0  0  0
 32 33  1  0  0  0
 33 34  1  0  0  0
M  END
> <minimizedAffinity>
-5.87079

$$$$
