CHEMBL1080294


 42 46  0  0  0  0  0  0  0  0999 V2000
  -26.1356  -11.3410   -9.8284 C   0  0  0  0  0  0  0  0  0  0  0  0
  -27.1394  -10.4785   -9.1144 C   0  0  0  0  0  0  0  0  0  0  0  0
  -27.3487   -9.1727   -9.6004 C   0  0  0  0  0  0  0  0  0  0  0  0
  -28.2336   -8.3006   -8.9644 C   0  0  0  0  0  0  0  0  0  0  0  0
  -28.9524   -8.7196   -7.8426 C   0  0  0  0  0  0  0  0  0  0  0  0
  -28.7545  -10.0167   -7.3593 C   0  0  0  0  0  0  0  0  0  0  0  0
  -27.8419  -10.9068   -7.9655 C   0  0  0  0  0  0  0  0  0  0  0  0
  -29.8449   -7.7316   -7.1629 C   0  0  0  0  0  0  0  0  0  0  0  0
  -30.9690   -7.5680   -7.6266 O   0  0  0  0  0  0  0  0  0  0  0  0
  -29.3130   -7.0728   -6.0639 N   0  0  0  0  0  0  0  0  0  0  0  0
  -28.3603   -7.2821   -5.8042 H   0  0  0  0  0  0  0  0  0  0  0  0
  -29.9407   -6.0606   -5.3059 C   0  0  0  0  0  0  0  0  0  0  0  0
  -31.0659   -6.2792   -4.5114 C   0  0  0  0  0  0  0  0  0  0  0  0
  -31.6637   -5.2263   -3.8173 C   0  0  0  0  0  0  0  0  0  0  0  0
  -31.1507   -3.9365   -3.9215 C   0  0  0  0  0  0  0  0  0  0  0  0
  -30.0183   -3.6896   -4.7089 C   0  0  0  0  0  0  0  0  0  0  0  0
  -29.4059   -4.7666   -5.3782 C   0  0  0  0  0  0  0  0  0  0  0  0
  -29.4773   -2.2910   -4.8650 C   0  0  0  0  0  0  0  0  0  0  0  0
  -28.1871   -2.2496   -5.3021 F   0  0  0  0  0  0  0  0  0  0  0  0
  -30.1956   -1.5487   -5.7515 F   0  0  0  0  0  0  0  0  0  0  0  0
  -29.4945   -1.5949   -3.6945 F   0  0  0  0  0  0  0  0  0  0  0  0
  -27.5934  -12.1745   -7.3338 N   0  0  0  0  0  0  0  0  0  0  0  0
  -27.1963  -12.8278   -8.0046 H   0  0  0  0  0  0  0  0  0  0  0  0
  -26.9691  -12.1853   -6.1018 C   0  0  0  0  0  0  0  0  0  0  0  0
  -27.6080  -12.3953   -4.9624 N   0  0  0  0  0  0  0  0  0  0  0  0
  -27.5921  -11.1355   -4.4196 C   0  0  0  0  0  0  0  0  0  0  0  0
  -28.4662  -10.5562   -3.5013 C   0  0  0  0  0  0  0  0  0  0  0  0
  -28.3216   -9.1913   -3.2394 C   0  0  0  0  0  0  0  0  0  0  0  0
  -27.2935   -8.4448   -3.8271 C   0  0  0  0  0  0  0  0  0  0  0  0
  -26.3651   -9.0294   -4.6955 C   0  0  0  0  0  0  0  0  0  0  0  0
  -26.5724  -10.3755   -4.9968 C   0  0  0  0  0  0  0  0  0  0  0  0
  -25.9190  -11.3176   -5.7882 N   0  0  0  0  0  0  0  0  0  0  0  0
  -24.4969  -11.5206   -5.8312 C   0  0  0  0  0  0  0  0  0  0  0  0
  -23.9634  -11.4633   -7.0791 N   0  0  0  0  0  0  0  0  0  0  0  0
  -22.6396  -11.3372   -7.1738 C   0  0  0  0  0  0  0  0  0  0  0  0
  -21.7906  -11.3056   -6.1493 N   0  0  0  0  0  0  0  0  0  0  0  0
  -22.3264  -11.4388   -4.9299 C   0  0  0  0  0  0  0  0  0  0  0  0
  -21.3907  -11.3410   -3.9050 N   0  0  0  0  0  0  0  0  0  0  0  0
  -23.6913  -11.6031   -4.6937 C   0  0  0  0  0  0  0  0  0  0  0  0
  -24.2059  -11.7795   -3.3001 C   0  0  0  0  0  0  0  0  0  0  0  0
  -20.4768  -11.2262   -4.3409 H   0  0  0  0  0  0  0  0  0  0  0  0
  -21.3978  -12.1418   -3.2855 H   0  0  0  0  0  0  0  0  0  0  0  0
  1  2  1  0  0  0
  2  3  1  0  0  0
  2  7  2  0  0  0
  3  4  2  0  0  0
  4  5  1  0  0  0
  5  8  1  0  0  0
  5  6  2  0  0  0
  8  9  2  0  0  0
  8 10  1  0  0  0
 10 12  1  0  0  0
 10 11  1  0  0  0
 12 13  1  0  0  0
 12 17  2  0  0  0
 13 14  2  0  0  0
 14 15  1  0  0  0
 15 16  2  0  0  0
 16 18  1  0  0  0
 16 17  1  0  0  0
 18 19  1  0  0  0
 18 20  1  0  0  0
 18 21  1  0  0  0
  6  7  1  0  0  0
  7 22  1  0  0  0
 22 24  1  0  0  0
 22 23  1  0  0  0
 24 25  2  0  0  0
 24 32  1  0  0  0
 25 26  1  0  0  0
 26 27  1  0  0  0
 26 31  2  0  0  0
 27 28  2  0  0  0
 28 29  1  0  0  0
 29 30  2  0  0  0
 30 31  1  0  0  0
 31 32  1  0  0  0
 32 33  1  0  0  0
 33 34  1  0  0  0
 33 39  2  0  0  0
 34 35  2  0  0  0
 35 36  1  0  0  0
 36 37  2  0  0  0
 37 38  1  0  0  0
 37 39  1  0  0  0
 38 41  1  0  0  0
 38 42  1  0  0  0
 39 40  1  0  0  0
M  END
> <minimizedAffinity>
-8.73356

$$$$
