CHEMBL178248


 26 28  0  0  0  0  0  0  0  0999 V2000
  -24.9412   11.1525  -15.2257 C   0  0  0  0  0  0  0  0  0  0  0  0
  -24.0329   11.7918  -14.5407 N   0  0  0  0  0  0  0  0  0  0  0  0
  -24.3756   12.5162  -13.4362 C   0  0  0  0  0  0  0  0  0  0  0  0
  -25.5617   12.6560  -12.9465 N   0  0  0  0  0  0  0  0  0  0  0  0
  -26.5074   12.0174  -13.6447 N   0  0  0  0  0  0  0  0  0  0  0  0
  -27.8264   12.0106  -13.3199 C   0  0  0  0  0  0  0  0  0  0  0  0
  -28.5216   11.2577  -14.2506 C   0  0  0  0  0  0  0  0  0  0  0  0
  -27.5358   10.7785  -15.1943 C   0  0  0  0  0  0  0  0  0  0  0  0
  -27.7915    9.9163  -16.3847 C   0  0  0  0  0  0  0  0  0  0  0  0
  -26.3028   11.2719  -14.7695 C   0  0  0  0  0  0  0  0  0  0  0  0
  -24.5628   10.4133  -16.3308 N   0  0  0  0  0  0  0  0  0  0  0  0
  -24.6117    9.4045  -16.2781 H   0  0  0  0  0  0  0  0  0  0  0  0
  -21.8379   11.6799  -19.3329 C   0  0  0  0  0  0  0  0  0  0  0  0
  -21.3818   11.2040  -18.0948 C   0  0  0  0  0  0  0  0  0  0  0  0
  -22.2868   10.8115  -17.0980 C   0  0  0  0  0  0  0  0  0  0  0  0
  -23.6666   10.8680  -17.3238 C   0  0  0  0  0  0  0  0  0  0  0  0
  -24.1163   11.3427  -18.5638 C   0  0  0  0  0  0  0  0  0  0  0  0
  -23.2152   11.7391  -19.5507 C   0  0  0  0  0  0  0  0  0  0  0  0
  -23.6827   12.1945  -20.7509 O   0  0  0  0  0  0  0  0  0  0  0  0
  -24.6527   12.1335  -20.7491 H   0  0  0  0  0  0  0  0  0  0  0  0
  -19.5989   11.2411  -20.4075 C   0  0  0  0  0  0  0  0  0  0  0  0
  -20.8568   12.0973  -20.3998 C   0  0  0  0  0  0  0  0  0  0  0  0
  -29.9688   11.0410  -14.2021 C   0  0  0  0  0  0  0  0  0  0  0  0
  -30.7361   11.3381  -15.1086 O   0  0  0  0  0  0  0  0  0  0  0  0
  -30.3598   10.4654  -13.0258 O   0  0  0  0  0  0  0  0  0  0  0  0
  -31.7591   10.2162  -12.9151 C   0  0  0  0  0  0  0  0  0  0  0  0
 21 22  1  0  0  0
 22 13  1  0  0  0
 13 14  1  0  0  0
 13 18  2  0  0  0
 14 15  2  0  0  0
 15 16  1  0  0  0
 16 11  1  0  0  0
 16 17  2  0  0  0
 11  1  1  0  0  0
 11 12  1  0  0  0
  1  2  2  0  0  0
  1 10  1  0  0  0
  2  3  1  0  0  0
  3  4  2  0  0  0
  4  5  1  0  0  0
  5  6  1  0  0  0
  5 10  1  0  0  0
  6  7  2  0  0  0
  7 23  1  0  0  0
  7  8  1  0  0  0
 23 24  2  0  0  0
 23 25  1  0  0  0
 25 26  1  0  0  0
  8  9  1  0  0  0
  8 10  2  0  0  0
 17 18  1  0  0  0
 18 19  1  0  0  0
 19 20  1  0  0  0
M  END
> <minimizedAffinity>
-6.18154

$$$$
