CHEMBL3633297


 35 38  0  0  0  0  0  0  0  0999 V2000
  -12.9550   -1.9075  -13.2637 C   0  0  0  0  0  0  0  0  0  0  0  0
  -11.9612   -0.9316  -13.0423 C   0  0  0  0  0  0  0  0  0  0  0  0
  -12.0926    0.3612  -13.5251 C   0  0  0  0  0  0  0  0  0  0  0  0
  -13.2395    0.7160  -14.2220 C   0  0  0  0  0  0  0  0  0  0  0  0
  -14.2291   -0.2273  -14.5233 C   0  0  0  0  0  0  0  0  0  0  0  0
  -14.0685   -1.5375  -14.0474 C   0  0  0  0  0  0  0  0  0  0  0  0
  -15.5875   -2.3902  -11.1649 N   0  0  0  0  0  0  0  0  0  0  0  0
  -14.8490   -3.5033  -11.0260 C   0  0  0  0  0  0  0  0  0  0  0  0
  -15.2267   -4.4454  -10.1712 N   0  0  0  0  0  0  0  0  0  0  0  0
  -14.2701   -5.3693  -10.2692 N   0  0  0  0  0  0  0  0  0  0  0  0
  -13.2880   -5.0709  -11.1707 C   0  0  0  0  0  0  0  0  0  0  0  0
  -12.1473   -5.7995  -11.5255 C   0  0  0  0  0  0  0  0  0  0  0  0
  -11.3195   -5.2533  -12.4955 C   0  0  0  0  0  0  0  0  0  0  0  0
  -11.6265   -4.0229  -13.0691 C   0  0  0  0  0  0  0  0  0  0  0  0
  -12.7657   -3.2589  -12.6959 C   0  0  0  0  0  0  0  0  0  0  0  0
  -13.6307   -3.8279  -11.7163 C   0  0  0  0  0  0  0  0  0  0  0  0
  -16.3100   -2.2806  -10.4599 H   0  0  0  0  0  0  0  0  0  0  0  0
  -15.1136   -1.5155  -11.3674 H   0  0  0  0  0  0  0  0  0  0  0  0
  -14.3391   -6.1954   -9.6868 H   0  0  0  0  0  0  0  0  0  0  0  0
  -15.3783    0.0942  -15.3022 N   0  0  0  0  0  0  0  0  0  0  0  0
  -16.5508    0.5852  -14.7528 C   0  0  0  0  0  0  0  0  0  0  0  0
  -16.7037    0.7662  -13.5461 O   0  0  0  0  0  0  0  0  0  0  0  0
  -17.5383    0.8736  -15.6772 N   0  0  0  0  0  0  0  0  0  0  0  0
  -15.2450    0.2082  -16.2970 H   0  0  0  0  0  0  0  0  0  0  0  0
  -17.5431    0.3276  -16.5287 H   0  0  0  0  0  0  0  0  0  0  0  0
  -18.7484    1.5349  -15.3113 C   0  0  0  0  0  0  0  0  0  0  0  0
  -18.8985    2.9238  -15.4387 C   0  0  0  0  0  0  0  0  0  0  0  0
  -20.0281    3.5854  -14.9646 C   0  0  0  0  0  0  0  0  0  0  0  0
  -21.0638    2.8550  -14.4046 C   0  0  0  0  0  0  0  0  0  0  0  0
  -20.9851    1.4554  -14.3381 C   0  0  0  0  0  0  0  0  0  0  0  0
  -19.8174    0.7984  -14.7952 C   0  0  0  0  0  0  0  0  0  0  0  0
  -22.1414    0.6636  -13.7810 C   0  0  0  0  0  0  0  0  0  0  0  0
  -22.3893   -0.4911  -14.4676 F   0  0  0  0  0  0  0  0  0  0  0  0
  -21.9356    0.2875  -12.4896 F   0  0  0  0  0  0  0  0  0  0  0  0
  -23.3087    1.3594  -13.7912 F   0  0  0  0  0  0  0  0  0  0  0  0
  7  8  1  0  0  0
  7 17  1  0  0  0
  7 18  1  0  0  0
  8  9  2  0  0  0
  8 16  1  0  0  0
  9 10  1  0  0  0
 10 11  1  0  0  0
 10 19  1  0  0  0
 11 12  1  0  0  0
 11 16  2  0  0  0
 12 13  2  0  0  0
 13 14  1  0  0  0
 14 15  2  0  0  0
 15  1  1  0  0  0
 15 16  1  0  0  0
  1  2  1  0  0  0
  1  6  2  0  0  0
  2  3  2  0  0  0
  3  4  1  0  0  0
  4  5  2  0  0  0
  5 20  1  0  0  0
  5  6  1  0  0  0
 20 21  1  0  0  0
 20 24  1  0  0  0
 21 22  2  0  0  0
 21 23  1  0  0  0
 23 26  1  0  0  0
 23 25  1  0  0  0
 26 27  1  0  0  0
 26 31  2  0  0  0
 27 28  2  0  0  0
 28 29  1  0  0  0
 29 30  2  0  0  0
 30 32  1  0  0  0
 30 31  1  0  0  0
 32 33  1  0  0  0
 32 34  1  0  0  0
 32 35  1  0  0  0
M  END
> <minimizedAffinity>
-9.55213

$$$$
