CHEMBL244378


 30 33  0  0  0  0  0  0  0  0999 V2000
  -29.4617   -4.3985   -4.7512 C   0  0  0  0  0  0  0  0  0  0  0  0
  -30.3970   -3.8964   -3.8694 C   0  0  0  0  0  0  0  0  0  0  0  0
  -31.4943   -4.6875   -3.6333 C   0  0  0  0  0  0  0  0  0  0  0  0
  -31.6742   -5.8877   -4.2047 N   0  0  0  0  0  0  0  0  0  0  0  0
  -30.7211   -6.3147   -5.0402 C   0  0  0  0  0  0  0  0  0  0  0  0
  -29.6169   -5.6080   -5.3067 N   0  0  0  0  0  0  0  0  0  0  0  0
  -28.3403   -3.5841   -5.0737 N   0  0  0  0  0  0  0  0  0  0  0  0
  -27.7140   -4.1384   -5.6645 H   0  0  0  0  0  0  0  0  0  0  0  0
  -28.1717   -1.8730   -6.8507 C   0  0  0  0  0  0  0  0  0  0  0  0
  -28.0456   -0.5255   -7.2407 C   0  0  0  0  0  0  0  0  0  0  0  0
  -28.0691    0.4954   -6.2954 C   0  0  0  0  0  0  0  0  0  0  0  0
  -28.2323    0.1784   -4.9560 C   0  0  0  0  0  0  0  0  0  0  0  0
  -28.3423   -1.1576   -4.5623 C   0  0  0  0  0  0  0  0  0  0  0  0
  -28.3112   -2.2177   -5.4835 C   0  0  0  0  0  0  0  0  0  0  0  0
  -29.0222   -3.7058   -8.1215 O   0  0  0  0  0  0  0  0  0  0  0  0
  -28.1511   -2.8640   -7.9616 C   0  0  0  0  0  0  0  0  0  0  0  0
  -27.1012   -2.7417   -8.8003 O   0  0  0  0  0  0  0  0  0  0  0  0
  -26.5551   -1.9546   -8.5992 H   0  0  0  0  0  0  0  0  0  0  0  0
  -30.8151   -7.5391   -5.7062 N   0  0  0  0  0  0  0  0  0  0  0  0
  -31.3997   -8.1503   -5.1518 H   0  0  0  0  0  0  0  0  0  0  0  0
  -29.8535   -8.2129   -6.4830 C   0  0  0  0  0  0  0  0  0  0  0  0
  -28.9066   -9.0230   -5.8320 C   0  0  0  0  0  0  0  0  0  0  0  0
  -27.9032   -9.7143   -6.5326 C   0  0  0  0  0  0  0  0  0  0  0  0
  -27.8726   -9.6055   -7.9327 C   0  0  0  0  0  0  0  0  0  0  0  0
  -27.0561  -10.0820   -8.9820 C   0  0  0  0  0  0  0  0  0  0  0  0
  -27.4932   -9.7072  -10.1887 N   0  0  0  0  0  0  0  0  0  0  0  0
  -28.5972   -8.9915   -9.9079 N   0  0  0  0  0  0  0  0  0  0  0  0
  -28.8458   -8.8517   -8.5690 C   0  0  0  0  0  0  0  0  0  0  0  0
  -29.8461   -8.1607   -7.8834 C   0  0  0  0  0  0  0  0  0  0  0  0
  -29.1415   -8.6146  -10.6747 H   0  0  0  0  0  0  0  0  0  0  0  0
 15 16  2  0  0  0
 16 17  1  0  0  0
 16  9  1  0  0  0
 17 18  1  0  0  0
  9 10  1  0  0  0
  9 14  2  0  0  0
 10 11  2  0  0  0
 11 12  1  0  0  0
 12 13  2  0  0  0
 13 14  1  0  0  0
 14  7  1  0  0  0
  7  1  1  0  0  0
  7  8  1  0  0  0
  1  2  1  0  0  0
  1  6  2  0  0  0
  2  3  2  0  0  0
  3  4  1  0  0  0
  4  5  2  0  0  0
  5 19  1  0  0  0
  5  6  1  0  0  0
 19 21  1  0  0  0
 19 20  1  0  0  0
 21 22  1  0  0  0
 21 29  2  0  0  0
 22 23  2  0  0  0
 23 24  1  0  0  0
 24 25  1  0  0  0
 24 28  2  0  0  0
 25 26  2  0  0  0
 26 27  1  0  0  0
 27 28  1  0  0  0
 27 30  1  0  0  0
 28 29  1  0  0  0
M  END
> <minimizedAffinity>
-8.70219

$$$$
