CHEMBL3671494


 36 39  0  0  0  0  0  0  0  0999 V2000
  -26.5076   -9.2287   -4.6656 C   0  0  0  0  0  0  0  0  0  0  0  0
  -27.3674   -8.2373   -4.1912 C   0  0  0  0  0  0  0  0  0  0  0  0
  -28.5682   -7.9574   -4.8705 C   0  0  0  0  0  0  0  0  0  0  0  0
  -29.4242   -6.8829   -4.5670 C   0  0  0  0  0  0  0  0  0  0  0  0
  -30.5548   -6.6592   -5.2668 N   0  0  0  0  0  0  0  0  0  0  0  0
  -30.8193   -7.4857   -6.2776 C   0  0  0  0  0  0  0  0  0  0  0  0
  -30.0558   -8.5045   -6.6794 N   0  0  0  0  0  0  0  0  0  0  0  0
  -28.9395   -8.7290   -5.9825 C   0  0  0  0  0  0  0  0  0  0  0  0
  -28.0888   -9.7489   -6.4023 C   0  0  0  0  0  0  0  0  0  0  0  0
  -26.8857  -10.0316   -5.7470 C   0  0  0  0  0  0  0  0  0  0  0  0
  -24.7369  -10.2935   -3.3565 C   0  0  0  0  0  0  0  0  0  0  0  0
  -23.5314  -10.4640   -3.2016 O   0  0  0  0  0  0  0  0  0  0  0  0
  -25.2008   -9.2687   -4.1458 N   0  0  0  0  0  0  0  0  0  0  0  0
  -24.4594   -8.9622   -4.7690 H   0  0  0  0  0  0  0  0  0  0  0  0
  -25.3443  -12.1972   -1.9546 C   0  0  0  0  0  0  0  0  0  0  0  0
  -25.7491  -11.2013   -2.7517 C   0  0  0  0  0  0  0  0  0  0  0  0
  -29.0598   -5.9467   -3.5620 N   0  0  0  0  0  0  0  0  0  0  0  0
  -29.5660   -6.1260   -2.6980 H   0  0  0  0  0  0  0  0  0  0  0  0
  -28.9069   -4.5595   -3.8032 C   0  0  0  0  0  0  0  0  0  0  0  0
  -27.7014   -4.0444   -4.3021 C   0  0  0  0  0  0  0  0  0  0  0  0
  -27.5880   -2.6980   -4.6521 C   0  0  0  0  0  0  0  0  0  0  0  0
  -28.6783   -1.8489   -4.4809 C   0  0  0  0  0  0  0  0  0  0  0  0
  -28.5516   -0.0496   -5.0443 Br  0  0  0  0  0  0  0  0  0  0  0  0
  -29.8628   -2.3205   -3.9205 C   0  0  0  0  0  0  0  0  0  0  0  0
  -29.9618   -3.6671   -3.5777 C   0  0  0  0  0  0  0  0  0  0  0  0
  -31.1119   -4.1242   -3.0573 F   0  0  0  0  0  0  0  0  0  0  0  0
  -26.1622  -11.0659   -6.2905 O   0  0  0  0  0  0  0  0  0  0  0  0
  -25.2843  -10.6992   -7.3595 C   0  0  0  0  0  0  0  0  0  0  0  0
  -25.4001  -11.6875   -8.5233 C   0  0  0  0  0  0  0  0  0  0  0  0
  -26.7674  -11.7829   -9.0151 N   0  0  0  0  0  0  0  0  0  0  0  0
  -27.1977  -10.9871  -10.0522 C   0  0  0  0  0  0  0  0  0  0  0  0
  -26.4585  -10.2429  -10.6819 O   0  0  0  0  0  0  0  0  0  0  0  0
  -27.4466  -12.2817   -8.4603 H   0  0  0  0  0  0  0  0  0  0  0  0
  -28.6489  -11.0118  -10.3822 C   0  0  0  0  0  0  0  0  0  0  0  0
  -29.5066   -9.8356   -9.9681 C   0  0  0  0  0  0  0  0  0  0  0  0
  -29.7884  -11.2013   -9.4135 C   0  0  0  0  0  0  0  0  0  0  0  0
 15 16  2  0  0  0
 16 11  1  0  0  0
 11 12  2  0  0  0
 11 13  1  0  0  0
 13  1  1  0  0  0
 13 14  1  0  0  0
  1  2  1  0  0  0
  1 10  2  0  0  0
  2  3  2  0  0  0
  3  4  1  0  0  0
  3  8  1  0  0  0
  4 17  1  0  0  0
  4  5  2  0  0  0
 17 19  1  0  0  0
 17 18  1  0  0  0
 19 20  1  0  0  0
 19 25  2  0  0  0
 20 21  2  0  0  0
 21 22  1  0  0  0
 22 23  1  0  0  0
 22 24  2  0  0  0
 24 25  1  0  0  0
 25 26  1  0  0  0
  5  6  1  0  0  0
  6  7  2  0  0  0
  7  8  1  0  0  0
  8  9  2  0  0  0
  9 10  1  0  0  0
 10 27  1  0  0  0
 27 28  1  0  0  0
 28 29  1  0  0  0
 29 30  1  0  0  0
 30 31  1  0  0  0
 30 33  1  0  0  0
 31 32  2  0  0  0
 31 34  1  0  0  0
 34 35  1  0  0  0
 34 36  1  0  0  0
 35 36  1  0  0  0
M  END
> <minimizedAffinity>
-8.01250

$$$$
