CHEMBL1993722


 36 39  0  0  0  0  0  0  0  0999 V2000
  -13.5210   -3.4076  -10.8920 C   0  0  0  0  0  0  0  0  0  0  0  0
  -12.9173   -2.8490  -12.0193 C   0  0  0  0  0  0  0  0  0  0  0  0
  -13.6690   -2.2821  -13.0479 C   0  0  0  0  0  0  0  0  0  0  0  0
  -15.0542   -2.1692  -12.9564 C   0  0  0  0  0  0  0  0  0  0  0  0
  -15.6784   -2.6264  -11.7872 C   0  0  0  0  0  0  0  0  0  0  0  0
  -14.9165   -3.2495  -10.7820 C   0  0  0  0  0  0  0  0  0  0  0  0
  -12.5147   -6.3060  -12.3479 N   0  0  0  0  0  0  0  0  0  0  0  0
  -11.9747   -6.3483  -11.1215 C   0  0  0  0  0  0  0  0  0  0  0  0
  -11.2244   -7.3870  -10.7688 N   0  0  0  0  0  0  0  0  0  0  0  0
  -10.8693   -7.1127   -9.5130 N   0  0  0  0  0  0  0  0  0  0  0  0
  -11.3534   -5.9268   -9.0338 C   0  0  0  0  0  0  0  0  0  0  0  0
  -11.1785   -5.3283   -7.7838 C   0  0  0  0  0  0  0  0  0  0  0  0
  -11.7777   -4.0905   -7.5813 C   0  0  0  0  0  0  0  0  0  0  0  0
  -12.5251   -3.4883   -8.5909 C   0  0  0  0  0  0  0  0  0  0  0  0
  -12.7214   -4.0941   -9.8568 C   0  0  0  0  0  0  0  0  0  0  0  0
  -12.0994   -5.3661  -10.0767 C   0  0  0  0  0  0  0  0  0  0  0  0
  -12.4246   -7.1504  -12.9012 H   0  0  0  0  0  0  0  0  0  0  0  0
  -13.3752   -5.8004  -12.5175 H   0  0  0  0  0  0  0  0  0  0  0  0
  -10.2826   -7.7803   -9.0281 H   0  0  0  0  0  0  0  0  0  0  0  0
  -15.8456   -1.5860  -13.9765 N   0  0  0  0  0  0  0  0  0  0  0  0
  -16.4175   -0.3317  -13.9081 C   0  0  0  0  0  0  0  0  0  0  0  0
  -16.2029    0.4993  -13.0292 O   0  0  0  0  0  0  0  0  0  0  0  0
  -17.3107   -0.0988  -14.9474 N   0  0  0  0  0  0  0  0  0  0  0  0
  -15.8423   -2.0331  -14.8806 H   0  0  0  0  0  0  0  0  0  0  0  0
  -17.8501   -0.9127  -15.2209 H   0  0  0  0  0  0  0  0  0  0  0  0
  -18.0274    1.1281  -14.9611 C   0  0  0  0  0  0  0  0  0  0  0  0
  -19.3493    1.1968  -14.5045 C   0  0  0  0  0  0  0  0  0  0  0  0
  -20.0999    2.3596  -14.7040 C   0  0  0  0  0  0  0  0  0  0  0  0
  -19.5071    3.4730  -15.3155 C   0  0  0  0  0  0  0  0  0  0  0  0
  -18.1692    3.4251  -15.7162 C   0  0  0  0  0  0  0  0  0  0  0  0
  -17.4339    2.2597  -15.5215 C   0  0  0  0  0  0  0  0  0  0  0  0
  -16.1639    2.2025  -15.9492 F   0  0  0  0  0  0  0  0  0  0  0  0
  -21.5127    2.4647  -14.2625 C   0  0  0  0  0  0  0  0  0  0  0  0
  -22.1728    1.4879  -13.9509 O   0  0  0  0  0  0  0  0  0  0  0  0
  -21.9916    3.7242  -14.2088 O   0  0  0  0  0  0  0  0  0  0  0  0
  -21.3300    4.4368  -14.3054 H   0  0  0  0  0  0  0  0  0  0  0  0
  7  8  1  0  0  0
  7 17  1  0  0  0
  7 18  1  0  0  0
  8  9  2  0  0  0
  8 16  1  0  0  0
  9 10  1  0  0  0
 10 11  1  0  0  0
 10 19  1  0  0  0
 11 12  1  0  0  0
 11 16  2  0  0  0
 12 13  2  0  0  0
 13 14  1  0  0  0
 14 15  2  0  0  0
 15  1  1  0  0  0
 15 16  1  0  0  0
  1  2  1  0  0  0
  1  6  2  0  0  0
  2  3  2  0  0  0
  3  4  1  0  0  0
  4 20  1  0  0  0
  4  5  2  0  0  0
 20 21  1  0  0  0
 20 24  1  0  0  0
 21 22  2  0  0  0
 21 23  1  0  0  0
 23 26  1  0  0  0
 23 25  1  0  0  0
 26 27  1  0  0  0
 26 31  2  0  0  0
 27 28  2  0  0  0
 28 33  1  0  0  0
 28 29  1  0  0  0
 33 34  2  0  0  0
 33 35  1  0  0  0
 35 36  1  0  0  0
 29 30  2  0  0  0
 30 31  1  0  0  0
 31 32  1  0  0  0
  5  6  1  0  0  0
M  END
> <minimizedAffinity>
-10.04545

$$$$
