CHEMBL1681937


 32 33  0  0  0  0  0  0  0  0999 V2000
  -27.2889   -1.8021  -10.6235 C   0  0  0  0  0  0  0  0  0  0  0  0
  -25.9906   -1.7104  -10.1313 C   0  0  0  0  0  0  0  0  0  0  0  0
  -24.9223   -1.4730  -10.9966 C   0  0  0  0  0  0  0  0  0  0  0  0
  -25.1136   -1.3485  -12.3752 C   0  0  0  0  0  0  0  0  0  0  0  0
  -26.4137   -1.5536  -12.8757 C   0  0  0  0  0  0  0  0  0  0  0  0
  -26.7275   -1.4951  -14.5770 Cl  0  0  0  0  0  0  0  0  0  0  0  0
  -27.4981   -1.7768  -12.0019 C   0  0  0  0  0  0  0  0  0  0  0  0
  -24.0312   -1.0227  -13.2431 N   0  0  0  0  0  0  0  0  0  0  0  0
  -23.4418    0.2231  -13.2997 C   0  0  0  0  0  0  0  0  0  0  0  0
  -23.7962    1.2086  -12.6666 O   0  0  0  0  0  0  0  0  0  0  0  0
  -22.3485    0.2957  -14.1459 N   0  0  0  0  0  0  0  0  0  0  0  0
  -23.8224   -1.6869  -13.9780 H   0  0  0  0  0  0  0  0  0  0  0  0
  -22.3838   -0.2838  -14.9715 H   0  0  0  0  0  0  0  0  0  0  0  0
  -21.7314    1.6121  -14.2544 C   0  0  0  0  0  0  0  0  0  0  0  0
  -20.2276    1.6181  -14.4622 C   0  0  0  0  0  0  0  0  0  0  0  0
  -19.7495    2.7652  -15.3359 C   0  0  0  0  0  0  0  0  0  0  0  0
  -19.5962    3.9347  -14.5395 O   0  0  0  0  0  0  0  0  0  0  0  0
  -20.4612    4.1451  -14.1487 H   0  0  0  0  0  0  0  0  0  0  0  0
  -28.3705   -1.9585   -9.7739 O   0  0  0  0  0  0  0  0  0  0  0  0
  -28.2001   -2.7676   -7.5169 C   0  0  0  0  0  0  0  0  0  0  0  0
  -28.0102   -2.4302   -6.1808 C   0  0  0  0  0  0  0  0  0  0  0  0
  -27.9545   -3.3758   -5.1591 N   0  0  0  0  0  0  0  0  0  0  0  0
  -27.7477   -1.1751   -5.7787 N   0  0  0  0  0  0  0  0  0  0  0  0
  -27.7060   -0.2372   -6.7291 C   0  0  0  0  0  0  0  0  0  0  0  0
  -27.9234   -0.4383   -8.0304 N   0  0  0  0  0  0  0  0  0  0  0  0
  -28.1431   -1.7168   -8.4142 C   0  0  0  0  0  0  0  0  0  0  0  0
  -28.6725   -4.0925   -5.2643 H   0  0  0  0  0  0  0  0  0  0  0  0
  -27.9501   -2.9092   -4.2586 H   0  0  0  0  0  0  0  0  0  0  0  0
  -29.2010   -4.9510   -7.2591 N   0  0  0  0  0  0  0  0  0  0  0  0
  -28.4469   -4.1519   -7.9495 C   0  0  0  0  0  0  0  0  0  0  0  0
  -30.3827   -6.9069   -7.3802 C   0  0  0  0  0  0  0  0  0  0  0  0
  -29.2432   -6.2087   -7.8751 O   0  0  0  0  0  0  0  0  0  0  0  0
 31 32  1  0  0  0
 32 29  1  0  0  0
 29 30  2  0  0  0
 30 20  1  0  0  0
 20 21  1  0  0  0
 20 26  2  0  0  0
 21 22  1  0  0  0
 21 23  2  0  0  0
 22 27  1  0  0  0
 22 28  1  0  0  0
 23 24  1  0  0  0
 24 25  2  0  0  0
 25 26  1  0  0  0
 26 19  1  0  0  0
 19  1  1  0  0  0
  1  2  1  0  0  0
  1  7  2  0  0  0
  2  3  2  0  0  0
  3  4  1  0  0  0
  4  8  1  0  0  0
  4  5  2  0  0  0
  8  9  1  0  0  0
  8 12  1  0  0  0
  9 10  2  0  0  0
  9 11  1  0  0  0
 11 14  1  0  0  0
 11 13  1  0  0  0
 14 15  1  0  0  0
 15 16  1  0  0  0
 16 17  1  0  0  0
 17 18  1  0  0  0
  5  6  1  0  0  0
  5  7  1  0  0  0
M  END
> <minimizedAffinity>
-7.56517

$$$$
