CHEMBL375447


 34 37  0  0  0  0  0  0  0  0999 V2000
  -14.4350   -6.7271  -11.3482 C   0  0  0  0  0  0  0  0  0  0  0  0
  -14.7454   -5.3836  -11.9477 C   0  0  0  0  0  0  0  0  0  0  0  0
  -15.8104   -4.6513  -11.3961 C   0  0  0  0  0  0  0  0  0  0  0  0
  -16.0586   -3.3386  -11.7955 C   0  0  0  0  0  0  0  0  0  0  0  0
  -15.2576   -2.7367  -12.7672 C   0  0  0  0  0  0  0  0  0  0  0  0
  -14.2414   -3.4767  -13.3795 C   0  0  0  0  0  0  0  0  0  0  0  0
  -14.0070   -4.8083  -12.9988 C   0  0  0  0  0  0  0  0  0  0  0  0
  -15.4580   -1.2857  -13.0391 C   0  0  0  0  0  0  0  0  0  0  0  0
  -15.7108   -0.5561  -12.0864 O   0  0  0  0  0  0  0  0  0  0  0  0
  -15.3812   -0.9033  -14.3670 N   0  0  0  0  0  0  0  0  0  0  0  0
  -15.3634   -1.6406  -15.0590 H   0  0  0  0  0  0  0  0  0  0  0  0
  -15.5470    0.4102  -14.8597 C   0  0  0  0  0  0  0  0  0  0  0  0
  -16.7858    0.9576  -15.2010 C   0  0  0  0  0  0  0  0  0  0  0  0
  -16.8734    2.2373  -15.7590 C   0  0  0  0  0  0  0  0  0  0  0  0
  -15.7190    2.9994  -15.9809 C   0  0  0  0  0  0  0  0  0  0  0  0
  -14.4812    2.4697  -15.5877 C   0  0  0  0  0  0  0  0  0  0  0  0
  -14.3984    1.1918  -15.0235 C   0  0  0  0  0  0  0  0  0  0  0  0
  -15.7917    4.3466  -16.6552 C   0  0  0  0  0  0  0  0  0  0  0  0
  -16.0080    4.2781  -17.9987 F   0  0  0  0  0  0  0  0  0  0  0  0
  -16.7888    5.1281  -16.1558 F   0  0  0  0  0  0  0  0  0  0  0  0
  -14.6437    5.0654  -16.5013 F   0  0  0  0  0  0  0  0  0  0  0  0
  -12.9184   -5.3884  -13.6150 O   0  0  0  0  0  0  0  0  0  0  0  0
  -13.0910   -6.1076  -14.7926 C   0  0  0  0  0  0  0  0  0  0  0  0
  -13.5735   -5.4475  -15.8800 N   0  0  0  0  0  0  0  0  0  0  0  0
  -13.8156   -6.1708  -16.9906 C   0  0  0  0  0  0  0  0  0  0  0  0
  -13.5515   -7.5201  -17.0908 C   0  0  0  0  0  0  0  0  0  0  0  0
  -12.9907   -8.1594  -15.9879 C   0  0  0  0  0  0  0  0  0  0  0  0
  -12.7415   -7.4678  -14.7849 C   0  0  0  0  0  0  0  0  0  0  0  0
  -12.1452   -8.1911  -13.6378 C   0  0  0  0  0  0  0  0  0  0  0  0
  -11.1992   -7.6568  -12.7801 C   0  0  0  0  0  0  0  0  0  0  0  0
  -10.7633   -8.4622  -11.7501 C   0  0  0  0  0  0  0  0  0  0  0  0
  -11.2136   -9.7084  -11.5377 N   0  0  0  0  0  0  0  0  0  0  0  0
  -12.1350  -10.1393  -12.4057 C   0  0  0  0  0  0  0  0  0  0  0  0
  -12.6246   -9.4451  -13.4444 N   0  0  0  0  0  0  0  0  0  0  0  0
  1  2  1  0  0  0
  2  3  1  0  0  0
  2  7  2  0  0  0
  3  4  2  0  0  0
  4  5  1  0  0  0
  5  8  1  0  0  0
  5  6  2  0  0  0
  8  9  2  0  0  0
  8 10  1  0  0  0
 10 12  1  0  0  0
 10 11  1  0  0  0
 12 13  1  0  0  0
 12 17  2  0  0  0
 13 14  2  0  0  0
 14 15  1  0  0  0
 15 18  1  0  0  0
 15 16  2  0  0  0
 18 19  1  0  0  0
 18 20  1  0  0  0
 18 21  1  0  0  0
 16 17  1  0  0  0
  6  7  1  0  0  0
  7 22  1  0  0  0
 22 23  1  0  0  0
 23 24  1  0  0  0
 23 28  2  0  0  0
 24 25  2  0  0  0
 25 26  1  0  0  0
 26 27  2  0  0  0
 27 28  1  0  0  0
 28 29  1  0  0  0
 29 30  1  0  0  0
 29 34  2  0  0  0
 30 31  2  0  0  0
 31 32  1  0  0  0
 32 33  2  0  0  0
 33 34  1  0  0  0
M  END
> <minimizedAffinity>
-8.19720

$$$$
