CHEMBL473351


 33 37  0  0  0  0  0  0  0  0999 V2000
  -26.9364   -1.9588  -10.6098 C   0  0  0  0  0  0  0  0  0  0  0  0
  -25.6931   -1.6753  -10.0294 C   0  0  0  0  0  0  0  0  0  0  0  0
  -24.6556   -1.1210  -10.7920 C   0  0  0  0  0  0  0  0  0  0  0  0
  -24.8229   -0.8730  -12.1616 C   0  0  0  0  0  0  0  0  0  0  0  0
  -26.0196   -1.3106  -12.7571 C   0  0  0  0  0  0  0  0  0  0  0  0
  -26.2709   -1.1714  -14.0990 O   0  0  0  0  0  0  0  0  0  0  0  0
  -27.0612   -1.8566  -11.9962 C   0  0  0  0  0  0  0  0  0  0  0  0
  -25.4494   -0.8399  -14.5254 H   0  0  0  0  0  0  0  0  0  0  0  0
  -23.8111   -0.1467  -12.9526 C   0  0  0  0  0  0  0  0  0  0  0  0
  -23.7194    1.1699  -12.9820 N   0  0  0  0  0  0  0  0  0  0  0  0
  -22.6477    1.5575  -13.7734 C   0  0  0  0  0  0  0  0  0  0  0  0
  -22.2766    2.8844  -14.0723 C   0  0  0  0  0  0  0  0  0  0  0  0
  -21.1595    3.1311  -14.8782 C   0  0  0  0  0  0  0  0  0  0  0  0
  -20.4066    2.0753  -15.3822 C   0  0  0  0  0  0  0  0  0  0  0  0
  -20.7546    0.7509  -15.1022 C   0  0  0  0  0  0  0  0  0  0  0  0
  -21.8843    0.5153  -14.3002 C   0  0  0  0  0  0  0  0  0  0  0  0
  -22.5656   -0.9805  -13.8013 S   0  0  0  0  0  0  0  0  0  0  0  0
  -28.0926   -2.2047   -9.8357 N   0  0  0  0  0  0  0  0  0  0  0  0
  -28.7051   -2.9122  -10.2196 H   0  0  0  0  0  0  0  0  0  0  0  0
  -29.9909   -5.0515   -6.0010 C   0  0  0  0  0  0  0  0  0  0  0  0
  -29.6432   -3.7731   -5.5180 C   0  0  0  0  0  0  0  0  0  0  0  0
  -29.0394   -2.8043   -6.3137 C   0  0  0  0  0  0  0  0  0  0  0  0
  -28.8256   -1.5797   -5.8172 N   0  0  0  0  0  0  0  0  0  0  0  0
  -28.3071   -0.6724   -6.6540 C   0  0  0  0  0  0  0  0  0  0  0  0
  -28.0359   -0.8468   -7.9515 N   0  0  0  0  0  0  0  0  0  0  0  0
  -28.2788   -2.0734   -8.4462 C   0  0  0  0  0  0  0  0  0  0  0  0
  -28.7250   -3.1340   -7.6311 C   0  0  0  0  0  0  0  0  0  0  0  0
  -28.8703   -4.4816   -8.0318 C   0  0  0  0  0  0  0  0  0  0  0  0
  -29.5587   -5.4231   -7.2735 C   0  0  0  0  0  0  0  0  0  0  0  0
  -31.2235   -5.4472   -4.0157 C   0  0  0  0  0  0  0  0  0  0  0  0
  -30.7139   -5.9431   -5.2536 O   0  0  0  0  0  0  0  0  0  0  0  0
  -29.7276   -6.5860   -7.9656 O   0  0  0  0  0  0  0  0  0  0  0  0
  -28.6799   -7.5281   -8.0509 C   0  0  0  0  0  0  0  0  0  0  0  0
 30 31  1  0  0  0
 31 20  1  0  0  0
 20 21  1  0  0  0
 20 29  2  0  0  0
 21 22  2  0  0  0
 22 23  1  0  0  0
 22 27  1  0  0  0
 23 24  2  0  0  0
 24 25  1  0  0  0
 25 26  2  0  0  0
 26 18  1  0  0  0
 26 27  1  0  0  0
 18  1  1  0  0  0
 18 19  1  0  0  0
  1  2  1  0  0  0
  1  7  2  0  0  0
  2  3  2  0  0  0
  3  4  1  0  0  0
  4  9  1  0  0  0
  4  5  2  0  0  0
  9 10  2  0  0  0
  9 17  1  0  0  0
 10 11  1  0  0  0
 11 12  1  0  0  0
 11 16  2  0  0  0
 12 13  2  0  0  0
 13 14  1  0  0  0
 14 15  2  0  0  0
 15 16  1  0  0  0
 16 17  1  0  0  0
  5  6  1  0  0  0
  5  7  1  0  0  0
  6  8  1  0  0  0
 27 28  2  0  0  0
 28 29  1  0  0  0
 29 32  1  0  0  0
 32 33  1  0  0  0
M  END
> <minimizedAffinity>
-9.36065

$$$$
