CHEMBL2153823


 33 35  0  0  0  0  0  0  0  0999 V2000
  -25.2332   -1.5777  -12.6274 C   0  0  0  0  0  0  0  0  0  0  0  0
  -25.5232   -1.3366  -13.9696 C   0  0  0  0  0  0  0  0  0  0  0  0
  -26.7816   -1.3629  -14.7637 C   0  0  0  0  0  0  0  0  0  0  0  0
  -24.3494   -0.9672  -14.5914 N   0  0  0  0  0  0  0  0  0  0  0  0
  -23.3198   -0.8950  -13.6910 C   0  0  0  0  0  0  0  0  0  0  0  0
  -23.8224   -1.2779  -12.4594 C   0  0  0  0  0  0  0  0  0  0  0  0
  -23.0597   -1.3693  -11.1810 C   0  0  0  0  0  0  0  0  0  0  0  0
  -24.2685   -0.7471  -15.5745 H   0  0  0  0  0  0  0  0  0  0  0  0
  -22.0553   -0.4448  -14.1505 C   0  0  0  0  0  0  0  0  0  0  0  0
  -21.7314    0.8518  -14.2758 C   0  0  0  0  0  0  0  0  0  0  0  0
  -22.6155    2.0383  -13.9545 C   0  0  0  0  0  0  0  0  0  0  0  0
  -23.7662    2.0601  -13.5662 O   0  0  0  0  0  0  0  0  0  0  0  0
  -21.8187    3.1464  -14.1824 N   0  0  0  0  0  0  0  0  0  0  0  0
  -20.5492    2.7889  -14.6196 C   0  0  0  0  0  0  0  0  0  0  0  0
  -19.5240    3.6550  -14.9240 C   0  0  0  0  0  0  0  0  0  0  0  0
  -18.3285    3.0909  -15.3639 C   0  0  0  0  0  0  0  0  0  0  0  0
  -18.1788    1.6961  -15.4912 C   0  0  0  0  0  0  0  0  0  0  0  0
  -19.2400    0.8317  -15.1646 C   0  0  0  0  0  0  0  0  0  0  0  0
  -20.4313    1.3960  -14.7189 C   0  0  0  0  0  0  0  0  0  0  0  0
  -22.1514    4.0869  -14.0409 H   0  0  0  0  0  0  0  0  0  0  0  0
  -16.9434    1.3254  -15.9516 O   0  0  0  0  0  0  0  0  0  0  0  0
  -15.9153    1.1239  -14.9938 C   0  0  0  0  0  0  0  0  0  0  0  0
  -27.1251   -1.0559  -11.1879 N   0  0  0  0  0  0  0  0  0  0  0  0
  -26.1497   -1.9697  -11.5426 C   0  0  0  0  0  0  0  0  0  0  0  0
  -26.0623   -3.0621  -10.9873 O   0  0  0  0  0  0  0  0  0  0  0  0
  -27.3600   -0.3276  -11.8491 H   0  0  0  0  0  0  0  0  0  0  0  0
  -28.1067   -1.3884  -10.1725 C   0  0  0  0  0  0  0  0  0  0  0  0
  -27.6388   -1.0982   -8.7303 C   0  0  0  0  0  0  0  0  0  0  0  0
  -27.5373   -2.2611   -7.8163 N   0  0  0  0  0  0  0  0  0  0  0  0
  -27.8988   -0.3665   -6.1864 C   0  0  0  0  0  0  0  0  0  0  0  0
  -27.7754   -1.8704   -6.4156 C   0  0  0  0  0  0  0  0  0  0  0  0
  -28.4061   -3.3655   -8.2767 C   0  0  0  0  0  0  0  0  0  0  0  0
  -29.5571   -3.7731   -7.3554 C   0  0  0  0  0  0  0  0  0  0  0  0
 30 31  1  0  0  0
 31 29  1  0  0  0
 29 32  1  0  0  0
 29 28  1  0  0  0
 32 33  1  0  0  0
 28 27  1  0  0  0
 27 23  1  0  0  0
 23 24  1  0  0  0
 23 26  1  0  0  0
 24 25  2  0  0  0
 24  1  1  0  0  0
  1  2  2  0  0  0
  1  6  1  0  0  0
  2  3  1  0  0  0
  2  4  1  0  0  0
  4  5  1  0  0  0
  4  8  1  0  0  0
  5  9  1  0  0  0
  5  6  2  0  0  0
  9 10  2  0  0  0
 10 11  1  0  0  0
 10 19  1  0  0  0
 11 12  2  0  0  0
 11 13  1  0  0  0
 13 14  1  0  0  0
 13 20  1  0  0  0
 14 15  1  0  0  0
 14 19  2  0  0  0
 15 16  2  0  0  0
 16 17  1  0  0  0
 17 21  1  0  0  0
 17 18  2  0  0  0
 21 22  1  0  0  0
 18 19  1  0  0  0
  6  7  1  0  0  0
M  END
> <minimizedAffinity>
-8.76082

$$$$
