CHEMBL3910382


 37 41  0  0  0  0  0  0  0  0999 V2000
  -12.1674    0.4721  -13.9223 C   0  0  0  0  0  0  0  0  0  0  0  0
  -12.4323    1.6782  -13.2566 C   0  0  0  0  0  0  0  0  0  0  0  0
  -12.5463    2.8991  -13.9379 C   0  0  0  0  0  0  0  0  0  0  0  0
  -12.3494    2.9644  -15.3125 C   0  0  0  0  0  0  0  0  0  0  0  0
  -11.9705    1.7895  -15.9780 C   0  0  0  0  0  0  0  0  0  0  0  0
  -11.8733    0.5522  -15.2879 C   0  0  0  0  0  0  0  0  0  0  0  0
  -13.3305   -2.7518  -12.5146 N   0  0  0  0  0  0  0  0  0  0  0  0
  -13.3918   -1.5746  -13.2565 C   0  0  0  0  0  0  0  0  0  0  0  0
  -14.3834   -1.2340  -13.8939 O   0  0  0  0  0  0  0  0  0  0  0  0
  -12.2292   -0.8022  -13.2536 N   0  0  0  0  0  0  0  0  0  0  0  0
  -12.4750   -2.9764  -12.0296 H   0  0  0  0  0  0  0  0  0  0  0  0
  -11.3532   -1.2764  -13.0840 H   0  0  0  0  0  0  0  0  0  0  0  0
  -15.5662   -7.0666  -13.8059 C   0  0  0  0  0  0  0  0  0  0  0  0
  -15.5176   -5.7918  -13.0100 C   0  0  0  0  0  0  0  0  0  0  0  0
  -16.5716   -5.5181  -12.1317 C   0  0  0  0  0  0  0  0  0  0  0  0
  -16.5591   -4.3560  -11.3830 C   0  0  0  0  0  0  0  0  0  0  0  0
  -15.4977   -3.4588  -11.5076 C   0  0  0  0  0  0  0  0  0  0  0  0
  -14.4207   -3.6813  -12.3778 C   0  0  0  0  0  0  0  0  0  0  0  0
  -14.4409   -4.8726  -13.1283 C   0  0  0  0  0  0  0  0  0  0  0  0
  -12.5493    4.2285  -15.9907 C   0  0  0  0  0  0  0  0  0  0  0  0
  -12.6927    5.2546  -16.6096 C   0  0  0  0  0  0  0  0  0  0  0  0
  -13.0070    6.4596  -17.3781 C   0  0  0  0  0  0  0  0  0  0  0  0
  -12.2343    7.7057  -17.1336 C   0  0  0  0  0  0  0  0  0  0  0  0
  -12.5505    8.7818  -17.8637 C   0  0  0  0  0  0  0  0  0  0  0  0
  -13.5878    8.6902  -18.8150 C   0  0  0  0  0  0  0  0  0  0  0  0
  -14.0665    9.5893  -19.6443 N   0  0  0  0  0  0  0  0  0  0  0  0
  -15.0632    8.9706  -20.3420 C   0  0  0  0  0  0  0  0  0  0  0  0
  -15.1962    7.6602  -19.9213 C   0  0  0  0  0  0  0  0  0  0  0  0
  -14.2393    7.4758  -18.9397 N   0  0  0  0  0  0  0  0  0  0  0  0
  -13.9783    6.3129  -18.2334 N   0  0  0  0  0  0  0  0  0  0  0  0
  -15.8040    9.6109  -21.3269 N   0  0  0  0  0  0  0  0  0  0  0  0
  -16.9899   10.2744  -21.0795 C   0  0  0  0  0  0  0  0  0  0  0  0
  -17.5607   10.3797  -20.0015 O   0  0  0  0  0  0  0  0  0  0  0  0
  -15.4437    9.5710  -22.2683 H   0  0  0  0  0  0  0  0  0  0  0  0
  -17.6691   10.9340  -22.2430 C   0  0  0  0  0  0  0  0  0  0  0  0
  -17.6761   12.4449  -22.3321 C   0  0  0  0  0  0  0  0  0  0  0  0
  -18.9714   11.6895  -22.2628 C   0  0  0  0  0  0  0  0  0  0  0  0
 13 14  1  0  0  0
 14 15  1  0  0  0
 14 19  2  0  0  0
 15 16  2  0  0  0
 16 17  1  0  0  0
 17 18  2  0  0  0
 18  7  1  0  0  0
 18 19  1  0  0  0
  7  8  1  0  0  0
  7 11  1  0  0  0
  8  9  2  0  0  0
  8 10  1  0  0  0
 10  1  1  0  0  0
 10 12  1  0  0  0
  1  2  1  0  0  0
  1  6  2  0  0  0
  2  3  2  0  0  0
  3  4  1  0  0  0
  4 20  1  0  0  0
  4  5  2  0  0  0
 20 21  3  0  0  0
 21 22  1  0  0  0
 22 23  1  0  0  0
 22 30  2  0  0  0
 23 24  2  0  0  0
 24 25  1  0  0  0
 25 26  2  0  0  0
 25 29  1  0  0  0
 26 27  1  0  0  0
 27 31  1  0  0  0
 27 28  2  0  0  0
 31 32  1  0  0  0
 31 34  1  0  0  0
 32 33  2  0  0  0
 32 35  1  0  0  0
 35 36  1  0  0  0
 35 37  1  0  0  0
 36 37  1  0  0  0
 28 29  1  0  0  0
 29 30  1  0  0  0
  5  6  1  0  0  0
M  END
> <minimizedAffinity>
-5.97945

$$$$
