CHEMBL196610


 33 36  0  0  0  0  0  0  0  0999 V2000
  -27.7239   -7.2085   -4.5276 C   0  0  0  0  0  0  0  0  0  0  0  0
  -27.0923   -6.1503   -3.9875 N   0  0  0  0  0  0  0  0  0  0  0  0
  -27.4157   -4.8714   -4.3515 N   0  0  0  0  0  0  0  0  0  0  0  0
  -28.3736   -4.6296   -5.2762 C   0  0  0  0  0  0  0  0  0  0  0  0
  -29.0495   -5.6974   -5.9123 C   0  0  0  0  0  0  0  0  0  0  0  0
  -30.0199   -5.5391   -6.9396 C   0  0  0  0  0  0  0  0  0  0  0  0
  -30.6955   -6.6181   -7.5069 C   0  0  0  0  0  0  0  0  0  0  0  0
  -30.3748   -7.9038   -7.1149 C   0  0  0  0  0  0  0  0  0  0  0  0
  -29.3883   -8.1017   -6.1489 C   0  0  0  0  0  0  0  0  0  0  0  0
  -28.7202   -7.0192   -5.5155 C   0  0  0  0  0  0  0  0  0  0  0  0
  -28.6058   -3.1814   -5.5086 C   0  0  0  0  0  0  0  0  0  0  0  0
  -29.4859   -2.4575   -4.6780 C   0  0  0  0  0  0  0  0  0  0  0  0
  -29.7497   -1.0970   -4.8889 C   0  0  0  0  0  0  0  0  0  0  0  0
  -29.1143   -0.4153   -5.9290 C   0  0  0  0  0  0  0  0  0  0  0  0
  -28.2470   -1.1128   -6.7716 C   0  0  0  0  0  0  0  0  0  0  0  0
  -28.0265   -2.4814   -6.5815 C   0  0  0  0  0  0  0  0  0  0  0  0
  -29.3738    1.0180   -6.2227 C   0  0  0  0  0  0  0  0  0  0  0  0
  -30.6427    1.4852   -6.0157 N   0  0  0  0  0  0  0  0  0  0  0  0
  -28.4865    1.7640   -6.6125 O   0  0  0  0  0  0  0  0  0  0  0  0
  -31.3383    0.9797   -5.4905 H   0  0  0  0  0  0  0  0  0  0  0  0
  -30.7796    2.4792   -6.1496 H   0  0  0  0  0  0  0  0  0  0  0  0
  -27.3852   -8.5250   -4.1229 N   0  0  0  0  0  0  0  0  0  0  0  0
  -27.7769   -8.7136   -3.2069 H   0  0  0  0  0  0  0  0  0  0  0  0
  -23.8135  -10.5715   -5.1339 C   0  0  0  0  0  0  0  0  0  0  0  0
  -23.9631  -10.0405   -3.8510 C   0  0  0  0  0  0  0  0  0  0  0  0
  -25.1534   -9.3908   -3.4872 C   0  0  0  0  0  0  0  0  0  0  0  0
  -26.2284   -9.2903   -4.3783 C   0  0  0  0  0  0  0  0  0  0  0  0
  -26.0626   -9.8338   -5.6630 C   0  0  0  0  0  0  0  0  0  0  0  0
  -24.8749  -10.4722   -6.0392 C   0  0  0  0  0  0  0  0  0  0  0  0
  -22.5123  -11.1963   -5.4982 C   0  0  0  0  0  0  0  0  0  0  0  0
  -21.7567  -11.7163   -4.6918 O   0  0  0  0  0  0  0  0  0  0  0  0
  -21.1855  -10.2510   -7.1818 C   0  0  0  0  0  0  0  0  0  0  0  0
  -22.2931  -11.0816   -6.8326 O   0  0  0  0  0  0  0  0  0  0  0  0
 32 33  1  0  0  0
 33 30  1  0  0  0
 30 31  2  0  0  0
 30 24  1  0  0  0
 24 25  1  0  0  0
 24 29  2  0  0  0
 25 26  2  0  0  0
 26 27  1  0  0  0
 27 22  1  0  0  0
 27 28  2  0  0  0
 22  1  1  0  0  0
 22 23  1  0  0  0
  1  2  1  0  0  0
  1 10  2  0  0  0
  2  3  2  0  0  0
  3  4  1  0  0  0
  4 11  1  0  0  0
  4  5  2  0  0  0
 11 12  1  0  0  0
 11 16  2  0  0  0
 12 13  2  0  0  0
 13 14  1  0  0  0
 14 17  1  0  0  0
 14 15  2  0  0  0
 17 18  1  0  0  0
 17 19  2  0  0  0
 18 20  1  0  0  0
 18 21  1  0  0  0
 15 16  1  0  0  0
  5  6  1  0  0  0
  5 10  1  0  0  0
  6  7  2  0  0  0
  7  8  1  0  0  0
  8  9  2  0  0  0
  9 10  1  0  0  0
 28 29  1  0  0  0
M  END
> <minimizedAffinity>
-8.52367

$$$$
