CHEMBL3979728


 37 41  0  0  0  0  0  0  0  0999 V2000
  -17.8498    1.1085  -15.0704 C   0  0  0  0  0  0  0  0  0  0  0  0
  -19.1321    0.6154  -14.7978 C   0  0  0  0  0  0  0  0  0  0  0  0
  -20.2341    1.4830  -14.6006 C   0  0  0  0  0  0  0  0  0  0  0  0
  -21.5386    1.1009  -14.2692 C   0  0  0  0  0  0  0  0  0  0  0  0
  -22.5453    1.9929  -14.1599 N   0  0  0  0  0  0  0  0  0  0  0  0
  -22.2513    3.2740  -14.3701 C   0  0  0  0  0  0  0  0  0  0  0  0
  -21.0474    3.7475  -14.6663 N   0  0  0  0  0  0  0  0  0  0  0  0
  -20.0590    2.8515  -14.7722 C   0  0  0  0  0  0  0  0  0  0  0  0
  -18.7982    3.3233  -15.0589 C   0  0  0  0  0  0  0  0  0  0  0  0
  -17.6655    2.4926  -15.1534 C   0  0  0  0  0  0  0  0  0  0  0  0
  -16.1242   -0.3209  -14.2107 C   0  0  0  0  0  0  0  0  0  0  0  0
  -16.9467    0.1062  -15.2827 O   0  0  0  0  0  0  0  0  0  0  0  0
  -21.8286   -0.2687  -14.0137 N   0  0  0  0  0  0  0  0  0  0  0  0
  -20.9831   -0.7309  -13.6916 H   0  0  0  0  0  0  0  0  0  0  0  0
  -22.9914   -0.6814  -13.3297 C   0  0  0  0  0  0  0  0  0  0  0  0
  -22.9369   -0.9266  -11.9496 C   0  0  0  0  0  0  0  0  0  0  0  0
  -24.0423   -1.4252  -11.2643 C   0  0  0  0  0  0  0  0  0  0  0  0
  -25.2272   -1.6759  -11.9536 C   0  0  0  0  0  0  0  0  0  0  0  0
  -26.5454   -2.3405  -11.0572 Cl  0  0  0  0  0  0  0  0  0  0  0  0
  -25.3070   -1.3989  -13.3236 C   0  0  0  0  0  0  0  0  0  0  0  0
  -26.7488   -1.6799  -14.2360 Cl  0  0  0  0  0  0  0  0  0  0  0  0
  -24.1927   -0.8944  -14.0079 C   0  0  0  0  0  0  0  0  0  0  0  0
  -16.4120    3.0289  -15.3415 O   0  0  0  0  0  0  0  0  0  0  0  0
  -16.3328    3.8790  -16.5024 C   0  0  0  0  0  0  0  0  0  0  0  0
  -15.0092    4.6215  -16.6025 C   0  0  0  0  0  0  0  0  0  0  0  0
  -14.1391    4.0419  -17.7384 C   0  0  0  0  0  0  0  0  0  0  0  0
  -12.7882    4.6509  -17.8082 N   0  0  0  0  0  0  0  0  0  0  0  0
  -12.1818    4.5064  -16.4647 C   0  0  0  0  0  0  0  0  0  0  0  0
  -13.0497    5.0728  -15.3297 C   0  0  0  0  0  0  0  0  0  0  0  0
  -14.3529    4.4804  -15.3247 O   0  0  0  0  0  0  0  0  0  0  0  0
  -12.9050    6.0529  -18.2539 C   0  0  0  0  0  0  0  0  0  0  0  0
  -13.3983    6.2132  -19.6900 C   0  0  0  0  0  0  0  0  0  0  0  0
  -14.7900    6.8346  -19.7094 C   0  0  0  0  0  0  0  0  0  0  0  0
  -15.1572    7.1588  -21.0572 O   0  0  0  0  0  0  0  0  0  0  0  0
  -15.2351    8.5845  -21.0834 C   0  0  0  0  0  0  0  0  0  0  0  0
  -15.5857    8.9462  -19.6666 C   0  0  0  0  0  0  0  0  0  0  0  0
  -14.8092    8.0252  -18.9060 O   0  0  0  0  0  0  0  0  0  0  0  0
 11 12  1  0  0  0
 12  1  1  0  0  0
  1  2  1  0  0  0
  1 10  2  0  0  0
  2  3  2  0  0  0
  3  4  1  0  0  0
  3  8  1  0  0  0
  4 13  1  0  0  0
  4  5  2  0  0  0
 13 15  1  0  0  0
 13 14  1  0  0  0
 15 16  1  0  0  0
 15 22  2  0  0  0
 16 17  2  0  0  0
 17 18  1  0  0  0
 18 19  1  0  0  0
 18 20  2  0  0  0
 20 21  1  0  0  0
 20 22  1  0  0  0
  5  6  1  0  0  0
  6  7  2  0  0  0
  7  8  1  0  0  0
  8  9  2  0  0  0
  9 10  1  0  0  0
 10 23  1  0  0  0
 23 24  1  0  0  0
 24 25  1  0  0  0
 25 26  1  0  0  0
 25 30  1  0  0  0
 26 27  1  0  0  0
 27 31  1  0  0  0
 27 28  1  0  0  0
 31 32  1  0  0  0
 32 33  1  0  0  0
 33 34  1  0  0  0
 33 37  1  0  0  0
 34 35  1  0  0  0
 35 36  1  0  0  0
 36 37  1  0  0  0
 28 29  1  0  0  0
 29 30  1  0  0  0
M  END
> <minimizedAffinity>
-8.66805

$$$$
