CHEMBL3896385


 43 47  0  0  0  0  0  0  0  0999 V2000
  -26.0743   -1.1011   -9.2513 O   0  0  0  0  0  0  0  0  0  0  0  0
  -26.7736   -1.9095   -9.8505 C   0  0  0  0  0  0  0  0  0  0  0  0
  -27.8705   -2.5481   -9.2926 N   0  0  0  0  0  0  0  0  0  0  0  0
  -26.5349   -2.3086  -11.1510 N   0  0  0  0  0  0  0  0  0  0  0  0
  -28.2381   -3.3465   -9.7847 H   0  0  0  0  0  0  0  0  0  0  0  0
  -27.2058   -2.9146  -11.6026 H   0  0  0  0  0  0  0  0  0  0  0  0
  -25.4388   -1.8975  -11.9511 C   0  0  0  0  0  0  0  0  0  0  0  0
  -24.1254   -1.8163  -11.4850 C   0  0  0  0  0  0  0  0  0  0  0  0
  -23.0881   -1.4152  -12.3273 C   0  0  0  0  0  0  0  0  0  0  0  0
  -23.3507   -1.0402  -13.6462 C   0  0  0  0  0  0  0  0  0  0  0  0
  -24.6506   -1.1496  -14.1383 C   0  0  0  0  0  0  0  0  0  0  0  0
  -25.6765   -1.5702  -13.2906 C   0  0  0  0  0  0  0  0  0  0  0  0
  -26.9274   -1.6633  -13.7766 F   0  0  0  0  0  0  0  0  0  0  0  0
  -22.3706   -0.6039  -14.5153 O   0  0  0  0  0  0  0  0  0  0  0  0
  -21.9418    0.7090  -14.4428 C   0  0  0  0  0  0  0  0  0  0  0  0
  -22.7085    1.7293  -13.8845 C   0  0  0  0  0  0  0  0  0  0  0  0
  -22.1605    2.9880  -13.8362 C   0  0  0  0  0  0  0  0  0  0  0  0
  -20.9525    3.2829  -14.3427 N   0  0  0  0  0  0  0  0  0  0  0  0
  -20.2300    2.3177  -14.9360 C   0  0  0  0  0  0  0  0  0  0  0  0
  -20.6940    1.0081  -15.0038 C   0  0  0  0  0  0  0  0  0  0  0  0
  -18.9759    2.6481  -15.4893 N   0  0  0  0  0  0  0  0  0  0  0  0
  -17.7750    2.2312  -14.9411 C   0  0  0  0  0  0  0  0  0  0  0  0
  -17.6149    1.5448  -13.9393 O   0  0  0  0  0  0  0  0  0  0  0  0
  -18.9632    3.2310  -16.3079 H   0  0  0  0  0  0  0  0  0  0  0  0
  -16.5220    2.6690  -15.6269 C   0  0  0  0  0  0  0  0  0  0  0  0
  -15.7383    1.6808  -16.4580 C   0  0  0  0  0  0  0  0  0  0  0  0
  -15.1067    2.3249  -15.2563 C   0  0  0  0  0  0  0  0  0  0  0  0
  -28.3246   -2.3413   -7.9664 C   0  0  0  0  0  0  0  0  0  0  0  0
  -28.6303   -3.3983   -7.1055 C   0  0  0  0  0  0  0  0  0  0  0  0
  -29.1913   -3.2045   -5.8412 C   0  0  0  0  0  0  0  0  0  0  0  0
  -29.3533   -1.8915   -5.3959 C   0  0  0  0  0  0  0  0  0  0  0  0
  -28.9802   -0.8009   -6.2047 C   0  0  0  0  0  0  0  0  0  0  0  0
  -28.4812   -1.0376   -7.5000 C   0  0  0  0  0  0  0  0  0  0  0  0
  -29.5544   -4.3171   -5.0460 N   0  0  0  0  0  0  0  0  0  0  0  0
  -29.7890   -4.3260   -3.6339 C   0  0  0  0  0  0  0  0  0  0  0  0
  -31.0746   -5.1319   -3.8654 C   0  0  0  0  0  0  0  0  0  0  0  0
  -31.1869   -6.2933   -3.1779 F   0  0  0  0  0  0  0  0  0  0  0  0
  -32.2346   -4.4572   -3.6687 F   0  0  0  0  0  0  0  0  0  0  0  0
  -30.6196   -5.2514   -5.3209 C   0  0  0  0  0  0  0  0  0  0  0  0
  -29.0923    0.6134   -5.6951 C   0  0  0  0  0  0  0  0  0  0  0  0
  -30.3636    0.9859   -5.3803 F   0  0  0  0  0  0  0  0  0  0  0  0
  -28.3558    0.8109   -4.5659 F   0  0  0  0  0  0  0  0  0  0  0  0
  -28.6443    1.5316   -6.5952 F   0  0  0  0  0  0  0  0  0  0  0  0
  1  2  2  0  0  0
  2  3  1  0  0  0
  2  4  1  0  0  0
  3 28  1  0  0  0
  3  5  1  0  0  0
 28 29  1  0  0  0
 28 33  2  0  0  0
 29 30  2  0  0  0
 30 34  1  0  0  0
 30 31  1  0  0  0
 34 35  1  0  0  0
 34 39  1  0  0  0
 35 36  1  0  0  0
 36 37  1  0  0  0
 36 38  1  0  0  0
 36 39  1  0  0  0
 31 32  2  0  0  0
 32 40  1  0  0  0
 32 33  1  0  0  0
 40 41  1  0  0  0
 40 42  1  0  0  0
 40 43  1  0  0  0
  4  7  1  0  0  0
  4  6  1  0  0  0
  7  8  1  0  0  0
  7 12  2  0  0  0
  8  9  2  0  0  0
  9 10  1  0  0  0
 10 14  1  0  0  0
 10 11  2  0  0  0
 14 15  1  0  0  0
 15 16  1  0  0  0
 15 20  2  0  0  0
 16 17  2  0  0  0
 17 18  1  0  0  0
 18 19  2  0  0  0
 19 21  1  0  0  0
 19 20  1  0  0  0
 21 22  1  0  0  0
 21 24  1  0  0  0
 22 23  2  0  0  0
 22 25  1  0  0  0
 25 26  1  0  0  0
 25 27  1  0  0  0
 26 27  1  0  0  0
 11 12  1  0  0  0
 12 13  1  0  0  0
M  END
> <minimizedAffinity>
-12.51658

$$$$
