CHEMBL1242845


 34 38  0  0  0  0  0  0  0  0999 V2000
  -29.4321   -4.6774   -6.4723 N   0  0  0  0  0  0  0  0  0  0  0  0
  -29.3631   -5.4316   -7.6087 N   0  0  0  0  0  0  0  0  0  0  0  0
  -28.9422   -6.6230   -7.1179 C   0  0  0  0  0  0  0  0  0  0  0  0
  -28.4017   -6.4444   -5.7943 C   0  0  0  0  0  0  0  0  0  0  0  0
  -27.9861   -7.2962   -4.7669 C   0  0  0  0  0  0  0  0  0  0  0  0
  -26.6787   -7.2153   -4.2564 N   0  0  0  0  0  0  0  0  0  0  0  0
  -28.9033   -7.6329   -3.8391 N   0  0  0  0  0  0  0  0  0  0  0  0
  -29.9438   -6.7992   -3.6979 C   0  0  0  0  0  0  0  0  0  0  0  0
  -30.1284   -5.5963   -4.2995 N   0  0  0  0  0  0  0  0  0  0  0  0
  -29.3419   -5.5051   -5.3842 C   0  0  0  0  0  0  0  0  0  0  0  0
  -26.6151   -6.3100   -3.7829 H   0  0  0  0  0  0  0  0  0  0  0  0
  -26.6163   -7.9107   -3.5149 H   0  0  0  0  0  0  0  0  0  0  0  0
  -29.3064   -7.8965   -7.7484 C   0  0  0  0  0  0  0  0  0  0  0  0
  -28.2935   -8.6798   -8.3480 C   0  0  0  0  0  0  0  0  0  0  0  0
  -28.6073   -9.8476   -9.0505 C   0  0  0  0  0  0  0  0  0  0  0  0
  -29.9333  -10.2366   -9.1505 C   0  0  0  0  0  0  0  0  0  0  0  0
  -30.2542  -11.3610   -9.8083 F   0  0  0  0  0  0  0  0  0  0  0  0
  -30.9389   -9.4680   -8.5734 C   0  0  0  0  0  0  0  0  0  0  0  0
  -32.2494   -9.8478   -8.6717 O   0  0  0  0  0  0  0  0  0  0  0  0
  -30.6409   -8.2887   -7.8923 C   0  0  0  0  0  0  0  0  0  0  0  0
  -32.2583  -10.7173   -9.1146 H   0  0  0  0  0  0  0  0  0  0  0  0
  -29.7689   -3.2653   -6.5203 C   0  0  0  0  0  0  0  0  0  0  0  0
  -27.5640   -0.9116   -5.6495 C   0  0  0  0  0  0  0  0  0  0  0  0
  -27.8366   -1.5224   -6.9667 C   0  0  0  0  0  0  0  0  0  0  0  0
  -27.1061   -1.1582   -8.0204 N   0  0  0  0  0  0  0  0  0  0  0  0
  -27.6285   -1.8876   -9.0355 N   0  0  0  0  0  0  0  0  0  0  0  0
  -28.6773   -2.6964   -8.6916 N   0  0  0  0  0  0  0  0  0  0  0  0
  -28.7894   -2.4796   -7.3621 C   0  0  0  0  0  0  0  0  0  0  0  0
  -27.0984   -1.7806  -10.3515 C   0  0  0  0  0  0  0  0  0  0  0  0
  -25.7201   -1.5476  -10.5225 C   0  0  0  0  0  0  0  0  0  0  0  0
  -25.1668   -1.4142  -11.7975 C   0  0  0  0  0  0  0  0  0  0  0  0
  -25.9820   -1.4985  -12.9120 C   0  0  0  0  0  0  0  0  0  0  0  0
  -27.3581   -1.7282  -12.7628 C   0  0  0  0  0  0  0  0  0  0  0  0
  -27.9165   -1.8832  -11.4855 C   0  0  0  0  0  0  0  0  0  0  0  0
 23 24  1  0  0  0
 24 25  2  0  0  0
 24 28  1  0  0  0
 25 26  1  0  0  0
 26 29  1  0  0  0
 26 27  1  0  0  0
 29 30  1  0  0  0
 29 34  2  0  0  0
 30 31  2  0  0  0
 31 32  1  0  0  0
 32 33  2  0  0  0
 33 34  1  0  0  0
 27 28  2  0  0  0
 28 22  1  0  0  0
 22  1  1  0  0  0
  1  2  1  0  0  0
  1 10  1  0  0  0
  2  3  2  0  0  0
  3 13  1  0  0  0
  3  4  1  0  0  0
 13 14  1  0  0  0
 13 20  2  0  0  0
 14 15  2  0  0  0
 15 16  1  0  0  0
 16 17  1  0  0  0
 16 18  2  0  0  0
 18 19  1  0  0  0
 18 20  1  0  0  0
 19 21  1  0  0  0
  4  5  1  0  0  0
  4 10  2  0  0  0
  5  6  1  0  0  0
  5  7  2  0  0  0
  6 11  1  0  0  0
  6 12  1  0  0  0
  7  8  1  0  0  0
  8  9  2  0  0  0
  9 10  1  0  0  0
M  END
> <minimizedAffinity>
-10.23156

$$$$
