CHEMBL3694663


 42 46  0  0  0  0  0  0  0  0999 V2000
  -26.6094  -11.7183   -2.8707 C   0  0  0  0  0  0  0  0  0  0  0  0
  -27.7690  -12.4627   -2.7192 C   0  0  0  0  0  0  0  0  0  0  0  0
  -28.8798  -11.7950   -3.1666 N   0  0  0  0  0  0  0  0  0  0  0  0
  -28.4320  -10.6442   -3.6193 C   0  0  0  0  0  0  0  0  0  0  0  0
  -29.1217   -9.5410   -4.2100 C   0  0  0  0  0  0  0  0  0  0  0  0
  -28.4496   -8.4433   -4.6396 C   0  0  0  0  0  0  0  0  0  0  0  0
  -26.9894   -8.4080   -4.4897 C   0  0  0  0  0  0  0  0  0  0  0  0
  -26.3353   -9.4472   -3.9580 C   0  0  0  0  0  0  0  0  0  0  0  0
  -27.0466  -10.5516   -3.4945 N   0  0  0  0  0  0  0  0  0  0  0  0
  -22.8712  -12.2762   -3.2048 C   0  0  0  0  0  0  0  0  0  0  0  0
  -22.5154  -12.4236   -1.8642 C   0  0  0  0  0  0  0  0  0  0  0  0
  -23.4931  -12.4593   -0.8751 C   0  0  0  0  0  0  0  0  0  0  0  0
  -24.8338  -12.3148   -1.2177 C   0  0  0  0  0  0  0  0  0  0  0  0
  -25.2154  -12.0445   -2.5377 C   0  0  0  0  0  0  0  0  0  0  0  0
  -24.2235  -12.0729   -3.5333 C   0  0  0  0  0  0  0  0  0  0  0  0
  -22.9773  -11.0559   -5.9182 O   0  0  0  0  0  0  0  0  0  0  0  0
  -22.0417  -11.7192   -5.4932 C   0  0  0  0  0  0  0  0  0  0  0  0
  -20.9082  -11.9217   -6.2531 N   0  0  0  0  0  0  0  0  0  0  0  0
  -21.9343  -12.3232   -4.2604 N   0  0  0  0  0  0  0  0  0  0  0  0
  -20.4095  -12.7817   -6.0750 H   0  0  0  0  0  0  0  0  0  0  0  0
  -21.0619  -12.7889   -4.0644 H   0  0  0  0  0  0  0  0  0  0  0  0
  -20.9016  -11.4483   -7.6435 C   0  0  0  0  0  0  0  0  0  0  0  0
  -20.4289   -9.9989   -7.8302 C   0  0  0  0  0  0  0  0  0  0  0  0
  -21.4249   -9.1092   -7.6071 F   0  0  0  0  0  0  0  0  0  0  0  0
  -19.3959   -9.6859   -7.0229 F   0  0  0  0  0  0  0  0  0  0  0  0
  -20.0182   -9.8087   -9.1090 F   0  0  0  0  0  0  0  0  0  0  0  0
  -29.1760   -7.3051   -5.2673 C   0  0  0  0  0  0  0  0  0  0  0  0
  -30.1269   -7.6447   -6.1613 N   0  0  0  0  0  0  0  0  0  0  0  0
  -30.8218   -6.6439   -6.7050 C   0  0  0  0  0  0  0  0  0  0  0  0
  -30.5777   -5.3305   -6.4085 C   0  0  0  0  0  0  0  0  0  0  0  0
  -29.5707   -5.0564   -5.4954 C   0  0  0  0  0  0  0  0  0  0  0  0
  -28.8757   -6.0423   -4.9027 N   0  0  0  0  0  0  0  0  0  0  0  0
  -29.3512   -3.7286   -5.1560 N   0  0  0  0  0  0  0  0  0  0  0  0
  -28.1653   -3.3854   -4.3659 C   0  0  0  0  0  0  0  0  0  0  0  0
  -28.4144   -1.9942   -3.7084 C   0  0  0  0  0  0  0  0  0  0  0  0
  -28.8104   -0.8944   -4.6434 N   0  0  0  0  0  0  0  0  0  0  0  0
  -29.9291   -1.3835   -5.4883 C   0  0  0  0  0  0  0  0  0  0  0  0
  -29.6694   -2.7359   -6.1893 C   0  0  0  0  0  0  0  0  0  0  0  0
  -27.6382   -0.4509   -5.4294 C   0  0  0  0  0  0  0  0  0  0  0  0
  -28.0057    0.2581   -6.7438 C   0  0  0  0  0  0  0  0  0  0  0  0
  -28.2451    1.6435   -6.5202 O   0  0  0  0  0  0  0  0  0  0  0  0
  -28.7307    1.6932   -5.6735 H   0  0  0  0  0  0  0  0  0  0  0  0
 16 17  2  0  0  0
 17 18  1  0  0  0
 17 19  1  0  0  0
 18 22  1  0  0  0
 18 20  1  0  0  0
 22 23  1  0  0  0
 23 24  1  0  0  0
 23 25  1  0  0  0
 23 26  1  0  0  0
 19 10  1  0  0  0
 19 21  1  0  0  0
 10 11  1  0  0  0
 10 15  2  0  0  0
 11 12  2  0  0  0
 12 13  1  0  0  0
 13 14  2  0  0  0
 14  1  1  0  0  0
 14 15  1  0  0  0
  1  2  2  0  0  0
  1  9  1  0  0  0
  2  3  1  0  0  0
  3  4  2  0  0  0
  4  5  1  0  0  0
  4  9  1  0  0  0
  5  6  2  0  0  0
  6 27  1  0  0  0
  6  7  1  0  0  0
 27 28  1  0  0  0
 27 32  2  0  0  0
 28 29  2  0  0  0
 29 30  1  0  0  0
 30 31  2  0  0  0
 31 33  1  0  0  0
 31 32  1  0  0  0
 33 34  1  0  0  0
 33 38  1  0  0  0
 34 35  1  0  0  0
 35 36  1  0  0  0
 36 39  1  0  0  0
 36 37  1  0  0  0
 39 40  1  0  0  0
 40 41  1  0  0  0
 41 42  1  0  0  0
 37 38  1  0  0  0
  7  8  2  0  0  0
  8  9  1  0  0  0
M  END
> <minimizedAffinity>
-6.86501

$$$$
