CHEMBL3690568


 36 40  0  0  0  0  0  0  0  0999 V2000
  -18.8586    2.3002  -15.1909 C   0  0  0  0  0  0  0  0  0  0  0  0
  -18.4899    3.6574  -15.5872 C   0  0  0  0  0  0  0  0  0  0  0  0
  -17.2621    3.8989  -16.0747 C   0  0  0  0  0  0  0  0  0  0  0  0
  -16.3529    2.8483  -16.2247 N   0  0  0  0  0  0  0  0  0  0  0  0
  -15.0526    2.8209  -16.7217 C   0  0  0  0  0  0  0  0  0  0  0  0
  -14.6643    1.4970  -16.5461 C   0  0  0  0  0  0  0  0  0  0  0  0
  -15.6543    0.7236  -16.0118 N   0  0  0  0  0  0  0  0  0  0  0  0
  -16.6633    1.5440  -15.8332 C   0  0  0  0  0  0  0  0  0  0  0  0
  -17.9625    1.2954  -15.3051 C   0  0  0  0  0  0  0  0  0  0  0  0
  -24.4399   -2.0517  -13.0089 C   0  0  0  0  0  0  0  0  0  0  0  0
  -23.5930   -0.8706  -13.3294 C   0  0  0  0  0  0  0  0  0  0  0  0
  -22.3845   -0.9421  -13.8415 N   0  0  0  0  0  0  0  0  0  0  0  0
  -21.8677    0.3313  -14.0150 C   0  0  0  0  0  0  0  0  0  0  0  0
  -20.5932    0.6410  -14.5318 C   0  0  0  0  0  0  0  0  0  0  0  0
  -20.1904    1.9803  -14.6501 C   0  0  0  0  0  0  0  0  0  0  0  0
  -21.0590    3.0058  -14.2690 C   0  0  0  0  0  0  0  0  0  0  0  0
  -22.3290    2.7214  -13.7529 C   0  0  0  0  0  0  0  0  0  0  0  0
  -22.7112    1.3757  -13.6326 C   0  0  0  0  0  0  0  0  0  0  0  0
  -24.1848    0.7136  -13.0353 S   0  0  0  0  0  0  0  0  0  0  0  0
  -14.2539    3.9384  -17.2527 C   0  0  0  0  0  0  0  0  0  0  0  0
  -12.8773    3.7367  -17.4392 C   0  0  0  0  0  0  0  0  0  0  0  0
  -12.0703    4.7435  -17.9528 C   0  0  0  0  0  0  0  0  0  0  0  0
  -12.6290    5.9650  -18.3052 C   0  0  0  0  0  0  0  0  0  0  0  0
  -14.0014    6.1977  -18.1868 C   0  0  0  0  0  0  0  0  0  0  0  0
  -14.8056    5.1753  -17.6460 C   0  0  0  0  0  0  0  0  0  0  0  0
  -14.6132    7.4052  -18.6207 N   0  0  0  0  0  0  0  0  0  0  0  0
  -15.1195    7.6351  -19.8797 C   0  0  0  0  0  0  0  0  0  0  0  0
  -15.1336    6.8438  -20.8210 O   0  0  0  0  0  0  0  0  0  0  0  0
  -15.5972    8.9065  -20.0588 N   0  0  0  0  0  0  0  0  0  0  0  0
  -14.7325    8.1301  -17.9318 H   0  0  0  0  0  0  0  0  0  0  0  0
  -15.9265    9.4213  -19.2552 H   0  0  0  0  0  0  0  0  0  0  0  0
  -16.1732    9.2400  -21.3758 C   0  0  0  0  0  0  0  0  0  0  0  0
  -17.7069    9.2310  -21.4830 C   0  0  0  0  0  0  0  0  0  0  0  0
  -18.2212    7.9799  -21.4408 F   0  0  0  0  0  0  0  0  0  0  0  0
  -18.2428    9.9083  -20.4347 F   0  0  0  0  0  0  0  0  0  0  0  0
  -18.1486    9.8300  -22.6085 F   0  0  0  0  0  0  0  0  0  0  0  0
 10 11  1  0  0  0
 11 12  2  0  0  0
 11 19  1  0  0  0
 12 13  1  0  0  0
 13 14  1  0  0  0
 13 18  2  0  0  0
 14 15  2  0  0  0
 15  1  1  0  0  0
 15 16  1  0  0  0
  1  2  1  0  0  0
  1  9  2  0  0  0
  2  3  2  0  0  0
  3  4  1  0  0  0
  4  5  1  0  0  0
  4  8  1  0  0  0
  5 20  1  0  0  0
  5  6  2  0  0  0
 20 21  1  0  0  0
 20 25  2  0  0  0
 21 22  2  0  0  0
 22 23  1  0  0  0
 23 24  2  0  0  0
 24 26  1  0  0  0
 24 25  1  0  0  0
 26 27  1  0  0  0
 26 30  1  0  0  0
 27 28  2  0  0  0
 27 29  1  0  0  0
 29 32  1  0  0  0
 29 31  1  0  0  0
 32 33  1  0  0  0
 33 34  1  0  0  0
 33 35  1  0  0  0
 33 36  1  0  0  0
  6  7  1  0  0  0
  7  8  2  0  0  0
  8  9  1  0  0  0
 16 17  2  0  0  0
 17 18  1  0  0  0
 18 19  1  0  0  0
M  END
> <minimizedAffinity>
-8.72224

$$$$
