CHEMBL4092692


 35 40  0  0  0  0  0  0  0  0999 V2000
  -13.8219   -1.1319  -14.0425 C   0  0  0  0  0  0  0  0  0  0  0  0
  -15.1658   -1.1570  -13.6646 C   0  0  0  0  0  0  0  0  0  0  0  0
  -16.0263   -0.1000  -13.9651 C   0  0  0  0  0  0  0  0  0  0  0  0
  -15.4892    1.0321  -14.5999 C   0  0  0  0  0  0  0  0  0  0  0  0
  -14.1247    1.1232  -14.8971 C   0  0  0  0  0  0  0  0  0  0  0  0
  -13.9240    2.3814  -15.5287 C   0  0  0  0  0  0  0  0  0  0  0  0
  -15.1604    2.9525  -15.7223 C   0  0  0  0  0  0  0  0  0  0  0  0
  -16.1264    2.1403  -15.1594 N   0  0  0  0  0  0  0  0  0  0  0  0
  -17.5134    2.3241  -15.3219 C   0  0  0  0  0  0  0  0  0  0  0  0
  -17.9482    2.6362  -16.4208 O   0  0  0  0  0  0  0  0  0  0  0  0
  -18.1881    2.2214  -14.1261 N   0  0  0  0  0  0  0  0  0  0  0  0
  -13.2672    0.0331  -14.5927 C   0  0  0  0  0  0  0  0  0  0  0  0
  -17.7173    2.5745  -13.3020 H   0  0  0  0  0  0  0  0  0  0  0  0
  -19.5645    2.3857  -14.1221 C   0  0  0  0  0  0  0  0  0  0  0  0
  -20.5345    1.3665  -14.0179 C   0  0  0  0  0  0  0  0  0  0  0  0
  -21.7358    2.0186  -14.1378 C   0  0  0  0  0  0  0  0  0  0  0  0
  -21.5002    3.3547  -14.2648 O   0  0  0  0  0  0  0  0  0  0  0  0
  -20.1317    3.5924  -14.1791 N   0  0  0  0  0  0  0  0  0  0  0  0
  -23.0954    1.3431  -14.1338 C   0  0  0  0  0  0  0  0  0  0  0  0
  -23.5783    0.7089  -12.8463 C   0  0  0  0  0  0  0  0  0  0  0  0
  -23.1672   -0.1614  -13.9833 C   0  0  0  0  0  0  0  0  0  0  0  0
  -13.0087   -2.2499  -13.9032 O   0  0  0  0  0  0  0  0  0  0  0  0
  -13.4759   -8.4520  -11.8507 C   0  0  0  0  0  0  0  0  0  0  0  0
  -13.7312   -8.2681  -13.3237 C   0  0  0  0  0  0  0  0  0  0  0  0
  -13.3265   -9.1045  -14.1302 O   0  0  0  0  0  0  0  0  0  0  0  0
  -14.4176   -7.1280  -13.7042 N   0  0  0  0  0  0  0  0  0  0  0  0
  -14.8622   -6.0560  -12.8174 C   0  0  0  0  0  0  0  0  0  0  0  0
  -13.9326   -4.8453  -12.9669 C   0  0  0  0  0  0  0  0  0  0  0  0
  -13.7060   -4.4933  -14.4126 C   0  0  0  0  0  0  0  0  0  0  0  0
  -13.9432   -5.4243  -15.4283 C   0  0  0  0  0  0  0  0  0  0  0  0
  -13.7383   -5.1517  -16.7353 N   0  0  0  0  0  0  0  0  0  0  0  0
  -13.2135   -3.9582  -17.0185 C   0  0  0  0  0  0  0  0  0  0  0  0
  -12.9098   -3.0122  -16.1309 N   0  0  0  0  0  0  0  0  0  0  0  0
  -13.2010   -3.2743  -14.8397 C   0  0  0  0  0  0  0  0  0  0  0  0
  -14.5079   -6.8002  -15.1234 C   0  0  0  0  0  0  0  0  0  0  0  0
 23 24  1  0  0  0
 24 25  2  0  0  0
 24 26  1  0  0  0
 26 27  1  0  0  0
 26 35  1  0  0  0
 27 28  1  0  0  0
 28 29  1  0  0  0
 29 30  1  0  0  0
 29 34  2  0  0  0
 30 31  2  0  0  0
 30 35  1  0  0  0
 31 32  1  0  0  0
 32 33  2  0  0  0
 33 34  1  0  0  0
 34 22  1  0  0  0
 22  1  1  0  0  0
  1  2  1  0  0  0
  1 12  2  0  0  0
  2  3  2  0  0  0
  3  4  1  0  0  0
  4  5  2  0  0  0
  4  8  1  0  0  0
  5  6  1  0  0  0
  5 12  1  0  0  0
  6  7  2  0  0  0
  7  8  1  0  0  0
  8  9  1  0  0  0
  9 10  2  0  0  0
  9 11  1  0  0  0
 11 14  1  0  0  0
 11 13  1  0  0  0
 14 15  1  0  0  0
 14 18  2  0  0  0
 15 16  2  0  0  0
 16 19  1  0  0  0
 16 17  1  0  0  0
 19 20  1  0  0  0
 19 21  1  0  0  0
 20 21  1  0  0  0
 17 18  1  0  0  0
M  END
> <minimizedAffinity>
-9.05284

$$$$
