CHEMBL3809489


 41 47  0  0  0  0  0  0  0  0999 V2000
  -28.1197   -2.3388  -12.5856 N   0  0  0  0  0  0  0  0  0  0  0  0
  -27.1505   -1.7253  -11.8609 C   0  0  0  0  0  0  0  0  0  0  0  0
  -26.2315   -0.9435  -12.3650 N   0  0  0  0  0  0  0  0  0  0  0  0
  -25.5313   -0.5226  -11.2740 C   0  0  0  0  0  0  0  0  0  0  0  0
  -25.9435   -1.0399  -10.1250 N   0  0  0  0  0  0  0  0  0  0  0  0
  -26.9778   -1.8459  -10.4919 N   0  0  0  0  0  0  0  0  0  0  0  0
  -28.2432   -2.0207  -13.5430 H   0  0  0  0  0  0  0  0  0  0  0  0
  -28.9765   -2.6604  -12.1378 H   0  0  0  0  0  0  0  0  0  0  0  0
  -27.6132   -2.6838   -9.5224 C   0  0  0  0  0  0  0  0  0  0  0  0
  -28.4311   -2.0627   -8.5890 C   0  0  0  0  0  0  0  0  0  0  0  0
  -28.8125   -2.7669   -7.4431 C   0  0  0  0  0  0  0  0  0  0  0  0
  -28.5782   -4.1320   -7.3470 C   0  0  0  0  0  0  0  0  0  0  0  0
  -27.8753   -4.7474   -8.3257 N   0  0  0  0  0  0  0  0  0  0  0  0
  -27.3375   -4.0026   -9.4018 N   0  0  0  0  0  0  0  0  0  0  0  0
  -28.9947   -4.8604   -6.1263 C   0  0  0  0  0  0  0  0  0  0  0  0
  -30.0966   -5.7314   -6.1751 C   0  0  0  0  0  0  0  0  0  0  0  0
  -30.6580   -6.2657   -5.0077 C   0  0  0  0  0  0  0  0  0  0  0  0
  -30.0834   -6.0022   -3.7690 C   0  0  0  0  0  0  0  0  0  0  0  0
  -28.9929   -5.1476   -3.6902 C   0  0  0  0  0  0  0  0  0  0  0  0
  -28.4960   -4.5057   -4.8432 C   0  0  0  0  0  0  0  0  0  0  0  0
  -27.5197   -3.3657   -4.6211 C   0  0  0  0  0  0  0  0  0  0  0  0
  -27.7791   -2.0514   -5.3902 C   0  0  0  0  0  0  0  0  0  0  0  0
  -29.0981   -1.9845   -6.1833 C   0  0  0  0  0  0  0  0  0  0  0  0
  -24.5186    0.3492  -11.4670 N   0  0  0  0  0  0  0  0  0  0  0  0
  -24.3187    0.9573  -10.6783 H   0  0  0  0  0  0  0  0  0  0  0  0
  -23.5150    0.3605  -12.4557 C   0  0  0  0  0  0  0  0  0  0  0  0
  -22.9584   -0.8154  -12.9674 C   0  0  0  0  0  0  0  0  0  0  0  0
  -21.9982   -0.7910  -13.9769 C   0  0  0  0  0  0  0  0  0  0  0  0
  -21.5632    0.4198  -14.5173 C   0  0  0  0  0  0  0  0  0  0  0  0
  -22.0990    1.6178  -14.0205 C   0  0  0  0  0  0  0  0  0  0  0  0
  -23.0839    1.5740  -13.0105 C   0  0  0  0  0  0  0  0  0  0  0  0
  -21.5850    2.9445  -14.5182 C   0  0  0  0  0  0  0  0  0  0  0  0
  -20.1208    3.1606  -14.1198 C   0  0  0  0  0  0  0  0  0  0  0  0
  -19.0899    2.4950  -15.0592 C   0  0  0  0  0  0  0  0  0  0  0  0
  -19.1676    0.9501  -15.0831 C   0  0  0  0  0  0  0  0  0  0  0  0
  -20.5041    0.4075  -15.5888 C   0  0  0  0  0  0  0  0  0  0  0  0
  -17.6820    2.8965  -14.8243 N   0  0  0  0  0  0  0  0  0  0  0  0
  -17.1487    3.9689  -15.6716 C   0  0  0  0  0  0  0  0  0  0  0  0
  -16.4416    3.2763  -16.8196 C   0  0  0  0  0  0  0  0  0  0  0  0
  -15.9412    1.9756  -16.2172 C   0  0  0  0  0  0  0  0  0  0  0  0
  -16.7222    1.7903  -14.9197 C   0  0  0  0  0  0  0  0  0  0  0  0
  1  2  1  0  0  0
  1  7  1  0  0  0
  1  8  1  0  0  0
  2  3  2  0  0  0
  2  6  1  0  0  0
  3  4  1  0  0  0
  4 24  1  0  0  0
  4  5  2  0  0  0
 24 26  1  0  0  0
 24 25  1  0  0  0
 26 27  1  0  0  0
 26 31  2  0  0  0
 27 28  2  0  0  0
 28 29  1  0  0  0
 29 30  2  0  0  0
 29 36  1  0  0  0
 30 31  1  0  0  0
 30 32  1  0  0  0
 32 33  1  0  0  0
 33 34  1  0  0  0
 34 37  1  0  0  0
 34 35  1  0  0  0
 37 38  1  0  0  0
 37 41  1  0  0  0
 38 39  1  0  0  0
 39 40  1  0  0  0
 40 41  1  0  0  0
 35 36  1  0  0  0
  5  6  1  0  0  0
  6  9  1  0  0  0
  9 10  1  0  0  0
  9 14  2  0  0  0
 10 11  2  0  0  0
 11 12  1  0  0  0
 11 23  1  0  0  0
 12 13  2  0  0  0
 12 15  1  0  0  0
 13 14  1  0  0  0
 15 16  1  0  0  0
 15 20  2  0  0  0
 16 17  2  0  0  0
 17 18  1  0  0  0
 18 19  2  0  0  0
 19 20  1  0  0  0
 20 21  1  0  0  0
 21 22  1  0  0  0
 22 23  1  0  0  0
M  END
> <minimizedAffinity>
-11.36522

$$$$
