CHEMBL371688


 35 38  0  0  0  0  0  0  0  0999 V2000
  -27.2861   -9.8872   -5.7371 C   0  0  0  0  0  0  0  0  0  0  0  0
  -26.7281  -10.3759   -4.5878 N   0  0  0  0  0  0  0  0  0  0  0  0
  -27.1430   -9.8397   -3.4589 C   0  0  0  0  0  0  0  0  0  0  0  0
  -28.0294   -8.8648   -3.3284 N   0  0  0  0  0  0  0  0  0  0  0  0
  -28.5891   -8.3901   -4.4437 C   0  0  0  0  0  0  0  0  0  0  0  0
  -29.4842   -7.3490   -4.3139 C   0  0  0  0  0  0  0  0  0  0  0  0
  -30.1875   -6.8319   -5.4036 C   0  0  0  0  0  0  0  0  0  0  0  0
  -29.9705   -7.3906   -6.6627 C   0  0  0  0  0  0  0  0  0  0  0  0
  -28.9954   -8.3560   -6.8496 C   0  0  0  0  0  0  0  0  0  0  0  0
  -28.2983   -8.9018   -5.7270 C   0  0  0  0  0  0  0  0  0  0  0  0
  -26.8723  -10.4539   -6.9619 N   0  0  0  0  0  0  0  0  0  0  0  0
  -27.4552  -10.2358   -7.7466 H   0  0  0  0  0  0  0  0  0  0  0  0
  -23.3162  -10.9270   -6.9718 C   0  0  0  0  0  0  0  0  0  0  0  0
  -23.1061  -11.9963   -7.8536 C   0  0  0  0  0  0  0  0  0  0  0  0
  -24.2010  -12.4644   -8.5450 C   0  0  0  0  0  0  0  0  0  0  0  0
  -25.4706  -11.9469   -8.2908 C   0  0  0  0  0  0  0  0  0  0  0  0
  -26.7544  -12.4025   -9.3649 Cl  0  0  0  0  0  0  0  0  0  0  0  0
  -25.6045  -10.9542   -7.3151 C   0  0  0  0  0  0  0  0  0  0  0  0
  -24.5408  -10.4019   -6.7218 N   0  0  0  0  0  0  0  0  0  0  0  0
  -21.0919  -10.3417   -7.2248 C   0  0  0  0  0  0  0  0  0  0  0  0
  -22.2176  -10.4004   -6.3372 O   0  0  0  0  0  0  0  0  0  0  0  0
  -31.0353   -5.7868   -5.1331 O   0  0  0  0  0  0  0  0  0  0  0  0
  -30.6951   -5.0781   -3.9392 C   0  0  0  0  0  0  0  0  0  0  0  0
  -30.5351   -3.5759   -4.2021 C   0  0  0  0  0  0  0  0  0  0  0  0
  -29.2827   -3.2648   -4.9195 N   0  0  0  0  0  0  0  0  0  0  0  0
  -29.4852   -3.0414   -6.3661 C   0  0  0  0  0  0  0  0  0  0  0  0
  -28.1706   -2.6851   -7.0943 C   0  0  0  0  0  0  0  0  0  0  0  0
  -27.4708   -1.5123   -6.5448 N   0  0  0  0  0  0  0  0  0  0  0  0
  -28.1688   -0.2748   -6.8835 C   0  0  0  0  0  0  0  0  0  0  0  0
  -27.3281   -1.6841   -5.0841 C   0  0  0  0  0  0  0  0  0  0  0  0
  -28.6238   -2.0811   -4.3312 C   0  0  0  0  0  0  0  0  0  0  0  0
  -28.6604   -8.8326   -8.1075 O   0  0  0  0  0  0  0  0  0  0  0  0
  -29.6930   -9.3906   -8.9425 C   0  0  0  0  0  0  0  0  0  0  0  0
  -29.1568   -9.8689  -10.2938 C   0  0  0  0  0  0  0  0  0  0  0  0
  -30.2440  -10.6110   -8.1965 C   0  0  0  0  0  0  0  0  0  0  0  0
 20 21  1  0  0  0
 21 13  1  0  0  0
 13 14  1  0  0  0
 13 19  2  0  0  0
 14 15  2  0  0  0
 15 16  1  0  0  0
 16 17  1  0  0  0
 16 18  2  0  0  0
 18 11  1  0  0  0
 18 19  1  0  0  0
 11  1  1  0  0  0
 11 12  1  0  0  0
  1  2  1  0  0  0
  1 10  2  0  0  0
  2  3  2  0  0  0
  3  4  1  0  0  0
  4  5  2  0  0  0
  5  6  1  0  0  0
  5 10  1  0  0  0
  6  7  2  0  0  0
  7 22  1  0  0  0
  7  8  1  0  0  0
 22 23  1  0  0  0
 23 24  1  0  0  0
 24 25  1  0  0  0
 25 26  1  0  0  0
 25 31  1  0  0  0
 26 27  1  0  0  0
 27 28  1  0  0  0
 28 29  1  0  0  0
 28 30  1  0  0  0
 30 31  1  0  0  0
  8  9  2  0  0  0
  9 32  1  0  0  0
  9 10  1  0  0  0
 32 33  1  0  0  0
 33 34  1  0  0  0
 33 35  1  0  0  0
M  END
> <minimizedAffinity>
-7.36610

$$$$
