CHEMBL3978686


 29 32  0  0  0  0  0  0  0  0999 V2000
  -25.7616   -1.2489  -12.2766 C   0  0  0  0  0  0  0  0  0  0  0  0
  -25.6016   -1.5353  -13.6314 C   0  0  0  0  0  0  0  0  0  0  0  0
  -24.4108   -1.1877  -14.2826 C   0  0  0  0  0  0  0  0  0  0  0  0
  -23.3559   -0.5668  -13.6011 C   0  0  0  0  0  0  0  0  0  0  0  0
  -23.5480   -0.2770  -12.2369 C   0  0  0  0  0  0  0  0  0  0  0  0
  -24.7397   -0.6075  -11.5747 C   0  0  0  0  0  0  0  0  0  0  0  0
  -28.1503   -2.2582  -12.4808 O   0  0  0  0  0  0  0  0  0  0  0  0
  -27.3313   -1.5801  -11.4986 S   0  0  0  0  0  0  0  0  0  0  0  0
  -27.7927   -0.3556  -10.8739 O   0  0  0  0  0  0  0  0  0  0  0  0
  -26.9617   -2.7211  -10.3113 N   0  0  0  0  0  0  0  0  0  0  0  0
  -25.9547   -2.7445  -10.1642 H   0  0  0  0  0  0  0  0  0  0  0  0
  -27.5968   -2.5215   -9.0710 C   0  0  0  0  0  0  0  0  0  0  0  0
  -28.5857   -3.3710   -8.6049 C   0  0  0  0  0  0  0  0  0  0  0  0
  -29.1524   -3.0871   -7.3668 C   0  0  0  0  0  0  0  0  0  0  0  0
  -28.7229   -1.9647   -6.6655 C   0  0  0  0  0  0  0  0  0  0  0  0
  -27.7332   -1.1744   -7.2323 C   0  0  0  0  0  0  0  0  0  0  0  0
  -27.1529   -1.4320   -8.4249 N   0  0  0  0  0  0  0  0  0  0  0  0
  -22.1641   -0.1113  -14.2175 N   0  0  0  0  0  0  0  0  0  0  0  0
  -21.9234   -0.7015  -15.0035 H   0  0  0  0  0  0  0  0  0  0  0  0
  -21.6507    1.2048  -14.3772 C   0  0  0  0  0  0  0  0  0  0  0  0
  -22.4264    2.2734  -14.0847 N   0  0  0  0  0  0  0  0  0  0  0  0
  -21.9658    3.5552  -14.1669 N   0  0  0  0  0  0  0  0  0  0  0  0
  -20.7014    3.7643  -14.5578 C   0  0  0  0  0  0  0  0  0  0  0  0
  -19.8361    2.7340  -14.8867 C   0  0  0  0  0  0  0  0  0  0  0  0
  -18.5314    3.0120  -15.3311 C   0  0  0  0  0  0  0  0  0  0  0  0
  -17.6527    1.9784  -15.6415 C   0  0  0  0  0  0  0  0  0  0  0  0
  -18.0592    0.6603  -15.4768 C   0  0  0  0  0  0  0  0  0  0  0  0
  -19.3566    0.3740  -15.0388 C   0  0  0  0  0  0  0  0  0  0  0  0
  -20.2955    1.4029  -14.7632 C   0  0  0  0  0  0  0  0  0  0  0  0
  7  8  2  0  0  0
  8  9  2  0  0  0
  8 10  1  0  0  0
  8  1  1  0  0  0
 10 12  1  0  0  0
 10 11  1  0  0  0
 12 13  1  0  0  0
 12 17  2  0  0  0
 13 14  2  0  0  0
 14 15  1  0  0  0
 15 16  2  0  0  0
 16 17  1  0  0  0
  1  2  1  0  0  0
  1  6  2  0  0  0
  2  3  2  0  0  0
  3  4  1  0  0  0
  4 18  1  0  0  0
  4  5  2  0  0  0
 18 20  1  0  0  0
 18 19  1  0  0  0
 20 21  1  0  0  0
 20 29  2  0  0  0
 21 22  2  0  0  0
 22 23  1  0  0  0
 23 24  2  0  0  0
 24 25  1  0  0  0
 24 29  1  0  0  0
 25 26  2  0  0  0
 26 27  1  0  0  0
 27 28  2  0  0  0
 28 29  1  0  0  0
  5  6  1  0  0  0
M  END
> <minimizedAffinity>
-10.13258

$$$$
