CHEMBL402002


 25 27  0  0  0  0  0  0  0  0999 V2000
  -15.1460    1.0441  -15.6281 C   0  0  0  0  0  0  0  0  0  0  0  0
  -15.0535    1.7353  -16.8544 C   0  0  0  0  0  0  0  0  0  0  0  0
  -13.9039    1.6618  -17.6364 C   0  0  0  0  0  0  0  0  0  0  0  0
  -12.8304    0.8980  -17.1999 C   0  0  0  0  0  0  0  0  0  0  0  0
  -12.9132    0.1976  -15.9903 C   0  0  0  0  0  0  0  0  0  0  0  0
  -14.0737    0.2431  -15.1941 C   0  0  0  0  0  0  0  0  0  0  0  0
  -16.4156    1.0803  -13.6873 O   0  0  0  0  0  0  0  0  0  0  0  0
  -16.4352    1.2330  -14.9046 C   0  0  0  0  0  0  0  0  0  0  0  0
  -17.5376    1.5520  -15.6691 N   0  0  0  0  0  0  0  0  0  0  0  0
  -17.3805    1.6996  -16.6623 H   0  0  0  0  0  0  0  0  0  0  0  0
  -18.8527    1.7547  -15.2004 C   0  0  0  0  0  0  0  0  0  0  0  0
  -19.3542    2.9992  -14.8120 C   0  0  0  0  0  0  0  0  0  0  0  0
  -20.6675    3.1316  -14.3516 C   0  0  0  0  0  0  0  0  0  0  0  0
  -21.4894    2.0149  -14.2791 C   0  0  0  0  0  0  0  0  0  0  0  0
  -23.1048    2.1797  -13.7117 Cl  0  0  0  0  0  0  0  0  0  0  0  0
  -21.0095    0.7663  -14.6628 C   0  0  0  0  0  0  0  0  0  0  0  0
  -19.6928    0.6353  -15.1219 C   0  0  0  0  0  0  0  0  0  0  0  0
  -14.0289   -0.7337  -13.6841 S   0  0  0  0  0  0  0  0  0  0  0  0
  -15.0478   -2.1694  -14.1827 C   0  0  0  0  0  0  0  0  0  0  0  0
  -15.6090   -2.9262  -13.0022 C   0  0  0  0  0  0  0  0  0  0  0  0
  -16.1896   -4.1881  -13.1757 C   0  0  0  0  0  0  0  0  0  0  0  0
  -16.6240   -4.8863  -12.0573 C   0  0  0  0  0  0  0  0  0  0  0  0
  -16.5314   -4.4168  -10.7961 N   0  0  0  0  0  0  0  0  0  0  0  0
  -15.9824   -3.1935  -10.6456 C   0  0  0  0  0  0  0  0  0  0  0  0
  -15.5131   -2.4212  -11.7006 C   0  0  0  0  0  0  0  0  0  0  0  0
  7  8  2  0  0  0
  8  9  1  0  0  0
  8  1  1  0  0  0
  9 11  1  0  0  0
  9 10  1  0  0  0
 11 12  1  0  0  0
 11 17  2  0  0  0
 12 13  2  0  0  0
 13 14  1  0  0  0
 14 15  1  0  0  0
 14 16  2  0  0  0
 16 17  1  0  0  0
  1  2  1  0  0  0
  1  6  2  0  0  0
  2  3  2  0  0  0
  3  4  1  0  0  0
  4  5  2  0  0  0
  5  6  1  0  0  0
  6 18  1  0  0  0
 18 19  1  0  0  0
 19 20  1  0  0  0
 20 21  1  0  0  0
 20 25  2  0  0  0
 21 22  2  0  0  0
 22 23  1  0  0  0
 23 24  2  0  0  0
 24 25  1  0  0  0
M  END
> <minimizedAffinity>
-7.94880

$$$$
