CHEMBL3939278


 33 36  0  0  0  0  0  0  0  0999 V2000
  -28.2078   -2.4918   -8.3099 N   0  0  0  0  0  0  0  0  0  0  0  0
  -27.4994   -2.0902   -9.4874 C   0  0  0  0  0  0  0  0  0  0  0  0
  -26.2923   -1.5201   -9.2966 C   0  0  0  0  0  0  0  0  0  0  0  0
  -25.5690   -1.2798  -10.4055 C   0  0  0  0  0  0  0  0  0  0  0  0
  -25.9873   -1.3527  -11.7046 C   0  0  0  0  0  0  0  0  0  0  0  0
  -25.5606   -0.2122  -12.0380 N   0  0  0  0  0  0  0  0  0  0  0  0
  -24.3760   -0.4105  -12.6967 C   0  0  0  0  0  0  0  0  0  0  0  0
  -24.3804   -0.8306  -13.9312 C   0  0  0  0  0  0  0  0  0  0  0  0
  -25.8605   -1.5752  -13.8304 N   0  0  0  0  0  0  0  0  0  0  0  0
  -26.8764   -1.9569  -12.3936 C   0  0  0  0  0  0  0  0  0  0  0  0
  -27.8442   -2.3240  -10.9665 C   0  0  0  0  0  0  0  0  0  0  0  0
  -22.9895    0.3617  -14.1815 C   0  0  0  0  0  0  0  0  0  0  0  0
  -22.4375    1.8057  -13.9556 C   0  0  0  0  0  0  0  0  0  0  0  0
  -21.1348    2.1129  -14.2768 N   0  0  0  0  0  0  0  0  0  0  0  0
  -20.5902    0.9690  -14.7070 N   0  0  0  0  0  0  0  0  0  0  0  0
  -19.1214    0.8874  -15.0306 C   0  0  0  0  0  0  0  0  0  0  0  0
  -21.6319   -0.0526  -14.7024 C   0  0  0  0  0  0  0  0  0  0  0  0
  -28.1929   -1.7551   -7.1161 C   0  0  0  0  0  0  0  0  0  0  0  0
  -28.7079   -0.4629   -7.1009 C   0  0  0  0  0  0  0  0  0  0  0  0
  -28.8853    0.3095   -5.9851 C   0  0  0  0  0  0  0  0  0  0  0  0
  -28.6204   -0.2847   -4.7770 C   0  0  0  0  0  0  0  0  0  0  0  0
  -28.2052   -1.6200   -4.7140 C   0  0  0  0  0  0  0  0  0  0  0  0
  -27.8546   -2.3049   -5.8860 C   0  0  0  0  0  0  0  0  0  0  0  0
  -29.4151    1.5665   -6.0188 O   0  0  0  0  0  0  0  0  0  0  0  0
  -30.7982    1.6685   -6.3921 C   0  0  0  0  0  0  0  0  0  0  0  0
  -28.1943   -2.3362   -3.5437 O   0  0  0  0  0  0  0  0  0  0  0  0
  -28.4616   -3.7371   -3.6811 C   0  0  0  0  0  0  0  0  0  0  0  0
  -29.0062   -3.7944   -8.3590 C   0  0  0  0  0  0  0  0  0  0  0  0
  -28.1916   -5.0751   -8.0818 C   0  0  0  0  0  0  0  0  0  0  0  0
  -28.4898   -5.7621   -6.8415 N   0  0  0  0  0  0  0  0  0  0  0  0
  -28.1251   -6.7049   -6.9029 H   0  0  0  0  0  0  0  0  0  0  0  0
  -30.4675   -7.0380   -7.2981 C   0  0  0  0  0  0  0  0  0  0  0  0
  -29.9464   -5.7716   -6.6719 C   0  0  0  0  0  0  0  0  0  0  0  0
 32 33  1  0  0  0
 33 30  1  0  0  0
 30 29  1  0  0  0
 30 31  1  0  0  0
 29 28  1  0  0  0
 28  1  1  0  0  0
  1 18  1  0  0  0
  1  2  1  0  0  0
 18 19  1  0  0  0
 18 23  2  0  0  0
 19 20  2  0  0  0
 20 24  1  0  0  0
 20 21  1  0  0  0
 24 25  1  0  0  0
 21 22  2  0  0  0
 22 26  1  0  0  0
 22 23  1  0  0  0
 26 27  1  0  0  0
  2  3  1  0  0  0
  2 11  2  0  0  0
  3  4  2  0  0  0
  4  5  1  0  0  0
  5  6  1  0  0  0
  5 10  2  0  0  0
  6  7  2  0  0  0
  7  8  1  0  0  0
  8 12  1  0  0  0
  8  9  2  0  0  0
 12 13  1  0  0  0
 12 17  2  0  0  0
 13 14  2  0  0  0
 14 15  1  0  0  0
 15 16  1  0  0  0
 15 17  1  0  0  0
  9 10  1  0  0  0
 10 11  1  0  0  0
M  END
> <minimizedAffinity>
-7.53832

$$$$
