CHEMBL4088941


 29 32  0  0  0  0  0  0  0  0999 V2000
  -30.3858   -5.8573   -5.1773 C   0  0  0  0  0  0  0  0  0  0  0  0
  -31.2044   -6.1511   -4.1378 N   0  0  0  0  0  0  0  0  0  0  0  0
  -31.6056   -5.1705   -3.3133 C   0  0  0  0  0  0  0  0  0  0  0  0
  -32.4522   -5.5350   -2.2832 N   0  0  0  0  0  0  0  0  0  0  0  0
  -31.2354   -3.8861   -3.3579 N   0  0  0  0  0  0  0  0  0  0  0  0
  -30.4517   -3.6218   -4.4102 C   0  0  0  0  0  0  0  0  0  0  0  0
  -29.9286   -2.3933   -4.7000 N   0  0  0  0  0  0  0  0  0  0  0  0
  -29.2014   -2.4461   -5.8663 C   0  0  0  0  0  0  0  0  0  0  0  0
  -28.5105   -1.4359   -6.5474 C   0  0  0  0  0  0  0  0  0  0  0  0
  -27.8734   -1.7784   -7.7446 C   0  0  0  0  0  0  0  0  0  0  0  0
  -27.9271   -3.0829   -8.2232 C   0  0  0  0  0  0  0  0  0  0  0  0
  -27.3270   -3.4279   -9.4002 O   0  0  0  0  0  0  0  0  0  0  0  0
  -28.5964   -4.0888   -7.5267 C   0  0  0  0  0  0  0  0  0  0  0  0
  -29.2516   -3.7689   -6.3202 C   0  0  0  0  0  0  0  0  0  0  0  0
  -30.0188   -4.5165   -5.3685 C   0  0  0  0  0  0  0  0  0  0  0  0
  -32.3511   -6.5221   -2.0967 H   0  0  0  0  0  0  0  0  0  0  0  0
  -32.3370   -4.8979   -1.5078 H   0  0  0  0  0  0  0  0  0  0  0  0
  -30.0730   -1.5742   -4.1308 H   0  0  0  0  0  0  0  0  0  0  0  0
  -26.9246   -2.6339   -9.7881 H   0  0  0  0  0  0  0  0  0  0  0  0
  -29.8936   -6.8621   -6.0151 N   0  0  0  0  0  0  0  0  0  0  0  0
  -28.9359   -6.6177   -6.2502 H   0  0  0  0  0  0  0  0  0  0  0  0
  -31.9632   -7.8795   -6.9473 C   0  0  0  0  0  0  0  0  0  0  0  0
  -30.6526   -7.1350   -7.2413 C   0  0  0  0  0  0  0  0  0  0  0  0
  -29.8194   -8.0348   -8.1547 C   0  0  0  0  0  0  0  0  0  0  0  0
  -30.3663   -9.2257   -8.6586 C   0  0  0  0  0  0  0  0  0  0  0  0
  -29.5736  -10.1225   -9.3794 C   0  0  0  0  0  0  0  0  0  0  0  0
  -28.2292   -9.8386   -9.6130 C   0  0  0  0  0  0  0  0  0  0  0  0
  -27.6759   -8.6533   -9.1360 C   0  0  0  0  0  0  0  0  0  0  0  0
  -28.4631   -7.7613   -8.4079 C   0  0  0  0  0  0  0  0  0  0  0  0
 22 23  1  0  0  0
 23 20  1  0  0  0
 23 24  1  0  0  0
 20  1  1  0  0  0
 20 21  1  0  0  0
  1  2  1  0  0  0
  1 15  2  0  0  0
  2  3  2  0  0  0
  3  4  1  0  0  0
  3  5  1  0  0  0
  4 16  1  0  0  0
  4 17  1  0  0  0
  5  6  2  0  0  0
  6  7  1  0  0  0
  6 15  1  0  0  0
  7  8  1  0  0  0
  7 18  1  0  0  0
  8  9  1  0  0  0
  8 14  2  0  0  0
  9 10  2  0  0  0
 10 11  1  0  0  0
 11 12  1  0  0  0
 11 13  2  0  0  0
 12 19  1  0  0  0
 13 14  1  0  0  0
 14 15  1  0  0  0
 24 25  1  0  0  0
 24 29  2  0  0  0
 25 26  2  0  0  0
 26 27  1  0  0  0
 27 28  2  0  0  0
 28 29  1  0  0  0
M  END
> <minimizedAffinity>
-9.13688

$$$$
