CHEMBL278965


 45 48  0  0  0  0  0  0  0  0999 V2000
  -29.1299   -8.8705   -6.8323 C   0  0  0  0  0  0  0  0  0  0  0  0
  -28.8983   -7.5686   -7.3127 C   0  0  0  0  0  0  0  0  0  0  0  0
  -29.9635   -6.6816   -7.4964 C   0  0  0  0  0  0  0  0  0  0  0  0
  -31.2739   -7.1302   -7.3076 C   0  0  0  0  0  0  0  0  0  0  0  0
  -31.5146   -8.4481   -6.9100 C   0  0  0  0  0  0  0  0  0  0  0  0
  -30.4490   -9.3270   -6.6519 C   0  0  0  0  0  0  0  0  0  0  0  0
  -30.7431  -10.7067   -6.1336 C   0  0  0  0  0  0  0  0  0  0  0  0
  -29.7275   -5.2331   -7.7623 C   0  0  0  0  0  0  0  0  0  0  0  0
  -30.6792   -4.5174   -8.0560 O   0  0  0  0  0  0  0  0  0  0  0  0
  -28.4085   -4.8206   -7.7169 N   0  0  0  0  0  0  0  0  0  0  0  0
  -27.6873   -5.5167   -7.8512 H   0  0  0  0  0  0  0  0  0  0  0  0
  -27.9904   -3.4853   -7.9242 C   0  0  0  0  0  0  0  0  0  0  0  0
  -27.5532   -3.1021   -9.2047 C   0  0  0  0  0  0  0  0  0  0  0  0
  -27.3873   -1.7489   -9.5298 C   0  0  0  0  0  0  0  0  0  0  0  0
  -27.5709   -0.7938   -8.5263 C   0  0  0  0  0  0  0  0  0  0  0  0
  -27.9538   -1.1822   -7.2390 C   0  0  0  0  0  0  0  0  0  0  0  0
  -28.1948   -2.5275   -6.9015 C   0  0  0  0  0  0  0  0  0  0  0  0
  -27.0996   -1.3013  -10.9393 C   0  0  0  0  0  0  0  0  0  0  0  0
  -25.9110   -0.6528  -11.0864 F   0  0  0  0  0  0  0  0  0  0  0  0
  -27.0499   -2.3544  -11.8073 F   0  0  0  0  0  0  0  0  0  0  0  0
  -28.0515   -0.4636  -11.4362 F   0  0  0  0  0  0  0  0  0  0  0  0
  -28.5945   -2.8599   -5.6084 N   0  0  0  0  0  0  0  0  0  0  0  0
  -29.9786   -2.7293   -5.1686 C   0  0  0  0  0  0  0  0  0  0  0  0
  -27.6212   -3.3549   -4.6317 C   0  0  0  0  0  0  0  0  0  0  0  0
  -28.3197   -4.2545   -3.6125 C   0  0  0  0  0  0  0  0  0  0  0  0
  -28.4592   -5.6812   -4.1459 C   0  0  0  0  0  0  0  0  0  0  0  0
  -29.4550   -6.4791   -3.4109 N   0  0  0  0  0  0  0  0  0  0  0  0
  -30.8242   -6.2129   -3.8579 C   0  0  0  0  0  0  0  0  0  0  0  0
  -29.1559   -7.9059   -3.5585 C   0  0  0  0  0  0  0  0  0  0  0  0
  -28.0867   -9.7409   -6.5427 O   0  0  0  0  0  0  0  0  0  0  0  0
  -26.0952  -10.7538   -7.4716 C   0  0  0  0  0  0  0  0  0  0  0  0
  -25.5383  -11.4122   -8.5924 C   0  0  0  0  0  0  0  0  0  0  0  0
  -26.2683  -11.6305   -9.7554 C   0  0  0  0  0  0  0  0  0  0  0  0
  -27.5580  -11.1570   -9.7967 C   0  0  0  0  0  0  0  0  0  0  0  0
  -28.1401  -10.5164   -8.7663 N   0  0  0  0  0  0  0  0  0  0  0  0
  -27.4310  -10.3566   -7.6104 C   0  0  0  0  0  0  0  0  0  0  0  0
  -23.1455  -10.4300   -5.4517 C   0  0  0  0  0  0  0  0  0  0  0  0
  -23.5914  -10.3450   -4.2079 N   0  0  0  0  0  0  0  0  0  0  0  0
  -24.9206  -10.3682   -4.0869 C   0  0  0  0  0  0  0  0  0  0  0  0
  -25.8035  -10.4659   -5.0758 N   0  0  0  0  0  0  0  0  0  0  0  0
  -25.2552  -10.5396   -6.2841 C   0  0  0  0  0  0  0  0  0  0  0  0
  -23.9312  -10.5177   -6.5109 N   0  0  0  0  0  0  0  0  0  0  0  0
  -21.4274  -10.4804   -7.1297 C   0  0  0  0  0  0  0  0  0  0  0  0
  -21.7852  -10.4660   -5.7308 N   0  0  0  0  0  0  0  0  0  0  0  0
  -21.3907  -11.2136   -5.1712 H   0  0  0  0  0  0  0  0  0  0  0  0
 43 44  1  0  0  0
 44 37  1  0  0  0
 44 45  1  0  0  0
 37 38  1  0  0  0
 37 42  2  0  0  0
 38 39  2  0  0  0
 39 40  1  0  0  0
 40 41  2  0  0  0
 41 31  1  0  0  0
 41 42  1  0  0  0
 31 32  1  0  0  0
 31 36  2  0  0  0
 32 33  2  0  0  0
 33 34  1  0  0  0
 34 35  2  0  0  0
 35 36  1  0  0  0
 36 30  1  0  0  0
 30  1  1  0  0  0
  1  2  1  0  0  0
  1  6  2  0  0  0
  2  3  2  0  0  0
  3  8  1  0  0  0
  3  4  1  0  0  0
  8  9  2  0  0  0
  8 10  1  0  0  0
 10 12  1  0  0  0
 10 11  1  0  0  0
 12 13  1  0  0  0
 12 17  2  0  0  0
 13 14  2  0  0  0
 14 18  1  0  0  0
 14 15  1  0  0  0
 18 19  1  0  0  0
 18 20  1  0  0  0
 18 21  1  0  0  0
 15 16  2  0  0  0
 16 17  1  0  0  0
 17 22  1  0  0  0
 22 23  1  0  0  0
 22 24  1  0  0  0
 24 25  1  0  0  0
 25 26  1  0  0  0
 26 27  1  0  0  0
 27 28  1  0  0  0
 27 29  1  0  0  0
  4  5  2  0  0  0
  5  6  1  0  0  0
  6  7  1  0  0  0
M  END
> <minimizedAffinity>
-8.14005

$$$$
