CHEMBL3740910


 40 44  0  0  0  0  0  0  0  0999 V2000
  -20.0427    0.9650  -15.0060 C   0  0  0  0  0  0  0  0  0  0  0  0
  -20.3075    2.2440  -15.4903 C   0  0  0  0  0  0  0  0  0  0  0  0
  -19.2595    3.1087  -15.8048 C   0  0  0  0  0  0  0  0  0  0  0  0
  -17.9357    2.7634  -15.6001 C   0  0  0  0  0  0  0  0  0  0  0  0
  -17.0090    3.6164  -16.0378 N   0  0  0  0  0  0  0  0  0  0  0  0
  -15.7367    3.2931  -15.8075 C   0  0  0  0  0  0  0  0  0  0  0  0
  -15.3183    2.2640  -15.0745 N   0  0  0  0  0  0  0  0  0  0  0  0
  -16.2651    1.4389  -14.5859 C   0  0  0  0  0  0  0  0  0  0  0  0
  -17.6378    1.5619  -14.9413 C   0  0  0  0  0  0  0  0  0  0  0  0
  -18.7113    0.6301  -14.7071 C   0  0  0  0  0  0  0  0  0  0  0  0
  -22.0926    1.0973  -13.1136 O   0  0  0  0  0  0  0  0  0  0  0  0
  -22.1356    0.2132  -13.9616 C   0  0  0  0  0  0  0  0  0  0  0  0
  -23.1607   -0.7199  -14.0871 N   0  0  0  0  0  0  0  0  0  0  0  0
  -21.1024    0.0227  -14.8784 N   0  0  0  0  0  0  0  0  0  0  0  0
  -23.1089   -1.3740  -14.8541 H   0  0  0  0  0  0  0  0  0  0  0  0
  -20.9264   -0.9251  -15.1751 H   0  0  0  0  0  0  0  0  0  0  0  0
  -24.2708   -0.8566  -13.2083 C   0  0  0  0  0  0  0  0  0  0  0  0
  -24.2041   -0.5386  -11.8445 C   0  0  0  0  0  0  0  0  0  0  0  0
  -25.2671   -0.7978  -10.9754 C   0  0  0  0  0  0  0  0  0  0  0  0
  -26.4526   -1.3676  -11.4428 C   0  0  0  0  0  0  0  0  0  0  0  0
  -26.5524   -1.6320  -12.8159 C   0  0  0  0  0  0  0  0  0  0  0  0
  -25.4729   -1.3762  -13.6889 C   0  0  0  0  0  0  0  0  0  0  0  0
  -27.5528   -1.7427  -10.4647 C   0  0  0  0  0  0  0  0  0  0  0  0
  -27.1820   -2.1816   -9.1182 N   0  0  0  0  0  0  0  0  0  0  0  0
  -27.5846   -3.5409   -8.7700 C   0  0  0  0  0  0  0  0  0  0  0  0
  -28.8277   -3.3819   -7.9186 C   0  0  0  0  0  0  0  0  0  0  0  0
  -28.5927   -2.0812   -7.1740 C   0  0  0  0  0  0  0  0  0  0  0  0
  -27.5823   -1.3087   -8.0155 C   0  0  0  0  0  0  0  0  0  0  0  0
  -15.8821    0.5529  -13.5259 N   0  0  0  0  0  0  0  0  0  0  0  0
  -15.2565    1.1048  -12.9394 H   0  0  0  0  0  0  0  0  0  0  0  0
  -15.3140   -0.7472  -13.7066 C   0  0  0  0  0  0  0  0  0  0  0  0
  -14.1547   -0.9430  -14.4673 C   0  0  0  0  0  0  0  0  0  0  0  0
  -13.6606   -2.2266  -14.7255 C   0  0  0  0  0  0  0  0  0  0  0  0
  -14.3238   -3.3454  -14.2383 C   0  0  0  0  0  0  0  0  0  0  0  0
  -15.4925   -3.1924  -13.4805 C   0  0  0  0  0  0  0  0  0  0  0  0
  -15.9855   -1.8918  -13.2328 C   0  0  0  0  0  0  0  0  0  0  0  0
  -16.2193   -4.4032  -12.9418 C   0  0  0  0  0  0  0  0  0  0  0  0
  -17.2093   -4.8577  -13.7601 F   0  0  0  0  0  0  0  0  0  0  0  0
  -15.3910   -5.4660  -12.7392 F   0  0  0  0  0  0  0  0  0  0  0  0
  -16.8143   -4.1610  -11.7414 F   0  0  0  0  0  0  0  0  0  0  0  0
 11 12  2  0  0  0
 12 13  1  0  0  0
 12 14  1  0  0  0
 13 17  1  0  0  0
 13 15  1  0  0  0
 17 18  1  0  0  0
 17 22  2  0  0  0
 18 19  2  0  0  0
 19 20  1  0  0  0
 20 23  1  0  0  0
 20 21  2  0  0  0
 23 24  1  0  0  0
 24 25  1  0  0  0
 24 28  1  0  0  0
 25 26  1  0  0  0
 26 27  1  0  0  0
 27 28  1  0  0  0
 21 22  1  0  0  0
 14  1  1  0  0  0
 14 16  1  0  0  0
  1  2  1  0  0  0
  1 10  2  0  0  0
  2  3  2  0  0  0
  3  4  1  0  0  0
  4  5  1  0  0  0
  4  9  2  0  0  0
  5  6  2  0  0  0
  6  7  1  0  0  0
  7  8  2  0  0  0
  8 29  1  0  0  0
  8  9  1  0  0  0
 29 31  1  0  0  0
 29 30  1  0  0  0
 31 32  1  0  0  0
 31 36  2  0  0  0
 32 33  2  0  0  0
 33 34  1  0  0  0
 34 35  2  0  0  0
 35 37  1  0  0  0
 35 36  1  0  0  0
 37 38  1  0  0  0
 37 39  1  0  0  0
 37 40  1  0  0  0
  9 10  1  0  0  0
M  END
> <minimizedAffinity>
-10.51047

$$$$
