CHEMBL3288508


 35 39  0  0  0  0  0  0  0  0999 V2000
  -26.3141   -1.6216  -11.9705 C   0  0  0  0  0  0  0  0  0  0  0  0
  -27.3835   -1.9801  -12.8064 C   0  0  0  0  0  0  0  0  0  0  0  0
  -27.2755   -1.8171  -14.1835 C   0  0  0  0  0  0  0  0  0  0  0  0
  -26.0859   -1.3425  -14.7358 C   0  0  0  0  0  0  0  0  0  0  0  0
  -24.9900   -0.9991  -13.9253 C   0  0  0  0  0  0  0  0  0  0  0  0
  -23.7815   -0.5494  -14.5056 C   0  0  0  0  0  0  0  0  0  0  0  0
  -22.6790   -0.1207  -13.7399 C   0  0  0  0  0  0  0  0  0  0  0  0
  -22.8562   -0.1196  -12.3566 C   0  0  0  0  0  0  0  0  0  0  0  0
  -24.0071   -0.6458  -11.7600 C   0  0  0  0  0  0  0  0  0  0  0  0
  -25.1040   -1.1025  -12.5204 C   0  0  0  0  0  0  0  0  0  0  0  0
  -21.4219    0.3505  -14.3694 C   0  0  0  0  0  0  0  0  0  0  0  0
  -20.4809   -0.5884  -14.8729 C   0  0  0  0  0  0  0  0  0  0  0  0
  -19.2928   -0.2079  -15.4952 C   0  0  0  0  0  0  0  0  0  0  0  0
  -18.9829    1.1346  -15.6636 C   0  0  0  0  0  0  0  0  0  0  0  0
  -19.9002    2.0695  -15.1748 C   0  0  0  0  0  0  0  0  0  0  0  0
  -19.8616    3.4350  -15.2200 N   0  0  0  0  0  0  0  0  0  0  0  0
  -20.9035    4.0347  -14.6431 N   0  0  0  0  0  0  0  0  0  0  0  0
  -21.6460    3.0259  -14.1996 C   0  0  0  0  0  0  0  0  0  0  0  0
  -22.7795    3.2770  -13.5300 N   0  0  0  0  0  0  0  0  0  0  0  0
  -21.0939    1.7364  -14.5245 C   0  0  0  0  0  0  0  0  0  0  0  0
  -19.1457    4.0188  -15.6359 H   0  0  0  0  0  0  0  0  0  0  0  0
  -22.9569    4.2470  -13.2954 H   0  0  0  0  0  0  0  0  0  0  0  0
  -23.1278    2.6253  -12.8368 H   0  0  0  0  0  0  0  0  0  0  0  0
  -27.7183   -2.2508  -10.0893 N   0  0  0  0  0  0  0  0  0  0  0  0
  -26.4607   -1.8338  -10.4962 C   0  0  0  0  0  0  0  0  0  0  0  0
  -25.4962   -1.5939   -9.7852 O   0  0  0  0  0  0  0  0  0  0  0  0
  -28.4291   -2.2998  -10.8072 H   0  0  0  0  0  0  0  0  0  0  0  0
  -30.0065   -5.2608   -6.9375 C   0  0  0  0  0  0  0  0  0  0  0  0
  -29.3503   -3.9389   -7.2109 C   0  0  0  0  0  0  0  0  0  0  0  0
  -29.2960   -2.9602   -6.2162 C   0  0  0  0  0  0  0  0  0  0  0  0
  -28.6616   -1.7490   -6.4706 C   0  0  0  0  0  0  0  0  0  0  0  0
  -28.0957   -1.4963   -7.7203 C   0  0  0  0  0  0  0  0  0  0  0  0
  -27.4377   -0.3390   -7.8413 F   0  0  0  0  0  0  0  0  0  0  0  0
  -28.1790   -2.4332   -8.7583 C   0  0  0  0  0  0  0  0  0  0  0  0
  -28.7915   -3.6682   -8.4741 C   0  0  0  0  0  0  0  0  0  0  0  0
 28 29  1  0  0  0
 29 30  1  0  0  0
 29 35  2  0  0  0
 30 31  2  0  0  0
 31 32  1  0  0  0
 32 33  1  0  0  0
 32 34  2  0  0  0
 34 24  1  0  0  0
 34 35  1  0  0  0
 24 25  1  0  0  0
 24 27  1  0  0  0
 25 26  2  0  0  0
 25  1  1  0  0  0
  1  2  1  0  0  0
  1 10  2  0  0  0
  2  3  2  0  0  0
  3  4  1  0  0  0
  4  5  2  0  0  0
  5  6  1  0  0  0
  5 10  1  0  0  0
  6  7  2  0  0  0
  7 11  1  0  0  0
  7  8  1  0  0  0
 11 12  1  0  0  0
 11 20  2  0  0  0
 12 13  2  0  0  0
 13 14  1  0  0  0
 14 15  2  0  0  0
 15 16  1  0  0  0
 15 20  1  0  0  0
 16 17  1  0  0  0
 16 21  1  0  0  0
 17 18  2  0  0  0
 18 19  1  0  0  0
 18 20  1  0  0  0
 19 22  1  0  0  0
 19 23  1  0  0  0
  8  9  2  0  0  0
  9 10  1  0  0  0
M  END
> <minimizedAffinity>
-11.28256

$$$$
