CHEMBL4476746


 35 38  0  0  0  0  0  0  0  0999 V2000
  -18.4819    1.9631  -14.9192 C   0  0  0  0  0  0  0  0  0  0  0  0
  -17.4521    1.0480  -15.1192 C   0  0  0  0  0  0  0  0  0  0  0  0
  -16.2384    1.4385  -15.6868 C   0  0  0  0  0  0  0  0  0  0  0  0
  -16.0110    2.7755  -16.0362 C   0  0  0  0  0  0  0  0  0  0  0  0
  -17.0670    3.6865  -15.8966 C   0  0  0  0  0  0  0  0  0  0  0  0
  -18.3004    3.2777  -15.3576 C   0  0  0  0  0  0  0  0  0  0  0  0
  -20.5893    0.6468  -14.7719 C   0  0  0  0  0  0  0  0  0  0  0  0
  -20.3967   -0.0982  -15.7308 O   0  0  0  0  0  0  0  0  0  0  0  0
  -19.7058    1.6080  -14.3008 N   0  0  0  0  0  0  0  0  0  0  0  0
  -19.9229    2.0887  -13.4398 H   0  0  0  0  0  0  0  0  0  0  0  0
  -24.2838    0.0696  -12.6551 C   0  0  0  0  0  0  0  0  0  0  0  0
  -23.8788    1.3679  -12.9752 C   0  0  0  0  0  0  0  0  0  0  0  0
  -22.6811    1.5901  -13.6684 C   0  0  0  0  0  0  0  0  0  0  0  0
  -21.8873    0.5042  -14.0536 C   0  0  0  0  0  0  0  0  0  0  0  0
  -22.2949   -0.7949  -13.7263 C   0  0  0  0  0  0  0  0  0  0  0  0
  -23.4865   -1.0094  -13.0367 C   0  0  0  0  0  0  0  0  0  0  0  0
  -26.1701   -1.3657  -12.4910 C   0  0  0  0  0  0  0  0  0  0  0  0
  -25.4160   -0.2775  -11.9753 O   0  0  0  0  0  0  0  0  0  0  0  0
  -14.6556    3.2949  -16.4347 C   0  0  0  0  0  0  0  0  0  0  0  0
  -13.8533    2.5557  -16.9946 O   0  0  0  0  0  0  0  0  0  0  0  0
  -14.4660    4.6487  -16.2087 N   0  0  0  0  0  0  0  0  0  0  0  0
  -15.1939    5.1501  -15.7150 H   0  0  0  0  0  0  0  0  0  0  0  0
  -13.7958    5.3863  -17.1505 N   0  0  0  0  0  0  0  0  0  0  0  0
  -12.7008    5.9403  -16.6730 C   0  0  0  0  0  0  0  0  0  0  0  0
  -12.0441    5.7241  -15.3031 C   0  0  0  0  0  0  0  0  0  0  0  0
  -12.2554    4.7803  -14.5759 O   0  0  0  0  0  0  0  0  0  0  0  0
  -11.2979    6.8412  -15.0616 N   0  0  0  0  0  0  0  0  0  0  0  0
  -11.5063    7.7564  -16.0966 C   0  0  0  0  0  0  0  0  0  0  0  0
  -11.5882    9.1217  -15.9068 C   0  0  0  0  0  0  0  0  0  0  0  0
  -12.2051    9.8729  -16.9155 C   0  0  0  0  0  0  0  0  0  0  0  0
  -12.6403    9.2689  -18.1125 C   0  0  0  0  0  0  0  0  0  0  0  0
  -13.3743   10.2355  -19.3307 Cl  0  0  0  0  0  0  0  0  0  0  0  0
  -12.6014    7.8898  -18.2720 C   0  0  0  0  0  0  0  0  0  0  0  0
  -12.1225    7.1703  -17.2003 C   0  0  0  0  0  0  0  0  0  0  0  0
  -10.3810    6.7045  -14.6561 H   0  0  0  0  0  0  0  0  0  0  0  0
 17 18  1  0  0  0
 18 11  1  0  0  0
 11 12  1  0  0  0
 11 16  2  0  0  0
 12 13  2  0  0  0
 13 14  1  0  0  0
 14  7  1  0  0  0
 14 15  2  0  0  0
  7  8  2  0  0  0
  7  9  1  0  0  0
  9  1  1  0  0  0
  9 10  1  0  0  0
  1  2  1  0  0  0
  1  6  2  0  0  0
  2  3  2  0  0  0
  3  4  1  0  0  0
  4 19  1  0  0  0
  4  5  2  0  0  0
 19 20  2  0  0  0
 19 21  1  0  0  0
 21 23  1  0  0  0
 21 22  1  0  0  0
 23 24  2  0  0  0
 24 25  1  0  0  0
 24 34  1  0  0  0
 25 26  2  0  0  0
 25 27  1  0  0  0
 27 28  1  0  0  0
 27 35  1  0  0  0
 28 29  1  0  0  0
 28 34  2  0  0  0
 29 30  2  0  0  0
 30 31  1  0  0  0
 31 32  1  0  0  0
 31 33  2  0  0  0
 33 34  1  0  0  0
  5  6  1  0  0  0
 15 16  1  0  0  0
M  END
> <minimizedAffinity>
-8.78273

$$$$
