CHEMBL1095360


 50 55  0  0  0  0  0  0  0  0999 V2000
  -22.8408    0.5807  -13.6949 C   0  0  0  0  0  0  0  0  0  0  0  0
  -22.6892    1.9644  -13.7473 C   0  0  0  0  0  0  0  0  0  0  0  0
  -21.5794    2.5216  -14.3509 C   0  0  0  0  0  0  0  0  0  0  0  0
  -20.5986    1.6971  -14.8982 C   0  0  0  0  0  0  0  0  0  0  0  0
  -20.7693    0.3115  -14.9017 C   0  0  0  0  0  0  0  0  0  0  0  0
  -21.8770   -0.2433  -14.2664 C   0  0  0  0  0  0  0  0  0  0  0  0
  -21.9547   -1.5792  -14.1971 F   0  0  0  0  0  0  0  0  0  0  0  0
  -19.4249    2.2268  -15.4452 N   0  0  0  0  0  0  0  0  0  0  0  0
  -18.2194    2.2977  -14.7757 C   0  0  0  0  0  0  0  0  0  0  0  0
  -17.9512    1.8054  -13.6891 O   0  0  0  0  0  0  0  0  0  0  0  0
  -19.4642    2.5221  -16.4112 H   0  0  0  0  0  0  0  0  0  0  0  0
  -17.2288    3.0591  -15.4904 C   0  0  0  0  0  0  0  0  0  0  0  0
  -17.1420    4.4406  -15.6865 C   0  0  0  0  0  0  0  0  0  0  0  0
  -16.0128    4.7854  -16.2904 N   0  0  0  0  0  0  0  0  0  0  0  0
  -15.4228    3.6053  -16.6349 N   0  0  0  0  0  0  0  0  0  0  0  0
  -16.0952    2.5335  -16.0906 C   0  0  0  0  0  0  0  0  0  0  0  0
  -14.2578    3.6485  -17.4399 C   0  0  0  0  0  0  0  0  0  0  0  0
  -13.0094    3.6136  -16.8027 C   0  0  0  0  0  0  0  0  0  0  0  0
  -11.8385    3.6400  -17.5576 C   0  0  0  0  0  0  0  0  0  0  0  0
  -11.9086    3.7311  -18.9400 C   0  0  0  0  0  0  0  0  0  0  0  0
  -13.1467    3.8030  -19.5785 C   0  0  0  0  0  0  0  0  0  0  0  0
  -14.3232    3.7634  -18.8293 C   0  0  0  0  0  0  0  0  0  0  0  0
  -15.5623    1.1589  -16.0539 C   0  0  0  0  0  0  0  0  0  0  0  0
  -14.4663    1.0355  -15.2672 F   0  0  0  0  0  0  0  0  0  0  0  0
  -16.4706    0.2609  -15.5978 F   0  0  0  0  0  0  0  0  0  0  0  0
  -15.1661    0.7395  -17.2841 F   0  0  0  0  0  0  0  0  0  0  0  0
  -23.9444    0.2398  -12.9852 O   0  0  0  0  0  0  0  0  0  0  0  0
  -27.0527   -1.7987  -10.4892 C   0  0  0  0  0  0  0  0  0  0  0  0
  -27.7026   -2.0929  -11.6770 C   0  0  0  0  0  0  0  0  0  0  0  0
  -26.9284   -1.7641  -12.8344 C   0  0  0  0  0  0  0  0  0  0  0  0
  -27.3091   -1.9074  -14.1355 N   0  0  0  0  0  0  0  0  0  0  0  0
  -26.4648   -1.3776  -15.0511 C   0  0  0  0  0  0  0  0  0  0  0  0
  -25.2991   -0.6897  -14.7711 C   0  0  0  0  0  0  0  0  0  0  0  0
  -24.9074   -0.5955  -13.4466 C   0  0  0  0  0  0  0  0  0  0  0  0
  -25.7300   -1.1682  -12.4748 C   0  0  0  0  0  0  0  0  0  0  0  0
  -25.4827   -1.1943  -10.7826 S   0  0  0  0  0  0  0  0  0  0  0  0
  -28.2794   -1.9292   -6.4607 C   0  0  0  0  0  0  0  0  0  0  0  0
  -28.5754   -3.0189   -7.2852 C   0  0  0  0  0  0  0  0  0  0  0  0
  -28.1806   -3.0052   -8.6240 C   0  0  0  0  0  0  0  0  0  0  0  0
  -27.5034   -1.8908   -9.1017 C   0  0  0  0  0  0  0  0  0  0  0  0
  -27.2524   -0.7998   -8.3340 N   0  0  0  0  0  0  0  0  0  0  0  0
  -27.6578   -0.8356   -7.0419 C   0  0  0  0  0  0  0  0  0  0  0  0
  -29.7639   -2.6908   -4.6876 N   0  0  0  0  0  0  0  0  0  0  0  0
  -28.6286   -1.9819   -5.0263 C   0  0  0  0  0  0  0  0  0  0  0  0
  -27.9475   -1.3657   -4.2157 O   0  0  0  0  0  0  0  0  0  0  0  0
  -30.2958   -3.2213   -5.3603 H   0  0  0  0  0  0  0  0  0  0  0  0
  -30.1883   -2.8252   -3.2978 C   0  0  0  0  0  0  0  0  0  0  0  0
  -31.2612   -3.9055   -3.1356 C   0  0  0  0  0  0  0  0  0  0  0  0
  -31.0421   -6.0542   -4.0790 C   0  0  0  0  0  0  0  0  0  0  0  0
  -31.3436   -4.6859   -4.3339 O   0  0  0  0  0  0  0  0  0  0  0  0
 49 50  1  0  0  0
 50 48  1  0  0  0
 48 47  1  0  0  0
 47 43  1  0  0  0
 43 44  1  0  0  0
 43 46  1  0  0  0
 44 45  2  0  0  0
 44 37  1  0  0  0
 37 38  1  0  0  0
 37 42  2  0  0  0
 38 39  2  0  0  0
 39 40  1  0  0  0
 40 28  1  0  0  0
 40 41  2  0  0  0
 28 29  2  0  0  0
 28 36  1  0  0  0
 29 30  1  0  0  0
 30 31  1  0  0  0
 30 35  2  0  0  0
 31 32  2  0  0  0
 32 33  1  0  0  0
 33 34  2  0  0  0
 34 27  1  0  0  0
 34 35  1  0  0  0
 27  1  1  0  0  0
  1  2  1  0  0  0
  1  6  2  0  0  0
  2  3  2  0  0  0
  3  4  1  0  0  0
  4  8  1  0  0  0
  4  5  2  0  0  0
  8  9  1  0  0  0
  8 11  1  0  0  0
  9 10  2  0  0  0
  9 12  1  0  0  0
 12 13  1  0  0  0
 12 16  2  0  0  0
 13 14  2  0  0  0
 14 15  1  0  0  0
 15 17  1  0  0  0
 15 16  1  0  0  0
 17 18  1  0  0  0
 17 22  2  0  0  0
 18 19  2  0  0  0
 19 20  1  0  0  0
 20 21  2  0  0  0
 21 22  1  0  0  0
 16 23  1  0  0  0
 23 24  1  0  0  0
 23 25  1  0  0  0
 23 26  1  0  0  0
  5  6  1  0  0  0
  6  7  1  0  0  0
 35 36  1  0  0  0
 41 42  1  0  0  0
M  END
> <minimizedAffinity>
-9.41755

$$$$
