CHEMBL2001613


 13 14  0  0  0  0  0  0  0  0999 V2000
  -26.1271   -1.5314   -9.8335 O   0  0  0  0  0  0  0  0  0  0  0  0
  -26.4988   -1.6448  -10.9858 C   0  0  0  0  0  0  0  0  0  0  0  0
  -27.7283   -2.0771  -11.4498 N   0  0  0  0  0  0  0  0  0  0  0  0
  -27.7253   -2.3028  -12.8532 N   0  0  0  0  0  0  0  0  0  0  0  0
  -26.5144   -1.6978  -13.2553 C   0  0  0  0  0  0  0  0  0  0  0  0
  -26.0621   -1.4983  -14.5448 C   0  0  0  0  0  0  0  0  0  0  0  0
  -24.7852   -0.9460  -14.7173 C   0  0  0  0  0  0  0  0  0  0  0  0
  -23.9812   -0.6244  -13.6049 C   0  0  0  0  0  0  0  0  0  0  0  0
  -22.2461    0.0745  -13.8875 Br  0  0  0  0  0  0  0  0  0  0  0  0
  -24.4373   -0.8203  -12.3043 C   0  0  0  0  0  0  0  0  0  0  0  0
  -25.7054   -1.3492  -12.1751 C   0  0  0  0  0  0  0  0  0  0  0  0
  -28.3631   -2.5970  -10.8513 H   0  0  0  0  0  0  0  0  0  0  0  0
  -28.5270   -1.8983  -13.3409 H   0  0  0  0  0  0  0  0  0  0  0  0
  1  2  2  0  0  0
  2  3  1  0  0  0
  2 11  1  0  0  0
  3  4  1  0  0  0
  3 12  1  0  0  0
  4  5  1  0  0  0
  4 13  1  0  0  0
  5  6  1  0  0  0
  5 11  2  0  0  0
  6  7  2  0  0  0
  7  8  1  0  0  0
  8  9  1  0  0  0
  8 10  2  0  0  0
 10 11  1  0  0  0
M  END
> <minimizedAffinity>
-6.68469

$$$$
