CHEMBL4567013


 43 48  0  0  0  0  0  0  0  0999 V2000
  -15.6443   -4.3418  -12.8116 C   0  0  0  0  0  0  0  0  0  0  0  0
  -15.0280   -4.1517  -14.0517 C   0  0  0  0  0  0  0  0  0  0  0  0
  -14.4796   -2.9124  -14.3914 C   0  0  0  0  0  0  0  0  0  0  0  0
  -14.5402   -1.8546  -13.4908 C   0  0  0  0  0  0  0  0  0  0  0  0
  -15.2638   -2.0173  -12.3004 C   0  0  0  0  0  0  0  0  0  0  0  0
  -15.7673   -3.2584  -11.9448 C   0  0  0  0  0  0  0  0  0  0  0  0
  -16.3260   -3.3727  -10.7314 F   0  0  0  0  0  0  0  0  0  0  0  0
  -13.7905   -0.6860  -13.6061 N   0  0  0  0  0  0  0  0  0  0  0  0
  -12.9478   -0.7172  -13.0348 H   0  0  0  0  0  0  0  0  0  0  0  0
  -14.0717    0.6526  -13.8206 C   0  0  0  0  0  0  0  0  0  0  0  0
  -12.9006    1.3717  -13.7622 N   0  0  0  0  0  0  0  0  0  0  0  0
  -12.7939    2.5492  -14.4055 C   0  0  0  0  0  0  0  0  0  0  0  0
  -13.7682    2.9929  -15.2390 C   0  0  0  0  0  0  0  0  0  0  0  0
  -14.9560    2.2822  -15.2369 C   0  0  0  0  0  0  0  0  0  0  0  0
  -15.9528    2.7878  -16.0921 N   0  0  0  0  0  0  0  0  0  0  0  0
  -17.1214    2.9353  -15.3989 C   0  0  0  0  0  0  0  0  0  0  0  0
  -17.7166    1.8891  -14.7868 C   0  0  0  0  0  0  0  0  0  0  0  0
  -16.7199    0.7242  -14.4548 C   0  0  0  0  0  0  0  0  0  0  0  0
  -17.1006   -0.4080  -14.2162 O   0  0  0  0  0  0  0  0  0  0  0  0
  -15.2208    1.1671  -14.4219 C   0  0  0  0  0  0  0  0  0  0  0  0
  -16.1319    2.0114  -16.7540 H   0  0  0  0  0  0  0  0  0  0  0  0
  -19.1467    1.9562  -15.2572 C   0  0  0  0  0  0  0  0  0  0  0  0
  -19.7952    3.2155  -15.0997 C   0  0  0  0  0  0  0  0  0  0  0  0
  -21.1145    3.3155  -14.5925 C   0  0  0  0  0  0  0  0  0  0  0  0
  -21.8277    2.1459  -14.3329 C   0  0  0  0  0  0  0  0  0  0  0  0
  -23.0161    2.2318  -13.7396 F   0  0  0  0  0  0  0  0  0  0  0  0
  -21.2742    0.8936  -14.6111 C   0  0  0  0  0  0  0  0  0  0  0  0
  -19.9628    0.7998  -15.0966 C   0  0  0  0  0  0  0  0  0  0  0  0
  -15.9904   -5.6424  -12.5408 O   0  0  0  0  0  0  0  0  0  0  0  0
  -13.8920   -8.3276  -13.9035 C   0  0  0  0  0  0  0  0  0  0  0  0
  -14.8641   -7.3419  -13.8766 C   0  0  0  0  0  0  0  0  0  0  0  0
  -15.0740   -6.6506  -12.6850 C   0  0  0  0  0  0  0  0  0  0  0  0
  -14.2688   -6.9010  -11.5835 C   0  0  0  0  0  0  0  0  0  0  0  0
  -13.3000   -7.8700  -11.7137 C   0  0  0  0  0  0  0  0  0  0  0  0
  -13.1073   -8.5813  -12.8418 N   0  0  0  0  0  0  0  0  0  0  0  0
  -11.8930   -8.0072  -15.9743 O   0  0  0  0  0  0  0  0  0  0  0  0
  -12.7873   -8.8530  -16.0455 C   0  0  0  0  0  0  0  0  0  0  0  0
  -13.7614   -9.0710  -15.0940 N   0  0  0  0  0  0  0  0  0  0  0  0
  -14.4197   -9.8102  -15.2368 H   0  0  0  0  0  0  0  0  0  0  0  0
  -12.8671   -9.7677  -17.2850 C   0  0  0  0  0  0  0  0  0  0  0  0
  -13.6875   -9.1858  -18.4743 C   0  0  0  0  0  0  0  0  0  0  0  0
  -14.0490  -10.6329  -18.8423 C   0  0  0  0  0  0  0  0  0  0  0  0
  -13.7972  -10.9964  -17.3653 C   0  0  0  0  0  0  0  0  0  0  0  0
 36 37  2  0  0  0
 37 38  1  0  0  0
 37 40  1  0  0  0
 38 30  1  0  0  0
 38 39  1  0  0  0
 30 31  1  0  0  0
 30 35  2  0  0  0
 31 32  2  0  0  0
 32 29  1  0  0  0
 32 33  1  0  0  0
 29  1  1  0  0  0
  1  2  1  0  0  0
  1  6  2  0  0  0
  2  3  2  0  0  0
  3  4  1  0  0  0
  4  8  1  0  0  0
  4  5  2  0  0  0
  8 10  1  0  0  0
  8  9  1  0  0  0
 10 11  1  0  0  0
 10 20  2  0  0  0
 11 12  2  0  0  0
 12 13  1  0  0  0
 13 14  2  0  0  0
 14 15  1  0  0  0
 14 20  1  0  0  0
 15 16  1  0  0  0
 15 21  1  0  0  0
 16 17  2  0  0  0
 17 22  1  0  0  0
 17 18  1  0  0  0
 22 23  1  0  0  0
 22 28  2  0  0  0
 23 24  2  0  0  0
 24 25  1  0  0  0
 25 26  1  0  0  0
 25 27  2  0  0  0
 27 28  1  0  0  0
 18 19  2  0  0  0
 18 20  1  0  0  0
  5  6  1  0  0  0
  6  7  1  0  0  0
 33 34  2  0  0  0
 34 35  1  0  0  0
 40 41  1  0  0  0
 40 43  1  0  0  0
 41 42  1  0  0  0
 42 43  1  0  0  0
M  END
> <minimizedAffinity>
-10.67417

$$$$
