CHEMBL3676329


 32 36  0  0  0  0  0  0  0  0999 V2000
  -28.0086   -8.6781   -4.2456 N   0  0  0  0  0  0  0  0  0  0  0  0
  -28.7857   -8.0630   -3.3137 N   0  0  0  0  0  0  0  0  0  0  0  0
  -29.5745   -7.2574   -4.0208 C   0  0  0  0  0  0  0  0  0  0  0  0
  -29.3837   -7.3715   -5.4075 C   0  0  0  0  0  0  0  0  0  0  0  0
  -28.3475   -8.2735   -5.5474 C   0  0  0  0  0  0  0  0  0  0  0  0
  -27.8212   -8.7849   -6.6883 N   0  0  0  0  0  0  0  0  0  0  0  0
  -28.3425   -8.6345   -7.5578 H   0  0  0  0  0  0  0  0  0  0  0  0
  -27.3823   -9.7078   -6.6931 H   0  0  0  0  0  0  0  0  0  0  0  0
  -21.6872  -12.1647   -3.2072 C   0  0  0  0  0  0  0  0  0  0  0  0
  -23.0699  -11.6602   -3.3429 C   0  0  0  0  0  0  0  0  0  0  0  0
  -23.4285  -10.4386   -3.6825 N   0  0  0  0  0  0  0  0  0  0  0  0
  -24.7924  -10.4437   -3.6506 C   0  0  0  0  0  0  0  0  0  0  0  0
  -25.6916   -9.4045   -3.9423 C   0  0  0  0  0  0  0  0  0  0  0  0
  -27.0626   -9.6595   -3.8565 C   0  0  0  0  0  0  0  0  0  0  0  0
  -27.5363  -10.9152   -3.4450 C   0  0  0  0  0  0  0  0  0  0  0  0
  -26.6515  -11.9717   -3.1780 C   0  0  0  0  0  0  0  0  0  0  0  0
  -25.2959  -11.6835   -3.3017 C   0  0  0  0  0  0  0  0  0  0  0  0
  -24.1626  -12.4517   -3.1214 N   0  0  0  0  0  0  0  0  0  0  0  0
  -24.1605  -13.4258   -2.8658 H   0  0  0  0  0  0  0  0  0  0  0  0
  -30.1375   -6.7997   -6.4991 C   0  0  0  0  0  0  0  0  0  0  0  0
  -30.9690   -7.4571   -7.1276 O   0  0  0  0  0  0  0  0  0  0  0  0
  -29.8964   -5.4016   -6.7560 C   0  0  0  0  0  0  0  0  0  0  0  0
  -28.9211   -4.8952   -7.5870 C   0  0  0  0  0  0  0  0  0  0  0  0
  -29.0156   -3.4924   -7.5473 C   0  0  0  0  0  0  0  0  0  0  0  0
  -28.2938   -2.4606   -8.1659 C   0  0  0  0  0  0  0  0  0  0  0  0
  -27.7259   -1.6785   -7.1667 C   0  0  0  0  0  0  0  0  0  0  0  0
  -28.5249   -1.2568   -6.1040 C   0  0  0  0  0  0  0  0  0  0  0  0
  -27.8670    0.0923   -4.9595 Br  0  0  0  0  0  0  0  0  0  0  0  0
  -29.7122   -1.9383   -5.8019 C   0  0  0  0  0  0  0  0  0  0  0  0
  -29.8202   -3.1776   -6.4494 C   0  0  0  0  0  0  0  0  0  0  0  0
  -30.5295   -4.3214   -6.1625 N   0  0  0  0  0  0  0  0  0  0  0  0
  -31.2397   -4.3911   -5.4455 H   0  0  0  0  0  0  0  0  0  0  0  0
  9 10  1  0  0  0
 10 11  2  0  0  0
 10 18  1  0  0  0
 11 12  1  0  0  0
 12 13  1  0  0  0
 12 17  2  0  0  0
 13 14  2  0  0  0
 14  1  1  0  0  0
 14 15  1  0  0  0
  1  2  1  0  0  0
  1  5  1  0  0  0
  2  3  2  0  0  0
  3  4  1  0  0  0
  4 20  1  0  0  0
  4  5  2  0  0  0
 20 21  2  0  0  0
 20 22  1  0  0  0
 22 23  2  0  0  0
 22 31  1  0  0  0
 23 24  1  0  0  0
 24 25  1  0  0  0
 24 30  2  0  0  0
 25 26  2  0  0  0
 26 27  1  0  0  0
 27 28  1  0  0  0
 27 29  2  0  0  0
 29 30  1  0  0  0
 30 31  1  0  0  0
 31 32  1  0  0  0
  5  6  1  0  0  0
  6  7  1  0  0  0
  6  8  1  0  0  0
 15 16  2  0  0  0
 16 17  1  0  0  0
 17 18  1  0  0  0
 18 19  1  0  0  0
M  END
> <minimizedAffinity>
-8.79444

$$$$
