CHEMBL498557


 31 34  0  0  0  0  0  0  0  0999 V2000
  -26.1054   -1.2203  -15.4904 C   0  0  0  0  0  0  0  0  0  0  0  0
  -26.3075   -1.3047  -14.0011 C   0  0  0  0  0  0  0  0  0  0  0  0
  -27.4389   -2.0751  -13.5342 C   0  0  0  0  0  0  0  0  0  0  0  0
  -27.6379   -2.2754  -12.2272 C   0  0  0  0  0  0  0  0  0  0  0  0
  -26.7948   -1.7448  -11.2638 N   0  0  0  0  0  0  0  0  0  0  0  0
  -25.6908   -0.9470  -11.6224 C   0  0  0  0  0  0  0  0  0  0  0  0
  -24.9215   -0.4026  -10.8302 O   0  0  0  0  0  0  0  0  0  0  0  0
  -25.4636   -0.7611  -13.0973 C   0  0  0  0  0  0  0  0  0  0  0  0
  -24.1867   -0.1815  -13.5456 C   0  0  0  0  0  0  0  0  0  0  0  0
  -23.1338   -1.0980  -13.6614 C   0  0  0  0  0  0  0  0  0  0  0  0
  -21.8863   -0.6733  -14.0815 C   0  0  0  0  0  0  0  0  0  0  0  0
  -21.6427    0.6612  -14.2252 C   0  0  0  0  0  0  0  0  0  0  0  0
  -20.3709    0.9692  -14.3729 N   0  0  0  0  0  0  0  0  0  0  0  0
  -20.0478    2.2270  -14.1230 C   0  0  0  0  0  0  0  0  0  0  0  0
  -18.8110    2.2933  -13.4846 N   0  0  0  0  0  0  0  0  0  0  0  0
  -20.9092    3.2439  -14.0332 N   0  0  0  0  0  0  0  0  0  0  0  0
  -22.2199    2.9200  -14.0576 C   0  0  0  0  0  0  0  0  0  0  0  0
  -22.6649    1.6044  -14.0477 C   0  0  0  0  0  0  0  0  0  0  0  0
  -23.9820    1.1806  -13.7749 C   0  0  0  0  0  0  0  0  0  0  0  0
  -18.9783    1.6260  -12.7260 H   0  0  0  0  0  0  0  0  0  0  0  0
  -18.1849    1.7634  -14.0819 H   0  0  0  0  0  0  0  0  0  0  0  0
  -27.0933   -1.8724   -9.8723 C   0  0  0  0  0  0  0  0  0  0  0  0
  -27.3566   -3.1403   -9.3399 C   0  0  0  0  0  0  0  0  0  0  0  0
  -27.8460   -3.2685   -8.0393 C   0  0  0  0  0  0  0  0  0  0  0  0
  -28.0462   -2.1377   -7.2371 C   0  0  0  0  0  0  0  0  0  0  0  0
  -27.6874   -0.8783   -7.7385 C   0  0  0  0  0  0  0  0  0  0  0  0
  -27.2260   -0.7462   -9.0495 C   0  0  0  0  0  0  0  0  0  0  0  0
  -28.6751   -2.2561   -5.8718 C   0  0  0  0  0  0  0  0  0  0  0  0
  -29.4738   -1.1996   -5.5508 F   0  0  0  0  0  0  0  0  0  0  0  0
  -29.4545   -3.3642   -5.7491 F   0  0  0  0  0  0  0  0  0  0  0  0
  -27.7484   -2.3342   -4.8764 F   0  0  0  0  0  0  0  0  0  0  0  0
  1  2  1  0  0  0
  2  3  1  0  0  0
  2  8  2  0  0  0
  3  4  2  0  0  0
  4  5  1  0  0  0
  5 22  1  0  0  0
  5  6  1  0  0  0
 22 23  1  0  0  0
 22 27  2  0  0  0
 23 24  2  0  0  0
 24 25  1  0  0  0
 25 28  1  0  0  0
 25 26  2  0  0  0
 28 29  1  0  0  0
 28 30  1  0  0  0
 28 31  1  0  0  0
 26 27  1  0  0  0
  6  7  2  0  0  0
  6  8  1  0  0  0
  8  9  1  0  0  0
  9 10  1  0  0  0
  9 19  2  0  0  0
 10 11  2  0  0  0
 11 12  1  0  0  0
 12 13  1  0  0  0
 12 18  2  0  0  0
 13 14  2  0  0  0
 14 15  1  0  0  0
 14 16  1  0  0  0
 15 20  1  0  0  0
 15 21  1  0  0  0
 16 17  2  0  0  0
 17 18  1  0  0  0
 18 19  1  0  0  0
M  END
> <minimizedAffinity>
-7.37966

$$$$
