CHEMBL469455


 41 45  0  0  0  0  0  0  0  0999 V2000
  -22.5434   -0.0236  -13.6455 C   0  0  0  0  0  0  0  0  0  0  0  0
  -22.5276   -0.4849  -12.3306 C   0  0  0  0  0  0  0  0  0  0  0  0
  -23.6555   -1.1076  -11.7870 C   0  0  0  0  0  0  0  0  0  0  0  0
  -24.8279   -1.2723  -12.5357 C   0  0  0  0  0  0  0  0  0  0  0  0
  -24.8209   -0.8686  -13.8770 C   0  0  0  0  0  0  0  0  0  0  0  0
  -23.6898   -0.2398  -14.4222 C   0  0  0  0  0  0  0  0  0  0  0  0
  -18.0042    2.6089  -15.6768 C   0  0  0  0  0  0  0  0  0  0  0  0
  -18.4540    3.9445  -15.5342 C   0  0  0  0  0  0  0  0  0  0  0  0
  -19.7356    3.8964  -15.0365 C   0  0  0  0  0  0  0  0  0  0  0  0
  -20.0898    2.5748  -14.8382 N   0  0  0  0  0  0  0  0  0  0  0  0
  -21.2981    2.0418  -14.3168 C   0  0  0  0  0  0  0  0  0  0  0  0
  -22.3227    2.9219  -13.9711 N   0  0  0  0  0  0  0  0  0  0  0  0
  -21.3816    0.6977  -14.1810 C   0  0  0  0  0  0  0  0  0  0  0  0
  -20.1889   -0.0734  -14.6540 C   0  0  0  0  0  0  0  0  0  0  0  0
  -19.0878    0.4082  -15.1384 N   0  0  0  0  0  0  0  0  0  0  0  0
  -19.0168    1.7711  -15.2292 C   0  0  0  0  0  0  0  0  0  0  0  0
  -22.0006    3.8285  -13.6457 H   0  0  0  0  0  0  0  0  0  0  0  0
  -23.0205    2.5143  -13.3526 H   0  0  0  0  0  0  0  0  0  0  0  0
  -13.7635    0.2554  -16.8403 C   0  0  0  0  0  0  0  0  0  0  0  0
  -14.8345    1.2153  -16.7305 N   0  0  0  0  0  0  0  0  0  0  0  0
  -16.0225    1.0464  -16.0816 C   0  0  0  0  0  0  0  0  0  0  0  0
  -16.6979    2.2406  -16.2112 C   0  0  0  0  0  0  0  0  0  0  0  0
  -15.8327    3.0554  -16.9680 C   0  0  0  0  0  0  0  0  0  0  0  0
  -14.6935    2.4298  -17.2907 N   0  0  0  0  0  0  0  0  0  0  0  0
  -26.0162   -1.8177  -11.9790 N   0  0  0  0  0  0  0  0  0  0  0  0
  -26.3556   -1.7224  -10.6397 C   0  0  0  0  0  0  0  0  0  0  0  0
  -25.7025   -1.1102   -9.7946 O   0  0  0  0  0  0  0  0  0  0  0  0
  -27.5179   -2.4182  -10.3240 N   0  0  0  0  0  0  0  0  0  0  0  0
  -26.7750   -2.0174  -12.6150 H   0  0  0  0  0  0  0  0  0  0  0  0
  -27.6215   -3.2812  -10.8402 H   0  0  0  0  0  0  0  0  0  0  0  0
  -27.9560   -2.4371   -8.9742 C   0  0  0  0  0  0  0  0  0  0  0  0
  -28.3176   -3.6525   -8.3939 C   0  0  0  0  0  0  0  0  0  0  0  0
  -28.5831   -3.7090   -7.0236 C   0  0  0  0  0  0  0  0  0  0  0  0
  -28.5608   -2.5464   -6.2545 C   0  0  0  0  0  0  0  0  0  0  0  0
  -28.8024   -2.6507   -4.9419 F   0  0  0  0  0  0  0  0  0  0  0  0
  -28.2918   -1.3087   -6.8281 C   0  0  0  0  0  0  0  0  0  0  0  0
  -27.9694   -1.2677   -8.1971 C   0  0  0  0  0  0  0  0  0  0  0  0
  -28.3565   -0.0481   -6.0188 C   0  0  0  0  0  0  0  0  0  0  0  0
  -27.4234    0.0527   -5.0320 F   0  0  0  0  0  0  0  0  0  0  0  0
  -28.2133    1.0759   -6.7752 F   0  0  0  0  0  0  0  0  0  0  0  0
  -29.5609    0.0863   -5.3893 F   0  0  0  0  0  0  0  0  0  0  0  0
 19 20  1  0  0  0
 20 21  1  0  0  0
 20 24  1  0  0  0
 21 22  2  0  0  0
 22  7  1  0  0  0
 22 23  1  0  0  0
  7  8  1  0  0  0
  7 16  2  0  0  0
  8  9  2  0  0  0
  9 10  1  0  0  0
 10 11  1  0  0  0
 10 16  1  0  0  0
 11 12  1  0  0  0
 11 13  2  0  0  0
 12 17  1  0  0  0
 12 18  1  0  0  0
 13  1  1  0  0  0
 13 14  1  0  0  0
  1  2  1  0  0  0
  1  6  2  0  0  0
  2  3  2  0  0  0
  3  4  1  0  0  0
  4 25  1  0  0  0
  4  5  2  0  0  0
 25 26  1  0  0  0
 25 29  1  0  0  0
 26 27  2  0  0  0
 26 28  1  0  0  0
 28 31  1  0  0  0
 28 30  1  0  0  0
 31 32  1  0  0  0
 31 37  2  0  0  0
 32 33  2  0  0  0
 33 34  1  0  0  0
 34 35  1  0  0  0
 34 36  2  0  0  0
 36 38  1  0  0  0
 36 37  1  0  0  0
 38 39  1  0  0  0
 38 40  1  0  0  0
 38 41  1  0  0  0
  5  6  1  0  0  0
 14 15  2  0  0  0
 15 16  1  0  0  0
 23 24  2  0  0  0
M  END
> <minimizedAffinity>
-11.47032

$$$$
