CHEMBL3633278


 43 45  0  0  0  0  0  0  0  0999 V2000
  -30.0845   -6.8597   -7.6550 N   0  0  0  0  0  0  0  0  0  0  0  0
  -29.1477   -5.8463   -7.7703 C   0  0  0  0  0  0  0  0  0  0  0  0
  -27.9896   -6.0047   -8.1293 O   0  0  0  0  0  0  0  0  0  0  0  0
  -29.7068   -4.6283   -7.4167 N   0  0  0  0  0  0  0  0  0  0  0  0
  -31.0021   -6.6201   -8.0150 H   0  0  0  0  0  0  0  0  0  0  0  0
  -30.3623   -4.7101   -6.6537 H   0  0  0  0  0  0  0  0  0  0  0  0
  -28.1784   -9.9728   -8.3851 C   0  0  0  0  0  0  0  0  0  0  0  0
  -29.0276  -10.9242   -7.8103 C   0  0  0  0  0  0  0  0  0  0  0  0
  -30.2467  -10.5347   -7.2431 C   0  0  0  0  0  0  0  0  0  0  0  0
  -30.6105   -9.1857   -7.2126 C   0  0  0  0  0  0  0  0  0  0  0  0
  -29.7509   -8.2293   -7.7790 C   0  0  0  0  0  0  0  0  0  0  0  0
  -28.5502   -8.6221   -8.3768 C   0  0  0  0  0  0  0  0  0  0  0  0
  -26.8320  -10.4121   -8.8426 C   0  0  0  0  0  0  0  0  0  0  0  0
  -26.4015  -10.2169   -9.9663 O   0  0  0  0  0  0  0  0  0  0  0  0
  -26.2671  -11.2026   -7.9012 O   0  0  0  0  0  0  0  0  0  0  0  0
  -25.2746  -10.5421   -7.0948 C   0  0  0  0  0  0  0  0  0  0  0  0
  -25.7875  -10.5707   -5.6409 C   0  0  0  0  0  0  0  0  0  0  0  0
  -26.0555   -9.2764   -4.9930 N   0  0  0  0  0  0  0  0  0  0  0  0
  -27.9928   -7.6866   -4.6746 C   0  0  0  0  0  0  0  0  0  0  0  0
  -27.5140   -9.1268   -4.8136 C   0  0  0  0  0  0  0  0  0  0  0  0
  -25.2793   -9.0753   -3.7601 C   0  0  0  0  0  0  0  0  0  0  0  0
  -24.5160  -10.2880   -3.2354 C   0  0  0  0  0  0  0  0  0  0  0  0
  -31.7800   -8.6884   -6.6929 O   0  0  0  0  0  0  0  0  0  0  0  0
  -32.9821   -9.0427   -7.3646 C   0  0  0  0  0  0  0  0  0  0  0  0
  -28.9951   -3.4188   -7.5615 C   0  0  0  0  0  0  0  0  0  0  0  0
  -28.3521   -3.1949   -8.7986 C   0  0  0  0  0  0  0  0  0  0  0  0
  -27.6034   -2.0340   -9.0755 C   0  0  0  0  0  0  0  0  0  0  0  0
  -27.4974   -1.1003   -8.0380 C   0  0  0  0  0  0  0  0  0  0  0  0
  -28.1423   -1.3007   -6.8120 C   0  0  0  0  0  0  0  0  0  0  0  0
  -28.9218   -2.4399   -6.5653 C   0  0  0  0  0  0  0  0  0  0  0  0
  -26.9677   -1.8118  -10.3960 C   0  0  0  0  0  0  0  0  0  0  0  0
  -27.6707   -1.9400  -11.6033 C   0  0  0  0  0  0  0  0  0  0  0  0
  -27.0465   -1.6914  -12.8275 C   0  0  0  0  0  0  0  0  0  0  0  0
  -25.7129   -1.3294  -12.8257 C   0  0  0  0  0  0  0  0  0  0  0  0
  -24.9833   -1.1961  -11.7024 N   0  0  0  0  0  0  0  0  0  0  0  0
  -25.6263   -1.4342  -10.5303 C   0  0  0  0  0  0  0  0  0  0  0  0
  -25.1348   -1.1015  -14.0580 O   0  0  0  0  0  0  0  0  0  0  0  0
  -23.7600   -0.7426  -13.9652 C   0  0  0  0  0  0  0  0  0  0  0  0
  -29.3569   -2.4892   -5.2772 O   0  0  0  0  0  0  0  0  0  0  0  0
  -28.7385   -3.3015   -4.3034 C   0  0  0  0  0  0  0  0  0  0  0  0
  -29.2807   -4.5319   -4.1866 F   0  0  0  0  0  0  0  0  0  0  0  0
  -27.4317   -3.4447   -4.6114 F   0  0  0  0  0  0  0  0  0  0  0  0
  -28.8277   -2.6927   -3.1019 F   0  0  0  0  0  0  0  0  0  0  0  0
 19 20  1  0  0  0
 20 18  1  0  0  0
 18 21  1  0  0  0
 18 17  1  0  0  0
 21 22  1  0  0  0
 17 16  1  0  0  0
 16 15  1  0  0  0
 15 13  1  0  0  0
 13 14  2  0  0  0
 13  7  1  0  0  0
  7  8  1  0  0  0
  7 12  2  0  0  0
  8  9  2  0  0  0
  9 10  1  0  0  0
 10 23  1  0  0  0
 10 11  2  0  0  0
 23 24  1  0  0  0
 11  1  1  0  0  0
 11 12  1  0  0  0
  1  2  1  0  0  0
  1  5  1  0  0  0
  2  3  2  0  0  0
  2  4  1  0  0  0
  4 25  1  0  0  0
  4  6  1  0  0  0
 25 26  1  0  0  0
 25 30  2  0  0  0
 26 27  2  0  0  0
 27 31  1  0  0  0
 27 28  1  0  0  0
 31 32  1  0  0  0
 31 36  2  0  0  0
 32 33  2  0  0  0
 33 34  1  0  0  0
 34 37  1  0  0  0
 34 35  2  0  0  0
 37 38  1  0  0  0
 35 36  1  0  0  0
 28 29  2  0  0  0
 29 30  1  0  0  0
 30 39  1  0  0  0
 39 40  1  0  0  0
 40 41  1  0  0  0
 40 42  1  0  0  0
 40 43  1  0  0  0
M  END
> <minimizedAffinity>
-8.21457

$$$$
