CHEMBL2023224


 37 41  0  0  0  0  0  0  0  0999 V2000
  -26.1508   -1.1244  -11.6227 C   0  0  0  0  0  0  0  0  0  0  0  0
  -25.5005   -1.4453  -10.4307 C   0  0  0  0  0  0  0  0  0  0  0  0
  -26.2140   -1.9758   -9.3553 C   0  0  0  0  0  0  0  0  0  0  0  0
  -27.6042   -2.1557   -9.4284 C   0  0  0  0  0  0  0  0  0  0  0  0
  -28.2613   -1.7020  -10.5781 C   0  0  0  0  0  0  0  0  0  0  0  0
  -27.5414   -1.2030  -11.6770 C   0  0  0  0  0  0  0  0  0  0  0  0
  -28.3166   -2.8153   -8.3209 C   0  0  0  0  0  0  0  0  0  0  0  0
  -28.8256   -4.0804   -8.5351 C   0  0  0  0  0  0  0  0  0  0  0  0
  -29.7110   -4.6773   -7.2329 S   0  0  0  0  0  0  0  0  0  0  0  0
  -29.3634   -3.3071   -6.2398 C   0  0  0  0  0  0  0  0  0  0  0  0
  -29.7554   -3.0953   -4.8992 C   0  0  0  0  0  0  0  0  0  0  0  0
  -29.4007   -1.8687   -4.3649 C   0  0  0  0  0  0  0  0  0  0  0  0
  -28.7307   -0.9073   -5.0219 N   0  0  0  0  0  0  0  0  0  0  0  0
  -28.3545   -1.1039   -6.3000 C   0  0  0  0  0  0  0  0  0  0  0  0
  -27.7245   -0.0009   -6.8662 N   0  0  0  0  0  0  0  0  0  0  0  0
  -28.6365   -2.3326   -6.9664 C   0  0  0  0  0  0  0  0  0  0  0  0
  -27.8505    0.7884   -6.2396 H   0  0  0  0  0  0  0  0  0  0  0  0
  -28.0137    0.1718   -7.8214 H   0  0  0  0  0  0  0  0  0  0  0  0
  -30.5045   -4.0643   -4.1021 C   0  0  0  0  0  0  0  0  0  0  0  0
  -31.8216   -3.9789   -3.5691 C   0  0  0  0  0  0  0  0  0  0  0  0
  -32.0353   -5.1570   -2.9016 C   0  0  0  0  0  0  0  0  0  0  0  0
  -30.9055   -5.8885   -3.0785 N   0  0  0  0  0  0  0  0  0  0  0  0
  -29.9692   -5.2686   -3.8038 N   0  0  0  0  0  0  0  0  0  0  0  0
  -30.7014   -6.8206   -2.7308 H   0  0  0  0  0  0  0  0  0  0  0  0
  -23.7625    0.3309  -13.9389 N   0  0  0  0  0  0  0  0  0  0  0  0
  -24.3799    0.1387  -12.7181 C   0  0  0  0  0  0  0  0  0  0  0  0
  -24.0478    0.6808  -11.6696 O   0  0  0  0  0  0  0  0  0  0  0  0
  -25.4191   -0.7884  -12.7903 N   0  0  0  0  0  0  0  0  0  0  0  0
  -24.2678    0.0299  -14.7579 H   0  0  0  0  0  0  0  0  0  0  0  0
  -25.2775   -1.5294  -13.4608 H   0  0  0  0  0  0  0  0  0  0  0  0
  -18.9854    0.4057  -15.2546 C   0  0  0  0  0  0  0  0  0  0  0  0
  -20.2204    1.1236  -14.7942 C   0  0  0  0  0  0  0  0  0  0  0  0
  -20.1820    2.5034  -14.5801 C   0  0  0  0  0  0  0  0  0  0  0  0
  -21.3213    3.1726  -14.1521 C   0  0  0  0  0  0  0  0  0  0  0  0
  -22.5051    2.4679  -13.9338 C   0  0  0  0  0  0  0  0  0  0  0  0
  -22.5792    1.0877  -14.1514 C   0  0  0  0  0  0  0  0  0  0  0  0
  -21.4235    0.4205  -14.5819 C   0  0  0  0  0  0  0  0  0  0  0  0
 31 32  1  0  0  0
 32 33  1  0  0  0
 32 37  2  0  0  0
 33 34  2  0  0  0
 34 35  1  0  0  0
 35 36  2  0  0  0
 36 25  1  0  0  0
 36 37  1  0  0  0
 25 26  1  0  0  0
 25 29  1  0  0  0
 26 27  2  0  0  0
 26 28  1  0  0  0
 28  1  1  0  0  0
 28 30  1  0  0  0
  1  2  1  0  0  0
  1  6  2  0  0  0
  2  3  2  0  0  0
  3  4  1  0  0  0
  4  7  1  0  0  0
  4  5  2  0  0  0
  7  8  2  0  0  0
  7 16  1  0  0  0
  8  9  1  0  0  0
  9 10  1  0  0  0
 10 11  1  0  0  0
 10 16  2  0  0  0
 11 19  1  0  0  0
 11 12  2  0  0  0
 19 20  1  0  0  0
 19 23  2  0  0  0
 20 21  2  0  0  0
 21 22  1  0  0  0
 22 23  1  0  0  0
 22 24  1  0  0  0
 12 13  1  0  0  0
 13 14  2  0  0  0
 14 15  1  0  0  0
 14 16  1  0  0  0
 15 17  1  0  0  0
 15 18  1  0  0  0
  5  6  1  0  0  0
M  END
> <minimizedAffinity>
-9.91405

$$$$
