CHEMBL1242476


 28 31  0  0  0  0  0  0  0  0999 V2000
  -28.6101   -0.8731   -6.7202 N   0  0  0  0  0  0  0  0  0  0  0  0
  -28.0151   -0.5222   -7.8793 N   0  0  0  0  0  0  0  0  0  0  0  0
  -27.7819   -1.6896   -8.5092 C   0  0  0  0  0  0  0  0  0  0  0  0
  -28.1686   -2.8002   -7.6916 C   0  0  0  0  0  0  0  0  0  0  0  0
  -28.1561   -4.2029   -7.7343 C   0  0  0  0  0  0  0  0  0  0  0  0
  -27.6228   -4.9780   -8.7543 N   0  0  0  0  0  0  0  0  0  0  0  0
  -28.6901   -4.8897   -6.7011 N   0  0  0  0  0  0  0  0  0  0  0  0
  -29.1987   -4.2012   -5.6625 C   0  0  0  0  0  0  0  0  0  0  0  0
  -29.2469   -2.8726   -5.4983 N   0  0  0  0  0  0  0  0  0  0  0  0
  -28.7159   -2.2260   -6.5543 C   0  0  0  0  0  0  0  0  0  0  0  0
  -26.7973   -4.5889   -9.1916 H   0  0  0  0  0  0  0  0  0  0  0  0
  -27.5432   -5.9451   -8.4583 H   0  0  0  0  0  0  0  0  0  0  0  0
  -27.2091   -1.6763   -9.8614 C   0  0  0  0  0  0  0  0  0  0  0  0
  -28.0383   -1.6375  -10.9905 C   0  0  0  0  0  0  0  0  0  0  0  0
  -27.5152   -1.6241  -12.2905 C   0  0  0  0  0  0  0  0  0  0  0  0
  -26.1220   -1.5755  -12.4583 C   0  0  0  0  0  0  0  0  0  0  0  0
  -25.2238   -1.4854  -13.5530 C   0  0  0  0  0  0  0  0  0  0  0  0
  -25.6006   -1.4347  -14.8369 N   0  0  0  0  0  0  0  0  0  0  0  0
  -23.9540   -1.4442  -13.1614 N   0  0  0  0  0  0  0  0  0  0  0  0
  -24.0321   -1.4840  -11.8197 N   0  0  0  0  0  0  0  0  0  0  0  0
  -25.3083   -1.5793  -11.3325 C   0  0  0  0  0  0  0  0  0  0  0  0
  -25.8103   -1.6448  -10.0261 C   0  0  0  0  0  0  0  0  0  0  0  0
  -26.5217   -1.7306  -15.1306 H   0  0  0  0  0  0  0  0  0  0  0  0
  -24.8765   -1.5242  -15.5392 H   0  0  0  0  0  0  0  0  0  0  0  0
  -23.1712   -1.4289  -11.2882 H   0  0  0  0  0  0  0  0  0  0  0  0
  -27.9564    0.5767   -4.8302 C   0  0  0  0  0  0  0  0  0  0  0  0
  -29.0653    0.1598   -5.7972 C   0  0  0  0  0  0  0  0  0  0  0  0
  -29.6221    1.3745   -6.5436 C   0  0  0  0  0  0  0  0  0  0  0  0
 26 27  1  0  0  0
 27 28  1  0  0  0
 27  1  1  0  0  0
  1  2  1  0  0  0
  1 10  1  0  0  0
  2  3  2  0  0  0
  3 13  1  0  0  0
  3  4  1  0  0  0
 13 14  1  0  0  0
 13 22  2  0  0  0
 14 15  2  0  0  0
 15 16  1  0  0  0
 16 17  1  0  0  0
 16 21  2  0  0  0
 17 18  1  0  0  0
 17 19  2  0  0  0
 18 23  1  0  0  0
 18 24  1  0  0  0
 19 20  1  0  0  0
 20 21  1  0  0  0
 20 25  1  0  0  0
 21 22  1  0  0  0
  4  5  1  0  0  0
  4 10  2  0  0  0
  5  6  1  0  0  0
  5  7  2  0  0  0
  6 11  1  0  0  0
  6 12  1  0  0  0
  7  8  1  0  0  0
  8  9  2  0  0  0
  9 10  1  0  0  0
M  END
> <minimizedAffinity>
-8.49808

$$$$
