CHEMBL204984


 31 34  0  0  0  0  0  0  0  0999 V2000
  -21.2130    0.7533  -14.4316 C   0  0  0  0  0  0  0  0  0  0  0  0
  -21.4915    1.9705  -14.0174 N   0  0  0  0  0  0  0  0  0  0  0  0
  -20.3540    2.7255  -14.2200 N   0  0  0  0  0  0  0  0  0  0  0  0
  -19.4605    1.9262  -14.7732 C   0  0  0  0  0  0  0  0  0  0  0  0
  -19.9588    0.6713  -14.9743 O   0  0  0  0  0  0  0  0  0  0  0  0
  -18.0629    2.2141  -15.1228 C   0  0  0  0  0  0  0  0  0  0  0  0
  -17.8352    3.4783  -15.7075 C   0  0  0  0  0  0  0  0  0  0  0  0
  -16.5551    3.8649  -16.0606 C   0  0  0  0  0  0  0  0  0  0  0  0
  -15.4857    3.0776  -15.8955 N   0  0  0  0  0  0  0  0  0  0  0  0
  -15.7056    1.8662  -15.3504 C   0  0  0  0  0  0  0  0  0  0  0  0
  -16.9448    1.3712  -14.9194 C   0  0  0  0  0  0  0  0  0  0  0  0
  -17.0003   -0.0383  -14.3631 C   0  0  0  0  0  0  0  0  0  0  0  0
  -15.7085   -0.5359  -13.6801 C   0  0  0  0  0  0  0  0  0  0  0  0
  -15.7888   -1.8488  -12.9439 C   0  0  0  0  0  0  0  0  0  0  0  0
  -15.7332   -1.9394  -11.5504 C   0  0  0  0  0  0  0  0  0  0  0  0
  -15.9548   -3.1671  -10.9515 C   0  0  0  0  0  0  0  0  0  0  0  0
  -16.2251   -4.3019  -11.6292 N   0  0  0  0  0  0  0  0  0  0  0  0
  -16.2811   -4.1995  -12.9721 C   0  0  0  0  0  0  0  0  0  0  0  0
  -16.0742   -3.0191  -13.6630 C   0  0  0  0  0  0  0  0  0  0  0  0
  -22.0055   -0.3365  -14.4120 N   0  0  0  0  0  0  0  0  0  0  0  0
  -21.8962   -0.9546  -15.2079 H   0  0  0  0  0  0  0  0  0  0  0  0
  -25.7329   -1.0718  -12.4499 C   0  0  0  0  0  0  0  0  0  0  0  0
  -24.6485   -0.5153  -11.7572 C   0  0  0  0  0  0  0  0  0  0  0  0
  -23.4330   -0.2387  -12.3942 C   0  0  0  0  0  0  0  0  0  0  0  0
  -23.2311   -0.5212  -13.7432 C   0  0  0  0  0  0  0  0  0  0  0  0
  -24.3018   -1.0950  -14.4381 C   0  0  0  0  0  0  0  0  0  0  0  0
  -25.5302   -1.3568  -13.8089 C   0  0  0  0  0  0  0  0  0  0  0  0
  -26.8225   -2.2459  -10.4531 C   0  0  0  0  0  0  0  0  0  0  0  0
  -27.0528   -1.4059  -11.7316 C   0  0  0  0  0  0  0  0  0  0  0  0
  -27.9456   -2.2099  -12.6959 C   0  0  0  0  0  0  0  0  0  0  0  0
  -27.8331   -0.1456  -11.2949 C   0  0  0  0  0  0  0  0  0  0  0  0
 28 29  1  0  0  0
 29 30  1  0  0  0
 29 31  1  0  0  0
 29 22  1  0  0  0
 22 23  1  0  0  0
 22 27  2  0  0  0
 23 24  2  0  0  0
 24 25  1  0  0  0
 25 20  1  0  0  0
 25 26  2  0  0  0
 20  1  1  0  0  0
 20 21  1  0  0  0
  1  2  2  0  0  0
  1  5  1  0  0  0
  2  3  1  0  0  0
  3  4  2  0  0  0
  4  6  1  0  0  0
  4  5  1  0  0  0
  6  7  1  0  0  0
  6 11  2  0  0  0
  7  8  2  0  0  0
  8  9  1  0  0  0
  9 10  2  0  0  0
 10 11  1  0  0  0
 11 12  1  0  0  0
 12 13  1  0  0  0
 13 14  1  0  0  0
 14 15  1  0  0  0
 14 19  2  0  0  0
 15 16  2  0  0  0
 16 17  1  0  0  0
 17 18  2  0  0  0
 18 19  1  0  0  0
 26 27  1  0  0  0
M  END
> <minimizedAffinity>
-9.47285

$$$$
