CHEMBL202011


 29 32  0  0  0  0  0  0  0  0999 V2000
  -26.1854   -1.5874  -12.4962 C   0  0  0  0  0  0  0  0  0  0  0  0
  -27.3688   -1.9725  -13.1636 C   0  0  0  0  0  0  0  0  0  0  0  0
  -27.4821   -1.8721  -14.5446 C   0  0  0  0  0  0  0  0  0  0  0  0
  -26.4037   -1.4048  -15.2761 C   0  0  0  0  0  0  0  0  0  0  0  0
  -25.2233   -1.0275  -14.6248 C   0  0  0  0  0  0  0  0  0  0  0  0
  -25.0915   -1.0541  -13.2196 C   0  0  0  0  0  0  0  0  0  0  0  0
  -25.2057   -1.5499  -10.3855 O   0  0  0  0  0  0  0  0  0  0  0  0
  -26.2499   -1.7064  -11.0116 C   0  0  0  0  0  0  0  0  0  0  0  0
  -27.4860   -1.9776  -10.4542 N   0  0  0  0  0  0  0  0  0  0  0  0
  -28.2743   -2.0517  -11.0924 H   0  0  0  0  0  0  0  0  0  0  0  0
  -27.7371   -2.1544   -9.0709 C   0  0  0  0  0  0  0  0  0  0  0  0
  -28.0980   -3.3611   -8.4764 C   0  0  0  0  0  0  0  0  0  0  0  0
  -28.3727   -3.5227   -7.1574 N   0  0  0  0  0  0  0  0  0  0  0  0
  -28.3055   -2.4456   -6.3657 C   0  0  0  0  0  0  0  0  0  0  0  0
  -28.6187   -2.5784   -5.0207 C   0  0  0  0  0  0  0  0  0  0  0  0
  -28.5917   -1.4867   -4.1517 C   0  0  0  0  0  0  0  0  0  0  0  0
  -28.2287   -0.2325   -4.6319 C   0  0  0  0  0  0  0  0  0  0  0  0
  -27.8968   -0.0760   -5.9778 C   0  0  0  0  0  0  0  0  0  0  0  0
  -27.9370   -1.1757   -6.8552 C   0  0  0  0  0  0  0  0  0  0  0  0
  -27.6404   -1.0505   -8.2270 C   0  0  0  0  0  0  0  0  0  0  0  0
  -23.8784   -0.6729  -12.5872 N   0  0  0  0  0  0  0  0  0  0  0  0
  -23.9629    0.2712  -12.2062 H   0  0  0  0  0  0  0  0  0  0  0  0
  -22.6578   -0.7655  -13.3972 C   0  0  0  0  0  0  0  0  0  0  0  0
  -22.2049    0.5996  -13.8473 C   0  0  0  0  0  0  0  0  0  0  0  0
  -22.9759    1.7316  -13.5575 C   0  0  0  0  0  0  0  0  0  0  0  0
  -22.4991    2.9773  -13.9318 C   0  0  0  0  0  0  0  0  0  0  0  0
  -21.3300    3.1673  -14.5771 N   0  0  0  0  0  0  0  0  0  0  0  0
  -20.6055    2.0635  -14.8593 C   0  0  0  0  0  0  0  0  0  0  0  0
  -20.9946    0.7757  -14.5227 C   0  0  0  0  0  0  0  0  0  0  0  0
  7  8  2  0  0  0
  8  9  1  0  0  0
  8  1  1  0  0  0
  9 11  1  0  0  0
  9 10  1  0  0  0
 11 12  1  0  0  0
 11 20  2  0  0  0
 12 13  2  0  0  0
 13 14  1  0  0  0
 14 15  1  0  0  0
 14 19  2  0  0  0
 15 16  2  0  0  0
 16 17  1  0  0  0
 17 18  2  0  0  0
 18 19  1  0  0  0
 19 20  1  0  0  0
  1  2  1  0  0  0
  1  6  2  0  0  0
  2  3  2  0  0  0
  3  4  1  0  0  0
  4  5  2  0  0  0
  5  6  1  0  0  0
  6 21  1  0  0  0
 21 23  1  0  0  0
 21 22  1  0  0  0
 23 24  1  0  0  0
 24 25  1  0  0  0
 24 29  2  0  0  0
 25 26  2  0  0  0
 26 27  1  0  0  0
 27 28  2  0  0  0
 28 29  1  0  0  0
M  END
> <minimizedAffinity>
-10.04062

$$$$
