CHEMBL2385600


 23 26  0  0  0  0  0  0  0  0999 V2000
  -30.1431   -6.0101   -6.5522 C   0  0  0  0  0  0  0  0  0  0  0  0
  -29.9906   -4.7815   -7.3929 C   0  0  0  0  0  0  0  0  0  0  0  0
  -29.5885   -3.6139   -6.9853 N   0  0  0  0  0  0  0  0  0  0  0  0
  -29.2677   -3.5228   -5.6539 C   0  0  0  0  0  0  0  0  0  0  0  0
  -28.8749   -2.4664   -4.8598 C   0  0  0  0  0  0  0  0  0  0  0  0
  -28.6799   -3.0203   -3.5823 C   0  0  0  0  0  0  0  0  0  0  0  0
  -28.9416   -4.3272   -3.5379 N   0  0  0  0  0  0  0  0  0  0  0  0
  -29.3295   -4.6344   -4.8008 N   0  0  0  0  0  0  0  0  0  0  0  0
  -29.7753   -5.8635   -5.2696 C   0  0  0  0  0  0  0  0  0  0  0  0
  -31.6588   -9.6774   -8.1246 C   0  0  0  0  0  0  0  0  0  0  0  0
  -30.3522   -9.2750   -8.4057 C   0  0  0  0  0  0  0  0  0  0  0  0
  -29.8578   -8.0724   -7.8899 C   0  0  0  0  0  0  0  0  0  0  0  0
  -30.6699   -7.2575   -7.0932 C   0  0  0  0  0  0  0  0  0  0  0  0
  -31.9822   -7.6520   -6.8234 C   0  0  0  0  0  0  0  0  0  0  0  0
  -32.4684   -8.8613   -7.3309 C   0  0  0  0  0  0  0  0  0  0  0  0
  -31.4611  -12.0145   -8.4798 C   0  0  0  0  0  0  0  0  0  0  0  0
  -32.2480  -10.8312   -8.5634 O   0  0  0  0  0  0  0  0  0  0  0  0
  -28.7055   -1.0685   -5.2179 C   0  0  0  0  0  0  0  0  0  0  0  0
  -29.7360   -0.1472   -5.4954 C   0  0  0  0  0  0  0  0  0  0  0  0
  -29.2650    1.0722   -5.7737 N   0  0  0  0  0  0  0  0  0  0  0  0
  -27.9332    0.9265   -5.6720 N   0  0  0  0  0  0  0  0  0  0  0  0
  -27.5444   -0.3401   -5.3434 C   0  0  0  0  0  0  0  0  0  0  0  0
  -27.3491    1.7392   -5.8379 H   0  0  0  0  0  0  0  0  0  0  0  0
 16 17  1  0  0  0
 17 10  1  0  0  0
 10 11  1  0  0  0
 10 15  2  0  0  0
 11 12  2  0  0  0
 12 13  1  0  0  0
 13  1  1  0  0  0
 13 14  2  0  0  0
  1  2  1  0  0  0
  1  9  2  0  0  0
  2  3  2  0  0  0
  3  4  1  0  0  0
  4  5  2  0  0  0
  4  8  1  0  0  0
  5 18  1  0  0  0
  5  6  1  0  0  0
 18 19  1  0  0  0
 18 22  2  0  0  0
 19 20  2  0  0  0
 20 21  1  0  0  0
 21 22  1  0  0  0
 21 23  1  0  0  0
  6  7  2  0  0  0
  7  8  1  0  0  0
  8  9  1  0  0  0
 14 15  1  0  0  0
M  END
> <minimizedAffinity>
-8.25649

$$$$
