CHEMBL190188


 38 41  0  0  0  0  0  0  0  0999 V2000
  -28.7542   -8.2714   -7.8468 C   0  0  0  0  0  0  0  0  0  0  0  0
  -28.3217   -7.0569   -8.2918 N   0  0  0  0  0  0  0  0  0  0  0  0
  -28.7155   -5.9437   -7.6555 C   0  0  0  0  0  0  0  0  0  0  0  0
  -28.1918   -4.7104   -8.0013 C   0  0  0  0  0  0  0  0  0  0  0  0
  -28.6016   -3.5655   -7.3086 C   0  0  0  0  0  0  0  0  0  0  0  0
  -29.5697   -3.6057   -6.3932 N   0  0  0  0  0  0  0  0  0  0  0  0
  -30.0862   -4.8060   -6.0747 C   0  0  0  0  0  0  0  0  0  0  0  0
  -29.6367   -6.0087   -6.6161 C   0  0  0  0  0  0  0  0  0  0  0  0
  -30.0579   -7.2670   -6.1602 C   0  0  0  0  0  0  0  0  0  0  0  0
  -29.6306   -8.4674   -6.7608 C   0  0  0  0  0  0  0  0  0  0  0  0
  -30.2127   -9.7881   -6.2999 C   0  0  0  0  0  0  0  0  0  0  0  0
  -29.6442  -10.5305   -5.2201 C   0  0  0  0  0  0  0  0  0  0  0  0
  -28.3220   -9.9674   -4.2369 Cl  0  0  0  0  0  0  0  0  0  0  0  0
  -30.1345  -11.7897   -4.8259 C   0  0  0  0  0  0  0  0  0  0  0  0
  -31.2805  -12.3116   -5.3996 C   0  0  0  0  0  0  0  0  0  0  0  0
  -31.8984  -11.6035   -6.4164 C   0  0  0  0  0  0  0  0  0  0  0  0
  -31.3378  -10.4080   -6.9055 C   0  0  0  0  0  0  0  0  0  0  0  0
  -32.0710   -9.8453   -8.3763 Cl  0  0  0  0  0  0  0  0  0  0  0  0
  -26.4220   -9.6845   -7.1431 N   0  0  0  0  0  0  0  0  0  0  0  0
  -27.1638  -10.1418   -8.1893 C   0  0  0  0  0  0  0  0  0  0  0  0
  -26.8537  -11.1091   -8.8779 O   0  0  0  0  0  0  0  0  0  0  0  0
  -28.2226   -9.3662   -8.5386 N   0  0  0  0  0  0  0  0  0  0  0  0
  -26.9765   -9.2109   -6.4350 H   0  0  0  0  0  0  0  0  0  0  0  0
  -28.6586   -9.6464   -9.4038 H   0  0  0  0  0  0  0  0  0  0  0  0
  -24.7565   -9.8888   -5.3821 C   0  0  0  0  0  0  0  0  0  0  0  0
  -25.1973  -10.3357   -6.7595 C   0  0  0  0  0  0  0  0  0  0  0  0
  -28.0049   -2.3381   -7.6518 N   0  0  0  0  0  0  0  0  0  0  0  0
  -28.2410   -1.6281   -6.9666 H   0  0  0  0  0  0  0  0  0  0  0  0
  -28.3174   -1.8812   -9.0079 C   0  0  0  0  0  0  0  0  0  0  0  0
  -27.0004   -1.7015   -9.7570 C   0  0  0  0  0  0  0  0  0  0  0  0
  -27.1972   -1.5907  -11.2722 C   0  0  0  0  0  0  0  0  0  0  0  0
  -25.9640   -1.9096  -12.0102 N   0  0  0  0  0  0  0  0  0  0  0  0
  -25.8814   -1.2164  -13.3115 C   0  0  0  0  0  0  0  0  0  0  0  0
  -24.5718   -1.5394  -14.0644 C   0  0  0  0  0  0  0  0  0  0  0  0
  -23.3371   -1.2638  -13.3080 N   0  0  0  0  0  0  0  0  0  0  0  0
  -23.0703    0.1693  -13.2236 C   0  0  0  0  0  0  0  0  0  0  0  0
  -23.4465   -1.8835  -11.9715 C   0  0  0  0  0  0  0  0  0  0  0  0
  -24.7645   -1.5898  -11.2093 C   0  0  0  0  0  0  0  0  0  0  0  0
 25 26  1  0  0  0
 26 19  1  0  0  0
 19 20  1  0  0  0
 19 23  1  0  0  0
 20 21  2  0  0  0
 20 22  1  0  0  0
 22  1  1  0  0  0
 22 24  1  0  0  0
  1  2  1  0  0  0
  1 10  2  0  0  0
  2  3  2  0  0  0
  3  4  1  0  0  0
  3  8  1  0  0  0
  4  5  2  0  0  0
  5 27  1  0  0  0
  5  6  1  0  0  0
 27 29  1  0  0  0
 27 28  1  0  0  0
 29 30  1  0  0  0
 30 31  1  0  0  0
 31 32  1  0  0  0
 32 33  1  0  0  0
 32 38  1  0  0  0
 33 34  1  0  0  0
 34 35  1  0  0  0
 35 36  1  0  0  0
 35 37  1  0  0  0
 37 38  1  0  0  0
  6  7  2  0  0  0
  7  8  1  0  0  0
  8  9  2  0  0  0
  9 10  1  0  0  0
 10 11  1  0  0  0
 11 12  1  0  0  0
 11 17  2  0  0  0
 12 13  1  0  0  0
 12 14  2  0  0  0
 14 15  1  0  0  0
 15 16  2  0  0  0
 16 17  1  0  0  0
 17 18  1  0  0  0
M  END
> <minimizedAffinity>
-7.95312

$$$$
