CHEMBL169643


 34 38  0  0  0  0  0  0  0  0999 V2000
  -27.9826   -9.3379   -8.1855 C   0  0  0  0  0  0  0  0  0  0  0  0
  -27.3140  -10.2592   -7.3798 C   0  0  0  0  0  0  0  0  0  0  0  0
  -27.2230  -10.0906   -5.9822 C   0  0  0  0  0  0  0  0  0  0  0  0
  -26.5002  -10.9405   -5.1346 C   0  0  0  0  0  0  0  0  0  0  0  0
  -26.4912  -10.7782   -3.7993 N   0  0  0  0  0  0  0  0  0  0  0  0
  -27.2176   -9.7676   -3.3151 C   0  0  0  0  0  0  0  0  0  0  0  0
  -27.9079   -8.8732   -4.0339 N   0  0  0  0  0  0  0  0  0  0  0  0
  -27.9021   -9.0365   -5.3606 C   0  0  0  0  0  0  0  0  0  0  0  0
  -28.6079   -8.1522   -6.1662 C   0  0  0  0  0  0  0  0  0  0  0  0
  -28.6744   -8.2927   -7.5620 C   0  0  0  0  0  0  0  0  0  0  0  0
  -28.9945  -10.2000  -10.1789 C   0  0  0  0  0  0  0  0  0  0  0  0
  -27.9905   -9.4126   -9.5472 O   0  0  0  0  0  0  0  0  0  0  0  0
  -25.7227  -11.9910   -5.7033 N   0  0  0  0  0  0  0  0  0  0  0  0
  -26.1976  -12.3218   -6.5421 H   0  0  0  0  0  0  0  0  0  0  0  0
  -24.3324  -11.8867   -5.9325 C   0  0  0  0  0  0  0  0  0  0  0  0
  -23.7458  -11.8875   -7.2211 C   0  0  0  0  0  0  0  0  0  0  0  0
  -24.7147  -11.8099   -8.6622 Cl  0  0  0  0  0  0  0  0  0  0  0  0
  -22.3591  -11.8756   -7.4077 C   0  0  0  0  0  0  0  0  0  0  0  0
  -21.4840  -11.8124   -6.3194 C   0  0  0  0  0  0  0  0  0  0  0  0
  -22.0254  -11.7126   -5.0280 C   0  0  0  0  0  0  0  0  0  0  0  0
  -21.4896  -11.5775   -3.7238 C   0  0  0  0  0  0  0  0  0  0  0  0
  -22.5610  -11.5254   -2.8653 C   0  0  0  0  0  0  0  0  0  0  0  0
  -23.7309  -11.6343   -3.5518 O   0  0  0  0  0  0  0  0  0  0  0  0
  -23.4099  -11.7473   -4.8795 C   0  0  0  0  0  0  0  0  0  0  0  0
  -29.4329   -7.3253   -8.1712 O   0  0  0  0  0  0  0  0  0  0  0  0
  -30.1494   -6.3899   -7.3551 C   0  0  0  0  0  0  0  0  0  0  0  0
  -29.6571   -4.9448   -7.4924 C   0  0  0  0  0  0  0  0  0  0  0  0
  -29.9659   -4.1421   -6.2234 C   0  0  0  0  0  0  0  0  0  0  0  0
  -29.8681   -4.9217   -4.9752 N   0  0  0  0  0  0  0  0  0  0  0  0
  -30.7284   -4.3163   -3.9276 C   0  0  0  0  0  0  0  0  0  0  0  0
  -30.1881   -2.9824   -3.3719 C   0  0  0  0  0  0  0  0  0  0  0  0
  -28.8529   -3.1236   -2.8712 O   0  0  0  0  0  0  0  0  0  0  0  0
  -27.9772   -3.6414   -3.8814 C   0  0  0  0  0  0  0  0  0  0  0  0
  -28.4925   -4.9850   -4.4243 C   0  0  0  0  0  0  0  0  0  0  0  0
 11 12  1  0  0  0
 12  1  1  0  0  0
  1  2  1  0  0  0
  1 10  2  0  0  0
  2  3  2  0  0  0
  3  4  1  0  0  0
  3  8  1  0  0  0
  4 13  1  0  0  0
  4  5  2  0  0  0
 13 15  1  0  0  0
 13 14  1  0  0  0
 15 16  1  0  0  0
 15 24  2  0  0  0
 16 17  1  0  0  0
 16 18  2  0  0  0
 18 19  1  0  0  0
 19 20  2  0  0  0
 20 21  1  0  0  0
 20 24  1  0  0  0
 21 22  2  0  0  0
 22 23  1  0  0  0
 23 24  1  0  0  0
  5  6  1  0  0  0
  6  7  2  0  0  0
  7  8  1  0  0  0
  8  9  2  0  0  0
  9 10  1  0  0  0
 10 25  1  0  0  0
 25 26  1  0  0  0
 26 27  1  0  0  0
 27 28  1  0  0  0
 28 29  1  0  0  0
 29 30  1  0  0  0
 29 34  1  0  0  0
 30 31  1  0  0  0
 31 32  1  0  0  0
 32 33  1  0  0  0
 33 34  1  0  0  0
M  END
> <minimizedAffinity>
-7.57483

$$$$
