CHEMBL507927


 23 26  0  0  0  0  0  0  0  0999 V2000
  -18.7786    2.0873  -15.0839 C   0  0  0  0  0  0  0  0  0  0  0  0
  -19.4363    3.2355  -14.6272 C   0  0  0  0  0  0  0  0  0  0  0  0
  -20.7740    3.1964  -14.2224 C   0  0  0  0  0  0  0  0  0  0  0  0
  -21.4071    1.9593  -14.2985 C   0  0  0  0  0  0  0  0  0  0  0  0
  -22.6905    1.5792  -14.0306 N   0  0  0  0  0  0  0  0  0  0  0  0
  -22.8342    0.2414  -14.3116 C   0  0  0  0  0  0  0  0  0  0  0  0
  -21.6738   -0.2608  -14.7033 N   0  0  0  0  0  0  0  0  0  0  0  0
  -20.7936    0.7996  -14.7436 C   0  0  0  0  0  0  0  0  0  0  0  0
  -19.4565    0.8601  -15.1623 C   0  0  0  0  0  0  0  0  0  0  0  0
  -23.4484    2.2051  -13.7872 H   0  0  0  0  0  0  0  0  0  0  0  0
  -24.1001   -0.4830  -14.1895 C   0  0  0  0  0  0  0  0  0  0  0  0
  -24.9439   -0.5872  -15.3102 C   0  0  0  0  0  0  0  0  0  0  0  0
  -26.1897   -1.2421  -15.2387 C   0  0  0  0  0  0  0  0  0  0  0  0
  -26.6442   -1.7833  -14.0356 C   0  0  0  0  0  0  0  0  0  0  0  0
  -25.8262   -1.6769  -12.9248 C   0  0  0  0  0  0  0  0  0  0  0  0
  -24.5673   -1.0623  -13.0137 C   0  0  0  0  0  0  0  0  0  0  0  0
  -23.9539   -1.1778  -11.6733 C   0  0  0  0  0  0  0  0  0  0  0  0
  -22.8202   -0.8830  -11.3574 O   0  0  0  0  0  0  0  0  0  0  0  0
  -24.8842   -1.7596  -10.8461 N   0  0  0  0  0  0  0  0  0  0  0  0
  -26.0915   -2.1347  -11.5298 C   0  0  0  0  0  0  0  0  0  0  0  0
  -24.6666   -1.9645   -9.8795 H   0  0  0  0  0  0  0  0  0  0  0  0
  -16.9372    3.3364  -15.8753 C   0  0  0  0  0  0  0  0  0  0  0  0
  -17.4804    2.0671  -15.5258 O   0  0  0  0  0  0  0  0  0  0  0  0
 22 23  1  0  0  0
 23  1  1  0  0  0
  1  2  1  0  0  0
  1  9  2  0  0  0
  2  3  2  0  0  0
  3  4  1  0  0  0
  4  5  1  0  0  0
  4  8  2  0  0  0
  5  6  1  0  0  0
  5 10  1  0  0  0
  6 11  1  0  0  0
  6  7  2  0  0  0
 11 12  1  0  0  0
 11 16  2  0  0  0
 12 13  2  0  0  0
 13 14  1  0  0  0
 14 15  2  0  0  0
 15 16  1  0  0  0
 15 20  1  0  0  0
 16 17  1  0  0  0
 17 18  2  0  0  0
 17 19  1  0  0  0
 19 20  1  0  0  0
 19 21  1  0  0  0
  7  8  1  0  0  0
  8  9  1  0  0  0
M  END
> <minimizedAffinity>
-8.57937

$$$$
