CHEMBL3745943


 34 38  0  0  0  0  0  0  0  0999 V2000
  -17.2262    1.4881  -15.2236 N   0  0  0  0  0  0  0  0  0  0  0  0
  -17.9659    2.4937  -15.8239 C   0  0  0  0  0  0  0  0  0  0  0  0
  -17.6427    3.3361  -16.6450 O   0  0  0  0  0  0  0  0  0  0  0  0
  -19.2422    2.6167  -15.2340 N   0  0  0  0  0  0  0  0  0  0  0  0
  -19.8235    3.8480  -14.9686 C   0  0  0  0  0  0  0  0  0  0  0  0
  -21.0050    3.6606  -14.2993 C   0  0  0  0  0  0  0  0  0  0  0  0
  -21.2185    2.2638  -14.2031 C   0  0  0  0  0  0  0  0  0  0  0  0
  -22.2565    1.4879  -13.6496 C   0  0  0  0  0  0  0  0  0  0  0  0
  -22.2174    0.0933  -13.7544 C   0  0  0  0  0  0  0  0  0  0  0  0
  -21.1699   -0.5225  -14.4379 C   0  0  0  0  0  0  0  0  0  0  0  0
  -20.1286    0.2279  -15.0018 C   0  0  0  0  0  0  0  0  0  0  0  0
  -20.1389    1.6236  -14.8273 C   0  0  0  0  0  0  0  0  0  0  0  0
  -17.5829    1.0111  -14.4093 H   0  0  0  0  0  0  0  0  0  0  0  0
  -13.6702    1.1140  -15.3492 C   0  0  0  0  0  0  0  0  0  0  0  0
  -14.8104    1.3834  -14.6105 C   0  0  0  0  0  0  0  0  0  0  0  0
  -15.8910    1.2832  -15.5225 C   0  0  0  0  0  0  0  0  0  0  0  0
  -15.4481    0.9543  -16.7384 N   0  0  0  0  0  0  0  0  0  0  0  0
  -14.1215    0.8657  -16.6206 N   0  0  0  0  0  0  0  0  0  0  0  0
  -13.5829    0.6435  -17.4460 H   0  0  0  0  0  0  0  0  0  0  0  0
  -11.4269    2.1889  -15.6348 C   0  0  0  0  0  0  0  0  0  0  0  0
  -12.2130    1.0365  -15.0102 C   0  0  0  0  0  0  0  0  0  0  0  0
  -12.0105    0.9950  -13.4967 C   0  0  0  0  0  0  0  0  0  0  0  0
  -23.2164   -0.5693  -13.0738 O   0  0  0  0  0  0  0  0  0  0  0  0
  -24.3722   -0.9233  -13.7509 C   0  0  0  0  0  0  0  0  0  0  0  0
  -24.3971   -0.7523  -15.0857 N   0  0  0  0  0  0  0  0  0  0  0  0
  -25.5564   -1.0472  -15.6737 C   0  0  0  0  0  0  0  0  0  0  0  0
  -26.6728   -1.4478  -15.0503 N   0  0  0  0  0  0  0  0  0  0  0  0
  -26.6130   -1.5730  -13.7022 C   0  0  0  0  0  0  0  0  0  0  0  0
  -25.4568   -1.3364  -12.9931 C   0  0  0  0  0  0  0  0  0  0  0  0
  -25.3847   -1.5075  -11.5144 C   0  0  0  0  0  0  0  0  0  0  0  0
  -26.6514   -2.0532  -10.8426 C   0  0  0  0  0  0  0  0  0  0  0  0
  -27.9164   -2.0455  -11.5561 N   0  0  0  0  0  0  0  0  0  0  0  0
  -27.8944   -1.9659  -13.0142 C   0  0  0  0  0  0  0  0  0  0  0  0
  -28.5646   -1.3643  -11.1688 H   0  0  0  0  0  0  0  0  0  0  0  0
 20 21  1  0  0  0
 21 22  1  0  0  0
 21 14  1  0  0  0
 14 15  2  0  0  0
 14 18  1  0  0  0
 15 16  1  0  0  0
 16  1  1  0  0  0
 16 17  2  0  0  0
  1  2  1  0  0  0
  1 13  1  0  0  0
  2  3  2  0  0  0
  2  4  1  0  0  0
  4  5  1  0  0  0
  4 12  1  0  0  0
  5  6  2  0  0  0
  6  7  1  0  0  0
  7  8  1  0  0  0
  7 12  2  0  0  0
  8  9  2  0  0  0
  9 23  1  0  0  0
  9 10  1  0  0  0
 23 24  1  0  0  0
 24 25  1  0  0  0
 24 29  2  0  0  0
 25 26  2  0  0  0
 26 27  1  0  0  0
 27 28  2  0  0  0
 28 29  1  0  0  0
 28 33  1  0  0  0
 29 30  1  0  0  0
 30 31  1  0  0  0
 31 32  1  0  0  0
 32 33  1  0  0  0
 32 34  1  0  0  0
 10 11  2  0  0  0
 11 12  1  0  0  0
 17 18  1  0  0  0
 18 19  1  0  0  0
M  END
> <minimizedAffinity>
-8.19867

$$$$
