CHEMBL3690373


 34 38  0  0  0  0  0  0  0  0999 V2000
  -25.0029   -1.2193  -12.3908 C   0  0  0  0  0  0  0  0  0  0  0  0
  -25.4680   -1.8295  -13.5539 C   0  0  0  0  0  0  0  0  0  0  0  0
  -24.9820   -1.4396  -14.7982 C   0  0  0  0  0  0  0  0  0  0  0  0
  -24.0436   -0.4157  -14.8907 C   0  0  0  0  0  0  0  0  0  0  0  0
  -23.6372    0.2960  -13.7550 C   0  0  0  0  0  0  0  0  0  0  0  0
  -24.0982   -0.1467  -12.5013 C   0  0  0  0  0  0  0  0  0  0  0  0
  -22.7686    1.4792  -13.8646 C   0  0  0  0  0  0  0  0  0  0  0  0
  -23.0350    2.8147  -13.6032 C   0  0  0  0  0  0  0  0  0  0  0  0
  -21.9566    3.6230  -13.8571 N   0  0  0  0  0  0  0  0  0  0  0  0
  -21.0130    2.8171  -14.2919 C   0  0  0  0  0  0  0  0  0  0  0  0
  -19.6843    3.0945  -14.7441 C   0  0  0  0  0  0  0  0  0  0  0  0
  -18.8827    2.1036  -15.2095 C   0  0  0  0  0  0  0  0  0  0  0  0
  -19.3870    0.7238  -15.1905 C   0  0  0  0  0  0  0  0  0  0  0  0
  -20.6413    0.4632  -14.8012 C   0  0  0  0  0  0  0  0  0  0  0  0
  -21.4555    1.4955  -14.3373 N   0  0  0  0  0  0  0  0  0  0  0  0
  -17.5915    2.4685  -15.7384 C   0  0  0  0  0  0  0  0  0  0  0  0
  -17.2338    3.6375  -16.2696 N   0  0  0  0  0  0  0  0  0  0  0  0
  -15.9232    3.5683  -16.6388 C   0  0  0  0  0  0  0  0  0  0  0  0
  -15.2882    2.3822  -16.4307 C   0  0  0  0  0  0  0  0  0  0  0  0
  -16.2960    1.2540  -15.7454 S   0  0  0  0  0  0  0  0  0  0  0  0
  -13.8768    2.3669  -16.8518 C   0  0  0  0  0  0  0  0  0  0  0  0
  -13.6237    3.8968  -17.0528 C   0  0  0  0  0  0  0  0  0  0  0  0
  -15.0255    4.5731  -17.2461 C   0  0  0  0  0  0  0  0  0  0  0  0
  -27.7022   -1.3175  -11.1397 O   0  0  0  0  0  0  0  0  0  0  0  0
  -26.6674   -1.6591  -10.5786 C   0  0  0  0  0  0  0  0  0  0  0  0
  -26.6855   -2.1599   -9.2961 N   0  0  0  0  0  0  0  0  0  0  0  0
  -25.3909   -1.6295  -11.0946 N   0  0  0  0  0  0  0  0  0  0  0  0
  -25.8491   -1.9968   -8.7523 H   0  0  0  0  0  0  0  0  0  0  0  0
  -24.6657   -2.0120  -10.5108 H   0  0  0  0  0  0  0  0  0  0  0  0
  -27.9495   -2.1388   -8.5512 C   0  0  0  0  0  0  0  0  0  0  0  0
  -28.4384   -3.5100   -8.0637 C   0  0  0  0  0  0  0  0  0  0  0  0
  -29.7315   -3.7321   -8.3981 F   0  0  0  0  0  0  0  0  0  0  0  0
  -27.6975   -4.5260   -8.5495 F   0  0  0  0  0  0  0  0  0  0  0  0
  -28.3718   -3.5689   -6.7100 F   0  0  0  0  0  0  0  0  0  0  0  0
 24 25  2  0  0  0
 25 26  1  0  0  0
 25 27  1  0  0  0
 26 30  1  0  0  0
 26 28  1  0  0  0
 30 31  1  0  0  0
 31 32  1  0  0  0
 31 33  1  0  0  0
 31 34  1  0  0  0
 27  1  1  0  0  0
 27 29  1  0  0  0
  1  2  1  0  0  0
  1  6  2  0  0  0
  2  3  2  0  0  0
  3  4  1  0  0  0
  4  5  2  0  0  0
  5  7  1  0  0  0
  5  6  1  0  0  0
  7  8  2  0  0  0
  7 15  1  0  0  0
  8  9  1  0  0  0
  9 10  2  0  0  0
 10 11  1  0  0  0
 10 15  1  0  0  0
 11 12  2  0  0  0
 12 16  1  0  0  0
 12 13  1  0  0  0
 16 17  2  0  0  0
 16 20  1  0  0  0
 17 18  1  0  0  0
 18 19  2  0  0  0
 18 23  1  0  0  0
 19 20  1  0  0  0
 19 21  1  0  0  0
 21 22  1  0  0  0
 22 23  1  0  0  0
 13 14  2  0  0  0
 14 15  1  0  0  0
M  END
> <minimizedAffinity>
-10.54484

$$$$
