CHEMBL1977138


 28 31  0  0  0  0  0  0  0  0999 V2000
  -28.5934   -7.9454   -7.8609 C   0  0  0  0  0  0  0  0  0  0  0  0
  -29.8249   -8.6067   -7.8545 C   0  0  0  0  0  0  0  0  0  0  0  0
  -30.9996   -8.0184   -7.5263 N   0  0  0  0  0  0  0  0  0  0  0  0
  -30.9001   -6.7272   -7.1484 C   0  0  0  0  0  0  0  0  0  0  0  0
  -29.6797   -6.0624   -7.0762 C   0  0  0  0  0  0  0  0  0  0  0  0
  -28.5097   -6.6685   -7.4365 N   0  0  0  0  0  0  0  0  0  0  0  0
  -29.6415   -4.7541   -6.5262 N   0  0  0  0  0  0  0  0  0  0  0  0
  -30.1396   -4.3615   -5.3020 C   0  0  0  0  0  0  0  0  0  0  0  0
  -29.8643   -3.1106   -5.0174 N   0  0  0  0  0  0  0  0  0  0  0  0
  -29.1754   -2.6457   -6.1026 C   0  0  0  0  0  0  0  0  0  0  0  0
  -28.6186   -1.3752   -6.3121 C   0  0  0  0  0  0  0  0  0  0  0  0
  -27.9327   -1.1227   -7.5069 C   0  0  0  0  0  0  0  0  0  0  0  0
  -27.7984   -2.1202   -8.4776 C   0  0  0  0  0  0  0  0  0  0  0  0
  -28.3445   -3.3968   -8.2800 C   0  0  0  0  0  0  0  0  0  0  0  0
  -29.0402   -3.6316   -7.0804 C   0  0  0  0  0  0  0  0  0  0  0  0
  -27.0826   -1.8404   -9.6869 C   0  0  0  0  0  0  0  0  0  0  0  0
  -26.4961   -1.6106  -10.6652 N   0  0  0  0  0  0  0  0  0  0  0  0
  -27.4474   -8.6736   -8.1925 N   0  0  0  0  0  0  0  0  0  0  0  0
  -26.9112   -8.0993   -8.8419 H   0  0  0  0  0  0  0  0  0  0  0  0
  -26.3917  -10.8967   -8.3813 C   0  0  0  0  0  0  0  0  0  0  0  0
  -27.6080  -10.0338   -8.7325 C   0  0  0  0  0  0  0  0  0  0  0  0
  -27.7423   -9.9354  -10.2492 C   0  0  0  0  0  0  0  0  0  0  0  0
  -26.7633   -9.3203  -11.0512 C   0  0  0  0  0  0  0  0  0  0  0  0
  -26.9469   -9.1795  -12.4296 C   0  0  0  0  0  0  0  0  0  0  0  0
  -28.0958   -9.6817  -13.0368 C   0  0  0  0  0  0  0  0  0  0  0  0
  -29.0464  -10.3502  -12.2680 C   0  0  0  0  0  0  0  0  0  0  0  0
  -28.8622  -10.4760  -10.8909 C   0  0  0  0  0  0  0  0  0  0  0  0
  -29.7877  -11.1324  -10.1772 F   0  0  0  0  0  0  0  0  0  0  0  0
 20 21  1  0  0  0
 21 18  1  0  0  0
 21 22  1  0  0  0
 18  1  1  0  0  0
 18 19  1  0  0  0
  1  2  1  0  0  0
  1  6  2  0  0  0
  2  3  2  0  0  0
  3  4  1  0  0  0
  4  5  2  0  0  0
  5  7  1  0  0  0
  5  6  1  0  0  0
  7  8  1  0  0  0
  7 15  1  0  0  0
  8  9  2  0  0  0
  9 10  1  0  0  0
 10 11  1  0  0  0
 10 15  2  0  0  0
 11 12  2  0  0  0
 12 13  1  0  0  0
 13 16  1  0  0  0
 13 14  2  0  0  0
 16 17  3  0  0  0
 14 15  1  0  0  0
 22 23  1  0  0  0
 22 27  2  0  0  0
 23 24  2  0  0  0
 24 25  1  0  0  0
 25 26  2  0  0  0
 26 27  1  0  0  0
 27 28  1  0  0  0
M  END
> <minimizedAffinity>
-8.24237

$$$$
