CHEMBL1688356


 37 42  0  0  0  0  0  0  0  0999 V2000
  -30.5187   -3.4631   -3.7648 C   0  0  0  0  0  0  0  0  0  0  0  0
  -29.8132   -2.2700   -3.7878 C   0  0  0  0  0  0  0  0  0  0  0  0
  -29.1478   -1.8834   -4.9463 C   0  0  0  0  0  0  0  0  0  0  0  0
  -29.1492   -2.6984   -6.1014 C   0  0  0  0  0  0  0  0  0  0  0  0
  -29.8245   -3.9431   -6.0580 C   0  0  0  0  0  0  0  0  0  0  0  0
  -30.5240   -4.2854   -4.8889 C   0  0  0  0  0  0  0  0  0  0  0  0
  -28.3876   -2.2535   -7.2735 C   0  0  0  0  0  0  0  0  0  0  0  0
  -27.3643   -1.4196   -7.3451 N   0  0  0  0  0  0  0  0  0  0  0  0
  -26.9752   -1.3188   -8.6711 N   0  0  0  0  0  0  0  0  0  0  0  0
  -27.8036   -2.0374   -9.3903 C   0  0  0  0  0  0  0  0  0  0  0  0
  -28.6526   -2.6937   -8.5446 N   0  0  0  0  0  0  0  0  0  0  0  0
  -29.3582   -3.3457   -8.8247 H   0  0  0  0  0  0  0  0  0  0  0  0
  -27.8410   -2.2543  -10.7239 N   0  0  0  0  0  0  0  0  0  0  0  0
  -28.3605   -3.0840  -11.0090 H   0  0  0  0  0  0  0  0  0  0  0  0
  -26.8667   -1.8847  -11.6839 C   0  0  0  0  0  0  0  0  0  0  0  0
  -27.1059   -1.8486  -13.0647 C   0  0  0  0  0  0  0  0  0  0  0  0
  -26.0915   -1.4958  -13.9653 C   0  0  0  0  0  0  0  0  0  0  0  0
  -24.8226   -1.1653  -13.5000 C   0  0  0  0  0  0  0  0  0  0  0  0
  -24.5548   -1.2437  -12.1371 C   0  0  0  0  0  0  0  0  0  0  0  0
  -25.5652   -1.6024  -11.2391 C   0  0  0  0  0  0  0  0  0  0  0  0
  -23.3143   -1.0060  -11.6100 O   0  0  0  0  0  0  0  0  0  0  0  0
  -22.5435   -0.1527  -12.4545 C   0  0  0  0  0  0  0  0  0  0  0  0
  -22.6052   -0.5370  -13.9267 C   0  0  0  0  0  0  0  0  0  0  0  0
  -23.9214   -0.7533  -14.4354 O   0  0  0  0  0  0  0  0  0  0  0  0
  -29.7578   -4.8214   -7.1411 N   0  0  0  0  0  0  0  0  0  0  0  0
  -30.6627   -4.9873   -7.5762 H   0  0  0  0  0  0  0  0  0  0  0  0
  -28.8493   -5.9553   -7.1282 C   0  0  0  0  0  0  0  0  0  0  0  0
  -29.5448   -7.2216   -7.5818 C   0  0  0  0  0  0  0  0  0  0  0  0
  -28.9246   -8.1303   -8.4561 C   0  0  0  0  0  0  0  0  0  0  0  0
  -29.5760   -9.2808   -8.9113 C   0  0  0  0  0  0  0  0  0  0  0  0
  -30.8594   -9.5173   -8.4234 C   0  0  0  0  0  0  0  0  0  0  0  0
  -31.7780  -10.4922   -8.6949 N   0  0  0  0  0  0  0  0  0  0  0  0
  -32.8866  -10.4371   -7.9333 N   0  0  0  0  0  0  0  0  0  0  0  0
  -32.6943   -9.3423   -7.1922 C   0  0  0  0  0  0  0  0  0  0  0  0
  -31.4737   -8.6932   -7.4813 C   0  0  0  0  0  0  0  0  0  0  0  0
  -30.8179   -7.5266   -7.0570 C   0  0  0  0  0  0  0  0  0  0  0  0
  -31.7078  -11.2220   -9.3943 H   0  0  0  0  0  0  0  0  0  0  0  0
  1  2  1  0  0  0
  1  6  2  0  0  0
  2  3  2  0  0  0
  3  4  1  0  0  0
  4  7  1  0  0  0
  4  5  2  0  0  0
  7  8  2  0  0  0
  7 11  1  0  0  0
  8  9  1  0  0  0
  9 10  2  0  0  0
 10 13  1  0  0  0
 10 11  1  0  0  0
 13 15  1  0  0  0
 13 14  1  0  0  0
 15 16  1  0  0  0
 15 20  2  0  0  0
 16 17  2  0  0  0
 17 18  1  0  0  0
 18 19  2  0  0  0
 18 24  1  0  0  0
 19 20  1  0  0  0
 19 21  1  0  0  0
 21 22  1  0  0  0
 22 23  1  0  0  0
 23 24  1  0  0  0
 11 12  1  0  0  0
  5 25  1  0  0  0
  5  6  1  0  0  0
 25 27  1  0  0  0
 25 26  1  0  0  0
 27 28  1  0  0  0
 28 29  1  0  0  0
 28 36  2  0  0  0
 29 30  2  0  0  0
 30 31  1  0  0  0
 31 32  1  0  0  0
 31 35  2  0  0  0
 32 33  1  0  0  0
 32 37  1  0  0  0
 33 34  2  0  0  0
 34 35  1  0  0  0
 35 36  1  0  0  0
M  END
> <minimizedAffinity>
-11.38724

$$$$
