CHEMBL3678947


 36 40  0  0  0  0  0  0  0  0999 V2000
  -14.7334    3.6973  -17.2964 N   0  0  0  0  0  0  0  0  0  0  0  0
  -13.7165    2.7322  -17.2874 C   0  0  0  0  0  0  0  0  0  0  0  0
  -14.1213    1.6331  -16.6886 N   0  0  0  0  0  0  0  0  0  0  0  0
  -15.3938    1.8628  -16.2648 C   0  0  0  0  0  0  0  0  0  0  0  0
  -16.3010    1.0973  -15.5511 C   0  0  0  0  0  0  0  0  0  0  0  0
  -17.5203    1.6096  -15.2461 N   0  0  0  0  0  0  0  0  0  0  0  0
  -17.8111    2.8687  -15.6282 C   0  0  0  0  0  0  0  0  0  0  0  0
  -16.9870    3.6698  -16.3307 N   0  0  0  0  0  0  0  0  0  0  0  0
  -15.7999    3.1284  -16.6241 C   0  0  0  0  0  0  0  0  0  0  0  0
  -13.3375    5.7581  -17.3635 C   0  0  0  0  0  0  0  0  0  0  0  0
  -14.6530    5.0820  -17.7653 C   0  0  0  0  0  0  0  0  0  0  0  0
  -14.8192    5.2982  -19.2830 C   0  0  0  0  0  0  0  0  0  0  0  0
  -12.4845    2.9205  -17.8275 N   0  0  0  0  0  0  0  0  0  0  0  0
  -11.6501    3.0464  -17.2724 H   0  0  0  0  0  0  0  0  0  0  0  0
  -12.1911    2.7424  -19.2035 C   0  0  0  0  0  0  0  0  0  0  0  0
  -11.5477    3.7387  -19.9538 C   0  0  0  0  0  0  0  0  0  0  0  0
  -11.2721    3.5665  -21.3113 C   0  0  0  0  0  0  0  0  0  0  0  0
  -11.6135    2.3752  -21.9411 C   0  0  0  0  0  0  0  0  0  0  0  0
  -12.2224    1.3626  -21.2025 C   0  0  0  0  0  0  0  0  0  0  0  0
  -12.6856   -0.2578  -22.0640 Br  0  0  0  0  0  0  0  0  0  0  0  0
  -12.5064    1.5356  -19.8425 C   0  0  0  0  0  0  0  0  0  0  0  0
  -19.0722    3.3504  -15.2806 N   0  0  0  0  0  0  0  0  0  0  0  0
  -19.2777    4.2236  -15.7434 H   0  0  0  0  0  0  0  0  0  0  0  0
  -20.1614    2.6299  -14.7672 C   0  0  0  0  0  0  0  0  0  0  0  0
  -20.2179    1.2455  -14.8994 C   0  0  0  0  0  0  0  0  0  0  0  0
  -21.3663    0.5362  -14.5069 C   0  0  0  0  0  0  0  0  0  0  0  0
  -22.4812    1.1828  -13.9509 C   0  0  0  0  0  0  0  0  0  0  0  0
  -22.3929    2.5627  -13.7791 C   0  0  0  0  0  0  0  0  0  0  0  0
  -21.2575    3.2745  -14.1841 C   0  0  0  0  0  0  0  0  0  0  0  0
  -23.5842    0.4195  -13.5598 N   0  0  0  0  0  0  0  0  0  0  0  0
  -23.7523   -0.9118  -14.1695 C   0  0  0  0  0  0  0  0  0  0  0  0
  -25.1819   -1.4279  -13.8940 C   0  0  0  0  0  0  0  0  0  0  0  0
  -25.4769   -1.5062  -12.4443 N   0  0  0  0  0  0  0  0  0  0  0  0
  -26.8374   -1.9905  -12.2244 C   0  0  0  0  0  0  0  0  0  0  0  0
  -25.2837   -0.1627  -11.8469 C   0  0  0  0  0  0  0  0  0  0  0  0
  -23.8616    0.4069  -12.1033 C   0  0  0  0  0  0  0  0  0  0  0  0
 10 11  1  0  0  0
 11 12  1  0  0  0
 11  1  1  0  0  0
  1  2  1  0  0  0
  1  9  1  0  0  0
  2 13  1  0  0  0
  2  3  2  0  0  0
 13 15  1  0  0  0
 13 14  1  0  0  0
 15 16  1  0  0  0
 15 21  2  0  0  0
 16 17  2  0  0  0
 17 18  1  0  0  0
 18 19  2  0  0  0
 19 20  1  0  0  0
 19 21  1  0  0  0
  3  4  1  0  0  0
  4  5  1  0  0  0
  4  9  2  0  0  0
  5  6  2  0  0  0
  6  7  1  0  0  0
  7 22  1  0  0  0
  7  8  2  0  0  0
 22 24  1  0  0  0
 22 23  1  0  0  0
 24 25  1  0  0  0
 24 29  2  0  0  0
 25 26  2  0  0  0
 26 27  1  0  0  0
 27 30  1  0  0  0
 27 28  2  0  0  0
 30 31  1  0  0  0
 30 36  1  0  0  0
 31 32  1  0  0  0
 32 33  1  0  0  0
 33 34  1  0  0  0
 33 35  1  0  0  0
 35 36  1  0  0  0
 28 29  1  0  0  0
  8  9  1  0  0  0
M  END
> <minimizedAffinity>
-8.47486

$$$$
