CHEMBL4165354


 27 31  0  0  0  0  0  0  0  0999 V2000
  -24.4901   -1.2061  -13.6415 C   0  0  0  0  0  0  0  0  0  0  0  0
  -24.9335   -1.2237  -14.8933 N   0  0  0  0  0  0  0  0  0  0  0  0
  -26.3070   -1.5023  -14.8745 N   0  0  0  0  0  0  0  0  0  0  0  0
  -26.6200   -1.6358  -13.6170 C   0  0  0  0  0  0  0  0  0  0  0  0
  -28.0055   -1.9614  -12.6615 S   0  0  0  0  0  0  0  0  0  0  0  0
  -26.9388   -1.7444  -11.2726 C   0  0  0  0  0  0  0  0  0  0  0  0
  -25.6767   -1.4867  -11.4818 N   0  0  0  0  0  0  0  0  0  0  0  0
  -25.5482   -1.4403  -12.8190 N   0  0  0  0  0  0  0  0  0  0  0  0
  -27.4255   -1.7545   -9.9307 C   0  0  0  0  0  0  0  0  0  0  0  0
  -27.1987   -0.9991   -8.7925 C   0  0  0  0  0  0  0  0  0  0  0  0
  -27.8398   -1.6627   -7.6959 C   0  0  0  0  0  0  0  0  0  0  0  0
  -27.8997   -1.4553   -6.3040 C   0  0  0  0  0  0  0  0  0  0  0  0
  -28.5561   -2.4022   -5.5007 C   0  0  0  0  0  0  0  0  0  0  0  0
  -29.1668   -3.5232   -6.0599 C   0  0  0  0  0  0  0  0  0  0  0  0
  -29.1620   -3.7224   -7.4381 C   0  0  0  0  0  0  0  0  0  0  0  0
  -28.4900   -2.7773   -8.2160 C   0  0  0  0  0  0  0  0  0  0  0  0
  -28.3175   -2.7378   -9.5678 N   0  0  0  0  0  0  0  0  0  0  0  0
  -28.6821   -3.4184  -10.2212 H   0  0  0  0  0  0  0  0  0  0  0  0
  -23.1027   -1.0361  -13.1299 C   0  0  0  0  0  0  0  0  0  0  0  0
  -21.1056    2.4764  -14.6809 C   0  0  0  0  0  0  0  0  0  0  0  0
  -20.5753    1.2077  -14.8930 C   0  0  0  0  0  0  0  0  0  0  0  0
  -21.2385    0.0787  -14.4089 C   0  0  0  0  0  0  0  0  0  0  0  0
  -22.4404    0.1991  -13.6992 C   0  0  0  0  0  0  0  0  0  0  0  0
  -22.9837    1.4755  -13.5112 C   0  0  0  0  0  0  0  0  0  0  0  0
  -22.3174    2.6048  -14.0011 C   0  0  0  0  0  0  0  0  0  0  0  0
  -19.1287    3.6593  -15.2645 C   0  0  0  0  0  0  0  0  0  0  0  0
  -20.5400    3.6586  -15.0804 O   0  0  0  0  0  0  0  0  0  0  0  0
 26 27  1  0  0  0
 27 20  1  0  0  0
 20 21  1  0  0  0
 20 25  2  0  0  0
 21 22  2  0  0  0
 22 23  1  0  0  0
 23 19  1  0  0  0
 23 24  2  0  0  0
 19  1  1  0  0  0
  1  2  2  0  0  0
  1  8  1  0  0  0
  2  3  1  0  0  0
  3  4  2  0  0  0
  4  5  1  0  0  0
  4  8  1  0  0  0
  5  6  1  0  0  0
  6  9  1  0  0  0
  6  7  2  0  0  0
  9 10  2  0  0  0
  9 17  1  0  0  0
 10 11  1  0  0  0
 11 12  1  0  0  0
 11 16  2  0  0  0
 12 13  2  0  0  0
 13 14  1  0  0  0
 14 15  2  0  0  0
 15 16  1  0  0  0
 16 17  1  0  0  0
 17 18  1  0  0  0
  7  8  1  0  0  0
 24 25  1  0  0  0
M  END
> <minimizedAffinity>
-9.88747

$$$$
