CHEMBL2088258


 32 34  0  0  0  0  0  0  0  0999 V2000
  -17.7977    2.7773  -14.9592 C   0  0  0  0  0  0  0  0  0  0  0  0
  -17.1977    3.5438  -15.9362 C   0  0  0  0  0  0  0  0  0  0  0  0
  -16.0733    3.0150  -16.5217 C   0  0  0  0  0  0  0  0  0  0  0  0
  -15.5584    1.8167  -16.1990 N   0  0  0  0  0  0  0  0  0  0  0  0
  -16.1854    1.1403  -15.2345 C   0  0  0  0  0  0  0  0  0  0  0  0
  -17.2862    1.5779  -14.6179 N   0  0  0  0  0  0  0  0  0  0  0  0
  -18.9171    3.3042  -14.2844 N   0  0  0  0  0  0  0  0  0  0  0  0
  -18.6969    3.9848  -13.5713 H   0  0  0  0  0  0  0  0  0  0  0  0
  -21.9997    1.5977  -14.0865 C   0  0  0  0  0  0  0  0  0  0  0  0
  -20.6312    1.5385  -14.1840 C   0  0  0  0  0  0  0  0  0  0  0  0
  -20.1964    2.8778  -14.2763 C   0  0  0  0  0  0  0  0  0  0  0  0
  -21.2346    3.7193  -14.3194 N   0  0  0  0  0  0  0  0  0  0  0  0
  -22.3113    2.9235  -14.1933 N   0  0  0  0  0  0  0  0  0  0  0  0
  -23.2304    3.3518  -14.1365 H   0  0  0  0  0  0  0  0  0  0  0  0
  -23.0111    0.5352  -13.8581 C   0  0  0  0  0  0  0  0  0  0  0  0
  -22.6946   -0.2963  -12.6093 C   0  0  0  0  0  0  0  0  0  0  0  0
  -23.9394   -0.8308  -11.9042 C   0  0  0  0  0  0  0  0  0  0  0  0
  -26.1338   -1.5773  -12.3450 C   0  0  0  0  0  0  0  0  0  0  0  0
  -25.0264   -0.8319  -12.8290 O   0  0  0  0  0  0  0  0  0  0  0  0
  -15.6912   -0.0682  -14.7782 N   0  0  0  0  0  0  0  0  0  0  0  0
  -14.9003   -0.3095  -15.3632 H   0  0  0  0  0  0  0  0  0  0  0  0
  -15.4556   -0.1791  -13.3492 C   0  0  0  0  0  0  0  0  0  0  0  0
  -15.7045   -1.5176  -12.7436 C   0  0  0  0  0  0  0  0  0  0  0  0
  -15.9316   -2.7768  -13.2434 C   0  0  0  0  0  0  0  0  0  0  0  0
  -16.0563   -3.6056  -12.1022 C   0  0  0  0  0  0  0  0  0  0  0  0
  -15.9279   -2.8837  -10.9734 N   0  0  0  0  0  0  0  0  0  0  0  0
  -15.7056   -1.5785  -11.3841 O   0  0  0  0  0  0  0  0  0  0  0  0
  -16.2823   -5.0513  -12.0865 C   0  0  0  0  0  0  0  0  0  0  0  0
  -17.1809   -5.5253  -12.9995 N   0  0  0  0  0  0  0  0  0  0  0  0
  -15.7183   -5.8143  -11.3052 O   0  0  0  0  0  0  0  0  0  0  0  0
  -17.6551   -4.8925  -13.6325 H   0  0  0  0  0  0  0  0  0  0  0  0
  -17.3852   -6.5134  -13.0161 H   0  0  0  0  0  0  0  0  0  0  0  0
 18 19  1  0  0  0
 19 17  1  0  0  0
 17 16  1  0  0  0
 16 15  1  0  0  0
 15  9  1  0  0  0
  9 10  2  0  0  0
  9 13  1  0  0  0
 10 11  1  0  0  0
 11  7  1  0  0  0
 11 12  2  0  0  0
  7  1  1  0  0  0
  7  8  1  0  0  0
  1  2  1  0  0  0
  1  6  2  0  0  0
  2  3  2  0  0  0
  3  4  1  0  0  0
  4  5  2  0  0  0
  5 20  1  0  0  0
  5  6  1  0  0  0
 20 22  1  0  0  0
 20 21  1  0  0  0
 22 23  1  0  0  0
 23 24  2  0  0  0
 23 27  1  0  0  0
 24 25  1  0  0  0
 25 28  1  0  0  0
 25 26  2  0  0  0
 28 29  1  0  0  0
 28 30  2  0  0  0
 29 31  1  0  0  0
 29 32  1  0  0  0
 26 27  1  0  0  0
 12 13  1  0  0  0
 13 14  1  0  0  0
M  END
> <minimizedAffinity>
-8.49747

$$$$
