CHEMBL204874


 30 33  0  0  0  0  0  0  0  0999 V2000
  -29.2238   -1.2709   -5.0208 C   0  0  0  0  0  0  0  0  0  0  0  0
  -29.5338   -2.6038   -5.4811 N   0  0  0  0  0  0  0  0  0  0  0  0
  -30.2340   -3.5368   -4.7661 C   0  0  0  0  0  0  0  0  0  0  0  0
  -30.2866   -4.6905   -5.3952 N   0  0  0  0  0  0  0  0  0  0  0  0
  -29.6470   -4.4716   -6.5769 C   0  0  0  0  0  0  0  0  0  0  0  0
  -29.1557   -3.1873   -6.6671 C   0  0  0  0  0  0  0  0  0  0  0  0
  -28.3647   -2.5781   -7.6822 C   0  0  0  0  0  0  0  0  0  0  0  0
  -27.5295   -1.5765   -7.4731 N   0  0  0  0  0  0  0  0  0  0  0  0
  -26.9346   -1.2978   -8.6788 N   0  0  0  0  0  0  0  0  0  0  0  0
  -27.4371   -2.1405   -9.5564 C   0  0  0  0  0  0  0  0  0  0  0  0
  -28.3534   -2.9812   -8.9962 O   0  0  0  0  0  0  0  0  0  0  0  0
  -27.1883   -2.3321  -10.8625 N   0  0  0  0  0  0  0  0  0  0  0  0
  -27.8278   -2.9289  -11.3734 H   0  0  0  0  0  0  0  0  0  0  0  0
  -26.0835   -1.8520  -11.5849 C   0  0  0  0  0  0  0  0  0  0  0  0
  -24.8318   -1.6131  -10.9982 C   0  0  0  0  0  0  0  0  0  0  0  0
  -23.7360   -1.2068  -11.7651 C   0  0  0  0  0  0  0  0  0  0  0  0
  -23.8669   -1.0448  -13.1424 C   0  0  0  0  0  0  0  0  0  0  0  0
  -22.4708   -0.5580  -14.0331 Cl  0  0  0  0  0  0  0  0  0  0  0  0
  -25.1035   -1.2836  -13.7484 C   0  0  0  0  0  0  0  0  0  0  0  0
  -25.3434   -1.1242  -15.4527 Cl  0  0  0  0  0  0  0  0  0  0  0  0
  -26.1998   -1.6830  -12.9716 C   0  0  0  0  0  0  0  0  0  0  0  0
  -29.5040   -5.4301   -7.4999 N   0  0  0  0  0  0  0  0  0  0  0  0
  -29.9187   -5.3248   -8.4176 H   0  0  0  0  0  0  0  0  0  0  0  0
  -29.0985   -6.7744   -7.1552 C   0  0  0  0  0  0  0  0  0  0  0  0
  -30.2278   -7.7212   -7.5037 C   0  0  0  0  0  0  0  0  0  0  0  0
  -29.9920   -8.8448   -8.3082 C   0  0  0  0  0  0  0  0  0  0  0  0
  -31.0473   -9.6945   -8.5996 C   0  0  0  0  0  0  0  0  0  0  0  0
  -32.3055   -9.5062   -8.1514 N   0  0  0  0  0  0  0  0  0  0  0  0
  -32.5113   -8.4236   -7.3706 C   0  0  0  0  0  0  0  0  0  0  0  0
  -31.5235   -7.5154   -7.0245 C   0  0  0  0  0  0  0  0  0  0  0  0
  1  2  1  0  0  0
  2  3  1  0  0  0
  2  6  1  0  0  0
  3  4  2  0  0  0
  4  5  1  0  0  0
  5 22  1  0  0  0
  5  6  2  0  0  0
 22 24  1  0  0  0
 22 23  1  0  0  0
 24 25  1  0  0  0
 25 26  1  0  0  0
 25 30  2  0  0  0
 26 27  2  0  0  0
 27 28  1  0  0  0
 28 29  2  0  0  0
 29 30  1  0  0  0
  6  7  1  0  0  0
  7  8  2  0  0  0
  7 11  1  0  0  0
  8  9  1  0  0  0
  9 10  2  0  0  0
 10 12  1  0  0  0
 10 11  1  0  0  0
 12 14  1  0  0  0
 12 13  1  0  0  0
 14 15  1  0  0  0
 14 21  2  0  0  0
 15 16  2  0  0  0
 16 17  1  0  0  0
 17 18  1  0  0  0
 17 19  2  0  0  0
 19 20  1  0  0  0
 19 21  1  0  0  0
M  END
> <minimizedAffinity>
-9.79101

$$$$
