CHEMBL1688351


 36 41  0  0  0  0  0  0  0  0999 V2000
  -29.8283   -2.4571   -3.6014 C   0  0  0  0  0  0  0  0  0  0  0  0
  -30.5160   -3.6441   -3.6905 C   0  0  0  0  0  0  0  0  0  0  0  0
  -30.4791   -4.4477   -4.7752 N   0  0  0  0  0  0  0  0  0  0  0  0
  -29.7563   -4.0699   -5.8625 C   0  0  0  0  0  0  0  0  0  0  0  0
  -29.0721   -2.8429   -5.8825 C   0  0  0  0  0  0  0  0  0  0  0  0
  -29.0950   -2.0604   -4.7094 C   0  0  0  0  0  0  0  0  0  0  0  0
  -28.3266   -2.3048   -7.0124 C   0  0  0  0  0  0  0  0  0  0  0  0
  -27.5409   -1.2471   -7.0404 N   0  0  0  0  0  0  0  0  0  0  0  0
  -27.1907   -1.0587   -8.3528 N   0  0  0  0  0  0  0  0  0  0  0  0
  -27.7790   -2.0067   -9.0500 C   0  0  0  0  0  0  0  0  0  0  0  0
  -28.4780   -2.8747   -8.2505 O   0  0  0  0  0  0  0  0  0  0  0  0
  -27.8678   -2.2351  -10.3749 N   0  0  0  0  0  0  0  0  0  0  0  0
  -28.8066   -2.2755  -10.7509 H   0  0  0  0  0  0  0  0  0  0  0  0
  -26.8805   -1.8990  -11.3272 C   0  0  0  0  0  0  0  0  0  0  0  0
  -27.2274   -1.8958  -12.6897 C   0  0  0  0  0  0  0  0  0  0  0  0
  -26.3037   -1.5213  -13.6731 C   0  0  0  0  0  0  0  0  0  0  0  0
  -25.0091   -1.1659  -13.3104 C   0  0  0  0  0  0  0  0  0  0  0  0
  -24.6426   -1.1734  -11.9651 C   0  0  0  0  0  0  0  0  0  0  0  0
  -25.5625   -1.5584  -10.9883 C   0  0  0  0  0  0  0  0  0  0  0  0
  -23.3936   -0.8182  -11.5219 O   0  0  0  0  0  0  0  0  0  0  0  0
  -22.6627   -0.1133  -12.5300 C   0  0  0  0  0  0  0  0  0  0  0  0
  -22.7914   -0.8133  -13.8719 C   0  0  0  0  0  0  0  0  0  0  0  0
  -24.1524   -0.8132  -14.3204 O   0  0  0  0  0  0  0  0  0  0  0  0
  -29.8055   -4.9200   -6.9854 N   0  0  0  0  0  0  0  0  0  0  0  0
  -29.6534   -4.3980   -7.8425 H   0  0  0  0  0  0  0  0  0  0  0  0
  -28.8707   -6.0396   -6.8864 C   0  0  0  0  0  0  0  0  0  0  0  0
  -29.4599   -7.2730   -7.5341 C   0  0  0  0  0  0  0  0  0  0  0  0
  -28.7316   -8.0069   -8.4873 C   0  0  0  0  0  0  0  0  0  0  0  0
  -29.2260   -9.1976   -9.0359 C   0  0  0  0  0  0  0  0  0  0  0  0
  -30.4772   -9.6322   -8.5920 C   0  0  0  0  0  0  0  0  0  0  0  0
  -31.2224  -10.7417   -8.8947 N   0  0  0  0  0  0  0  0  0  0  0  0
  -32.3987  -10.8088   -8.2461 N   0  0  0  0  0  0  0  0  0  0  0  0
  -32.3977   -9.7076   -7.4905 C   0  0  0  0  0  0  0  0  0  0  0  0
  -31.2309   -8.9294   -7.6583 C   0  0  0  0  0  0  0  0  0  0  0  0
  -30.7256   -7.7349   -7.1251 C   0  0  0  0  0  0  0  0  0  0  0  0
  -30.9812  -11.4940   -9.5297 H   0  0  0  0  0  0  0  0  0  0  0  0
  1  2  1  0  0  0
  1  6  2  0  0  0
  2  3  2  0  0  0
  3  4  1  0  0  0
  4 24  1  0  0  0
  4  5  2  0  0  0
 24 26  1  0  0  0
 24 25  1  0  0  0
 26 27  1  0  0  0
 27 28  1  0  0  0
 27 35  2  0  0  0
 28 29  2  0  0  0
 29 30  1  0  0  0
 30 31  1  0  0  0
 30 34  2  0  0  0
 31 32  1  0  0  0
 31 36  1  0  0  0
 32 33  2  0  0  0
 33 34  1  0  0  0
 34 35  1  0  0  0
  5  7  1  0  0  0
  5  6  1  0  0  0
  7  8  2  0  0  0
  7 11  1  0  0  0
  8  9  1  0  0  0
  9 10  2  0  0  0
 10 12  1  0  0  0
 10 11  1  0  0  0
 12 14  1  0  0  0
 12 13  1  0  0  0
 14 15  1  0  0  0
 14 19  2  0  0  0
 15 16  2  0  0  0
 16 17  1  0  0  0
 17 18  2  0  0  0
 17 23  1  0  0  0
 18 19  1  0  0  0
 18 20  1  0  0  0
 20 21  1  0  0  0
 21 22  1  0  0  0
 22 23  1  0  0  0
M  END
> <minimizedAffinity>
-11.15779

$$$$
