CHEMBL190866


 45 48  0  0  0  0  0  0  0  0999 V2000
  -28.3391   -8.3282   -5.3146 C   0  0  0  0  0  0  0  0  0  0  0  0
  -27.9244   -7.2568   -4.5025 C   0  0  0  0  0  0  0  0  0  0  0  0
  -28.0582   -5.9295   -4.9098 C   0  0  0  0  0  0  0  0  0  0  0  0
  -27.7158   -4.8655   -4.0819 C   0  0  0  0  0  0  0  0  0  0  0  0
  -27.8758   -3.5741   -4.4038 N   0  0  0  0  0  0  0  0  0  0  0  0
  -28.3998   -3.2859   -5.6123 C   0  0  0  0  0  0  0  0  0  0  0  0
  -28.6983   -4.3069   -6.5280 C   0  0  0  0  0  0  0  0  0  0  0  0
  -28.5500   -5.6491   -6.1823 C   0  0  0  0  0  0  0  0  0  0  0  0
  -28.8778   -6.6627   -7.0316 N   0  0  0  0  0  0  0  0  0  0  0  0
  -28.8442   -7.9515   -6.5780 C   0  0  0  0  0  0  0  0  0  0  0  0
  -26.6530  -11.6584   -4.4789 C   0  0  0  0  0  0  0  0  0  0  0  0
  -27.5715  -12.2207   -3.5940 C   0  0  0  0  0  0  0  0  0  0  0  0
  -28.7543  -11.5473   -3.3137 C   0  0  0  0  0  0  0  0  0  0  0  0
  -29.0402  -10.3444   -3.9662 C   0  0  0  0  0  0  0  0  0  0  0  0
  -28.1069   -9.7119   -4.8191 C   0  0  0  0  0  0  0  0  0  0  0  0
  -26.9084  -10.4047   -5.0501 C   0  0  0  0  0  0  0  0  0  0  0  0
  -24.3805  -11.9497   -3.8917 C   0  0  0  0  0  0  0  0  0  0  0  0
  -25.4400  -12.2021   -4.8073 O   0  0  0  0  0  0  0  0  0  0  0  0
  -29.6975  -11.9652   -2.4109 O   0  0  0  0  0  0  0  0  0  0  0  0
  -30.9198  -12.4275   -2.9801 C   0  0  0  0  0  0  0  0  0  0  0  0
  -29.3209   -8.9214   -7.5042 N   0  0  0  0  0  0  0  0  0  0  0  0
  -28.4973   -9.2458   -8.5752 C   0  0  0  0  0  0  0  0  0  0  0  0
  -27.3991   -8.7502   -8.7808 O   0  0  0  0  0  0  0  0  0  0  0  0
  -29.0536  -10.2521   -9.3543 N   0  0  0  0  0  0  0  0  0  0  0  0
  -29.5438   -9.7812   -7.0214 H   0  0  0  0  0  0  0  0  0  0  0  0
  -30.0614  -10.2006   -9.4302 H   0  0  0  0  0  0  0  0  0  0  0  0
  -28.3344  -10.9192  -10.4691 C   0  0  0  0  0  0  0  0  0  0  0  0
  -28.9314  -10.4790  -11.8184 C   0  0  0  0  0  0  0  0  0  0  0  0
  -26.8471  -10.4990  -10.4654 C   0  0  0  0  0  0  0  0  0  0  0  0
  -28.3790  -12.4513  -10.3531 C   0  0  0  0  0  0  0  0  0  0  0  0
  -28.6539   -1.9236   -5.9125 N   0  0  0  0  0  0  0  0  0  0  0  0
  -29.4947   -1.1149   -5.1423 C   0  0  0  0  0  0  0  0  0  0  0  0
  -30.1929   -1.6741   -3.9242 C   0  0  0  0  0  0  0  0  0  0  0  0
  -29.6608    0.0861   -5.3998 O   0  0  0  0  0  0  0  0  0  0  0  0
  -27.7377   -1.1615   -6.7753 C   0  0  0  0  0  0  0  0  0  0  0  0
  -27.9786   -1.0604   -8.2857 C   0  0  0  0  0  0  0  0  0  0  0  0
  -27.3472   -2.2449   -9.0227 C   0  0  0  0  0  0  0  0  0  0  0  0
  -26.3832   -1.7440   -9.9451 O   0  0  0  0  0  0  0  0  0  0  0  0
  -26.9241   -1.5005  -11.2423 C   0  0  0  0  0  0  0  0  0  0  0  0
  -25.8131   -1.1570  -12.2086 C   0  0  0  0  0  0  0  0  0  0  0  0
  -25.8535   -1.6378  -13.5261 C   0  0  0  0  0  0  0  0  0  0  0  0
  -24.8481   -1.3044  -14.4374 C   0  0  0  0  0  0  0  0  0  0  0  0
  -23.7959   -0.4772  -14.0464 C   0  0  0  0  0  0  0  0  0  0  0  0
  -23.7518    0.0203  -12.7475 C   0  0  0  0  0  0  0  0  0  0  0  0
  -24.7573   -0.3116  -11.8355 C   0  0  0  0  0  0  0  0  0  0  0  0
 17 18  1  0  0  0
 18 11  1  0  0  0
 11 12  1  0  0  0
 11 16  2  0  0  0
 12 13  2  0  0  0
 13 19  1  0  0  0
 13 14  1  0  0  0
 19 20  1  0  0  0
 14 15  2  0  0  0
 15  1  1  0  0  0
 15 16  1  0  0  0
  1  2  1  0  0  0
  1 10  2  0  0  0
  2  3  2  0  0  0
  3  4  1  0  0  0
  3  8  1  0  0  0
  4  5  2  0  0  0
  5  6  1  0  0  0
  6 31  1  0  0  0
  6  7  2  0  0  0
 31 35  1  0  0  0
 31 32  1  0  0  0
 35 36  1  0  0  0
 36 37  1  0  0  0
 37 38  1  0  0  0
 38 39  1  0  0  0
 39 40  1  0  0  0
 40 41  1  0  0  0
 40 45  2  0  0  0
 41 42  2  0  0  0
 42 43  1  0  0  0
 43 44  2  0  0  0
 44 45  1  0  0  0
 32 33  1  0  0  0
 32 34  2  0  0  0
  7  8  1  0  0  0
  8  9  2  0  0  0
  9 10  1  0  0  0
 10 21  1  0  0  0
 21 22  1  0  0  0
 21 25  1  0  0  0
 22 23  2  0  0  0
 22 24  1  0  0  0
 24 27  1  0  0  0
 24 26  1  0  0  0
 27 28  1  0  0  0
 27 29  1  0  0  0
 27 30  1  0  0  0
M  END
> <minimizedAffinity>
-9.59124

$$$$
