CHEMBL2408613


 40 46  0  0  0  0  0  0  0  0999 V2000
  -19.3734    3.9513  -15.1945 N   0  0  0  0  0  0  0  0  0  0  0  0
  -18.4593    2.9435  -14.9393 C   0  0  0  0  0  0  0  0  0  0  0  0
  -18.8385    1.9388  -14.1310 N   0  0  0  0  0  0  0  0  0  0  0  0
  -17.9484    0.9582  -13.8379 C   0  0  0  0  0  0  0  0  0  0  0  0
  -16.6399    0.8795  -14.3188 C   0  0  0  0  0  0  0  0  0  0  0  0
  -16.2213    1.9146  -15.1946 C   0  0  0  0  0  0  0  0  0  0  0  0
  -15.0373    2.3143  -15.9335 C   0  0  0  0  0  0  0  0  0  0  0  0
  -15.3577    3.4989  -16.6030 C   0  0  0  0  0  0  0  0  0  0  0  0
  -16.6429    3.8438  -16.3095 O   0  0  0  0  0  0  0  0  0  0  0  0
  -17.1607    2.9085  -15.4683 C   0  0  0  0  0  0  0  0  0  0  0  0
  -20.3248    3.6607  -14.9873 H   0  0  0  0  0  0  0  0  0  0  0  0
  -19.2199    4.4555  -16.0556 H   0  0  0  0  0  0  0  0  0  0  0  0
  -14.6422    4.4413  -17.4749 C   0  0  0  0  0  0  0  0  0  0  0  0
  -14.9758    4.5887  -18.8372 C   0  0  0  0  0  0  0  0  0  0  0  0
  -14.3813    5.5463  -19.6524 C   0  0  0  0  0  0  0  0  0  0  0  0
  -13.3744    6.3644  -19.1504 C   0  0  0  0  0  0  0  0  0  0  0  0
  -12.9601    6.2153  -17.8098 C   0  0  0  0  0  0  0  0  0  0  0  0
  -11.9489    6.9520  -17.2021 N   0  0  0  0  0  0  0  0  0  0  0  0
  -11.7811    6.6112  -15.9429 N   0  0  0  0  0  0  0  0  0  0  0  0
  -12.8483    5.4380  -15.4403 S   0  0  0  0  0  0  0  0  0  0  0  0
  -13.6017    5.2714  -16.9949 C   0  0  0  0  0  0  0  0  0  0  0  0
  -13.7231    1.6883  -16.0102 C   0  0  0  0  0  0  0  0  0  0  0  0
  -13.4520    0.6949  -16.9533 C   0  0  0  0  0  0  0  0  0  0  0  0
  -12.1729    0.1474  -17.0417 C   0  0  0  0  0  0  0  0  0  0  0  0
  -11.2179    0.5543  -16.1273 C   0  0  0  0  0  0  0  0  0  0  0  0
  -11.4494    1.4726  -15.1660 N   0  0  0  0  0  0  0  0  0  0  0  0
  -12.6828    2.0354  -15.1469 C   0  0  0  0  0  0  0  0  0  0  0  0
  -15.7748   -0.1971  -13.8925 C   0  0  0  0  0  0  0  0  0  0  0  0
  -14.5160   -0.1959  -13.2561 C   0  0  0  0  0  0  0  0  0  0  0  0
  -14.1050   -1.4238  -12.9338 N   0  0  0  0  0  0  0  0  0  0  0  0
  -15.0603   -2.2299  -13.4334 N   0  0  0  0  0  0  0  0  0  0  0  0
  -16.0639   -1.5404  -14.0558 C   0  0  0  0  0  0  0  0  0  0  0  0
  -14.9510   -3.6806  -13.2629 C   0  0  0  0  0  0  0  0  0  0  0  0
  -16.2772   -4.2740  -12.7512 C   0  0  0  0  0  0  0  0  0  0  0  0
  -16.2737   -5.7952  -12.7049 C   0  0  0  0  0  0  0  0  0  0  0  0
  -15.8555   -6.3945  -14.0457 C   0  0  0  0  0  0  0  0  0  0  0  0
  -15.8326   -7.8116  -13.9553 O   0  0  0  0  0  0  0  0  0  0  0  0
  -14.4807   -5.8772  -14.4587 C   0  0  0  0  0  0  0  0  0  0  0  0
  -14.4658   -4.3553  -14.5588 C   0  0  0  0  0  0  0  0  0  0  0  0
  -15.2036   -8.0653  -13.2575 H   0  0  0  0  0  0  0  0  0  0  0  0
  1  2  1  0  0  0
  1 11  1  0  0  0
  1 12  1  0  0  0
  2  3  1  0  0  0
  2 10  2  0  0  0
  3  4  2  0  0  0
  4  5  1  0  0  0
  5 28  1  0  0  0
  5  6  2  0  0  0
 28 29  1  0  0  0
 28 32  2  0  0  0
 29 30  2  0  0  0
 30 31  1  0  0  0
 31 32  1  0  0  0
 33 34  1  0  0  0
 33 39  1  0  0  0
 33 31  1  0  0  0
 34 35  1  0  0  0
 35 36  1  0  0  0
 36 37  1  0  0  0
 36 38  1  0  0  0
 37 40  1  0  0  0
 38 39  1  0  0  0
  6  7  1  0  0  0
  6 10  1  0  0  0
  7 22  1  0  0  0
  7  8  2  0  0  0
 22 23  1  0  0  0
 22 27  2  0  0  0
 23 24  2  0  0  0
 24 25  1  0  0  0
 25 26  2  0  0  0
 26 27  1  0  0  0
  8 13  1  0  0  0
  8  9  1  0  0  0
 13 14  1  0  0  0
 13 21  2  0  0  0
 14 15  2  0  0  0
 15 16  1  0  0  0
 16 17  2  0  0  0
 17 18  1  0  0  0
 17 21  1  0  0  0
 18 19  2  0  0  0
 19 20  1  0  0  0
 20 21  1  0  0  0
  9 10  1  0  0  0
M  END
> <minimizedAffinity>
-8.44884

$$$$
