CHEMBL3628814


 26 29  0  0  0  0  0  0  0  0999 V2000
  -28.8766   -6.4438   -6.9661 C   0  0  0  0  0  0  0  0  0  0  0  0
  -28.5143   -7.0535   -5.8235 N   0  0  0  0  0  0  0  0  0  0  0  0
  -28.1946   -6.2748   -4.7790 C   0  0  0  0  0  0  0  0  0  0  0  0
  -28.2629   -4.9104   -4.8303 C   0  0  0  0  0  0  0  0  0  0  0  0
  -28.4875   -4.3516   -6.0806 C   0  0  0  0  0  0  0  0  0  0  0  0
  -28.7853   -5.1094   -7.1579 N   0  0  0  0  0  0  0  0  0  0  0  0
  -28.6502   -2.8908   -6.1680 C   0  0  0  0  0  0  0  0  0  0  0  0
  -27.8661   -2.0748   -6.9907 C   0  0  0  0  0  0  0  0  0  0  0  0
  -27.9965   -0.6746   -6.9366 C   0  0  0  0  0  0  0  0  0  0  0  0
  -28.9956   -0.0827   -6.1574 C   0  0  0  0  0  0  0  0  0  0  0  0
  -29.7815   -0.8816   -5.3337 C   0  0  0  0  0  0  0  0  0  0  0  0
  -29.5081   -2.2454   -5.2493 C   0  0  0  0  0  0  0  0  0  0  0  0
  -29.8847   -3.0830   -3.6864 S   0  0  0  0  0  0  0  0  0  0  0  0
  -28.2940   -4.0263   -3.6282 C   0  0  0  0  0  0  0  0  0  0  0  0
  -29.4922   -7.2885   -7.8882 N   0  0  0  0  0  0  0  0  0  0  0  0
  -29.2130   -7.0387   -8.8236 H   0  0  0  0  0  0  0  0  0  0  0  0
  -32.3711  -10.3596   -7.5086 C   0  0  0  0  0  0  0  0  0  0  0  0
  -31.1002  -10.6410   -8.0024 C   0  0  0  0  0  0  0  0  0  0  0  0
  -30.1642   -9.6269   -8.1381 C   0  0  0  0  0  0  0  0  0  0  0  0
  -30.4333   -8.3113   -7.7572 C   0  0  0  0  0  0  0  0  0  0  0  0
  -31.7344   -8.0224   -7.3066 C   0  0  0  0  0  0  0  0  0  0  0  0
  -32.6885   -9.0446   -7.1774 C   0  0  0  0  0  0  0  0  0  0  0  0
  -33.2022  -12.1383   -6.1885 C   0  0  0  0  0  0  0  0  0  0  0  0
  -33.3672  -11.2764   -7.3096 O   0  0  0  0  0  0  0  0  0  0  0  0
  -29.2692    1.2532   -6.0664 O   0  0  0  0  0  0  0  0  0  0  0  0
  -30.6243    1.6455   -6.2325 C   0  0  0  0  0  0  0  0  0  0  0  0
 23 24  1  0  0  0
 24 17  1  0  0  0
 17 18  1  0  0  0
 17 22  2  0  0  0
 18 19  2  0  0  0
 19 20  1  0  0  0
 20 15  1  0  0  0
 20 21  2  0  0  0
 15  1  1  0  0  0
 15 16  1  0  0  0
  1  2  1  0  0  0
  1  6  2  0  0  0
  2  3  2  0  0  0
  3  4  1  0  0  0
  4  5  2  0  0  0
  4 14  1  0  0  0
  5  6  1  0  0  0
  5  7  1  0  0  0
  7  8  1  0  0  0
  7 12  2  0  0  0
  8  9  2  0  0  0
  9 10  1  0  0  0
 10 25  1  0  0  0
 10 11  2  0  0  0
 25 26  1  0  0  0
 11 12  1  0  0  0
 12 13  1  0  0  0
 13 14  1  0  0  0
 21 22  1  0  0  0
M  END
> <minimizedAffinity>
-8.34008

$$$$
