CHEMBL3947361


 35 38  0  0  0  0  0  0  0  0999 V2000
  -14.4362    0.3772  -14.5711 N   0  0  0  0  0  0  0  0  0  0  0  0
  -14.8459   -0.7456  -13.7127 C   0  0  0  0  0  0  0  0  0  0  0  0
  -15.5127   -0.5684  -12.5140 C   0  0  0  0  0  0  0  0  0  0  0  0
  -15.9959   -1.5684  -11.7094 C   0  0  0  0  0  0  0  0  0  0  0  0
  -15.6937   -2.8597  -12.0059 C   0  0  0  0  0  0  0  0  0  0  0  0
  -16.0857   -3.8309  -11.1553 N   0  0  0  0  0  0  0  0  0  0  0  0
  -15.7034   -5.1059  -11.3440 C   0  0  0  0  0  0  0  0  0  0  0  0
  -14.8841   -5.4218  -12.4393 C   0  0  0  0  0  0  0  0  0  0  0  0
  -14.5190   -4.4421  -13.3206 N   0  0  0  0  0  0  0  0  0  0  0  0
  -14.9034   -3.1536  -13.1306 C   0  0  0  0  0  0  0  0  0  0  0  0
  -14.5065   -2.1121  -14.0078 C   0  0  0  0  0  0  0  0  0  0  0  0
  -14.4108   -6.7825  -12.6366 C   0  0  0  0  0  0  0  0  0  0  0  0
  -14.9737   -7.7246  -13.4627 C   0  0  0  0  0  0  0  0  0  0  0  0
  -14.2650   -8.8658  -13.3632 N   0  0  0  0  0  0  0  0  0  0  0  0
  -13.2757   -8.6455  -12.5016 N   0  0  0  0  0  0  0  0  0  0  0  0
  -12.3060   -9.6454  -12.0932 C   0  0  0  0  0  0  0  0  0  0  0  0
  -13.3252   -7.3922  -12.0482 C   0  0  0  0  0  0  0  0  0  0  0  0
  -15.3088    3.7784  -16.1458 C   0  0  0  0  0  0  0  0  0  0  0  0
  -16.6729    3.7913  -16.2192 C   0  0  0  0  0  0  0  0  0  0  0  0
  -17.4275    2.7168  -15.8091 C   0  0  0  0  0  0  0  0  0  0  0  0
  -16.8044    1.5609  -15.2610 C   0  0  0  0  0  0  0  0  0  0  0  0
  -17.8580    0.5733  -14.8338 C   0  0  0  0  0  0  0  0  0  0  0  0
  -15.3145    1.4769  -15.1357 C   0  0  0  0  0  0  0  0  0  0  0  0
  -14.6403    2.6418  -15.6393 C   0  0  0  0  0  0  0  0  0  0  0  0
  -13.4645    5.0209  -17.1858 C   0  0  0  0  0  0  0  0  0  0  0  0
  -14.6828    4.9081  -16.5663 O   0  0  0  0  0  0  0  0  0  0  0  0
  -18.7843    2.7452  -15.9160 O   0  0  0  0  0  0  0  0  0  0  0  0
  -19.7209    3.4826  -15.2362 C   0  0  0  0  0  0  0  0  0  0  0  0
  -12.9936    0.3229  -14.9470 C   0  0  0  0  0  0  0  0  0  0  0  0
  -12.0701    0.5639  -13.7350 C   0  0  0  0  0  0  0  0  0  0  0  0
  -10.8885    1.3983  -14.0269 N   0  0  0  0  0  0  0  0  0  0  0  0
  -10.7994    1.5201  -15.0647 H   0  0  0  0  0  0  0  0  0  0  0  0
  -11.0526    2.7449  -13.4198 C   0  0  0  0  0  0  0  0  0  0  0  0
  -11.1670    3.8469  -14.4921 C   0  0  0  0  0  0  0  0  0  0  0  0
  -12.2885    2.7995  -12.5143 C   0  0  0  0  0  0  0  0  0  0  0  0
 25 26  1  0  0  0
 26 18  1  0  0  0
 18 19  1  0  0  0
 18 24  2  0  0  0
 19 20  2  0  0  0
 20 27  1  0  0  0
 20 21  1  0  0  0
 27 28  1  0  0  0
 21 22  1  0  0  0
 21 23  2  0  0  0
 23  1  1  0  0  0
 23 24  1  0  0  0
  1 29  1  0  0  0
  1  2  1  0  0  0
 29 30  1  0  0  0
 30 31  1  0  0  0
 31 33  1  0  0  0
 31 32  1  0  0  0
 33 34  1  0  0  0
 33 35  1  0  0  0
  2  3  1  0  0  0
  2 11  2  0  0  0
  3  4  2  0  0  0
  4  5  1  0  0  0
  5  6  1  0  0  0
  5 10  2  0  0  0
  6  7  2  0  0  0
  7  8  1  0  0  0
  8 12  1  0  0  0
  8  9  2  0  0  0
 12 13  1  0  0  0
 12 17  2  0  0  0
 13 14  2  0  0  0
 14 15  1  0  0  0
 15 16  1  0  0  0
 15 17  1  0  0  0
  9 10  1  0  0  0
 10 11  1  0  0  0
M  END
> <minimizedAffinity>
-7.24426

$$$$
