CHEMBL3979830


 45 48  0  0  0  0  0  0  0  0999 V2000
  -13.2354   -7.2864  -16.0763 C   0  0  0  0  0  0  0  0  0  0  0  0
  -13.9222   -7.2736  -17.2746 C   0  0  0  0  0  0  0  0  0  0  0  0
  -13.9068   -5.9996  -17.9097 C   0  0  0  0  0  0  0  0  0  0  0  0
  -14.4877   -5.7160  -19.1053 N   0  0  0  0  0  0  0  0  0  0  0  0
  -14.3516   -4.4474  -19.5361 C   0  0  0  0  0  0  0  0  0  0  0  0
  -13.6825   -3.4441  -18.8607 C   0  0  0  0  0  0  0  0  0  0  0  0
  -13.0395   -3.7497  -17.6586 C   0  0  0  0  0  0  0  0  0  0  0  0
  -13.1972   -5.0549  -17.1674 C   0  0  0  0  0  0  0  0  0  0  0  0
  -12.6065   -5.7368  -15.7106 S   0  0  0  0  0  0  0  0  0  0  0  0
  -13.2788   -8.1850  -13.8574 N   0  0  0  0  0  0  0  0  0  0  0  0
  -13.0273   -8.4270  -15.1931 C   0  0  0  0  0  0  0  0  0  0  0  0
  -12.6503   -9.5183  -15.5926 O   0  0  0  0  0  0  0  0  0  0  0  0
  -13.5339   -7.2474  -13.5866 H   0  0  0  0  0  0  0  0  0  0  0  0
  -13.0782   -9.1769  -12.8234 C   0  0  0  0  0  0  0  0  0  0  0  0
  -12.0005   -8.7481  -11.8310 C   0  0  0  0  0  0  0  0  0  0  0  0
  -12.2159   -7.2974  -11.3966 C   0  0  0  0  0  0  0  0  0  0  0  0
  -13.6018   -7.0976  -10.9862 N   0  0  0  0  0  0  0  0  0  0  0  0
  -14.2310   -7.1597  -11.7916 H   0  0  0  0  0  0  0  0  0  0  0  0
  -13.7939   -5.7834  -10.3439 C   0  0  0  0  0  0  0  0  0  0  0  0
  -14.6572   -4.8871  -11.2304 C   0  0  0  0  0  0  0  0  0  0  0  0
  -14.2264   -4.1330  -12.0967 O   0  0  0  0  0  0  0  0  0  0  0  0
  -16.8076   -5.4736  -11.9414 C   0  0  0  0  0  0  0  0  0  0  0  0
  -15.9723   -5.0036  -10.8821 O   0  0  0  0  0  0  0  0  0  0  0  0
  -12.2960   -2.8285  -16.9395 O   0  0  0  0  0  0  0  0  0  0  0  0
  -12.9588   -1.8162  -16.2791 C   0  0  0  0  0  0  0  0  0  0  0  0
  -13.2131   -0.5701  -16.8482 C   0  0  0  0  0  0  0  0  0  0  0  0
  -14.0132    0.3540  -16.1853 C   0  0  0  0  0  0  0  0  0  0  0  0
  -14.5220    0.0900  -14.9101 C   0  0  0  0  0  0  0  0  0  0  0  0
  -14.1414   -1.1050  -14.2903 C   0  0  0  0  0  0  0  0  0  0  0  0
  -14.5592   -1.3718  -13.0430 F   0  0  0  0  0  0  0  0  0  0  0  0
  -13.3767   -2.0631  -14.9683 C   0  0  0  0  0  0  0  0  0  0  0  0
  -15.3896    1.0102  -14.2568 N   0  0  0  0  0  0  0  0  0  0  0  0
  -16.7382    1.0682  -14.5449 C   0  0  0  0  0  0  0  0  0  0  0  0
  -17.3085    0.2603  -15.2771 O   0  0  0  0  0  0  0  0  0  0  0  0
  -17.3989    2.1416  -13.9583 N   0  0  0  0  0  0  0  0  0  0  0  0
  -15.0949    1.3573  -13.3513 H   0  0  0  0  0  0  0  0  0  0  0  0
  -16.8589    3.0000  -13.9686 H   0  0  0  0  0  0  0  0  0  0  0  0
  -18.7752    2.2952  -14.2991 C   0  0  0  0  0  0  0  0  0  0  0  0
  -19.7283    1.3879  -13.8150 C   0  0  0  0  0  0  0  0  0  0  0  0
  -21.0183    1.3437  -14.3570 C   0  0  0  0  0  0  0  0  0  0  0  0
  -21.9996    0.3078  -13.8921 C   0  0  0  0  0  0  0  0  0  0  0  0
  -21.3521    2.2331  -15.3853 C   0  0  0  0  0  0  0  0  0  0  0  0
  -20.4326    3.1983  -15.8102 C   0  0  0  0  0  0  0  0  0  0  0  0
  -19.1576    3.2388  -15.2498 C   0  0  0  0  0  0  0  0  0  0  0  0
  -18.2632    4.1245  -15.7147 F   0  0  0  0  0  0  0  0  0  0  0  0
 22 23  1  0  0  0
 23 20  1  0  0  0
 20 21  2  0  0  0
 20 19  1  0  0  0
 19 17  1  0  0  0
 17 16  1  0  0  0
 17 18  1  0  0  0
 16 15  1  0  0  0
 15 14  1  0  0  0
 14 10  1  0  0  0
 10 11  1  0  0  0
 10 13  1  0  0  0
 11 12  2  0  0  0
 11  1  1  0  0  0
  1  2  2  0  0  0
  1  9  1  0  0  0
  2  3  1  0  0  0
  3  4  1  0  0  0
  3  8  2  0  0  0
  4  5  2  0  0  0
  5  6  1  0  0  0
  6  7  2  0  0  0
  7 24  1  0  0  0
  7  8  1  0  0  0
 24 25  1  0  0  0
 25 26  1  0  0  0
 25 31  2  0  0  0
 26 27  2  0  0  0
 27 28  1  0  0  0
 28 32  1  0  0  0
 28 29  2  0  0  0
 32 33  1  0  0  0
 32 36  1  0  0  0
 33 34  2  0  0  0
 33 35  1  0  0  0
 35 38  1  0  0  0
 35 37  1  0  0  0
 38 39  1  0  0  0
 38 44  2  0  0  0
 39 40  2  0  0  0
 40 41  1  0  0  0
 40 42  1  0  0  0
 42 43  2  0  0  0
 43 44  1  0  0  0
 44 45  1  0  0  0
 29 30  1  0  0  0
 29 31  1  0  0  0
  8  9  1  0  0  0
M  END
> <minimizedAffinity>
-7.54117

$$$$
