CHEMBL453613


 40 45  0  0  0  0  0  0  0  0999 V2000
  -14.2319    0.7799  -15.5221 C   0  0  0  0  0  0  0  0  0  0  0  0
  -15.1047    1.1726  -16.5337 C   0  0  0  0  0  0  0  0  0  0  0  0
  -16.4533    1.4115  -16.2444 C   0  0  0  0  0  0  0  0  0  0  0  0
  -16.9568    1.2436  -14.9501 C   0  0  0  0  0  0  0  0  0  0  0  0
  -16.0441    0.9942  -13.9152 C   0  0  0  0  0  0  0  0  0  0  0  0
  -14.6909    0.7517  -14.2078 C   0  0  0  0  0  0  0  0  0  0  0  0
  -13.8737    0.3658  -13.2169 F   0  0  0  0  0  0  0  0  0  0  0  0
  -18.3503    1.2237  -14.6627 N   0  0  0  0  0  0  0  0  0  0  0  0
  -19.1291    2.3218  -14.3393 C   0  0  0  0  0  0  0  0  0  0  0  0
  -18.7007    3.4576  -14.1240 O   0  0  0  0  0  0  0  0  0  0  0  0
  -20.4990    2.0963  -14.2932 N   0  0  0  0  0  0  0  0  0  0  0  0
  -21.3939    3.2070  -14.0620 C   0  0  0  0  0  0  0  0  0  0  0  0
  -22.7755    2.6113  -14.2139 C   0  0  0  0  0  0  0  0  0  0  0  0
  -22.5727    1.2210  -13.8903 N   0  0  0  0  0  0  0  0  0  0  0  0
  -21.2039    0.8865  -14.0722 C   0  0  0  0  0  0  0  0  0  0  0  0
  -20.6833   -0.2224  -14.1055 O   0  0  0  0  0  0  0  0  0  0  0  0
  -18.8635    0.3664  -14.8598 H   0  0  0  0  0  0  0  0  0  0  0  0
  -23.6320    0.3286  -13.5900 C   0  0  0  0  0  0  0  0  0  0  0  0
  -24.2152    0.3029  -12.3204 C   0  0  0  0  0  0  0  0  0  0  0  0
  -25.2520   -0.5858  -12.0197 C   0  0  0  0  0  0  0  0  0  0  0  0
  -25.7220   -1.4669  -12.9880 C   0  0  0  0  0  0  0  0  0  0  0  0
  -25.1741   -1.4390  -14.2664 C   0  0  0  0  0  0  0  0  0  0  0  0
  -24.1463   -0.5387  -14.5704 C   0  0  0  0  0  0  0  0  0  0  0  0
  -13.1582    0.0328  -15.9297 O   0  0  0  0  0  0  0  0  0  0  0  0
  -13.3180   -4.5546  -14.3921 C   0  0  0  0  0  0  0  0  0  0  0  0
  -13.1051   -4.8335  -15.7180 C   0  0  0  0  0  0  0  0  0  0  0  0
  -13.1260   -3.6646  -16.5216 C   0  0  0  0  0  0  0  0  0  0  0  0
  -12.9196   -3.6804  -17.8655 N   0  0  0  0  0  0  0  0  0  0  0  0
  -12.8764   -2.4885  -18.4691 C   0  0  0  0  0  0  0  0  0  0  0  0
  -13.0149   -1.2834  -17.8201 C   0  0  0  0  0  0  0  0  0  0  0  0
  -13.2389   -1.2574  -16.4391 C   0  0  0  0  0  0  0  0  0  0  0  0
  -13.3174   -2.4908  -15.7705 C   0  0  0  0  0  0  0  0  0  0  0  0
  -13.5758   -2.8940  -14.1174 S   0  0  0  0  0  0  0  0  0  0  0  0
  -13.3773   -7.5115  -12.3003 N   0  0  0  0  0  0  0  0  0  0  0  0
  -13.1948   -6.4996  -11.4038 C   0  0  0  0  0  0  0  0  0  0  0  0
  -13.1139   -5.3373  -12.0094 N   0  0  0  0  0  0  0  0  0  0  0  0
  -13.2841   -5.6116  -13.3475 C   0  0  0  0  0  0  0  0  0  0  0  0
  -13.4422   -6.9630  -13.5495 C   0  0  0  0  0  0  0  0  0  0  0  0
  -12.1771   -9.6519  -12.1944 C   0  0  0  0  0  0  0  0  0  0  0  0
  -13.4883   -8.9183  -11.9820 C   0  0  0  0  0  0  0  0  0  0  0  0
 39 40  1  0  0  0
 40 34  1  0  0  0
 34 35  1  0  0  0
 34 38  1  0  0  0
 35 36  2  0  0  0
 36 37  1  0  0  0
 37 25  1  0  0  0
 37 38  2  0  0  0
 25 26  2  0  0  0
 25 33  1  0  0  0
 26 27  1  0  0  0
 27 28  1  0  0  0
 27 32  2  0  0  0
 28 29  2  0  0  0
 29 30  1  0  0  0
 30 31  2  0  0  0
 31 24  1  0  0  0
 31 32  1  0  0  0
 24  1  1  0  0  0
  1  2  1  0  0  0
  1  6  2  0  0  0
  2  3  2  0  0  0
  3  4  1  0  0  0
  4  8  1  0  0  0
  4  5  2  0  0  0
  8  9  1  0  0  0
  8 17  1  0  0  0
  9 10  2  0  0  0
  9 11  1  0  0  0
 11 12  1  0  0  0
 11 15  1  0  0  0
 12 13  1  0  0  0
 13 14  1  0  0  0
 14 18  1  0  0  0
 14 15  1  0  0  0
 18 19  1  0  0  0
 18 23  2  0  0  0
 19 20  2  0  0  0
 20 21  1  0  0  0
 21 22  2  0  0  0
 22 23  1  0  0  0
 15 16  2  0  0  0
  5  6  1  0  0  0
  6  7  1  0  0  0
 32 33  1  0  0  0
M  END
> <minimizedAffinity>
-8.48455

$$$$
