CHEMBL2348998


 34 38  0  0  0  0  0  0  0  0999 V2000
  -26.1751   -2.0630  -11.6512 C   0  0  0  0  0  0  0  0  0  0  0  0
  -27.1272   -1.8742  -12.6656 C   0  0  0  0  0  0  0  0  0  0  0  0
  -26.7641   -1.6167  -13.9801 C   0  0  0  0  0  0  0  0  0  0  0  0
  -25.4214   -1.5134  -14.3090 C   0  0  0  0  0  0  0  0  0  0  0  0
  -24.4502   -1.5965  -13.3121 C   0  0  0  0  0  0  0  0  0  0  0  0
  -24.8171   -1.8876  -11.9796 C   0  0  0  0  0  0  0  0  0  0  0  0
  -27.6017   -1.8007   -9.6263 C   0  0  0  0  0  0  0  0  0  0  0  0
  -28.2709   -0.8669  -10.0539 O   0  0  0  0  0  0  0  0  0  0  0  0
  -26.5805   -2.4419  -10.3370 N   0  0  0  0  0  0  0  0  0  0  0  0
  -26.2066   -3.2848   -9.9126 H   0  0  0  0  0  0  0  0  0  0  0  0
  -29.5031   -4.6632   -5.9104 C   0  0  0  0  0  0  0  0  0  0  0  0
  -28.7969   -3.6331   -6.7103 C   0  0  0  0  0  0  0  0  0  0  0  0
  -28.7058   -3.4774   -8.0707 C   0  0  0  0  0  0  0  0  0  0  0  0
  -27.9121   -2.3172   -8.2881 C   0  0  0  0  0  0  0  0  0  0  0  0
  -27.5079   -1.7836   -7.1185 N   0  0  0  0  0  0  0  0  0  0  0  0
  -28.0819   -2.5872   -6.1845 N   0  0  0  0  0  0  0  0  0  0  0  0
  -27.9308   -2.2935   -4.7770 C   0  0  0  0  0  0  0  0  0  0  0  0
  -23.0645   -1.5242  -13.6592 O   0  0  0  0  0  0  0  0  0  0  0  0
  -22.4322   -0.2912  -13.8651 C   0  0  0  0  0  0  0  0  0  0  0  0
  -23.3058    0.8298  -13.4319 C   0  0  0  0  0  0  0  0  0  0  0  0
  -22.8501    2.0777  -13.6464 C   0  0  0  0  0  0  0  0  0  0  0  0
  -21.5779    2.2521  -14.2361 C   0  0  0  0  0  0  0  0  0  0  0  0
  -20.9112    3.3348  -14.5579 N   0  0  0  0  0  0  0  0  0  0  0  0
  -19.7168    2.9030  -15.0691 C   0  0  0  0  0  0  0  0  0  0  0  0
  -19.6604    1.5283  -15.0704 C   0  0  0  0  0  0  0  0  0  0  0  0
  -20.8604    1.1118  -14.5479 N   0  0  0  0  0  0  0  0  0  0  0  0
  -21.2454   -0.1837  -14.3932 N   0  0  0  0  0  0  0  0  0  0  0  0
  -18.7201    3.7518  -15.5073 N   0  0  0  0  0  0  0  0  0  0  0  0
  -17.3812    3.4132  -15.5027 C   0  0  0  0  0  0  0  0  0  0  0  0
  -16.8928    2.3593  -15.1179 O   0  0  0  0  0  0  0  0  0  0  0  0
  -19.0012    4.6551  -15.8521 H   0  0  0  0  0  0  0  0  0  0  0  0
  -16.4137    4.4448  -15.9987 C   0  0  0  0  0  0  0  0  0  0  0  0
  -15.7084    4.3318  -17.3278 C   0  0  0  0  0  0  0  0  0  0  0  0
  -14.9169    4.2694  -16.0517 C   0  0  0  0  0  0  0  0  0  0  0  0
 11 12  1  0  0  0
 12 13  2  0  0  0
 12 16  1  0  0  0
 13 14  1  0  0  0
 14  7  1  0  0  0
 14 15  2  0  0  0
  7  8  2  0  0  0
  7  9  1  0  0  0
  9  1  1  0  0  0
  9 10  1  0  0  0
  1  2  1  0  0  0
  1  6  2  0  0  0
  2  3  2  0  0  0
  3  4  1  0  0  0
  4  5  2  0  0  0
  5 18  1  0  0  0
  5  6  1  0  0  0
 18 19  1  0  0  0
 19 20  1  0  0  0
 19 27  2  0  0  0
 20 21  2  0  0  0
 21 22  1  0  0  0
 22 23  2  0  0  0
 22 26  1  0  0  0
 23 24  1  0  0  0
 24 28  1  0  0  0
 24 25  2  0  0  0
 28 29  1  0  0  0
 28 31  1  0  0  0
 29 30  2  0  0  0
 29 32  1  0  0  0
 32 33  1  0  0  0
 32 34  1  0  0  0
 33 34  1  0  0  0
 25 26  1  0  0  0
 26 27  1  0  0  0
 15 16  1  0  0  0
 16 17  1  0  0  0
M  END
> <minimizedAffinity>
-11.15153

$$$$
