CHEMBL3941907


 36 40  0  0  0  0  0  0  0  0999 V2000
  -15.0795    2.7356  -16.7470 C   0  0  0  0  0  0  0  0  0  0  0  0
  -15.0010    3.8411  -17.2787 O   0  0  0  0  0  0  0  0  0  0  0  0
  -16.2863    2.3996  -15.9257 C   0  0  0  0  0  0  0  0  0  0  0  0
  -16.2289    1.7150  -14.6958 C   0  0  0  0  0  0  0  0  0  0  0  0
  -17.3966    1.3972  -13.9649 C   0  0  0  0  0  0  0  0  0  0  0  0
  -18.6105    1.9608  -14.3950 C   0  0  0  0  0  0  0  0  0  0  0  0
  -19.9955    2.0346  -14.0103 C   0  0  0  0  0  0  0  0  0  0  0  0
  -20.3193    3.3418  -14.1319 N   0  0  0  0  0  0  0  0  0  0  0  0
  -19.6447    3.6592  -15.2549 N   0  0  0  0  0  0  0  0  0  0  0  0
  -18.5522    2.8627  -15.4546 C   0  0  0  0  0  0  0  0  0  0  0  0
  -17.4967    2.9516  -16.3555 C   0  0  0  0  0  0  0  0  0  0  0  0
  -19.8903    4.5115  -15.7534 H   0  0  0  0  0  0  0  0  0  0  0  0
  -21.0879    1.1747  -14.4648 C   0  0  0  0  0  0  0  0  0  0  0  0
  -22.2999    1.1483  -13.8785 C   0  0  0  0  0  0  0  0  0  0  0  0
  -22.9572   -0.1192  -13.4755 C   0  0  0  0  0  0  0  0  0  0  0  0
  -22.6798   -0.7153  -12.2288 C   0  0  0  0  0  0  0  0  0  0  0  0
  -23.4864   -1.7404  -11.7200 C   0  0  0  0  0  0  0  0  0  0  0  0
  -24.5829   -2.1862  -12.4500 C   0  0  0  0  0  0  0  0  0  0  0  0
  -24.8597   -1.6193  -13.6947 C   0  0  0  0  0  0  0  0  0  0  0  0
  -24.0559   -0.5895  -14.2013 C   0  0  0  0  0  0  0  0  0  0  0  0
  -13.1637   -0.4187  -17.5489 C   0  0  0  0  0  0  0  0  0  0  0  0
  -11.8519    0.0447  -17.3940 C   0  0  0  0  0  0  0  0  0  0  0  0
  -11.5863    1.3322  -16.9325 C   0  0  0  0  0  0  0  0  0  0  0  0
  -12.6360    2.1941  -16.6542 C   0  0  0  0  0  0  0  0  0  0  0  0
  -13.9478    1.7940  -16.9209 C   0  0  0  0  0  0  0  0  0  0  0  0
  -14.2159    0.4781  -17.3406 C   0  0  0  0  0  0  0  0  0  0  0  0
  -13.0177   -1.6480  -20.1900 O   0  0  0  0  0  0  0  0  0  0  0  0
  -13.3867   -2.2622  -19.1930 C   0  0  0  0  0  0  0  0  0  0  0  0
  -13.4603   -1.7584  -17.9018 N   0  0  0  0  0  0  0  0  0  0  0  0
  -13.5583   -2.4227  -17.1429 H   0  0  0  0  0  0  0  0  0  0  0  0
  -13.7360   -3.6911  -19.3833 C   0  0  0  0  0  0  0  0  0  0  0  0
  -13.7195   -4.5168  -18.2490 C   0  0  0  0  0  0  0  0  0  0  0  0
  -13.9269   -5.8902  -18.3747 C   0  0  0  0  0  0  0  0  0  0  0  0
  -14.1468   -6.4398  -19.6324 C   0  0  0  0  0  0  0  0  0  0  0  0
  -14.1719   -5.6213  -20.7648 C   0  0  0  0  0  0  0  0  0  0  0  0
  -13.9611   -4.2415  -20.6479 C   0  0  0  0  0  0  0  0  0  0  0  0
 27 28  2  0  0  0
 28 29  1  0  0  0
 28 31  1  0  0  0
 29 21  1  0  0  0
 29 30  1  0  0  0
 21 22  1  0  0  0
 21 26  2  0  0  0
 22 23  2  0  0  0
 23 24  1  0  0  0
 24 25  2  0  0  0
 25  1  1  0  0  0
 25 26  1  0  0  0
  1  2  2  0  0  0
  1  3  1  0  0  0
  3  4  1  0  0  0
  3 11  2  0  0  0
  4  5  2  0  0  0
  5  6  1  0  0  0
  6  7  1  0  0  0
  6 10  2  0  0  0
  7 13  1  0  0  0
  7  8  2  0  0  0
 13 14  2  0  0  0
 14 15  1  0  0  0
 15 16  1  0  0  0
 15 20  2  0  0  0
 16 17  2  0  0  0
 17 18  1  0  0  0
 18 19  2  0  0  0
 19 20  1  0  0  0
  8  9  1  0  0  0
  9 10  1  0  0  0
  9 12  1  0  0  0
 10 11  1  0  0  0
 31 32  1  0  0  0
 31 36  2  0  0  0
 32 33  2  0  0  0
 33 34  1  0  0  0
 34 35  2  0  0  0
 35 36  1  0  0  0
M  END
> <minimizedAffinity>
-10.46941

$$$$
