CHEMBL370545


 33 36  0  0  0  0  0  0  0  0999 V2000
  -25.2387   -1.3923  -13.3774 C   0  0  0  0  0  0  0  0  0  0  0  0
  -24.1554   -0.7854  -14.0457 C   0  0  0  0  0  0  0  0  0  0  0  0
  -22.9203   -0.5591  -13.4119 C   0  0  0  0  0  0  0  0  0  0  0  0
  -22.7947   -0.9335  -12.0829 C   0  0  0  0  0  0  0  0  0  0  0  0
  -23.8261   -1.6162  -11.4418 C   0  0  0  0  0  0  0  0  0  0  0  0
  -25.0702   -1.8268  -12.0514 C   0  0  0  0  0  0  0  0  0  0  0  0
  -21.7913    0.0377  -14.1346 C   0  0  0  0  0  0  0  0  0  0  0  0
  -20.8352   -0.7903  -14.7020 C   0  0  0  0  0  0  0  0  0  0  0  0
  -19.5699    0.0629  -15.4542 S   0  0  0  0  0  0  0  0  0  0  0  0
  -20.2879    1.5581  -15.0834 C   0  0  0  0  0  0  0  0  0  0  0  0
  -19.6799    2.6884  -15.4787 N   0  0  0  0  0  0  0  0  0  0  0  0
  -20.3568    3.7787  -15.1289 C   0  0  0  0  0  0  0  0  0  0  0  0
  -21.5058    3.8344  -14.4467 N   0  0  0  0  0  0  0  0  0  0  0  0
  -22.0817    2.6845  -14.0474 C   0  0  0  0  0  0  0  0  0  0  0  0
  -23.2506    2.8542  -13.3194 N   0  0  0  0  0  0  0  0  0  0  0  0
  -21.4784    1.4463  -14.3722 C   0  0  0  0  0  0  0  0  0  0  0  0
  -23.3708    3.8288  -13.0663 H   0  0  0  0  0  0  0  0  0  0  0  0
  -23.3890    2.1913  -12.5685 H   0  0  0  0  0  0  0  0  0  0  0  0
  -26.1430   -2.4769  -11.3591 N   0  0  0  0  0  0  0  0  0  0  0  0
  -26.6026   -2.0724  -10.1161 C   0  0  0  0  0  0  0  0  0  0  0  0
  -26.1992   -1.0530   -9.5627 O   0  0  0  0  0  0  0  0  0  0  0  0
  -27.5316   -2.9225   -9.5390 N   0  0  0  0  0  0  0  0  0  0  0  0
  -26.7270   -3.0770  -11.9268 H   0  0  0  0  0  0  0  0  0  0  0  0
  -27.5819   -3.8627   -9.9029 H   0  0  0  0  0  0  0  0  0  0  0  0
  -28.1078   -2.6914   -8.2529 C   0  0  0  0  0  0  0  0  0  0  0  0
  -28.9511   -3.6322   -7.6336 C   0  0  0  0  0  0  0  0  0  0  0  0
  -29.6168   -3.3452   -6.4433 C   0  0  0  0  0  0  0  0  0  0  0  0
  -29.4048   -2.1255   -5.8139 C   0  0  0  0  0  0  0  0  0  0  0  0
  -28.5130   -1.1982   -6.3624 C   0  0  0  0  0  0  0  0  0  0  0  0
  -28.2626    0.0938   -5.6409 C   0  0  0  0  0  0  0  0  0  0  0  0
  -27.8684   -1.4861   -7.5805 C   0  0  0  0  0  0  0  0  0  0  0  0
  -26.6368   -1.1072  -15.2835 C   0  0  0  0  0  0  0  0  0  0  0  0
  -26.4781   -1.5829  -13.9461 O   0  0  0  0  0  0  0  0  0  0  0  0
 32 33  1  0  0  0
 33  1  1  0  0  0
  1  2  1  0  0  0
  1  6  2  0  0  0
  2  3  2  0  0  0
  3  7  1  0  0  0
  3  4  1  0  0  0
  7  8  2  0  0  0
  7 16  1  0  0  0
  8  9  1  0  0  0
  9 10  1  0  0  0
 10 11  1  0  0  0
 10 16  2  0  0  0
 11 12  2  0  0  0
 12 13  1  0  0  0
 13 14  2  0  0  0
 14 15  1  0  0  0
 14 16  1  0  0  0
 15 17  1  0  0  0
 15 18  1  0  0  0
  4  5  2  0  0  0
  5  6  1  0  0  0
  6 19  1  0  0  0
 19 20  1  0  0  0
 19 23  1  0  0  0
 20 21  2  0  0  0
 20 22  1  0  0  0
 22 25  1  0  0  0
 22 24  1  0  0  0
 25 26  1  0  0  0
 25 31  2  0  0  0
 26 27  2  0  0  0
 27 28  1  0  0  0
 28 29  2  0  0  0
 29 30  1  0  0  0
 29 31  1  0  0  0
M  END
> <minimizedAffinity>
-9.09040

$$$$
