CHEMBL2086741


 32 36  0  0  0  0  0  0  0  0999 V2000
  -28.4832   -7.5441   -5.3178 C   0  0  0  0  0  0  0  0  0  0  0  0
  -28.4752   -7.8097   -6.6523 C   0  0  0  0  0  0  0  0  0  0  0  0
  -28.7025   -6.8064   -7.7656 C   0  0  0  0  0  0  0  0  0  0  0  0
  -29.1865   -5.6952   -7.7021 O   0  0  0  0  0  0  0  0  0  0  0  0
  -28.1415   -7.3942   -8.9047 N   0  0  0  0  0  0  0  0  0  0  0  0
  -27.6834   -8.6819   -8.6407 C   0  0  0  0  0  0  0  0  0  0  0  0
  -27.0663   -9.5672   -9.5025 C   0  0  0  0  0  0  0  0  0  0  0  0
  -26.6998  -10.8246   -8.9944 C   0  0  0  0  0  0  0  0  0  0  0  0
  -26.9950  -11.1861   -7.6687 C   0  0  0  0  0  0  0  0  0  0  0  0
  -26.7085  -12.4633   -7.1771 N   0  0  0  0  0  0  0  0  0  0  0  0
  -27.7544  -10.3159   -6.8921 C   0  0  0  0  0  0  0  0  0  0  0  0
  -27.9575   -9.0201   -7.3227 C   0  0  0  0  0  0  0  0  0  0  0  0
  -28.1141   -6.9292   -9.7980 H   0  0  0  0  0  0  0  0  0  0  0  0
  -25.8324  -12.8361   -7.5256 H   0  0  0  0  0  0  0  0  0  0  0  0
  -26.7351  -12.4919   -6.1564 H   0  0  0  0  0  0  0  0  0  0  0  0
  -27.8031   -8.4730   -4.4621 C   0  0  0  0  0  0  0  0  0  0  0  0
  -28.1736   -9.6114   -3.9042 N   0  0  0  0  0  0  0  0  0  0  0  0
  -27.0015  -10.2378   -3.5278 C   0  0  0  0  0  0  0  0  0  0  0  0
  -26.7833  -11.5353   -3.0375 C   0  0  0  0  0  0  0  0  0  0  0  0
  -25.4637  -11.9627   -2.8234 C   0  0  0  0  0  0  0  0  0  0  0  0
  -24.3837  -11.1161   -3.0868 C   0  0  0  0  0  0  0  0  0  0  0  0
  -24.5813   -9.8197   -3.5726 C   0  0  0  0  0  0  0  0  0  0  0  0
  -25.9040   -9.4244   -3.7810 C   0  0  0  0  0  0  0  0  0  0  0  0
  -26.4505   -8.2728   -4.2834 N   0  0  0  0  0  0  0  0  0  0  0  0
  -25.9310   -7.4804   -4.6286 H   0  0  0  0  0  0  0  0  0  0  0  0
  -30.5811   -2.7100   -2.8754 C   0  0  0  0  0  0  0  0  0  0  0  0
  -30.0448   -3.9565   -3.5178 C   0  0  0  0  0  0  0  0  0  0  0  0
  -30.8963   -5.0040   -3.8855 C   0  0  0  0  0  0  0  0  0  0  0  0
  -30.3854   -6.1549   -4.4983 C   0  0  0  0  0  0  0  0  0  0  0  0
  -29.0144   -6.2782   -4.7563 C   0  0  0  0  0  0  0  0  0  0  0  0
  -28.1617   -5.2302   -4.3843 C   0  0  0  0  0  0  0  0  0  0  0  0
  -28.6732   -4.0811   -3.7689 C   0  0  0  0  0  0  0  0  0  0  0  0
 26 27  1  0  0  0
 27 28  1  0  0  0
 27 32  2  0  0  0
 28 29  2  0  0  0
 29 30  1  0  0  0
 30  1  1  0  0  0
 30 31  2  0  0  0
  1  2  2  0  0  0
  1 16  1  0  0  0
  2  3  1  0  0  0
  2 12  1  0  0  0
  3  4  2  0  0  0
  3  5  1  0  0  0
  5  6  1  0  0  0
  5 13  1  0  0  0
  6  7  1  0  0  0
  6 12  2  0  0  0
  7  8  2  0  0  0
  8  9  1  0  0  0
  9 10  1  0  0  0
  9 11  2  0  0  0
 10 14  1  0  0  0
 10 15  1  0  0  0
 11 12  1  0  0  0
 16 17  2  0  0  0
 16 24  1  0  0  0
 17 18  1  0  0  0
 18 19  1  0  0  0
 18 23  2  0  0  0
 19 20  2  0  0  0
 20 21  1  0  0  0
 21 22  2  0  0  0
 22 23  1  0  0  0
 23 24  1  0  0  0
 24 25  1  0  0  0
 31 32  1  0  0  0
M  END
> <minimizedAffinity>
-8.61438

$$$$
