CHEMBL424943


 35 38  0  0  0  0  0  0  0  0999 V2000
  -28.7535   -4.5128   -6.2052 C   0  0  0  0  0  0  0  0  0  0  0  0
  -28.1119   -3.3174   -5.8796 C   0  0  0  0  0  0  0  0  0  0  0  0
  -27.7424   -2.3911   -6.8573 C   0  0  0  0  0  0  0  0  0  0  0  0
  -28.0992   -2.5672   -8.1972 C   0  0  0  0  0  0  0  0  0  0  0  0
  -28.8396   -3.7027   -8.5280 C   0  0  0  0  0  0  0  0  0  0  0  0
  -29.1446   -4.6694   -7.5486 C   0  0  0  0  0  0  0  0  0  0  0  0
  -31.5349   -3.4052   -4.5736 N   0  0  0  0  0  0  0  0  0  0  0  0
  -31.2307   -4.5627   -3.9704 C   0  0  0  0  0  0  0  0  0  0  0  0
  -32.0061   -5.0117   -2.9887 N   0  0  0  0  0  0  0  0  0  0  0  0
  -31.4274   -6.1554   -2.6223 N   0  0  0  0  0  0  0  0  0  0  0  0
  -30.3068   -6.4786   -3.3363 C   0  0  0  0  0  0  0  0  0  0  0  0
  -29.4681   -7.5898   -3.2260 C   0  0  0  0  0  0  0  0  0  0  0  0
  -28.3992   -7.6712   -4.1100 C   0  0  0  0  0  0  0  0  0  0  0  0
  -28.1846   -6.6746   -5.0598 C   0  0  0  0  0  0  0  0  0  0  0  0
  -29.0240   -5.5349   -5.1723 C   0  0  0  0  0  0  0  0  0  0  0  0
  -30.1303   -5.4460   -4.2648 C   0  0  0  0  0  0  0  0  0  0  0  0
  -32.2994   -2.8677   -4.1822 H   0  0  0  0  0  0  0  0  0  0  0  0
  -30.8419   -2.8490   -5.0576 H   0  0  0  0  0  0  0  0  0  0  0  0
  -31.8520   -6.6834   -1.8698 H   0  0  0  0  0  0  0  0  0  0  0  0
  -27.7727   -1.6251   -9.1996 N   0  0  0  0  0  0  0  0  0  0  0  0
  -27.0220   -1.8955  -10.3282 C   0  0  0  0  0  0  0  0  0  0  0  0
  -26.6669   -3.0120  -10.6954 O   0  0  0  0  0  0  0  0  0  0  0  0
  -26.6556   -0.7353  -11.0079 N   0  0  0  0  0  0  0  0  0  0  0  0
  -28.2533   -0.7317   -9.1682 H   0  0  0  0  0  0  0  0  0  0  0  0
  -26.5026    0.0586  -10.4047 H   0  0  0  0  0  0  0  0  0  0  0  0
  -25.8390   -0.8175  -12.1618 C   0  0  0  0  0  0  0  0  0  0  0  0
  -26.3363   -1.4654  -13.2907 C   0  0  0  0  0  0  0  0  0  0  0  0
  -25.5913   -1.4776  -14.4729 C   0  0  0  0  0  0  0  0  0  0  0  0
  -24.3283   -0.8825  -14.5142 C   0  0  0  0  0  0  0  0  0  0  0  0
  -23.7991   -0.2551  -13.3785 C   0  0  0  0  0  0  0  0  0  0  0  0
  -24.5693   -0.2290  -12.2042 C   0  0  0  0  0  0  0  0  0  0  0  0
  -22.4376    0.3938  -13.4010 C   0  0  0  0  0  0  0  0  0  0  0  0
  -21.7537    0.2581  -12.2282 F   0  0  0  0  0  0  0  0  0  0  0  0
  -21.6225   -0.1156  -14.3638 F   0  0  0  0  0  0  0  0  0  0  0  0
  -22.5024    1.7348  -13.6348 F   0  0  0  0  0  0  0  0  0  0  0  0
  7  8  1  0  0  0
  7 17  1  0  0  0
  7 18  1  0  0  0
  8  9  2  0  0  0
  8 16  1  0  0  0
  9 10  1  0  0  0
 10 11  1  0  0  0
 10 19  1  0  0  0
 11 12  1  0  0  0
 11 16  2  0  0  0
 12 13  2  0  0  0
 13 14  1  0  0  0
 14 15  2  0  0  0
 15  1  1  0  0  0
 15 16  1  0  0  0
  1  2  1  0  0  0
  1  6  2  0  0  0
  2  3  2  0  0  0
  3  4  1  0  0  0
  4 20  1  0  0  0
  4  5  2  0  0  0
 20 21  1  0  0  0
 20 24  1  0  0  0
 21 22  2  0  0  0
 21 23  1  0  0  0
 23 26  1  0  0  0
 23 25  1  0  0  0
 26 27  1  0  0  0
 26 31  2  0  0  0
 27 28  2  0  0  0
 28 29  1  0  0  0
 29 30  2  0  0  0
 30 32  1  0  0  0
 30 31  1  0  0  0
 32 33  1  0  0  0
 32 34  1  0  0  0
 32 35  1  0  0  0
  5  6  1  0  0  0
M  END
> <minimizedAffinity>
-9.79155

$$$$
