CHEMBL411050


 42 46  0  0  0  0  0  0  0  0999 V2000
  -18.3729    0.7987  -14.6953 C   0  0  0  0  0  0  0  0  0  0  0  0
  -18.4283   -0.1614  -15.4581 O   0  0  0  0  0  0  0  0  0  0  0  0
  -17.2818    1.1317  -13.9125 N   0  0  0  0  0  0  0  0  0  0  0  0
  -17.3871    1.8903  -13.2553 H   0  0  0  0  0  0  0  0  0  0  0  0
  -18.4977    3.8471  -15.3829 C   0  0  0  0  0  0  0  0  0  0  0  0
  -19.6509    3.0284  -14.8717 C   0  0  0  0  0  0  0  0  0  0  0  0
  -20.8787    3.6901  -14.7230 C   0  0  0  0  0  0  0  0  0  0  0  0
  -22.0341    3.0066  -14.3378 C   0  0  0  0  0  0  0  0  0  0  0  0
  -22.0076    1.6394  -14.0839 C   0  0  0  0  0  0  0  0  0  0  0  0
  -20.7777    0.9763  -14.1697 C   0  0  0  0  0  0  0  0  0  0  0  0
  -19.5957    1.6550  -14.5649 C   0  0  0  0  0  0  0  0  0  0  0  0
  -23.1665    0.8901  -13.7485 N   0  0  0  0  0  0  0  0  0  0  0  0
  -23.2414   -0.0769  -12.7546 C   0  0  0  0  0  0  0  0  0  0  0  0
  -22.3256   -0.3528  -11.9855 O   0  0  0  0  0  0  0  0  0  0  0  0
  -24.0281    1.1846  -14.1828 H   0  0  0  0  0  0  0  0  0  0  0  0
  -24.5099   -0.7686  -12.5970 C   0  0  0  0  0  0  0  0  0  0  0  0
  -25.0932   -1.0866  -11.3419 C   0  0  0  0  0  0  0  0  0  0  0  0
  -26.2493   -1.7363  -11.4608 N   0  0  0  0  0  0  0  0  0  0  0  0
  -26.4460   -1.8725  -12.8193 O   0  0  0  0  0  0  0  0  0  0  0  0
  -25.4073   -1.3055  -13.4988 C   0  0  0  0  0  0  0  0  0  0  0  0
  -25.5005   -1.4305  -14.9656 C   0  0  0  0  0  0  0  0  0  0  0  0
  -16.0419    0.4528  -13.8789 C   0  0  0  0  0  0  0  0  0  0  0  0
  -14.9852    0.6575  -14.7332 C   0  0  0  0  0  0  0  0  0  0  0  0
  -13.8340   -0.0465  -14.6783 N   0  0  0  0  0  0  0  0  0  0  0  0
  -13.7145   -1.0025  -13.7419 C   0  0  0  0  0  0  0  0  0  0  0  0
  -14.6784   -1.2743  -12.8498 N   0  0  0  0  0  0  0  0  0  0  0  0
  -15.8091   -0.5325  -12.9360 C   0  0  0  0  0  0  0  0  0  0  0  0
  -12.5540   -1.7746  -13.6959 N   0  0  0  0  0  0  0  0  0  0  0  0
  -11.7338   -1.1930  -13.7524 H   0  0  0  0  0  0  0  0  0  0  0  0
  -12.4052   -3.0822  -14.1821 C   0  0  0  0  0  0  0  0  0  0  0  0
  -12.7032   -3.4142  -15.5028 C   0  0  0  0  0  0  0  0  0  0  0  0
  -12.6333   -4.7338  -15.9449 C   0  0  0  0  0  0  0  0  0  0  0  0
  -12.2697   -5.7820  -15.0915 C   0  0  0  0  0  0  0  0  0  0  0  0
  -11.9096   -5.4361  -13.7838 C   0  0  0  0  0  0  0  0  0  0  0  0
  -11.9675   -4.1048  -13.3348 C   0  0  0  0  0  0  0  0  0  0  0  0
  -12.2389   -7.0718  -15.5876 N   0  0  0  0  0  0  0  0  0  0  0  0
  -11.3752   -7.4645  -16.7065 C   0  0  0  0  0  0  0  0  0  0  0  0
  -12.0457   -8.6446  -17.4571 C   0  0  0  0  0  0  0  0  0  0  0  0
  -12.3447   -9.8022  -16.5776 N   0  0  0  0  0  0  0  0  0  0  0  0
  -13.0514  -10.8421  -17.3217 C   0  0  0  0  0  0  0  0  0  0  0  0
  -13.1646   -9.3475  -15.4294 C   0  0  0  0  0  0  0  0  0  0  0  0
  -12.5076   -8.1845  -14.6541 C   0  0  0  0  0  0  0  0  0  0  0  0
  5  6  1  0  0  0
  6  7  1  0  0  0
  6 11  2  0  0  0
  7  8  2  0  0  0
  8  9  1  0  0  0
  9 12  1  0  0  0
  9 10  2  0  0  0
 12 13  1  0  0  0
 12 15  1  0  0  0
 13 14  2  0  0  0
 13 16  1  0  0  0
 16 17  1  0  0  0
 16 20  2  0  0  0
 17 18  2  0  0  0
 18 19  1  0  0  0
 19 20  1  0  0  0
 20 21  1  0  0  0
 10 11  1  0  0  0
 11  1  1  0  0  0
  1  2  2  0  0  0
  1  3  1  0  0  0
  3 22  1  0  0  0
  3  4  1  0  0  0
 22 23  1  0  0  0
 22 27  2  0  0  0
 23 24  2  0  0  0
 24 25  1  0  0  0
 25 28  1  0  0  0
 25 26  2  0  0  0
 28 30  1  0  0  0
 28 29  1  0  0  0
 30 31  1  0  0  0
 30 35  2  0  0  0
 31 32  2  0  0  0
 32 33  1  0  0  0
 33 36  1  0  0  0
 33 34  2  0  0  0
 36 37  1  0  0  0
 36 42  1  0  0  0
 37 38  1  0  0  0
 38 39  1  0  0  0
 39 40  1  0  0  0
 39 41  1  0  0  0
 41 42  1  0  0  0
 34 35  1  0  0  0
 26 27  1  0  0  0
M  END
> <minimizedAffinity>
-9.16772

$$$$
