CHEMBL223534


 25 27  0  0  0  0  0  0  0  0999 V2000
  -15.1032    1.7709  -14.7991 C   0  0  0  0  0  0  0  0  0  0  0  0
  -14.1271    1.4999  -13.8486 C   0  0  0  0  0  0  0  0  0  0  0  0
  -12.9764    2.2730  -13.7016 N   0  0  0  0  0  0  0  0  0  0  0  0
  -14.2648    0.5396  -12.9188 N   0  0  0  0  0  0  0  0  0  0  0  0
  -15.4140   -0.1437  -12.9275 C   0  0  0  0  0  0  0  0  0  0  0  0
  -16.4212    0.0336  -13.7840 N   0  0  0  0  0  0  0  0  0  0  0  0
  -16.2318    0.9728  -14.7375 C   0  0  0  0  0  0  0  0  0  0  0  0
  -12.5743    2.5316  -14.6031 H   0  0  0  0  0  0  0  0  0  0  0  0
  -12.3353    1.8280  -13.0601 H   0  0  0  0  0  0  0  0  0  0  0  0
  -14.6258    4.0318  -15.5046 N   0  0  0  0  0  0  0  0  0  0  0  0
  -14.9188    2.8088  -15.8304 C   0  0  0  0  0  0  0  0  0  0  0  0
  -15.3896    4.2785  -17.6471 C   0  0  0  0  0  0  0  0  0  0  0  0
  -14.5256    4.8265  -16.6535 O   0  0  0  0  0  0  0  0  0  0  0  0
  -17.2335    1.1305  -15.6889 O   0  0  0  0  0  0  0  0  0  0  0  0
  -18.4409    1.6694  -15.2720 C   0  0  0  0  0  0  0  0  0  0  0  0
  -18.5821    3.0548  -15.3692 C   0  0  0  0  0  0  0  0  0  0  0  0
  -19.7892    3.6880  -15.0381 C   0  0  0  0  0  0  0  0  0  0  0  0
  -20.8579    2.8796  -14.6296 C   0  0  0  0  0  0  0  0  0  0  0  0
  -22.1465    3.2124  -14.2787 N   0  0  0  0  0  0  0  0  0  0  0  0
  -22.8595    2.0859  -13.9652 C   0  0  0  0  0  0  0  0  0  0  0  0
  -22.0225    0.9947  -14.0894 C   0  0  0  0  0  0  0  0  0  0  0  0
  -22.3698   -0.4273  -13.8345 C   0  0  0  0  0  0  0  0  0  0  0  0
  -20.7537    1.4932  -14.5259 C   0  0  0  0  0  0  0  0  0  0  0  0
  -19.5262    0.8817  -14.8578 C   0  0  0  0  0  0  0  0  0  0  0  0
  -22.5159    4.1527  -14.2735 H   0  0  0  0  0  0  0  0  0  0  0  0
 12 13  1  0  0  0
 13 10  1  0  0  0
 10 11  2  0  0  0
 11  1  1  0  0  0
  1  2  1  0  0  0
  1  7  2  0  0  0
  2  3  1  0  0  0
  2  4  2  0  0  0
  3  8  1  0  0  0
  3  9  1  0  0  0
  4  5  1  0  0  0
  5  6  2  0  0  0
  6  7  1  0  0  0
  7 14  1  0  0  0
 14 15  1  0  0  0
 15 16  1  0  0  0
 15 24  2  0  0  0
 16 17  2  0  0  0
 17 18  1  0  0  0
 18 19  1  0  0  0
 18 23  2  0  0  0
 19 20  1  0  0  0
 19 25  1  0  0  0
 20 21  2  0  0  0
 21 22  1  0  0  0
 21 23  1  0  0  0
 23 24  1  0  0  0
M  END
> <minimizedAffinity>
-8.11643

$$$$
