CHEMBL4091975


 33 37  0  0  0  0  0  0  0  0999 V2000
  -24.0984   -0.3142  -12.5496 C   0  0  0  0  0  0  0  0  0  0  0  0
  -23.1225   -1.0972  -13.1643 C   0  0  0  0  0  0  0  0  0  0  0  0
  -22.0330   -0.5773  -13.8746 C   0  0  0  0  0  0  0  0  0  0  0  0
  -21.7232    0.7698  -13.9061 C   0  0  0  0  0  0  0  0  0  0  0  0
  -22.6623    1.5890  -13.2223 C   0  0  0  0  0  0  0  0  0  0  0  0
  -23.8046    1.0516  -12.5458 C   0  0  0  0  0  0  0  0  0  0  0  0
  -25.9312   -1.0632  -15.4878 C   0  0  0  0  0  0  0  0  0  0  0  0
  -26.6948   -1.5319  -14.3001 C   0  0  0  0  0  0  0  0  0  0  0  0
  -27.8743   -2.1385  -14.5165 N   0  0  0  0  0  0  0  0  0  0  0  0
  -28.3264   -2.4102  -13.2808 N   0  0  0  0  0  0  0  0  0  0  0  0
  -27.4854   -2.0150  -12.2843 C   0  0  0  0  0  0  0  0  0  0  0  0
  -27.7256   -2.1760  -10.9702 N   0  0  0  0  0  0  0  0  0  0  0  0
  -26.7407   -1.6758  -10.1987 C   0  0  0  0  0  0  0  0  0  0  0  0
  -25.5793   -1.0691  -10.6602 C   0  0  0  0  0  0  0  0  0  0  0  0
  -25.3376   -0.9295  -12.0328 C   0  0  0  0  0  0  0  0  0  0  0  0
  -26.3765   -1.4264  -12.8952 C   0  0  0  0  0  0  0  0  0  0  0  0
  -29.2271   -2.8602  -13.1774 H   0  0  0  0  0  0  0  0  0  0  0  0
  -20.5493    1.3140  -14.5177 N   0  0  0  0  0  0  0  0  0  0  0  0
  -20.4249    2.5625  -15.0597 C   0  0  0  0  0  0  0  0  0  0  0  0
  -21.3310    3.4004  -15.0933 O   0  0  0  0  0  0  0  0  0  0  0  0
  -19.2209    3.0303  -15.5103 N   0  0  0  0  0  0  0  0  0  0  0  0
  -19.7355    0.7157  -14.5834 H   0  0  0  0  0  0  0  0  0  0  0  0
  -19.3375    4.0408  -15.5510 H   0  0  0  0  0  0  0  0  0  0  0  0
  -17.8840    2.6274  -15.8162 C   0  0  0  0  0  0  0  0  0  0  0  0
  -17.2855    1.3839  -15.7417 C   0  0  0  0  0  0  0  0  0  0  0  0
  -15.9531    1.1775  -15.9071 N   0  0  0  0  0  0  0  0  0  0  0  0
  -15.1633    2.2295  -15.8694 C   0  0  0  0  0  0  0  0  0  0  0  0
  -13.8988    1.9679  -15.4042 C   0  0  0  0  0  0  0  0  0  0  0  0
  -13.0257    2.9878  -15.1137 C   0  0  0  0  0  0  0  0  0  0  0  0
  -13.3954    4.3070  -15.3680 C   0  0  0  0  0  0  0  0  0  0  0  0
  -14.6679    4.5986  -15.8784 C   0  0  0  0  0  0  0  0  0  0  0  0
  -15.6236    3.5416  -16.0725 C   0  0  0  0  0  0  0  0  0  0  0  0
  -17.0067    3.6909  -16.1840 C   0  0  0  0  0  0  0  0  0  0  0  0
  7  8  1  0  0  0
  8  9  2  0  0  0
  8 16  1  0  0  0
  9 10  1  0  0  0
 10 11  1  0  0  0
 10 17  1  0  0  0
 11 12  1  0  0  0
 11 16  2  0  0  0
 12 13  2  0  0  0
 13 14  1  0  0  0
 14 15  2  0  0  0
 15  1  1  0  0  0
 15 16  1  0  0  0
  1  2  1  0  0  0
  1  6  2  0  0  0
  2  3  2  0  0  0
  3  4  1  0  0  0
  4 18  1  0  0  0
  4  5  2  0  0  0
 18 19  1  0  0  0
 18 22  1  0  0  0
 19 20  2  0  0  0
 19 21  1  0  0  0
 21 24  1  0  0  0
 21 23  1  0  0  0
 24 25  1  0  0  0
 24 33  2  0  0  0
 25 26  2  0  0  0
 26 27  1  0  0  0
 27 28  1  0  0  0
 27 32  2  0  0  0
 28 29  2  0  0  0
 29 30  1  0  0  0
 30 31  2  0  0  0
 31 32  1  0  0  0
 32 33  1  0  0  0
  5  6  1  0  0  0
M  END
> <minimizedAffinity>
-10.35569

$$$$
