CHEMBL3644026


 32 33  0  0  0  0  0  0  0  0999 V2000
  -28.1516   -9.5115   -6.5360 C   0  0  0  0  0  0  0  0  0  0  0  0
  -29.0728   -8.5878   -6.1630 N   0  0  0  0  0  0  0  0  0  0  0  0
  -28.8633   -7.9568   -4.9930 C   0  0  0  0  0  0  0  0  0  0  0  0
  -27.8634   -8.2904   -4.1669 N   0  0  0  0  0  0  0  0  0  0  0  0
  -26.9664   -9.1883   -4.5783 C   0  0  0  0  0  0  0  0  0  0  0  0
  -27.0294   -9.8049   -5.7988 C   0  0  0  0  0  0  0  0  0  0  0  0
  -25.8928  -10.6603   -6.2081 C   0  0  0  0  0  0  0  0  0  0  0  0
  -26.2025  -11.9191   -6.6119 F   0  0  0  0  0  0  0  0  0  0  0  0
  -25.2053  -10.1013   -7.2486 F   0  0  0  0  0  0  0  0  0  0  0  0
  -24.9722  -10.8017   -5.2122 F   0  0  0  0  0  0  0  0  0  0  0  0
  -29.7029   -6.9026   -4.6228 N   0  0  0  0  0  0  0  0  0  0  0  0
  -30.5001   -7.2124   -4.0908 H   0  0  0  0  0  0  0  0  0  0  0  0
  -29.5266   -5.5211   -4.8323 C   0  0  0  0  0  0  0  0  0  0  0  0
  -29.9489   -4.8789   -6.0116 C   0  0  0  0  0  0  0  0  0  0  0  0
  -29.5778   -3.5672   -6.3181 C   0  0  0  0  0  0  0  0  0  0  0  0
  -28.7917   -2.8580   -5.4169 C   0  0  0  0  0  0  0  0  0  0  0  0
  -28.4102   -3.4420   -4.2056 C   0  0  0  0  0  0  0  0  0  0  0  0
  -28.7770   -4.7665   -3.9200 C   0  0  0  0  0  0  0  0  0  0  0  0
  -28.1587   -1.2660   -5.8890 S   0  0  0  0  0  0  0  0  0  0  0  0
  -27.0498   -0.9670   -5.0071 O   0  0  0  0  0  0  0  0  0  0  0  0
  -27.9747   -1.3022   -7.3243 O   0  0  0  0  0  0  0  0  0  0  0  0
  -29.4576   -0.1148   -5.5287 C   0  0  0  0  0  0  0  0  0  0  0  0
  -29.3107    1.1214   -6.3944 C   0  0  0  0  0  0  0  0  0  0  0  0
  -27.9516    1.5517   -6.3955 O   0  0  0  0  0  0  0  0  0  0  0  0
  -27.7982    2.0631   -5.5818 H   0  0  0  0  0  0  0  0  0  0  0  0
  -28.2779  -10.1393   -7.7597 O   0  0  0  0  0  0  0  0  0  0  0  0
  -28.5174   -9.3063   -8.9099 C   0  0  0  0  0  0  0  0  0  0  0  0
  -29.4280  -10.0576   -9.8858 C   0  0  0  0  0  0  0  0  0  0  0  0
  -27.0697   -9.5654  -11.0077 C   0  0  0  0  0  0  0  0  0  0  0  0
  -27.1552   -9.0143   -9.5907 C   0  0  0  0  0  0  0  0  0  0  0  0
  -26.8979   -7.6075   -9.6483 O   0  0  0  0  0  0  0  0  0  0  0  0
  -27.6498   -7.1983  -10.1148 H   0  0  0  0  0  0  0  0  0  0  0  0
 29 30  1  0  0  0
 30 31  1  0  0  0
 30 27  1  0  0  0
 31 32  1  0  0  0
 27 28  1  0  0  0
 27 26  1  0  0  0
 26  1  1  0  0  0
  1  2  1  0  0  0
  1  6  2  0  0  0
  2  3  2  0  0  0
  3 11  1  0  0  0
  3  4  1  0  0  0
 11 13  1  0  0  0
 11 12  1  0  0  0
 13 14  1  0  0  0
 13 18  2  0  0  0
 14 15  2  0  0  0
 15 16  1  0  0  0
 16 19  1  0  0  0
 16 17  2  0  0  0
 19 20  2  0  0  0
 19 21  2  0  0  0
 19 22  1  0  0  0
 22 23  1  0  0  0
 23 24  1  0  0  0
 24 25  1  0  0  0
 17 18  1  0  0  0
  4  5  2  0  0  0
  5  6  1  0  0  0
  6  7  1  0  0  0
  7  8  1  0  0  0
  7  9  1  0  0  0
  7 10  1  0  0  0
M  END
> <minimizedAffinity>
-7.38649

$$$$
