CHEMBL3917105


 43 47  0  0  0  0  0  0  0  0999 V2000
  -29.0107   -3.7382   -4.5530 C   0  0  0  0  0  0  0  0  0  0  0  0
  -30.0255   -4.6427   -4.9140 C   0  0  0  0  0  0  0  0  0  0  0  0
  -29.8366   -6.0235   -4.7872 C   0  0  0  0  0  0  0  0  0  0  0  0
  -28.6121   -6.5411   -4.3503 C   0  0  0  0  0  0  0  0  0  0  0  0
  -27.5816   -5.6434   -4.0444 C   0  0  0  0  0  0  0  0  0  0  0  0
  -27.7899   -4.2623   -4.1219 C   0  0  0  0  0  0  0  0  0  0  0  0
  -28.4350   -7.9856   -4.2095 C   0  0  0  0  0  0  0  0  0  0  0  0
  -27.3534   -8.7920   -4.5264 C   0  0  0  0  0  0  0  0  0  0  0  0
  -27.6901  -10.1389   -4.2262 C   0  0  0  0  0  0  0  0  0  0  0  0
  -27.0283  -11.3730   -4.2622 C   0  0  0  0  0  0  0  0  0  0  0  0
  -27.6961  -12.4651   -3.8217 N   0  0  0  0  0  0  0  0  0  0  0  0
  -28.9655  -12.3104   -3.3858 C   0  0  0  0  0  0  0  0  0  0  0  0
  -29.6843  -11.1775   -3.2910 N   0  0  0  0  0  0  0  0  0  0  0  0
  -28.9762  -10.1238   -3.7212 C   0  0  0  0  0  0  0  0  0  0  0  0
  -29.4122   -8.8295   -3.7166 N   0  0  0  0  0  0  0  0  0  0  0  0
  -30.3274   -8.5516   -3.3978 H   0  0  0  0  0  0  0  0  0  0  0  0
  -25.7049  -11.4389   -4.6531 N   0  0  0  0  0  0  0  0  0  0  0  0
  -25.0808  -10.7926   -4.1897 H   0  0  0  0  0  0  0  0  0  0  0  0
  -25.4042  -11.8006   -6.0169 C   0  0  0  0  0  0  0  0  0  0  0  0
  -23.9017  -11.7946   -6.2075 C   0  0  0  0  0  0  0  0  0  0  0  0
  -23.3507  -11.7472   -7.5008 C   0  0  0  0  0  0  0  0  0  0  0  0
  -21.9709  -11.6521   -7.6864 C   0  0  0  0  0  0  0  0  0  0  0  0
  -21.1242  -11.6033   -6.5821 C   0  0  0  0  0  0  0  0  0  0  0  0
  -21.6555  -11.6663   -5.2944 C   0  0  0  0  0  0  0  0  0  0  0  0
  -23.0367  -11.7632   -5.1065 C   0  0  0  0  0  0  0  0  0  0  0  0
  -29.2400   -2.2296   -4.5498 C   0  0  0  0  0  0  0  0  0  0  0  0
  -27.4458   -1.3665   -7.7862 N   0  0  0  0  0  0  0  0  0  0  0  0
  -27.9400   -2.6606   -7.2617 C   0  0  0  0  0  0  0  0  0  0  0  0
  -29.4587   -2.6174   -6.9573 C   0  0  0  0  0  0  0  0  0  0  0  0
  -29.7680   -1.7157   -5.8329 N   0  0  0  0  0  0  0  0  0  0  0  0
  -29.2326   -0.3738   -6.1855 C   0  0  0  0  0  0  0  0  0  0  0  0
  -27.7920   -0.3232   -6.7892 C   0  0  0  0  0  0  0  0  0  0  0  0
  -28.0212   -1.1498   -9.1277 C   0  0  0  0  0  0  0  0  0  0  0  0
  -27.5919   -2.1213  -10.2272 C   0  0  0  0  0  0  0  0  0  0  0  0
  -26.9769   -1.4790  -11.4676 C   0  0  0  0  0  0  0  0  0  0  0  0
  -25.5491   -0.9753  -11.2330 C   0  0  0  0  0  0  0  0  0  0  0  0
  -24.5358   -1.7797  -12.0413 C   0  0  0  0  0  0  0  0  0  0  0  0
  -22.4428   -0.5629  -11.7756 O   0  0  0  0  0  0  0  0  0  0  0  0
  -23.3503   -0.9452  -12.4951 C   0  0  0  0  0  0  0  0  0  0  0  0
  -23.4130   -0.6337  -13.8347 N   0  0  0  0  0  0  0  0  0  0  0  0
  -22.4099    0.1825  -14.3786 O   0  0  0  0  0  0  0  0  0  0  0  0
  -24.1771   -0.9010  -14.4585 H   0  0  0  0  0  0  0  0  0  0  0  0
  -21.9783    0.5564  -13.5754 H   0  0  0  0  0  0  0  0  0  0  0  0
 38 39  2  0  0  0
 39 37  1  0  0  0
 39 40  1  0  0  0
 37 36  1  0  0  0
 36 35  1  0  0  0
 35 34  1  0  0  0
 34 33  1  0  0  0
 33 27  1  0  0  0
 27 28  1  0  0  0
 27 32  1  0  0  0
 28 29  1  0  0  0
 29 30  1  0  0  0
 30 26  1  0  0  0
 30 31  1  0  0  0
 26  1  1  0  0  0
  1  2  1  0  0  0
  1  6  2  0  0  0
  2  3  2  0  0  0
  3  4  1  0  0  0
  4  7  1  0  0  0
  4  5  2  0  0  0
  7  8  2  0  0  0
  7 15  1  0  0  0
  8  9  1  0  0  0
  9 10  1  0  0  0
  9 14  2  0  0  0
 10 17  1  0  0  0
 10 11  2  0  0  0
 17 19  1  0  0  0
 17 18  1  0  0  0
 19 20  1  0  0  0
 20 21  1  0  0  0
 20 25  2  0  0  0
 21 22  2  0  0  0
 22 23  1  0  0  0
 23 24  2  0  0  0
 24 25  1  0  0  0
 11 12  1  0  0  0
 12 13  2  0  0  0
 13 14  1  0  0  0
 14 15  1  0  0  0
 15 16  1  0  0  0
  5  6  1  0  0  0
 31 32  1  0  0  0
 40 41  1  0  0  0
 40 42  1  0  0  0
 41 43  1  0  0  0
M  END
> <minimizedAffinity>
-8.06700

$$$$
