CHEMBL193955


 28 30  0  0  0  0  0  0  0  0999 V2000
  -27.4380   -1.5805   -7.8417 N   0  0  0  0  0  0  0  0  0  0  0  0
  -27.1361   -0.7469   -7.3604 H   0  0  0  0  0  0  0  0  0  0  0  0
  -28.4120   -2.3380   -7.1466 C   0  0  0  0  0  0  0  0  0  0  0  0
  -28.5493   -3.7176   -7.4291 C   0  0  0  0  0  0  0  0  0  0  0  0
  -29.4013   -4.5385   -6.6876 C   0  0  0  0  0  0  0  0  0  0  0  0
  -30.1708   -4.0048   -5.6631 C   0  0  0  0  0  0  0  0  0  0  0  0
  -30.0773   -2.6395   -5.3922 C   0  0  0  0  0  0  0  0  0  0  0  0
  -29.2231   -1.7963   -6.1293 C   0  0  0  0  0  0  0  0  0  0  0  0
  -29.5179   -6.2642   -7.1029 S   0  0  0  0  0  0  0  0  0  0  0  0
  -30.8629   -6.4947   -7.6029 O   0  0  0  0  0  0  0  0  0  0  0  0
  -28.3628   -6.5687   -7.9197 O   0  0  0  0  0  0  0  0  0  0  0  0
  -29.3643   -7.1278   -5.5465 C   0  0  0  0  0  0  0  0  0  0  0  0
  -27.9965   -6.9012   -4.9255 C   0  0  0  0  0  0  0  0  0  0  0  0
  -29.2301   -0.5108   -5.6531 O   0  0  0  0  0  0  0  0  0  0  0  0
  -28.2270   -0.1338   -4.7247 C   0  0  0  0  0  0  0  0  0  0  0  0
  -26.2608   -1.4630  -11.0573 C   0  0  0  0  0  0  0  0  0  0  0  0
  -27.6188   -1.3765  -11.2699 C   0  0  0  0  0  0  0  0  0  0  0  0
  -28.2899   -1.4347  -10.0839 N   0  0  0  0  0  0  0  0  0  0  0  0
  -27.3374   -1.5665   -9.1849 C   0  0  0  0  0  0  0  0  0  0  0  0
  -26.0733   -1.6299   -9.7065 O   0  0  0  0  0  0  0  0  0  0  0  0
  -23.5732    0.2150  -13.0795 C   0  0  0  0  0  0  0  0  0  0  0  0
  -22.6894   -0.8438  -13.3001 C   0  0  0  0  0  0  0  0  0  0  0  0
  -23.0088   -2.1266  -12.8553 C   0  0  0  0  0  0  0  0  0  0  0  0
  -24.1979   -2.3555  -12.1548 C   0  0  0  0  0  0  0  0  0  0  0  0
  -25.0919   -1.3073  -11.9107 C   0  0  0  0  0  0  0  0  0  0  0  0
  -24.7837   -0.0352  -12.4191 C   0  0  0  0  0  0  0  0  0  0  0  0
  -21.8236    1.6503  -14.0987 C   0  0  0  0  0  0  0  0  0  0  0  0
  -23.1809    1.6337  -13.4050 C   0  0  0  0  0  0  0  0  0  0  0  0
 27 28  1  0  0  0
 28 21  1  0  0  0
 21 22  1  0  0  0
 21 26  2  0  0  0
 22 23  2  0  0  0
 23 24  1  0  0  0
 24 25  2  0  0  0
 25 16  1  0  0  0
 25 26  1  0  0  0
 16 17  2  0  0  0
 16 20  1  0  0  0
 17 18  1  0  0  0
 18 19  2  0  0  0
 19  1  1  0  0  0
 19 20  1  0  0  0
  1  3  1  0  0  0
  1  2  1  0  0  0
  3  4  1  0  0  0
  3  8  2  0  0  0
  4  5  2  0  0  0
  5  9  1  0  0  0
  5  6  1  0  0  0
  9 10  2  0  0  0
  9 11  2  0  0  0
  9 12  1  0  0  0
 12 13  1  0  0  0
  6  7  2  0  0  0
  7  8  1  0  0  0
  8 14  1  0  0  0
 14 15  1  0  0  0
M  END
> <minimizedAffinity>
-8.66008

$$$$
