CHEMBL3980069


 40 44  0  0  0  0  0  0  0  0999 V2000
  -27.3741   -1.7421   -9.5548 C   0  0  0  0  0  0  0  0  0  0  0  0
  -28.2269   -1.6663  -10.6517 C   0  0  0  0  0  0  0  0  0  0  0  0
  -27.7084   -1.6311  -11.9353 C   0  0  0  0  0  0  0  0  0  0  0  0
  -26.3651   -1.4637  -12.1606 C   0  0  0  0  0  0  0  0  0  0  0  0
  -26.0012   -1.6795  -13.4307 N   0  0  0  0  0  0  0  0  0  0  0  0
  -24.7848   -1.2604  -13.7885 C   0  0  0  0  0  0  0  0  0  0  0  0
  -23.9983   -0.5223  -12.9323 C   0  0  0  0  0  0  0  0  0  0  0  0
  -24.2780   -0.4904  -11.5738 N   0  0  0  0  0  0  0  0  0  0  0  0
  -25.4938   -1.0535  -11.1331 C   0  0  0  0  0  0  0  0  0  0  0  0
  -26.0192   -1.3285   -9.7863 C   0  0  0  0  0  0  0  0  0  0  0  0
  -23.1542    0.4746  -13.6189 C   0  0  0  0  0  0  0  0  0  0  0  0
  -23.1724    1.8825  -13.6911 C   0  0  0  0  0  0  0  0  0  0  0  0
  -22.0742    2.3982  -14.2669 N   0  0  0  0  0  0  0  0  0  0  0  0
  -21.3022    1.3254  -14.5624 N   0  0  0  0  0  0  0  0  0  0  0  0
  -21.8796    0.1659  -14.1024 C   0  0  0  0  0  0  0  0  0  0  0  0
  -20.1604    1.4928  -15.4770 C   0  0  0  0  0  0  0  0  0  0  0  0
  -18.9474    0.5599  -15.2798 C   0  0  0  0  0  0  0  0  0  0  0  0
  -18.0338    1.0010  -14.1468 C   0  0  0  0  0  0  0  0  0  0  0  0
  -17.6057    2.3942  -14.2595 N   0  0  0  0  0  0  0  0  0  0  0  0
  -18.7422    3.3097  -14.3958 C   0  0  0  0  0  0  0  0  0  0  0  0
  -19.6258    2.9339  -15.5909 C   0  0  0  0  0  0  0  0  0  0  0  0
  -16.9694    2.4985  -15.0519 H   0  0  0  0  0  0  0  0  0  0  0  0
  -27.9379   -2.4621   -8.4202 N   0  0  0  0  0  0  0  0  0  0  0  0
  -28.8116   -0.3166   -5.4549 C   0  0  0  0  0  0  0  0  0  0  0  0
  -28.7543   -1.2400   -4.4118 C   0  0  0  0  0  0  0  0  0  0  0  0
  -28.3843   -2.5543   -4.6764 C   0  0  0  0  0  0  0  0  0  0  0  0
  -28.0567   -2.9411   -5.9885 C   0  0  0  0  0  0  0  0  0  0  0  0
  -28.0846   -2.0439   -7.0698 C   0  0  0  0  0  0  0  0  0  0  0  0
  -28.4561   -0.7171   -6.7652 C   0  0  0  0  0  0  0  0  0  0  0  0
  -30.5361    1.3156   -5.7765 C   0  0  0  0  0  0  0  0  0  0  0  0
  -29.2271    0.9869   -5.3083 O   0  0  0  0  0  0  0  0  0  0  0  0
  -28.3271   -3.5620   -3.7471 O   0  0  0  0  0  0  0  0  0  0  0  0
  -27.8255   -4.8228   -4.1839 C   0  0  0  0  0  0  0  0  0  0  0  0
  -27.6351   -3.9373   -8.6411 C   0  0  0  0  0  0  0  0  0  0  0  0
  -28.5579   -5.0061   -7.9820 C   0  0  0  0  0  0  0  0  0  0  0  0
  -28.2179   -6.4388   -7.9904 N   0  0  0  0  0  0  0  0  0  0  0  0
  -27.3319   -6.5775   -7.5054 H   0  0  0  0  0  0  0  0  0  0  0  0
  -29.2149   -7.4048   -7.5142 C   0  0  0  0  0  0  0  0  0  0  0  0
  -30.6408   -6.8627   -7.3708 C   0  0  0  0  0  0  0  0  0  0  0  0
  -29.2571   -8.5781   -8.5081 C   0  0  0  0  0  0  0  0  0  0  0  0
 30 31  1  0  0  0
 31 24  1  0  0  0
 24 25  1  0  0  0
 24 29  2  0  0  0
 25 26  2  0  0  0
 26 32  1  0  0  0
 26 27  1  0  0  0
 32 33  1  0  0  0
 27 28  2  0  0  0
 28 23  1  0  0  0
 28 29  1  0  0  0
 23 34  1  0  0  0
 23  1  1  0  0  0
 34 35  1  0  0  0
 35 36  1  0  0  0
 36 38  1  0  0  0
 36 37  1  0  0  0
 38 39  1  0  0  0
 38 40  1  0  0  0
  1  2  1  0  0  0
  1 10  2  0  0  0
  2  3  2  0  0  0
  3  4  1  0  0  0
  4  5  1  0  0  0
  4  9  2  0  0  0
  5  6  2  0  0  0
  6  7  1  0  0  0
  7 11  1  0  0  0
  7  8  2  0  0  0
 11 12  1  0  0  0
 11 15  2  0  0  0
 12 13  2  0  0  0
 13 14  1  0  0  0
 14 16  1  0  0  0
 14 15  1  0  0  0
 16 17  1  0  0  0
 16 21  1  0  0  0
 17 18  1  0  0  0
 18 19  1  0  0  0
 19 20  1  0  0  0
 19 22  1  0  0  0
 20 21  1  0  0  0
  8  9  1  0  0  0
  9 10  1  0  0  0
M  END
> <minimizedAffinity>
-9.45495

$$$$
