CHEMBL199110


 37 40  0  0  0  0  0  0  0  0999 V2000
  -30.0861   -9.2241   -6.8962 C   0  0  0  0  0  0  0  0  0  0  0  0
  -31.3007   -9.1325   -7.4724 N   0  0  0  0  0  0  0  0  0  0  0  0
  -32.0633   -8.1011   -7.1088 C   0  0  0  0  0  0  0  0  0  0  0  0
  -31.7522   -7.1791   -6.1967 N   0  0  0  0  0  0  0  0  0  0  0  0
  -30.5502   -7.2763   -5.6258 C   0  0  0  0  0  0  0  0  0  0  0  0
  -30.2254   -6.3116   -4.6835 C   0  0  0  0  0  0  0  0  0  0  0  0
  -28.9789   -6.2699   -4.0698 C   0  0  0  0  0  0  0  0  0  0  0  0
  -28.0395   -7.2464   -4.3754 C   0  0  0  0  0  0  0  0  0  0  0  0
  -28.3525   -8.2635   -5.2847 C   0  0  0  0  0  0  0  0  0  0  0  0
  -29.6252   -8.2851   -5.9381 C   0  0  0  0  0  0  0  0  0  0  0  0
  -29.2654  -10.3112   -7.2783 N   0  0  0  0  0  0  0  0  0  0  0  0
  -29.6713  -11.1852   -6.9617 H   0  0  0  0  0  0  0  0  0  0  0  0
  -28.6857  -10.2240  -10.8041 C   0  0  0  0  0  0  0  0  0  0  0  0
  -27.5047  -10.9406  -10.9356 C   0  0  0  0  0  0  0  0  0  0  0  0
  -26.8611  -11.4894   -9.8845 N   0  0  0  0  0  0  0  0  0  0  0  0
  -27.4456  -11.2644   -8.6784 C   0  0  0  0  0  0  0  0  0  0  0  0
  -26.6955  -12.1849   -7.4274 Cl  0  0  0  0  0  0  0  0  0  0  0  0
  -28.6259  -10.5090   -8.5119 C   0  0  0  0  0  0  0  0  0  0  0  0
  -29.2702   -9.9945   -9.6017 N   0  0  0  0  0  0  0  0  0  0  0  0
  -28.4286   -9.9230  -13.1202 C   0  0  0  0  0  0  0  0  0  0  0  0
  -29.2548   -9.7687  -11.9748 O   0  0  0  0  0  0  0  0  0  0  0  0
  -28.7931   -5.2453   -3.1720 O   0  0  0  0  0  0  0  0  0  0  0  0
  -29.0478   -3.9362   -3.6923 C   0  0  0  0  0  0  0  0  0  0  0  0
  -28.0412   -3.6026   -4.8060 C   0  0  0  0  0  0  0  0  0  0  0  0
  -28.6713   -3.2270   -6.0879 N   0  0  0  0  0  0  0  0  0  0  0  0
  -27.8172   -2.2801   -6.8462 C   0  0  0  0  0  0  0  0  0  0  0  0
  -27.8089   -0.8301   -6.3112 C   0  0  0  0  0  0  0  0  0  0  0  0
  -29.1647   -0.3096   -6.0883 N   0  0  0  0  0  0  0  0  0  0  0  0
  -29.3882    1.0397   -6.3001 C   0  0  0  0  0  0  0  0  0  0  0  0
  -30.7686    1.6148   -6.0980 C   0  0  0  0  0  0  0  0  0  0  0  0
  -28.4951    1.7877   -6.7105 O   0  0  0  0  0  0  0  0  0  0  0  0
  -30.0457   -1.2171   -5.3514 C   0  0  0  0  0  0  0  0  0  0  0  0
  -30.0172   -2.6302   -5.9576 C   0  0  0  0  0  0  0  0  0  0  0  0
  -27.4694   -9.2621   -5.6148 O   0  0  0  0  0  0  0  0  0  0  0  0
  -26.5636   -9.7658   -4.6254 C   0  0  0  0  0  0  0  0  0  0  0  0
  -27.0520  -11.1089   -4.0862 C   0  0  0  0  0  0  0  0  0  0  0  0
  -25.2169   -9.9558   -5.3217 C   0  0  0  0  0  0  0  0  0  0  0  0
 20 21  1  0  0  0
 21 13  1  0  0  0
 13 14  1  0  0  0
 13 19  2  0  0  0
 14 15  2  0  0  0
 15 16  1  0  0  0
 16 17  1  0  0  0
 16 18  2  0  0  0
 18 11  1  0  0  0
 18 19  1  0  0  0
 11  1  1  0  0  0
 11 12  1  0  0  0
  1  2  1  0  0  0
  1 10  2  0  0  0
  2  3  2  0  0  0
  3  4  1  0  0  0
  4  5  2  0  0  0
  5  6  1  0  0  0
  5 10  1  0  0  0
  6  7  2  0  0  0
  7 22  1  0  0  0
  7  8  1  0  0  0
 22 23  1  0  0  0
 23 24  1  0  0  0
 24 25  1  0  0  0
 25 26  1  0  0  0
 25 33  1  0  0  0
 26 27  1  0  0  0
 27 28  1  0  0  0
 28 29  1  0  0  0
 28 32  1  0  0  0
 29 30  1  0  0  0
 29 31  2  0  0  0
 32 33  1  0  0  0
  8  9  2  0  0  0
  9 34  1  0  0  0
  9 10  1  0  0  0
 34 35  1  0  0  0
 35 36  1  0  0  0
 35 37  1  0  0  0
M  END
> <minimizedAffinity>
-7.17456

$$$$
