CHEMBL3690565


 43 47  0  0  0  0  0  0  0  0999 V2000
  -18.9221    2.0122  -15.2231 C   0  0  0  0  0  0  0  0  0  0  0  0
  -19.4327    0.6360  -15.1576 C   0  0  0  0  0  0  0  0  0  0  0  0
  -20.6371    0.3897  -14.6136 C   0  0  0  0  0  0  0  0  0  0  0  0
  -21.4477    1.4564  -14.2200 N   0  0  0  0  0  0  0  0  0  0  0  0
  -22.7784    1.4923  -13.8228 C   0  0  0  0  0  0  0  0  0  0  0  0
  -23.0169    2.8350  -13.5677 C   0  0  0  0  0  0  0  0  0  0  0  0
  -21.9227    3.6120  -13.8229 N   0  0  0  0  0  0  0  0  0  0  0  0
  -21.0075    2.7751  -14.2557 C   0  0  0  0  0  0  0  0  0  0  0  0
  -19.7007    3.0201  -14.7569 C   0  0  0  0  0  0  0  0  0  0  0  0
  -15.4587    1.7432  -16.3703 C   0  0  0  0  0  0  0  0  0  0  0  0
  -15.1175    3.0655  -16.5949 C   0  0  0  0  0  0  0  0  0  0  0  0
  -16.0841    3.9984  -16.3397 C   0  0  0  0  0  0  0  0  0  0  0  0
  -17.3092    3.6738  -15.9129 N   0  0  0  0  0  0  0  0  0  0  0  0
  -17.5706    2.3624  -15.7384 C   0  0  0  0  0  0  0  0  0  0  0  0
  -16.6859    1.3693  -15.9653 N   0  0  0  0  0  0  0  0  0  0  0  0
  -13.7727   -0.0563  -15.6426 N   0  0  0  0  0  0  0  0  0  0  0  0
  -12.9248   -0.9198  -16.2878 C   0  0  0  0  0  0  0  0  0  0  0  0
  -13.0220   -0.5796  -17.6113 C   0  0  0  0  0  0  0  0  0  0  0  0
  -13.9455    0.4122  -17.7821 N   0  0  0  0  0  0  0  0  0  0  0  0
  -14.4316    0.7135  -16.5744 C   0  0  0  0  0  0  0  0  0  0  0  0
  -13.9428    0.0176  -13.9629 S   0  0  0  0  0  0  0  0  0  0  0  0
  -13.9607    1.4349  -13.6601 O   0  0  0  0  0  0  0  0  0  0  0  0
  -12.9508   -0.8912  -13.4286 O   0  0  0  0  0  0  0  0  0  0  0  0
  -15.4595   -1.9757  -12.9123 C   0  0  0  0  0  0  0  0  0  0  0  0
  -15.4841   -0.6063  -13.4821 N   0  0  0  0  0  0  0  0  0  0  0  0
  -16.2113    0.3203  -12.5772 C   0  0  0  0  0  0  0  0  0  0  0  0
  -23.7298    0.3782  -13.8146 C   0  0  0  0  0  0  0  0  0  0  0  0
  -24.1024   -0.2222  -15.0224 C   0  0  0  0  0  0  0  0  0  0  0  0
  -24.9318   -1.3398  -15.0265 C   0  0  0  0  0  0  0  0  0  0  0  0
  -25.3911   -1.8760  -13.8233 C   0  0  0  0  0  0  0  0  0  0  0  0
  -25.0252   -1.3153  -12.5995 C   0  0  0  0  0  0  0  0  0  0  0  0
  -24.1949   -0.1820  -12.6095 C   0  0  0  0  0  0  0  0  0  0  0  0
  -25.4210   -1.8361  -11.3486 N   0  0  0  0  0  0  0  0  0  0  0  0
  -26.6779   -1.7411  -10.7930 C   0  0  0  0  0  0  0  0  0  0  0  0
  -27.6627   -1.2110  -11.2900 O   0  0  0  0  0  0  0  0  0  0  0  0
  -26.7435   -2.2682   -9.5252 N   0  0  0  0  0  0  0  0  0  0  0  0
  -24.7375   -2.3467  -10.8199 H   0  0  0  0  0  0  0  0  0  0  0  0
  -26.1237   -3.0358   -9.3117 H   0  0  0  0  0  0  0  0  0  0  0  0
  -28.0428   -2.2381   -8.8359 C   0  0  0  0  0  0  0  0  0  0  0  0
  -28.4270   -3.4999   -8.0462 C   0  0  0  0  0  0  0  0  0  0  0  0
  -27.6915   -4.5757   -8.4086 F   0  0  0  0  0  0  0  0  0  0  0  0
  -28.1971   -3.2990   -6.7230 F   0  0  0  0  0  0  0  0  0  0  0  0
  -29.7322   -3.8146   -8.1791 F   0  0  0  0  0  0  0  0  0  0  0  0
 24 25  1  0  0  0
 25 26  1  0  0  0
 25 21  1  0  0  0
 21 22  2  0  0  0
 21 23  2  0  0  0
 21 16  1  0  0  0
 16 17  1  0  0  0
 16 20  1  0  0  0
 17 18  2  0  0  0
 18 19  1  0  0  0
 19 20  2  0  0  0
 20 10  1  0  0  0
 10 11  1  0  0  0
 10 15  2  0  0  0
 11 12  2  0  0  0
 12 13  1  0  0  0
 13 14  2  0  0  0
 14  1  1  0  0  0
 14 15  1  0  0  0
  1  2  1  0  0  0
  1  9  2  0  0  0
  2  3  2  0  0  0
  3  4  1  0  0  0
  4  5  1  0  0  0
  4  8  1  0  0  0
  5 27  1  0  0  0
  5  6  2  0  0  0
 27 28  1  0  0  0
 27 32  2  0  0  0
 28 29  2  0  0  0
 29 30  1  0  0  0
 30 31  2  0  0  0
 31 33  1  0  0  0
 31 32  1  0  0  0
 33 34  1  0  0  0
 33 37  1  0  0  0
 34 35  2  0  0  0
 34 36  1  0  0  0
 36 39  1  0  0  0
 36 38  1  0  0  0
 39 40  1  0  0  0
 40 41  1  0  0  0
 40 42  1  0  0  0
 40 43  1  0  0  0
  6  7  1  0  0  0
  7  8  2  0  0  0
  8  9  1  0  0  0
M  END
> <minimizedAffinity>
-10.43553

$$$$
