CHEMBL4434974


 42 47  0  0  0  0  0  0  0  0999 V2000
  -29.9324   -9.1515   -7.1594 C   0  0  0  0  0  0  0  0  0  0  0  0
  -30.5957   -8.0078   -7.6151 C   0  0  0  0  0  0  0  0  0  0  0  0
  -30.3569   -6.7839   -7.0004 C   0  0  0  0  0  0  0  0  0  0  0  0
  -29.5233   -6.7185   -5.8874 C   0  0  0  0  0  0  0  0  0  0  0  0
  -29.0998   -7.9122   -5.2795 C   0  0  0  0  0  0  0  0  0  0  0  0
  -29.2823   -9.1196   -5.9329 C   0  0  0  0  0  0  0  0  0  0  0  0
  -28.7406  -10.2302   -5.4113 F   0  0  0  0  0  0  0  0  0  0  0  0
  -28.9059   -5.5338   -5.4717 N   0  0  0  0  0  0  0  0  0  0  0  0
  -28.4337   -5.6495   -4.5781 H   0  0  0  0  0  0  0  0  0  0  0  0
  -29.2751   -4.1917   -5.5816 C   0  0  0  0  0  0  0  0  0  0  0  0
  -29.9209   -3.7930   -4.4272 N   0  0  0  0  0  0  0  0  0  0  0  0
  -29.8012   -2.5243   -3.9975 C   0  0  0  0  0  0  0  0  0  0  0  0
  -28.9360   -1.6525   -4.5771 C   0  0  0  0  0  0  0  0  0  0  0  0
  -28.3348   -2.0613   -5.7541 C   0  0  0  0  0  0  0  0  0  0  0  0
  -27.5053   -1.1098   -6.3698 N   0  0  0  0  0  0  0  0  0  0  0  0
  -27.9661   -0.8745   -7.6332 C   0  0  0  0  0  0  0  0  0  0  0  0
  -28.0536   -1.8591   -8.5515 C   0  0  0  0  0  0  0  0  0  0  0  0
  -28.1401   -3.3072   -7.9013 C   0  0  0  0  0  0  0  0  0  0  0  0
  -27.9170   -4.3147   -8.5621 O   0  0  0  0  0  0  0  0  0  0  0  0
  -28.6110   -3.2773   -6.4012 C   0  0  0  0  0  0  0  0  0  0  0  0
  -26.6048   -1.6092   -6.5047 H   0  0  0  0  0  0  0  0  0  0  0  0
  -27.4091   -1.2677   -9.7724 C   0  0  0  0  0  0  0  0  0  0  0  0
  -28.2565   -1.1161  -10.8987 C   0  0  0  0  0  0  0  0  0  0  0  0
  -27.7974   -1.4470  -12.1829 C   0  0  0  0  0  0  0  0  0  0  0  0
  -26.4873   -1.8655  -12.3801 C   0  0  0  0  0  0  0  0  0  0  0  0
  -26.1015   -2.2972  -13.5890 F   0  0  0  0  0  0  0  0  0  0  0  0
  -25.5953   -1.9068  -11.3162 C   0  0  0  0  0  0  0  0  0  0  0  0
  -26.0379   -1.5743  -10.0250 C   0  0  0  0  0  0  0  0  0  0  0  0
  -29.8466  -10.3054   -7.9007 O   0  0  0  0  0  0  0  0  0  0  0  0
  -26.4499  -11.2059   -9.0636 C   0  0  0  0  0  0  0  0  0  0  0  0
  -27.5820  -11.2217   -8.2576 C   0  0  0  0  0  0  0  0  0  0  0  0
  -28.7084  -10.4919   -8.6636 C   0  0  0  0  0  0  0  0  0  0  0  0
  -28.7204   -9.8797   -9.9060 C   0  0  0  0  0  0  0  0  0  0  0  0
  -27.5726   -9.9604  -10.6629 C   0  0  0  0  0  0  0  0  0  0  0  0
  -26.4509  -10.5891  -10.2573 N   0  0  0  0  0  0  0  0  0  0  0  0
  -24.7345  -10.3539   -6.8484 O   0  0  0  0  0  0  0  0  0  0  0  0
  -24.5200  -11.3552   -7.5208 C   0  0  0  0  0  0  0  0  0  0  0  0
  -25.2677  -11.8204   -8.5779 N   0  0  0  0  0  0  0  0  0  0  0  0
  -25.0108  -12.6925   -9.0244 H   0  0  0  0  0  0  0  0  0  0  0  0
  -23.3372  -12.2117   -7.2097 C   0  0  0  0  0  0  0  0  0  0  0  0
  -22.0739  -11.5562   -6.7077 C   0  0  0  0  0  0  0  0  0  0  0  0
  -22.1174  -12.1362   -8.0935 C   0  0  0  0  0  0  0  0  0  0  0  0
 36 37  2  0  0  0
 37 38  1  0  0  0
 37 40  1  0  0  0
 38 30  1  0  0  0
 38 39  1  0  0  0
 30 31  1  0  0  0
 30 35  2  0  0  0
 31 32  2  0  0  0
 32 29  1  0  0  0
 32 33  1  0  0  0
 29  1  1  0  0  0
  1  2  1  0  0  0
  1  6  2  0  0  0
  2  3  2  0  0  0
  3  4  1  0  0  0
  4  8  1  0  0  0
  4  5  2  0  0  0
  8 10  1  0  0  0
  8  9  1  0  0  0
 10 11  1  0  0  0
 10 20  2  0  0  0
 11 12  2  0  0  0
 12 13  1  0  0  0
 13 14  2  0  0  0
 14 15  1  0  0  0
 14 20  1  0  0  0
 15 16  1  0  0  0
 15 21  1  0  0  0
 16 17  2  0  0  0
 17 22  1  0  0  0
 17 18  1  0  0  0
 22 23  1  0  0  0
 22 28  2  0  0  0
 23 24  2  0  0  0
 24 25  1  0  0  0
 25 26  1  0  0  0
 25 27  2  0  0  0
 27 28  1  0  0  0
 18 19  2  0  0  0
 18 20  1  0  0  0
  5  6  1  0  0  0
  6  7  1  0  0  0
 33 34  2  0  0  0
 34 35  1  0  0  0
 40 41  1  0  0  0
 40 42  1  0  0  0
 41 42  1  0  0  0
M  END
> <minimizedAffinity>
-9.66602

$$$$
