CHEMBL202162


 35 39  0  0  0  0  0  0  0  0999 V2000
  -29.8270   -3.3768   -5.7825 C   0  0  0  0  0  0  0  0  0  0  0  0
  -29.3247   -4.1760   -6.8788 C   0  0  0  0  0  0  0  0  0  0  0  0
  -29.5367   -5.5921   -6.8881 C   0  0  0  0  0  0  0  0  0  0  0  0
  -29.0302   -6.7968   -7.5010 C   0  0  0  0  0  0  0  0  0  0  0  0
  -29.7045   -7.8296   -6.8536 C   0  0  0  0  0  0  0  0  0  0  0  0
  -30.6603   -7.3519   -6.0564 O   0  0  0  0  0  0  0  0  0  0  0  0
  -30.5196   -6.0038   -6.0344 C   0  0  0  0  0  0  0  0  0  0  0  0
  -31.1753   -5.2220   -5.0655 C   0  0  0  0  0  0  0  0  0  0  0  0
  -32.1123   -5.8825   -4.2603 C   0  0  0  0  0  0  0  0  0  0  0  0
  -32.0530   -5.7012   -2.9031 C   0  0  0  0  0  0  0  0  0  0  0  0
  -31.4862   -4.5247   -2.4642 C   0  0  0  0  0  0  0  0  0  0  0  0
  -30.9290   -3.6104   -3.3897 C   0  0  0  0  0  0  0  0  0  0  0  0
  -30.6250   -3.9873   -4.7426 C   0  0  0  0  0  0  0  0  0  0  0  0
  -29.4878   -9.2454   -6.9407 C   0  0  0  0  0  0  0  0  0  0  0  0
  -30.0129  -10.0898   -6.2035 O   0  0  0  0  0  0  0  0  0  0  0  0
  -28.5442   -9.6656   -7.9996 C   0  0  0  0  0  0  0  0  0  0  0  0
  -28.3827  -11.0365   -8.2306 C   0  0  0  0  0  0  0  0  0  0  0  0
  -27.5784  -11.4434   -9.2864 C   0  0  0  0  0  0  0  0  0  0  0  0
  -26.9214  -10.4936  -10.0666 C   0  0  0  0  0  0  0  0  0  0  0  0
  -27.0467   -9.1231   -9.7899 C   0  0  0  0  0  0  0  0  0  0  0  0
  -27.8658   -8.6944   -8.7339 C   0  0  0  0  0  0  0  0  0  0  0  0
  -28.0249   -7.2121   -8.4706 C   0  0  0  0  0  0  0  0  0  0  0  0
  -27.3488   -6.4214   -9.1150 O   0  0  0  0  0  0  0  0  0  0  0  0
  -28.3997   -3.5696   -7.8568 C   0  0  0  0  0  0  0  0  0  0  0  0
  -27.2003   -3.5123   -7.7191 O   0  0  0  0  0  0  0  0  0  0  0  0
  -29.1037   -3.1201   -8.9438 O   0  0  0  0  0  0  0  0  0  0  0  0
  -28.3323   -2.2823   -9.8132 C   0  0  0  0  0  0  0  0  0  0  0  0
  -29.4085   -2.0667   -5.8108 O   0  0  0  0  0  0  0  0  0  0  0  0
  -29.4480   -1.2636   -4.6319 C   0  0  0  0  0  0  0  0  0  0  0  0
  -28.5000   -0.0661   -4.8084 C   0  0  0  0  0  0  0  0  0  0  0  0
  -29.0659    1.0701   -5.5683 N   0  0  0  0  0  0  0  0  0  0  0  0
  -27.5082   -0.0394   -7.2230 C   0  0  0  0  0  0  0  0  0  0  0  0
  -28.5381    1.0518   -6.9436 C   0  0  0  0  0  0  0  0  0  0  0  0
  -30.5308    1.1765   -5.4888 C   0  0  0  0  0  0  0  0  0  0  0  0
  -31.2171    1.8800   -6.6548 C   0  0  0  0  0  0  0  0  0  0  0  0
 32 33  1  0  0  0
 33 31  1  0  0  0
 31 34  1  0  0  0
 31 30  1  0  0  0
 34 35  1  0  0  0
 30 29  1  0  0  0
 29 28  1  0  0  0
 28  1  1  0  0  0
  1  2  1  0  0  0
  1 13  2  0  0  0
  2 24  1  0  0  0
  2  3  2  0  0  0
 24 25  2  0  0  0
 24 26  1  0  0  0
 26 27  1  0  0  0
  3  4  1  0  0  0
  3  7  1  0  0  0
  4  5  2  0  0  0
  4 22  1  0  0  0
  5  6  1  0  0  0
  5 14  1  0  0  0
  6  7  1  0  0  0
  7  8  2  0  0  0
  8  9  1  0  0  0
  8 13  1  0  0  0
  9 10  2  0  0  0
 10 11  1  0  0  0
 11 12  2  0  0  0
 12 13  1  0  0  0
 14 15  2  0  0  0
 14 16  1  0  0  0
 16 17  1  0  0  0
 16 21  2  0  0  0
 17 18  2  0  0  0
 18 19  1  0  0  0
 19 20  2  0  0  0
 20 21  1  0  0  0
 21 22  1  0  0  0
 22 23  2  0  0  0
M  END
> <minimizedAffinity>
-6.61576

$$$$
