CHEMBL353070


 35 39  0  0  0  0  0  0  0  0999 V2000
  -17.7982    0.8371  -15.1101 C   0  0  0  0  0  0  0  0  0  0  0  0
  -19.1265    0.4786  -14.8548 C   0  0  0  0  0  0  0  0  0  0  0  0
  -20.1500    1.4564  -14.7103 C   0  0  0  0  0  0  0  0  0  0  0  0
  -21.4808    1.1802  -14.3465 C   0  0  0  0  0  0  0  0  0  0  0  0
  -22.4012    2.1498  -14.2137 N   0  0  0  0  0  0  0  0  0  0  0  0
  -21.9938    3.3976  -14.4542 C   0  0  0  0  0  0  0  0  0  0  0  0
  -20.7513    3.7738  -14.7741 N   0  0  0  0  0  0  0  0  0  0  0  0
  -19.8366    2.8048  -14.8791 C   0  0  0  0  0  0  0  0  0  0  0  0
  -18.5235    3.1478  -15.1698 C   0  0  0  0  0  0  0  0  0  0  0  0
  -17.5052    2.1911  -15.3073 C   0  0  0  0  0  0  0  0  0  0  0  0
  -16.0183   -0.3439  -13.9986 C   0  0  0  0  0  0  0  0  0  0  0  0
  -16.7713   -0.0584  -15.1708 O   0  0  0  0  0  0  0  0  0  0  0  0
  -21.8689   -0.1528  -14.0906 N   0  0  0  0  0  0  0  0  0  0  0  0
  -21.4855   -0.7948  -14.7654 H   0  0  0  0  0  0  0  0  0  0  0  0
  -22.9387   -0.6322  -13.3206 C   0  0  0  0  0  0  0  0  0  0  0  0
  -22.7954   -0.9683  -11.9594 C   0  0  0  0  0  0  0  0  0  0  0  0
  -23.8220   -1.5613  -11.2245 C   0  0  0  0  0  0  0  0  0  0  0  0
  -25.0479   -1.8537  -11.8245 C   0  0  0  0  0  0  0  0  0  0  0  0
  -25.2499   -1.5083  -13.1754 C   0  0  0  0  0  0  0  0  0  0  0  0
  -26.3417   -1.6467  -14.0792 C   0  0  0  0  0  0  0  0  0  0  0  0
  -27.8417   -2.3615  -13.7232 Cl  0  0  0  0  0  0  0  0  0  0  0  0
  -25.9678   -1.1019  -15.2833 C   0  0  0  0  0  0  0  0  0  0  0  0
  -24.6840   -0.6512  -15.1521 N   0  0  0  0  0  0  0  0  0  0  0  0
  -24.2034   -0.9015  -13.8818 C   0  0  0  0  0  0  0  0  0  0  0  0
  -24.1652   -0.1772  -15.8763 H   0  0  0  0  0  0  0  0  0  0  0  0
  -16.2841    2.7426  -15.6048 O   0  0  0  0  0  0  0  0  0  0  0  0
  -16.2250    4.0814  -16.1108 C   0  0  0  0  0  0  0  0  0  0  0  0
  -14.8396    4.4867  -16.6268 C   0  0  0  0  0  0  0  0  0  0  0  0
  -13.8350    4.6122  -15.4757 C   0  0  0  0  0  0  0  0  0  0  0  0
  -12.5155    4.0227  -15.7679 N   0  0  0  0  0  0  0  0  0  0  0  0
  -12.6568    2.5790  -16.0886 C   0  0  0  0  0  0  0  0  0  0  0  0
  -12.9781    1.6950  -14.8673 C   0  0  0  0  0  0  0  0  0  0  0  0
  -12.0094    1.8642  -13.8243 O   0  0  0  0  0  0  0  0  0  0  0  0
  -11.9106    3.2405  -13.4386 C   0  0  0  0  0  0  0  0  0  0  0  0
  -11.5561    4.1267  -14.6436 C   0  0  0  0  0  0  0  0  0  0  0  0
 11 12  1  0  0  0
 12  1  1  0  0  0
  1  2  1  0  0  0
  1 10  2  0  0  0
  2  3  2  0  0  0
  3  4  1  0  0  0
  3  8  1  0  0  0
  4 13  1  0  0  0
  4  5  2  0  0  0
 13 15  1  0  0  0
 13 14  1  0  0  0
 15 16  1  0  0  0
 15 24  2  0  0  0
 16 17  2  0  0  0
 17 18  1  0  0  0
 18 19  2  0  0  0
 19 20  1  0  0  0
 19 24  1  0  0  0
 20 21  1  0  0  0
 20 22  2  0  0  0
 22 23  1  0  0  0
 23 24  1  0  0  0
 23 25  1  0  0  0
  5  6  1  0  0  0
  6  7  2  0  0  0
  7  8  1  0  0  0
  8  9  2  0  0  0
  9 10  1  0  0  0
 10 26  1  0  0  0
 26 27  1  0  0  0
 27 28  1  0  0  0
 28 29  1  0  0  0
 29 30  1  0  0  0
 30 31  1  0  0  0
 30 35  1  0  0  0
 31 32  1  0  0  0
 32 33  1  0  0  0
 33 34  1  0  0  0
 34 35  1  0  0  0
M  END
> <minimizedAffinity>
-8.64934

$$$$
