CHEMBL1092754


 37 41  0  0  0  0  0  0  0  0999 V2000
  -12.5591    2.0086  -17.1055 C   0  0  0  0  0  0  0  0  0  0  0  0
  -13.9315    1.7699  -16.7281 N   0  0  0  0  0  0  0  0  0  0  0  0
  -14.4344    0.5703  -16.3135 C   0  0  0  0  0  0  0  0  0  0  0  0
  -15.6536    0.8290  -15.7119 C   0  0  0  0  0  0  0  0  0  0  0  0
  -16.0270    2.1739  -16.0199 C   0  0  0  0  0  0  0  0  0  0  0  0
  -17.1543    3.0183  -15.8341 C   0  0  0  0  0  0  0  0  0  0  0  0
  -16.9922    4.3612  -16.2250 C   0  0  0  0  0  0  0  0  0  0  0  0
  -15.7866    4.7952  -16.7565 C   0  0  0  0  0  0  0  0  0  0  0  0
  -14.7048    4.0256  -16.9682 N   0  0  0  0  0  0  0  0  0  0  0  0
  -14.8883    2.7425  -16.6045 C   0  0  0  0  0  0  0  0  0  0  0  0
  -16.2178   -0.1326  -14.7970 C   0  0  0  0  0  0  0  0  0  0  0  0
  -15.7019   -0.2092  -13.5424 C   0  0  0  0  0  0  0  0  0  0  0  0
  -15.0958    0.9100  -12.9450 O   0  0  0  0  0  0  0  0  0  0  0  0
  -13.7386    0.6726  -13.0129 C   0  0  0  0  0  0  0  0  0  0  0  0
  -12.8000    1.6842  -13.0218 C   0  0  0  0  0  0  0  0  0  0  0  0
  -11.5270    1.3696  -13.4973 C   0  0  0  0  0  0  0  0  0  0  0  0
  -11.2266    0.0678  -13.9481 C   0  0  0  0  0  0  0  0  0  0  0  0
  -12.1916   -0.9443  -13.9008 C   0  0  0  0  0  0  0  0  0  0  0  0
  -11.9592   -2.1532  -14.4786 O   0  0  0  0  0  0  0  0  0  0  0  0
  -13.4352   -0.6363  -13.3895 C   0  0  0  0  0  0  0  0  0  0  0  0
  -14.7169   -1.3499  -13.5300 C   0  0  0  0  0  0  0  0  0  0  0  0
  -14.9407   -2.5250  -13.7130 O   0  0  0  0  0  0  0  0  0  0  0  0
  -11.1433   -2.1160  -15.0039 H   0  0  0  0  0  0  0  0  0  0  0  0
  -18.4385    2.4976  -15.3246 C   0  0  0  0  0  0  0  0  0  0  0  0
  -18.8261    1.1595  -15.5179 C   0  0  0  0  0  0  0  0  0  0  0  0
  -20.0484    0.6774  -15.0286 C   0  0  0  0  0  0  0  0  0  0  0  0
  -20.9282    1.5386  -14.3704 C   0  0  0  0  0  0  0  0  0  0  0  0
  -20.5539    2.8608  -14.1397 C   0  0  0  0  0  0  0  0  0  0  0  0
  -19.3103    3.3147  -14.5815 C   0  0  0  0  0  0  0  0  0  0  0  0
  -22.2381    1.0244  -13.8915 C   0  0  0  0  0  0  0  0  0  0  0  0
  -23.1508    1.8032  -13.6569 O   0  0  0  0  0  0  0  0  0  0  0  0
  -22.3297   -0.3384  -13.7435 N   0  0  0  0  0  0  0  0  0  0  0  0
  -21.4986   -0.9107  -13.8113 H   0  0  0  0  0  0  0  0  0  0  0  0
  -23.5591   -0.9765  -13.2992 C   0  0  0  0  0  0  0  0  0  0  0  0
  -23.3210   -1.8818  -12.0915 C   0  0  0  0  0  0  0  0  0  0  0  0
  -24.4957   -1.9359  -11.2810 O   0  0  0  0  0  0  0  0  0  0  0  0
  -24.6238   -1.0336  -10.9407 H   0  0  0  0  0  0  0  0  0  0  0  0
  1  2  1  0  0  0
  2  3  1  0  0  0
  2 10  1  0  0  0
  3  4  2  0  0  0
  4 11  1  0  0  0
  4  5  1  0  0  0
 11 12  2  0  0  0
 12 13  1  0  0  0
 12 21  1  0  0  0
 13 14  1  0  0  0
 14 15  1  0  0  0
 14 20  2  0  0  0
 15 16  2  0  0  0
 16 17  1  0  0  0
 17 18  2  0  0  0
 18 19  1  0  0  0
 18 20  1  0  0  0
 19 23  1  0  0  0
 20 21  1  0  0  0
 21 22  2  0  0  0
  5  6  1  0  0  0
  5 10  2  0  0  0
  6 24  1  0  0  0
  6  7  2  0  0  0
 24 25  1  0  0  0
 24 29  2  0  0  0
 25 26  2  0  0  0
 26 27  1  0  0  0
 27 30  1  0  0  0
 27 28  2  0  0  0
 30 31  2  0  0  0
 30 32  1  0  0  0
 32 34  1  0  0  0
 32 33  1  0  0  0
 34 35  1  0  0  0
 35 36  1  0  0  0
 36 37  1  0  0  0
 28 29  1  0  0  0
  7  8  1  0  0  0
  8  9  2  0  0  0
  9 10  1  0  0  0
M  END
> <minimizedAffinity>
-9.35672

$$$$
