CHEMBL3921243


 34 38  0  0  0  0  0  0  0  0999 V2000
  -29.3412   -9.9092   -5.3051 N   0  0  0  0  0  0  0  0  0  0  0  0
  -28.9316   -8.5421   -5.0206 C   0  0  0  0  0  0  0  0  0  0  0  0
  -29.0709   -8.1873   -3.7164 C   0  0  0  0  0  0  0  0  0  0  0  0
  -29.3950   -6.8852   -3.4472 C   0  0  0  0  0  0  0  0  0  0  0  0
  -29.3995   -5.9039   -4.3783 C   0  0  0  0  0  0  0  0  0  0  0  0
  -30.1109   -4.9720   -3.8197 N   0  0  0  0  0  0  0  0  0  0  0  0
  -29.9084   -3.7308   -4.1863 C   0  0  0  0  0  0  0  0  0  0  0  0
  -29.0474   -3.3373   -5.1469 C   0  0  0  0  0  0  0  0  0  0  0  0
  -28.5175   -4.3828   -5.9785 N   0  0  0  0  0  0  0  0  0  0  0  0
  -28.7527   -5.8845   -5.5905 C   0  0  0  0  0  0  0  0  0  0  0  0
  -28.6339   -7.4241   -5.9556 C   0  0  0  0  0  0  0  0  0  0  0  0
  -28.7994   -1.8298   -5.0082 C   0  0  0  0  0  0  0  0  0  0  0  0
  -27.7530   -0.9443   -4.5977 C   0  0  0  0  0  0  0  0  0  0  0  0
  -27.9031    0.3423   -4.9926 N   0  0  0  0  0  0  0  0  0  0  0  0
  -29.0402    0.3283   -5.6985 N   0  0  0  0  0  0  0  0  0  0  0  0
  -29.5356    1.4877   -6.4410 C   0  0  0  0  0  0  0  0  0  0  0  0
  -29.6264   -0.9077   -5.6871 C   0  0  0  0  0  0  0  0  0  0  0  0
  -29.5014  -11.2525   -8.8321 C   0  0  0  0  0  0  0  0  0  0  0  0
  -30.8031  -11.7588   -8.8605 C   0  0  0  0  0  0  0  0  0  0  0  0
  -31.6073  -11.6647   -7.7328 C   0  0  0  0  0  0  0  0  0  0  0  0
  -31.1059  -11.0395   -6.5851 C   0  0  0  0  0  0  0  0  0  0  0  0
  -29.8051  -10.4950   -6.5151 C   0  0  0  0  0  0  0  0  0  0  0  0
  -29.0155  -10.6121   -7.6698 C   0  0  0  0  0  0  0  0  0  0  0  0
  -28.8888  -10.5416  -11.0307 C   0  0  0  0  0  0  0  0  0  0  0  0
  -28.6187  -11.3471   -9.8815 O   0  0  0  0  0  0  0  0  0  0  0  0
  -32.8843  -12.1480   -7.6205 O   0  0  0  0  0  0  0  0  0  0  0  0
  -33.5667  -11.8885   -6.3973 C   0  0  0  0  0  0  0  0  0  0  0  0
  -28.7642  -10.9568   -4.2835 C   0  0  0  0  0  0  0  0  0  0  0  0
  -27.4290  -11.6979   -4.6307 C   0  0  0  0  0  0  0  0  0  0  0  0
  -26.2241  -10.8490   -4.5627 N   0  0  0  0  0  0  0  0  0  0  0  0
  -25.2713  -10.6890   -5.5381 C   0  0  0  0  0  0  0  0  0  0  0  0
  -24.3857   -9.7361   -5.0818 C   0  0  0  0  0  0  0  0  0  0  0  0
  -24.9006   -9.3616   -3.8271 C   0  0  0  0  0  0  0  0  0  0  0  0
  -26.0155  -10.0258   -3.5111 N   0  0  0  0  0  0  0  0  0  0  0  0
 24 25  1  0  0  0
 25 18  1  0  0  0
 18 19  1  0  0  0
 18 23  2  0  0  0
 19 20  2  0  0  0
 20 26  1  0  0  0
 20 21  1  0  0  0
 26 27  1  0  0  0
 21 22  2  0  0  0
 22  1  1  0  0  0
 22 23  1  0  0  0
  1 28  1  0  0  0
  1  2  1  0  0  0
 28 29  1  0  0  0
 29 30  1  0  0  0
 30 31  1  0  0  0
 30 34  1  0  0  0
 31 32  2  0  0  0
 32 33  1  0  0  0
 33 34  2  0  0  0
  2  3  1  0  0  0
  2 11  2  0  0  0
  3  4  2  0  0  0
  4  5  1  0  0  0
  5  6  1  0  0  0
  5 10  2  0  0  0
  6  7  2  0  0  0
  7  8  1  0  0  0
  8 12  1  0  0  0
  8  9  2  0  0  0
 12 13  1  0  0  0
 12 17  2  0  0  0
 13 14  2  0  0  0
 14 15  1  0  0  0
 15 16  1  0  0  0
 15 17  1  0  0  0
  9 10  1  0  0  0
 10 11  1  0  0  0
M  END
> <minimizedAffinity>
-7.51108

$$$$
