CHEMBL2016914


 33 37  0  0  0  0  0  0  0  0999 V2000
  -14.8018    4.1901  -17.2545 C   0  0  0  0  0  0  0  0  0  0  0  0
  -15.2049    5.2951  -17.6343 O   0  0  0  0  0  0  0  0  0  0  0  0
  -15.6720    3.2685  -16.6662 N   0  0  0  0  0  0  0  0  0  0  0  0
  -15.2388    1.8927  -16.3382 C   0  0  0  0  0  0  0  0  0  0  0  0
  -16.1990    0.8863  -15.6925 C   0  0  0  0  0  0  0  0  0  0  0  0
  -17.5027    1.4780  -15.4075 C   0  0  0  0  0  0  0  0  0  0  0  0
  -18.5163    0.8290  -14.7728 N   0  0  0  0  0  0  0  0  0  0  0  0
  -19.5142    1.6970  -14.7195 C   0  0  0  0  0  0  0  0  0  0  0  0
  -19.1475    2.8866  -15.3203 N   0  0  0  0  0  0  0  0  0  0  0  0
  -17.8534    2.7536  -15.7379 C   0  0  0  0  0  0  0  0  0  0  0  0
  -17.0259    3.7730  -16.3902 C   0  0  0  0  0  0  0  0  0  0  0  0
  -19.7540    3.6953  -15.4195 H   0  0  0  0  0  0  0  0  0  0  0  0
  -20.8144    1.5383  -14.1718 C   0  0  0  0  0  0  0  0  0  0  0  0
  -21.1283    0.3468  -13.6327 C   0  0  0  0  0  0  0  0  0  0  0  0
  -22.4669    0.0774  -13.1247 C   0  0  0  0  0  0  0  0  0  0  0  0
  -22.8013   -1.1650  -12.5858 C   0  0  0  0  0  0  0  0  0  0  0  0
  -24.1054   -1.3954  -12.1622 C   0  0  0  0  0  0  0  0  0  0  0  0
  -24.4319   -2.5903  -11.6525 F   0  0  0  0  0  0  0  0  0  0  0  0
  -25.0813   -0.4073  -12.2677 C   0  0  0  0  0  0  0  0  0  0  0  0
  -24.7506    0.8431  -12.7913 C   0  0  0  0  0  0  0  0  0  0  0  0
  -23.4439    1.0799  -13.2168 C   0  0  0  0  0  0  0  0  0  0  0  0
  -23.0962    2.3284  -13.7452 N   0  0  0  0  0  0  0  0  0  0  0  0
  -21.8402    2.6331  -14.2107 C   0  0  0  0  0  0  0  0  0  0  0  0
  -21.5811    3.7556  -14.6384 O   0  0  0  0  0  0  0  0  0  0  0  0
  -23.7791    3.0699  -13.7969 H   0  0  0  0  0  0  0  0  0  0  0  0
  -13.3168    3.7988  -17.4260 C   0  0  0  0  0  0  0  0  0  0  0  0
  -10.8174    1.7089  -13.9391 C   0  0  0  0  0  0  0  0  0  0  0  0
  -11.0803    2.9814  -14.6009 N   0  0  0  0  0  0  0  0  0  0  0  0
  -10.6968    2.9330  -16.0241 C   0  0  0  0  0  0  0  0  0  0  0  0
  -11.0056    4.2736  -16.7329 C   0  0  0  0  0  0  0  0  0  0  0  0
  -12.4268    4.6950  -16.6508 N   0  0  0  0  0  0  0  0  0  0  0  0
  -12.8046    4.6962  -15.2175 C   0  0  0  0  0  0  0  0  0  0  0  0
  -12.4912    3.3808  -14.4609 C   0  0  0  0  0  0  0  0  0  0  0  0
 27 28  1  0  0  0
 28 29  1  0  0  0
 28 33  1  0  0  0
 29 30  1  0  0  0
 30 31  1  0  0  0
 31 26  1  0  0  0
 31 32  1  0  0  0
 26  1  1  0  0  0
  1  2  2  0  0  0
  1  3  1  0  0  0
  3  4  1  0  0  0
  3 11  1  0  0  0
  4  5  1  0  0  0
  5  6  1  0  0  0
  6  7  1  0  0  0
  6 10  2  0  0  0
  7  8  2  0  0  0
  8 13  1  0  0  0
  8  9  1  0  0  0
 13 14  2  0  0  0
 13 23  1  0  0  0
 14 15  1  0  0  0
 15 16  1  0  0  0
 15 21  2  0  0  0
 16 17  2  0  0  0
 17 18  1  0  0  0
 17 19  1  0  0  0
 19 20  2  0  0  0
 20 21  1  0  0  0
 21 22  1  0  0  0
 22 23  1  0  0  0
 22 25  1  0  0  0
 23 24  2  0  0  0
  9 10  1  0  0  0
  9 12  1  0  0  0
 10 11  1  0  0  0
 32 33  1  0  0  0
M  END
> <minimizedAffinity>
-8.74578

$$$$
