CHEMBL3353344


 33 38  0  0  0  0  0  0  0  0999 V2000
  -28.1434   -8.3575   -4.4313 C   0  0  0  0  0  0  0  0  0  0  0  0
  -29.2935   -8.8435   -4.9236 N   0  0  0  0  0  0  0  0  0  0  0  0
  -30.0502   -7.7572   -5.1367 N   0  0  0  0  0  0  0  0  0  0  0  0
  -29.4521   -6.5736   -4.8062 C   0  0  0  0  0  0  0  0  0  0  0  0
  -29.9030   -5.2410   -4.8925 C   0  0  0  0  0  0  0  0  0  0  0  0
  -29.0445   -4.2097   -4.4815 C   0  0  0  0  0  0  0  0  0  0  0  0
  -27.7635   -4.5706   -4.0127 C   0  0  0  0  0  0  0  0  0  0  0  0
  -27.3226   -5.9027   -3.9336 C   0  0  0  0  0  0  0  0  0  0  0  0
  -28.1907   -6.9291   -4.3399 C   0  0  0  0  0  0  0  0  0  0  0  0
  -30.9812   -7.8931   -5.5143 H   0  0  0  0  0  0  0  0  0  0  0  0
  -29.3622   -2.7383   -4.6552 C   0  0  0  0  0  0  0  0  0  0  0  0
  -30.5999   -2.3625   -5.4532 C   0  0  0  0  0  0  0  0  0  0  0  0
  -29.2550   -1.8710   -5.8926 C   0  0  0  0  0  0  0  0  0  0  0  0
  -28.8225   -0.4309   -5.6739 C   0  0  0  0  0  0  0  0  0  0  0  0
  -29.1882    0.2835   -4.7555 O   0  0  0  0  0  0  0  0  0  0  0  0
  -27.9414   -0.1101   -6.6865 N   0  0  0  0  0  0  0  0  0  0  0  0
  -27.8162   -1.1533   -7.6042 C   0  0  0  0  0  0  0  0  0  0  0  0
  -27.0554   -1.1419   -8.7550 C   0  0  0  0  0  0  0  0  0  0  0  0
  -27.1285   -2.2662   -9.5725 C   0  0  0  0  0  0  0  0  0  0  0  0
  -27.9849   -3.3328   -9.2427 C   0  0  0  0  0  0  0  0  0  0  0  0
  -28.7502   -3.3140   -8.0659 C   0  0  0  0  0  0  0  0  0  0  0  0
  -28.6294   -2.2330   -7.2078 C   0  0  0  0  0  0  0  0  0  0  0  0
  -27.5089    0.7971   -6.7647 H   0  0  0  0  0  0  0  0  0  0  0  0
  -25.8246   -9.1623   -4.6225 C   0  0  0  0  0  0  0  0  0  0  0  0
  -27.0352   -9.1877   -4.0326 C   0  0  0  0  0  0  0  0  0  0  0  0
  -21.1891  -12.3336   -3.3707 C   0  0  0  0  0  0  0  0  0  0  0  0
  -22.4290  -11.5447   -3.6645 C   0  0  0  0  0  0  0  0  0  0  0  0
  -23.3949  -11.3352   -2.6968 C   0  0  0  0  0  0  0  0  0  0  0  0
  -24.5120  -10.5615   -3.0138 C   0  0  0  0  0  0  0  0  0  0  0  0
  -24.6686  -10.0271   -4.3017 C   0  0  0  0  0  0  0  0  0  0  0  0
  -23.6463  -10.2975   -5.2248 C   0  0  0  0  0  0  0  0  0  0  0  0
  -23.6455   -9.8171   -6.6479 C   0  0  0  0  0  0  0  0  0  0  0  0
  -22.5454  -11.0426   -4.9141 N   0  0  0  0  0  0  0  0  0  0  0  0
 26 27  1  0  0  0
 27 28  1  0  0  0
 27 33  2  0  0  0
 28 29  2  0  0  0
 29 30  1  0  0  0
 30 24  1  0  0  0
 30 31  2  0  0  0
 24 25  2  0  0  0
 25  1  1  0  0  0
  1  2  2  0  0  0
  1  9  1  0  0  0
  2  3  1  0  0  0
  3  4  1  0  0  0
  3 10  1  0  0  0
  4  5  1  0  0  0
  4  9  2  0  0  0
  5  6  2  0  0  0
  6  7  1  0  0  0
 11 12  1  0  0  0
 11 13  1  0  0  0
 11  6  1  0  0  0
 12 13  1  0  0  0
 13 14  1  0  0  0
 13 22  1  0  0  0
 14 15  2  0  0  0
 14 16  1  0  0  0
 16 17  1  0  0  0
 16 23  1  0  0  0
 17 18  1  0  0  0
 17 22  2  0  0  0
 18 19  2  0  0  0
 19 20  1  0  0  0
 20 21  2  0  0  0
 21 22  1  0  0  0
  7  8  2  0  0  0
  8  9  1  0  0  0
 31 32  1  0  0  0
 31 33  1  0  0  0
M  END
> <minimizedAffinity>
-8.61787

$$$$
