CHEMBL1241491


 26 30  0  0  0  0  0  0  0  0999 V2000
  -29.1900   -6.8104   -3.0115 N   0  0  0  0  0  0  0  0  0  0  0  0
  -28.9679   -7.8742   -3.8769 C   0  0  0  0  0  0  0  0  0  0  0  0
  -28.6987   -9.0607   -3.2983 N   0  0  0  0  0  0  0  0  0  0  0  0
  -28.4721  -10.1179   -4.0886 C   0  0  0  0  0  0  0  0  0  0  0  0
  -28.4524  -10.1663   -5.4325 N   0  0  0  0  0  0  0  0  0  0  0  0
  -28.6892   -8.9555   -5.9704 C   0  0  0  0  0  0  0  0  0  0  0  0
  -28.9378   -7.7791   -5.2741 C   0  0  0  0  0  0  0  0  0  0  0  0
  -29.0814   -6.7814   -6.2882 C   0  0  0  0  0  0  0  0  0  0  0  0
  -29.0028   -7.3251   -7.5215 N   0  0  0  0  0  0  0  0  0  0  0  0
  -28.7367   -8.6341   -7.3020 N   0  0  0  0  0  0  0  0  0  0  0  0
  -29.2130   -7.0503   -2.0231 H   0  0  0  0  0  0  0  0  0  0  0  0
  -29.7094   -6.0124   -3.3174 H   0  0  0  0  0  0  0  0  0  0  0  0
  -29.2784   -5.3335   -6.1181 C   0  0  0  0  0  0  0  0  0  0  0  0
  -30.2970   -4.8379   -5.2832 C   0  0  0  0  0  0  0  0  0  0  0  0
  -30.5716   -3.4774   -5.1335 C   0  0  0  0  0  0  0  0  0  0  0  0
  -29.6811   -2.6184   -5.7626 C   0  0  0  0  0  0  0  0  0  0  0  0
  -29.7081   -1.2639   -5.6714 O   0  0  0  0  0  0  0  0  0  0  0  0
  -28.6439   -0.8082   -6.3861 C   0  0  0  0  0  0  0  0  0  0  0  0
  -27.9466   -1.8581   -6.9320 C   0  0  0  0  0  0  0  0  0  0  0  0
  -28.6151   -3.0422   -6.5444 C   0  0  0  0  0  0  0  0  0  0  0  0
  -28.4207   -4.4215   -6.7545 C   0  0  0  0  0  0  0  0  0  0  0  0
  -28.5214   -9.5389   -8.4234 C   0  0  0  0  0  0  0  0  0  0  0  0
  -27.3234   -9.1763   -9.3090 C   0  0  0  0  0  0  0  0  0  0  0  0
  -27.5918   -9.8411  -10.6578 C   0  0  0  0  0  0  0  0  0  0  0  0
  -29.0712  -10.2155  -10.6782 C   0  0  0  0  0  0  0  0  0  0  0  0
  -29.6809   -9.5993   -9.4211 C   0  0  0  0  0  0  0  0  0  0  0  0
  1  2  1  0  0  0
  1 11  1  0  0  0
  1 12  1  0  0  0
  2  3  1  0  0  0
  2  7  2  0  0  0
  3  4  2  0  0  0
  4  5  1  0  0  0
  5  6  2  0  0  0
  6  7  1  0  0  0
  6 10  1  0  0  0
  7  8  1  0  0  0
  8 13  1  0  0  0
  8  9  2  0  0  0
 13 14  1  0  0  0
 13 21  2  0  0  0
 14 15  2  0  0  0
 15 16  1  0  0  0
 16 17  1  0  0  0
 16 20  2  0  0  0
 17 18  1  0  0  0
 18 19  2  0  0  0
 19 20  1  0  0  0
 20 21  1  0  0  0
  9 10  1  0  0  0
 10 22  1  0  0  0
 22 23  1  0  0  0
 22 26  1  0  0  0
 23 24  1  0  0  0
 24 25  1  0  0  0
 25 26  1  0  0  0
M  END
> <minimizedAffinity>
-8.38416

$$$$
