CHEMBL3596892


 33 36  0  0  0  0  0  0  0  0999 V2000
  -22.5464    0.7003  -13.5552 C   0  0  0  0  0  0  0  0  0  0  0  0
  -23.6256    1.2260  -12.8307 C   0  0  0  0  0  0  0  0  0  0  0  0
  -24.5930    0.4026  -12.2549 C   0  0  0  0  0  0  0  0  0  0  0  0
  -24.5557   -0.9801  -12.4185 C   0  0  0  0  0  0  0  0  0  0  0  0
  -23.4907   -1.5331  -13.1343 C   0  0  0  0  0  0  0  0  0  0  0  0
  -22.5066   -0.6991  -13.7034 C   0  0  0  0  0  0  0  0  0  0  0  0
  -19.2807    1.9410  -14.6711 C   0  0  0  0  0  0  0  0  0  0  0  0
  -19.6020    3.2192  -15.1199 C   0  0  0  0  0  0  0  0  0  0  0  0
  -20.8538    3.7226  -15.0741 N   0  0  0  0  0  0  0  0  0  0  0  0
  -21.7815    2.8826  -14.5582 C   0  0  0  0  0  0  0  0  0  0  0  0
  -21.5008    1.5881  -14.1066 C   0  0  0  0  0  0  0  0  0  0  0  0
  -20.2276    1.1086  -14.1531 N   0  0  0  0  0  0  0  0  0  0  0  0
  -14.8362    0.1617  -13.3576 C   0  0  0  0  0  0  0  0  0  0  0  0
  -15.9576    0.6610  -14.1143 N   0  0  0  0  0  0  0  0  0  0  0  0
  -17.1997    0.9710  -13.6440 C   0  0  0  0  0  0  0  0  0  0  0  0
  -17.9134    1.4594  -14.7202 C   0  0  0  0  0  0  0  0  0  0  0  0
  -16.9990    1.3748  -15.7966 C   0  0  0  0  0  0  0  0  0  0  0  0
  -15.8099    0.8916  -15.4306 N   0  0  0  0  0  0  0  0  0  0  0  0
  -25.5540   -1.8311  -11.8767 N   0  0  0  0  0  0  0  0  0  0  0  0
  -26.0455   -1.7006  -10.5828 C   0  0  0  0  0  0  0  0  0  0  0  0
  -25.7542   -0.7712   -9.8389 O   0  0  0  0  0  0  0  0  0  0  0  0
  -26.8937   -2.7332  -10.2281 N   0  0  0  0  0  0  0  0  0  0  0  0
  -26.1160   -2.3550  -12.5308 H   0  0  0  0  0  0  0  0  0  0  0  0
  -26.9099   -3.5813  -10.7705 H   0  0  0  0  0  0  0  0  0  0  0  0
  -27.5063   -2.7239   -8.9911 C   0  0  0  0  0  0  0  0  0  0  0  0
  -27.6659   -1.7326   -8.0550 C   0  0  0  0  0  0  0  0  0  0  0  0
  -28.3854   -2.3521   -6.9915 C   0  0  0  0  0  0  0  0  0  0  0  0
  -28.6282   -3.6360   -7.2742 N   0  0  0  0  0  0  0  0  0  0  0  0
  -28.0760   -3.8635   -8.5118 O   0  0  0  0  0  0  0  0  0  0  0  0
  -28.8498   -1.7498   -5.6817 C   0  0  0  0  0  0  0  0  0  0  0  0
  -27.6426   -1.5226   -4.7516 C   0  0  0  0  0  0  0  0  0  0  0  0
  -29.5581   -0.3889   -5.8802 C   0  0  0  0  0  0  0  0  0  0  0  0
  -29.8475   -2.7046   -4.9994 C   0  0  0  0  0  0  0  0  0  0  0  0
 13 14  1  0  0  0
 14 15  1  0  0  0
 14 18  1  0  0  0
 15 16  2  0  0  0
 16  7  1  0  0  0
 16 17  1  0  0  0
  7  8  1  0  0  0
  7 12  2  0  0  0
  8  9  2  0  0  0
  9 10  1  0  0  0
 10 11  2  0  0  0
 11  1  1  0  0  0
 11 12  1  0  0  0
  1  2  1  0  0  0
  1  6  2  0  0  0
  2  3  2  0  0  0
  3  4  1  0  0  0
  4 19  1  0  0  0
  4  5  2  0  0  0
 19 20  1  0  0  0
 19 23  1  0  0  0
 20 21  2  0  0  0
 20 22  1  0  0  0
 22 25  1  0  0  0
 22 24  1  0  0  0
 25 26  2  0  0  0
 25 29  1  0  0  0
 26 27  1  0  0  0
 27 30  1  0  0  0
 27 28  2  0  0  0
 30 31  1  0  0  0
 30 32  1  0  0  0
 30 33  1  0  0  0
 28 29  1  0  0  0
  5  6  1  0  0  0
 17 18  2  0  0  0
M  END
> <minimizedAffinity>
-10.59054

$$$$
