CHEMBL3975634


 36 43  0  0  0  0  0  0  0  0999 V2000
  -12.7393    0.9492  -13.3071 C   0  0  0  0  0  0  0  0  0  0  0  0
  -11.4026    0.0171  -13.2749 C   0  0  0  0  0  0  0  0  0  0  0  0
  -11.4648   -1.5048  -13.7500 C   0  0  0  0  0  0  0  0  0  0  0  0
  -12.6199   -1.6614  -12.9139 O   0  0  0  0  0  0  0  0  0  0  0  0
  -13.7271   -1.2492  -13.7235 C   0  0  0  0  0  0  0  0  0  0  0  0
  -14.1009    0.1974  -13.5712 C   0  0  0  0  0  0  0  0  0  0  0  0
  -14.4449   -2.4497  -13.8289 N   0  0  0  0  0  0  0  0  0  0  0  0
  -14.8819   -3.2849  -12.8259 C   0  0  0  0  0  0  0  0  0  0  0  0
  -14.6306   -3.3031  -11.4528 C   0  0  0  0  0  0  0  0  0  0  0  0
  -15.6228   -3.8927  -10.7193 C   0  0  0  0  0  0  0  0  0  0  0  0
  -16.6965   -4.5007  -11.3765 C   0  0  0  0  0  0  0  0  0  0  0  0
  -16.6178   -4.8501  -12.7457 C   0  0  0  0  0  0  0  0  0  0  0  0
  -15.5122   -4.3851  -13.4734 C   0  0  0  0  0  0  0  0  0  0  0  0
  -14.6854   -4.6577  -14.6612 C   0  0  0  0  0  0  0  0  0  0  0  0
  -14.1318   -5.9698  -14.8718 C   0  0  0  0  0  0  0  0  0  0  0  0
  -12.7073   -5.9740  -14.7654 C   0  0  0  0  0  0  0  0  0  0  0  0
  -12.0224   -4.7475  -14.9602 C   0  0  0  0  0  0  0  0  0  0  0  0
  -11.4679   -4.2934  -16.2211 C   0  0  0  0  0  0  0  0  0  0  0  0
  -11.2972   -4.9467  -17.4660 C   0  0  0  0  0  0  0  0  0  0  0  0
  -11.1136   -4.1983  -18.6294 C   0  0  0  0  0  0  0  0  0  0  0  0
  -11.0041   -2.8117  -18.5677 C   0  0  0  0  0  0  0  0  0  0  0  0
  -11.0382   -2.1068  -17.3449 C   0  0  0  0  0  0  0  0  0  0  0  0
  -11.2900   -2.8120  -16.1476 C   0  0  0  0  0  0  0  0  0  0  0  0
  -11.7991   -2.3506  -14.9167 N   0  0  0  0  0  0  0  0  0  0  0  0
  -12.5344   -3.4996  -14.6791 C   0  0  0  0  0  0  0  0  0  0  0  0
  -13.9493   -3.4421  -14.5855 C   0  0  0  0  0  0  0  0  0  0  0  0
  -12.5738   -6.8891  -13.6668 C   0  0  0  0  0  0  0  0  0  0  0  0
  -11.5732   -6.7249  -12.7944 O   0  0  0  0  0  0  0  0  0  0  0  0
  -13.5643   -7.6825  -13.3808 N   0  0  0  0  0  0  0  0  0  0  0  0
  -14.6209   -7.2824  -14.3750 C   0  0  0  0  0  0  0  0  0  0  0  0
  -11.8548   -7.1558  -11.9676 H   0  0  0  0  0  0  0  0  0  0  0  0
  -12.1964    3.0665  -12.1264 C   0  0  0  0  0  0  0  0  0  0  0  0
  -12.9464    1.8302  -12.1403 N   0  0  0  0  0  0  0  0  0  0  0  0
  -13.9520    2.0281  -12.0786 H   0  0  0  0  0  0  0  0  0  0  0  0
  -15.2718    0.6134  -12.8715 O   0  0  0  0  0  0  0  0  0  0  0  0
  -16.4974    0.6591  -13.5671 C   0  0  0  0  0  0  0  0  0  0  0  0
 32 33  1  0  0  0
 33 34  1  0  0  0
  1  2  1  0  0  0
  1  6  1  0  0  0
  1 33  1  0  0  0
  2  3  1  0  0  0
  3  4  1  0  0  0
  3 24  1  0  0  0
  4  5  1  0  0  0
  5  6  1  0  0  0
  5  7  1  0  0  0
  6 35  1  0  0  0
 35 36  1  0  0  0
  7  8  1  0  0  0
  7 26  1  0  0  0
  8  9  1  0  0  0
  8 13  2  0  0  0
  9 10  2  0  0  0
 10 11  1  0  0  0
 11 12  2  0  0  0
 12 13  1  0  0  0
 13 14  1  0  0  0
 14 15  1  0  0  0
 14 26  2  0  0  0
 15 16  2  0  0  0
 15 30  1  0  0  0
 16 17  1  0  0  0
 16 27  1  0  0  0
 17 18  1  0  0  0
 17 25  2  0  0  0
 18 19  1  0  0  0
 18 23  2  0  0  0
 19 20  2  0  0  0
 20 21  1  0  0  0
 21 22  2  0  0  0
 22 23  1  0  0  0
 23 24  1  0  0  0
 24 25  1  0  0  0
 25 26  1  0  0  0
 27 28  1  0  0  0
 27 29  2  0  0  0
 28 31  1  0  0  0
 29 30  1  0  0  0
M  END
> <minimizedAffinity>
-8.02909

$$$$
