CHEMBL3648098


 35 36  0  0  0  0  0  0  0  0999 V2000
  -15.4635   -1.7243  -12.6839 C   0  0  0  0  0  0  0  0  0  0  0  0
  -15.7061   -2.4998  -11.5307 C   0  0  0  0  0  0  0  0  0  0  0  0
  -15.4895   -3.8828  -11.4746 C   0  0  0  0  0  0  0  0  0  0  0  0
  -15.0125   -4.5228  -12.6090 C   0  0  0  0  0  0  0  0  0  0  0  0
  -14.8004   -3.7879  -13.7826 C   0  0  0  0  0  0  0  0  0  0  0  0
  -15.0215   -2.4061  -13.8183 C   0  0  0  0  0  0  0  0  0  0  0  0
  -14.6581   -6.2419  -12.5974 S   0  0  0  0  0  0  0  0  0  0  0  0
  -13.9556   -6.6882  -11.0381 C   0  0  0  0  0  0  0  0  0  0  0  0
  -15.8854   -6.9739  -12.8533 O   0  0  0  0  0  0  0  0  0  0  0  0
  -13.4921   -6.5685  -13.7380 N   0  0  0  0  0  0  0  0  0  0  0  0
  -12.8804   -8.1409  -13.9538 S   0  0  0  0  0  0  0  0  0  0  0  0
  -11.4767   -8.1320  -13.6403 O   0  0  0  0  0  0  0  0  0  0  0  0
  -13.7634   -9.0940  -13.2976 O   0  0  0  0  0  0  0  0  0  0  0  0
  -13.0424   -8.3633  -15.7322 C   0  0  0  0  0  0  0  0  0  0  0  0
  -13.7419   -7.1660  -16.3770 C   0  0  0  0  0  0  0  0  0  0  0  0
  -12.6339   -6.0439  -17.4320 Si  0  0  0  0  0  0  0  0  0  0  0  0
  -13.6935   -4.6845  -18.1774 C   0  0  0  0  0  0  0  0  0  0  0  0
  -11.3024   -5.2945  -16.3477 C   0  0  0  0  0  0  0  0  0  0  0  0
  -11.8369   -7.0337  -18.8089 C   0  0  0  0  0  0  0  0  0  0  0  0
  -15.5069   -0.3164  -12.6627 N   0  0  0  0  0  0  0  0  0  0  0  0
  -15.5833    0.1668  -11.7768 H   0  0  0  0  0  0  0  0  0  0  0  0
  -17.1806    1.7323  -15.1117 C   0  0  0  0  0  0  0  0  0  0  0  0
  -16.9902    0.7430  -14.2085 N   0  0  0  0  0  0  0  0  0  0  0  0
  -15.7382    0.5321  -13.7432 C   0  0  0  0  0  0  0  0  0  0  0  0
  -14.6608    1.1594  -14.2673 N   0  0  0  0  0  0  0  0  0  0  0  0
  -14.8580    2.1179  -15.1544 C   0  0  0  0  0  0  0  0  0  0  0  0
  -16.1017    2.4927  -15.5931 C   0  0  0  0  0  0  0  0  0  0  0  0
  -16.2228    4.1183  -16.5458 Br  0  0  0  0  0  0  0  0  0  0  0  0
  -18.5019    1.9960  -15.5705 N   0  0  0  0  0  0  0  0  0  0  0  0
  -18.5143    2.9666  -15.8883 H   0  0  0  0  0  0  0  0  0  0  0  0
  -20.8166    1.1073  -15.1645 C   0  0  0  0  0  0  0  0  0  0  0  0
  -19.5871    1.8257  -14.5584 C   0  0  0  0  0  0  0  0  0  0  0  0
  -20.0725    3.2139  -14.0859 C   0  0  0  0  0  0  0  0  0  0  0  0
  -19.8821    4.1739  -15.1342 O   0  0  0  0  0  0  0  0  0  0  0  0
  -20.6799    4.7317  -15.1612 H   0  0  0  0  0  0  0  0  0  0  0  0
 32 29  1  0  0  0
 32 33  1  0  0  0
 32 31  1  0  0  0
 33 34  1  0  0  0
 34 35  1  0  0  0
 29 22  1  0  0  0
 29 30  1  0  0  0
 22 23  1  0  0  0
 22 27  2  0  0  0
 23 24  2  0  0  0
 24 20  1  0  0  0
 24 25  1  0  0  0
 20  1  1  0  0  0
 20 21  1  0  0  0
  1  2  1  0  0  0
  1  6  2  0  0  0
  2  3  2  0  0  0
  3  4  1  0  0  0
  4  7  1  0  0  0
  4  5  2  0  0  0
  7  8  1  0  0  0
  7  9  2  0  0  0
  7 10  2  0  0  0
 10 11  1  0  0  0
 11 12  2  0  0  0
 11 13  2  0  0  0
 11 14  1  0  0  0
 14 15  1  0  0  0
 15 16  1  0  0  0
 16 17  1  0  0  0
 16 18  1  0  0  0
 16 19  1  0  0  0
  5  6  1  0  0  0
 25 26  2  0  0  0
 26 27  1  0  0  0
 27 28  1  0  0  0
M  END
> <minimizedAffinity>
-7.48234

$$$$
