CHEMBL1254098


 30 33  0  0  0  0  0  0  0  0999 V2000
  -29.8323   -8.9828   -7.1105 C   0  0  0  0  0  0  0  0  0  0  0  0
  -30.9248   -8.1693   -7.3971 C   0  0  0  0  0  0  0  0  0  0  0  0
  -31.0755   -6.9282   -6.7688 C   0  0  0  0  0  0  0  0  0  0  0  0
  -30.1242   -6.4627   -5.8569 C   0  0  0  0  0  0  0  0  0  0  0  0
  -28.9925   -7.2606   -5.6233 C   0  0  0  0  0  0  0  0  0  0  0  0
  -27.7333   -6.7241   -4.5597 Cl  0  0  0  0  0  0  0  0  0  0  0  0
  -28.8415   -8.5095   -6.2446 C   0  0  0  0  0  0  0  0  0  0  0  0
  -30.2653   -5.2018   -5.2138 N   0  0  0  0  0  0  0  0  0  0  0  0
  -29.6835   -4.0212   -5.6314 C   0  0  0  0  0  0  0  0  0  0  0  0
  -29.0776   -3.8700   -6.6862 O   0  0  0  0  0  0  0  0  0  0  0  0
  -29.8169   -3.0070   -4.6934 N   0  0  0  0  0  0  0  0  0  0  0  0
  -31.0049   -5.1387   -4.5208 H   0  0  0  0  0  0  0  0  0  0  0  0
  -29.8406   -3.3190   -3.7331 H   0  0  0  0  0  0  0  0  0  0  0  0
  -29.2478   -1.7339   -4.9392 C   0  0  0  0  0  0  0  0  0  0  0  0
  -30.0608   -0.6953   -5.3848 C   0  0  0  0  0  0  0  0  0  0  0  0
  -29.5175    0.5819   -5.5323 C   0  0  0  0  0  0  0  0  0  0  0  0
  -28.1663    0.7641   -5.2804 C   0  0  0  0  0  0  0  0  0  0  0  0
  -27.3385   -0.2264   -4.8913 N   0  0  0  0  0  0  0  0  0  0  0  0
  -27.9003   -1.4473   -4.7121 C   0  0  0  0  0  0  0  0  0  0  0  0
  -29.6403  -10.2167   -7.6986 O   0  0  0  0  0  0  0  0  0  0  0  0
  -27.7864  -12.0142   -6.0043 C   0  0  0  0  0  0  0  0  0  0  0  0
  -27.0164  -11.7768   -7.2043 N   0  0  0  0  0  0  0  0  0  0  0  0
  -25.7518  -12.2657   -7.4237 C   0  0  0  0  0  0  0  0  0  0  0  0
  -25.3455  -11.8459   -8.6722 C   0  0  0  0  0  0  0  0  0  0  0  0
  -26.4015  -11.0855   -9.2237 C   0  0  0  0  0  0  0  0  0  0  0  0
  -26.4607  -10.4704  -10.4227 N   0  0  0  0  0  0  0  0  0  0  0  0
  -27.6217   -9.8428  -10.6419 C   0  0  0  0  0  0  0  0  0  0  0  0
  -28.6789   -9.7575   -9.8185 N   0  0  0  0  0  0  0  0  0  0  0  0
  -28.5862  -10.3357   -8.5995 C   0  0  0  0  0  0  0  0  0  0  0  0
  -27.4355  -11.0493   -8.2943 C   0  0  0  0  0  0  0  0  0  0  0  0
 21 22  1  0  0  0
 22 23  1  0  0  0
 22 30  1  0  0  0
 23 24  2  0  0  0
 24 25  1  0  0  0
 25 26  1  0  0  0
 25 30  2  0  0  0
 26 27  2  0  0  0
 27 28  1  0  0  0
 28 29  2  0  0  0
 29 20  1  0  0  0
 29 30  1  0  0  0
 20  1  1  0  0  0
  1  2  1  0  0  0
  1  7  2  0  0  0
  2  3  2  0  0  0
  3  4  1  0  0  0
  4  8  1  0  0  0
  4  5  2  0  0  0
  8  9  1  0  0  0
  8 12  1  0  0  0
  9 10  2  0  0  0
  9 11  1  0  0  0
 11 14  1  0  0  0
 11 13  1  0  0  0
 14 15  1  0  0  0
 14 19  2  0  0  0
 15 16  2  0  0  0
 16 17  1  0  0  0
 17 18  2  0  0  0
 18 19  1  0  0  0
  5  6  1  0  0  0
  5  7  1  0  0  0
M  END
> <minimizedAffinity>
-7.82006

$$$$
