CHEMBL4283690


 31 34  0  0  0  0  0  0  0  0999 V2000
  -14.7537    1.1493  -14.5772 C   0  0  0  0  0  0  0  0  0  0  0  0
  -16.0411    1.3971  -15.0316 C   0  0  0  0  0  0  0  0  0  0  0  0
  -16.3054    2.6148  -15.6452 C   0  0  0  0  0  0  0  0  0  0  0  0
  -15.2531    3.4888  -15.8892 C   0  0  0  0  0  0  0  0  0  0  0  0
  -13.9872    3.1418  -15.4341 C   0  0  0  0  0  0  0  0  0  0  0  0
  -13.7080    2.0020  -14.7573 N   0  0  0  0  0  0  0  0  0  0  0  0
  -13.4266   -0.3162  -13.2761 O   0  0  0  0  0  0  0  0  0  0  0  0
  -14.5129   -0.1171  -13.8166 C   0  0  0  0  0  0  0  0  0  0  0  0
  -15.5521   -1.0194  -13.7687 N   0  0  0  0  0  0  0  0  0  0  0  0
  -16.3714   -0.8160  -14.3369 H   0  0  0  0  0  0  0  0  0  0  0  0
  -15.4054   -2.2951  -13.0814 C   0  0  0  0  0  0  0  0  0  0  0  0
  -16.1819   -3.4133  -13.7914 C   0  0  0  0  0  0  0  0  0  0  0  0
  -16.0528   -4.7446  -13.0510 C   0  0  0  0  0  0  0  0  0  0  0  0
  -16.4584   -4.6159  -11.5858 C   0  0  0  0  0  0  0  0  0  0  0  0
  -15.6742   -3.5110  -10.8844 C   0  0  0  0  0  0  0  0  0  0  0  0
  -15.8135   -2.1755  -11.6115 C   0  0  0  0  0  0  0  0  0  0  0  0
  -17.5536    3.0054  -16.0792 O   0  0  0  0  0  0  0  0  0  0  0  0
  -18.6783    2.4526  -15.5012 C   0  0  0  0  0  0  0  0  0  0  0  0
  -18.9453    1.0821  -15.4629 C   0  0  0  0  0  0  0  0  0  0  0  0
  -20.1395    0.6116  -14.9091 C   0  0  0  0  0  0  0  0  0  0  0  0
  -21.0486    1.4919  -14.3113 C   0  0  0  0  0  0  0  0  0  0  0  0
  -20.7424    2.8602  -14.2976 C   0  0  0  0  0  0  0  0  0  0  0  0
  -19.5648    3.3374  -14.8874 C   0  0  0  0  0  0  0  0  0  0  0  0
  -22.3402    1.0395  -13.7673 C   0  0  0  0  0  0  0  0  0  0  0  0
  -22.8693   -0.1795  -13.9680 C   0  0  0  0  0  0  0  0  0  0  0  0
  -24.1769   -0.6116  -13.4485 C   0  0  0  0  0  0  0  0  0  0  0  0
  -25.0690   -1.3773  -14.2016 C   0  0  0  0  0  0  0  0  0  0  0  0
  -26.2666   -1.7651  -13.6218 C   0  0  0  0  0  0  0  0  0  0  0  0
  -26.6247   -1.4595  -12.3584 N   0  0  0  0  0  0  0  0  0  0  0  0
  -25.7391   -0.7395  -11.6389 C   0  0  0  0  0  0  0  0  0  0  0  0
  -24.5179   -0.3041  -12.1297 C   0  0  0  0  0  0  0  0  0  0  0  0
  7  8  2  0  0  0
  8  9  1  0  0  0
  8  1  1  0  0  0
  9 11  1  0  0  0
  9 10  1  0  0  0
 11 12  1  0  0  0
 11 16  1  0  0  0
 12 13  1  0  0  0
 13 14  1  0  0  0
 14 15  1  0  0  0
 15 16  1  0  0  0
  1  2  1  0  0  0
  1  6  2  0  0  0
  2  3  2  0  0  0
  3 17  1  0  0  0
  3  4  1  0  0  0
 17 18  1  0  0  0
 18 19  1  0  0  0
 18 23  2  0  0  0
 19 20  2  0  0  0
 20 21  1  0  0  0
 21 24  1  0  0  0
 21 22  2  0  0  0
 24 25  2  0  0  0
 25 26  1  0  0  0
 26 27  1  0  0  0
 26 31  2  0  0  0
 27 28  2  0  0  0
 28 29  1  0  0  0
 29 30  2  0  0  0
 30 31  1  0  0  0
 22 23  1  0  0  0
  4  5  2  0  0  0
  5  6  1  0  0  0
M  END
> <minimizedAffinity>
-11.23762

$$$$
