CHEMBL1704021


 25 26  0  0  0  0  0  0  0  0999 V2000
  -29.4248   -7.4365   -5.5371 C   0  0  0  0  0  0  0  0  0  0  0  0
  -28.2676   -7.2080   -5.1839 O   0  0  0  0  0  0  0  0  0  0  0  0
  -30.4643   -6.5383   -5.4935 N   0  0  0  0  0  0  0  0  0  0  0  0
  -31.4083   -6.8716   -5.3688 H   0  0  0  0  0  0  0  0  0  0  0  0
  -30.2818   -5.2522   -5.0494 C   0  0  0  0  0  0  0  0  0  0  0  0
  -29.6519   -4.1814   -5.7163 C   0  0  0  0  0  0  0  0  0  0  0  0
  -29.7123   -3.1060   -4.8480 C   0  0  0  0  0  0  0  0  0  0  0  0
  -30.2899   -3.6292   -3.7177 N   0  0  0  0  0  0  0  0  0  0  0  0
  -30.7663   -4.8788   -3.8669 N   0  0  0  0  0  0  0  0  0  0  0  0
  -30.4025   -3.1797   -2.8163 H   0  0  0  0  0  0  0  0  0  0  0  0
  -29.2671   -1.7197   -4.9848 C   0  0  0  0  0  0  0  0  0  0  0  0
  -30.1508   -0.6974   -5.3620 C   0  0  0  0  0  0  0  0  0  0  0  0
  -29.7080    0.6163   -5.5144 C   0  0  0  0  0  0  0  0  0  0  0  0
  -28.3671    0.9332   -5.2943 C   0  0  0  0  0  0  0  0  0  0  0  0
  -27.4767   -0.0691   -4.9247 C   0  0  0  0  0  0  0  0  0  0  0  0
  -27.9214   -1.3813   -4.7691 C   0  0  0  0  0  0  0  0  0  0  0  0
  -29.8110   -8.8159   -6.0408 C   0  0  0  0  0  0  0  0  0  0  0  0
  -29.5569  -10.4884   -7.8510 C   0  0  0  0  0  0  0  0  0  0  0  0
  -29.9025   -9.0055   -7.5836 C   0  0  0  0  0  0  0  0  0  0  0  0
  -28.8662   -8.1183   -8.2958 C   0  0  0  0  0  0  0  0  0  0  0  0
  -31.3420   -8.6871   -8.0743 C   0  0  0  0  0  0  0  0  0  0  0  0
  -32.4859   -9.1652   -7.1894 C   0  0  0  0  0  0  0  0  0  0  0  0
  -32.9663  -10.2836   -7.1681 O   0  0  0  0  0  0  0  0  0  0  0  0
  -32.9486   -8.1718   -6.3890 O   0  0  0  0  0  0  0  0  0  0  0  0
  -32.4939   -7.3239   -6.5096 H   0  0  0  0  0  0  0  0  0  0  0  0
 18 19  1  0  0  0
 19 20  1  0  0  0
 19 21  1  0  0  0
 19 17  1  0  0  0
 21 22  1  0  0  0
 22 23  2  0  0  0
 22 24  1  0  0  0
 24 25  1  0  0  0
 17  1  1  0  0  0
  1  2  2  0  0  0
  1  3  1  0  0  0
  3  5  1  0  0  0
  3  4  1  0  0  0
  5  6  1  0  0  0
  5  9  2  0  0  0
  6  7  2  0  0  0
  7 11  1  0  0  0
  7  8  1  0  0  0
 11 12  1  0  0  0
 11 16  2  0  0  0
 12 13  2  0  0  0
 13 14  1  0  0  0
 14 15  2  0  0  0
 15 16  1  0  0  0
  8  9  1  0  0  0
  8 10  1  0  0  0
M  END
> <minimizedAffinity>
-7.22906

$$$$
