CHEMBL3921313


 33 36  0  0  0  0  0  0  0  0999 V2000
  -28.7349   -8.2615   -6.1223 N   0  0  0  0  0  0  0  0  0  0  0  0
  -28.7436   -6.8668   -5.7706 C   0  0  0  0  0  0  0  0  0  0  0  0
  -29.0971   -6.0395   -6.7955 C   0  0  0  0  0  0  0  0  0  0  0  0
  -29.2300   -4.7428   -6.4925 C   0  0  0  0  0  0  0  0  0  0  0  0
  -28.7951   -4.2057   -5.3241 C   0  0  0  0  0  0  0  0  0  0  0  0
  -28.1333   -3.1930   -5.6941 N   0  0  0  0  0  0  0  0  0  0  0  0
  -28.8753   -2.1590   -5.7423 C   0  0  0  0  0  0  0  0  0  0  0  0
  -29.0904   -1.5919   -4.5952 C   0  0  0  0  0  0  0  0  0  0  0  0
  -28.8795   -2.7833   -3.5556 N   0  0  0  0  0  0  0  0  0  0  0  0
  -28.7208   -4.4938   -3.9775 C   0  0  0  0  0  0  0  0  0  0  0  0
  -28.5763   -6.1242   -4.4112 C   0  0  0  0  0  0  0  0  0  0  0  0
  -29.1929    0.0828   -5.2082 C   0  0  0  0  0  0  0  0  0  0  0  0
  -28.4944    0.9011   -6.2849 C   0  0  0  0  0  0  0  0  0  0  0  0
  -29.2346    1.8399   -6.9487 N   0  0  0  0  0  0  0  0  0  0  0  0
  -30.4954    1.6784   -6.5245 N   0  0  0  0  0  0  0  0  0  0  0  0
  -31.6126    2.4605   -7.1322 C   0  0  0  0  0  0  0  0  0  0  0  0
  -30.5088    0.6593   -5.5359 C   0  0  0  0  0  0  0  0  0  0  0  0
  -29.5994   -8.8041   -7.0854 C   0  0  0  0  0  0  0  0  0  0  0  0
  -29.0337   -9.3939   -8.2170 C   0  0  0  0  0  0  0  0  0  0  0  0
  -29.7840   -9.9750   -9.2198 C   0  0  0  0  0  0  0  0  0  0  0  0
  -31.1475  -10.1001   -9.0206 C   0  0  0  0  0  0  0  0  0  0  0  0
  -31.7412   -9.6213   -7.8444 C   0  0  0  0  0  0  0  0  0  0  0  0
  -30.9896   -8.8542   -6.9433 C   0  0  0  0  0  0  0  0  0  0  0  0
  -29.2517  -10.4881  -10.3704 O   0  0  0  0  0  0  0  0  0  0  0  0
  -28.0250  -11.2053  -10.2108 C   0  0  0  0  0  0  0  0  0  0  0  0
  -33.0214   -9.9375   -7.4567 O   0  0  0  0  0  0  0  0  0  0  0  0
  -33.1132  -11.0017   -6.5061 C   0  0  0  0  0  0  0  0  0  0  0  0
  -27.6519   -9.2445   -5.5188 C   0  0  0  0  0  0  0  0  0  0  0  0
  -27.7127   -9.5629   -3.9694 C   0  0  0  0  0  0  0  0  0  0  0  0
  -28.7167   -9.5322   -3.2666 O   0  0  0  0  0  0  0  0  0  0  0  0
  -26.5140   -9.9165   -3.3968 O   0  0  0  0  0  0  0  0  0  0  0  0
  -24.2680   -9.8720   -4.3282 C   0  0  0  0  0  0  0  0  0  0  0  0
  -25.4487   -9.0488   -3.8786 C   0  0  0  0  0  0  0  0  0  0  0  0
 32 33  1  0  0  0
 33 31  1  0  0  0
 31 29  1  0  0  0
 29 30  2  0  0  0
 29 28  1  0  0  0
 28  1  1  0  0  0
  1 18  1  0  0  0
  1  2  1  0  0  0
 18 19  1  0  0  0
 18 23  2  0  0  0
 19 20  2  0  0  0
 20 24  1  0  0  0
 20 21  1  0  0  0
 24 25  1  0  0  0
 21 22  2  0  0  0
 22 26  1  0  0  0
 22 23  1  0  0  0
 26 27  1  0  0  0
  2  3  1  0  0  0
  2 11  2  0  0  0
  3  4  2  0  0  0
  4  5  1  0  0  0
  5  6  1  0  0  0
  5 10  2  0  0  0
  6  7  2  0  0  0
  7  8  1  0  0  0
  8 12  1  0  0  0
  8  9  2  0  0  0
 12 13  1  0  0  0
 12 17  2  0  0  0
 13 14  2  0  0  0
 14 15  1  0  0  0
 15 16  1  0  0  0
 15 17  1  0  0  0
  9 10  1  0  0  0
 10 11  1  0  0  0
M  END
> <minimizedAffinity>
-8.46130

$$$$
