CHEMBL3910242


 46 50  0  0  0  0  0  0  0  0999 V2000
  -29.2843   -9.1225   -5.0952 C   0  0  0  0  0  0  0  0  0  0  0  0
  -29.3296  -10.4849   -5.3893 C   0  0  0  0  0  0  0  0  0  0  0  0
  -29.1526  -10.8950   -6.6958 C   0  0  0  0  0  0  0  0  0  0  0  0
  -28.8842  -10.0843   -7.7333 N   0  0  0  0  0  0  0  0  0  0  0  0
  -28.7707   -8.7622   -7.4376 C   0  0  0  0  0  0  0  0  0  0  0  0
  -28.4483   -7.7450   -8.3805 C   0  0  0  0  0  0  0  0  0  0  0  0
  -28.3880   -6.4853   -7.8174 C   0  0  0  0  0  0  0  0  0  0  0  0
  -28.7400   -6.5466   -6.1409 S   0  0  0  0  0  0  0  0  0  0  0  0
  -28.9599   -8.2527   -6.1535 C   0  0  0  0  0  0  0  0  0  0  0  0
  -28.0812   -5.2380   -8.5055 C   0  0  0  0  0  0  0  0  0  0  0  0
  -27.1920   -5.1426   -9.3448 O   0  0  0  0  0  0  0  0  0  0  0  0
  -28.8598   -4.1515   -8.1495 N   0  0  0  0  0  0  0  0  0  0  0  0
  -29.6251   -4.3118   -7.5074 H   0  0  0  0  0  0  0  0  0  0  0  0
  -28.7426   -2.8585   -8.7885 C   0  0  0  0  0  0  0  0  0  0  0  0
  -27.3079   -2.5825   -9.2315 C   0  0  0  0  0  0  0  0  0  0  0  0
  -27.2797   -1.7058  -10.4896 C   0  0  0  0  0  0  0  0  0  0  0  0
  -26.1575   -2.0143  -11.3996 N   0  0  0  0  0  0  0  0  0  0  0  0
  -24.8756   -1.5128  -10.8771 C   0  0  0  0  0  0  0  0  0  0  0  0
  -23.7118   -1.8348  -11.8148 C   0  0  0  0  0  0  0  0  0  0  0  0
  -23.9597   -1.3296  -13.2296 C   0  0  0  0  0  0  0  0  0  0  0  0
  -23.8494    0.0918  -13.2842 O   0  0  0  0  0  0  0  0  0  0  0  0
  -25.3245   -1.7800  -13.7352 C   0  0  0  0  0  0  0  0  0  0  0  0
  -26.4379   -1.4606  -12.7368 C   0  0  0  0  0  0  0  0  0  0  0  0
  -24.5047    0.4813  -12.6826 H   0  0  0  0  0  0  0  0  0  0  0  0
  -29.4521   -8.6159   -3.8209 O   0  0  0  0  0  0  0  0  0  0  0  0
  -29.8714   -4.4856   -3.3432 C   0  0  0  0  0  0  0  0  0  0  0  0
  -28.6167   -5.1012   -3.3040 C   0  0  0  0  0  0  0  0  0  0  0  0
  -28.5120   -6.4910   -3.4464 C   0  0  0  0  0  0  0  0  0  0  0  0
  -29.6587   -7.2674   -3.6430 C   0  0  0  0  0  0  0  0  0  0  0  0
  -30.9094   -6.6484   -3.7208 C   0  0  0  0  0  0  0  0  0  0  0  0
  -31.0082   -5.2752   -3.5246 C   0  0  0  0  0  0  0  0  0  0  0  0
  -32.2181   -4.6917   -3.5793 F   0  0  0  0  0  0  0  0  0  0  0  0
  -29.9024   -0.9591   -4.1896 N   0  0  0  0  0  0  0  0  0  0  0  0
  -29.7198   -2.3162   -4.4008 C   0  0  0  0  0  0  0  0  0  0  0  0
  -29.4010   -2.8404   -5.4598 O   0  0  0  0  0  0  0  0  0  0  0  0
  -30.0164   -3.0715   -3.2695 N   0  0  0  0  0  0  0  0  0  0  0  0
  -30.3308   -0.6860   -3.3176 H   0  0  0  0  0  0  0  0  0  0  0  0
  -30.8583   -2.7688   -2.7955 H   0  0  0  0  0  0  0  0  0  0  0  0
  -31.9682    2.3931   -7.2044 C   0  0  0  0  0  0  0  0  0  0  0  0
  -30.7495    1.6920   -6.6750 C   0  0  0  0  0  0  0  0  0  0  0  0
  -29.4928    2.0032   -7.2027 C   0  0  0  0  0  0  0  0  0  0  0  0
  -28.3560    1.3879   -6.6959 C   0  0  0  0  0  0  0  0  0  0  0  0
  -28.4647    0.4473   -5.6769 C   0  0  0  0  0  0  0  0  0  0  0  0
  -27.3096    0.0125   -5.1587 F   0  0  0  0  0  0  0  0  0  0  0  0
  -29.7128    0.0585   -5.1665 C   0  0  0  0  0  0  0  0  0  0  0  0
  -30.8534    0.7200   -5.6577 C   0  0  0  0  0  0  0  0  0  0  0  0
 39 40  1  0  0  0
 40 41  1  0  0  0
 40 46  2  0  0  0
 41 42  2  0  0  0
 42 43  1  0  0  0
 43 44  1  0  0  0
 43 45  2  0  0  0
 45 33  1  0  0  0
 45 46  1  0  0  0
 33 34  1  0  0  0
 33 37  1  0  0  0
 34 35  2  0  0  0
 34 36  1  0  0  0
 36 26  1  0  0  0
 36 38  1  0  0  0
 26 27  1  0  0  0
 26 31  2  0  0  0
 27 28  2  0  0  0
 28 29  1  0  0  0
 29 25  1  0  0  0
 29 30  2  0  0  0
 25  1  1  0  0  0
  1  2  1  0  0  0
  1  9  2  0  0  0
  2  3  2  0  0  0
  3  4  1  0  0  0
  4  5  2  0  0  0
  5  6  1  0  0  0
  5  9  1  0  0  0
  6  7  2  0  0  0
  7 10  1  0  0  0
  7  8  1  0  0  0
 10 11  2  0  0  0
 10 12  1  0  0  0
 12 14  1  0  0  0
 12 13  1  0  0  0
 14 15  1  0  0  0
 15 16  1  0  0  0
 16 17  1  0  0  0
 17 18  1  0  0  0
 17 23  1  0  0  0
 18 19  1  0  0  0
 19 20  1  0  0  0
 20 21  1  0  0  0
 20 22  1  0  0  0
 21 24  1  0  0  0
 22 23  1  0  0  0
  8  9  1  0  0  0
 30 31  1  0  0  0
 31 32  1  0  0  0
M  END
> <minimizedAffinity>
-7.68514

$$$$
