CHEMBL1984402


 20 21  0  0  0  0  0  0  0  0999 V2000
  -29.8739   -4.3294   -4.4895 C   0  0  0  0  0  0  0  0  0  0  0  0
  -29.0902   -3.6403   -5.5769 C   0  0  0  0  0  0  0  0  0  0  0  0
  -28.6630   -4.2391   -6.6510 N   0  0  0  0  0  0  0  0  0  0  0  0
  -28.9386   -5.5624   -6.8154 N   0  0  0  0  0  0  0  0  0  0  0  0
  -28.4753   -6.1832   -8.0392 C   0  0  0  0  0  0  0  0  0  0  0  0
  -29.6401   -6.3242   -5.9122 C   0  0  0  0  0  0  0  0  0  0  0  0
  -29.8631   -7.5306   -6.0455 O   0  0  0  0  0  0  0  0  0  0  0  0
  -30.1652   -5.6315   -4.6775 C   0  0  0  0  0  0  0  0  0  0  0  0
  -30.9763   -6.4592   -3.8861 N   0  0  0  0  0  0  0  0  0  0  0  0
  -30.9642   -7.4038   -4.2960 H   0  0  0  0  0  0  0  0  0  0  0  0
  -30.6559   -6.5350   -2.9249 H   0  0  0  0  0  0  0  0  0  0  0  0
  -28.8043   -2.1698   -5.4852 C   0  0  0  0  0  0  0  0  0  0  0  0
  -27.5379   -1.6531   -5.1912 C   0  0  0  0  0  0  0  0  0  0  0  0
  -27.3663   -0.2767   -4.9998 C   0  0  0  0  0  0  0  0  0  0  0  0
  -28.4414    0.5962   -5.1608 C   0  0  0  0  0  0  0  0  0  0  0  0
  -29.6832    0.1018   -5.5502 C   0  0  0  0  0  0  0  0  0  0  0  0
  -29.8640   -1.2749   -5.7132 C   0  0  0  0  0  0  0  0  0  0  0  0
  -29.6494   -2.7834   -2.4063 C   0  0  0  0  0  0  0  0  0  0  0  0
  -30.5047   -3.6201   -3.3312 C   0  0  0  0  0  0  0  0  0  0  0  0
  -31.7163   -3.6992   -3.1284 O   0  0  0  0  0  0  0  0  0  0  0  0
 18 19  1  0  0  0
 19 20  2  0  0  0
 19  1  1  0  0  0
  1  2  1  0  0  0
  1  8  2  0  0  0
  2 12  1  0  0  0
  2  3  2  0  0  0
 12 13  1  0  0  0
 12 17  2  0  0  0
 13 14  2  0  0  0
 14 15  1  0  0  0
 15 16  2  0  0  0
 16 17  1  0  0  0
  3  4  1  0  0  0
  4  5  1  0  0  0
  4  6  1  0  0  0
  6  7  2  0  0  0
  6  8  1  0  0  0
  8  9  1  0  0  0
  9 10  1  0  0  0
  9 11  1  0  0  0
M  END
> <minimizedAffinity>
-7.11075

$$$$
