CHEMBL424757


 42 48  0  0  0  0  0  0  0  0999 V2000
  -29.7360   -8.6179   -4.5257 N   0  0  0  0  0  0  0  0  0  0  0  0
  -29.6574   -9.2488   -5.7904 C   0  0  0  0  0  0  0  0  0  0  0  0
  -29.2266  -10.5346   -6.1647 C   0  0  0  0  0  0  0  0  0  0  0  0
  -29.1666  -10.8550   -7.5379 C   0  0  0  0  0  0  0  0  0  0  0  0
  -29.5420   -9.9480   -8.5314 C   0  0  0  0  0  0  0  0  0  0  0  0
  -29.9541   -8.6733   -8.1399 C   0  0  0  0  0  0  0  0  0  0  0  0
  -29.9832   -8.3088   -6.7771 C   0  0  0  0  0  0  0  0  0  0  0  0
  -30.1377   -7.1566   -6.0364 C   0  0  0  0  0  0  0  0  0  0  0  0
  -30.0111   -5.8820   -6.6059 C   0  0  0  0  0  0  0  0  0  0  0  0
  -29.6345   -4.8581   -5.7177 C   0  0  0  0  0  0  0  0  0  0  0  0
  -29.5073   -5.0227   -4.3269 C   0  0  0  0  0  0  0  0  0  0  0  0
  -30.2517   -6.1493   -3.8384 C   0  0  0  0  0  0  0  0  0  0  0  0
  -30.1556   -7.2898   -4.6739 C   0  0  0  0  0  0  0  0  0  0  0  0
  -31.6094   -5.6909   -3.1507 C   0  0  0  0  0  0  0  0  0  0  0  0
  -31.9673   -4.1574   -3.3591 C   0  0  0  0  0  0  0  0  0  0  0  0
  -30.7496   -3.3876   -2.9869 C   0  0  0  0  0  0  0  0  0  0  0  0
  -30.6158   -2.5150   -1.9889 N   0  0  0  0  0  0  0  0  0  0  0  0
  -29.2738   -2.5041   -1.7888 N   0  0  0  0  0  0  0  0  0  0  0  0
  -28.7262   -1.7721   -0.6719 C   0  0  0  0  0  0  0  0  0  0  0  0
  -28.5971   -3.4141   -2.5667 C   0  0  0  0  0  0  0  0  0  0  0  0
  -29.5201   -3.8531   -3.4817 C   0  0  0  0  0  0  0  0  0  0  0  0
  -29.6018   -3.6256   -6.4795 C   0  0  0  0  0  0  0  0  0  0  0  0
  -29.4002   -2.4583   -6.1892 O   0  0  0  0  0  0  0  0  0  0  0  0
  -29.9384   -4.0125   -7.7722 N   0  0  0  0  0  0  0  0  0  0  0  0
  -30.1543   -5.4246   -7.9797 C   0  0  0  0  0  0  0  0  0  0  0  0
  -30.0834   -3.3026   -8.4733 H   0  0  0  0  0  0  0  0  0  0  0  0
  -29.5073  -10.2005   -9.9309 N   0  0  0  0  0  0  0  0  0  0  0  0
  -28.5332   -9.7942  -10.8185 C   0  0  0  0  0  0  0  0  0  0  0  0
  -27.5411   -9.1613  -10.4829 O   0  0  0  0  0  0  0  0  0  0  0  0
  -28.8201  -10.1519  -12.1344 N   0  0  0  0  0  0  0  0  0  0  0  0
  -30.2365  -10.7811  -10.3029 H   0  0  0  0  0  0  0  0  0  0  0  0
  -29.7768  -10.3904  -12.3468 H   0  0  0  0  0  0  0  0  0  0  0  0
  -27.9753   -9.8763  -13.2412 C   0  0  0  0  0  0  0  0  0  0  0  0
  -26.7672   -9.1864  -13.1160 C   0  0  0  0  0  0  0  0  0  0  0  0
  -26.0311   -8.8129  -14.2403 C   0  0  0  0  0  0  0  0  0  0  0  0
  -26.4546   -9.1634  -15.5173 C   0  0  0  0  0  0  0  0  0  0  0  0
  -27.6124   -9.9263  -15.6589 C   0  0  0  0  0  0  0  0  0  0  0  0
  -28.3668  -10.2851  -14.5221 C   0  0  0  0  0  0  0  0  0  0  0  0
  -25.6964   -8.6363  -16.5221 O   0  0  0  0  0  0  0  0  0  0  0  0
  -24.5979   -7.8205  -16.1476 C   0  0  0  0  0  0  0  0  0  0  0  0
  -27.6029   -9.4053   -3.4779 C   0  0  0  0  0  0  0  0  0  0  0  0
  -29.0928   -9.1582   -3.3315 C   0  0  0  0  0  0  0  0  0  0  0  0
 41 42  1  0  0  0
 42  1  1  0  0  0
  1  2  1  0  0  0
  1 13  1  0  0  0
  2  3  1  0  0  0
  2  7  2  0  0  0
  3  4  2  0  0  0
  4  5  1  0  0  0
  5 27  1  0  0  0
  5  6  2  0  0  0
 27 28  1  0  0  0
 27 31  1  0  0  0
 28 29  2  0  0  0
 28 30  1  0  0  0
 30 33  1  0  0  0
 30 32  1  0  0  0
 33 34  1  0  0  0
 33 38  2  0  0  0
 34 35  2  0  0  0
 35 36  1  0  0  0
 36 39  1  0  0  0
 36 37  2  0  0  0
 39 40  1  0  0  0
 37 38  1  0  0  0
  6  7  1  0  0  0
  7  8  1  0  0  0
  8  9  1  0  0  0
  8 13  2  0  0  0
  9 10  2  0  0  0
  9 25  1  0  0  0
 10 11  1  0  0  0
 10 22  1  0  0  0
 11 12  2  0  0  0
 11 21  1  0  0  0
 12 13  1  0  0  0
 12 14  1  0  0  0
 14 15  1  0  0  0
 15 16  1  0  0  0
 16 17  2  0  0  0
 16 21  1  0  0  0
 17 18  1  0  0  0
 18 19  1  0  0  0
 18 20  1  0  0  0
 20 21  2  0  0  0
 22 23  2  0  0  0
 22 24  1  0  0  0
 24 25  1  0  0  0
 24 26  1  0  0  0
M  END
> <minimizedAffinity>
-1.23159

$$$$
