CHEMBL3628807


 30 33  0  0  0  0  0  0  0  0999 V2000
  -19.6805    2.6724  -14.9449 C   0  0  0  0  0  0  0  0  0  0  0  0
  -20.9095    2.9328  -14.3240 C   0  0  0  0  0  0  0  0  0  0  0  0
  -21.8621    1.9217  -14.1056 C   0  0  0  0  0  0  0  0  0  0  0  0
  -21.6119    0.6278  -14.5166 C   0  0  0  0  0  0  0  0  0  0  0  0
  -20.3871    0.3652  -15.1625 C   0  0  0  0  0  0  0  0  0  0  0  0
  -19.4374    1.3740  -15.3885 C   0  0  0  0  0  0  0  0  0  0  0  0
  -17.0249    2.3073  -16.0442 O   0  0  0  0  0  0  0  0  0  0  0  0
  -17.4113    3.4096  -15.6761 C   0  0  0  0  0  0  0  0  0  0  0  0
  -18.6638    3.6466  -15.1275 N   0  0  0  0  0  0  0  0  0  0  0  0
  -16.6583    4.5686  -15.7867 N   0  0  0  0  0  0  0  0  0  0  0  0
  -18.9444    4.6104  -15.0246 H   0  0  0  0  0  0  0  0  0  0  0  0
  -17.0254    5.3986  -15.3443 H   0  0  0  0  0  0  0  0  0  0  0  0
  -15.3836    4.6932  -16.3980 C   0  0  0  0  0  0  0  0  0  0  0  0
  -15.1887    5.0812  -17.7291 C   0  0  0  0  0  0  0  0  0  0  0  0
  -13.9029    5.1885  -18.2715 C   0  0  0  0  0  0  0  0  0  0  0  0
  -12.7895    4.9152  -17.4857 C   0  0  0  0  0  0  0  0  0  0  0  0
  -12.9722    4.5409  -16.1577 C   0  0  0  0  0  0  0  0  0  0  0  0
  -11.4599    4.1943  -15.0748 Br  0  0  0  0  0  0  0  0  0  0  0  0
  -14.2557    4.4265  -15.6126 C   0  0  0  0  0  0  0  0  0  0  0  0
  -22.3896   -0.4938  -14.3990 O   0  0  0  0  0  0  0  0  0  0  0  0
  -23.1707   -0.8743  -13.3073 C   0  0  0  0  0  0  0  0  0  0  0  0
  -22.6636   -1.0271  -12.0753 N   0  0  0  0  0  0  0  0  0  0  0  0
  -23.5471   -1.4174  -11.1417 C   0  0  0  0  0  0  0  0  0  0  0  0
  -24.8568   -1.6541  -11.3237 N   0  0  0  0  0  0  0  0  0  0  0  0
  -25.3312   -1.5121  -12.5663 C   0  0  0  0  0  0  0  0  0  0  0  0
  -26.6647   -1.8130  -12.8332 C   0  0  0  0  0  0  0  0  0  0  0  0
  -27.1941   -1.7470  -14.1271 C   0  0  0  0  0  0  0  0  0  0  0  0
  -26.3948   -1.3191  -15.1775 C   0  0  0  0  0  0  0  0  0  0  0  0
  -25.0691   -0.9792  -14.9287 C   0  0  0  0  0  0  0  0  0  0  0  0
  -24.5192   -1.1040  -13.6286 C   0  0  0  0  0  0  0  0  0  0  0  0
  7  8  2  0  0  0
  8  9  1  0  0  0
  8 10  1  0  0  0
  9  1  1  0  0  0
  9 11  1  0  0  0
  1  2  1  0  0  0
  1  6  2  0  0  0
  2  3  2  0  0  0
  3  4  1  0  0  0
  4 20  1  0  0  0
  4  5  2  0  0  0
 20 21  1  0  0  0
 21 22  1  0  0  0
 21 30  2  0  0  0
 22 23  2  0  0  0
 23 24  1  0  0  0
 24 25  2  0  0  0
 25 26  1  0  0  0
 25 30  1  0  0  0
 26 27  2  0  0  0
 27 28  1  0  0  0
 28 29  2  0  0  0
 29 30  1  0  0  0
  5  6  1  0  0  0
 10 13  1  0  0  0
 10 12  1  0  0  0
 13 14  1  0  0  0
 13 19  2  0  0  0
 14 15  2  0  0  0
 15 16  1  0  0  0
 16 17  2  0  0  0
 17 18  1  0  0  0
 17 19  1  0  0  0
M  END
> <minimizedAffinity>
-9.96292

$$$$
