CHEMBL1242386


 25 28  0  0  0  0  0  0  0  0999 V2000
  -29.1121   -3.1835   -6.6539 N   0  0  0  0  0  0  0  0  0  0  0  0
  -29.1166   -4.2834   -7.4340 N   0  0  0  0  0  0  0  0  0  0  0  0
  -29.7469   -5.2196   -6.6990 C   0  0  0  0  0  0  0  0  0  0  0  0
  -30.1017   -4.7077   -5.4093 C   0  0  0  0  0  0  0  0  0  0  0  0
  -30.7007   -5.1491   -4.2185 C   0  0  0  0  0  0  0  0  0  0  0  0
  -31.1173   -6.4479   -3.9577 N   0  0  0  0  0  0  0  0  0  0  0  0
  -30.8799   -4.2654   -3.2140 N   0  0  0  0  0  0  0  0  0  0  0  0
  -30.4619   -2.9991   -3.3844 C   0  0  0  0  0  0  0  0  0  0  0  0
  -29.8463   -2.4717   -4.4560 N   0  0  0  0  0  0  0  0  0  0  0  0
  -29.7008   -3.3791   -5.4361 C   0  0  0  0  0  0  0  0  0  0  0  0
  -30.5424   -7.1667   -4.3793 H   0  0  0  0  0  0  0  0  0  0  0  0
  -31.3034   -6.5664   -2.9684 H   0  0  0  0  0  0  0  0  0  0  0  0
  -29.9679   -6.5537   -7.2707 C   0  0  0  0  0  0  0  0  0  0  0  0
  -28.9381   -7.2343   -7.9355 C   0  0  0  0  0  0  0  0  0  0  0  0
  -29.1335   -8.4878   -8.5268 C   0  0  0  0  0  0  0  0  0  0  0  0
  -30.3847   -9.0760   -8.3512 C   0  0  0  0  0  0  0  0  0  0  0  0
  -30.8824  -10.2886   -8.7432 N   0  0  0  0  0  0  0  0  0  0  0  0
  -32.1429  -10.5251   -8.3428 N   0  0  0  0  0  0  0  0  0  0  0  0
  -32.4639   -9.4140   -7.6751 C   0  0  0  0  0  0  0  0  0  0  0  0
  -31.4181   -8.4680   -7.6531 C   0  0  0  0  0  0  0  0  0  0  0  0
  -31.2210   -7.1801   -7.1190 C   0  0  0  0  0  0  0  0  0  0  0  0
  -30.4027  -11.0108   -9.2727 H   0  0  0  0  0  0  0  0  0  0  0  0
  -27.5189   -1.3812   -6.1079 C   0  0  0  0  0  0  0  0  0  0  0  0
  -28.4925   -1.9545   -7.1393 C   0  0  0  0  0  0  0  0  0  0  0  0
  -27.8010   -2.1683   -8.4865 C   0  0  0  0  0  0  0  0  0  0  0  0
 23 24  1  0  0  0
 24 25  1  0  0  0
 24  1  1  0  0  0
  1  2  1  0  0  0
  1 10  1  0  0  0
  2  3  2  0  0  0
  3 13  1  0  0  0
  3  4  1  0  0  0
 13 14  1  0  0  0
 13 21  2  0  0  0
 14 15  2  0  0  0
 15 16  1  0  0  0
 16 17  1  0  0  0
 16 20  2  0  0  0
 17 18  1  0  0  0
 17 22  1  0  0  0
 18 19  2  0  0  0
 19 20  1  0  0  0
 20 21  1  0  0  0
  4  5  1  0  0  0
  4 10  2  0  0  0
  5  6  1  0  0  0
  5  7  2  0  0  0
  6 11  1  0  0  0
  6 12  1  0  0  0
  7  8  1  0  0  0
  8  9  2  0  0  0
  9 10  1  0  0  0
M  END
> <minimizedAffinity>
-8.37393

$$$$
