CHEMBL3690408


 39 42  0  0  0  0  0  0  0  0999 V2000
  -29.3315   -4.6212   -6.1276 C   0  0  0  0  0  0  0  0  0  0  0  0
  -29.0433   -5.0023   -7.5169 C   0  0  0  0  0  0  0  0  0  0  0  0
  -28.5220   -4.1042   -8.3714 C   0  0  0  0  0  0  0  0  0  0  0  0
  -28.2263   -2.8150   -7.9268 N   0  0  0  0  0  0  0  0  0  0  0  0
  -27.6474   -1.7238   -8.5755 C   0  0  0  0  0  0  0  0  0  0  0  0
  -27.6735   -0.7231   -7.6084 C   0  0  0  0  0  0  0  0  0  0  0  0
  -28.2030   -1.1454   -6.4238 N   0  0  0  0  0  0  0  0  0  0  0  0
  -28.5122   -2.4051   -6.6252 C   0  0  0  0  0  0  0  0  0  0  0  0
  -29.0809   -3.3546   -5.7287 C   0  0  0  0  0  0  0  0  0  0  0  0
  -27.1498   -1.6272   -9.9578 C   0  0  0  0  0  0  0  0  0  0  0  0
  -28.0315   -1.9485  -11.0033 C   0  0  0  0  0  0  0  0  0  0  0  0
  -27.6506   -1.8133  -12.3338 C   0  0  0  0  0  0  0  0  0  0  0  0
  -26.3769   -1.3514  -12.6485 C   0  0  0  0  0  0  0  0  0  0  0  0
  -25.4731   -1.0085  -11.6421 C   0  0  0  0  0  0  0  0  0  0  0  0
  -25.8679   -1.1506  -10.2983 C   0  0  0  0  0  0  0  0  0  0  0  0
  -24.1728   -0.5147  -11.9168 N   0  0  0  0  0  0  0  0  0  0  0  0
  -23.6076   -0.3429  -13.1625 C   0  0  0  0  0  0  0  0  0  0  0  0
  -24.1308   -0.5606  -14.2497 O   0  0  0  0  0  0  0  0  0  0  0  0
  -22.3022    0.0839  -13.0952 N   0  0  0  0  0  0  0  0  0  0  0  0
  -23.6053   -0.2560  -11.1247 H   0  0  0  0  0  0  0  0  0  0  0  0
  -22.0561    0.6647  -12.3082 H   0  0  0  0  0  0  0  0  0  0  0  0
  -21.5953    0.3521  -14.3582 C   0  0  0  0  0  0  0  0  0  0  0  0
  -20.8708    1.7046  -14.4480 C   0  0  0  0  0  0  0  0  0  0  0  0
  -21.4822    2.6568  -13.7056 F   0  0  0  0  0  0  0  0  0  0  0  0
  -19.6095    1.5826  -13.9611 F   0  0  0  0  0  0  0  0  0  0  0  0
  -20.7688    2.1551  -15.7146 F   0  0  0  0  0  0  0  0  0  0  0  0
  -29.9191   -5.6428   -5.1670 C   0  0  0  0  0  0  0  0  0  0  0  0
  -29.0834   -5.7191   -3.9047 C   0  0  0  0  0  0  0  0  0  0  0  0
  -29.3319   -6.5216   -2.9190 N   0  0  0  0  0  0  0  0  0  0  0  0
  -30.1664   -7.0923   -3.0889 H   0  0  0  0  0  0  0  0  0  0  0  0
  -29.2695   -7.9584   -5.5611 N   0  0  0  0  0  0  0  0  0  0  0  0
  -30.0769   -6.9953   -5.8331 C   0  0  0  0  0  0  0  0  0  0  0  0
  -29.3939   -9.2140   -8.7175 N   0  0  0  0  0  0  0  0  0  0  0  0
  -28.0426   -9.0866   -8.1388 C   0  0  0  0  0  0  0  0  0  0  0  0
  -28.1476   -9.7103   -6.7578 C   0  0  0  0  0  0  0  0  0  0  0  0
  -29.5039   -9.2213   -6.2719 C   0  0  0  0  0  0  0  0  0  0  0  0
  -30.3039   -8.9936   -7.5711 C   0  0  0  0  0  0  0  0  0  0  0  0
  -29.0628  -10.5721  -10.7979 C   0  0  0  0  0  0  0  0  0  0  0  0
  -29.5587  -10.5290   -9.3566 C   0  0  0  0  0  0  0  0  0  0  0  0
 38 39  1  0  0  0
 39 33  1  0  0  0
 33 34  1  0  0  0
 33 37  1  0  0  0
 34 35  1  0  0  0
 35 36  1  0  0  0
 36 31  1  0  0  0
 36 37  1  0  0  0
 31 32  2  0  0  0
 32 27  1  0  0  0
 27 28  1  0  0  0
 27  1  1  0  0  0
 28 29  2  0  0  0
 29 30  1  0  0  0
  1  2  1  0  0  0
  1  9  2  0  0  0
  2  3  2  0  0  0
  3  4  1  0  0  0
  4  5  1  0  0  0
  4  8  1  0  0  0
  5 10  1  0  0  0
  5  6  2  0  0  0
 10 11  1  0  0  0
 10 15  2  0  0  0
 11 12  2  0  0  0
 12 13  1  0  0  0
 13 14  2  0  0  0
 14 16  1  0  0  0
 14 15  1  0  0  0
 16 17  1  0  0  0
 16 20  1  0  0  0
 17 18  2  0  0  0
 17 19  1  0  0  0
 19 22  1  0  0  0
 19 21  1  0  0  0
 22 23  1  0  0  0
 23 24  1  0  0  0
 23 25  1  0  0  0
 23 26  1  0  0  0
  6  7  1  0  0  0
  7  8  2  0  0  0
  8  9  1  0  0  0
M  END
> <minimizedAffinity>
-9.48833

$$$$
