CHEMBL4473129


 34 37  0  0  0  0  0  0  0  0999 V2000
  -16.9785    2.3199  -15.8808 N   0  0  0  0  0  0  0  0  0  0  0  0
  -18.0199    3.0904  -15.3728 C   0  0  0  0  0  0  0  0  0  0  0  0
  -17.9563    4.2969  -15.1510 O   0  0  0  0  0  0  0  0  0  0  0  0
  -17.1049    1.3397  -16.1337 H   0  0  0  0  0  0  0  0  0  0  0  0
  -15.6512    0.7422  -13.9912 O   0  0  0  0  0  0  0  0  0  0  0  0
  -14.6955    1.3913  -14.3595 C   0  0  0  0  0  0  0  0  0  0  0  0
  -13.3797    1.3356  -13.9467 N   0  0  0  0  0  0  0  0  0  0  0  0
  -12.6103    2.2733  -14.6324 C   0  0  0  0  0  0  0  0  0  0  0  0
  -11.2598    2.5167  -14.4911 C   0  0  0  0  0  0  0  0  0  0  0  0
  -10.7007    3.5212  -15.2928 C   0  0  0  0  0  0  0  0  0  0  0  0
  -11.4980    4.2469  -16.2034 C   0  0  0  0  0  0  0  0  0  0  0  0
  -10.6970    5.5974  -17.2590 Br  0  0  0  0  0  0  0  0  0  0  0  0
  -12.8627    3.9910  -16.3391 C   0  0  0  0  0  0  0  0  0  0  0  0
  -13.3859    2.9970  -15.5385 C   0  0  0  0  0  0  0  0  0  0  0  0
  -14.7488    2.4857  -15.4281 C   0  0  0  0  0  0  0  0  0  0  0  0
  -15.7620    2.9066  -16.1128 N   0  0  0  0  0  0  0  0  0  0  0  0
  -13.0432    0.6978  -13.2403 H   0  0  0  0  0  0  0  0  0  0  0  0
  -19.3041    2.3791  -15.0958 C   0  0  0  0  0  0  0  0  0  0  0  0
  -19.4162    0.9948  -15.1974 C   0  0  0  0  0  0  0  0  0  0  0  0
  -20.6291    0.3630  -14.8945 C   0  0  0  0  0  0  0  0  0  0  0  0
  -21.7548    1.0853  -14.4800 C   0  0  0  0  0  0  0  0  0  0  0  0
  -21.6344    2.4747  -14.3613 C   0  0  0  0  0  0  0  0  0  0  0  0
  -20.4182    3.1148  -14.6622 C   0  0  0  0  0  0  0  0  0  0  0  0
  -23.0047    0.4785  -14.1758 N   0  0  0  0  0  0  0  0  0  0  0  0
  -23.2997   -0.2108  -13.0077 C   0  0  0  0  0  0  0  0  0  0  0  0
  -22.5402   -0.3615  -12.0523 O   0  0  0  0  0  0  0  0  0  0  0  0
  -23.7372    0.5989  -14.8629 H   0  0  0  0  0  0  0  0  0  0  0  0
  -24.6512   -0.8293  -12.8702 C   0  0  0  0  0  0  0  0  0  0  0  0
  -25.4297   -0.7589  -11.7094 C   0  0  0  0  0  0  0  0  0  0  0  0
  -26.7406   -1.2604  -11.7201 C   0  0  0  0  0  0  0  0  0  0  0  0
  -27.2716   -1.8258  -12.8819 C   0  0  0  0  0  0  0  0  0  0  0  0
  -28.8952   -2.3933  -12.8993 Cl  0  0  0  0  0  0  0  0  0  0  0  0
  -26.5019   -1.9129  -14.0358 C   0  0  0  0  0  0  0  0  0  0  0  0
  -25.1975   -1.4183  -14.0265 C   0  0  0  0  0  0  0  0  0  0  0  0
  5  6  2  0  0  0
  6  7  1  0  0  0
  6 15  1  0  0  0
  7  8  1  0  0  0
  7 17  1  0  0  0
  8  9  1  0  0  0
  8 14  2  0  0  0
  9 10  2  0  0  0
 10 11  1  0  0  0
 11 12  1  0  0  0
 11 13  2  0  0  0
 13 14  1  0  0  0
 14 15  1  0  0  0
 15 16  2  0  0  0
 16  1  1  0  0  0
  1  2  1  0  0  0
  1  4  1  0  0  0
  2  3  2  0  0  0
  2 18  1  0  0  0
 18 19  1  0  0  0
 18 23  2  0  0  0
 19 20  2  0  0  0
 20 21  1  0  0  0
 21 24  1  0  0  0
 21 22  2  0  0  0
 24 25  1  0  0  0
 24 27  1  0  0  0
 25 26  2  0  0  0
 25 28  1  0  0  0
 28 29  1  0  0  0
 28 34  2  0  0  0
 29 30  2  0  0  0
 30 31  1  0  0  0
 31 32  1  0  0  0
 31 33  2  0  0  0
 33 34  1  0  0  0
 22 23  1  0  0  0
M  END
> <minimizedAffinity>
-9.46712

$$$$
