CHEMBL1761934


 36 39  0  0  0  0  0  0  0  0999 V2000
  -14.1750    0.4348  -14.9893 C   0  0  0  0  0  0  0  0  0  0  0  0
  -13.7669   -0.7329  -15.6399 C   0  0  0  0  0  0  0  0  0  0  0  0
  -12.8090   -1.5841  -15.0645 C   0  0  0  0  0  0  0  0  0  0  0  0
  -12.2627   -1.3151  -13.8103 C   0  0  0  0  0  0  0  0  0  0  0  0
  -12.6366   -0.1005  -13.2001 C   0  0  0  0  0  0  0  0  0  0  0  0
  -13.5658    0.7764  -13.7886 C   0  0  0  0  0  0  0  0  0  0  0  0
  -17.4721    1.8605  -15.5761 N   0  0  0  0  0  0  0  0  0  0  0  0
  -16.5177    1.0176  -15.0133 C   0  0  0  0  0  0  0  0  0  0  0  0
  -16.7556    0.1863  -14.1414 O   0  0  0  0  0  0  0  0  0  0  0  0
  -15.2367    1.2316  -15.5052 N   0  0  0  0  0  0  0  0  0  0  0  0
  -17.2092    2.3557  -16.4178 H   0  0  0  0  0  0  0  0  0  0  0  0
  -15.0193    2.1964  -15.7001 H   0  0  0  0  0  0  0  0  0  0  0  0
  -21.5363    2.0807  -14.3259 C   0  0  0  0  0  0  0  0  0  0  0  0
  -20.7599    3.2319  -14.3827 C   0  0  0  0  0  0  0  0  0  0  0  0
  -19.4249    3.1610  -14.7919 C   0  0  0  0  0  0  0  0  0  0  0  0
  -18.8219    1.9528  -15.1489 C   0  0  0  0  0  0  0  0  0  0  0  0
  -19.6081    0.7953  -15.0934 C   0  0  0  0  0  0  0  0  0  0  0  0
  -20.9534    0.8638  -14.6807 C   0  0  0  0  0  0  0  0  0  0  0  0
  -23.3374    0.7769  -13.4910 C   0  0  0  0  0  0  0  0  0  0  0  0
  -22.8488    2.0386  -13.9390 O   0  0  0  0  0  0  0  0  0  0  0  0
  -11.3017   -2.1268  -13.1526 N   0  0  0  0  0  0  0  0  0  0  0  0
  -10.4217   -1.6300  -13.0950 H   0  0  0  0  0  0  0  0  0  0  0  0
  -11.4277   -3.0588  -12.0848 C   0  0  0  0  0  0  0  0  0  0  0  0
  -11.1456   -2.6639  -10.8293 N   0  0  0  0  0  0  0  0  0  0  0  0
  -11.3263   -3.5441   -9.8446 C   0  0  0  0  0  0  0  0  0  0  0  0
  -11.7891   -4.7878   -9.9779 N   0  0  0  0  0  0  0  0  0  0  0  0
  -12.0705   -5.1853  -11.2163 C   0  0  0  0  0  0  0  0  0  0  0  0
  -12.5148   -6.4905  -11.3642 C   0  0  0  0  0  0  0  0  0  0  0  0
  -12.7733   -7.0709  -12.6123 C   0  0  0  0  0  0  0  0  0  0  0  0
  -12.6331   -6.2756  -13.7556 C   0  0  0  0  0  0  0  0  0  0  0  0
  -12.2388   -4.9320  -13.6090 C   0  0  0  0  0  0  0  0  0  0  0  0
  -11.9177   -4.3688  -12.3433 C   0  0  0  0  0  0  0  0  0  0  0  0
  -13.1591   -8.3780  -12.7507 O   0  0  0  0  0  0  0  0  0  0  0  0
  -12.4226   -9.3706  -12.0428 C   0  0  0  0  0  0  0  0  0  0  0  0
  -12.8191   -6.6231  -15.0681 O   0  0  0  0  0  0  0  0  0  0  0  0
  -13.9234   -6.0724  -15.7740 C   0  0  0  0  0  0  0  0  0  0  0  0
 19 20  1  0  0  0
 20 13  1  0  0  0
 13 14  1  0  0  0
 13 18  2  0  0  0
 14 15  2  0  0  0
 15 16  1  0  0  0
 16  7  1  0  0  0
 16 17  2  0  0  0
  7  8  1  0  0  0
  7 11  1  0  0  0
  8  9  2  0  0  0
  8 10  1  0  0  0
 10  1  1  0  0  0
 10 12  1  0  0  0
  1  2  1  0  0  0
  1  6  2  0  0  0
  2  3  2  0  0  0
  3  4  1  0  0  0
  4 21  1  0  0  0
  4  5  2  0  0  0
 21 23  1  0  0  0
 21 22  1  0  0  0
 23 24  1  0  0  0
 23 32  2  0  0  0
 24 25  2  0  0  0
 25 26  1  0  0  0
 26 27  2  0  0  0
 27 28  1  0  0  0
 27 32  1  0  0  0
 28 29  2  0  0  0
 29 33  1  0  0  0
 29 30  1  0  0  0
 33 34  1  0  0  0
 30 35  1  0  0  0
 30 31  2  0  0  0
 35 36  1  0  0  0
 31 32  1  0  0  0
  5  6  1  0  0  0
 17 18  1  0  0  0
M  END
> <minimizedAffinity>
-7.40132

$$$$
