CHEMBL275117


 31 33  0  0  0  0  0  0  0  0999 V2000
  -29.0480   -7.5948   -6.0087 C   0  0  0  0  0  0  0  0  0  0  0  0
  -30.1741   -7.2309   -6.7457 C   0  0  0  0  0  0  0  0  0  0  0  0
  -31.1571   -8.0015   -7.5546 C   0  0  0  0  0  0  0  0  0  0  0  0
  -30.3493   -5.8708   -6.6000 N   0  0  0  0  0  0  0  0  0  0  0  0
  -29.4115   -5.3442   -5.7522 C   0  0  0  0  0  0  0  0  0  0  0  0
  -28.5808   -6.3812   -5.3621 C   0  0  0  0  0  0  0  0  0  0  0  0
  -27.4080   -6.2787   -4.4465 C   0  0  0  0  0  0  0  0  0  0  0  0
  -31.0876   -5.3389   -7.0399 H   0  0  0  0  0  0  0  0  0  0  0  0
  -29.4869   -3.9621   -5.4380 C   0  0  0  0  0  0  0  0  0  0  0  0
  -28.9531   -2.9992   -6.2079 C   0  0  0  0  0  0  0  0  0  0  0  0
  -28.2173   -3.1895   -7.5138 C   0  0  0  0  0  0  0  0  0  0  0  0
  -27.9558   -4.2154   -8.1088 O   0  0  0  0  0  0  0  0  0  0  0  0
  -27.9060   -1.9079   -7.9412 N   0  0  0  0  0  0  0  0  0  0  0  0
  -28.3603   -0.9445   -7.0498 C   0  0  0  0  0  0  0  0  0  0  0  0
  -28.2254    0.4229   -7.1897 C   0  0  0  0  0  0  0  0  0  0  0  0
  -28.7445    1.2231   -6.1728 C   0  0  0  0  0  0  0  0  0  0  0  0
  -29.3771    0.6415   -5.0581 C   0  0  0  0  0  0  0  0  0  0  0  0
  -29.5112   -0.7524   -4.9419 C   0  0  0  0  0  0  0  0  0  0  0  0
  -28.9973   -1.5423   -5.9559 C   0  0  0  0  0  0  0  0  0  0  0  0
  -27.4088   -1.7353   -8.8006 H   0  0  0  0  0  0  0  0  0  0  0  0
  -27.5319   -9.3451   -6.7604 N   0  0  0  0  0  0  0  0  0  0  0  0
  -28.4632   -8.9355   -5.8243 C   0  0  0  0  0  0  0  0  0  0  0  0
  -28.7761   -9.6509   -4.8747 O   0  0  0  0  0  0  0  0  0  0  0  0
  -27.0811   -8.6362   -7.3236 H   0  0  0  0  0  0  0  0  0  0  0  0
  -26.8595  -10.6231   -6.6188 C   0  0  0  0  0  0  0  0  0  0  0  0
  -25.3345  -10.5603   -6.8567 C   0  0  0  0  0  0  0  0  0  0  0  0
  -24.5272   -9.8509   -5.8352 N   0  0  0  0  0  0  0  0  0  0  0  0
  -25.2087   -9.1733   -3.5004 C   0  0  0  0  0  0  0  0  0  0  0  0
  -24.8641  -10.2983   -4.4726 C   0  0  0  0  0  0  0  0  0  0  0  0
  -23.0847   -9.9477   -6.1474 C   0  0  0  0  0  0  0  0  0  0  0  0
  -22.3355  -11.1651   -5.6025 C   0  0  0  0  0  0  0  0  0  0  0  0
 28 29  1  0  0  0
 29 27  1  0  0  0
 27 30  1  0  0  0
 27 26  1  0  0  0
 30 31  1  0  0  0
 26 25  1  0  0  0
 25 21  1  0  0  0
 21 22  1  0  0  0
 21 24  1  0  0  0
 22 23  2  0  0  0
 22  1  1  0  0  0
  1  2  2  0  0  0
  1  6  1  0  0  0
  2  3  1  0  0  0
  2  4  1  0  0  0
  4  5  1  0  0  0
  4  8  1  0  0  0
  5  9  1  0  0  0
  5  6  2  0  0  0
  9 10  2  0  0  0
 10 11  1  0  0  0
 10 19  1  0  0  0
 11 12  2  0  0  0
 11 13  1  0  0  0
 13 14  1  0  0  0
 13 20  1  0  0  0
 14 15  1  0  0  0
 14 19  2  0  0  0
 15 16  2  0  0  0
 16 17  1  0  0  0
 17 18  2  0  0  0
 18 19  1  0  0  0
  6  7  1  0  0  0
M  END
> <minimizedAffinity>
-7.40051

$$$$
