CHEMBL2022855


 43 48  0  0  0  0  0  0  0  0999 V2000
  -29.0648   -3.1344   -5.6800 C   0  0  0  0  0  0  0  0  0  0  0  0
  -28.9445   -1.8764   -5.1158 C   0  0  0  0  0  0  0  0  0  0  0  0
  -28.4559   -0.7974   -5.7442 N   0  0  0  0  0  0  0  0  0  0  0  0
  -28.0102   -0.9014   -7.0093 C   0  0  0  0  0  0  0  0  0  0  0  0
  -27.6023    0.3131   -7.5397 N   0  0  0  0  0  0  0  0  0  0  0  0
  -28.0030   -2.1621   -7.6825 C   0  0  0  0  0  0  0  0  0  0  0  0
  -27.4989   -2.5790   -9.0053 C   0  0  0  0  0  0  0  0  0  0  0  0
  -27.7263   -3.9183   -9.2398 C   0  0  0  0  0  0  0  0  0  0  0  0
  -28.5896   -4.6680   -8.0020 S   0  0  0  0  0  0  0  0  0  0  0  0
  -28.5707   -3.2602   -6.9976 C   0  0  0  0  0  0  0  0  0  0  0  0
  -27.8840    1.0670   -6.9228 H   0  0  0  0  0  0  0  0  0  0  0  0
  -27.8166    0.4419   -8.5190 H   0  0  0  0  0  0  0  0  0  0  0  0
  -26.7952   -1.7921  -10.0253 C   0  0  0  0  0  0  0  0  0  0  0  0
  -27.4983   -1.2543  -11.0971 C   0  0  0  0  0  0  0  0  0  0  0  0
  -26.8299   -0.6463  -12.1543 C   0  0  0  0  0  0  0  0  0  0  0  0
  -25.4562   -0.4164  -12.0977 C   0  0  0  0  0  0  0  0  0  0  0  0
  -24.7445   -0.8728  -10.9904 C   0  0  0  0  0  0  0  0  0  0  0  0
  -25.4082   -1.5681   -9.9679 C   0  0  0  0  0  0  0  0  0  0  0  0
  -24.7716    0.2585  -13.1299 N   0  0  0  0  0  0  0  0  0  0  0  0
  -23.4170    0.5225  -13.1011 C   0  0  0  0  0  0  0  0  0  0  0  0
  -22.6366    0.0884  -12.2566 O   0  0  0  0  0  0  0  0  0  0  0  0
  -23.0241    1.3627  -14.1267 N   0  0  0  0  0  0  0  0  0  0  0  0
  -25.2117    0.3005  -14.0383 H   0  0  0  0  0  0  0  0  0  0  0  0
  -23.7077    2.0693  -14.3760 H   0  0  0  0  0  0  0  0  0  0  0  0
  -21.6626    1.6864  -14.3130 C   0  0  0  0  0  0  0  0  0  0  0  0
  -21.1863    2.9908  -14.1158 C   0  0  0  0  0  0  0  0  0  0  0  0
  -19.8520    3.3123  -14.3688 C   0  0  0  0  0  0  0  0  0  0  0  0
  -18.9860    2.3249  -14.8230 C   0  0  0  0  0  0  0  0  0  0  0  0
  -19.4580    1.0286  -15.0012 C   0  0  0  0  0  0  0  0  0  0  0  0
  -18.6261    0.0860  -15.4637 F   0  0  0  0  0  0  0  0  0  0  0  0
  -20.7826    0.6927  -14.7315 C   0  0  0  0  0  0  0  0  0  0  0  0
  -30.1289   -6.3030   -4.3276 N   0  0  0  0  0  0  0  0  0  0  0  0
  -29.3007   -5.5603   -5.1263 C   0  0  0  0  0  0  0  0  0  0  0  0
  -29.6525   -4.2379   -4.9449 C   0  0  0  0  0  0  0  0  0  0  0  0
  -30.6701   -4.2964   -3.9680 C   0  0  0  0  0  0  0  0  0  0  0  0
  -30.9269   -5.5396   -3.5575 N   0  0  0  0  0  0  0  0  0  0  0  0
  -27.4638  -10.2416   -3.6777 C   0  0  0  0  0  0  0  0  0  0  0  0
  -28.4451   -9.3422   -4.2376 N   0  0  0  0  0  0  0  0  0  0  0  0
  -29.2950   -9.7273   -5.3289 C   0  0  0  0  0  0  0  0  0  0  0  0
  -30.1328   -8.4954   -5.6018 C   0  0  0  0  0  0  0  0  0  0  0  0
  -30.1826   -7.7500   -4.2579 C   0  0  0  0  0  0  0  0  0  0  0  0
  -28.9873   -8.3035   -3.5006 C   0  0  0  0  0  0  0  0  0  0  0  0
  -28.6138   -7.9482   -2.3909 O   0  0  0  0  0  0  0  0  0  0  0  0
 37 38  1  0  0  0
 38 39  1  0  0  0
 38 42  1  0  0  0
 39 40  1  0  0  0
 40 41  1  0  0  0
 41 32  1  0  0  0
 41 42  1  0  0  0
 32 33  1  0  0  0
 32 36  1  0  0  0
 33 34  2  0  0  0
 34  1  1  0  0  0
 34 35  1  0  0  0
  1  2  1  0  0  0
  1 10  2  0  0  0
  2  3  2  0  0  0
  3  4  1  0  0  0
  4  5  1  0  0  0
  4  6  2  0  0  0
  5 11  1  0  0  0
  5 12  1  0  0  0
  6  7  1  0  0  0
  6 10  1  0  0  0
  7 13  1  0  0  0
  7  8  2  0  0  0
 13 14  1  0  0  0
 13 18  2  0  0  0
 14 15  2  0  0  0
 15 16  1  0  0  0
 16 19  1  0  0  0
 16 17  2  0  0  0
 19 20  1  0  0  0
 19 23  1  0  0  0
 20 21  2  0  0  0
 20 22  1  0  0  0
 22 25  1  0  0  0
 22 24  1  0  0  0
 25 26  1  0  0  0
 25 31  2  0  0  0
 26 27  2  0  0  0
 27 28  1  0  0  0
 28 29  2  0  0  0
 29 30  1  0  0  0
 29 31  1  0  0  0
 17 18  1  0  0  0
  8  9  1  0  0  0
  9 10  1  0  0  0
 35 36  2  0  0  0
 42 43  2  0  0  0
M  END
> <minimizedAffinity>
-8.01363

$$$$
