CHEMBL1983640


 41 45  0  0  0  0  0  0  0  0999 V2000
  -29.7996   -4.6703   -5.7625 C   0  0  0  0  0  0  0  0  0  0  0  0
  -30.8291   -4.1891   -6.5502 C   0  0  0  0  0  0  0  0  0  0  0  0
  -30.9195   -2.8343   -6.4859 O   0  0  0  0  0  0  0  0  0  0  0  0
  -29.9300   -2.3908   -5.6523 C   0  0  0  0  0  0  0  0  0  0  0  0
  -29.6539   -1.0611   -5.3154 C   0  0  0  0  0  0  0  0  0  0  0  0
  -28.5841   -0.9236   -4.4527 C   0  0  0  0  0  0  0  0  0  0  0  0
  -27.8342   -1.9434   -3.9767 N   0  0  0  0  0  0  0  0  0  0  0  0
  -28.1037   -3.2173   -4.3259 C   0  0  0  0  0  0  0  0  0  0  0  0
  -27.2298   -4.1721   -3.8204 N   0  0  0  0  0  0  0  0  0  0  0  0
  -29.1963   -3.4888   -5.1793 C   0  0  0  0  0  0  0  0  0  0  0  0
  -26.4160   -3.7041   -3.4360 H   0  0  0  0  0  0  0  0  0  0  0  0
  -27.0209   -4.9102   -4.4826 H   0  0  0  0  0  0  0  0  0  0  0  0
  -28.4158   -8.7320   -5.3840 C   0  0  0  0  0  0  0  0  0  0  0  0
  -28.4401   -8.1030   -6.6326 C   0  0  0  0  0  0  0  0  0  0  0  0
  -28.9485   -6.7995   -6.7740 C   0  0  0  0  0  0  0  0  0  0  0  0
  -29.4478   -6.0955   -5.6679 C   0  0  0  0  0  0  0  0  0  0  0  0
  -29.5360   -6.7905   -4.4515 C   0  0  0  0  0  0  0  0  0  0  0  0
  -29.0215   -8.0929   -4.3047 C   0  0  0  0  0  0  0  0  0  0  0  0
  -25.9166  -11.2840   -4.6440 N   0  0  0  0  0  0  0  0  0  0  0  0
  -26.4095   -9.9923   -4.7885 C   0  0  0  0  0  0  0  0  0  0  0  0
  -25.7977   -8.9641   -4.5373 O   0  0  0  0  0  0  0  0  0  0  0  0
  -27.7516   -9.9748   -5.1830 N   0  0  0  0  0  0  0  0  0  0  0  0
  -26.5728  -12.0395   -4.7820 H   0  0  0  0  0  0  0  0  0  0  0  0
  -28.3115  -10.7127   -4.7842 H   0  0  0  0  0  0  0  0  0  0  0  0
  -21.2130  -12.3336   -5.8283 C   0  0  0  0  0  0  0  0  0  0  0  0
  -22.2920  -12.1890   -4.7929 C   0  0  0  0  0  0  0  0  0  0  0  0
  -22.0065  -12.4658   -3.4565 C   0  0  0  0  0  0  0  0  0  0  0  0
  -22.9873  -12.2989   -2.4870 C   0  0  0  0  0  0  0  0  0  0  0  0
  -24.2632  -11.8705   -2.8485 C   0  0  0  0  0  0  0  0  0  0  0  0
  -25.0945  -11.6168   -1.8308 F   0  0  0  0  0  0  0  0  0  0  0  0
  -24.6129  -11.6397   -4.1867 C   0  0  0  0  0  0  0  0  0  0  0  0
  -23.5967  -11.7751   -5.1533 C   0  0  0  0  0  0  0  0  0  0  0  0
  -30.3897    0.0700   -5.7995 C   0  0  0  0  0  0  0  0  0  0  0  0
  -31.0918    1.0769   -6.2391 C   0  0  0  0  0  0  0  0  0  0  0  0
  -31.9103    2.2508   -6.7516 C   0  0  0  0  0  0  0  0  0  0  0  0
  -31.4754    2.6108   -8.1123 N   0  0  0  0  0  0  0  0  0  0  0  0
  -31.2654    4.0670   -8.2484 C   0  0  0  0  0  0  0  0  0  0  0  0
  -32.5707    4.8725   -8.3623 C   0  0  0  0  0  0  0  0  0  0  0  0
  -33.3496    4.4317   -9.4790 O   0  0  0  0  0  0  0  0  0  0  0  0
  -33.6589    3.0378   -9.3689 C   0  0  0  0  0  0  0  0  0  0  0  0
  -32.3940    2.1794   -9.1936 C   0  0  0  0  0  0  0  0  0  0  0  0
 25 26  1  0  0  0
 26 27  1  0  0  0
 26 32  2  0  0  0
 27 28  2  0  0  0
 28 29  1  0  0  0
 29 30  1  0  0  0
 29 31  2  0  0  0
 31 19  1  0  0  0
 31 32  1  0  0  0
 19 20  1  0  0  0
 19 23  1  0  0  0
 20 21  2  0  0  0
 20 22  1  0  0  0
 22 13  1  0  0  0
 22 24  1  0  0  0
 13 14  1  0  0  0
 13 18  2  0  0  0
 14 15  2  0  0  0
 15 16  1  0  0  0
 16  1  1  0  0  0
 16 17  2  0  0  0
  1  2  2  0  0  0
  1 10  1  0  0  0
  2  3  1  0  0  0
  3  4  1  0  0  0
  4  5  1  0  0  0
  4 10  2  0  0  0
  5 33  1  0  0  0
  5  6  2  0  0  0
 33 34  3  0  0  0
 34 35  1  0  0  0
 35 36  1  0  0  0
 36 37  1  0  0  0
 36 41  1  0  0  0
 37 38  1  0  0  0
 38 39  1  0  0  0
 39 40  1  0  0  0
 40 41  1  0  0  0
  6  7  1  0  0  0
  7  8  2  0  0  0
  8  9  1  0  0  0
  8 10  1  0  0  0
  9 11  1  0  0  0
  9 12  1  0  0  0
 17 18  1  0  0  0
M  END
> <minimizedAffinity>
-4.61380

$$$$
