CHEMBL1968791


 37 42  0  0  0  0  0  0  0  0999 V2000
  -28.7302   -5.2631   -8.2626 C   0  0  0  0  0  0  0  0  0  0  0  0
  -28.6161   -4.0152   -7.4499 C   0  0  0  0  0  0  0  0  0  0  0  0
  -28.8544   -3.8109   -6.0895 C   0  0  0  0  0  0  0  0  0  0  0  0
  -28.6253   -2.4141   -5.7973 C   0  0  0  0  0  0  0  0  0  0  0  0
  -28.7164   -1.5502   -4.6792 C   0  0  0  0  0  0  0  0  0  0  0  0
  -29.1273   -1.9148   -3.4020 N   0  0  0  0  0  0  0  0  0  0  0  0
  -28.4050   -0.2483   -4.8282 N   0  0  0  0  0  0  0  0  0  0  0  0
  -28.0065    0.1800   -6.0366 C   0  0  0  0  0  0  0  0  0  0  0  0
  -27.8772   -0.5337   -7.1624 N   0  0  0  0  0  0  0  0  0  0  0  0
  -28.2156   -1.8276   -6.9897 C   0  0  0  0  0  0  0  0  0  0  0  0
  -28.2270   -2.7934   -7.9769 N   0  0  0  0  0  0  0  0  0  0  0  0
  -28.8662   -2.8492   -3.1146 H   0  0  0  0  0  0  0  0  0  0  0  0
  -28.9388   -1.1775   -2.7321 H   0  0  0  0  0  0  0  0  0  0  0  0
  -29.3497   -4.8587   -5.1989 C   0  0  0  0  0  0  0  0  0  0  0  0
  -30.5728   -4.7893   -4.5249 C   0  0  0  0  0  0  0  0  0  0  0  0
  -30.9523   -5.7997   -3.6370 C   0  0  0  0  0  0  0  0  0  0  0  0
  -30.1579   -6.9364   -3.4932 C   0  0  0  0  0  0  0  0  0  0  0  0
  -28.9563   -7.0363   -4.1869 C   0  0  0  0  0  0  0  0  0  0  0  0
  -28.5457   -5.9763   -4.9918 C   0  0  0  0  0  0  0  0  0  0  0  0
  -28.2479   -8.1943   -4.0170 O   0  0  0  0  0  0  0  0  0  0  0  0
  -28.8546   -9.3571   -4.5893 C   0  0  0  0  0  0  0  0  0  0  0  0
  -28.9810   -9.2132   -6.0825 C   0  0  0  0  0  0  0  0  0  0  0  0
  -27.8678   -9.3220   -6.9221 C   0  0  0  0  0  0  0  0  0  0  0  0
  -28.0233   -9.1801   -8.2997 C   0  0  0  0  0  0  0  0  0  0  0  0
  -29.2877   -8.9450   -8.8395 C   0  0  0  0  0  0  0  0  0  0  0  0
  -30.4030   -8.8561   -8.0123 C   0  0  0  0  0  0  0  0  0  0  0  0
  -30.2528   -9.0037   -6.6364 C   0  0  0  0  0  0  0  0  0  0  0  0
  -27.6480   -2.5555   -9.2834 C   0  0  0  0  0  0  0  0  0  0  0  0
  -26.4137   -1.6185   -9.3046 C   0  0  0  0  0  0  0  0  0  0  0  0
  -26.8871   -1.1651  -10.7232 C   0  0  0  0  0  0  0  0  0  0  0  0
  -28.3104   -1.5524  -10.2536 C   0  0  0  0  0  0  0  0  0  0  0  0
  -26.3108   -1.9374  -11.9182 C   0  0  0  0  0  0  0  0  0  0  0  0
  -25.4802   -1.0942  -12.8008 N   0  0  0  0  0  0  0  0  0  0  0  0
  -24.4984   -1.9209  -13.5313 C   0  0  0  0  0  0  0  0  0  0  0  0
  -23.2974   -2.0214  -12.6090 C   0  0  0  0  0  0  0  0  0  0  0  0
  -23.2525   -0.6627  -11.9408 C   0  0  0  0  0  0  0  0  0  0  0  0
  -24.6643   -0.1039  -12.0754 C   0  0  0  0  0  0  0  0  0  0  0  0
  1  2  1  0  0  0
  2  3  2  0  0  0
  2 11  1  0  0  0
  3 14  1  0  0  0
  3  4  1  0  0  0
 14 15  1  0  0  0
 14 19  2  0  0  0
 15 16  2  0  0  0
 16 17  1  0  0  0
 17 18  2  0  0  0
 18 20  1  0  0  0
 18 19  1  0  0  0
 20 21  1  0  0  0
 21 22  1  0  0  0
 22 23  1  0  0  0
 22 27  2  0  0  0
 23 24  2  0  0  0
 24 25  1  0  0  0
 25 26  2  0  0  0
 26 27  1  0  0  0
  4  5  1  0  0  0
  4 10  2  0  0  0
  5  6  1  0  0  0
  5  7  2  0  0  0
  6 12  1  0  0  0
  6 13  1  0  0  0
  7  8  1  0  0  0
  8  9  2  0  0  0
  9 10  1  0  0  0
 10 11  1  0  0  0
 11 28  1  0  0  0
 28 29  1  0  0  0
 28 31  1  0  0  0
 29 30  1  0  0  0
 30 32  1  0  0  0
 30 31  1  0  0  0
 32 33  1  0  0  0
 33 34  1  0  0  0
 33 37  1  0  0  0
 34 35  1  0  0  0
 35 36  1  0  0  0
 36 37  1  0  0  0
M  END
> <minimizedAffinity>
-8.73776

$$$$
