CHEMBL4785888


 28 31  0  0  0  0  0  0  0  0999 V2000
  -25.6040   -8.0112   -3.7889 N   0  0  0  0  0  0  0  0  0  0  0  0
  -25.8368   -9.0066   -4.6811 C   0  0  0  0  0  0  0  0  0  0  0  0
  -24.8600   -9.8182   -5.0220 N   0  0  0  0  0  0  0  0  0  0  0  0
  -25.4107  -10.7857   -5.8134 N   0  0  0  0  0  0  0  0  0  0  0  0
  -26.7830  -10.7289   -5.9178 C   0  0  0  0  0  0  0  0  0  0  0  0
  -27.5009  -11.6158   -6.3271 O   0  0  0  0  0  0  0  0  0  0  0  0
  -27.1217   -9.3952   -5.3553 C   0  0  0  0  0  0  0  0  0  0  0  0
  -28.2527   -8.6852   -5.5289 C   0  0  0  0  0  0  0  0  0  0  0  0
  -28.4279   -7.2594   -5.0394 C   0  0  0  0  0  0  0  0  0  0  0  0
  -27.6299   -6.5927   -4.3983 O   0  0  0  0  0  0  0  0  0  0  0  0
  -29.6659   -6.8394   -5.5096 N   0  0  0  0  0  0  0  0  0  0  0  0
  -30.3017   -7.8588   -6.2349 C   0  0  0  0  0  0  0  0  0  0  0  0
  -31.5351   -7.8002   -6.8688 C   0  0  0  0  0  0  0  0  0  0  0  0
  -31.9694   -8.9197   -7.5760 C   0  0  0  0  0  0  0  0  0  0  0  0
  -31.1635  -10.0561   -7.6513 C   0  0  0  0  0  0  0  0  0  0  0  0
  -31.7002  -11.4214   -8.5536 Cl  0  0  0  0  0  0  0  0  0  0  0  0
  -29.9203  -10.1010   -7.0142 C   0  0  0  0  0  0  0  0  0  0  0  0
  -29.4848   -9.0014   -6.2900 C   0  0  0  0  0  0  0  0  0  0  0  0
  -24.6274   -7.7743   -3.6663 H   0  0  0  0  0  0  0  0  0  0  0  0
  -26.2336   -7.2044   -3.8057 H   0  0  0  0  0  0  0  0  0  0  0  0
  -24.8738  -11.6051   -6.0725 H   0  0  0  0  0  0  0  0  0  0  0  0
  -30.1794   -5.4884   -5.3506 C   0  0  0  0  0  0  0  0  0  0  0  0
  -29.4393   -4.4588   -6.1720 C   0  0  0  0  0  0  0  0  0  0  0  0
  -28.7548   -3.4101   -5.5404 C   0  0  0  0  0  0  0  0  0  0  0  0
  -28.0904   -2.4391   -6.2914 C   0  0  0  0  0  0  0  0  0  0  0  0
  -28.0905   -2.5103   -7.6823 C   0  0  0  0  0  0  0  0  0  0  0  0
  -28.7351   -3.5662   -8.3229 C   0  0  0  0  0  0  0  0  0  0  0  0
  -29.4016   -4.5389   -7.5728 C   0  0  0  0  0  0  0  0  0  0  0  0
  1  2  1  0  0  0
  1 19  1  0  0  0
  1 20  1  0  0  0
  2  3  2  0  0  0
  2  7  1  0  0  0
  3  4  1  0  0  0
  4  5  1  0  0  0
  4 21  1  0  0  0
  5  6  2  0  0  0
  5  7  1  0  0  0
  7  8  2  0  0  0
  8  9  1  0  0  0
  8 18  1  0  0  0
  9 10  2  0  0  0
  9 11  1  0  0  0
 11 22  1  0  0  0
 11 12  1  0  0  0
 22 23  1  0  0  0
 23 24  1  0  0  0
 23 28  2  0  0  0
 24 25  2  0  0  0
 25 26  1  0  0  0
 26 27  2  0  0  0
 27 28  1  0  0  0
 12 13  1  0  0  0
 12 18  2  0  0  0
 13 14  2  0  0  0
 14 15  1  0  0  0
 15 16  1  0  0  0
 15 17  2  0  0  0
 17 18  1  0  0  0
M  END
> <minimizedAffinity>
-8.19161

$$$$
