CHEMBL3926245


 43 48  0  0  0  0  0  0  0  0999 V2000
  -27.9711   -2.1032   -8.5914 N   0  0  0  0  0  0  0  0  0  0  0  0
  -27.4497   -1.5135   -9.8116 C   0  0  0  0  0  0  0  0  0  0  0  0
  -28.2689   -1.7129  -10.9213 C   0  0  0  0  0  0  0  0  0  0  0  0
  -27.7150   -1.7670  -12.1833 C   0  0  0  0  0  0  0  0  0  0  0  0
  -26.3991   -1.4513  -12.4227 C   0  0  0  0  0  0  0  0  0  0  0  0
  -26.0133   -1.7675  -13.6549 N   0  0  0  0  0  0  0  0  0  0  0  0
  -24.8115   -1.3319  -14.0301 C   0  0  0  0  0  0  0  0  0  0  0  0
  -24.0384   -0.5282  -13.2185 C   0  0  0  0  0  0  0  0  0  0  0  0
  -24.3712   -0.3250  -11.8908 N   0  0  0  0  0  0  0  0  0  0  0  0
  -25.5912   -0.8766  -11.4233 C   0  0  0  0  0  0  0  0  0  0  0  0
  -26.1454   -0.9803  -10.0694 C   0  0  0  0  0  0  0  0  0  0  0  0
  -22.9657    0.1844  -13.9150 C   0  0  0  0  0  0  0  0  0  0  0  0
  -21.7161   -0.3052  -14.3928 C   0  0  0  0  0  0  0  0  0  0  0  0
  -20.8531    0.6708  -14.7092 N   0  0  0  0  0  0  0  0  0  0  0  0
  -21.5317    1.7915  -14.4143 N   0  0  0  0  0  0  0  0  0  0  0  0
  -21.0673    3.0787  -14.8776 C   0  0  0  0  0  0  0  0  0  0  0  0
  -22.7127    1.5417  -13.7685 C   0  0  0  0  0  0  0  0  0  0  0  0
  -28.7897    0.2057   -5.7412 C   0  0  0  0  0  0  0  0  0  0  0  0
  -28.4787   -0.6021   -4.6488 C   0  0  0  0  0  0  0  0  0  0  0  0
  -27.9305   -1.8671   -4.8356 C   0  0  0  0  0  0  0  0  0  0  0  0
  -27.7048   -2.3241   -6.1467 C   0  0  0  0  0  0  0  0  0  0  0  0
  -28.0076   -1.5564   -7.2819 C   0  0  0  0  0  0  0  0  0  0  0  0
  -28.5354   -0.2663   -7.0498 C   0  0  0  0  0  0  0  0  0  0  0  0
  -30.6954    1.5851   -6.1786 C   0  0  0  0  0  0  0  0  0  0  0  0
  -29.3753    1.4424   -5.6402 O   0  0  0  0  0  0  0  0  0  0  0  0
  -27.6166   -2.7614   -3.8599 O   0  0  0  0  0  0  0  0  0  0  0  0
  -28.7013   -3.2711   -3.0948 C   0  0  0  0  0  0  0  0  0  0  0  0
  -27.7381   -3.6135   -8.6661 C   0  0  0  0  0  0  0  0  0  0  0  0
  -28.8923   -4.5494   -8.1549 C   0  0  0  0  0  0  0  0  0  0  0  0
  -28.4194   -5.6772   -7.2912 N   0  0  0  0  0  0  0  0  0  0  0  0
  -28.7885   -7.0416   -7.8236 C   0  0  0  0  0  0  0  0  0  0  0  0
  -29.5581   -7.7207   -6.6480 C   0  0  0  0  0  0  0  0  0  0  0  0
  -30.3087   -6.5018   -6.1158 C   0  0  0  0  0  0  0  0  0  0  0  0
  -29.0194   -5.6986   -5.9236 C   0  0  0  0  0  0  0  0  0  0  0  0
  -28.2059   -6.6790   -5.0303 C   0  0  0  0  0  0  0  0  0  0  0  0
  -28.6198   -7.9733   -5.5498 N   0  0  0  0  0  0  0  0  0  0  0  0
  -28.1542   -9.1376   -5.0024 C   0  0  0  0  0  0  0  0  0  0  0  0
  -27.3517   -9.1291   -4.0764 O   0  0  0  0  0  0  0  0  0  0  0  0
  -28.6711  -10.2697   -5.5644 O   0  0  0  0  0  0  0  0  0  0  0  0
  -27.7910  -11.1070   -6.3809 C   0  0  0  0  0  0  0  0  0  0  0  0
  -27.1034  -12.2053   -5.5512 C   0  0  0  0  0  0  0  0  0  0  0  0
  -28.6787  -11.8110   -7.4256 C   0  0  0  0  0  0  0  0  0  0  0  0
  -26.7797  -10.2397   -7.1450 C   0  0  0  0  0  0  0  0  0  0  0  0
 24 25  1  0  0  0
 25 18  1  0  0  0
 18 19  1  0  0  0
 18 23  2  0  0  0
 19 20  2  0  0  0
 20 26  1  0  0  0
 20 21  1  0  0  0
 26 27  1  0  0  0
 21 22  2  0  0  0
 22  1  1  0  0  0
 22 23  1  0  0  0
  1 28  1  0  0  0
  1  2  1  0  0  0
 28 29  1  0  0  0
 29 30  1  0  0  0
 30 31  1  0  0  0
 30 34  1  0  0  0
 31 32  1  0  0  0
 32 33  1  0  0  0
 32 36  1  0  0  0
 33 34  1  0  0  0
 34 35  1  0  0  0
 35 36  1  0  0  0
 36 37  1  0  0  0
 37 38  2  0  0  0
 37 39  1  0  0  0
 39 40  1  0  0  0
 40 41  1  0  0  0
 40 42  1  0  0  0
 40 43  1  0  0  0
  2  3  1  0  0  0
  2 11  2  0  0  0
  3  4  2  0  0  0
  4  5  1  0  0  0
  5  6  1  0  0  0
  5 10  2  0  0  0
  6  7  2  0  0  0
  7  8  1  0  0  0
  8 12  1  0  0  0
  8  9  2  0  0  0
 12 13  1  0  0  0
 12 17  2  0  0  0
 13 14  2  0  0  0
 14 15  1  0  0  0
 15 16  1  0  0  0
 15 17  1  0  0  0
  9 10  1  0  0  0
 10 11  1  0  0  0
M  END
> <minimizedAffinity>
-9.06271

$$$$
