CHEMBL237347


 25 27  0  0  0  0  0  0  0  0999 V2000
  -31.1778   -7.8736   -7.4323 C   0  0  0  0  0  0  0  0  0  0  0  0
  -32.4452   -8.1562   -6.9123 C   0  0  0  0  0  0  0  0  0  0  0  0
  -33.0011   -9.3973   -7.1358 C   0  0  0  0  0  0  0  0  0  0  0  0
  -32.3918  -10.3718   -7.8327 N   0  0  0  0  0  0  0  0  0  0  0  0
  -31.1703  -10.1226   -8.3276 C   0  0  0  0  0  0  0  0  0  0  0  0
  -30.5763  -11.1202   -9.0879 C   0  0  0  0  0  0  0  0  0  0  0  0
  -29.3225  -10.9525   -9.6748 C   0  0  0  0  0  0  0  0  0  0  0  0
  -28.6450   -9.7525   -9.4831 C   0  0  0  0  0  0  0  0  0  0  0  0
  -29.2060   -8.7336   -8.7089 C   0  0  0  0  0  0  0  0  0  0  0  0
  -30.4912   -8.8935   -8.1391 C   0  0  0  0  0  0  0  0  0  0  0  0
  -27.0475   -9.5196  -10.2220 S   0  0  0  0  0  0  0  0  0  0  0  0
  -27.3895   -9.6158  -11.9599 C   0  0  0  0  0  0  0  0  0  0  0  0
  -26.6232   -8.1674   -9.9135 O   0  0  0  0  0  0  0  0  0  0  0  0
  -26.2264  -10.6591   -9.8608 O   0  0  0  0  0  0  0  0  0  0  0  0
  -30.6715   -6.5497   -7.3458 N   0  0  0  0  0  0  0  0  0  0  0  0
  -30.6548   -6.0337   -8.2147 H   0  0  0  0  0  0  0  0  0  0  0  0
  -29.3014   -3.9063   -7.5640 C   0  0  0  0  0  0  0  0  0  0  0  0
  -29.3204   -4.7488   -6.3186 C   0  0  0  0  0  0  0  0  0  0  0  0
  -28.5582   -4.3134   -5.2136 C   0  0  0  0  0  0  0  0  0  0  0  0
  -28.5531   -5.0220   -4.0108 C   0  0  0  0  0  0  0  0  0  0  0  0
  -29.3288   -6.1615   -3.8994 C   0  0  0  0  0  0  0  0  0  0  0  0
  -29.3915   -6.8775   -2.7429 O   0  0  0  0  0  0  0  0  0  0  0  0
  -30.0638   -6.6189   -4.9843 C   0  0  0  0  0  0  0  0  0  0  0  0
  -30.0425   -5.9555   -6.2261 C   0  0  0  0  0  0  0  0  0  0  0  0
  -28.8653   -6.4260   -2.0667 H   0  0  0  0  0  0  0  0  0  0  0  0
 17 18  1  0  0  0
 18 19  1  0  0  0
 18 24  2  0  0  0
 19 20  2  0  0  0
 20 21  1  0  0  0
 21 22  1  0  0  0
 21 23  2  0  0  0
 22 25  1  0  0  0
 23 24  1  0  0  0
 24 15  1  0  0  0
 15  1  1  0  0  0
 15 16  1  0  0  0
  1  2  1  0  0  0
  1 10  2  0  0  0
  2  3  2  0  0  0
  3  4  1  0  0  0
  4  5  2  0  0  0
  5  6  1  0  0  0
  5 10  1  0  0  0
  6  7  2  0  0  0
  7  8  1  0  0  0
  8 11  1  0  0  0
  8  9  2  0  0  0
 11 12  1  0  0  0
 11 13  2  0  0  0
 11 14  2  0  0  0
  9 10  1  0  0  0
M  END
> <minimizedAffinity>
-8.37598

$$$$
