CHEMBL3656044


 39 42  0  0  0  0  0  0  0  0999 V2000
  -29.0754   -3.2936   -7.3093 C   0  0  0  0  0  0  0  0  0  0  0  0
  -28.6341   -2.3976   -6.3392 C   0  0  0  0  0  0  0  0  0  0  0  0
  -27.8053   -1.3633   -6.7356 C   0  0  0  0  0  0  0  0  0  0  0  0
  -27.3566   -1.2003   -7.9980 N   0  0  0  0  0  0  0  0  0  0  0  0
  -27.7496   -2.1223   -8.9108 C   0  0  0  0  0  0  0  0  0  0  0  0
  -28.5991   -3.1782   -8.6109 C   0  0  0  0  0  0  0  0  0  0  0  0
  -27.1859   -1.9248  -10.2405 C   0  0  0  0  0  0  0  0  0  0  0  0
  -25.9112   -1.5936  -10.6651 C   0  0  0  0  0  0  0  0  0  0  0  0
  -25.9262   -1.4385  -12.0814 C   0  0  0  0  0  0  0  0  0  0  0  0
  -27.2171   -1.7277  -12.4871 C   0  0  0  0  0  0  0  0  0  0  0  0
  -27.9598   -2.0232  -11.3760 N   0  0  0  0  0  0  0  0  0  0  0  0
  -28.9480   -2.2453  -11.3524 H   0  0  0  0  0  0  0  0  0  0  0  0
  -24.8213   -0.9886  -12.9142 C   0  0  0  0  0  0  0  0  0  0  0  0
  -24.5247   -1.5191  -13.9797 O   0  0  0  0  0  0  0  0  0  0  0  0
  -24.1081    0.0208  -12.3327 O   0  0  0  0  0  0  0  0  0  0  0  0
  -22.7210    0.0586  -12.6987 C   0  0  0  0  0  0  0  0  0  0  0  0
  -22.5463    1.0545  -13.8546 C   0  0  0  0  0  0  0  0  0  0  0  0
  -23.3054    2.2505  -13.6341 O   0  0  0  0  0  0  0  0  0  0  0  0
  -23.0013    2.6613  -12.8033 H   0  0  0  0  0  0  0  0  0  0  0  0
  -21.0730    1.4146  -14.0612 C   0  0  0  0  0  0  0  0  0  0  0  0
  -20.4495    0.5681  -15.0250 O   0  0  0  0  0  0  0  0  0  0  0  0
  -20.9108   -0.2895  -15.0191 H   0  0  0  0  0  0  0  0  0  0  0  0
  -29.9255   -4.3504   -7.0615 O   0  0  0  0  0  0  0  0  0  0  0  0
  -28.4902   -6.6354   -4.5871 C   0  0  0  0  0  0  0  0  0  0  0  0
  -29.4088   -6.5177   -3.5456 C   0  0  0  0  0  0  0  0  0  0  0  0
  -30.5567   -5.7364   -3.6901 C   0  0  0  0  0  0  0  0  0  0  0  0
  -30.7839   -5.0472   -4.8742 C   0  0  0  0  0  0  0  0  0  0  0  0
  -29.8145   -5.0574   -5.8832 C   0  0  0  0  0  0  0  0  0  0  0  0
  -28.6841   -5.8751   -5.7494 C   0  0  0  0  0  0  0  0  0  0  0  0
  -27.3476   -8.8631   -4.7848 C   0  0  0  0  0  0  0  0  0  0  0  0
  -28.3231   -9.5258   -5.1314 O   0  0  0  0  0  0  0  0  0  0  0  0
  -27.3680   -7.4956   -4.5247 N   0  0  0  0  0  0  0  0  0  0  0  0
  -26.4576   -7.0760   -4.3604 H   0  0  0  0  0  0  0  0  0  0  0  0
  -25.5696  -10.4385   -6.9975 C   0  0  0  0  0  0  0  0  0  0  0  0
  -25.2466  -10.1489   -5.5755 C   0  0  0  0  0  0  0  0  0  0  0  0
  -24.0650  -10.5226   -4.8784 C   0  0  0  0  0  0  0  0  0  0  0  0
  -24.1942  -10.0382   -3.5998 C   0  0  0  0  0  0  0  0  0  0  0  0
  -25.3751   -9.3860   -3.4543 O   0  0  0  0  0  0  0  0  0  0  0  0
  -26.0291   -9.4589   -4.6562 C   0  0  0  0  0  0  0  0  0  0  0  0
 34 35  1  0  0  0
 35 36  1  0  0  0
 35 39  2  0  0  0
 36 37  2  0  0  0
 37 38  1  0  0  0
 38 39  1  0  0  0
 39 30  1  0  0  0
 30 31  2  0  0  0
 30 32  1  0  0  0
 32 24  1  0  0  0
 32 33  1  0  0  0
 24 25  1  0  0  0
 24 29  2  0  0  0
 25 26  2  0  0  0
 26 27  1  0  0  0
 27 28  2  0  0  0
 28 23  1  0  0  0
 28 29  1  0  0  0
 23  1  1  0  0  0
  1  2  1  0  0  0
  1  6  2  0  0  0
  2  3  2  0  0  0
  3  4  1  0  0  0
  4  5  2  0  0  0
  5  7  1  0  0  0
  5  6  1  0  0  0
  7  8  2  0  0  0
  7 11  1  0  0  0
  8  9  1  0  0  0
  9 13  1  0  0  0
  9 10  2  0  0  0
 13 14  2  0  0  0
 13 15  1  0  0  0
 15 16  1  0  0  0
 16 17  1  0  0  0
 17 18  1  0  0  0
 17 20  1  0  0  0
 18 19  1  0  0  0
 20 21  1  0  0  0
 21 22  1  0  0  0
 10 11  1  0  0  0
 11 12  1  0  0  0
M  END
> <minimizedAffinity>
-9.34712

$$$$
