CHEMBL179593


 35 38  0  0  0  0  0  0  0  0999 V2000
  -25.5534   -1.6046  -12.7139 C   0  0  0  0  0  0  0  0  0  0  0  0
  -25.2206   -1.6960  -11.3515 C   0  0  0  0  0  0  0  0  0  0  0  0
  -26.1289   -1.7019  -10.2536 C   0  0  0  0  0  0  0  0  0  0  0  0
  -27.4868   -1.6355  -10.3882 C   0  0  0  0  0  0  0  0  0  0  0  0
  -27.8990   -1.5512  -11.8179 C   0  0  0  0  0  0  0  0  0  0  0  0
  -26.9259   -1.5785  -12.9650 C   0  0  0  0  0  0  0  0  0  0  0  0
  -22.5649   -0.2950  -14.5854 N   0  0  0  0  0  0  0  0  0  0  0  0
  -23.5836   -0.3890  -13.6256 C   0  0  0  0  0  0  0  0  0  0  0  0
  -23.6895    0.4038  -12.6925 O   0  0  0  0  0  0  0  0  0  0  0  0
  -24.4934   -1.4459  -13.7146 N   0  0  0  0  0  0  0  0  0  0  0  0
  -22.4460   -1.0173  -15.2828 H   0  0  0  0  0  0  0  0  0  0  0  0
  -24.4298   -2.1217  -14.4632 H   0  0  0  0  0  0  0  0  0  0  0  0
  -19.5566    2.8074  -14.7441 C   0  0  0  0  0  0  0  0  0  0  0  0
  -19.2592    1.5051  -15.0860 C   0  0  0  0  0  0  0  0  0  0  0  0
  -20.2359    0.5102  -14.9862 C   0  0  0  0  0  0  0  0  0  0  0  0
  -21.5482    0.7468  -14.5592 C   0  0  0  0  0  0  0  0  0  0  0  0
  -21.8222    2.0604  -14.1454 C   0  0  0  0  0  0  0  0  0  0  0  0
  -20.8495    3.0897  -14.2936 C   0  0  0  0  0  0  0  0  0  0  0  0
  -17.4785    3.6138  -15.5380 C   0  0  0  0  0  0  0  0  0  0  0  0
  -18.6235    3.8070  -14.7049 O   0  0  0  0  0  0  0  0  0  0  0  0
  -28.2520   -1.6275   -9.1274 O   0  0  0  0  0  0  0  0  0  0  0  0
  -27.8510   -1.0832   -7.8031 C   0  0  0  0  0  0  0  0  0  0  0  0
  -27.4318   -0.5300   -6.3271 C   0  0  0  0  0  0  0  0  0  0  0  0
  -27.4843   -1.0309   -5.0443 C   0  0  0  0  0  0  0  0  0  0  0  0
  -28.5274   -1.6534   -5.3876 N   0  0  0  0  0  0  0  0  0  0  0  0
  -28.2870   -2.7200   -6.0359 C   0  0  0  0  0  0  0  0  0  0  0  0
  -28.3947   -3.7651   -5.1960 C   0  0  0  0  0  0  0  0  0  0  0  0
  -28.9887   -4.8917   -5.6305 C   0  0  0  0  0  0  0  0  0  0  0  0
  -29.2828   -4.9834   -7.0028 C   0  0  0  0  0  0  0  0  0  0  0  0
  -29.0390   -3.8359   -7.8552 C   0  0  0  0  0  0  0  0  0  0  0  0
  -28.3913   -2.5525   -7.3655 C   0  0  0  0  0  0  0  0  0  0  0  0
  -29.3283   -5.8149   -4.6787 O   0  0  0  0  0  0  0  0  0  0  0  0
  -30.5031   -5.5369   -3.9067 C   0  0  0  0  0  0  0  0  0  0  0  0
  -29.8029   -6.1233   -7.5812 O   0  0  0  0  0  0  0  0  0  0  0  0
  -28.8061   -7.0651   -7.9848 C   0  0  0  0  0  0  0  0  0  0  0  0
 19 20  1  0  0  0
 20 13  1  0  0  0
 13 14  1  0  0  0
 13 18  2  0  0  0
 14 15  2  0  0  0
 15 16  1  0  0  0
 16  7  1  0  0  0
 16 17  2  0  0  0
  7  8  1  0  0  0
  7 11  1  0  0  0
  8  9  2  0  0  0
  8 10  1  0  0  0
 10  1  1  0  0  0
 10 12  1  0  0  0
  1  2  1  0  0  0
  1  6  2  0  0  0
  2  3  2  0  0  0
  3  4  1  0  0  0
  4 21  1  0  0  0
  4  5  2  0  0  0
 21 22  1  0  0  0
 22 23  1  0  0  0
 22 31  2  0  0  0
 23 24  2  0  0  0
 24 25  1  0  0  0
 25 26  2  0  0  0
 26 27  1  0  0  0
 26 31  1  0  0  0
 27 28  2  0  0  0
 28 32  1  0  0  0
 28 29  1  0  0  0
 32 33  1  0  0  0
 29 34  1  0  0  0
 29 30  2  0  0  0
 34 35  1  0  0  0
 30 31  1  0  0  0
  5  6  1  0  0  0
 17 18  1  0  0  0
M  END
> <minimizedAffinity>
-10.24950

$$$$
