CHEMBL394577


 37 40  0  0  0  0  0  0  0  0999 V2000
  -12.9011   -0.0312  -17.0265 C   0  0  0  0  0  0  0  0  0  0  0  0
  -11.8582    0.7991  -16.9371 N   0  0  0  0  0  0  0  0  0  0  0  0
  -12.1077    2.0207  -16.4200 C   0  0  0  0  0  0  0  0  0  0  0  0
  -13.3494    2.4533  -15.9997 C   0  0  0  0  0  0  0  0  0  0  0  0
  -14.3813    1.5415  -16.1341 C   0  0  0  0  0  0  0  0  0  0  0  0
  -14.1436    0.3083  -16.6447 N   0  0  0  0  0  0  0  0  0  0  0  0
  -15.8132    1.7817  -15.8132 C   0  0  0  0  0  0  0  0  0  0  0  0
  -16.4730    2.9251  -16.3058 C   0  0  0  0  0  0  0  0  0  0  0  0
  -17.8109    3.2122  -15.9889 C   0  0  0  0  0  0  0  0  0  0  0  0
  -18.5555    2.3660  -15.1562 C   0  0  0  0  0  0  0  0  0  0  0  0
  -17.9133    1.2038  -14.6984 C   0  0  0  0  0  0  0  0  0  0  0  0
  -16.5842    0.9096  -15.0346 C   0  0  0  0  0  0  0  0  0  0  0  0
  -20.0010    2.6554  -14.7296 C   0  0  0  0  0  0  0  0  0  0  0  0
  -20.8438    3.1065  -15.9372 C   0  0  0  0  0  0  0  0  0  0  0  0
  -20.6263    1.3957  -14.0951 C   0  0  0  0  0  0  0  0  0  0  0  0
  -20.1091    3.7248  -13.7264 N   0  0  0  0  0  0  0  0  0  0  0  0
  -19.7111    4.5847  -14.0992 H   0  0  0  0  0  0  0  0  0  0  0  0
  -19.5769    3.4715  -12.8970 H   0  0  0  0  0  0  0  0  0  0  0  0
  -12.6645   -1.3052  -17.5520 N   0  0  0  0  0  0  0  0  0  0  0  0
  -12.9306   -1.2885  -18.5290 H   0  0  0  0  0  0  0  0  0  0  0  0
  -13.6915   -4.9080  -15.5754 C   0  0  0  0  0  0  0  0  0  0  0  0
  -13.6509   -4.8442  -16.9733 C   0  0  0  0  0  0  0  0  0  0  0  0
  -13.2903   -3.6682  -17.6248 C   0  0  0  0  0  0  0  0  0  0  0  0
  -13.0112   -2.5050  -16.9047 C   0  0  0  0  0  0  0  0  0  0  0  0
  -13.0098   -2.5696  -15.5095 C   0  0  0  0  0  0  0  0  0  0  0  0
  -13.3687   -3.7520  -14.8497 C   0  0  0  0  0  0  0  0  0  0  0  0
  -14.1206   -6.1662  -14.8438 C   0  0  0  0  0  0  0  0  0  0  0  0
  -13.7008   -6.1866  -13.3597 C   0  0  0  0  0  0  0  0  0  0  0  0
  -15.7998   -2.9581  -10.4379 C   0  0  0  0  0  0  0  0  0  0  0  0
  -15.7196   -4.3679  -10.8008 N   0  0  0  0  0  0  0  0  0  0  0  0
  -16.1320   -4.5849  -12.1986 C   0  0  0  0  0  0  0  0  0  0  0  0
  -16.0425   -6.0784  -12.5822 C   0  0  0  0  0  0  0  0  0  0  0  0
  -14.7054   -6.6777  -12.4032 N   0  0  0  0  0  0  0  0  0  0  0  0
  -14.2557   -6.3936  -11.0149 C   0  0  0  0  0  0  0  0  0  0  0  0
  -14.3664   -4.9076  -10.5816 C   0  0  0  0  0  0  0  0  0  0  0  0
  -13.4852    3.7775  -15.4956 C   0  0  0  0  0  0  0  0  0  0  0  0
  -13.6158    4.8673  -15.1206 N   0  0  0  0  0  0  0  0  0  0  0  0
 29 30  1  0  0  0
 30 31  1  0  0  0
 30 35  1  0  0  0
 31 32  1  0  0  0
 32 33  1  0  0  0
 33 28  1  0  0  0
 33 34  1  0  0  0
 28 27  1  0  0  0
 27 21  1  0  0  0
 21 22  1  0  0  0
 21 26  2  0  0  0
 22 23  2  0  0  0
 23 24  1  0  0  0
 24 19  1  0  0  0
 24 25  2  0  0  0
 19  1  1  0  0  0
 19 20  1  0  0  0
  1  2  1  0  0  0
  1  6  2  0  0  0
  2  3  2  0  0  0
  3  4  1  0  0  0
  4 36  1  0  0  0
  4  5  2  0  0  0
 36 37  3  0  0  0
  5  7  1  0  0  0
  5  6  1  0  0  0
  7  8  1  0  0  0
  7 12  2  0  0  0
  8  9  2  0  0  0
  9 10  1  0  0  0
 10 13  1  0  0  0
 10 11  2  0  0  0
 13 14  1  0  0  0
 13 15  1  0  0  0
 13 16  1  0  0  0
 16 17  1  0  0  0
 16 18  1  0  0  0
 11 12  1  0  0  0
 25 26  1  0  0  0
 34 35  1  0  0  0
M  END
> <minimizedAffinity>
-7.76617

$$$$
