CHEMBL390467


 26 29  0  0  0  0  0  0  0  0999 V2000
  -27.4479   -1.7681  -11.8480 C   0  0  0  0  0  0  0  0  0  0  0  0
  -28.5623   -2.0058  -11.0696 C   0  0  0  0  0  0  0  0  0  0  0  0
  -28.5682   -1.9813   -9.7212 N   0  0  0  0  0  0  0  0  0  0  0  0
  -27.3937   -1.7527   -9.1263 C   0  0  0  0  0  0  0  0  0  0  0  0
  -26.2638   -1.4998   -9.8080 N   0  0  0  0  0  0  0  0  0  0  0  0
  -26.2833   -1.4722  -11.1647 C   0  0  0  0  0  0  0  0  0  0  0  0
  -24.9768   -1.1000  -11.7712 C   0  0  0  0  0  0  0  0  0  0  0  0
  -24.6391    0.2529  -11.9862 C   0  0  0  0  0  0  0  0  0  0  0  0
  -23.4209    0.6264  -12.5680 C   0  0  0  0  0  0  0  0  0  0  0  0
  -22.5024   -0.3464  -12.9462 C   0  0  0  0  0  0  0  0  0  0  0  0
  -22.8134   -1.6884  -12.7673 C   0  0  0  0  0  0  0  0  0  0  0  0
  -24.0415   -2.0568  -12.2077 C   0  0  0  0  0  0  0  0  0  0  0  0
  -27.6719   -1.8949  -14.4175 N   0  0  0  0  0  0  0  0  0  0  0  0
  -27.5633   -1.8544  -13.2624 C   0  0  0  0  0  0  0  0  0  0  0  0
  -27.3732   -1.7506   -7.7359 N   0  0  0  0  0  0  0  0  0  0  0  0
  -26.8187   -0.9892   -7.3731 H   0  0  0  0  0  0  0  0  0  0  0  0
  -28.3092   -2.3129   -6.8557 C   0  0  0  0  0  0  0  0  0  0  0  0
  -28.8576   -1.5260   -5.8408 C   0  0  0  0  0  0  0  0  0  0  0  0
  -29.7252   -2.0825   -4.8950 C   0  0  0  0  0  0  0  0  0  0  0  0
  -30.0762   -3.4405   -4.9511 C   0  0  0  0  0  0  0  0  0  0  0  0
  -30.9357   -4.0225   -4.0070 C   0  0  0  0  0  0  0  0  0  0  0  0
  -31.2699   -5.3754   -4.0861 C   0  0  0  0  0  0  0  0  0  0  0  0
  -30.7509   -6.1638   -5.1098 C   0  0  0  0  0  0  0  0  0  0  0  0
  -29.8929   -5.6005   -6.0537 C   0  0  0  0  0  0  0  0  0  0  0  0
  -29.5451   -4.2418   -5.9839 C   0  0  0  0  0  0  0  0  0  0  0  0
  -28.6694   -3.6662   -6.9155 C   0  0  0  0  0  0  0  0  0  0  0  0
 13 14  3  0  0  0
 14  1  1  0  0  0
  1  2  1  0  0  0
  1  6  2  0  0  0
  2  3  2  0  0  0
  3  4  1  0  0  0
  4 15  1  0  0  0
  4  5  2  0  0  0
 15 17  1  0  0  0
 15 16  1  0  0  0
 17 18  1  0  0  0
 17 26  2  0  0  0
 18 19  2  0  0  0
 19 20  1  0  0  0
 20 21  1  0  0  0
 20 25  2  0  0  0
 21 22  2  0  0  0
 22 23  1  0  0  0
 23 24  2  0  0  0
 24 25  1  0  0  0
 25 26  1  0  0  0
  5  6  1  0  0  0
  6  7  1  0  0  0
  7  8  1  0  0  0
  7 12  2  0  0  0
  8  9  2  0  0  0
  9 10  1  0  0  0
 10 11  2  0  0  0
 11 12  1  0  0  0
M  END
> <minimizedAffinity>
-8.52342

$$$$
