CHEMBL147138


 23 25  0  0  0  0  0  0  0  0999 V2000
  -29.5945   -4.7823   -5.6814 C   0  0  0  0  0  0  0  0  0  0  0  0
  -28.9826   -3.5664   -5.3165 C   0  0  0  0  0  0  0  0  0  0  0  0
  -28.4679   -2.6789   -6.2568 C   0  0  0  0  0  0  0  0  0  0  0  0
  -27.9960   -1.4959   -5.8388 N   0  0  0  0  0  0  0  0  0  0  0  0
  -27.5693   -0.6614   -6.7901 C   0  0  0  0  0  0  0  0  0  0  0  0
  -27.5665   -0.8969   -8.1027 N   0  0  0  0  0  0  0  0  0  0  0  0
  -28.0395   -2.0930   -8.5084 C   0  0  0  0  0  0  0  0  0  0  0  0
  -28.4913   -3.0515   -7.5918 C   0  0  0  0  0  0  0  0  0  0  0  0
  -28.9638   -4.3304   -7.9528 C   0  0  0  0  0  0  0  0  0  0  0  0
  -29.5352   -5.1945   -7.0146 C   0  0  0  0  0  0  0  0  0  0  0  0
  -29.3837   -6.1832   -3.7781 C   0  0  0  0  0  0  0  0  0  0  0  0
  -30.2331   -5.5592   -4.7504 O   0  0  0  0  0  0  0  0  0  0  0  0
  -28.1045   -2.3769   -9.9019 N   0  0  0  0  0  0  0  0  0  0  0  0
  -29.0575   -2.2492  -10.2258 H   0  0  0  0  0  0  0  0  0  0  0  0
  -27.1459   -1.9424  -10.8389 C   0  0  0  0  0  0  0  0  0  0  0  0
  -27.4659   -1.8943  -12.2024 C   0  0  0  0  0  0  0  0  0  0  0  0
  -26.5010   -1.5733  -13.1546 C   0  0  0  0  0  0  0  0  0  0  0  0
  -25.2051   -1.2844  -12.7421 C   0  0  0  0  0  0  0  0  0  0  0  0
  -23.9893   -0.9744  -13.9186 Cl  0  0  0  0  0  0  0  0  0  0  0  0
  -24.8813   -1.2677  -11.3854 C   0  0  0  0  0  0  0  0  0  0  0  0
  -25.8538   -1.5883  -10.4330 C   0  0  0  0  0  0  0  0  0  0  0  0
  -29.9758   -6.3305   -7.6248 O   0  0  0  0  0  0  0  0  0  0  0  0
  -29.1866   -7.5022   -7.6512 C   0  0  0  0  0  0  0  0  0  0  0  0
 11 12  1  0  0  0
 12  1  1  0  0  0
  1  2  1  0  0  0
  1 10  2  0  0  0
  2  3  2  0  0  0
  3  4  1  0  0  0
  3  8  1  0  0  0
  4  5  2  0  0  0
  5  6  1  0  0  0
  6  7  2  0  0  0
  7 13  1  0  0  0
  7  8  1  0  0  0
 13 15  1  0  0  0
 13 14  1  0  0  0
 15 16  1  0  0  0
 15 21  2  0  0  0
 16 17  2  0  0  0
 17 18  1  0  0  0
 18 19  1  0  0  0
 18 20  2  0  0  0
 20 21  1  0  0  0
  8  9  2  0  0  0
  9 10  1  0  0  0
 10 22  1  0  0  0
 22 23  1  0  0  0
M  END
> <minimizedAffinity>
-7.77628

$$$$
