CHEMBL3947990


 32 36  0  0  0  0  0  0  0  0999 V2000
  -14.9415    2.9334  -16.2141 N   0  0  0  0  0  0  0  0  0  0  0  0
  -16.3482    2.6614  -16.1138 C   0  0  0  0  0  0  0  0  0  0  0  0
  -17.0980    3.8131  -16.0890 C   0  0  0  0  0  0  0  0  0  0  0  0
  -18.1863    3.8166  -15.2523 C   0  0  0  0  0  0  0  0  0  0  0  0
  -18.7332    2.6465  -14.7938 C   0  0  0  0  0  0  0  0  0  0  0  0
  -19.6609    3.1052  -14.0364 N   0  0  0  0  0  0  0  0  0  0  0  0
  -20.7986    2.5057  -14.2172 C   0  0  0  0  0  0  0  0  0  0  0  0
  -20.9177    1.1670  -14.4554 C   0  0  0  0  0  0  0  0  0  0  0  0
  -19.7417    0.5042  -14.8771 N   0  0  0  0  0  0  0  0  0  0  0  0
  -18.5121    1.3570  -15.2307 C   0  0  0  0  0  0  0  0  0  0  0  0
  -17.0798    1.4108  -15.8314 C   0  0  0  0  0  0  0  0  0  0  0  0
  -22.2355    0.7817  -13.7536 C   0  0  0  0  0  0  0  0  0  0  0  0
  -23.2388    0.0685  -14.5619 C   0  0  0  0  0  0  0  0  0  0  0  0
  -23.8295   -0.9615  -13.9630 N   0  0  0  0  0  0  0  0  0  0  0  0
  -23.3429   -0.9329  -12.7194 N   0  0  0  0  0  0  0  0  0  0  0  0
  -23.7630   -2.0127  -11.8394 C   0  0  0  0  0  0  0  0  0  0  0  0
  -22.4020    0.0842  -12.5370 C   0  0  0  0  0  0  0  0  0  0  0  0
  -12.0442    3.8645  -13.9415 C   0  0  0  0  0  0  0  0  0  0  0  0
  -12.1093    2.8089  -13.0448 C   0  0  0  0  0  0  0  0  0  0  0  0
  -12.9934    1.7523  -13.2776 C   0  0  0  0  0  0  0  0  0  0  0  0
  -13.8596    1.7550  -14.3736 C   0  0  0  0  0  0  0  0  0  0  0  0
  -13.8931    2.8358  -15.2524 C   0  0  0  0  0  0  0  0  0  0  0  0
  -12.9022    3.8489  -15.0544 C   0  0  0  0  0  0  0  0  0  0  0  0
  -11.5372    6.0842  -14.6318 C   0  0  0  0  0  0  0  0  0  0  0  0
  -11.2067    4.9460  -13.8349 O   0  0  0  0  0  0  0  0  0  0  0  0
  -14.4667    2.9944  -17.6642 C   0  0  0  0  0  0  0  0  0  0  0  0
  -14.6558    4.3235  -18.2960 C   0  0  0  0  0  0  0  0  0  0  0  0
  -14.3158    5.5817  -17.8849 C   0  0  0  0  0  0  0  0  0  0  0  0
  -14.6469    6.4075  -18.9671 C   0  0  0  0  0  0  0  0  0  0  0  0
  -14.3770    7.8548  -19.0792 C   0  0  0  0  0  0  0  0  0  0  0  0
  -15.2280    5.7133  -19.9552 N   0  0  0  0  0  0  0  0  0  0  0  0
  -15.2192    4.3857  -19.5322 O   0  0  0  0  0  0  0  0  0  0  0  0
 24 25  1  0  0  0
 25 18  1  0  0  0
 18 19  1  0  0  0
 18 23  2  0  0  0
 19 20  2  0  0  0
 20 21  1  0  0  0
 21 22  2  0  0  0
 22  1  1  0  0  0
 22 23  1  0  0  0
  1 26  1  0  0  0
  1  2  1  0  0  0
 26 27  1  0  0  0
 27 28  2  0  0  0
 27 32  1  0  0  0
 28 29  1  0  0  0
 29 30  1  0  0  0
 29 31  2  0  0  0
 31 32  1  0  0  0
  2  3  1  0  0  0
  2 11  2  0  0  0
  3  4  2  0  0  0
  4  5  1  0  0  0
  5  6  1  0  0  0
  5 10  2  0  0  0
  6  7  2  0  0  0
  7  8  1  0  0  0
  8 12  1  0  0  0
  8  9  2  0  0  0
 12 13  1  0  0  0
 12 17  2  0  0  0
 13 14  2  0  0  0
 14 15  1  0  0  0
 15 16  1  0  0  0
 15 17  1  0  0  0
  9 10  1  0  0  0
 10 11  1  0  0  0
M  END
> <minimizedAffinity>
-8.43331

$$$$
