CHEMBL1254002


 29 32  0  0  0  0  0  0  0  0999 V2000
  -16.9814    2.1546  -15.7646 C   0  0  0  0  0  0  0  0  0  0  0  0
  -17.7003    3.3456  -15.8178 C   0  0  0  0  0  0  0  0  0  0  0  0
  -19.0247    3.3914  -15.3767 C   0  0  0  0  0  0  0  0  0  0  0  0
  -19.6695    2.2493  -14.8908 C   0  0  0  0  0  0  0  0  0  0  0  0
  -18.9439    1.0551  -14.8308 C   0  0  0  0  0  0  0  0  0  0  0  0
  -17.6112    1.0082  -15.2708 C   0  0  0  0  0  0  0  0  0  0  0  0
  -21.0162    2.2465  -14.4508 N   0  0  0  0  0  0  0  0  0  0  0  0
  -21.6987    1.1337  -13.9911 C   0  0  0  0  0  0  0  0  0  0  0  0
  -21.1857    0.0365  -13.8009 O   0  0  0  0  0  0  0  0  0  0  0  0
  -23.0556    1.3793  -13.8081 N   0  0  0  0  0  0  0  0  0  0  0  0
  -21.4642    3.1414  -14.3194 H   0  0  0  0  0  0  0  0  0  0  0  0
  -23.4501    2.0272  -14.4742 H   0  0  0  0  0  0  0  0  0  0  0  0
  -23.8846    0.2927  -13.4295 C   0  0  0  0  0  0  0  0  0  0  0  0
  -24.3318   -0.6365  -14.3774 C   0  0  0  0  0  0  0  0  0  0  0  0
  -25.3084   -1.5727  -14.0433 C   0  0  0  0  0  0  0  0  0  0  0  0
  -25.8332   -1.5911  -12.7544 C   0  0  0  0  0  0  0  0  0  0  0  0
  -25.3458   -0.7073  -11.7896 C   0  0  0  0  0  0  0  0  0  0  0  0
  -24.3512    0.2191  -12.1171 C   0  0  0  0  0  0  0  0  0  0  0  0
  -15.3441    2.1218  -16.4476 S   0  0  0  0  0  0  0  0  0  0  0  0
  -13.5881    4.6888  -15.4852 C   0  0  0  0  0  0  0  0  0  0  0  0
  -12.9941    3.6861  -14.6233 N   0  0  0  0  0  0  0  0  0  0  0  0
  -11.9663    3.9645  -13.7616 C   0  0  0  0  0  0  0  0  0  0  0  0
  -11.6767    2.8107  -13.0637 C   0  0  0  0  0  0  0  0  0  0  0  0
  -12.5570    1.8075  -13.5235 C   0  0  0  0  0  0  0  0  0  0  0  0
  -12.6415    0.5239  -13.1147 N   0  0  0  0  0  0  0  0  0  0  0  0
  -13.5801   -0.1762  -13.7589 C   0  0  0  0  0  0  0  0  0  0  0  0
  -14.3994    0.2497  -14.7320 N   0  0  0  0  0  0  0  0  0  0  0  0
  -14.3079    1.5365  -15.1415 C   0  0  0  0  0  0  0  0  0  0  0  0
  -13.3705    2.3603  -14.5136 C   0  0  0  0  0  0  0  0  0  0  0  0
 20 21  1  0  0  0
 21 22  1  0  0  0
 21 29  1  0  0  0
 22 23  2  0  0  0
 23 24  1  0  0  0
 24 25  1  0  0  0
 24 29  2  0  0  0
 25 26  2  0  0  0
 26 27  1  0  0  0
 27 28  2  0  0  0
 28 19  1  0  0  0
 28 29  1  0  0  0
 19  1  1  0  0  0
  1  2  1  0  0  0
  1  6  2  0  0  0
  2  3  2  0  0  0
  3  4  1  0  0  0
  4  7  1  0  0  0
  4  5  2  0  0  0
  7  8  1  0  0  0
  7 11  1  0  0  0
  8  9  2  0  0  0
  8 10  1  0  0  0
 10 13  1  0  0  0
 10 12  1  0  0  0
 13 14  1  0  0  0
 13 18  2  0  0  0
 14 15  2  0  0  0
 15 16  1  0  0  0
 16 17  2  0  0  0
 17 18  1  0  0  0
  5  6  1  0  0  0
M  END
> <minimizedAffinity>
-8.98986

$$$$
