CHEMBL244486


 44 48  0  0  0  0  0  0  0  0999 V2000
  -18.9988    1.4024  -14.9878 C   0  0  0  0  0  0  0  0  0  0  0  0
  -19.8061    0.2718  -15.1041 C   0  0  0  0  0  0  0  0  0  0  0  0
  -21.1777    0.3204  -14.8277 C   0  0  0  0  0  0  0  0  0  0  0  0
  -21.7403    1.4833  -14.3284 C   0  0  0  0  0  0  0  0  0  0  0  0
  -20.9356    2.6178  -14.1669 C   0  0  0  0  0  0  0  0  0  0  0  0
  -19.5644    2.5806  -14.4897 C   0  0  0  0  0  0  0  0  0  0  0  0
  -16.6724    1.0449  -13.3556 O   0  0  0  0  0  0  0  0  0  0  0  0
  -16.5675    1.2102  -14.5600 C   0  0  0  0  0  0  0  0  0  0  0  0
  -17.6409    1.4203  -15.4102 N   0  0  0  0  0  0  0  0  0  0  0  0
  -15.3532    1.1710  -15.2156 N   0  0  0  0  0  0  0  0  0  0  0  0
  -17.4680    1.3531  -16.3954 H   0  0  0  0  0  0  0  0  0  0  0  0
  -15.3176    1.4569  -16.1841 H   0  0  0  0  0  0  0  0  0  0  0  0
  -14.1084    0.8456  -14.6171 C   0  0  0  0  0  0  0  0  0  0  0  0
  -13.7184   -0.4569  -14.2730 C   0  0  0  0  0  0  0  0  0  0  0  0
  -12.4672   -0.7243  -13.6889 C   0  0  0  0  0  0  0  0  0  0  0  0
  -11.5877    0.3416  -13.4586 C   0  0  0  0  0  0  0  0  0  0  0  0
  -11.9574    1.6439  -13.8018 C   0  0  0  0  0  0  0  0  0  0  0  0
  -13.2061    1.8836  -14.3725 C   0  0  0  0  0  0  0  0  0  0  0  0
  -13.5405    3.1421  -14.6997 F   0  0  0  0  0  0  0  0  0  0  0  0
  -12.0831   -2.1391  -13.3200 C   0  0  0  0  0  0  0  0  0  0  0  0
  -11.6896   -2.2933  -12.0316 F   0  0  0  0  0  0  0  0  0  0  0  0
  -13.1097   -3.0168  -13.5034 F   0  0  0  0  0  0  0  0  0  0  0  0
  -11.0535   -2.6069  -14.0799 F   0  0  0  0  0  0  0  0  0  0  0  0
  -23.0764    1.6363  -14.0495 O   0  0  0  0  0  0  0  0  0  0  0  0
  -23.8054    0.6082  -13.4806 C   0  0  0  0  0  0  0  0  0  0  0  0
  -24.2492   -0.3624  -14.3858 C   0  0  0  0  0  0  0  0  0  0  0  0
  -25.0711   -1.4151  -13.9687 C   0  0  0  0  0  0  0  0  0  0  0  0
  -25.4340   -1.4924  -12.6180 C   0  0  0  0  0  0  0  0  0  0  0  0
  -26.1725   -2.4529  -11.9778 N   0  0  0  0  0  0  0  0  0  0  0  0
  -26.2993   -2.0327  -10.7422 C   0  0  0  0  0  0  0  0  0  0  0  0
  -25.6075   -0.8632  -10.5376 N   0  0  0  0  0  0  0  0  0  0  0  0
  -25.0193   -0.5030  -11.7319 C   0  0  0  0  0  0  0  0  0  0  0  0
  -24.1989    0.5707  -12.1286 C   0  0  0  0  0  0  0  0  0  0  0  0
  -25.5173   -0.3889   -9.6496 H   0  0  0  0  0  0  0  0  0  0  0  0
  -27.0167   -2.7324   -9.8035 N   0  0  0  0  0  0  0  0  0  0  0  0
  -27.4592   -2.1531   -8.6334 C   0  0  0  0  0  0  0  0  0  0  0  0
  -27.1957   -1.0146   -8.2652 O   0  0  0  0  0  0  0  0  0  0  0  0
  -27.5188   -3.5216  -10.1885 H   0  0  0  0  0  0  0  0  0  0  0  0
  -28.3828   -2.9953   -7.8248 C   0  0  0  0  0  0  0  0  0  0  0  0
  -28.5299   -4.3724   -8.0283 C   0  0  0  0  0  0  0  0  0  0  0  0
  -29.3843   -5.1031   -7.1989 C   0  0  0  0  0  0  0  0  0  0  0  0
  -30.0732   -4.4276   -6.2009 C   0  0  0  0  0  0  0  0  0  0  0  0
  -29.9647   -3.1014   -5.9872 N   0  0  0  0  0  0  0  0  0  0  0  0
  -29.1160   -2.4149   -6.7945 C   0  0  0  0  0  0  0  0  0  0  0  0
  7  8  2  0  0  0
  8  9  1  0  0  0
  8 10  1  0  0  0
  9  1  1  0  0  0
  9 11  1  0  0  0
  1  2  1  0  0  0
  1  6  2  0  0  0
  2  3  2  0  0  0
  3  4  1  0  0  0
  4 24  1  0  0  0
  4  5  2  0  0  0
 24 25  1  0  0  0
 25 26  1  0  0  0
 25 33  2  0  0  0
 26 27  2  0  0  0
 27 28  1  0  0  0
 28 29  1  0  0  0
 28 32  2  0  0  0
 29 30  2  0  0  0
 30 35  1  0  0  0
 30 31  1  0  0  0
 35 36  1  0  0  0
 35 38  1  0  0  0
 36 37  2  0  0  0
 36 39  1  0  0  0
 39 40  1  0  0  0
 39 44  2  0  0  0
 40 41  2  0  0  0
 41 42  1  0  0  0
 42 43  2  0  0  0
 43 44  1  0  0  0
 31 32  1  0  0  0
 31 34  1  0  0  0
 32 33  1  0  0  0
  5  6  1  0  0  0
 10 13  1  0  0  0
 10 12  1  0  0  0
 13 14  1  0  0  0
 13 18  2  0  0  0
 14 15  2  0  0  0
 15 20  1  0  0  0
 15 16  1  0  0  0
 20 21  1  0  0  0
 20 22  1  0  0  0
 20 23  1  0  0  0
 16 17  2  0  0  0
 17 18  1  0  0  0
 18 19  1  0  0  0
M  END
> <minimizedAffinity>
-10.36361

$$$$
