CHEMBL406381


 31 33  0  0  0  0  0  0  0  0999 V2000
  -21.3911    0.9522  -14.5704 C   0  0  0  0  0  0  0  0  0  0  0  0
  -20.4297    0.0561  -15.0511 C   0  0  0  0  0  0  0  0  0  0  0  0
  -19.1138    0.4805  -15.2782 C   0  0  0  0  0  0  0  0  0  0  0  0
  -18.7420    1.8046  -15.0300 C   0  0  0  0  0  0  0  0  0  0  0  0
  -19.6897    2.6941  -14.5111 C   0  0  0  0  0  0  0  0  0  0  0  0
  -21.0099    2.2745  -14.3043 C   0  0  0  0  0  0  0  0  0  0  0  0
  -22.1310    3.3956  -13.6096 Cl  0  0  0  0  0  0  0  0  0  0  0  0
  -24.4436   -0.3786  -13.1428 N   0  0  0  0  0  0  0  0  0  0  0  0
  -23.0952   -0.0726  -13.1694 C   0  0  0  0  0  0  0  0  0  0  0  0
  -22.3490   -0.2757  -12.2213 O   0  0  0  0  0  0  0  0  0  0  0  0
  -22.7310    0.5269  -14.3579 N   0  0  0  0  0  0  0  0  0  0  0  0
  -24.8058   -0.7353  -14.0183 H   0  0  0  0  0  0  0  0  0  0  0  0
  -23.4437    1.1583  -14.7078 H   0  0  0  0  0  0  0  0  0  0  0  0
  -24.9840   -0.9274  -11.9139 C   0  0  0  0  0  0  0  0  0  0  0  0
  -26.7673   -1.7675  -13.5189 C   0  0  0  0  0  0  0  0  0  0  0  0
  -26.3647   -1.5570  -12.0676 C   0  0  0  0  0  0  0  0  0  0  0  0
  -17.4095    2.1175  -15.2270 O   0  0  0  0  0  0  0  0  0  0  0  0
  -16.4394    1.3202  -14.6206 C   0  0  0  0  0  0  0  0  0  0  0  0
  -16.5799    1.0461  -13.3093 N   0  0  0  0  0  0  0  0  0  0  0  0
  -15.6529    0.2196  -12.8016 C   0  0  0  0  0  0  0  0  0  0  0  0
  -14.6289   -0.3304  -13.4656 N   0  0  0  0  0  0  0  0  0  0  0  0
  -14.4984   -0.0189  -14.7704 C   0  0  0  0  0  0  0  0  0  0  0  0
  -13.4852   -0.5928  -15.5278 C   0  0  0  0  0  0  0  0  0  0  0  0
  -13.2754   -0.3403  -16.9090 C   0  0  0  0  0  0  0  0  0  0  0  0
  -14.1004    0.5973  -17.5360 C   0  0  0  0  0  0  0  0  0  0  0  0
  -15.1405    1.1758  -16.7663 C   0  0  0  0  0  0  0  0  0  0  0  0
  -15.3710    0.8596  -15.4139 C   0  0  0  0  0  0  0  0  0  0  0  0
  -12.3943   -1.2356  -17.4426 O   0  0  0  0  0  0  0  0  0  0  0  0
  -12.8131   -2.5343  -17.8238 C   0  0  0  0  0  0  0  0  0  0  0  0
  -14.1934    1.0930  -18.7982 O   0  0  0  0  0  0  0  0  0  0  0  0
  -13.6243    2.3129  -19.2194 C   0  0  0  0  0  0  0  0  0  0  0  0
 15 16  1  0  0  0
 16 14  1  0  0  0
 14  8  1  0  0  0
  8  9  1  0  0  0
  8 12  1  0  0  0
  9 10  2  0  0  0
  9 11  1  0  0  0
 11  1  1  0  0  0
 11 13  1  0  0  0
  1  2  1  0  0  0
  1  6  2  0  0  0
  2  3  2  0  0  0
  3  4  1  0  0  0
  4 17  1  0  0  0
  4  5  2  0  0  0
 17 18  1  0  0  0
 18 19  1  0  0  0
 18 27  2  0  0  0
 19 20  2  0  0  0
 20 21  1  0  0  0
 21 22  2  0  0  0
 22 23  1  0  0  0
 22 27  1  0  0  0
 23 24  2  0  0  0
 24 28  1  0  0  0
 24 25  1  0  0  0
 28 29  1  0  0  0
 25 30  1  0  0  0
 25 26  2  0  0  0
 30 31  1  0  0  0
 26 27  1  0  0  0
  5  6  1  0  0  0
  6  7  1  0  0  0
M  END
> <minimizedAffinity>
-7.37270

$$$$
