CHEMBL3694695


 38 41  0  0  0  0  0  0  0  0999 V2000
  -25.2747   -1.1505  -11.9401 C   0  0  0  0  0  0  0  0  0  0  0  0
  -26.1290   -1.5518  -12.9668 C   0  0  0  0  0  0  0  0  0  0  0  0
  -27.4139   -1.9874  -12.6651 C   0  0  0  0  0  0  0  0  0  0  0  0
  -28.2708   -2.3924  -13.6458 O   0  0  0  0  0  0  0  0  0  0  0  0
  -27.8708   -2.0169  -11.3530 C   0  0  0  0  0  0  0  0  0  0  0  0
  -27.0313   -1.6319  -10.2990 C   0  0  0  0  0  0  0  0  0  0  0  0
  -25.7214   -1.2324  -10.6095 C   0  0  0  0  0  0  0  0  0  0  0  0
  -27.8100   -2.3361  -14.5003 H   0  0  0  0  0  0  0  0  0  0  0  0
  -27.5366   -1.6947   -8.9214 C   0  0  0  0  0  0  0  0  0  0  0  0
  -27.6724   -0.6590   -8.0056 C   0  0  0  0  0  0  0  0  0  0  0  0
  -28.1529   -1.0854   -6.8017 N   0  0  0  0  0  0  0  0  0  0  0  0
  -28.3054   -2.3824   -6.9406 C   0  0  0  0  0  0  0  0  0  0  0  0
  -28.7458   -3.3491   -5.9933 C   0  0  0  0  0  0  0  0  0  0  0  0
  -28.7682   -4.6710   -6.2967 C   0  0  0  0  0  0  0  0  0  0  0  0
  -28.3908   -5.0868   -7.6543 C   0  0  0  0  0  0  0  0  0  0  0  0
  -27.9672   -4.1777   -8.5508 C   0  0  0  0  0  0  0  0  0  0  0  0
  -27.9296   -2.8235   -8.2069 N   0  0  0  0  0  0  0  0  0  0  0  0
  -29.1663   -5.6505   -5.2513 C   0  0  0  0  0  0  0  0  0  0  0  0
  -30.2050   -5.3988   -4.3743 C   0  0  0  0  0  0  0  0  0  0  0  0
  -30.4660   -6.3666   -3.4379 C   0  0  0  0  0  0  0  0  0  0  0  0
  -29.7630   -7.5038   -3.3378 N   0  0  0  0  0  0  0  0  0  0  0  0
  -28.7432   -7.6821   -4.2137 C   0  0  0  0  0  0  0  0  0  0  0  0
  -28.4194   -6.7758   -5.1734 N   0  0  0  0  0  0  0  0  0  0  0  0
  -27.9066   -8.9656   -4.1092 C   0  0  0  0  0  0  0  0  0  0  0  0
  -26.5835   -8.7455   -3.8443 F   0  0  0  0  0  0  0  0  0  0  0  0
  -28.3375   -9.8069   -3.1209 F   0  0  0  0  0  0  0  0  0  0  0  0
  -27.9252   -9.7092   -5.2574 F   0  0  0  0  0  0  0  0  0  0  0  0
  -24.0169   -0.1313  -14.4342 O   0  0  0  0  0  0  0  0  0  0  0  0
  -23.4573   -0.1732  -13.3468 C   0  0  0  0  0  0  0  0  0  0  0  0
  -22.1714    0.2940  -13.1823 N   0  0  0  0  0  0  0  0  0  0  0  0
  -23.9773   -0.6400  -12.1601 N   0  0  0  0  0  0  0  0  0  0  0  0
  -21.6337   -0.1497  -12.4504 H   0  0  0  0  0  0  0  0  0  0  0  0
  -23.3951   -0.5211  -11.3445 H   0  0  0  0  0  0  0  0  0  0  0  0
  -21.4164    0.6957  -14.3722 C   0  0  0  0  0  0  0  0  0  0  0  0
  -21.1859    2.2069  -14.5153 C   0  0  0  0  0  0  0  0  0  0  0  0
  -20.2276    2.6480  -13.6670 F   0  0  0  0  0  0  0  0  0  0  0  0
  -20.8336    2.5581  -15.7678 F   0  0  0  0  0  0  0  0  0  0  0  0
  -22.3208    2.8816  -14.2052 F   0  0  0  0  0  0  0  0  0  0  0  0
 28 29  2  0  0  0
 29 30  1  0  0  0
 29 31  1  0  0  0
 30 34  1  0  0  0
 30 32  1  0  0  0
 34 35  1  0  0  0
 35 36  1  0  0  0
 35 37  1  0  0  0
 35 38  1  0  0  0
 31  1  1  0  0  0
 31 33  1  0  0  0
  1  2  1  0  0  0
  1  7  2  0  0  0
  2  3  2  0  0  0
  3  4  1  0  0  0
  3  5  1  0  0  0
  4  8  1  0  0  0
  5  6  2  0  0  0
  6  9  1  0  0  0
  6  7  1  0  0  0
  9 10  2  0  0  0
  9 17  1  0  0  0
 10 11  1  0  0  0
 11 12  2  0  0  0
 12 13  1  0  0  0
 12 17  1  0  0  0
 13 14  2  0  0  0
 14 18  1  0  0  0
 14 15  1  0  0  0
 18 19  1  0  0  0
 18 23  2  0  0  0
 19 20  2  0  0  0
 20 21  1  0  0  0
 21 22  2  0  0  0
 22 24  1  0  0  0
 22 23  1  0  0  0
 24 25  1  0  0  0
 24 26  1  0  0  0
 24 27  1  0  0  0
 15 16  2  0  0  0
 16 17  1  0  0  0
M  END
> <minimizedAffinity>
-10.20191

$$$$
