CHEMBL3690490


 40 44  0  0  0  0  0  0  0  0999 V2000
  -15.0107   -5.1464  -12.2651 C   0  0  0  0  0  0  0  0  0  0  0  0
  -16.1194   -4.8184  -11.4982 C   0  0  0  0  0  0  0  0  0  0  0  0
  -16.3762   -3.4713  -11.5005 N   0  0  0  0  0  0  0  0  0  0  0  0
  -15.4615   -2.9451  -12.2852 C   0  0  0  0  0  0  0  0  0  0  0  0
  -15.2217   -1.5846  -12.6634 C   0  0  0  0  0  0  0  0  0  0  0  0
  -14.2097   -1.2623  -13.5084 C   0  0  0  0  0  0  0  0  0  0  0  0
  -13.3874   -2.3437  -14.0687 C   0  0  0  0  0  0  0  0  0  0  0  0
  -13.6266   -3.6206  -13.7392 C   0  0  0  0  0  0  0  0  0  0  0  0
  -14.6287   -3.9275  -12.8213 N   0  0  0  0  0  0  0  0  0  0  0  0
  -13.7968   -8.3585  -13.9194 C   0  0  0  0  0  0  0  0  0  0  0  0
  -13.1230   -8.9553  -12.8578 C   0  0  0  0  0  0  0  0  0  0  0  0
  -13.0661   -8.3189  -11.6169 C   0  0  0  0  0  0  0  0  0  0  0  0
  -13.6948   -7.0883  -11.4220 C   0  0  0  0  0  0  0  0  0  0  0  0
  -14.3688   -6.4545  -12.4750 C   0  0  0  0  0  0  0  0  0  0  0  0
  -14.3737   -7.0946  -13.7268 C   0  0  0  0  0  0  0  0  0  0  0  0
  -11.9452   -8.4384  -16.2451 O   0  0  0  0  0  0  0  0  0  0  0  0
  -13.0506   -8.9527  -16.2269 C   0  0  0  0  0  0  0  0  0  0  0  0
  -13.5349   -9.6562  -17.3126 N   0  0  0  0  0  0  0  0  0  0  0  0
  -13.9570   -8.9496  -15.1921 N   0  0  0  0  0  0  0  0  0  0  0  0
  -14.5355   -9.6631  -17.4181 H   0  0  0  0  0  0  0  0  0  0  0  0
  -14.7908   -9.4922  -15.3342 H   0  0  0  0  0  0  0  0  0  0  0  0
  -12.7611   -9.6230  -18.5616 C   0  0  0  0  0  0  0  0  0  0  0  0
  -13.2234   -8.5652  -19.5731 C   0  0  0  0  0  0  0  0  0  0  0  0
  -14.2036   -7.7801  -19.0658 F   0  0  0  0  0  0  0  0  0  0  0  0
  -12.2168   -7.7696  -19.9846 F   0  0  0  0  0  0  0  0  0  0  0  0
  -13.7411   -9.1707  -20.6708 F   0  0  0  0  0  0  0  0  0  0  0  0
  -13.9733    0.1541  -13.8988 C   0  0  0  0  0  0  0  0  0  0  0  0
  -14.5257    0.6734  -15.0660 C   0  0  0  0  0  0  0  0  0  0  0  0
  -14.3593    2.0238  -15.3640 C   0  0  0  0  0  0  0  0  0  0  0  0
  -13.6170    2.8023  -14.5024 C   0  0  0  0  0  0  0  0  0  0  0  0
  -13.0916    2.2937  -13.3675 N   0  0  0  0  0  0  0  0  0  0  0  0
  -13.2664    0.9510  -13.0660 N   0  0  0  0  0  0  0  0  0  0  0  0
  -13.4254    4.1216  -14.8697 O   0  0  0  0  0  0  0  0  0  0  0  0
  -12.2164    4.3771  -15.6060 C   0  0  0  0  0  0  0  0  0  0  0  0
  -11.2230    5.1030  -14.6779 C   0  0  0  0  0  0  0  0  0  0  0  0
  -11.5572    6.5823  -14.4571 C   0  0  0  0  0  0  0  0  0  0  0  0
  -11.9351    7.3223  -15.7387 C   0  0  0  0  0  0  0  0  0  0  0  0
  -12.9248    6.6013  -16.5315 N   0  0  0  0  0  0  0  0  0  0  0  0
  -12.4605    5.2456  -16.8592 C   0  0  0  0  0  0  0  0  0  0  0  0
  -13.0969    7.1079  -17.3995 H   0  0  0  0  0  0  0  0  0  0  0  0
 16 17  2  0  0  0
 17 18  1  0  0  0
 17 19  1  0  0  0
 18 22  1  0  0  0
 18 20  1  0  0  0
 22 23  1  0  0  0
 23 24  1  0  0  0
 23 25  1  0  0  0
 23 26  1  0  0  0
 19 10  1  0  0  0
 19 21  1  0  0  0
 10 11  1  0  0  0
 10 15  2  0  0  0
 11 12  2  0  0  0
 12 13  1  0  0  0
 13 14  2  0  0  0
 14  1  1  0  0  0
 14 15  1  0  0  0
  1  2  2  0  0  0
  1  9  1  0  0  0
  2  3  1  0  0  0
  3  4  2  0  0  0
  4  5  1  0  0  0
  4  9  1  0  0  0
  5  6  2  0  0  0
  6 27  1  0  0  0
  6  7  1  0  0  0
 27 28  1  0  0  0
 27 32  2  0  0  0
 28 29  2  0  0  0
 29 30  1  0  0  0
 30 33  1  0  0  0
 30 31  2  0  0  0
 33 34  1  0  0  0
 34 35  1  0  0  0
 34 39  1  0  0  0
 35 36  1  0  0  0
 36 37  1  0  0  0
 37 38  1  0  0  0
 38 39  1  0  0  0
 38 40  1  0  0  0
 31 32  1  0  0  0
  7  8  2  0  0  0
  8  9  1  0  0  0
M  END
> <minimizedAffinity>
-7.80899

$$$$
