CHEMBL1173150


 39 42  0  0  0  0  0  0  0  0999 V2000
  -17.5165    2.0903  -15.8131 C   0  0  0  0  0  0  0  0  0  0  0  0
  -17.8125    0.7443  -15.5382 C   0  0  0  0  0  0  0  0  0  0  0  0
  -19.0526    0.3776  -15.0085 C   0  0  0  0  0  0  0  0  0  0  0  0
  -20.0027    1.3600  -14.7895 C   0  0  0  0  0  0  0  0  0  0  0  0
  -19.7068    2.7028  -15.0445 C   0  0  0  0  0  0  0  0  0  0  0  0
  -18.4722    3.0927  -15.5477 C   0  0  0  0  0  0  0  0  0  0  0  0
  -20.8136    3.4968  -14.7237 N   0  0  0  0  0  0  0  0  0  0  0  0
  -21.8831    2.7280  -14.2643 C   0  0  0  0  0  0  0  0  0  0  0  0
  -22.9741    3.1240  -13.8960 O   0  0  0  0  0  0  0  0  0  0  0  0
  -21.3985    1.2980  -14.3187 C   0  0  0  0  0  0  0  0  0  0  0  0
  -21.9927    0.1147  -14.0917 C   0  0  0  0  0  0  0  0  0  0  0  0
  -20.8440    4.5046  -14.7976 H   0  0  0  0  0  0  0  0  0  0  0  0
  -23.3262   -0.2223  -13.7374 C   0  0  0  0  0  0  0  0  0  0  0  0
  -24.1815   -0.8389  -14.6068 N   0  0  0  0  0  0  0  0  0  0  0  0
  -25.3711   -1.1327  -13.9766 C   0  0  0  0  0  0  0  0  0  0  0  0
  -26.4276   -1.8705  -14.7196 C   0  0  0  0  0  0  0  0  0  0  0  0
  -25.3254   -0.6119  -12.6887 C   0  0  0  0  0  0  0  0  0  0  0  0
  -24.0164   -0.0352  -12.5403 C   0  0  0  0  0  0  0  0  0  0  0  0
  -23.4768    0.6366  -11.3177 C   0  0  0  0  0  0  0  0  0  0  0  0
  -23.9656   -1.0683  -15.5742 H   0  0  0  0  0  0  0  0  0  0  0  0
  -26.4343   -0.5999  -11.6574 C   0  0  0  0  0  0  0  0  0  0  0  0
  -26.4261   -1.7346  -10.6413 C   0  0  0  0  0  0  0  0  0  0  0  0
  -26.4588   -1.5513   -9.4354 O   0  0  0  0  0  0  0  0  0  0  0  0
  -26.4598   -2.9791  -11.1698 O   0  0  0  0  0  0  0  0  0  0  0  0
  -26.4200   -2.9771  -12.1489 H   0  0  0  0  0  0  0  0  0  0  0  0
  -14.3981    3.7898  -16.6220 N   0  0  0  0  0  0  0  0  0  0  0  0
  -15.6897    3.6529  -16.1200 C   0  0  0  0  0  0  0  0  0  0  0  0
  -16.3078    4.5108  -15.5087 O   0  0  0  0  0  0  0  0  0  0  0  0
  -16.2282    2.3915  -16.3417 N   0  0  0  0  0  0  0  0  0  0  0  0
  -14.0139    3.0234  -17.1615 H   0  0  0  0  0  0  0  0  0  0  0  0
  -15.5504    1.6444  -16.2976 H   0  0  0  0  0  0  0  0  0  0  0  0
  -12.0152    7.2880  -16.1376 C   0  0  0  0  0  0  0  0  0  0  0  0
  -12.6376    7.0184  -17.3472 C   0  0  0  0  0  0  0  0  0  0  0  0
  -13.4011    5.8642  -17.5136 C   0  0  0  0  0  0  0  0  0  0  0  0
  -13.5804    4.9420  -16.4770 C   0  0  0  0  0  0  0  0  0  0  0  0
  -12.9304    5.1993  -15.2615 C   0  0  0  0  0  0  0  0  0  0  0  0
  -12.1570    6.3630  -15.0961 C   0  0  0  0  0  0  0  0  0  0  0  0
  -11.8224    9.6410  -16.3144 C   0  0  0  0  0  0  0  0  0  0  0  0
  -11.2622    8.4004  -15.8807 O   0  0  0  0  0  0  0  0  0  0  0  0
 38 39  1  0  0  0
 39 32  1  0  0  0
 32 33  1  0  0  0
 32 37  2  0  0  0
 33 34  2  0  0  0
 34 35  1  0  0  0
 35 26  1  0  0  0
 35 36  2  0  0  0
 26 27  1  0  0  0
 26 30  1  0  0  0
 27 28  2  0  0  0
 27 29  1  0  0  0
 29  1  1  0  0  0
 29 31  1  0  0  0
  1  2  1  0  0  0
  1  6  2  0  0  0
  2  3  2  0  0  0
  3  4  1  0  0  0
  4  5  2  0  0  0
  4 10  1  0  0  0
  5  6  1  0  0  0
  5  7  1  0  0  0
  7  8  1  0  0  0
  7 12  1  0  0  0
  8  9  2  0  0  0
  8 10  1  0  0  0
 10 11  2  0  0  0
 11 13  1  0  0  0
 13 14  1  0  0  0
 13 18  2  0  0  0
 14 15  1  0  0  0
 14 20  1  0  0  0
 15 16  1  0  0  0
 15 17  2  0  0  0
 17 21  1  0  0  0
 17 18  1  0  0  0
 21 22  1  0  0  0
 22 23  2  0  0  0
 22 24  1  0  0  0
 24 25  1  0  0  0
 18 19  1  0  0  0
 36 37  1  0  0  0
M  END
> <minimizedAffinity>
-9.24888

$$$$
