CHEMBL2086745


 37 42  0  0  0  0  0  0  0  0999 V2000
  -28.1114   -2.2276   -6.7845 C   0  0  0  0  0  0  0  0  0  0  0  0
  -27.6636   -2.1844   -8.1192 C   0  0  0  0  0  0  0  0  0  0  0  0
  -27.4711   -3.3515   -8.8489 C   0  0  0  0  0  0  0  0  0  0  0  0
  -27.8667   -4.5350   -8.2621 C   0  0  0  0  0  0  0  0  0  0  0  0
  -28.4594   -4.6196   -6.9949 C   0  0  0  0  0  0  0  0  0  0  0  0
  -28.5607   -3.4540   -6.2344 C   0  0  0  0  0  0  0  0  0  0  0  0
  -28.8364   -6.0585   -6.8246 C   0  0  0  0  0  0  0  0  0  0  0  0
  -29.5702   -6.6841   -5.8700 C   0  0  0  0  0  0  0  0  0  0  0  0
  -28.3371   -6.7665   -8.0777 C   0  0  0  0  0  0  0  0  0  0  0  0
  -28.4591   -7.9285   -8.4147 O   0  0  0  0  0  0  0  0  0  0  0  0
  -27.7687   -5.7800   -8.8574 N   0  0  0  0  0  0  0  0  0  0  0  0
  -27.3830   -5.9747   -9.7688 H   0  0  0  0  0  0  0  0  0  0  0  0
  -29.8914   -8.0774   -5.9864 C   0  0  0  0  0  0  0  0  0  0  0  0
  -29.3806   -9.1673   -5.4409 N   0  0  0  0  0  0  0  0  0  0  0  0
  -30.1204  -10.2183   -5.9507 C   0  0  0  0  0  0  0  0  0  0  0  0
  -29.9971  -11.6059   -5.7590 C   0  0  0  0  0  0  0  0  0  0  0  0
  -30.8736  -12.4657   -6.4423 C   0  0  0  0  0  0  0  0  0  0  0  0
  -31.8655  -11.9582   -7.2844 C   0  0  0  0  0  0  0  0  0  0  0  0
  -32.0303  -10.5812   -7.4552 C   0  0  0  0  0  0  0  0  0  0  0  0
  -31.1362   -9.7561   -6.7805 C   0  0  0  0  0  0  0  0  0  0  0  0
  -30.9973   -8.3948   -6.7387 N   0  0  0  0  0  0  0  0  0  0  0  0
  -31.5928   -7.7335   -7.2082 H   0  0  0  0  0  0  0  0  0  0  0  0
  -32.0153    3.1059   -6.7734 C   0  0  0  0  0  0  0  0  0  0  0  0
  -31.4078    1.8853   -6.2463 N   0  0  0  0  0  0  0  0  0  0  0  0
  -31.1004    0.9660   -7.3520 C   0  0  0  0  0  0  0  0  0  0  0  0
  -30.4919   -0.3427   -6.8399 C   0  0  0  0  0  0  0  0  0  0  0  0
  -29.2995   -0.1400   -6.0096 N   0  0  0  0  0  0  0  0  0  0  0  0
  -28.1684   -0.9727   -5.9635 C   0  0  0  0  0  0  0  0  0  0  0  0
  -27.1875   -0.7113   -5.2709 O   0  0  0  0  0  0  0  0  0  0  0  0
  -29.4624    0.8974   -4.9784 C   0  0  0  0  0  0  0  0  0  0  0  0
  -30.1612    2.1763   -5.5039 C   0  0  0  0  0  0  0  0  0  0  0  0
  -30.1893   -5.9006   -4.7836 C   0  0  0  0  0  0  0  0  0  0  0  0
  -29.3825   -5.0871   -3.9724 C   0  0  0  0  0  0  0  0  0  0  0  0
  -29.9575   -4.2910   -2.9844 C   0  0  0  0  0  0  0  0  0  0  0  0
  -31.3383   -4.3110   -2.7969 C   0  0  0  0  0  0  0  0  0  0  0  0
  -32.1446   -5.1237   -3.5949 C   0  0  0  0  0  0  0  0  0  0  0  0
  -31.5740   -5.9150   -4.5923 C   0  0  0  0  0  0  0  0  0  0  0  0
 23 24  1  0  0  0
 24 25  1  0  0  0
 24 31  1  0  0  0
 25 26  1  0  0  0
 26 27  1  0  0  0
 27 28  1  0  0  0
 27 30  1  0  0  0
 28 29  2  0  0  0
 28  1  1  0  0  0
  1  2  1  0  0  0
  1  6  2  0  0  0
  2  3  2  0  0  0
  3  4  1  0  0  0
  4  5  2  0  0  0
  4 11  1  0  0  0
  5  6  1  0  0  0
  5  7  1  0  0  0
  7  8  2  0  0  0
  7  9  1  0  0  0
  8 32  1  0  0  0
  8 13  1  0  0  0
 32 33  1  0  0  0
 32 37  2  0  0  0
 33 34  2  0  0  0
 34 35  1  0  0  0
 35 36  2  0  0  0
 36 37  1  0  0  0
 13 14  2  0  0  0
 13 21  1  0  0  0
 14 15  1  0  0  0
 15 16  1  0  0  0
 15 20  2  0  0  0
 16 17  2  0  0  0
 17 18  1  0  0  0
 18 19  2  0  0  0
 19 20  1  0  0  0
 20 21  1  0  0  0
 21 22  1  0  0  0
  9 10  2  0  0  0
  9 11  1  0  0  0
 11 12  1  0  0  0
 30 31  1  0  0  0
M  END
> <minimizedAffinity>
-3.37449

$$$$
