CHEMBL3656043


 35 38  0  0  0  0  0  0  0  0999 V2000
  -24.4175   -0.9786  -12.8969 C   0  0  0  0  0  0  0  0  0  0  0  0
  -24.8540   -1.4166  -14.1515 C   0  0  0  0  0  0  0  0  0  0  0  0
  -26.1840   -1.8004  -14.3451 C   0  0  0  0  0  0  0  0  0  0  0  0
  -27.0682   -1.8368  -13.2665 C   0  0  0  0  0  0  0  0  0  0  0  0
  -26.6126   -1.4927  -11.9897 C   0  0  0  0  0  0  0  0  0  0  0  0
  -25.2956   -1.0381  -11.8136 C   0  0  0  0  0  0  0  0  0  0  0  0
  -27.4922   -1.5673  -10.7933 C   0  0  0  0  0  0  0  0  0  0  0  0
  -28.3945   -0.7403  -10.6994 O   0  0  0  0  0  0  0  0  0  0  0  0
  -27.1544   -2.5217   -9.8492 N   0  0  0  0  0  0  0  0  0  0  0  0
  -26.2780   -3.0199   -9.9584 H   0  0  0  0  0  0  0  0  0  0  0  0
  -27.8081   -2.7339   -8.6096 C   0  0  0  0  0  0  0  0  0  0  0  0
  -28.5106   -3.9009   -8.3025 C   0  0  0  0  0  0  0  0  0  0  0  0
  -29.1628   -4.0521   -7.0677 C   0  0  0  0  0  0  0  0  0  0  0  0
  -29.8987   -5.3223   -6.7556 C   0  0  0  0  0  0  0  0  0  0  0  0
  -29.1141   -3.0122   -6.1304 C   0  0  0  0  0  0  0  0  0  0  0  0
  -28.4012   -1.8485   -6.4162 C   0  0  0  0  0  0  0  0  0  0  0  0
  -27.7459   -1.7239   -7.6421 C   0  0  0  0  0  0  0  0  0  0  0  0
  -27.0654   -0.5967   -7.9026 F   0  0  0  0  0  0  0  0  0  0  0  0
  -23.1390   -0.5376  -12.6162 O   0  0  0  0  0  0  0  0  0  0  0  0
  -20.9655    1.8408  -14.3968 C   0  0  0  0  0  0  0  0  0  0  0  0
  -21.4028    0.6350  -13.8666 C   0  0  0  0  0  0  0  0  0  0  0  0
  -22.6387    0.5844  -13.2387 C   0  0  0  0  0  0  0  0  0  0  0  0
  -23.4545    1.7077  -13.2744 C   0  0  0  0  0  0  0  0  0  0  0  0
  -22.9547    2.8609  -13.8627 C   0  0  0  0  0  0  0  0  0  0  0  0
  -21.7168    2.9649  -14.4033 N   0  0  0  0  0  0  0  0  0  0  0  0
  -17.4217    1.6640  -15.4997 C   0  0  0  0  0  0  0  0  0  0  0  0
  -17.8064    2.9449  -15.8553 C   0  0  0  0  0  0  0  0  0  0  0  0
  -19.1317    3.1080  -15.5261 N   0  0  0  0  0  0  0  0  0  0  0  0
  -19.6149    1.9657  -14.9302 C   0  0  0  0  0  0  0  0  0  0  0  0
  -18.5727    1.0546  -14.9340 C   0  0  0  0  0  0  0  0  0  0  0  0
  -19.6891    3.9424  -15.6687 H   0  0  0  0  0  0  0  0  0  0  0  0
  -16.1254    1.0229  -15.6346 C   0  0  0  0  0  0  0  0  0  0  0  0
  -15.4776    1.0503  -16.6766 O   0  0  0  0  0  0  0  0  0  0  0  0
  -14.5759    0.9880  -13.8952 C   0  0  0  0  0  0  0  0  0  0  0  0
  -15.7151    0.3846  -14.4985 O   0  0  0  0  0  0  0  0  0  0  0  0
 34 35  1  0  0  0
 35 32  1  0  0  0
 32 33  2  0  0  0
 32 26  1  0  0  0
 26 27  2  0  0  0
 26 30  1  0  0  0
 27 28  1  0  0  0
 28 29  1  0  0  0
 28 31  1  0  0  0
 29 20  1  0  0  0
 29 30  2  0  0  0
 20 21  1  0  0  0
 20 25  2  0  0  0
 21 22  2  0  0  0
 22 19  1  0  0  0
 22 23  1  0  0  0
 19  1  1  0  0  0
  1  2  1  0  0  0
  1  6  2  0  0  0
  2  3  2  0  0  0
  3  4  1  0  0  0
  4  5  2  0  0  0
  5  7  1  0  0  0
  5  6  1  0  0  0
  7  8  2  0  0  0
  7  9  1  0  0  0
  9 11  1  0  0  0
  9 10  1  0  0  0
 11 12  1  0  0  0
 11 17  2  0  0  0
 12 13  2  0  0  0
 13 14  1  0  0  0
 13 15  1  0  0  0
 15 16  2  0  0  0
 16 17  1  0  0  0
 17 18  1  0  0  0
 23 24  2  0  0  0
 24 25  1  0  0  0
M  END
> <minimizedAffinity>
-10.54129

$$$$
