CHEMBL3109351


 33 37  0  0  0  0  0  0  0  0999 V2000
  -30.0886   -6.9438   -5.9466 C   0  0  0  0  0  0  0  0  0  0  0  0
  -30.7951   -7.1098   -7.1267 C   0  0  0  0  0  0  0  0  0  0  0  0
  -30.5287   -8.2219   -7.9050 C   0  0  0  0  0  0  0  0  0  0  0  0
  -29.5631   -9.1409   -7.4934 C   0  0  0  0  0  0  0  0  0  0  0  0
  -29.3305  -10.2747   -8.2836 C   0  0  0  0  0  0  0  0  0  0  0  0
  -28.3716  -11.1996   -7.9095 C   0  0  0  0  0  0  0  0  0  0  0  0
  -27.6331  -10.9930   -6.7538 C   0  0  0  0  0  0  0  0  0  0  0  0
  -27.8661   -9.8698   -5.9365 C   0  0  0  0  0  0  0  0  0  0  0  0
  -28.8482   -8.9104   -6.2922 C   0  0  0  0  0  0  0  0  0  0  0  0
  -29.1288   -7.8111   -5.5352 N   0  0  0  0  0  0  0  0  0  0  0  0
  -29.0530   -1.9314   -4.7387 C   0  0  0  0  0  0  0  0  0  0  0  0
  -28.3883   -2.7742   -5.7297 C   0  0  0  0  0  0  0  0  0  0  0  0
  -28.7729   -4.0502   -5.8811 C   0  0  0  0  0  0  0  0  0  0  0  0
  -29.7999   -4.5638   -5.0882 N   0  0  0  0  0  0  0  0  0  0  0  0
  -30.3917   -5.8166   -5.0701 C   0  0  0  0  0  0  0  0  0  0  0  0
  -31.3532   -5.7148   -4.0735 C   0  0  0  0  0  0  0  0  0  0  0  0
  -31.3928   -4.4704   -3.5081 N   0  0  0  0  0  0  0  0  0  0  0  0
  -30.4574   -3.7894   -4.1317 C   0  0  0  0  0  0  0  0  0  0  0  0
  -30.0481   -2.4333   -3.9829 C   0  0  0  0  0  0  0  0  0  0  0  0
  -28.6854   -0.6078   -4.5665 O   0  0  0  0  0  0  0  0  0  0  0  0
  -27.8781   -0.0056   -5.5756 C   0  0  0  0  0  0  0  0  0  0  0  0
  -28.7053    0.9866   -6.3790 C   0  0  0  0  0  0  0  0  0  0  0  0
  -30.9152    1.7842   -6.5683 C   0  0  0  0  0  0  0  0  0  0  0  0
  -29.9661    1.1452   -5.7280 O   0  0  0  0  0  0  0  0  0  0  0  0
  -27.1386   -9.6339   -4.7819 O   0  0  0  0  0  0  0  0  0  0  0  0
  -26.0318  -10.5058   -4.5044 C   0  0  0  0  0  0  0  0  0  0  0  0
  -26.2412  -11.3107   -3.2240 C   0  0  0  0  0  0  0  0  0  0  0  0
  -24.8995  -11.7059   -2.7813 N   0  0  0  0  0  0  0  0  0  0  0  0
  -24.0368  -10.5599   -3.1249 C   0  0  0  0  0  0  0  0  0  0  0  0
  -24.7634   -9.7016   -4.1767 C   0  0  0  0  0  0  0  0  0  0  0  0
  -24.5923  -12.5078   -3.3343 H   0  0  0  0  0  0  0  0  0  0  0  0
  -23.8932   -9.5417   -5.3071 O   0  0  0  0  0  0  0  0  0  0  0  0
  -23.9514  -10.6270   -6.2222 C   0  0  0  0  0  0  0  0  0  0  0  0
 23 24  1  0  0  0
 24 22  1  0  0  0
 22 21  1  0  0  0
 21 20  1  0  0  0
 20 11  1  0  0  0
 11 12  1  0  0  0
 11 19  2  0  0  0
 12 13  2  0  0  0
 13 14  1  0  0  0
 14 15  1  0  0  0
 14 18  1  0  0  0
 15  1  1  0  0  0
 15 16  2  0  0  0
  1  2  1  0  0  0
  1 10  2  0  0  0
  2  3  2  0  0  0
  3  4  1  0  0  0
  4  5  1  0  0  0
  4  9  2  0  0  0
  5  6  2  0  0  0
  6  7  1  0  0  0
  7  8  2  0  0  0
  8 25  1  0  0  0
  8  9  1  0  0  0
 25 26  1  0  0  0
 26 27  1  0  0  0
 26 30  1  0  0  0
 27 28  1  0  0  0
 28 29  1  0  0  0
 28 31  1  0  0  0
 29 30  1  0  0  0
 30 32  1  0  0  0
 32 33  1  0  0  0
  9 10  1  0  0  0
 16 17  1  0  0  0
 17 18  2  0  0  0
 18 19  1  0  0  0
M  END
> <minimizedAffinity>
-7.75016

$$$$
