CHEMBL1681938


 32 33  0  0  0  0  0  0  0  0999 V2000
  -11.8838   -3.1143  -11.8827 C   0  0  0  0  0  0  0  0  0  0  0  0
  -13.1939   -3.5849  -11.8226 C   0  0  0  0  0  0  0  0  0  0  0  0
  -14.2213   -2.9395  -12.5114 C   0  0  0  0  0  0  0  0  0  0  0  0
  -13.9661   -1.8615  -13.3601 C   0  0  0  0  0  0  0  0  0  0  0  0
  -12.6368   -1.4019  -13.4425 C   0  0  0  0  0  0  0  0  0  0  0  0
  -12.2254   -0.0672  -14.4644 Cl  0  0  0  0  0  0  0  0  0  0  0  0
  -11.5990   -2.0263  -12.7163 C   0  0  0  0  0  0  0  0  0  0  0  0
  -15.0216   -1.2595  -14.1117 N   0  0  0  0  0  0  0  0  0  0  0  0
  -15.7958   -0.2208  -13.6405 C   0  0  0  0  0  0  0  0  0  0  0  0
  -15.7395    0.2526  -12.5093 O   0  0  0  0  0  0  0  0  0  0  0  0
  -16.7257    0.2392  -14.5455 N   0  0  0  0  0  0  0  0  0  0  0  0
  -15.3964   -1.7976  -14.8833 H   0  0  0  0  0  0  0  0  0  0  0  0
  -16.4658    0.2253  -15.5217 H   0  0  0  0  0  0  0  0  0  0  0  0
  -17.5964    1.3352  -14.1317 C   0  0  0  0  0  0  0  0  0  0  0  0
  -18.1247    2.1817  -15.3110 C   0  0  0  0  0  0  0  0  0  0  0  0
  -19.6020    2.2277  -15.4254 N   0  0  0  0  0  0  0  0  0  0  0  0
  -20.2147    0.9615  -15.0118 C   0  0  0  0  0  0  0  0  0  0  0  0
  -20.1226    3.3087  -14.5763 C   0  0  0  0  0  0  0  0  0  0  0  0
  -10.8453   -3.7037  -11.1721 O   0  0  0  0  0  0  0  0  0  0  0  0
  -11.0694   -5.1389   -9.2455 C   0  0  0  0  0  0  0  0  0  0  0  0
  -11.4799   -5.2033   -7.9175 C   0  0  0  0  0  0  0  0  0  0  0  0
  -11.4987   -6.3872   -7.1837 N   0  0  0  0  0  0  0  0  0  0  0  0
  -11.7900   -4.1113   -7.1979 N   0  0  0  0  0  0  0  0  0  0  0  0
  -11.6546   -2.9314   -7.8091 C   0  0  0  0  0  0  0  0  0  0  0  0
  -11.2800   -2.7498   -9.0764 N   0  0  0  0  0  0  0  0  0  0  0  0
  -11.0473   -3.8697   -9.7996 C   0  0  0  0  0  0  0  0  0  0  0  0
  -11.8470   -7.1740   -7.7319 H   0  0  0  0  0  0  0  0  0  0  0  0
  -11.9730   -6.2404   -6.2995 H   0  0  0  0  0  0  0  0  0  0  0  0
  -11.5932   -7.0655  -10.6056 N   0  0  0  0  0  0  0  0  0  0  0  0
  -10.6970   -6.3461  -10.0021 C   0  0  0  0  0  0  0  0  0  0  0  0
  -11.8721   -8.6998  -12.1836 C   0  0  0  0  0  0  0  0  0  0  0  0
  -10.9959   -8.1974  -11.1764 O   0  0  0  0  0  0  0  0  0  0  0  0
 31 32  1  0  0  0
 32 29  1  0  0  0
 29 30  2  0  0  0
 30 20  1  0  0  0
 20 21  1  0  0  0
 20 26  2  0  0  0
 21 22  1  0  0  0
 21 23  2  0  0  0
 22 27  1  0  0  0
 22 28  1  0  0  0
 23 24  1  0  0  0
 24 25  2  0  0  0
 25 26  1  0  0  0
 26 19  1  0  0  0
 19  1  1  0  0  0
  1  2  1  0  0  0
  1  7  2  0  0  0
  2  3  2  0  0  0
  3  4  1  0  0  0
  4  8  1  0  0  0
  4  5  2  0  0  0
  8  9  1  0  0  0
  8 12  1  0  0  0
  9 10  2  0  0  0
  9 11  1  0  0  0
 11 14  1  0  0  0
 11 13  1  0  0  0
 14 15  1  0  0  0
 15 16  1  0  0  0
 16 17  1  0  0  0
 16 18  1  0  0  0
  5  6  1  0  0  0
  5  7  1  0  0  0
M  END
> <minimizedAffinity>
-6.59063

$$$$
