CHEMBL4539051


 38 42  0  0  0  0  0  0  0  0999 V2000
  -18.6907    1.7357  -14.2876 N   0  0  0  0  0  0  0  0  0  0  0  0
  -17.8748    2.2643  -15.2560 C   0  0  0  0  0  0  0  0  0  0  0  0
  -18.3193    2.8237  -16.2620 O   0  0  0  0  0  0  0  0  0  0  0  0
  -16.4853    2.2020  -15.0726 N   0  0  0  0  0  0  0  0  0  0  0  0
  -15.7340    3.0713  -16.0055 C   0  0  0  0  0  0  0  0  0  0  0  0
  -14.7307    2.4323  -16.9434 C   0  0  0  0  0  0  0  0  0  0  0  0
  -14.2796    1.0511  -16.5807 C   0  0  0  0  0  0  0  0  0  0  0  0
  -14.8013    0.5031  -15.2994 C   0  0  0  0  0  0  0  0  0  0  0  0
  -14.1961   -0.6947  -14.9239 C   0  0  0  0  0  0  0  0  0  0  0  0
  -14.3201   -1.2368  -13.6530 C   0  0  0  0  0  0  0  0  0  0  0  0
  -15.2588   -0.6511  -12.8138 C   0  0  0  0  0  0  0  0  0  0  0  0
  -15.9916    0.5010  -13.2373 C   0  0  0  0  0  0  0  0  0  0  0  0
  -15.7792    1.0875  -14.5044 C   0  0  0  0  0  0  0  0  0  0  0  0
  -18.2627    1.2789  -13.5055 H   0  0  0  0  0  0  0  0  0  0  0  0
  -22.2836    0.7620  -14.1612 C   0  0  0  0  0  0  0  0  0  0  0  0
  -22.9132    2.0054  -14.0903 C   0  0  0  0  0  0  0  0  0  0  0  0
  -22.1547    3.1660  -14.0918 C   0  0  0  0  0  0  0  0  0  0  0  0
  -20.7682    3.0875  -14.1704 C   0  0  0  0  0  0  0  0  0  0  0  0
  -20.1068    1.8564  -14.2491 C   0  0  0  0  0  0  0  0  0  0  0  0
  -20.8832    0.6912  -14.2538 C   0  0  0  0  0  0  0  0  0  0  0  0
  -23.0854   -1.0445  -12.8499 C   0  0  0  0  0  0  0  0  0  0  0  0
  -22.9348   -0.4442  -14.1340 O   0  0  0  0  0  0  0  0  0  0  0  0
  -13.4592   -2.3297  -13.4352 N   0  0  0  0  0  0  0  0  0  0  0  0
  -12.5334   -2.0172  -13.7123 H   0  0  0  0  0  0  0  0  0  0  0  0
  -13.2701   -3.2437  -12.3769 C   0  0  0  0  0  0  0  0  0  0  0  0
  -12.8102   -2.8045  -11.1973 N   0  0  0  0  0  0  0  0  0  0  0  0
  -12.6338   -3.7361  -10.2505 C   0  0  0  0  0  0  0  0  0  0  0  0
  -12.8597   -5.0436  -10.3800 N   0  0  0  0  0  0  0  0  0  0  0  0
  -13.3279   -5.4760  -11.5580 C   0  0  0  0  0  0  0  0  0  0  0  0
  -13.5548   -6.8368  -11.7210 C   0  0  0  0  0  0  0  0  0  0  0  0
  -14.0480   -7.4038  -12.9089 C   0  0  0  0  0  0  0  0  0  0  0  0
  -14.3174   -6.5627  -13.9892 C   0  0  0  0  0  0  0  0  0  0  0  0
  -14.1088   -5.1808  -13.8302 C   0  0  0  0  0  0  0  0  0  0  0  0
  -13.5943   -4.6137  -12.6189 C   0  0  0  0  0  0  0  0  0  0  0  0
  -14.2448   -8.7524  -13.0417 O   0  0  0  0  0  0  0  0  0  0  0  0
  -13.1002   -9.5833  -12.8780 C   0  0  0  0  0  0  0  0  0  0  0  0
  -14.7763   -6.8889  -15.2381 O   0  0  0  0  0  0  0  0  0  0  0  0
  -13.8397   -7.2422  -16.2493 C   0  0  0  0  0  0  0  0  0  0  0  0
 21 22  1  0  0  0
 22 15  1  0  0  0
 15 16  1  0  0  0
 15 20  2  0  0  0
 16 17  2  0  0  0
 17 18  1  0  0  0
 18 19  2  0  0  0
 19  1  1  0  0  0
 19 20  1  0  0  0
  1  2  1  0  0  0
  1 14  1  0  0  0
  2  3  2  0  0  0
  2  4  1  0  0  0
  4  5  1  0  0  0
  4 13  1  0  0  0
  5  6  1  0  0  0
  6  7  1  0  0  0
  7  8  1  0  0  0
  8  9  1  0  0  0
  8 13  2  0  0  0
  9 10  2  0  0  0
 10 23  1  0  0  0
 10 11  1  0  0  0
 23 25  1  0  0  0
 23 24  1  0  0  0
 25 26  1  0  0  0
 25 34  2  0  0  0
 26 27  2  0  0  0
 27 28  1  0  0  0
 28 29  2  0  0  0
 29 30  1  0  0  0
 29 34  1  0  0  0
 30 31  2  0  0  0
 31 35  1  0  0  0
 31 32  1  0  0  0
 35 36  1  0  0  0
 32 37  1  0  0  0
 32 33  2  0  0  0
 37 38  1  0  0  0
 33 34  1  0  0  0
 11 12  2  0  0  0
 12 13  1  0  0  0
M  END
> <minimizedAffinity>
-9.34615

$$$$
