CHEMBL3656030


 34 37  0  0  0  0  0  0  0  0999 V2000
  -22.7553   -0.6627  -13.3304 N   0  0  0  0  0  0  0  0  0  0  0  0
  -22.1427   -1.3864  -13.6997 H   0  0  0  0  0  0  0  0  0  0  0  0
  -20.5198    1.9863  -14.5641 C   0  0  0  0  0  0  0  0  0  0  0  0
  -20.9934    0.7327  -14.1975 C   0  0  0  0  0  0  0  0  0  0  0  0
  -22.2825    0.6175  -13.6913 C   0  0  0  0  0  0  0  0  0  0  0  0
  -23.0707    1.7637  -13.6220 C   0  0  0  0  0  0  0  0  0  0  0  0
  -22.5210    2.9735  -14.0159 C   0  0  0  0  0  0  0  0  0  0  0  0
  -21.2599    3.1161  -14.4810 N   0  0  0  0  0  0  0  0  0  0  0  0
  -17.1835    2.9501  -15.8979 C   0  0  0  0  0  0  0  0  0  0  0  0
  -17.0825    1.5813  -15.7121 C   0  0  0  0  0  0  0  0  0  0  0  0
  -18.2720    1.1232  -15.1998 N   0  0  0  0  0  0  0  0  0  0  0  0
  -19.1611    2.1645  -15.0546 C   0  0  0  0  0  0  0  0  0  0  0  0
  -18.4946    3.3035  -15.4721 C   0  0  0  0  0  0  0  0  0  0  0  0
  -18.4972    0.1641  -14.9630 H   0  0  0  0  0  0  0  0  0  0  0  0
  -16.1925    3.8786  -16.4223 C   0  0  0  0  0  0  0  0  0  0  0  0
  -16.0245    4.0496  -17.6249 O   0  0  0  0  0  0  0  0  0  0  0  0
  -14.0717    4.5142  -15.6989 C   0  0  0  0  0  0  0  0  0  0  0  0
  -15.4769    4.5130  -15.4497 O   0  0  0  0  0  0  0  0  0  0  0  0
  -24.1029   -1.0740  -13.2594 C   0  0  0  0  0  0  0  0  0  0  0  0
  -24.8554   -1.1978  -14.4299 C   0  0  0  0  0  0  0  0  0  0  0  0
  -26.1959   -1.5716  -14.3661 C   0  0  0  0  0  0  0  0  0  0  0  0
  -26.7822   -1.8771  -13.1365 C   0  0  0  0  0  0  0  0  0  0  0  0
  -26.0276   -1.8436  -11.9644 C   0  0  0  0  0  0  0  0  0  0  0  0
  -24.6948   -1.4244  -12.0345 C   0  0  0  0  0  0  0  0  0  0  0  0
  -26.5264   -2.2196  -10.7020 N   0  0  0  0  0  0  0  0  0  0  0  0
  -27.5990   -1.6622  -10.0256 C   0  0  0  0  0  0  0  0  0  0  0  0
  -28.2817   -0.7287  -10.4366 O   0  0  0  0  0  0  0  0  0  0  0  0
  -26.1360   -3.0512  -10.2708 H   0  0  0  0  0  0  0  0  0  0  0  0
  -27.8823   -2.3229   -8.7610 C   0  0  0  0  0  0  0  0  0  0  0  0
  -28.0998   -3.6777   -8.7464 O   0  0  0  0  0  0  0  0  0  0  0  0
  -28.3270   -4.0326   -7.4572 C   0  0  0  0  0  0  0  0  0  0  0  0
  -28.2691   -2.9338   -6.6361 C   0  0  0  0  0  0  0  0  0  0  0  0
  -27.9892   -1.8174   -7.4718 C   0  0  0  0  0  0  0  0  0  0  0  0
  -27.8486   -0.3984   -7.0567 C   0  0  0  0  0  0  0  0  0  0  0  0
 17 18  1  0  0  0
 18 15  1  0  0  0
 15 16  2  0  0  0
 15  9  1  0  0  0
  9 10  2  0  0  0
  9 13  1  0  0  0
 10 11  1  0  0  0
 11 12  1  0  0  0
 11 14  1  0  0  0
 12  3  1  0  0  0
 12 13  2  0  0  0
  3  4  1  0  0  0
  3  8  2  0  0  0
  4  5  2  0  0  0
  5  1  1  0  0  0
  5  6  1  0  0  0
  1 19  1  0  0  0
  1  2  1  0  0  0
 19 20  1  0  0  0
 19 24  2  0  0  0
 20 21  2  0  0  0
 21 22  1  0  0  0
 22 23  2  0  0  0
 23 25  1  0  0  0
 23 24  1  0  0  0
 25 26  1  0  0  0
 25 28  1  0  0  0
 26 27  2  0  0  0
 26 29  1  0  0  0
 29 30  1  0  0  0
 29 33  2  0  0  0
 30 31  1  0  0  0
 31 32  2  0  0  0
 32 33  1  0  0  0
 33 34  1  0  0  0
  6  7  2  0  0  0
  7  8  1  0  0  0
M  END
> <minimizedAffinity>
-10.07213

$$$$
