CHEMBL1971649


 33 36  0  0  0  0  0  0  0  0999 V2000
  -25.9448   -1.1690  -12.2281 C   0  0  0  0  0  0  0  0  0  0  0  0
  -25.1780   -0.2080  -11.5771 C   0  0  0  0  0  0  0  0  0  0  0  0
  -24.0975    0.3851  -12.2259 C   0  0  0  0  0  0  0  0  0  0  0  0
  -23.6927    0.0088  -13.5251 C   0  0  0  0  0  0  0  0  0  0  0  0
  -24.4783   -0.9624  -14.1677 C   0  0  0  0  0  0  0  0  0  0  0  0
  -25.5857   -1.5586  -13.5201 C   0  0  0  0  0  0  0  0  0  0  0  0
  -22.4150    0.5698  -14.0569 C   0  0  0  0  0  0  0  0  0  0  0  0
  -21.4978   -0.3702  -14.5693 C   0  0  0  0  0  0  0  0  0  0  0  0
  -20.2339   -0.0201  -15.0168 C   0  0  0  0  0  0  0  0  0  0  0  0
  -19.8465    1.2935  -15.0631 C   0  0  0  0  0  0  0  0  0  0  0  0
  -18.6159    1.5382  -15.5438 N   0  0  0  0  0  0  0  0  0  0  0  0
  -18.2622    2.8280  -15.6501 C   0  0  0  0  0  0  0  0  0  0  0  0
  -19.1150    3.8420  -15.2712 C   0  0  0  0  0  0  0  0  0  0  0  0
  -20.3420    3.6104  -14.7437 N   0  0  0  0  0  0  0  0  0  0  0  0
  -20.7396    2.3091  -14.6325 C   0  0  0  0  0  0  0  0  0  0  0  0
  -22.0040    1.9290  -14.0710 C   0  0  0  0  0  0  0  0  0  0  0  0
  -22.9023    2.9713  -13.6837 N   0  0  0  0  0  0  0  0  0  0  0  0
  -22.3802    3.8374  -13.5250 H   0  0  0  0  0  0  0  0  0  0  0  0
  -23.4871    2.7140  -12.8942 H   0  0  0  0  0  0  0  0  0  0  0  0
  -28.1637   -2.5861   -9.7288 N   0  0  0  0  0  0  0  0  0  0  0  0
  -27.0381   -1.9426  -10.2149 C   0  0  0  0  0  0  0  0  0  0  0  0
  -26.1071   -1.5497   -9.5242 O   0  0  0  0  0  0  0  0  0  0  0  0
  -27.0947   -1.7024  -11.5879 N   0  0  0  0  0  0  0  0  0  0  0  0
  -28.9436   -2.6915  -10.3606 H   0  0  0  0  0  0  0  0  0  0  0  0
  -27.9889   -1.3815  -11.9284 H   0  0  0  0  0  0  0  0  0  0  0  0
  -28.8696   -6.1681   -6.3784 C   0  0  0  0  0  0  0  0  0  0  0  0
  -28.7587   -4.7075   -6.7173 C   0  0  0  0  0  0  0  0  0  0  0  0
  -28.9503   -3.7520   -5.7151 C   0  0  0  0  0  0  0  0  0  0  0  0
  -28.8141   -2.4018   -6.0126 C   0  0  0  0  0  0  0  0  0  0  0  0
  -28.5078   -1.9987   -7.3117 C   0  0  0  0  0  0  0  0  0  0  0  0
  -28.2553   -0.6944   -7.4720 F   0  0  0  0  0  0  0  0  0  0  0  0
  -28.3813   -2.9268   -8.3595 C   0  0  0  0  0  0  0  0  0  0  0  0
  -28.4776   -4.2872   -8.0326 C   0  0  0  0  0  0  0  0  0  0  0  0
 26 27  1  0  0  0
 27 28  1  0  0  0
 27 33  2  0  0  0
 28 29  2  0  0  0
 29 30  1  0  0  0
 30 31  1  0  0  0
 30 32  2  0  0  0
 32 20  1  0  0  0
 32 33  1  0  0  0
 20 21  1  0  0  0
 20 24  1  0  0  0
 21 22  2  0  0  0
 21 23  1  0  0  0
 23  1  1  0  0  0
 23 25  1  0  0  0
  1  2  1  0  0  0
  1  6  2  0  0  0
  2  3  2  0  0  0
  3  4  1  0  0  0
  4  7  1  0  0  0
  4  5  2  0  0  0
  7  8  1  0  0  0
  7 16  2  0  0  0
  8  9  2  0  0  0
  9 10  1  0  0  0
 10 11  1  0  0  0
 10 15  2  0  0  0
 11 12  2  0  0  0
 12 13  1  0  0  0
 13 14  2  0  0  0
 14 15  1  0  0  0
 15 16  1  0  0  0
 16 17  1  0  0  0
 17 18  1  0  0  0
 17 19  1  0  0  0
  5  6  1  0  0  0
M  END
> <minimizedAffinity>
-11.47956

$$$$
