CHEMBL2031909


 43 48  0  0  0  0  0  0  0  0999 V2000
  -26.0982   -1.9654   -9.6608 N   0  0  0  0  0  0  0  0  0  0  0  0
  -27.4357   -1.7006   -9.3945 C   0  0  0  0  0  0  0  0  0  0  0  0
  -28.0931   -0.8483   -9.9954 O   0  0  0  0  0  0  0  0  0  0  0  0
  -25.5513   -2.3786   -8.9047 H   0  0  0  0  0  0  0  0  0  0  0  0
  -23.9940   -0.9349  -13.2137 C   0  0  0  0  0  0  0  0  0  0  0  0
  -25.3308   -1.3395  -13.2774 C   0  0  0  0  0  0  0  0  0  0  0  0
  -26.0389   -1.6314  -12.1040 C   0  0  0  0  0  0  0  0  0  0  0  0
  -25.4112   -1.6271  -10.8507 C   0  0  0  0  0  0  0  0  0  0  0  0
  -24.0402   -1.3385  -10.7988 C   0  0  0  0  0  0  0  0  0  0  0  0
  -23.3534   -0.9708  -11.9707 C   0  0  0  0  0  0  0  0  0  0  0  0
  -22.0608   -0.6246  -11.8679 F   0  0  0  0  0  0  0  0  0  0  0  0
  -23.2505   -0.4731  -14.2807 O   0  0  0  0  0  0  0  0  0  0  0  0
  -18.6294    1.6789  -15.1731 C   0  0  0  0  0  0  0  0  0  0  0  0
  -19.0948    0.3933  -15.4010 C   0  0  0  0  0  0  0  0  0  0  0  0
  -20.4351    0.0972  -15.1809 C   0  0  0  0  0  0  0  0  0  0  0  0
  -21.3184    1.0551  -14.6331 C   0  0  0  0  0  0  0  0  0  0  0  0
  -22.6471    0.7742  -14.2338 C   0  0  0  0  0  0  0  0  0  0  0  0
  -23.4765    1.8145  -13.8124 C   0  0  0  0  0  0  0  0  0  0  0  0
  -22.9348    3.0757  -13.7201 C   0  0  0  0  0  0  0  0  0  0  0  0
  -21.6458    3.3636  -13.9977 N   0  0  0  0  0  0  0  0  0  0  0  0
  -20.8529    2.3696  -14.4365 C   0  0  0  0  0  0  0  0  0  0  0  0
  -19.5165    2.6547  -14.7035 C   0  0  0  0  0  0  0  0  0  0  0  0
  -17.1823    3.4240  -15.8113 C   0  0  0  0  0  0  0  0  0  0  0  0
  -17.3338    2.0802  -15.3591 O   0  0  0  0  0  0  0  0  0  0  0  0
  -28.0271   -2.4689   -8.2599 C   0  0  0  0  0  0  0  0  0  0  0  0
  -28.5468   -2.0612   -7.0665 C   0  0  0  0  0  0  0  0  0  0  0  0
  -29.0518   -3.1577   -6.3274 N   0  0  0  0  0  0  0  0  0  0  0  0
  -29.1042   -3.2692   -4.8682 C   0  0  0  0  0  0  0  0  0  0  0  0
  -28.6791   -4.3140   -7.0265 N   0  0  0  0  0  0  0  0  0  0  0  0
  -28.0976   -3.9573   -8.2345 C   0  0  0  0  0  0  0  0  0  0  0  0
  -27.7125   -4.6677   -9.1517 O   0  0  0  0  0  0  0  0  0  0  0  0
  -28.6340   -0.6336   -6.5298 C   0  0  0  0  0  0  0  0  0  0  0  0
  -27.6253   -0.2410   -5.4467 C   0  0  0  0  0  0  0  0  0  0  0  0
  -28.2064    1.0346   -4.8550 C   0  0  0  0  0  0  0  0  0  0  0  0
  -29.7024    0.8985   -5.0592 C   0  0  0  0  0  0  0  0  0  0  0  0
  -29.8737   -0.3342   -5.8134 N   0  0  0  0  0  0  0  0  0  0  0  0
  -30.6630   -0.2687   -6.4689 H   0  0  0  0  0  0  0  0  0  0  0  0
  -29.0183   -5.6094   -6.6149 C   0  0  0  0  0  0  0  0  0  0  0  0
  -30.1289   -6.2388   -7.1880 C   0  0  0  0  0  0  0  0  0  0  0  0
  -30.4437   -7.5552   -6.8463 C   0  0  0  0  0  0  0  0  0  0  0  0
  -29.6806   -8.2304   -5.8945 C   0  0  0  0  0  0  0  0  0  0  0  0
  -28.5824   -7.6005   -5.3073 C   0  0  0  0  0  0  0  0  0  0  0  0
  -28.2347   -6.3009   -5.6849 C   0  0  0  0  0  0  0  0  0  0  0  0
 23 24  1  0  0  0
 24 13  1  0  0  0
 13 14  1  0  0  0
 13 22  2  0  0  0
 14 15  2  0  0  0
 15 16  1  0  0  0
 16 17  1  0  0  0
 16 21  2  0  0  0
 17 12  1  0  0  0
 17 18  2  0  0  0
 12  5  1  0  0  0
  5  6  1  0  0  0
  5 10  2  0  0  0
  6  7  2  0  0  0
  7  8  1  0  0  0
  8  1  1  0  0  0
  8  9  2  0  0  0
  1  2  1  0  0  0
  1  4  1  0  0  0
  2  3  2  0  0  0
  2 25  1  0  0  0
 25 26  2  0  0  0
 25 30  1  0  0  0
 26 32  1  0  0  0
 26 27  1  0  0  0
 32 33  1  0  0  0
 32 36  1  0  0  0
 33 34  1  0  0  0
 34 35  1  0  0  0
 35 36  1  0  0  0
 36 37  1  0  0  0
 27 28  1  0  0  0
 27 29  1  0  0  0
 29 38  1  0  0  0
 29 30  1  0  0  0
 38 39  1  0  0  0
 38 43  2  0  0  0
 39 40  2  0  0  0
 40 41  1  0  0  0
 41 42  2  0  0  0
 42 43  1  0  0  0
 30 31  2  0  0  0
  9 10  1  0  0  0
 10 11  1  0  0  0
 18 19  1  0  0  0
 19 20  2  0  0  0
 20 21  1  0  0  0
 21 22  1  0  0  0
M  END
> <minimizedAffinity>
-10.52769

$$$$
