CHEMBL3929448


 46 50  0  0  0  0  0  0  0  0999 V2000
  -27.1208    9.9371  -16.5688 C   0  0  0  0  0  0  0  0  0  0  0  0
  -25.8207   10.2506  -16.9599 C   0  0  0  0  0  0  0  0  0  0  0  0
  -25.0079   11.1149  -16.2018 C   0  0  0  0  0  0  0  0  0  0  0  0
  -23.7269   11.5175  -16.6180 C   0  0  0  0  0  0  0  0  0  0  0  0
  -22.9248   12.2507  -15.8343 N   0  0  0  0  0  0  0  0  0  0  0  0
  -23.4361   12.6265  -14.6553 C   0  0  0  0  0  0  0  0  0  0  0  0
  -24.6685   12.3531  -14.1947 N   0  0  0  0  0  0  0  0  0  0  0  0
  -25.4494   11.5958  -14.9704 C   0  0  0  0  0  0  0  0  0  0  0  0
  -26.7402   11.2498  -14.5616 C   0  0  0  0  0  0  0  0  0  0  0  0
  -27.5799   10.4248  -15.3351 C   0  0  0  0  0  0  0  0  0  0  0  0
  -27.7218    7.7403  -17.3977 C   0  0  0  0  0  0  0  0  0  0  0  0
  -27.9322    9.1473  -17.3216 O   0  0  0  0  0  0  0  0  0  0  0  0
  -23.3123   11.1810  -17.9285 N   0  0  0  0  0  0  0  0  0  0  0  0
  -24.0967   11.2404  -18.5698 H   0  0  0  0  0  0  0  0  0  0  0  0
  -22.0621   11.3306  -18.5513 C   0  0  0  0  0  0  0  0  0  0  0  0
  -20.9168   11.3650  -17.7501 C   0  0  0  0  0  0  0  0  0  0  0  0
  -19.6740   11.7092  -18.2840 C   0  0  0  0  0  0  0  0  0  0  0  0
  -19.5336   12.0679  -19.6272 C   0  0  0  0  0  0  0  0  0  0  0  0
  -20.6758   11.9884  -20.4459 C   0  0  0  0  0  0  0  0  0  0  0  0
  -20.6049   12.4238  -22.1181 Cl  0  0  0  0  0  0  0  0  0  0  0  0
  -21.9205   11.6379  -19.9077 C   0  0  0  0  0  0  0  0  0  0  0  0
  -18.3061   12.5452  -20.1653 N   0  0  0  0  0  0  0  0  0  0  0  0
  -17.1309   11.8190  -20.2476 C   0  0  0  0  0  0  0  0  0  0  0  0
  -17.0162   10.6405  -19.9222 O   0  0  0  0  0  0  0  0  0  0  0  0
  -16.0516   12.5747  -20.6782 N   0  0  0  0  0  0  0  0  0  0  0  0
  -18.2765   13.5307  -20.3932 H   0  0  0  0  0  0  0  0  0  0  0  0
  -16.0767   13.5440  -20.3941 H   0  0  0  0  0  0  0  0  0  0  0  0
  -14.7675   11.9746  -20.7570 C   0  0  0  0  0  0  0  0  0  0  0  0
  -13.6802   12.6233  -20.1645 C   0  0  0  0  0  0  0  0  0  0  0  0
  -12.4345   11.9898  -20.1158 C   0  0  0  0  0  0  0  0  0  0  0  0
  -12.2666   10.7381  -20.7035 C   0  0  0  0  0  0  0  0  0  0  0  0
  -11.0624   10.1511  -20.6359 F   0  0  0  0  0  0  0  0  0  0  0  0
  -13.3306   10.1097  -21.3431 C   0  0  0  0  0  0  0  0  0  0  0  0
  -13.1192    8.5756  -22.0973 Cl  0  0  0  0  0  0  0  0  0  0  0  0
  -14.5829   10.7240  -21.3666 C   0  0  0  0  0  0  0  0  0  0  0  0
  -28.8289   10.2111  -14.7815 O   0  0  0  0  0  0  0  0  0  0  0  0
  -29.7419   11.2991  -14.9584 C   0  0  0  0  0  0  0  0  0  0  0  0
  -29.9476   12.0892  -13.6653 C   0  0  0  0  0  0  0  0  0  0  0  0
  -30.4932   11.1604  -12.5629 C   0  0  0  0  0  0  0  0  0  0  0  0
  -31.9572   11.2115  -12.4563 N   0  0  0  0  0  0  0  0  0  0  0  0
  -32.6231   10.2579  -13.3601 C   0  0  0  0  0  0  0  0  0  0  0  0
  -34.1592   10.3625  -13.2623 C   0  0  0  0  0  0  0  0  0  0  0  0
  -34.6985   10.1554  -11.9055 N   0  0  0  0  0  0  0  0  0  0  0  0
  -34.6004    8.7541  -11.5044 C   0  0  0  0  0  0  0  0  0  0  0  0
  -33.9805   11.0442  -10.9674 C   0  0  0  0  0  0  0  0  0  0  0  0
  -32.4310   11.0149  -11.0736 C   0  0  0  0  0  0  0  0  0  0  0  0
 11 12  1  0  0  0
 12  1  1  0  0  0
  1  2  1  0  0  0
  1 10  2  0  0  0
  2  3  2  0  0  0
  3  4  1  0  0  0
  3  8  1  0  0  0
  4 13  1  0  0  0
  4  5  2  0  0  0
 13 15  1  0  0  0
 13 14  1  0  0  0
 15 16  1  0  0  0
 15 21  2  0  0  0
 16 17  2  0  0  0
 17 18  1  0  0  0
 18 22  1  0  0  0
 18 19  2  0  0  0
 22 23  1  0  0  0
 22 26  1  0  0  0
 23 24  2  0  0  0
 23 25  1  0  0  0
 25 28  1  0  0  0
 25 27  1  0  0  0
 28 29  1  0  0  0
 28 35  2  0  0  0
 29 30  2  0  0  0
 30 31  1  0  0  0
 31 32  1  0  0  0
 31 33  2  0  0  0
 33 34  1  0  0  0
 33 35  1  0  0  0
 19 20  1  0  0  0
 19 21  1  0  0  0
  5  6  1  0  0  0
  6  7  2  0  0  0
  7  8  1  0  0  0
  8  9  2  0  0  0
  9 10  1  0  0  0
 10 36  1  0  0  0
 36 37  1  0  0  0
 37 38  1  0  0  0
 38 39  1  0  0  0
 39 40  1  0  0  0
 40 41  1  0  0  0
 40 46  1  0  0  0
 41 42  1  0  0  0
 42 43  1  0  0  0
 43 44  1  0  0  0
 43 45  1  0  0  0
 45 46  1  0  0  0
M  END
> <minimizedAffinity>
-1.91229

$$$$
