CHEMBL3937212


 38 41  0  0  0  0  0  0  0  0999 V2000
  -12.1398   -3.8273  -13.4582 C   0  0  0  0  0  0  0  0  0  0  0  0
  -10.9466   -3.2782  -12.9940 C   0  0  0  0  0  0  0  0  0  0  0  0
  -10.8578   -1.9207  -12.7677 C   0  0  0  0  0  0  0  0  0  0  0  0
  -11.8405   -1.0554  -13.1696 C   0  0  0  0  0  0  0  0  0  0  0  0
  -11.6761    0.1742  -12.6743 N   0  0  0  0  0  0  0  0  0  0  0  0
  -12.4743    1.1322  -13.1555 C   0  0  0  0  0  0  0  0  0  0  0  0
  -13.3661    0.9073  -14.1785 C   0  0  0  0  0  0  0  0  0  0  0  0
  -13.6357   -0.3915  -14.5996 N   0  0  0  0  0  0  0  0  0  0  0  0
  -12.9009   -1.4512  -14.0105 C   0  0  0  0  0  0  0  0  0  0  0  0
  -13.0626   -2.9103  -14.0644 C   0  0  0  0  0  0  0  0  0  0  0  0
  -13.7573    2.1222  -14.9194 C   0  0  0  0  0  0  0  0  0  0  0  0
  -13.1436    3.4046  -14.8562 C   0  0  0  0  0  0  0  0  0  0  0  0
  -13.8680    4.3679  -15.4324 N   0  0  0  0  0  0  0  0  0  0  0  0
  -14.9676    3.7263  -15.8596 N   0  0  0  0  0  0  0  0  0  0  0  0
  -15.8652    4.4173  -16.7631 C   0  0  0  0  0  0  0  0  0  0  0  0
  -15.0325    2.4134  -15.4356 C   0  0  0  0  0  0  0  0  0  0  0  0
  -16.2477    1.5680  -15.6811 C   0  0  0  0  0  0  0  0  0  0  0  0
  -17.3230    1.6874  -14.6784 N   0  0  0  0  0  0  0  0  0  0  0  0
  -18.6278    1.1743  -15.1090 C   0  0  0  0  0  0  0  0  0  0  0  0
  -16.9167    0.9468  -13.4720 C   0  0  0  0  0  0  0  0  0  0  0  0
  -12.3595   -5.1941  -13.0111 N   0  0  0  0  0  0  0  0  0  0  0  0
  -12.5992   -8.8401  -13.8932 C   0  0  0  0  0  0  0  0  0  0  0  0
  -13.2844   -8.7897  -15.1076 C   0  0  0  0  0  0  0  0  0  0  0  0
  -13.6040   -7.5600  -15.6715 C   0  0  0  0  0  0  0  0  0  0  0  0
  -13.2506   -6.3736  -15.0056 C   0  0  0  0  0  0  0  0  0  0  0  0
  -12.5636   -6.3702  -13.7761 C   0  0  0  0  0  0  0  0  0  0  0  0
  -12.2270   -7.6387  -13.2503 C   0  0  0  0  0  0  0  0  0  0  0  0
  -11.5650   -9.9118  -12.0161 C   0  0  0  0  0  0  0  0  0  0  0  0
  -12.2889  -10.0149  -13.2378 O   0  0  0  0  0  0  0  0  0  0  0  0
  -14.2886   -7.3835  -16.8473 O   0  0  0  0  0  0  0  0  0  0  0  0
  -13.7804   -8.0462  -18.0026 C   0  0  0  0  0  0  0  0  0  0  0  0
  -13.0821   -5.1211  -11.6686 C   0  0  0  0  0  0  0  0  0  0  0  0
  -14.5312   -5.6886  -11.5476 C   0  0  0  0  0  0  0  0  0  0  0  0
  -15.6003   -4.9681  -10.8346 N   0  0  0  0  0  0  0  0  0  0  0  0
  -15.2383   -4.6222   -9.9459 H   0  0  0  0  0  0  0  0  0  0  0  0
  -16.3318   -3.9048  -11.5345 C   0  0  0  0  0  0  0  0  0  0  0  0
  -15.7203   -2.5025  -11.4322 C   0  0  0  0  0  0  0  0  0  0  0  0
  -16.4046   -4.2771  -13.0261 C   0  0  0  0  0  0  0  0  0  0  0  0
 28 29  1  0  0  0
 29 22  1  0  0  0
 22 23  1  0  0  0
 22 27  2  0  0  0
 23 24  2  0  0  0
 24 30  1  0  0  0
 24 25  1  0  0  0
 30 31  1  0  0  0
 25 26  2  0  0  0
 26 21  1  0  0  0
 26 27  1  0  0  0
 21 32  1  0  0  0
 21  1  1  0  0  0
 32 33  1  0  0  0
 33 34  1  0  0  0
 34 36  1  0  0  0
 34 35  1  0  0  0
 36 37  1  0  0  0
 36 38  1  0  0  0
  1  2  1  0  0  0
  1 10  2  0  0  0
  2  3  2  0  0  0
  3  4  1  0  0  0
  4  5  1  0  0  0
  4  9  2  0  0  0
  5  6  2  0  0  0
  6  7  1  0  0  0
  7 11  1  0  0  0
  7  8  2  0  0  0
 11 12  1  0  0  0
 11 16  2  0  0  0
 12 13  2  0  0  0
 13 14  1  0  0  0
 14 15  1  0  0  0
 14 16  1  0  0  0
 16 17  1  0  0  0
 17 18  1  0  0  0
 18 19  1  0  0  0
 18 20  1  0  0  0
  8  9  1  0  0  0
  9 10  1  0  0  0
M  END
> <minimizedAffinity>
-7.07271

$$$$
