CHEMBL1242025


 28 31  0  0  0  0  0  0  0  0999 V2000
  -28.6843    1.0588   -6.9111 C   0  0  0  0  0  0  0  0  0  0  0  0
  -28.5778   -0.3199   -6.3215 C   0  0  0  0  0  0  0  0  0  0  0  0
  -29.1579   -0.5755   -5.0683 C   0  0  0  0  0  0  0  0  0  0  0  0
  -29.1618   -1.8656   -4.5288 C   0  0  0  0  0  0  0  0  0  0  0  0
  -28.5831   -2.9223   -5.2328 C   0  0  0  0  0  0  0  0  0  0  0  0
  -27.9052   -2.6385   -6.4148 C   0  0  0  0  0  0  0  0  0  0  0  0
  -27.9206   -1.3625   -6.9918 C   0  0  0  0  0  0  0  0  0  0  0  0
  -28.6729   -4.3031   -4.7560 C   0  0  0  0  0  0  0  0  0  0  0  0
  -28.7090   -4.5419   -3.4306 N   0  0  0  0  0  0  0  0  0  0  0  0
  -28.7720   -5.8792   -3.3426 N   0  0  0  0  0  0  0  0  0  0  0  0
  -28.8053   -6.5095   -4.5431 C   0  0  0  0  0  0  0  0  0  0  0  0
  -28.8820   -7.8386   -4.7225 N   0  0  0  0  0  0  0  0  0  0  0  0
  -28.8885   -8.1528   -6.0230 C   0  0  0  0  0  0  0  0  0  0  0  0
  -28.8197   -7.3155   -7.0727 N   0  0  0  0  0  0  0  0  0  0  0  0
  -28.7490   -5.9814   -6.8501 C   0  0  0  0  0  0  0  0  0  0  0  0
  -28.6410   -5.2152   -7.9901 N   0  0  0  0  0  0  0  0  0  0  0  0
  -28.7410   -5.5269   -5.5124 C   0  0  0  0  0  0  0  0  0  0  0  0
  -28.7923   -6.3138   -2.4261 H   0  0  0  0  0  0  0  0  0  0  0  0
  -28.7047   -5.7404   -8.8548 H   0  0  0  0  0  0  0  0  0  0  0  0
  -28.8748   -4.2355   -8.0028 H   0  0  0  0  0  0  0  0  0  0  0  0
  -27.3210   -1.0790   -8.1981 O   0  0  0  0  0  0  0  0  0  0  0  0
  -27.8710   -1.7796   -9.3232 C   0  0  0  0  0  0  0  0  0  0  0  0
  -27.0657   -1.6423  -10.5884 C   0  0  0  0  0  0  0  0  0  0  0  0
  -25.6934   -1.3865  -10.5855 C   0  0  0  0  0  0  0  0  0  0  0  0
  -24.9940   -1.3196  -11.7902 C   0  0  0  0  0  0  0  0  0  0  0  0
  -25.6650   -1.4914  -13.0014 C   0  0  0  0  0  0  0  0  0  0  0  0
  -27.0390   -1.7221  -13.0183 C   0  0  0  0  0  0  0  0  0  0  0  0
  -27.7372   -1.7899  -11.8159 C   0  0  0  0  0  0  0  0  0  0  0  0
  1  2  1  0  0  0
  2  3  1  0  0  0
  2  7  2  0  0  0
  3  4  2  0  0  0
  4  5  1  0  0  0
  5  8  1  0  0  0
  5  6  2  0  0  0
  8  9  2  0  0  0
  8 17  1  0  0  0
  9 10  1  0  0  0
 10 11  1  0  0  0
 10 18  1  0  0  0
 11 12  1  0  0  0
 11 17  2  0  0  0
 12 13  2  0  0  0
 13 14  1  0  0  0
 14 15  2  0  0  0
 15 16  1  0  0  0
 15 17  1  0  0  0
 16 19  1  0  0  0
 16 20  1  0  0  0
  6  7  1  0  0  0
  7 21  1  0  0  0
 21 22  1  0  0  0
 22 23  1  0  0  0
 23 24  1  0  0  0
 23 28  2  0  0  0
 24 25  2  0  0  0
 25 26  1  0  0  0
 26 27  2  0  0  0
 27 28  1  0  0  0
M  END
> <minimizedAffinity>
-9.65561

$$$$
