CHEMBL194321


 32 35  0  0  0  0  0  0  0  0999 V2000
  -29.1303   -8.2276   -6.4963 C   0  0  0  0  0  0  0  0  0  0  0  0
  -30.3042   -7.5310   -6.7775 C   0  0  0  0  0  0  0  0  0  0  0  0
  -30.5399   -6.2587   -6.2504 C   0  0  0  0  0  0  0  0  0  0  0  0
  -29.6698   -5.6851   -5.3227 C   0  0  0  0  0  0  0  0  0  0  0  0
  -28.5331   -6.4064   -4.9636 C   0  0  0  0  0  0  0  0  0  0  0  0
  -28.2503   -7.6427   -5.5727 C   0  0  0  0  0  0  0  0  0  0  0  0
  -30.2043  -11.0212   -5.4648 C   0  0  0  0  0  0  0  0  0  0  0  0
  -29.3728  -10.7202   -6.6750 C   0  0  0  0  0  0  0  0  0  0  0  0
  -28.9707  -12.0499   -7.6729 S   0  0  0  0  0  0  0  0  0  0  0  0
  -28.1671  -11.0696   -8.7907 C   0  0  0  0  0  0  0  0  0  0  0  0
  -27.6442  -11.6403   -9.8901 N   0  0  0  0  0  0  0  0  0  0  0  0
  -27.0426  -10.7612  -10.6831 C   0  0  0  0  0  0  0  0  0  0  0  0
  -26.9005   -9.4504  -10.4698 N   0  0  0  0  0  0  0  0  0  0  0  0
  -27.4209   -8.9110   -9.3485 C   0  0  0  0  0  0  0  0  0  0  0  0
  -27.1785   -7.5520   -9.2174 N   0  0  0  0  0  0  0  0  0  0  0  0
  -28.1296   -9.7277   -8.4284 C   0  0  0  0  0  0  0  0  0  0  0  0
  -28.8649   -9.5153   -7.1691 C   0  0  0  0  0  0  0  0  0  0  0  0
  -26.4947   -7.2458   -9.9006 H   0  0  0  0  0  0  0  0  0  0  0  0
  -27.0304   -7.2283   -8.2703 H   0  0  0  0  0  0  0  0  0  0  0  0
  -29.8701   -4.4093   -4.7471 N   0  0  0  0  0  0  0  0  0  0  0  0
  -29.6763   -3.2090   -5.4017 C   0  0  0  0  0  0  0  0  0  0  0  0
  -29.3696   -3.0877   -6.5788 O   0  0  0  0  0  0  0  0  0  0  0  0
  -29.8072   -2.1138   -4.5550 N   0  0  0  0  0  0  0  0  0  0  0  0
  -30.2329   -4.3662   -3.8050 H   0  0  0  0  0  0  0  0  0  0  0  0
  -29.4399   -2.2600   -3.6234 H   0  0  0  0  0  0  0  0  0  0  0  0
  -29.5644   -0.8147   -5.0898 C   0  0  0  0  0  0  0  0  0  0  0  0
  -30.6376    0.0226   -5.4296 C   0  0  0  0  0  0  0  0  0  0  0  0
  -30.4142    1.2156   -6.1128 C   0  0  0  0  0  0  0  0  0  0  0  0
  -29.1150    1.5867   -6.4526 C   0  0  0  0  0  0  0  0  0  0  0  0
  -28.0359    0.7863   -6.0712 C   0  0  0  0  0  0  0  0  0  0  0  0
  -28.2578   -0.4027   -5.3714 C   0  0  0  0  0  0  0  0  0  0  0  0
  -26.9000   -1.3954   -4.9687 Cl  0  0  0  0  0  0  0  0  0  0  0  0
  7  8  1  0  0  0
  8  9  1  0  0  0
  8 17  2  0  0  0
  9 10  1  0  0  0
 10 11  1  0  0  0
 10 16  2  0  0  0
 11 12  2  0  0  0
 12 13  1  0  0  0
 13 14  2  0  0  0
 14 15  1  0  0  0
 14 16  1  0  0  0
 15 18  1  0  0  0
 15 19  1  0  0  0
 16 17  1  0  0  0
 17  1  1  0  0  0
  1  2  1  0  0  0
  1  6  2  0  0  0
  2  3  2  0  0  0
  3  4  1  0  0  0
  4 20  1  0  0  0
  4  5  2  0  0  0
 20 21  1  0  0  0
 20 24  1  0  0  0
 21 22  2  0  0  0
 21 23  1  0  0  0
 23 26  1  0  0  0
 23 25  1  0  0  0
 26 27  1  0  0  0
 26 31  2  0  0  0
 27 28  2  0  0  0
 28 29  1  0  0  0
 29 30  2  0  0  0
 30 31  1  0  0  0
 31 32  1  0  0  0
  5  6  1  0  0  0
M  END
> <minimizedAffinity>
-8.60077

$$$$
