CHEMBL3932115


 31 35  0  0  0  0  0  0  0  0999 V2000
  -29.2093   -5.4671   -7.3798 C   0  0  0  0  0  0  0  0  0  0  0  0
  -28.8897   -4.3665   -8.1767 C   0  0  0  0  0  0  0  0  0  0  0  0
  -28.4536   -3.1515   -7.6088 C   0  0  0  0  0  0  0  0  0  0  0  0
  -28.1562   -1.9998   -8.3467 C   0  0  0  0  0  0  0  0  0  0  0  0
  -27.7038   -0.8758   -7.7543 N   0  0  0  0  0  0  0  0  0  0  0  0
  -27.5680   -0.9083   -6.4299 C   0  0  0  0  0  0  0  0  0  0  0  0
  -27.8381   -1.9466   -5.6324 N   0  0  0  0  0  0  0  0  0  0  0  0
  -28.2822   -3.0623   -6.2266 C   0  0  0  0  0  0  0  0  0  0  0  0
  -28.5921   -4.1593   -5.4436 C   0  0  0  0  0  0  0  0  0  0  0  0
  -29.0881   -5.3571   -5.9830 C   0  0  0  0  0  0  0  0  0  0  0  0
  -28.6033   -7.6206   -8.1950 C   0  0  0  0  0  0  0  0  0  0  0  0
  -29.6272   -6.6695   -7.8961 O   0  0  0  0  0  0  0  0  0  0  0  0
  -28.3451   -1.9978   -9.7613 N   0  0  0  0  0  0  0  0  0  0  0  0
  -29.1491   -1.4215   -9.9828 H   0  0  0  0  0  0  0  0  0  0  0  0
  -27.2843   -1.8367  -10.6805 C   0  0  0  0  0  0  0  0  0  0  0  0
  -25.9855   -1.5918  -10.2167 C   0  0  0  0  0  0  0  0  0  0  0  0
  -24.9490   -1.3017  -11.1008 C   0  0  0  0  0  0  0  0  0  0  0  0
  -25.1980   -1.2708  -12.4723 C   0  0  0  0  0  0  0  0  0  0  0  0
  -23.7619   -0.7590  -13.6049 Br  0  0  0  0  0  0  0  0  0  0  0  0
  -26.4737   -1.5836  -12.9550 C   0  0  0  0  0  0  0  0  0  0  0  0
  -26.8528   -1.5903  -14.6422 Cl  0  0  0  0  0  0  0  0  0  0  0  0
  -27.5106   -1.8800  -12.0594 C   0  0  0  0  0  0  0  0  0  0  0  0
  -29.5297   -6.4084   -5.2132 O   0  0  0  0  0  0  0  0  0  0  0  0
  -28.6594   -6.8971   -4.1723 C   0  0  0  0  0  0  0  0  0  0  0  0
  -29.4025   -7.7194   -3.1185 C   0  0  0  0  0  0  0  0  0  0  0  0
  -29.4281   -9.0851   -3.5559 O   0  0  0  0  0  0  0  0  0  0  0  0
  -28.2573   -9.2935   -4.3435 C   0  0  0  0  0  0  0  0  0  0  0  0
  -27.1490   -9.8921   -3.4995 C   0  0  0  0  0  0  0  0  0  0  0  0
  -25.9292   -9.1550   -3.9886 C   0  0  0  0  0  0  0  0  0  0  0  0
  -26.3855   -7.8221   -4.2478 O   0  0  0  0  0  0  0  0  0  0  0  0
  -27.7200   -7.9331   -4.7820 C   0  0  0  0  0  0  0  0  0  0  0  0
 11 12  1  0  0  0
 12  1  1  0  0  0
  1  2  1  0  0  0
  1 10  2  0  0  0
  2  3  2  0  0  0
  3  4  1  0  0  0
  3  8  1  0  0  0
  4 13  1  0  0  0
  4  5  2  0  0  0
 13 15  1  0  0  0
 13 14  1  0  0  0
 15 16  1  0  0  0
 15 22  2  0  0  0
 16 17  2  0  0  0
 17 18  1  0  0  0
 18 19  1  0  0  0
 18 20  2  0  0  0
 20 21  1  0  0  0
 20 22  1  0  0  0
  5  6  1  0  0  0
  6  7  2  0  0  0
  7  8  1  0  0  0
  8  9  2  0  0  0
  9 10  1  0  0  0
 10 23  1  0  0  0
 24 25  1  0  0  0
 24 31  1  0  0  0
 24 23  1  0  0  0
 25 26  1  0  0  0
 26 27  1  0  0  0
 27 28  1  0  0  0
 27 31  1  0  0  0
 28 29  1  0  0  0
 29 30  1  0  0  0
 30 31  1  0  0  0
M  END
> <minimizedAffinity>
-8.27840

$$$$
