CHEMBL488646


 34 37  0  0  0  0  0  0  0  0999 V2000
  -27.1699  -10.2547   -8.3986 C   0  0  0  0  0  0  0  0  0  0  0  0
  -28.0316   -9.4784   -9.0852 C   0  0  0  0  0  0  0  0  0  0  0  0
  -28.3418  -10.0103  -10.4541 C   0  0  0  0  0  0  0  0  0  0  0  0
  -27.6682  -11.2541  -10.4345 N   0  0  0  0  0  0  0  0  0  0  0  0
  -26.9774  -11.4461   -9.2701 C   0  0  0  0  0  0  0  0  0  0  0  0
  -26.3695  -12.4660   -8.9971 O   0  0  0  0  0  0  0  0  0  0  0  0
  -27.7792  -11.9990  -11.1094 H   0  0  0  0  0  0  0  0  0  0  0  0
  -28.8560   -8.3595   -8.7600 C   0  0  0  0  0  0  0  0  0  0  0  0
  -28.2829   -7.1981   -8.2749 C   0  0  0  0  0  0  0  0  0  0  0  0
  -29.0560   -6.8183   -7.1980 N   0  0  0  0  0  0  0  0  0  0  0  0
  -30.2424   -7.5381   -7.1933 C   0  0  0  0  0  0  0  0  0  0  0  0
  -31.2858   -7.5913   -6.2495 C   0  0  0  0  0  0  0  0  0  0  0  0
  -32.3520   -8.4595   -6.4825 C   0  0  0  0  0  0  0  0  0  0  0  0
  -32.3933   -9.2375   -7.6326 C   0  0  0  0  0  0  0  0  0  0  0  0
  -31.3147   -9.2454   -8.5266 C   0  0  0  0  0  0  0  0  0  0  0  0
  -30.2036   -8.4074   -8.2900 C   0  0  0  0  0  0  0  0  0  0  0  0
  -28.4777   -6.2434   -5.9801 C   0  0  0  0  0  0  0  0  0  0  0  0
  -28.4670   -4.8190   -6.0043 O   0  0  0  0  0  0  0  0  0  0  0  0
  -29.2213   -4.2271   -4.9193 C   0  0  0  0  0  0  0  0  0  0  0  0
  -29.6382   -5.2814   -3.8830 C   0  0  0  0  0  0  0  0  0  0  0  0
  -28.3051   -3.2034   -4.2339 C   0  0  0  0  0  0  0  0  0  0  0  0
  -30.4509   -3.4720   -5.4532 C   0  0  0  0  0  0  0  0  0  0  0  0
  -24.6300   -9.8905   -5.5990 C   0  0  0  0  0  0  0  0  0  0  0  0
  -25.2057  -10.0330   -6.8647 C   0  0  0  0  0  0  0  0  0  0  0  0
  -26.5809  -10.1186   -7.0563 C   0  0  0  0  0  0  0  0  0  0  0  0
  -27.4027  -10.0702   -5.9221 C   0  0  0  0  0  0  0  0  0  0  0  0
  -26.8596   -9.9600   -4.6348 C   0  0  0  0  0  0  0  0  0  0  0  0
  -25.4668   -9.8409   -4.4676 C   0  0  0  0  0  0  0  0  0  0  0  0
  -22.4908  -10.6887   -6.2769 C   0  0  0  0  0  0  0  0  0  0  0  0
  -23.2699   -9.8635   -5.4162 O   0  0  0  0  0  0  0  0  0  0  0  0
  -27.6363   -9.9038   -3.5001 O   0  0  0  0  0  0  0  0  0  0  0  0
  -28.6613   -8.9151   -3.4984 C   0  0  0  0  0  0  0  0  0  0  0  0
  -25.0401   -9.7485   -3.1625 O   0  0  0  0  0  0  0  0  0  0  0  0
  -24.5600  -10.9444   -2.5637 C   0  0  0  0  0  0  0  0  0  0  0  0
 29 30  1  0  0  0
 30 23  1  0  0  0
 23 24  1  0  0  0
 23 28  2  0  0  0
 24 25  2  0  0  0
 25  1  1  0  0  0
 25 26  1  0  0  0
  1  2  2  0  0  0
  1  5  1  0  0  0
  2  8  1  0  0  0
  2  3  1  0  0  0
  8  9  2  0  0  0
  8 16  1  0  0  0
  9 10  1  0  0  0
 10 17  1  0  0  0
 10 11  1  0  0  0
 17 18  1  0  0  0
 18 19  1  0  0  0
 19 20  1  0  0  0
 19 21  1  0  0  0
 19 22  1  0  0  0
 11 12  1  0  0  0
 11 16  2  0  0  0
 12 13  2  0  0  0
 13 14  1  0  0  0
 14 15  2  0  0  0
 15 16  1  0  0  0
  3  4  1  0  0  0
  4  5  1  0  0  0
  4  7  1  0  0  0
  5  6  2  0  0  0
 26 27  2  0  0  0
 27 31  1  0  0  0
 27 28  1  0  0  0
 31 32  1  0  0  0
 28 33  1  0  0  0
 33 34  1  0  0  0
M  END
> <minimizedAffinity>
-6.73109

$$$$
