CHEMBL3896927


 31 34  0  0  0  0  0  0  0  0999 V2000
  -13.9782    0.1325  -13.6262 C   0  0  0  0  0  0  0  0  0  0  0  0
  -14.2681    1.0822  -14.6063 C   0  0  0  0  0  0  0  0  0  0  0  0
  -15.5949    1.4898  -14.8841 C   0  0  0  0  0  0  0  0  0  0  0  0
  -15.9569    2.4225  -15.8748 C   0  0  0  0  0  0  0  0  0  0  0  0
  -17.2202    2.8501  -16.0331 N   0  0  0  0  0  0  0  0  0  0  0  0
  -18.1410    2.3038  -15.2252 C   0  0  0  0  0  0  0  0  0  0  0  0
  -17.9144    1.3812  -14.2837 N   0  0  0  0  0  0  0  0  0  0  0  0
  -16.6469    0.9846  -14.1249 C   0  0  0  0  0  0  0  0  0  0  0  0
  -16.3617    0.0174  -13.1794 C   0  0  0  0  0  0  0  0  0  0  0  0
  -15.0604   -0.4743  -12.9617 C   0  0  0  0  0  0  0  0  0  0  0  0
  -11.6578    0.7352  -13.3412 C   0  0  0  0  0  0  0  0  0  0  0  0
  -12.7077   -0.2338  -13.2709 O   0  0  0  0  0  0  0  0  0  0  0  0
  -14.9519    2.8706  -16.7637 N   0  0  0  0  0  0  0  0  0  0  0  0
  -15.0902    2.4450  -17.6709 H   0  0  0  0  0  0  0  0  0  0  0  0
  -14.2856    4.1136  -16.7766 C   0  0  0  0  0  0  0  0  0  0  0  0
  -13.4766    4.4737  -15.6835 C   0  0  0  0  0  0  0  0  0  0  0  0
  -12.6723    5.6113  -15.7175 C   0  0  0  0  0  0  0  0  0  0  0  0
  -12.6606    6.4021  -16.8566 C   0  0  0  0  0  0  0  0  0  0  0  0
  -13.4713    6.0800  -17.9491 C   0  0  0  0  0  0  0  0  0  0  0  0
  -13.3802    7.1380  -19.3154 Cl  0  0  0  0  0  0  0  0  0  0  0  0
  -14.3007    4.9400  -17.9284 C   0  0  0  0  0  0  0  0  0  0  0  0
  -15.2132    4.6023  -19.0813 C   0  0  0  0  0  0  0  0  0  0  0  0
  -14.8227   -1.5528  -12.1225 O   0  0  0  0  0  0  0  0  0  0  0  0
  -15.8398   -2.5705  -12.2146 C   0  0  0  0  0  0  0  0  0  0  0  0
  -16.0612   -3.3772  -10.9249 C   0  0  0  0  0  0  0  0  0  0  0  0
  -14.7611   -3.6540  -10.1517 C   0  0  0  0  0  0  0  0  0  0  0  0
  -13.8712   -4.5466  -10.9225 N   0  0  0  0  0  0  0  0  0  0  0  0
  -12.6112   -4.7539  -10.2200 C   0  0  0  0  0  0  0  0  0  0  0  0
  -14.5760   -5.8177  -11.1695 C   0  0  0  0  0  0  0  0  0  0  0  0
  -15.9109   -5.5765  -11.8953 C   0  0  0  0  0  0  0  0  0  0  0  0
  -16.7457   -4.6268  -11.2074 O   0  0  0  0  0  0  0  0  0  0  0  0
 11 12  1  0  0  0
 12  1  1  0  0  0
  1  2  1  0  0  0
  1 10  2  0  0  0
  2  3  2  0  0  0
  3  4  1  0  0  0
  3  8  1  0  0  0
  4 13  1  0  0  0
  4  5  2  0  0  0
 13 15  1  0  0  0
 13 14  1  0  0  0
 15 16  1  0  0  0
 15 21  2  0  0  0
 16 17  2  0  0  0
 17 18  1  0  0  0
 18 19  2  0  0  0
 19 20  1  0  0  0
 19 21  1  0  0  0
 21 22  1  0  0  0
  5  6  1  0  0  0
  6  7  2  0  0  0
  7  8  1  0  0  0
  8  9  2  0  0  0
  9 10  1  0  0  0
 10 23  1  0  0  0
 23 24  1  0  0  0
 24 25  1  0  0  0
 25 26  1  0  0  0
 25 31  1  0  0  0
 26 27  1  0  0  0
 27 28  1  0  0  0
 27 29  1  0  0  0
 29 30  1  0  0  0
 30 31  1  0  0  0
M  END
> <minimizedAffinity>
-7.25055

$$$$
