CHEMBL4582488


 35 38  0  0  0  0  0  0  0  0999 V2000
  -20.1902    1.9602  -14.4068 C   0  0  0  0  0  0  0  0  0  0  0  0
  -19.2631    0.9328  -14.6241 C   0  0  0  0  0  0  0  0  0  0  0  0
  -18.0377    1.1799  -15.2472 C   0  0  0  0  0  0  0  0  0  0  0  0
  -17.7226    2.4694  -15.6536 C   0  0  0  0  0  0  0  0  0  0  0  0
  -18.6625    3.5003  -15.5048 C   0  0  0  0  0  0  0  0  0  0  0  0
  -19.8907    3.2446  -14.8803 C   0  0  0  0  0  0  0  0  0  0  0  0
  -21.8434   -0.4348  -14.2922 O   0  0  0  0  0  0  0  0  0  0  0  0
  -22.1863    0.6177  -13.7628 C   0  0  0  0  0  0  0  0  0  0  0  0
  -23.4145    0.8022  -13.1347 N   0  0  0  0  0  0  0  0  0  0  0  0
  -21.4261    1.7652  -13.7446 N   0  0  0  0  0  0  0  0  0  0  0  0
  -23.6570    1.7447  -12.8798 H   0  0  0  0  0  0  0  0  0  0  0  0
  -21.7169    2.5001  -13.1136 H   0  0  0  0  0  0  0  0  0  0  0  0
  -24.4617   -0.1523  -13.0534 C   0  0  0  0  0  0  0  0  0  0  0  0
  -24.9084   -0.9104  -14.1396 C   0  0  0  0  0  0  0  0  0  0  0  0
  -25.9970   -1.7782  -14.0028 C   0  0  0  0  0  0  0  0  0  0  0  0
  -26.6399   -1.9065  -12.7752 C   0  0  0  0  0  0  0  0  0  0  0  0
  -26.1783   -1.1801  -11.6791 C   0  0  0  0  0  0  0  0  0  0  0  0
  -25.0890   -0.3122  -11.8209 C   0  0  0  0  0  0  0  0  0  0  0  0
  -16.4057    2.7169  -16.2733 C   0  0  0  0  0  0  0  0  0  0  0  0
  -15.6844    1.7752  -16.5912 O   0  0  0  0  0  0  0  0  0  0  0  0
  -16.1251    4.0606  -16.4747 N   0  0  0  0  0  0  0  0  0  0  0  0
  -16.7496    4.7469  -16.0509 H   0  0  0  0  0  0  0  0  0  0  0  0
  -15.5411    4.3980  -17.6607 N   0  0  0  0  0  0  0  0  0  0  0  0
  -14.4245    5.0447  -17.5856 C   0  0  0  0  0  0  0  0  0  0  0  0
  -13.5175    5.2980  -16.3808 C   0  0  0  0  0  0  0  0  0  0  0  0
  -13.5162    4.6719  -15.3447 O   0  0  0  0  0  0  0  0  0  0  0  0
  -12.8454    6.4667  -16.6795 N   0  0  0  0  0  0  0  0  0  0  0  0
  -13.3495    7.0029  -17.8623 C   0  0  0  0  0  0  0  0  0  0  0  0
  -13.4111    8.3352  -18.2078 C   0  0  0  0  0  0  0  0  0  0  0  0
  -14.2053    8.6735  -19.3158 C   0  0  0  0  0  0  0  0  0  0  0  0
  -14.8346    7.6796  -20.0956 C   0  0  0  0  0  0  0  0  0  0  0  0
  -15.9076    8.1849  -21.5683 Br  0  0  0  0  0  0  0  0  0  0  0  0
  -14.7773    6.3400  -19.7323 C   0  0  0  0  0  0  0  0  0  0  0  0
  -14.0814    6.0558  -18.5749 C   0  0  0  0  0  0  0  0  0  0  0  0
  -12.2080    6.9182  -16.0382 H   0  0  0  0  0  0  0  0  0  0  0  0
  7  8  2  0  0  0
  8  9  1  0  0  0
  8 10  1  0  0  0
  9 13  1  0  0  0
  9 11  1  0  0  0
 13 14  1  0  0  0
 13 18  2  0  0  0
 14 15  2  0  0  0
 15 16  1  0  0  0
 16 17  2  0  0  0
 17 18  1  0  0  0
 10  1  1  0  0  0
 10 12  1  0  0  0
  1  2  1  0  0  0
  1  6  2  0  0  0
  2  3  2  0  0  0
  3  4  1  0  0  0
  4 19  1  0  0  0
  4  5  2  0  0  0
 19 20  2  0  0  0
 19 21  1  0  0  0
 21 23  1  0  0  0
 21 22  1  0  0  0
 23 24  2  0  0  0
 24 25  1  0  0  0
 24 34  1  0  0  0
 25 26  2  0  0  0
 25 27  1  0  0  0
 27 28  1  0  0  0
 27 35  1  0  0  0
 28 29  1  0  0  0
 28 34  2  0  0  0
 29 30  2  0  0  0
 30 31  1  0  0  0
 31 32  1  0  0  0
 31 33  2  0  0  0
 33 34  1  0  0  0
  5  6  1  0  0  0
M  END
> <minimizedAffinity>
-10.03204

$$$$
