CHEMBL3656112


 41 45  0  0  0  0  0  0  0  0999 V2000
  -21.6470    0.9592  -14.4171 C   0  0  0  0  0  0  0  0  0  0  0  0
  -22.3505    2.1205  -14.1183 C   0  0  0  0  0  0  0  0  0  0  0  0
  -21.7138    3.3360  -14.2990 C   0  0  0  0  0  0  0  0  0  0  0  0
  -20.4310    3.4656  -14.6987 N   0  0  0  0  0  0  0  0  0  0  0  0
  -19.7453    2.3204  -14.9201 C   0  0  0  0  0  0  0  0  0  0  0  0
  -20.3111    1.0552  -14.7985 C   0  0  0  0  0  0  0  0  0  0  0  0
  -18.3536    2.5209  -15.3065 C   0  0  0  0  0  0  0  0  0  0  0  0
  -17.3267    1.6199  -15.5088 C   0  0  0  0  0  0  0  0  0  0  0  0
  -16.1686    2.3182  -15.9599 C   0  0  0  0  0  0  0  0  0  0  0  0
  -16.4976    3.6621  -15.8924 C   0  0  0  0  0  0  0  0  0  0  0  0
  -17.8101    3.7705  -15.5080 N   0  0  0  0  0  0  0  0  0  0  0  0
  -18.3272    4.6294  -15.3678 H   0  0  0  0  0  0  0  0  0  0  0  0
  -14.8532    1.7800  -16.3062 C   0  0  0  0  0  0  0  0  0  0  0  0
  -14.5950    1.4249  -17.4553 O   0  0  0  0  0  0  0  0  0  0  0  0
  -13.8930    1.7405  -15.3049 N   0  0  0  0  0  0  0  0  0  0  0  0
  -12.5013    1.4754  -15.6354 C   0  0  0  0  0  0  0  0  0  0  0  0
  -11.7852    1.3175  -14.2933 C   0  0  0  0  0  0  0  0  0  0  0  0
  -12.7361    1.9657  -13.2936 C   0  0  0  0  0  0  0  0  0  0  0  0
  -12.5527    3.3836  -13.2912 O   0  0  0  0  0  0  0  0  0  0  0  0
  -14.1044    1.6098  -13.8651 C   0  0  0  0  0  0  0  0  0  0  0  0
  -12.8177    3.7126  -14.1703 H   0  0  0  0  0  0  0  0  0  0  0  0
  -22.1591   -0.3147  -14.2912 O   0  0  0  0  0  0  0  0  0  0  0  0
  -25.8680   -0.9088  -12.4420 C   0  0  0  0  0  0  0  0  0  0  0  0
  -25.6370   -1.4523  -13.7117 C   0  0  0  0  0  0  0  0  0  0  0  0
  -24.4076   -1.2844  -14.3497 C   0  0  0  0  0  0  0  0  0  0  0  0
  -23.4152   -0.5069  -13.7556 C   0  0  0  0  0  0  0  0  0  0  0  0
  -23.6505    0.0582  -12.4966 C   0  0  0  0  0  0  0  0  0  0  0  0
  -24.8823   -0.1204  -11.8480 C   0  0  0  0  0  0  0  0  0  0  0  0
  -28.1374   -2.0038   -9.8259 N   0  0  0  0  0  0  0  0  0  0  0  0
  -26.9189   -1.7432  -10.4288 C   0  0  0  0  0  0  0  0  0  0  0  0
  -25.8274   -1.8881   -9.8901 O   0  0  0  0  0  0  0  0  0  0  0  0
  -27.0485   -1.2344  -11.7205 N   0  0  0  0  0  0  0  0  0  0  0  0
  -28.9466   -2.0412  -10.4282 H   0  0  0  0  0  0  0  0  0  0  0  0
  -27.8415   -0.6240  -11.8550 H   0  0  0  0  0  0  0  0  0  0  0  0
  -27.5028   -1.0197   -4.9949 C   0  0  0  0  0  0  0  0  0  0  0  0
  -27.9904   -1.9188   -6.0941 C   0  0  0  0  0  0  0  0  0  0  0  0
  -28.5931   -3.1380   -5.7645 C   0  0  0  0  0  0  0  0  0  0  0  0
  -29.0518   -3.9799   -6.7674 C   0  0  0  0  0  0  0  0  0  0  0  0
  -28.9011   -3.6161   -8.1045 C   0  0  0  0  0  0  0  0  0  0  0  0
  -28.3074   -2.4021   -8.4709 C   0  0  0  0  0  0  0  0  0  0  0  0
  -27.8422   -1.5581   -7.4499 C   0  0  0  0  0  0  0  0  0  0  0  0
 35 36  1  0  0  0
 36 37  1  0  0  0
 36 41  2  0  0  0
 37 38  2  0  0  0
 38 39  1  0  0  0
 39 40  2  0  0  0
 40 29  1  0  0  0
 40 41  1  0  0  0
 29 30  1  0  0  0
 29 33  1  0  0  0
 30 31  2  0  0  0
 30 32  1  0  0  0
 32 23  1  0  0  0
 32 34  1  0  0  0
 23 24  1  0  0  0
 23 28  2  0  0  0
 24 25  2  0  0  0
 25 26  1  0  0  0
 26 22  1  0  0  0
 26 27  2  0  0  0
 22  1  1  0  0  0
  1  2  1  0  0  0
  1  6  2  0  0  0
  2  3  2  0  0  0
  3  4  1  0  0  0
  4  5  2  0  0  0
  5  7  1  0  0  0
  5  6  1  0  0  0
  7  8  2  0  0  0
  7 11  1  0  0  0
  8  9  1  0  0  0
  9 13  1  0  0  0
  9 10  2  0  0  0
 13 14  2  0  0  0
 13 15  1  0  0  0
 15 16  1  0  0  0
 15 20  1  0  0  0
 16 17  1  0  0  0
 17 18  1  0  0  0
 18 19  1  0  0  0
 18 20  1  0  0  0
 19 21  1  0  0  0
 10 11  1  0  0  0
 11 12  1  0  0  0
 27 28  1  0  0  0
M  END
> <minimizedAffinity>
-12.70416

$$$$
