CHEMBL236205


 28 30  0  0  0  0  0  0  0  0999 V2000
  -14.6194    0.5680  -12.4567 O   0  0  0  0  0  0  0  0  0  0  0  0
  -15.0531   -0.0677  -13.4146 C   0  0  0  0  0  0  0  0  0  0  0  0
  -15.3695   -1.4181  -13.3766 N   0  0  0  0  0  0  0  0  0  0  0  0
  -15.8431   -1.7975  -14.1865 H   0  0  0  0  0  0  0  0  0  0  0  0
  -15.1235   -2.3257  -12.3236 C   0  0  0  0  0  0  0  0  0  0  0  0
  -15.8549   -2.3533  -11.1354 C   0  0  0  0  0  0  0  0  0  0  0  0
  -15.5409   -3.2578  -10.1074 C   0  0  0  0  0  0  0  0  0  0  0  0
  -14.5112   -4.1761  -10.2706 C   0  0  0  0  0  0  0  0  0  0  0  0
  -13.7556   -4.1339  -11.4462 C   0  0  0  0  0  0  0  0  0  0  0  0
  -14.0614   -3.2205  -12.4655 C   0  0  0  0  0  0  0  0  0  0  0  0
  -14.1263   -5.1322   -9.3824 O   0  0  0  0  0  0  0  0  0  0  0  0
  -12.9486   -4.9460   -8.6095 C   0  0  0  0  0  0  0  0  0  0  0  0
  -12.6710   -3.6527   -8.3426 F   0  0  0  0  0  0  0  0  0  0  0  0
  -13.1190   -5.5765   -7.4243 F   0  0  0  0  0  0  0  0  0  0  0  0
  -11.8938   -5.5070   -9.2362 F   0  0  0  0  0  0  0  0  0  0  0  0
  -15.2773    0.5718  -14.7010 C   0  0  0  0  0  0  0  0  0  0  0  0
  -14.4125    0.7597  -15.7675 C   0  0  0  0  0  0  0  0  0  0  0  0
  -15.1338    1.4953  -16.7195 C   0  0  0  0  0  0  0  0  0  0  0  0
  -16.3706    1.7619  -16.3099 N   0  0  0  0  0  0  0  0  0  0  0  0
  -16.4511    1.2015  -15.0809 N   0  0  0  0  0  0  0  0  0  0  0  0
  -17.6950    1.3477  -14.3212 C   0  0  0  0  0  0  0  0  0  0  0  0
  -18.9371    0.8646  -15.0888 C   0  0  0  0  0  0  0  0  0  0  0  0
  -20.2936    1.3265  -14.6032 C   0  0  0  0  0  0  0  0  0  0  0  0
  -20.5380    2.7044  -14.5145 C   0  0  0  0  0  0  0  0  0  0  0  0
  -21.8004    3.1505  -14.1536 C   0  0  0  0  0  0  0  0  0  0  0  0
  -22.8308    2.3300  -13.8813 N   0  0  0  0  0  0  0  0  0  0  0  0
  -22.5856    1.0051  -13.9799 C   0  0  0  0  0  0  0  0  0  0  0  0
  -21.3558    0.4614  -14.3325 C   0  0  0  0  0  0  0  0  0  0  0  0
  1  2  2  0  0  0
  2  3  1  0  0  0
  2 16  1  0  0  0
  3  5  1  0  0  0
  3  4  1  0  0  0
  5  6  1  0  0  0
  5 10  2  0  0  0
  6  7  2  0  0  0
  7  8  1  0  0  0
  8 11  1  0  0  0
  8  9  2  0  0  0
 11 12  1  0  0  0
 12 13  1  0  0  0
 12 14  1  0  0  0
 12 15  1  0  0  0
  9 10  1  0  0  0
 16 17  2  0  0  0
 16 20  1  0  0  0
 17 18  1  0  0  0
 18 19  2  0  0  0
 19 20  1  0  0  0
 20 21  1  0  0  0
 21 22  1  0  0  0
 22 23  1  0  0  0
 23 24  1  0  0  0
 23 28  2  0  0  0
 24 25  2  0  0  0
 25 26  1  0  0  0
 26 27  2  0  0  0
 27 28  1  0  0  0
M  END
> <minimizedAffinity>
-8.29821

$$$$
