CHEMBL3979028


 34 38  0  0  0  0  0  0  0  0999 V2000
  -28.6077   -9.4575   -5.7516 N   0  0  0  0  0  0  0  0  0  0  0  0
  -28.5649   -8.1020   -5.2328 C   0  0  0  0  0  0  0  0  0  0  0  0
  -29.0706   -7.9837   -3.9403 C   0  0  0  0  0  0  0  0  0  0  0  0
  -29.6481   -6.8020   -3.5201 C   0  0  0  0  0  0  0  0  0  0  0  0
  -29.5830   -5.6657   -4.2817 C   0  0  0  0  0  0  0  0  0  0  0  0
  -30.3759   -4.6951   -3.8219 N   0  0  0  0  0  0  0  0  0  0  0  0
  -30.2039   -3.4817   -4.3480 C   0  0  0  0  0  0  0  0  0  0  0  0
  -29.2024   -3.2162   -5.2543 C   0  0  0  0  0  0  0  0  0  0  0  0
  -28.4932   -4.2457   -5.8497 N   0  0  0  0  0  0  0  0  0  0  0  0
  -28.7344   -5.5687   -5.3959 C   0  0  0  0  0  0  0  0  0  0  0  0
  -28.2959   -6.8714   -5.9146 C   0  0  0  0  0  0  0  0  0  0  0  0
  -28.8647   -1.7962   -5.3856 C   0  0  0  0  0  0  0  0  0  0  0  0
  -27.9120   -1.0182   -4.6667 C   0  0  0  0  0  0  0  0  0  0  0  0
  -28.0837    0.3020   -4.8253 N   0  0  0  0  0  0  0  0  0  0  0  0
  -29.1578    0.3821   -5.6273 N   0  0  0  0  0  0  0  0  0  0  0  0
  -29.5147    1.6293   -6.2633 C   0  0  0  0  0  0  0  0  0  0  0  0
  -29.7543   -0.8310   -5.8367 C   0  0  0  0  0  0  0  0  0  0  0  0
  -29.7603  -11.0576   -8.9930 C   0  0  0  0  0  0  0  0  0  0  0  0
  -31.1089  -11.2830   -8.7184 C   0  0  0  0  0  0  0  0  0  0  0  0
  -31.6423  -10.8584   -7.5014 C   0  0  0  0  0  0  0  0  0  0  0  0
  -30.8217  -10.2250   -6.5453 C   0  0  0  0  0  0  0  0  0  0  0  0
  -29.4450  -10.0556   -6.7411 C   0  0  0  0  0  0  0  0  0  0  0  0
  -28.9566  -10.4538   -8.0134 C   0  0  0  0  0  0  0  0  0  0  0  0
  -28.3185  -10.4301  -10.7967 C   0  0  0  0  0  0  0  0  0  0  0  0
  -29.1334  -11.4142  -10.1585 O   0  0  0  0  0  0  0  0  0  0  0  0
  -32.9536  -11.0113   -7.1277 O   0  0  0  0  0  0  0  0  0  0  0  0
  -33.2571  -12.1121   -6.2753 C   0  0  0  0  0  0  0  0  0  0  0  0
  -28.1276  -10.3925   -4.6610 C   0  0  0  0  0  0  0  0  0  0  0  0
  -26.6239  -10.5471   -4.3559 C   0  0  0  0  0  0  0  0  0  0  0  0
  -25.5646   -9.9458   -5.0373 C   0  0  0  0  0  0  0  0  0  0  0  0
  -24.2762  -10.0374   -4.5054 C   0  0  0  0  0  0  0  0  0  0  0  0
  -23.9693  -10.6982   -3.3616 N   0  0  0  0  0  0  0  0  0  0  0  0
  -24.9868  -11.2904   -2.7201 C   0  0  0  0  0  0  0  0  0  0  0  0
  -26.3025  -11.2372   -3.1658 C   0  0  0  0  0  0  0  0  0  0  0  0
 24 25  1  0  0  0
 25 18  1  0  0  0
 18 19  1  0  0  0
 18 23  2  0  0  0
 19 20  2  0  0  0
 20 26  1  0  0  0
 20 21  1  0  0  0
 26 27  1  0  0  0
 21 22  2  0  0  0
 22  1  1  0  0  0
 22 23  1  0  0  0
  1 28  1  0  0  0
  1  2  1  0  0  0
 28 29  1  0  0  0
 29 30  1  0  0  0
 29 34  2  0  0  0
 30 31  2  0  0  0
 31 32  1  0  0  0
 32 33  2  0  0  0
 33 34  1  0  0  0
  2  3  1  0  0  0
  2 11  2  0  0  0
  3  4  2  0  0  0
  4  5  1  0  0  0
  5  6  1  0  0  0
  5 10  2  0  0  0
  6  7  2  0  0  0
  7  8  1  0  0  0
  8 12  1  0  0  0
  8  9  2  0  0  0
 12 13  1  0  0  0
 12 17  2  0  0  0
 13 14  2  0  0  0
 14 15  1  0  0  0
 15 16  1  0  0  0
 15 17  1  0  0  0
  9 10  1  0  0  0
 10 11  1  0  0  0
M  END
> <minimizedAffinity>
-7.74647

$$$$
