CHEMBL491871


 31 34  0  0  0  0  0  0  0  0999 V2000
  -27.1229   -2.2776   -9.5660 N   0  0  0  0  0  0  0  0  0  0  0  0
  -27.6423   -3.4513   -9.0702 C   0  0  0  0  0  0  0  0  0  0  0  0
  -28.1040   -3.1292   -7.8176 C   0  0  0  0  0  0  0  0  0  0  0  0
  -27.7670   -1.8301   -7.5426 N   0  0  0  0  0  0  0  0  0  0  0  0
  -27.1525   -1.3276   -8.6026 N   0  0  0  0  0  0  0  0  0  0  0  0
  -25.7330   -1.4939  -13.4936 C   0  0  0  0  0  0  0  0  0  0  0  0
  -27.1070   -1.6335  -13.2251 C   0  0  0  0  0  0  0  0  0  0  0  0
  -27.5627   -1.8857  -11.9290 C   0  0  0  0  0  0  0  0  0  0  0  0
  -26.6513   -1.9928  -10.8725 C   0  0  0  0  0  0  0  0  0  0  0  0
  -25.2808   -1.8525  -11.1281 C   0  0  0  0  0  0  0  0  0  0  0  0
  -24.8310   -1.6090  -12.4318 C   0  0  0  0  0  0  0  0  0  0  0  0
  -23.1239   -1.4727  -12.6616 Cl  0  0  0  0  0  0  0  0  0  0  0  0
  -24.7044   -2.3131  -15.4947 F   0  0  0  0  0  0  0  0  0  0  0  0
  -25.2671   -1.2215  -14.8989 C   0  0  0  0  0  0  0  0  0  0  0  0
  -24.3190   -0.2471  -14.9693 F   0  0  0  0  0  0  0  0  0  0  0  0
  -26.2773   -0.8403  -15.7279 F   0  0  0  0  0  0  0  0  0  0  0  0
  -28.8000   -3.9856   -6.8649 C   0  0  0  0  0  0  0  0  0  0  0  0
  -29.6526   -4.9619   -7.4246 C   0  0  0  0  0  0  0  0  0  0  0  0
  -30.3507   -5.8631   -6.6253 C   0  0  0  0  0  0  0  0  0  0  0  0
  -30.2207   -5.7918   -5.2497 C   0  0  0  0  0  0  0  0  0  0  0  0
  -29.3842   -4.8294   -4.6762 C   0  0  0  0  0  0  0  0  0  0  0  0
  -28.6198   -3.9361   -5.4559 C   0  0  0  0  0  0  0  0  0  0  0  0
  -27.8065   -2.9621   -4.8316 N   0  0  0  0  0  0  0  0  0  0  0  0
  -27.0274   -3.4026   -4.3481 H   0  0  0  0  0  0  0  0  0  0  0  0
  -28.4470   -2.0000   -3.9379 C   0  0  0  0  0  0  0  0  0  0  0  0
  -28.8090   -0.7557   -4.7107 C   0  0  0  0  0  0  0  0  0  0  0  0
  -27.8351    0.2039   -5.0090 C   0  0  0  0  0  0  0  0  0  0  0  0
  -28.2026    1.3195   -5.7436 C   0  0  0  0  0  0  0  0  0  0  0  0
  -29.4561    1.5405   -6.1929 N   0  0  0  0  0  0  0  0  0  0  0  0
  -30.3816    0.6041   -5.8967 C   0  0  0  0  0  0  0  0  0  0  0  0
  -30.1123   -0.5443   -5.1683 C   0  0  0  0  0  0  0  0  0  0  0  0
 13 14  1  0  0  0
 14 15  1  0  0  0
 14 16  1  0  0  0
 14  6  1  0  0  0
  6  7  1  0  0  0
  6 11  2  0  0  0
  7  8  2  0  0  0
  8  9  1  0  0  0
  9  1  1  0  0  0
  9 10  2  0  0  0
  1  2  1  0  0  0
  1  5  1  0  0  0
  2  3  2  0  0  0
  3 17  1  0  0  0
  3  4  1  0  0  0
 17 18  1  0  0  0
 17 22  2  0  0  0
 18 19  2  0  0  0
 19 20  1  0  0  0
 20 21  2  0  0  0
 21 22  1  0  0  0
 22 23  1  0  0  0
 23 25  1  0  0  0
 23 24  1  0  0  0
 25 26  1  0  0  0
 26 27  1  0  0  0
 26 31  2  0  0  0
 27 28  2  0  0  0
 28 29  1  0  0  0
 29 30  2  0  0  0
 30 31  1  0  0  0
  4  5  2  0  0  0
 10 11  1  0  0  0
 11 12  1  0  0  0
M  END
> <minimizedAffinity>
-9.33979

$$$$
