CHEMBL3911919


 42 44  0  0  0  0  0  0  0  0999 V2000
  -22.3855   11.6424  -18.4083 C   0  0  0  0  0  0  0  0  0  0  0  0
  -23.0475   12.1628  -19.5066 C   0  0  0  0  0  0  0  0  0  0  0  0
  -22.4503   12.3902  -20.7084 N   0  0  0  0  0  0  0  0  0  0  0  0
  -21.1382   12.0892  -20.8311 C   0  0  0  0  0  0  0  0  0  0  0  0
  -20.5436   12.4730  -22.0308 N   0  0  0  0  0  0  0  0  0  0  0  0
  -20.3951   11.5300  -19.7820 C   0  0  0  0  0  0  0  0  0  0  0  0
  -21.0350   11.3040  -18.5631 C   0  0  0  0  0  0  0  0  0  0  0  0
  -21.2716   12.7535  -22.6801 H   0  0  0  0  0  0  0  0  0  0  0  0
  -19.9035   11.7845  -22.4057 H   0  0  0  0  0  0  0  0  0  0  0  0
  -23.0607   11.4742  -17.0941 C   0  0  0  0  0  0  0  0  0  0  0  0
  -22.3252   11.1587  -16.1584 O   0  0  0  0  0  0  0  0  0  0  0  0
  -25.3274   10.7118  -16.2054 S   0  0  0  0  0  0  0  0  0  0  0  0
  -24.9433   10.7630  -14.4574 C   0  0  0  0  0  0  0  0  0  0  0  0
  -25.3672    9.3142  -16.5928 O   0  0  0  0  0  0  0  0  0  0  0  0
  -24.4287   11.7608  -16.9075 N   0  0  0  0  0  0  0  0  0  0  0  0
  -27.0240   11.3045  -16.2522 C   0  0  0  0  0  0  0  0  0  0  0  0
  -28.0412   10.2102  -15.9078 C   0  0  0  0  0  0  0  0  0  0  0  0
  -29.3645   10.7980  -15.4013 C   0  0  0  0  0  0  0  0  0  0  0  0
  -29.4854   10.7539  -13.8724 C   0  0  0  0  0  0  0  0  0  0  0  0
  -30.9338   10.6731  -13.4360 C   0  0  0  0  0  0  0  0  0  0  0  0
  -31.3439   10.0343  -12.4766 O   0  0  0  0  0  0  0  0  0  0  0  0
  -33.0621   10.9388  -14.3734 C   0  0  0  0  0  0  0  0  0  0  0  0
  -31.7163   11.4159  -14.2705 O   0  0  0  0  0  0  0  0  0  0  0  0
  -19.0187   11.1583  -19.9335 C   0  0  0  0  0  0  0  0  0  0  0  0
  -17.8609   10.8168  -20.0012 C   0  0  0  0  0  0  0  0  0  0  0  0
  -16.5083   10.3530  -20.0281 C   0  0  0  0  0  0  0  0  0  0  0  0
  -15.4890   11.2123  -20.4535 C   0  0  0  0  0  0  0  0  0  0  0  0
  -14.1776   10.7551  -20.5306 C   0  0  0  0  0  0  0  0  0  0  0  0
  -13.8840    9.4338  -20.2001 C   0  0  0  0  0  0  0  0  0  0  0  0
  -14.8985    8.5558  -19.7828 C   0  0  0  0  0  0  0  0  0  0  0  0
  -16.2127    9.0263  -19.6740 C   0  0  0  0  0  0  0  0  0  0  0  0
  -14.4897    7.1599  -19.4571 C   0  0  0  0  0  0  0  0  0  0  0  0
  -14.2336    6.4266  -20.4088 O   0  0  0  0  0  0  0  0  0  0  0  0
  -14.5315    6.7732  -18.1245 N   0  0  0  0  0  0  0  0  0  0  0  0
  -15.0139    7.3764  -17.4701 H   0  0  0  0  0  0  0  0  0  0  0  0
  -14.2618    5.4528  -17.6782 C   0  0  0  0  0  0  0  0  0  0  0  0
  -13.0335    4.8188  -17.8926 C   0  0  0  0  0  0  0  0  0  0  0  0
  -12.8391    3.4868  -17.5370 C   0  0  0  0  0  0  0  0  0  0  0  0
  -13.8857    2.7576  -16.9818 C   0  0  0  0  0  0  0  0  0  0  0  0
  -15.1213    3.3699  -16.7477 C   0  0  0  0  0  0  0  0  0  0  0  0
  -16.2841    2.5620  -16.2498 C   0  0  0  0  0  0  0  0  0  0  0  0
  -15.2860    4.7334  -17.0484 C   0  0  0  0  0  0  0  0  0  0  0  0
 22 23  1  0  0  0
 23 20  1  0  0  0
 20 21  2  0  0  0
 20 19  1  0  0  0
 19 18  1  0  0  0
 18 17  1  0  0  0
 17 16  1  0  0  0
 16 12  1  0  0  0
 12 13  1  0  0  0
 12 14  2  0  0  0
 12 15  2  0  0  0
 15 10  1  0  0  0
 10 11  2  0  0  0
 10  1  1  0  0  0
  1  2  1  0  0  0
  1  7  2  0  0  0
  2  3  2  0  0  0
  3  4  1  0  0  0
  4  5  1  0  0  0
  4  6  2  0  0  0
  5  8  1  0  0  0
  5  9  1  0  0  0
  6 24  1  0  0  0
  6  7  1  0  0  0
 24 25  3  0  0  0
 25 26  1  0  0  0
 26 27  1  0  0  0
 26 31  2  0  0  0
 27 28  2  0  0  0
 28 29  1  0  0  0
 29 30  2  0  0  0
 30 32  1  0  0  0
 30 31  1  0  0  0
 32 33  2  0  0  0
 32 34  1  0  0  0
 34 36  1  0  0  0
 34 35  1  0  0  0
 36 37  1  0  0  0
 36 42  2  0  0  0
 37 38  2  0  0  0
 38 39  1  0  0  0
 39 40  2  0  0  0
 40 41  1  0  0  0
 40 42  1  0  0  0
M  END
> <minimizedAffinity>
-7.35873

$$$$
