CHEMBL3633765


 33 35  0  0  0  0  0  0  0  0999 V2000
  -28.3780   -0.8292   -6.2302 C   0  0  0  0  0  0  0  0  0  0  0  0
  -29.0848   -1.3333   -5.1323 C   0  0  0  0  0  0  0  0  0  0  0  0
  -29.2730   -2.6876   -4.9371 C   0  0  0  0  0  0  0  0  0  0  0  0
  -29.8657   -3.0755   -3.8063 N   0  0  0  0  0  0  0  0  0  0  0  0
  -29.9856   -4.3900   -3.6198 C   0  0  0  0  0  0  0  0  0  0  0  0
  -29.5675   -5.3382   -4.4574 N   0  0  0  0  0  0  0  0  0  0  0  0
  -28.9735   -4.9356   -5.5991 C   0  0  0  0  0  0  0  0  0  0  0  0
  -28.8091   -3.5783   -5.9097 C   0  0  0  0  0  0  0  0  0  0  0  0
  -28.2224   -3.0731   -7.0944 C   0  0  0  0  0  0  0  0  0  0  0  0
  -27.9756   -1.7080   -7.2461 C   0  0  0  0  0  0  0  0  0  0  0  0
  -29.2403    1.3445   -6.6187 C   0  0  0  0  0  0  0  0  0  0  0  0
  -28.1143    0.5096   -6.3402 O   0  0  0  0  0  0  0  0  0  0  0  0
  -28.4611   -5.9235   -6.4860 N   0  0  0  0  0  0  0  0  0  0  0  0
  -27.6153   -6.3187   -6.0867 H   0  0  0  0  0  0  0  0  0  0  0  0
  -29.2693   -6.8983   -7.1158 C   0  0  0  0  0  0  0  0  0  0  0  0
  -30.6280   -7.0107   -6.7898 C   0  0  0  0  0  0  0  0  0  0  0  0
  -31.4182   -8.0169   -7.3402 C   0  0  0  0  0  0  0  0  0  0  0  0
  -30.8574   -8.9202   -8.2387 C   0  0  0  0  0  0  0  0  0  0  0  0
  -29.5161   -8.7939   -8.5961 C   0  0  0  0  0  0  0  0  0  0  0  0
  -28.7556  -10.0294   -9.8101 Br  0  0  0  0  0  0  0  0  0  0  0  0
  -28.7216   -7.7824   -8.0519 C   0  0  0  0  0  0  0  0  0  0  0  0
  -27.3449   -1.3841   -8.4237 O   0  0  0  0  0  0  0  0  0  0  0  0
  -27.8940   -2.0209   -9.5727 C   0  0  0  0  0  0  0  0  0  0  0  0
  -27.3993   -1.3518  -10.8543 C   0  0  0  0  0  0  0  0  0  0  0  0
  -25.9530   -1.7860  -11.0940 C   0  0  0  0  0  0  0  0  0  0  0  0
  -25.0782   -0.6820  -11.6727 C   0  0  0  0  0  0  0  0  0  0  0  0
  -23.9830   -1.2785  -12.5591 C   0  0  0  0  0  0  0  0  0  0  0  0
  -24.1186   -0.8348  -13.9969 C   0  0  0  0  0  0  0  0  0  0  0  0
  -23.3855   -0.0161  -14.5450 O   0  0  0  0  0  0  0  0  0  0  0  0
  -25.1534   -1.4456  -14.6702 N   0  0  0  0  0  0  0  0  0  0  0  0
  -25.3695   -0.9654  -15.9831 O   0  0  0  0  0  0  0  0  0  0  0  0
  -25.9553   -1.8420  -14.1957 H   0  0  0  0  0  0  0  0  0  0  0  0
  -24.6385   -0.3154  -16.0920 H   0  0  0  0  0  0  0  0  0  0  0  0
 11 12  1  0  0  0
 12  1  1  0  0  0
  1  2  1  0  0  0
  1 10  2  0  0  0
  2  3  2  0  0  0
  3  4  1  0  0  0
  3  8  1  0  0  0
  4  5  2  0  0  0
  5  6  1  0  0  0
  6  7  2  0  0  0
  7 13  1  0  0  0
  7  8  1  0  0  0
 13 15  1  0  0  0
 13 14  1  0  0  0
 15 16  1  0  0  0
 15 21  2  0  0  0
 16 17  2  0  0  0
 17 18  1  0  0  0
 18 19  2  0  0  0
 19 20  1  0  0  0
 19 21  1  0  0  0
  8  9  2  0  0  0
  9 10  1  0  0  0
 10 22  1  0  0  0
 22 23  1  0  0  0
 23 24  1  0  0  0
 24 25  1  0  0  0
 25 26  1  0  0  0
 26 27  1  0  0  0
 27 28  1  0  0  0
 28 29  2  0  0  0
 28 30  1  0  0  0
 30 31  1  0  0  0
 30 32  1  0  0  0
 31 33  1  0  0  0
M  END
> <minimizedAffinity>
-8.82569

$$$$
