CHEMBL4788768


 33 36  0  0  0  0  0  0  0  0999 V2000
  -13.8794   -7.3273  -14.6607 C   0  0  0  0  0  0  0  0  0  0  0  0
  -14.3685   -7.9699  -13.5250 C   0  0  0  0  0  0  0  0  0  0  0  0
  -13.8985   -7.6182  -12.2534 C   0  0  0  0  0  0  0  0  0  0  0  0
  -12.9171   -6.6353  -12.0901 C   0  0  0  0  0  0  0  0  0  0  0  0
  -12.3451   -6.0779  -13.2320 C   0  0  0  0  0  0  0  0  0  0  0  0
  -12.8168   -6.4288  -14.5023 C   0  0  0  0  0  0  0  0  0  0  0  0
  -12.4926   -6.1499  -10.8269 N   0  0  0  0  0  0  0  0  0  0  0  0
  -12.9913   -5.0303  -10.1847 C   0  0  0  0  0  0  0  0  0  0  0  0
  -13.9374   -4.3444  -10.5666 O   0  0  0  0  0  0  0  0  0  0  0  0
  -11.7417   -6.6581  -10.3858 H   0  0  0  0  0  0  0  0  0  0  0  0
  -12.3382   -4.6128   -8.9094 C   0  0  0  0  0  0  0  0  0  0  0  0
  -12.2564   -3.2881   -8.4648 C   0  0  0  0  0  0  0  0  0  0  0  0
  -11.7090   -3.0148   -7.2029 C   0  0  0  0  0  0  0  0  0  0  0  0
  -11.2466   -4.0492   -6.3766 C   0  0  0  0  0  0  0  0  0  0  0  0
  -10.6965   -3.7857   -5.0059 C   0  0  0  0  0  0  0  0  0  0  0  0
  -11.3278   -5.3667   -6.8314 C   0  0  0  0  0  0  0  0  0  0  0  0
  -11.8686   -5.6426   -8.0830 C   0  0  0  0  0  0  0  0  0  0  0  0
  -14.4241   -7.6150  -15.9278 N   0  0  0  0  0  0  0  0  0  0  0  0
  -15.0503   -6.8864  -16.2666 H   0  0  0  0  0  0  0  0  0  0  0  0
  -13.6405   -6.3675  -20.7930 C   0  0  0  0  0  0  0  0  0  0  0  0
  -13.0281   -7.6067  -20.5319 C   0  0  0  0  0  0  0  0  0  0  0  0
  -13.0316   -8.1912  -19.2760 C   0  0  0  0  0  0  0  0  0  0  0  0
  -12.5278   -9.4211  -19.1433 N   0  0  0  0  0  0  0  0  0  0  0  0
  -12.6490   -9.9879  -17.9407 C   0  0  0  0  0  0  0  0  0  0  0  0
  -13.2307   -9.4420  -16.8734 N   0  0  0  0  0  0  0  0  0  0  0  0
  -13.7195   -8.1946  -17.0117 C   0  0  0  0  0  0  0  0  0  0  0  0
  -13.6147   -7.4894  -18.2198 C   0  0  0  0  0  0  0  0  0  0  0  0
  -14.1017   -6.1821  -18.4426 C   0  0  0  0  0  0  0  0  0  0  0  0
  -14.1289   -5.6147  -19.7201 C   0  0  0  0  0  0  0  0  0  0  0  0
  -12.6516   -5.1118  -22.5362 C   0  0  0  0  0  0  0  0  0  0  0  0
  -13.7566   -5.8960  -22.0737 O   0  0  0  0  0  0  0  0  0  0  0  0
  -14.6924   -4.3721  -19.7026 O   0  0  0  0  0  0  0  0  0  0  0  0
  -13.9052   -3.2423  -19.3714 C   0  0  0  0  0  0  0  0  0  0  0  0
 30 31  1  0  0  0
 31 20  1  0  0  0
 20 21  1  0  0  0
 20 29  2  0  0  0
 21 22  2  0  0  0
 22 23  1  0  0  0
 22 27  1  0  0  0
 23 24  2  0  0  0
 24 25  1  0  0  0
 25 26  2  0  0  0
 26 18  1  0  0  0
 26 27  1  0  0  0
 18  1  1  0  0  0
 18 19  1  0  0  0
  1  2  1  0  0  0
  1  6  2  0  0  0
  2  3  2  0  0  0
  3  4  1  0  0  0
  4  7  1  0  0  0
  4  5  2  0  0  0
  7  8  1  0  0  0
  7 10  1  0  0  0
  8  9  2  0  0  0
  8 11  1  0  0  0
 11 12  1  0  0  0
 11 17  2  0  0  0
 12 13  2  0  0  0
 13 14  1  0  0  0
 14 15  1  0  0  0
 14 16  2  0  0  0
 16 17  1  0  0  0
  5  6  1  0  0  0
 27 28  2  0  0  0
 28 29  1  0  0  0
 29 32  1  0  0  0
 32 33  1  0  0  0
M  END
> <minimizedAffinity>
-6.56230

$$$$
