CHEMBL255283


 33 38  0  0  0  0  0  0  0  0999 V2000
  -13.3070   -5.3763  -12.3169 N   0  0  0  0  0  0  0  0  0  0  0  0
  -13.2423   -6.5304  -13.1319 C   0  0  0  0  0  0  0  0  0  0  0  0
  -12.8185   -7.8498  -12.8837 C   0  0  0  0  0  0  0  0  0  0  0  0
  -12.7926   -8.7725  -13.9601 C   0  0  0  0  0  0  0  0  0  0  0  0
  -13.1951   -8.4202  -15.2510 C   0  0  0  0  0  0  0  0  0  0  0  0
  -13.6022   -7.1027  -15.4719 C   0  0  0  0  0  0  0  0  0  0  0  0
  -13.5993   -6.1572  -14.4343 C   0  0  0  0  0  0  0  0  0  0  0  0
  -13.7386   -4.7937  -14.3304 C   0  0  0  0  0  0  0  0  0  0  0  0
  -13.5258   -3.9429  -15.4193 C   0  0  0  0  0  0  0  0  0  0  0  0
  -13.0507   -2.6572  -15.0968 C   0  0  0  0  0  0  0  0  0  0  0  0
  -12.9753   -2.1416  -13.7883 C   0  0  0  0  0  0  0  0  0  0  0  0
  -13.7979   -2.8752  -12.8669 C   0  0  0  0  0  0  0  0  0  0  0  0
  -13.7272   -4.2730  -13.0617 C   0  0  0  0  0  0  0  0  0  0  0  0
  -15.1869   -2.1372  -12.6198 C   0  0  0  0  0  0  0  0  0  0  0  0
  -15.4667   -0.9160  -13.5875 C   0  0  0  0  0  0  0  0  0  0  0  0
  -14.2510   -0.0621  -13.5501 C   0  0  0  0  0  0  0  0  0  0  0  0
  -14.1470    1.2099  -13.1771 N   0  0  0  0  0  0  0  0  0  0  0  0
  -12.8128    1.3449  -12.9616 N   0  0  0  0  0  0  0  0  0  0  0  0
  -12.2959    2.5858  -12.4387 C   0  0  0  0  0  0  0  0  0  0  0  0
  -12.1119    0.1704  -13.0982 C   0  0  0  0  0  0  0  0  0  0  0  0
  -13.0059   -0.7065  -13.6442 C   0  0  0  0  0  0  0  0  0  0  0  0
  -12.8406   -1.9617  -16.3473 C   0  0  0  0  0  0  0  0  0  0  0  0
  -12.4196   -0.8512  -16.6331 O   0  0  0  0  0  0  0  0  0  0  0  0
  -13.2825   -2.8519  -17.3185 N   0  0  0  0  0  0  0  0  0  0  0  0
  -13.6442   -4.1687  -16.8567 C   0  0  0  0  0  0  0  0  0  0  0  0
  -13.2911   -2.5616  -18.2838 H   0  0  0  0  0  0  0  0  0  0  0  0
  -13.1738   -9.3283  -16.4582 C   0  0  0  0  0  0  0  0  0  0  0  0
  -13.6741   -8.8274  -17.8014 C   0  0  0  0  0  0  0  0  0  0  0  0
  -12.7188  -10.5443  -16.3232 N   0  0  0  0  0  0  0  0  0  0  0  0
  -12.7702  -11.2569  -17.5353 O   0  0  0  0  0  0  0  0  0  0  0  0
  -11.4782  -11.7745  -17.8310 C   0  0  0  0  0  0  0  0  0  0  0  0
  -13.9096   -5.1295   -9.9220 C   0  0  0  0  0  0  0  0  0  0  0  0
  -12.7955   -5.3033  -10.9532 C   0  0  0  0  0  0  0  0  0  0  0  0
 32 33  1  0  0  0
 33  1  1  0  0  0
  1  2  1  0  0  0
  1 13  1  0  0  0
  2  3  1  0  0  0
  2  7  2  0  0  0
  3  4  2  0  0  0
  4  5  1  0  0  0
  5 27  1  0  0  0
  5  6  2  0  0  0
 27 28  1  0  0  0
 27 29  2  0  0  0
 29 30  1  0  0  0
 30 31  1  0  0  0
  6  7  1  0  0  0
  7  8  1  0  0  0
  8  9  1  0  0  0
  8 13  2  0  0  0
  9 10  2  0  0  0
  9 25  1  0  0  0
 10 11  1  0  0  0
 10 22  1  0  0  0
 11 12  2  0  0  0
 11 21  1  0  0  0
 12 13  1  0  0  0
 12 14  1  0  0  0
 14 15  1  0  0  0
 15 16  1  0  0  0
 16 17  2  0  0  0
 16 21  1  0  0  0
 17 18  1  0  0  0
 18 19  1  0  0  0
 18 20  1  0  0  0
 20 21  2  0  0  0
 22 23  2  0  0  0
 22 24  1  0  0  0
 24 25  1  0  0  0
 24 26  1  0  0  0
M  END
> <minimizedAffinity>
-7.17576

$$$$
