CHEMBL219492


 37 42  0  0  0  0  0  0  0  0999 V2000
  -13.3966   -5.2865  -12.0006 N   0  0  0  0  0  0  0  0  0  0  0  0
  -13.3954   -6.5119  -12.7062 C   0  0  0  0  0  0  0  0  0  0  0  0
  -13.1286   -7.8364  -12.3000 C   0  0  0  0  0  0  0  0  0  0  0  0
  -13.1370   -8.8628  -13.2727 C   0  0  0  0  0  0  0  0  0  0  0  0
  -13.4089   -8.6066  -14.6156 C   0  0  0  0  0  0  0  0  0  0  0  0
  -13.6573   -7.2865  -15.0035 C   0  0  0  0  0  0  0  0  0  0  0  0
  -13.6428   -6.2440  -14.0624 C   0  0  0  0  0  0  0  0  0  0  0  0
  -13.7118   -4.8625  -14.0698 C   0  0  0  0  0  0  0  0  0  0  0  0
  -13.5602   -4.1088  -15.2342 C   0  0  0  0  0  0  0  0  0  0  0  0
  -13.1690   -2.7707  -15.0376 C   0  0  0  0  0  0  0  0  0  0  0  0
  -13.0596   -2.1596  -13.7700 C   0  0  0  0  0  0  0  0  0  0  0  0
  -13.8469   -2.8292  -12.7736 C   0  0  0  0  0  0  0  0  0  0  0  0
  -13.7517   -4.2369  -12.8536 C   0  0  0  0  0  0  0  0  0  0  0  0
  -15.2224   -2.0564  -12.5237 C   0  0  0  0  0  0  0  0  0  0  0  0
  -15.5082   -0.8628  -13.5360 C   0  0  0  0  0  0  0  0  0  0  0  0
  -14.2696   -0.0396  -13.5805 C   0  0  0  0  0  0  0  0  0  0  0  0
  -14.1218    1.2342  -13.2186 N   0  0  0  0  0  0  0  0  0  0  0  0
  -12.7828    1.3254  -13.0134 N   0  0  0  0  0  0  0  0  0  0  0  0
  -12.2209    2.5414  -12.4772 C   0  0  0  0  0  0  0  0  0  0  0  0
  -12.1253    0.1252  -13.1411 C   0  0  0  0  0  0  0  0  0  0  0  0
  -13.0487   -0.7237  -13.6930 C   0  0  0  0  0  0  0  0  0  0  0  0
  -13.0796   -2.1530  -16.3387 C   0  0  0  0  0  0  0  0  0  0  0  0
  -12.8372   -1.0224  -16.7197 O   0  0  0  0  0  0  0  0  0  0  0  0
  -13.4345   -3.1678  -17.2218 N   0  0  0  0  0  0  0  0  0  0  0  0
  -13.7061   -4.4588  -16.6415 C   0  0  0  0  0  0  0  0  0  0  0  0
  -13.5485   -2.9459  -18.1991 H   0  0  0  0  0  0  0  0  0  0  0  0
  -13.4302   -9.5738  -15.6434 N   0  0  0  0  0  0  0  0  0  0  0  0
  -12.6396   -9.6614  -16.7535 C   0  0  0  0  0  0  0  0  0  0  0  0
  -11.7449   -8.9034  -17.0821 O   0  0  0  0  0  0  0  0  0  0  0  0
  -14.1093  -10.3180  -15.5819 H   0  0  0  0  0  0  0  0  0  0  0  0
  -13.0012  -10.7766  -17.4597 O   0  0  0  0  0  0  0  0  0  0  0  0
  -14.1690  -10.6317  -18.2915 C   0  0  0  0  0  0  0  0  0  0  0  0
  -13.7476  -10.2853  -19.7183 C   0  0  0  0  0  0  0  0  0  0  0  0
  -14.9447  -11.9449  -18.2791 C   0  0  0  0  0  0  0  0  0  0  0  0
  -12.9422   -5.1422  -10.6212 C   0  0  0  0  0  0  0  0  0  0  0  0
  -14.3711   -3.5241   -9.2134 C   0  0  0  0  0  0  0  0  0  0  0  0
  -14.0508   -4.9699   -9.5685 C   0  0  0  0  0  0  0  0  0  0  0  0
 36 37  1  0  0  0
 37 35  1  0  0  0
 35  1  1  0  0  0
  1  2  1  0  0  0
  1 13  1  0  0  0
  2  3  1  0  0  0
  2  7  2  0  0  0
  3  4  2  0  0  0
  4  5  1  0  0  0
  5 27  1  0  0  0
  5  6  2  0  0  0
 27 28  1  0  0  0
 27 30  1  0  0  0
 28 29  2  0  0  0
 28 31  1  0  0  0
 31 32  1  0  0  0
 32 33  1  0  0  0
 32 34  1  0  0  0
  6  7  1  0  0  0
  7  8  1  0  0  0
  8  9  1  0  0  0
  8 13  2  0  0  0
  9 10  2  0  0  0
  9 25  1  0  0  0
 10 11  1  0  0  0
 10 22  1  0  0  0
 11 12  2  0  0  0
 11 21  1  0  0  0
 12 13  1  0  0  0
 12 14  1  0  0  0
 14 15  1  0  0  0
 15 16  1  0  0  0
 16 17  2  0  0  0
 16 21  1  0  0  0
 17 18  1  0  0  0
 18 19  1  0  0  0
 18 20  1  0  0  0
 20 21  2  0  0  0
 22 23  2  0  0  0
 22 24  1  0  0  0
 24 25  1  0  0  0
 24 26  1  0  0  0
M  END
> <minimizedAffinity>
-7.59484

$$$$
