CHEMBL3694659


 36 39  0  0  0  0  0  0  0  0999 V2000
  -30.6663   -6.4302   -6.5276 C   0  0  0  0  0  0  0  0  0  0  0  0
  -30.1408   -5.4378   -7.4353 C   0  0  0  0  0  0  0  0  0  0  0  0
  -29.8879   -4.2087   -6.9535 C   0  0  0  0  0  0  0  0  0  0  0  0
  -30.0995   -3.9235   -5.5935 N   0  0  0  0  0  0  0  0  0  0  0  0
  -29.8709   -2.7749   -4.8392 C   0  0  0  0  0  0  0  0  0  0  0  0
  -30.2724   -3.1238   -3.5581 C   0  0  0  0  0  0  0  0  0  0  0  0
  -30.7394   -4.4033   -3.4886 N   0  0  0  0  0  0  0  0  0  0  0  0
  -30.6155   -4.8727   -4.7096 C   0  0  0  0  0  0  0  0  0  0  0  0
  -30.8999   -6.1595   -5.2275 C   0  0  0  0  0  0  0  0  0  0  0  0
  -29.2814   -1.5140   -5.2970 C   0  0  0  0  0  0  0  0  0  0  0  0
  -29.6151   -0.2946   -4.6953 C   0  0  0  0  0  0  0  0  0  0  0  0
  -29.0884    0.8977   -5.1635 C   0  0  0  0  0  0  0  0  0  0  0  0
  -28.2786    0.8934   -6.2925 C   0  0  0  0  0  0  0  0  0  0  0  0
  -27.9336   -0.2954   -6.9421 C   0  0  0  0  0  0  0  0  0  0  0  0
  -28.4237   -1.4990   -6.4204 C   0  0  0  0  0  0  0  0  0  0  0  0
  -27.1574   -0.3105   -8.1274 N   0  0  0  0  0  0  0  0  0  0  0  0
  -27.3087   -1.2212   -9.1416 C   0  0  0  0  0  0  0  0  0  0  0  0
  -28.1913   -2.0794   -9.2198 O   0  0  0  0  0  0  0  0  0  0  0  0
  -26.3529   -1.1511  -10.1191 N   0  0  0  0  0  0  0  0  0  0  0  0
  -26.4910    0.4390   -8.2534 H   0  0  0  0  0  0  0  0  0  0  0  0
  -25.8080   -0.3046  -10.2255 H   0  0  0  0  0  0  0  0  0  0  0  0
  -26.4662   -2.0707  -11.2602 C   0  0  0  0  0  0  0  0  0  0  0  0
  -25.7048   -1.6874  -12.5402 C   0  0  0  0  0  0  0  0  0  0  0  0
  -26.4399   -1.8775  -13.6587 F   0  0  0  0  0  0  0  0  0  0  0  0
  -25.3834   -0.3686  -12.5021 F   0  0  0  0  0  0  0  0  0  0  0  0
  -24.5487   -2.3721  -12.6746 F   0  0  0  0  0  0  0  0  0  0  0  0
  -31.1398   -9.0858   -7.3630 C   0  0  0  0  0  0  0  0  0  0  0  0
  -30.9212   -7.8596   -6.9773 C   0  0  0  0  0  0  0  0  0  0  0  0
  -30.5200  -11.2296   -8.5326 N   0  0  0  0  0  0  0  0  0  0  0  0
  -31.1113  -12.4657   -8.6228 C   0  0  0  0  0  0  0  0  0  0  0  0
  -32.3222  -12.3378   -7.9892 C   0  0  0  0  0  0  0  0  0  0  0  0
  -32.4636  -11.0821   -7.4674 N   0  0  0  0  0  0  0  0  0  0  0  0
  -31.3616  -10.4306   -7.7825 C   0  0  0  0  0  0  0  0  0  0  0  0
  -28.3012  -12.0654   -9.2103 C   0  0  0  0  0  0  0  0  0  0  0  0
  -29.2317  -10.8572   -9.1144 C   0  0  0  0  0  0  0  0  0  0  0  0
  -29.3523  -10.1969  -10.4966 C   0  0  0  0  0  0  0  0  0  0  0  0
 34 35  1  0  0  0
 35 36  1  0  0  0
 35 29  1  0  0  0
 29 30  1  0  0  0
 29 33  1  0  0  0
 30 31  2  0  0  0
 31 32  1  0  0  0
 32 33  2  0  0  0
 33 27  1  0  0  0
 27 28  3  0  0  0
 28  1  1  0  0  0
  1  2  1  0  0  0
  1  9  2  0  0  0
  2  3  2  0  0  0
  3  4  1  0  0  0
  4  5  1  0  0  0
  4  8  1  0  0  0
  5 10  1  0  0  0
  5  6  2  0  0  0
 10 11  1  0  0  0
 10 15  2  0  0  0
 11 12  2  0  0  0
 12 13  1  0  0  0
 13 14  2  0  0  0
 14 16  1  0  0  0
 14 15  1  0  0  0
 16 17  1  0  0  0
 16 20  1  0  0  0
 17 18  2  0  0  0
 17 19  1  0  0  0
 19 22  1  0  0  0
 19 21  1  0  0  0
 22 23  1  0  0  0
 23 24  1  0  0  0
 23 25  1  0  0  0
 23 26  1  0  0  0
  6  7  1  0  0  0
  7  8  2  0  0  0
  8  9  1  0  0  0
M  END
> <minimizedAffinity>
-8.72580

$$$$
