CHEMBL3983387


 33 36  0  0  0  0  0  0  0  0999 V2000
  -29.5923   -6.7614   -6.1446 N   0  0  0  0  0  0  0  0  0  0  0  0
  -29.1800   -5.3727   -6.3955 C   0  0  0  0  0  0  0  0  0  0  0  0
  -29.5364   -4.3332   -5.4752 C   0  0  0  0  0  0  0  0  0  0  0  0
  -29.2184   -2.9852   -5.7096 C   0  0  0  0  0  0  0  0  0  0  0  0
  -28.5763   -2.6218   -6.8898 C   0  0  0  0  0  0  0  0  0  0  0  0
  -28.3055   -1.3219   -7.1861 N   0  0  0  0  0  0  0  0  0  0  0  0
  -27.7155   -0.9785   -8.3658 C   0  0  0  0  0  0  0  0  0  0  0  0
  -27.3856   -1.9806   -9.2962 C   0  0  0  0  0  0  0  0  0  0  0  0
  -27.6211   -3.2723   -8.9690 N   0  0  0  0  0  0  0  0  0  0  0  0
  -28.2035   -3.6149   -7.7951 C   0  0  0  0  0  0  0  0  0  0  0  0
  -28.4485   -4.9498   -7.5255 C   0  0  0  0  0  0  0  0  0  0  0  0
  -26.8168   -1.6830  -10.6230 C   0  0  0  0  0  0  0  0  0  0  0  0
  -25.4935   -1.3901  -10.9081 C   0  0  0  0  0  0  0  0  0  0  0  0
  -25.3695   -1.1912  -12.2335 N   0  0  0  0  0  0  0  0  0  0  0  0
  -26.5644   -1.3514  -12.7805 N   0  0  0  0  0  0  0  0  0  0  0  0
  -27.4695   -1.6554  -11.8395 C   0  0  0  0  0  0  0  0  0  0  0  0
  -26.7566   -1.2532  -13.8039 H   0  0  0  0  0  0  0  0  0  0  0  0
  -28.5749   -9.1815   -8.9979 C   0  0  0  0  0  0  0  0  0  0  0  0
  -29.7796   -9.7741   -9.3403 C   0  0  0  0  0  0  0  0  0  0  0  0
  -30.9320   -9.4077   -8.6590 C   0  0  0  0  0  0  0  0  0  0  0  0
  -30.9151   -8.4504   -7.6206 C   0  0  0  0  0  0  0  0  0  0  0  0
  -32.5343   -8.1207   -7.0077 Cl  0  0  0  0  0  0  0  0  0  0  0  0
  -29.6814   -7.8075   -7.2125 C   0  0  0  0  0  0  0  0  0  0  0  0
  -28.5473   -8.2396   -7.9736 C   0  0  0  0  0  0  0  0  0  0  0  0
  -27.0263  -10.6390  -10.2322 C   0  0  0  0  0  0  0  0  0  0  0  0
  -27.3974   -9.4572   -9.6270 O   0  0  0  0  0  0  0  0  0  0  0  0
  -30.1354   -6.9974   -4.7884 C   0  0  0  0  0  0  0  0  0  0  0  0
  -29.1555   -7.6894   -3.8349 C   0  0  0  0  0  0  0  0  0  0  0  0
  -27.7500   -7.5364   -4.2495 N   0  0  0  0  0  0  0  0  0  0  0  0
  -27.2322   -7.0454   -3.4804 H   0  0  0  0  0  0  0  0  0  0  0  0
  -27.1002   -8.8527   -4.4590 C   0  0  0  0  0  0  0  0  0  0  0  0
  -25.6273   -8.8399   -4.0118 C   0  0  0  0  0  0  0  0  0  0  0  0
  -27.8442   -9.9418   -3.6732 C   0  0  0  0  0  0  0  0  0  0  0  0
 25 26  1  0  0  0
 26 18  1  0  0  0
 18 19  1  0  0  0
 18 24  2  0  0  0
 19 20  2  0  0  0
 20 21  1  0  0  0
 21 22  1  0  0  0
 21 23  2  0  0  0
 23  1  1  0  0  0
 23 24  1  0  0  0
  1 27  1  0  0  0
  1  2  1  0  0  0
 27 28  1  0  0  0
 28 29  1  0  0  0
 29 31  1  0  0  0
 29 30  1  0  0  0
 31 32  1  0  0  0
 31 33  1  0  0  0
  2  3  1  0  0  0
  2 11  2  0  0  0
  3  4  2  0  0  0
  4  5  1  0  0  0
  5  6  1  0  0  0
  5 10  2  0  0  0
  6  7  2  0  0  0
  7  8  1  0  0  0
  8 12  1  0  0  0
  8  9  2  0  0  0
 12 13  1  0  0  0
 12 16  2  0  0  0
 13 14  2  0  0  0
 14 15  1  0  0  0
 15 16  1  0  0  0
 15 17  1  0  0  0
  9 10  1  0  0  0
 10 11  1  0  0  0
M  END
> <minimizedAffinity>
-8.06734

$$$$
