CHEMBL429516


 38 41  0  0  0  0  0  0  0  0999 V2000
  -22.9390    0.0846  -13.1875 C   0  0  0  0  0  0  0  0  0  0  0  0
  -24.0409    0.6750  -12.5777 C   0  0  0  0  0  0  0  0  0  0  0  0
  -24.9888   -0.1115  -11.9254 C   0  0  0  0  0  0  0  0  0  0  0  0
  -24.8650   -1.5019  -11.8649 C   0  0  0  0  0  0  0  0  0  0  0  0
  -23.7375   -2.0932  -12.4469 C   0  0  0  0  0  0  0  0  0  0  0  0
  -22.7750   -1.3037  -13.1022 C   0  0  0  0  0  0  0  0  0  0  0  0
  -18.6545   -0.5495  -15.3618 N   0  0  0  0  0  0  0  0  0  0  0  0
  -18.6890    0.8473  -15.2126 C   0  0  0  0  0  0  0  0  0  0  0  0
  -17.7153    1.5299  -15.8347 N   0  0  0  0  0  0  0  0  0  0  0  0
  -17.7931    2.8612  -15.7367 C   0  0  0  0  0  0  0  0  0  0  0  0
  -18.7368    3.5618  -15.0922 N   0  0  0  0  0  0  0  0  0  0  0  0
  -19.7056    2.8477  -14.4884 C   0  0  0  0  0  0  0  0  0  0  0  0
  -19.7395    1.4475  -14.5128 C   0  0  0  0  0  0  0  0  0  0  0  0
  -20.6857    0.6268  -13.8369 N   0  0  0  0  0  0  0  0  0  0  0  0
  -21.9451    0.9324  -13.9067 C   0  0  0  0  0  0  0  0  0  0  0  0
  -22.4556    2.1184  -14.7081 C   0  0  0  0  0  0  0  0  0  0  0  0
  -22.0655    3.4176  -14.0225 C   0  0  0  0  0  0  0  0  0  0  0  0
  -20.6376    3.6341  -13.8164 N   0  0  0  0  0  0  0  0  0  0  0  0
  -17.7538   -0.8134  -15.7423 H   0  0  0  0  0  0  0  0  0  0  0  0
  -18.8948   -0.9863  -14.4766 H   0  0  0  0  0  0  0  0  0  0  0  0
  -20.3575    4.5995  -13.9825 H   0  0  0  0  0  0  0  0  0  0  0  0
  -25.8221   -2.3223  -11.2210 N   0  0  0  0  0  0  0  0  0  0  0  0
  -26.5208   -1.9952  -10.0722 C   0  0  0  0  0  0  0  0  0  0  0  0
  -26.4782   -0.9114   -9.4992 O   0  0  0  0  0  0  0  0  0  0  0  0
  -27.2638   -3.0628   -9.5858 N   0  0  0  0  0  0  0  0  0  0  0  0
  -26.1196   -3.1546  -11.7127 H   0  0  0  0  0  0  0  0  0  0  0  0
  -26.8291   -3.9631   -9.7293 H   0  0  0  0  0  0  0  0  0  0  0  0
  -28.0237   -2.9136   -8.4004 C   0  0  0  0  0  0  0  0  0  0  0  0
  -28.8938   -3.9379   -8.0281 C   0  0  0  0  0  0  0  0  0  0  0  0
  -29.5865   -3.8515   -6.8195 C   0  0  0  0  0  0  0  0  0  0  0  0
  -29.4511   -2.7221   -6.0137 C   0  0  0  0  0  0  0  0  0  0  0  0
  -30.1401   -2.6778   -4.8666 F   0  0  0  0  0  0  0  0  0  0  0  0
  -28.6264   -1.6656   -6.3849 C   0  0  0  0  0  0  0  0  0  0  0  0
  -27.8989   -1.7789   -7.5837 C   0  0  0  0  0  0  0  0  0  0  0  0
  -28.5108   -0.4317   -5.5403 C   0  0  0  0  0  0  0  0  0  0  0  0
  -27.9485   -0.6223   -4.3156 F   0  0  0  0  0  0  0  0  0  0  0  0
  -27.7715    0.5456   -6.1362 F   0  0  0  0  0  0  0  0  0  0  0  0
  -29.7297    0.1311   -5.2938 F   0  0  0  0  0  0  0  0  0  0  0  0
  7  8  1  0  0  0
  7 19  1  0  0  0
  7 20  1  0  0  0
  8  9  1  0  0  0
  8 13  2  0  0  0
  9 10  2  0  0  0
 10 11  1  0  0  0
 11 12  2  0  0  0
 12 13  1  0  0  0
 12 18  1  0  0  0
 13 14  1  0  0  0
 14 15  2  0  0  0
 15  1  1  0  0  0
 15 16  1  0  0  0
  1  2  1  0  0  0
  1  6  2  0  0  0
  2  3  2  0  0  0
  3  4  1  0  0  0
  4 22  1  0  0  0
  4  5  2  0  0  0
 22 23  1  0  0  0
 22 26  1  0  0  0
 23 24  2  0  0  0
 23 25  1  0  0  0
 25 28  1  0  0  0
 25 27  1  0  0  0
 28 29  1  0  0  0
 28 34  2  0  0  0
 29 30  2  0  0  0
 30 31  1  0  0  0
 31 32  1  0  0  0
 31 33  2  0  0  0
 33 35  1  0  0  0
 33 34  1  0  0  0
 35 36  1  0  0  0
 35 37  1  0  0  0
 35 38  1  0  0  0
  5  6  1  0  0  0
 16 17  1  0  0  0
 17 18  1  0  0  0
 18 21  1  0  0  0
M  END
> <minimizedAffinity>
-11.23190

$$$$
