CHEMBL3904994


 38 41  0  0  0  0  0  0  0  0999 V2000
  -14.5412    2.0421  -16.9340 C   0  0  0  0  0  0  0  0  0  0  0  0
  -14.3707    1.0371  -15.8254 C   0  0  0  0  0  0  0  0  0  0  0  0
  -13.0470    0.7761  -15.4120 C   0  0  0  0  0  0  0  0  0  0  0  0
  -12.7729   -0.0987  -14.3646 C   0  0  0  0  0  0  0  0  0  0  0  0
  -13.8215   -0.6662  -13.6519 C   0  0  0  0  0  0  0  0  0  0  0  0
  -15.1361   -0.4600  -14.0854 C   0  0  0  0  0  0  0  0  0  0  0  0
  -15.4424    0.3815  -15.1738 C   0  0  0  0  0  0  0  0  0  0  0  0
  -16.7855    0.5469  -15.6387 N   0  0  0  0  0  0  0  0  0  0  0  0
  -17.8706    0.9672  -14.8734 C   0  0  0  0  0  0  0  0  0  0  0  0
  -17.8034    1.4143  -13.7341 O   0  0  0  0  0  0  0  0  0  0  0  0
  -19.0905    0.7748  -15.5218 N   0  0  0  0  0  0  0  0  0  0  0  0
  -16.9451    0.4409  -16.6299 H   0  0  0  0  0  0  0  0  0  0  0  0
  -19.1134   -0.0271  -16.1370 H   0  0  0  0  0  0  0  0  0  0  0  0
  -20.3158    1.0955  -14.8682 C   0  0  0  0  0  0  0  0  0  0  0  0
  -20.6171    2.4344  -14.6192 C   0  0  0  0  0  0  0  0  0  0  0  0
  -21.8540    2.7716  -14.0728 C   0  0  0  0  0  0  0  0  0  0  0  0
  -22.1677    4.0632  -13.9065 F   0  0  0  0  0  0  0  0  0  0  0  0
  -22.7798    1.7996  -13.7110 C   0  0  0  0  0  0  0  0  0  0  0  0
  -22.4751    0.4459  -13.8957 C   0  0  0  0  0  0  0  0  0  0  0  0
  -21.2423    0.1065  -14.4918 C   0  0  0  0  0  0  0  0  0  0  0  0
  -23.4481   -0.6261  -13.4662 C   0  0  0  0  0  0  0  0  0  0  0  0
  -24.3009   -1.0082  -14.4602 F   0  0  0  0  0  0  0  0  0  0  0  0
  -22.8358   -1.7657  -13.0473 F   0  0  0  0  0  0  0  0  0  0  0  0
  -24.2452   -0.2238  -12.4375 F   0  0  0  0  0  0  0  0  0  0  0  0
  -13.6479   -1.4751  -12.5432 O   0  0  0  0  0  0  0  0  0  0  0  0
  -14.5162   -2.5312  -12.3401 C   0  0  0  0  0  0  0  0  0  0  0  0
  -15.6604   -2.4395  -11.5528 C   0  0  0  0  0  0  0  0  0  0  0  0
  -16.3870   -3.5877  -11.3450 C   0  0  0  0  0  0  0  0  0  0  0  0
  -16.0869   -4.7644  -11.9189 N   0  0  0  0  0  0  0  0  0  0  0  0
  -15.0361   -4.8376  -12.7528 C   0  0  0  0  0  0  0  0  0  0  0  0
  -14.2214   -3.7340  -12.9912 C   0  0  0  0  0  0  0  0  0  0  0  0
  -14.7480   -6.0595  -13.3939 N   0  0  0  0  0  0  0  0  0  0  0  0
  -14.3014   -7.1797  -12.7273 C   0  0  0  0  0  0  0  0  0  0  0  0
  -14.0716   -7.2918  -11.5286 O   0  0  0  0  0  0  0  0  0  0  0  0
  -14.8632   -6.0982  -14.3940 H   0  0  0  0  0  0  0  0  0  0  0  0
  -14.0412   -8.3989  -13.5539 C   0  0  0  0  0  0  0  0  0  0  0  0
  -12.6411   -8.9596  -13.6220 C   0  0  0  0  0  0  0  0  0  0  0  0
  -13.3233   -8.4790  -14.8725 C   0  0  0  0  0  0  0  0  0  0  0  0
  1  2  1  0  0  0
  2  3  1  0  0  0
  2  7  2  0  0  0
  3  4  2  0  0  0
  4  5  1  0  0  0
  5 25  1  0  0  0
  5  6  2  0  0  0
 25 26  1  0  0  0
 26 27  1  0  0  0
 26 31  2  0  0  0
 27 28  2  0  0  0
 28 29  1  0  0  0
 29 30  2  0  0  0
 30 32  1  0  0  0
 30 31  1  0  0  0
 32 33  1  0  0  0
 32 35  1  0  0  0
 33 34  2  0  0  0
 33 36  1  0  0  0
 36 37  1  0  0  0
 36 38  1  0  0  0
 37 38  1  0  0  0
  6  7  1  0  0  0
  7  8  1  0  0  0
  8  9  1  0  0  0
  8 12  1  0  0  0
  9 10  2  0  0  0
  9 11  1  0  0  0
 11 14  1  0  0  0
 11 13  1  0  0  0
 14 15  1  0  0  0
 14 20  2  0  0  0
 15 16  2  0  0  0
 16 17  1  0  0  0
 16 18  1  0  0  0
 18 19  2  0  0  0
 19 21  1  0  0  0
 19 20  1  0  0  0
 21 22  1  0  0  0
 21 23  1  0  0  0
 21 24  1  0  0  0
M  END
> <minimizedAffinity>
-9.50190

$$$$
