CHEMBL465130


 38 42  0  0  0  0  0  0  0  0999 V2000
  -28.0557   -1.8335   -9.4412 C   0  0  0  0  0  0  0  0  0  0  0  0
  -28.2150   -3.1409   -8.9853 C   0  0  0  0  0  0  0  0  0  0  0  0
  -28.0586   -3.4228   -7.6255 C   0  0  0  0  0  0  0  0  0  0  0  0
  -27.7934   -2.3979   -6.7094 C   0  0  0  0  0  0  0  0  0  0  0  0
  -27.7295   -1.0820   -7.1736 C   0  0  0  0  0  0  0  0  0  0  0  0
  -27.5476   -0.0481   -6.3404 F   0  0  0  0  0  0  0  0  0  0  0  0
  -27.8381   -0.7981   -8.5327 C   0  0  0  0  0  0  0  0  0  0  0  0
  -27.0813   -1.3898  -11.6869 C   0  0  0  0  0  0  0  0  0  0  0  0
  -27.3440   -1.1724  -12.8705 O   0  0  0  0  0  0  0  0  0  0  0  0
  -28.1293   -1.5851  -10.8150 N   0  0  0  0  0  0  0  0  0  0  0  0
  -29.0003   -1.7776  -11.2992 H   0  0  0  0  0  0  0  0  0  0  0  0
  -25.6653   -1.6409  -11.2023 C   0  0  0  0  0  0  0  0  0  0  0  0
  -24.4187   -1.9153  -13.9333 C   0  0  0  0  0  0  0  0  0  0  0  0
  -24.0918   -0.8464  -12.9810 N   0  0  0  0  0  0  0  0  0  0  0  0
  -24.6407   -0.6546  -11.7055 C   0  0  0  0  0  0  0  0  0  0  0  0
  -24.3133    0.2907  -10.9827 O   0  0  0  0  0  0  0  0  0  0  0  0
  -23.1934    0.1435  -13.4933 C   0  0  0  0  0  0  0  0  0  0  0  0
  -21.9751   -0.2409  -14.0658 C   0  0  0  0  0  0  0  0  0  0  0  0
  -21.0831    0.7231  -14.5408 C   0  0  0  0  0  0  0  0  0  0  0  0
  -21.4171    2.0747  -14.4794 C   0  0  0  0  0  0  0  0  0  0  0  0
  -22.6389    2.4651  -13.9354 C   0  0  0  0  0  0  0  0  0  0  0  0
  -23.5191    1.5043  -13.4331 C   0  0  0  0  0  0  0  0  0  0  0  0
  -27.6775   -2.8186   -5.4057 O   0  0  0  0  0  0  0  0  0  0  0  0
  -28.7917   -3.1826   -4.6879 C   0  0  0  0  0  0  0  0  0  0  0  0
  -29.6388   -2.2617   -4.0783 C   0  0  0  0  0  0  0  0  0  0  0  0
  -30.7239   -2.7340   -3.3670 C   0  0  0  0  0  0  0  0  0  0  0  0
  -31.0313   -4.0306   -3.1762 N   0  0  0  0  0  0  0  0  0  0  0  0
  -30.1666   -4.9295   -3.7234 C   0  0  0  0  0  0  0  0  0  0  0  0
  -30.2849   -6.3508   -3.6370 C   0  0  0  0  0  0  0  0  0  0  0  0
  -29.2416   -7.0003   -4.2585 C   0  0  0  0  0  0  0  0  0  0  0  0
  -28.1305   -5.9072   -4.9431 S   0  0  0  0  0  0  0  0  0  0  0  0
  -29.0443   -4.5419   -4.4512 C   0  0  0  0  0  0  0  0  0  0  0  0
  -29.1000   -8.4815   -4.3334 C   0  0  0  0  0  0  0  0  0  0  0  0
  -29.2384   -9.2250   -5.4853 C   0  0  0  0  0  0  0  0  0  0  0  0
  -29.0584  -10.5207   -5.0950 N   0  0  0  0  0  0  0  0  0  0  0  0
  -29.0986  -11.6730   -5.9545 C   0  0  0  0  0  0  0  0  0  0  0  0
  -28.8430  -10.5190   -3.7484 C   0  0  0  0  0  0  0  0  0  0  0  0
  -28.8436   -9.2979   -3.2618 N   0  0  0  0  0  0  0  0  0  0  0  0
 13 14  1  0  0  0
 14 15  1  0  0  0
 14 17  1  0  0  0
 15 16  2  0  0  0
 15 12  1  0  0  0
 12  8  1  0  0  0
  8  9  2  0  0  0
  8 10  1  0  0  0
 10  1  1  0  0  0
 10 11  1  0  0  0
  1  2  1  0  0  0
  1  7  2  0  0  0
  2  3  2  0  0  0
  3  4  1  0  0  0
  4 23  1  0  0  0
  4  5  2  0  0  0
 23 24  1  0  0  0
 24 25  1  0  0  0
 24 32  2  0  0  0
 25 26  2  0  0  0
 26 27  1  0  0  0
 27 28  2  0  0  0
 28 29  1  0  0  0
 28 32  1  0  0  0
 29 30  2  0  0  0
 30 33  1  0  0  0
 30 31  1  0  0  0
 33 34  2  0  0  0
 33 38  1  0  0  0
 34 35  1  0  0  0
 35 36  1  0  0  0
 35 37  1  0  0  0
 37 38  2  0  0  0
 31 32  1  0  0  0
  5  6  1  0  0  0
  5  7  1  0  0  0
 17 18  1  0  0  0
 17 22  2  0  0  0
 18 19  2  0  0  0
 19 20  1  0  0  0
 20 21  2  0  0  0
 21 22  1  0  0  0
M  END
> <minimizedAffinity>
-9.34624

$$$$
