CHEMBL250471


 27 29  0  0  0  0  0  0  0  0999 V2000
  -28.3209   -2.3200   -7.4685 C   0  0  0  0  0  0  0  0  0  0  0  0
  -28.0535   -1.0797   -6.8666 C   0  0  0  0  0  0  0  0  0  0  0  0
  -28.6686   -0.7548   -5.6704 C   0  0  0  0  0  0  0  0  0  0  0  0
  -28.3368    0.8995   -4.8348 Br  0  0  0  0  0  0  0  0  0  0  0  0
  -29.5321   -1.6775   -5.1148 C   0  0  0  0  0  0  0  0  0  0  0  0
  -29.8243   -2.8741   -5.6844 N   0  0  0  0  0  0  0  0  0  0  0  0
  -29.2444   -3.1918   -6.8688 C   0  0  0  0  0  0  0  0  0  0  0  0
  -27.2512   -3.7239   -8.9677 O   0  0  0  0  0  0  0  0  0  0  0  0
  -27.6463   -2.5807   -8.7649 C   0  0  0  0  0  0  0  0  0  0  0  0
  -27.5312   -1.5065   -9.6274 N   0  0  0  0  0  0  0  0  0  0  0  0
  -27.9152   -0.6190   -9.3074 H   0  0  0  0  0  0  0  0  0  0  0  0
  -26.9160   -1.5075  -10.8980 C   0  0  0  0  0  0  0  0  0  0  0  0
  -25.5658   -1.2111  -11.1081 C   0  0  0  0  0  0  0  0  0  0  0  0
  -25.0266   -1.2039  -12.3966 C   0  0  0  0  0  0  0  0  0  0  0  0
  -25.8393   -1.4994  -13.4908 C   0  0  0  0  0  0  0  0  0  0  0  0
  -25.1789   -1.4757  -15.0776 Cl  0  0  0  0  0  0  0  0  0  0  0  0
  -27.1831   -1.8107  -13.2972 C   0  0  0  0  0  0  0  0  0  0  0  0
  -27.7173   -1.8173  -12.0041 C   0  0  0  0  0  0  0  0  0  0  0  0
  -29.5453   -4.4475   -7.4396 N   0  0  0  0  0  0  0  0  0  0  0  0
  -30.5564   -4.5450   -7.5308 H   0  0  0  0  0  0  0  0  0  0  0  0
  -29.0299   -5.5769   -6.6590 C   0  0  0  0  0  0  0  0  0  0  0  0
  -29.5525   -6.8564   -7.2644 C   0  0  0  0  0  0  0  0  0  0  0  0
  -28.7541   -7.5912   -8.1469 C   0  0  0  0  0  0  0  0  0  0  0  0
  -29.2722   -8.7457   -8.7092 C   0  0  0  0  0  0  0  0  0  0  0  0
  -30.5137   -9.2104   -8.4563 N   0  0  0  0  0  0  0  0  0  0  0  0
  -31.2687   -8.4912   -7.5988 C   0  0  0  0  0  0  0  0  0  0  0  0
  -30.8405   -7.3230   -6.9861 C   0  0  0  0  0  0  0  0  0  0  0  0
  8  9  2  0  0  0
  9 10  1  0  0  0
  9  1  1  0  0  0
 10 12  1  0  0  0
 10 11  1  0  0  0
 12 13  1  0  0  0
 12 18  2  0  0  0
 13 14  2  0  0  0
 14 15  1  0  0  0
 15 16  1  0  0  0
 15 17  2  0  0  0
 17 18  1  0  0  0
  1  2  1  0  0  0
  1  7  2  0  0  0
  2  3  2  0  0  0
  3  4  1  0  0  0
  3  5  1  0  0  0
  5  6  2  0  0  0
  6  7  1  0  0  0
  7 19  1  0  0  0
 19 21  1  0  0  0
 19 20  1  0  0  0
 21 22  1  0  0  0
 22 23  1  0  0  0
 22 27  2  0  0  0
 23 24  2  0  0  0
 24 25  1  0  0  0
 25 26  2  0  0  0
 26 27  1  0  0  0
M  END
> <minimizedAffinity>
-8.71349

$$$$
