CHEMBL1940854


 23 25  0  0  0  0  0  0  0  0999 V2000
  -28.0146  -12.1659  -10.3000 C   0  0  0  0  0  0  0  0  0  0  0  0
  -28.2731  -10.8401   -9.6484 C   0  0  0  0  0  0  0  0  0  0  0  0
  -27.2579   -9.8909   -9.5277 C   0  0  0  0  0  0  0  0  0  0  0  0
  -27.5407   -8.6322   -9.0028 C   0  0  0  0  0  0  0  0  0  0  0  0
  -28.8201   -8.3457   -8.5035 C   0  0  0  0  0  0  0  0  0  0  0  0
  -29.1047   -7.1171   -7.8945 C   0  0  0  0  0  0  0  0  0  0  0  0
  -30.3527   -6.8982   -7.3114 C   0  0  0  0  0  0  0  0  0  0  0  0
  -31.2822   -7.9305   -7.4131 C   0  0  0  0  0  0  0  0  0  0  0  0
  -32.8379   -7.8474   -6.6769 Cl  0  0  0  0  0  0  0  0  0  0  0  0
  -31.0624   -9.1066   -8.0440 N   0  0  0  0  0  0  0  0  0  0  0  0
  -29.8441   -9.3140   -8.5686 C   0  0  0  0  0  0  0  0  0  0  0  0
  -29.5593  -10.5276   -9.1802 C   0  0  0  0  0  0  0  0  0  0  0  0
  -30.5773   -5.6476   -6.5853 C   0  0  0  0  0  0  0  0  0  0  0  0
  -30.4793   -5.6044   -5.2476 C   0  0  0  0  0  0  0  0  0  0  0  0
  -30.6606   -4.3100   -4.5281 C   0  0  0  0  0  0  0  0  0  0  0  0
  -31.5872   -4.1270   -3.7528 O   0  0  0  0  0  0  0  0  0  0  0  0
  -29.6659   -3.2900   -4.8872 C   0  0  0  0  0  0  0  0  0  0  0  0
  -29.9244   -2.0498   -5.5731 C   0  0  0  0  0  0  0  0  0  0  0  0
  -28.7850   -1.3130   -5.8068 C   0  0  0  0  0  0  0  0  0  0  0  0
  -28.6581    0.0021   -6.4969 C   0  0  0  0  0  0  0  0  0  0  0  0
  -27.3981   -2.0946   -5.1973 S   0  0  0  0  0  0  0  0  0  0  0  0
  -28.3100   -3.4298   -4.6299 C   0  0  0  0  0  0  0  0  0  0  0  0
  -27.6018   -4.5561   -3.9393 C   0  0  0  0  0  0  0  0  0  0  0  0
  1  2  1  0  0  0
  2  3  1  0  0  0
  2 12  2  0  0  0
  3  4  2  0  0  0
  4  5  1  0  0  0
  5  6  1  0  0  0
  5 11  2  0  0  0
  6  7  2  0  0  0
  7 13  1  0  0  0
  7  8  1  0  0  0
 13 14  2  0  0  0
 14 15  1  0  0  0
 15 16  2  0  0  0
 15 17  1  0  0  0
 17 18  1  0  0  0
 17 22  2  0  0  0
 18 19  2  0  0  0
 19 20  1  0  0  0
 19 21  1  0  0  0
 21 22  1  0  0  0
 22 23  1  0  0  0
  8  9  1  0  0  0
  8 10  2  0  0  0
 10 11  1  0  0  0
 11 12  1  0  0  0
M  END
> <minimizedAffinity>
-8.10465

$$$$
