CHEMBL4576626


 35 38  0  0  0  0  0  0  0  0999 V2000
  -26.1817   11.2822  -15.8042 C   0  0  0  0  0  0  0  0  0  0  0  0
  -25.9837   11.9647  -14.5968 C   0  0  0  0  0  0  0  0  0  0  0  0
  -27.0857   12.2972  -13.7929 C   0  0  0  0  0  0  0  0  0  0  0  0
  -28.3743   11.9420  -14.1967 C   0  0  0  0  0  0  0  0  0  0  0  0
  -28.5700   11.2451  -15.3837 C   0  0  0  0  0  0  0  0  0  0  0  0
  -27.4809   10.9190  -16.1857 C   0  0  0  0  0  0  0  0  0  0  0  0
  -24.5607   12.0790  -17.4583 N   0  0  0  0  0  0  0  0  0  0  0  0
  -25.0857   10.9968  -16.7710 C   0  0  0  0  0  0  0  0  0  0  0  0
  -24.7253    9.8281  -16.8825 O   0  0  0  0  0  0  0  0  0  0  0  0
  -24.8698   13.0150  -17.2433 H   0  0  0  0  0  0  0  0  0  0  0  0
  -21.5641   11.7956  -19.3862 N   0  0  0  0  0  0  0  0  0  0  0  0
  -22.2017   11.8211  -18.1690 C   0  0  0  0  0  0  0  0  0  0  0  0
  -23.5441   11.9723  -18.3986 C   0  0  0  0  0  0  0  0  0  0  0  0
  -23.6425   11.9924  -19.8027 C   0  0  0  0  0  0  0  0  0  0  0  0
  -22.4546   11.9094  -20.4080 N   0  0  0  0  0  0  0  0  0  0  0  0
  -17.4079   11.4356  -20.0846 C   0  0  0  0  0  0  0  0  0  0  0  0
  -17.9104   12.5328  -19.3870 C   0  0  0  0  0  0  0  0  0  0  0  0
  -19.2821   12.6572  -19.1609 C   0  0  0  0  0  0  0  0  0  0  0  0
  -20.1679   11.6716  -19.6166 C   0  0  0  0  0  0  0  0  0  0  0  0
  -19.6651   10.5609  -20.3041 C   0  0  0  0  0  0  0  0  0  0  0  0
  -18.2904   10.4516  -20.5386 C   0  0  0  0  0  0  0  0  0  0  0  0
  -15.7066    9.8695  -20.6007 C   0  0  0  0  0  0  0  0  0  0  0  0
  -16.0896   11.2229  -20.3804 O   0  0  0  0  0  0  0  0  0  0  0  0
  -29.5242   12.3444  -13.4716 N   0  0  0  0  0  0  0  0  0  0  0  0
  -30.2364   12.8922  -13.9539 H   0  0  0  0  0  0  0  0  0  0  0  0
  -30.2224   11.2429  -12.3944 S   0  0  0  0  0  0  0  0  0  0  0  0
  -29.4502   10.0285  -12.5260 O   0  0  0  0  0  0  0  0  0  0  0  0
  -30.3802   11.8824  -11.1050 O   0  0  0  0  0  0  0  0  0  0  0  0
  -31.8437   10.9145  -13.0643 C   0  0  0  0  0  0  0  0  0  0  0  0
  -32.2731   11.6242  -14.1906 C   0  0  0  0  0  0  0  0  0  0  0  0
  -33.4908   11.2989  -14.7937 C   0  0  0  0  0  0  0  0  0  0  0  0
  -34.2716   10.2662  -14.2742 C   0  0  0  0  0  0  0  0  0  0  0  0
  -35.7537    9.8513  -15.0436 Cl  0  0  0  0  0  0  0  0  0  0  0  0
  -33.8474    9.5572  -13.1496 C   0  0  0  0  0  0  0  0  0  0  0  0
  -32.6257    9.8728  -12.5453 C   0  0  0  0  0  0  0  0  0  0  0  0
 22 23  1  0  0  0
 23 16  1  0  0  0
 16 17  1  0  0  0
 16 21  2  0  0  0
 17 18  2  0  0  0
 18 19  1  0  0  0
 19 11  1  0  0  0
 19 20  2  0  0  0
 11 12  1  0  0  0
 11 15  1  0  0  0
 12 13  2  0  0  0
 13  7  1  0  0  0
 13 14  1  0  0  0
  7  8  1  0  0  0
  7 10  1  0  0  0
  8  9  2  0  0  0
  8  1  1  0  0  0
  1  2  1  0  0  0
  1  6  2  0  0  0
  2  3  2  0  0  0
  3  4  1  0  0  0
  4 24  1  0  0  0
  4  5  2  0  0  0
 24 26  1  0  0  0
 24 25  1  0  0  0
 26 27  2  0  0  0
 26 28  2  0  0  0
 26 29  1  0  0  0
 29 30  1  0  0  0
 29 35  2  0  0  0
 30 31  2  0  0  0
 31 32  1  0  0  0
 32 33  1  0  0  0
 32 34  2  0  0  0
 34 35  1  0  0  0
  5  6  1  0  0  0
 14 15  2  0  0  0
 20 21  1  0  0  0
M  END
> <minimizedAffinity>
-6.59818

$$$$
