CHEMBL4799658


 44 49  0  0  0  0  0  0  0  0999 V2000
  -27.2987   -3.4415   -9.1424 C   0  0  0  0  0  0  0  0  0  0  0  0
  -28.0801   -2.7173   -8.3361 N   0  0  0  0  0  0  0  0  0  0  0  0
  -28.0332   -1.3884   -8.5248 C   0  0  0  0  0  0  0  0  0  0  0  0
  -27.2534   -0.7961   -9.5002 C   0  0  0  0  0  0  0  0  0  0  0  0
  -26.4992   -1.6165  -10.3164 C   0  0  0  0  0  0  0  0  0  0  0  0
  -26.4691   -2.9398  -10.0713 N   0  0  0  0  0  0  0  0  0  0  0  0
  -28.1407   -6.7764   -8.1164 N   0  0  0  0  0  0  0  0  0  0  0  0
  -28.2288   -5.3887   -8.1669 C   0  0  0  0  0  0  0  0  0  0  0  0
  -29.0811   -4.6887   -7.6395 O   0  0  0  0  0  0  0  0  0  0  0  0
  -27.2611   -4.8414   -8.9998 N   0  0  0  0  0  0  0  0  0  0  0  0
  -27.3986   -7.1644   -8.6756 H   0  0  0  0  0  0  0  0  0  0  0  0
  -27.3243   -5.2565   -9.9149 H   0  0  0  0  0  0  0  0  0  0  0  0
  -31.2012  -10.6390   -8.6485 C   0  0  0  0  0  0  0  0  0  0  0  0
  -30.4879   -9.6621   -7.7590 C   0  0  0  0  0  0  0  0  0  0  0  0
  -30.7023   -9.7185   -6.3872 C   0  0  0  0  0  0  0  0  0  0  0  0
  -30.0483   -8.8276   -5.5487 C   0  0  0  0  0  0  0  0  0  0  0  0
  -29.1613   -7.8461   -6.0449 C   0  0  0  0  0  0  0  0  0  0  0  0
  -28.5036   -7.0146   -4.9835 C   0  0  0  0  0  0  0  0  0  0  0  0
  -28.9591   -7.7347   -7.4369 C   0  0  0  0  0  0  0  0  0  0  0  0
  -29.6186   -8.6759   -8.2727 C   0  0  0  0  0  0  0  0  0  0  0  0
  -25.7627   -1.1231  -11.3790 N   0  0  0  0  0  0  0  0  0  0  0  0
  -26.1063   -1.3747  -12.7885 C   0  0  0  0  0  0  0  0  0  0  0  0
  -24.9027   -1.9556  -13.5653 C   0  0  0  0  0  0  0  0  0  0  0  0
  -23.6571   -1.1643  -13.4701 N   0  0  0  0  0  0  0  0  0  0  0  0
  -23.3375   -1.0397  -12.0234 C   0  0  0  0  0  0  0  0  0  0  0  0
  -24.4694   -0.4603  -11.1324 C   0  0  0  0  0  0  0  0  0  0  0  0
  -23.7663    0.1718  -14.0844 C   0  0  0  0  0  0  0  0  0  0  0  0
  -22.4609    0.9234  -14.2510 C   0  0  0  0  0  0  0  0  0  0  0  0
  -21.3218    0.2609  -14.7375 C   0  0  0  0  0  0  0  0  0  0  0  0
  -20.1329    0.9572  -14.9625 C   0  0  0  0  0  0  0  0  0  0  0  0
  -20.0689    2.3250  -14.7077 C   0  0  0  0  0  0  0  0  0  0  0  0
  -21.1893    2.9939  -14.2164 C   0  0  0  0  0  0  0  0  0  0  0  0
  -22.3780    2.2967  -13.9836 C   0  0  0  0  0  0  0  0  0  0  0  0
  -28.9250   -0.3225   -7.3921 S   0  0  0  0  0  0  0  0  0  0  0  0
  -28.6109   -0.9644   -5.7923 C   0  0  0  0  0  0  0  0  0  0  0  0
  -27.6570   -0.5509   -4.8926 C   0  0  0  0  0  0  0  0  0  0  0  0
  -27.7930   -1.3018   -3.7563 N   0  0  0  0  0  0  0  0  0  0  0  0
  -28.8084   -2.2189   -3.9044 C   0  0  0  0  0  0  0  0  0  0  0  0
  -29.2926   -3.1737   -2.9994 C   0  0  0  0  0  0  0  0  0  0  0  0
  -30.3502   -3.9887   -3.4181 C   0  0  0  0  0  0  0  0  0  0  0  0
  -30.8970   -3.8485   -4.6881 C   0  0  0  0  0  0  0  0  0  0  0  0
  -30.3995   -2.8888   -5.5816 C   0  0  0  0  0  0  0  0  0  0  0  0
  -29.3369   -2.0418   -5.1859 C   0  0  0  0  0  0  0  0  0  0  0  0
  -27.2380   -1.1923   -2.9196 H   0  0  0  0  0  0  0  0  0  0  0  0
 13 14  1  0  0  0
 14 15  1  0  0  0
 14 20  2  0  0  0
 15 16  2  0  0  0
 16 17  1  0  0  0
 17 18  1  0  0  0
 17 19  2  0  0  0
 19  7  1  0  0  0
 19 20  1  0  0  0
  7  8  1  0  0  0
  7 11  1  0  0  0
  8  9  2  0  0  0
  8 10  1  0  0  0
 10  1  1  0  0  0
 10 12  1  0  0  0
  1  2  1  0  0  0
  1  6  2  0  0  0
  2  3  2  0  0  0
  3 34  1  0  0  0
  3  4  1  0  0  0
 34 35  1  0  0  0
 35 36  2  0  0  0
 35 43  1  0  0  0
 36 37  1  0  0  0
 37 38  1  0  0  0
 37 44  1  0  0  0
 38 39  1  0  0  0
 38 43  2  0  0  0
 39 40  2  0  0  0
 40 41  1  0  0  0
 41 42  2  0  0  0
 42 43  1  0  0  0
  4  5  2  0  0  0
  5 21  1  0  0  0
  5  6  1  0  0  0
 21 22  1  0  0  0
 21 26  1  0  0  0
 22 23  1  0  0  0
 23 24  1  0  0  0
 24 27  1  0  0  0
 24 25  1  0  0  0
 27 28  1  0  0  0
 28 29  1  0  0  0
 28 33  2  0  0  0
 29 30  2  0  0  0
 30 31  1  0  0  0
 31 32  2  0  0  0
 32 33  1  0  0  0
 25 26  1  0  0  0
M  END
> <minimizedAffinity>
-8.63230

$$$$
