CHEMBL370586


 33 36  0  0  0  0  0  0  0  0999 V2000
  -14.0359   -2.6374  -13.8958 C   0  0  0  0  0  0  0  0  0  0  0  0
  -13.1751   -3.0557  -14.8378 N   0  0  0  0  0  0  0  0  0  0  0  0
  -13.0919   -4.3681  -15.2212 N   0  0  0  0  0  0  0  0  0  0  0  0
  -13.8651   -5.3079  -14.6397 C   0  0  0  0  0  0  0  0  0  0  0  0
  -14.7498   -4.9571  -13.5937 C   0  0  0  0  0  0  0  0  0  0  0  0
  -15.5521   -5.8874  -12.8819 C   0  0  0  0  0  0  0  0  0  0  0  0
  -16.4594   -5.4980  -11.8981 C   0  0  0  0  0  0  0  0  0  0  0  0
  -16.5400   -4.1672  -11.5342 C   0  0  0  0  0  0  0  0  0  0  0  0
  -15.7216   -3.2317  -12.1637 C   0  0  0  0  0  0  0  0  0  0  0  0
  -14.8340   -3.5874  -13.2143 C   0  0  0  0  0  0  0  0  0  0  0  0
  -13.6826   -6.6548  -15.2447 C   0  0  0  0  0  0  0  0  0  0  0  0
  -13.2699   -7.7476  -14.4556 C   0  0  0  0  0  0  0  0  0  0  0  0
  -13.0427   -9.0152  -15.0115 C   0  0  0  0  0  0  0  0  0  0  0  0
  -13.2544   -9.2296  -16.3746 C   0  0  0  0  0  0  0  0  0  0  0  0
  -13.6499   -8.1641  -17.1821 C   0  0  0  0  0  0  0  0  0  0  0  0
  -13.8255   -6.8890  -16.6254 C   0  0  0  0  0  0  0  0  0  0  0  0
  -12.9770  -10.5737  -16.9416 C   0  0  0  0  0  0  0  0  0  0  0  0
  -14.0509  -11.3333  -17.3129 N   0  0  0  0  0  0  0  0  0  0  0  0
  -11.8339  -11.0024  -17.0539 O   0  0  0  0  0  0  0  0  0  0  0  0
  -14.9961  -11.1231  -17.0254 H   0  0  0  0  0  0  0  0  0  0  0  0
  -13.8483  -12.2768  -17.6190 H   0  0  0  0  0  0  0  0  0  0  0  0
  -14.0920   -1.2620  -13.5349 N   0  0  0  0  0  0  0  0  0  0  0  0
  -13.7272   -1.1188  -12.6007 H   0  0  0  0  0  0  0  0  0  0  0  0
  -17.1569    1.5394  -14.5962 C   0  0  0  0  0  0  0  0  0  0  0  0
  -17.0335    1.0593  -13.2854 C   0  0  0  0  0  0  0  0  0  0  0  0
  -16.0238    0.1663  -12.9174 C   0  0  0  0  0  0  0  0  0  0  0  0
  -15.0704   -0.2807  -13.8272 C   0  0  0  0  0  0  0  0  0  0  0  0
  -15.1872    0.1864  -15.1447 C   0  0  0  0  0  0  0  0  0  0  0  0
  -16.2076    1.0782  -15.5233 C   0  0  0  0  0  0  0  0  0  0  0  0
  -19.5842    1.6172  -15.4173 C   0  0  0  0  0  0  0  0  0  0  0  0
  -18.3401    2.4368  -14.9926 C   0  0  0  0  0  0  0  0  0  0  0  0
  -17.8987    3.3046  -16.1883 C   0  0  0  0  0  0  0  0  0  0  0  0
  -18.8013    3.3685  -13.8513 C   0  0  0  0  0  0  0  0  0  0  0  0
 30 31  1  0  0  0
 31 32  1  0  0  0
 31 33  1  0  0  0
 31 24  1  0  0  0
 24 25  1  0  0  0
 24 29  2  0  0  0
 25 26  2  0  0  0
 26 27  1  0  0  0
 27 22  1  0  0  0
 27 28  2  0  0  0
 22  1  1  0  0  0
 22 23  1  0  0  0
  1  2  1  0  0  0
  1 10  2  0  0  0
  2  3  2  0  0  0
  3  4  1  0  0  0
  4 11  1  0  0  0
  4  5  2  0  0  0
 11 12  1  0  0  0
 11 16  2  0  0  0
 12 13  2  0  0  0
 13 14  1  0  0  0
 14 17  1  0  0  0
 14 15  2  0  0  0
 17 18  1  0  0  0
 17 19  2  0  0  0
 18 20  1  0  0  0
 18 21  1  0  0  0
 15 16  1  0  0  0
  5  6  1  0  0  0
  5 10  1  0  0  0
  6  7  2  0  0  0
  7  8  1  0  0  0
  8  9  2  0  0  0
  9 10  1  0  0  0
 28 29  1  0  0  0
M  END
> <minimizedAffinity>
-8.50136

$$$$
