CHEMBL218425


 34 37  0  0  0  0  0  0  0  0999 V2000
  -27.8727   -1.7205   -3.7245 C   0  0  0  0  0  0  0  0  0  0  0  0
  -28.0097   -1.8113   -5.2200 C   0  0  0  0  0  0  0  0  0  0  0  0
  -27.8293   -0.6343   -5.9651 C   0  0  0  0  0  0  0  0  0  0  0  0
  -27.7801   -0.6657   -7.3585 C   0  0  0  0  0  0  0  0  0  0  0  0
  -27.9203   -1.8759   -8.0405 C   0  0  0  0  0  0  0  0  0  0  0  0
  -28.1715   -3.0437   -7.3168 C   0  0  0  0  0  0  0  0  0  0  0  0
  -28.2579   -3.0100   -5.9176 C   0  0  0  0  0  0  0  0  0  0  0  0
  -27.7147   -1.8798   -9.5164 C   0  0  0  0  0  0  0  0  0  0  0  0
  -28.6238   -2.3014  -10.2179 O   0  0  0  0  0  0  0  0  0  0  0  0
  -26.4748   -1.4401   -9.9570 N   0  0  0  0  0  0  0  0  0  0  0  0
  -25.7580   -1.3166   -9.2560 H   0  0  0  0  0  0  0  0  0  0  0  0
  -26.0578   -1.3702  -11.3047 C   0  0  0  0  0  0  0  0  0  0  0  0
  -26.8133   -1.8559  -12.3742 C   0  0  0  0  0  0  0  0  0  0  0  0
  -26.3208   -1.7979  -13.6804 C   0  0  0  0  0  0  0  0  0  0  0  0
  -25.0628   -1.2588  -13.9308 C   0  0  0  0  0  0  0  0  0  0  0  0
  -24.2914   -0.7497  -12.8782 C   0  0  0  0  0  0  0  0  0  0  0  0
  -24.8124   -0.7846  -11.5706 C   0  0  0  0  0  0  0  0  0  0  0  0
  -22.9094   -0.1997  -13.1251 C   0  0  0  0  0  0  0  0  0  0  0  0
  -22.9040    1.0768  -13.6010 F   0  0  0  0  0  0  0  0  0  0  0  0
  -22.1444   -0.1817  -11.9989 F   0  0  0  0  0  0  0  0  0  0  0  0
  -22.2138   -0.9373  -14.0356 F   0  0  0  0  0  0  0  0  0  0  0  0
  -28.4413   -4.2473   -5.3365 O   0  0  0  0  0  0  0  0  0  0  0  0
  -29.6780   -4.5868   -4.7985 C   0  0  0  0  0  0  0  0  0  0  0  0
  -30.2803   -3.6932   -3.9691 N   0  0  0  0  0  0  0  0  0  0  0  0
  -31.4281   -4.0714   -3.3744 C   0  0  0  0  0  0  0  0  0  0  0  0
  -32.0468   -5.2783   -3.6195 C   0  0  0  0  0  0  0  0  0  0  0  0
  -31.4508   -6.1446   -4.5333 C   0  0  0  0  0  0  0  0  0  0  0  0
  -30.2252   -5.8295   -5.1540 C   0  0  0  0  0  0  0  0  0  0  0  0
  -29.6119   -6.7939   -6.0972 C   0  0  0  0  0  0  0  0  0  0  0  0
  -29.7472   -6.7342   -7.4739 C   0  0  0  0  0  0  0  0  0  0  0  0
  -29.0753   -7.6843   -8.2115 C   0  0  0  0  0  0  0  0  0  0  0  0
  -28.3077   -8.6412   -7.6683 N   0  0  0  0  0  0  0  0  0  0  0  0
  -28.2296   -8.6229   -6.3334 C   0  0  0  0  0  0  0  0  0  0  0  0
  -28.8404   -7.7478   -5.5191 N   0  0  0  0  0  0  0  0  0  0  0  0
  1  2  1  0  0  0
  2  3  1  0  0  0
  2  7  2  0  0  0
  3  4  2  0  0  0
  4  5  1  0  0  0
  5  8  1  0  0  0
  5  6  2  0  0  0
  8  9  2  0  0  0
  8 10  1  0  0  0
 10 12  1  0  0  0
 10 11  1  0  0  0
 12 13  1  0  0  0
 12 17  2  0  0  0
 13 14  2  0  0  0
 14 15  1  0  0  0
 15 16  2  0  0  0
 16 18  1  0  0  0
 16 17  1  0  0  0
 18 19  1  0  0  0
 18 20  1  0  0  0
 18 21  1  0  0  0
  6  7  1  0  0  0
  7 22  1  0  0  0
 22 23  1  0  0  0
 23 24  1  0  0  0
 23 28  2  0  0  0
 24 25  2  0  0  0
 25 26  1  0  0  0
 26 27  2  0  0  0
 27 28  1  0  0  0
 28 29  1  0  0  0
 29 30  1  0  0  0
 29 34  2  0  0  0
 30 31  2  0  0  0
 31 32  1  0  0  0
 32 33  2  0  0  0
 33 34  1  0  0  0
M  END
> <minimizedAffinity>
-10.89224

$$$$
