CHEMBL483451


 30 34  0  0  0  0  0  0  0  0999 V2000
  -22.8412    0.1819  -14.2887 C   0  0  0  0  0  0  0  0  0  0  0  0
  -21.6039   -0.2596  -14.7287 C   0  0  0  0  0  0  0  0  0  0  0  0
  -20.7020    0.8348  -14.7137 C   0  0  0  0  0  0  0  0  0  0  0  0
  -19.3528    0.9943  -15.0649 C   0  0  0  0  0  0  0  0  0  0  0  0
  -18.7553    2.2489  -14.9119 C   0  0  0  0  0  0  0  0  0  0  0  0
  -19.5072    3.3479  -14.4941 C   0  0  0  0  0  0  0  0  0  0  0  0
  -20.8473    3.2091  -14.1324 C   0  0  0  0  0  0  0  0  0  0  0  0
  -21.4080    1.9378  -14.2489 C   0  0  0  0  0  0  0  0  0  0  0  0
  -22.6878    1.5170  -13.9941 N   0  0  0  0  0  0  0  0  0  0  0  0
  -23.4433    2.1383  -13.7263 H   0  0  0  0  0  0  0  0  0  0  0  0
  -22.8695   -0.9718  -11.3089 O   0  0  0  0  0  0  0  0  0  0  0  0
  -24.0110   -1.2265  -11.6529 C   0  0  0  0  0  0  0  0  0  0  0  0
  -24.9705   -1.7746  -10.8331 N   0  0  0  0  0  0  0  0  0  0  0  0
  -26.1782   -2.1121  -11.5341 C   0  0  0  0  0  0  0  0  0  0  0  0
  -25.8811   -1.6657  -12.9265 C   0  0  0  0  0  0  0  0  0  0  0  0
  -26.6962   -1.7431  -14.0428 C   0  0  0  0  0  0  0  0  0  0  0  0
  -26.2125   -1.2318  -15.2450 C   0  0  0  0  0  0  0  0  0  0  0  0
  -24.9431   -0.6296  -15.3086 C   0  0  0  0  0  0  0  0  0  0  0  0
  -24.1112   -0.5329  -14.1763 C   0  0  0  0  0  0  0  0  0  0  0  0
  -24.6020   -1.0954  -13.0003 C   0  0  0  0  0  0  0  0  0  0  0  0
  -24.7683   -1.9872   -9.8659 H   0  0  0  0  0  0  0  0  0  0  0  0
  -17.4267    2.2836  -15.2265 O   0  0  0  0  0  0  0  0  0  0  0  0
  -16.8534    1.0495  -15.6577 C   0  0  0  0  0  0  0  0  0  0  0  0
  -15.3680    1.0346  -15.2785 C   0  0  0  0  0  0  0  0  0  0  0  0
  -15.1407    1.1780  -13.8269 N   0  0  0  0  0  0  0  0  0  0  0  0
  -13.7085    1.1432  -13.4574 C   0  0  0  0  0  0  0  0  0  0  0  0
  -13.0674   -0.2320  -13.6881 C   0  0  0  0  0  0  0  0  0  0  0  0
  -13.7429   -1.2394  -12.9249 O   0  0  0  0  0  0  0  0  0  0  0  0
  -15.1433   -1.2815  -13.2351 C   0  0  0  0  0  0  0  0  0  0  0  0
  -15.8162    0.0955  -13.0765 C   0  0  0  0  0  0  0  0  0  0  0  0
 11 12  2  0  0  0
 12 13  1  0  0  0
 12 20  1  0  0  0
 13 14  1  0  0  0
 13 21  1  0  0  0
 14 15  1  0  0  0
 15 16  1  0  0  0
 15 20  2  0  0  0
 16 17  2  0  0  0
 17 18  1  0  0  0
 18 19  2  0  0  0
 19  1  1  0  0  0
 19 20  1  0  0  0
  1  2  2  0  0  0
  1  9  1  0  0  0
  2  3  1  0  0  0
  3  4  1  0  0  0
  3  8  2  0  0  0
  4  5  2  0  0  0
  5 22  1  0  0  0
  5  6  1  0  0  0
 22 23  1  0  0  0
 23 24  1  0  0  0
 24 25  1  0  0  0
 25 26  1  0  0  0
 25 30  1  0  0  0
 26 27  1  0  0  0
 27 28  1  0  0  0
 28 29  1  0  0  0
 29 30  1  0  0  0
  6  7  2  0  0  0
  7  8  1  0  0  0
  8  9  1  0  0  0
  9 10  1  0  0  0
M  END
> <minimizedAffinity>
-9.26076

$$$$
