CHEMBL147192


 30 33  0  0  0  0  0  0  0  0999 V2000
  -30.9267   -8.8060   -7.4841 C   0  0  0  0  0  0  0  0  0  0  0  0
  -30.4604   -7.5199   -7.2185 C   0  0  0  0  0  0  0  0  0  0  0  0
  -29.4126   -7.2967   -6.3190 C   0  0  0  0  0  0  0  0  0  0  0  0
  -29.0637   -6.0196   -5.8551 C   0  0  0  0  0  0  0  0  0  0  0  0
  -28.0893   -5.8423   -4.9491 N   0  0  0  0  0  0  0  0  0  0  0  0
  -27.4632   -6.9409   -4.5144 C   0  0  0  0  0  0  0  0  0  0  0  0
  -27.7334   -8.2049   -4.8780 N   0  0  0  0  0  0  0  0  0  0  0  0
  -28.7257   -8.3802   -5.7635 C   0  0  0  0  0  0  0  0  0  0  0  0
  -29.1239   -9.6700   -6.1390 C   0  0  0  0  0  0  0  0  0  0  0  0
  -30.2065   -9.9071   -7.0070 C   0  0  0  0  0  0  0  0  0  0  0  0
  -33.2630   -9.0533   -7.3222 C   0  0  0  0  0  0  0  0  0  0  0  0
  -32.1059   -8.9707   -8.1640 O   0  0  0  0  0  0  0  0  0  0  0  0
  -29.8187   -4.8944   -6.2889 N   0  0  0  0  0  0  0  0  0  0  0  0
  -30.1951   -5.0486   -7.2213 H   0  0  0  0  0  0  0  0  0  0  0  0
  -29.4625   -3.5462   -6.0742 C   0  0  0  0  0  0  0  0  0  0  0  0
  -29.9818   -2.8250   -4.9918 C   0  0  0  0  0  0  0  0  0  0  0  0
  -29.5527   -1.5226   -4.7320 C   0  0  0  0  0  0  0  0  0  0  0  0
  -28.6147   -0.9243   -5.5706 C   0  0  0  0  0  0  0  0  0  0  0  0
  -28.0260    0.6481   -5.1982 Cl  0  0  0  0  0  0  0  0  0  0  0  0
  -28.1418   -1.5939   -6.6952 C   0  0  0  0  0  0  0  0  0  0  0  0
  -28.5813   -2.8909   -6.9439 C   0  0  0  0  0  0  0  0  0  0  0  0
  -28.1201   -3.5390   -8.0258 F   0  0  0  0  0  0  0  0  0  0  0  0
  -30.4966  -11.2357   -7.2352 O   0  0  0  0  0  0  0  0  0  0  0  0
  -30.4601  -11.6345   -8.6114 C   0  0  0  0  0  0  0  0  0  0  0  0
  -29.1070  -12.2486   -8.9612 C   0  0  0  0  0  0  0  0  0  0  0  0
  -28.3218  -11.3524   -9.7909 N   0  0  0  0  0  0  0  0  0  0  0  0
  -28.7562  -10.6766  -10.8939 C   0  0  0  0  0  0  0  0  0  0  0  0
  -27.6492  -10.0023  -11.3594 C   0  0  0  0  0  0  0  0  0  0  0  0
  -26.5620  -10.2462  -10.5652 N   0  0  0  0  0  0  0  0  0  0  0  0
  -26.9970  -11.0570   -9.6246 C   0  0  0  0  0  0  0  0  0  0  0  0
 11 12  1  0  0  0
 12  1  1  0  0  0
  1  2  1  0  0  0
  1 10  2  0  0  0
  2  3  2  0  0  0
  3  4  1  0  0  0
  3  8  1  0  0  0
  4 13  1  0  0  0
  4  5  2  0  0  0
 13 15  1  0  0  0
 13 14  1  0  0  0
 15 16  1  0  0  0
 15 21  2  0  0  0
 16 17  2  0  0  0
 17 18  1  0  0  0
 18 19  1  0  0  0
 18 20  2  0  0  0
 20 21  1  0  0  0
 21 22  1  0  0  0
  5  6  1  0  0  0
  6  7  2  0  0  0
  7  8  1  0  0  0
  8  9  2  0  0  0
  9 10  1  0  0  0
 10 23  1  0  0  0
 23 24  1  0  0  0
 24 25  1  0  0  0
 25 26  1  0  0  0
 26 27  1  0  0  0
 26 30  1  0  0  0
 27 28  2  0  0  0
 28 29  1  0  0  0
 29 30  2  0  0  0
M  END
> <minimizedAffinity>
-7.51678

$$$$
