CHEMBL2071271


 33 36  0  0  0  0  0  0  0  0999 V2000
  -16.0843    0.1017  -14.3879 C   0  0  0  0  0  0  0  0  0  0  0  0
  -16.3276   -0.5517  -13.2459 N   0  0  0  0  0  0  0  0  0  0  0  0
  -15.3224   -1.1628  -12.6075 C   0  0  0  0  0  0  0  0  0  0  0  0
  -14.0451   -1.0696  -12.9961 N   0  0  0  0  0  0  0  0  0  0  0  0
  -13.8049   -0.3723  -14.1246 C   0  0  0  0  0  0  0  0  0  0  0  0
  -14.7938    0.2090  -14.8804 C   0  0  0  0  0  0  0  0  0  0  0  0
  -14.4090    1.0088  -16.3533 Cl  0  0  0  0  0  0  0  0  0  0  0  0
  -17.1617    0.6236  -15.0784 N   0  0  0  0  0  0  0  0  0  0  0  0
  -17.4114    0.0915  -15.9051 H   0  0  0  0  0  0  0  0  0  0  0  0
  -18.1589    3.0647  -14.9118 C   0  0  0  0  0  0  0  0  0  0  0  0
  -19.6330    3.3124  -15.3572 C   0  0  0  0  0  0  0  0  0  0  0  0
  -20.5306    3.0964  -14.1523 C   0  0  0  0  0  0  0  0  0  0  0  0
  -20.5392    1.7786  -13.8930 C   0  0  0  0  0  0  0  0  0  0  0  0
  -19.6323    1.1188  -14.9187 C   0  0  0  0  0  0  0  0  0  0  0  0
  -19.9839    2.0223  -16.1021 C   0  0  0  0  0  0  0  0  0  0  0  0
  -18.1749    1.5441  -14.5683 C   0  0  0  0  0  0  0  0  0  0  0  0
  -16.7454    4.8910  -15.6737 N   0  0  0  0  0  0  0  0  0  0  0  0
  -17.1501    3.6042  -15.9065 C   0  0  0  0  0  0  0  0  0  0  0  0
  -16.7700    3.0134  -16.9136 O   0  0  0  0  0  0  0  0  0  0  0  0
  -16.0121    5.2316  -16.2843 H   0  0  0  0  0  0  0  0  0  0  0  0
  -16.7553    5.2565  -14.7326 H   0  0  0  0  0  0  0  0  0  0  0  0
  -15.7145   -2.0269  -11.5778 N   0  0  0  0  0  0  0  0  0  0  0  0
  -16.4084   -1.5234  -11.0238 H   0  0  0  0  0  0  0  0  0  0  0  0
  -15.6820   -3.3745  -11.5898 C   0  0  0  0  0  0  0  0  0  0  0  0
  -15.1808   -4.2759  -10.6296 C   0  0  0  0  0  0  0  0  0  0  0  0
  -15.2764   -5.5477  -11.0313 N   0  0  0  0  0  0  0  0  0  0  0  0
  -15.7819   -5.4479  -12.2763 N   0  0  0  0  0  0  0  0  0  0  0  0
  -16.1077   -4.1678  -12.6278 C   0  0  0  0  0  0  0  0  0  0  0  0
  -15.8373   -6.6481  -13.0876 C   0  0  0  0  0  0  0  0  0  0  0  0
  -14.6017   -7.4932  -13.0002 C   0  0  0  0  0  0  0  0  0  0  0  0
  -14.6185   -8.7122  -12.9970 O   0  0  0  0  0  0  0  0  0  0  0  0
  -13.4390   -6.8034  -12.9825 O   0  0  0  0  0  0  0  0  0  0  0  0
  -13.5320   -5.8280  -12.9971 H   0  0  0  0  0  0  0  0  0  0  0  0
 17 18  1  0  0  0
 17 20  1  0  0  0
 17 21  1  0  0  0
 18 19  2  0  0  0
 18 10  1  0  0  0
 10 11  1  0  0  0
 10 16  1  0  0  0
 11 12  1  0  0  0
 11 15  1  0  0  0
 12 13  2  0  0  0
 13 14  1  0  0  0
 14 15  1  0  0  0
 14 16  1  0  0  0
 16  8  1  0  0  0
  8  1  1  0  0  0
  8  9  1  0  0  0
  1  2  1  0  0  0
  1  6  2  0  0  0
  2  3  2  0  0  0
  3 22  1  0  0  0
  3  4  1  0  0  0
 22 24  1  0  0  0
 22 23  1  0  0  0
 24 25  1  0  0  0
 24 28  2  0  0  0
 25 26  2  0  0  0
 26 27  1  0  0  0
 27 29  1  0  0  0
 27 28  1  0  0  0
 29 30  1  0  0  0
 30 31  2  0  0  0
 30 32  1  0  0  0
 32 33  1  0  0  0
  4  5  2  0  0  0
  5  6  1  0  0  0
  6  7  1  0  0  0
M  END
> <minimizedAffinity>
-7.75950

$$$$
