CHEMBL3622956


 33 37  0  0  0  0  0  0  0  0999 V2000
  -29.1819   -5.7353   -6.5725 C   0  0  0  0  0  0  0  0  0  0  0  0
  -30.2816   -6.2514   -7.2178 C   0  0  0  0  0  0  0  0  0  0  0  0
  -30.5337   -7.5738   -6.9588 C   0  0  0  0  0  0  0  0  0  0  0  0
  -29.7916   -8.3294   -6.1245 N   0  0  0  0  0  0  0  0  0  0  0  0
  -28.7254   -7.7520   -5.5499 C   0  0  0  0  0  0  0  0  0  0  0  0
  -28.3951   -6.4717   -5.7501 N   0  0  0  0  0  0  0  0  0  0  0  0
  -27.7157   -1.7396   -8.9135 C   0  0  0  0  0  0  0  0  0  0  0  0
  -28.0513   -2.6467   -7.7850 C   0  0  0  0  0  0  0  0  0  0  0  0
  -28.4691   -3.8971   -8.0294 N   0  0  0  0  0  0  0  0  0  0  0  0
  -28.8039   -4.3831   -6.8079 N   0  0  0  0  0  0  0  0  0  0  0  0
  -28.7138   -3.4085   -5.8426 C   0  0  0  0  0  0  0  0  0  0  0  0
  -28.0384   -2.3401   -6.3936 C   0  0  0  0  0  0  0  0  0  0  0  0
  -27.5674   -1.0812   -5.7403 C   0  0  0  0  0  0  0  0  0  0  0  0
  -28.5694   -0.4750   -4.8344 N   0  0  0  0  0  0  0  0  0  0  0  0
  -29.8488   -0.0343   -5.4580 C   0  0  0  0  0  0  0  0  0  0  0  0
  -29.1906    1.3005   -5.8608 C   0  0  0  0  0  0  0  0  0  0  0  0
  -28.6245    1.3843   -7.1917 O   0  0  0  0  0  0  0  0  0  0  0  0
  -28.2314    0.9808   -4.6822 C   0  0  0  0  0  0  0  0  0  0  0  0
  -28.8968    0.5652   -7.6465 H   0  0  0  0  0  0  0  0  0  0  0  0
  -27.9759   -8.5664   -4.7038 N   0  0  0  0  0  0  0  0  0  0  0  0
  -28.6024   -9.0099   -4.0451 H   0  0  0  0  0  0  0  0  0  0  0  0
  -26.7353   -9.2037   -4.8725 C   0  0  0  0  0  0  0  0  0  0  0  0
  -25.7415   -9.2327   -3.8921 C   0  0  0  0  0  0  0  0  0  0  0  0
  -24.5053   -9.8677   -4.0946 C   0  0  0  0  0  0  0  0  0  0  0  0
  -24.2851  -10.4974   -5.3206 C   0  0  0  0  0  0  0  0  0  0  0  0
  -25.2616  -10.5385   -6.3132 C   0  0  0  0  0  0  0  0  0  0  0  0
  -26.5019   -9.9026   -6.0705 C   0  0  0  0  0  0  0  0  0  0  0  0
  -24.7134  -11.2614   -7.4084 C   0  0  0  0  0  0  0  0  0  0  0  0
  -25.5417  -11.5854   -8.8629 Cl  0  0  0  0  0  0  0  0  0  0  0  0
  -23.4112  -11.6074   -7.0993 C   0  0  0  0  0  0  0  0  0  0  0  0
  -22.3900  -12.3049   -7.9280 C   0  0  0  0  0  0  0  0  0  0  0  0
  -23.1737  -11.1692   -5.8150 N   0  0  0  0  0  0  0  0  0  0  0  0
  -21.9509  -11.3433   -5.0577 C   0  0  0  0  0  0  0  0  0  0  0  0
  7  8  1  0  0  0
  8  9  2  0  0  0
  8 12  1  0  0  0
  9 10  1  0  0  0
 10  1  1  0  0  0
 10 11  1  0  0  0
  1  2  1  0  0  0
  1  6  2  0  0  0
  2  3  2  0  0  0
  3  4  1  0  0  0
  4  5  2  0  0  0
  5 20  1  0  0  0
  5  6  1  0  0  0
 20 22  1  0  0  0
 20 21  1  0  0  0
 22 23  1  0  0  0
 22 27  2  0  0  0
 23 24  2  0  0  0
 24 25  1  0  0  0
 25 26  2  0  0  0
 25 32  1  0  0  0
 26 27  1  0  0  0
 26 28  1  0  0  0
 28 29  1  0  0  0
 28 30  2  0  0  0
 30 31  1  0  0  0
 30 32  1  0  0  0
 32 33  1  0  0  0
 11 12  2  0  0  0
 12 13  1  0  0  0
 13 14  1  0  0  0
 14 15  1  0  0  0
 14 18  1  0  0  0
 15 16  1  0  0  0
 16 17  1  0  0  0
 16 18  1  0  0  0
 17 19  1  0  0  0
M  END
> <minimizedAffinity>
-8.98695

$$$$
