CHEMBL3694707


 48 52  0  0  0  0  0  0  0  0999 V2000
  -26.0326   -1.3485  -10.8661 C   0  0  0  0  0  0  0  0  0  0  0  0
  -25.0440   -0.2996  -10.6270 C   0  0  0  0  0  0  0  0  0  0  0  0
  -24.3288    0.1854  -11.6507 C   0  0  0  0  0  0  0  0  0  0  0  0
  -24.5021   -0.3471  -12.9282 N   0  0  0  0  0  0  0  0  0  0  0  0
  -23.8316   -0.0834  -14.1148 C   0  0  0  0  0  0  0  0  0  0  0  0
  -24.5169   -0.8419  -15.0544 C   0  0  0  0  0  0  0  0  0  0  0  0
  -25.5099   -1.5979  -14.4907 N   0  0  0  0  0  0  0  0  0  0  0  0
  -25.4661   -1.3164  -13.2077 C   0  0  0  0  0  0  0  0  0  0  0  0
  -26.2403   -1.8174  -12.1174 C   0  0  0  0  0  0  0  0  0  0  0  0
  -28.2506   -2.7740   -7.5432 C   0  0  0  0  0  0  0  0  0  0  0  0
  -27.9477   -1.4165   -7.6595 C   0  0  0  0  0  0  0  0  0  0  0  0
  -27.2575   -0.9370   -8.7669 C   0  0  0  0  0  0  0  0  0  0  0  0
  -26.8753   -1.8232   -9.7636 C   0  0  0  0  0  0  0  0  0  0  0  0
  -27.1982   -3.1610   -9.5824 C   0  0  0  0  0  0  0  0  0  0  0  0
  -27.8593   -3.6454   -8.4997 N   0  0  0  0  0  0  0  0  0  0  0  0
  -29.5874   -3.3107   -3.6500 C   0  0  0  0  0  0  0  0  0  0  0  0
  -30.0923   -2.2020   -4.5920 C   0  0  0  0  0  0  0  0  0  0  0  0
  -30.2105   -2.7014   -6.0290 C   0  0  0  0  0  0  0  0  0  0  0  0
  -28.9254   -3.2454   -6.4399 N   0  0  0  0  0  0  0  0  0  0  0  0
  -28.3736   -4.3449   -5.6606 C   0  0  0  0  0  0  0  0  0  0  0  0
  -28.2619   -3.8861   -4.1979 C   0  0  0  0  0  0  0  0  0  0  0  0
  -30.6210   -4.4359   -3.4514 C   0  0  0  0  0  0  0  0  0  0  0  0
  -30.2290   -6.7830   -4.0069 C   0  0  0  0  0  0  0  0  0  0  0  0
  -30.8520   -6.7021   -5.0554 O   0  0  0  0  0  0  0  0  0  0  0  0
  -30.0210   -5.7219   -3.1702 N   0  0  0  0  0  0  0  0  0  0  0  0
  -29.5145   -5.9037   -2.3173 H   0  0  0  0  0  0  0  0  0  0  0  0
  -29.6632   -7.9111   -3.5013 O   0  0  0  0  0  0  0  0  0  0  0  0
  -27.4901   -7.6764   -4.6292 C   0  0  0  0  0  0  0  0  0  0  0  0
  -28.6682   -8.6058   -4.3051 C   0  0  0  0  0  0  0  0  0  0  0  0
  -29.2953   -9.2190   -5.5662 C   0  0  0  0  0  0  0  0  0  0  0  0
  -28.1282   -9.7589   -3.4404 C   0  0  0  0  0  0  0  0  0  0  0  0
  -22.6613    0.7866  -14.2951 C   0  0  0  0  0  0  0  0  0  0  0  0
  -22.8140    2.1726  -14.1704 C   0  0  0  0  0  0  0  0  0  0  0  0
  -21.7459    3.0274  -14.4264 C   0  0  0  0  0  0  0  0  0  0  0  0
  -20.4981    2.5078  -14.7668 C   0  0  0  0  0  0  0  0  0  0  0  0
  -20.2936    1.1308  -14.8486 C   0  0  0  0  0  0  0  0  0  0  0  0
  -21.3940    0.2818  -14.6534 C   0  0  0  0  0  0  0  0  0  0  0  0
  -19.0329    0.5481  -15.1226 N   0  0  0  0  0  0  0  0  0  0  0  0
  -17.8146    1.0211  -14.6888 C   0  0  0  0  0  0  0  0  0  0  0  0
  -17.6046    2.0102  -13.9973 O   0  0  0  0  0  0  0  0  0  0  0  0
  -16.7572    0.2790  -15.1856 N   0  0  0  0  0  0  0  0  0  0  0  0
  -19.0265   -0.2961  -15.6757 H   0  0  0  0  0  0  0  0  0  0  0  0
  -16.9091   -0.7140  -15.3020 H   0  0  0  0  0  0  0  0  0  0  0  0
  -15.3983    0.7007  -14.8080 C   0  0  0  0  0  0  0  0  0  0  0  0
  -14.7472   -0.0625  -13.6437 C   0  0  0  0  0  0  0  0  0  0  0  0
  -13.5822    0.5017  -13.2510 F   0  0  0  0  0  0  0  0  0  0  0  0
  -15.5728   -0.0434  -12.5658 F   0  0  0  0  0  0  0  0  0  0  0  0
  -14.5119   -1.3572  -13.9409 F   0  0  0  0  0  0  0  0  0  0  0  0
 28 29  1  0  0  0
 29 30  1  0  0  0
 29 31  1  0  0  0
 29 27  1  0  0  0
 27 23  1  0  0  0
 23 24  2  0  0  0
 23 25  1  0  0  0
 25 22  1  0  0  0
 25 26  1  0  0  0
 22 16  1  0  0  0
 16 17  1  0  0  0
 16 21  1  0  0  0
 17 18  1  0  0  0
 18 19  1  0  0  0
 19 10  1  0  0  0
 19 20  1  0  0  0
 10 11  1  0  0  0
 10 15  2  0  0  0
 11 12  2  0  0  0
 12 13  1  0  0  0
 13  1  1  0  0  0
 13 14  2  0  0  0
  1  2  1  0  0  0
  1  9  2  0  0  0
  2  3  2  0  0  0
  3  4  1  0  0  0
  4  5  1  0  0  0
  4  8  1  0  0  0
  5 32  1  0  0  0
  5  6  2  0  0  0
 32 33  1  0  0  0
 32 37  2  0  0  0
 33 34  2  0  0  0
 34 35  1  0  0  0
 35 36  2  0  0  0
 36 38  1  0  0  0
 36 37  1  0  0  0
 38 39  1  0  0  0
 38 42  1  0  0  0
 39 40  2  0  0  0
 39 41  1  0  0  0
 41 44  1  0  0  0
 41 43  1  0  0  0
 44 45  1  0  0  0
 45 46  1  0  0  0
 45 47  1  0  0  0
 45 48  1  0  0  0
  6  7  1  0  0  0
  7  8  2  0  0  0
  8  9  1  0  0  0
 14 15  1  0  0  0
 20 21  1  0  0  0
M  END
> <minimizedAffinity>
-9.69889

$$$$
