CHEMBL1965845


 30 33  0  0  0  0  0  0  0  0999 V2000
  -17.3210    1.3138  -14.7208 N   0  0  0  0  0  0  0  0  0  0  0  0
  -16.1376    0.7988  -15.1878 C   0  0  0  0  0  0  0  0  0  0  0  0
  -15.7680    0.9834  -16.3447 O   0  0  0  0  0  0  0  0  0  0  0  0
  -15.4114    0.0457  -14.2806 N   0  0  0  0  0  0  0  0  0  0  0  0
  -14.0835   -0.4154  -14.6907 C   0  0  0  0  0  0  0  0  0  0  0  0
  -13.7018   -1.7129  -14.0358 C   0  0  0  0  0  0  0  0  0  0  0  0
  -14.4365   -2.3657  -13.1147 C   0  0  0  0  0  0  0  0  0  0  0  0
  -15.7255   -1.7574  -12.6272 C   0  0  0  0  0  0  0  0  0  0  0  0
  -15.7840   -0.2517  -12.8975 C   0  0  0  0  0  0  0  0  0  0  0  0
  -17.3532    1.5439  -13.7424 H   0  0  0  0  0  0  0  0  0  0  0  0
  -14.0645   -3.6244  -12.5312 C   0  0  0  0  0  0  0  0  0  0  0  0
  -13.1362   -3.7600  -11.5125 C   0  0  0  0  0  0  0  0  0  0  0  0
  -13.0048   -5.0937  -11.2243 N   0  0  0  0  0  0  0  0  0  0  0  0
  -13.8238   -5.8255  -12.0349 C   0  0  0  0  0  0  0  0  0  0  0  0
  -13.9060   -7.1689  -12.0030 N   0  0  0  0  0  0  0  0  0  0  0  0
  -14.7671   -7.6658  -12.9179 C   0  0  0  0  0  0  0  0  0  0  0  0
  -15.5160   -6.9165  -13.8128 C   0  0  0  0  0  0  0  0  0  0  0  0
  -15.3937   -5.5266  -13.7981 C   0  0  0  0  0  0  0  0  0  0  0  0
  -14.5099   -4.9452  -12.8687 C   0  0  0  0  0  0  0  0  0  0  0  0
  -12.3906   -5.5039  -10.5372 H   0  0  0  0  0  0  0  0  0  0  0  0
  -18.1809    2.1298  -15.5676 C   0  0  0  0  0  0  0  0  0  0  0  0
  -17.6768    3.5760  -15.6443 C   0  0  0  0  0  0  0  0  0  0  0  0
  -21.5986    0.8559  -14.3226 C   0  0  0  0  0  0  0  0  0  0  0  0
  -22.2363    2.0603  -14.0260 C   0  0  0  0  0  0  0  0  0  0  0  0
  -21.5899    3.2732  -14.2777 C   0  0  0  0  0  0  0  0  0  0  0  0
  -20.2993    3.2872  -14.8076 C   0  0  0  0  0  0  0  0  0  0  0  0
  -19.6250    2.0895  -15.0860 C   0  0  0  0  0  0  0  0  0  0  0  0
  -20.3036    0.8778  -14.8555 C   0  0  0  0  0  0  0  0  0  0  0  0
  -23.5408   -0.4769  -14.0103 C   0  0  0  0  0  0  0  0  0  0  0  0
  -22.1240   -0.3926  -14.1248 O   0  0  0  0  0  0  0  0  0  0  0  0
 29 30  1  0  0  0
 30 23  1  0  0  0
 23 24  1  0  0  0
 23 28  2  0  0  0
 24 25  2  0  0  0
 25 26  1  0  0  0
 26 27  2  0  0  0
 27 21  1  0  0  0
 27 28  1  0  0  0
 21 22  1  0  0  0
 21  1  1  0  0  0
  1  2  1  0  0  0
  1 10  1  0  0  0
  2  3  2  0  0  0
  2  4  1  0  0  0
  4  5  1  0  0  0
  4  9  1  0  0  0
  5  6  1  0  0  0
  6  7  2  0  0  0
  7 11  1  0  0  0
  7  8  1  0  0  0
 11 12  2  0  0  0
 11 19  1  0  0  0
 12 13  1  0  0  0
 13 14  1  0  0  0
 13 20  1  0  0  0
 14 15  1  0  0  0
 14 19  2  0  0  0
 15 16  2  0  0  0
 16 17  1  0  0  0
 17 18  2  0  0  0
 18 19  1  0  0  0
  8  9  1  0  0  0
M  END
> <minimizedAffinity>
-9.34061

$$$$
