CHEMBL4796483


 39 43  0  0  0  0  0  0  0  0999 V2000
  -29.2820   -8.6883   -4.8279 C   0  0  0  0  0  0  0  0  0  0  0  0
  -29.6603   -9.2685   -5.9775 N   0  0  0  0  0  0  0  0  0  0  0  0
  -29.0072  -10.3806   -6.3545 C   0  0  0  0  0  0  0  0  0  0  0  0
  -28.0507  -10.9630   -5.5479 C   0  0  0  0  0  0  0  0  0  0  0  0
  -27.7307  -10.2957   -4.3876 C   0  0  0  0  0  0  0  0  0  0  0  0
  -28.2922   -9.1243   -4.0476 N   0  0  0  0  0  0  0  0  0  0  0  0
  -29.8228   -5.1668   -4.4371 N   0  0  0  0  0  0  0  0  0  0  0  0
  -29.0841   -6.3255   -4.6845 C   0  0  0  0  0  0  0  0  0  0  0  0
  -27.9545   -6.3661   -5.1565 O   0  0  0  0  0  0  0  0  0  0  0  0
  -29.8297   -7.4607   -4.4369 N   0  0  0  0  0  0  0  0  0  0  0  0
  -30.7289   -5.2936   -4.0143 H   0  0  0  0  0  0  0  0  0  0  0  0
  -30.7601   -7.3860   -4.8108 H   0  0  0  0  0  0  0  0  0  0  0  0
  -29.9880   -4.1155   -7.2382 C   0  0  0  0  0  0  0  0  0  0  0  0
  -29.4715   -3.3279   -6.0561 C   0  0  0  0  0  0  0  0  0  0  0  0
  -29.0113   -2.0223   -6.3193 C   0  0  0  0  0  0  0  0  0  0  0  0
  -28.5126   -1.2172   -5.2965 C   0  0  0  0  0  0  0  0  0  0  0  0
  -27.9269    0.3641   -5.6425 Cl  0  0  0  0  0  0  0  0  0  0  0  0
  -28.4873   -1.6867   -3.9975 C   0  0  0  0  0  0  0  0  0  0  0  0
  -28.9356   -2.9714   -3.7164 C   0  0  0  0  0  0  0  0  0  0  0  0
  -29.4130   -3.8200   -4.7346 C   0  0  0  0  0  0  0  0  0  0  0  0
  -29.2424  -10.9993   -7.6156 N   0  0  0  0  0  0  0  0  0  0  0  0
  -29.2563  -12.0060   -7.4964 H   0  0  0  0  0  0  0  0  0  0  0  0
  -28.6963  -10.6319   -8.8637 C   0  0  0  0  0  0  0  0  0  0  0  0
  -27.3426  -10.2652   -8.9596 C   0  0  0  0  0  0  0  0  0  0  0  0
  -26.7769   -9.9246  -10.1908 C   0  0  0  0  0  0  0  0  0  0  0  0
  -27.5494   -9.9710  -11.3489 C   0  0  0  0  0  0  0  0  0  0  0  0
  -28.8837  -10.3630  -11.2738 C   0  0  0  0  0  0  0  0  0  0  0  0
  -29.4502  -10.6922  -10.0399 C   0  0  0  0  0  0  0  0  0  0  0  0
  -26.3264  -10.8145   -3.4417 S   0  0  0  0  0  0  0  0  0  0  0  0
  -24.8723  -10.4375   -4.3346 C   0  0  0  0  0  0  0  0  0  0  0  0
  -24.9318   -9.6286   -5.4530 C   0  0  0  0  0  0  0  0  0  0  0  0
  -23.6597   -9.5087   -5.9288 N   0  0  0  0  0  0  0  0  0  0  0  0
  -22.9324  -10.5805   -5.4757 C   0  0  0  0  0  0  0  0  0  0  0  0
  -21.7927  -11.1936   -6.0023 C   0  0  0  0  0  0  0  0  0  0  0  0
  -21.2006  -12.1977   -5.2379 C   0  0  0  0  0  0  0  0  0  0  0  0
  -21.6566  -12.4648   -3.9485 C   0  0  0  0  0  0  0  0  0  0  0  0
  -22.8194  -11.8552   -3.4486 C   0  0  0  0  0  0  0  0  0  0  0  0
  -23.5509  -10.9854   -4.2822 C   0  0  0  0  0  0  0  0  0  0  0  0
  -23.3307   -8.8189   -6.5906 H   0  0  0  0  0  0  0  0  0  0  0  0
 13 14  1  0  0  0
 14 15  1  0  0  0
 14 20  2  0  0  0
 15 16  2  0  0  0
 16 17  1  0  0  0
 16 18  1  0  0  0
 18 19  2  0  0  0
 19 20  1  0  0  0
 20  7  1  0  0  0
  7  8  1  0  0  0
  7 11  1  0  0  0
  8  9  2  0  0  0
  8 10  1  0  0  0
 10  1  1  0  0  0
 10 12  1  0  0  0
  1  2  1  0  0  0
  1  6  2  0  0  0
  2  3  2  0  0  0
  3 21  1  0  0  0
  3  4  1  0  0  0
 21 23  1  0  0  0
 21 22  1  0  0  0
 23 24  1  0  0  0
 23 28  2  0  0  0
 24 25  2  0  0  0
 25 26  1  0  0  0
 26 27  2  0  0  0
 27 28  1  0  0  0
  4  5  2  0  0  0
  5 29  1  0  0  0
  5  6  1  0  0  0
 29 30  1  0  0  0
 30 31  2  0  0  0
 30 38  1  0  0  0
 31 32  1  0  0  0
 32 33  1  0  0  0
 32 39  1  0  0  0
 33 34  1  0  0  0
 33 38  2  0  0  0
 34 35  2  0  0  0
 35 36  1  0  0  0
 36 37  2  0  0  0
 37 38  1  0  0  0
M  END
> <minimizedAffinity>
-9.78654

$$$$
