CHEMBL4282864


 29 32  0  0  0  0  0  0  0  0999 V2000
  -26.1730  -10.7196   -3.2872 C   0  0  0  0  0  0  0  0  0  0  0  0
  -25.7920   -9.4704   -3.5846 N   0  0  0  0  0  0  0  0  0  0  0  0
  -26.6770   -8.7253   -4.2746 C   0  0  0  0  0  0  0  0  0  0  0  0
  -27.9200   -9.1739   -4.6728 C   0  0  0  0  0  0  0  0  0  0  0  0
  -28.1995  -10.4935   -4.3472 C   0  0  0  0  0  0  0  0  0  0  0  0
  -27.3558  -11.2543   -3.6224 N   0  0  0  0  0  0  0  0  0  0  0  0
  -29.3276  -11.1691   -4.8375 N   0  0  0  0  0  0  0  0  0  0  0  0
  -29.6090  -11.0960   -6.1572 C   0  0  0  0  0  0  0  0  0  0  0  0
  -29.7922  -12.1554   -6.9479 N   0  0  0  0  0  0  0  0  0  0  0  0
  -29.8673  -11.6221   -8.1823 N   0  0  0  0  0  0  0  0  0  0  0  0
  -29.7667  -10.2576   -8.2108 C   0  0  0  0  0  0  0  0  0  0  0  0
  -29.8188   -9.4668   -9.4568 C   0  0  0  0  0  0  0  0  0  0  0  0
  -29.6146   -9.8928   -6.8989 C   0  0  0  0  0  0  0  0  0  0  0  0
  -29.5840   -8.5760   -6.4442 N   0  0  0  0  0  0  0  0  0  0  0  0
  -28.8652   -8.2770   -5.4001 C   0  0  0  0  0  0  0  0  0  0  0  0
  -29.2841  -12.1214   -4.4887 H   0  0  0  0  0  0  0  0  0  0  0  0
  -29.9778  -12.2552   -8.9669 H   0  0  0  0  0  0  0  0  0  0  0  0
  -29.0353   -6.8690   -4.8869 C   0  0  0  0  0  0  0  0  0  0  0  0
  -27.9481   -5.9929   -4.7829 C   0  0  0  0  0  0  0  0  0  0  0  0
  -28.1188   -4.7247   -4.2216 C   0  0  0  0  0  0  0  0  0  0  0  0
  -29.3766   -4.3065   -3.7631 C   0  0  0  0  0  0  0  0  0  0  0  0
  -30.4645   -5.1850   -3.8754 C   0  0  0  0  0  0  0  0  0  0  0  0
  -30.2927   -6.4595   -4.4223 C   0  0  0  0  0  0  0  0  0  0  0  0
  -29.5654   -2.9327   -3.1655 C   0  0  0  0  0  0  0  0  0  0  0  0
  -30.8113   -2.7346   -2.6503 F   0  0  0  0  0  0  0  0  0  0  0  0
  -28.6984   -2.6903   -2.1448 F   0  0  0  0  0  0  0  0  0  0  0  0
  -29.3725   -1.9328   -4.0690 F   0  0  0  0  0  0  0  0  0  0  0  0
  -23.4635  -10.9714   -2.9675 C   0  0  0  0  0  0  0  0  0  0  0  0
  -25.0108  -11.7318   -2.4094 S   0  0  0  0  0  0  0  0  0  0  0  0
 28 29  1  0  0  0
 29  1  1  0  0  0
  1  2  1  0  0  0
  1  6  2  0  0  0
  2  3  2  0  0  0
  3  4  1  0  0  0
  4  5  2  0  0  0
  4 15  1  0  0  0
  5  6  1  0  0  0
  5  7  1  0  0  0
  7  8  1  0  0  0
  7 16  1  0  0  0
  8  9  2  0  0  0
  8 13  1  0  0  0
  9 10  1  0  0  0
 10 11  1  0  0  0
 10 17  1  0  0  0
 11 12  1  0  0  0
 11 13  2  0  0  0
 13 14  1  0  0  0
 14 15  2  0  0  0
 15 18  1  0  0  0
 18 19  1  0  0  0
 18 23  2  0  0  0
 19 20  2  0  0  0
 20 21  1  0  0  0
 21 24  1  0  0  0
 21 22  2  0  0  0
 24 25  1  0  0  0
 24 26  1  0  0  0
 24 27  1  0  0  0
 22 23  1  0  0  0
M  END
> <minimizedAffinity>
-7.68891

$$$$
