CHEMBL2007266


 42 46  0  0  0  0  0  0  0  0999 V2000
  -15.0703    3.0161  -16.7839 C   0  0  0  0  0  0  0  0  0  0  0  0
  -15.5056    4.3556  -16.8140 C   0  0  0  0  0  0  0  0  0  0  0  0
  -15.1965    5.2136  -17.8761 C   0  0  0  0  0  0  0  0  0  0  0  0
  -14.3690    4.8040  -18.9279 C   0  0  0  0  0  0  0  0  0  0  0  0
  -13.9445    3.4710  -18.8806 C   0  0  0  0  0  0  0  0  0  0  0  0
  -13.0520    2.7730  -19.6484 N   0  0  0  0  0  0  0  0  0  0  0  0
  -13.0933    1.4419  -19.4679 N   0  0  0  0  0  0  0  0  0  0  0  0
  -13.9131    1.3011  -18.4338 C   0  0  0  0  0  0  0  0  0  0  0  0
  -14.2828    0.1065  -17.9554 N   0  0  0  0  0  0  0  0  0  0  0  0
  -14.3496    2.5567  -17.9134 C   0  0  0  0  0  0  0  0  0  0  0  0
  -12.3769    3.1515  -20.2999 H   0  0  0  0  0  0  0  0  0  0  0  0
  -13.9397   -0.7476  -18.3685 H   0  0  0  0  0  0  0  0  0  0  0  0
  -14.9338   -0.0106  -17.1915 H   0  0  0  0  0  0  0  0  0  0  0  0
  -15.7383    0.3717  -13.4326 C   0  0  0  0  0  0  0  0  0  0  0  0
  -16.7530    0.6452  -14.3556 C   0  0  0  0  0  0  0  0  0  0  0  0
  -16.5454    1.5151  -15.4333 C   0  0  0  0  0  0  0  0  0  0  0  0
  -15.3089    2.1330  -15.6261 C   0  0  0  0  0  0  0  0  0  0  0  0
  -14.3115    1.8914  -14.6554 C   0  0  0  0  0  0  0  0  0  0  0  0
  -14.5121    1.0156  -13.5762 C   0  0  0  0  0  0  0  0  0  0  0  0
  -15.5735   -2.6634  -11.4153 N   0  0  0  0  0  0  0  0  0  0  0  0
  -15.3381   -1.8314  -12.5140 C   0  0  0  0  0  0  0  0  0  0  0  0
  -14.6387   -2.1016  -13.4587 O   0  0  0  0  0  0  0  0  0  0  0  0
  -15.9464   -0.5710  -12.3863 N   0  0  0  0  0  0  0  0  0  0  0  0
  -16.1140   -2.2917  -10.6531 H   0  0  0  0  0  0  0  0  0  0  0  0
  -15.9753   -0.2016  -11.4485 H   0  0  0  0  0  0  0  0  0  0  0  0
  -15.1965   -7.3315  -13.1590 C   0  0  0  0  0  0  0  0  0  0  0  0
  -14.8733   -6.2895  -12.1265 C   0  0  0  0  0  0  0  0  0  0  0  0
  -14.0714   -6.6530  -11.0389 C   0  0  0  0  0  0  0  0  0  0  0  0
  -13.7375   -5.7065  -10.0825 C   0  0  0  0  0  0  0  0  0  0  0  0
  -14.2039   -4.3961  -10.1996 C   0  0  0  0  0  0  0  0  0  0  0  0
  -13.7227   -3.5433   -9.2891 F   0  0  0  0  0  0  0  0  0  0  0  0
  -15.0407   -3.9866  -11.2563 C   0  0  0  0  0  0  0  0  0  0  0  0
  -15.3519   -4.9584  -12.2313 C   0  0  0  0  0  0  0  0  0  0  0  0
  -14.0090    5.5707  -20.0014 O   0  0  0  0  0  0  0  0  0  0  0  0
  -13.3657    6.8067  -19.6818 C   0  0  0  0  0  0  0  0  0  0  0  0
  -11.9079    6.5473  -19.3151 C   0  0  0  0  0  0  0  0  0  0  0  0
  -11.6070    7.0832  -17.9179 C   0  0  0  0  0  0  0  0  0  0  0  0
  -11.7299    6.0563  -16.8991 N   0  0  0  0  0  0  0  0  0  0  0  0
  -12.3879    6.2007  -15.7070 C   0  0  0  0  0  0  0  0  0  0  0  0
  -12.2682    5.0162  -15.0133 C   0  0  0  0  0  0  0  0  0  0  0  0
  -11.5245    4.1251  -15.8233 C   0  0  0  0  0  0  0  0  0  0  0  0
  -11.2120    4.7913  -16.9881 C   0  0  0  0  0  0  0  0  0  0  0  0
 26 27  1  0  0  0
 27 28  1  0  0  0
 27 33  2  0  0  0
 28 29  2  0  0  0
 29 30  1  0  0  0
 30 31  1  0  0  0
 30 32  2  0  0  0
 32 20  1  0  0  0
 32 33  1  0  0  0
 20 21  1  0  0  0
 20 24  1  0  0  0
 21 22  2  0  0  0
 21 23  1  0  0  0
 23 14  1  0  0  0
 23 25  1  0  0  0
 14 15  1  0  0  0
 14 19  2  0  0  0
 15 16  2  0  0  0
 16 17  1  0  0  0
 17  1  1  0  0  0
 17 18  2  0  0  0
  1  2  1  0  0  0
  1 10  2  0  0  0
  2  3  2  0  0  0
  3  4  1  0  0  0
  4 34  1  0  0  0
  4  5  2  0  0  0
 34 35  1  0  0  0
 35 36  1  0  0  0
 36 37  1  0  0  0
 37 38  1  0  0  0
 38 39  1  0  0  0
 38 42  1  0  0  0
 39 40  2  0  0  0
 40 41  1  0  0  0
 41 42  2  0  0  0
  5  6  1  0  0  0
  5 10  1  0  0  0
  6  7  1  0  0  0
  6 11  1  0  0  0
  7  8  2  0  0  0
  8  9  1  0  0  0
  8 10  1  0  0  0
  9 12  1  0  0  0
  9 13  1  0  0  0
 18 19  1  0  0  0
M  END
> <minimizedAffinity>
-7.37081

$$$$
