CHEMBL512840


 31 33  0  0  0  0  0  0  0  0999 V2000
  -12.6719   -0.1120  -15.7376 C   0  0  0  0  0  0  0  0  0  0  0  0
  -14.0692    0.4137  -15.5518 C   0  0  0  0  0  0  0  0  0  0  0  0
  -14.5056    1.4297  -16.4209 C   0  0  0  0  0  0  0  0  0  0  0  0
  -15.8047    1.9380  -16.3470 C   0  0  0  0  0  0  0  0  0  0  0  0
  -16.6934    1.4573  -15.3839 C   0  0  0  0  0  0  0  0  0  0  0  0
  -16.2809    0.4477  -14.5139 C   0  0  0  0  0  0  0  0  0  0  0  0
  -14.9726   -0.0760  -14.5847 C   0  0  0  0  0  0  0  0  0  0  0  0
  -18.0801    2.0051  -15.3586 C   0  0  0  0  0  0  0  0  0  0  0  0
  -18.2970    3.0370  -15.9817 O   0  0  0  0  0  0  0  0  0  0  0  0
  -18.9783    1.3178  -14.5578 N   0  0  0  0  0  0  0  0  0  0  0  0
  -18.6054    0.5994  -13.9509 H   0  0  0  0  0  0  0  0  0  0  0  0
  -20.3369    1.6521  -14.3602 C   0  0  0  0  0  0  0  0  0  0  0  0
  -20.8002    2.9663  -14.2856 C   0  0  0  0  0  0  0  0  0  0  0  0
  -22.1513    3.2340  -14.0470 C   0  0  0  0  0  0  0  0  0  0  0  0
  -23.0513    2.1882  -13.8707 C   0  0  0  0  0  0  0  0  0  0  0  0
  -22.6138    0.8600  -13.9526 C   0  0  0  0  0  0  0  0  0  0  0  0
  -21.2556    0.6032  -14.2241 C   0  0  0  0  0  0  0  0  0  0  0  0
  -23.5688   -0.2856  -13.7294 C   0  0  0  0  0  0  0  0  0  0  0  0
  -24.5030   -0.0419  -12.7682 F   0  0  0  0  0  0  0  0  0  0  0  0
  -24.2641   -0.6123  -14.8534 F   0  0  0  0  0  0  0  0  0  0  0  0
  -22.9287   -1.4253  -13.3439 F   0  0  0  0  0  0  0  0  0  0  0  0
  -14.6983   -1.2044  -13.6484 C   0  0  0  0  0  0  0  0  0  0  0  0
  -13.7394   -1.0919  -12.8921 O   0  0  0  0  0  0  0  0  0  0  0  0
  -15.4866   -2.3318  -13.7716 N   0  0  0  0  0  0  0  0  0  0  0  0
  -16.1502   -2.3640  -14.5341 H   0  0  0  0  0  0  0  0  0  0  0  0
  -15.3286   -3.5205  -13.0186 C   0  0  0  0  0  0  0  0  0  0  0  0
  -14.4526   -4.5541  -13.3013 C   0  0  0  0  0  0  0  0  0  0  0  0
  -14.3663   -5.6952  -12.5763 N   0  0  0  0  0  0  0  0  0  0  0  0
  -15.1934   -5.7888  -11.5271 C   0  0  0  0  0  0  0  0  0  0  0  0
  -16.0669   -4.8502  -11.1325 N   0  0  0  0  0  0  0  0  0  0  0  0
  -16.1049   -3.7334  -11.8923 C   0  0  0  0  0  0  0  0  0  0  0  0
  1  2  1  0  0  0
  2  3  1  0  0  0
  2  7  2  0  0  0
  3  4  2  0  0  0
  4  5  1  0  0  0
  5  8  1  0  0  0
  5  6  2  0  0  0
  8  9  2  0  0  0
  8 10  1  0  0  0
 10 12  1  0  0  0
 10 11  1  0  0  0
 12 13  1  0  0  0
 12 17  2  0  0  0
 13 14  2  0  0  0
 14 15  1  0  0  0
 15 16  2  0  0  0
 16 18  1  0  0  0
 16 17  1  0  0  0
 18 19  1  0  0  0
 18 20  1  0  0  0
 18 21  1  0  0  0
  6  7  1  0  0  0
  7 22  1  0  0  0
 22 23  2  0  0  0
 22 24  1  0  0  0
 24 26  1  0  0  0
 24 25  1  0  0  0
 26 27  1  0  0  0
 26 31  2  0  0  0
 27 28  2  0  0  0
 28 29  1  0  0  0
 29 30  2  0  0  0
 30 31  1  0  0  0
M  END
> <minimizedAffinity>
-9.81291

$$$$
