CHEMBL307476


 26 29  0  0  0  0  0  0  0  0999 V2000
  -30.0824   -6.6101   -4.3088 C   0  0  0  0  0  0  0  0  0  0  0  0
  -29.6469   -7.1672   -3.1483 N   0  0  0  0  0  0  0  0  0  0  0  0
  -29.0252   -8.3891   -3.1098 N   0  0  0  0  0  0  0  0  0  0  0  0
  -28.9091   -9.1274   -4.2305 C   0  0  0  0  0  0  0  0  0  0  0  0
  -29.4130   -8.6705   -5.4580 C   0  0  0  0  0  0  0  0  0  0  0  0
  -29.4310   -9.4676   -6.6321 C   0  0  0  0  0  0  0  0  0  0  0  0
  -29.8333   -8.9553   -7.8629 C   0  0  0  0  0  0  0  0  0  0  0  0
  -30.1234   -7.6095   -7.9692 C   0  0  0  0  0  0  0  0  0  0  0  0
  -30.1157   -6.8164   -6.8231 C   0  0  0  0  0  0  0  0  0  0  0  0
  -29.8964   -7.3376   -5.5193 C   0  0  0  0  0  0  0  0  0  0  0  0
  -31.8995   -5.2781   -3.3010 C   0  0  0  0  0  0  0  0  0  0  0  0
  -30.7491   -5.3486   -4.2201 N   0  0  0  0  0  0  0  0  0  0  0  0
  -30.0527   -4.1114   -4.3745 C   0  0  0  0  0  0  0  0  0  0  0  0
  -29.1139   -3.6225   -3.4444 C   0  0  0  0  0  0  0  0  0  0  0  0
  -28.5116   -2.3687   -3.5994 C   0  0  0  0  0  0  0  0  0  0  0  0
  -28.8161   -1.5892   -4.7083 C   0  0  0  0  0  0  0  0  0  0  0  0
  -28.0945   -0.0390   -4.8879 Cl  0  0  0  0  0  0  0  0  0  0  0  0
  -29.7033   -2.0615   -5.6691 C   0  0  0  0  0  0  0  0  0  0  0  0
  -30.3125   -3.3115   -5.5017 C   0  0  0  0  0  0  0  0  0  0  0  0
  -28.0356  -10.3591   -4.0902 C   0  0  0  0  0  0  0  0  0  0  0  0
  -26.6007  -10.1211   -4.5280 C   0  0  0  0  0  0  0  0  0  0  0  0
  -26.1652  -10.5292   -5.7954 C   0  0  0  0  0  0  0  0  0  0  0  0
  -24.8354  -10.3407   -6.1433 C   0  0  0  0  0  0  0  0  0  0  0  0
  -23.9211   -9.7691   -5.3325 N   0  0  0  0  0  0  0  0  0  0  0  0
  -24.3608   -9.3645   -4.1227 C   0  0  0  0  0  0  0  0  0  0  0  0
  -25.6696   -9.5115   -3.6820 C   0  0  0  0  0  0  0  0  0  0  0  0
 11 12  1  0  0  0
 12 13  1  0  0  0
 12  1  1  0  0  0
 13 14  1  0  0  0
 13 19  2  0  0  0
 14 15  2  0  0  0
 15 16  1  0  0  0
 16 17  1  0  0  0
 16 18  2  0  0  0
 18 19  1  0  0  0
  1  2  1  0  0  0
  1 10  2  0  0  0
  2  3  2  0  0  0
  3  4  1  0  0  0
  4 20  1  0  0  0
  4  5  2  0  0  0
 20 21  1  0  0  0
 21 22  1  0  0  0
 21 26  2  0  0  0
 22 23  2  0  0  0
 23 24  1  0  0  0
 24 25  2  0  0  0
 25 26  1  0  0  0
  5  6  1  0  0  0
  5 10  1  0  0  0
  6  7  2  0  0  0
  7  8  1  0  0  0
  8  9  2  0  0  0
  9 10  1  0  0  0
M  END
> <minimizedAffinity>
-8.31963

$$$$
