CHEMBL198946


 33 36  0  0  0  0  0  0  0  0999 V2000
  -30.0075   -9.0992   -6.7171 C   0  0  0  0  0  0  0  0  0  0  0  0
  -31.1868   -9.2934   -7.3416 N   0  0  0  0  0  0  0  0  0  0  0  0
  -32.1318   -8.3750   -7.1430 C   0  0  0  0  0  0  0  0  0  0  0  0
  -32.0275   -7.2981   -6.3634 N   0  0  0  0  0  0  0  0  0  0  0  0
  -30.8569   -7.1106   -5.7508 C   0  0  0  0  0  0  0  0  0  0  0  0
  -30.7337   -5.9768   -4.9673 C   0  0  0  0  0  0  0  0  0  0  0  0
  -29.5356   -5.6395   -4.3449 C   0  0  0  0  0  0  0  0  0  0  0  0
  -28.4471   -6.4983   -4.4459 C   0  0  0  0  0  0  0  0  0  0  0  0
  -28.5575   -7.6829   -5.1724 C   0  0  0  0  0  0  0  0  0  0  0  0
  -29.7661   -7.9860   -5.8755 C   0  0  0  0  0  0  0  0  0  0  0  0
  -28.9740  -10.0433   -6.9360 N   0  0  0  0  0  0  0  0  0  0  0  0
  -29.2547  -10.9286   -6.5254 H   0  0  0  0  0  0  0  0  0  0  0  0
  -28.5253  -10.2686  -10.4655 C   0  0  0  0  0  0  0  0  0  0  0  0
  -27.2453  -10.7665  -10.6432 C   0  0  0  0  0  0  0  0  0  0  0  0
  -26.5045  -11.0820   -9.5131 C   0  0  0  0  0  0  0  0  0  0  0  0
  -27.0544  -10.8644   -8.2502 C   0  0  0  0  0  0  0  0  0  0  0  0
  -26.1528  -11.4183   -6.8813 Cl  0  0  0  0  0  0  0  0  0  0  0  0
  -28.3408  -10.3101   -8.1562 C   0  0  0  0  0  0  0  0  0  0  0  0
  -29.0886  -10.0454   -9.2581 N   0  0  0  0  0  0  0  0  0  0  0  0
  -28.4041   -9.9493  -12.7803 C   0  0  0  0  0  0  0  0  0  0  0  0
  -29.2319   -9.9954  -11.6217 O   0  0  0  0  0  0  0  0  0  0  0  0
  -29.5503   -4.4533   -3.6612 O   0  0  0  0  0  0  0  0  0  0  0  0
  -30.2636   -3.3912   -4.3016 C   0  0  0  0  0  0  0  0  0  0  0  0
  -29.3992   -2.1241   -4.2879 C   0  0  0  0  0  0  0  0  0  0  0  0
  -28.1056   -2.3050   -4.9734 N   0  0  0  0  0  0  0  0  0  0  0  0
  -27.2888   -1.0835   -5.0213 C   0  0  0  0  0  0  0  0  0  0  0  0
  -27.7690   -0.3464   -6.2523 C   0  0  0  0  0  0  0  0  0  0  0  0
  -27.9953   -1.4719   -7.2411 C   0  0  0  0  0  0  0  0  0  0  0  0
  -28.3113   -2.6939   -6.3824 C   0  0  0  0  0  0  0  0  0  0  0  0
  -27.5353   -8.5956   -5.2675 O   0  0  0  0  0  0  0  0  0  0  0  0
  -26.8777   -9.0616   -4.0825 C   0  0  0  0  0  0  0  0  0  0  0  0
  -27.3947  -10.4420   -3.6804 C   0  0  0  0  0  0  0  0  0  0  0  0
  -25.3894   -9.1579   -4.4180 C   0  0  0  0  0  0  0  0  0  0  0  0
 20 21  1  0  0  0
 21 13  1  0  0  0
 13 14  1  0  0  0
 13 19  2  0  0  0
 14 15  2  0  0  0
 15 16  1  0  0  0
 16 17  1  0  0  0
 16 18  2  0  0  0
 18 11  1  0  0  0
 18 19  1  0  0  0
 11  1  1  0  0  0
 11 12  1  0  0  0
  1  2  1  0  0  0
  1 10  2  0  0  0
  2  3  2  0  0  0
  3  4  1  0  0  0
  4  5  2  0  0  0
  5  6  1  0  0  0
  5 10  1  0  0  0
  6  7  2  0  0  0
  7 22  1  0  0  0
  7  8  1  0  0  0
 22 23  1  0  0  0
 23 24  1  0  0  0
 24 25  1  0  0  0
 25 26  1  0  0  0
 25 29  1  0  0  0
 26 27  1  0  0  0
 27 28  1  0  0  0
 28 29  1  0  0  0
  8  9  2  0  0  0
  9 30  1  0  0  0
  9 10  1  0  0  0
 30 31  1  0  0  0
 31 32  1  0  0  0
 31 33  1  0  0  0
M  END
> <minimizedAffinity>
-7.27552

$$$$
