CHEMBL382672


 33 37  0  0  0  0  0  0  0  0999 V2000
  -29.7679   -1.8676   -4.5090 C   0  0  0  0  0  0  0  0  0  0  0  0
  -29.4413   -3.2465   -4.7891 N   0  0  0  0  0  0  0  0  0  0  0  0
  -29.7953   -4.3053   -4.0001 C   0  0  0  0  0  0  0  0  0  0  0  0
  -29.4038   -5.4480   -4.5203 N   0  0  0  0  0  0  0  0  0  0  0  0
  -28.7565   -5.1093   -5.6713 C   0  0  0  0  0  0  0  0  0  0  0  0
  -28.7608   -3.7456   -5.8783 C   0  0  0  0  0  0  0  0  0  0  0  0
  -28.2523   -2.9695   -6.9584 C   0  0  0  0  0  0  0  0  0  0  0  0
  -27.5706   -1.8519   -6.8016 N   0  0  0  0  0  0  0  0  0  0  0  0
  -27.3260   -1.3544   -8.0541 N   0  0  0  0  0  0  0  0  0  0  0  0
  -27.8754   -2.1853   -8.9117 C   0  0  0  0  0  0  0  0  0  0  0  0
  -28.4538   -3.2597   -8.2913 O   0  0  0  0  0  0  0  0  0  0  0  0
  -27.9956   -2.1388  -10.2524 N   0  0  0  0  0  0  0  0  0  0  0  0
  -28.9320   -2.0468  -10.6239 H   0  0  0  0  0  0  0  0  0  0  0  0
  -26.9725   -1.7897  -11.1610 C   0  0  0  0  0  0  0  0  0  0  0  0
  -25.6882   -1.3907  -10.7597 C   0  0  0  0  0  0  0  0  0  0  0  0
  -24.7017   -1.0593  -11.6923 C   0  0  0  0  0  0  0  0  0  0  0  0
  -24.9827   -1.1417  -13.0490 C   0  0  0  0  0  0  0  0  0  0  0  0
  -23.7771   -0.7149  -14.1986 Cl  0  0  0  0  0  0  0  0  0  0  0  0
  -26.2370   -1.5672  -13.4777 C   0  0  0  0  0  0  0  0  0  0  0  0
  -27.2212   -1.8966  -12.5379 C   0  0  0  0  0  0  0  0  0  0  0  0
  -28.2128   -6.0420   -6.4787 N   0  0  0  0  0  0  0  0  0  0  0  0
  -27.2032   -6.0514   -6.5808 H   0  0  0  0  0  0  0  0  0  0  0  0
  -28.9460   -6.4754   -7.6663 C   0  0  0  0  0  0  0  0  0  0  0  0
  -30.4486   -6.5266   -7.3635 C   0  0  0  0  0  0  0  0  0  0  0  0
  -31.0354   -7.9115   -7.4975 C   0  0  0  0  0  0  0  0  0  0  0  0
  -32.3780   -8.1528   -7.1272 C   0  0  0  0  0  0  0  0  0  0  0  0
  -32.9356   -9.4323   -7.2286 C   0  0  0  0  0  0  0  0  0  0  0  0
  -32.1333  -10.4474   -7.7032 C   0  0  0  0  0  0  0  0  0  0  0  0
  -30.8297  -10.2216   -8.0752 C   0  0  0  0  0  0  0  0  0  0  0  0
  -30.2537   -8.9701   -7.9913 C   0  0  0  0  0  0  0  0  0  0  0  0
  -30.2124  -11.3527   -8.5112 O   0  0  0  0  0  0  0  0  0  0  0  0
  -31.2687  -12.3211   -8.3387 C   0  0  0  0  0  0  0  0  0  0  0  0
  -32.5011  -11.7471   -7.8567 O   0  0  0  0  0  0  0  0  0  0  0  0
  1  2  1  0  0  0
  2  3  1  0  0  0
  2  6  1  0  0  0
  3  4  2  0  0  0
  4  5  1  0  0  0
  5 21  1  0  0  0
  5  6  2  0  0  0
 21 23  1  0  0  0
 21 22  1  0  0  0
 23 24  1  0  0  0
 24 25  1  0  0  0
 25 26  1  0  0  0
 25 30  2  0  0  0
 26 27  2  0  0  0
 27 28  1  0  0  0
 28 29  2  0  0  0
 28 33  1  0  0  0
 29 30  1  0  0  0
 29 31  1  0  0  0
 31 32  1  0  0  0
 32 33  1  0  0  0
  6  7  1  0  0  0
  7  8  2  0  0  0
  7 11  1  0  0  0
  8  9  1  0  0  0
  9 10  2  0  0  0
 10 12  1  0  0  0
 10 11  1  0  0  0
 12 14  1  0  0  0
 12 13  1  0  0  0
 14 15  1  0  0  0
 14 20  2  0  0  0
 15 16  2  0  0  0
 16 17  1  0  0  0
 17 18  1  0  0  0
 17 19  2  0  0  0
 19 20  1  0  0  0
M  END
> <minimizedAffinity>
-9.98145

$$$$
