CHEMBL460465


 38 42  0  0  0  0  0  0  0  0999 V2000
  -28.9509   -2.5649   -5.9856 C   0  0  0  0  0  0  0  0  0  0  0  0
  -29.0643   -3.5369   -6.9731 C   0  0  0  0  0  0  0  0  0  0  0  0
  -28.3667   -3.4038   -8.1798 C   0  0  0  0  0  0  0  0  0  0  0  0
  -27.6141   -2.2620   -8.4830 C   0  0  0  0  0  0  0  0  0  0  0  0
  -27.5736   -1.2438   -7.5251 C   0  0  0  0  0  0  0  0  0  0  0  0
  -28.2265   -1.4077   -6.2900 C   0  0  0  0  0  0  0  0  0  0  0  0
  -28.1230   -0.4281   -5.3775 F   0  0  0  0  0  0  0  0  0  0  0  0
  -26.9294   -2.0910   -9.7222 N   0  0  0  0  0  0  0  0  0  0  0  0
  -27.3901   -1.3375  -10.7884 C   0  0  0  0  0  0  0  0  0  0  0  0
  -28.5037   -0.8262  -10.8441 O   0  0  0  0  0  0  0  0  0  0  0  0
  -26.0182   -2.5406   -9.8211 H   0  0  0  0  0  0  0  0  0  0  0  0
  -26.4498   -1.1159  -11.9161 C   0  0  0  0  0  0  0  0  0  0  0  0
  -26.6377   -1.4319  -13.2190 C   0  0  0  0  0  0  0  0  0  0  0  0
  -27.7591   -2.2209  -13.8295 C   0  0  0  0  0  0  0  0  0  0  0  0
  -25.6172   -0.9321  -14.0377 N   0  0  0  0  0  0  0  0  0  0  0  0
  -25.2116   -1.5243  -15.3123 C   0  0  0  0  0  0  0  0  0  0  0  0
  -24.6037   -0.4947  -13.1682 N   0  0  0  0  0  0  0  0  0  0  0  0
  -25.0939   -0.5084  -11.8575 C   0  0  0  0  0  0  0  0  0  0  0  0
  -24.5808   -0.1085  -10.8222 O   0  0  0  0  0  0  0  0  0  0  0  0
  -23.4639    0.1971  -13.6091 C   0  0  0  0  0  0  0  0  0  0  0  0
  -23.4778    1.5957  -13.5972 C   0  0  0  0  0  0  0  0  0  0  0  0
  -22.3359    2.3150  -13.9555 C   0  0  0  0  0  0  0  0  0  0  0  0
  -21.1894    1.6410  -14.3734 C   0  0  0  0  0  0  0  0  0  0  0  0
  -21.1745    0.2469  -14.4074 C   0  0  0  0  0  0  0  0  0  0  0  0
  -22.3022   -0.4754  -14.0048 C   0  0  0  0  0  0  0  0  0  0  0  0
  -29.4710   -2.6735   -4.7139 O   0  0  0  0  0  0  0  0  0  0  0  0
  -28.1985   -7.6603   -4.1877 C   0  0  0  0  0  0  0  0  0  0  0  0
  -27.4387   -6.5529   -4.5321 C   0  0  0  0  0  0  0  0  0  0  0  0
  -28.0088   -5.2879   -4.4860 C   0  0  0  0  0  0  0  0  0  0  0  0
  -29.3788   -5.1041   -4.1982 C   0  0  0  0  0  0  0  0  0  0  0  0
  -30.0531   -3.8607   -4.2929 C   0  0  0  0  0  0  0  0  0  0  0  0
  -31.3877   -3.7717   -3.9052 C   0  0  0  0  0  0  0  0  0  0  0  0
  -32.0256   -4.9262   -3.4977 C   0  0  0  0  0  0  0  0  0  0  0  0
  -31.4392   -6.1407   -3.4726 N   0  0  0  0  0  0  0  0  0  0  0  0
  -30.1426   -6.2297   -3.8222 C   0  0  0  0  0  0  0  0  0  0  0  0
  -29.5391   -7.4882   -3.8310 C   0  0  0  0  0  0  0  0  0  0  0  0
  -26.3128   -9.0685   -4.1123 C   0  0  0  0  0  0  0  0  0  0  0  0
  -27.7315   -8.9470   -4.1881 O   0  0  0  0  0  0  0  0  0  0  0  0
 37 38  1  0  0  0
 38 27  1  0  0  0
 27 28  1  0  0  0
 27 36  2  0  0  0
 28 29  2  0  0  0
 29 30  1  0  0  0
 30 31  1  0  0  0
 30 35  2  0  0  0
 31 26  1  0  0  0
 31 32  2  0  0  0
 26  1  1  0  0  0
  1  2  1  0  0  0
  1  6  2  0  0  0
  2  3  2  0  0  0
  3  4  1  0  0  0
  4  8  1  0  0  0
  4  5  2  0  0  0
  8  9  1  0  0  0
  8 11  1  0  0  0
  9 10  2  0  0  0
  9 12  1  0  0  0
 12 13  2  0  0  0
 12 18  1  0  0  0
 13 14  1  0  0  0
 13 15  1  0  0  0
 15 16  1  0  0  0
 15 17  1  0  0  0
 17 20  1  0  0  0
 17 18  1  0  0  0
 20 21  1  0  0  0
 20 25  2  0  0  0
 21 22  2  0  0  0
 22 23  1  0  0  0
 23 24  2  0  0  0
 24 25  1  0  0  0
 18 19  2  0  0  0
  5  6  1  0  0  0
  6  7  1  0  0  0
 32 33  1  0  0  0
 33 34  2  0  0  0
 34 35  1  0  0  0
 35 36  1  0  0  0
M  END
> <minimizedAffinity>
-10.40378

$$$$
