CHEMBL365064


 30 34  0  0  0  0  0  0  0  0999 V2000
  -28.5163   -8.1939   -7.8281 C   0  0  0  0  0  0  0  0  0  0  0  0
  -28.9116   -8.3851   -9.1265 N   0  0  0  0  0  0  0  0  0  0  0  0
  -28.6456   -9.6717   -9.5316 C   0  0  0  0  0  0  0  0  0  0  0  0
  -28.8931  -10.2925  -10.7635 C   0  0  0  0  0  0  0  0  0  0  0  0
  -28.5487  -11.6359  -10.8991 C   0  0  0  0  0  0  0  0  0  0  0  0
  -27.9591  -12.3314   -9.8451 C   0  0  0  0  0  0  0  0  0  0  0  0
  -27.6969  -11.6873   -8.6308 C   0  0  0  0  0  0  0  0  0  0  0  0
  -28.0553  -10.3304   -8.4514 C   0  0  0  0  0  0  0  0  0  0  0  0
  -27.9569   -9.3821   -7.3685 C   0  0  0  0  0  0  0  0  0  0  0  0
  -29.3660   -7.6946   -9.7063 H   0  0  0  0  0  0  0  0  0  0  0  0
  -31.3774   -8.4457   -6.7839 O   0  0  0  0  0  0  0  0  0  0  0  0
  -30.9776   -7.4525   -6.2120 C   0  0  0  0  0  0  0  0  0  0  0  0
  -31.5919   -6.7676   -5.1738 N   0  0  0  0  0  0  0  0  0  0  0  0
  -30.9984   -5.5774   -4.8163 N   0  0  0  0  0  0  0  0  0  0  0  0
  -29.9483   -5.4508   -5.5944 C   0  0  0  0  0  0  0  0  0  0  0  0
  -29.7801   -6.6259   -6.4865 C   0  0  0  0  0  0  0  0  0  0  0  0
  -28.7236   -6.9141   -7.2573 C   0  0  0  0  0  0  0  0  0  0  0  0
  -32.4731   -7.0539   -4.7645 H   0  0  0  0  0  0  0  0  0  0  0  0
  -29.0468   -4.2978   -5.5556 C   0  0  0  0  0  0  0  0  0  0  0  0
  -28.2085   -4.1153   -4.4641 C   0  0  0  0  0  0  0  0  0  0  0  0
  -27.3891   -3.0386   -4.3501 N   0  0  0  0  0  0  0  0  0  0  0  0
  -27.4691   -2.1411   -5.3586 C   0  0  0  0  0  0  0  0  0  0  0  0
  -28.3149   -2.3184   -6.4424 C   0  0  0  0  0  0  0  0  0  0  0  0
  -29.1156   -3.4027   -6.5748 N   0  0  0  0  0  0  0  0  0  0  0  0
  -27.4283   -9.5736   -6.0085 C   0  0  0  0  0  0  0  0  0  0  0  0
  -28.2636   -9.5176   -4.8803 C   0  0  0  0  0  0  0  0  0  0  0  0
  -27.7608   -9.7327   -3.5934 C   0  0  0  0  0  0  0  0  0  0  0  0
  -26.4020   -9.9615   -3.4070 C   0  0  0  0  0  0  0  0  0  0  0  0
  -25.5516   -9.9921   -4.5080 C   0  0  0  0  0  0  0  0  0  0  0  0
  -26.0650   -9.8195   -5.7981 C   0  0  0  0  0  0  0  0  0  0  0  0
 11 12  2  0  0  0
 12 13  1  0  0  0
 12 16  1  0  0  0
 13 14  1  0  0  0
 13 18  1  0  0  0
 14 15  2  0  0  0
 15 19  1  0  0  0
 15 16  1  0  0  0
 19 20  1  0  0  0
 19 24  2  0  0  0
 20 21  2  0  0  0
 21 22  1  0  0  0
 22 23  2  0  0  0
 23 24  1  0  0  0
 16 17  2  0  0  0
 17  1  1  0  0  0
  1  2  1  0  0  0
  1  9  2  0  0  0
  2  3  1  0  0  0
  2 10  1  0  0  0
  3  4  1  0  0  0
  3  8  2  0  0  0
  4  5  2  0  0  0
  5  6  1  0  0  0
  6  7  2  0  0  0
  7  8  1  0  0  0
  8  9  1  0  0  0
  9 25  1  0  0  0
 25 26  1  0  0  0
 25 30  2  0  0  0
 26 27  2  0  0  0
 27 28  1  0  0  0
 28 29  2  0  0  0
 29 30  1  0  0  0
M  END
> <minimizedAffinity>
-8.16533

$$$$
