CHEMBL505610


 22 25  0  0  0  0  0  0  0  0999 V2000
  -28.7031   -3.7384   -7.1765 C   0  0  0  0  0  0  0  0  0  0  0  0
  -29.2121   -3.1088   -6.0393 C   0  0  0  0  0  0  0  0  0  0  0  0
  -30.0167   -3.9687   -5.2992 N   0  0  0  0  0  0  0  0  0  0  0  0
  -29.9345   -5.0931   -5.9512 C   0  0  0  0  0  0  0  0  0  0  0  0
  -30.5725   -6.6912   -5.7177 S   0  0  0  0  0  0  0  0  0  0  0  0
  -29.7524   -7.1976   -7.2054 C   0  0  0  0  0  0  0  0  0  0  0  0
  -29.0647   -6.2027   -7.7901 C   0  0  0  0  0  0  0  0  0  0  0  0
  -29.1711   -5.0251   -7.0763 N   0  0  0  0  0  0  0  0  0  0  0  0
  -28.9489   -1.7458   -5.6022 C   0  0  0  0  0  0  0  0  0  0  0  0
  -27.6718   -1.4049   -5.1350 C   0  0  0  0  0  0  0  0  0  0  0  0
  -27.3649   -0.0822   -4.8036 C   0  0  0  0  0  0  0  0  0  0  0  0
  -28.3314    0.9131   -4.9385 C   0  0  0  0  0  0  0  0  0  0  0  0
  -29.6094    0.5837   -5.3840 C   0  0  0  0  0  0  0  0  0  0  0  0
  -29.9172   -0.7402   -5.7096 C   0  0  0  0  0  0  0  0  0  0  0  0
  -28.0841   -2.2259   -8.9150 C   0  0  0  0  0  0  0  0  0  0  0  0
  -27.8760   -3.3796   -8.2636 C   0  0  0  0  0  0  0  0  0  0  0  0
  -27.2953   -1.8065  -10.0819 C   0  0  0  0  0  0  0  0  0  0  0  0
  -27.9125   -1.6010  -11.2988 C   0  0  0  0  0  0  0  0  0  0  0  0
  -27.0911   -1.2368  -12.3384 C   0  0  0  0  0  0  0  0  0  0  0  0
  -25.7612   -1.0755  -12.2149 N   0  0  0  0  0  0  0  0  0  0  0  0
  -25.2642   -1.2952  -10.9898 C   0  0  0  0  0  0  0  0  0  0  0  0
  -25.9636   -1.6584   -9.9080 N   0  0  0  0  0  0  0  0  0  0  0  0
 15 16  2  0  0  0
 15 17  1  0  0  0
 16  1  1  0  0  0
  1  2  2  0  0  0
  1  8  1  0  0  0
  2  9  1  0  0  0
  2  3  1  0  0  0
  9 10  1  0  0  0
  9 14  2  0  0  0
 10 11  2  0  0  0
 11 12  1  0  0  0
 12 13  2  0  0  0
 13 14  1  0  0  0
  3  4  2  0  0  0
  4  5  1  0  0  0
  4  8  1  0  0  0
  5  6  1  0  0  0
  6  7  2  0  0  0
  7  8  1  0  0  0
 17 18  1  0  0  0
 17 22  2  0  0  0
 18 19  2  0  0  0
 19 20  1  0  0  0
 20 21  2  0  0  0
 21 22  1  0  0  0
M  END
> <minimizedAffinity>
-8.50653

$$$$
