CHEMBL3955359


 33 37  0  0  0  0  0  0  0  0999 V2000
  -14.9709   -1.5946  -12.6559 C   0  0  0  0  0  0  0  0  0  0  0  0
  -15.7054   -0.5521  -13.2244 C   0  0  0  0  0  0  0  0  0  0  0  0
  -15.3001    0.0370  -14.4415 C   0  0  0  0  0  0  0  0  0  0  0  0
  -15.9104    1.1542  -15.0332 C   0  0  0  0  0  0  0  0  0  0  0  0
  -15.4846    1.6519  -16.2099 N   0  0  0  0  0  0  0  0  0  0  0  0
  -14.4414    1.0563  -16.7834 C   0  0  0  0  0  0  0  0  0  0  0  0
  -13.7566    0.0245  -16.2827 N   0  0  0  0  0  0  0  0  0  0  0  0
  -14.1807   -0.4648  -15.1127 C   0  0  0  0  0  0  0  0  0  0  0  0
  -13.4420   -1.4788  -14.5209 C   0  0  0  0  0  0  0  0  0  0  0  0
  -13.7933   -2.0241  -13.2810 C   0  0  0  0  0  0  0  0  0  0  0  0
  -16.1798   -3.3363  -11.6180 C   0  0  0  0  0  0  0  0  0  0  0  0
  -15.3289   -2.2000  -11.4777 O   0  0  0  0  0  0  0  0  0  0  0  0
  -16.9509    1.8367  -14.3500 N   0  0  0  0  0  0  0  0  0  0  0  0
  -16.7554    1.9063  -13.3556 H   0  0  0  0  0  0  0  0  0  0  0  0
  -18.3241    1.6331  -14.6150 C   0  0  0  0  0  0  0  0  0  0  0  0
  -18.7691    0.4389  -15.2085 C   0  0  0  0  0  0  0  0  0  0  0  0
  -20.1271    0.1824  -15.3813 C   0  0  0  0  0  0  0  0  0  0  0  0
  -21.0682    1.1294  -14.9767 C   0  0  0  0  0  0  0  0  0  0  0  0
  -20.6393    2.3413  -14.4301 C   0  0  0  0  0  0  0  0  0  0  0  0
  -21.8140    3.5021  -13.9380 Cl  0  0  0  0  0  0  0  0  0  0  0  0
  -19.2794    2.5956  -14.2649 C   0  0  0  0  0  0  0  0  0  0  0  0
  -18.8588    3.7582  -13.7353 F   0  0  0  0  0  0  0  0  0  0  0  0
  -13.0087   -2.9083  -12.5853 O   0  0  0  0  0  0  0  0  0  0  0  0
  -12.4687   -4.0390  -13.2862 C   0  0  0  0  0  0  0  0  0  0  0  0
  -11.6751   -4.9590  -12.3628 C   0  0  0  0  0  0  0  0  0  0  0  0
  -12.6162   -5.8234  -11.7104 O   0  0  0  0  0  0  0  0  0  0  0  0
  -13.7075   -6.0152  -12.6226 C   0  0  0  0  0  0  0  0  0  0  0  0
  -13.5133   -7.3144  -13.4018 C   0  0  0  0  0  0  0  0  0  0  0  0
  -13.9506   -6.9040  -14.7938 C   0  0  0  0  0  0  0  0  0  0  0  0
  -13.4468   -5.5683  -14.9520 O   0  0  0  0  0  0  0  0  0  0  0  0
  -13.6468   -4.9189  -13.6810 C   0  0  0  0  0  0  0  0  0  0  0  0
  -14.2803   -8.4107  -12.9106 O   0  0  0  0  0  0  0  0  0  0  0  0
  -13.5960   -9.1220  -11.8805 C   0  0  0  0  0  0  0  0  0  0  0  0
 11 12  1  0  0  0
 12  1  1  0  0  0
  1  2  1  0  0  0
  1 10  2  0  0  0
  2  3  2  0  0  0
  3  4  1  0  0  0
  3  8  1  0  0  0
  4 13  1  0  0  0
  4  5  2  0  0  0
 13 15  1  0  0  0
 13 14  1  0  0  0
 15 16  1  0  0  0
 15 21  2  0  0  0
 16 17  2  0  0  0
 17 18  1  0  0  0
 18 19  2  0  0  0
 19 20  1  0  0  0
 19 21  1  0  0  0
 21 22  1  0  0  0
  5  6  1  0  0  0
  6  7  2  0  0  0
  7  8  1  0  0  0
  8  9  2  0  0  0
  9 10  1  0  0  0
 10 23  1  0  0  0
 24 25  1  0  0  0
 24 31  1  0  0  0
 24 23  1  0  0  0
 25 26  1  0  0  0
 26 27  1  0  0  0
 27 28  1  0  0  0
 27 31  1  0  0  0
 28 32  1  0  0  0
 28 29  1  0  0  0
 32 33  1  0  0  0
 29 30  1  0  0  0
 30 31  1  0  0  0
M  END
> <minimizedAffinity>
-7.65374

$$$$
