CHEMBL1096415


 31 34  0  0  0  0  0  0  0  0999 V2000
  -29.3972   -2.4523   -5.6960 C   0  0  0  0  0  0  0  0  0  0  0  0
  -29.3579   -1.4763   -4.7482 N   0  0  0  0  0  0  0  0  0  0  0  0
  -28.6557   -0.3554   -4.9836 C   0  0  0  0  0  0  0  0  0  0  0  0
  -27.9656   -0.0374   -6.0873 N   0  0  0  0  0  0  0  0  0  0  0  0
  -28.0091   -1.0253   -6.9918 C   0  0  0  0  0  0  0  0  0  0  0  0
  -27.4171   -0.9652   -8.2202 N   0  0  0  0  0  0  0  0  0  0  0  0
  -27.6244   -2.1403   -8.9074 C   0  0  0  0  0  0  0  0  0  0  0  0
  -28.3989   -2.9488   -8.0875 C   0  0  0  0  0  0  0  0  0  0  0  0
  -28.6610   -2.2423   -6.8769 C   0  0  0  0  0  0  0  0  0  0  0  0
  -26.9117   -0.1536   -8.5440 H   0  0  0  0  0  0  0  0  0  0  0  0
  -30.1797   -3.6005   -5.4666 N   0  0  0  0  0  0  0  0  0  0  0  0
  -30.8362   -3.4732   -4.7054 H   0  0  0  0  0  0  0  0  0  0  0  0
  -28.2032   -8.7837   -5.6879 F   0  0  0  0  0  0  0  0  0  0  0  0
  -28.6977   -7.5398   -5.6621 C   0  0  0  0  0  0  0  0  0  0  0  0
  -28.0765   -6.5961   -4.8467 C   0  0  0  0  0  0  0  0  0  0  0  0
  -28.5661   -5.2884   -4.7912 C   0  0  0  0  0  0  0  0  0  0  0  0
  -29.6949   -4.9247   -5.5319 C   0  0  0  0  0  0  0  0  0  0  0  0
  -30.2883   -5.8874   -6.3629 C   0  0  0  0  0  0  0  0  0  0  0  0
  -29.8022   -7.2031   -6.4339 C   0  0  0  0  0  0  0  0  0  0  0  0
  -30.4821   -8.1959   -7.3244 C   0  0  0  0  0  0  0  0  0  0  0  0
  -30.6133   -9.4461   -6.8058 F   0  0  0  0  0  0  0  0  0  0  0  0
  -31.7427   -7.8045   -7.6676 F   0  0  0  0  0  0  0  0  0  0  0  0
  -29.8190   -8.3581   -8.5065 F   0  0  0  0  0  0  0  0  0  0  0  0
  -27.1107   -2.3864  -10.2981 C   0  0  0  0  0  0  0  0  0  0  0  0
  -27.2981   -1.2029  -11.2540 C   0  0  0  0  0  0  0  0  0  0  0  0
  -26.1372   -1.0310  -12.2033 C   0  0  0  0  0  0  0  0  0  0  0  0
  -25.0017   -0.3028  -11.8206 C   0  0  0  0  0  0  0  0  0  0  0  0
  -23.9187   -0.1695  -12.6920 C   0  0  0  0  0  0  0  0  0  0  0  0
  -23.9618   -0.7560  -13.9554 C   0  0  0  0  0  0  0  0  0  0  0  0
  -25.0927   -1.4665  -14.3521 C   0  0  0  0  0  0  0  0  0  0  0  0
  -26.1769   -1.6010  -13.4828 C   0  0  0  0  0  0  0  0  0  0  0  0
 13 14  1  0  0  0
 14 15  1  0  0  0
 14 19  2  0  0  0
 15 16  2  0  0  0
 16 17  1  0  0  0
 17 11  1  0  0  0
 17 18  2  0  0  0
 11  1  1  0  0  0
 11 12  1  0  0  0
  1  2  1  0  0  0
  1  9  2  0  0  0
  2  3  2  0  0  0
  3  4  1  0  0  0
  4  5  2  0  0  0
  5  6  1  0  0  0
  5  9  1  0  0  0
  6  7  1  0  0  0
  6 10  1  0  0  0
  7 24  1  0  0  0
  7  8  2  0  0  0
 24 25  1  0  0  0
 25 26  1  0  0  0
 26 27  1  0  0  0
 26 31  2  0  0  0
 27 28  2  0  0  0
 28 29  1  0  0  0
 29 30  2  0  0  0
 30 31  1  0  0  0
  8  9  1  0  0  0
 18 19  1  0  0  0
 19 20  1  0  0  0
 20 21  1  0  0  0
 20 22  1  0  0  0
 20 23  1  0  0  0
M  END
> <minimizedAffinity>
-9.76359

$$$$
