CHEMBL413581


 29 33  0  0  0  0  0  0  0  0999 V2000
  -22.3218    1.2017  -13.9975 C   0  0  0  0  0  0  0  0  0  0  0  0
  -22.2427    2.6208  -13.9981 C   0  0  0  0  0  0  0  0  0  0  0  0
  -21.1010    3.3028  -14.4227 C   0  0  0  0  0  0  0  0  0  0  0  0
  -20.0261    2.5371  -14.7940 C   0  0  0  0  0  0  0  0  0  0  0  0
  -20.0468    1.1159  -14.7524 C   0  0  0  0  0  0  0  0  0  0  0  0
  -21.2014    0.4433  -14.3783 C   0  0  0  0  0  0  0  0  0  0  0  0
  -18.6924    0.4855  -15.1229 C   0  0  0  0  0  0  0  0  0  0  0  0
  -17.9588    1.7538  -15.4048 C   0  0  0  0  0  0  0  0  0  0  0  0
  -16.6960    2.2171  -15.8101 C   0  0  0  0  0  0  0  0  0  0  0  0
  -16.7136    3.5707  -15.9260 N   0  0  0  0  0  0  0  0  0  0  0  0
  -17.9691    3.9366  -15.5589 N   0  0  0  0  0  0  0  0  0  0  0  0
  -18.7202    2.8737  -15.2295 C   0  0  0  0  0  0  0  0  0  0  0  0
  -18.2143    4.9204  -15.5738 H   0  0  0  0  0  0  0  0  0  0  0  0
  -15.5075    1.4204  -16.1069 C   0  0  0  0  0  0  0  0  0  0  0  0
  -14.9844    1.3664  -17.4064 C   0  0  0  0  0  0  0  0  0  0  0  0
  -13.9010    0.5317  -17.6989 C   0  0  0  0  0  0  0  0  0  0  0  0
  -13.3393   -0.2418  -16.6886 C   0  0  0  0  0  0  0  0  0  0  0  0
  -12.3118   -1.1022  -16.9356 O   0  0  0  0  0  0  0  0  0  0  0  0
  -13.8138   -0.1683  -15.3860 C   0  0  0  0  0  0  0  0  0  0  0  0
  -14.8928    0.6651  -15.0964 C   0  0  0  0  0  0  0  0  0  0  0  0
  -12.1715   -1.1408  -17.8956 H   0  0  0  0  0  0  0  0  0  0  0  0
  -23.6125    0.5166  -13.5773 C   0  0  0  0  0  0  0  0  0  0  0  0
  -26.7476   -1.8460  -10.8045 C   0  0  0  0  0  0  0  0  0  0  0  0
  -25.6743   -2.0204  -11.7777 N   0  0  0  0  0  0  0  0  0  0  0  0
  -26.0187   -1.3910  -13.0627 C   0  0  0  0  0  0  0  0  0  0  0  0
  -24.8721   -1.5569  -14.0846 C   0  0  0  0  0  0  0  0  0  0  0  0
  -23.5895   -0.9564  -13.6565 N   0  0  0  0  0  0  0  0  0  0  0  0
  -23.2559   -1.5450  -12.3343 C   0  0  0  0  0  0  0  0  0  0  0  0
  -24.3939   -1.4861  -11.2755 C   0  0  0  0  0  0  0  0  0  0  0  0
 23 24  1  0  0  0
 24 25  1  0  0  0
 24 29  1  0  0  0
 25 26  1  0  0  0
 26 27  1  0  0  0
 27 22  1  0  0  0
 27 28  1  0  0  0
 22  1  1  0  0  0
  1  2  1  0  0  0
  1  6  2  0  0  0
  2  3  2  0  0  0
  3  4  1  0  0  0
  4  5  2  0  0  0
  4 12  1  0  0  0
  5  6  1  0  0  0
  5  7  1  0  0  0
  7  8  1  0  0  0
  8  9  1  0  0  0
  8 12  2  0  0  0
  9 14  1  0  0  0
  9 10  2  0  0  0
 14 15  1  0  0  0
 14 20  2  0  0  0
 15 16  2  0  0  0
 16 17  1  0  0  0
 17 18  1  0  0  0
 17 19  2  0  0  0
 18 21  1  0  0  0
 19 20  1  0  0  0
 10 11  1  0  0  0
 11 12  1  0  0  0
 11 13  1  0  0  0
 28 29  1  0  0  0
M  END
> <minimizedAffinity>
-10.19535

$$$$
