CHEMBL2011061


 38 44  0  0  0  0  0  0  0  0999 V2000
  -13.2153   -2.1218  -15.1412 N   0  0  0  0  0  0  0  0  0  0  0  0
  -14.0358   -0.9789  -15.0120 C   0  0  0  0  0  0  0  0  0  0  0  0
  -14.0499    0.2511  -15.6908 C   0  0  0  0  0  0  0  0  0  0  0  0
  -15.0247    1.2042  -15.3344 C   0  0  0  0  0  0  0  0  0  0  0  0
  -15.9664    0.9730  -14.3294 C   0  0  0  0  0  0  0  0  0  0  0  0
  -15.9118   -0.2446  -13.6466 C   0  0  0  0  0  0  0  0  0  0  0  0
  -14.9415   -1.2076  -13.9659 C   0  0  0  0  0  0  0  0  0  0  0  0
  -14.5267   -2.4130  -13.4740 C   0  0  0  0  0  0  0  0  0  0  0  0
  -14.8631   -2.9175  -12.2084 C   0  0  0  0  0  0  0  0  0  0  0  0
  -14.0281   -3.9597  -11.7420 C   0  0  0  0  0  0  0  0  0  0  0  0
  -13.0292   -4.5551  -12.5466 C   0  0  0  0  0  0  0  0  0  0  0  0
  -13.3396   -4.4520  -13.9387 C   0  0  0  0  0  0  0  0  0  0  0  0
  -13.6498   -3.1103  -14.2590 C   0  0  0  0  0  0  0  0  0  0  0  0
  -14.4015   -5.6198  -14.2570 C   0  0  0  0  0  0  0  0  0  0  0  0
  -14.2787   -6.9673  -13.4334 C   0  0  0  0  0  0  0  0  0  0  0  0
  -13.0732   -6.9478  -12.5669 C   0  0  0  0  0  0  0  0  0  0  0  0
  -12.4527   -5.8014  -12.1371 C   0  0  0  0  0  0  0  0  0  0  0  0
  -11.2542   -6.2218  -11.5563 C   0  0  0  0  0  0  0  0  0  0  0  0
  -11.1990   -7.5566  -11.4582 N   0  0  0  0  0  0  0  0  0  0  0  0
  -12.3779   -7.9677  -11.9848 N   0  0  0  0  0  0  0  0  0  0  0  0
  -12.7812   -9.3414  -11.8168 C   0  0  0  0  0  0  0  0  0  0  0  0
  -14.5308   -4.3642  -10.4526 C   0  0  0  0  0  0  0  0  0  0  0  0
  -14.2366   -5.2587   -9.6718 O   0  0  0  0  0  0  0  0  0  0  0  0
  -15.6151   -3.5182  -10.2250 N   0  0  0  0  0  0  0  0  0  0  0  0
  -15.8986   -2.5433  -11.2550 C   0  0  0  0  0  0  0  0  0  0  0  0
  -16.2104   -3.6889   -9.4283 H   0  0  0  0  0  0  0  0  0  0  0  0
  -16.9699    1.8715  -13.9495 N   0  0  0  0  0  0  0  0  0  0  0  0
  -16.6673    2.7584  -13.5731 H   0  0  0  0  0  0  0  0  0  0  0  0
  -18.2959    2.0134  -14.3323 C   0  0  0  0  0  0  0  0  0  0  0  0
  -18.9572    3.1688  -14.1715 N   0  0  0  0  0  0  0  0  0  0  0  0
  -20.2542    3.1919  -14.5225 C   0  0  0  0  0  0  0  0  0  0  0  0
  -20.9228    2.0994  -15.0019 C   0  0  0  0  0  0  0  0  0  0  0  0
  -20.1639    0.9655  -15.1474 C   0  0  0  0  0  0  0  0  0  0  0  0
  -18.8577    0.9008  -14.8303 N   0  0  0  0  0  0  0  0  0  0  0  0
  -12.1452   -2.2433  -16.1220 C   0  0  0  0  0  0  0  0  0  0  0  0
  -13.3493   -4.0453  -17.5614 C   0  0  0  0  0  0  0  0  0  0  0  0
  -12.4828   -2.7849  -17.5420 C   0  0  0  0  0  0  0  0  0  0  0  0
  -13.0891   -1.7228  -18.4503 C   0  0  0  0  0  0  0  0  0  0  0  0
 36 37  1  0  0  0
 37 38  1  0  0  0
 37 35  1  0  0  0
 35  1  1  0  0  0
  1  2  1  0  0  0
  1 13  1  0  0  0
  2  3  1  0  0  0
  2  7  2  0  0  0
  3  4  2  0  0  0
  4  5  1  0  0  0
  5 27  1  0  0  0
  5  6  2  0  0  0
 27 29  1  0  0  0
 27 28  1  0  0  0
 29 30  1  0  0  0
 29 34  2  0  0  0
 30 31  2  0  0  0
 31 32  1  0  0  0
 32 33  2  0  0  0
 33 34  1  0  0  0
  6  7  1  0  0  0
  7  8  1  0  0  0
  8  9  1  0  0  0
  8 13  2  0  0  0
  9 10  2  0  0  0
  9 25  1  0  0  0
 10 11  1  0  0  0
 10 22  1  0  0  0
 11 12  2  0  0  0
 11 17  1  0  0  0
 12 13  1  0  0  0
 12 14  1  0  0  0
 14 15  1  0  0  0
 15 16  1  0  0  0
 16 17  2  0  0  0
 16 20  1  0  0  0
 17 18  1  0  0  0
 18 19  2  0  0  0
 19 20  1  0  0  0
 20 21  1  0  0  0
 22 23  2  0  0  0
 22 24  1  0  0  0
 24 25  1  0  0  0
 24 26  1  0  0  0
M  END
> <minimizedAffinity>
-8.26342

$$$$
