CHEMBL359316


 35 40  0  0  0  0  0  0  0  0999 V2000
  -19.0097    2.1472  -15.1824 C   0  0  0  0  0  0  0  0  0  0  0  0
  -18.7302    0.9813  -14.4696 C   0  0  0  0  0  0  0  0  0  0  0  0
  -17.4672    0.3868  -14.5239 C   0  0  0  0  0  0  0  0  0  0  0  0
  -16.4835    0.9705  -15.3352 C   0  0  0  0  0  0  0  0  0  0  0  0
  -16.7246    2.2054  -15.9603 C   0  0  0  0  0  0  0  0  0  0  0  0
  -17.9777    2.8138  -15.8624 C   0  0  0  0  0  0  0  0  0  0  0  0
  -15.4970    2.5219  -16.4795 C   0  0  0  0  0  0  0  0  0  0  0  0
  -14.9983    3.8388  -16.6205 C   0  0  0  0  0  0  0  0  0  0  0  0
  -13.5602    3.9659  -16.4296 C   0  0  0  0  0  0  0  0  0  0  0  0
  -12.7570    2.8257  -16.3724 C   0  0  0  0  0  0  0  0  0  0  0  0
  -13.3544    1.7253  -17.0439 C   0  0  0  0  0  0  0  0  0  0  0  0
  -14.6188    1.4856  -16.5632 C   0  0  0  0  0  0  0  0  0  0  0  0
  -15.1341    0.6186  -15.5730 N   0  0  0  0  0  0  0  0  0  0  0  0
  -12.2683    0.9101  -17.5900 C   0  0  0  0  0  0  0  0  0  0  0  0
  -11.3599    0.9416  -16.3889 C   0  0  0  0  0  0  0  0  0  0  0  0
  -10.8293   -0.2469  -15.9131 C   0  0  0  0  0  0  0  0  0  0  0  0
  -10.6990   -0.3535  -14.5380 C   0  0  0  0  0  0  0  0  0  0  0  0
  -11.0175    0.7475  -13.7152 C   0  0  0  0  0  0  0  0  0  0  0  0
  -11.4780    1.9888  -14.2393 C   0  0  0  0  0  0  0  0  0  0  0  0
  -11.6963    2.1082  -15.6155 C   0  0  0  0  0  0  0  0  0  0  0  0
  -13.2115    5.2026  -17.1062 C   0  0  0  0  0  0  0  0  0  0  0  0
  -12.1307    5.6916  -17.4282 O   0  0  0  0  0  0  0  0  0  0  0  0
  -14.4240    5.7346  -17.5794 N   0  0  0  0  0  0  0  0  0  0  0  0
  -15.6211    4.9674  -17.2875 C   0  0  0  0  0  0  0  0  0  0  0  0
  -14.3790    6.3570  -18.3771 H   0  0  0  0  0  0  0  0  0  0  0  0
  -20.4225    2.6673  -15.3002 C   0  0  0  0  0  0  0  0  0  0  0  0
  -20.7147    3.5771  -14.1004 C   0  0  0  0  0  0  0  0  0  0  0  0
  -21.2719    1.5210  -15.3278 O   0  0  0  0  0  0  0  0  0  0  0  0
  -22.3186    0.0134  -13.8380 C   0  0  0  0  0  0  0  0  0  0  0  0
  -22.2044    1.4632  -14.2609 C   0  0  0  0  0  0  0  0  0  0  0  0
  -14.2752    0.0265  -14.5469 C   0  0  0  0  0  0  0  0  0  0  0  0
  -14.1219   -1.4852  -14.3701 C   0  0  0  0  0  0  0  0  0  0  0  0
  -15.0019   -2.0175  -13.2545 C   0  0  0  0  0  0  0  0  0  0  0  0
  -15.1553   -1.0204  -12.2533 O   0  0  0  0  0  0  0  0  0  0  0  0
  -14.2859   -0.8748  -11.8412 H   0  0  0  0  0  0  0  0  0  0  0  0
 29 30  1  0  0  0
 30 28  1  0  0  0
 28 26  1  0  0  0
 26 27  1  0  0  0
 26  1  1  0  0  0
  1  2  1  0  0  0
  1  6  2  0  0  0
  2  3  2  0  0  0
  3  4  1  0  0  0
  4  5  2  0  0  0
  4 13  1  0  0  0
  5  6  1  0  0  0
  5  7  1  0  0  0
  7  8  1  0  0  0
  7 12  2  0  0  0
  8  9  2  0  0  0
  8 24  1  0  0  0
  9 10  1  0  0  0
  9 21  1  0  0  0
 10 11  2  0  0  0
 10 20  1  0  0  0
 11 12  1  0  0  0
 11 14  1  0  0  0
 12 13  1  0  0  0
 13 31  1  0  0  0
 31 32  1  0  0  0
 32 33  1  0  0  0
 33 34  1  0  0  0
 34 35  1  0  0  0
 14 15  1  0  0  0
 15 16  1  0  0  0
 15 20  2  0  0  0
 16 17  2  0  0  0
 17 18  1  0  0  0
 18 19  2  0  0  0
 19 20  1  0  0  0
 21 22  2  0  0  0
 21 23  1  0  0  0
 23 24  1  0  0  0
 23 25  1  0  0  0
M  END
> <minimizedAffinity>
-7.35349

$$$$
