CHEMBL247798


 37 40  0  0  0  0  0  0  0  0999 V2000
  -16.5817    2.0069  -15.0552 C   0  0  0  0  0  0  0  0  0  0  0  0
  -16.2596    2.7318  -16.1784 N   0  0  0  0  0  0  0  0  0  0  0  0
  -15.1373    2.2744  -16.6859 C   0  0  0  0  0  0  0  0  0  0  0  0
  -14.4243    0.9513  -15.8716 S   0  0  0  0  0  0  0  0  0  0  0  0
  -15.7246    0.9689  -14.7418 C   0  0  0  0  0  0  0  0  0  0  0  0
  -15.7574   -0.0259  -13.6876 C   0  0  0  0  0  0  0  0  0  0  0  0
  -16.0032    0.2746  -12.5203 O   0  0  0  0  0  0  0  0  0  0  0  0
  -15.4329   -1.3125  -14.1024 N   0  0  0  0  0  0  0  0  0  0  0  0
  -15.0652   -1.4012  -15.0477 H   0  0  0  0  0  0  0  0  0  0  0  0
  -15.3710   -2.4668  -13.2856 C   0  0  0  0  0  0  0  0  0  0  0  0
  -16.3571   -3.4747  -13.3171 C   0  0  0  0  0  0  0  0  0  0  0  0
  -16.2977   -4.5815  -12.4631 C   0  0  0  0  0  0  0  0  0  0  0  0
  -15.2461   -4.6520  -11.5823 C   0  0  0  0  0  0  0  0  0  0  0  0
  -14.2629   -3.6894  -11.5566 C   0  0  0  0  0  0  0  0  0  0  0  0
  -14.2840   -2.5989  -12.4085 C   0  0  0  0  0  0  0  0  0  0  0  0
  -13.3230   -3.9400  -10.6048 O   0  0  0  0  0  0  0  0  0  0  0  0
  -13.8649   -5.1369  -10.0248 C   0  0  0  0  0  0  0  0  0  0  0  0
  -12.9194   -6.1075  -10.0638 F   0  0  0  0  0  0  0  0  0  0  0  0
  -14.1479   -4.8956   -8.7199 F   0  0  0  0  0  0  0  0  0  0  0  0
  -15.0504   -5.6306  -10.6605 O   0  0  0  0  0  0  0  0  0  0  0  0
  -17.6827    2.3388  -14.3424 N   0  0  0  0  0  0  0  0  0  0  0  0
  -17.5673    2.5681  -13.3569 H   0  0  0  0  0  0  0  0  0  0  0  0
  -18.7702    3.0903  -14.9600 C   0  0  0  0  0  0  0  0  0  0  0  0
  -22.3968    0.9810  -14.2494 C   0  0  0  0  0  0  0  0  0  0  0  0
  -21.3113    0.2794  -14.7575 C   0  0  0  0  0  0  0  0  0  0  0  0
  -20.1345    0.9698  -15.0235 C   0  0  0  0  0  0  0  0  0  0  0  0
  -20.0566    2.3375  -14.7508 C   0  0  0  0  0  0  0  0  0  0  0  0
  -21.2129    2.9579  -14.2907 C   0  0  0  0  0  0  0  0  0  0  0  0
  -22.3879    2.3177  -14.0684 N   0  0  0  0  0  0  0  0  0  0  0  0
  -24.9207   -0.8438  -12.4503 N   0  0  0  0  0  0  0  0  0  0  0  0
  -23.6645   -0.3271  -12.6686 C   0  0  0  0  0  0  0  0  0  0  0  0
  -22.7643   -0.4079  -11.8380 O   0  0  0  0  0  0  0  0  0  0  0  0
  -23.5769    0.3223  -13.8778 N   0  0  0  0  0  0  0  0  0  0  0  0
  -25.4604   -1.0927  -13.2675 H   0  0  0  0  0  0  0  0  0  0  0  0
  -24.4023    0.8420  -14.1346 H   0  0  0  0  0  0  0  0  0  0  0  0
  -26.7482   -1.6050  -10.9607 C   0  0  0  0  0  0  0  0  0  0  0  0
  -25.2517   -1.4686  -11.1847 C   0  0  0  0  0  0  0  0  0  0  0  0
 36 37  1  0  0  0
 37 30  1  0  0  0
 30 31  1  0  0  0
 30 34  1  0  0  0
 31 32  2  0  0  0
 31 33  1  0  0  0
 33 24  1  0  0  0
 33 35  1  0  0  0
 24 25  1  0  0  0
 24 29  2  0  0  0
 25 26  2  0  0  0
 26 27  1  0  0  0
 27 23  1  0  0  0
 27 28  2  0  0  0
 23 21  1  0  0  0
 21  1  1  0  0  0
 21 22  1  0  0  0
  1  2  1  0  0  0
  1  5  2  0  0  0
  2  3  2  0  0  0
  3  4  1  0  0  0
  4  5  1  0  0  0
  5  6  1  0  0  0
  6  7  2  0  0  0
  6  8  1  0  0  0
  8 10  1  0  0  0
  8  9  1  0  0  0
 10 11  1  0  0  0
 10 15  2  0  0  0
 11 12  2  0  0  0
 12 13  1  0  0  0
 13 14  2  0  0  0
 13 20  1  0  0  0
 14 15  1  0  0  0
 14 16  1  0  0  0
 16 17  1  0  0  0
 17 18  1  0  0  0
 17 19  1  0  0  0
 17 20  1  0  0  0
 28 29  1  0  0  0
M  END
> <minimizedAffinity>
-9.72260

$$$$
