CHEMBL1934333


 43 47  0  0  0  0  0  0  0  0999 V2000
  -30.3966   -5.6517   -5.6723 N   0  0  0  0  0  0  0  0  0  0  0  0
  -31.3684   -5.5314   -5.4086 H   0  0  0  0  0  0  0  0  0  0  0  0
  -28.2268   -8.8717   -7.3752 C   0  0  0  0  0  0  0  0  0  0  0  0
  -28.7639   -7.7227   -6.7915 C   0  0  0  0  0  0  0  0  0  0  0  0
  -29.0343   -7.6521   -5.4236 C   0  0  0  0  0  0  0  0  0  0  0  0
  -29.7624   -6.6100   -4.8414 C   0  0  0  0  0  0  0  0  0  0  0  0
  -29.9030   -6.5216   -3.5059 N   0  0  0  0  0  0  0  0  0  0  0  0
  -29.3656   -7.5085   -2.7905 C   0  0  0  0  0  0  0  0  0  0  0  0
  -28.7246   -8.5853   -3.2511 N   0  0  0  0  0  0  0  0  0  0  0  0
  -28.5773   -8.6526   -4.5756 C   0  0  0  0  0  0  0  0  0  0  0  0
  -27.9286   -9.7388   -5.1357 C   0  0  0  0  0  0  0  0  0  0  0  0
  -27.7212   -9.8682   -6.5233 C   0  0  0  0  0  0  0  0  0  0  0  0
  -29.4535   -9.5345   -9.2985 C   0  0  0  0  0  0  0  0  0  0  0  0
  -28.2270   -9.0267   -8.7410 O   0  0  0  0  0  0  0  0  0  0  0  0
  -27.0140  -10.9369   -7.0500 O   0  0  0  0  0  0  0  0  0  0  0  0
  -25.8637  -11.2981   -6.2573 C   0  0  0  0  0  0  0  0  0  0  0  0
  -24.6469  -10.3901   -6.4964 C   0  0  0  0  0  0  0  0  0  0  0  0
  -23.4430  -11.1402   -7.0692 C   0  0  0  0  0  0  0  0  0  0  0  0
  -22.8314  -12.1094   -6.0543 C   0  0  0  0  0  0  0  0  0  0  0  0
  -22.4724  -11.4401   -4.7950 N   0  0  0  0  0  0  0  0  0  0  0  0
  -21.9308  -12.4133   -3.8443 C   0  0  0  0  0  0  0  0  0  0  0  0
  -23.5978  -10.7142   -4.1933 C   0  0  0  0  0  0  0  0  0  0  0  0
  -24.2147   -9.7161   -5.1803 C   0  0  0  0  0  0  0  0  0  0  0  0
  -29.8303   -4.5394   -6.3055 C   0  0  0  0  0  0  0  0  0  0  0  0
  -30.0628   -4.3466   -7.6790 C   0  0  0  0  0  0  0  0  0  0  0  0
  -29.3321   -3.3944   -8.3997 C   0  0  0  0  0  0  0  0  0  0  0  0
  -28.3400   -2.6246   -7.8040 C   0  0  0  0  0  0  0  0  0  0  0  0
  -28.1444   -2.7797   -6.4256 C   0  0  0  0  0  0  0  0  0  0  0  0
  -27.1976   -2.0728   -5.7957 F   0  0  0  0  0  0  0  0  0  0  0  0
  -28.8809   -3.7174   -5.6944 C   0  0  0  0  0  0  0  0  0  0  0  0
  -27.5074   -1.7429   -8.5411 N   0  0  0  0  0  0  0  0  0  0  0  0
  -26.8710   -2.0726   -9.7383 C   0  0  0  0  0  0  0  0  0  0  0  0
  -26.9714   -3.1575  -10.2955 O   0  0  0  0  0  0  0  0  0  0  0  0
  -26.0343   -1.0741  -10.2097 N   0  0  0  0  0  0  0  0  0  0  0  0
  -27.2805   -0.8594   -8.0996 H   0  0  0  0  0  0  0  0  0  0  0  0
  -25.5538   -0.5571   -9.4886 H   0  0  0  0  0  0  0  0  0  0  0  0
  -25.3072   -1.2917  -11.4104 C   0  0  0  0  0  0  0  0  0  0  0  0
  -23.9366   -1.5621  -11.3383 C   0  0  0  0  0  0  0  0  0  0  0  0
  -23.2000   -1.7930  -12.5066 C   0  0  0  0  0  0  0  0  0  0  0  0
  -23.8222   -1.7115  -13.7504 C   0  0  0  0  0  0  0  0  0  0  0  0
  -25.1822   -1.4364  -13.8177 C   0  0  0  0  0  0  0  0  0  0  0  0
  -25.7747   -1.3451  -15.0152 F   0  0  0  0  0  0  0  0  0  0  0  0
  -25.9339   -1.2425  -12.6597 C   0  0  0  0  0  0  0  0  0  0  0  0
 13 14  1  0  0  0
 14  3  1  0  0  0
  3  4  1  0  0  0
  3 12  2  0  0  0
  4  5  2  0  0  0
  5  6  1  0  0  0
  5 10  1  0  0  0
  6  1  1  0  0  0
  6  7  2  0  0  0
  1 24  1  0  0  0
  1  2  1  0  0  0
 24 25  1  0  0  0
 24 30  2  0  0  0
 25 26  2  0  0  0
 26 27  1  0  0  0
 27 31  1  0  0  0
 27 28  2  0  0  0
 31 32  1  0  0  0
 31 35  1  0  0  0
 32 33  2  0  0  0
 32 34  1  0  0  0
 34 37  1  0  0  0
 34 36  1  0  0  0
 37 38  1  0  0  0
 37 43  2  0  0  0
 38 39  2  0  0  0
 39 40  1  0  0  0
 40 41  2  0  0  0
 41 42  1  0  0  0
 41 43  1  0  0  0
 28 29  1  0  0  0
 28 30  1  0  0  0
  7  8  1  0  0  0
  8  9  2  0  0  0
  9 10  1  0  0  0
 10 11  2  0  0  0
 11 12  1  0  0  0
 12 15  1  0  0  0
 15 16  1  0  0  0
 16 17  1  0  0  0
 17 18  1  0  0  0
 17 23  1  0  0  0
 18 19  1  0  0  0
 19 20  1  0  0  0
 20 21  1  0  0  0
 20 22  1  0  0  0
 22 23  1  0  0  0
M  END
> <minimizedAffinity>
-9.26049

$$$$
