CHEMBL3699444


 42 45  0  0  0  0  0  0  0  0999 V2000
  -13.3412   -2.6190  -13.8624 C   0  0  0  0  0  0  0  0  0  0  0  0
  -12.8805   -1.5096  -13.1782 C   0  0  0  0  0  0  0  0  0  0  0  0
  -12.8416   -0.5079  -14.1206 N   0  0  0  0  0  0  0  0  0  0  0  0
  -12.9042   -1.0402  -15.3911 C   0  0  0  0  0  0  0  0  0  0  0  0
  -12.9703   -0.4133  -16.6440 C   0  0  0  0  0  0  0  0  0  0  0  0
  -13.0239   -1.2215  -17.7787 C   0  0  0  0  0  0  0  0  0  0  0  0
  -12.9952   -2.6080  -17.6667 C   0  0  0  0  0  0  0  0  0  0  0  0
  -13.0372   -3.2246  -16.4080 C   0  0  0  0  0  0  0  0  0  0  0  0
  -13.0273   -2.4266  -15.2439 C   0  0  0  0  0  0  0  0  0  0  0  0
  -14.7659   -4.6471  -13.2588 C   0  0  0  0  0  0  0  0  0  0  0  0
  -14.4437   -3.3449  -13.3253 C   0  0  0  0  0  0  0  0  0  0  0  0
  -15.3644   -2.6086  -12.4141 C   0  0  0  0  0  0  0  0  0  0  0  0
  -15.3395   -1.4161  -12.1356 O   0  0  0  0  0  0  0  0  0  0  0  0
  -16.1830   -3.5057  -11.8548 N   0  0  0  0  0  0  0  0  0  0  0  0
  -15.8321   -4.7501  -12.2236 C   0  0  0  0  0  0  0  0  0  0  0  0
  -16.2703   -5.7705  -11.7243 O   0  0  0  0  0  0  0  0  0  0  0  0
  -16.8026   -3.2889  -11.0935 H   0  0  0  0  0  0  0  0  0  0  0  0
  -12.6378   -7.7387  -13.9098 C   0  0  0  0  0  0  0  0  0  0  0  0
  -13.2231   -6.6302  -13.2753 C   0  0  0  0  0  0  0  0  0  0  0  0
  -14.1365   -5.7932  -13.9334 C   0  0  0  0  0  0  0  0  0  0  0  0
  -14.4702   -6.0958  -15.2531 C   0  0  0  0  0  0  0  0  0  0  0  0
  -13.8679   -7.1641  -15.9241 C   0  0  0  0  0  0  0  0  0  0  0  0
  -12.9735   -8.0181  -15.2473 C   0  0  0  0  0  0  0  0  0  0  0  0
  -12.1038   -9.5298  -12.4155 C   0  0  0  0  0  0  0  0  0  0  0  0
  -11.6728   -8.5017  -13.3020 O   0  0  0  0  0  0  0  0  0  0  0  0
  -14.1539   -7.4463  -17.2399 O   0  0  0  0  0  0  0  0  0  0  0  0
  -13.7362   -6.4501  -18.1724 C   0  0  0  0  0  0  0  0  0  0  0  0
  -12.4516   -9.0322  -16.0152 O   0  0  0  0  0  0  0  0  0  0  0  0
  -13.1783  -10.2521  -16.0732 C   0  0  0  0  0  0  0  0  0  0  0  0
  -13.0395    0.8902  -13.8029 C   0  0  0  0  0  0  0  0  0  0  0  0
  -14.4860    1.3360  -13.9112 C   0  0  0  0  0  0  0  0  0  0  0  0
  -14.6122    2.2970  -14.9674 O   0  0  0  0  0  0  0  0  0  0  0  0
  -15.7415    2.1776  -15.7255 C   0  0  0  0  0  0  0  0  0  0  0  0
  -15.8976    1.3650  -16.6302 O   0  0  0  0  0  0  0  0  0  0  0  0
  -16.7968    3.1983  -15.2873 C   0  0  0  0  0  0  0  0  0  0  0  0
  -16.3633    4.5591  -15.7009 N   0  0  0  0  0  0  0  0  0  0  0  0
  -16.2630    4.5653  -16.7198 H   0  0  0  0  0  0  0  0  0  0  0  0
  -15.4123    4.7120  -15.3583 H   0  0  0  0  0  0  0  0  0  0  0  0
  -18.1578    2.8902  -15.9333 C   0  0  0  0  0  0  0  0  0  0  0  0
  -19.2768    2.4355  -14.9688 C   0  0  0  0  0  0  0  0  0  0  0  0
  -20.6058    3.1521  -15.2104 C   0  0  0  0  0  0  0  0  0  0  0  0
  -19.4836    0.9225  -15.0927 C   0  0  0  0  0  0  0  0  0  0  0  0
 24 25  1  0  0  0
 25 18  1  0  0  0
 18 19  1  0  0  0
 18 23  2  0  0  0
 19 20  2  0  0  0
 20 10  1  0  0  0
 20 21  1  0  0  0
 10 11  2  0  0  0
 10 15  1  0  0  0
 11  1  1  0  0  0
 11 12  1  0  0  0
  1  2  2  0  0  0
  1  9  1  0  0  0
  2  3  1  0  0  0
  3 30  1  0  0  0
  3  4  1  0  0  0
 30 31  1  0  0  0
 31 32  1  0  0  0
 32 33  1  0  0  0
 33 34  2  0  0  0
 33 35  1  0  0  0
 35 36  1  0  0  0
 35 39  1  0  0  0
 36 37  1  0  0  0
 36 38  1  0  0  0
 39 40  1  0  0  0
 40 41  1  0  0  0
 40 42  1  0  0  0
  4  5  1  0  0  0
  4  9  2  0  0  0
  5  6  2  0  0  0
  6  7  1  0  0  0
  7  8  2  0  0  0
  8  9  1  0  0  0
 12 13  2  0  0  0
 12 14  1  0  0  0
 14 15  1  0  0  0
 14 17  1  0  0  0
 15 16  2  0  0  0
 21 22  2  0  0  0
 22 26  1  0  0  0
 22 23  1  0  0  0
 26 27  1  0  0  0
 23 28  1  0  0  0
 28 29  1  0  0  0
M  END
> <minimizedAffinity>
-7.56055

$$$$
