CHEMBL248712


 33 37  0  0  0  0  0  0  0  0999 V2000
  -29.3328   -4.9777   -7.0246 C   0  0  0  0  0  0  0  0  0  0  0  0
  -29.7984   -4.3440   -5.8689 C   0  0  0  0  0  0  0  0  0  0  0  0
  -29.6437   -3.0285   -5.5215 N   0  0  0  0  0  0  0  0  0  0  0  0
  -28.9477   -2.3441   -6.4526 C   0  0  0  0  0  0  0  0  0  0  0  0
  -28.6048   -1.0214   -6.4394 N   0  0  0  0  0  0  0  0  0  0  0  0
  -27.8953   -0.6236   -7.5394 N   0  0  0  0  0  0  0  0  0  0  0  0
  -27.8047   -1.7564   -8.2585 C   0  0  0  0  0  0  0  0  0  0  0  0
  -28.4125   -2.8467   -7.6195 C   0  0  0  0  0  0  0  0  0  0  0  0
  -28.6010   -4.1913   -7.9157 C   0  0  0  0  0  0  0  0  0  0  0  0
  -28.8300   -0.3456   -5.7175 H   0  0  0  0  0  0  0  0  0  0  0  0
  -27.2173   -1.8584   -9.6314 C   0  0  0  0  0  0  0  0  0  0  0  0
  -27.9115   -1.9730  -10.7556 N   0  0  0  0  0  0  0  0  0  0  0  0
  -27.0154   -1.7700  -11.7703 C   0  0  0  0  0  0  0  0  0  0  0  0
  -27.2240   -1.6706  -13.1546 C   0  0  0  0  0  0  0  0  0  0  0  0
  -26.1124   -1.4418  -13.9673 C   0  0  0  0  0  0  0  0  0  0  0  0
  -26.2861   -1.3465  -15.2933 F   0  0  0  0  0  0  0  0  0  0  0  0
  -24.8345   -1.3077  -13.4294 C   0  0  0  0  0  0  0  0  0  0  0  0
  -23.7875   -1.1023  -14.2417 F   0  0  0  0  0  0  0  0  0  0  0  0
  -24.6085   -1.3774  -12.0552 C   0  0  0  0  0  0  0  0  0  0  0  0
  -25.7282   -1.6208  -11.2561 C   0  0  0  0  0  0  0  0  0  0  0  0
  -25.8924   -1.7180   -9.9066 N   0  0  0  0  0  0  0  0  0  0  0  0
  -25.1872   -1.5779   -9.1843 H   0  0  0  0  0  0  0  0  0  0  0  0
  -28.9224   -8.5070   -8.3220 C   0  0  0  0  0  0  0  0  0  0  0  0
  -30.2375   -8.9253   -8.1640 C   0  0  0  0  0  0  0  0  0  0  0  0
  -31.2248   -8.1704   -7.6413 N   0  0  0  0  0  0  0  0  0  0  0  0
  -30.8934   -6.9135   -7.2640 C   0  0  0  0  0  0  0  0  0  0  0  0
  -29.6175   -6.3728   -7.3684 C   0  0  0  0  0  0  0  0  0  0  0  0
  -28.6231   -7.2145   -7.8892 C   0  0  0  0  0  0  0  0  0  0  0  0
  -27.8994   -9.3745   -9.0010 C   0  0  0  0  0  0  0  0  0  0  0  0
  -27.5188   -8.8282  -10.3021 N   0  0  0  0  0  0  0  0  0  0  0  0
  -28.2104   -8.1418  -10.5983 H   0  0  0  0  0  0  0  0  0  0  0  0
  -28.8110  -10.3111  -11.7329 C   0  0  0  0  0  0  0  0  0  0  0  0
  -27.4152   -9.8759  -11.3134 C   0  0  0  0  0  0  0  0  0  0  0  0
 32 33  1  0  0  0
 33 30  1  0  0  0
 30 29  1  0  0  0
 30 31  1  0  0  0
 29 23  1  0  0  0
 23 24  1  0  0  0
 23 28  2  0  0  0
 24 25  2  0  0  0
 25 26  1  0  0  0
 26 27  2  0  0  0
 27  1  1  0  0  0
 27 28  1  0  0  0
  1  2  1  0  0  0
  1  9  2  0  0  0
  2  3  2  0  0  0
  3  4  1  0  0  0
  4  5  1  0  0  0
  4  8  2  0  0  0
  5  6  1  0  0  0
  5 10  1  0  0  0
  6  7  2  0  0  0
  7 11  1  0  0  0
  7  8  1  0  0  0
 11 12  2  0  0  0
 11 21  1  0  0  0
 12 13  1  0  0  0
 13 14  1  0  0  0
 13 20  2  0  0  0
 14 15  2  0  0  0
 15 16  1  0  0  0
 15 17  1  0  0  0
 17 18  1  0  0  0
 17 19  2  0  0  0
 19 20  1  0  0  0
 20 21  1  0  0  0
 21 22  1  0  0  0
  8  9  1  0  0  0
M  END
> <minimizedAffinity>
-10.04361

$$$$
