CHEMBL3960972


 30 32  0  0  0  0  0  0  0  0999 V2000
  -15.4157   -0.4615  -12.8005 C   0  0  0  0  0  0  0  0  0  0  0  0
  -15.9837    0.3570  -13.9499 C   0  0  0  0  0  0  0  0  0  0  0  0
  -17.3284    0.3092  -14.1726 N   0  0  0  0  0  0  0  0  0  0  0  0
  -17.8637    1.1193  -15.1184 C   0  0  0  0  0  0  0  0  0  0  0  0
  -17.1491    2.0051  -15.8245 N   0  0  0  0  0  0  0  0  0  0  0  0
  -15.8242    2.0403  -15.5869 C   0  0  0  0  0  0  0  0  0  0  0  0
  -15.1852    1.2312  -14.6660 C   0  0  0  0  0  0  0  0  0  0  0  0
  -13.4804    1.3981  -14.4720 Cl  0  0  0  0  0  0  0  0  0  0  0  0
  -19.2146    1.0562  -15.4821 N   0  0  0  0  0  0  0  0  0  0  0  0
  -19.3597    0.1874  -15.9791 H   0  0  0  0  0  0  0  0  0  0  0  0
  -20.2449    1.7736  -15.0125 C   0  0  0  0  0  0  0  0  0  0  0  0
  -20.4273    3.1567  -15.0710 C   0  0  0  0  0  0  0  0  0  0  0  0
  -21.5499    3.5535  -14.4638 N   0  0  0  0  0  0  0  0  0  0  0  0
  -22.0529    2.4177  -13.9689 N   0  0  0  0  0  0  0  0  0  0  0  0
  -21.3624    1.3074  -14.3660 C   0  0  0  0  0  0  0  0  0  0  0  0
  -22.8739    2.4807  -13.3767 H   0  0  0  0  0  0  0  0  0  0  0  0
  -14.6703   -1.7924  -13.0996 C   0  0  0  0  0  0  0  0  0  0  0  0
  -14.9974   -3.9138  -11.6287 C   0  0  0  0  0  0  0  0  0  0  0  0
  -15.6682   -5.1421  -11.4237 C   0  0  0  0  0  0  0  0  0  0  0  0
  -16.6156   -5.6160  -12.3210 C   0  0  0  0  0  0  0  0  0  0  0  0
  -16.9237   -4.8708  -13.4456 C   0  0  0  0  0  0  0  0  0  0  0  0
  -16.2915   -3.6484  -13.6711 C   0  0  0  0  0  0  0  0  0  0  0  0
  -15.3392   -3.1256  -12.7716 C   0  0  0  0  0  0  0  0  0  0  0  0
  -14.3147   -4.3371   -9.2892 C   0  0  0  0  0  0  0  0  0  0  0  0
  -14.0525   -3.4666  -10.5043 C   0  0  0  0  0  0  0  0  0  0  0  0
  -12.5543   -3.5228  -10.8200 C   0  0  0  0  0  0  0  0  0  0  0  0
  -12.1667   -4.5192  -11.6638 N   0  0  0  0  0  0  0  0  0  0  0  0
  -11.7092   -2.7270  -10.4147 O   0  0  0  0  0  0  0  0  0  0  0  0
  -12.7213   -5.3602  -11.7272 H   0  0  0  0  0  0  0  0  0  0  0  0
  -11.1663   -4.5998  -11.7942 H   0  0  0  0  0  0  0  0  0  0  0  0
 24 25  1  0  0  0
 25 26  1  0  0  0
 25 18  1  0  0  0
 26 27  1  0  0  0
 26 28  2  0  0  0
 27 29  1  0  0  0
 27 30  1  0  0  0
 18 19  1  0  0  0
 18 23  2  0  0  0
 19 20  2  0  0  0
 20 21  1  0  0  0
 21 22  2  0  0  0
 22 23  1  0  0  0
 23 17  1  0  0  0
 17  1  1  0  0  0
  1  2  1  0  0  0
  2  3  1  0  0  0
  2  7  2  0  0  0
  3  4  2  0  0  0
  4  9  1  0  0  0
  4  5  1  0  0  0
  9 11  1  0  0  0
  9 10  1  0  0  0
 11 12  1  0  0  0
 11 15  2  0  0  0
 12 13  2  0  0  0
 13 14  1  0  0  0
 14 15  1  0  0  0
 14 16  1  0  0  0
  5  6  2  0  0  0
  6  7  1  0  0  0
  7  8  1  0  0  0
M  END
> <minimizedAffinity>
-7.51602

$$$$
