CHEMBL1966343


 22 24  0  0  0  0  0  0  0  0999 V2000
  -27.8946   -2.0466   -8.4412 C   0  0  0  0  0  0  0  0  0  0  0  0
  -27.8322   -1.1117   -7.3954 C   0  0  0  0  0  0  0  0  0  0  0  0
  -28.3930   -1.3654   -6.1356 C   0  0  0  0  0  0  0  0  0  0  0  0
  -29.0255   -2.5977   -5.9608 C   0  0  0  0  0  0  0  0  0  0  0  0
  -29.6877   -3.1436   -4.8939 N   0  0  0  0  0  0  0  0  0  0  0  0
  -30.1736   -4.3762   -5.1159 N   0  0  0  0  0  0  0  0  0  0  0  0
  -29.8291   -4.6299   -6.3773 C   0  0  0  0  0  0  0  0  0  0  0  0
  -30.1541   -5.7652   -7.0072 N   0  0  0  0  0  0  0  0  0  0  0  0
  -29.0998   -3.5605   -6.9582 C   0  0  0  0  0  0  0  0  0  0  0  0
  -28.5153   -3.2891   -8.2109 C   0  0  0  0  0  0  0  0  0  0  0  0
  -29.8477   -2.7225   -3.9867 H   0  0  0  0  0  0  0  0  0  0  0  0
  -30.5224   -6.5209   -6.4408 H   0  0  0  0  0  0  0  0  0  0  0  0
  -29.6886   -6.0565   -7.8548 H   0  0  0  0  0  0  0  0  0  0  0  0
  -26.3040   -1.3510  -11.6619 C   0  0  0  0  0  0  0  0  0  0  0  0
  -26.1028   -1.5901  -10.2857 C   0  0  0  0  0  0  0  0  0  0  0  0
  -27.3668   -1.7444   -9.7667 C   0  0  0  0  0  0  0  0  0  0  0  0
  -28.2698   -1.5984  -10.7795 O   0  0  0  0  0  0  0  0  0  0  0  0
  -27.6050   -1.3598  -11.9714 N   0  0  0  0  0  0  0  0  0  0  0  0
  -25.2621   -1.1004  -12.7000 C   0  0  0  0  0  0  0  0  0  0  0  0
  -22.9226   -1.5487  -11.8162 C   0  0  0  0  0  0  0  0  0  0  0  0
  -23.9688   -0.4793  -12.1416 C   0  0  0  0  0  0  0  0  0  0  0  0
  -23.3879    0.5214  -13.1429 C   0  0  0  0  0  0  0  0  0  0  0  0
 20 21  1  0  0  0
 21 22  1  0  0  0
 21 19  1  0  0  0
 19 14  1  0  0  0
 14 15  1  0  0  0
 14 18  2  0  0  0
 15 16  2  0  0  0
 16  1  1  0  0  0
 16 17  1  0  0  0
  1  2  1  0  0  0
  1 10  2  0  0  0
  2  3  2  0  0  0
  3  4  1  0  0  0
  4  5  1  0  0  0
  4  9  2  0  0  0
  5  6  1  0  0  0
  5 11  1  0  0  0
  6  7  2  0  0  0
  7  8  1  0  0  0
  7  9  1  0  0  0
  8 12  1  0  0  0
  8 13  1  0  0  0
  9 10  1  0  0  0
 17 18  1  0  0  0
M  END
> <minimizedAffinity>
-7.86360

$$$$
