CHEMBL2386801


 42 46  0  0  0  0  0  0  0  0999 V2000
  -23.5840   -0.2467  -13.2320 C   0  0  0  0  0  0  0  0  0  0  0  0
  -23.8143   -0.5053  -11.8534 C   0  0  0  0  0  0  0  0  0  0  0  0
  -24.9403   -1.2870  -11.7826 C   0  0  0  0  0  0  0  0  0  0  0  0
  -25.3190   -1.4695  -13.0849 N   0  0  0  0  0  0  0  0  0  0  0  0
  -24.5253   -0.8573  -13.9755 N   0  0  0  0  0  0  0  0  0  0  0  0
  -26.1082   -1.9933  -13.4444 H   0  0  0  0  0  0  0  0  0  0  0  0
  -20.3976    2.1588  -14.8251 C   0  0  0  0  0  0  0  0  0  0  0  0
  -20.3639    0.7667  -14.9441 C   0  0  0  0  0  0  0  0  0  0  0  0
  -21.4076   -0.0171  -14.4383 C   0  0  0  0  0  0  0  0  0  0  0  0
  -22.5182    0.5765  -13.8138 C   0  0  0  0  0  0  0  0  0  0  0  0
  -22.5689    1.9742  -13.7436 C   0  0  0  0  0  0  0  0  0  0  0  0
  -21.5259    2.7579  -14.2507 C   0  0  0  0  0  0  0  0  0  0  0  0
  -19.2456    2.9973  -15.3135 C   0  0  0  0  0  0  0  0  0  0  0  0
  -15.7325    1.9517  -15.4394 N   0  0  0  0  0  0  0  0  0  0  0  0
  -16.8897    2.5625  -15.8280 C   0  0  0  0  0  0  0  0  0  0  0  0
  -16.8917    3.3050  -16.8079 O   0  0  0  0  0  0  0  0  0  0  0  0
  -17.9832    2.3705  -15.0429 N   0  0  0  0  0  0  0  0  0  0  0  0
  -14.9183    2.2269  -15.9689 H   0  0  0  0  0  0  0  0  0  0  0  0
  -17.9547    1.5831  -14.4003 H   0  0  0  0  0  0  0  0  0  0  0  0
  -15.7418   -1.9518  -12.3406 C   0  0  0  0  0  0  0  0  0  0  0  0
  -15.6410   -0.6765  -13.0673 C   0  0  0  0  0  0  0  0  0  0  0  0
  -16.1495   -0.1806  -14.2441 C   0  0  0  0  0  0  0  0  0  0  0  0
  -15.5605    1.0998  -14.3676 C   0  0  0  0  0  0  0  0  0  0  0  0
  -14.7952    1.3707  -13.3041 N   0  0  0  0  0  0  0  0  0  0  0  0
  -14.8491    0.2626  -12.4927 O   0  0  0  0  0  0  0  0  0  0  0  0
  -25.5835   -1.7902  -10.6571 N   0  0  0  0  0  0  0  0  0  0  0  0
  -26.9802   -1.5609  -10.3936 C   0  0  0  0  0  0  0  0  0  0  0  0
  -27.6844   -0.9338  -11.1710 O   0  0  0  0  0  0  0  0  0  0  0  0
  -25.0512   -2.3754  -10.0297 H   0  0  0  0  0  0  0  0  0  0  0  0
  -27.5518   -2.1443   -9.1644 C   0  0  0  0  0  0  0  0  0  0  0  0
  -27.7930   -1.3830   -8.0235 C   0  0  0  0  0  0  0  0  0  0  0  0
  -28.3601   -1.9959   -6.9042 C   0  0  0  0  0  0  0  0  0  0  0  0
  -28.7087   -3.3581   -6.8914 C   0  0  0  0  0  0  0  0  0  0  0  0
  -28.4711   -4.0945   -8.0557 C   0  0  0  0  0  0  0  0  0  0  0  0
  -27.8992   -3.4993   -9.1821 C   0  0  0  0  0  0  0  0  0  0  0  0
  -29.3300   -3.8881   -5.7812 N   0  0  0  0  0  0  0  0  0  0  0  0
  -29.3284   -5.3317   -5.4928 C   0  0  0  0  0  0  0  0  0  0  0  0
  -30.6318   -5.6922   -4.7369 C   0  0  0  0  0  0  0  0  0  0  0  0
  -30.8240   -4.8899   -3.5054 N   0  0  0  0  0  0  0  0  0  0  0  0
  -32.0995   -5.2185   -2.8732 C   0  0  0  0  0  0  0  0  0  0  0  0
  -30.7722   -3.4481   -3.8386 C   0  0  0  0  0  0  0  0  0  0  0  0
  -29.4685   -3.0605   -4.5689 C   0  0  0  0  0  0  0  0  0  0  0  0
 20 21  1  0  0  0
 21 22  2  0  0  0
 21 25  1  0  0  0
 22 23  1  0  0  0
 23 14  1  0  0  0
 23 24  2  0  0  0
 14 15  1  0  0  0
 14 18  1  0  0  0
 15 16  2  0  0  0
 15 17  1  0  0  0
 17 13  1  0  0  0
 17 19  1  0  0  0
 13  7  1  0  0  0
  7  8  1  0  0  0
  7 12  2  0  0  0
  8  9  2  0  0  0
  9 10  1  0  0  0
 10  1  1  0  0  0
 10 11  2  0  0  0
  1  2  1  0  0  0
  1  5  2  0  0  0
  2  3  2  0  0  0
  3 26  1  0  0  0
  3  4  1  0  0  0
 26 27  1  0  0  0
 26 29  1  0  0  0
 27 28  2  0  0  0
 27 30  1  0  0  0
 30 31  1  0  0  0
 30 35  2  0  0  0
 31 32  2  0  0  0
 32 33  1  0  0  0
 33 36  1  0  0  0
 33 34  2  0  0  0
 36 37  1  0  0  0
 36 42  1  0  0  0
 37 38  1  0  0  0
 38 39  1  0  0  0
 39 40  1  0  0  0
 39 41  1  0  0  0
 41 42  1  0  0  0
 34 35  1  0  0  0
  4  5  1  0  0  0
  4  6  1  0  0  0
 11 12  1  0  0  0
 24 25  1  0  0  0
M  END
> <minimizedAffinity>
-11.66488

$$$$
