CHEMBL422758


 32 35  0  0  0  0  0  0  0  0999 V2000
  -30.5945   -7.6734   -6.2883 C   0  0  0  0  0  0  0  0  0  0  0  0
  -29.8552   -8.8034   -6.6228 C   0  0  0  0  0  0  0  0  0  0  0  0
  -28.5983   -9.0747   -6.0494 C   0  0  0  0  0  0  0  0  0  0  0  0
  -27.8290  -10.1983   -6.3855 C   0  0  0  0  0  0  0  0  0  0  0  0
  -26.6622  -10.4749   -5.7778 N   0  0  0  0  0  0  0  0  0  0  0  0
  -26.2715   -9.6066   -4.8371 C   0  0  0  0  0  0  0  0  0  0  0  0
  -26.9092   -8.4861   -4.4699 N   0  0  0  0  0  0  0  0  0  0  0  0
  -28.0726   -8.2231   -5.0772 C   0  0  0  0  0  0  0  0  0  0  0  0
  -28.8014   -7.0831   -4.7562 C   0  0  0  0  0  0  0  0  0  0  0  0
  -30.0313   -6.7696   -5.3681 C   0  0  0  0  0  0  0  0  0  0  0  0
  -32.7238   -8.4675   -7.1776 C   0  0  0  0  0  0  0  0  0  0  0  0
  -31.8341   -7.4211   -6.8020 O   0  0  0  0  0  0  0  0  0  0  0  0
  -28.2829  -11.0447   -7.4407 N   0  0  0  0  0  0  0  0  0  0  0  0
  -29.2287  -11.3588   -7.2246 H   0  0  0  0  0  0  0  0  0  0  0  0
  -28.1355  -10.7408   -8.8108 C   0  0  0  0  0  0  0  0  0  0  0  0
  -26.8788  -10.5494   -9.3978 C   0  0  0  0  0  0  0  0  0  0  0  0
  -25.7601  -10.7526   -8.6829 F   0  0  0  0  0  0  0  0  0  0  0  0
  -26.7465  -10.1808  -10.7315 C   0  0  0  0  0  0  0  0  0  0  0  0
  -27.8894  -10.0149  -11.5078 C   0  0  0  0  0  0  0  0  0  0  0  0
  -27.7386   -9.5010  -13.1413 Cl  0  0  0  0  0  0  0  0  0  0  0  0
  -29.1515  -10.2596  -10.9731 C   0  0  0  0  0  0  0  0  0  0  0  0
  -29.2600  -10.6301   -9.6361 C   0  0  0  0  0  0  0  0  0  0  0  0
  -30.4780  -10.8641   -9.1231 F   0  0  0  0  0  0  0  0  0  0  0  0
  -30.5468   -5.5607   -4.9447 O   0  0  0  0  0  0  0  0  0  0  0  0
  -29.8366   -4.3913   -5.3542 C   0  0  0  0  0  0  0  0  0  0  0  0
  -29.2239   -3.6414   -4.1521 C   0  0  0  0  0  0  0  0  0  0  0  0
  -29.8643   -2.2791   -3.8599 C   0  0  0  0  0  0  0  0  0  0  0  0
  -29.5503   -1.2343   -4.9349 C   0  0  0  0  0  0  0  0  0  0  0  0
  -28.1137   -1.1130   -5.2275 N   0  0  0  0  0  0  0  0  0  0  0  0
  -27.9123   -0.2025   -6.3595 C   0  0  0  0  0  0  0  0  0  0  0  0
  -27.4676   -2.4017   -5.5011 C   0  0  0  0  0  0  0  0  0  0  0  0
  -27.7223   -3.4179   -4.3842 C   0  0  0  0  0  0  0  0  0  0  0  0
 11 12  1  0  0  0
 12  1  1  0  0  0
  1  2  1  0  0  0
  1 10  2  0  0  0
  2  3  2  0  0  0
  3  4  1  0  0  0
  3  8  1  0  0  0
  4 13  1  0  0  0
  4  5  2  0  0  0
 13 15  1  0  0  0
 13 14  1  0  0  0
 15 16  1  0  0  0
 15 22  2  0  0  0
 16 17  1  0  0  0
 16 18  2  0  0  0
 18 19  1  0  0  0
 19 20  1  0  0  0
 19 21  2  0  0  0
 21 22  1  0  0  0
 22 23  1  0  0  0
  5  6  1  0  0  0
  6  7  2  0  0  0
  7  8  1  0  0  0
  8  9  2  0  0  0
  9 10  1  0  0  0
 10 24  1  0  0  0
 24 25  1  0  0  0
 25 26  1  0  0  0
 26 27  1  0  0  0
 26 32  1  0  0  0
 27 28  1  0  0  0
 28 29  1  0  0  0
 29 30  1  0  0  0
 29 31  1  0  0  0
 31 32  1  0  0  0
M  END
> <minimizedAffinity>
-8.10174

$$$$
