CHEMBL3989926


 48 53  0  0  0  0  0  0  0  0999 V2000
  -27.1819   -1.8956   -9.0633 C   0  0  0  0  0  0  0  0  0  0  0  0
  -27.5170   -3.2460   -9.2116 C   0  0  0  0  0  0  0  0  0  0  0  0
  -28.3161   -3.8776   -8.2715 C   0  0  0  0  0  0  0  0  0  0  0  0
  -28.7165   -3.1662   -7.1455 C   0  0  0  0  0  0  0  0  0  0  0  0
  -28.3553   -1.8289   -6.9699 C   0  0  0  0  0  0  0  0  0  0  0  0
  -27.5818   -1.1986   -7.9285 C   0  0  0  0  0  0  0  0  0  0  0  0
  -27.2342    0.0791   -7.7183 F   0  0  0  0  0  0  0  0  0  0  0  0
  -29.4618   -3.8386   -6.1792 N   0  0  0  0  0  0  0  0  0  0  0  0
  -28.8756   -4.2749   -5.0105 C   0  0  0  0  0  0  0  0  0  0  0  0
  -27.7050   -4.1544   -4.6805 O   0  0  0  0  0  0  0  0  0  0  0  0
  -30.3084   -4.3203   -6.4704 H   0  0  0  0  0  0  0  0  0  0  0  0
  -29.8045   -5.0284   -4.1377 C   0  0  0  0  0  0  0  0  0  0  0  0
  -31.3031   -4.7550   -4.2935 C   0  0  0  0  0  0  0  0  0  0  0  0
  -30.5697   -4.2079   -3.1103 C   0  0  0  0  0  0  0  0  0  0  0  0
  -29.4130   -6.4479   -3.8980 C   0  0  0  0  0  0  0  0  0  0  0  0
  -29.7748   -6.9779   -2.8536 O   0  0  0  0  0  0  0  0  0  0  0  0
  -28.6856   -7.0462   -4.9081 N   0  0  0  0  0  0  0  0  0  0  0  0
  -28.2459   -6.4372   -5.5884 H   0  0  0  0  0  0  0  0  0  0  0  0
  -28.2226   -8.3707   -4.7942 C   0  0  0  0  0  0  0  0  0  0  0  0
  -29.0461   -9.4633   -5.0991 C   0  0  0  0  0  0  0  0  0  0  0  0
  -28.6138  -10.7634   -4.8387 C   0  0  0  0  0  0  0  0  0  0  0  0
  -27.3684  -10.9594   -4.2577 C   0  0  0  0  0  0  0  0  0  0  0  0
  -26.9814  -12.1990   -3.9307 F   0  0  0  0  0  0  0  0  0  0  0  0
  -26.5222   -9.8855   -3.9975 C   0  0  0  0  0  0  0  0  0  0  0  0
  -26.9338   -8.5860   -4.3032 C   0  0  0  0  0  0  0  0  0  0  0  0
  -26.4043   -1.4355  -10.0791 O   0  0  0  0  0  0  0  0  0  0  0  0
  -24.0331    0.0038  -13.5800 C   0  0  0  0  0  0  0  0  0  0  0  0
  -24.9480   -0.6413  -14.3944 C   0  0  0  0  0  0  0  0  0  0  0  0
  -26.0529   -1.1743  -13.6639 C   0  0  0  0  0  0  0  0  0  0  0  0
  -27.0732   -1.9189  -14.1725 N   0  0  0  0  0  0  0  0  0  0  0  0
  -27.9118   -2.4520  -13.2553 C   0  0  0  0  0  0  0  0  0  0  0  0
  -27.7910   -2.3283  -11.8821 C   0  0  0  0  0  0  0  0  0  0  0  0
  -26.7775   -1.5225  -11.3848 C   0  0  0  0  0  0  0  0  0  0  0  0
  -25.9161   -0.9286  -12.3061 C   0  0  0  0  0  0  0  0  0  0  0  0
  -24.5922    0.0963  -11.9715 S   0  0  0  0  0  0  0  0  0  0  0  0
  -20.2205    1.4363  -14.5773 C   0  0  0  0  0  0  0  0  0  0  0  0
  -21.1511    2.3322  -14.0402 C   0  0  0  0  0  0  0  0  0  0  0  0
  -22.4138    1.8738  -13.6697 C   0  0  0  0  0  0  0  0  0  0  0  0
  -22.7043    0.5328  -13.8698 C   0  0  0  0  0  0  0  0  0  0  0  0
  -21.8326   -0.3467  -14.4156 N   0  0  0  0  0  0  0  0  0  0  0  0
  -20.6172    0.1195  -14.7598 C   0  0  0  0  0  0  0  0  0  0  0  0
  -18.8194    1.8659  -14.9041 C   0  0  0  0  0  0  0  0  0  0  0  0
  -17.8330    1.3140  -13.9713 N   0  0  0  0  0  0  0  0  0  0  0  0
  -17.3946    2.0865  -13.4717 H   0  0  0  0  0  0  0  0  0  0  0  0
  -16.7885    0.5354  -14.6545 C   0  0  0  0  0  0  0  0  0  0  0  0
  -15.4215    0.8387  -14.0360 C   0  0  0  0  0  0  0  0  0  0  0  0
  -15.5525   -0.9276  -12.4949 C   0  0  0  0  0  0  0  0  0  0  0  0
  -15.4292    0.4802  -12.6540 O   0  0  0  0  0  0  0  0  0  0  0  0
 47 48  1  0  0  0
 48 46  1  0  0  0
 46 45  1  0  0  0
 45 43  1  0  0  0
 43 42  1  0  0  0
 43 44  1  0  0  0
 42 36  1  0  0  0
 36 37  1  0  0  0
 36 41  2  0  0  0
 37 38  2  0  0  0
 38 39  1  0  0  0
 39 27  1  0  0  0
 39 40  2  0  0  0
 27 28  2  0  0  0
 27 35  1  0  0  0
 28 29  1  0  0  0
 29 30  1  0  0  0
 29 34  2  0  0  0
 30 31  2  0  0  0
 31 32  1  0  0  0
 32 33  2  0  0  0
 33 26  1  0  0  0
 33 34  1  0  0  0
 26  1  1  0  0  0
  1  2  1  0  0  0
  1  6  2  0  0  0
  2  3  2  0  0  0
  3  4  1  0  0  0
  4  8  1  0  0  0
  4  5  2  0  0  0
  8  9  1  0  0  0
  8 11  1  0  0  0
  9 10  2  0  0  0
  9 12  1  0  0  0
 12 15  1  0  0  0
 12 13  1  0  0  0
 12 14  1  0  0  0
 15 16  2  0  0  0
 15 17  1  0  0  0
 17 19  1  0  0  0
 17 18  1  0  0  0
 19 20  1  0  0  0
 19 25  2  0  0  0
 20 21  2  0  0  0
 21 22  1  0  0  0
 22 23  1  0  0  0
 22 24  2  0  0  0
 24 25  1  0  0  0
 13 14  1  0  0  0
  5  6  1  0  0  0
  6  7  1  0  0  0
 34 35  1  0  0  0
 40 41  1  0  0  0
M  END
> <minimizedAffinity>
-8.52648

$$$$
