CHEMBL188381


 45 48  0  0  0  0  0  0  0  0999 V2000
  -28.8233   -2.7885   -6.1220 C   0  0  0  0  0  0  0  0  0  0  0  0
  -29.1415   -3.6818   -7.1436 C   0  0  0  0  0  0  0  0  0  0  0  0
  -28.8587   -3.3839   -8.4787 C   0  0  0  0  0  0  0  0  0  0  0  0
  -28.2604   -2.1767   -8.8475 C   0  0  0  0  0  0  0  0  0  0  0  0
  -27.9555   -1.2613   -7.8414 C   0  0  0  0  0  0  0  0  0  0  0  0
  -28.2285   -1.5703   -6.4991 C   0  0  0  0  0  0  0  0  0  0  0  0
  -27.9234   -1.8529  -10.1838 N   0  0  0  0  0  0  0  0  0  0  0  0
  -26.6404   -1.6430  -10.6477 C   0  0  0  0  0  0  0  0  0  0  0  0
  -25.6201   -1.8191   -9.9896 O   0  0  0  0  0  0  0  0  0  0  0  0
  -26.6146   -1.1551  -11.9491 N   0  0  0  0  0  0  0  0  0  0  0  0
  -28.6635   -1.8679  -10.8694 H   0  0  0  0  0  0  0  0  0  0  0  0
  -27.3676   -0.5189  -12.1690 H   0  0  0  0  0  0  0  0  0  0  0  0
  -25.3562   -0.8660  -12.5316 C   0  0  0  0  0  0  0  0  0  0  0  0
  -24.4322   -0.0446  -11.8741 C   0  0  0  0  0  0  0  0  0  0  0  0
  -23.2621    0.3727  -12.5121 C   0  0  0  0  0  0  0  0  0  0  0  0
  -22.9842   -0.0672  -13.8018 C   0  0  0  0  0  0  0  0  0  0  0  0
  -23.9056   -0.8972  -14.4535 C   0  0  0  0  0  0  0  0  0  0  0  0
  -25.0757   -1.3218  -13.8158 C   0  0  0  0  0  0  0  0  0  0  0  0
  -21.8993    0.2716  -14.5492 O   0  0  0  0  0  0  0  0  0  0  0  0
  -21.4020    1.6011  -14.5045 C   0  0  0  0  0  0  0  0  0  0  0  0
  -22.3386    2.5362  -14.2424 F   0  0  0  0  0  0  0  0  0  0  0  0
  -20.4742    1.6693  -13.5222 F   0  0  0  0  0  0  0  0  0  0  0  0
  -20.7966    1.8998  -15.6738 F   0  0  0  0  0  0  0  0  0  0  0  0
  -28.4395   -2.2551   -3.7465 C   0  0  0  0  0  0  0  0  0  0  0  0
  -29.0903   -3.0755   -4.7714 N   0  0  0  0  0  0  0  0  0  0  0  0
  -29.7222   -4.2351   -4.2531 C   0  0  0  0  0  0  0  0  0  0  0  0
  -31.0748   -4.2059   -3.9627 C   0  0  0  0  0  0  0  0  0  0  0  0
  -31.6375   -5.3544   -3.4824 C   0  0  0  0  0  0  0  0  0  0  0  0
  -30.9416   -6.4769   -3.2892 N   0  0  0  0  0  0  0  0  0  0  0  0
  -29.6373   -6.4510   -3.5950 C   0  0  0  0  0  0  0  0  0  0  0  0
  -29.0044   -5.3691   -4.0731 N   0  0  0  0  0  0  0  0  0  0  0  0
  -28.8781   -7.6049   -3.3827 N   0  0  0  0  0  0  0  0  0  0  0  0
  -28.4180   -7.5694   -2.4860 H   0  0  0  0  0  0  0  0  0  0  0  0
  -28.2776   -8.4189   -4.3599 C   0  0  0  0  0  0  0  0  0  0  0  0
  -27.2432   -9.3135   -4.0452 C   0  0  0  0  0  0  0  0  0  0  0  0
  -26.6219  -10.0844   -5.0301 C   0  0  0  0  0  0  0  0  0  0  0  0
  -27.0202   -9.9625   -6.3553 C   0  0  0  0  0  0  0  0  0  0  0  0
  -28.0468   -9.0728   -6.6765 C   0  0  0  0  0  0  0  0  0  0  0  0
  -28.6946   -8.3203   -5.6881 C   0  0  0  0  0  0  0  0  0  0  0  0
  -28.5480   -8.9175   -8.3716 S   0  0  0  0  0  0  0  0  0  0  0  0
  -27.7951   -7.4899   -8.8075 N   0  0  0  0  0  0  0  0  0  0  0  0
  -27.9155   -9.9715   -9.1310 O   0  0  0  0  0  0  0  0  0  0  0  0
  -29.9718   -8.6791   -8.4023 O   0  0  0  0  0  0  0  0  0  0  0  0
  -26.8184   -7.5928   -9.0713 H   0  0  0  0  0  0  0  0  0  0  0  0
  -28.0775   -6.6674   -8.2824 H   0  0  0  0  0  0  0  0  0  0  0  0
 24 25  1  0  0  0
 25  1  1  0  0  0
 25 26  1  0  0  0
  1  2  1  0  0  0
  1  6  2  0  0  0
  2  3  2  0  0  0
  3  4  1  0  0  0
  4  7  1  0  0  0
  4  5  2  0  0  0
  7  8  1  0  0  0
  7 11  1  0  0  0
  8  9  2  0  0  0
  8 10  1  0  0  0
 10 13  1  0  0  0
 10 12  1  0  0  0
 13 14  1  0  0  0
 13 18  2  0  0  0
 14 15  2  0  0  0
 15 16  1  0  0  0
 16 19  1  0  0  0
 16 17  2  0  0  0
 19 20  1  0  0  0
 20 21  1  0  0  0
 20 22  1  0  0  0
 20 23  1  0  0  0
 17 18  1  0  0  0
  5  6  1  0  0  0
 26 27  1  0  0  0
 26 31  2  0  0  0
 27 28  2  0  0  0
 28 29  1  0  0  0
 29 30  2  0  0  0
 30 32  1  0  0  0
 30 31  1  0  0  0
 32 34  1  0  0  0
 32 33  1  0  0  0
 34 35  1  0  0  0
 34 39  2  0  0  0
 35 36  2  0  0  0
 36 37  1  0  0  0
 37 38  2  0  0  0
 38 40  1  0  0  0
 38 39  1  0  0  0
 40 41  1  0  0  0
 40 42  2  0  0  0
 40 43  2  0  0  0
 41 44  1  0  0  0
 41 45  1  0  0  0
M  END
> <minimizedAffinity>
-11.36302

$$$$
