CHEMBL2337371


 32 35  0  0  0  0  0  0  0  0999 V2000
  -27.5842   -2.8983   -8.6299 C   0  0  0  0  0  0  0  0  0  0  0  0
  -28.2648   -4.0520   -8.7252 N   0  0  0  0  0  0  0  0  0  0  0  0
  -29.0226   -4.4992   -7.6751 C   0  0  0  0  0  0  0  0  0  0  0  0
  -29.1234   -3.6818   -6.5279 C   0  0  0  0  0  0  0  0  0  0  0  0
  -28.3997   -2.5053   -6.5955 C   0  0  0  0  0  0  0  0  0  0  0  0
  -27.6296   -2.0751   -7.5923 N   0  0  0  0  0  0  0  0  0  0  0  0
  -28.5729   -1.8030   -5.4464 N   0  0  0  0  0  0  0  0  0  0  0  0
  -29.4265   -2.4699   -4.6061 C   0  0  0  0  0  0  0  0  0  0  0  0
  -29.8910   -2.0817   -3.3416 C   0  0  0  0  0  0  0  0  0  0  0  0
  -30.7694   -2.9313   -2.6717 C   0  0  0  0  0  0  0  0  0  0  0  0
  -31.1668   -4.1296   -3.2479 C   0  0  0  0  0  0  0  0  0  0  0  0
  -30.6885   -4.4935   -4.5116 C   0  0  0  0  0  0  0  0  0  0  0  0
  -31.2074   -5.9654   -5.2031 Cl  0  0  0  0  0  0  0  0  0  0  0  0
  -29.7950   -3.6712   -5.2422 C   0  0  0  0  0  0  0  0  0  0  0  0
  -28.1329   -0.9122   -5.2689 H   0  0  0  0  0  0  0  0  0  0  0  0
  -27.1604   -1.6525  -10.6931 C   0  0  0  0  0  0  0  0  0  0  0  0
  -28.1859   -0.9731  -10.6486 O   0  0  0  0  0  0  0  0  0  0  0  0
  -26.7988   -2.5792   -9.7427 N   0  0  0  0  0  0  0  0  0  0  0  0
  -25.8786   -2.9884   -9.7154 H   0  0  0  0  0  0  0  0  0  0  0  0
  -25.8162   -0.0036  -12.0176 C   0  0  0  0  0  0  0  0  0  0  0  0
  -26.1869   -1.4961  -11.8851 C   0  0  0  0  0  0  0  0  0  0  0  0
  -26.8718   -1.9446  -13.1824 C   0  0  0  0  0  0  0  0  0  0  0  0
  -24.8956   -2.2946  -11.6670 C   0  0  0  0  0  0  0  0  0  0  0  0
  -29.6158   -5.7651   -7.7724 N   0  0  0  0  0  0  0  0  0  0  0  0
  -30.2414   -5.8441   -8.5689 H   0  0  0  0  0  0  0  0  0  0  0  0
  -29.0363   -7.0071   -7.4509 C   0  0  0  0  0  0  0  0  0  0  0  0
  -28.9468   -7.9924   -8.4456 C   0  0  0  0  0  0  0  0  0  0  0  0
  -28.3616   -9.2328   -8.1757 C   0  0  0  0  0  0  0  0  0  0  0  0
  -27.8435   -9.4914   -6.9092 C   0  0  0  0  0  0  0  0  0  0  0  0
  -27.9208   -8.5116   -5.9274 C   0  0  0  0  0  0  0  0  0  0  0  0
  -27.4083   -8.7525   -4.7133 F   0  0  0  0  0  0  0  0  0  0  0  0
  -28.5131   -7.2813   -6.1846 C   0  0  0  0  0  0  0  0  0  0  0  0
 20 21  1  0  0  0
 21 22  1  0  0  0
 21 23  1  0  0  0
 21 16  1  0  0  0
 16 17  2  0  0  0
 16 18  1  0  0  0
 18  1  1  0  0  0
 18 19  1  0  0  0
  1  2  1  0  0  0
  1  6  2  0  0  0
  2  3  2  0  0  0
  3 24  1  0  0  0
  3  4  1  0  0  0
 24 26  1  0  0  0
 24 25  1  0  0  0
 26 27  1  0  0  0
 26 32  2  0  0  0
 27 28  2  0  0  0
 28 29  1  0  0  0
 29 30  2  0  0  0
 30 31  1  0  0  0
 30 32  1  0  0  0
  4  5  2  0  0  0
  4 14  1  0  0  0
  5  6  1  0  0  0
  5  7  1  0  0  0
  7  8  1  0  0  0
  7 15  1  0  0  0
  8  9  1  0  0  0
  8 14  2  0  0  0
  9 10  2  0  0  0
 10 11  1  0  0  0
 11 12  2  0  0  0
 12 13  1  0  0  0
 12 14  1  0  0  0
M  END
> <minimizedAffinity>
-8.54227

$$$$
