CHEMBL1940866


 22 24  0  0  0  0  0  0  0  0999 V2000
  -14.8856    2.7954  -17.0449 C   0  0  0  0  0  0  0  0  0  0  0  0
  -15.9612    2.2485  -16.1436 C   0  0  0  0  0  0  0  0  0  0  0  0
  -17.2515    2.7976  -16.1821 C   0  0  0  0  0  0  0  0  0  0  0  0
  -18.2515    2.2994  -15.3553 C   0  0  0  0  0  0  0  0  0  0  0  0
  -17.9707    1.2437  -14.4887 C   0  0  0  0  0  0  0  0  0  0  0  0
  -16.6809    0.6870  -14.4407 C   0  0  0  0  0  0  0  0  0  0  0  0
  -16.3638   -0.3784  -13.5766 C   0  0  0  0  0  0  0  0  0  0  0  0
  -15.0703   -0.9160  -13.5351 C   0  0  0  0  0  0  0  0  0  0  0  0
  -14.1398   -0.3035  -14.3754 C   0  0  0  0  0  0  0  0  0  0  0  0
  -12.4610   -0.6984  -14.4206 Cl  0  0  0  0  0  0  0  0  0  0  0  0
  -14.4147    0.7050  -15.2313 N   0  0  0  0  0  0  0  0  0  0  0  0
  -15.6603    1.1968  -15.2716 C   0  0  0  0  0  0  0  0  0  0  0  0
  -14.8189   -2.0283  -12.5973 C   0  0  0  0  0  0  0  0  0  0  0  0
  -15.6917   -2.4299  -11.6602 C   0  0  0  0  0  0  0  0  0  0  0  0
  -15.3824   -3.5226  -10.6865 C   0  0  0  0  0  0  0  0  0  0  0  0
  -15.4211   -3.2733   -9.4802 O   0  0  0  0  0  0  0  0  0  0  0  0
  -15.0163   -4.8159  -11.2431 C   0  0  0  0  0  0  0  0  0  0  0  0
  -13.5731   -5.5687  -10.6843 S   0  0  0  0  0  0  0  0  0  0  0  0
  -13.7858   -6.9147  -11.7151 C   0  0  0  0  0  0  0  0  0  0  0  0
  -14.9372   -6.8114  -12.4597 C   0  0  0  0  0  0  0  0  0  0  0  0
  -15.6538   -5.6115  -12.1792 C   0  0  0  0  0  0  0  0  0  0  0  0
  -17.1581   -5.3146  -12.9524 Cl  0  0  0  0  0  0  0  0  0  0  0  0
  1  2  1  0  0  0
  2  3  1  0  0  0
  2 12  2  0  0  0
  3  4  2  0  0  0
  4  5  1  0  0  0
  5  6  2  0  0  0
  6  7  1  0  0  0
  6 12  1  0  0  0
  7  8  2  0  0  0
  8 13  1  0  0  0
  8  9  1  0  0  0
 13 14  2  0  0  0
 14 15  1  0  0  0
 15 16  2  0  0  0
 15 17  1  0  0  0
 17 18  1  0  0  0
 17 21  2  0  0  0
 18 19  1  0  0  0
 19 20  2  0  0  0
 20 21  1  0  0  0
 21 22  1  0  0  0
  9 10  1  0  0  0
  9 11  2  0  0  0
 11 12  1  0  0  0
M  END
> <minimizedAffinity>
-7.63349

$$$$
