CHEMBL3971073


 33 37  0  0  0  0  0  0  0  0999 V2000
  -29.2692   -4.4325   -6.6919 C   0  0  0  0  0  0  0  0  0  0  0  0
  -28.4900   -5.1097   -7.5771 C   0  0  0  0  0  0  0  0  0  0  0  0
  -27.9933   -4.4273   -8.6434 C   0  0  0  0  0  0  0  0  0  0  0  0
  -28.0254   -3.0599   -8.7319 C   0  0  0  0  0  0  0  0  0  0  0  0
  -26.8189   -2.7162   -8.9736 N   0  0  0  0  0  0  0  0  0  0  0  0
  -26.6441   -2.5895  -10.2402 C   0  0  0  0  0  0  0  0  0  0  0  0
  -27.1499   -1.4933  -10.7414 C   0  0  0  0  0  0  0  0  0  0  0  0
  -28.3014   -1.0714   -9.7510 N   0  0  0  0  0  0  0  0  0  0  0  0
  -28.8177   -2.0697   -8.4289 C   0  0  0  0  0  0  0  0  0  0  0  0
  -29.5017   -2.9510   -7.0503 C   0  0  0  0  0  0  0  0  0  0  0  0
  -26.1208   -1.1877  -12.1513 C   0  0  0  0  0  0  0  0  0  0  0  0
  -26.1772   -1.5619  -13.5417 C   0  0  0  0  0  0  0  0  0  0  0  0
  -25.1502   -1.2537  -14.3762 N   0  0  0  0  0  0  0  0  0  0  0  0
  -24.2496   -0.5891  -13.6364 N   0  0  0  0  0  0  0  0  0  0  0  0
  -24.7616   -0.5448  -12.2740 C   0  0  0  0  0  0  0  0  0  0  0  0
  -22.9805   -0.0938  -14.2956 C   0  0  0  0  0  0  0  0  0  0  0  0
  -22.0686    0.6731  -13.3366 C   0  0  0  0  0  0  0  0  0  0  0  0
  -20.8894    0.9593  -13.9468 F   0  0  0  0  0  0  0  0  0  0  0  0
  -29.7703   -5.2618   -5.5662 N   0  0  0  0  0  0  0  0  0  0  0  0
  -30.2983   -9.0142   -6.1848 C   0  0  0  0  0  0  0  0  0  0  0  0
  -29.4338   -9.5041   -5.2369 C   0  0  0  0  0  0  0  0  0  0  0  0
  -28.7632   -8.6366   -4.3844 C   0  0  0  0  0  0  0  0  0  0  0  0
  -28.9776   -7.2651   -4.4674 C   0  0  0  0  0  0  0  0  0  0  0  0
  -29.7760   -6.6928   -5.4532 C   0  0  0  0  0  0  0  0  0  0  0  0
  -30.5191   -7.6308   -6.2335 C   0  0  0  0  0  0  0  0  0  0  0  0
  -32.2551   -9.3113   -7.5026 C   0  0  0  0  0  0  0  0  0  0  0  0
  -30.9630   -9.7680   -7.1129 O   0  0  0  0  0  0  0  0  0  0  0  0
  -27.8430   -9.0578   -3.4595 O   0  0  0  0  0  0  0  0  0  0  0  0
  -26.5200   -9.1828   -3.9786 C   0  0  0  0  0  0  0  0  0  0  0  0
  -30.7847   -4.5283   -4.6591 C   0  0  0  0  0  0  0  0  0  0  0  0
  -30.0580   -3.9443   -3.4706 C   0  0  0  0  0  0  0  0  0  0  0  0
  -29.6390   -2.4772   -3.3688 C   0  0  0  0  0  0  0  0  0  0  0  0
  -28.6055   -3.5700   -3.3398 C   0  0  0  0  0  0  0  0  0  0  0  0
 26 27  1  0  0  0
 27 20  1  0  0  0
 20 21  1  0  0  0
 20 25  2  0  0  0
 21 22  2  0  0  0
 22 28  1  0  0  0
 22 23  1  0  0  0
 28 29  1  0  0  0
 23 24  2  0  0  0
 24 19  1  0  0  0
 24 25  1  0  0  0
 19 30  1  0  0  0
 19  1  1  0  0  0
 30 31  1  0  0  0
 31 32  1  0  0  0
 31 33  1  0  0  0
 32 33  1  0  0  0
  1  2  1  0  0  0
  1 10  2  0  0  0
  2  3  2  0  0  0
  3  4  1  0  0  0
  4  5  1  0  0  0
  4  9  2  0  0  0
  5  6  2  0  0  0
  6  7  1  0  0  0
  7 11  1  0  0  0
  7  8  2  0  0  0
 11 12  1  0  0  0
 11 15  2  0  0  0
 12 13  2  0  0  0
 13 14  1  0  0  0
 14 16  1  0  0  0
 14 15  1  0  0  0
 16 17  1  0  0  0
 17 18  1  0  0  0
  8  9  1  0  0  0
  9 10  1  0  0  0
M  END
> <minimizedAffinity>
-6.89910

$$$$
