CHEMBL392789


 27 29  0  0  0  0  0  0  0  0999 V2000
  -15.3185    1.3237  -15.1539 C   0  0  0  0  0  0  0  0  0  0  0  0
  -14.4737    0.2233  -15.1864 C   0  0  0  0  0  0  0  0  0  0  0  0
  -13.2840    0.4919  -15.7844 N   0  0  0  0  0  0  0  0  0  0  0  0
  -13.3873    1.7340  -16.1844 C   0  0  0  0  0  0  0  0  0  0  0  0
  -14.5842    2.2900  -15.8162 N   0  0  0  0  0  0  0  0  0  0  0  0
  -14.9532    3.6410  -16.1602 C   0  0  0  0  0  0  0  0  0  0  0  0
  -17.6879    1.7301  -15.3711 N   0  0  0  0  0  0  0  0  0  0  0  0
  -16.6417    1.3430  -14.5552 C   0  0  0  0  0  0  0  0  0  0  0  0
  -16.7963    1.0538  -13.3702 O   0  0  0  0  0  0  0  0  0  0  0  0
  -17.5147    1.9096  -16.3449 H   0  0  0  0  0  0  0  0  0  0  0  0
  -23.1696    1.9515  -13.7219 C   0  0  0  0  0  0  0  0  0  0  0  0
  -21.7521    1.9264  -14.2094 C   0  0  0  0  0  0  0  0  0  0  0  0
  -20.9650    3.0826  -14.1616 C   0  0  0  0  0  0  0  0  0  0  0  0
  -19.6235    3.0519  -14.5533 C   0  0  0  0  0  0  0  0  0  0  0  0
  -19.0456    1.8652  -15.0009 C   0  0  0  0  0  0  0  0  0  0  0  0
  -19.8536    0.7263  -15.0955 C   0  0  0  0  0  0  0  0  0  0  0  0
  -19.3219   -0.4219  -15.5484 F   0  0  0  0  0  0  0  0  0  0  0  0
  -21.1883    0.7425  -14.6958 C   0  0  0  0  0  0  0  0  0  0  0  0
  -14.7577   -0.9979  -14.7028 N   0  0  0  0  0  0  0  0  0  0  0  0
  -15.6486   -1.4202  -14.9687 H   0  0  0  0  0  0  0  0  0  0  0  0
  -14.2748   -1.4071  -13.4015 C   0  0  0  0  0  0  0  0  0  0  0  0
  -15.1363   -2.5259  -12.8705 C   0  0  0  0  0  0  0  0  0  0  0  0
  -15.6259   -3.5041  -13.7408 C   0  0  0  0  0  0  0  0  0  0  0  0
  -16.3971   -4.5339  -13.2276 C   0  0  0  0  0  0  0  0  0  0  0  0
  -16.7051   -4.6561  -11.9166 N   0  0  0  0  0  0  0  0  0  0  0  0
  -16.2265   -3.7000  -11.0942 C   0  0  0  0  0  0  0  0  0  0  0  0
  -15.4499   -2.6303  -11.5129 C   0  0  0  0  0  0  0  0  0  0  0  0
 11 12  1  0  0  0
 12 13  1  0  0  0
 12 18  2  0  0  0
 13 14  2  0  0  0
 14 15  1  0  0  0
 15  7  1  0  0  0
 15 16  2  0  0  0
  7  8  1  0  0  0
  7 10  1  0  0  0
  8  9  2  0  0  0
  8  1  1  0  0  0
  1  2  2  0  0  0
  1  5  1  0  0  0
  2 19  1  0  0  0
  2  3  1  0  0  0
 19 21  1  0  0  0
 19 20  1  0  0  0
 21 22  1  0  0  0
 22 23  1  0  0  0
 22 27  2  0  0  0
 23 24  2  0  0  0
 24 25  1  0  0  0
 25 26  2  0  0  0
 26 27  1  0  0  0
  3  4  2  0  0  0
  4  5  1  0  0  0
  5  6  1  0  0  0
 16 17  1  0  0  0
 16 18  1  0  0  0
M  END
> <minimizedAffinity>
-8.13625

$$$$
