CHEMBL207975


 30 33  0  0  0  0  0  0  0  0999 V2000
  -26.4200   -1.8886  -10.8740 C   0  0  0  0  0  0  0  0  0  0  0  0
  -27.5890   -1.4642  -11.3064 N   0  0  0  0  0  0  0  0  0  0  0  0
  -28.3905   -1.3000  -10.1988 N   0  0  0  0  0  0  0  0  0  0  0  0
  -27.6634   -1.6356   -9.1537 C   0  0  0  0  0  0  0  0  0  0  0  0
  -26.3926   -2.0177   -9.5123 O   0  0  0  0  0  0  0  0  0  0  0  0
  -27.9895   -1.6493   -7.7259 C   0  0  0  0  0  0  0  0  0  0  0  0
  -27.6099   -0.5495   -6.9346 C   0  0  0  0  0  0  0  0  0  0  0  0
  -27.9476   -0.5192   -5.5941 C   0  0  0  0  0  0  0  0  0  0  0  0
  -28.6282   -1.5025   -4.9824 N   0  0  0  0  0  0  0  0  0  0  0  0
  -28.9815   -2.5599   -5.7430 C   0  0  0  0  0  0  0  0  0  0  0  0
  -28.6941   -2.7060   -7.1064 C   0  0  0  0  0  0  0  0  0  0  0  0
  -29.1739   -3.9686   -7.8003 C   0  0  0  0  0  0  0  0  0  0  0  0
  -29.8290   -4.9849   -6.8541 C   0  0  0  0  0  0  0  0  0  0  0  0
  -29.7997   -6.4050   -7.3710 C   0  0  0  0  0  0  0  0  0  0  0  0
  -30.9146   -7.2407   -7.2502 C   0  0  0  0  0  0  0  0  0  0  0  0
  -30.8574   -8.5114   -7.8090 C   0  0  0  0  0  0  0  0  0  0  0  0
  -29.7824   -9.0021   -8.4591 N   0  0  0  0  0  0  0  0  0  0  0  0
  -28.7126   -8.1849   -8.5509 C   0  0  0  0  0  0  0  0  0  0  0  0
  -28.6706   -6.9008   -8.0249 C   0  0  0  0  0  0  0  0  0  0  0  0
  -25.3110   -2.1097  -11.6033 N   0  0  0  0  0  0  0  0  0  0  0  0
  -24.9996   -3.0738  -11.6082 H   0  0  0  0  0  0  0  0  0  0  0  0
  -22.4100    0.4568  -13.3644 C   0  0  0  0  0  0  0  0  0  0  0  0
  -23.4355    0.9929  -12.5756 C   0  0  0  0  0  0  0  0  0  0  0  0
  -24.4058    0.1675  -11.9875 C   0  0  0  0  0  0  0  0  0  0  0  0
  -24.3707   -1.2186  -12.1501 C   0  0  0  0  0  0  0  0  0  0  0  0
  -23.3582   -1.7461  -12.9691 C   0  0  0  0  0  0  0  0  0  0  0  0
  -22.3901   -0.9268  -13.5634 C   0  0  0  0  0  0  0  0  0  0  0  0
  -20.6952    0.7399  -15.2008 C   0  0  0  0  0  0  0  0  0  0  0  0
  -21.3684    1.3744  -13.9800 C   0  0  0  0  0  0  0  0  0  0  0  0
  -21.9618    2.7390  -14.3367 C   0  0  0  0  0  0  0  0  0  0  0  0
 28 29  1  0  0  0
 29 30  1  0  0  0
 29 22  1  0  0  0
 22 23  1  0  0  0
 22 27  2  0  0  0
 23 24  2  0  0  0
 24 25  1  0  0  0
 25 20  1  0  0  0
 25 26  2  0  0  0
 20  1  1  0  0  0
 20 21  1  0  0  0
  1  2  2  0  0  0
  1  5  1  0  0  0
  2  3  1  0  0  0
  3  4  2  0  0  0
  4  6  1  0  0  0
  4  5  1  0  0  0
  6  7  1  0  0  0
  6 11  2  0  0  0
  7  8  2  0  0  0
  8  9  1  0  0  0
  9 10  2  0  0  0
 10 11  1  0  0  0
 11 12  1  0  0  0
 12 13  1  0  0  0
 13 14  1  0  0  0
 14 15  1  0  0  0
 14 19  2  0  0  0
 15 16  2  0  0  0
 16 17  1  0  0  0
 17 18  2  0  0  0
 18 19  1  0  0  0
 26 27  1  0  0  0
M  END
> <minimizedAffinity>
-10.32527

$$$$
