CHEMBL3968361


 37 41  0  0  0  0  0  0  0  0999 V2000
  -28.5030   -9.5361   -5.7912 N   0  0  0  0  0  0  0  0  0  0  0  0
  -28.4988   -8.2161   -5.1789 C   0  0  0  0  0  0  0  0  0  0  0  0
  -29.0870   -8.1619   -3.9357 C   0  0  0  0  0  0  0  0  0  0  0  0
  -29.6373   -7.0052   -3.4321 C   0  0  0  0  0  0  0  0  0  0  0  0
  -29.4918   -5.8198   -4.0977 C   0  0  0  0  0  0  0  0  0  0  0  0
  -30.1830   -4.8324   -3.5228 N   0  0  0  0  0  0  0  0  0  0  0  0
  -29.9840   -3.6097   -4.0102 C   0  0  0  0  0  0  0  0  0  0  0  0
  -29.0589   -3.3489   -5.0012 C   0  0  0  0  0  0  0  0  0  0  0  0
  -28.3949   -4.3741   -5.6537 N   0  0  0  0  0  0  0  0  0  0  0  0
  -28.6234   -5.6883   -5.2152 C   0  0  0  0  0  0  0  0  0  0  0  0
  -28.1707   -6.9593   -5.7701 C   0  0  0  0  0  0  0  0  0  0  0  0
  -28.8432   -1.9247   -5.2693 C   0  0  0  0  0  0  0  0  0  0  0  0
  -27.8110   -1.0532   -4.8170 C   0  0  0  0  0  0  0  0  0  0  0  0
  -28.1115    0.2440   -4.9694 N   0  0  0  0  0  0  0  0  0  0  0  0
  -29.3472    0.2138   -5.4953 N   0  0  0  0  0  0  0  0  0  0  0  0
  -29.9534    1.4106   -6.0312 C   0  0  0  0  0  0  0  0  0  0  0  0
  -29.8780   -1.0448   -5.5384 C   0  0  0  0  0  0  0  0  0  0  0  0
  -31.6430  -10.5558   -7.5996 C   0  0  0  0  0  0  0  0  0  0  0  0
  -31.1494  -11.0437   -8.8066 C   0  0  0  0  0  0  0  0  0  0  0  0
  -29.7892  -10.9903   -9.0515 C   0  0  0  0  0  0  0  0  0  0  0  0
  -28.9254  -10.5461   -8.0378 C   0  0  0  0  0  0  0  0  0  0  0  0
  -29.3756  -10.0382   -6.7986 C   0  0  0  0  0  0  0  0  0  0  0  0
  -30.7716  -10.0020   -6.6397 C   0  0  0  0  0  0  0  0  0  0  0  0
  -33.3807  -11.6047   -6.4137 C   0  0  0  0  0  0  0  0  0  0  0  0
  -32.9813  -10.5529   -7.2951 O   0  0  0  0  0  0  0  0  0  0  0  0
  -29.1942  -11.3671  -10.2286 O   0  0  0  0  0  0  0  0  0  0  0  0
  -28.9896  -10.3168  -11.1760 C   0  0  0  0  0  0  0  0  0  0  0  0
  -27.8976  -10.5192   -4.7862 C   0  0  0  0  0  0  0  0  0  0  0  0
  -26.3272  -10.8056   -4.7355 C   0  0  0  0  0  0  0  0  0  0  0  0
  -26.0342  -12.2027   -4.5386 O   0  0  0  0  0  0  0  0  0  0  0  0
  -25.5565   -9.9784   -3.6899 C   0  0  0  0  0  0  0  0  0  0  0  0
  -24.0692   -9.7395   -3.9820 C   0  0  0  0  0  0  0  0  0  0  0  0
  -23.7837   -9.3437   -5.3540 N   0  0  0  0  0  0  0  0  0  0  0  0
  -24.2995  -10.3238   -6.2983 C   0  0  0  0  0  0  0  0  0  0  0  0
  -25.8084  -10.5116   -6.1727 C   0  0  0  0  0  0  0  0  0  0  0  0
  -25.7770  -12.3522   -3.6134 H   0  0  0  0  0  0  0  0  0  0  0  0
  -24.1598   -8.4186   -5.5550 H   0  0  0  0  0  0  0  0  0  0  0  0
 24 25  1  0  0  0
 25 18  1  0  0  0
 18 19  1  0  0  0
 18 23  2  0  0  0
 19 20  2  0  0  0
 20 26  1  0  0  0
 20 21  1  0  0  0
 26 27  1  0  0  0
 21 22  2  0  0  0
 22  1  1  0  0  0
 22 23  1  0  0  0
  1 28  1  0  0  0
  1  2  1  0  0  0
 28 29  1  0  0  0
 29 30  1  0  0  0
 29 31  1  0  0  0
 29 35  1  0  0  0
 30 36  1  0  0  0
 31 32  1  0  0  0
 32 33  1  0  0  0
 33 34  1  0  0  0
 33 37  1  0  0  0
 34 35  1  0  0  0
  2  3  1  0  0  0
  2 11  2  0  0  0
  3  4  2  0  0  0
  4  5  1  0  0  0
  5  6  1  0  0  0
  5 10  2  0  0  0
  6  7  2  0  0  0
  7  8  1  0  0  0
  8 12  1  0  0  0
  8  9  2  0  0  0
 12 13  1  0  0  0
 12 17  2  0  0  0
 13 14  2  0  0  0
 14 15  1  0  0  0
 15 16  1  0  0  0
 15 17  1  0  0  0
  9 10  1  0  0  0
 10 11  1  0  0  0
M  END
> <minimizedAffinity>
-8.16712

$$$$
