CHEMBL3690374


 35 37  0  0  0  0  0  0  0  0999 V2000
  -19.5094    2.5132  -14.7379 C   0  0  0  0  0  0  0  0  0  0  0  0
  -18.8431    3.6770  -15.3221 C   0  0  0  0  0  0  0  0  0  0  0  0
  -17.5236    3.6378  -15.5760 C   0  0  0  0  0  0  0  0  0  0  0  0
  -16.7997    2.4754  -15.2982 N   0  0  0  0  0  0  0  0  0  0  0  0
  -15.4607    2.1521  -15.5022 C   0  0  0  0  0  0  0  0  0  0  0  0
  -15.3501    0.8736  -14.9656 C   0  0  0  0  0  0  0  0  0  0  0  0
  -16.5340    0.4006  -14.4772 N   0  0  0  0  0  0  0  0  0  0  0  0
  -17.3983    1.3615  -14.7015 C   0  0  0  0  0  0  0  0  0  0  0  0
  -18.7973    1.4076  -14.4309 C   0  0  0  0  0  0  0  0  0  0  0  0
  -14.3929    2.9738  -16.1024 C   0  0  0  0  0  0  0  0  0  0  0  0
  -13.1445    3.0042  -15.4606 C   0  0  0  0  0  0  0  0  0  0  0  0
  -12.0768    3.7167  -15.9966 C   0  0  0  0  0  0  0  0  0  0  0  0
  -12.2361    4.4159  -17.1888 C   0  0  0  0  0  0  0  0  0  0  0  0
  -13.4535    4.3972  -17.8698 C   0  0  0  0  0  0  0  0  0  0  0  0
  -14.5291    3.6715  -17.3173 C   0  0  0  0  0  0  0  0  0  0  0  0
  -13.6549    5.0808  -19.0954 N   0  0  0  0  0  0  0  0  0  0  0  0
  -13.9873    6.4139  -19.2477 C   0  0  0  0  0  0  0  0  0  0  0  0
  -14.1356    7.2428  -18.3624 O   0  0  0  0  0  0  0  0  0  0  0  0
  -14.1922    6.7538  -20.5679 N   0  0  0  0  0  0  0  0  0  0  0  0
  -13.5453    4.5410  -19.9401 H   0  0  0  0  0  0  0  0  0  0  0  0
  -13.6499    6.2492  -21.2524 H   0  0  0  0  0  0  0  0  0  0  0  0
  -14.5133    8.1535  -20.8773 C   0  0  0  0  0  0  0  0  0  0  0  0
  -16.0012    8.5340  -20.8068 C   0  0  0  0  0  0  0  0  0  0  0  0
  -16.7938    7.4472  -20.6522 F   0  0  0  0  0  0  0  0  0  0  0  0
  -16.2205    9.3300  -19.7295 F   0  0  0  0  0  0  0  0  0  0  0  0
  -16.4164    9.2104  -21.8948 F   0  0  0  0  0  0  0  0  0  0  0  0
  -21.6923    3.5246  -15.0331 N   0  0  0  0  0  0  0  0  0  0  0  0
  -20.9953    2.5596  -14.5208 C   0  0  0  0  0  0  0  0  0  0  0  0
  -22.6774    3.4444  -14.7637 H   0  0  0  0  0  0  0  0  0  0  0  0
  -21.5790    1.5020  -13.6444 C   0  0  0  0  0  0  0  0  0  0  0  0
  -22.3775    0.5407  -14.1364 C   0  0  0  0  0  0  0  0  0  0  0  0
  -23.0114   -0.5271  -13.3090 C   0  0  0  0  0  0  0  0  0  0  0  0
  -23.1911   -0.0394  -11.9543 N   0  0  0  0  0  0  0  0  0  0  0  0
  -22.2789    0.0781  -11.5130 H   0  0  0  0  0  0  0  0  0  0  0  0
  -23.6756   -0.7463  -11.4031 H   0  0  0  0  0  0  0  0  0  0  0  0
 27 28  2  0  0  0
 27 29  1  0  0  0
 28 30  1  0  0  0
 28  1  1  0  0  0
 30 31  2  0  0  0
 31 32  1  0  0  0
 32 33  1  0  0  0
 33 34  1  0  0  0
 33 35  1  0  0  0
  1  2  1  0  0  0
  1  9  2  0  0  0
  2  3  2  0  0  0
  3  4  1  0  0  0
  4  5  1  0  0  0
  4  8  1  0  0  0
  5 10  1  0  0  0
  5  6  2  0  0  0
 10 11  1  0  0  0
 10 15  2  0  0  0
 11 12  2  0  0  0
 12 13  1  0  0  0
 13 14  2  0  0  0
 14 16  1  0  0  0
 14 15  1  0  0  0
 16 17  1  0  0  0
 16 20  1  0  0  0
 17 18  2  0  0  0
 17 19  1  0  0  0
 19 22  1  0  0  0
 19 21  1  0  0  0
 22 23  1  0  0  0
 23 24  1  0  0  0
 23 25  1  0  0  0
 23 26  1  0  0  0
  6  7  1  0  0  0
  7  8  2  0  0  0
  8  9  1  0  0  0
M  END
> <minimizedAffinity>
-6.75172

$$$$
