CHEMBL3656055


 33 36  0  0  0  0  0  0  0  0999 V2000
  -23.0342   -1.2649  -13.2294 O   0  0  0  0  0  0  0  0  0  0  0  0
  -20.9779    1.5312  -14.4753 C   0  0  0  0  0  0  0  0  0  0  0  0
  -21.3698    0.2232  -14.2234 C   0  0  0  0  0  0  0  0  0  0  0  0
  -22.5903   -0.0087  -13.5987 C   0  0  0  0  0  0  0  0  0  0  0  0
  -23.4359    1.0679  -13.3623 C   0  0  0  0  0  0  0  0  0  0  0  0
  -22.9854    2.3385  -13.6948 C   0  0  0  0  0  0  0  0  0  0  0  0
  -21.7659    2.6009  -14.2246 N   0  0  0  0  0  0  0  0  0  0  0  0
  -17.4152    1.8142  -15.5203 C   0  0  0  0  0  0  0  0  0  0  0  0
  -17.9628    3.0294  -15.8928 C   0  0  0  0  0  0  0  0  0  0  0  0
  -19.2974    3.0254  -15.5624 N   0  0  0  0  0  0  0  0  0  0  0  0
  -19.6388    1.8275  -14.9752 C   0  0  0  0  0  0  0  0  0  0  0  0
  -18.4819    1.0689  -14.9446 C   0  0  0  0  0  0  0  0  0  0  0  0
  -19.9546    3.7833  -15.7047 H   0  0  0  0  0  0  0  0  0  0  0  0
  -16.0424    1.3448  -15.6576 C   0  0  0  0  0  0  0  0  0  0  0  0
  -15.5766    0.9801  -16.7311 O   0  0  0  0  0  0  0  0  0  0  0  0
  -15.0140    0.0289  -14.0331 C   0  0  0  0  0  0  0  0  0  0  0  0
  -15.3483    1.3424  -14.4822 O   0  0  0  0  0  0  0  0  0  0  0  0
  -24.3936   -1.5062  -13.1271 C   0  0  0  0  0  0  0  0  0  0  0  0
  -25.2531   -1.5499  -14.2310 C   0  0  0  0  0  0  0  0  0  0  0  0
  -26.6196   -1.7109  -14.0414 C   0  0  0  0  0  0  0  0  0  0  0  0
  -27.1236   -1.9423  -12.7631 C   0  0  0  0  0  0  0  0  0  0  0  0
  -26.2684   -2.0416  -11.6624 C   0  0  0  0  0  0  0  0  0  0  0  0
  -24.9011   -1.7767  -11.8468 C   0  0  0  0  0  0  0  0  0  0  0  0
  -26.7245   -2.4203  -10.3790 N   0  0  0  0  0  0  0  0  0  0  0  0
  -27.7053   -1.7779   -9.6276 C   0  0  0  0  0  0  0  0  0  0  0  0
  -28.2921   -0.7542   -9.9686 O   0  0  0  0  0  0  0  0  0  0  0  0
  -26.4180   -3.3137  -10.0102 H   0  0  0  0  0  0  0  0  0  0  0  0
  -28.0331   -2.4553   -8.3824 C   0  0  0  0  0  0  0  0  0  0  0  0
  -28.3818   -3.7819   -8.4098 O   0  0  0  0  0  0  0  0  0  0  0  0
  -28.6239   -4.1576   -7.1286 C   0  0  0  0  0  0  0  0  0  0  0  0
  -28.4475   -3.0999   -6.2713 C   0  0  0  0  0  0  0  0  0  0  0  0
  -28.0697   -1.9878   -7.0724 C   0  0  0  0  0  0  0  0  0  0  0  0
  -27.7786   -0.6083   -6.6004 C   0  0  0  0  0  0  0  0  0  0  0  0
 16 17  1  0  0  0
 17 14  1  0  0  0
 14 15  2  0  0  0
 14  8  1  0  0  0
  8  9  2  0  0  0
  8 12  1  0  0  0
  9 10  1  0  0  0
 10 11  1  0  0  0
 10 13  1  0  0  0
 11  2  1  0  0  0
 11 12  2  0  0  0
  2  3  1  0  0  0
  2  7  2  0  0  0
  3  4  2  0  0  0
  4  1  1  0  0  0
  4  5  1  0  0  0
  1 18  1  0  0  0
 18 19  1  0  0  0
 18 23  2  0  0  0
 19 20  2  0  0  0
 20 21  1  0  0  0
 21 22  2  0  0  0
 22 24  1  0  0  0
 22 23  1  0  0  0
 24 25  1  0  0  0
 24 27  1  0  0  0
 25 26  2  0  0  0
 25 28  1  0  0  0
 28 29  1  0  0  0
 28 32  2  0  0  0
 29 30  1  0  0  0
 30 31  2  0  0  0
 31 32  1  0  0  0
 32 33  1  0  0  0
  5  6  2  0  0  0
  6  7  1  0  0  0
M  END
> <minimizedAffinity>
-10.14502

$$$$
