CHEMBL3690419


 34 37  0  0  0  0  0  0  0  0999 V2000
  -15.4610   -2.1880  -12.7828 C   0  0  0  0  0  0  0  0  0  0  0  0
  -14.6505   -3.0715  -13.6018 C   0  0  0  0  0  0  0  0  0  0  0  0
  -14.0156   -4.1000  -13.0149 C   0  0  0  0  0  0  0  0  0  0  0  0
  -14.1750   -4.3283  -11.6419 N   0  0  0  0  0  0  0  0  0  0  0  0
  -13.6828   -5.3351  -10.8075 C   0  0  0  0  0  0  0  0  0  0  0  0
  -14.1491   -4.9839   -9.5520 C   0  0  0  0  0  0  0  0  0  0  0  0
  -14.9113   -3.8462   -9.5732 N   0  0  0  0  0  0  0  0  0  0  0  0
  -14.9329   -3.4788  -10.8318 C   0  0  0  0  0  0  0  0  0  0  0  0
  -15.5860   -2.3767  -11.4552 C   0  0  0  0  0  0  0  0  0  0  0  0
  -12.8825   -6.5063  -11.1939 C   0  0  0  0  0  0  0  0  0  0  0  0
  -11.6319   -6.7548  -10.6144 C   0  0  0  0  0  0  0  0  0  0  0  0
  -10.8784   -7.8614  -10.9891 C   0  0  0  0  0  0  0  0  0  0  0  0
  -11.3377   -8.7098  -11.9910 C   0  0  0  0  0  0  0  0  0  0  0  0
  -12.5615   -8.4756  -12.6212 C   0  0  0  0  0  0  0  0  0  0  0  0
  -13.3304   -7.3734  -12.2128 C   0  0  0  0  0  0  0  0  0  0  0  0
  -13.0283   -9.2790  -13.6908 N   0  0  0  0  0  0  0  0  0  0  0  0
  -12.8124   -9.0284  -15.0247 C   0  0  0  0  0  0  0  0  0  0  0  0
  -12.0560   -8.1886  -15.4974 O   0  0  0  0  0  0  0  0  0  0  0  0
  -13.5905   -9.8020  -15.8523 N   0  0  0  0  0  0  0  0  0  0  0  0
  -13.4778  -10.1494  -13.4474 H   0  0  0  0  0  0  0  0  0  0  0  0
  -13.9494  -10.6794  -15.5006 H   0  0  0  0  0  0  0  0  0  0  0  0
  -13.4170   -9.6577  -17.3033 C   0  0  0  0  0  0  0  0  0  0  0  0
  -13.8194  -10.8728  -18.1532 C   0  0  0  0  0  0  0  0  0  0  0  0
  -14.1728  -10.5239  -19.4113 F   0  0  0  0  0  0  0  0  0  0  0  0
  -12.7665  -11.7223  -18.2657 F   0  0  0  0  0  0  0  0  0  0  0  0
  -14.8368  -11.5700  -17.6061 F   0  0  0  0  0  0  0  0  0  0  0  0
  -16.7042    0.0320  -14.0077 C   0  0  0  0  0  0  0  0  0  0  0  0
  -16.1302   -0.9930  -13.4422 C   0  0  0  0  0  0  0  0  0  0  0  0
  -19.9968    3.4031  -15.4717 C   0  0  0  0  0  0  0  0  0  0  0  0
  -18.7898    2.6403  -15.2639 N   0  0  0  0  0  0  0  0  0  0  0  0
  -18.6489    1.5099  -14.5112 C   0  0  0  0  0  0  0  0  0  0  0  0
  -17.3268    1.1523  -14.6205 C   0  0  0  0  0  0  0  0  0  0  0  0
  -16.7536    2.1263  -15.4564 C   0  0  0  0  0  0  0  0  0  0  0  0
  -17.6457    3.0401  -15.8533 N   0  0  0  0  0  0  0  0  0  0  0  0
 29 30  1  0  0  0
 30 31  1  0  0  0
 30 34  1  0  0  0
 31 32  2  0  0  0
 32 27  1  0  0  0
 32 33  1  0  0  0
 27 28  3  0  0  0
 28  1  1  0  0  0
  1  2  1  0  0  0
  1  9  2  0  0  0
  2  3  2  0  0  0
  3  4  1  0  0  0
  4  5  1  0  0  0
  4  8  1  0  0  0
  5 10  1  0  0  0
  5  6  2  0  0  0
 10 11  1  0  0  0
 10 15  2  0  0  0
 11 12  2  0  0  0
 12 13  1  0  0  0
 13 14  2  0  0  0
 14 16  1  0  0  0
 14 15  1  0  0  0
 16 17  1  0  0  0
 16 20  1  0  0  0
 17 18  2  0  0  0
 17 19  1  0  0  0
 19 22  1  0  0  0
 19 21  1  0  0  0
 22 23  1  0  0  0
 23 24  1  0  0  0
 23 25  1  0  0  0
 23 26  1  0  0  0
  6  7  1  0  0  0
  7  8  2  0  0  0
  8  9  1  0  0  0
 33 34  2  0  0  0
M  END
> <minimizedAffinity>
-8.12150

$$$$
