CHEMBL4077930


 41 45  0  0  0  0  0  0  0  0999 V2000
  -28.1636   -3.2187   -5.7845 C   0  0  0  0  0  0  0  0  0  0  0  0
  -28.3685   -3.9528   -6.9493 C   0  0  0  0  0  0  0  0  0  0  0  0
  -28.3788   -3.3206   -8.1787 C   0  0  0  0  0  0  0  0  0  0  0  0
  -28.2359   -1.9350   -8.2917 C   0  0  0  0  0  0  0  0  0  0  0  0
  -28.2254   -1.1411   -7.0919 C   0  0  0  0  0  0  0  0  0  0  0  0
  -28.2498    0.2802   -7.0798 C   0  0  0  0  0  0  0  0  0  0  0  0
  -28.2430    1.0133   -5.8873 C   0  0  0  0  0  0  0  0  0  0  0  0
  -28.1978    0.3533   -4.6691 C   0  0  0  0  0  0  0  0  0  0  0  0
  -28.1535   -1.0387   -4.6387 C   0  0  0  0  0  0  0  0  0  0  0  0
  -28.1837   -1.8063   -5.8242 C   0  0  0  0  0  0  0  0  0  0  0  0
  -28.0858   -1.3439   -9.5850 N   0  0  0  0  0  0  0  0  0  0  0  0
  -27.0355   -1.5940  -10.4645 C   0  0  0  0  0  0  0  0  0  0  0  0
  -26.1216   -2.3903  -10.2777 O   0  0  0  0  0  0  0  0  0  0  0  0
  -27.0861   -0.7843  -11.5931 N   0  0  0  0  0  0  0  0  0  0  0  0
  -28.7069   -0.5907   -9.8264 H   0  0  0  0  0  0  0  0  0  0  0  0
  -27.4525    0.1413  -11.4307 H   0  0  0  0  0  0  0  0  0  0  0  0
  -26.0880   -0.8889  -12.5962 C   0  0  0  0  0  0  0  0  0  0  0  0
  -26.3778   -1.6058  -13.7574 C   0  0  0  0  0  0  0  0  0  0  0  0
  -25.4444   -1.6672  -14.7951 C   0  0  0  0  0  0  0  0  0  0  0  0
  -24.1999   -1.0516  -14.6604 C   0  0  0  0  0  0  0  0  0  0  0  0
  -23.8753   -0.3557  -13.4873 C   0  0  0  0  0  0  0  0  0  0  0  0
  -24.8343   -0.2751  -12.4601 C   0  0  0  0  0  0  0  0  0  0  0  0
  -22.5281    0.2989  -13.3172 C   0  0  0  0  0  0  0  0  0  0  0  0
  -22.5648    1.6568  -13.4642 F   0  0  0  0  0  0  0  0  0  0  0  0
  -21.9757    0.0789  -12.0931 F   0  0  0  0  0  0  0  0  0  0  0  0
  -21.6139   -0.1389  -14.2268 F   0  0  0  0  0  0  0  0  0  0  0  0
  -27.9919   -3.8836   -4.5787 O   0  0  0  0  0  0  0  0  0  0  0  0
  -28.5970   -8.8909   -4.0039 C   0  0  0  0  0  0  0  0  0  0  0  0
  -29.7505   -8.2214   -3.5601 C   0  0  0  0  0  0  0  0  0  0  0  0
  -29.8806   -6.8439   -3.6176 C   0  0  0  0  0  0  0  0  0  0  0  0
  -31.0618   -6.3082   -3.2944 N   0  0  0  0  0  0  0  0  0  0  0  0
  -31.1922   -4.9895   -3.4670 C   0  0  0  0  0  0  0  0  0  0  0  0
  -30.2462   -4.1644   -3.9139 N   0  0  0  0  0  0  0  0  0  0  0  0
  -29.0388   -4.7165   -4.1556 C   0  0  0  0  0  0  0  0  0  0  0  0
  -28.7902   -6.0869   -4.0471 C   0  0  0  0  0  0  0  0  0  0  0  0
  -27.5732   -6.7346   -4.3476 C   0  0  0  0  0  0  0  0  0  0  0  0
  -27.4732   -8.1335   -4.3569 C   0  0  0  0  0  0  0  0  0  0  0  0
  -28.9284  -10.8042   -5.3621 C   0  0  0  0  0  0  0  0  0  0  0  0
  -28.5651  -10.2600   -4.0866 O   0  0  0  0  0  0  0  0  0  0  0  0
  -26.2329   -8.5401   -4.7567 O   0  0  0  0  0  0  0  0  0  0  0  0
  -25.2856   -8.9909   -3.8048 C   0  0  0  0  0  0  0  0  0  0  0  0
 38 39  1  0  0  0
 39 28  1  0  0  0
 28 29  1  0  0  0
 28 37  2  0  0  0
 29 30  2  0  0  0
 30 31  1  0  0  0
 30 35  1  0  0  0
 31 32  2  0  0  0
 32 33  1  0  0  0
 33 34  2  0  0  0
 34 27  1  0  0  0
 34 35  1  0  0  0
 27  1  1  0  0  0
  1  2  1  0  0  0
  1 10  2  0  0  0
  2  3  2  0  0  0
  3  4  1  0  0  0
  4 11  1  0  0  0
  4  5  2  0  0  0
 11 12  1  0  0  0
 11 15  1  0  0  0
 12 13  2  0  0  0
 12 14  1  0  0  0
 14 17  1  0  0  0
 14 16  1  0  0  0
 17 18  1  0  0  0
 17 22  2  0  0  0
 18 19  2  0  0  0
 19 20  1  0  0  0
 20 21  2  0  0  0
 21 23  1  0  0  0
 21 22  1  0  0  0
 23 24  1  0  0  0
 23 25  1  0  0  0
 23 26  1  0  0  0
  5  6  1  0  0  0
  5 10  1  0  0  0
  6  7  2  0  0  0
  7  8  1  0  0  0
  8  9  2  0  0  0
  9 10  1  0  0  0
 35 36  2  0  0  0
 36 37  1  0  0  0
 37 40  1  0  0  0
 40 41  1  0  0  0
M  END
> <minimizedAffinity>
-10.47565

$$$$
