CHEMBL3221268


 36 38  0  0  0  0  0  0  0  0999 V2000
  -28.7340   -5.3803   -5.9916 C   0  0  0  0  0  0  0  0  0  0  0  0
  -29.0276   -6.0020   -4.8132 N   0  0  0  0  0  0  0  0  0  0  0  0
  -29.2795   -5.3145   -3.6848 C   0  0  0  0  0  0  0  0  0  0  0  0
  -29.2620   -3.9652   -3.7002 N   0  0  0  0  0  0  0  0  0  0  0  0
  -28.9739   -3.2975   -4.8394 C   0  0  0  0  0  0  0  0  0  0  0  0
  -28.9844   -1.9316   -4.8065 C   0  0  0  0  0  0  0  0  0  0  0  0
  -28.7033   -1.1465   -5.9370 C   0  0  0  0  0  0  0  0  0  0  0  0
  -28.3398   -1.8300   -7.1623 C   0  0  0  0  0  0  0  0  0  0  0  0
  -28.3865   -3.2286   -7.1791 C   0  0  0  0  0  0  0  0  0  0  0  0
  -28.6840   -3.9731   -6.0267 C   0  0  0  0  0  0  0  0  0  0  0  0
  -28.4071   -6.1652   -7.1261 N   0  0  0  0  0  0  0  0  0  0  0  0
  -27.5414   -5.9974   -7.6536 H   0  0  0  0  0  0  0  0  0  0  0  0
  -30.9106   -9.2944   -8.4283 C   0  0  0  0  0  0  0  0  0  0  0  0
  -29.5681   -9.2531   -8.8361 C   0  0  0  0  0  0  0  0  0  0  0  0
  -28.7431   -8.2282   -8.3947 C   0  0  0  0  0  0  0  0  0  0  0  0
  -29.2347   -7.2356   -7.5485 C   0  0  0  0  0  0  0  0  0  0  0  0
  -30.5724   -7.2963   -7.1184 C   0  0  0  0  0  0  0  0  0  0  0  0
  -31.4222   -8.3155   -7.5565 C   0  0  0  0  0  0  0  0  0  0  0  0
  -32.8431   -8.3099   -7.0324 C   0  0  0  0  0  0  0  0  0  0  0  0
  -31.7223  -11.5924   -8.3127 C   0  0  0  0  0  0  0  0  0  0  0  0
  -32.5367  -12.4462   -8.7055 O   0  0  0  0  0  0  0  0  0  0  0  0
  -31.7456  -10.3639   -8.8856 N   0  0  0  0  0  0  0  0  0  0  0  0
  -32.4721  -10.1477   -9.5952 H   0  0  0  0  0  0  0  0  0  0  0  0
  -30.8594  -11.8828   -7.3101 O   0  0  0  0  0  0  0  0  0  0  0  0
  -30.0257  -11.4877   -5.1159 C   0  0  0  0  0  0  0  0  0  0  0  0
  -31.2184  -11.8644   -5.9864 C   0  0  0  0  0  0  0  0  0  0  0  0
  -28.8117    0.2124   -5.8085 O   0  0  0  0  0  0  0  0  0  0  0  0
  -30.0430    0.8732   -5.6575 C   0  0  0  0  0  0  0  0  0  0  0  0
  -27.9470   -1.2746   -8.3461 O   0  0  0  0  0  0  0  0  0  0  0  0
  -27.0228   -1.6776   -9.2843 C   0  0  0  0  0  0  0  0  0  0  0  0
  -27.5301   -1.6823  -10.7409 C   0  0  0  0  0  0  0  0  0  0  0  0
  -26.4285   -2.0079  -11.7022 N   0  0  0  0  0  0  0  0  0  0  0  0
  -26.7360   -1.7384  -13.1417 C   0  0  0  0  0  0  0  0  0  0  0  0
  -28.0952   -2.2432  -13.6357 C   0  0  0  0  0  0  0  0  0  0  0  0
  -25.1512   -1.4099  -11.2454 C   0  0  0  0  0  0  0  0  0  0  0  0
  -24.7439   -0.1277  -11.9951 C   0  0  0  0  0  0  0  0  0  0  0  0
 25 26  1  0  0  0
 26 24  1  0  0  0
 24 20  1  0  0  0
 20 21  2  0  0  0
 20 22  1  0  0  0
 22 13  1  0  0  0
 22 23  1  0  0  0
 13 14  1  0  0  0
 13 18  2  0  0  0
 14 15  2  0  0  0
 15 16  1  0  0  0
 16 11  1  0  0  0
 16 17  2  0  0  0
 11  1  1  0  0  0
 11 12  1  0  0  0
  1  2  1  0  0  0
  1 10  2  0  0  0
  2  3  2  0  0  0
  3  4  1  0  0  0
  4  5  2  0  0  0
  5  6  1  0  0  0
  5 10  1  0  0  0
  6  7  2  0  0  0
  7 27  1  0  0  0
  7  8  1  0  0  0
 27 28  1  0  0  0
  8 29  1  0  0  0
  8  9  2  0  0  0
 29 30  1  0  0  0
 30 31  1  0  0  0
 31 32  1  0  0  0
 32 33  1  0  0  0
 32 35  1  0  0  0
 33 34  1  0  0  0
 35 36  1  0  0  0
  9 10  1  0  0  0
 17 18  1  0  0  0
 18 19  1  0  0  0
M  END
> <minimizedAffinity>
-8.69386

$$$$
