CHEMBL3590220


 35 39  0  0  0  0  0  0  0  0999 V2000
  -27.8450   -8.9808   -5.6142 C   0  0  0  0  0  0  0  0  0  0  0  0
  -28.4095   -9.8806   -6.5015 C   0  0  0  0  0  0  0  0  0  0  0  0
  -27.7951  -11.0319   -6.8897 N   0  0  0  0  0  0  0  0  0  0  0  0
  -26.5567  -11.2335   -6.4129 C   0  0  0  0  0  0  0  0  0  0  0  0
  -25.9969  -12.4306   -6.8864 N   0  0  0  0  0  0  0  0  0  0  0  0
  -25.9352  -10.3038   -5.5860 C   0  0  0  0  0  0  0  0  0  0  0  0
  -26.5921   -9.1688   -5.1611 N   0  0  0  0  0  0  0  0  0  0  0  0
  -26.6871  -12.8404   -7.5125 H   0  0  0  0  0  0  0  0  0  0  0  0
  -25.1098  -12.3035   -7.3742 H   0  0  0  0  0  0  0  0  0  0  0  0
  -24.5254  -10.3553   -5.3488 N   0  0  0  0  0  0  0  0  0  0  0  0
  -23.7081   -9.9172   -6.3679 N   0  0  0  0  0  0  0  0  0  0  0  0
  -22.5813  -10.5881   -6.2749 N   0  0  0  0  0  0  0  0  0  0  0  0
  -22.5712  -11.2314   -5.0856 C   0  0  0  0  0  0  0  0  0  0  0  0
  -21.5706  -11.9982   -4.4940 C   0  0  0  0  0  0  0  0  0  0  0  0
  -21.4069  -11.5710   -3.1723 C   0  0  0  0  0  0  0  0  0  0  0  0
  -22.5304  -11.3186   -2.3643 C   0  0  0  0  0  0  0  0  0  0  0  0
  -23.7798  -11.1590   -2.9687 C   0  0  0  0  0  0  0  0  0  0  0  0
  -23.7312  -10.9258   -4.3686 C   0  0  0  0  0  0  0  0  0  0  0  0
  -29.7438   -5.9995   -5.2220 N   0  0  0  0  0  0  0  0  0  0  0  0
  -29.8164   -6.3847   -3.9149 C   0  0  0  0  0  0  0  0  0  0  0  0
  -29.0864   -7.5494   -3.8225 C   0  0  0  0  0  0  0  0  0  0  0  0
  -28.6199   -7.8206   -5.1330 C   0  0  0  0  0  0  0  0  0  0  0  0
  -29.0157   -6.8394   -5.9739 N   0  0  0  0  0  0  0  0  0  0  0  0
  -27.9826   -1.6528   -7.2352 C   0  0  0  0  0  0  0  0  0  0  0  0
  -27.9380   -1.5078   -8.4604 O   0  0  0  0  0  0  0  0  0  0  0  0
  -28.4453   -2.8237   -6.6499 N   0  0  0  0  0  0  0  0  0  0  0  0
  -28.5954   -4.0238   -7.4702 C   0  0  0  0  0  0  0  0  0  0  0  0
  -29.9860   -4.6249   -7.3043 C   0  0  0  0  0  0  0  0  0  0  0  0
  -30.3700   -4.8239   -5.8266 C   0  0  0  0  0  0  0  0  0  0  0  0
  -30.1252   -3.5403   -5.0249 C   0  0  0  0  0  0  0  0  0  0  0  0
  -28.7145   -2.9903   -5.2213 C   0  0  0  0  0  0  0  0  0  0  0  0
  -27.4966   -0.5199   -6.3164 C   0  0  0  0  0  0  0  0  0  0  0  0
  -28.2673    0.9771   -4.5649 C   0  0  0  0  0  0  0  0  0  0  0  0
  -28.6337    0.2851   -5.8050 N   0  0  0  0  0  0  0  0  0  0  0  0
  -29.0574    1.2563   -6.8122 C   0  0  0  0  0  0  0  0  0  0  0  0
 33 34  1  0  0  0
 34 35  1  0  0  0
 34 32  1  0  0  0
 32 24  1  0  0  0
 24 25  2  0  0  0
 24 26  1  0  0  0
 26 27  1  0  0  0
 26 31  1  0  0  0
 27 28  1  0  0  0
 28 29  1  0  0  0
 29 19  1  0  0  0
 29 30  1  0  0  0
 19 20  1  0  0  0
 19 23  1  0  0  0
 20 21  2  0  0  0
 21 22  1  0  0  0
 22  1  1  0  0  0
 22 23  2  0  0  0
  1  2  1  0  0  0
  1  7  2  0  0  0
  2  3  2  0  0  0
  3  4  1  0  0  0
  4  5  1  0  0  0
  4  6  2  0  0  0
  5  8  1  0  0  0
  5  9  1  0  0  0
  6 10  1  0  0  0
  6  7  1  0  0  0
 10 11  1  0  0  0
 10 18  1  0  0  0
 11 12  2  0  0  0
 12 13  1  0  0  0
 13 14  1  0  0  0
 13 18  2  0  0  0
 14 15  2  0  0  0
 15 16  1  0  0  0
 16 17  2  0  0  0
 17 18  1  0  0  0
 30 31  1  0  0  0
M  END
> <minimizedAffinity>
-8.94640

$$$$
