CHEMBL4074745


 33 36  0  0  0  0  0  0  0  0999 V2000
  -24.2085   11.6244  -17.7327 C   0  0  0  0  0  0  0  0  0  0  0  0
  -24.5682   12.6477  -16.8582 C   0  0  0  0  0  0  0  0  0  0  0  0
  -25.4946   12.4511  -15.8367 C   0  0  0  0  0  0  0  0  0  0  0  0
  -26.0184   11.1881  -15.5730 C   0  0  0  0  0  0  0  0  0  0  0  0
  -25.5798   10.1187  -16.3578 C   0  0  0  0  0  0  0  0  0  0  0  0
  -24.6998   10.3389  -17.4350 C   0  0  0  0  0  0  0  0  0  0  0  0
  -20.9807   10.6769  -16.5367 C   0  0  0  0  0  0  0  0  0  0  0  0
  -20.9025   11.1287  -17.9534 C   0  0  0  0  0  0  0  0  0  0  0  0
  -19.6935   11.0832  -18.5383 N   0  0  0  0  0  0  0  0  0  0  0  0
  -19.9138   11.5639  -19.7688 N   0  0  0  0  0  0  0  0  0  0  0  0
  -21.2072   11.9059  -20.0091 C   0  0  0  0  0  0  0  0  0  0  0  0
  -21.6596   12.4113  -21.1704 N   0  0  0  0  0  0  0  0  0  0  0  0
  -22.9824   12.6564  -21.1549 C   0  0  0  0  0  0  0  0  0  0  0  0
  -23.8285   12.4269  -20.0774 C   0  0  0  0  0  0  0  0  0  0  0  0
  -23.3210   11.8984  -18.8736 C   0  0  0  0  0  0  0  0  0  0  0  0
  -21.9199   11.6273  -18.8455 C   0  0  0  0  0  0  0  0  0  0  0  0
  -19.1392   11.6404  -20.4140 H   0  0  0  0  0  0  0  0  0  0  0  0
  -26.9334   10.9439  -14.5231 N   0  0  0  0  0  0  0  0  0  0  0  0
  -28.2786   11.2675  -14.5571 C   0  0  0  0  0  0  0  0  0  0  0  0
  -28.9031   11.7040  -15.5172 O   0  0  0  0  0  0  0  0  0  0  0  0
  -28.8953   11.0799  -13.3433 N   0  0  0  0  0  0  0  0  0  0  0  0
  -26.5973   10.4379  -13.7226 H   0  0  0  0  0  0  0  0  0  0  0  0
  -28.4194   10.5999  -12.5955 H   0  0  0  0  0  0  0  0  0  0  0  0
  -30.3044   11.3946  -13.1933 C   0  0  0  0  0  0  0  0  0  0  0  0
  -31.1743   10.1498  -13.0064 C   0  0  0  0  0  0  0  0  0  0  0  0
  -32.4211   10.4425  -12.1692 C   0  0  0  0  0  0  0  0  0  0  0  0
  -33.5529   10.9890  -13.0399 C   0  0  0  0  0  0  0  0  0  0  0  0
  -34.3446    9.8840  -13.6929 C   0  0  0  0  0  0  0  0  0  0  0  0
  -34.4284    9.8013  -15.0895 C   0  0  0  0  0  0  0  0  0  0  0  0
  -35.1441    8.7676  -15.6954 C   0  0  0  0  0  0  0  0  0  0  0  0
  -35.7885    7.8123  -14.9118 C   0  0  0  0  0  0  0  0  0  0  0  0
  -35.7274    7.8966  -13.5219 C   0  0  0  0  0  0  0  0  0  0  0  0
  -35.0124    8.9301  -12.9141 C   0  0  0  0  0  0  0  0  0  0  0  0
  7  8  1  0  0  0
  8  9  2  0  0  0
  8 16  1  0  0  0
  9 10  1  0  0  0
 10 11  1  0  0  0
 10 17  1  0  0  0
 11 12  1  0  0  0
 11 16  2  0  0  0
 12 13  2  0  0  0
 13 14  1  0  0  0
 14 15  2  0  0  0
 15  1  1  0  0  0
 15 16  1  0  0  0
  1  2  1  0  0  0
  1  6  2  0  0  0
  2  3  2  0  0  0
  3  4  1  0  0  0
  4 18  1  0  0  0
  4  5  2  0  0  0
 18 19  1  0  0  0
 18 22  1  0  0  0
 19 20  2  0  0  0
 19 21  1  0  0  0
 21 24  1  0  0  0
 21 23  1  0  0  0
 24 25  1  0  0  0
 25 26  1  0  0  0
 26 27  1  0  0  0
 27 28  1  0  0  0
 28 29  1  0  0  0
 28 33  2  0  0  0
 29 30  2  0  0  0
 30 31  1  0  0  0
 31 32  2  0  0  0
 32 33  1  0  0  0
  5  6  1  0  0  0
M  END
> <minimizedAffinity>
-6.50734

$$$$
