CHEMBL3895424


 34 38  0  0  0  0  0  0  0  0999 V2000
  -28.7701  -10.3424   -4.4381 C   0  0  0  0  0  0  0  0  0  0  0  0
  -29.2468   -9.2340   -5.1372 C   0  0  0  0  0  0  0  0  0  0  0  0
  -28.7598   -8.8977   -6.4075 C   0  0  0  0  0  0  0  0  0  0  0  0
  -29.1846   -7.7602   -7.1178 C   0  0  0  0  0  0  0  0  0  0  0  0
  -28.7875   -7.5291   -8.3763 N   0  0  0  0  0  0  0  0  0  0  0  0
  -27.9150   -8.4033   -8.8909 C   0  0  0  0  0  0  0  0  0  0  0  0
  -27.3946   -9.4772   -8.2732 N   0  0  0  0  0  0  0  0  0  0  0  0
  -27.8245   -9.7251   -7.0318 C   0  0  0  0  0  0  0  0  0  0  0  0
  -27.3334  -10.8213   -6.3242 C   0  0  0  0  0  0  0  0  0  0  0  0
  -27.7730  -11.1453   -5.0298 C   0  0  0  0  0  0  0  0  0  0  0  0
  -30.1976  -11.7224   -3.1266 C   0  0  0  0  0  0  0  0  0  0  0  0
  -29.2309  -10.6691   -3.1850 O   0  0  0  0  0  0  0  0  0  0  0  0
  -30.0022   -6.8204   -6.4495 N   0  0  0  0  0  0  0  0  0  0  0  0
  -30.6432   -7.2886   -5.8054 H   0  0  0  0  0  0  0  0  0  0  0  0
  -29.7224   -5.4879   -6.0694 C   0  0  0  0  0  0  0  0  0  0  0  0
  -29.1289   -4.6128   -6.9837 C   0  0  0  0  0  0  0  0  0  0  0  0
  -29.0342   -3.2481   -6.7054 C   0  0  0  0  0  0  0  0  0  0  0  0
  -29.5106   -2.7430   -5.4948 C   0  0  0  0  0  0  0  0  0  0  0  0
  -29.4389   -0.8547   -5.2731 Br  0  0  0  0  0  0  0  0  0  0  0  0
  -30.0457   -3.6052   -4.5284 C   0  0  0  0  0  0  0  0  0  0  0  0
  -30.5704   -2.9890   -2.9906 Cl  0  0  0  0  0  0  0  0  0  0  0  0
  -30.1614   -4.9761   -4.8253 C   0  0  0  0  0  0  0  0  0  0  0  0
  -30.8564   -6.0906   -3.6792 Cl  0  0  0  0  0  0  0  0  0  0  0  0
  -27.2359  -12.1530   -4.2736 O   0  0  0  0  0  0  0  0  0  0  0  0
  -25.8359  -12.1688   -3.9408 C   0  0  0  0  0  0  0  0  0  0  0  0
  -25.3767  -10.9598   -3.1290 C   0  0  0  0  0  0  0  0  0  0  0  0
  -24.0262  -10.6153   -3.7035 C   0  0  0  0  0  0  0  0  0  0  0  0
  -22.9401  -10.9593   -2.8315 O   0  0  0  0  0  0  0  0  0  0  0  0
  -21.8652  -11.3413   -3.7074 C   0  0  0  0  0  0  0  0  0  0  0  0
  -22.5324  -12.1678   -4.7935 C   0  0  0  0  0  0  0  0  0  0  0  0
  -23.8670  -11.4450   -4.9618 C   0  0  0  0  0  0  0  0  0  0  0  0
  -24.9571  -12.3685   -5.0539 O   0  0  0  0  0  0  0  0  0  0  0  0
  -21.7341  -12.1777   -5.9784 O   0  0  0  0  0  0  0  0  0  0  0  0
  -22.0274  -11.0813   -6.8366 C   0  0  0  0  0  0  0  0  0  0  0  0
 11 12  1  0  0  0
 12  1  1  0  0  0
  1  2  1  0  0  0
  1 10  2  0  0  0
  2  3  2  0  0  0
  3  4  1  0  0  0
  3  8  1  0  0  0
  4 13  1  0  0  0
  4  5  2  0  0  0
 13 15  1  0  0  0
 13 14  1  0  0  0
 15 16  1  0  0  0
 15 22  2  0  0  0
 16 17  2  0  0  0
 17 18  1  0  0  0
 18 19  1  0  0  0
 18 20  2  0  0  0
 20 21  1  0  0  0
 20 22  1  0  0  0
 22 23  1  0  0  0
  5  6  1  0  0  0
  6  7  2  0  0  0
  7  8  1  0  0  0
  8  9  2  0  0  0
  9 10  1  0  0  0
 10 24  1  0  0  0
 24 25  1  0  0  0
 25 26  1  0  0  0
 25 32  1  0  0  0
 26 27  1  0  0  0
 27 28  1  0  0  0
 27 31  1  0  0  0
 28 29  1  0  0  0
 29 30  1  0  0  0
 30 33  1  0  0  0
 30 31  1  0  0  0
 33 34  1  0  0  0
 31 32  1  0  0  0
M  END
> <minimizedAffinity>
-8.13375

$$$$
