CHEMBL269915


 35 39  0  0  0  0  0  0  0  0999 V2000
  -14.6712   -0.7059  -14.4316 C   0  0  0  0  0  0  0  0  0  0  0  0
  -15.7220   -0.5256  -13.5452 C   0  0  0  0  0  0  0  0  0  0  0  0
  -16.6493    0.4968  -13.7788 C   0  0  0  0  0  0  0  0  0  0  0  0
  -16.4661    1.4610  -14.8041 C   0  0  0  0  0  0  0  0  0  0  0  0
  -17.3896    2.4900  -15.1594 C   0  0  0  0  0  0  0  0  0  0  0  0
  -17.0713    3.4221  -16.1648 C   0  0  0  0  0  0  0  0  0  0  0  0
  -15.8600    3.3494  -16.8412 C   0  0  0  0  0  0  0  0  0  0  0  0
  -14.9744    2.3171  -16.5527 C   0  0  0  0  0  0  0  0  0  0  0  0
  -15.2695    1.3658  -15.5626 C   0  0  0  0  0  0  0  0  0  0  0  0
  -14.3992    0.2791  -15.3794 C   0  0  0  0  0  0  0  0  0  0  0  0
  -18.7744    2.5961  -14.6081 C   0  0  0  0  0  0  0  0  0  0  0  0
  -18.9945    3.4339  -13.7365 O   0  0  0  0  0  0  0  0  0  0  0  0
  -19.6772    1.6578  -15.0475 N   0  0  0  0  0  0  0  0  0  0  0  0
  -19.3194    0.8013  -15.4395 H   0  0  0  0  0  0  0  0  0  0  0  0
  -20.9806    1.5408  -14.5595 C   0  0  0  0  0  0  0  0  0  0  0  0
  -21.7898    2.6284  -14.2711 C   0  0  0  0  0  0  0  0  0  0  0  0
  -23.0586    2.4023  -13.7434 C   0  0  0  0  0  0  0  0  0  0  0  0
  -23.4529    1.0967  -13.4766 C   0  0  0  0  0  0  0  0  0  0  0  0
  -22.5868    0.0721  -13.8148 C   0  0  0  0  0  0  0  0  0  0  0  0
  -21.3817    0.2631  -14.3912 N   0  0  0  0  0  0  0  0  0  0  0  0
  -13.8865   -1.8350  -14.5012 O   0  0  0  0  0  0  0  0  0  0  0  0
  -13.8182   -4.4446   -9.9780 C   0  0  0  0  0  0  0  0  0  0  0  0
  -12.5705   -3.8489  -10.2248 C   0  0  0  0  0  0  0  0  0  0  0  0
  -12.2973   -3.1364  -11.3842 C   0  0  0  0  0  0  0  0  0  0  0  0
  -11.1279   -2.4782  -11.4544 N   0  0  0  0  0  0  0  0  0  0  0  0
  -10.8998   -1.6904  -12.5226 C   0  0  0  0  0  0  0  0  0  0  0  0
  -11.8190   -1.4908  -13.5373 C   0  0  0  0  0  0  0  0  0  0  0  0
  -13.0272   -2.1751  -13.4657 C   0  0  0  0  0  0  0  0  0  0  0  0
  -13.2632   -3.0871  -12.3985 C   0  0  0  0  0  0  0  0  0  0  0  0
  -14.4011   -3.9203  -12.2440 C   0  0  0  0  0  0  0  0  0  0  0  0
  -14.7385   -4.5067  -11.0213 C   0  0  0  0  0  0  0  0  0  0  0  0
  -13.0340   -5.3419   -7.9256 C   0  0  0  0  0  0  0  0  0  0  0  0
  -14.1366   -4.9844   -8.7608 O   0  0  0  0  0  0  0  0  0  0  0  0
  -15.9996   -5.0295  -11.0479 O   0  0  0  0  0  0  0  0  0  0  0  0
  -16.5953   -5.3789  -12.2859 C   0  0  0  0  0  0  0  0  0  0  0  0
 32 33  1  0  0  0
 33 22  1  0  0  0
 22 23  1  0  0  0
 22 31  2  0  0  0
 23 24  2  0  0  0
 24 25  1  0  0  0
 24 29  1  0  0  0
 25 26  2  0  0  0
 26 27  1  0  0  0
 27 28  2  0  0  0
 28 21  1  0  0  0
 28 29  1  0  0  0
 21  1  1  0  0  0
  1  2  1  0  0  0
  1 10  2  0  0  0
  2  3  2  0  0  0
  3  4  1  0  0  0
  4  5  1  0  0  0
  4  9  2  0  0  0
  5 11  1  0  0  0
  5  6  2  0  0  0
 11 12  2  0  0  0
 11 13  1  0  0  0
 13 15  1  0  0  0
 13 14  1  0  0  0
 15 16  1  0  0  0
 15 20  2  0  0  0
 16 17  2  0  0  0
 17 18  1  0  0  0
 18 19  2  0  0  0
 19 20  1  0  0  0
  6  7  1  0  0  0
  7  8  2  0  0  0
  8  9  1  0  0  0
  9 10  1  0  0  0
 29 30  2  0  0  0
 30 31  1  0  0  0
 31 34  1  0  0  0
 34 35  1  0  0  0
M  END
> <minimizedAffinity>
-9.13815

$$$$
