CHEMBL4168811


 42 47  0  0  0  0  0  0  0  0999 V2000
  -28.2811  -10.0504   -9.9262 C   0  0  0  0  0  0  0  0  0  0  0  0
  -27.4351  -10.3313   -8.8288 C   0  0  0  0  0  0  0  0  0  0  0  0
  -27.7353   -9.8594   -7.5338 C   0  0  0  0  0  0  0  0  0  0  0  0
  -28.8724   -9.0898   -7.3543 C   0  0  0  0  0  0  0  0  0  0  0  0
  -29.7027   -8.8475   -8.4589 C   0  0  0  0  0  0  0  0  0  0  0  0
  -29.4510   -9.3155   -9.7302 C   0  0  0  0  0  0  0  0  0  0  0  0
  -30.7528   -8.0080   -8.1267 N   0  0  0  0  0  0  0  0  0  0  0  0
  -30.6251   -7.5536   -6.8312 C   0  0  0  0  0  0  0  0  0  0  0  0
  -31.1896   -6.5704   -6.3909 O   0  0  0  0  0  0  0  0  0  0  0  0
  -29.5207   -8.3983   -6.2161 C   0  0  0  0  0  0  0  0  0  0  0  0
  -29.3011   -8.4269   -4.8805 C   0  0  0  0  0  0  0  0  0  0  0  0
  -31.3937   -7.5813   -8.7767 H   0  0  0  0  0  0  0  0  0  0  0  0
  -27.9924   -8.8904   -4.3573 C   0  0  0  0  0  0  0  0  0  0  0  0
  -27.8903  -10.1957   -3.8470 C   0  0  0  0  0  0  0  0  0  0  0  0
  -26.6663  -10.6878   -3.3892 C   0  0  0  0  0  0  0  0  0  0  0  0
  -25.5324   -9.8805   -3.4359 C   0  0  0  0  0  0  0  0  0  0  0  0
  -25.6199   -8.5853   -3.9490 C   0  0  0  0  0  0  0  0  0  0  0  0
  -26.8435   -8.0928   -4.4172 C   0  0  0  0  0  0  0  0  0  0  0  0
  -27.9739  -10.4467  -11.3259 C   0  0  0  0  0  0  0  0  0  0  0  0
  -28.6896  -11.1934  -11.9764 O   0  0  0  0  0  0  0  0  0  0  0  0
  -27.0355   -9.1093  -12.9799 C   0  0  0  0  0  0  0  0  0  0  0  0
  -26.8443   -9.8466  -11.7704 O   0  0  0  0  0  0  0  0  0  0  0  0
  -30.1436   -7.9779   -3.8690 N   0  0  0  0  0  0  0  0  0  0  0  0
  -30.6417   -8.6959   -3.3558 H   0  0  0  0  0  0  0  0  0  0  0  0
  -30.2836   -6.6589   -3.3750 C   0  0  0  0  0  0  0  0  0  0  0  0
  -31.2618   -6.3226   -2.4194 C   0  0  0  0  0  0  0  0  0  0  0  0
  -31.5773   -4.9910   -2.1498 C   0  0  0  0  0  0  0  0  0  0  0  0
  -30.9011   -4.0014   -2.8479 C   0  0  0  0  0  0  0  0  0  0  0  0
  -29.8727   -4.3025   -3.7492 C   0  0  0  0  0  0  0  0  0  0  0  0
  -29.5495   -5.6274   -3.9924 C   0  0  0  0  0  0  0  0  0  0  0  0
  -29.3494   -3.1061   -4.2802 N   0  0  0  0  0  0  0  0  0  0  0  0
  -28.3068   -2.8337   -5.1456 C   0  0  0  0  0  0  0  0  0  0  0  0
  -27.9704   -1.6621   -5.3741 O   0  0  0  0  0  0  0  0  0  0  0  0
  -30.1976   -1.9931   -3.8231 C   0  0  0  0  0  0  0  0  0  0  0  0
  -31.1329   -2.5279   -2.7438 C   0  0  0  0  0  0  0  0  0  0  0  0
  -27.5981   -3.9463   -5.9150 C   0  0  0  0  0  0  0  0  0  0  0  0
  -28.4081   -4.5392   -7.0046 N   0  0  0  0  0  0  0  0  0  0  0  0
  -27.6489   -4.7025   -8.2701 C   0  0  0  0  0  0  0  0  0  0  0  0
  -27.3824   -3.3983   -9.0547 C   0  0  0  0  0  0  0  0  0  0  0  0
  -28.5720   -2.6172   -9.2396 O   0  0  0  0  0  0  0  0  0  0  0  0
  -29.2089   -2.3588   -7.9857 C   0  0  0  0  0  0  0  0  0  0  0  0
  -29.5793   -3.6793   -7.2958 C   0  0  0  0  0  0  0  0  0  0  0  0
 21 22  1  0  0  0
 22 19  1  0  0  0
 19 20  2  0  0  0
 19  1  1  0  0  0
  1  2  1  0  0  0
  1  6  2  0  0  0
  2  3  2  0  0  0
  3  4  1  0  0  0
  4  5  2  0  0  0
  4 10  1  0  0  0
  5  6  1  0  0  0
  5  7  1  0  0  0
  7  8  1  0  0  0
  7 12  1  0  0  0
  8  9  2  0  0  0
  8 10  1  0  0  0
 10 11  2  0  0  0
 11 23  1  0  0  0
 11 13  1  0  0  0
 23 25  1  0  0  0
 23 24  1  0  0  0
 25 26  1  0  0  0
 25 30  2  0  0  0
 26 27  2  0  0  0
 27 28  1  0  0  0
 28 29  2  0  0  0
 28 35  1  0  0  0
 29 30  1  0  0  0
 29 31  1  0  0  0
 31 32  1  0  0  0
 31 34  1  0  0  0
 32 33  2  0  0  0
 32 36  1  0  0  0
 36 37  1  0  0  0
 37 38  1  0  0  0
 37 42  1  0  0  0
 38 39  1  0  0  0
 39 40  1  0  0  0
 40 41  1  0  0  0
 41 42  1  0  0  0
 34 35  1  0  0  0
 13 14  1  0  0  0
 13 18  2  0  0  0
 14 15  2  0  0  0
 15 16  1  0  0  0
 16 17  2  0  0  0
 17 18  1  0  0  0
M  END
> <minimizedAffinity>
-3.70393

$$$$
