CHEMBL215726


 45 50  0  0  0  0  0  0  0  0999 V2000
  -28.9830   -7.6259   -3.3903 C   0  0  0  0  0  0  0  0  0  0  0  0
  -28.7720   -7.5144   -2.1814 O   0  0  0  0  0  0  0  0  0  0  0  0
  -28.5506   -8.6851   -4.2037 N   0  0  0  0  0  0  0  0  0  0  0  0
  -28.0884   -9.9395   -3.6819 C   0  0  0  0  0  0  0  0  0  0  0  0
  -28.9524  -11.0183   -3.4805 C   0  0  0  0  0  0  0  0  0  0  0  0
  -28.4499  -12.2698   -3.1235 C   0  0  0  0  0  0  0  0  0  0  0  0
  -27.0770  -12.4572   -2.9451 C   0  0  0  0  0  0  0  0  0  0  0  0
  -26.1701  -11.4002   -3.1093 C   0  0  0  0  0  0  0  0  0  0  0  0
  -26.7126  -10.1431   -3.4368 C   0  0  0  0  0  0  0  0  0  0  0  0
  -24.7004  -11.6007   -3.0494 C   0  0  0  0  0  0  0  0  0  0  0  0
  -23.8523  -11.0332   -4.0196 C   0  0  0  0  0  0  0  0  0  0  0  0
  -22.4600  -11.1213   -3.9201 C   0  0  0  0  0  0  0  0  0  0  0  0
  -21.8786  -11.7746   -2.8398 C   0  0  0  0  0  0  0  0  0  0  0  0
  -22.6893  -12.3621   -1.8747 C   0  0  0  0  0  0  0  0  0  0  0  0
  -24.0825  -12.2861   -1.9859 C   0  0  0  0  0  0  0  0  0  0  0  0
  -28.7484   -8.5996   -5.6178 C   0  0  0  0  0  0  0  0  0  0  0  0
  -29.3150   -9.6572   -6.3026 C   0  0  0  0  0  0  0  0  0  0  0  0
  -29.4807   -9.4853   -7.6522 C   0  0  0  0  0  0  0  0  0  0  0  0
  -29.1204   -8.3701   -8.3088 N   0  0  0  0  0  0  0  0  0  0  0  0
  -28.5628   -7.3968   -7.5787 C   0  0  0  0  0  0  0  0  0  0  0  0
  -28.3849   -7.4739   -6.2491 N   0  0  0  0  0  0  0  0  0  0  0  0
  -28.1561   -6.2511   -8.2638 N   0  0  0  0  0  0  0  0  0  0  0  0
  -27.2278   -6.3805   -8.6405 H   0  0  0  0  0  0  0  0  0  0  0  0
  -28.4989   -4.9246   -7.9615 C   0  0  0  0  0  0  0  0  0  0  0  0
  -27.6147   -3.8663   -8.1692 C   0  0  0  0  0  0  0  0  0  0  0  0
  -27.9408   -2.5700   -7.7743 C   0  0  0  0  0  0  0  0  0  0  0  0
  -29.1565   -2.2708   -7.1492 C   0  0  0  0  0  0  0  0  0  0  0  0
  -30.0621   -3.3273   -6.9945 C   0  0  0  0  0  0  0  0  0  0  0  0
  -29.7431   -4.6346   -7.3991 C   0  0  0  0  0  0  0  0  0  0  0  0
  -29.4220   -0.9685   -6.7743 N   0  0  0  0  0  0  0  0  0  0  0  0
  -29.9739   -0.6242   -5.4598 C   0  0  0  0  0  0  0  0  0  0  0  0
  -30.8480    0.6466   -5.6091 C   0  0  0  0  0  0  0  0  0  0  0  0
  -30.1076    1.7926   -6.1906 N   0  0  0  0  0  0  0  0  0  0  0  0
  -30.9936    2.9400   -6.3663 C   0  0  0  0  0  0  0  0  0  0  0  0
  -29.5238    1.3873   -7.4919 C   0  0  0  0  0  0  0  0  0  0  0  0
  -28.6369    0.1268   -7.3783 C   0  0  0  0  0  0  0  0  0  0  0  0
  -29.7819   -6.7108   -4.0899 O   0  0  0  0  0  0  0  0  0  0  0  0
  -27.4232   -4.7153   -4.0849 C   0  0  0  0  0  0  0  0  0  0  0  0
  -28.8612   -4.3891   -3.8139 C   0  0  0  0  0  0  0  0  0  0  0  0
  -29.1568   -3.0626   -3.4536 C   0  0  0  0  0  0  0  0  0  0  0  0
  -30.4574   -2.6591   -3.1630 C   0  0  0  0  0  0  0  0  0  0  0  0
  -31.5020   -3.5712   -3.2529 C   0  0  0  0  0  0  0  0  0  0  0  0
  -31.2529   -4.8976   -3.6268 C   0  0  0  0  0  0  0  0  0  0  0  0
  -32.4055   -5.8631   -3.6997 C   0  0  0  0  0  0  0  0  0  0  0  0
  -29.9259   -5.3022   -3.8995 C   0  0  0  0  0  0  0  0  0  0  0  0
 38 39  1  0  0  0
 39 40  1  0  0  0
 39 45  2  0  0  0
 40 41  2  0  0  0
 41 42  1  0  0  0
 42 43  2  0  0  0
 43 44  1  0  0  0
 43 45  1  0  0  0
 45 37  1  0  0  0
 37  1  1  0  0  0
  1  2  2  0  0  0
  1  3  1  0  0  0
  3  4  1  0  0  0
  3 16  1  0  0  0
  4  5  1  0  0  0
  4  9  2  0  0  0
  5  6  2  0  0  0
  6  7  1  0  0  0
  7  8  2  0  0  0
  8 10  1  0  0  0
  8  9  1  0  0  0
 10 11  1  0  0  0
 10 15  2  0  0  0
 11 12  2  0  0  0
 12 13  1  0  0  0
 13 14  2  0  0  0
 14 15  1  0  0  0
 16 17  1  0  0  0
 16 21  2  0  0  0
 17 18  2  0  0  0
 18 19  1  0  0  0
 19 20  2  0  0  0
 20 22  1  0  0  0
 20 21  1  0  0  0
 22 24  1  0  0  0
 22 23  1  0  0  0
 24 25  1  0  0  0
 24 29  2  0  0  0
 25 26  2  0  0  0
 26 27  1  0  0  0
 27 30  1  0  0  0
 27 28  2  0  0  0
 30 31  1  0  0  0
 30 36  1  0  0  0
 31 32  1  0  0  0
 32 33  1  0  0  0
 33 34  1  0  0  0
 33 35  1  0  0  0
 35 36  1  0  0  0
 28 29  1  0  0  0
M  END
> <minimizedAffinity>
-6.47368

$$$$
