CHEMBL3780758


 30 34  0  0  0  0  0  0  0  0999 V2000
  -27.5430   -2.0590   -9.2187 C   0  0  0  0  0  0  0  0  0  0  0  0
  -28.3864   -3.1308   -8.9730 C   0  0  0  0  0  0  0  0  0  0  0  0
  -28.9574   -3.3643   -7.7667 N   0  0  0  0  0  0  0  0  0  0  0  0
  -28.7226   -2.4278   -6.8016 C   0  0  0  0  0  0  0  0  0  0  0  0
  -29.2915   -2.5050   -5.5226 C   0  0  0  0  0  0  0  0  0  0  0  0
  -29.1878   -1.4969   -4.6160 N   0  0  0  0  0  0  0  0  0  0  0  0
  -28.4359   -0.4382   -4.9243 C   0  0  0  0  0  0  0  0  0  0  0  0
  -27.7246   -0.3424   -6.0992 C   0  0  0  0  0  0  0  0  0  0  0  0
  -27.8979   -1.3230   -7.0554 C   0  0  0  0  0  0  0  0  0  0  0  0
  -27.2767   -1.1608   -8.2397 N   0  0  0  0  0  0  0  0  0  0  0  0
  -25.7375   -1.3546  -13.0539 C   0  0  0  0  0  0  0  0  0  0  0  0
  -24.9971   -1.1573  -11.8902 C   0  0  0  0  0  0  0  0  0  0  0  0
  -25.5844   -1.3732  -10.6411 C   0  0  0  0  0  0  0  0  0  0  0  0
  -26.9224   -1.7880  -10.5261 C   0  0  0  0  0  0  0  0  0  0  0  0
  -27.6527   -1.9733  -11.7168 C   0  0  0  0  0  0  0  0  0  0  0  0
  -27.0640   -1.7605  -12.9680 C   0  0  0  0  0  0  0  0  0  0  0  0
  -30.0040   -3.6734   -5.1918 N   0  0  0  0  0  0  0  0  0  0  0  0
  -30.9171   -3.4742   -4.7991 H   0  0  0  0  0  0  0  0  0  0  0  0
  -29.5665   -4.9993   -5.1271 C   0  0  0  0  0  0  0  0  0  0  0  0
  -28.3016   -5.3434   -4.6615 C   0  0  0  0  0  0  0  0  0  0  0  0
  -27.8838   -6.6719   -4.6112 C   0  0  0  0  0  0  0  0  0  0  0  0
  -28.6983   -7.7147   -5.0556 C   0  0  0  0  0  0  0  0  0  0  0  0
  -29.9653   -7.3580   -5.5358 C   0  0  0  0  0  0  0  0  0  0  0  0
  -30.3924   -6.0239   -5.5837 C   0  0  0  0  0  0  0  0  0  0  0  0
  -28.2782   -9.0298   -5.0191 N   0  0  0  0  0  0  0  0  0  0  0  0
  -29.2192  -10.1455   -4.9402 C   0  0  0  0  0  0  0  0  0  0  0  0
  -29.0119  -10.9144   -3.6380 C   0  0  0  0  0  0  0  0  0  0  0  0
  -27.5508  -11.3271   -3.4638 C   0  0  0  0  0  0  0  0  0  0  0  0
  -26.6094  -10.1345   -3.6208 C   0  0  0  0  0  0  0  0  0  0  0  0
  -26.8631   -9.3804   -4.9271 C   0  0  0  0  0  0  0  0  0  0  0  0
 11 12  1  0  0  0
 11 16  2  0  0  0
 12 13  2  0  0  0
 13 14  1  0  0  0
 14  1  1  0  0  0
 14 15  2  0  0  0
  1  2  1  0  0  0
  1 10  2  0  0  0
  2  3  2  0  0  0
  3  4  1  0  0  0
  4  5  1  0  0  0
  4  9  2  0  0  0
  5 17  1  0  0  0
  5  6  2  0  0  0
 17 19  1  0  0  0
 17 18  1  0  0  0
 19 20  1  0  0  0
 19 24  2  0  0  0
 20 21  2  0  0  0
 21 22  1  0  0  0
 22 25  1  0  0  0
 22 23  2  0  0  0
 25 26  1  0  0  0
 25 30  1  0  0  0
 26 27  1  0  0  0
 27 28  1  0  0  0
 28 29  1  0  0  0
 29 30  1  0  0  0
 23 24  1  0  0  0
  6  7  1  0  0  0
  7  8  2  0  0  0
  8  9  1  0  0  0
  9 10  1  0  0  0
 15 16  1  0  0  0
M  END
> <minimizedAffinity>
-9.41727

$$$$
