CHEMBL2031911


 42 47  0  0  0  0  0  0  0  0999 V2000
  -26.0283   -1.9089   -9.6931 N   0  0  0  0  0  0  0  0  0  0  0  0
  -27.3879   -1.6956   -9.4863 C   0  0  0  0  0  0  0  0  0  0  0  0
  -28.0387   -0.9017  -10.1575 O   0  0  0  0  0  0  0  0  0  0  0  0
  -25.4809   -2.2300   -8.8946 H   0  0  0  0  0  0  0  0  0  0  0  0
  -23.9132   -0.8960  -13.2484 C   0  0  0  0  0  0  0  0  0  0  0  0
  -25.2345   -1.3362  -13.3175 C   0  0  0  0  0  0  0  0  0  0  0  0
  -25.9456   -1.6241  -12.1417 C   0  0  0  0  0  0  0  0  0  0  0  0
  -25.3307   -1.5746  -10.8843 C   0  0  0  0  0  0  0  0  0  0  0  0
  -23.9751   -1.2425  -10.8250 C   0  0  0  0  0  0  0  0  0  0  0  0
  -23.2891   -0.8830  -11.9953 C   0  0  0  0  0  0  0  0  0  0  0  0
  -22.0090   -0.4917  -11.8933 F   0  0  0  0  0  0  0  0  0  0  0  0
  -23.1674   -0.4420  -14.3212 O   0  0  0  0  0  0  0  0  0  0  0  0
  -18.5222    1.6393  -15.2370 C   0  0  0  0  0  0  0  0  0  0  0  0
  -19.0027    0.3560  -15.4481 C   0  0  0  0  0  0  0  0  0  0  0  0
  -20.3454    0.0814  -15.2261 C   0  0  0  0  0  0  0  0  0  0  0  0
  -21.2193    1.0532  -14.6874 C   0  0  0  0  0  0  0  0  0  0  0  0
  -22.5497    0.7955  -14.2858 C   0  0  0  0  0  0  0  0  0  0  0  0
  -23.3632    1.8481  -13.8697 C   0  0  0  0  0  0  0  0  0  0  0  0
  -22.8075    3.1087  -13.7975 C   0  0  0  0  0  0  0  0  0  0  0  0
  -21.5160    3.3754  -14.0829 N   0  0  0  0  0  0  0  0  0  0  0  0
  -20.7296    2.3644  -14.5136 C   0  0  0  0  0  0  0  0  0  0  0  0
  -19.3944    2.6305  -14.7828 C   0  0  0  0  0  0  0  0  0  0  0  0
  -17.0468    3.3573  -15.8858 C   0  0  0  0  0  0  0  0  0  0  0  0
  -17.2202    2.0196  -15.4242 O   0  0  0  0  0  0  0  0  0  0  0  0
  -27.9890   -2.4352   -8.3310 C   0  0  0  0  0  0  0  0  0  0  0  0
  -28.5115   -2.0071   -7.1473 C   0  0  0  0  0  0  0  0  0  0  0  0
  -29.0239   -3.0861   -6.3835 N   0  0  0  0  0  0  0  0  0  0  0  0
  -29.0357   -3.1636   -4.9203 C   0  0  0  0  0  0  0  0  0  0  0  0
  -28.6275   -4.2598   -7.0454 N   0  0  0  0  0  0  0  0  0  0  0  0
  -28.0586   -3.9247   -8.2677 C   0  0  0  0  0  0  0  0  0  0  0  0
  -27.6851   -4.6569   -9.1720 O   0  0  0  0  0  0  0  0  0  0  0  0
  -29.0501   -5.5447   -6.6593 C   0  0  0  0  0  0  0  0  0  0  0  0
  -30.2111   -6.0817   -7.2280 C   0  0  0  0  0  0  0  0  0  0  0  0
  -30.6102   -7.3847   -6.9179 C   0  0  0  0  0  0  0  0  0  0  0  0
  -29.8786   -8.1390   -6.0022 C   0  0  0  0  0  0  0  0  0  0  0  0
  -28.7345   -7.6007   -5.4131 C   0  0  0  0  0  0  0  0  0  0  0  0
  -28.3066   -6.3157   -5.7599 C   0  0  0  0  0  0  0  0  0  0  0  0
  -28.5816   -0.5794   -6.6188 C   0  0  0  0  0  0  0  0  0  0  0  0
  -27.5974   -0.1926   -5.5148 C   0  0  0  0  0  0  0  0  0  0  0  0
  -28.2737    0.9903   -4.8645 C   0  0  0  0  0  0  0  0  0  0  0  0
  -29.7338    0.6338   -4.9694 C   0  0  0  0  0  0  0  0  0  0  0  0
  -29.8604   -0.2827   -6.0533 O   0  0  0  0  0  0  0  0  0  0  0  0
 23 24  1  0  0  0
 24 13  1  0  0  0
 13 14  1  0  0  0
 13 22  2  0  0  0
 14 15  2  0  0  0
 15 16  1  0  0  0
 16 17  1  0  0  0
 16 21  2  0  0  0
 17 12  1  0  0  0
 17 18  2  0  0  0
 12  5  1  0  0  0
  5  6  1  0  0  0
  5 10  2  0  0  0
  6  7  2  0  0  0
  7  8  1  0  0  0
  8  1  1  0  0  0
  8  9  2  0  0  0
  1  2  1  0  0  0
  1  4  1  0  0  0
  2  3  2  0  0  0
  2 25  1  0  0  0
 25 26  2  0  0  0
 25 30  1  0  0  0
 26 38  1  0  0  0
 26 27  1  0  0  0
 38 39  1  0  0  0
 38 42  1  0  0  0
 39 40  1  0  0  0
 40 41  1  0  0  0
 41 42  1  0  0  0
 27 28  1  0  0  0
 27 29  1  0  0  0
 29 32  1  0  0  0
 29 30  1  0  0  0
 32 33  1  0  0  0
 32 37  2  0  0  0
 33 34  2  0  0  0
 34 35  1  0  0  0
 35 36  2  0  0  0
 36 37  1  0  0  0
 30 31  2  0  0  0
  9 10  1  0  0  0
 10 11  1  0  0  0
 18 19  1  0  0  0
 19 20  2  0  0  0
 20 21  1  0  0  0
 21 22  1  0  0  0
M  END
> <minimizedAffinity>
-10.54478

$$$$
