CHEMBL457100


 39 44  0  0  0  0  0  0  0  0999 V2000
  -14.4723   -0.3323  -14.3242 C   0  0  0  0  0  0  0  0  0  0  0  0
  -15.7177   -0.3643  -13.6978 C   0  0  0  0  0  0  0  0  0  0  0  0
  -16.7843    0.3653  -14.2135 C   0  0  0  0  0  0  0  0  0  0  0  0
  -16.6359    1.1967  -15.3311 C   0  0  0  0  0  0  0  0  0  0  0  0
  -15.3139    1.4118  -15.8355 C   0  0  0  0  0  0  0  0  0  0  0  0
  -15.0193    2.3997  -16.8083 C   0  0  0  0  0  0  0  0  0  0  0  0
  -13.7269    2.5950  -17.2998 C   0  0  0  0  0  0  0  0  0  0  0  0
  -12.6882    1.7992  -16.8418 C   0  0  0  0  0  0  0  0  0  0  0  0
  -12.9367    0.8205  -15.8781 C   0  0  0  0  0  0  0  0  0  0  0  0
  -14.2287    0.6189  -15.3423 C   0  0  0  0  0  0  0  0  0  0  0  0
  -17.7629    1.8516  -15.9234 N   0  0  0  0  0  0  0  0  0  0  0  0
  -17.6602    1.9122  -16.9284 H   0  0  0  0  0  0  0  0  0  0  0  0
  -18.9935    1.9930  -15.3698 C   0  0  0  0  0  0  0  0  0  0  0  0
  -19.6533    3.0907  -15.0800 N   0  0  0  0  0  0  0  0  0  0  0  0
  -20.8512    2.6973  -14.5528 C   0  0  0  0  0  0  0  0  0  0  0  0
  -21.9034    3.4926  -14.0835 C   0  0  0  0  0  0  0  0  0  0  0  0
  -23.0531    2.8652  -13.6039 C   0  0  0  0  0  0  0  0  0  0  0  0
  -23.1454    1.4719  -13.5860 C   0  0  0  0  0  0  0  0  0  0  0  0
  -22.0993    0.6398  -14.0413 C   0  0  0  0  0  0  0  0  0  0  0  0
  -22.2553   -0.8505  -13.9923 C   0  0  0  0  0  0  0  0  0  0  0  0
  -20.9584    1.3114  -14.5213 C   0  0  0  0  0  0  0  0  0  0  0  0
  -19.7544    0.8891  -15.0450 N   0  0  0  0  0  0  0  0  0  0  0  0
  -19.4708   -0.0701  -15.1597 H   0  0  0  0  0  0  0  0  0  0  0  0
  -13.4506   -1.1872  -13.9139 O   0  0  0  0  0  0  0  0  0  0  0  0
  -13.9797   -3.5307  -13.5349 C   0  0  0  0  0  0  0  0  0  0  0  0
  -14.0532   -4.8107  -14.1340 C   0  0  0  0  0  0  0  0  0  0  0  0
  -13.6706   -5.0329  -15.4534 C   0  0  0  0  0  0  0  0  0  0  0  0
  -13.1689   -3.9674  -16.1607 C   0  0  0  0  0  0  0  0  0  0  0  0
  -13.0485   -2.7334  -15.6417 N   0  0  0  0  0  0  0  0  0  0  0  0
  -13.4923   -2.5108  -14.3704 C   0  0  0  0  0  0  0  0  0  0  0  0
  -13.8039   -3.4725   -9.8989 C   0  0  0  0  0  0  0  0  0  0  0  0
  -15.0601   -3.3508   -9.4675 N   0  0  0  0  0  0  0  0  0  0  0  0
  -16.0121   -3.2361  -10.4078 C   0  0  0  0  0  0  0  0  0  0  0  0
  -15.7613   -3.2570  -11.7596 C   0  0  0  0  0  0  0  0  0  0  0  0
  -14.4409   -3.3883  -12.1332 C   0  0  0  0  0  0  0  0  0  0  0  0
  -13.4595   -3.4906  -11.1944 N   0  0  0  0  0  0  0  0  0  0  0  0
  -12.7019   -4.9576   -8.3475 C   0  0  0  0  0  0  0  0  0  0  0  0
  -12.8593   -3.6314   -8.8946 N   0  0  0  0  0  0  0  0  0  0  0  0
  -13.0311   -2.8893   -8.2263 H   0  0  0  0  0  0  0  0  0  0  0  0
 37 38  1  0  0  0
 38 31  1  0  0  0
 38 39  1  0  0  0
 31 32  1  0  0  0
 31 36  2  0  0  0
 32 33  2  0  0  0
 33 34  1  0  0  0
 34 35  2  0  0  0
 35 25  1  0  0  0
 35 36  1  0  0  0
 25 26  1  0  0  0
 25 30  2  0  0  0
 26 27  2  0  0  0
 27 28  1  0  0  0
 28 29  2  0  0  0
 29 30  1  0  0  0
 30 24  1  0  0  0
 24  1  1  0  0  0
  1  2  1  0  0  0
  1 10  2  0  0  0
  2  3  2  0  0  0
  3  4  1  0  0  0
  4 11  1  0  0  0
  4  5  2  0  0  0
 11 13  1  0  0  0
 11 12  1  0  0  0
 13 14  2  0  0  0
 13 22  1  0  0  0
 14 15  1  0  0  0
 15 16  1  0  0  0
 15 21  2  0  0  0
 16 17  2  0  0  0
 17 18  1  0  0  0
 18 19  2  0  0  0
 19 20  1  0  0  0
 19 21  1  0  0  0
 21 22  1  0  0  0
 22 23  1  0  0  0
  5  6  1  0  0  0
  5 10  1  0  0  0
  6  7  2  0  0  0
  7  8  1  0  0  0
  8  9  2  0  0  0
  9 10  1  0  0  0
M  END
> <minimizedAffinity>
-8.96858

$$$$
