CHEMBL4073536


 34 37  0  0  0  0  0  0  0  0999 V2000
  -17.0516   -0.0459  -14.9122 N   0  0  0  0  0  0  0  0  0  0  0  0
  -16.1356   -0.5299  -13.9918 C   0  0  0  0  0  0  0  0  0  0  0  0
  -15.3794    0.1910  -13.3552 O   0  0  0  0  0  0  0  0  0  0  0  0
  -16.1590   -1.9053  -13.8369 N   0  0  0  0  0  0  0  0  0  0  0  0
  -17.8043   -0.6589  -15.1940 H   0  0  0  0  0  0  0  0  0  0  0  0
  -16.5090   -2.4510  -14.6107 H   0  0  0  0  0  0  0  0  0  0  0  0
  -16.2429    3.4559  -15.9781 C   0  0  0  0  0  0  0  0  0  0  0  0
  -17.5366    4.0103  -15.9611 C   0  0  0  0  0  0  0  0  0  0  0  0
  -18.6287    3.2925  -15.5042 C   0  0  0  0  0  0  0  0  0  0  0  0
  -18.4529    1.9832  -15.0890 C   0  0  0  0  0  0  0  0  0  0  0  0
  -17.2096    1.3447  -15.1869 C   0  0  0  0  0  0  0  0  0  0  0  0
  -16.1040    2.1054  -15.5951 C   0  0  0  0  0  0  0  0  0  0  0  0
  -15.1262    4.2284  -16.3637 N   0  0  0  0  0  0  0  0  0  0  0  0
  -14.8192    4.1354  -18.8444 C   0  0  0  0  0  0  0  0  0  0  0  0
  -15.2641    4.9500  -17.6425 C   0  0  0  0  0  0  0  0  0  0  0  0
  -13.8081    3.6700  -16.0110 C   0  0  0  0  0  0  0  0  0  0  0  0
  -13.0091    4.5361  -15.0426 C   0  0  0  0  0  0  0  0  0  0  0  0
  -15.3698   -2.5781  -12.8627 C   0  0  0  0  0  0  0  0  0  0  0  0
  -15.8880   -3.0075  -11.6395 C   0  0  0  0  0  0  0  0  0  0  0  0
  -15.0608   -3.4995  -10.6276 C   0  0  0  0  0  0  0  0  0  0  0  0
  -13.6872   -3.6831  -10.8254 C   0  0  0  0  0  0  0  0  0  0  0  0
  -13.2155   -3.4173  -12.1196 C   0  0  0  0  0  0  0  0  0  0  0  0
  -14.0237   -2.8260  -13.1120 C   0  0  0  0  0  0  0  0  0  0  0  0
  -12.8307   -4.1674   -9.7211 C   0  0  0  0  0  0  0  0  0  0  0  0
  -12.6800   -3.4017   -8.5382 C   0  0  0  0  0  0  0  0  0  0  0  0
  -11.8545   -3.8273   -7.5091 C   0  0  0  0  0  0  0  0  0  0  0  0
  -11.1526   -4.9709   -7.5098 N   0  0  0  0  0  0  0  0  0  0  0  0
  -11.3068   -5.6765   -8.6438 C   0  0  0  0  0  0  0  0  0  0  0  0
  -10.6968   -6.8655   -8.8901 N   0  0  0  0  0  0  0  0  0  0  0  0
  -10.9647   -7.3767  -10.0975 N   0  0  0  0  0  0  0  0  0  0  0  0
  -11.7774   -6.4650  -10.6583 C   0  0  0  0  0  0  0  0  0  0  0  0
  -12.2095   -6.7254  -12.0558 C   0  0  0  0  0  0  0  0  0  0  0  0
  -12.0748   -5.3733   -9.7681 C   0  0  0  0  0  0  0  0  0  0  0  0
  -10.0783   -7.3658   -8.2654 H   0  0  0  0  0  0  0  0  0  0  0  0
 14 15  1  0  0  0
 15 13  1  0  0  0
 13 16  1  0  0  0
 13  7  1  0  0  0
 16 17  1  0  0  0
  7  8  1  0  0  0
  7 12  2  0  0  0
  8  9  2  0  0  0
  9 10  1  0  0  0
 10 11  2  0  0  0
 11  1  1  0  0  0
 11 12  1  0  0  0
  1  2  1  0  0  0
  1  5  1  0  0  0
  2  3  2  0  0  0
  2  4  1  0  0  0
  4 18  1  0  0  0
  4  6  1  0  0  0
 18 19  1  0  0  0
 18 23  2  0  0  0
 19 20  2  0  0  0
 20 21  1  0  0  0
 21 24  1  0  0  0
 21 22  2  0  0  0
 24 25  1  0  0  0
 24 33  2  0  0  0
 25 26  2  0  0  0
 26 27  1  0  0  0
 27 28  2  0  0  0
 28 29  1  0  0  0
 28 33  1  0  0  0
 29 30  1  0  0  0
 29 34  1  0  0  0
 30 31  2  0  0  0
 31 32  1  0  0  0
 31 33  1  0  0  0
 22 23  1  0  0  0
M  END
> <minimizedAffinity>
-8.16806

$$$$
