CHEMBL47940


 30 34  0  0  0  0  0  0  0  0999 V2000
  -28.5702   -8.3213   -3.0993 N   0  0  0  0  0  0  0  0  0  0  0  0
  -28.3616   -9.1547   -4.1932 C   0  0  0  0  0  0  0  0  0  0  0  0
  -28.0770  -10.4324   -3.8943 N   0  0  0  0  0  0  0  0  0  0  0  0
  -27.8932  -11.3016   -4.9051 C   0  0  0  0  0  0  0  0  0  0  0  0
  -27.9638  -11.0613   -6.2205 N   0  0  0  0  0  0  0  0  0  0  0  0
  -28.2377   -9.7699   -6.4835 C   0  0  0  0  0  0  0  0  0  0  0  0
  -28.4410   -8.7602   -5.5456 C   0  0  0  0  0  0  0  0  0  0  0  0
  -28.6780   -7.5503   -6.2924 C   0  0  0  0  0  0  0  0  0  0  0  0
  -28.6173   -7.8888   -7.6323 C   0  0  0  0  0  0  0  0  0  0  0  0
  -28.3591   -9.2342   -7.7397 N   0  0  0  0  0  0  0  0  0  0  0  0
  -28.6739   -8.8720   -2.2562 H   0  0  0  0  0  0  0  0  0  0  0  0
  -29.2811   -7.6169   -3.2518 H   0  0  0  0  0  0  0  0  0  0  0  0
  -28.9007   -6.1763   -5.8607 C   0  0  0  0  0  0  0  0  0  0  0  0
  -29.9437   -5.4303   -6.4080 C   0  0  0  0  0  0  0  0  0  0  0  0
  -30.1325   -4.0971   -6.0581 C   0  0  0  0  0  0  0  0  0  0  0  0
  -29.4011   -3.5438   -5.0078 C   0  0  0  0  0  0  0  0  0  0  0  0
  -28.3576   -4.2711   -4.4405 C   0  0  0  0  0  0  0  0  0  0  0  0
  -28.0956   -5.5739   -4.8803 C   0  0  0  0  0  0  0  0  0  0  0  0
  -29.6560   -2.2993   -4.4756 O   0  0  0  0  0  0  0  0  0  0  0  0
  -29.3231   -1.1833   -5.2166 C   0  0  0  0  0  0  0  0  0  0  0  0
  -28.1331   -1.0476   -5.9432 C   0  0  0  0  0  0  0  0  0  0  0  0
  -27.8183    0.1642   -6.5544 C   0  0  0  0  0  0  0  0  0  0  0  0
  -28.7315    1.2146   -6.5182 C   0  0  0  0  0  0  0  0  0  0  0  0
  -29.9620    1.0485   -5.8810 C   0  0  0  0  0  0  0  0  0  0  0  0
  -30.2572   -0.1486   -5.2264 C   0  0  0  0  0  0  0  0  0  0  0  0
  -28.2229   -9.9621   -8.9874 C   0  0  0  0  0  0  0  0  0  0  0  0
  -27.0880   -9.4620   -9.8860 C   0  0  0  0  0  0  0  0  0  0  0  0
  -27.4526   -9.9374  -11.2904 C   0  0  0  0  0  0  0  0  0  0  0  0
  -28.9306  -10.3233  -11.2534 C   0  0  0  0  0  0  0  0  0  0  0  0
  -29.4496   -9.8715   -9.8955 C   0  0  0  0  0  0  0  0  0  0  0  0
  1  2  1  0  0  0
  1 11  1  0  0  0
  1 12  1  0  0  0
  2  3  1  0  0  0
  2  7  2  0  0  0
  3  4  2  0  0  0
  4  5  1  0  0  0
  5  6  2  0  0  0
  6  7  1  0  0  0
  6 10  1  0  0  0
  7  8  1  0  0  0
  8 13  1  0  0  0
  8  9  2  0  0  0
 13 14  1  0  0  0
 13 18  2  0  0  0
 14 15  2  0  0  0
 15 16  1  0  0  0
 16 19  1  0  0  0
 16 17  2  0  0  0
 19 20  1  0  0  0
 20 21  1  0  0  0
 20 25  2  0  0  0
 21 22  2  0  0  0
 22 23  1  0  0  0
 23 24  2  0  0  0
 24 25  1  0  0  0
 17 18  1  0  0  0
  9 10  1  0  0  0
 10 26  1  0  0  0
 26 27  1  0  0  0
 26 30  1  0  0  0
 27 28  1  0  0  0
 28 29  1  0  0  0
 29 30  1  0  0  0
M  END
> <minimizedAffinity>
-9.04975

$$$$
