CHEMBL380905


 25 28  0  0  0  0  0  0  0  0999 V2000
  -29.6974   -6.7306   -5.3579 O   0  0  0  0  0  0  0  0  0  0  0  0
  -28.3080    0.4895   -4.9277 C   0  0  0  0  0  0  0  0  0  0  0  0
  -28.3519   -0.9689   -5.1887 C   0  0  0  0  0  0  0  0  0  0  0  0
  -28.3715   -2.0429   -4.3226 C   0  0  0  0  0  0  0  0  0  0  0  0
  -28.6504   -3.2105   -5.0855 C   0  0  0  0  0  0  0  0  0  0  0  0
  -28.9236   -4.5522   -4.7654 C   0  0  0  0  0  0  0  0  0  0  0  0
  -28.9117   -4.9592   -3.4863 F   0  0  0  0  0  0  0  0  0  0  0  0
  -29.2804   -5.4436   -5.7825 C   0  0  0  0  0  0  0  0  0  0  0  0
  -29.3382   -5.0258   -7.1115 C   0  0  0  0  0  0  0  0  0  0  0  0
  -29.0097   -3.7108   -7.4608 C   0  0  0  0  0  0  0  0  0  0  0  0
  -28.6987   -2.8217   -6.4252 C   0  0  0  0  0  0  0  0  0  0  0  0
  -28.4346   -1.4714   -6.4643 N   0  0  0  0  0  0  0  0  0  0  0  0
  -28.4183   -0.9176   -7.3098 H   0  0  0  0  0  0  0  0  0  0  0  0
  -29.0840   -7.9124   -5.7467 C   0  0  0  0  0  0  0  0  0  0  0  0
  -27.9259   -8.3103   -5.3449 N   0  0  0  0  0  0  0  0  0  0  0  0
  -27.4641   -9.4949   -5.8570 C   0  0  0  0  0  0  0  0  0  0  0  0
  -28.0679  -10.2663   -6.7073 N   0  0  0  0  0  0  0  0  0  0  0  0
  -29.2793   -9.8259   -7.0918 N   0  0  0  0  0  0  0  0  0  0  0  0
  -30.1127  -10.4586   -7.9728 C   0  0  0  0  0  0  0  0  0  0  0  0
  -31.2389   -9.6865   -8.0829 C   0  0  0  0  0  0  0  0  0  0  0  0
  -32.2883   -9.9935   -8.8583 O   0  0  0  0  0  0  0  0  0  0  0  0
  -31.1063   -8.5431   -7.2563 C   0  0  0  0  0  0  0  0  0  0  0  0
  -32.1031   -7.4553   -7.0805 C   0  0  0  0  0  0  0  0  0  0  0  0
  -29.8609   -8.6705   -6.6597 C   0  0  0  0  0  0  0  0  0  0  0  0
  -32.1300  -10.8354   -9.3194 H   0  0  0  0  0  0  0  0  0  0  0  0
  2  3  1  0  0  0
  3  4  2  0  0  0
  3 12  1  0  0  0
  4  5  1  0  0  0
  5  6  1  0  0  0
  5 11  2  0  0  0
  6  7  1  0  0  0
  6  8  2  0  0  0
  8  1  1  0  0  0
  8  9  1  0  0  0
  1 14  1  0  0  0
 14 15  2  0  0  0
 14 24  1  0  0  0
 15 16  1  0  0  0
 16 17  2  0  0  0
 17 18  1  0  0  0
 18 19  1  0  0  0
 18 24  1  0  0  0
 19 20  2  0  0  0
 20 21  1  0  0  0
 20 22  1  0  0  0
 21 25  1  0  0  0
 22 23  1  0  0  0
 22 24  2  0  0  0
  9 10  2  0  0  0
 10 11  1  0  0  0
 11 12  1  0  0  0
 12 13  1  0  0  0
M  END
> <minimizedAffinity>
-8.10144

$$$$
