CHEMBL203167


 29 33  0  0  0  0  0  0  0  0999 V2000
  -30.3524   -7.4382   -7.2772 C   0  0  0  0  0  0  0  0  0  0  0  0
  -31.6849   -7.5757   -6.8389 C   0  0  0  0  0  0  0  0  0  0  0  0
  -32.4629   -8.6584   -7.2390 C   0  0  0  0  0  0  0  0  0  0  0  0
  -31.9453   -9.5819   -8.1353 C   0  0  0  0  0  0  0  0  0  0  0  0
  -30.6393   -9.4440   -8.6030 C   0  0  0  0  0  0  0  0  0  0  0  0
  -29.8064   -8.3905   -8.1697 C   0  0  0  0  0  0  0  0  0  0  0  0
  -28.7874   -6.3811   -5.9040 O   0  0  0  0  0  0  0  0  0  0  0  0
  -29.5938   -6.2371   -6.8133 C   0  0  0  0  0  0  0  0  0  0  0  0
  -29.8684   -5.0531   -7.4937 N   0  0  0  0  0  0  0  0  0  0  0  0
  -30.5620   -5.0857   -8.2313 H   0  0  0  0  0  0  0  0  0  0  0  0
  -29.2867   -3.7857   -7.2679 C   0  0  0  0  0  0  0  0  0  0  0  0
  -28.3429   -3.2179   -8.1394 C   0  0  0  0  0  0  0  0  0  0  0  0
  -27.8053   -1.9536   -7.9083 C   0  0  0  0  0  0  0  0  0  0  0  0
  -28.2092   -1.2857   -6.7857 C   0  0  0  0  0  0  0  0  0  0  0  0
  -29.1103   -1.8309   -5.8987 C   0  0  0  0  0  0  0  0  0  0  0  0
  -29.6766   -3.0744   -6.1141 C   0  0  0  0  0  0  0  0  0  0  0  0
  -29.3455   -1.0102   -4.8385 O   0  0  0  0  0  0  0  0  0  0  0  0
  -28.4218    0.0664   -5.1171 C   0  0  0  0  0  0  0  0  0  0  0  0
  -27.7829   -0.0543   -6.4018 O   0  0  0  0  0  0  0  0  0  0  0  0
  -28.3684   -8.4074   -8.6618 C   0  0  0  0  0  0  0  0  0  0  0  0
  -27.5648   -9.4566   -7.9924 N   0  0  0  0  0  0  0  0  0  0  0  0
  -27.6038   -9.6121   -6.6003 C   0  0  0  0  0  0  0  0  0  0  0  0
  -26.8348  -10.4500   -5.8900 C   0  0  0  0  0  0  0  0  0  0  0  0
  -25.8630  -11.2384   -6.6606 C   0  0  0  0  0  0  0  0  0  0  0  0
  -24.9562  -12.0831   -6.2852 N   0  0  0  0  0  0  0  0  0  0  0  0
  -24.3494  -12.4425   -7.4841 C   0  0  0  0  0  0  0  0  0  0  0  0
  -24.8147  -11.9040   -8.5785 N   0  0  0  0  0  0  0  0  0  0  0  0
  -25.8087  -11.0946   -8.1161 C   0  0  0  0  0  0  0  0  0  0  0  0
  -26.6387  -10.2321   -8.7067 C   0  0  0  0  0  0  0  0  0  0  0  0
  7  8  2  0  0  0
  8  9  1  0  0  0
  8  1  1  0  0  0
  9 11  1  0  0  0
  9 10  1  0  0  0
 11 12  1  0  0  0
 11 16  2  0  0  0
 12 13  2  0  0  0
 13 14  1  0  0  0
 14 15  2  0  0  0
 14 19  1  0  0  0
 15 16  1  0  0  0
 15 17  1  0  0  0
 17 18  1  0  0  0
 18 19  1  0  0  0
  1  2  1  0  0  0
  1  6  2  0  0  0
  2  3  2  0  0  0
  3  4  1  0  0  0
  4  5  2  0  0  0
  5  6  1  0  0  0
  6 20  1  0  0  0
 20 21  1  0  0  0
 21 22  1  0  0  0
 21 29  1  0  0  0
 22 23  2  0  0  0
 23 24  1  0  0  0
 24 25  2  0  0  0
 24 28  1  0  0  0
 25 26  1  0  0  0
 26 27  2  0  0  0
 27 28  1  0  0  0
 28 29  2  0  0  0
M  END
> <minimizedAffinity>
-8.46314

$$$$
