CHEMBL3966382


 49 52  0  0  0  0  0  0  0  0999 V2000
  -24.6671   -0.4863  -12.8471 C   0  0  0  0  0  0  0  0  0  0  0  0
  -24.8923   -0.6519  -14.2124 C   0  0  0  0  0  0  0  0  0  0  0  0
  -25.9725   -1.3988  -14.6340 C   0  0  0  0  0  0  0  0  0  0  0  0
  -26.8847   -1.9602  -13.8273 N   0  0  0  0  0  0  0  0  0  0  0  0
  -26.7015   -1.7490  -12.4971 C   0  0  0  0  0  0  0  0  0  0  0  0
  -27.5918   -2.1867  -11.4741 C   0  0  0  0  0  0  0  0  0  0  0  0
  -27.1904   -1.7951  -10.2127 C   0  0  0  0  0  0  0  0  0  0  0  0
  -25.6770   -0.9950  -10.2650 S   0  0  0  0  0  0  0  0  0  0  0  0
  -25.6185   -1.0377  -11.9774 C   0  0  0  0  0  0  0  0  0  0  0  0
  -27.9043   -1.9918   -8.9624 C   0  0  0  0  0  0  0  0  0  0  0  0
  -28.5837   -2.9796   -8.7362 O   0  0  0  0  0  0  0  0  0  0  0  0
  -27.7684   -0.9663   -8.0524 N   0  0  0  0  0  0  0  0  0  0  0  0
  -27.2059   -0.1605   -8.3132 H   0  0  0  0  0  0  0  0  0  0  0  0
  -28.3837   -0.9685   -6.7328 C   0  0  0  0  0  0  0  0  0  0  0  0
  -28.8217    0.4738   -6.4234 C   0  0  0  0  0  0  0  0  0  0  0  0
  -29.9011    0.7604   -5.9144 O   0  0  0  0  0  0  0  0  0  0  0  0
  -27.8989    1.4146   -6.7199 O   0  0  0  0  0  0  0  0  0  0  0  0
  -27.0776    1.0681   -7.1285 H   0  0  0  0  0  0  0  0  0  0  0  0
  -27.3905   -1.4496   -5.6580 C   0  0  0  0  0  0  0  0  0  0  0  0
  -28.0065   -1.7102   -4.2884 C   0  0  0  0  0  0  0  0  0  0  0  0
  -28.1735   -3.1796   -4.0478 C   0  0  0  0  0  0  0  0  0  0  0  0
  -27.2590   -3.9701   -4.2592 O   0  0  0  0  0  0  0  0  0  0  0  0
  -29.4267   -3.4727   -3.6090 O   0  0  0  0  0  0  0  0  0  0  0  0
  -30.1557   -4.5506   -4.2483 C   0  0  0  0  0  0  0  0  0  0  0  0
  -29.5245   -5.8994   -3.8855 C   0  0  0  0  0  0  0  0  0  0  0  0
  -31.6098   -4.4866   -3.7410 C   0  0  0  0  0  0  0  0  0  0  0  0
  -30.1879   -4.3373   -5.7653 C   0  0  0  0  0  0  0  0  0  0  0  0
  -23.6191    0.2573  -12.3383 O   0  0  0  0  0  0  0  0  0  0  0  0
  -20.8058    2.0225  -14.8862 C   0  0  0  0  0  0  0  0  0  0  0  0
  -21.6608    2.7997  -14.0961 C   0  0  0  0  0  0  0  0  0  0  0  0
  -22.6053    2.1825  -13.2629 C   0  0  0  0  0  0  0  0  0  0  0  0
  -22.6858    0.7896  -13.2018 C   0  0  0  0  0  0  0  0  0  0  0  0
  -21.8098    0.0131  -13.9633 C   0  0  0  0  0  0  0  0  0  0  0  0
  -20.8993    0.6324  -14.8125 C   0  0  0  0  0  0  0  0  0  0  0  0
  -20.0509   -0.1336  -15.5151 F   0  0  0  0  0  0  0  0  0  0  0  0
  -17.6151    3.0505  -16.2887 N   0  0  0  0  0  0  0  0  0  0  0  0
  -18.4894    2.4633  -15.3865 C   0  0  0  0  0  0  0  0  0  0  0  0
  -18.1602    1.8066  -14.4069 O   0  0  0  0  0  0  0  0  0  0  0  0
  -19.8235    2.6175  -15.7322 N   0  0  0  0  0  0  0  0  0  0  0  0
  -18.0146    3.4440  -17.1270 H   0  0  0  0  0  0  0  0  0  0  0  0
  -20.0035    2.4982  -16.7196 H   0  0  0  0  0  0  0  0  0  0  0  0
  -13.3404    5.5076  -15.5635 C   0  0  0  0  0  0  0  0  0  0  0  0
  -14.0854    4.2364  -15.8586 C   0  0  0  0  0  0  0  0  0  0  0  0
  -13.3596    3.0612  -16.0732 C   0  0  0  0  0  0  0  0  0  0  0  0
  -14.0274    1.8716  -16.3215 C   0  0  0  0  0  0  0  0  0  0  0  0
  -15.4190    1.8435  -16.3650 C   0  0  0  0  0  0  0  0  0  0  0  0
  -15.9659    0.6275  -16.4735 F   0  0  0  0  0  0  0  0  0  0  0  0
  -16.1885    3.0063  -16.2015 C   0  0  0  0  0  0  0  0  0  0  0  0
  -15.4980    4.2041  -15.9243 C   0  0  0  0  0  0  0  0  0  0  0  0
 42 43  1  0  0  0
 43 44  1  0  0  0
 43 49  2  0  0  0
 44 45  2  0  0  0
 45 46  1  0  0  0
 46 47  1  0  0  0
 46 48  2  0  0  0
 48 36  1  0  0  0
 48 49  1  0  0  0
 36 37  1  0  0  0
 36 40  1  0  0  0
 37 38  2  0  0  0
 37 39  1  0  0  0
 39 29  1  0  0  0
 39 41  1  0  0  0
 29 30  1  0  0  0
 29 34  2  0  0  0
 30 31  2  0  0  0
 31 32  1  0  0  0
 32 28  1  0  0  0
 32 33  2  0  0  0
 28  1  1  0  0  0
  1  2  1  0  0  0
  1  9  2  0  0  0
  2  3  2  0  0  0
  3  4  1  0  0  0
  4  5  2  0  0  0
  5  6  1  0  0  0
  5  9  1  0  0  0
  6  7  2  0  0  0
  7 10  1  0  0  0
  7  8  1  0  0  0
 10 11  2  0  0  0
 10 12  1  0  0  0
 12 14  1  0  0  0
 12 13  1  0  0  0
 14 19  1  0  0  0
 14 15  1  0  0  0
 19 20  1  0  0  0
 20 21  1  0  0  0
 21 22  2  0  0  0
 21 23  1  0  0  0
 23 24  1  0  0  0
 24 25  1  0  0  0
 24 26  1  0  0  0
 24 27  1  0  0  0
 15 16  2  0  0  0
 15 17  1  0  0  0
 17 18  1  0  0  0
  8  9  1  0  0  0
 33 34  1  0  0  0
 34 35  1  0  0  0
M  END
> <minimizedAffinity>
-9.73650

$$$$
