CHEMBL438877


 37 40  0  0  0  0  0  0  0  0999 V2000
  -23.2139   -0.9802  -13.3209 C   0  0  0  0  0  0  0  0  0  0  0  0
  -23.0362   -1.3201  -11.9780 C   0  0  0  0  0  0  0  0  0  0  0  0
  -24.1269   -1.7439  -11.2177 C   0  0  0  0  0  0  0  0  0  0  0  0
  -25.3817   -1.9336  -11.8110 C   0  0  0  0  0  0  0  0  0  0  0  0
  -25.5409   -1.6494  -13.1652 C   0  0  0  0  0  0  0  0  0  0  0  0
  -24.4590   -1.1848  -13.9102 C   0  0  0  0  0  0  0  0  0  0  0  0
  -24.6428   -0.9068  -15.2098 F   0  0  0  0  0  0  0  0  0  0  0  0
  -26.4120   -2.3726  -10.9669 N   0  0  0  0  0  0  0  0  0  0  0  0
  -26.3683   -3.3659  -10.7173 H   0  0  0  0  0  0  0  0  0  0  0  0
  -27.5536   -1.7537  -10.5132 C   0  0  0  0  0  0  0  0  0  0  0  0
  -28.2209   -0.2971  -10.9887 S   0  0  0  0  0  0  0  0  0  0  0  0
  -28.2864   -2.4843   -9.5918 N   0  0  0  0  0  0  0  0  0  0  0  0
  -28.0178   -2.6846   -8.2441 C   0  0  0  0  0  0  0  0  0  0  0  0
  -27.1687   -2.0467   -7.6211 O   0  0  0  0  0  0  0  0  0  0  0  0
  -29.0258   -3.0285  -10.0127 H   0  0  0  0  0  0  0  0  0  0  0  0
  -28.8010   -3.8213   -7.6122 C   0  0  0  0  0  0  0  0  0  0  0  0
  -28.9781   -3.5430   -6.1407 C   0  0  0  0  0  0  0  0  0  0  0  0
  -29.7584   -2.4562   -5.7216 C   0  0  0  0  0  0  0  0  0  0  0  0
  -29.7660   -2.0698   -4.3819 C   0  0  0  0  0  0  0  0  0  0  0  0
  -28.9961   -2.7653   -3.4517 C   0  0  0  0  0  0  0  0  0  0  0  0
  -28.2454   -3.8690   -3.8526 C   0  0  0  0  0  0  0  0  0  0  0  0
  -28.2416   -4.2633   -5.1902 C   0  0  0  0  0  0  0  0  0  0  0  0
  -22.2240   -0.4538  -14.1192 O   0  0  0  0  0  0  0  0  0  0  0  0
  -18.5650    2.1030  -15.3588 C   0  0  0  0  0  0  0  0  0  0  0  0
  -19.3162    3.1871  -14.9496 C   0  0  0  0  0  0  0  0  0  0  0  0
  -20.6253    2.8283  -14.5235 C   0  0  0  0  0  0  0  0  0  0  0  0
  -21.5735    3.7032  -14.0929 N   0  0  0  0  0  0  0  0  0  0  0  0
  -22.7594    3.1656  -13.7606 C   0  0  0  0  0  0  0  0  0  0  0  0
  -23.0577    1.8183  -13.7918 C   0  0  0  0  0  0  0  0  0  0  0  0
  -22.0536    0.9149  -14.1429 C   0  0  0  0  0  0  0  0  0  0  0  0
  -20.8321    1.4513  -14.5747 C   0  0  0  0  0  0  0  0  0  0  0  0
  -19.4445    0.6450  -15.1854 S   0  0  0  0  0  0  0  0  0  0  0  0
  -15.4532    3.5385  -16.8853 C   0  0  0  0  0  0  0  0  0  0  0  0
  -16.7597    3.3614  -16.3124 N   0  0  0  0  0  0  0  0  0  0  0  0
  -17.2009    2.1305  -15.8657 C   0  0  0  0  0  0  0  0  0  0  0  0
  -16.4790    1.1398  -15.8975 O   0  0  0  0  0  0  0  0  0  0  0  0
  -17.4069    4.1381  -16.2981 H   0  0  0  0  0  0  0  0  0  0  0  0
 33 34  1  0  0  0
 34 35  1  0  0  0
 34 37  1  0  0  0
 35 36  2  0  0  0
 35 24  1  0  0  0
 24 25  2  0  0  0
 24 32  1  0  0  0
 25 26  1  0  0  0
 26 27  1  0  0  0
 26 31  2  0  0  0
 27 28  2  0  0  0
 28 29  1  0  0  0
 29 30  2  0  0  0
 30 23  1  0  0  0
 30 31  1  0  0  0
 23  1  1  0  0  0
  1  2  1  0  0  0
  1  6  2  0  0  0
  2  3  2  0  0  0
  3  4  1  0  0  0
  4  8  1  0  0  0
  4  5  2  0  0  0
  8 10  1  0  0  0
  8  9  1  0  0  0
 10 11  2  0  0  0
 10 12  1  0  0  0
 12 13  1  0  0  0
 12 15  1  0  0  0
 13 14  2  0  0  0
 13 16  1  0  0  0
 16 17  1  0  0  0
 17 18  1  0  0  0
 17 22  2  0  0  0
 18 19  2  0  0  0
 19 20  1  0  0  0
 20 21  2  0  0  0
 21 22  1  0  0  0
  5  6  1  0  0  0
  6  7  1  0  0  0
 31 32  1  0  0  0
M  END
> <minimizedAffinity>
-10.40603

$$$$
