CHEMBL3759565


 33 35  0  0  0  0  0  0  0  0999 V2000
  -29.2225   -4.8982   -4.1762 C   0  0  0  0  0  0  0  0  0  0  0  0
  -29.0756   -6.1209   -3.5131 C   0  0  0  0  0  0  0  0  0  0  0  0
  -29.2197   -7.3326   -4.1600 C   0  0  0  0  0  0  0  0  0  0  0  0
  -28.9553   -8.4312   -3.4531 N   0  0  0  0  0  0  0  0  0  0  0  0
  -29.0552   -9.5897   -4.1025 C   0  0  0  0  0  0  0  0  0  0  0  0
  -29.4084   -9.7385   -5.3770 N   0  0  0  0  0  0  0  0  0  0  0  0
  -29.7008   -8.6266   -6.0816 C   0  0  0  0  0  0  0  0  0  0  0  0
  -29.6105   -7.3457   -5.5048 C   0  0  0  0  0  0  0  0  0  0  0  0
  -29.8608   -6.1123   -6.1611 C   0  0  0  0  0  0  0  0  0  0  0  0
  -29.6280   -4.8924   -5.5186 C   0  0  0  0  0  0  0  0  0  0  0  0
  -30.1993   -3.0121   -3.1253 C   0  0  0  0  0  0  0  0  0  0  0  0
  -29.0210   -3.7101   -3.5255 O   0  0  0  0  0  0  0  0  0  0  0  0
  -30.1110   -8.7605   -7.4360 N   0  0  0  0  0  0  0  0  0  0  0  0
  -30.7574   -8.0133   -7.6684 H   0  0  0  0  0  0  0  0  0  0  0  0
  -29.2965   -9.0996   -8.5422 C   0  0  0  0  0  0  0  0  0  0  0  0
  -29.7378   -9.9367   -9.5771 C   0  0  0  0  0  0  0  0  0  0  0  0
  -28.9055  -10.2715  -10.6464 C   0  0  0  0  0  0  0  0  0  0  0  0
  -27.6371   -9.7210  -10.7149 C   0  0  0  0  0  0  0  0  0  0  0  0
  -26.8301  -10.0476  -11.7326 F   0  0  0  0  0  0  0  0  0  0  0  0
  -27.1966   -8.8256   -9.7488 C   0  0  0  0  0  0  0  0  0  0  0  0
  -28.0291   -8.5059   -8.6711 C   0  0  0  0  0  0  0  0  0  0  0  0
  -29.8313   -3.7874   -6.3127 O   0  0  0  0  0  0  0  0  0  0  0  0
  -28.6876   -3.3967   -7.0722 C   0  0  0  0  0  0  0  0  0  0  0  0
  -28.2587   -1.9725   -6.7233 C   0  0  0  0  0  0  0  0  0  0  0  0
  -27.7876   -1.2738   -8.0011 C   0  0  0  0  0  0  0  0  0  0  0  0
  -27.6080   -2.2316   -9.1730 C   0  0  0  0  0  0  0  0  0  0  0  0
  -27.7786   -1.4934  -10.5021 C   0  0  0  0  0  0  0  0  0  0  0  0
  -26.6437   -1.7832  -11.4618 C   0  0  0  0  0  0  0  0  0  0  0  0
  -26.7668   -1.8595  -12.6831 O   0  0  0  0  0  0  0  0  0  0  0  0
  -25.4319   -1.9452  -10.8425 N   0  0  0  0  0  0  0  0  0  0  0  0
  -24.3703   -2.3251  -11.7029 O   0  0  0  0  0  0  0  0  0  0  0  0
  -25.3398   -2.2218   -9.8715 H   0  0  0  0  0  0  0  0  0  0  0  0
  -24.8045   -2.3159  -12.5853 H   0  0  0  0  0  0  0  0  0  0  0  0
 11 12  1  0  0  0
 12  1  1  0  0  0
  1  2  1  0  0  0
  1 10  2  0  0  0
  2  3  2  0  0  0
  3  4  1  0  0  0
  3  8  1  0  0  0
  4  5  2  0  0  0
  5  6  1  0  0  0
  6  7  2  0  0  0
  7 13  1  0  0  0
  7  8  1  0  0  0
 13 15  1  0  0  0
 13 14  1  0  0  0
 15 16  1  0  0  0
 15 21  2  0  0  0
 16 17  2  0  0  0
 17 18  1  0  0  0
 18 19  1  0  0  0
 18 20  2  0  0  0
 20 21  1  0  0  0
  8  9  2  0  0  0
  9 10  1  0  0  0
 10 22  1  0  0  0
 22 23  1  0  0  0
 23 24  1  0  0  0
 24 25  1  0  0  0
 25 26  1  0  0  0
 26 27  1  0  0  0
 27 28  1  0  0  0
 28 29  2  0  0  0
 28 30  1  0  0  0
 30 31  1  0  0  0
 30 32  1  0  0  0
 31 33  1  0  0  0
M  END
> <minimizedAffinity>
-7.87381

$$$$
