CHEMBL1940174


 32 37  0  0  0  0  0  0  0  0999 V2000
  -12.5643   -1.4976  -16.5077 C   0  0  0  0  0  0  0  0  0  0  0  0
  -12.8473   -0.6002  -15.2804 C   0  0  0  0  0  0  0  0  0  0  0  0
  -11.5425   -0.2728  -14.5205 C   0  0  0  0  0  0  0  0  0  0  0  0
  -13.7874   -1.3574  -14.3412 C   0  0  0  0  0  0  0  0  0  0  0  0
  -13.4032   -2.6264  -13.9192 C   0  0  0  0  0  0  0  0  0  0  0  0
  -14.2176   -3.3587  -13.0827 C   0  0  0  0  0  0  0  0  0  0  0  0
  -15.3864   -2.8307  -12.5308 C   0  0  0  0  0  0  0  0  0  0  0  0
  -15.8023   -1.5773  -12.9747 C   0  0  0  0  0  0  0  0  0  0  0  0
  -15.0243   -0.8551  -13.8842 C   0  0  0  0  0  0  0  0  0  0  0  0
  -15.5494    0.4589  -14.3281 C   0  0  0  0  0  0  0  0  0  0  0  0
  -16.6155    0.8977  -13.9108 O   0  0  0  0  0  0  0  0  0  0  0  0
  -14.7237    1.1535  -15.2885 C   0  0  0  0  0  0  0  0  0  0  0  0
  -13.5045    0.6718  -15.7182 C   0  0  0  0  0  0  0  0  0  0  0  0
  -12.9876    1.5660  -16.6162 N   0  0  0  0  0  0  0  0  0  0  0  0
  -13.8625    2.6159  -16.7781 C   0  0  0  0  0  0  0  0  0  0  0  0
  -13.7702    3.7531  -17.5798 C   0  0  0  0  0  0  0  0  0  0  0  0
  -14.8373    4.6637  -17.5303 C   0  0  0  0  0  0  0  0  0  0  0  0
  -15.9526    4.4368  -16.7185 C   0  0  0  0  0  0  0  0  0  0  0  0
  -16.0260    3.2931  -15.9269 C   0  0  0  0  0  0  0  0  0  0  0  0
  -14.9646    2.3746  -15.9534 C   0  0  0  0  0  0  0  0  0  0  0  0
  -12.1001    1.4752  -17.0945 H   0  0  0  0  0  0  0  0  0  0  0  0
  -16.0841   -3.5532  -11.3916 C   0  0  0  0  0  0  0  0  0  0  0  0
  -15.1464   -3.7433  -10.2005 C   0  0  0  0  0  0  0  0  0  0  0  0
  -14.0932   -4.8260  -10.4437 C   0  0  0  0  0  0  0  0  0  0  0  0
  -14.6058   -6.0949  -10.9949 N   0  0  0  0  0  0  0  0  0  0  0  0
  -15.6644   -5.9959  -12.0097 C   0  0  0  0  0  0  0  0  0  0  0  0
  -16.7088   -4.9051  -11.7538 C   0  0  0  0  0  0  0  0  0  0  0  0
  -13.5002   -7.0164  -11.3586 C   0  0  0  0  0  0  0  0  0  0  0  0
  -13.2776   -7.5048  -12.7673 C   0  0  0  0  0  0  0  0  0  0  0  0
  -13.7815   -8.4555  -11.7251 C   0  0  0  0  0  0  0  0  0  0  0  0
  -14.7786    5.8398  -18.3250 C   0  0  0  0  0  0  0  0  0  0  0  0
  -14.7439    6.8104  -18.9837 N   0  0  0  0  0  0  0  0  0  0  0  0
  1  2  1  0  0  0
  2  3  1  0  0  0
  2  4  1  0  0  0
  2 13  1  0  0  0
  4  5  1  0  0  0
  4  9  2  0  0  0
  5  6  2  0  0  0
  6  7  1  0  0  0
  7 22  1  0  0  0
  7  8  2  0  0  0
 22 23  1  0  0  0
 22 27  1  0  0  0
 23 24  1  0  0  0
 24 25  1  0  0  0
 25 28  1  0  0  0
 25 26  1  0  0  0
 28 29  1  0  0  0
 28 30  1  0  0  0
 29 30  1  0  0  0
 26 27  1  0  0  0
  8  9  1  0  0  0
  9 10  1  0  0  0
 10 11  2  0  0  0
 10 12  1  0  0  0
 12 13  2  0  0  0
 12 20  1  0  0  0
 13 14  1  0  0  0
 14 15  1  0  0  0
 14 21  1  0  0  0
 15 16  1  0  0  0
 15 20  2  0  0  0
 16 17  2  0  0  0
 17 31  1  0  0  0
 17 18  1  0  0  0
 31 32  3  0  0  0
 18 19  2  0  0  0
 19 20  1  0  0  0
M  END
> <minimizedAffinity>
-8.67833

$$$$
