CHEMBL3906996


 43 48  0  0  0  0  0  0  0  0999 V2000
  -25.6916    9.3212  -17.2344 C   0  0  0  0  0  0  0  0  0  0  0  0
  -25.0838   10.5593  -16.7346 N   0  0  0  0  0  0  0  0  0  0  0  0
  -24.0475   11.0503  -17.5714 C   0  0  0  0  0  0  0  0  0  0  0  0
  -24.2219   12.1612  -18.4242 C   0  0  0  0  0  0  0  0  0  0  0  0
  -23.1847   12.6554  -19.2539 C   0  0  0  0  0  0  0  0  0  0  0  0
  -21.8926   12.1259  -19.0722 C   0  0  0  0  0  0  0  0  0  0  0  0
  -20.5535   12.2463  -19.5930 C   0  0  0  0  0  0  0  0  0  0  0  0
  -19.7325   12.1254  -18.5271 N   0  0  0  0  0  0  0  0  0  0  0  0
  -20.3917   11.2084  -17.7937 N   0  0  0  0  0  0  0  0  0  0  0  0
  -21.7296   11.1806  -18.0632 C   0  0  0  0  0  0  0  0  0  0  0  0
  -22.7775   10.4828  -17.4520 C   0  0  0  0  0  0  0  0  0  0  0  0
  -19.8949   10.7526  -17.0458 H   0  0  0  0  0  0  0  0  0  0  0  0
  -19.9847   11.6163  -20.7829 C   0  0  0  0  0  0  0  0  0  0  0  0
  -19.3331   10.4364  -20.7301 C   0  0  0  0  0  0  0  0  0  0  0  0
  -18.0244   10.1785  -21.3845 C   0  0  0  0  0  0  0  0  0  0  0  0
  -17.1821   11.2466  -21.7904 C   0  0  0  0  0  0  0  0  0  0  0  0
  -15.8308   11.0293  -22.1234 C   0  0  0  0  0  0  0  0  0  0  0  0
  -15.3593    9.7390  -22.0357 C   0  0  0  0  0  0  0  0  0  0  0  0
  -16.1672    8.6981  -21.6552 C   0  0  0  0  0  0  0  0  0  0  0  0
  -17.5005    8.8821  -21.3316 C   0  0  0  0  0  0  0  0  0  0  0  0
  -15.4984    7.5145  -21.5909 O   0  0  0  0  0  0  0  0  0  0  0  0
  -14.1695    7.9384  -21.9603 C   0  0  0  0  0  0  0  0  0  0  0  0
  -14.0721    9.3471  -22.2463 O   0  0  0  0  0  0  0  0  0  0  0  0
  -25.6115   11.1851  -15.5827 C   0  0  0  0  0  0  0  0  0  0  0  0
  -24.8136   11.8950  -14.6678 C   0  0  0  0  0  0  0  0  0  0  0  0
  -25.3741   12.5994  -13.6021 C   0  0  0  0  0  0  0  0  0  0  0  0
  -26.7526   12.6140  -13.4268 C   0  0  0  0  0  0  0  0  0  0  0  0
  -27.5848   11.9169  -14.3030 C   0  0  0  0  0  0  0  0  0  0  0  0
  -27.0026   11.1664  -15.3376 C   0  0  0  0  0  0  0  0  0  0  0  0
  -29.0003   11.9664  -14.2177 N   0  0  0  0  0  0  0  0  0  0  0  0
  -29.7895   10.9471  -13.7086 C   0  0  0  0  0  0  0  0  0  0  0  0
  -29.3791    9.8865  -13.2436 O   0  0  0  0  0  0  0  0  0  0  0  0
  -29.4258   12.8729  -14.3597 H   0  0  0  0  0  0  0  0  0  0  0  0
  -31.2625   11.1667  -13.6649 C   0  0  0  0  0  0  0  0  0  0  0  0
  -31.9158   12.1743  -14.3788 C   0  0  0  0  0  0  0  0  0  0  0  0
  -33.3141   12.2317  -14.3757 C   0  0  0  0  0  0  0  0  0  0  0  0
  -34.0636   11.2770  -13.6732 C   0  0  0  0  0  0  0  0  0  0  0  0
  -33.4239   10.2601  -12.9544 C   0  0  0  0  0  0  0  0  0  0  0  0
  -32.0219   10.2303  -12.9434 C   0  0  0  0  0  0  0  0  0  0  0  0
  -34.1913    9.1814  -12.2316 C   0  0  0  0  0  0  0  0  0  0  0  0
  -34.7578    8.2655  -13.0657 F   0  0  0  0  0  0  0  0  0  0  0  0
  -33.4053    8.4688  -11.3776 F   0  0  0  0  0  0  0  0  0  0  0  0
  -35.2086    9.6799  -11.4769 F   0  0  0  0  0  0  0  0  0  0  0  0
  1  2  1  0  0  0
  2 24  1  0  0  0
  2  3  1  0  0  0
 24 25  1  0  0  0
 24 29  2  0  0  0
 25 26  2  0  0  0
 26 27  1  0  0  0
 27 28  2  0  0  0
 28 30  1  0  0  0
 28 29  1  0  0  0
 30 31  1  0  0  0
 30 33  1  0  0  0
 31 32  2  0  0  0
 31 34  1  0  0  0
 34 35  1  0  0  0
 34 39  2  0  0  0
 35 36  2  0  0  0
 36 37  1  0  0  0
 37 38  2  0  0  0
 38 40  1  0  0  0
 38 39  1  0  0  0
 40 41  1  0  0  0
 40 42  1  0  0  0
 40 43  1  0  0  0
  3  4  1  0  0  0
  3 11  2  0  0  0
  4  5  2  0  0  0
  5  6  1  0  0  0
  6  7  1  0  0  0
  6 10  2  0  0  0
  7 13  1  0  0  0
  7  8  2  0  0  0
 13 14  2  0  0  0
 14 15  1  0  0  0
 15 16  1  0  0  0
 15 20  2  0  0  0
 16 17  2  0  0  0
 17 18  1  0  0  0
 18 19  2  0  0  0
 18 23  1  0  0  0
 19 20  1  0  0  0
 19 21  1  0  0  0
 21 22  1  0  0  0
 22 23  1  0  0  0
  8  9  1  0  0  0
  9 10  1  0  0  0
  9 12  1  0  0  0
 10 11  1  0  0  0
M  END
> <minimizedAffinity>
-7.18568

$$$$
