CHEMBL1083344


 34 38  0  0  0  0  0  0  0  0999 V2000
  -13.9270    0.5105  -15.3403 C   0  0  0  0  0  0  0  0  0  0  0  0
  -14.0854    1.8235  -16.0213 C   0  0  0  0  0  0  0  0  0  0  0  0
  -13.0136    2.3952  -16.5797 N   0  0  0  0  0  0  0  0  0  0  0  0
  -13.4938    3.5239  -17.1781 N   0  0  0  0  0  0  0  0  0  0  0  0
  -12.7514    4.4572  -17.9550 C   0  0  0  0  0  0  0  0  0  0  0  0
  -11.4015    4.1715  -18.1743 N   0  0  0  0  0  0  0  0  0  0  0  0
  -13.3951    5.5521  -18.4172 C   0  0  0  0  0  0  0  0  0  0  0  0
  -14.8431    5.6499  -18.0706 C   0  0  0  0  0  0  0  0  0  0  0  0
  -15.5328    4.8020  -17.3755 N   0  0  0  0  0  0  0  0  0  0  0  0
  -14.8532    3.7027  -16.9214 C   0  0  0  0  0  0  0  0  0  0  0  0
  -15.2698    2.5933  -16.2033 C   0  0  0  0  0  0  0  0  0  0  0  0
  -11.0535    3.4987  -17.4859 H   0  0  0  0  0  0  0  0  0  0  0  0
  -10.8169    4.9971  -18.2708 H   0  0  0  0  0  0  0  0  0  0  0  0
  -12.7783    6.6149  -19.2107 C   0  0  0  0  0  0  0  0  0  0  0  0
  -12.6454    6.4793  -20.5978 C   0  0  0  0  0  0  0  0  0  0  0  0
  -12.0979    7.5178  -21.3539 C   0  0  0  0  0  0  0  0  0  0  0  0
  -11.6712    8.6897  -20.7278 C   0  0  0  0  0  0  0  0  0  0  0  0
  -11.7946    8.8118  -19.3471 C   0  0  0  0  0  0  0  0  0  0  0  0
  -11.3780    9.9317  -18.6915 O   0  0  0  0  0  0  0  0  0  0  0  0
  -12.3501    7.7902  -18.5856 C   0  0  0  0  0  0  0  0  0  0  0  0
  -10.9483   10.5250  -19.3298 H   0  0  0  0  0  0  0  0  0  0  0  0
  -16.6538    2.3603  -15.8041 C   0  0  0  0  0  0  0  0  0  0  0  0
  -17.1096    1.0641  -15.5376 C   0  0  0  0  0  0  0  0  0  0  0  0
  -18.4278    0.8299  -15.1411 C   0  0  0  0  0  0  0  0  0  0  0  0
  -19.3296    1.8817  -14.9567 C   0  0  0  0  0  0  0  0  0  0  0  0
  -18.8739    3.1755  -15.2317 C   0  0  0  0  0  0  0  0  0  0  0  0
  -17.5602    3.4132  -15.6614 C   0  0  0  0  0  0  0  0  0  0  0  0
  -20.5901    1.6023  -14.4454 N   0  0  0  0  0  0  0  0  0  0  0  0
  -21.6050    2.6638  -14.4316 C   0  0  0  0  0  0  0  0  0  0  0  0
  -22.6914    2.3012  -13.3970 C   0  0  0  0  0  0  0  0  0  0  0  0
  -23.3323    0.9971  -13.6861 N   0  0  0  0  0  0  0  0  0  0  0  0
  -24.3090    0.6793  -12.6464 C   0  0  0  0  0  0  0  0  0  0  0  0
  -22.2892   -0.0586  -13.7637 C   0  0  0  0  0  0  0  0  0  0  0  0
  -21.1538    0.2752  -14.7643 C   0  0  0  0  0  0  0  0  0  0  0  0
  1  2  1  0  0  0
  2  3  2  0  0  0
  2 11  1  0  0  0
  3  4  1  0  0  0
  4  5  1  0  0  0
  4 10  1  0  0  0
  5  6  1  0  0  0
  5  7  2  0  0  0
  6 12  1  0  0  0
  6 13  1  0  0  0
  7 14  1  0  0  0
  7  8  1  0  0  0
 14 15  1  0  0  0
 14 20  2  0  0  0
 15 16  2  0  0  0
 16 17  1  0  0  0
 17 18  2  0  0  0
 18 19  1  0  0  0
 18 20  1  0  0  0
 19 21  1  0  0  0
  8  9  2  0  0  0
  9 10  1  0  0  0
 10 11  2  0  0  0
 11 22  1  0  0  0
 22 23  1  0  0  0
 22 27  2  0  0  0
 23 24  2  0  0  0
 24 25  1  0  0  0
 25 28  1  0  0  0
 25 26  2  0  0  0
 28 29  1  0  0  0
 28 34  1  0  0  0
 29 30  1  0  0  0
 30 31  1  0  0  0
 31 32  1  0  0  0
 31 33  1  0  0  0
 33 34  1  0  0  0
 26 27  1  0  0  0
M  END
> <minimizedAffinity>
-7.08602

$$$$
