CHEMBL1983025


 41 44  0  0  0  0  0  0  0  0999 V2000
  -18.4780    2.7499  -15.6067 C   0  0  0  0  0  0  0  0  0  0  0  0
  -19.0558    3.9660  -15.3431 C   0  0  0  0  0  0  0  0  0  0  0  0
  -20.2297    4.1119  -14.7159 N   0  0  0  0  0  0  0  0  0  0  0  0
  -20.9252    3.0200  -14.3181 C   0  0  0  0  0  0  0  0  0  0  0  0
  -22.1076    3.3389  -13.6731 N   0  0  0  0  0  0  0  0  0  0  0  0
  -20.4258    1.7021  -14.5619 C   0  0  0  0  0  0  0  0  0  0  0  0
  -20.9709    0.3473  -14.3127 C   0  0  0  0  0  0  0  0  0  0  0  0
  -20.0930   -0.6378  -14.7201 C   0  0  0  0  0  0  0  0  0  0  0  0
  -18.6644   -0.0321  -15.3893 S   0  0  0  0  0  0  0  0  0  0  0  0
  -19.1725    1.5989  -15.1945 C   0  0  0  0  0  0  0  0  0  0  0  0
  -22.1494    4.3344  -13.4850 H   0  0  0  0  0  0  0  0  0  0  0  0
  -22.3684    2.7292  -12.9121 H   0  0  0  0  0  0  0  0  0  0  0  0
  -22.2822   -0.0464  -13.7828 C   0  0  0  0  0  0  0  0  0  0  0  0
  -22.4862   -0.0730  -12.4086 C   0  0  0  0  0  0  0  0  0  0  0  0
  -23.6790   -0.5382  -11.8641 C   0  0  0  0  0  0  0  0  0  0  0  0
  -24.7701   -0.8495  -12.6717 C   0  0  0  0  0  0  0  0  0  0  0  0
  -24.6143   -0.7435  -14.0562 C   0  0  0  0  0  0  0  0  0  0  0  0
  -23.3733   -0.3703  -14.6065 C   0  0  0  0  0  0  0  0  0  0  0  0
  -26.0179   -1.2562  -12.1419 N   0  0  0  0  0  0  0  0  0  0  0  0
  -26.2828   -1.4695  -10.7987 C   0  0  0  0  0  0  0  0  0  0  0  0
  -25.4888   -1.2848   -9.8828 O   0  0  0  0  0  0  0  0  0  0  0  0
  -27.5532   -1.9806  -10.5897 N   0  0  0  0  0  0  0  0  0  0  0  0
  -26.8077   -1.2630  -12.7704 H   0  0  0  0  0  0  0  0  0  0  0  0
  -27.8763   -2.5995  -11.3175 H   0  0  0  0  0  0  0  0  0  0  0  0
  -27.9729   -2.2931   -9.2734 C   0  0  0  0  0  0  0  0  0  0  0  0
  -27.8200   -1.3270   -8.2780 C   0  0  0  0  0  0  0  0  0  0  0  0
  -28.3015   -1.5747   -6.9919 C   0  0  0  0  0  0  0  0  0  0  0  0
  -28.8882   -2.8029   -6.6819 C   0  0  0  0  0  0  0  0  0  0  0  0
  -29.0136   -3.7949   -7.6596 C   0  0  0  0  0  0  0  0  0  0  0  0
  -29.6133   -5.1312   -7.3345 C   0  0  0  0  0  0  0  0  0  0  0  0
  -28.5628   -3.5232   -8.9585 C   0  0  0  0  0  0  0  0  0  0  0  0
  -16.0679    2.5534  -16.8636 C   0  0  0  0  0  0  0  0  0  0  0  0
  -17.2314    2.6457  -16.2826 C   0  0  0  0  0  0  0  0  0  0  0  0
  -14.7114    2.4458  -17.5409 C   0  0  0  0  0  0  0  0  0  0  0  0
  -13.6918    2.9068  -16.5964 N   0  0  0  0  0  0  0  0  0  0  0  0
  -13.9049    3.8548  -16.2945 H   0  0  0  0  0  0  0  0  0  0  0  0
  -12.7869    2.9422  -17.0598 H   0  0  0  0  0  0  0  0  0  0  0  0
  -15.1117    4.7791  -18.6100 C   0  0  0  0  0  0  0  0  0  0  0  0
  -14.7079    3.3182  -18.8208 C   0  0  0  0  0  0  0  0  0  0  0  0
  -14.4382    0.9636  -17.8954 C   0  0  0  0  0  0  0  0  0  0  0  0
  -13.9867    0.7268  -19.3392 C   0  0  0  0  0  0  0  0  0  0  0  0
 38 39  1  0  0  0
 39 34  1  0  0  0
 34 35  1  0  0  0
 34 32  1  0  0  0
 34 40  1  0  0  0
 35 36  1  0  0  0
 35 37  1  0  0  0
 32 33  3  0  0  0
 33  1  1  0  0  0
  1  2  1  0  0  0
  1 10  2  0  0  0
  2  3  2  0  0  0
  3  4  1  0  0  0
  4  5  1  0  0  0
  4  6  2  0  0  0
  5 11  1  0  0  0
  5 12  1  0  0  0
  6  7  1  0  0  0
  6 10  1  0  0  0
  7 13  1  0  0  0
  7  8  2  0  0  0
 13 14  1  0  0  0
 13 18  2  0  0  0
 14 15  2  0  0  0
 15 16  1  0  0  0
 16 19  1  0  0  0
 16 17  2  0  0  0
 19 20  1  0  0  0
 19 23  1  0  0  0
 20 21  2  0  0  0
 20 22  1  0  0  0
 22 25  1  0  0  0
 22 24  1  0  0  0
 25 26  1  0  0  0
 25 31  2  0  0  0
 26 27  2  0  0  0
 27 28  1  0  0  0
 28 29  2  0  0  0
 29 30  1  0  0  0
 29 31  1  0  0  0
 17 18  1  0  0  0
  8  9  1  0  0  0
  9 10  1  0  0  0
 40 41  1  0  0  0
M  END
> <minimizedAffinity>
-7.76603

$$$$
