CHEMBL4459732


 25 28  0  0  0  0  0  0  0  0999 V2000
  -25.6116   -2.3819  -12.5128 C   0  0  0  0  0  0  0  0  0  0  0  0
  -24.5921   -1.3455  -12.9235 C   0  0  0  0  0  0  0  0  0  0  0  0
  -24.5421   -0.8842  -14.2434 C   0  0  0  0  0  0  0  0  0  0  0  0
  -23.5464    0.0141  -14.6455 C   0  0  0  0  0  0  0  0  0  0  0  0
  -22.5726    0.4899  -13.7470 C   0  0  0  0  0  0  0  0  0  0  0  0
  -22.6509    0.0306  -12.4200 C   0  0  0  0  0  0  0  0  0  0  0  0
  -23.6385   -0.8765  -12.0138 C   0  0  0  0  0  0  0  0  0  0  0  0
  -21.5043    1.4037  -14.1935 C   0  0  0  0  0  0  0  0  0  0  0  0
  -21.6116    2.7870  -14.1578 C   0  0  0  0  0  0  0  0  0  0  0  0
  -20.6704    3.6534  -14.5980 N   0  0  0  0  0  0  0  0  0  0  0  0
  -19.5570    3.0967  -15.0910 C   0  0  0  0  0  0  0  0  0  0  0  0
  -19.3095    1.7832  -15.1708 N   0  0  0  0  0  0  0  0  0  0  0  0
  -20.2953    0.9729  -14.7207 C   0  0  0  0  0  0  0  0  0  0  0  0
  -27.5004   -1.6431   -9.5374 C   0  0  0  0  0  0  0  0  0  0  0  0
  -26.4184   -2.2879  -10.0889 C   0  0  0  0  0  0  0  0  0  0  0  0
  -26.4655   -1.9581  -11.4118 N   0  0  0  0  0  0  0  0  0  0  0  0
  -27.5076   -1.1396  -11.6657 N   0  0  0  0  0  0  0  0  0  0  0  0
  -28.1574   -0.9512  -10.5230 N   0  0  0  0  0  0  0  0  0  0  0  0
  -28.6469   -3.9957   -8.3789 F   0  0  0  0  0  0  0  0  0  0  0  0
  -28.5224   -2.8854   -7.6342 C   0  0  0  0  0  0  0  0  0  0  0  0
  -28.9903   -2.9318   -6.3219 C   0  0  0  0  0  0  0  0  0  0  0  0
  -28.8757   -1.8094   -5.5054 C   0  0  0  0  0  0  0  0  0  0  0  0
  -28.2803   -0.6504   -6.0019 C   0  0  0  0  0  0  0  0  0  0  0  0
  -27.8083   -0.6098   -7.3188 C   0  0  0  0  0  0  0  0  0  0  0  0
  -27.9379   -1.7258   -8.1587 C   0  0  0  0  0  0  0  0  0  0  0  0
 19 20  1  0  0  0
 20 21  1  0  0  0
 20 25  2  0  0  0
 21 22  2  0  0  0
 22 23  1  0  0  0
 23 24  2  0  0  0
 24 25  1  0  0  0
 25 14  1  0  0  0
 14 15  2  0  0  0
 14 18  1  0  0  0
 15 16  1  0  0  0
 16  1  1  0  0  0
 16 17  1  0  0  0
  1  2  1  0  0  0
  2  3  1  0  0  0
  2  7  2  0  0  0
  3  4  2  0  0  0
  4  5  1  0  0  0
  5  8  1  0  0  0
  5  6  2  0  0  0
  8  9  1  0  0  0
  8 13  2  0  0  0
  9 10  2  0  0  0
 10 11  1  0  0  0
 11 12  2  0  0  0
 12 13  1  0  0  0
  6  7  1  0  0  0
 17 18  2  0  0  0
M  END
> <minimizedAffinity>
-9.32575

$$$$
