CHEMBL3809254


 30 32  0  0  0  0  0  0  0  0999 V2000
  -25.8334   -2.4152  -11.1044 N   0  0  0  0  0  0  0  0  0  0  0  0
  -26.6563   -2.0386  -10.0543 C   0  0  0  0  0  0  0  0  0  0  0  0
  -26.8460   -0.8867   -9.6801 O   0  0  0  0  0  0  0  0  0  0  0  0
  -27.2176   -3.1365   -9.4148 N   0  0  0  0  0  0  0  0  0  0  0  0
  -25.9636   -3.3468  -11.4718 H   0  0  0  0  0  0  0  0  0  0  0  0
  -26.6272   -3.9553   -9.4016 H   0  0  0  0  0  0  0  0  0  0  0  0
  -23.1393    0.1207  -13.1970 C   0  0  0  0  0  0  0  0  0  0  0  0
  -24.2175    0.6564  -12.4885 C   0  0  0  0  0  0  0  0  0  0  0  0
  -25.1075   -0.1666  -11.8041 C   0  0  0  0  0  0  0  0  0  0  0  0
  -24.9633   -1.5525  -11.8123 C   0  0  0  0  0  0  0  0  0  0  0  0
  -23.8895   -2.1037  -12.5330 C   0  0  0  0  0  0  0  0  0  0  0  0
  -22.9885   -1.2730  -13.2225 C   0  0  0  0  0  0  0  0  0  0  0  0
  -19.2728    2.2046  -15.4330 N   0  0  0  0  0  0  0  0  0  0  0  0
  -20.4383    1.8863  -14.8616 C   0  0  0  0  0  0  0  0  0  0  0  0
  -20.9581    0.6990  -14.4343 C   0  0  0  0  0  0  0  0  0  0  0  0
  -22.2232    1.0307  -13.8754 C   0  0  0  0  0  0  0  0  0  0  0  0
  -22.4678    2.3434  -14.0169 N   0  0  0  0  0  0  0  0  0  0  0  0
  -21.3353    2.8774  -14.6190 O   0  0  0  0  0  0  0  0  0  0  0  0
  -18.5555    1.5181  -15.6372 H   0  0  0  0  0  0  0  0  0  0  0  0
  -19.0439    3.1682  -15.6502 H   0  0  0  0  0  0  0  0  0  0  0  0
  -28.0657   -2.9539   -8.2945 C   0  0  0  0  0  0  0  0  0  0  0  0
  -29.1496   -3.8147   -8.1260 C   0  0  0  0  0  0  0  0  0  0  0  0
  -29.9457   -3.7163   -6.9820 C   0  0  0  0  0  0  0  0  0  0  0  0
  -29.6910   -2.7294   -6.0277 C   0  0  0  0  0  0  0  0  0  0  0  0
  -28.6319   -1.8298   -6.2023 C   0  0  0  0  0  0  0  0  0  0  0  0
  -27.8213   -1.9568   -7.3428 C   0  0  0  0  0  0  0  0  0  0  0  0
  -28.3487   -0.7454   -5.1917 C   0  0  0  0  0  0  0  0  0  0  0  0
  -29.4668   -0.0951   -4.7653 F   0  0  0  0  0  0  0  0  0  0  0  0
  -27.7382   -1.2110   -4.0684 F   0  0  0  0  0  0  0  0  0  0  0  0
  -27.5345    0.2249   -5.6865 F   0  0  0  0  0  0  0  0  0  0  0  0
 13 14  1  0  0  0
 13 19  1  0  0  0
 13 20  1  0  0  0
 14 15  2  0  0  0
 14 18  1  0  0  0
 15 16  1  0  0  0
 16  7  1  0  0  0
 16 17  2  0  0  0
  7  8  1  0  0  0
  7 12  2  0  0  0
  8  9  2  0  0  0
  9 10  1  0  0  0
 10  1  1  0  0  0
 10 11  2  0  0  0
  1  2  1  0  0  0
  1  5  1  0  0  0
  2  3  2  0  0  0
  2  4  1  0  0  0
  4 21  1  0  0  0
  4  6  1  0  0  0
 21 22  1  0  0  0
 21 26  2  0  0  0
 22 23  2  0  0  0
 23 24  1  0  0  0
 24 25  2  0  0  0
 25 27  1  0  0  0
 25 26  1  0  0  0
 27 28  1  0  0  0
 27 29  1  0  0  0
 27 30  1  0  0  0
 11 12  1  0  0  0
 17 18  1  0  0  0
M  END
> <minimizedAffinity>
-10.77634

$$$$
