CHEMBL245968


 38 42  0  0  0  0  0  0  0  0999 V2000
  -27.9439   -1.3266   -7.2743 C   0  0  0  0  0  0  0  0  0  0  0  0
  -28.1058    0.0371   -6.9709 C   0  0  0  0  0  0  0  0  0  0  0  0
  -28.8387    0.4778   -5.8494 C   0  0  0  0  0  0  0  0  0  0  0  0
  -29.4419   -0.4326   -4.9915 C   0  0  0  0  0  0  0  0  0  0  0  0
  -29.2973   -1.7654   -5.3026 C   0  0  0  0  0  0  0  0  0  0  0  0
  -28.5630   -2.2428   -6.4277 C   0  0  0  0  0  0  0  0  0  0  0  0
  -28.5286   -3.7810   -6.4915 C   0  0  0  0  0  0  0  0  0  0  0  0
  -29.3403   -4.0675   -5.2725 C   0  0  0  0  0  0  0  0  0  0  0  0
  -29.7750   -2.9115   -4.6138 C   0  0  0  0  0  0  0  0  0  0  0  0
  -30.4984   -3.1362   -3.5280 N   0  0  0  0  0  0  0  0  0  0  0  0
  -30.5243   -4.4907   -3.4908 N   0  0  0  0  0  0  0  0  0  0  0  0
  -29.8214   -5.1016   -4.5114 C   0  0  0  0  0  0  0  0  0  0  0  0
  -31.0207   -4.9368   -2.7268 H   0  0  0  0  0  0  0  0  0  0  0  0
  -29.6339   -6.5635   -4.6932 C   0  0  0  0  0  0  0  0  0  0  0  0
  -29.1249   -7.3866   -3.7106 C   0  0  0  0  0  0  0  0  0  0  0  0
  -28.9959   -9.0118   -4.2337 S   0  0  0  0  0  0  0  0  0  0  0  0
  -29.6022   -8.6217   -5.7797 C   0  0  0  0  0  0  0  0  0  0  0  0
  -29.9280   -7.2883   -5.8849 C   0  0  0  0  0  0  0  0  0  0  0  0
  -29.7354   -9.5740   -6.8277 C   0  0  0  0  0  0  0  0  0  0  0  0
  -29.8514  -10.4085   -7.8228 C   0  0  0  0  0  0  0  0  0  0  0  0
  -29.9867  -11.3813   -8.9829 C   0  0  0  0  0  0  0  0  0  0  0  0
  -28.6974  -11.7054   -9.4917 O   0  0  0  0  0  0  0  0  0  0  0  0
  -28.2356  -10.8618  -10.4678 C   0  0  0  0  0  0  0  0  0  0  0  0
  -27.0496  -10.1258  -10.4026 C   0  0  0  0  0  0  0  0  0  0  0  0
  -26.6739   -9.3019  -11.4664 C   0  0  0  0  0  0  0  0  0  0  0  0
  -27.4763   -9.2165  -12.6022 C   0  0  0  0  0  0  0  0  0  0  0  0
  -28.6487   -9.9651  -12.6808 C   0  0  0  0  0  0  0  0  0  0  0  0
  -29.0219  -10.7915  -11.6192 C   0  0  0  0  0  0  0  0  0  0  0  0
  -27.5409   -1.5661   -9.7268 C   0  0  0  0  0  0  0  0  0  0  0  0
  -28.4698   -0.8759  -10.1437 O   0  0  0  0  0  0  0  0  0  0  0  0
  -27.2059   -1.7696   -8.3945 N   0  0  0  0  0  0  0  0  0  0  0  0
  -26.3327   -2.2521   -8.2233 H   0  0  0  0  0  0  0  0  0  0  0  0
  -26.5693   -2.2258  -10.7058 C   0  0  0  0  0  0  0  0  0  0  0  0
  -26.7035   -1.6733  -12.0092 O   0  0  0  0  0  0  0  0  0  0  0  0
  -25.5609   -0.8932  -12.3669 C   0  0  0  0  0  0  0  0  0  0  0  0
  -24.7570   -1.6401  -13.4253 C   0  0  0  0  0  0  0  0  0  0  0  0
  -23.0914   -1.6105  -11.7668 C   0  0  0  0  0  0  0  0  0  0  0  0
  -23.7038   -2.3716  -12.8010 O   0  0  0  0  0  0  0  0  0  0  0  0
 37 38  1  0  0  0
 38 36  1  0  0  0
 36 35  1  0  0  0
 35 34  1  0  0  0
 34 33  1  0  0  0
 33 29  1  0  0  0
 29 30  2  0  0  0
 29 31  1  0  0  0
 31  1  1  0  0  0
 31 32  1  0  0  0
  1  2  1  0  0  0
  1  6  2  0  0  0
  2  3  2  0  0  0
  3  4  1  0  0  0
  4  5  2  0  0  0
  5  6  1  0  0  0
  5  9  1  0  0  0
  6  7  1  0  0  0
  7  8  1  0  0  0
  8  9  1  0  0  0
  8 12  2  0  0  0
  9 10  2  0  0  0
 10 11  1  0  0  0
 11 12  1  0  0  0
 11 13  1  0  0  0
 12 14  1  0  0  0
 14 15  2  0  0  0
 14 18  1  0  0  0
 15 16  1  0  0  0
 16 17  1  0  0  0
 17 19  1  0  0  0
 17 18  2  0  0  0
 19 20  3  0  0  0
 20 21  1  0  0  0
 21 22  1  0  0  0
 22 23  1  0  0  0
 23 24  1  0  0  0
 23 28  2  0  0  0
 24 25  2  0  0  0
 25 26  1  0  0  0
 26 27  2  0  0  0
 27 28  1  0  0  0
M  END
> <minimizedAffinity>
-8.58742

$$$$
