CHEMBL1085292


 39 46  0  0  0  0  0  0  0  0999 V2000
  -12.5291    5.6538  -15.4258 C   0  0  0  0  0  0  0  0  0  0  0  0
  -13.2544    4.4129  -15.2429 N   0  0  0  0  0  0  0  0  0  0  0  0
  -12.9851    3.2969  -14.4496 C   0  0  0  0  0  0  0  0  0  0  0  0
  -13.9507    2.3135  -14.7476 C   0  0  0  0  0  0  0  0  0  0  0  0
  -14.3314    2.8437  -16.0521 C   0  0  0  0  0  0  0  0  0  0  0  0
  -14.1557    4.1492  -16.1935 N   0  0  0  0  0  0  0  0  0  0  0  0
  -14.3963    2.0027  -17.2850 C   0  0  0  0  0  0  0  0  0  0  0  0
  -14.7130    0.6031  -16.8534 C   0  0  0  0  0  0  0  0  0  0  0  0
  -13.5998    0.2388  -15.8373 C   0  0  0  0  0  0  0  0  0  0  0  0
  -13.8008    0.8253  -14.5960 C   0  0  0  0  0  0  0  0  0  0  0  0
  -14.4221   -0.1823  -13.7781 C   0  0  0  0  0  0  0  0  0  0  0  0
  -14.1972   -1.6249  -13.9986 C   0  0  0  0  0  0  0  0  0  0  0  0
  -13.2398   -1.9620  -14.9569 C   0  0  0  0  0  0  0  0  0  0  0  0
  -12.6777   -3.1716  -15.3747 C   0  0  0  0  0  0  0  0  0  0  0  0
  -12.8446   -4.5640  -15.1592 C   0  0  0  0  0  0  0  0  0  0  0  0
  -11.9978   -5.4839  -15.8192 C   0  0  0  0  0  0  0  0  0  0  0  0
  -10.8931   -4.9992  -16.5371 C   0  0  0  0  0  0  0  0  0  0  0  0
  -10.6965   -3.6412  -16.7555 C   0  0  0  0  0  0  0  0  0  0  0  0
  -11.6600   -2.7524  -16.2731 C   0  0  0  0  0  0  0  0  0  0  0  0
  -11.8635   -1.4022  -16.5204 N   0  0  0  0  0  0  0  0  0  0  0  0
  -12.9587   -0.9785  -15.8371 C   0  0  0  0  0  0  0  0  0  0  0  0
  -15.1521   -2.4782  -13.2890 C   0  0  0  0  0  0  0  0  0  0  0  0
  -15.9465   -1.4436  -12.6783 N   0  0  0  0  0  0  0  0  0  0  0  0
  -15.5692   -0.1077  -12.9006 C   0  0  0  0  0  0  0  0  0  0  0  0
  -16.2215    0.8287  -12.4820 O   0  0  0  0  0  0  0  0  0  0  0  0
  -16.8730   -1.6194  -12.3269 H   0  0  0  0  0  0  0  0  0  0  0  0
  -12.2398   -6.9859  -15.9069 C   0  0  0  0  0  0  0  0  0  0  0  0
  -13.6791   -7.5060  -15.9058 C   0  0  0  0  0  0  0  0  0  0  0  0
  -14.2876   -7.5370  -14.5098 C   0  0  0  0  0  0  0  0  0  0  0  0
  -13.3390   -8.1838  -13.5097 C   0  0  0  0  0  0  0  0  0  0  0  0
  -11.9271   -7.6278  -13.6240 C   0  0  0  0  0  0  0  0  0  0  0  0
  -11.4427   -7.7095  -14.9607 O   0  0  0  0  0  0  0  0  0  0  0  0
  -11.0993   -0.3876  -17.1983 C   0  0  0  0  0  0  0  0  0  0  0  0
  -11.1647   -0.1718  -18.6877 C   0  0  0  0  0  0  0  0  0  0  0  0
  -11.3083    1.3560  -18.8596 C   0  0  0  0  0  0  0  0  0  0  0  0
  -11.6191    1.7588  -20.2874 C   0  0  0  0  0  0  0  0  0  0  0  0
  -12.8218    0.9967  -20.8259 C   0  0  0  0  0  0  0  0  0  0  0  0
  -12.6264   -0.5105  -20.7263 C   0  0  0  0  0  0  0  0  0  0  0  0
  -12.3431   -0.9386  -19.2959 C   0  0  0  0  0  0  0  0  0  0  0  0
  1  2  1  0  0  0
  2  3  1  0  0  0
  2  6  1  0  0  0
  3  4  2  0  0  0
  4  5  1  0  0  0
  4 10  1  0  0  0
  5  6  2  0  0  0
  5  7  1  0  0  0
  7  8  1  0  0  0
  8  9  1  0  0  0
  9 10  1  0  0  0
  9 21  2  0  0  0
 10 11  2  0  0  0
 11 12  1  0  0  0
 11 24  1  0  0  0
 12 13  2  0  0  0
 12 22  1  0  0  0
 13 14  1  0  0  0
 13 21  1  0  0  0
 14 15  1  0  0  0
 14 19  2  0  0  0
 15 16  2  0  0  0
 16 27  1  0  0  0
 16 17  1  0  0  0
 27 28  1  0  0  0
 27 32  1  0  0  0
 28 29  1  0  0  0
 29 30  1  0  0  0
 30 31  1  0  0  0
 31 32  1  0  0  0
 17 18  2  0  0  0
 18 19  1  0  0  0
 19 20  1  0  0  0
 20 33  1  0  0  0
 20 21  1  0  0  0
 33 34  1  0  0  0
 34 35  1  0  0  0
 34 39  1  0  0  0
 35 36  1  0  0  0
 36 37  1  0  0  0
 37 38  1  0  0  0
 38 39  1  0  0  0
 22 23  1  0  0  0
 23 24  1  0  0  0
 23 26  1  0  0  0
 24 25  2  0  0  0
M  END
> <minimizedAffinity>
-6.52509

$$$$
