CHEMBL1993335


 22 25  0  0  0  0  0  0  0  0999 V2000
  -29.9328   -4.7401   -6.2015 C   0  0  0  0  0  0  0  0  0  0  0  0
  -29.2487   -3.6327   -6.8307 N   0  0  0  0  0  0  0  0  0  0  0  0
  -28.7352   -3.6526   -8.1004 C   0  0  0  0  0  0  0  0  0  0  0  0
  -28.1003   -2.4503   -8.3253 C   0  0  0  0  0  0  0  0  0  0  0  0
  -28.2808   -1.6416   -7.1584 C   0  0  0  0  0  0  0  0  0  0  0  0
  -27.9138   -0.3314   -6.7796 C   0  0  0  0  0  0  0  0  0  0  0  0
  -28.2665    0.1454   -5.5181 C   0  0  0  0  0  0  0  0  0  0  0  0
  -27.9116    1.3905   -5.1741 F   0  0  0  0  0  0  0  0  0  0  0  0
  -28.9728   -0.6337   -4.6183 C   0  0  0  0  0  0  0  0  0  0  0  0
  -29.3565   -1.9309   -4.9611 C   0  0  0  0  0  0  0  0  0  0  0  0
  -29.0027   -2.4124   -6.2350 C   0  0  0  0  0  0  0  0  0  0  0  0
  -27.3652   -2.1338   -9.5819 C   0  0  0  0  0  0  0  0  0  0  0  0
  -26.0946   -1.5923   -9.6998 C   0  0  0  0  0  0  0  0  0  0  0  0
  -25.8210   -1.4404  -11.0800 C   0  0  0  0  0  0  0  0  0  0  0  0
  -24.7260   -0.9558  -11.7231 N   0  0  0  0  0  0  0  0  0  0  0  0
  -24.8626   -0.9623  -13.0712 C   0  0  0  0  0  0  0  0  0  0  0  0
  -23.4093   -0.3187  -14.1078 Br  0  0  0  0  0  0  0  0  0  0  0  0
  -26.0040   -1.4141  -13.7327 C   0  0  0  0  0  0  0  0  0  0  0  0
  -27.1069   -1.9064  -13.1105 N   0  0  0  0  0  0  0  0  0  0  0  0
  -26.9392   -1.8901  -11.7728 C   0  0  0  0  0  0  0  0  0  0  0  0
  -27.8531   -2.3119  -10.8528 N   0  0  0  0  0  0  0  0  0  0  0  0
  -28.7596   -2.6657  -11.1049 H   0  0  0  0  0  0  0  0  0  0  0  0
  1  2  1  0  0  0
  2  3  1  0  0  0
  2 11  1  0  0  0
  3  4  2  0  0  0
  4 12  1  0  0  0
  4  5  1  0  0  0
 12 13  2  0  0  0
 12 21  1  0  0  0
 13 14  1  0  0  0
 14 15  1  0  0  0
 14 20  2  0  0  0
 15 16  2  0  0  0
 16 17  1  0  0  0
 16 18  1  0  0  0
 18 19  2  0  0  0
 19 20  1  0  0  0
 20 21  1  0  0  0
 21 22  1  0  0  0
  5  6  1  0  0  0
  5 11  2  0  0  0
  6  7  2  0  0  0
  7  8  1  0  0  0
  7  9  1  0  0  0
  9 10  2  0  0  0
 10 11  1  0  0  0
M  END
> <minimizedAffinity>
-8.56850

$$$$
