CHEMBL244079


 39 42  0  0  0  0  0  0  0  0999 V2000
  -23.6924   -1.3554  -13.5077 C   0  0  0  0  0  0  0  0  0  0  0  0
  -23.4193   -1.6248  -12.1735 C   0  0  0  0  0  0  0  0  0  0  0  0
  -24.4603   -1.9374  -11.2929 C   0  0  0  0  0  0  0  0  0  0  0  0
  -25.7909   -1.9895  -11.7255 C   0  0  0  0  0  0  0  0  0  0  0  0
  -26.0604   -1.6578  -13.0601 C   0  0  0  0  0  0  0  0  0  0  0  0
  -25.0214   -1.3132  -13.9342 C   0  0  0  0  0  0  0  0  0  0  0  0
  -26.8703   -2.3789  -10.8926 N   0  0  0  0  0  0  0  0  0  0  0  0
  -27.0881   -1.9474   -9.5948 C   0  0  0  0  0  0  0  0  0  0  0  0
  -26.4113   -1.1181   -8.9993 O   0  0  0  0  0  0  0  0  0  0  0  0
  -28.1682   -2.5957   -8.9960 N   0  0  0  0  0  0  0  0  0  0  0  0
  -27.5790   -2.9678  -11.3050 H   0  0  0  0  0  0  0  0  0  0  0  0
  -28.2685   -3.5653   -9.2602 H   0  0  0  0  0  0  0  0  0  0  0  0
  -28.5255   -2.2709   -7.6616 C   0  0  0  0  0  0  0  0  0  0  0  0
  -28.7913   -3.3018   -6.7632 C   0  0  0  0  0  0  0  0  0  0  0  0
  -29.0749   -3.0042   -5.4273 C   0  0  0  0  0  0  0  0  0  0  0  0
  -29.1348   -1.6778   -4.9975 C   0  0  0  0  0  0  0  0  0  0  0  0
  -28.8929   -0.6281   -5.8946 C   0  0  0  0  0  0  0  0  0  0  0  0
  -28.5825   -0.9396   -7.2297 C   0  0  0  0  0  0  0  0  0  0  0  0
  -28.9503    0.8105   -5.4426 C   0  0  0  0  0  0  0  0  0  0  0  0
  -30.2097    1.2256   -5.1228 F   0  0  0  0  0  0  0  0  0  0  0  0
  -28.1899    1.0554   -4.3401 F   0  0  0  0  0  0  0  0  0  0  0  0
  -28.5118    1.6754   -6.4003 F   0  0  0  0  0  0  0  0  0  0  0  0
  -22.6023   -1.1071  -14.3181 O   0  0  0  0  0  0  0  0  0  0  0  0
  -18.9830    3.3928  -15.1181 C   0  0  0  0  0  0  0  0  0  0  0  0
  -20.0775    3.7821  -14.5125 N   0  0  0  0  0  0  0  0  0  0  0  0
  -20.8824    2.6803  -14.4401 C   0  0  0  0  0  0  0  0  0  0  0  0
  -22.1710    2.5596  -13.9126 C   0  0  0  0  0  0  0  0  0  0  0  0
  -22.7786    1.2977  -13.9196 C   0  0  0  0  0  0  0  0  0  0  0  0
  -22.0831    0.1722  -14.3768 C   0  0  0  0  0  0  0  0  0  0  0  0
  -20.8186    0.2905  -14.9707 C   0  0  0  0  0  0  0  0  0  0  0  0
  -20.2497    1.5699  -14.9862 C   0  0  0  0  0  0  0  0  0  0  0  0
  -19.0618    2.0703  -15.4658 N   0  0  0  0  0  0  0  0  0  0  0  0
  -18.3434    1.5330  -15.9344 H   0  0  0  0  0  0  0  0  0  0  0  0
  -16.7148    3.5954  -15.8435 C   0  0  0  0  0  0  0  0  0  0  0  0
  -16.4856    2.4223  -16.1128 O   0  0  0  0  0  0  0  0  0  0  0  0
  -17.8781    4.1565  -15.4045 N   0  0  0  0  0  0  0  0  0  0  0  0
  -17.9058    5.1616  -15.3672 H   0  0  0  0  0  0  0  0  0  0  0  0
  -14.4457    4.1657  -15.7889 C   0  0  0  0  0  0  0  0  0  0  0  0
  -15.7930    4.5875  -16.0205 O   0  0  0  0  0  0  0  0  0  0  0  0
 38 39  1  0  0  0
 39 34  1  0  0  0
 34 35  2  0  0  0
 34 36  1  0  0  0
 36 24  1  0  0  0
 36 37  1  0  0  0
 24 25  2  0  0  0
 24 32  1  0  0  0
 25 26  1  0  0  0
 26 27  1  0  0  0
 26 31  2  0  0  0
 27 28  2  0  0  0
 28 29  1  0  0  0
 29 23  1  0  0  0
 29 30  2  0  0  0
 23  1  1  0  0  0
  1  2  1  0  0  0
  1  6  2  0  0  0
  2  3  2  0  0  0
  3  4  1  0  0  0
  4  7  1  0  0  0
  4  5  2  0  0  0
  7  8  1  0  0  0
  7 11  1  0  0  0
  8  9  2  0  0  0
  8 10  1  0  0  0
 10 13  1  0  0  0
 10 12  1  0  0  0
 13 14  1  0  0  0
 13 18  2  0  0  0
 14 15  2  0  0  0
 15 16  1  0  0  0
 16 17  2  0  0  0
 17 19  1  0  0  0
 17 18  1  0  0  0
 19 20  1  0  0  0
 19 21  1  0  0  0
 19 22  1  0  0  0
  5  6  1  0  0  0
 30 31  1  0  0  0
 31 32  1  0  0  0
 32 33  1  0  0  0
M  END
> <minimizedAffinity>
-11.69014

$$$$
