CHEMBL3976226


 34 37  0  0  0  0  0  0  0  0999 V2000
  -27.6174  -11.4094   -4.6743 C   0  0  0  0  0  0  0  0  0  0  0  0
  -27.0615  -11.1247   -5.9427 C   0  0  0  0  0  0  0  0  0  0  0  0
  -27.5578  -10.1431   -6.8056 C   0  0  0  0  0  0  0  0  0  0  0  0
  -27.0009   -9.9586   -8.0104 N   0  0  0  0  0  0  0  0  0  0  0  0
  -27.5287   -9.0059   -8.7888 C   0  0  0  0  0  0  0  0  0  0  0  0
  -28.5428   -8.2070   -8.4714 N   0  0  0  0  0  0  0  0  0  0  0  0
  -29.0981   -8.3841   -7.2611 C   0  0  0  0  0  0  0  0  0  0  0  0
  -28.6476   -9.3883   -6.3772 C   0  0  0  0  0  0  0  0  0  0  0  0
  -29.2352   -9.6804   -5.1252 C   0  0  0  0  0  0  0  0  0  0  0  0
  -28.7326  -10.6644   -4.2594 C   0  0  0  0  0  0  0  0  0  0  0  0
  -30.1683   -7.5393   -6.8389 N   0  0  0  0  0  0  0  0  0  0  0  0
  -30.9452   -8.1348   -6.5671 H   0  0  0  0  0  0  0  0  0  0  0  0
  -30.1110   -6.3876   -6.0221 C   0  0  0  0  0  0  0  0  0  0  0  0
  -29.2176   -5.3346   -6.2485 C   0  0  0  0  0  0  0  0  0  0  0  0
  -29.1931   -4.2135   -5.4135 C   0  0  0  0  0  0  0  0  0  0  0  0
  -30.0999   -4.1063   -4.3602 C   0  0  0  0  0  0  0  0  0  0  0  0
  -29.9856   -2.7188   -3.3394 Cl  0  0  0  0  0  0  0  0  0  0  0  0
  -31.0551   -5.1071   -4.1696 C   0  0  0  0  0  0  0  0  0  0  0  0
  -32.2431   -5.0252   -2.9167 Cl  0  0  0  0  0  0  0  0  0  0  0  0
  -31.0682   -6.2297   -5.0071 C   0  0  0  0  0  0  0  0  0  0  0  0
  -29.5722  -10.8246   -3.1927 O   0  0  0  0  0  0  0  0  0  0  0  0
  -30.2574  -12.0474   -2.9704 C   0  0  0  0  0  0  0  0  0  0  0  0
  -26.9598  -12.4618   -4.0687 O   0  0  0  0  0  0  0  0  0  0  0  0
  -25.5726  -12.2925   -3.8674 C   0  0  0  0  0  0  0  0  0  0  0  0
  -23.0413  -10.4395   -5.3980 C   0  0  0  0  0  0  0  0  0  0  0  0
  -23.7983   -9.7179   -6.0478 O   0  0  0  0  0  0  0  0  0  0  0  0
  -23.1377  -10.5388   -4.0211 N   0  0  0  0  0  0  0  0  0  0  0  0
  -22.2664  -11.2932   -3.1105 C   0  0  0  0  0  0  0  0  0  0  0  0
  -23.0394  -12.3897   -2.3567 C   0  0  0  0  0  0  0  0  0  0  0  0
  -24.2991  -11.9203   -1.8274 O   0  0  0  0  0  0  0  0  0  0  0  0
  -25.1262  -11.2552   -2.8273 C   0  0  0  0  0  0  0  0  0  0  0  0
  -24.3640  -10.0581   -3.3936 C   0  0  0  0  0  0  0  0  0  0  0  0
  -21.2447  -10.5115   -7.1420 C   0  0  0  0  0  0  0  0  0  0  0  0
  -21.9990  -11.2983   -6.0809 C   0  0  0  0  0  0  0  0  0  0  0  0
 33 34  1  0  0  0
 34 25  1  0  0  0
 25 26  2  0  0  0
 25 27  1  0  0  0
 27 28  1  0  0  0
 27 32  1  0  0  0
 28 29  1  0  0  0
 29 30  1  0  0  0
 30 31  1  0  0  0
 31 24  1  0  0  0
 31 32  1  0  0  0
 24 23  1  0  0  0
 23  1  1  0  0  0
  1  2  1  0  0  0
  1 10  2  0  0  0
  2  3  2  0  0  0
  3  4  1  0  0  0
  3  8  1  0  0  0
  4  5  2  0  0  0
  5  6  1  0  0  0
  6  7  2  0  0  0
  7 11  1  0  0  0
  7  8  1  0  0  0
 11 13  1  0  0  0
 11 12  1  0  0  0
 13 14  1  0  0  0
 13 20  2  0  0  0
 14 15  2  0  0  0
 15 16  1  0  0  0
 16 17  1  0  0  0
 16 18  2  0  0  0
 18 19  1  0  0  0
 18 20  1  0  0  0
  8  9  2  0  0  0
  9 10  1  0  0  0
 10 21  1  0  0  0
 21 22  1  0  0  0
M  END
> <minimizedAffinity>
-8.12133

$$$$
