CHEMBL3961923


 42 47  0  0  0  0  0  0  0  0999 V2000
  -13.9540   -0.7388  -14.6904 C   0  0  0  0  0  0  0  0  0  0  0  0
  -13.9252   -0.3588  -16.0321 C   0  0  0  0  0  0  0  0  0  0  0  0
  -14.6674    0.7330  -16.4445 C   0  0  0  0  0  0  0  0  0  0  0  0
  -15.5730    1.3398  -15.6174 C   0  0  0  0  0  0  0  0  0  0  0  0
  -16.0333    2.5136  -16.0708 N   0  0  0  0  0  0  0  0  0  0  0  0
  -17.1160    3.0059  -15.4585 C   0  0  0  0  0  0  0  0  0  0  0  0
  -17.8055    2.2892  -14.5007 C   0  0  0  0  0  0  0  0  0  0  0  0
  -17.2129    1.1972  -13.8933 N   0  0  0  0  0  0  0  0  0  0  0  0
  -15.9968    0.7294  -14.4191 C   0  0  0  0  0  0  0  0  0  0  0  0
  -15.0625   -0.2777  -13.9263 C   0  0  0  0  0  0  0  0  0  0  0  0
  -19.2574    2.5284  -14.5108 C   0  0  0  0  0  0  0  0  0  0  0  0
  -20.0872    3.5658  -14.9934 C   0  0  0  0  0  0  0  0  0  0  0  0
  -21.3976    3.2578  -14.9668 N   0  0  0  0  0  0  0  0  0  0  0  0
  -21.4337    2.0057  -14.4661 N   0  0  0  0  0  0  0  0  0  0  0  0
  -20.1703    1.5021  -14.2728 C   0  0  0  0  0  0  0  0  0  0  0  0
  -22.6655    1.4521  -13.9122 C   0  0  0  0  0  0  0  0  0  0  0  0
  -22.7928   -0.0771  -13.6497 C   0  0  0  0  0  0  0  0  0  0  0  0
  -24.1484   -0.5671  -14.2299 C   0  0  0  0  0  0  0  0  0  0  0  0
  -24.6564   -1.8818  -13.6496 C   0  0  0  0  0  0  0  0  0  0  0  0
  -24.6091   -1.8447  -12.2285 O   0  0  0  0  0  0  0  0  0  0  0  0
  -23.2643   -1.7613  -11.7702 C   0  0  0  0  0  0  0  0  0  0  0  0
  -22.6507   -0.4196  -12.1578 C   0  0  0  0  0  0  0  0  0  0  0  0
  -12.7196   -1.3368  -14.2103 N   0  0  0  0  0  0  0  0  0  0  0  0
  -11.4969   -3.3778  -11.2478 C   0  0  0  0  0  0  0  0  0  0  0  0
  -12.1185   -4.5908  -11.5012 C   0  0  0  0  0  0  0  0  0  0  0  0
  -12.8555   -4.7531  -12.6728 C   0  0  0  0  0  0  0  0  0  0  0  0
  -13.0062   -3.6876  -13.5764 C   0  0  0  0  0  0  0  0  0  0  0  0
  -12.4797   -2.4189  -13.3220 C   0  0  0  0  0  0  0  0  0  0  0  0
  -11.6555   -2.3258  -12.1695 C   0  0  0  0  0  0  0  0  0  0  0  0
  -11.2632   -3.4342   -8.8749 C   0  0  0  0  0  0  0  0  0  0  0  0
  -10.7174   -3.1031  -10.1533 O   0  0  0  0  0  0  0  0  0  0  0  0
  -13.4865   -5.9095  -13.0514 O   0  0  0  0  0  0  0  0  0  0  0  0
  -14.7727   -6.1395  -12.4866 C   0  0  0  0  0  0  0  0  0  0  0  0
  -11.5893   -0.3496  -14.4117 C   0  0  0  0  0  0  0  0  0  0  0  0
  -11.7812    0.8701  -13.4831 C   0  0  0  0  0  0  0  0  0  0  0  0
  -11.5764    2.2008  -14.0754 N   0  0  0  0  0  0  0  0  0  0  0  0
  -11.2018    2.1813  -15.4986 C   0  0  0  0  0  0  0  0  0  0  0  0
  -12.1114    3.1918  -16.2025 C   0  0  0  0  0  0  0  0  0  0  0  0
  -12.7262    4.0195  -15.0763 C   0  0  0  0  0  0  0  0  0  0  0  0
  -12.8243    2.9806  -13.9704 C   0  0  0  0  0  0  0  0  0  0  0  0
  -11.8957    5.1655  -14.6985 C   0  0  0  0  0  0  0  0  0  0  0  0
  -11.2295    6.0622  -14.3701 N   0  0  0  0  0  0  0  0  0  0  0  0
 30 31  1  0  0  0
 31 24  1  0  0  0
 24 25  1  0  0  0
 24 29  2  0  0  0
 25 26  2  0  0  0
 26 32  1  0  0  0
 26 27  1  0  0  0
 32 33  1  0  0  0
 27 28  2  0  0  0
 28 23  1  0  0  0
 28 29  1  0  0  0
 23 34  1  0  0  0
 23  1  1  0  0  0
 34 35  1  0  0  0
 35 36  1  0  0  0
 36 37  1  0  0  0
 36 40  1  0  0  0
 37 38  1  0  0  0
 38 39  1  0  0  0
 39 41  1  0  0  0
 39 40  1  0  0  0
 41 42  3  0  0  0
  1  2  1  0  0  0
  1 10  2  0  0  0
  2  3  2  0  0  0
  3  4  1  0  0  0
  4  5  1  0  0  0
  4  9  2  0  0  0
  5  6  2  0  0  0
  6  7  1  0  0  0
  7 11  1  0  0  0
  7  8  2  0  0  0
 11 12  1  0  0  0
 11 15  2  0  0  0
 12 13  2  0  0  0
 13 14  1  0  0  0
 14 16  1  0  0  0
 14 15  1  0  0  0
 16 17  1  0  0  0
 17 18  1  0  0  0
 17 22  1  0  0  0
 18 19  1  0  0  0
 19 20  1  0  0  0
 20 21  1  0  0  0
 21 22  1  0  0  0
  8  9  1  0  0  0
  9 10  1  0  0  0
M  END
> <minimizedAffinity>
-8.22670

$$$$
