CHEMBL2113192


 35 37  0  0  0  0  0  0  0  0999 V2000
  -15.9444   -1.4394  -12.9022 N   0  0  0  0  0  0  0  0  0  0  0  0
  -16.8277   -1.3291  -13.4058 H   0  0  0  0  0  0  0  0  0  0  0  0
  -15.9935    2.6403  -16.0206 C   0  0  0  0  0  0  0  0  0  0  0  0
  -14.6713    2.3071  -15.6363 C   0  0  0  0  0  0  0  0  0  0  0  0
  -14.3427    1.2755  -14.7772 C   0  0  0  0  0  0  0  0  0  0  0  0
  -13.0532    1.0677  -14.5028 N   0  0  0  0  0  0  0  0  0  0  0  0
  -12.7755    0.0582  -13.6802 C   0  0  0  0  0  0  0  0  0  0  0  0
  -13.6691   -0.7706  -13.1423 N   0  0  0  0  0  0  0  0  0  0  0  0
  -14.9678   -0.5539  -13.4394 C   0  0  0  0  0  0  0  0  0  0  0  0
  -15.3736    0.5103  -14.2538 C   0  0  0  0  0  0  0  0  0  0  0  0
  -16.7058    0.8587  -14.5553 C   0  0  0  0  0  0  0  0  0  0  0  0
  -17.0354    1.9017  -15.4438 C   0  0  0  0  0  0  0  0  0  0  0  0
  -18.3875    1.9493  -15.5719 O   0  0  0  0  0  0  0  0  0  0  0  0
  -19.2658    0.9204  -15.1788 C   0  0  0  0  0  0  0  0  0  0  0  0
  -16.2288    3.6567  -16.9403 O   0  0  0  0  0  0  0  0  0  0  0  0
  -15.0306    4.1330  -17.5828 C   0  0  0  0  0  0  0  0  0  0  0  0
  -15.2022    5.0344  -18.7991 C   0  0  0  0  0  0  0  0  0  0  0  0
  -13.2583    3.6910  -19.1604 C   0  0  0  0  0  0  0  0  0  0  0  0
  -14.1027    4.7094  -19.6655 O   0  0  0  0  0  0  0  0  0  0  0  0
  -15.6411   -2.7902  -12.6941 C   0  0  0  0  0  0  0  0  0  0  0  0
  -15.5796   -3.6795  -13.6776 C   0  0  0  0  0  0  0  0  0  0  0  0
  -15.4436   -5.1087  -13.4372 C   0  0  0  0  0  0  0  0  0  0  0  0
  -15.6092   -5.8736  -14.3832 O   0  0  0  0  0  0  0  0  0  0  0  0
  -15.1024   -5.5609  -12.0607 C   0  0  0  0  0  0  0  0  0  0  0  0
  -15.1026   -4.6871  -11.0372 C   0  0  0  0  0  0  0  0  0  0  0  0
  -15.3993   -3.2253  -11.2792 C   0  0  0  0  0  0  0  0  0  0  0  0
  -15.4392   -2.3785  -10.3940 O   0  0  0  0  0  0  0  0  0  0  0  0
  -14.8323   -5.2023   -9.7678 O   0  0  0  0  0  0  0  0  0  0  0  0
  -13.6139   -4.8794   -9.1157 C   0  0  0  0  0  0  0  0  0  0  0  0
  -14.8193   -6.9009  -11.7982 O   0  0  0  0  0  0  0  0  0  0  0  0
  -13.6520   -7.5136  -12.3750 C   0  0  0  0  0  0  0  0  0  0  0  0
  -12.3506   -6.7912  -12.0264 C   0  0  0  0  0  0  0  0  0  0  0  0
  -11.8853   -7.2416  -10.8273 F   0  0  0  0  0  0  0  0  0  0  0  0
  -13.5846   -8.9434  -11.8543 C   0  0  0  0  0  0  0  0  0  0  0  0
  -12.6555   -9.6421  -12.5596 F   0  0  0  0  0  0  0  0  0  0  0  0
 18 19  1  0  0  0
 19 17  1  0  0  0
 17 16  1  0  0  0
 16 15  1  0  0  0
 15  3  1  0  0  0
  3  4  1  0  0  0
  3 12  2  0  0  0
  4  5  2  0  0  0
  5  6  1  0  0  0
  5 10  1  0  0  0
  6  7  2  0  0  0
  7  8  1  0  0  0
  8  9  2  0  0  0
  9  1  1  0  0  0
  9 10  1  0  0  0
  1 20  1  0  0  0
  1  2  1  0  0  0
 20 21  2  0  0  0
 20 26  1  0  0  0
 21 22  1  0  0  0
 22 23  2  0  0  0
 22 24  1  0  0  0
 24 30  1  0  0  0
 24 25  2  0  0  0
 30 31  1  0  0  0
 31 32  1  0  0  0
 31 34  1  0  0  0
 32 33  1  0  0  0
 34 35  1  0  0  0
 25 28  1  0  0  0
 25 26  1  0  0  0
 28 29  1  0  0  0
 26 27  2  0  0  0
 10 11  2  0  0  0
 11 12  1  0  0  0
 12 13  1  0  0  0
 13 14  1  0  0  0
M  END
> <minimizedAffinity>
-6.67547

$$$$
