CHEMBL377400


 42 47  0  0  0  0  0  0  0  0999 V2000
  -14.7646   -0.6401  -13.2423 C   0  0  0  0  0  0  0  0  0  0  0  0
  -15.7965   -0.8134  -12.3487 C   0  0  0  0  0  0  0  0  0  0  0  0
  -15.7300   -2.0990  -11.7232 C   0  0  0  0  0  0  0  0  0  0  0  0
  -14.6354   -2.8760  -12.1120 C   0  0  0  0  0  0  0  0  0  0  0  0
  -13.9218   -2.1486  -13.4839 S   0  0  0  0  0  0  0  0  0  0  0  0
  -14.2150   -4.1400  -11.5030 C   0  0  0  0  0  0  0  0  0  0  0  0
  -12.9461   -4.5979  -11.1825 N   0  0  0  0  0  0  0  0  0  0  0  0
  -12.7858   -5.9649  -11.3789 N   0  0  0  0  0  0  0  0  0  0  0  0
  -14.0355   -6.4178  -11.5535 C   0  0  0  0  0  0  0  0  0  0  0  0
  -14.9566   -5.3099  -11.4325 C   0  0  0  0  0  0  0  0  0  0  0  0
  -16.2020   -5.6563  -12.1377 C   0  0  0  0  0  0  0  0  0  0  0  0
  -15.4156   -6.3665  -13.2515 C   0  0  0  0  0  0  0  0  0  0  0  0
  -14.6076   -5.8169  -14.3002 C   0  0  0  0  0  0  0  0  0  0  0  0
  -13.7528   -6.6918  -15.0168 C   0  0  0  0  0  0  0  0  0  0  0  0
  -13.9694   -8.0186  -14.7429 C   0  0  0  0  0  0  0  0  0  0  0  0
  -14.2887   -8.3477  -13.4204 C   0  0  0  0  0  0  0  0  0  0  0  0
  -14.6958   -7.3444  -12.5723 C   0  0  0  0  0  0  0  0  0  0  0  0
  -12.1147   -4.0351  -11.0405 H   0  0  0  0  0  0  0  0  0  0  0  0
  -12.4928   -6.3242  -15.7717 C   0  0  0  0  0  0  0  0  0  0  0  0
  -12.6846   -5.3888  -16.8827 N   0  0  0  0  0  0  0  0  0  0  0  0
  -11.4228   -5.1381  -17.5985 C   0  0  0  0  0  0  0  0  0  0  0  0
  -11.6091   -4.1356  -18.7619 C   0  0  0  0  0  0  0  0  0  0  0  0
  -12.6845   -4.4573  -19.7234 N   0  0  0  0  0  0  0  0  0  0  0  0
  -12.2981   -5.5261  -20.6409 C   0  0  0  0  0  0  0  0  0  0  0  0
  -13.9077   -4.8060  -18.9704 C   0  0  0  0  0  0  0  0  0  0  0  0
  -13.6869   -5.8693  -17.8612 C   0  0  0  0  0  0  0  0  0  0  0  0
  -14.2372    0.6352  -13.8645 C   0  0  0  0  0  0  0  0  0  0  0  0
  -16.9679    1.5481  -14.4688 N   0  0  0  0  0  0  0  0  0  0  0  0
  -16.0264    1.5341  -15.4620 C   0  0  0  0  0  0  0  0  0  0  0  0
  -16.2866    1.9101  -16.5888 O   0  0  0  0  0  0  0  0  0  0  0  0
  -14.7836    0.9550  -15.2005 N   0  0  0  0  0  0  0  0  0  0  0  0
  -16.7797    1.0602  -13.6213 H   0  0  0  0  0  0  0  0  0  0  0  0
  -21.7653    0.3902  -14.3243 C   0  0  0  0  0  0  0  0  0  0  0  0
  -20.7107    1.4338  -14.5197 C   0  0  0  0  0  0  0  0  0  0  0  0
  -21.0582    2.7374  -14.9218 C   0  0  0  0  0  0  0  0  0  0  0  0
  -20.0063    3.6565  -15.1767 C   0  0  0  0  0  0  0  0  0  0  0  0
  -18.6868    3.3064  -15.0075 C   0  0  0  0  0  0  0  0  0  0  0  0
  -18.3314    2.0123  -14.6173 C   0  0  0  0  0  0  0  0  0  0  0  0
  -19.3479    1.0941  -14.3606 C   0  0  0  0  0  0  0  0  0  0  0  0
  -13.8307    0.8862  -16.3361 C   0  0  0  0  0  0  0  0  0  0  0  0
  -12.7279    1.9416  -16.1956 C   0  0  0  0  0  0  0  0  0  0  0  0
  -13.1942   -0.4948  -16.5864 C   0  0  0  0  0  0  0  0  0  0  0  0
 33 34  1  0  0  0
 34 35  1  0  0  0
 34 39  2  0  0  0
 35 36  2  0  0  0
 36 37  1  0  0  0
 37 38  2  0  0  0
 38 28  1  0  0  0
 38 39  1  0  0  0
 28 29  1  0  0  0
 28 32  1  0  0  0
 29 30  2  0  0  0
 29 31  1  0  0  0
 31 27  1  0  0  0
 31 40  1  0  0  0
 27  1  1  0  0  0
  1  2  2  0  0  0
  1  5  1  0  0  0
  2  3  1  0  0  0
  3  4  2  0  0  0
  4  6  1  0  0  0
  4  5  1  0  0  0
  6  7  1  0  0  0
  6 10  2  0  0  0
  7  8  1  0  0  0
  7 18  1  0  0  0
  8  9  2  0  0  0
  9 10  1  0  0  0
  9 17  1  0  0  0
 10 11  1  0  0  0
 11 12  1  0  0  0
 12 13  1  0  0  0
 12 17  2  0  0  0
 13 14  2  0  0  0
 14 19  1  0  0  0
 14 15  1  0  0  0
 19 20  1  0  0  0
 20 21  1  0  0  0
 20 26  1  0  0  0
 21 22  1  0  0  0
 22 23  1  0  0  0
 23 24  1  0  0  0
 23 25  1  0  0  0
 25 26  1  0  0  0
 15 16  2  0  0  0
 16 17  1  0  0  0
 40 41  1  0  0  0
 40 42  1  0  0  0
M  END
> <minimizedAffinity>
-9.35974

$$$$
