CHEMBL3933848


 37 41  0  0  0  0  0  0  0  0999 V2000
  -12.3769   -3.2423  -13.7734 C   0  0  0  0  0  0  0  0  0  0  0  0
  -12.6154   -4.6133  -13.8880 C   0  0  0  0  0  0  0  0  0  0  0  0
  -13.8571   -5.1730  -13.5095 C   0  0  0  0  0  0  0  0  0  0  0  0
  -14.2013   -6.5225  -13.6338 C   0  0  0  0  0  0  0  0  0  0  0  0
  -15.4211   -6.9807  -13.2902 N   0  0  0  0  0  0  0  0  0  0  0  0
  -16.2957   -6.0921  -12.8118 C   0  0  0  0  0  0  0  0  0  0  0  0
  -16.0724   -4.7880  -12.6565 N   0  0  0  0  0  0  0  0  0  0  0  0
  -14.8645   -4.3518  -13.0116 C   0  0  0  0  0  0  0  0  0  0  0  0
  -14.6089   -3.0084  -12.8713 C   0  0  0  0  0  0  0  0  0  0  0  0
  -13.3695   -2.4370  -13.1968 C   0  0  0  0  0  0  0  0  0  0  0  0
  -11.0836   -2.4710  -15.5987 C   0  0  0  0  0  0  0  0  0  0  0  0
  -11.2056   -2.6648  -14.1870 O   0  0  0  0  0  0  0  0  0  0  0  0
  -13.2477   -7.4317  -14.1627 N   0  0  0  0  0  0  0  0  0  0  0  0
  -12.9036   -8.0388  -13.4270 H   0  0  0  0  0  0  0  0  0  0  0  0
  -13.3584   -8.0621  -15.4158 C   0  0  0  0  0  0  0  0  0  0  0  0
  -13.1340   -9.4412  -15.5412 C   0  0  0  0  0  0  0  0  0  0  0  0
  -13.1808  -10.0633  -16.7867 C   0  0  0  0  0  0  0  0  0  0  0  0
  -13.4595   -9.3142  -17.9293 C   0  0  0  0  0  0  0  0  0  0  0  0
  -13.4520  -10.1313  -19.4476 Cl  0  0  0  0  0  0  0  0  0  0  0  0
  -13.7188   -7.9414  -17.8112 C   0  0  0  0  0  0  0  0  0  0  0  0
  -14.0777   -6.9498  -19.1803 Cl  0  0  0  0  0  0  0  0  0  0  0  0
  -13.6793   -7.3226  -16.5564 C   0  0  0  0  0  0  0  0  0  0  0  0
  -13.1007   -1.1050  -12.9722 O   0  0  0  0  0  0  0  0  0  0  0  0
  -13.5829   -0.2329  -14.0144 C   0  0  0  0  0  0  0  0  0  0  0  0
  -14.9431    0.3010  -13.8030 C   0  0  0  0  0  0  0  0  0  0  0  0
  -15.4277    0.4716  -12.5627 N   0  0  0  0  0  0  0  0  0  0  0  0
  -16.7086    0.9625  -12.7946 O   0  0  0  0  0  0  0  0  0  0  0  0
  -16.8578    1.0378  -14.1548 C   0  0  0  0  0  0  0  0  0  0  0  0
  -15.8030    0.6219  -14.8142 N   0  0  0  0  0  0  0  0  0  0  0  0
  -18.0936    1.6340  -14.6239 C   0  0  0  0  0  0  0  0  0  0  0  0
  -19.2547    0.8363  -14.6369 C   0  0  0  0  0  0  0  0  0  0  0  0
  -20.4803    1.3666  -15.0182 C   0  0  0  0  0  0  0  0  0  0  0  0
  -20.5574    2.6992  -15.4049 C   0  0  0  0  0  0  0  0  0  0  0  0
  -19.4168    3.5023  -15.4057 C   0  0  0  0  0  0  0  0  0  0  0  0
  -18.1797    2.9881  -15.0015 C   0  0  0  0  0  0  0  0  0  0  0  0
  -17.0271    3.7425  -15.0014 O   0  0  0  0  0  0  0  0  0  0  0  0
  -16.4183    3.9700  -16.2620 C   0  0  0  0  0  0  0  0  0  0  0  0
 11 12  1  0  0  0
 12  1  1  0  0  0
  1  2  1  0  0  0
  1 10  2  0  0  0
  2  3  2  0  0  0
  3  4  1  0  0  0
  3  8  1  0  0  0
  4 13  1  0  0  0
  4  5  2  0  0  0
 13 15  1  0  0  0
 13 14  1  0  0  0
 15 16  1  0  0  0
 15 22  2  0  0  0
 16 17  2  0  0  0
 17 18  1  0  0  0
 18 19  1  0  0  0
 18 20  2  0  0  0
 20 21  1  0  0  0
 20 22  1  0  0  0
  5  6  1  0  0  0
  6  7  2  0  0  0
  7  8  1  0  0  0
  8  9  2  0  0  0
  9 10  1  0  0  0
 10 23  1  0  0  0
 23 24  1  0  0  0
 24 25  1  0  0  0
 25 26  2  0  0  0
 25 29  1  0  0  0
 26 27  1  0  0  0
 27 28  1  0  0  0
 28 30  1  0  0  0
 28 29  2  0  0  0
 30 31  1  0  0  0
 30 35  2  0  0  0
 31 32  2  0  0  0
 32 33  1  0  0  0
 33 34  2  0  0  0
 34 35  1  0  0  0
 35 36  1  0  0  0
 36 37  1  0  0  0
M  END
> <minimizedAffinity>
-8.28530

$$$$
