CHEMBL1076721


 24 26  0  0  0  0  0  0  0  0999 V2000
  -29.8726   -3.4791   -4.9559 C   0  0  0  0  0  0  0  0  0  0  0  0
  -29.9919   -2.8087   -3.8378 N   0  0  0  0  0  0  0  0  0  0  0  0
  -30.8463   -3.5268   -3.0053 N   0  0  0  0  0  0  0  0  0  0  0  0
  -31.3540   -4.6862   -3.5445 C   0  0  0  0  0  0  0  0  0  0  0  0
  -32.1805   -5.4704   -3.1363 O   0  0  0  0  0  0  0  0  0  0  0  0
  -30.6379   -4.7545   -4.8573 C   0  0  0  0  0  0  0  0  0  0  0  0
  -30.5670   -5.7157   -5.7206 N   0  0  0  0  0  0  0  0  0  0  0  0
  -31.1286   -3.1422   -2.1107 H   0  0  0  0  0  0  0  0  0  0  0  0
  -27.6477   -2.1925   -8.3648 C   0  0  0  0  0  0  0  0  0  0  0  0
  -27.8976   -1.3126   -7.3097 C   0  0  0  0  0  0  0  0  0  0  0  0
  -28.6339   -1.7371   -6.1967 C   0  0  0  0  0  0  0  0  0  0  0  0
  -29.1088   -3.0496   -6.1301 C   0  0  0  0  0  0  0  0  0  0  0  0
  -28.8707   -3.9279   -7.1900 C   0  0  0  0  0  0  0  0  0  0  0  0
  -28.1411   -3.4967   -8.2997 C   0  0  0  0  0  0  0  0  0  0  0  0
  -27.6943   -1.4384  -10.6171 C   0  0  0  0  0  0  0  0  0  0  0  0
  -26.9472   -1.9087   -9.5034 O   0  0  0  0  0  0  0  0  0  0  0  0
  -31.2577   -6.8469   -5.4500 N   0  0  0  0  0  0  0  0  0  0  0  0
  -31.9380   -6.8906   -4.6854 H   0  0  0  0  0  0  0  0  0  0  0  0
  -31.3495   -7.8302   -6.4457 C   0  0  0  0  0  0  0  0  0  0  0  0
  -30.1965   -8.3219   -7.0599 C   0  0  0  0  0  0  0  0  0  0  0  0
  -30.2928   -9.2597   -8.0888 C   0  0  0  0  0  0  0  0  0  0  0  0
  -31.5522   -9.6750   -8.4885 C   0  0  0  0  0  0  0  0  0  0  0  0
  -32.6960   -9.2182   -7.9431 N   0  0  0  0  0  0  0  0  0  0  0  0
  -32.5642   -8.3043   -6.9468 C   0  0  0  0  0  0  0  0  0  0  0  0
 15 16  1  0  0  0
 16  9  1  0  0  0
  9 10  1  0  0  0
  9 14  2  0  0  0
 10 11  2  0  0  0
 11 12  1  0  0  0
 12  1  1  0  0  0
 12 13  2  0  0  0
  1  2  2  0  0  0
  1  6  1  0  0  0
  2  3  1  0  0  0
  3  4  1  0  0  0
  3  8  1  0  0  0
  4  5  2  0  0  0
  4  6  1  0  0  0
  6  7  2  0  0  0
  7 17  1  0  0  0
 17 19  1  0  0  0
 17 18  1  0  0  0
 19 20  1  0  0  0
 19 24  2  0  0  0
 20 21  2  0  0  0
 21 22  1  0  0  0
 22 23  2  0  0  0
 23 24  1  0  0  0
 13 14  1  0  0  0
M  END
> <minimizedAffinity>
-8.06441

$$$$
