CHEMBL1986979


 34 37  0  0  0  0  0  0  0  0999 V2000
  -25.1518   -1.7578  -12.2044 C   0  0  0  0  0  0  0  0  0  0  0  0
  -23.9393   -1.5732  -11.5487 C   0  0  0  0  0  0  0  0  0  0  0  0
  -22.8614   -0.9739  -12.2210 C   0  0  0  0  0  0  0  0  0  0  0  0
  -22.9664   -0.5286  -13.5573 C   0  0  0  0  0  0  0  0  0  0  0  0
  -24.1864   -0.7834  -14.1942 C   0  0  0  0  0  0  0  0  0  0  0  0
  -24.3608   -0.4621  -15.4856 F   0  0  0  0  0  0  0  0  0  0  0  0
  -25.2745   -1.3352  -13.5271 C   0  0  0  0  0  0  0  0  0  0  0  0
  -21.8227    0.1227  -14.2344 C   0  0  0  0  0  0  0  0  0  0  0  0
  -20.7821   -0.6733  -14.7862 C   0  0  0  0  0  0  0  0  0  0  0  0
  -19.6671   -0.1270  -15.4178 C   0  0  0  0  0  0  0  0  0  0  0  0
  -19.5466    1.2475  -15.5712 C   0  0  0  0  0  0  0  0  0  0  0  0
  -20.5674    2.0404  -15.0428 C   0  0  0  0  0  0  0  0  0  0  0  0
  -20.7109    3.4002  -15.0595 N   0  0  0  0  0  0  0  0  0  0  0  0
  -21.7741    3.8510  -14.3956 N   0  0  0  0  0  0  0  0  0  0  0  0
  -22.3516    2.7449  -13.9341 C   0  0  0  0  0  0  0  0  0  0  0  0
  -23.4403    2.8484  -13.1543 N   0  0  0  0  0  0  0  0  0  0  0  0
  -21.6807    1.5424  -14.3556 C   0  0  0  0  0  0  0  0  0  0  0  0
  -20.0993    4.0782  -15.4973 H   0  0  0  0  0  0  0  0  0  0  0  0
  -23.8999    3.7508  -13.2117 H   0  0  0  0  0  0  0  0  0  0  0  0
  -24.1141    2.0967  -13.1539 H   0  0  0  0  0  0  0  0  0  0  0  0
  -27.5562   -2.8562   -9.7185 N   0  0  0  0  0  0  0  0  0  0  0  0
  -26.4811   -2.1339  -10.1946 C   0  0  0  0  0  0  0  0  0  0  0  0
  -25.8412   -1.3037   -9.5492 O   0  0  0  0  0  0  0  0  0  0  0  0
  -26.2156   -2.4085  -11.5319 N   0  0  0  0  0  0  0  0  0  0  0  0
  -27.8018   -3.6958  -10.2232 H   0  0  0  0  0  0  0  0  0  0  0  0
  -27.0140   -2.6787  -12.0904 H   0  0  0  0  0  0  0  0  0  0  0  0
  -28.2633   -0.1098   -5.6092 C   0  0  0  0  0  0  0  0  0  0  0  0
  -28.5505   -1.3360   -6.4256 C   0  0  0  0  0  0  0  0  0  0  0  0
  -27.9378   -1.5117   -7.6744 C   0  0  0  0  0  0  0  0  0  0  0  0
  -28.1646   -2.6549   -8.4541 C   0  0  0  0  0  0  0  0  0  0  0  0
  -29.0544   -3.6244   -7.9801 C   0  0  0  0  0  0  0  0  0  0  0  0
  -29.6833   -3.4551   -6.7418 C   0  0  0  0  0  0  0  0  0  0  0  0
  -29.4297   -2.3170   -5.9804 C   0  0  0  0  0  0  0  0  0  0  0  0
  -30.0442   -2.1735   -4.7988 F   0  0  0  0  0  0  0  0  0  0  0  0
 27 28  1  0  0  0
 28 29  1  0  0  0
 28 33  2  0  0  0
 29 30  2  0  0  0
 30 21  1  0  0  0
 30 31  1  0  0  0
 21 22  1  0  0  0
 21 25  1  0  0  0
 22 23  2  0  0  0
 22 24  1  0  0  0
 24  1  1  0  0  0
 24 26  1  0  0  0
  1  2  1  0  0  0
  1  7  2  0  0  0
  2  3  2  0  0  0
  3  4  1  0  0  0
  4  8  1  0  0  0
  4  5  2  0  0  0
  8  9  1  0  0  0
  8 17  2  0  0  0
  9 10  2  0  0  0
 10 11  1  0  0  0
 11 12  2  0  0  0
 12 13  1  0  0  0
 12 17  1  0  0  0
 13 14  1  0  0  0
 13 18  1  0  0  0
 14 15  2  0  0  0
 15 16  1  0  0  0
 15 17  1  0  0  0
 16 19  1  0  0  0
 16 20  1  0  0  0
  5  6  1  0  0  0
  5  7  1  0  0  0
 31 32  2  0  0  0
 32 33  1  0  0  0
 33 34  1  0  0  0
M  END
> <minimizedAffinity>
-10.56420

$$$$
