CHEMBL525909


 40 43  0  0  0  0  0  0  0  0999 V2000
  -12.8957   -7.6080  -12.5686 C   0  0  0  0  0  0  0  0  0  0  0  0
  -12.3712   -7.0415  -13.7515 C   0  0  0  0  0  0  0  0  0  0  0  0
  -12.4642   -5.6584  -14.0009 C   0  0  0  0  0  0  0  0  0  0  0  0
  -13.0902   -4.8496  -13.0659 C   0  0  0  0  0  0  0  0  0  0  0  0
  -13.5890   -5.4327  -11.8938 C   0  0  0  0  0  0  0  0  0  0  0  0
  -13.5053   -6.7843  -11.6163 C   0  0  0  0  0  0  0  0  0  0  0  0
  -14.1892   -4.4808  -11.0823 N   0  0  0  0  0  0  0  0  0  0  0  0
  -14.1641   -3.2293  -11.6694 C   0  0  0  0  0  0  0  0  0  0  0  0
  -14.7844   -2.2577  -11.2802 O   0  0  0  0  0  0  0  0  0  0  0  0
  -13.3567   -3.3977  -12.9412 C   0  0  0  0  0  0  0  0  0  0  0  0
  -13.0213   -2.3414  -13.7184 C   0  0  0  0  0  0  0  0  0  0  0  0
  -14.6923   -4.6652  -10.2273 H   0  0  0  0  0  0  0  0  0  0  0  0
  -12.5560   -2.5511  -15.1067 C   0  0  0  0  0  0  0  0  0  0  0  0
  -13.4606   -3.0190  -16.0751 C   0  0  0  0  0  0  0  0  0  0  0  0
  -13.0645   -3.1556  -17.4073 C   0  0  0  0  0  0  0  0  0  0  0  0
  -11.7615   -2.8298  -17.7808 C   0  0  0  0  0  0  0  0  0  0  0  0
  -10.8558   -2.3671  -16.8249 C   0  0  0  0  0  0  0  0  0  0  0  0
  -11.2523   -2.2232  -15.4930 C   0  0  0  0  0  0  0  0  0  0  0  0
  -12.8564   -9.0692  -12.2847 C   0  0  0  0  0  0  0  0  0  0  0  0
  -13.7853   -9.6695  -11.7664 O   0  0  0  0  0  0  0  0  0  0  0  0
  -10.6989   -9.7139  -11.6801 C   0  0  0  0  0  0  0  0  0  0  0  0
  -11.6921   -9.6219  -12.7050 O   0  0  0  0  0  0  0  0  0  0  0  0
  -13.1376   -0.9790  -13.4112 N   0  0  0  0  0  0  0  0  0  0  0  0
  -12.2798   -0.4949  -13.6763 H   0  0  0  0  0  0  0  0  0  0  0  0
  -14.2602   -0.1985  -13.8136 C   0  0  0  0  0  0  0  0  0  0  0  0
  -15.2813    0.1527  -12.9202 C   0  0  0  0  0  0  0  0  0  0  0  0
  -16.4313    0.8275  -13.3626 C   0  0  0  0  0  0  0  0  0  0  0  0
  -16.5740    1.1843  -14.7065 C   0  0  0  0  0  0  0  0  0  0  0  0
  -15.4981    0.9489  -15.5695 C   0  0  0  0  0  0  0  0  0  0  0  0
  -14.3512    0.2725  -15.1278 C   0  0  0  0  0  0  0  0  0  0  0  0
  -17.8223    1.6461  -15.2111 N   0  0  0  0  0  0  0  0  0  0  0  0
  -18.0803    2.9420  -15.6689 C   0  0  0  0  0  0  0  0  0  0  0  0
  -16.9471    3.9131  -15.8903 C   0  0  0  0  0  0  0  0  0  0  0  0
  -19.2190    3.3024  -15.9941 O   0  0  0  0  0  0  0  0  0  0  0  0
  -19.0046    0.7569  -15.1793 C   0  0  0  0  0  0  0  0  0  0  0  0
  -20.2487    1.1671  -14.3789 C   0  0  0  0  0  0  0  0  0  0  0  0
  -21.4185    0.1875  -14.5533 C   0  0  0  0  0  0  0  0  0  0  0  0
  -22.6118    0.4713  -13.7337 N   0  0  0  0  0  0  0  0  0  0  0  0
  -22.9788    1.8886  -13.7304 C   0  0  0  0  0  0  0  0  0  0  0  0
  -23.7491   -0.3253  -14.2092 C   0  0  0  0  0  0  0  0  0  0  0  0
 21 22  1  0  0  0
 22 19  1  0  0  0
 19 20  2  0  0  0
 19  1  1  0  0  0
  1  2  1  0  0  0
  1  6  2  0  0  0
  2  3  2  0  0  0
  3  4  1  0  0  0
  4  5  2  0  0  0
  4 10  1  0  0  0
  5  6  1  0  0  0
  5  7  1  0  0  0
  7  8  1  0  0  0
  7 12  1  0  0  0
  8  9  2  0  0  0
  8 10  1  0  0  0
 10 11  2  0  0  0
 11 23  1  0  0  0
 11 13  1  0  0  0
 23 25  1  0  0  0
 23 24  1  0  0  0
 25 26  1  0  0  0
 25 30  2  0  0  0
 26 27  2  0  0  0
 27 28  1  0  0  0
 28 31  1  0  0  0
 28 29  2  0  0  0
 31 35  1  0  0  0
 31 32  1  0  0  0
 35 36  1  0  0  0
 36 37  1  0  0  0
 37 38  1  0  0  0
 38 39  1  0  0  0
 38 40  1  0  0  0
 32 33  1  0  0  0
 32 34  2  0  0  0
 29 30  1  0  0  0
 13 14  1  0  0  0
 13 18  2  0  0  0
 14 15  2  0  0  0
 15 16  1  0  0  0
 16 17  2  0  0  0
 17 18  1  0  0  0
M  END
> <minimizedAffinity>
-7.16269

$$$$
