CHEMBL4065800


 33 36  0  0  0  0  0  0  0  0999 V2000
  -28.7773   -4.5836   -6.1049 C   0  0  0  0  0  0  0  0  0  0  0  0
  -28.1866   -3.3671   -5.7660 C   0  0  0  0  0  0  0  0  0  0  0  0
  -27.8211   -2.4288   -6.7312 C   0  0  0  0  0  0  0  0  0  0  0  0
  -28.1279   -2.6209   -8.0755 C   0  0  0  0  0  0  0  0  0  0  0  0
  -28.8274   -3.7765   -8.4299 C   0  0  0  0  0  0  0  0  0  0  0  0
  -29.1316   -4.7520   -7.4583 C   0  0  0  0  0  0  0  0  0  0  0  0
  -31.6616   -3.3159   -4.4018 C   0  0  0  0  0  0  0  0  0  0  0  0
  -31.2559   -4.6309   -3.8363 C   0  0  0  0  0  0  0  0  0  0  0  0
  -32.0117   -5.1243   -2.8451 N   0  0  0  0  0  0  0  0  0  0  0  0
  -31.4154   -6.2803   -2.5252 N   0  0  0  0  0  0  0  0  0  0  0  0
  -30.3139   -6.5610   -3.2751 C   0  0  0  0  0  0  0  0  0  0  0  0
  -29.5594   -7.6610   -3.1297 N   0  0  0  0  0  0  0  0  0  0  0  0
  -28.5320   -7.7074   -3.9946 C   0  0  0  0  0  0  0  0  0  0  0  0
  -28.2377   -6.7411   -4.9480 C   0  0  0  0  0  0  0  0  0  0  0  0
  -29.0534   -5.5967   -5.0675 C   0  0  0  0  0  0  0  0  0  0  0  0
  -30.1578   -5.5050   -4.1699 C   0  0  0  0  0  0  0  0  0  0  0  0
  -31.8030   -6.8495   -1.7862 H   0  0  0  0  0  0  0  0  0  0  0  0
  -27.8008   -1.6710   -9.0721 N   0  0  0  0  0  0  0  0  0  0  0  0
  -27.0643   -1.9424  -10.2140 C   0  0  0  0  0  0  0  0  0  0  0  0
  -26.7260   -3.0601  -10.5879 O   0  0  0  0  0  0  0  0  0  0  0  0
  -26.6982   -0.7827  -10.8830 N   0  0  0  0  0  0  0  0  0  0  0  0
  -28.2770   -0.7815   -9.0428 H   0  0  0  0  0  0  0  0  0  0  0  0
  -26.5311    0.0096  -10.2783 H   0  0  0  0  0  0  0  0  0  0  0  0
  -25.9107   -0.8529  -12.0594 C   0  0  0  0  0  0  0  0  0  0  0  0
  -26.4407   -1.4796  -13.1850 C   0  0  0  0  0  0  0  0  0  0  0  0
  -25.7268   -1.4729  -14.3855 C   0  0  0  0  0  0  0  0  0  0  0  0
  -24.4621   -0.8839  -14.4503 C   0  0  0  0  0  0  0  0  0  0  0  0
  -23.8966   -0.2884  -13.3143 C   0  0  0  0  0  0  0  0  0  0  0  0
  -24.6352   -0.2783  -12.1212 C   0  0  0  0  0  0  0  0  0  0  0  0
  -22.5266    0.3414  -13.3575 C   0  0  0  0  0  0  0  0  0  0  0  0
  -21.7310   -0.1612  -14.3451 F   0  0  0  0  0  0  0  0  0  0  0  0
  -22.5643    1.6865  -13.5629 F   0  0  0  0  0  0  0  0  0  0  0  0
  -21.8324    0.1577  -12.1993 F   0  0  0  0  0  0  0  0  0  0  0  0
  7  8  1  0  0  0
  8  9  2  0  0  0
  8 16  1  0  0  0
  9 10  1  0  0  0
 10 11  1  0  0  0
 10 17  1  0  0  0
 11 12  1  0  0  0
 11 16  2  0  0  0
 12 13  2  0  0  0
 13 14  1  0  0  0
 14 15  2  0  0  0
 15  1  1  0  0  0
 15 16  1  0  0  0
  1  2  1  0  0  0
  1  6  2  0  0  0
  2  3  2  0  0  0
  3  4  1  0  0  0
  4 18  1  0  0  0
  4  5  2  0  0  0
 18 19  1  0  0  0
 18 22  1  0  0  0
 19 20  2  0  0  0
 19 21  1  0  0  0
 21 24  1  0  0  0
 21 23  1  0  0  0
 24 25  1  0  0  0
 24 29  2  0  0  0
 25 26  2  0  0  0
 26 27  1  0  0  0
 27 28  2  0  0  0
 28 30  1  0  0  0
 28 29  1  0  0  0
 30 31  1  0  0  0
 30 32  1  0  0  0
 30 33  1  0  0  0
  5  6  1  0  0  0
M  END
> <minimizedAffinity>
-9.98312

$$$$
