CHEMBL387093


 36 41  0  0  0  0  0  0  0  0999 V2000
  -14.8345   -5.4243  -13.0636 C   0  0  0  0  0  0  0  0  0  0  0  0
  -15.8061   -6.0900  -12.3845 N   0  0  0  0  0  0  0  0  0  0  0  0
  -16.7016   -5.3516  -11.7515 C   0  0  0  0  0  0  0  0  0  0  0  0
  -16.6788   -4.0261  -11.6552 N   0  0  0  0  0  0  0  0  0  0  0  0
  -15.7105   -3.3850  -12.3159 C   0  0  0  0  0  0  0  0  0  0  0  0
  -15.7320   -2.0121  -12.1426 C   0  0  0  0  0  0  0  0  0  0  0  0
  -14.8469   -1.1833  -12.8069 C   0  0  0  0  0  0  0  0  0  0  0  0
  -13.8877   -1.7658  -13.6302 C   0  0  0  0  0  0  0  0  0  0  0  0
  -13.7958   -3.1558  -13.8641 C   0  0  0  0  0  0  0  0  0  0  0  0
  -14.7334   -4.0017  -13.1323 C   0  0  0  0  0  0  0  0  0  0  0  0
  -12.8533   -3.5711  -14.8107 N   0  0  0  0  0  0  0  0  0  0  0  0
  -13.2003   -3.8392  -16.2265 C   0  0  0  0  0  0  0  0  0  0  0  0
  -12.6045   -5.1817  -16.6865 C   0  0  0  0  0  0  0  0  0  0  0  0
  -11.1846   -5.2213  -16.4970 O   0  0  0  0  0  0  0  0  0  0  0  0
  -10.8852   -5.0997  -15.1013 C   0  0  0  0  0  0  0  0  0  0  0  0
  -11.4229   -3.7921  -14.5188 C   0  0  0  0  0  0  0  0  0  0  0  0
  -13.8622   -6.2433  -13.6726 N   0  0  0  0  0  0  0  0  0  0  0  0
  -13.3970   -5.7303  -14.4160 H   0  0  0  0  0  0  0  0  0  0  0  0
  -13.5914   -9.0599  -15.1787 Cl  0  0  0  0  0  0  0  0  0  0  0  0
  -12.9844   -8.5920  -13.6215 C   0  0  0  0  0  0  0  0  0  0  0  0
  -12.2543   -9.5791  -12.9248 C   0  0  0  0  0  0  0  0  0  0  0  0
  -11.5644   -9.2678  -11.7513 C   0  0  0  0  0  0  0  0  0  0  0  0
  -11.5846   -7.9550  -11.3377 C   0  0  0  0  0  0  0  0  0  0  0  0
  -12.3096   -6.9949  -12.0040 C   0  0  0  0  0  0  0  0  0  0  0  0
  -13.0870   -7.2794  -13.1203 C   0  0  0  0  0  0  0  0  0  0  0  0
  -12.1646   -5.7588  -11.4348 O   0  0  0  0  0  0  0  0  0  0  0  0
  -11.2510   -6.0571  -10.3598 C   0  0  0  0  0  0  0  0  0  0  0  0
  -10.9215   -7.4583  -10.2615 O   0  0  0  0  0  0  0  0  0  0  0  0
  -15.0034    0.1598  -12.6046 O   0  0  0  0  0  0  0  0  0  0  0  0
  -15.5252    0.8728  -13.7323 C   0  0  0  0  0  0  0  0  0  0  0  0
  -17.0454    1.0339  -13.6116 C   0  0  0  0  0  0  0  0  0  0  0  0
  -17.7270    1.0337  -14.9253 N   0  0  0  0  0  0  0  0  0  0  0  0
  -17.1804    2.0137  -15.8774 C   0  0  0  0  0  0  0  0  0  0  0  0
  -17.8557    3.3136  -15.5006 C   0  0  0  0  0  0  0  0  0  0  0  0
  -19.2806    2.8590  -15.2349 C   0  0  0  0  0  0  0  0  0  0  0  0
  -19.1477    1.4089  -14.7740 C   0  0  0  0  0  0  0  0  0  0  0  0
 19 20  1  0  0  0
 20 21  1  0  0  0
 20 25  2  0  0  0
 21 22  2  0  0  0
 22 23  1  0  0  0
 23 24  2  0  0  0
 23 28  1  0  0  0
 24 25  1  0  0  0
 24 26  1  0  0  0
 25 17  1  0  0  0
 17  1  1  0  0  0
 17 18  1  0  0  0
  1  2  1  0  0  0
  1 10  2  0  0  0
  2  3  2  0  0  0
  3  4  1  0  0  0
  4  5  2  0  0  0
  5  6  1  0  0  0
  5 10  1  0  0  0
  6  7  2  0  0  0
  7 29  1  0  0  0
  7  8  1  0  0  0
 29 30  1  0  0  0
 30 31  1  0  0  0
 31 32  1  0  0  0
 32 33  1  0  0  0
 32 36  1  0  0  0
 33 34  1  0  0  0
 34 35  1  0  0  0
 35 36  1  0  0  0
  8  9  2  0  0  0
  9 11  1  0  0  0
  9 10  1  0  0  0
 11 12  1  0  0  0
 11 16  1  0  0  0
 12 13  1  0  0  0
 13 14  1  0  0  0
 14 15  1  0  0  0
 15 16  1  0  0  0
 26 27  1  0  0  0
 27 28  1  0  0  0
M  END
> <minimizedAffinity>
-7.77772

$$$$
