CHEMBL3907642


 35 39  0  0  0  0  0  0  0  0999 V2000
  -27.1718   -9.6111   -4.3668 N   0  0  0  0  0  0  0  0  0  0  0  0
  -27.7749   -8.3002   -4.1770 C   0  0  0  0  0  0  0  0  0  0  0  0
  -29.0834   -8.3509   -3.7080 C   0  0  0  0  0  0  0  0  0  0  0  0
  -29.9602   -7.3323   -3.9929 C   0  0  0  0  0  0  0  0  0  0  0  0
  -29.5394   -6.1691   -4.5844 C   0  0  0  0  0  0  0  0  0  0  0  0
  -30.5409   -5.3696   -4.9715 N   0  0  0  0  0  0  0  0  0  0  0  0
  -30.2103   -4.1427   -5.3767 C   0  0  0  0  0  0  0  0  0  0  0  0
  -28.9109   -3.6711   -5.3136 C   0  0  0  0  0  0  0  0  0  0  0  0
  -27.8579   -4.5321   -5.0499 N   0  0  0  0  0  0  0  0  0  0  0  0
  -28.1743   -5.8745   -4.7554 C   0  0  0  0  0  0  0  0  0  0  0  0
  -27.2903   -7.0222   -4.5942 C   0  0  0  0  0  0  0  0  0  0  0  0
  -28.7732   -2.2223   -5.3870 C   0  0  0  0  0  0  0  0  0  0  0  0
  -27.6602   -1.4003   -5.0554 C   0  0  0  0  0  0  0  0  0  0  0  0
  -27.9710   -0.0983   -4.9891 N   0  0  0  0  0  0  0  0  0  0  0  0
  -29.2851   -0.0793   -5.2660 N   0  0  0  0  0  0  0  0  0  0  0  0
  -29.9490    1.1581   -5.6049 C   0  0  0  0  0  0  0  0  0  0  0  0
  -29.8345   -1.3312   -5.3216 C   0  0  0  0  0  0  0  0  0  0  0  0
  -23.5607  -10.1622   -5.3818 C   0  0  0  0  0  0  0  0  0  0  0  0
  -23.0501  -10.7912   -4.2507 C   0  0  0  0  0  0  0  0  0  0  0  0
  -23.9047  -11.0853   -3.1909 C   0  0  0  0  0  0  0  0  0  0  0  0
  -25.2656  -10.7273   -3.2513 C   0  0  0  0  0  0  0  0  0  0  0  0
  -25.8028  -10.0141   -4.3297 C   0  0  0  0  0  0  0  0  0  0  0  0
  -24.9160   -9.7908   -5.4108 C   0  0  0  0  0  0  0  0  0  0  0  0
  -21.7065  -10.6525   -6.8053 C   0  0  0  0  0  0  0  0  0  0  0  0
  -22.8327   -9.8325   -6.4973 O   0  0  0  0  0  0  0  0  0  0  0  0
  -23.5263  -11.7251   -2.0379 O   0  0  0  0  0  0  0  0  0  0  0  0
  -22.3088  -12.4646   -2.0776 C   0  0  0  0  0  0  0  0  0  0  0  0
  -28.0355  -10.3730   -5.3447 C   0  0  0  0  0  0  0  0  0  0  0  0
  -28.0035  -10.0432   -6.8378 C   0  0  0  0  0  0  0  0  0  0  0  0
  -28.3877   -8.8509   -7.4616 C   0  0  0  0  0  0  0  0  0  0  0  0
  -28.0751   -8.6360   -8.8151 C   0  0  0  0  0  0  0  0  0  0  0  0
  -27.4053   -9.6267   -9.5095 C   0  0  0  0  0  0  0  0  0  0  0  0
  -26.9062   -9.4112  -11.1376 Cl  0  0  0  0  0  0  0  0  0  0  0  0
  -27.0472  -10.8035   -8.9680 N   0  0  0  0  0  0  0  0  0  0  0  0
  -27.3476  -10.9729   -7.6596 C   0  0  0  0  0  0  0  0  0  0  0  0
 24 25  1  0  0  0
 25 18  1  0  0  0
 18 19  1  0  0  0
 18 23  2  0  0  0
 19 20  2  0  0  0
 20 26  1  0  0  0
 20 21  1  0  0  0
 26 27  1  0  0  0
 21 22  2  0  0  0
 22  1  1  0  0  0
 22 23  1  0  0  0
  1 28  1  0  0  0
  1  2  1  0  0  0
 28 29  1  0  0  0
 29 30  1  0  0  0
 29 35  2  0  0  0
 30 31  2  0  0  0
 31 32  1  0  0  0
 32 33  1  0  0  0
 32 34  2  0  0  0
 34 35  1  0  0  0
  2  3  1  0  0  0
  2 11  2  0  0  0
  3  4  2  0  0  0
  4  5  1  0  0  0
  5  6  1  0  0  0
  5 10  2  0  0  0
  6  7  2  0  0  0
  7  8  1  0  0  0
  8 12  1  0  0  0
  8  9  2  0  0  0
 12 13  1  0  0  0
 12 17  2  0  0  0
 13 14  2  0  0  0
 14 15  1  0  0  0
 15 16  1  0  0  0
 15 17  1  0  0  0
  9 10  1  0  0  0
 10 11  1  0  0  0
M  END
> <minimizedAffinity>
-7.91210

$$$$
