CHEMBL3957025


 44 48  0  0  0  0  0  0  0  0999 V2000
  -17.4899    0.8242  -14.9549 C   0  0  0  0  0  0  0  0  0  0  0  0
  -18.8530    0.5546  -14.8393 C   0  0  0  0  0  0  0  0  0  0  0  0
  -19.8055    1.5897  -14.7946 C   0  0  0  0  0  0  0  0  0  0  0  0
  -21.1678    1.3758  -14.5356 C   0  0  0  0  0  0  0  0  0  0  0  0
  -22.0647    2.3725  -14.5473 N   0  0  0  0  0  0  0  0  0  0  0  0
  -21.5749    3.5967  -14.7722 C   0  0  0  0  0  0  0  0  0  0  0  0
  -20.2898    3.9172  -14.9948 N   0  0  0  0  0  0  0  0  0  0  0  0
  -19.4100    2.9074  -15.0087 C   0  0  0  0  0  0  0  0  0  0  0  0
  -18.0566    3.1528  -15.2382 C   0  0  0  0  0  0  0  0  0  0  0  0
  -17.0897    2.1322  -15.2279 C   0  0  0  0  0  0  0  0  0  0  0  0
  -15.9588   -0.1605  -13.4645 C   0  0  0  0  0  0  0  0  0  0  0  0
  -16.5501   -0.1556  -14.7682 O   0  0  0  0  0  0  0  0  0  0  0  0
  -21.5809    0.0775  -14.1666 N   0  0  0  0  0  0  0  0  0  0  0  0
  -20.7862   -0.5489  -14.0963 H   0  0  0  0  0  0  0  0  0  0  0  0
  -22.7105   -0.3363  -13.4477 C   0  0  0  0  0  0  0  0  0  0  0  0
  -22.5564   -0.6386  -12.0938 C   0  0  0  0  0  0  0  0  0  0  0  0
  -23.5765   -1.2670  -11.3813 C   0  0  0  0  0  0  0  0  0  0  0  0
  -24.7634   -1.6561  -12.0091 C   0  0  0  0  0  0  0  0  0  0  0  0
  -24.9476   -1.2914  -13.3496 C   0  0  0  0  0  0  0  0  0  0  0  0
  -26.3933   -1.7152  -14.2010 Cl  0  0  0  0  0  0  0  0  0  0  0  0
  -23.9273   -0.6478  -14.0610 C   0  0  0  0  0  0  0  0  0  0  0  0
  -25.7451   -2.4513  -11.3453 N   0  0  0  0  0  0  0  0  0  0  0  0
  -26.4780   -2.0421  -10.2571 C   0  0  0  0  0  0  0  0  0  0  0  0
  -26.4288   -0.9080   -9.7863 O   0  0  0  0  0  0  0  0  0  0  0  0
  -27.2322   -3.0501   -9.6830 N   0  0  0  0  0  0  0  0  0  0  0  0
  -25.7589   -3.4359  -11.5975 H   0  0  0  0  0  0  0  0  0  0  0  0
  -26.7996   -3.9614   -9.7093 H   0  0  0  0  0  0  0  0  0  0  0  0
  -27.9604   -2.7350   -8.5075 C   0  0  0  0  0  0  0  0  0  0  0  0
  -27.6533   -1.5862   -7.7631 C   0  0  0  0  0  0  0  0  0  0  0  0
  -28.2068   -1.3926   -6.4983 C   0  0  0  0  0  0  0  0  0  0  0  0
  -29.0781   -2.3459   -5.9825 C   0  0  0  0  0  0  0  0  0  0  0  0
  -29.6877   -2.1647   -4.3840 Cl  0  0  0  0  0  0  0  0  0  0  0  0
  -29.4390   -3.4602   -6.7430 C   0  0  0  0  0  0  0  0  0  0  0  0
  -28.8999   -3.6445   -8.0215 C   0  0  0  0  0  0  0  0  0  0  0  0
  -15.8084    2.5680  -15.4401 O   0  0  0  0  0  0  0  0  0  0  0  0
  -15.5054    3.0207  -16.7648 C   0  0  0  0  0  0  0  0  0  0  0  0
  -14.7949    4.3769  -16.6814 C   0  0  0  0  0  0  0  0  0  0  0  0
  -13.8353    4.4569  -15.4869 C   0  0  0  0  0  0  0  0  0  0  0  0
  -12.5459    3.7685  -15.6929 N   0  0  0  0  0  0  0  0  0  0  0  0
  -12.4229    2.6118  -14.7695 C   0  0  0  0  0  0  0  0  0  0  0  0
  -12.1496    3.0155  -13.3087 C   0  0  0  0  0  0  0  0  0  0  0  0
  -10.9557    3.8006  -13.2081 O   0  0  0  0  0  0  0  0  0  0  0  0
  -11.0490    4.9730  -14.0279 C   0  0  0  0  0  0  0  0  0  0  0  0
  -11.3518    4.6205  -15.4950 C   0  0  0  0  0  0  0  0  0  0  0  0
 11 12  1  0  0  0
 12  1  1  0  0  0
  1  2  1  0  0  0
  1 10  2  0  0  0
  2  3  2  0  0  0
  3  4  1  0  0  0
  3  8  1  0  0  0
  4 13  1  0  0  0
  4  5  2  0  0  0
 13 15  1  0  0  0
 13 14  1  0  0  0
 15 16  1  0  0  0
 15 21  2  0  0  0
 16 17  2  0  0  0
 17 18  1  0  0  0
 18 22  1  0  0  0
 18 19  2  0  0  0
 22 23  1  0  0  0
 22 26  1  0  0  0
 23 24  2  0  0  0
 23 25  1  0  0  0
 25 28  1  0  0  0
 25 27  1  0  0  0
 28 29  1  0  0  0
 28 34  2  0  0  0
 29 30  2  0  0  0
 30 31  1  0  0  0
 31 32  1  0  0  0
 31 33  2  0  0  0
 33 34  1  0  0  0
 19 20  1  0  0  0
 19 21  1  0  0  0
  5  6  1  0  0  0
  6  7  2  0  0  0
  7  8  1  0  0  0
  8  9  2  0  0  0
  9 10  1  0  0  0
 10 35  1  0  0  0
 35 36  1  0  0  0
 36 37  1  0  0  0
 37 38  1  0  0  0
 38 39  1  0  0  0
 39 40  1  0  0  0
 39 44  1  0  0  0
 40 41  1  0  0  0
 41 42  1  0  0  0
 42 43  1  0  0  0
 43 44  1  0  0  0
M  END
> <minimizedAffinity>
-10.47912

$$$$
