CHEMBL3288515


 35 39  0  0  0  0  0  0  0  0999 V2000
  -22.8389   -0.2726  -13.5981 C   0  0  0  0  0  0  0  0  0  0  0  0
  -22.9474   -0.3178  -12.2012 C   0  0  0  0  0  0  0  0  0  0  0  0
  -24.0858   -0.8321  -11.5630 C   0  0  0  0  0  0  0  0  0  0  0  0
  -25.2392   -1.2116  -12.2868 C   0  0  0  0  0  0  0  0  0  0  0  0
  -26.4859   -1.6313  -11.7324 C   0  0  0  0  0  0  0  0  0  0  0  0
  -27.5552   -1.9921  -12.5752 C   0  0  0  0  0  0  0  0  0  0  0  0
  -27.4208   -1.9440  -13.9560 C   0  0  0  0  0  0  0  0  0  0  0  0
  -26.2085   -1.5535  -14.5098 C   0  0  0  0  0  0  0  0  0  0  0  0
  -25.1236   -1.1907  -13.6978 C   0  0  0  0  0  0  0  0  0  0  0  0
  -23.9191   -0.8036  -14.3108 C   0  0  0  0  0  0  0  0  0  0  0  0
  -23.0155    3.1429  -13.3357 N   0  0  0  0  0  0  0  0  0  0  0  0
  -21.9132    2.9191  -14.0689 C   0  0  0  0  0  0  0  0  0  0  0  0
  -21.2196    3.9508  -14.5392 N   0  0  0  0  0  0  0  0  0  0  0  0
  -20.1872    3.3822  -15.1624 N   0  0  0  0  0  0  0  0  0  0  0  0
  -20.1809    2.0154  -15.1151 C   0  0  0  0  0  0  0  0  0  0  0  0
  -19.2485    1.1122  -15.6311 C   0  0  0  0  0  0  0  0  0  0  0  0
  -19.5079   -0.2387  -15.4530 C   0  0  0  0  0  0  0  0  0  0  0  0
  -20.6656   -0.6556  -14.8012 C   0  0  0  0  0  0  0  0  0  0  0  0
  -21.6226    0.2495  -14.2666 C   0  0  0  0  0  0  0  0  0  0  0  0
  -21.3418    1.6462  -14.4244 C   0  0  0  0  0  0  0  0  0  0  0  0
  -23.1712    4.1130  -13.0830 H   0  0  0  0  0  0  0  0  0  0  0  0
  -23.2567    2.4987  -12.5923 H   0  0  0  0  0  0  0  0  0  0  0  0
  -19.5042    3.9853  -15.6049 H   0  0  0  0  0  0  0  0  0  0  0  0
  -26.7770   -1.7680  -10.2721 C   0  0  0  0  0  0  0  0  0  0  0  0
  -25.9446   -1.3224   -9.4886 O   0  0  0  0  0  0  0  0  0  0  0  0
  -27.9416   -2.4279   -9.9227 N   0  0  0  0  0  0  0  0  0  0  0  0
  -28.5106   -2.7938  -10.6753 H   0  0  0  0  0  0  0  0  0  0  0  0
  -28.4091   -2.6811   -8.6114 C   0  0  0  0  0  0  0  0  0  0  0  0
  -29.1291   -3.8249   -8.2495 C   0  0  0  0  0  0  0  0  0  0  0  0
  -29.6019   -3.9679   -6.9477 C   0  0  0  0  0  0  0  0  0  0  0  0
  -30.3247   -5.0525   -6.6283 F   0  0  0  0  0  0  0  0  0  0  0  0
  -29.3579   -3.0108   -5.9798 C   0  0  0  0  0  0  0  0  0  0  0  0
  -28.6150   -1.8949   -6.3308 C   0  0  0  0  0  0  0  0  0  0  0  0
  -28.3509   -0.9612   -5.4075 F   0  0  0  0  0  0  0  0  0  0  0  0
  -28.1426   -1.7198   -7.6322 C   0  0  0  0  0  0  0  0  0  0  0  0
 11 12  1  0  0  0
 11 21  1  0  0  0
 11 22  1  0  0  0
 12 13  2  0  0  0
 12 20  1  0  0  0
 13 14  1  0  0  0
 14 15  1  0  0  0
 14 23  1  0  0  0
 15 16  1  0  0  0
 15 20  2  0  0  0
 16 17  2  0  0  0
 17 18  1  0  0  0
 18 19  2  0  0  0
 19  1  1  0  0  0
 19 20  1  0  0  0
  1  2  1  0  0  0
  1 10  2  0  0  0
  2  3  2  0  0  0
  3  4  1  0  0  0
  4  5  1  0  0  0
  4  9  2  0  0  0
  5 24  1  0  0  0
  5  6  2  0  0  0
 24 25  2  0  0  0
 24 26  1  0  0  0
 26 28  1  0  0  0
 26 27  1  0  0  0
 28 29  1  0  0  0
 28 35  2  0  0  0
 29 30  2  0  0  0
 30 31  1  0  0  0
 30 32  1  0  0  0
 32 33  2  0  0  0
 33 34  1  0  0  0
 33 35  1  0  0  0
  6  7  1  0  0  0
  7  8  2  0  0  0
  8  9  1  0  0  0
  9 10  1  0  0  0
M  END
> <minimizedAffinity>
-11.39934

$$$$
