CHEMBL295973


 26 29  0  0  0  0  0  0  0  0999 V2000
  -29.1602   -5.3915   -6.9371 C   0  0  0  0  0  0  0  0  0  0  0  0
  -28.3602   -5.6767   -5.8956 N   0  0  0  0  0  0  0  0  0  0  0  0
  -28.4194   -6.9055   -5.3834 C   0  0  0  0  0  0  0  0  0  0  0  0
  -29.2675   -7.8732   -5.8398 C   0  0  0  0  0  0  0  0  0  0  0  0
  -30.0722   -7.5082   -6.9017 C   0  0  0  0  0  0  0  0  0  0  0  0
  -29.9775   -6.2954   -7.4903 N   0  0  0  0  0  0  0  0  0  0  0  0
  -31.0797   -8.4279   -7.3359 N   0  0  0  0  0  0  0  0  0  0  0  0
  -32.4298   -8.3225   -7.0450 C   0  0  0  0  0  0  0  0  0  0  0  0
  -33.0292   -9.4289   -7.5842 C   0  0  0  0  0  0  0  0  0  0  0  0
  -32.1151  -10.1961   -8.2374 N   0  0  0  0  0  0  0  0  0  0  0  0
  -30.9423   -9.5827   -8.1187 C   0  0  0  0  0  0  0  0  0  0  0  0
  -29.7133  -10.0967   -8.7479 C   0  0  0  0  0  0  0  0  0  0  0  0
  -28.7342  -10.8157   -8.0487 C   0  0  0  0  0  0  0  0  0  0  0  0
  -27.6516  -11.3904   -8.7194 C   0  0  0  0  0  0  0  0  0  0  0  0
  -27.4919  -11.1850  -10.0868 C   0  0  0  0  0  0  0  0  0  0  0  0
  -28.3992  -10.3853  -10.7772 C   0  0  0  0  0  0  0  0  0  0  0  0
  -29.5004   -9.8436  -10.1108 C   0  0  0  0  0  0  0  0  0  0  0  0
  -29.1935   -4.0840   -7.4155 N   0  0  0  0  0  0  0  0  0  0  0  0
  -29.6362   -3.9992   -8.3195 H   0  0  0  0  0  0  0  0  0  0  0  0
  -28.4588    0.9974   -4.8963 C   0  0  0  0  0  0  0  0  0  0  0  0
  -28.5846   -0.3829   -5.4675 C   0  0  0  0  0  0  0  0  0  0  0  0
  -29.5482   -1.2865   -5.0056 C   0  0  0  0  0  0  0  0  0  0  0  0
  -29.7045   -2.5414   -5.6136 C   0  0  0  0  0  0  0  0  0  0  0  0
  -28.9068   -2.9136   -6.6976 C   0  0  0  0  0  0  0  0  0  0  0  0
  -27.9112   -2.0157   -7.1156 C   0  0  0  0  0  0  0  0  0  0  0  0
  -27.7477   -0.7693   -6.5132 C   0  0  0  0  0  0  0  0  0  0  0  0
 20 21  1  0  0  0
 21 22  1  0  0  0
 21 26  2  0  0  0
 22 23  2  0  0  0
 23 24  1  0  0  0
 24 18  1  0  0  0
 24 25  2  0  0  0
 18  1  1  0  0  0
 18 19  1  0  0  0
  1  2  1  0  0  0
  1  6  2  0  0  0
  2  3  2  0  0  0
  3  4  1  0  0  0
  4  5  2  0  0  0
  5  7  1  0  0  0
  5  6  1  0  0  0
  7  8  1  0  0  0
  7 11  1  0  0  0
  8  9  2  0  0  0
  9 10  1  0  0  0
 10 11  2  0  0  0
 11 12  1  0  0  0
 12 13  1  0  0  0
 12 17  2  0  0  0
 13 14  2  0  0  0
 14 15  1  0  0  0
 15 16  2  0  0  0
 16 17  1  0  0  0
 25 26  1  0  0  0
M  END
> <minimizedAffinity>
-8.48998

$$$$
