CHEMBL3671541


 38 40  0  0  0  0  0  0  0  0999 V2000
  -17.8941    1.0076  -15.0015 C   0  0  0  0  0  0  0  0  0  0  0  0
  -19.2014    0.5432  -14.8272 C   0  0  0  0  0  0  0  0  0  0  0  0
  -20.2690    1.4428  -14.5826 C   0  0  0  0  0  0  0  0  0  0  0  0
  -21.5888    1.0728  -14.2899 C   0  0  0  0  0  0  0  0  0  0  0  0
  -22.5795    1.9661  -14.1339 N   0  0  0  0  0  0  0  0  0  0  0  0
  -22.2372    3.2514  -14.2384 C   0  0  0  0  0  0  0  0  0  0  0  0
  -21.0031    3.7247  -14.4723 N   0  0  0  0  0  0  0  0  0  0  0  0
  -20.0298    2.8237  -14.6400 C   0  0  0  0  0  0  0  0  0  0  0  0
  -18.7303    3.2648  -14.9072 C   0  0  0  0  0  0  0  0  0  0  0  0
  -17.6551    2.3869  -15.1152 C   0  0  0  0  0  0  0  0  0  0  0  0
  -16.0911   -0.0790  -13.8336 C   0  0  0  0  0  0  0  0  0  0  0  0
  -16.2523    0.5449  -12.7928 O   0  0  0  0  0  0  0  0  0  0  0  0
  -16.8462    0.0565  -14.9929 N   0  0  0  0  0  0  0  0  0  0  0  0
  -17.0782   -0.8456  -15.3908 H   0  0  0  0  0  0  0  0  0  0  0  0
  -15.0722   -2.2477  -13.2418 C   0  0  0  0  0  0  0  0  0  0  0  0
  -15.0406   -1.1256  -13.9735 C   0  0  0  0  0  0  0  0  0  0  0  0
  -21.9067   -0.3084  -14.1321 N   0  0  0  0  0  0  0  0  0  0  0  0
  -21.0942   -0.9140  -14.2086 H   0  0  0  0  0  0  0  0  0  0  0  0
  -22.9835   -0.8862  -13.4266 C   0  0  0  0  0  0  0  0  0  0  0  0
  -22.8528   -1.2540  -12.0828 C   0  0  0  0  0  0  0  0  0  0  0  0
  -23.9782   -1.5468  -11.3087 C   0  0  0  0  0  0  0  0  0  0  0  0
  -25.2446   -1.5179  -11.8884 C   0  0  0  0  0  0  0  0  0  0  0  0
  -26.7730   -1.7184  -10.7949 Br  0  0  0  0  0  0  0  0  0  0  0  0
  -25.3902   -1.2816  -13.2512 C   0  0  0  0  0  0  0  0  0  0  0  0
  -24.2602   -0.9703  -14.0060 C   0  0  0  0  0  0  0  0  0  0  0  0
  -24.4137   -0.7025  -15.3129 F   0  0  0  0  0  0  0  0  0  0  0  0
  -16.4680    3.0025  -15.4571 O   0  0  0  0  0  0  0  0  0  0  0  0
  -16.5869    4.3084  -16.0371 C   0  0  0  0  0  0  0  0  0  0  0  0
  -15.3312    4.7311  -16.8169 C   0  0  0  0  0  0  0  0  0  0  0  0
  -14.2120    5.0339  -15.9203 N   0  0  0  0  0  0  0  0  0  0  0  0
  -13.1029    4.2113  -15.8592 C   0  0  0  0  0  0  0  0  0  0  0  0
  -12.9406    3.2289  -16.5669 O   0  0  0  0  0  0  0  0  0  0  0  0
  -14.2809    5.7901  -15.2492 H   0  0  0  0  0  0  0  0  0  0  0  0
  -12.0652    4.5972  -14.7721 C   0  0  0  0  0  0  0  0  0  0  0  0
  -11.8014    5.7621  -14.5216 O   0  0  0  0  0  0  0  0  0  0  0  0
  -11.5558    3.4899  -14.1943 O   0  0  0  0  0  0  0  0  0  0  0  0
  -12.1092    3.1057  -12.9273 C   0  0  0  0  0  0  0  0  0  0  0  0
  -12.5298    1.6481  -12.9563 C   0  0  0  0  0  0  0  0  0  0  0  0
 15 16  2  0  0  0
 16 11  1  0  0  0
 11 12  2  0  0  0
 11 13  1  0  0  0
 13  1  1  0  0  0
 13 14  1  0  0  0
  1  2  1  0  0  0
  1 10  2  0  0  0
  2  3  2  0  0  0
  3  4  1  0  0  0
  3  8  1  0  0  0
  4 17  1  0  0  0
  4  5  2  0  0  0
 17 19  1  0  0  0
 17 18  1  0  0  0
 19 20  1  0  0  0
 19 25  2  0  0  0
 20 21  2  0  0  0
 21 22  1  0  0  0
 22 23  1  0  0  0
 22 24  2  0  0  0
 24 25  1  0  0  0
 25 26  1  0  0  0
  5  6  1  0  0  0
  6  7  2  0  0  0
  7  8  1  0  0  0
  8  9  2  0  0  0
  9 10  1  0  0  0
 10 27  1  0  0  0
 27 28  1  0  0  0
 28 29  1  0  0  0
 29 30  1  0  0  0
 30 31  1  0  0  0
 30 33  1  0  0  0
 31 32  2  0  0  0
 31 34  1  0  0  0
 34 35  2  0  0  0
 34 36  1  0  0  0
 36 37  1  0  0  0
 37 38  1  0  0  0
M  END
> <minimizedAffinity>
-9.09171

$$$$
