CHEMBL415047


 40 45  0  0  0  0  0  0  0  0999 V2000
  -14.9711    1.5795  -16.5074 C   0  0  0  0  0  0  0  0  0  0  0  0
  -14.9140    0.6277  -17.4542 N   0  0  0  0  0  0  0  0  0  0  0  0
  -13.7656   -0.0636  -17.1853 N   0  0  0  0  0  0  0  0  0  0  0  0
  -13.0040    0.4924  -16.1773 C   0  0  0  0  0  0  0  0  0  0  0  0
  -13.7074    1.6594  -15.8639 C   0  0  0  0  0  0  0  0  0  0  0  0
  -13.3406    2.1133  -14.5075 C   0  0  0  0  0  0  0  0  0  0  0  0
  -13.3760    0.6707  -13.9839 C   0  0  0  0  0  0  0  0  0  0  0  0
  -14.5004   -0.0718  -13.5503 C   0  0  0  0  0  0  0  0  0  0  0  0
  -14.4107   -1.4802  -13.5055 C   0  0  0  0  0  0  0  0  0  0  0  0
  -13.1450   -2.0346  -13.6783 C   0  0  0  0  0  0  0  0  0  0  0  0
  -12.2268   -1.3480  -14.4669 C   0  0  0  0  0  0  0  0  0  0  0  0
  -12.5263   -0.0584  -14.8396 C   0  0  0  0  0  0  0  0  0  0  0  0
  -13.6046   -0.9308  -17.6736 H   0  0  0  0  0  0  0  0  0  0  0  0
  -18.4435    2.9667  -15.0607 C   0  0  0  0  0  0  0  0  0  0  0  0
  -17.7890    4.0104  -15.6597 C   0  0  0  0  0  0  0  0  0  0  0  0
  -16.4970    3.6202  -16.0486 C   0  0  0  0  0  0  0  0  0  0  0  0
  -16.2325    2.2598  -15.9416 C   0  0  0  0  0  0  0  0  0  0  0  0
  -17.4846    1.5365  -15.0172 S   0  0  0  0  0  0  0  0  0  0  0  0
  -19.8102    3.0436  -14.5126 C   0  0  0  0  0  0  0  0  0  0  0  0
  -21.9642    0.2470  -13.8483 N   0  0  0  0  0  0  0  0  0  0  0  0
  -21.6588    1.5513  -14.1435 C   0  0  0  0  0  0  0  0  0  0  0  0
  -22.4191    2.5110  -14.1609 O   0  0  0  0  0  0  0  0  0  0  0  0
  -20.3219    1.6962  -14.4062 N   0  0  0  0  0  0  0  0  0  0  0  0
  -21.2711   -0.4399  -14.0289 H   0  0  0  0  0  0  0  0  0  0  0  0
  -19.6853    1.0035  -14.0460 H   0  0  0  0  0  0  0  0  0  0  0  0
  -27.0826   -1.7161  -12.1468 C   0  0  0  0  0  0  0  0  0  0  0  0
  -25.7500   -1.1890  -12.5824 C   0  0  0  0  0  0  0  0  0  0  0  0
  -24.9434   -0.4887  -11.6898 C   0  0  0  0  0  0  0  0  0  0  0  0
  -23.6944   -0.0093  -12.0833 C   0  0  0  0  0  0  0  0  0  0  0  0
  -23.2298   -0.2150  -13.3832 C   0  0  0  0  0  0  0  0  0  0  0  0
  -24.0448   -0.8974  -14.2900 C   0  0  0  0  0  0  0  0  0  0  0  0
  -25.2943   -1.3926  -13.8890 C   0  0  0  0  0  0  0  0  0  0  0  0
  -15.6153   -2.4005  -13.6334 C   0  0  0  0  0  0  0  0  0  0  0  0
  -15.8637   -3.2350  -12.4540 N   0  0  0  0  0  0  0  0  0  0  0  0
  -15.0808   -4.4783  -12.5302 C   0  0  0  0  0  0  0  0  0  0  0  0
  -15.3032   -5.3636  -11.2871 C   0  0  0  0  0  0  0  0  0  0  0  0
  -15.0043   -4.7094   -9.9977 N   0  0  0  0  0  0  0  0  0  0  0  0
  -13.5665   -4.5553   -9.7909 C   0  0  0  0  0  0  0  0  0  0  0  0
  -15.7055   -3.4103   -9.9431 C   0  0  0  0  0  0  0  0  0  0  0  0
  -15.5371   -2.5175  -11.2011 C   0  0  0  0  0  0  0  0  0  0  0  0
 26 27  1  0  0  0
 27 28  1  0  0  0
 27 32  2  0  0  0
 28 29  2  0  0  0
 29 30  1  0  0  0
 30 20  1  0  0  0
 30 31  2  0  0  0
 20 21  1  0  0  0
 20 24  1  0  0  0
 21 22  2  0  0  0
 21 23  1  0  0  0
 23 19  1  0  0  0
 23 25  1  0  0  0
 19 14  1  0  0  0
 14 15  2  0  0  0
 14 18  1  0  0  0
 15 16  1  0  0  0
 16 17  2  0  0  0
 17  1  1  0  0  0
 17 18  1  0  0  0
  1  2  2  0  0  0
  1  5  1  0  0  0
  2  3  1  0  0  0
  3  4  1  0  0  0
  3 13  1  0  0  0
  4  5  2  0  0  0
  4 12  1  0  0  0
  5  6  1  0  0  0
  6  7  1  0  0  0
  7  8  1  0  0  0
  7 12  2  0  0  0
  8  9  2  0  0  0
  9 33  1  0  0  0
  9 10  1  0  0  0
 33 34  1  0  0  0
 34 35  1  0  0  0
 34 40  1  0  0  0
 35 36  1  0  0  0
 36 37  1  0  0  0
 37 38  1  0  0  0
 37 39  1  0  0  0
 39 40  1  0  0  0
 10 11  2  0  0  0
 11 12  1  0  0  0
 31 32  1  0  0  0
M  END
> <minimizedAffinity>
-10.32287

$$$$
