CHEMBL3288512


 34 38  0  0  0  0  0  0  0  0999 V2000
  -30.0904   -6.6075   -6.8113 C   0  0  0  0  0  0  0  0  0  0  0  0
  -29.3316   -6.1390   -7.8939 C   0  0  0  0  0  0  0  0  0  0  0  0
  -28.8039   -4.8389   -7.9234 C   0  0  0  0  0  0  0  0  0  0  0  0
  -29.1077   -3.8957   -6.9155 C   0  0  0  0  0  0  0  0  0  0  0  0
  -28.7140   -2.5272   -6.9038 C   0  0  0  0  0  0  0  0  0  0  0  0
  -29.0909   -1.6826   -5.8390 C   0  0  0  0  0  0  0  0  0  0  0  0
  -29.8476   -2.1675   -4.7815 C   0  0  0  0  0  0  0  0  0  0  0  0
  -30.2167   -3.5058   -4.7665 C   0  0  0  0  0  0  0  0  0  0  0  0
  -29.8560   -4.3706   -5.8131 C   0  0  0  0  0  0  0  0  0  0  0  0
  -30.2561   -5.7136   -5.7486 C   0  0  0  0  0  0  0  0  0  0  0  0
  -27.5547   -8.5752   -5.6112 N   0  0  0  0  0  0  0  0  0  0  0  0
  -28.5433   -9.4382   -5.8957 C   0  0  0  0  0  0  0  0  0  0  0  0
  -28.3433  -10.7403   -5.7245 N   0  0  0  0  0  0  0  0  0  0  0  0
  -29.5151  -11.2872   -6.0512 N   0  0  0  0  0  0  0  0  0  0  0  0
  -30.4734  -10.3878   -6.4280 C   0  0  0  0  0  0  0  0  0  0  0  0
  -31.8001  -10.6100   -6.8087 C   0  0  0  0  0  0  0  0  0  0  0  0
  -32.5497   -9.4985   -7.1666 C   0  0  0  0  0  0  0  0  0  0  0  0
  -31.9803   -8.2271   -7.1598 C   0  0  0  0  0  0  0  0  0  0  0  0
  -30.6334   -7.9871   -6.7765 C   0  0  0  0  0  0  0  0  0  0  0  0
  -29.8650   -9.1298   -6.3794 C   0  0  0  0  0  0  0  0  0  0  0  0
  -26.7461   -8.9848   -5.1553 H   0  0  0  0  0  0  0  0  0  0  0  0
  -27.7838   -7.6548   -5.2551 H   0  0  0  0  0  0  0  0  0  0  0  0
  -29.6030  -12.2939   -5.9943 H   0  0  0  0  0  0  0  0  0  0  0  0
  -27.8589   -1.8754   -7.9366 C   0  0  0  0  0  0  0  0  0  0  0  0
  -27.2583   -0.8577   -7.6044 O   0  0  0  0  0  0  0  0  0  0  0  0
  -27.8821   -2.4246   -9.2080 N   0  0  0  0  0  0  0  0  0  0  0  0
  -28.5539   -3.1624   -9.3786 H   0  0  0  0  0  0  0  0  0  0  0  0
  -27.1850   -1.9370  -10.3378 C   0  0  0  0  0  0  0  0  0  0  0  0
  -27.8005   -1.6444  -11.5612 C   0  0  0  0  0  0  0  0  0  0  0  0
  -27.0442   -1.2662  -12.6751 C   0  0  0  0  0  0  0  0  0  0  0  0
  -25.6623   -1.1569  -12.5694 C   0  0  0  0  0  0  0  0  0  0  0  0
  -25.0567   -1.3926  -11.3419 C   0  0  0  0  0  0  0  0  0  0  0  0
  -23.7266   -1.2752  -11.2334 F   0  0  0  0  0  0  0  0  0  0  0  0
  -25.8022   -1.7682  -10.2259 C   0  0  0  0  0  0  0  0  0  0  0  0
 11 12  1  0  0  0
 11 21  1  0  0  0
 11 22  1  0  0  0
 12 13  2  0  0  0
 12 20  1  0  0  0
 13 14  1  0  0  0
 14 15  1  0  0  0
 14 23  1  0  0  0
 15 16  1  0  0  0
 15 20  2  0  0  0
 16 17  2  0  0  0
 17 18  1  0  0  0
 18 19  2  0  0  0
 19  1  1  0  0  0
 19 20  1  0  0  0
  1  2  1  0  0  0
  1 10  2  0  0  0
  2  3  2  0  0  0
  3  4  1  0  0  0
  4  5  1  0  0  0
  4  9  2  0  0  0
  5 24  1  0  0  0
  5  6  2  0  0  0
 24 25  2  0  0  0
 24 26  1  0  0  0
 26 28  1  0  0  0
 26 27  1  0  0  0
 28 29  1  0  0  0
 28 34  2  0  0  0
 29 30  2  0  0  0
 30 31  1  0  0  0
 31 32  2  0  0  0
 32 33  1  0  0  0
 32 34  1  0  0  0
  6  7  1  0  0  0
  7  8  2  0  0  0
  8  9  1  0  0  0
  9 10  1  0  0  0
M  END
> <minimizedAffinity>
-10.22898

$$$$
