CHEMBL1241270


 22 24  0  0  0  0  0  0  0  0999 V2000
  -17.5203    2.7069  -15.5551 C   0  0  0  0  0  0  0  0  0  0  0  0
  -17.3446    3.8926  -16.1743 N   0  0  0  0  0  0  0  0  0  0  0  0
  -16.0198    3.9498  -16.4011 N   0  0  0  0  0  0  0  0  0  0  0  0
  -15.3405    2.8432  -15.9931 C   0  0  0  0  0  0  0  0  0  0  0  0
  -14.0201    2.6394  -16.1127 N   0  0  0  0  0  0  0  0  0  0  0  0
  -13.6713    1.4409  -15.6203 C   0  0  0  0  0  0  0  0  0  0  0  0
  -14.4745    0.5024  -15.0849 N   0  0  0  0  0  0  0  0  0  0  0  0
  -15.7990    0.7529  -14.9946 C   0  0  0  0  0  0  0  0  0  0  0  0
  -16.5739   -0.2705  -14.4659 N   0  0  0  0  0  0  0  0  0  0  0  0
  -16.2830    1.9887  -15.4513 C   0  0  0  0  0  0  0  0  0  0  0  0
  -15.6301    4.7691  -16.8501 H   0  0  0  0  0  0  0  0  0  0  0  0
  -16.0424   -1.1336  -14.4307 H   0  0  0  0  0  0  0  0  0  0  0  0
  -17.5021   -0.3494  -14.8623 H   0  0  0  0  0  0  0  0  0  0  0  0
  -22.8820    1.1143  -14.0623 C   0  0  0  0  0  0  0  0  0  0  0  0
  -21.4824    1.5287  -14.4096 C   0  0  0  0  0  0  0  0  0  0  0  0
  -20.5430    0.5710  -14.8024 C   0  0  0  0  0  0  0  0  0  0  0  0
  -19.2375    0.9495  -15.1233 C   0  0  0  0  0  0  0  0  0  0  0  0
  -18.8571    2.2965  -15.1150 C   0  0  0  0  0  0  0  0  0  0  0  0
  -19.7861    3.2536  -14.6819 C   0  0  0  0  0  0  0  0  0  0  0  0
  -21.0803    2.8649  -14.3287 C   0  0  0  0  0  0  0  0  0  0  0  0
  -21.9865    3.7948  -13.9011 O   0  0  0  0  0  0  0  0  0  0  0  0
  -21.5343    4.6501  -13.8127 H   0  0  0  0  0  0  0  0  0  0  0  0
 14 15  1  0  0  0
 15 16  1  0  0  0
 15 20  2  0  0  0
 16 17  2  0  0  0
 17 18  1  0  0  0
 18  1  1  0  0  0
 18 19  2  0  0  0
  1  2  2  0  0  0
  1 10  1  0  0  0
  2  3  1  0  0  0
  3  4  1  0  0  0
  3 11  1  0  0  0
  4  5  1  0  0  0
  4 10  2  0  0  0
  5  6  2  0  0  0
  6  7  1  0  0  0
  7  8  2  0  0  0
  8  9  1  0  0  0
  8 10  1  0  0  0
  9 12  1  0  0  0
  9 13  1  0  0  0
 19 20  1  0  0  0
 20 21  1  0  0  0
 21 22  1  0  0  0
M  END
> <minimizedAffinity>
-8.13890

$$$$
