CHEMBL3934095


 31 34  0  0  0  0  0  0  0  0999 V2000
  -28.8219   -5.8137   -7.2591 C   0  0  0  0  0  0  0  0  0  0  0  0
  -28.6115   -4.6601   -8.0240 C   0  0  0  0  0  0  0  0  0  0  0  0
  -28.3421   -3.4072   -7.4249 C   0  0  0  0  0  0  0  0  0  0  0  0
  -28.1088   -2.2127   -8.1308 C   0  0  0  0  0  0  0  0  0  0  0  0
  -27.7737   -1.0668   -7.5187 N   0  0  0  0  0  0  0  0  0  0  0  0
  -27.7040   -1.1014   -6.1851 C   0  0  0  0  0  0  0  0  0  0  0  0
  -27.9341   -2.1667   -5.4149 N   0  0  0  0  0  0  0  0  0  0  0  0
  -28.2456   -3.3039   -6.0412 C   0  0  0  0  0  0  0  0  0  0  0  0
  -28.4989   -4.4340   -5.2890 C   0  0  0  0  0  0  0  0  0  0  0  0
  -28.8442   -5.6734   -5.8538 C   0  0  0  0  0  0  0  0  0  0  0  0
  -30.3369   -7.6228   -7.8067 C   0  0  0  0  0  0  0  0  0  0  0  0
  -29.0193   -7.0570   -7.7944 O   0  0  0  0  0  0  0  0  0  0  0  0
  -28.2701   -2.2158   -9.5369 N   0  0  0  0  0  0  0  0  0  0  0  0
  -29.2464   -2.1294   -9.7881 H   0  0  0  0  0  0  0  0  0  0  0  0
  -27.3635   -1.7798  -10.5145 C   0  0  0  0  0  0  0  0  0  0  0  0
  -26.0410   -1.4597  -10.2030 C   0  0  0  0  0  0  0  0  0  0  0  0
  -25.1108   -1.2186  -11.2107 C   0  0  0  0  0  0  0  0  0  0  0  0
  -25.4807   -1.3044  -12.5559 C   0  0  0  0  0  0  0  0  0  0  0  0
  -24.1057   -1.0546  -13.8421 Br  0  0  0  0  0  0  0  0  0  0  0  0
  -26.8047   -1.5997  -12.9047 C   0  0  0  0  0  0  0  0  0  0  0  0
  -27.3049   -1.7295  -14.3160 C   0  0  0  0  0  0  0  0  0  0  0  0
  -27.7330   -1.8275  -11.8665 C   0  0  0  0  0  0  0  0  0  0  0  0
  -29.2210   -6.7541   -5.0675 O   0  0  0  0  0  0  0  0  0  0  0  0
  -28.0966   -7.4966   -4.5498 C   0  0  0  0  0  0  0  0  0  0  0  0
  -27.7719   -8.8013   -5.2946 C   0  0  0  0  0  0  0  0  0  0  0  0
  -28.7643   -9.9384   -5.0005 C   0  0  0  0  0  0  0  0  0  0  0  0
  -28.6497  -10.4096   -3.6045 N   0  0  0  0  0  0  0  0  0  0  0  0
  -29.6176  -11.4668   -3.3395 C   0  0  0  0  0  0  0  0  0  0  0  0
  -27.2677  -10.8700   -3.3721 C   0  0  0  0  0  0  0  0  0  0  0  0
  -26.2626   -9.7477   -3.6727 C   0  0  0  0  0  0  0  0  0  0  0  0
  -26.4135   -9.2313   -5.0080 O   0  0  0  0  0  0  0  0  0  0  0  0
 11 12  1  0  0  0
 12  1  1  0  0  0
  1  2  1  0  0  0
  1 10  2  0  0  0
  2  3  2  0  0  0
  3  4  1  0  0  0
  3  8  1  0  0  0
  4 13  1  0  0  0
  4  5  2  0  0  0
 13 15  1  0  0  0
 13 14  1  0  0  0
 15 16  1  0  0  0
 15 22  2  0  0  0
 16 17  2  0  0  0
 17 18  1  0  0  0
 18 19  1  0  0  0
 18 20  2  0  0  0
 20 21  1  0  0  0
 20 22  1  0  0  0
  5  6  1  0  0  0
  6  7  2  0  0  0
  7  8  1  0  0  0
  8  9  2  0  0  0
  9 10  1  0  0  0
 10 23  1  0  0  0
 23 24  1  0  0  0
 24 25  1  0  0  0
 25 26  1  0  0  0
 25 31  1  0  0  0
 26 27  1  0  0  0
 27 28  1  0  0  0
 27 29  1  0  0  0
 29 30  1  0  0  0
 30 31  1  0  0  0
M  END
> <minimizedAffinity>
-8.52967

$$$$
