CHEMBL3891474


 37 41  0  0  0  0  0  0  0  0999 V2000
  -28.6658  -10.2064   -5.5972 N   0  0  0  0  0  0  0  0  0  0  0  0
  -28.5857   -8.7514   -5.2376 C   0  0  0  0  0  0  0  0  0  0  0  0
  -28.8284   -8.5210   -3.8799 C   0  0  0  0  0  0  0  0  0  0  0  0
  -29.1385   -7.3274   -3.3757 C   0  0  0  0  0  0  0  0  0  0  0  0
  -29.1497   -6.2289   -4.1435 C   0  0  0  0  0  0  0  0  0  0  0  0
  -29.6616   -5.1794   -3.5257 N   0  0  0  0  0  0  0  0  0  0  0  0
  -29.6883   -3.9780   -4.0622 C   0  0  0  0  0  0  0  0  0  0  0  0
  -29.0384   -3.7230   -5.2589 C   0  0  0  0  0  0  0  0  0  0  0  0
  -28.6056   -4.8525   -6.0231 N   0  0  0  0  0  0  0  0  0  0  0  0
  -28.7037   -6.1744   -5.4742 C   0  0  0  0  0  0  0  0  0  0  0  0
  -28.4251   -7.5162   -6.0801 C   0  0  0  0  0  0  0  0  0  0  0  0
  -28.7993   -2.1778   -5.3972 C   0  0  0  0  0  0  0  0  0  0  0  0
  -27.5317   -1.6163   -5.0697 C   0  0  0  0  0  0  0  0  0  0  0  0
  -27.4774   -0.3261   -5.3510 N   0  0  0  0  0  0  0  0  0  0  0  0
  -28.6341    0.0276   -5.8508 N   0  0  0  0  0  0  0  0  0  0  0  0
  -28.7981    1.3988   -6.3192 C   0  0  0  0  0  0  0  0  0  0  0  0
  -29.4898   -1.0482   -5.8918 C   0  0  0  0  0  0  0  0  0  0  0  0
  -31.5363  -11.6086   -7.7577 C   0  0  0  0  0  0  0  0  0  0  0  0
  -30.9329  -11.6662   -9.0260 C   0  0  0  0  0  0  0  0  0  0  0  0
  -29.6296  -11.2865   -9.1939 C   0  0  0  0  0  0  0  0  0  0  0  0
  -28.9241  -10.8539   -8.0898 C   0  0  0  0  0  0  0  0  0  0  0  0
  -29.4360  -10.7480   -6.7505 C   0  0  0  0  0  0  0  0  0  0  0  0
  -30.7943  -11.1416   -6.6309 C   0  0  0  0  0  0  0  0  0  0  0  0
  -33.5726  -11.7647   -6.4687 C   0  0  0  0  0  0  0  0  0  0  0  0
  -32.8261  -12.0067   -7.6135 O   0  0  0  0  0  0  0  0  0  0  0  0
  -28.9990  -11.3162  -10.4060 O   0  0  0  0  0  0  0  0  0  0  0  0
  -28.9545  -10.2901  -11.3288 C   0  0  0  0  0  0  0  0  0  0  0  0
  -27.6989  -11.0276   -4.7178 C   0  0  0  0  0  0  0  0  0  0  0  0
  -26.2415  -11.4430   -5.1000 C   0  0  0  0  0  0  0  0  0  0  0  0
  -25.5078  -11.7925   -3.7444 C   0  0  0  0  0  0  0  0  0  0  0  0
  -25.1287  -10.5524   -2.9348 C   0  0  0  0  0  0  0  0  0  0  0  0
  -24.2615   -9.6532   -3.7919 C   0  0  0  0  0  0  0  0  0  0  0  0
  -25.0559   -9.1807   -4.9302 N   0  0  0  0  0  0  0  0  0  0  0  0
  -25.4069  -10.3025   -5.8091 C   0  0  0  0  0  0  0  0  0  0  0  0
  -24.4465   -8.5297   -5.4818 H   0  0  0  0  0  0  0  0  0  0  0  0
  -26.4406  -12.4641   -6.0901 O   0  0  0  0  0  0  0  0  0  0  0  0
  -25.7328  -12.3156   -7.3046 C   0  0  0  0  0  0  0  0  0  0  0  0
 24 25  1  0  0  0
 25 18  1  0  0  0
 18 19  1  0  0  0
 18 23  2  0  0  0
 19 20  2  0  0  0
 20 26  1  0  0  0
 20 21  1  0  0  0
 26 27  1  0  0  0
 21 22  2  0  0  0
 22  1  1  0  0  0
 22 23  1  0  0  0
  1 28  1  0  0  0
  1  2  1  0  0  0
 28 29  1  0  0  0
 29 36  1  0  0  0
 29 30  1  0  0  0
 29 34  1  0  0  0
 36 37  1  0  0  0
 30 31  1  0  0  0
 31 32  1  0  0  0
 32 33  1  0  0  0
 33 34  1  0  0  0
 33 35  1  0  0  0
  2  3  1  0  0  0
  2 11  2  0  0  0
  3  4  2  0  0  0
  4  5  1  0  0  0
  5  6  1  0  0  0
  5 10  2  0  0  0
  6  7  2  0  0  0
  7  8  1  0  0  0
  8 12  1  0  0  0
  8  9  2  0  0  0
 12 13  1  0  0  0
 12 17  2  0  0  0
 13 14  2  0  0  0
 14 15  1  0  0  0
 15 16  1  0  0  0
 15 17  1  0  0  0
  9 10  1  0  0  0
 10 11  1  0  0  0
M  END
> <minimizedAffinity>
-7.52315

$$$$
