CHEMBL2088091


 25 27  0  0  0  0  0  0  0  0999 V2000
  -27.6006   -2.5045   -8.7751 C   0  0  0  0  0  0  0  0  0  0  0  0
  -27.3964   -1.3043   -8.2314 N   0  0  0  0  0  0  0  0  0  0  0  0
  -27.8467   -1.1200   -6.9737 C   0  0  0  0  0  0  0  0  0  0  0  0
  -28.5654   -2.0598   -6.2731 C   0  0  0  0  0  0  0  0  0  0  0  0
  -29.1724   -1.6910   -4.5270 Br  0  0  0  0  0  0  0  0  0  0  0  0
  -28.7731   -3.2621   -6.9224 C   0  0  0  0  0  0  0  0  0  0  0  0
  -28.2582   -3.4841   -8.1543 N   0  0  0  0  0  0  0  0  0  0  0  0
  -27.1385   -2.6873  -10.0694 N   0  0  0  0  0  0  0  0  0  0  0  0
  -26.1640   -2.9571   -9.9813 H   0  0  0  0  0  0  0  0  0  0  0  0
  -27.3272   -1.5569  -10.9693 C   0  0  0  0  0  0  0  0  0  0  0  0
  -23.0862   -0.6192  -13.6643 C   0  0  0  0  0  0  0  0  0  0  0  0
  -24.4142   -1.0307  -13.1575 C   0  0  0  0  0  0  0  0  0  0  0  0
  -24.9267   -0.9198  -11.8468 C   0  0  0  0  0  0  0  0  0  0  0  0
  -26.2056   -1.4159  -11.9369 C   0  0  0  0  0  0  0  0  0  0  0  0
  -26.4383   -1.8200  -13.2142 O   0  0  0  0  0  0  0  0  0  0  0  0
  -25.3137   -1.5781  -13.9848 N   0  0  0  0  0  0  0  0  0  0  0  0
  -29.5020   -4.3042   -6.3010 N   0  0  0  0  0  0  0  0  0  0  0  0
  -30.3096   -4.5620   -6.8574 H   0  0  0  0  0  0  0  0  0  0  0  0
  -28.9461   -5.3219   -5.6045 C   0  0  0  0  0  0  0  0  0  0  0  0
  -29.3694   -6.6641   -5.6977 C   0  0  0  0  0  0  0  0  0  0  0  0
  -28.6331   -7.3461   -4.7625 C   0  0  0  0  0  0  0  0  0  0  0  0
  -28.6963   -8.7535   -4.3168 C   0  0  0  0  0  0  0  0  0  0  0  0
  -27.7724   -6.4222   -4.2381 N   0  0  0  0  0  0  0  0  0  0  0  0
  -27.9225   -5.1881   -4.7558 N   0  0  0  0  0  0  0  0  0  0  0  0
  -27.0707   -6.5570   -3.5171 H   0  0  0  0  0  0  0  0  0  0  0  0
 11 12  1  0  0  0
 12 13  1  0  0  0
 12 16  2  0  0  0
 13 14  2  0  0  0
 14 10  1  0  0  0
 14 15  1  0  0  0
 10  8  1  0  0  0
  8  1  1  0  0  0
  8  9  1  0  0  0
  1  2  1  0  0  0
  1  7  2  0  0  0
  2  3  2  0  0  0
  3  4  1  0  0  0
  4  5  1  0  0  0
  4  6  2  0  0  0
  6 17  1  0  0  0
  6  7  1  0  0  0
 17 19  1  0  0  0
 17 18  1  0  0  0
 19 20  1  0  0  0
 19 24  2  0  0  0
 20 21  2  0  0  0
 21 22  1  0  0  0
 21 23  1  0  0  0
 23 24  1  0  0  0
 23 25  1  0  0  0
 15 16  1  0  0  0
M  END
> <minimizedAffinity>
-8.11513

$$$$
