CHEMBL3827137


 37 41  0  0  0  0  0  0  0  0999 V2000
  -12.2736   -2.9389  -13.2695 N   0  0  0  0  0  0  0  0  0  0  0  0
  -13.2880   -3.4511  -12.4149 C   0  0  0  0  0  0  0  0  0  0  0  0
  -14.3396   -2.6672  -12.1399 C   0  0  0  0  0  0  0  0  0  0  0  0
  -14.6754   -1.5260  -12.9241 C   0  0  0  0  0  0  0  0  0  0  0  0
  -16.0082   -1.2299  -13.1119 C   0  0  0  0  0  0  0  0  0  0  0  0
  -16.3321   -0.2298  -13.9920 C   0  0  0  0  0  0  0  0  0  0  0  0
  -15.3464    0.5101  -14.6417 C   0  0  0  0  0  0  0  0  0  0  0  0
  -13.9788    0.2375  -14.4046 C   0  0  0  0  0  0  0  0  0  0  0  0
  -13.6449   -0.8388  -13.5649 C   0  0  0  0  0  0  0  0  0  0  0  0
  -12.2672   -1.4655  -13.4356 C   0  0  0  0  0  0  0  0  0  0  0  0
  -11.2534   -0.7818  -13.6169 O   0  0  0  0  0  0  0  0  0  0  0  0
  -14.9145   -3.0567  -10.8697 C   0  0  0  0  0  0  0  0  0  0  0  0
  -15.9852   -2.7542  -10.3834 O   0  0  0  0  0  0  0  0  0  0  0  0
  -13.9112   -3.9128  -10.3095 C   0  0  0  0  0  0  0  0  0  0  0  0
  -13.3327   -3.7675   -9.0861 C   0  0  0  0  0  0  0  0  0  0  0  0
  -12.2478   -4.5833   -8.8284 C   0  0  0  0  0  0  0  0  0  0  0  0
  -11.9748   -5.6406   -9.7089 C   0  0  0  0  0  0  0  0  0  0  0  0
  -12.4235   -5.5487  -11.0353 C   0  0  0  0  0  0  0  0  0  0  0  0
  -13.1684   -4.4363  -11.3452 C   0  0  0  0  0  0  0  0  0  0  0  0
  -12.4041   -5.8456  -16.0203 C   0  0  0  0  0  0  0  0  0  0  0  0
  -13.5204   -5.0230  -15.8856 C   0  0  0  0  0  0  0  0  0  0  0  0
  -13.4279   -3.8016  -15.2315 C   0  0  0  0  0  0  0  0  0  0  0  0
  -12.2400   -3.4737  -14.6116 C   0  0  0  0  0  0  0  0  0  0  0  0
  -11.0267   -4.1382  -15.0068 C   0  0  0  0  0  0  0  0  0  0  0  0
  -11.1429   -5.3647  -15.6644 C   0  0  0  0  0  0  0  0  0  0  0  0
  -12.4311   -7.1523  -16.4264 O   0  0  0  0  0  0  0  0  0  0  0  0
  -13.5713   -7.8766  -15.9587 C   0  0  0  0  0  0  0  0  0  0  0  0
  -13.2009   -8.6556  -14.6998 C   0  0  0  0  0  0  0  0  0  0  0  0
  -13.7384   -8.0736  -13.4522 N   0  0  0  0  0  0  0  0  0  0  0  0
  -15.5740   -6.4557  -12.8424 C   0  0  0  0  0  0  0  0  0  0  0  0
  -15.1200   -7.6312  -13.6967 C   0  0  0  0  0  0  0  0  0  0  0  0
  -13.5784   -8.9325  -12.2680 C   0  0  0  0  0  0  0  0  0  0  0  0
  -12.2922   -9.7489  -12.1997 C   0  0  0  0  0  0  0  0  0  0  0  0
  -15.6404    1.4972  -15.5472 O   0  0  0  0  0  0  0  0  0  0  0  0
  -17.0308    1.7239  -15.7638 C   0  0  0  0  0  0  0  0  0  0  0  0
  -11.4060   -4.3618   -7.7764 O   0  0  0  0  0  0  0  0  0  0  0  0
  -11.3965   -2.9761   -7.3878 C   0  0  0  0  0  0  0  0  0  0  0  0
 30 31  1  0  0  0
 31 29  1  0  0  0
 29 32  1  0  0  0
 29 28  1  0  0  0
 32 33  1  0  0  0
 28 27  1  0  0  0
 27 26  1  0  0  0
 26 20  1  0  0  0
 20 21  1  0  0  0
 20 25  2  0  0  0
 21 22  2  0  0  0
 22 23  1  0  0  0
 23  1  1  0  0  0
 23 24  2  0  0  0
  1  2  1  0  0  0
  1 10  1  0  0  0
  2  3  2  0  0  0
  2 19  1  0  0  0
  3  4  1  0  0  0
  3 12  1  0  0  0
  4  5  1  0  0  0
  4  9  2  0  0  0
  5  6  2  0  0  0
  6  7  1  0  0  0
  7 34  1  0  0  0
  7  8  2  0  0  0
 34 35  1  0  0  0
  8  9  1  0  0  0
  9 10  1  0  0  0
 10 11  2  0  0  0
 12 13  2  0  0  0
 12 14  1  0  0  0
 14 15  1  0  0  0
 14 19  2  0  0  0
 15 16  2  0  0  0
 16 36  1  0  0  0
 16 17  1  0  0  0
 36 37  1  0  0  0
 17 18  2  0  0  0
 18 19  1  0  0  0
 24 25  1  0  0  0
M  END
> <minimizedAffinity>
-6.62502

$$$$
