CHEMBL3951090


 35 38  0  0  0  0  0  0  0  0999 V2000
  -29.4187   -6.8957   -5.7738 N   0  0  0  0  0  0  0  0  0  0  0  0
  -29.0669   -5.5336   -6.0280 C   0  0  0  0  0  0  0  0  0  0  0  0
  -29.2929   -4.5321   -5.0726 C   0  0  0  0  0  0  0  0  0  0  0  0
  -29.0375   -3.1867   -5.3610 C   0  0  0  0  0  0  0  0  0  0  0  0
  -28.5458   -2.7946   -6.5969 C   0  0  0  0  0  0  0  0  0  0  0  0
  -28.3596   -1.4911   -6.8576 N   0  0  0  0  0  0  0  0  0  0  0  0
  -27.8885   -1.1911   -8.0919 C   0  0  0  0  0  0  0  0  0  0  0  0
  -27.5811   -2.1549   -9.0441 C   0  0  0  0  0  0  0  0  0  0  0  0
  -27.7647   -3.4710   -8.7770 N   0  0  0  0  0  0  0  0  0  0  0  0
  -28.2593   -3.7872   -7.5615 C   0  0  0  0  0  0  0  0  0  0  0  0
  -28.5157   -5.1199   -7.2506 C   0  0  0  0  0  0  0  0  0  0  0  0
  -27.0554   -1.7967  -10.3506 C   0  0  0  0  0  0  0  0  0  0  0  0
  -27.7189   -1.5805  -11.5845 C   0  0  0  0  0  0  0  0  0  0  0  0
  -26.8868   -1.2562  -12.5709 N   0  0  0  0  0  0  0  0  0  0  0  0
  -25.6799   -1.2609  -11.9825 N   0  0  0  0  0  0  0  0  0  0  0  0
  -24.5016   -0.9401  -12.7505 C   0  0  0  0  0  0  0  0  0  0  0  0
  -25.7190   -1.5729  -10.6526 C   0  0  0  0  0  0  0  0  0  0  0  0
  -29.9328   -9.1885   -8.6941 C   0  0  0  0  0  0  0  0  0  0  0  0
  -31.3081   -9.4004   -8.6637 C   0  0  0  0  0  0  0  0  0  0  0  0
  -32.0574   -8.7748   -7.6796 C   0  0  0  0  0  0  0  0  0  0  0  0
  -33.3804   -8.9705   -7.6535 F   0  0  0  0  0  0  0  0  0  0  0  0
  -31.4662   -7.9495   -6.7208 C   0  0  0  0  0  0  0  0  0  0  0  0
  -30.0815   -7.7303   -6.7113 C   0  0  0  0  0  0  0  0  0  0  0  0
  -29.3314   -8.3849   -7.7098 C   0  0  0  0  0  0  0  0  0  0  0  0
  -28.7896  -10.3242  -12.1155 C   0  0  0  0  0  0  0  0  0  0  0  0
  -29.5538   -9.7733  -11.0256 N   0  0  0  0  0  0  0  0  0  0  0  0
  -29.0712   -9.8126   -9.7337 C   0  0  0  0  0  0  0  0  0  0  0  0
  -27.9889  -10.2982   -9.4281 O   0  0  0  0  0  0  0  0  0  0  0  0
  -30.3605   -9.2068  -11.2482 H   0  0  0  0  0  0  0  0  0  0  0  0
  -29.4446   -7.2636   -4.3283 C   0  0  0  0  0  0  0  0  0  0  0  0
  -28.5403   -8.4760   -3.9330 C   0  0  0  0  0  0  0  0  0  0  0  0
  -29.1141   -9.8336   -4.3532 C   0  0  0  0  0  0  0  0  0  0  0  0
  -27.1588   -8.2590   -4.5729 C   0  0  0  0  0  0  0  0  0  0  0  0
  -28.2952   -8.5260   -2.5207 O   0  0  0  0  0  0  0  0  0  0  0  0
  -29.0803   -8.9212   -2.1001 H   0  0  0  0  0  0  0  0  0  0  0  0
 25 26  1  0  0  0
 26 27  1  0  0  0
 26 29  1  0  0  0
 27 28  2  0  0  0
 27 18  1  0  0  0
 18 19  1  0  0  0
 18 24  2  0  0  0
 19 20  2  0  0  0
 20 21  1  0  0  0
 20 22  1  0  0  0
 22 23  2  0  0  0
 23  1  1  0  0  0
 23 24  1  0  0  0
  1 30  1  0  0  0
  1  2  1  0  0  0
 30 31  1  0  0  0
 31 32  1  0  0  0
 31 33  1  0  0  0
 31 34  1  0  0  0
 34 35  1  0  0  0
  2  3  1  0  0  0
  2 11  2  0  0  0
  3  4  2  0  0  0
  4  5  1  0  0  0
  5  6  1  0  0  0
  5 10  2  0  0  0
  6  7  2  0  0  0
  7  8  1  0  0  0
  8 12  1  0  0  0
  8  9  2  0  0  0
 12 13  1  0  0  0
 12 17  2  0  0  0
 13 14  2  0  0  0
 14 15  1  0  0  0
 15 16  1  0  0  0
 15 17  1  0  0  0
  9 10  1  0  0  0
 10 11  1  0  0  0
M  END
> <minimizedAffinity>
-9.32687

$$$$
