CHEMBL7724


 18 20  0  0  0  0  0  0  0  0999 V2000
  -17.0310    4.0028  -16.0628 C   0  0  0  0  0  0  0  0  0  0  0  0
  -18.0855    3.0857  -15.5075 C   0  0  0  0  0  0  0  0  0  0  0  0
  -19.3220    3.6226  -15.1229 C   0  0  0  0  0  0  0  0  0  0  0  0
  -20.3621    2.8244  -14.6694 C   0  0  0  0  0  0  0  0  0  0  0  0
  -21.5321    3.4051  -14.3589 N   0  0  0  0  0  0  0  0  0  0  0  0
  -22.5241    2.5704  -13.9778 C   0  0  0  0  0  0  0  0  0  0  0  0
  -22.3812    1.1897  -13.8947 C   0  0  0  0  0  0  0  0  0  0  0  0
  -21.1832    0.6130  -14.1668 N   0  0  0  0  0  0  0  0  0  0  0  0
  -20.1771    1.4272  -14.5678 C   0  0  0  0  0  0  0  0  0  0  0  0
  -18.9387    0.8978  -14.9178 C   0  0  0  0  0  0  0  0  0  0  0  0
  -17.8872    1.7013  -15.3988 C   0  0  0  0  0  0  0  0  0  0  0  0
  -16.5972    1.0588  -15.8283 C   0  0  0  0  0  0  0  0  0  0  0  0
  -23.4998    0.3037  -13.5197 C   0  0  0  0  0  0  0  0  0  0  0  0
  -24.0524    0.3299  -12.2236 C   0  0  0  0  0  0  0  0  0  0  0  0
  -25.0713   -0.5486  -11.8457 C   0  0  0  0  0  0  0  0  0  0  0  0
  -25.5717   -1.4661  -12.7621 C   0  0  0  0  0  0  0  0  0  0  0  0
  -25.0677   -1.4920  -14.0596 C   0  0  0  0  0  0  0  0  0  0  0  0
  -24.0467   -0.6113  -14.4357 C   0  0  0  0  0  0  0  0  0  0  0  0
  1  2  1  0  0  0
  2  3  1  0  0  0
  2 11  2  0  0  0
  3  4  2  0  0  0
  4  5  1  0  0  0
  4  9  1  0  0  0
  5  6  2  0  0  0
  6  7  1  0  0  0
  7 13  1  0  0  0
  7  8  2  0  0  0
 13 14  1  0  0  0
 13 18  2  0  0  0
 14 15  2  0  0  0
 15 16  1  0  0  0
 16 17  2  0  0  0
 17 18  1  0  0  0
  8  9  1  0  0  0
  9 10  2  0  0  0
 10 11  1  0  0  0
 11 12  1  0  0  0
M  END
> <minimizedAffinity>
-9.85165

$$$$
