CHEMBL458531


 32 35  0  0  0  0  0  0  0  0999 V2000
  -28.3630   -2.3873   -7.0628 C   0  0  0  0  0  0  0  0  0  0  0  0
  -27.9107   -1.3559   -6.3355 N   0  0  0  0  0  0  0  0  0  0  0  0
  -28.8470   -1.2320   -4.9787 S   0  0  0  0  0  0  0  0  0  0  0  0
  -29.8002   -2.6591   -5.2906 C   0  0  0  0  0  0  0  0  0  0  0  0
  -29.4179   -3.2533   -6.4903 C   0  0  0  0  0  0  0  0  0  0  0  0
  -27.5734   -3.7401   -8.7763 O   0  0  0  0  0  0  0  0  0  0  0  0
  -27.8733   -2.5996   -8.4238 C   0  0  0  0  0  0  0  0  0  0  0  0
  -27.6346   -1.4659   -9.1964 N   0  0  0  0  0  0  0  0  0  0  0  0
  -27.6895   -0.5640   -8.7383 H   0  0  0  0  0  0  0  0  0  0  0  0
  -27.0166   -1.5785  -10.4616 C   0  0  0  0  0  0  0  0  0  0  0  0
  -27.8122   -1.7072  -11.6049 C   0  0  0  0  0  0  0  0  0  0  0  0
  -27.2464   -1.8053  -12.8717 C   0  0  0  0  0  0  0  0  0  0  0  0
  -25.8679   -1.7568  -13.0150 C   0  0  0  0  0  0  0  0  0  0  0  0
  -25.0498   -1.5613  -11.8923 C   0  0  0  0  0  0  0  0  0  0  0  0
  -25.6279   -1.5214  -10.6035 C   0  0  0  0  0  0  0  0  0  0  0  0
  -23.5823   -1.2803  -12.0941 C   0  0  0  0  0  0  0  0  0  0  0  0
  -23.1514   -1.7261  -13.3076 F   0  0  0  0  0  0  0  0  0  0  0  0
  -23.2683    0.0406  -12.0415 F   0  0  0  0  0  0  0  0  0  0  0  0
  -22.7823   -1.8953  -11.1761 F   0  0  0  0  0  0  0  0  0  0  0  0
  -29.8408   -4.4361   -7.1739 N   0  0  0  0  0  0  0  0  0  0  0  0
  -30.3748   -4.2808   -8.0294 H   0  0  0  0  0  0  0  0  0  0  0  0
  -29.9676   -5.8151   -6.6526 C   0  0  0  0  0  0  0  0  0  0  0  0
  -30.7855   -7.1470   -7.1477 C   0  0  0  0  0  0  0  0  0  0  0  0
  -32.2788   -7.9258   -7.0579 C   0  0  0  0  0  0  0  0  0  0  0  0
  -32.6437   -9.1712   -7.5770 C   0  0  0  0  0  0  0  0  0  0  0  0
  -31.4269   -9.1270   -7.9223 N   0  0  0  0  0  0  0  0  0  0  0  0
  -30.2055   -9.1327   -8.3006 C   0  0  0  0  0  0  0  0  0  0  0  0
  -29.6776  -10.1578   -9.0015 C   0  0  0  0  0  0  0  0  0  0  0  0
  -28.4201   -9.9347   -9.4637 C   0  0  0  0  0  0  0  0  0  0  0  0
  -27.7840   -8.7089   -9.1901 C   0  0  0  0  0  0  0  0  0  0  0  0
  -28.4301   -7.6915   -8.4507 C   0  0  0  0  0  0  0  0  0  0  0  0
  -29.7454   -7.9136   -7.9459 C   0  0  0  0  0  0  0  0  0  0  0  0
  6  7  2  0  0  0
  7  8  1  0  0  0
  7  1  1  0  0  0
  8 10  1  0  0  0
  8  9  1  0  0  0
 10 11  1  0  0  0
 10 15  2  0  0  0
 11 12  2  0  0  0
 12 13  1  0  0  0
 13 14  2  0  0  0
 14 16  1  0  0  0
 14 15  1  0  0  0
 16 17  1  0  0  0
 16 18  1  0  0  0
 16 19  1  0  0  0
  1  2  2  0  0  0
  1  5  1  0  0  0
  2  3  1  0  0  0
  3  4  1  0  0  0
  4  5  2  0  0  0
  5 20  1  0  0  0
 20 22  1  0  0  0
 20 21  1  0  0  0
 22 23  1  0  0  0
 23 24  1  0  0  0
 23 32  2  0  0  0
 24 25  2  0  0  0
 25 26  1  0  0  0
 26 27  2  0  0  0
 27 28  1  0  0  0
 27 32  1  0  0  0
 28 29  2  0  0  0
 29 30  1  0  0  0
 30 31  2  0  0  0
 31 32  1  0  0  0
M  END
> <minimizedAffinity>
-10.00892

$$$$
