CHEMBL3642838


 38 41  0  0  0  0  0  0  0  0999 V2000
  -27.5949   -1.8463   -8.3858 C   0  0  0  0  0  0  0  0  0  0  0  0
  -27.9087   -0.9750   -7.3499 C   0  0  0  0  0  0  0  0  0  0  0  0
  -28.7176   -1.3890   -6.2933 C   0  0  0  0  0  0  0  0  0  0  0  0
  -29.2592   -2.6819   -6.2591 C   0  0  0  0  0  0  0  0  0  0  0  0
  -30.0279   -3.0858   -5.0325 C   0  0  0  0  0  0  0  0  0  0  0  0
  -29.0719   -3.5330   -7.3661 C   0  0  0  0  0  0  0  0  0  0  0  0
  -28.2060   -3.1042   -8.3984 C   0  0  0  0  0  0  0  0  0  0  0  0
  -27.0598   -1.3664  -10.7595 C   0  0  0  0  0  0  0  0  0  0  0  0
  -28.2029   -1.4254  -11.2070 O   0  0  0  0  0  0  0  0  0  0  0  0
  -26.7003   -1.5157   -9.4340 N   0  0  0  0  0  0  0  0  0  0  0  0
  -25.7417   -1.3446   -9.1641 H   0  0  0  0  0  0  0  0  0  0  0  0
  -23.7462   -0.6337  -13.4063 C   0  0  0  0  0  0  0  0  0  0  0  0
  -24.8398   -1.3846  -13.8676 C   0  0  0  0  0  0  0  0  0  0  0  0
  -25.9470   -1.6266  -13.0419 C   0  0  0  0  0  0  0  0  0  0  0  0
  -25.9739   -1.1017  -11.7467 C   0  0  0  0  0  0  0  0  0  0  0  0
  -24.8906   -0.3310  -11.2936 C   0  0  0  0  0  0  0  0  0  0  0  0
  -23.7923   -0.0855  -12.1182 C   0  0  0  0  0  0  0  0  0  0  0  0
  -22.5279   -0.4196  -14.2639 C   0  0  0  0  0  0  0  0  0  0  0  0
  -20.7244    1.1666  -14.6321 C   0  0  0  0  0  0  0  0  0  0  0  0
  -20.0989    0.3813  -15.3332 O   0  0  0  0  0  0  0  0  0  0  0  0
  -21.9373    0.8803  -14.0594 N   0  0  0  0  0  0  0  0  0  0  0  0
  -22.4095    1.5470  -13.4653 H   0  0  0  0  0  0  0  0  0  0  0  0
  -19.6794    3.2791  -15.2888 C   0  0  0  0  0  0  0  0  0  0  0  0
  -20.2307    2.5318  -14.3233 C   0  0  0  0  0  0  0  0  0  0  0  0
  -29.7423   -4.7691   -7.4612 N   0  0  0  0  0  0  0  0  0  0  0  0
  -30.4931   -4.8487   -8.1308 H   0  0  0  0  0  0  0  0  0  0  0  0
  -29.2493   -6.0470   -7.1780 C   0  0  0  0  0  0  0  0  0  0  0  0
  -29.1850   -6.4170   -5.8925 N   0  0  0  0  0  0  0  0  0  0  0  0
  -28.7572   -7.6719   -5.6427 C   0  0  0  0  0  0  0  0  0  0  0  0
  -28.4303   -8.5803   -6.6226 C   0  0  0  0  0  0  0  0  0  0  0  0
  -28.5482   -8.1354   -7.9203 C   0  0  0  0  0  0  0  0  0  0  0  0
  -28.9321   -6.8725   -8.1831 N   0  0  0  0  0  0  0  0  0  0  0  0
  -28.3171   -8.9612   -9.1188 C   0  0  0  0  0  0  0  0  0  0  0  0
  -29.2979   -9.7659   -9.7124 C   0  0  0  0  0  0  0  0  0  0  0  0
  -29.0037  -10.5121  -10.8569 C   0  0  0  0  0  0  0  0  0  0  0  0
  -27.7264  -10.4420  -11.3852 C   0  0  0  0  0  0  0  0  0  0  0  0
  -26.7418   -9.7015  -10.8437 N   0  0  0  0  0  0  0  0  0  0  0  0
  -27.0602   -8.9820   -9.7394 C   0  0  0  0  0  0  0  0  0  0  0  0
 23 24  2  0  0  0
 24 19  1  0  0  0
 19 20  2  0  0  0
 19 21  1  0  0  0
 21 18  1  0  0  0
 21 22  1  0  0  0
 18 12  1  0  0  0
 12 13  1  0  0  0
 12 17  2  0  0  0
 13 14  2  0  0  0
 14 15  1  0  0  0
 15  8  1  0  0  0
 15 16  2  0  0  0
  8  9  2  0  0  0
  8 10  1  0  0  0
 10  1  1  0  0  0
 10 11  1  0  0  0
  1  2  1  0  0  0
  1  7  2  0  0  0
  2  3  2  0  0  0
  3  4  1  0  0  0
  4  5  1  0  0  0
  4  6  2  0  0  0
  6 25  1  0  0  0
  6  7  1  0  0  0
 25 27  1  0  0  0
 25 26  1  0  0  0
 27 28  1  0  0  0
 27 32  2  0  0  0
 28 29  2  0  0  0
 29 30  1  0  0  0
 30 31  2  0  0  0
 31 33  1  0  0  0
 31 32  1  0  0  0
 33 34  1  0  0  0
 33 38  2  0  0  0
 34 35  2  0  0  0
 35 36  1  0  0  0
 36 37  2  0  0  0
 37 38  1  0  0  0
 16 17  1  0  0  0
M  END
> <minimizedAffinity>
-10.88780

$$$$
