CHEMBL3780547


 41 45  0  0  0  0  0  0  0  0999 V2000
  -29.4025   -5.2333   -5.3739 N   0  0  0  0  0  0  0  0  0  0  0  0
  -30.4112   -5.3431   -5.3396 H   0  0  0  0  0  0  0  0  0  0  0  0
  -27.6207   -8.9203   -4.6838 C   0  0  0  0  0  0  0  0  0  0  0  0
  -27.0417   -7.7747   -4.2754 N   0  0  0  0  0  0  0  0  0  0  0  0
  -27.6106   -6.5854   -4.5728 N   0  0  0  0  0  0  0  0  0  0  0  0
  -28.7780   -6.5044   -5.2508 C   0  0  0  0  0  0  0  0  0  0  0  0
  -29.3829   -7.6734   -5.7766 C   0  0  0  0  0  0  0  0  0  0  0  0
  -30.5768   -7.6794   -6.5488 C   0  0  0  0  0  0  0  0  0  0  0  0
  -31.1124   -8.8600   -7.0677 C   0  0  0  0  0  0  0  0  0  0  0  0
  -30.4838  -10.0698   -6.8174 C   0  0  0  0  0  0  0  0  0  0  0  0
  -29.3260  -10.1023   -6.0394 C   0  0  0  0  0  0  0  0  0  0  0  0
  -28.7626   -8.9213   -5.5044 C   0  0  0  0  0  0  0  0  0  0  0  0
  -26.9959  -10.1603   -4.0936 C   0  0  0  0  0  0  0  0  0  0  0  0
  -22.8582  -11.0268   -5.0318 C   0  0  0  0  0  0  0  0  0  0  0  0
  -23.2722  -10.9951   -3.7006 C   0  0  0  0  0  0  0  0  0  0  0  0
  -24.6030  -10.7007   -3.3791 C   0  0  0  0  0  0  0  0  0  0  0  0
  -25.5364  -10.4186   -4.3843 C   0  0  0  0  0  0  0  0  0  0  0  0
  -25.1196  -10.4922   -5.7211 C   0  0  0  0  0  0  0  0  0  0  0  0
  -23.7929  -10.7883   -6.0390 C   0  0  0  0  0  0  0  0  0  0  0  0
  -21.2638  -10.8130   -6.7771 C   0  0  0  0  0  0  0  0  0  0  0  0
  -21.5897  -11.2819   -5.4747 O   0  0  0  0  0  0  0  0  0  0  0  0
  -29.0356   -4.2079   -6.2849 C   0  0  0  0  0  0  0  0  0  0  0  0
  -29.3796   -4.3328   -7.6311 C   0  0  0  0  0  0  0  0  0  0  0  0
  -28.9667   -3.3803   -8.5706 C   0  0  0  0  0  0  0  0  0  0  0  0
  -28.2246   -2.2593   -8.1944 C   0  0  0  0  0  0  0  0  0  0  0  0
  -27.9628   -2.0740   -6.8379 C   0  0  0  0  0  0  0  0  0  0  0  0
  -28.3903   -3.0248   -5.8969 C   0  0  0  0  0  0  0  0  0  0  0  0
  -27.6965   -1.3213   -9.1149 N   0  0  0  0  0  0  0  0  0  0  0  0
  -26.9255   -1.6283  -10.2224 C   0  0  0  0  0  0  0  0  0  0  0  0
  -26.7121   -2.7662  -10.6260 O   0  0  0  0  0  0  0  0  0  0  0  0
  -26.3800   -0.4988  -10.8203 N   0  0  0  0  0  0  0  0  0  0  0  0
  -27.9698   -0.3555   -9.0033 H   0  0  0  0  0  0  0  0  0  0  0  0
  -26.1113    0.2329  -10.1781 H   0  0  0  0  0  0  0  0  0  0  0  0
  -25.5714   -0.6486  -11.9759 C   0  0  0  0  0  0  0  0  0  0  0  0
  -26.0238   -1.3832  -13.0777 C   0  0  0  0  0  0  0  0  0  0  0  0
  -25.1797   -1.6340  -14.1568 C   0  0  0  0  0  0  0  0  0  0  0  0
  -23.8778   -1.1372  -14.1495 C   0  0  0  0  0  0  0  0  0  0  0  0
  -23.4342   -0.3565  -13.0789 C   0  0  0  0  0  0  0  0  0  0  0  0
  -24.2857   -0.1056  -11.9954 C   0  0  0  0  0  0  0  0  0  0  0  0
  -22.1702    0.1587  -12.9614 O   0  0  0  0  0  0  0  0  0  0  0  0
  -21.6706    0.8168  -14.1210 C   0  0  0  0  0  0  0  0  0  0  0  0
 20 21  1  0  0  0
 21 14  1  0  0  0
 14 15  1  0  0  0
 14 19  2  0  0  0
 15 16  2  0  0  0
 16 17  1  0  0  0
 17 13  1  0  0  0
 17 18  2  0  0  0
 13  3  1  0  0  0
  3  4  1  0  0  0
  3 12  2  0  0  0
  4  5  2  0  0  0
  5  6  1  0  0  0
  6  1  1  0  0  0
  6  7  2  0  0  0
  1 22  1  0  0  0
  1  2  1  0  0  0
 22 23  1  0  0  0
 22 27  2  0  0  0
 23 24  2  0  0  0
 24 25  1  0  0  0
 25 28  1  0  0  0
 25 26  2  0  0  0
 28 29  1  0  0  0
 28 32  1  0  0  0
 29 30  2  0  0  0
 29 31  1  0  0  0
 31 34  1  0  0  0
 31 33  1  0  0  0
 34 35  1  0  0  0
 34 39  2  0  0  0
 35 36  2  0  0  0
 36 37  1  0  0  0
 37 38  2  0  0  0
 38 40  1  0  0  0
 38 39  1  0  0  0
 40 41  1  0  0  0
 26 27  1  0  0  0
  7  8  1  0  0  0
  7 12  1  0  0  0
  8  9  2  0  0  0
  9 10  1  0  0  0
 10 11  2  0  0  0
 11 12  1  0  0  0
 18 19  1  0  0  0
M  END
> <minimizedAffinity>
-9.37799

$$$$
