CHEMBL3967645


 38 42  0  0  0  0  0  0  0  0999 V2000
  -15.5658    2.3502  -16.0817 N   0  0  0  0  0  0  0  0  0  0  0  0
  -16.9701    2.3419  -15.6113 C   0  0  0  0  0  0  0  0  0  0  0  0
  -17.4676    1.0944  -15.3036 C   0  0  0  0  0  0  0  0  0  0  0  0
  -18.6507    0.9811  -14.8724 C   0  0  0  0  0  0  0  0  0  0  0  0
  -19.4381    1.9630  -14.7432 C   0  0  0  0  0  0  0  0  0  0  0  0
  -20.4508    1.4683  -14.6820 N   0  0  0  0  0  0  0  0  0  0  0  0
  -21.4262    0.9314  -14.6206 C   0  0  0  0  0  0  0  0  0  0  0  0
  -22.2297    1.7783  -14.0088 C   0  0  0  0  0  0  0  0  0  0  0  0
  -21.2608    3.3365  -14.2684 N   0  0  0  0  0  0  0  0  0  0  0  0
  -19.5769    3.2343  -14.8258 C   0  0  0  0  0  0  0  0  0  0  0  0
  -17.9453    3.5449  -15.4336 C   0  0  0  0  0  0  0  0  0  0  0  0
  -23.6224    0.3873  -13.5630 C   0  0  0  0  0  0  0  0  0  0  0  0
  -24.1141   -0.9454  -14.0623 C   0  0  0  0  0  0  0  0  0  0  0  0
  -24.8665   -1.6408  -13.1093 N   0  0  0  0  0  0  0  0  0  0  0  0
  -24.9545   -0.9340  -11.9980 N   0  0  0  0  0  0  0  0  0  0  0  0
  -25.6284   -1.4935  -10.7467 C   0  0  0  0  0  0  0  0  0  0  0  0
  -24.2602    0.2783  -12.1998 C   0  0  0  0  0  0  0  0  0  0  0  0
  -13.2211    5.2984  -16.5371 C   0  0  0  0  0  0  0  0  0  0  0  0
  -13.5567    5.6607  -17.6981 C   0  0  0  0  0  0  0  0  0  0  0  0
  -14.5381    5.0826  -18.4044 C   0  0  0  0  0  0  0  0  0  0  0  0
  -15.2541    4.0448  -17.8467 C   0  0  0  0  0  0  0  0  0  0  0  0
  -14.9488    3.5814  -16.5753 C   0  0  0  0  0  0  0  0  0  0  0  0
  -13.9833    4.3906  -15.8845 C   0  0  0  0  0  0  0  0  0  0  0  0
  -11.8799    6.5622  -14.9251 C   0  0  0  0  0  0  0  0  0  0  0  0
  -12.0337    5.8339  -16.1600 O   0  0  0  0  0  0  0  0  0  0  0  0
  -14.7040    5.4894  -19.6643 O   0  0  0  0  0  0  0  0  0  0  0  0
  -14.6062    6.8257  -20.0148 C   0  0  0  0  0  0  0  0  0  0  0  0
  -14.9062    1.0411  -16.2292 C   0  0  0  0  0  0  0  0  0  0  0  0
  -13.8328    0.7519  -15.2179 C   0  0  0  0  0  0  0  0  0  0  0  0
  -14.0654    1.0276  -13.8062 C   0  0  0  0  0  0  0  0  0  0  0  0
  -14.1876   -0.2345  -13.0356 N   0  0  0  0  0  0  0  0  0  0  0  0
  -13.6008   -1.3969  -13.7479 C   0  0  0  0  0  0  0  0  0  0  0  0
  -14.4931   -2.6045  -13.4593 C   0  0  0  0  0  0  0  0  0  0  0  0
  -15.5922   -2.0830  -12.5376 C   0  0  0  0  0  0  0  0  0  0  0  0
  -15.2564   -2.3305  -11.1373 N   0  0  0  0  0  0  0  0  0  0  0  0
  -15.6018   -0.5866  -12.8131 C   0  0  0  0  0  0  0  0  0  0  0  0
  -14.3418   -1.9143  -10.9173 H   0  0  0  0  0  0  0  0  0  0  0  0
  -15.1898   -3.3617  -10.9719 H   0  0  0  0  0  0  0  0  0  0  0  0
 24 25  1  0  0  0
 25 18  1  0  0  0
 18 19  1  0  0  0
 18 23  2  0  0  0
 19 20  2  0  0  0
 20 26  1  0  0  0
 20 21  1  0  0  0
 26 27  1  0  0  0
 21 22  2  0  0  0
 22  1  1  0  0  0
 22 23  1  0  0  0
  1 28  1  0  0  0
  1  2  1  0  0  0
 28 29  1  0  0  0
 29 30  1  0  0  0
 30 31  1  0  0  0
 31 32  1  0  0  0
 31 36  1  0  0  0
 32 33  1  0  0  0
 33 34  1  0  0  0
 34 35  1  0  0  0
 34 36  1  0  0  0
 35 37  1  0  0  0
 35 38  1  0  0  0
  2  3  1  0  0  0
  2 11  2  0  0  0
  3  4  2  0  0  0
  4  5  1  0  0  0
  5  6  1  0  0  0
  5 10  2  0  0  0
  6  7  2  0  0  0
  7  8  1  0  0  0
  8 12  1  0  0  0
  8  9  2  0  0  0
 12 13  1  0  0  0
 12 17  2  0  0  0
 13 14  2  0  0  0
 14 15  1  0  0  0
 15 16  1  0  0  0
 15 17  1  0  0  0
  9 10  1  0  0  0
 10 11  1  0  0  0
M  END
> <minimizedAffinity>
-9.60653

$$$$
