CHEMBL71985


 30 33  0  0  0  0  0  0  0  0999 V2000
  -14.8588    1.9407  -16.5386 N   0  0  0  0  0  0  0  0  0  0  0  0
  -16.2041    2.1880  -16.6276 C   0  0  0  0  0  0  0  0  0  0  0  0
  -16.8102    1.7933  -15.4461 C   0  0  0  0  0  0  0  0  0  0  0  0
  -15.7795    1.2822  -14.5921 C   0  0  0  0  0  0  0  0  0  0  0  0
  -15.6944    0.7090  -13.3074 C   0  0  0  0  0  0  0  0  0  0  0  0
  -16.7697    0.4604  -12.4703 N   0  0  0  0  0  0  0  0  0  0  0  0
  -14.4828    0.3598  -12.8290 N   0  0  0  0  0  0  0  0  0  0  0  0
  -13.4056    0.5644  -13.6120 C   0  0  0  0  0  0  0  0  0  0  0  0
  -13.3593    1.0697  -14.8547 N   0  0  0  0  0  0  0  0  0  0  0  0
  -14.5796    1.4128  -15.2983 C   0  0  0  0  0  0  0  0  0  0  0  0
  -17.6456    0.2588  -12.9371 H   0  0  0  0  0  0  0  0  0  0  0  0
  -16.5327   -0.1435  -11.6897 H   0  0  0  0  0  0  0  0  0  0  0  0
  -18.2474    1.8967  -15.2435 C   0  0  0  0  0  0  0  0  0  0  0  0
  -19.0233    0.7417  -15.1251 C   0  0  0  0  0  0  0  0  0  0  0  0
  -20.3944    0.8378  -14.9115 C   0  0  0  0  0  0  0  0  0  0  0  0
  -20.9867    2.0846  -14.6889 C   0  0  0  0  0  0  0  0  0  0  0  0
  -20.2291    3.2408  -14.8209 C   0  0  0  0  0  0  0  0  0  0  0  0
  -18.8807    3.1427  -15.1539 C   0  0  0  0  0  0  0  0  0  0  0  0
  -22.3146    2.2757  -14.3726 O   0  0  0  0  0  0  0  0  0  0  0  0
  -23.0104    1.2346  -13.8089 C   0  0  0  0  0  0  0  0  0  0  0  0
  -23.2874    0.0386  -14.4785 C   0  0  0  0  0  0  0  0  0  0  0  0
  -24.0997   -0.9210  -13.8845 C   0  0  0  0  0  0  0  0  0  0  0  0
  -24.5550   -0.7286  -12.5747 C   0  0  0  0  0  0  0  0  0  0  0  0
  -24.2012    0.4306  -11.8772 C   0  0  0  0  0  0  0  0  0  0  0  0
  -23.4277    1.4178  -12.4887 C   0  0  0  0  0  0  0  0  0  0  0  0
  -25.3883   -1.7068  -11.9705 C   0  0  0  0  0  0  0  0  0  0  0  0
  -26.0869   -2.4930  -11.4760 N   0  0  0  0  0  0  0  0  0  0  0  0
  -13.7623    0.9569  -18.5421 C   0  0  0  0  0  0  0  0  0  0  0  0
  -13.8946    2.1720  -17.6163 C   0  0  0  0  0  0  0  0  0  0  0  0
  -14.2357    3.4145  -18.4445 C   0  0  0  0  0  0  0  0  0  0  0  0
 28 29  1  0  0  0
 29 30  1  0  0  0
 29  1  1  0  0  0
  1  2  1  0  0  0
  1 10  1  0  0  0
  2  3  2  0  0  0
  3 13  1  0  0  0
  3  4  1  0  0  0
 13 14  1  0  0  0
 13 18  2  0  0  0
 14 15  2  0  0  0
 15 16  1  0  0  0
 16 19  1  0  0  0
 16 17  2  0  0  0
 19 20  1  0  0  0
 20 21  1  0  0  0
 20 25  2  0  0  0
 21 22  2  0  0  0
 22 23  1  0  0  0
 23 26  1  0  0  0
 23 24  2  0  0  0
 26 27  3  0  0  0
 24 25  1  0  0  0
 17 18  1  0  0  0
  4  5  1  0  0  0
  4 10  2  0  0  0
  5  6  1  0  0  0
  5  7  2  0  0  0
  6 11  1  0  0  0
  6 12  1  0  0  0
  7  8  1  0  0  0
  8  9  2  0  0  0
  9 10  1  0  0  0
M  END
> <minimizedAffinity>
-8.55433

$$$$
