CHEMBL365178


 31 33  0  0  0  0  0  0  0  0999 V2000
  -13.1790   -2.4078  -12.6384 C   0  0  0  0  0  0  0  0  0  0  0  0
  -12.2659   -1.5882  -13.2667 C   0  0  0  0  0  0  0  0  0  0  0  0
  -12.9231   -0.7395  -14.0888 N   0  0  0  0  0  0  0  0  0  0  0  0
  -12.3018    0.1738  -14.8468 N   0  0  0  0  0  0  0  0  0  0  0  0
  -13.0959    0.9167  -15.5248 C   0  0  0  0  0  0  0  0  0  0  0  0
  -14.4614    0.8794  -15.5027 N   0  0  0  0  0  0  0  0  0  0  0  0
  -15.0816   -0.0276  -14.7921 C   0  0  0  0  0  0  0  0  0  0  0  0
  -14.2776   -0.9341  -14.0004 C   0  0  0  0  0  0  0  0  0  0  0  0
  -14.5028   -1.9814  -13.0875 C   0  0  0  0  0  0  0  0  0  0  0  0
  -15.7730   -2.5918  -12.5035 C   0  0  0  0  0  0  0  0  0  0  0  0
  -16.1232   -3.9245  -13.1735 C   0  0  0  0  0  0  0  0  0  0  0  0
  -15.8709   -2.7149  -10.9903 C   0  0  0  0  0  0  0  0  0  0  0  0
  -12.8026   -3.4207  -11.6476 C   0  0  0  0  0  0  0  0  0  0  0  0
  -12.4276   -3.1666  -10.5102 O   0  0  0  0  0  0  0  0  0  0  0  0
  -12.8190   -4.6778  -12.1815 O   0  0  0  0  0  0  0  0  0  0  0  0
  -14.1855   -6.3516  -11.1736 C   0  0  0  0  0  0  0  0  0  0  0  0
  -12.7937   -5.7450  -11.2285 C   0  0  0  0  0  0  0  0  0  0  0  0
  -16.4584   -0.0758  -14.8514 N   0  0  0  0  0  0  0  0  0  0  0  0
  -16.7879   -0.8706  -15.3924 H   0  0  0  0  0  0  0  0  0  0  0  0
  -17.2926    1.0602  -14.9939 C   0  0  0  0  0  0  0  0  0  0  0  0
  -16.8527    2.1815  -15.7054 C   0  0  0  0  0  0  0  0  0  0  0  0
  -17.7090    3.2626  -15.9440 C   0  0  0  0  0  0  0  0  0  0  0  0
  -19.0300    3.2254  -15.4941 C   0  0  0  0  0  0  0  0  0  0  0  0
  -19.4874    2.1098  -14.7881 C   0  0  0  0  0  0  0  0  0  0  0  0
  -18.6181    1.0365  -14.5474 C   0  0  0  0  0  0  0  0  0  0  0  0
  -20.9187    2.0204  -14.3933 C   0  0  0  0  0  0  0  0  0  0  0  0
  -21.5619    3.0457  -14.2010 O   0  0  0  0  0  0  0  0  0  0  0  0
  -21.4139    0.7377  -14.3155 N   0  0  0  0  0  0  0  0  0  0  0  0
  -20.8066   -0.0439  -14.0969 H   0  0  0  0  0  0  0  0  0  0  0  0
  -22.7504    0.6072  -13.8826 O   0  0  0  0  0  0  0  0  0  0  0  0
  -22.7369   -0.1942  -12.7029 C   0  0  0  0  0  0  0  0  0  0  0  0
 16 17  1  0  0  0
 17 15  1  0  0  0
 15 13  1  0  0  0
 13 14  2  0  0  0
 13  1  1  0  0  0
  1  2  2  0  0  0
  1  9  1  0  0  0
  2  3  1  0  0  0
  3  4  1  0  0  0
  3  8  1  0  0  0
  4  5  2  0  0  0
  5  6  1  0  0  0
  6  7  2  0  0  0
  7 18  1  0  0  0
  7  8  1  0  0  0
 18 20  1  0  0  0
 18 19  1  0  0  0
 20 21  1  0  0  0
 20 25  2  0  0  0
 21 22  2  0  0  0
 22 23  1  0  0  0
 23 24  2  0  0  0
 24 26  1  0  0  0
 24 25  1  0  0  0
 26 27  2  0  0  0
 26 28  1  0  0  0
 28 30  1  0  0  0
 28 29  1  0  0  0
 30 31  1  0  0  0
  8  9  2  0  0  0
  9 10  1  0  0  0
 10 11  1  0  0  0
 10 12  1  0  0  0
M  END
> <minimizedAffinity>
-7.81704

$$$$
