CHEMBL3985264


 35 37  0  0  0  0  0  0  0  0999 V2000
  -25.9853   -2.0910  -12.0924 C   0  0  0  0  0  0  0  0  0  0  0  0
  -26.9381   -2.2147  -13.1068 C   0  0  0  0  0  0  0  0  0  0  0  0
  -26.7147   -1.6234  -14.3517 C   0  0  0  0  0  0  0  0  0  0  0  0
  -25.5236   -0.9382  -14.5992 C   0  0  0  0  0  0  0  0  0  0  0  0
  -24.5548   -0.8191  -13.5972 C   0  0  0  0  0  0  0  0  0  0  0  0
  -24.7876   -1.3998  -12.3448 C   0  0  0  0  0  0  0  0  0  0  0  0
  -27.2884   -2.6752   -8.7449 N   0  0  0  0  0  0  0  0  0  0  0  0
  -27.1025   -1.9716   -9.9288 C   0  0  0  0  0  0  0  0  0  0  0  0
  -27.6417   -0.9149  -10.2302 O   0  0  0  0  0  0  0  0  0  0  0  0
  -26.2762   -2.6549  -10.8198 N   0  0  0  0  0  0  0  0  0  0  0  0
  -26.8670   -3.5900   -8.6870 H   0  0  0  0  0  0  0  0  0  0  0  0
  -26.4000   -3.6563  -10.8075 H   0  0  0  0  0  0  0  0  0  0  0  0
  -28.3721    0.6840   -5.2485 C   0  0  0  0  0  0  0  0  0  0  0  0
  -28.6457   -0.6302   -5.9245 C   0  0  0  0  0  0  0  0  0  0  0  0
  -29.6687   -1.4499   -5.4399 C   0  0  0  0  0  0  0  0  0  0  0  0
  -29.9543   -2.6497   -6.0768 C   0  0  0  0  0  0  0  0  0  0  0  0
  -29.2142   -3.0499   -7.1867 C   0  0  0  0  0  0  0  0  0  0  0  0
  -29.6521   -4.1505   -7.8078 F   0  0  0  0  0  0  0  0  0  0  0  0
  -28.1390   -2.2887   -7.6684 C   0  0  0  0  0  0  0  0  0  0  0  0
  -27.8848   -1.0544   -7.0369 C   0  0  0  0  0  0  0  0  0  0  0  0
  -23.3331   -0.1094  -13.8885 C   0  0  0  0  0  0  0  0  0  0  0  0
  -22.3626    0.5712  -14.0899 C   0  0  0  0  0  0  0  0  0  0  0  0
  -21.2877    1.4872  -14.3172 C   0  0  0  0  0  0  0  0  0  0  0  0
  -21.5110    2.8569  -14.3963 C   0  0  0  0  0  0  0  0  0  0  0  0
  -20.5494    3.7635  -14.7027 N   0  0  0  0  0  0  0  0  0  0  0  0
  -19.3112    3.2704  -14.9719 C   0  0  0  0  0  0  0  0  0  0  0  0
  -18.9924    1.9196  -14.9304 C   0  0  0  0  0  0  0  0  0  0  0  0
  -20.0001    1.0169  -14.5687 C   0  0  0  0  0  0  0  0  0  0  0  0
  -17.6391    1.4398  -15.3245 C   0  0  0  0  0  0  0  0  0  0  0  0
  -16.9931    2.1552  -16.0848 O   0  0  0  0  0  0  0  0  0  0  0  0
  -17.1757    0.1827  -14.9037 N   0  0  0  0  0  0  0  0  0  0  0  0
  -15.9684    0.0537  -13.9545 S   0  0  0  0  0  0  0  0  0  0  0  0
  -14.4631    0.1485  -14.9009 C   0  0  0  0  0  0  0  0  0  0  0  0
  -15.9510   -1.6435  -13.4229 C   0  0  0  0  0  0  0  0  0  0  0  0
  -15.7795    0.8508  -12.7580 O   0  0  0  0  0  0  0  0  0  0  0  0
 13 14  1  0  0  0
 14 15  1  0  0  0
 14 20  2  0  0  0
 15 16  2  0  0  0
 16 17  1  0  0  0
 17 18  1  0  0  0
 17 19  2  0  0  0
 19  7  1  0  0  0
 19 20  1  0  0  0
  7  8  1  0  0  0
  7 11  1  0  0  0
  8  9  2  0  0  0
  8 10  1  0  0  0
 10  1  1  0  0  0
 10 12  1  0  0  0
  1  2  1  0  0  0
  1  6  2  0  0  0
  2  3  2  0  0  0
  3  4  1  0  0  0
  4  5  2  0  0  0
  5 21  1  0  0  0
  5  6  1  0  0  0
 21 22  3  0  0  0
 22 23  1  0  0  0
 23 24  1  0  0  0
 23 28  2  0  0  0
 24 25  2  0  0  0
 25 26  1  0  0  0
 26 27  2  0  0  0
 27 29  1  0  0  0
 27 28  1  0  0  0
 29 30  2  0  0  0
 29 31  1  0  0  0
 31 32  2  0  0  0
 32 33  1  0  0  0
 32 34  1  0  0  0
 32 35  2  0  0  0
M  END
> <minimizedAffinity>
-11.82411

$$$$
