CHEMBL3982880


 40 44  0  0  0  0  0  0  0  0999 V2000
  -19.6659    1.0116  -14.9939 C   0  0  0  0  0  0  0  0  0  0  0  0
  -18.5081    0.2248  -14.8872 C   0  0  0  0  0  0  0  0  0  0  0  0
  -17.2197    0.7773  -14.9550 C   0  0  0  0  0  0  0  0  0  0  0  0
  -17.1131    2.1574  -15.1522 C   0  0  0  0  0  0  0  0  0  0  0  0
  -15.8952    2.7262  -15.2238 F   0  0  0  0  0  0  0  0  0  0  0  0
  -18.2312    2.9641  -15.3138 C   0  0  0  0  0  0  0  0  0  0  0  0
  -19.5197    2.4021  -15.2441 C   0  0  0  0  0  0  0  0  0  0  0  0
  -20.6723    3.3395  -15.5010 C   0  0  0  0  0  0  0  0  0  0  0  0
  -21.8529    0.4322  -13.7848 C   0  0  0  0  0  0  0  0  0  0  0  0
  -21.6543    0.9625  -12.7044 O   0  0  0  0  0  0  0  0  0  0  0  0
  -20.9720    0.4530  -14.8795 N   0  0  0  0  0  0  0  0  0  0  0  0
  -21.3538    0.0934  -15.7363 H   0  0  0  0  0  0  0  0  0  0  0  0
  -23.6126   -1.4128  -13.4514 N   0  0  0  0  0  0  0  0  0  0  0  0
  -24.7895   -1.8172  -13.9851 N   0  0  0  0  0  0  0  0  0  0  0  0
  -25.0394   -0.9527  -14.9656 C   0  0  0  0  0  0  0  0  0  0  0  0
  -26.2946   -1.0288  -15.7472 C   0  0  0  0  0  0  0  0  0  0  0  0
  -23.9998   -0.0198  -15.1010 C   0  0  0  0  0  0  0  0  0  0  0  0
  -23.0904   -0.2890  -14.0872 C   0  0  0  0  0  0  0  0  0  0  0  0
  -23.4602   -1.6390  -10.9253 C   0  0  0  0  0  0  0  0  0  0  0  0
  -23.0868   -2.1675  -12.3206 C   0  0  0  0  0  0  0  0  0  0  0  0
  -16.0238    0.0376  -14.8690 N   0  0  0  0  0  0  0  0  0  0  0  0
  -15.3606    0.3354  -15.5824 H   0  0  0  0  0  0  0  0  0  0  0  0
  -15.4969   -0.9517  -14.0187 C   0  0  0  0  0  0  0  0  0  0  0  0
  -14.4512   -1.8185  -14.3452 C   0  0  0  0  0  0  0  0  0  0  0  0
  -13.9645   -2.7842  -13.4381 C   0  0  0  0  0  0  0  0  0  0  0  0
  -14.5997   -2.9328  -12.1912 C   0  0  0  0  0  0  0  0  0  0  0  0
  -14.5476   -3.8405  -11.0852 C   0  0  0  0  0  0  0  0  0  0  0  0
  -15.4067   -3.4785  -10.1179 N   0  0  0  0  0  0  0  0  0  0  0  0
  -16.0167   -2.3938  -10.6127 N   0  0  0  0  0  0  0  0  0  0  0  0
  -15.6066   -2.0378  -11.8649 C   0  0  0  0  0  0  0  0  0  0  0  0
  -16.0493   -1.0293  -12.7256 C   0  0  0  0  0  0  0  0  0  0  0  0
  -16.7452   -1.9603  -10.0601 H   0  0  0  0  0  0  0  0  0  0  0  0
  -13.7559   -5.0352  -11.0299 C   0  0  0  0  0  0  0  0  0  0  0  0
  -13.9591   -6.1245  -11.7948 C   0  0  0  0  0  0  0  0  0  0  0  0
  -13.1033   -7.3173  -11.7649 C   0  0  0  0  0  0  0  0  0  0  0  0
  -13.5215   -8.5046  -12.3604 C   0  0  0  0  0  0  0  0  0  0  0  0
  -12.6848   -9.6188  -12.3025 C   0  0  0  0  0  0  0  0  0  0  0  0
  -11.4566   -9.5158  -11.6621 C   0  0  0  0  0  0  0  0  0  0  0  0
  -11.1141   -8.2965  -11.1054 C   0  0  0  0  0  0  0  0  0  0  0  0
  -11.9059   -7.2031  -11.1420 N   0  0  0  0  0  0  0  0  0  0  0  0
 19 20  1  0  0  0
 20 13  1  0  0  0
 13 14  1  0  0  0
 13 18  1  0  0  0
 14 15  2  0  0  0
 15 16  1  0  0  0
 15 17  1  0  0  0
 17 18  2  0  0  0
 18  9  1  0  0  0
  9 10  2  0  0  0
  9 11  1  0  0  0
 11  1  1  0  0  0
 11 12  1  0  0  0
  1  2  1  0  0  0
  1  7  2  0  0  0
  2  3  2  0  0  0
  3 21  1  0  0  0
  3  4  1  0  0  0
 21 23  1  0  0  0
 21 22  1  0  0  0
 23 24  1  0  0  0
 23 31  2  0  0  0
 24 25  2  0  0  0
 25 26  1  0  0  0
 26 27  1  0  0  0
 26 30  2  0  0  0
 27 33  1  0  0  0
 27 28  2  0  0  0
 33 34  2  0  0  0
 34 35  1  0  0  0
 35 36  1  0  0  0
 35 40  2  0  0  0
 36 37  2  0  0  0
 37 38  1  0  0  0
 38 39  2  0  0  0
 39 40  1  0  0  0
 28 29  1  0  0  0
 29 30  1  0  0  0
 29 32  1  0  0  0
 30 31  1  0  0  0
  4  5  1  0  0  0
  4  6  2  0  0  0
  6  7  1  0  0  0
  7  8  1  0  0  0
M  END
> <minimizedAffinity>
-8.59331

$$$$
