CHEMBL3753208


 29 31  0  0  0  0  0  0  0  0999 V2000
  -29.1735   -6.3339   -5.4193 C   0  0  0  0  0  0  0  0  0  0  0  0
  -28.7245   -6.9704   -6.5902 C   0  0  0  0  0  0  0  0  0  0  0  0
  -29.5130   -7.8801   -7.3151 C   0  0  0  0  0  0  0  0  0  0  0  0
  -30.8110   -8.1046   -6.8424 C   0  0  0  0  0  0  0  0  0  0  0  0
  -31.2996   -7.4156   -5.7221 C   0  0  0  0  0  0  0  0  0  0  0  0
  -30.5068   -6.4975   -5.0219 C   0  0  0  0  0  0  0  0  0  0  0  0
  -27.0887   -3.7216   -4.1816 O   0  0  0  0  0  0  0  0  0  0  0  0
  -28.0296   -4.1882   -4.8161 C   0  0  0  0  0  0  0  0  0  0  0  0
  -28.8268   -3.4833   -5.6738 N   0  0  0  0  0  0  0  0  0  0  0  0
  -28.2727   -5.5336   -4.6992 N   0  0  0  0  0  0  0  0  0  0  0  0
  -29.7903   -3.7607   -5.7200 H   0  0  0  0  0  0  0  0  0  0  0  0
  -27.5278   -5.9842   -4.1852 H   0  0  0  0  0  0  0  0  0  0  0  0
  -28.7086   -2.1022   -5.8237 C   0  0  0  0  0  0  0  0  0  0  0  0
  -29.3819   -1.2110   -4.9940 C   0  0  0  0  0  0  0  0  0  0  0  0
  -29.2367    0.1478   -5.2329 C   0  0  0  0  0  0  0  0  0  0  0  0
  -28.4554    0.5679   -6.3048 C   0  0  0  0  0  0  0  0  0  0  0  0
  -27.8076   -0.3948   -7.0582 C   0  0  0  0  0  0  0  0  0  0  0  0
  -27.8792   -1.7206   -6.8125 N   0  0  0  0  0  0  0  0  0  0  0  0
  -28.9745   -8.5578   -8.5139 C   0  0  0  0  0  0  0  0  0  0  0  0
  -29.7472   -9.4587   -9.2664 C   0  0  0  0  0  0  0  0  0  0  0  0
  -29.2013  -10.1331  -10.3573 C   0  0  0  0  0  0  0  0  0  0  0  0
  -27.8869   -9.8750  -10.6947 C   0  0  0  0  0  0  0  0  0  0  0  0
  -27.1053   -9.0026  -10.0270 N   0  0  0  0  0  0  0  0  0  0  0  0
  -27.6644   -8.3745   -8.9611 C   0  0  0  0  0  0  0  0  0  0  0  0
  -31.1271   -5.9948   -3.9215 O   0  0  0  0  0  0  0  0  0  0  0  0
  -31.5513   -4.6417   -3.8788 C   0  0  0  0  0  0  0  0  0  0  0  0
  -31.6269   -4.0605   -5.0948 F   0  0  0  0  0  0  0  0  0  0  0  0
  -32.7776   -4.5886   -3.3179 F   0  0  0  0  0  0  0  0  0  0  0  0
  -30.6995   -3.9312   -3.1117 F   0  0  0  0  0  0  0  0  0  0  0  0
  7  8  2  0  0  0
  8  9  1  0  0  0
  8 10  1  0  0  0
  9 13  1  0  0  0
  9 11  1  0  0  0
 13 14  1  0  0  0
 13 18  2  0  0  0
 14 15  2  0  0  0
 15 16  1  0  0  0
 16 17  2  0  0  0
 17 18  1  0  0  0
 10  1  1  0  0  0
 10 12  1  0  0  0
  1  2  1  0  0  0
  1  6  2  0  0  0
  2  3  2  0  0  0
  3 19  1  0  0  0
  3  4  1  0  0  0
 19 20  1  0  0  0
 19 24  2  0  0  0
 20 21  2  0  0  0
 21 22  1  0  0  0
 22 23  2  0  0  0
 23 24  1  0  0  0
  4  5  2  0  0  0
  5  6  1  0  0  0
  6 25  1  0  0  0
 25 26  1  0  0  0
 26 27  1  0  0  0
 26 28  1  0  0  0
 26 29  1  0  0  0
M  END
> <minimizedAffinity>
-8.36120

$$$$
