CHEMBL4240958


 24 27  0  0  0  0  0  0  0  0999 V2000
  -16.0295    0.7057  -15.0967 C   0  0  0  0  0  0  0  0  0  0  0  0
  -14.8211    0.9074  -15.6690 N   0  0  0  0  0  0  0  0  0  0  0  0
  -13.8261    0.0812  -15.3168 C   0  0  0  0  0  0  0  0  0  0  0  0
  -13.9878   -0.9467  -14.4305 C   0  0  0  0  0  0  0  0  0  0  0  0
  -15.1995   -0.9894  -13.7784 C   0  0  0  0  0  0  0  0  0  0  0  0
  -16.2177   -0.1584  -14.0867 N   0  0  0  0  0  0  0  0  0  0  0  0
  -15.4786   -2.1333  -12.8891 C   0  0  0  0  0  0  0  0  0  0  0  0
  -15.8316   -2.0057  -11.5420 C   0  0  0  0  0  0  0  0  0  0  0  0
  -16.0157   -3.1482  -10.7507 C   0  0  0  0  0  0  0  0  0  0  0  0
  -15.9600   -4.4222  -11.3214 C   0  0  0  0  0  0  0  0  0  0  0  0
  -15.5645   -4.5714  -12.6459 C   0  0  0  0  0  0  0  0  0  0  0  0
  -15.2061   -3.4358  -13.3701 C   0  0  0  0  0  0  0  0  0  0  0  0
  -14.0057   -3.6289  -14.7134 S   0  0  0  0  0  0  0  0  0  0  0  0
  -13.0481   -2.0981  -14.2981 C   0  0  0  0  0  0  0  0  0  0  0  0
  -17.0672    1.3969  -15.7160 N   0  0  0  0  0  0  0  0  0  0  0  0
  -16.8785    1.4479  -16.7092 H   0  0  0  0  0  0  0  0  0  0  0  0
  -20.6672    1.2662  -14.7806 C   0  0  0  0  0  0  0  0  0  0  0  0
  -20.9936    2.6188  -14.7459 C   0  0  0  0  0  0  0  0  0  0  0  0
  -19.9981    3.5745  -14.9391 C   0  0  0  0  0  0  0  0  0  0  0  0
  -18.6831    3.1851  -15.2082 C   0  0  0  0  0  0  0  0  0  0  0  0
  -18.3335    1.8372  -15.3029 C   0  0  0  0  0  0  0  0  0  0  0  0
  -19.3434    0.8876  -15.0518 C   0  0  0  0  0  0  0  0  0  0  0  0
  -22.6956    0.5100  -13.7963 C   0  0  0  0  0  0  0  0  0  0  0  0
  -21.5412    0.2303  -14.5819 O   0  0  0  0  0  0  0  0  0  0  0  0
 23 24  1  0  0  0
 24 17  1  0  0  0
 17 18  1  0  0  0
 17 22  2  0  0  0
 18 19  2  0  0  0
 19 20  1  0  0  0
 20 21  2  0  0  0
 21 15  1  0  0  0
 21 22  1  0  0  0
 15  1  1  0  0  0
 15 16  1  0  0  0
  1  2  1  0  0  0
  1  6  2  0  0  0
  2  3  2  0  0  0
  3  4  1  0  0  0
  4  5  2  0  0  0
  4 14  1  0  0  0
  5  6  1  0  0  0
  5  7  1  0  0  0
  7  8  1  0  0  0
  7 12  2  0  0  0
  8  9  2  0  0  0
  9 10  1  0  0  0
 10 11  2  0  0  0
 11 12  1  0  0  0
 12 13  1  0  0  0
 13 14  1  0  0  0
M  END
> <minimizedAffinity>
-8.46083

$$$$
