CHEMBL3809754


 33 37  0  0  0  0  0  0  0  0999 V2000
  -27.2820   -1.6358   -8.7425 N   0  0  0  0  0  0  0  0  0  0  0  0
  -28.3447   -2.4361   -8.3861 C   0  0  0  0  0  0  0  0  0  0  0  0
  -29.0505   -3.1737   -9.0536 O   0  0  0  0  0  0  0  0  0  0  0  0
  -28.5006   -2.4459   -6.9877 N   0  0  0  0  0  0  0  0  0  0  0  0
  -28.5103   -1.3470   -6.1378 C   0  0  0  0  0  0  0  0  0  0  0  0
  -28.7837   -1.7762   -4.8578 C   0  0  0  0  0  0  0  0  0  0  0  0
  -28.8519   -3.1879   -4.8998 C   0  0  0  0  0  0  0  0  0  0  0  0
  -29.0536   -4.0531   -3.8832 N   0  0  0  0  0  0  0  0  0  0  0  0
  -28.9136   -5.3577   -4.2198 C   0  0  0  0  0  0  0  0  0  0  0  0
  -28.5930   -5.8481   -5.4859 C   0  0  0  0  0  0  0  0  0  0  0  0
  -28.5363   -4.9509   -6.5435 C   0  0  0  0  0  0  0  0  0  0  0  0
  -28.6481   -3.5919   -6.2160 C   0  0  0  0  0  0  0  0  0  0  0  0
  -26.6522   -1.2914   -8.0290 H   0  0  0  0  0  0  0  0  0  0  0  0
  -25.5549   -1.3859  -11.8439 C   0  0  0  0  0  0  0  0  0  0  0  0
  -25.5055   -1.4653  -10.4701 C   0  0  0  0  0  0  0  0  0  0  0  0
  -26.8605   -1.5201  -10.0553 C   0  0  0  0  0  0  0  0  0  0  0  0
  -27.6686   -1.4504  -11.1147 N   0  0  0  0  0  0  0  0  0  0  0  0
  -26.8606   -1.3671  -12.2225 O   0  0  0  0  0  0  0  0  0  0  0  0
  -25.2084   -1.5723  -14.2977 C   0  0  0  0  0  0  0  0  0  0  0  0
  -24.5232   -1.3412  -12.9398 C   0  0  0  0  0  0  0  0  0  0  0  0
  -23.4703   -2.4375  -12.7053 C   0  0  0  0  0  0  0  0  0  0  0  0
  -23.8014    0.0214  -12.9858 C   0  0  0  0  0  0  0  0  0  0  0  0
  -28.3316   -7.1710   -5.7765 O   0  0  0  0  0  0  0  0  0  0  0  0
  -29.3746   -7.8815   -6.3495 C   0  0  0  0  0  0  0  0  0  0  0  0
  -30.6405   -7.5953   -5.9742 N   0  0  0  0  0  0  0  0  0  0  0  0
  -31.6150   -8.0406   -6.7902 C   0  0  0  0  0  0  0  0  0  0  0  0
  -31.4413   -8.7053   -7.9444 N   0  0  0  0  0  0  0  0  0  0  0  0
  -30.1631   -8.9983   -8.2145 C   0  0  0  0  0  0  0  0  0  0  0  0
  -29.0929   -8.6703   -7.4189 C   0  0  0  0  0  0  0  0  0  0  0  0
  -27.8349   -9.1014   -8.0617 C   0  0  0  0  0  0  0  0  0  0  0  0
  -28.1674   -9.1070   -9.5058 N   0  0  0  0  0  0  0  0  0  0  0  0
  -29.6199   -9.4713   -9.5409 C   0  0  0  0  0  0  0  0  0  0  0  0
  -28.1086   -8.1323   -9.8124 H   0  0  0  0  0  0  0  0  0  0  0  0
 19 20  1  0  0  0
 20 21  1  0  0  0
 20 22  1  0  0  0
 20 14  1  0  0  0
 14 15  2  0  0  0
 14 18  1  0  0  0
 15 16  1  0  0  0
 16  1  1  0  0  0
 16 17  2  0  0  0
  1  2  1  0  0  0
  1 13  1  0  0  0
  2  3  2  0  0  0
  2  4  1  0  0  0
  4  5  1  0  0  0
  4 12  1  0  0  0
  5  6  2  0  0  0
  6  7  1  0  0  0
  7  8  1  0  0  0
  7 12  2  0  0  0
  8  9  2  0  0  0
  9 10  1  0  0  0
 10 23  1  0  0  0
 10 11  2  0  0  0
 23 24  1  0  0  0
 24 25  1  0  0  0
 24 29  2  0  0  0
 25 26  2  0  0  0
 26 27  1  0  0  0
 27 28  2  0  0  0
 28 29  1  0  0  0
 28 32  1  0  0  0
 29 30  1  0  0  0
 30 31  1  0  0  0
 31 32  1  0  0  0
 31 33  1  0  0  0
 11 12  1  0  0  0
 17 18  1  0  0  0
M  END
> <minimizedAffinity>
-9.59321

$$$$
