CHEMBL4542816


 40 44  0  0  0  0  0  0  0  0999 V2000
  -27.9381   -3.1053   -7.8088 C   0  0  0  0  0  0  0  0  0  0  0  0
  -27.2237   -2.3246   -6.7598 C   0  0  0  0  0  0  0  0  0  0  0  0
  -27.5447   -0.9323   -6.3969 C   0  0  0  0  0  0  0  0  0  0  0  0
  -27.5257   -0.2228   -5.0855 C   0  0  0  0  0  0  0  0  0  0  0  0
  -28.6029   -0.4960   -4.2488 C   0  0  0  0  0  0  0  0  0  0  0  0
  -29.6745   -1.0616   -4.9249 C   0  0  0  0  0  0  0  0  0  0  0  0
  -29.6874   -0.8037   -6.4100 C   0  0  0  0  0  0  0  0  0  0  0  0
  -28.5386   -0.6542   -7.2407 C   0  0  0  0  0  0  0  0  0  0  0  0
  -28.3905   -1.0219   -8.6180 N   0  0  0  0  0  0  0  0  0  0  0  0
  -27.8750   -2.2609   -8.8902 C   0  0  0  0  0  0  0  0  0  0  0  0
  -29.7927   -7.4519   -7.4588 C   0  0  0  0  0  0  0  0  0  0  0  0
  -28.6583   -6.7532   -7.6951 C   0  0  0  0  0  0  0  0  0  0  0  0
  -28.6330   -5.2853   -7.9122 C   0  0  0  0  0  0  0  0  0  0  0  0
  -29.3307   -4.1062   -7.5597 C   0  0  0  0  0  0  0  0  0  0  0  0
  -30.4446   -4.9621   -7.3631 C   0  0  0  0  0  0  0  0  0  0  0  0
  -30.7828   -6.5262   -7.3459 C   0  0  0  0  0  0  0  0  0  0  0  0
  -29.6580   -9.5257   -8.8373 C   0  0  0  0  0  0  0  0  0  0  0  0
  -29.6959   -8.8025   -7.5990 O   0  0  0  0  0  0  0  0  0  0  0  0
  -29.6845   -2.3762   -4.3517 O   0  0  0  0  0  0  0  0  0  0  0  0
  -29.2928   -2.7895   -3.0473 C   0  0  0  0  0  0  0  0  0  0  0  0
  -27.3019   -2.7374  -10.1232 N   0  0  0  0  0  0  0  0  0  0  0  0
  -26.9005   -3.6642   -9.9652 H   0  0  0  0  0  0  0  0  0  0  0  0
  -26.5373   -1.9842  -11.0490 C   0  0  0  0  0  0  0  0  0  0  0  0
  -26.8305   -1.9874  -12.4164 C   0  0  0  0  0  0  0  0  0  0  0  0
  -25.9202   -1.4731  -13.3461 C   0  0  0  0  0  0  0  0  0  0  0  0
  -24.7642   -0.8122  -12.9468 C   0  0  0  0  0  0  0  0  0  0  0  0
  -24.5663   -0.6302  -11.5731 C   0  0  0  0  0  0  0  0  0  0  0  0
  -25.4521   -1.2059  -10.6385 C   0  0  0  0  0  0  0  0  0  0  0  0
  -23.8129   -0.3417  -13.8870 N   0  0  0  0  0  0  0  0  0  0  0  0
  -22.5384    0.1319  -13.5849 C   0  0  0  0  0  0  0  0  0  0  0  0
  -22.0094    0.1384  -12.4723 O   0  0  0  0  0  0  0  0  0  0  0  0
  -24.1038   -0.2605  -14.8563 H   0  0  0  0  0  0  0  0  0  0  0  0
  -21.7021    0.6431  -14.7566 C   0  0  0  0  0  0  0  0  0  0  0  0
  -20.4410    1.2881  -14.3696 N   0  0  0  0  0  0  0  0  0  0  0  0
  -19.2616    0.7485  -15.0784 C   0  0  0  0  0  0  0  0  0  0  0  0
  -18.0124    1.4116  -14.4582 C   0  0  0  0  0  0  0  0  0  0  0  0
  -17.9529    2.8668  -14.7075 N   0  0  0  0  0  0  0  0  0  0  0  0
  -17.7002    3.1158  -16.1270 C   0  0  0  0  0  0  0  0  0  0  0  0
  -19.2246    3.4884  -14.2675 C   0  0  0  0  0  0  0  0  0  0  0  0
  -20.5106    2.7391  -14.7035 C   0  0  0  0  0  0  0  0  0  0  0  0
 17 18  1  0  0  0
 18 11  1  0  0  0
 11 12  1  0  0  0
 11 16  2  0  0  0
 12 13  2  0  0  0
 13 14  1  0  0  0
 14  1  1  0  0  0
 14 15  2  0  0  0
  1  2  1  0  0  0
  1 10  2  0  0  0
  2  3  2  0  0  0
  3  4  1  0  0  0
  3  8  1  0  0  0
  4  5  2  0  0  0
  5  6  1  0  0  0
  6 19  1  0  0  0
  6  7  2  0  0  0
 19 20  1  0  0  0
  7  8  1  0  0  0
  8  9  2  0  0  0
  9 10  1  0  0  0
 10 21  1  0  0  0
 21 23  1  0  0  0
 21 22  1  0  0  0
 23 24  1  0  0  0
 23 28  2  0  0  0
 24 25  2  0  0  0
 25 26  1  0  0  0
 26 29  1  0  0  0
 26 27  2  0  0  0
 29 30  1  0  0  0
 29 32  1  0  0  0
 30 31  2  0  0  0
 30 33  1  0  0  0
 33 34  1  0  0  0
 34 35  1  0  0  0
 34 40  1  0  0  0
 35 36  1  0  0  0
 36 37  1  0  0  0
 37 38  1  0  0  0
 37 39  1  0  0  0
 39 40  1  0  0  0
 27 28  1  0  0  0
 15 16  1  0  0  0
M  END
> <minimizedAffinity>
-9.70133

$$$$
