CHEMBL2031908


 43 47  0  0  0  0  0  0  0  0999 V2000
  -17.0377    2.9873  -15.0662 N   0  0  0  0  0  0  0  0  0  0  0  0
  -15.9020    2.3354  -15.5291 C   0  0  0  0  0  0  0  0  0  0  0  0
  -15.8956    1.2120  -16.0322 O   0  0  0  0  0  0  0  0  0  0  0  0
  -16.9419    3.9648  -14.8167 H   0  0  0  0  0  0  0  0  0  0  0  0
  -20.9485    1.2439  -15.0178 C   0  0  0  0  0  0  0  0  0  0  0  0
  -20.7763    2.5933  -14.7297 C   0  0  0  0  0  0  0  0  0  0  0  0
  -19.5032    3.1718  -14.7899 C   0  0  0  0  0  0  0  0  0  0  0  0
  -18.3467    2.4157  -15.0234 C   0  0  0  0  0  0  0  0  0  0  0  0
  -18.5117    1.0411  -15.2251 C   0  0  0  0  0  0  0  0  0  0  0  0
  -19.8000    0.4713  -15.2302 C   0  0  0  0  0  0  0  0  0  0  0  0
  -19.9192   -0.8423  -15.4749 F   0  0  0  0  0  0  0  0  0  0  0  0
  -22.1770    0.6245  -15.1482 O   0  0  0  0  0  0  0  0  0  0  0  0
  -26.6352   -1.7298  -13.9483 C   0  0  0  0  0  0  0  0  0  0  0  0
  -26.1212   -1.3139  -15.1665 C   0  0  0  0  0  0  0  0  0  0  0  0
  -24.8300   -0.8043  -15.2299 C   0  0  0  0  0  0  0  0  0  0  0  0
  -24.0591   -0.5948  -14.0659 C   0  0  0  0  0  0  0  0  0  0  0  0
  -22.8055    0.0645  -14.0445 C   0  0  0  0  0  0  0  0  0  0  0  0
  -22.0860    0.1364  -12.8530 C   0  0  0  0  0  0  0  0  0  0  0  0
  -22.6607   -0.3879  -11.7122 C   0  0  0  0  0  0  0  0  0  0  0  0
  -23.8874   -0.9476  -11.6800 N   0  0  0  0  0  0  0  0  0  0  0  0
  -24.5785   -1.0424  -12.8293 C   0  0  0  0  0  0  0  0  0  0  0  0
  -25.8550   -1.5947  -12.7964 C   0  0  0  0  0  0  0  0  0  0  0  0
  -28.4435   -2.0747  -12.4818 C   0  0  0  0  0  0  0  0  0  0  0  0
  -27.8832   -2.2652  -13.7794 O   0  0  0  0  0  0  0  0  0  0  0  0
  -14.6163    3.0673  -15.4879 C   0  0  0  0  0  0  0  0  0  0  0  0
  -13.4486    2.7191  -14.8765 C   0  0  0  0  0  0  0  0  0  0  0  0
  -12.3801    3.4685  -15.4283 N   0  0  0  0  0  0  0  0  0  0  0  0
  -11.0607    3.7488  -14.8754 C   0  0  0  0  0  0  0  0  0  0  0  0
  -12.9428    4.4172  -16.2999 N   0  0  0  0  0  0  0  0  0  0  0  0
  -14.3226    4.2778  -16.2970 C   0  0  0  0  0  0  0  0  0  0  0  0
  -15.1828    4.9571  -16.8363 O   0  0  0  0  0  0  0  0  0  0  0  0
  -13.2069    1.6333  -13.7976 C   0  0  0  0  0  0  0  0  0  0  0  0
  -12.4686    0.4192  -14.3882 C   0  0  0  0  0  0  0  0  0  0  0  0
  -12.4616    2.2262  -12.5810 C   0  0  0  0  0  0  0  0  0  0  0  0
  -14.4062    1.0616  -13.1722 N   0  0  0  0  0  0  0  0  0  0  0  0
  -15.0455    0.7238  -13.9047 H   0  0  0  0  0  0  0  0  0  0  0  0
  -14.9326    1.7683  -12.6655 H   0  0  0  0  0  0  0  0  0  0  0  0
  -12.1870    5.3979  -16.9590 C   0  0  0  0  0  0  0  0  0  0  0  0
  -11.5524    5.0938  -18.1660 C   0  0  0  0  0  0  0  0  0  0  0  0
  -10.8298    6.0807  -18.8422 C   0  0  0  0  0  0  0  0  0  0  0  0
  -10.7052    7.3551  -18.2959 C   0  0  0  0  0  0  0  0  0  0  0  0
  -11.3208    7.6593  -17.0804 C   0  0  0  0  0  0  0  0  0  0  0  0
  -12.0771    6.6835  -16.4216 C   0  0  0  0  0  0  0  0  0  0  0  0
 23 24  1  0  0  0
 24 13  1  0  0  0
 13 14  1  0  0  0
 13 22  2  0  0  0
 14 15  2  0  0  0
 15 16  1  0  0  0
 16 17  1  0  0  0
 16 21  2  0  0  0
 17 12  1  0  0  0
 17 18  2  0  0  0
 12  5  1  0  0  0
  5  6  1  0  0  0
  5 10  2  0  0  0
  6  7  2  0  0  0
  7  8  1  0  0  0
  8  1  1  0  0  0
  8  9  2  0  0  0
  1  2  1  0  0  0
  1  4  1  0  0  0
  2  3  2  0  0  0
  2 25  1  0  0  0
 25 26  2  0  0  0
 25 30  1  0  0  0
 26 32  1  0  0  0
 26 27  1  0  0  0
 32 33  1  0  0  0
 32 34  1  0  0  0
 32 35  1  0  0  0
 35 36  1  0  0  0
 35 37  1  0  0  0
 27 28  1  0  0  0
 27 29  1  0  0  0
 29 38  1  0  0  0
 29 30  1  0  0  0
 38 39  1  0  0  0
 38 43  2  0  0  0
 39 40  2  0  0  0
 40 41  1  0  0  0
 41 42  2  0  0  0
 42 43  1  0  0  0
 30 31  2  0  0  0
  9 10  1  0  0  0
 10 11  1  0  0  0
 18 19  1  0  0  0
 19 20  2  0  0  0
 20 21  1  0  0  0
 21 22  1  0  0  0
M  END
> <minimizedAffinity>
-8.88568

$$$$
