CHEMBL3109355


 30 33  0  0  0  0  0  0  0  0999 V2000
  -29.2099   -4.1567   -4.6701 C   0  0  0  0  0  0  0  0  0  0  0  0
  -29.8597   -3.4355   -3.6820 C   0  0  0  0  0  0  0  0  0  0  0  0
  -29.8693   -2.0514   -3.7707 C   0  0  0  0  0  0  0  0  0  0  0  0
  -29.2348   -1.4177   -4.8413 C   0  0  0  0  0  0  0  0  0  0  0  0
  -29.2590   -0.0193   -4.9398 C   0  0  0  0  0  0  0  0  0  0  0  0
  -28.6404    0.6181   -6.0059 C   0  0  0  0  0  0  0  0  0  0  0  0
  -27.9810   -0.1377   -6.9699 C   0  0  0  0  0  0  0  0  0  0  0  0
  -27.9354   -1.5378   -6.8700 C   0  0  0  0  0  0  0  0  0  0  0  0
  -28.5809   -2.2107   -5.8121 C   0  0  0  0  0  0  0  0  0  0  0  0
  -28.5799   -3.5651   -5.7093 N   0  0  0  0  0  0  0  0  0  0  0  0
  -29.0570   -8.5613   -7.5267 C   0  0  0  0  0  0  0  0  0  0  0  0
  -29.1075   -7.1815   -8.0013 C   0  0  0  0  0  0  0  0  0  0  0  0
  -29.1626   -6.1775   -7.1122 C   0  0  0  0  0  0  0  0  0  0  0  0
  -29.1710   -6.4570   -5.7468 N   0  0  0  0  0  0  0  0  0  0  0  0
  -29.1979   -5.6152   -4.6471 C   0  0  0  0  0  0  0  0  0  0  0  0
  -29.1806   -6.4798   -3.5631 C   0  0  0  0  0  0  0  0  0  0  0  0
  -29.1208   -7.7917   -3.9419 N   0  0  0  0  0  0  0  0  0  0  0  0
  -29.1149   -7.7632   -5.2559 C   0  0  0  0  0  0  0  0  0  0  0  0
  -29.0561   -8.8250   -6.2061 C   0  0  0  0  0  0  0  0  0  0  0  0
  -29.0030   -9.6110   -8.4280 O   0  0  0  0  0  0  0  0  0  0  0  0
  -30.1675   -9.8841   -9.1986 C   0  0  0  0  0  0  0  0  0  0  0  0
  -31.2756  -10.4037   -8.2984 C   0  0  0  0  0  0  0  0  0  0  0  0
  -32.7726   -8.8870   -7.3009 C   0  0  0  0  0  0  0  0  0  0  0  0
  -32.4321   -9.5878   -8.4880 O   0  0  0  0  0  0  0  0  0  0  0  0
  -27.3137   -2.3337   -7.8123 O   0  0  0  0  0  0  0  0  0  0  0  0
  -27.8303   -2.2727   -9.1470 C   0  0  0  0  0  0  0  0  0  0  0  0
  -26.7368   -1.7516  -10.0905 C   0  0  0  0  0  0  0  0  0  0  0  0
  -26.5572   -2.6330  -11.2481 N   0  0  0  0  0  0  0  0  0  0  0  0
  -26.2864   -3.5564  -10.8986 H   0  0  0  0  0  0  0  0  0  0  0  0
  -25.7767   -2.3021  -11.8123 H   0  0  0  0  0  0  0  0  0  0  0  0
 23 24  1  0  0  0
 24 22  1  0  0  0
 22 21  1  0  0  0
 21 20  1  0  0  0
 20 11  1  0  0  0
 11 12  1  0  0  0
 11 19  2  0  0  0
 12 13  2  0  0  0
 13 14  1  0  0  0
 14 15  1  0  0  0
 14 18  1  0  0  0
 15  1  1  0  0  0
 15 16  2  0  0  0
  1  2  1  0  0  0
  1 10  2  0  0  0
  2  3  2  0  0  0
  3  4  1  0  0  0
  4  5  1  0  0  0
  4  9  2  0  0  0
  5  6  2  0  0  0
  6  7  1  0  0  0
  7  8  2  0  0  0
  8 25  1  0  0  0
  8  9  1  0  0  0
 25 26  1  0  0  0
 26 27  1  0  0  0
 27 28  1  0  0  0
 28 29  1  0  0  0
 28 30  1  0  0  0
  9 10  1  0  0  0
 16 17  1  0  0  0
 17 18  2  0  0  0
 18 19  1  0  0  0
M  END
> <minimizedAffinity>
-8.40170

$$$$
