CHEMBL327518


 21 24  0  0  0  0  0  0  0  0999 V2000
  -19.5849    1.9347  -14.7550 C   0  0  0  0  0  0  0  0  0  0  0  0
  -20.0976    3.2264  -14.8273 C   0  0  0  0  0  0  0  0  0  0  0  0
  -21.3738    3.5653  -14.5216 N   0  0  0  0  0  0  0  0  0  0  0  0
  -22.1802    2.5618  -14.1007 C   0  0  0  0  0  0  0  0  0  0  0  0
  -21.7766    1.2365  -13.9640 C   0  0  0  0  0  0  0  0  0  0  0  0
  -20.4532    0.9337  -14.3061 C   0  0  0  0  0  0  0  0  0  0  0  0
  -14.8336    3.5765  -16.7549 C   0  0  0  0  0  0  0  0  0  0  0  0
  -15.9505    4.3841  -16.5750 C   0  0  0  0  0  0  0  0  0  0  0  0
  -17.1391    3.8524  -16.0601 C   0  0  0  0  0  0  0  0  0  0  0  0
  -17.1994    2.4883  -15.6977 C   0  0  0  0  0  0  0  0  0  0  0  0
  -18.2136    1.6337  -15.1471 C   0  0  0  0  0  0  0  0  0  0  0  0
  -17.6570    0.3709  -15.0416 C   0  0  0  0  0  0  0  0  0  0  0  0
  -16.3681    0.4271  -15.5032 N   0  0  0  0  0  0  0  0  0  0  0  0
  -16.0604    1.7060  -15.9015 C   0  0  0  0  0  0  0  0  0  0  0  0
  -14.8690    2.2179  -16.4295 C   0  0  0  0  0  0  0  0  0  0  0  0
  -15.7297   -0.3557  -15.5464 H   0  0  0  0  0  0  0  0  0  0  0  0
  -22.6716    0.1901  -13.4756 C   0  0  0  0  0  0  0  0  0  0  0  0
  -22.6341   -0.4401  -12.1867 C   0  0  0  0  0  0  0  0  0  0  0  0
  -23.6023   -1.4090  -12.0385 C   0  0  0  0  0  0  0  0  0  0  0  0
  -24.5671   -1.5670  -13.4370 S   0  0  0  0  0  0  0  0  0  0  0  0
  -23.6861   -0.3436  -14.2494 C   0  0  0  0  0  0  0  0  0  0  0  0
  7  8  1  0  0  0
  7 15  2  0  0  0
  8  9  2  0  0  0
  9 10  1  0  0  0
 10 11  1  0  0  0
 10 14  2  0  0  0
 11  1  1  0  0  0
 11 12  2  0  0  0
  1  2  1  0  0  0
  1  6  2  0  0  0
  2  3  2  0  0  0
  3  4  1  0  0  0
  4  5  2  0  0  0
  5 17  1  0  0  0
  5  6  1  0  0  0
 17 18  1  0  0  0
 17 21  2  0  0  0
 18 19  2  0  0  0
 19 20  1  0  0  0
 20 21  1  0  0  0
 12 13  1  0  0  0
 13 14  1  0  0  0
 13 16  1  0  0  0
 14 15  1  0  0  0
M  END
> <minimizedAffinity>
-9.62847

$$$$
