CHEMBL1242112


 25 27  0  0  0  0  0  0  0  0999 V2000
  -15.6162   -0.5676  -13.7160 C   0  0  0  0  0  0  0  0  0  0  0  0
  -16.7090    0.1591  -14.0832 N   0  0  0  0  0  0  0  0  0  0  0  0
  -16.2028    1.3266  -14.5254 N   0  0  0  0  0  0  0  0  0  0  0  0
  -14.8161    1.3470  -14.5511 C   0  0  0  0  0  0  0  0  0  0  0  0
  -14.0150    2.3212  -14.9936 N   0  0  0  0  0  0  0  0  0  0  0  0
  -12.7127    1.9908  -14.8521 C   0  0  0  0  0  0  0  0  0  0  0  0
  -12.1886    0.8617  -14.3364 N   0  0  0  0  0  0  0  0  0  0  0  0
  -13.0324   -0.0873  -13.9043 C   0  0  0  0  0  0  0  0  0  0  0  0
  -12.4326   -1.2301  -13.3990 N   0  0  0  0  0  0  0  0  0  0  0  0
  -14.4219    0.1348  -14.0119 C   0  0  0  0  0  0  0  0  0  0  0  0
  -11.4707   -1.3062  -13.6290 H   0  0  0  0  0  0  0  0  0  0  0  0
  -12.9652   -2.0920  -13.4997 H   0  0  0  0  0  0  0  0  0  0  0  0
  -15.8019   -3.2500  -11.0778 C   0  0  0  0  0  0  0  0  0  0  0  0
  -15.6021   -2.0301  -11.7085 C   0  0  0  0  0  0  0  0  0  0  0  0
  -15.7699   -1.8741  -13.0925 C   0  0  0  0  0  0  0  0  0  0  0  0
  -16.1606   -2.9846  -13.8468 C   0  0  0  0  0  0  0  0  0  0  0  0
  -16.3993   -4.2050  -13.2316 C   0  0  0  0  0  0  0  0  0  0  0  0
  -16.2058   -4.3349  -11.8467 C   0  0  0  0  0  0  0  0  0  0  0  0
  -16.4812   -5.5264  -11.2428 O   0  0  0  0  0  0  0  0  0  0  0  0
  -16.7065   -6.1836  -11.9170 H   0  0  0  0  0  0  0  0  0  0  0  0
  -14.3424   -3.5698   -9.2096 C   0  0  0  0  0  0  0  0  0  0  0  0
  -15.6594   -3.4788   -9.7331 O   0  0  0  0  0  0  0  0  0  0  0  0
  -17.1109    2.3890  -14.9666 C   0  0  0  0  0  0  0  0  0  0  0  0
  -16.8928    2.7310  -16.4457 C   0  0  0  0  0  0  0  0  0  0  0  0
  -18.5972    2.0772  -14.7458 C   0  0  0  0  0  0  0  0  0  0  0  0
 21 22  1  0  0  0
 22 13  1  0  0  0
 13 14  1  0  0  0
 13 18  2  0  0  0
 14 15  2  0  0  0
 15  1  1  0  0  0
 15 16  1  0  0  0
  1  2  2  0  0  0
  1 10  1  0  0  0
  2  3  1  0  0  0
  3 23  1  0  0  0
  3  4  1  0  0  0
 23 24  1  0  0  0
 23 25  1  0  0  0
  4  5  1  0  0  0
  4 10  2  0  0  0
  5  6  2  0  0  0
  6  7  1  0  0  0
  7  8  2  0  0  0
  8  9  1  0  0  0
  8 10  1  0  0  0
  9 11  1  0  0  0
  9 12  1  0  0  0
 16 17  2  0  0  0
 17 18  1  0  0  0
 18 19  1  0  0  0
 19 20  1  0  0  0
M  END
> <minimizedAffinity>
-6.83559

$$$$
