CHEMBL1241485


 26 28  0  0  0  0  0  0  0  0999 V2000
  -29.5280   -5.0130   -6.4833 C   0  0  0  0  0  0  0  0  0  0  0  0
  -30.2448   -4.8999   -5.3471 N   0  0  0  0  0  0  0  0  0  0  0  0
  -30.0049   -3.6407   -4.9211 N   0  0  0  0  0  0  0  0  0  0  0  0
  -29.1887   -2.9292   -5.7556 C   0  0  0  0  0  0  0  0  0  0  0  0
  -28.7838   -1.6560   -5.5980 N   0  0  0  0  0  0  0  0  0  0  0  0
  -27.9911   -1.2639   -6.6063 C   0  0  0  0  0  0  0  0  0  0  0  0
  -27.6124   -1.9756   -7.6835 N   0  0  0  0  0  0  0  0  0  0  0  0
  -28.0465   -3.2477   -7.8049 C   0  0  0  0  0  0  0  0  0  0  0  0
  -27.6463   -3.9167   -8.9544 N   0  0  0  0  0  0  0  0  0  0  0  0
  -28.8667   -3.7814   -6.7993 C   0  0  0  0  0  0  0  0  0  0  0  0
  -27.2737   -3.2563   -9.6284 H   0  0  0  0  0  0  0  0  0  0  0  0
  -28.3271   -4.5713   -9.3191 H   0  0  0  0  0  0  0  0  0  0  0  0
  -30.6246   -8.3176   -7.9809 C   0  0  0  0  0  0  0  0  0  0  0  0
  -30.6372   -7.1046   -7.2698 C   0  0  0  0  0  0  0  0  0  0  0  0
  -29.5030   -6.2814   -7.2149 C   0  0  0  0  0  0  0  0  0  0  0  0
  -28.3374   -6.7172   -7.8499 C   0  0  0  0  0  0  0  0  0  0  0  0
  -28.3260   -7.9106   -8.5771 C   0  0  0  0  0  0  0  0  0  0  0  0
  -29.4800   -8.6935   -8.7078 C   0  0  0  0  0  0  0  0  0  0  0  0
  -29.3818   -9.8959   -9.4297 N   0  0  0  0  0  0  0  0  0  0  0  0
  -28.5937   -9.9264  -10.0681 H   0  0  0  0  0  0  0  0  0  0  0  0
  -30.2493  -10.1166   -9.9085 H   0  0  0  0  0  0  0  0  0  0  0  0
  -32.8497   -8.4350   -7.1549 C   0  0  0  0  0  0  0  0  0  0  0  0
  -31.8208   -8.9935   -7.9682 O   0  0  0  0  0  0  0  0  0  0  0  0
  -30.6084   -3.1568   -3.6837 C   0  0  0  0  0  0  0  0  0  0  0  0
  -31.6671   -4.1283   -3.1616 C   0  0  0  0  0  0  0  0  0  0  0  0
  -29.5503   -2.8663   -2.6180 C   0  0  0  0  0  0  0  0  0  0  0  0
 22 23  1  0  0  0
 23 13  1  0  0  0
 13 14  1  0  0  0
 13 18  2  0  0  0
 14 15  2  0  0  0
 15  1  1  0  0  0
 15 16  1  0  0  0
  1  2  2  0  0  0
  1 10  1  0  0  0
  2  3  1  0  0  0
  3 24  1  0  0  0
  3  4  1  0  0  0
 24 25  1  0  0  0
 24 26  1  0  0  0
  4  5  1  0  0  0
  4 10  2  0  0  0
  5  6  2  0  0  0
  6  7  1  0  0  0
  7  8  2  0  0  0
  8  9  1  0  0  0
  8 10  1  0  0  0
  9 11  1  0  0  0
  9 12  1  0  0  0
 16 17  2  0  0  0
 17 18  1  0  0  0
 18 19  1  0  0  0
 19 20  1  0  0  0
 19 21  1  0  0  0
M  END
> <minimizedAffinity>
-7.85190

$$$$
