CHEMBL3639893


 35 38  0  0  0  0  0  0  0  0999 V2000
  -29.3007   -8.0772   -7.1253 C   0  0  0  0  0  0  0  0  0  0  0  0
  -28.8609   -6.9307   -7.9195 C   0  0  0  0  0  0  0  0  0  0  0  0
  -28.5940   -5.7621   -7.3170 C   0  0  0  0  0  0  0  0  0  0  0  0
  -28.7816   -5.6265   -5.9357 N   0  0  0  0  0  0  0  0  0  0  0  0
  -28.6409   -4.5212   -5.0877 C   0  0  0  0  0  0  0  0  0  0  0  0
  -28.9020   -5.0460   -3.8296 C   0  0  0  0  0  0  0  0  0  0  0  0
  -29.2281   -6.3748   -3.8707 N   0  0  0  0  0  0  0  0  0  0  0  0
  -29.1812   -6.7051   -5.1434 C   0  0  0  0  0  0  0  0  0  0  0  0
  -29.4468   -7.9509   -5.7868 C   0  0  0  0  0  0  0  0  0  0  0  0
  -30.8089   -9.8011   -8.1306 C   0  0  0  0  0  0  0  0  0  0  0  0
  -30.8876  -11.0822   -8.6385 C   0  0  0  0  0  0  0  0  0  0  0  0
  -29.8340  -11.9178   -8.7400 N   0  0  0  0  0  0  0  0  0  0  0  0
  -28.6645  -11.4171   -8.3218 C   0  0  0  0  0  0  0  0  0  0  0  0
  -27.3214  -12.4660   -8.4032 Cl  0  0  0  0  0  0  0  0  0  0  0  0
  -28.4415  -10.1971   -7.8241 N   0  0  0  0  0  0  0  0  0  0  0  0
  -29.5315   -9.4000   -7.7469 C   0  0  0  0  0  0  0  0  0  0  0  0
  -32.9432   -9.3560   -7.2044 C   0  0  0  0  0  0  0  0  0  0  0  0
  -31.8456   -8.9230   -8.0005 O   0  0  0  0  0  0  0  0  0  0  0  0
  -28.3311   -3.1319   -5.4765 C   0  0  0  0  0  0  0  0  0  0  0  0
  -27.8774   -2.2148   -4.5216 C   0  0  0  0  0  0  0  0  0  0  0  0
  -27.6308   -0.8897   -4.8572 C   0  0  0  0  0  0  0  0  0  0  0  0
  -27.7493   -0.4740   -6.1780 C   0  0  0  0  0  0  0  0  0  0  0  0
  -28.0933   -1.3728   -7.1811 C   0  0  0  0  0  0  0  0  0  0  0  0
  -28.4208   -2.6987   -6.8184 C   0  0  0  0  0  0  0  0  0  0  0  0
  -28.1206   -1.0045   -8.5563 N   0  0  0  0  0  0  0  0  0  0  0  0
  -27.5382   -1.7061   -9.5918 C   0  0  0  0  0  0  0  0  0  0  0  0
  -26.9066   -2.7496   -9.5181 O   0  0  0  0  0  0  0  0  0  0  0  0
  -27.6941   -1.0868  -10.8114 N   0  0  0  0  0  0  0  0  0  0  0  0
  -28.6405   -0.1741   -8.7991 H   0  0  0  0  0  0  0  0  0  0  0  0
  -28.5418   -0.5543  -10.9480 H   0  0  0  0  0  0  0  0  0  0  0  0
  -27.1228   -1.7437  -12.0004 C   0  0  0  0  0  0  0  0  0  0  0  0
  -25.7143   -1.2902  -12.4170 C   0  0  0  0  0  0  0  0  0  0  0  0
  -24.7555   -2.1400  -11.9828 F   0  0  0  0  0  0  0  0  0  0  0  0
  -25.6257   -1.2630  -13.7717 F   0  0  0  0  0  0  0  0  0  0  0  0
  -25.4154   -0.0518  -11.9740 F   0  0  0  0  0  0  0  0  0  0  0  0
 17 18  1  0  0  0
 18 10  1  0  0  0
 10 11  1  0  0  0
 10 16  2  0  0  0
 11 12  2  0  0  0
 12 13  1  0  0  0
 13 14  1  0  0  0
 13 15  2  0  0  0
 15 16  1  0  0  0
 16  1  1  0  0  0
  1  2  1  0  0  0
  1  9  2  0  0  0
  2  3  2  0  0  0
  3  4  1  0  0  0
  4  5  1  0  0  0
  4  8  1  0  0  0
  5 19  1  0  0  0
  5  6  2  0  0  0
 19 20  1  0  0  0
 19 24  2  0  0  0
 20 21  2  0  0  0
 21 22  1  0  0  0
 22 23  2  0  0  0
 23 25  1  0  0  0
 23 24  1  0  0  0
 25 26  1  0  0  0
 25 29  1  0  0  0
 26 27  2  0  0  0
 26 28  1  0  0  0
 28 31  1  0  0  0
 28 30  1  0  0  0
 31 32  1  0  0  0
 32 33  1  0  0  0
 32 34  1  0  0  0
 32 35  1  0  0  0
  6  7  1  0  0  0
  7  8  2  0  0  0
  8  9  1  0  0  0
M  END
> <minimizedAffinity>
-9.39971

$$$$
