CHEMBL3905242


 44 48  0  0  0  0  0  0  0  0999 V2000
  -12.9618    1.2965  -13.3040 C   0  0  0  0  0  0  0  0  0  0  0  0
  -13.8544    1.5988  -14.3240 C   0  0  0  0  0  0  0  0  0  0  0  0
  -13.8196    0.9265  -15.5648 C   0  0  0  0  0  0  0  0  0  0  0  0
  -14.6342    1.2628  -16.6552 C   0  0  0  0  0  0  0  0  0  0  0  0
  -14.5573    0.6063  -17.8255 N   0  0  0  0  0  0  0  0  0  0  0  0
  -13.6652   -0.3851  -17.8993 C   0  0  0  0  0  0  0  0  0  0  0  0
  -12.8282   -0.7730  -16.9306 N   0  0  0  0  0  0  0  0  0  0  0  0
  -12.9050   -0.1104  -15.7732 C   0  0  0  0  0  0  0  0  0  0  0  0
  -12.0658   -0.4608  -14.7203 C   0  0  0  0  0  0  0  0  0  0  0  0
  -12.1011    0.1949  -13.4813 C   0  0  0  0  0  0  0  0  0  0  0  0
  -12.0529    3.1243  -12.0189 C   0  0  0  0  0  0  0  0  0  0  0  0
  -12.9233    2.0011  -12.1347 O   0  0  0  0  0  0  0  0  0  0  0  0
  -15.5582    2.3367  -16.5186 N   0  0  0  0  0  0  0  0  0  0  0  0
  -15.0599    3.1615  -16.2003 H   0  0  0  0  0  0  0  0  0  0  0  0
  -16.8480    2.2502  -15.9607 C   0  0  0  0  0  0  0  0  0  0  0  0
  -17.6882    3.3618  -15.9827 C   0  0  0  0  0  0  0  0  0  0  0  0
  -18.9428    3.3143  -15.3710 C   0  0  0  0  0  0  0  0  0  0  0  0
  -19.4077    2.1482  -14.7566 C   0  0  0  0  0  0  0  0  0  0  0  0
  -18.6111    1.0048  -14.8251 C   0  0  0  0  0  0  0  0  0  0  0  0
  -17.3490    1.0563  -15.4314 C   0  0  0  0  0  0  0  0  0  0  0  0
  -20.6186    2.0744  -14.0298 N   0  0  0  0  0  0  0  0  0  0  0  0
  -21.4867    1.0065  -14.0142 C   0  0  0  0  0  0  0  0  0  0  0  0
  -21.2590   -0.0960  -14.5067 O   0  0  0  0  0  0  0  0  0  0  0  0
  -22.7031    1.3231  -13.4146 N   0  0  0  0  0  0  0  0  0  0  0  0
  -20.8400    2.8512  -13.4228 H   0  0  0  0  0  0  0  0  0  0  0  0
  -23.0040    2.2746  -13.5709 H   0  0  0  0  0  0  0  0  0  0  0  0
  -23.7225    0.3441  -13.3369 C   0  0  0  0  0  0  0  0  0  0  0  0
  -24.1104   -0.3839  -14.4682 C   0  0  0  0  0  0  0  0  0  0  0  0
  -25.1916   -1.2635  -14.4083 C   0  0  0  0  0  0  0  0  0  0  0  0
  -25.8875   -1.4121  -13.2129 C   0  0  0  0  0  0  0  0  0  0  0  0
  -27.2584   -2.4491  -13.1482 Cl  0  0  0  0  0  0  0  0  0  0  0  0
  -25.4871   -0.7161  -12.0715 C   0  0  0  0  0  0  0  0  0  0  0  0
  -24.3859    0.1455  -12.1251 C   0  0  0  0  0  0  0  0  0  0  0  0
  -11.2599   -0.3583  -12.5389 O   0  0  0  0  0  0  0  0  0  0  0  0
  -10.7515   -1.6459  -12.8785 C   0  0  0  0  0  0  0  0  0  0  0  0
  -10.7466   -2.6002  -11.6854 C   0  0  0  0  0  0  0  0  0  0  0  0
  -11.8964   -3.5973  -11.8972 C   0  0  0  0  0  0  0  0  0  0  0  0
  -13.2253   -3.1392  -11.4876 N   0  0  0  0  0  0  0  0  0  0  0  0
  -14.1902   -3.0964  -12.5998 C   0  0  0  0  0  0  0  0  0  0  0  0
  -15.5882   -2.6398  -12.1150 C   0  0  0  0  0  0  0  0  0  0  0  0
  -16.1670   -3.4413  -11.0186 N   0  0  0  0  0  0  0  0  0  0  0  0
  -16.6591   -4.7313  -11.4928 C   0  0  0  0  0  0  0  0  0  0  0  0
  -15.1642   -3.5969   -9.9474 C   0  0  0  0  0  0  0  0  0  0  0  0
  -13.7561   -4.0239  -10.4257 C   0  0  0  0  0  0  0  0  0  0  0  0
 11 12  1  0  0  0
 12  1  1  0  0  0
  1  2  1  0  0  0
  1 10  2  0  0  0
  2  3  2  0  0  0
  3  4  1  0  0  0
  3  8  1  0  0  0
  4 13  1  0  0  0
  4  5  2  0  0  0
 13 15  1  0  0  0
 13 14  1  0  0  0
 15 16  1  0  0  0
 15 20  2  0  0  0
 16 17  2  0  0  0
 17 18  1  0  0  0
 18 21  1  0  0  0
 18 19  2  0  0  0
 21 22  1  0  0  0
 21 25  1  0  0  0
 22 23  2  0  0  0
 22 24  1  0  0  0
 24 27  1  0  0  0
 24 26  1  0  0  0
 27 28  1  0  0  0
 27 33  2  0  0  0
 28 29  2  0  0  0
 29 30  1  0  0  0
 30 31  1  0  0  0
 30 32  2  0  0  0
 32 33  1  0  0  0
 19 20  1  0  0  0
  5  6  1  0  0  0
  6  7  2  0  0  0
  7  8  1  0  0  0
  8  9  2  0  0  0
  9 10  1  0  0  0
 10 34  1  0  0  0
 34 35  1  0  0  0
 35 36  1  0  0  0
 36 37  1  0  0  0
 37 38  1  0  0  0
 38 39  1  0  0  0
 38 44  1  0  0  0
 39 40  1  0  0  0
 40 41  1  0  0  0
 41 42  1  0  0  0
 41 43  1  0  0  0
 43 44  1  0  0  0
M  END
> <minimizedAffinity>
-9.98343

$$$$
