CHEMBL3690487


 35 38  0  0  0  0  0  0  0  0999 V2000
  -27.3429   -2.0699   -9.1704 C   0  0  0  0  0  0  0  0  0  0  0  0
  -27.9364   -3.3867   -8.9452 C   0  0  0  0  0  0  0  0  0  0  0  0
  -28.6813   -3.6060   -7.8488 C   0  0  0  0  0  0  0  0  0  0  0  0
  -28.8520   -2.5893   -6.9019 N   0  0  0  0  0  0  0  0  0  0  0  0
  -29.5246   -2.5635   -5.6748 C   0  0  0  0  0  0  0  0  0  0  0  0
  -29.3898   -1.2451   -5.2603 C   0  0  0  0  0  0  0  0  0  0  0  0
  -28.6558   -0.4895   -6.1308 N   0  0  0  0  0  0  0  0  0  0  0  0
  -28.3090   -1.3153   -7.0930 C   0  0  0  0  0  0  0  0  0  0  0  0
  -27.5298   -1.0845   -8.2639 C   0  0  0  0  0  0  0  0  0  0  0  0
  -28.6539   -1.9647  -11.8123 N   0  0  0  0  0  0  0  0  0  0  0  0
  -27.2930   -1.6425  -11.6474 C   0  0  0  0  0  0  0  0  0  0  0  0
  -26.5060   -1.4360  -12.7827 C   0  0  0  0  0  0  0  0  0  0  0  0
  -25.1316   -1.2501  -12.6595 C   0  0  0  0  0  0  0  0  0  0  0  0
  -24.5699   -1.3166  -11.3966 C   0  0  0  0  0  0  0  0  0  0  0  0
  -25.2756   -1.5644  -10.2726 N   0  0  0  0  0  0  0  0  0  0  0  0
  -26.6138   -1.7440  -10.4155 C   0  0  0  0  0  0  0  0  0  0  0  0
  -29.0814   -1.5361  -12.6264 H   0  0  0  0  0  0  0  0  0  0  0  0
  -29.2086   -1.8193  -10.9710 H   0  0  0  0  0  0  0  0  0  0  0  0
  -30.1659   -3.6916   -4.9711 C   0  0  0  0  0  0  0  0  0  0  0  0
  -31.0372   -3.4671   -3.9015 C   0  0  0  0  0  0  0  0  0  0  0  0
  -31.6511   -4.5234   -3.2370 C   0  0  0  0  0  0  0  0  0  0  0  0
  -31.4668   -5.8278   -3.6846 C   0  0  0  0  0  0  0  0  0  0  0  0
  -30.6752   -6.0977   -4.7982 C   0  0  0  0  0  0  0  0  0  0  0  0
  -29.9941   -5.0265   -5.4146 C   0  0  0  0  0  0  0  0  0  0  0  0
  -30.5501   -7.4038   -5.3454 N   0  0  0  0  0  0  0  0  0  0  0  0
  -30.7412   -7.7482   -6.6699 C   0  0  0  0  0  0  0  0  0  0  0  0
  -31.0626   -7.0104   -7.5882 O   0  0  0  0  0  0  0  0  0  0  0  0
  -30.5703   -9.0974   -6.8972 N   0  0  0  0  0  0  0  0  0  0  0  0
  -30.2556   -8.1354   -4.7192 H   0  0  0  0  0  0  0  0  0  0  0  0
  -29.8893   -9.5709   -6.3218 H   0  0  0  0  0  0  0  0  0  0  0  0
  -30.7284   -9.5890   -8.2766 C   0  0  0  0  0  0  0  0  0  0  0  0
  -29.4391   -9.7312   -9.1015 C   0  0  0  0  0  0  0  0  0  0  0  0
  -28.7844   -8.5542   -9.2281 F   0  0  0  0  0  0  0  0  0  0  0  0
  -28.5874  -10.5851   -8.4770 F   0  0  0  0  0  0  0  0  0  0  0  0
  -29.6647  -10.2257  -10.3353 F   0  0  0  0  0  0  0  0  0  0  0  0
 10 11  1  0  0  0
 10 17  1  0  0  0
 10 18  1  0  0  0
 11 12  1  0  0  0
 11 16  2  0  0  0
 12 13  2  0  0  0
 13 14  1  0  0  0
 14 15  2  0  0  0
 15 16  1  0  0  0
 16  1  1  0  0  0
  1  2  1  0  0  0
  1  9  2  0  0  0
  2  3  2  0  0  0
  3  4  1  0  0  0
  4  5  1  0  0  0
  4  8  1  0  0  0
  5 19  1  0  0  0
  5  6  2  0  0  0
 19 20  1  0  0  0
 19 24  2  0  0  0
 20 21  2  0  0  0
 21 22  1  0  0  0
 22 23  2  0  0  0
 23 25  1  0  0  0
 23 24  1  0  0  0
 25 26  1  0  0  0
 25 29  1  0  0  0
 26 27  2  0  0  0
 26 28  1  0  0  0
 28 31  1  0  0  0
 28 30  1  0  0  0
 31 32  1  0  0  0
 32 33  1  0  0  0
 32 34  1  0  0  0
 32 35  1  0  0  0
  6  7  1  0  0  0
  7  8  2  0  0  0
  8  9  1  0  0  0
M  END
> <minimizedAffinity>
-9.65409

$$$$
