CHEMBL3774580


 26 28  0  0  0  0  0  0  0  0999 V2000
  -27.8021   -2.3595   -5.4160 C   0  0  0  0  0  0  0  0  0  0  0  0
  -28.0651   -3.2720   -4.3797 C   0  0  0  0  0  0  0  0  0  0  0  0
  -28.7642   -4.4505   -4.5797 C   0  0  0  0  0  0  0  0  0  0  0  0
  -28.9213   -5.2729   -3.5390 N   0  0  0  0  0  0  0  0  0  0  0  0
  -29.5829   -6.4070   -3.7687 C   0  0  0  0  0  0  0  0  0  0  0  0
  -30.0953   -6.7886   -4.9396 N   0  0  0  0  0  0  0  0  0  0  0  0
  -29.9255   -5.9548   -5.9889 C   0  0  0  0  0  0  0  0  0  0  0  0
  -29.2620   -4.7262   -5.8537 C   0  0  0  0  0  0  0  0  0  0  0  0
  -29.0797   -3.7757   -6.8832 C   0  0  0  0  0  0  0  0  0  0  0  0
  -28.3451   -2.5990   -6.6824 C   0  0  0  0  0  0  0  0  0  0  0  0
  -27.8050   -0.0463   -4.9251 C   0  0  0  0  0  0  0  0  0  0  0  0
  -27.0527   -1.2341   -5.1886 O   0  0  0  0  0  0  0  0  0  0  0  0
  -30.4267   -6.3567   -7.2583 N   0  0  0  0  0  0  0  0  0  0  0  0
  -29.9662   -5.8129   -7.9898 H   0  0  0  0  0  0  0  0  0  0  0  0
  -30.4979   -7.7092   -7.6671 C   0  0  0  0  0  0  0  0  0  0  0  0
  -29.4653   -8.2893   -8.4181 C   0  0  0  0  0  0  0  0  0  0  0  0
  -29.5666   -9.6014   -8.8879 C   0  0  0  0  0  0  0  0  0  0  0  0
  -30.6993  -10.3617   -8.6014 C   0  0  0  0  0  0  0  0  0  0  0  0
  -31.7074   -9.8064   -7.8203 C   0  0  0  0  0  0  0  0  0  0  0  0
  -32.8410  -10.5088   -7.5107 O   0  0  0  0  0  0  0  0  0  0  0  0
  -31.6034   -8.4996   -7.3466 C   0  0  0  0  0  0  0  0  0  0  0  0
  -32.6220   -7.9780   -6.5879 O   0  0  0  0  0  0  0  0  0  0  0  0
  -32.7982  -11.3628   -7.9756 H   0  0  0  0  0  0  0  0  0  0  0  0
  -33.2659   -8.7133   -6.5187 H   0  0  0  0  0  0  0  0  0  0  0  0
  -28.2590   -1.8614   -7.8278 O   0  0  0  0  0  0  0  0  0  0  0  0
  -27.5898   -2.3682   -8.9692 C   0  0  0  0  0  0  0  0  0  0  0  0
 11 12  1  0  0  0
 12  1  1  0  0  0
  1  2  1  0  0  0
  1 10  2  0  0  0
  2  3  2  0  0  0
  3  4  1  0  0  0
  3  8  1  0  0  0
  4  5  2  0  0  0
  5  6  1  0  0  0
  6  7  2  0  0  0
  7 13  1  0  0  0
  7  8  1  0  0  0
 13 15  1  0  0  0
 13 14  1  0  0  0
 15 16  1  0  0  0
 15 21  2  0  0  0
 16 17  2  0  0  0
 17 18  1  0  0  0
 18 19  2  0  0  0
 19 20  1  0  0  0
 19 21  1  0  0  0
 20 23  1  0  0  0
 21 22  1  0  0  0
 22 24  1  0  0  0
  8  9  2  0  0  0
  9 10  1  0  0  0
 10 25  1  0  0  0
 25 26  1  0  0  0
M  END
> <minimizedAffinity>
-7.77569

$$$$
