CHEMBL2430261


 32 35  0  0  0  0  0  0  0  0999 V2000
  -13.3451   -9.0869  -11.7496 C   0  0  0  0  0  0  0  0  0  0  0  0
  -13.5652   -7.8345  -12.5230 C   0  0  0  0  0  0  0  0  0  0  0  0
  -13.5649   -7.8467  -13.9124 N   0  0  0  0  0  0  0  0  0  0  0  0
  -13.7550   -6.5814  -14.4039 C   0  0  0  0  0  0  0  0  0  0  0  0
  -13.8751   -5.7496  -13.3077 C   0  0  0  0  0  0  0  0  0  0  0  0
  -13.7358   -6.5172  -12.1116 C   0  0  0  0  0  0  0  0  0  0  0  0
  -14.1191   -4.2861  -13.3717 C   0  0  0  0  0  0  0  0  0  0  0  0
  -14.2396   -3.7144  -14.7709 C   0  0  0  0  0  0  0  0  0  0  0  0
  -14.0598   -4.6528  -15.9669 C   0  0  0  0  0  0  0  0  0  0  0  0
  -13.8180   -6.1516  -15.7697 C   0  0  0  0  0  0  0  0  0  0  0  0
  -13.6745   -6.9219  -16.8824 C   0  0  0  0  0  0  0  0  0  0  0  0
  -13.4203   -8.4196  -16.9779 C   0  0  0  0  0  0  0  0  0  0  0  0
  -13.2999   -9.2321  -16.0819 O   0  0  0  0  0  0  0  0  0  0  0  0
  -13.3586   -8.7079  -18.3363 N   0  0  0  0  0  0  0  0  0  0  0  0
  -13.5418   -7.5747  -19.1170 C   0  0  0  0  0  0  0  0  0  0  0  0
  -13.5389   -7.5232  -20.5029 C   0  0  0  0  0  0  0  0  0  0  0  0
  -13.7390   -6.2853  -21.1132 C   0  0  0  0  0  0  0  0  0  0  0  0
  -13.9319   -5.1526  -20.3300 C   0  0  0  0  0  0  0  0  0  0  0  0
  -14.1247   -3.9636  -20.9152 F   0  0  0  0  0  0  0  0  0  0  0  0
  -13.9302   -5.2235  -18.9376 C   0  0  0  0  0  0  0  0  0  0  0  0
  -13.7362   -6.4485  -18.3091 C   0  0  0  0  0  0  0  0  0  0  0  0
  -13.4241   -8.6784  -14.4799 H   0  0  0  0  0  0  0  0  0  0  0  0
  -13.1986   -9.6394  -18.6865 H   0  0  0  0  0  0  0  0  0  0  0  0
  -13.7589   -5.9271  -10.7696 C   0  0  0  0  0  0  0  0  0  0  0  0
  -14.8006   -5.5338  -10.2485 O   0  0  0  0  0  0  0  0  0  0  0  0
  -12.5737   -5.9128  -10.0832 N   0  0  0  0  0  0  0  0  0  0  0  0
  -11.7444   -6.3198  -10.4881 H   0  0  0  0  0  0  0  0  0  0  0  0
  -12.5502   -5.4998   -8.6958 C   0  0  0  0  0  0  0  0  0  0  0  0
  -11.1248   -5.3458   -8.1515 C   0  0  0  0  0  0  0  0  0  0  0  0
  -10.8213   -3.9954   -7.6337 N   0  0  0  0  0  0  0  0  0  0  0  0
  -11.8569   -3.0294   -8.0140 C   0  0  0  0  0  0  0  0  0  0  0  0
  -10.6969   -4.0418   -6.1761 C   0  0  0  0  0  0  0  0  0  0  0  0
  1  2  1  0  0  0
  2  3  1  0  0  0
  2  6  2  0  0  0
  3  4  1  0  0  0
  3 22  1  0  0  0
  4  5  2  0  0  0
  4 10  1  0  0  0
  5  6  1  0  0  0
  5  7  1  0  0  0
  6 24  1  0  0  0
 24 25  2  0  0  0
 24 26  1  0  0  0
 26 28  1  0  0  0
 26 27  1  0  0  0
 28 29  1  0  0  0
 29 30  1  0  0  0
 30 31  1  0  0  0
 30 32  1  0  0  0
  7  8  1  0  0  0
  8  9  1  0  0  0
  9 10  1  0  0  0
 10 11  2  0  0  0
 11 12  1  0  0  0
 11 21  1  0  0  0
 12 13  2  0  0  0
 12 14  1  0  0  0
 14 15  1  0  0  0
 14 23  1  0  0  0
 15 16  1  0  0  0
 15 21  2  0  0  0
 16 17  2  0  0  0
 17 18  1  0  0  0
 18 19  1  0  0  0
 18 20  2  0  0  0
 20 21  1  0  0  0
M  END
> <minimizedAffinity>
-6.95053

$$$$
