CHEMBL218557


 42 48  0  0  0  0  0  0  0  0999 V2000
  -28.8925   -5.0976   -4.9520 N   0  0  0  0  0  0  0  0  0  0  0  0
  -28.7486   -4.2625   -6.0877 C   0  0  0  0  0  0  0  0  0  0  0  0
  -29.0937   -2.9050   -6.3100 C   0  0  0  0  0  0  0  0  0  0  0  0
  -28.8729   -2.3462   -7.5908 C   0  0  0  0  0  0  0  0  0  0  0  0
  -28.3045   -3.0888   -8.6217 C   0  0  0  0  0  0  0  0  0  0  0  0
  -27.9951   -4.4339   -8.3908 C   0  0  0  0  0  0  0  0  0  0  0  0
  -28.2461   -5.0301   -7.1361 C   0  0  0  0  0  0  0  0  0  0  0  0
  -28.2437   -6.2939   -6.5972 C   0  0  0  0  0  0  0  0  0  0  0  0
  -28.2927   -7.4542   -7.3946 C   0  0  0  0  0  0  0  0  0  0  0  0
  -28.8182   -8.5962   -6.7657 C   0  0  0  0  0  0  0  0  0  0  0  0
  -29.1500   -8.6605   -5.3983 C   0  0  0  0  0  0  0  0  0  0  0  0
  -28.4728   -7.6650   -4.6171 C   0  0  0  0  0  0  0  0  0  0  0  0
  -28.4530   -6.3917   -5.2583 C   0  0  0  0  0  0  0  0  0  0  0  0
  -27.2140   -8.2820   -3.8661 C   0  0  0  0  0  0  0  0  0  0  0  0
  -26.8616   -9.7774   -4.2746 C   0  0  0  0  0  0  0  0  0  0  0  0
  -28.1382  -10.5456   -4.2074 C   0  0  0  0  0  0  0  0  0  0  0  0
  -28.4249  -11.5735   -3.4076 N   0  0  0  0  0  0  0  0  0  0  0  0
  -29.7833  -11.5710   -3.4141 N   0  0  0  0  0  0  0  0  0  0  0  0
  -30.5034  -12.4654   -2.5395 C   0  0  0  0  0  0  0  0  0  0  0  0
  -30.3303  -10.5232   -4.1160 C   0  0  0  0  0  0  0  0  0  0  0  0
  -29.2719   -9.9568   -4.7808 C   0  0  0  0  0  0  0  0  0  0  0  0
  -28.8084   -9.6638   -7.7391 C   0  0  0  0  0  0  0  0  0  0  0  0
  -29.1211  -10.8450   -7.7020 O   0  0  0  0  0  0  0  0  0  0  0  0
  -28.2527   -9.0851   -8.8783 N   0  0  0  0  0  0  0  0  0  0  0  0
  -27.9545   -7.6739   -8.7929 C   0  0  0  0  0  0  0  0  0  0  0  0
  -28.0543   -9.6682   -9.6756 H   0  0  0  0  0  0  0  0  0  0  0  0
  -28.0381   -2.6154   -9.9191 N   0  0  0  0  0  0  0  0  0  0  0  0
  -28.0548   -1.3264  -10.3925 C   0  0  0  0  0  0  0  0  0  0  0  0
  -28.2274   -0.3080   -9.7442 O   0  0  0  0  0  0  0  0  0  0  0  0
  -27.9452   -3.3012  -10.6597 H   0  0  0  0  0  0  0  0  0  0  0  0
  -27.9166   -1.3746  -11.7773 O   0  0  0  0  0  0  0  0  0  0  0  0
  -26.5974   -1.2720  -12.2537 C   0  0  0  0  0  0  0  0  0  0  0  0
  -26.3109   -1.6928  -13.5482 C   0  0  0  0  0  0  0  0  0  0  0  0
  -25.0127   -1.5237  -14.0485 C   0  0  0  0  0  0  0  0  0  0  0  0
  -24.0196   -0.9126  -13.2732 C   0  0  0  0  0  0  0  0  0  0  0  0
  -24.3316   -0.4692  -11.9887 C   0  0  0  0  0  0  0  0  0  0  0  0
  -25.6215   -0.6396  -11.4826 C   0  0  0  0  0  0  0  0  0  0  0  0
  -22.7808   -0.8471  -13.8511 O   0  0  0  0  0  0  0  0  0  0  0  0
  -22.1235    0.4153  -13.8153 C   0  0  0  0  0  0  0  0  0  0  0  0
  -29.5143   -4.6756   -3.7070 C   0  0  0  0  0  0  0  0  0  0  0  0
  -31.8522   -5.6149   -3.2007 C   0  0  0  0  0  0  0  0  0  0  0  0
  -31.0352   -4.4590   -3.7616 C   0  0  0  0  0  0  0  0  0  0  0  0
 41 42  1  0  0  0
 42 40  1  0  0  0
 40  1  1  0  0  0
  1  2  1  0  0  0
  1 13  1  0  0  0
  2  3  1  0  0  0
  2  7  2  0  0  0
  3  4  2  0  0  0
  4  5  1  0  0  0
  5 27  1  0  0  0
  5  6  2  0  0  0
 27 28  1  0  0  0
 27 30  1  0  0  0
 28 29  2  0  0  0
 28 31  1  0  0  0
 31 32  1  0  0  0
 32 33  1  0  0  0
 32 37  2  0  0  0
 33 34  2  0  0  0
 34 35  1  0  0  0
 35 38  1  0  0  0
 35 36  2  0  0  0
 38 39  1  0  0  0
 36 37  1  0  0  0
  6  7  1  0  0  0
  7  8  1  0  0  0
  8  9  1  0  0  0
  8 13  2  0  0  0
  9 10  2  0  0  0
  9 25  1  0  0  0
 10 11  1  0  0  0
 10 22  1  0  0  0
 11 12  2  0  0  0
 11 21  1  0  0  0
 12 13  1  0  0  0
 12 14  1  0  0  0
 14 15  1  0  0  0
 15 16  1  0  0  0
 16 17  2  0  0  0
 16 21  1  0  0  0
 17 18  1  0  0  0
 18 19  1  0  0  0
 18 20  1  0  0  0
 20 21  2  0  0  0
 22 23  2  0  0  0
 22 24  1  0  0  0
 24 25  1  0  0  0
 24 26  1  0  0  0
M  END
> <minimizedAffinity>
-8.16679

$$$$
