CHEMBL1995428


 40 45  0  0  0  0  0  0  0  0999 V2000
  -13.5766   -3.2822  -14.9893 C   0  0  0  0  0  0  0  0  0  0  0  0
  -13.2607   -3.6347  -16.2928 N   0  0  0  0  0  0  0  0  0  0  0  0
  -13.4866   -4.9134  -16.3196 C   0  0  0  0  0  0  0  0  0  0  0  0
  -13.3302   -6.1409  -17.5376 S   0  0  0  0  0  0  0  0  0  0  0  0
  -13.8865   -7.3309  -16.3547 C   0  0  0  0  0  0  0  0  0  0  0  0
  -14.1652   -6.7880  -15.1569 C   0  0  0  0  0  0  0  0  0  0  0  0
  -13.9394   -5.4246  -15.1408 N   0  0  0  0  0  0  0  0  0  0  0  0
  -14.0630   -4.3760  -14.2512 C   0  0  0  0  0  0  0  0  0  0  0  0
  -14.2283    0.3899  -14.2812 C   0  0  0  0  0  0  0  0  0  0  0  0
  -13.0095    0.7420  -13.7002 C   0  0  0  0  0  0  0  0  0  0  0  0
  -11.9989   -0.2087  -13.5390 C   0  0  0  0  0  0  0  0  0  0  0  0
  -12.1940   -1.5178  -13.9749 C   0  0  0  0  0  0  0  0  0  0  0  0
  -13.4118   -1.9000  -14.5497 C   0  0  0  0  0  0  0  0  0  0  0  0
  -14.4384   -0.9459  -14.6571 C   0  0  0  0  0  0  0  0  0  0  0  0
  -15.5485    1.1814  -16.8108 O   0  0  0  0  0  0  0  0  0  0  0  0
  -15.8174    1.6827  -15.7218 C   0  0  0  0  0  0  0  0  0  0  0  0
  -15.2829    1.3056  -14.4975 N   0  0  0  0  0  0  0  0  0  0  0  0
  -15.7562    1.6497  -13.6716 H   0  0  0  0  0  0  0  0  0  0  0  0
  -16.8061    2.8339  -15.6138 C   0  0  0  0  0  0  0  0  0  0  0  0
  -18.2362    2.4250  -15.3514 C   0  0  0  0  0  0  0  0  0  0  0  0
  -19.2570    3.3860  -15.3381 C   0  0  0  0  0  0  0  0  0  0  0  0
  -20.5924    3.0031  -15.1893 C   0  0  0  0  0  0  0  0  0  0  0  0
  -20.9220    1.6570  -15.0537 C   0  0  0  0  0  0  0  0  0  0  0  0
  -19.9171    0.6924  -15.0549 C   0  0  0  0  0  0  0  0  0  0  0  0
  -18.5813    1.0731  -15.2021 C   0  0  0  0  0  0  0  0  0  0  0  0
  -14.6023   -4.5079  -12.9002 C   0  0  0  0  0  0  0  0  0  0  0  0
  -15.8846   -4.1148  -12.5846 C   0  0  0  0  0  0  0  0  0  0  0  0
  -16.2073   -4.1529  -11.2561 C   0  0  0  0  0  0  0  0  0  0  0  0
  -15.3548   -4.5713  -10.3115 N   0  0  0  0  0  0  0  0  0  0  0  0
  -14.1468   -5.0059  -10.7056 C   0  0  0  0  0  0  0  0  0  0  0  0
  -13.7404   -4.9949  -11.9837 N   0  0  0  0  0  0  0  0  0  0  0  0
  -13.2672   -5.5166   -9.7591 N   0  0  0  0  0  0  0  0  0  0  0  0
  -12.9887   -6.4673   -9.9498 H   0  0  0  0  0  0  0  0  0  0  0  0
  -12.5025   -4.8274   -8.7995 C   0  0  0  0  0  0  0  0  0  0  0  0
  -12.5016   -5.2264   -7.4538 C   0  0  0  0  0  0  0  0  0  0  0  0
  -11.7207   -4.5731   -6.4980 C   0  0  0  0  0  0  0  0  0  0  0  0
  -10.8962   -3.5177   -6.8793 C   0  0  0  0  0  0  0  0  0  0  0  0
  -10.8633   -3.1134   -8.2134 C   0  0  0  0  0  0  0  0  0  0  0  0
  -11.6645   -3.7569   -9.1645 C   0  0  0  0  0  0  0  0  0  0  0  0
  -11.5746   -3.2156  -10.8058 Cl  0  0  0  0  0  0  0  0  0  0  0  0
 15 16  2  0  0  0
 16 19  1  0  0  0
 16 17  1  0  0  0
 19 20  1  0  0  0
 20 21  1  0  0  0
 20 25  2  0  0  0
 21 22  2  0  0  0
 22 23  1  0  0  0
 23 24  2  0  0  0
 24 25  1  0  0  0
 17  9  1  0  0  0
 17 18  1  0  0  0
  9 10  1  0  0  0
  9 14  2  0  0  0
 10 11  2  0  0  0
 11 12  1  0  0  0
 12 13  2  0  0  0
 13  1  1  0  0  0
 13 14  1  0  0  0
  1  2  1  0  0  0
  1  8  2  0  0  0
  2  3  2  0  0  0
  3  4  1  0  0  0
  3  7  1  0  0  0
  4  5  1  0  0  0
  5  6  2  0  0  0
  6  7  1  0  0  0
  7  8  1  0  0  0
  8 26  1  0  0  0
 26 27  1  0  0  0
 26 31  2  0  0  0
 27 28  2  0  0  0
 28 29  1  0  0  0
 29 30  2  0  0  0
 30 32  1  0  0  0
 30 31  1  0  0  0
 32 34  1  0  0  0
 32 33  1  0  0  0
 34 35  1  0  0  0
 34 39  2  0  0  0
 35 36  2  0  0  0
 36 37  1  0  0  0
 37 38  2  0  0  0
 38 39  1  0  0  0
 39 40  1  0  0  0
M  END
> <minimizedAffinity>
-9.64062

$$$$
