CHEMBL1945803


 32 35  0  0  0  0  0  0  0  0999 V2000
  -17.5717    1.1987  -15.1553 C   0  0  0  0  0  0  0  0  0  0  0  0
  -16.9717    0.6223  -14.1032 N   0  0  0  0  0  0  0  0  0  0  0  0
  -15.6510    0.8415  -13.9665 C   0  0  0  0  0  0  0  0  0  0  0  0
  -14.9099    1.6121  -14.8242 C   0  0  0  0  0  0  0  0  0  0  0  0
  -15.6060    2.2000  -15.8558 C   0  0  0  0  0  0  0  0  0  0  0  0
  -16.9379    2.0098  -16.0108 N   0  0  0  0  0  0  0  0  0  0  0  0
  -14.9546    3.0557  -16.8657 C   0  0  0  0  0  0  0  0  0  0  0  0
  -15.5567    4.2735  -17.2463 C   0  0  0  0  0  0  0  0  0  0  0  0
  -14.9598    5.1213  -18.1847 C   0  0  0  0  0  0  0  0  0  0  0  0
  -13.7820    4.7345  -18.8111 C   0  0  0  0  0  0  0  0  0  0  0  0
  -13.0068    5.7951  -19.9217 Cl  0  0  0  0  0  0  0  0  0  0  0  0
  -13.1927    3.5133  -18.5039 C   0  0  0  0  0  0  0  0  0  0  0  0
  -13.7364    2.7054  -17.4952 C   0  0  0  0  0  0  0  0  0  0  0  0
  -12.9537    1.5867  -17.1376 N   0  0  0  0  0  0  0  0  0  0  0  0
  -12.7022    1.1619  -15.8606 C   0  0  0  0  0  0  0  0  0  0  0  0
  -11.4801    0.0411  -15.6184 S   0  0  0  0  0  0  0  0  0  0  0  0
  -13.4338    1.7922  -14.6921 C   0  0  0  0  0  0  0  0  0  0  0  0
  -12.2849    1.2431  -17.8220 H   0  0  0  0  0  0  0  0  0  0  0  0
  -18.9075    0.8369  -15.3548 N   0  0  0  0  0  0  0  0  0  0  0  0
  -18.9760    0.4088  -16.2672 H   0  0  0  0  0  0  0  0  0  0  0  0
  -22.2538    1.3659  -13.8377 C   0  0  0  0  0  0  0  0  0  0  0  0
  -22.3649    2.7399  -14.0223 C   0  0  0  0  0  0  0  0  0  0  0  0
  -21.4136    3.5033  -14.5884 N   0  0  0  0  0  0  0  0  0  0  0  0
  -20.2957    2.8596  -15.0068 C   0  0  0  0  0  0  0  0  0  0  0  0
  -20.0657    1.4871  -14.8974 C   0  0  0  0  0  0  0  0  0  0  0  0
  -21.0693    0.7479  -14.2574 C   0  0  0  0  0  0  0  0  0  0  0  0
  -23.3860    0.5851  -13.2270 C   0  0  0  0  0  0  0  0  0  0  0  0
  -22.8862   -0.7250  -12.6047 C   0  0  0  0  0  0  0  0  0  0  0  0
  -23.9950   -1.7707  -12.4428 C   0  0  0  0  0  0  0  0  0  0  0  0
  -26.2766   -1.6887  -13.3059 C   0  0  0  0  0  0  0  0  0  0  0  0
  -25.3434   -1.2009  -12.2876 N   0  0  0  0  0  0  0  0  0  0  0  0
  -25.8645   -1.5087  -10.9531 C   0  0  0  0  0  0  0  0  0  0  0  0
 30 31  1  0  0  0
 31 32  1  0  0  0
 31 29  1  0  0  0
 29 28  1  0  0  0
 28 27  1  0  0  0
 27 21  1  0  0  0
 21 22  1  0  0  0
 21 26  2  0  0  0
 22 23  2  0  0  0
 23 24  1  0  0  0
 24 25  2  0  0  0
 25 19  1  0  0  0
 25 26  1  0  0  0
 19  1  1  0  0  0
 19 20  1  0  0  0
  1  2  1  0  0  0
  1  6  2  0  0  0
  2  3  2  0  0  0
  3  4  1  0  0  0
  4  5  2  0  0  0
  4 17  1  0  0  0
  5  6  1  0  0  0
  5  7  1  0  0  0
  7  8  1  0  0  0
  7 13  2  0  0  0
  8  9  2  0  0  0
  9 10  1  0  0  0
 10 11  1  0  0  0
 10 12  2  0  0  0
 12 13  1  0  0  0
 13 14  1  0  0  0
 14 15  1  0  0  0
 14 18  1  0  0  0
 15 16  2  0  0  0
 15 17  1  0  0  0
M  END
> <minimizedAffinity>
-8.45619

$$$$
