CHEMBL3109352


 35 39  0  0  0  0  0  0  0  0999 V2000
  -27.7402   -1.8590   -9.3388 C   0  0  0  0  0  0  0  0  0  0  0  0
  -27.5916   -0.7224   -8.5594 C   0  0  0  0  0  0  0  0  0  0  0  0
  -27.7939   -0.8231   -7.1946 C   0  0  0  0  0  0  0  0  0  0  0  0
  -28.1189   -2.0576   -6.6354 C   0  0  0  0  0  0  0  0  0  0  0  0
  -28.2752   -2.1604   -5.2474 C   0  0  0  0  0  0  0  0  0  0  0  0
  -28.5438   -3.3878   -4.6624 C   0  0  0  0  0  0  0  0  0  0  0  0
  -28.7015   -4.5086   -5.4673 C   0  0  0  0  0  0  0  0  0  0  0  0
  -28.6284   -4.4004   -6.8667 C   0  0  0  0  0  0  0  0  0  0  0  0
  -28.2790   -3.1809   -7.4848 C   0  0  0  0  0  0  0  0  0  0  0  0
  -28.1020   -3.0602   -8.8288 N   0  0  0  0  0  0  0  0  0  0  0  0
  -24.0648   -1.1631  -13.0586 C   0  0  0  0  0  0  0  0  0  0  0  0
  -23.8980   -1.0341  -11.6153 C   0  0  0  0  0  0  0  0  0  0  0  0
  -24.9535   -1.2258  -10.8015 C   0  0  0  0  0  0  0  0  0  0  0  0
  -26.2016   -1.5384  -11.3479 N   0  0  0  0  0  0  0  0  0  0  0  0
  -27.4282   -1.8108  -10.7606 C   0  0  0  0  0  0  0  0  0  0  0  0
  -28.2743   -2.0485  -11.8350 C   0  0  0  0  0  0  0  0  0  0  0  0
  -27.6317   -1.9701  -13.0329 N   0  0  0  0  0  0  0  0  0  0  0  0
  -26.3921   -1.6689  -12.7241 C   0  0  0  0  0  0  0  0  0  0  0  0
  -25.2740   -1.4744  -13.5753 C   0  0  0  0  0  0  0  0  0  0  0  0
  -22.9057   -0.9400  -13.7705 O   0  0  0  0  0  0  0  0  0  0  0  0
  -22.2309    0.2886  -13.4785 C   0  0  0  0  0  0  0  0  0  0  0  0
  -21.2515    0.6342  -14.5895 C   0  0  0  0  0  0  0  0  0  0  0  0
  -21.4783    2.9689  -14.3442 C   0  0  0  0  0  0  0  0  0  0  0  0
  -20.6003    1.8581  -14.2451 O   0  0  0  0  0  0  0  0  0  0  0  0
  -28.9023   -5.4686   -7.7013 O   0  0  0  0  0  0  0  0  0  0  0  0
  -28.6260   -6.7887   -7.1910 C   0  0  0  0  0  0  0  0  0  0  0  0
  -29.8527   -7.4359   -6.5437 C   0  0  0  0  0  0  0  0  0  0  0  0
  -30.6841   -7.8405   -7.6909 N   0  0  0  0  0  0  0  0  0  0  0  0
  -29.7100   -8.3993   -8.6635 C   0  0  0  0  0  0  0  0  0  0  0  0
  -28.3645   -7.7176   -8.3790 C   0  0  0  0  0  0  0  0  0  0  0  0
  -31.0571   -6.9789   -8.1009 H   0  0  0  0  0  0  0  0  0  0  0  0
  -29.6490   -9.9273   -8.4992 C   0  0  0  0  0  0  0  0  0  0  0  0
  -30.4181  -10.5980   -7.8203 O   0  0  0  0  0  0  0  0  0  0  0  0
  -28.6272  -10.4351   -9.2518 O   0  0  0  0  0  0  0  0  0  0  0  0
  -28.9362  -10.5823  -10.6373 C   0  0  0  0  0  0  0  0  0  0  0  0
 23 24  1  0  0  0
 24 22  1  0  0  0
 22 21  1  0  0  0
 21 20  1  0  0  0
 20 11  1  0  0  0
 11 12  1  0  0  0
 11 19  2  0  0  0
 12 13  2  0  0  0
 13 14  1  0  0  0
 14 15  1  0  0  0
 14 18  1  0  0  0
 15  1  1  0  0  0
 15 16  2  0  0  0
  1  2  1  0  0  0
  1 10  2  0  0  0
  2  3  2  0  0  0
  3  4  1  0  0  0
  4  5  1  0  0  0
  4  9  2  0  0  0
  5  6  2  0  0  0
  6  7  1  0  0  0
  7  8  2  0  0  0
  8 25  1  0  0  0
  8  9  1  0  0  0
 26 27  1  0  0  0
 26 30  1  0  0  0
 26 25  1  0  0  0
 27 28  1  0  0  0
 28 29  1  0  0  0
 28 31  1  0  0  0
 29 32  1  0  0  0
 29 30  1  0  0  0
 32 33  2  0  0  0
 32 34  1  0  0  0
 34 35  1  0  0  0
  9 10  1  0  0  0
 16 17  1  0  0  0
 17 18  2  0  0  0
 18 19  1  0  0  0
M  END
> <minimizedAffinity>
-8.10037

$$$$
