CHEMBL502279


 23 25  0  0  0  0  0  0  0  0999 V2000
  -16.1508    0.4779  -14.7527 C   0  0  0  0  0  0  0  0  0  0  0  0
  -14.9587    0.5677  -15.4265 N   0  0  0  0  0  0  0  0  0  0  0  0
  -15.1011    1.5133  -16.4025 C   0  0  0  0  0  0  0  0  0  0  0  0
  -16.3063    2.0408  -16.3910 N   0  0  0  0  0  0  0  0  0  0  0  0
  -16.9675    1.4263  -15.3490 C   0  0  0  0  0  0  0  0  0  0  0  0
  -14.1259    0.0274  -15.2433 H   0  0  0  0  0  0  0  0  0  0  0  0
  -18.3530    1.7041  -14.9989 C   0  0  0  0  0  0  0  0  0  0  0  0
  -18.7173    2.9748  -14.5379 C   0  0  0  0  0  0  0  0  0  0  0  0
  -20.0631    3.2887  -14.3173 C   0  0  0  0  0  0  0  0  0  0  0  0
  -21.0518    2.3306  -14.5425 C   0  0  0  0  0  0  0  0  0  0  0  0
  -20.6966    1.0504  -14.9469 C   0  0  0  0  0  0  0  0  0  0  0  0
  -19.3548    0.7349  -15.1570 C   0  0  0  0  0  0  0  0  0  0  0  0
  -15.5107   -1.5533  -13.6492 C   0  0  0  0  0  0  0  0  0  0  0  0
  -16.2679   -0.4445  -13.6847 C   0  0  0  0  0  0  0  0  0  0  0  0
  -14.9594   -3.0845   -9.1993 N   0  0  0  0  0  0  0  0  0  0  0  0
  -15.4002   -3.3258  -10.4816 C   0  0  0  0  0  0  0  0  0  0  0  0
  -15.9550   -4.5170  -10.7220 N   0  0  0  0  0  0  0  0  0  0  0  0
  -16.3985   -4.7292  -11.9701 C   0  0  0  0  0  0  0  0  0  0  0  0
  -16.2959   -3.8046  -12.9814 C   0  0  0  0  0  0  0  0  0  0  0  0
  -15.6760   -2.6178  -12.6418 C   0  0  0  0  0  0  0  0  0  0  0  0
  -15.2150   -2.3757  -11.3983 N   0  0  0  0  0  0  0  0  0  0  0  0
  -14.7863   -3.9590   -8.7249 H   0  0  0  0  0  0  0  0  0  0  0  0
  -14.2180   -2.3989   -9.2084 H   0  0  0  0  0  0  0  0  0  0  0  0
 15 16  1  0  0  0
 15 22  1  0  0  0
 15 23  1  0  0  0
 16 17  1  0  0  0
 16 21  2  0  0  0
 17 18  2  0  0  0
 18 19  1  0  0  0
 19 20  2  0  0  0
 20 13  1  0  0  0
 20 21  1  0  0  0
 13 14  2  0  0  0
 14  1  1  0  0  0
  1  2  1  0  0  0
  1  5  2  0  0  0
  2  3  1  0  0  0
  2  6  1  0  0  0
  3  4  2  0  0  0
  4  5  1  0  0  0
  5  7  1  0  0  0
  7  8  1  0  0  0
  7 12  2  0  0  0
  8  9  2  0  0  0
  9 10  1  0  0  0
 10 11  2  0  0  0
 11 12  1  0  0  0
M  END
> <minimizedAffinity>
-8.54527

$$$$
