CHEMBL191265


 35 38  0  0  0  0  0  0  0  0999 V2000
  -15.5074   -0.6809  -13.8080 C   0  0  0  0  0  0  0  0  0  0  0  0
  -16.0157   -1.1402  -12.5826 C   0  0  0  0  0  0  0  0  0  0  0  0
  -15.3705   -2.1675  -11.8827 C   0  0  0  0  0  0  0  0  0  0  0  0
  -15.8008   -2.6421  -10.6471 C   0  0  0  0  0  0  0  0  0  0  0  0
  -15.1594   -3.6029   -9.9573 N   0  0  0  0  0  0  0  0  0  0  0  0
  -14.0563   -4.1441  -10.5007 C   0  0  0  0  0  0  0  0  0  0  0  0
  -13.5762   -3.7306  -11.7364 C   0  0  0  0  0  0  0  0  0  0  0  0
  -14.2283   -2.7354  -12.4452 C   0  0  0  0  0  0  0  0  0  0  0  0
  -13.7430   -2.3376  -13.6310 N   0  0  0  0  0  0  0  0  0  0  0  0
  -14.3594   -1.3318  -14.2849 C   0  0  0  0  0  0  0  0  0  0  0  0
  -13.7778   -1.0225  -15.5165 N   0  0  0  0  0  0  0  0  0  0  0  0
  -12.9202   -1.5523  -15.6088 H   0  0  0  0  0  0  0  0  0  0  0  0
  -13.6564   -0.0261  -15.6472 H   0  0  0  0  0  0  0  0  0  0  0  0
  -18.2329    1.5268  -15.2843 C   0  0  0  0  0  0  0  0  0  0  0  0
  -17.4932    2.6265  -15.7158 C   0  0  0  0  0  0  0  0  0  0  0  0
  -16.1074    2.6400  -15.5514 C   0  0  0  0  0  0  0  0  0  0  0  0
  -15.4736    1.5421  -14.9822 C   0  0  0  0  0  0  0  0  0  0  0  0
  -16.1935    0.4330  -14.5061 C   0  0  0  0  0  0  0  0  0  0  0  0
  -17.5827    0.4523  -14.6797 C   0  0  0  0  0  0  0  0  0  0  0  0
  -20.3706    2.5511  -15.1609 C   0  0  0  0  0  0  0  0  0  0  0  0
  -19.5902    1.3828  -15.3705 O   0  0  0  0  0  0  0  0  0  0  0  0
  -15.2708    3.6700  -15.8931 O   0  0  0  0  0  0  0  0  0  0  0  0
  -15.4701    4.2531  -17.1701 C   0  0  0  0  0  0  0  0  0  0  0  0
  -13.3378   -5.1043   -9.7850 N   0  0  0  0  0  0  0  0  0  0  0  0
  -13.7107   -5.3271   -8.8694 H   0  0  0  0  0  0  0  0  0  0  0  0
  -11.8813   -5.0124   -9.8569 C   0  0  0  0  0  0  0  0  0  0  0  0
  -11.1908   -6.3472   -9.5368 C   0  0  0  0  0  0  0  0  0  0  0  0
  -11.0722   -7.2505  -10.7734 C   0  0  0  0  0  0  0  0  0  0  0  0
  -12.1576   -7.0687  -11.7426 N   0  0  0  0  0  0  0  0  0  0  0  0
  -11.6725   -6.8213  -13.1144 C   0  0  0  0  0  0  0  0  0  0  0  0
  -12.8451   -6.5871  -14.0917 C   0  0  0  0  0  0  0  0  0  0  0  0
  -13.8277   -7.6898  -14.1454 N   0  0  0  0  0  0  0  0  0  0  0  0
  -13.2841   -8.8486  -14.8422 C   0  0  0  0  0  0  0  0  0  0  0  0
  -14.2430   -8.0243  -12.7659 C   0  0  0  0  0  0  0  0  0  0  0  0
  -13.0864   -8.2152  -11.7498 C   0  0  0  0  0  0  0  0  0  0  0  0
 20 21  1  0  0  0
 21 14  1  0  0  0
 14 15  1  0  0  0
 14 19  2  0  0  0
 15 16  2  0  0  0
 16 22  1  0  0  0
 16 17  1  0  0  0
 22 23  1  0  0  0
 17 18  2  0  0  0
 18  1  1  0  0  0
 18 19  1  0  0  0
  1  2  1  0  0  0
  1 10  2  0  0  0
  2  3  2  0  0  0
  3  4  1  0  0  0
  3  8  1  0  0  0
  4  5  2  0  0  0
  5  6  1  0  0  0
  6 24  1  0  0  0
  6  7  2  0  0  0
 24 26  1  0  0  0
 24 25  1  0  0  0
 26 27  1  0  0  0
 27 28  1  0  0  0
 28 29  1  0  0  0
 29 30  1  0  0  0
 29 35  1  0  0  0
 30 31  1  0  0  0
 31 32  1  0  0  0
 32 33  1  0  0  0
 32 34  1  0  0  0
 34 35  1  0  0  0
  7  8  1  0  0  0
  8  9  2  0  0  0
  9 10  1  0  0  0
 10 11  1  0  0  0
 11 12  1  0  0  0
 11 13  1  0  0  0
M  END
> <minimizedAffinity>
-7.31052

$$$$
