CHEMBL4454810


 38 42  0  0  0  0  0  0  0  0999 V2000
  -14.5926   -0.8287  -12.5406 N   0  0  0  0  0  0  0  0  0  0  0  0
  -15.2104   -0.4643  -11.8109 H   0  0  0  0  0  0  0  0  0  0  0  0
  -16.7792    3.9923  -16.5430 C   0  0  0  0  0  0  0  0  0  0  0  0
  -16.0755    2.9485  -15.7118 C   0  0  0  0  0  0  0  0  0  0  0  0
  -14.7334    2.9351  -15.7022 C   0  0  0  0  0  0  0  0  0  0  0  0
  -14.0004    2.0291  -14.8294 C   0  0  0  0  0  0  0  0  0  0  0  0
  -12.6109    2.0808  -14.7818 C   0  0  0  0  0  0  0  0  0  0  0  0
  -11.9599    1.2033  -13.9495 C   0  0  0  0  0  0  0  0  0  0  0  0
  -12.6016    0.2812  -13.2124 N   0  0  0  0  0  0  0  0  0  0  0  0
  -13.9545    0.2039  -13.2575 C   0  0  0  0  0  0  0  0  0  0  0  0
  -14.6895    1.1070  -14.0393 C   0  0  0  0  0  0  0  0  0  0  0  0
  -16.1739    1.1070  -14.0800 C   0  0  0  0  0  0  0  0  0  0  0  0
  -16.7700    0.2576  -13.4132 O   0  0  0  0  0  0  0  0  0  0  0  0
  -16.8123    2.0736  -14.8980 N   0  0  0  0  0  0  0  0  0  0  0  0
  -18.2449    2.0802  -14.8560 C   0  0  0  0  0  0  0  0  0  0  0  0
  -18.9146    3.1773  -14.2976 C   0  0  0  0  0  0  0  0  0  0  0  0
  -20.3071    3.1866  -14.2115 C   0  0  0  0  0  0  0  0  0  0  0  0
  -21.0393    2.0920  -14.6670 C   0  0  0  0  0  0  0  0  0  0  0  0
  -20.3809    0.9942  -15.2213 C   0  0  0  0  0  0  0  0  0  0  0  0
  -18.9873    0.9893  -15.3219 C   0  0  0  0  0  0  0  0  0  0  0  0
  -14.8491   -2.1564  -12.9292 C   0  0  0  0  0  0  0  0  0  0  0  0
  -14.0393   -2.7348  -13.9166 C   0  0  0  0  0  0  0  0  0  0  0  0
  -14.2045   -4.0709  -14.2914 C   0  0  0  0  0  0  0  0  0  0  0  0
  -15.2394   -4.8301  -13.7375 C   0  0  0  0  0  0  0  0  0  0  0  0
  -16.0201   -4.2743  -12.7326 C   0  0  0  0  0  0  0  0  0  0  0  0
  -16.9830   -4.9996  -12.1434 F   0  0  0  0  0  0  0  0  0  0  0  0
  -15.8344   -2.9544  -12.3370 C   0  0  0  0  0  0  0  0  0  0  0  0
  -15.5466   -6.1148  -14.1259 O   0  0  0  0  0  0  0  0  0  0  0  0
  -14.6954   -7.1324  -13.7509 C   0  0  0  0  0  0  0  0  0  0  0  0
  -14.5798   -7.5369  -12.4197 C   0  0  0  0  0  0  0  0  0  0  0  0
  -13.8142   -8.6480  -12.1408 C   0  0  0  0  0  0  0  0  0  0  0  0
  -13.1144   -9.3231  -13.0733 N   0  0  0  0  0  0  0  0  0  0  0  0
  -13.1510   -8.8645  -14.3406 C   0  0  0  0  0  0  0  0  0  0  0  0
  -12.4058   -9.6220  -15.2424 N   0  0  0  0  0  0  0  0  0  0  0  0
  -13.9228   -7.7644  -14.7277 C   0  0  0  0  0  0  0  0  0  0  0  0
  -13.8941   -7.0616  -16.7089 I   0  0  0  0  0  0  0  0  0  0  0  0
  -11.8919  -10.3133  -14.7038 H   0  0  0  0  0  0  0  0  0  0  0  0
  -11.8069   -9.0401  -15.8157 H   0  0  0  0  0  0  0  0  0  0  0  0
  3  4  1  0  0  0
  4  5  2  0  0  0
  4 14  1  0  0  0
  5  6  1  0  0  0
  6  7  1  0  0  0
  6 11  2  0  0  0
  7  8  2  0  0  0
  8  9  1  0  0  0
  9 10  2  0  0  0
 10  1  1  0  0  0
 10 11  1  0  0  0
  1 21  1  0  0  0
  1  2  1  0  0  0
 21 22  1  0  0  0
 21 27  2  0  0  0
 22 23  2  0  0  0
 23 24  1  0  0  0
 24 28  1  0  0  0
 24 25  2  0  0  0
 28 29  1  0  0  0
 29 30  1  0  0  0
 29 35  2  0  0  0
 30 31  2  0  0  0
 31 32  1  0  0  0
 32 33  2  0  0  0
 33 34  1  0  0  0
 33 35  1  0  0  0
 34 37  1  0  0  0
 34 38  1  0  0  0
 35 36  1  0  0  0
 25 26  1  0  0  0
 25 27  1  0  0  0
 11 12  1  0  0  0
 12 13  2  0  0  0
 12 14  1  0  0  0
 14 15  1  0  0  0
 15 16  1  0  0  0
 15 20  2  0  0  0
 16 17  2  0  0  0
 17 18  1  0  0  0
 18 19  2  0  0  0
 19 20  1  0  0  0
M  END
> <minimizedAffinity>
-8.53747

$$$$
