CHEMBL1095130


 32 35  0  0  0  0  0  0  0  0999 V2000
  -26.9573    8.2337  -17.8928 N   0  0  0  0  0  0  0  0  0  0  0  0
  -26.8594    9.2514  -16.9643 C   0  0  0  0  0  0  0  0  0  0  0  0
  -25.8216   10.0839  -17.1160 N   0  0  0  0  0  0  0  0  0  0  0  0
  -25.6621   11.1384  -16.2786 C   0  0  0  0  0  0  0  0  0  0  0  0
  -26.6183   11.3036  -15.2634 C   0  0  0  0  0  0  0  0  0  0  0  0
  -26.8780   12.2483  -14.2307 C   0  0  0  0  0  0  0  0  0  0  0  0
  -28.0778   11.9028  -13.6342 C   0  0  0  0  0  0  0  0  0  0  0  0
  -28.4514   10.6837  -14.1578 N   0  0  0  0  0  0  0  0  0  0  0  0
  -27.6173   10.3488  -15.1905 C   0  0  0  0  0  0  0  0  0  0  0  0
  -27.7789    9.2927  -15.9971 N   0  0  0  0  0  0  0  0  0  0  0  0
  -26.0556    8.0785  -18.3178 H   0  0  0  0  0  0  0  0  0  0  0  0
  -27.4248    7.4367  -17.4837 H   0  0  0  0  0  0  0  0  0  0  0  0
  -29.2681   10.1456  -13.9005 H   0  0  0  0  0  0  0  0  0  0  0  0
  -24.5904   12.0322  -16.4130 N   0  0  0  0  0  0  0  0  0  0  0  0
  -24.3640   12.5240  -15.5555 H   0  0  0  0  0  0  0  0  0  0  0  0
  -23.5513   12.0712  -17.3614 C   0  0  0  0  0  0  0  0  0  0  0  0
  -23.6683   12.6589  -18.6239 C   0  0  0  0  0  0  0  0  0  0  0  0
  -22.6240   12.5719  -19.5536 C   0  0  0  0  0  0  0  0  0  0  0  0
  -21.4481   11.9089  -19.2204 C   0  0  0  0  0  0  0  0  0  0  0  0
  -20.1893   11.7664  -20.3824 Cl  0  0  0  0  0  0  0  0  0  0  0  0
  -21.2885   11.3499  -17.9566 C   0  0  0  0  0  0  0  0  0  0  0  0
  -22.3346   11.4438  -17.0446 C   0  0  0  0  0  0  0  0  0  0  0  0
  -22.1857   10.8837  -15.8332 F   0  0  0  0  0  0  0  0  0  0  0  0
  -28.9379   12.6590  -12.6753 C   0  0  0  0  0  0  0  0  0  0  0  0
  -30.4163   12.4209  -12.8609 C   0  0  0  0  0  0  0  0  0  0  0  0
  -30.9306   12.3473  -14.1690 C   0  0  0  0  0  0  0  0  0  0  0  0
  -32.2898   12.1203  -14.3907 C   0  0  0  0  0  0  0  0  0  0  0  0
  -33.1492   11.9682  -13.3071 C   0  0  0  0  0  0  0  0  0  0  0  0
  -34.8257   11.6962  -13.5804 Cl  0  0  0  0  0  0  0  0  0  0  0  0
  -32.6636   12.0381  -12.0044 C   0  0  0  0  0  0  0  0  0  0  0  0
  -31.3032   12.2675  -11.7824 C   0  0  0  0  0  0  0  0  0  0  0  0
  -30.7650   12.3458  -10.1413 Cl  0  0  0  0  0  0  0  0  0  0  0  0
  1  2  1  0  0  0
  1 11  1  0  0  0
  1 12  1  0  0  0
  2  3  1  0  0  0
  2 10  2  0  0  0
  3  4  2  0  0  0
  4 14  1  0  0  0
  4  5  1  0  0  0
 14 16  1  0  0  0
 14 15  1  0  0  0
 16 17  1  0  0  0
 16 22  2  0  0  0
 17 18  2  0  0  0
 18 19  1  0  0  0
 19 20  1  0  0  0
 19 21  2  0  0  0
 21 22  1  0  0  0
 22 23  1  0  0  0
  5  6  1  0  0  0
  5  9  2  0  0  0
  6  7  2  0  0  0
  7 24  1  0  0  0
  7  8  1  0  0  0
 24 25  1  0  0  0
 25 26  1  0  0  0
 25 31  2  0  0  0
 26 27  2  0  0  0
 27 28  1  0  0  0
 28 29  1  0  0  0
 28 30  2  0  0  0
 30 31  1  0  0  0
 31 32  1  0  0  0
  8  9  1  0  0  0
  8 13  1  0  0  0
  9 10  1  0  0  0
M  END
> <minimizedAffinity>
-4.40594

$$$$
