CHEMBL477560


 25 27  0  0  0  0  0  0  0  0999 V2000
  -20.9173    2.0380  -14.4307 C   0  0  0  0  0  0  0  0  0  0  0  0
  -20.0720    1.1373  -14.9703 C   0  0  0  0  0  0  0  0  0  0  0  0
  -18.6773    1.5849  -15.1697 C   0  0  0  0  0  0  0  0  0  0  0  0
  -17.5939    0.7063  -15.2847 C   0  0  0  0  0  0  0  0  0  0  0  0
  -16.2977    1.2099  -15.4877 C   0  0  0  0  0  0  0  0  0  0  0  0
  -16.1024    2.5824  -15.6321 C   0  0  0  0  0  0  0  0  0  0  0  0
  -14.8621    3.1274  -15.8273 O   0  0  0  0  0  0  0  0  0  0  0  0
  -17.1785    3.4594  -15.5547 C   0  0  0  0  0  0  0  0  0  0  0  0
  -16.9679    4.8021  -15.7127 O   0  0  0  0  0  0  0  0  0  0  0  0
  -18.4464    2.9678  -15.2733 C   0  0  0  0  0  0  0  0  0  0  0  0
  -19.4707    3.8650  -15.0651 O   0  0  0  0  0  0  0  0  0  0  0  0
  -20.3442    3.3763  -14.0365 C   0  0  0  0  0  0  0  0  0  0  0  0
  -14.1950    2.4385  -15.6690 H   0  0  0  0  0  0  0  0  0  0  0  0
  -16.0183    4.8834  -15.9222 H   0  0  0  0  0  0  0  0  0  0  0  0
  -22.4118    1.8742  -14.2832 C   0  0  0  0  0  0  0  0  0  0  0  0
  -24.4196   -2.8585  -11.8410 O   0  0  0  0  0  0  0  0  0  0  0  0
  -23.8950   -1.7468  -12.4383 C   0  0  0  0  0  0  0  0  0  0  0  0
  -22.8449   -1.0532  -11.8471 C   0  0  0  0  0  0  0  0  0  0  0  0
  -22.3403    0.1002  -12.4686 C   0  0  0  0  0  0  0  0  0  0  0  0
  -22.8835    0.5638  -13.6820 C   0  0  0  0  0  0  0  0  0  0  0  0
  -23.9404   -0.1527  -14.2624 C   0  0  0  0  0  0  0  0  0  0  0  0
  -24.4343   -1.3020  -13.6449 C   0  0  0  0  0  0  0  0  0  0  0  0
  -25.4704   -1.9911  -14.2097 O   0  0  0  0  0  0  0  0  0  0  0  0
  -24.0282   -2.9628  -10.9607 H   0  0  0  0  0  0  0  0  0  0  0  0
  -25.7142   -1.5562  -15.0419 H   0  0  0  0  0  0  0  0  0  0  0  0
 16 17  1  0  0  0
 16 24  1  0  0  0
 17 18  1  0  0  0
 17 22  2  0  0  0
 18 19  2  0  0  0
 19 20  1  0  0  0
 20 15  1  0  0  0
 20 21  2  0  0  0
 15  1  1  0  0  0
  1  2  2  0  0  0
  1 12  1  0  0  0
  2  3  1  0  0  0
  3  4  1  0  0  0
  3 10  2  0  0  0
  4  5  2  0  0  0
  5  6  1  0  0  0
  6  7  1  0  0  0
  6  8  2  0  0  0
  7 13  1  0  0  0
  8  9  1  0  0  0
  8 10  1  0  0  0
  9 14  1  0  0  0
 10 11  1  0  0  0
 11 12  1  0  0  0
 21 22  1  0  0  0
 22 23  1  0  0  0
 23 25  1  0  0  0
M  END
> <minimizedAffinity>
-9.97665

$$$$
