CHEMBL3660292


 42 46  0  0  0  0  0  0  0  0999 V2000
  -28.3083   -1.5342  -10.3502 O   0  0  0  0  0  0  0  0  0  0  0  0
  -24.8108   -1.5150  -12.6360 C   0  0  0  0  0  0  0  0  0  0  0  0
  -26.0450   -1.6640  -13.2796 C   0  0  0  0  0  0  0  0  0  0  0  0
  -27.2319   -1.6588  -12.5468 C   0  0  0  0  0  0  0  0  0  0  0  0
  -27.1907   -1.5598  -11.1559 C   0  0  0  0  0  0  0  0  0  0  0  0
  -25.9588   -1.4087  -10.5109 C   0  0  0  0  0  0  0  0  0  0  0  0
  -24.7669   -1.4120  -11.2443 C   0  0  0  0  0  0  0  0  0  0  0  0
  -21.9124   -0.1292  -14.3087 N   0  0  0  0  0  0  0  0  0  0  0  0
  -22.9986   -0.1506  -13.4545 C   0  0  0  0  0  0  0  0  0  0  0  0
  -23.3629    0.7913  -12.7566 O   0  0  0  0  0  0  0  0  0  0  0  0
  -23.6185   -1.3925  -13.3969 N   0  0  0  0  0  0  0  0  0  0  0  0
  -21.6018   -1.0176  -14.6737 H   0  0  0  0  0  0  0  0  0  0  0  0
  -22.9780   -2.1704  -13.3360 H   0  0  0  0  0  0  0  0  0  0  0  0
  -17.4176    1.5776  -15.4696 C   0  0  0  0  0  0  0  0  0  0  0  0
  -18.8468    1.8378  -15.0902 C   0  0  0  0  0  0  0  0  0  0  0  0
  -19.2892    3.1517  -14.9095 C   0  0  0  0  0  0  0  0  0  0  0  0
  -20.6186    3.3984  -14.5941 C   0  0  0  0  0  0  0  0  0  0  0  0
  -21.5081    2.3388  -14.4385 C   0  0  0  0  0  0  0  0  0  0  0  0
  -22.7941    2.6742  -14.2779 F   0  0  0  0  0  0  0  0  0  0  0  0
  -21.0858    1.0017  -14.5455 C   0  0  0  0  0  0  0  0  0  0  0  0
  -19.7491    0.7697  -14.9081 C   0  0  0  0  0  0  0  0  0  0  0  0
  -28.2061   -1.9366   -9.0379 C   0  0  0  0  0  0  0  0  0  0  0  0
  -27.6845   -1.1445   -8.0191 C   0  0  0  0  0  0  0  0  0  0  0  0
  -27.6133   -1.6829   -6.7475 C   0  0  0  0  0  0  0  0  0  0  0  0
  -28.0668   -2.9126   -6.4251 N   0  0  0  0  0  0  0  0  0  0  0  0
  -28.6302   -3.6378   -7.4229 C   0  0  0  0  0  0  0  0  0  0  0  0
  -28.7190   -3.1929   -8.7337 C   0  0  0  0  0  0  0  0  0  0  0  0
  -29.1466   -4.9328   -6.9998 C   0  0  0  0  0  0  0  0  0  0  0  0
  -30.0798   -5.7857   -7.5571 C   0  0  0  0  0  0  0  0  0  0  0  0
  -30.2038   -6.9525   -6.7369 C   0  0  0  0  0  0  0  0  0  0  0  0
  -29.3799   -6.7227   -5.6484 C   0  0  0  0  0  0  0  0  0  0  0  0
  -28.7171   -5.5385   -5.8425 N   0  0  0  0  0  0  0  0  0  0  0  0
  -28.0186   -5.1288   -5.2336 H   0  0  0  0  0  0  0  0  0  0  0  0
  -31.0704   -8.0862   -7.0536 C   0  0  0  0  0  0  0  0  0  0  0  0
  -32.2631   -8.0575   -6.7463 O   0  0  0  0  0  0  0  0  0  0  0  0
  -30.5604   -9.1476   -7.7848 N   0  0  0  0  0  0  0  0  0  0  0  0
  -31.4547  -10.1789   -8.2834 C   0  0  0  0  0  0  0  0  0  0  0  0
  -30.5583  -11.1821   -8.9977 C   0  0  0  0  0  0  0  0  0  0  0  0
  -29.3515  -10.3496   -9.4098 C   0  0  0  0  0  0  0  0  0  0  0  0
  -29.6248   -9.6639  -10.6316 O   0  0  0  0  0  0  0  0  0  0  0  0
  -29.1990   -9.3575   -8.2606 C   0  0  0  0  0  0  0  0  0  0  0  0
  -30.2577   -8.9483  -10.4367 H   0  0  0  0  0  0  0  0  0  0  0  0
 14 15  1  0  0  0
 15 16  1  0  0  0
 15 21  2  0  0  0
 16 17  2  0  0  0
 17 18  1  0  0  0
 18 19  1  0  0  0
 18 20  2  0  0  0
 20  8  1  0  0  0
 20 21  1  0  0  0
  8  9  1  0  0  0
  8 12  1  0  0  0
  9 10  2  0  0  0
  9 11  1  0  0  0
 11  2  1  0  0  0
 11 13  1  0  0  0
  2  3  1  0  0  0
  2  7  2  0  0  0
  3  4  2  0  0  0
  4  5  1  0  0  0
  5  1  1  0  0  0
  5  6  2  0  0  0
  1 22  1  0  0  0
 22 23  1  0  0  0
 22 27  2  0  0  0
 23 24  2  0  0  0
 24 25  1  0  0  0
 25 26  2  0  0  0
 26 28  1  0  0  0
 26 27  1  0  0  0
 28 29  2  0  0  0
 28 32  1  0  0  0
 29 30  1  0  0  0
 30 34  1  0  0  0
 30 31  2  0  0  0
 34 35  2  0  0  0
 34 36  1  0  0  0
 36 37  1  0  0  0
 36 41  1  0  0  0
 37 38  1  0  0  0
 38 39  1  0  0  0
 39 40  1  0  0  0
 39 41  1  0  0  0
 40 42  1  0  0  0
 31 32  1  0  0  0
 32 33  1  0  0  0
  6  7  1  0  0  0
M  END
> <minimizedAffinity>
-12.39617

$$$$
