CHEMBL3967940


 37 41  0  0  0  0  0  0  0  0999 V2000
  -24.5496   -0.9835  -11.4603 S   0  0  0  0  0  0  0  0  0  0  0  0
  -23.4775   -0.1687  -12.6516 C   0  0  0  0  0  0  0  0  0  0  0  0
  -22.7484   -0.8905  -13.6092 C   0  0  0  0  0  0  0  0  0  0  0  0
  -21.8142   -0.2533  -14.4546 C   0  0  0  0  0  0  0  0  0  0  0  0
  -21.7420    1.1558  -14.4362 C   0  0  0  0  0  0  0  0  0  0  0  0
  -20.8683    2.2128  -14.8640 C   0  0  0  0  0  0  0  0  0  0  0  0
  -21.6129    3.3248  -15.0023 N   0  0  0  0  0  0  0  0  0  0  0  0
  -22.5373    3.1548  -14.0369 N   0  0  0  0  0  0  0  0  0  0  0  0
  -22.6518    1.8438  -13.6420 C   0  0  0  0  0  0  0  0  0  0  0  0
  -23.4500    1.2304  -12.6696 C   0  0  0  0  0  0  0  0  0  0  0  0
  -23.0372    3.9606  -13.7058 H   0  0  0  0  0  0  0  0  0  0  0  0
  -19.5022    2.4417  -14.4288 C   0  0  0  0  0  0  0  0  0  0  0  0
  -18.4544    2.4372  -15.2763 C   0  0  0  0  0  0  0  0  0  0  0  0
  -17.1552    1.8104  -14.9495 C   0  0  0  0  0  0  0  0  0  0  0  0
  -17.0560    0.9925  -13.8259 C   0  0  0  0  0  0  0  0  0  0  0  0
  -15.7949    0.5834  -13.3918 C   0  0  0  0  0  0  0  0  0  0  0  0
  -14.6647    1.0094  -14.0770 C   0  0  0  0  0  0  0  0  0  0  0  0
  -14.8475    1.8255  -15.1800 C   0  0  0  0  0  0  0  0  0  0  0  0
  -16.0614    2.2250  -15.6324 N   0  0  0  0  0  0  0  0  0  0  0  0
  -27.2778   -1.6823  -11.9406 C   0  0  0  0  0  0  0  0  0  0  0  0
  -28.3048   -2.0835  -12.8209 C   0  0  0  0  0  0  0  0  0  0  0  0
  -28.0869   -2.1697  -14.1938 C   0  0  0  0  0  0  0  0  0  0  0  0
  -26.8400   -1.8451  -14.7079 C   0  0  0  0  0  0  0  0  0  0  0  0
  -25.8041   -1.4799  -13.8453 C   0  0  0  0  0  0  0  0  0  0  0  0
  -25.9856   -1.4265  -12.4500 C   0  0  0  0  0  0  0  0  0  0  0  0
  -28.3050   -0.4985  -10.1853 O   0  0  0  0  0  0  0  0  0  0  0  0
  -27.7132   -1.5193  -10.5220 C   0  0  0  0  0  0  0  0  0  0  0  0
  -27.3201   -2.4877   -9.6274 N   0  0  0  0  0  0  0  0  0  0  0  0
  -26.8588   -3.3230   -9.9654 H   0  0  0  0  0  0  0  0  0  0  0  0
  -27.5780   -2.3754   -8.2058 C   0  0  0  0  0  0  0  0  0  0  0  0
  -28.4536   -3.4877   -7.6871 C   0  0  0  0  0  0  0  0  0  0  0  0
  -28.2949   -4.8080   -8.1400 C   0  0  0  0  0  0  0  0  0  0  0  0
  -29.0591   -5.8488   -7.6016 C   0  0  0  0  0  0  0  0  0  0  0  0
  -29.9801   -5.5894   -6.5898 C   0  0  0  0  0  0  0  0  0  0  0  0
  -30.1372   -4.2907   -6.1338 C   0  0  0  0  0  0  0  0  0  0  0  0
  -31.0152   -4.0376   -5.1521 F   0  0  0  0  0  0  0  0  0  0  0  0
  -29.3899   -3.2456   -6.6697 C   0  0  0  0  0  0  0  0  0  0  0  0
 26 27  2  0  0  0
 27 28  1  0  0  0
 27 20  1  0  0  0
 28 30  1  0  0  0
 28 29  1  0  0  0
 30 31  1  0  0  0
 31 32  1  0  0  0
 31 37  2  0  0  0
 32 33  2  0  0  0
 33 34  1  0  0  0
 34 35  2  0  0  0
 35 36  1  0  0  0
 35 37  1  0  0  0
 20 21  1  0  0  0
 20 25  2  0  0  0
 21 22  2  0  0  0
 22 23  1  0  0  0
 23 24  2  0  0  0
 24 25  1  0  0  0
 25  1  1  0  0  0
  1  2  1  0  0  0
  2  3  1  0  0  0
  2 10  2  0  0  0
  3  4  2  0  0  0
  4  5  1  0  0  0
  5  6  1  0  0  0
  5  9  2  0  0  0
  6 12  1  0  0  0
  6  7  2  0  0  0
 12 13  2  0  0  0
 13 14  1  0  0  0
 14 15  1  0  0  0
 14 19  2  0  0  0
 15 16  2  0  0  0
 16 17  1  0  0  0
 17 18  2  0  0  0
 18 19  1  0  0  0
  7  8  1  0  0  0
  8  9  1  0  0  0
  8 11  1  0  0  0
  9 10  1  0  0  0
M  END
> <minimizedAffinity>
-11.01995

$$$$
