CHEMBL4068360


 32 36  0  0  0  0  0  0  0  0999 V2000
  -29.4728   -7.2659   -6.4658 C   0  0  0  0  0  0  0  0  0  0  0  0
  -28.6616   -6.9844   -7.5659 C   0  0  0  0  0  0  0  0  0  0  0  0
  -28.3925   -5.6627   -7.9570 C   0  0  0  0  0  0  0  0  0  0  0  0
  -29.0218   -4.6194   -7.2592 C   0  0  0  0  0  0  0  0  0  0  0  0
  -29.8996   -4.8908   -6.1957 C   0  0  0  0  0  0  0  0  0  0  0  0
  -30.3628   -3.6534   -5.6879 C   0  0  0  0  0  0  0  0  0  0  0  0
  -29.7030   -2.6628   -6.3673 C   0  0  0  0  0  0  0  0  0  0  0  0
  -28.8823   -3.2279   -7.3308 N   0  0  0  0  0  0  0  0  0  0  0  0
  -27.9603   -2.4724   -8.0777 C   0  0  0  0  0  0  0  0  0  0  0  0
  -27.2932   -1.6440   -7.4690 O   0  0  0  0  0  0  0  0  0  0  0  0
  -28.0993   -2.6616   -9.4401 N   0  0  0  0  0  0  0  0  0  0  0  0
  -30.1294   -6.2252   -5.8050 C   0  0  0  0  0  0  0  0  0  0  0  0
  -28.9050   -3.1536   -9.7998 H   0  0  0  0  0  0  0  0  0  0  0  0
  -27.3451   -1.9027  -10.3324 C   0  0  0  0  0  0  0  0  0  0  0  0
  -25.9236   -1.8198  -10.3843 C   0  0  0  0  0  0  0  0  0  0  0  0
  -25.6580   -0.9998  -11.4625 C   0  0  0  0  0  0  0  0  0  0  0  0
  -26.8400   -0.5805  -11.9842 O   0  0  0  0  0  0  0  0  0  0  0  0
  -27.8806   -1.1320  -11.2826 N   0  0  0  0  0  0  0  0  0  0  0  0
  -24.3343   -0.5760  -12.0773 C   0  0  0  0  0  0  0  0  0  0  0  0
  -23.7287   -1.3852  -13.2028 C   0  0  0  0  0  0  0  0  0  0  0  0
  -23.0844   -1.3961  -11.8590 C   0  0  0  0  0  0  0  0  0  0  0  0
  -29.7289   -8.5290   -5.9740 O   0  0  0  0  0  0  0  0  0  0  0  0
  -26.7521   -9.4374   -4.0792 C   0  0  0  0  0  0  0  0  0  0  0  0
  -27.5583   -8.6713   -4.8996 C   0  0  0  0  0  0  0  0  0  0  0  0
  -28.8358   -9.1380   -5.1179 C   0  0  0  0  0  0  0  0  0  0  0  0
  -29.3380  -10.2076   -4.4738 N   0  0  0  0  0  0  0  0  0  0  0  0
  -28.4969  -10.8430   -3.6488 C   0  0  0  0  0  0  0  0  0  0  0  0
  -27.2103  -10.5325   -3.4370 N   0  0  0  0  0  0  0  0  0  0  0  0
  -25.3013   -9.0492   -3.8752 C   0  0  0  0  0  0  0  0  0  0  0  0
  -23.4564  -10.2566   -4.8705 C   0  0  0  0  0  0  0  0  0  0  0  0
  -24.4651   -9.2191   -5.0723 N   0  0  0  0  0  0  0  0  0  0  0  0
  -25.0670   -9.4984   -5.8454 H   0  0  0  0  0  0  0  0  0  0  0  0
 30 31  1  0  0  0
 31 29  1  0  0  0
 31 32  1  0  0  0
 29 23  1  0  0  0
 23 24  1  0  0  0
 23 28  2  0  0  0
 24 25  2  0  0  0
 25 22  1  0  0  0
 25 26  1  0  0  0
 22  1  1  0  0  0
  1  2  1  0  0  0
  1 12  2  0  0  0
  2  3  2  0  0  0
  3  4  1  0  0  0
  4  5  2  0  0  0
  4  8  1  0  0  0
  5  6  1  0  0  0
  5 12  1  0  0  0
  6  7  2  0  0  0
  7  8  1  0  0  0
  8  9  1  0  0  0
  9 10  2  0  0  0
  9 11  1  0  0  0
 11 14  1  0  0  0
 11 13  1  0  0  0
 14 15  1  0  0  0
 14 18  2  0  0  0
 15 16  2  0  0  0
 16 19  1  0  0  0
 16 17  1  0  0  0
 19 20  1  0  0  0
 19 21  1  0  0  0
 20 21  1  0  0  0
 17 18  1  0  0  0
 26 27  2  0  0  0
 27 28  1  0  0  0
M  END
> <minimizedAffinity>
-9.21607

$$$$
