CHEMBL4469407


 37 40  0  0  0  0  0  0  0  0999 V2000
  -28.9821   -4.2262   -3.7899 O   0  0  0  0  0  0  0  0  0  0  0  0
  -29.8249   -4.4961   -4.6415 C   0  0  0  0  0  0  0  0  0  0  0  0
  -30.0721   -3.7696   -5.8072 N   0  0  0  0  0  0  0  0  0  0  0  0
  -30.9061   -3.9982   -6.3331 H   0  0  0  0  0  0  0  0  0  0  0  0
  -29.3462   -2.6228   -6.2365 C   0  0  0  0  0  0  0  0  0  0  0  0
  -29.4214   -1.4120   -5.5451 C   0  0  0  0  0  0  0  0  0  0  0  0
  -28.7607   -0.2828   -6.0121 C   0  0  0  0  0  0  0  0  0  0  0  0
  -27.9755   -0.3597   -7.1555 C   0  0  0  0  0  0  0  0  0  0  0  0
  -27.7952   -1.5713   -7.8260 C   0  0  0  0  0  0  0  0  0  0  0  0
  -28.5091   -2.7021   -7.3734 C   0  0  0  0  0  0  0  0  0  0  0  0
  -26.9060   -1.6844   -8.9296 N   0  0  0  0  0  0  0  0  0  0  0  0
  -27.2671   -1.5679  -10.2745 C   0  0  0  0  0  0  0  0  0  0  0  0
  -28.3976   -1.3756  -10.7072 O   0  0  0  0  0  0  0  0  0  0  0  0
  -25.9084   -1.7528   -8.7573 H   0  0  0  0  0  0  0  0  0  0  0  0
  -26.1457   -1.6350  -11.2616 C   0  0  0  0  0  0  0  0  0  0  0  0
  -26.4528   -1.6083  -12.6234 C   0  0  0  0  0  0  0  0  0  0  0  0
  -25.4125   -1.6410  -13.5449 C   0  0  0  0  0  0  0  0  0  0  0  0
  -24.1050   -1.7045  -13.0776 C   0  0  0  0  0  0  0  0  0  0  0  0
  -23.8938   -1.7350  -11.7060 C   0  0  0  0  0  0  0  0  0  0  0  0
  -24.8772   -1.6967  -10.7742 N   0  0  0  0  0  0  0  0  0  0  0  0
  -30.6898   -5.7391   -4.4926 C   0  0  0  0  0  0  0  0  0  0  0  0
  -29.8210   -6.9995   -4.3666 C   0  0  0  0  0  0  0  0  0  0  0  0
  -28.8574   -7.2478   -5.8971 S   0  0  0  0  0  0  0  0  0  0  0  0
  -28.6058   -9.0065   -5.9028 C   0  0  0  0  0  0  0  0  0  0  0  0
  -29.7976  -10.0086   -6.5488 S   0  0  0  0  0  0  0  0  0  0  0  0
  -27.3315   -9.4368   -5.4935 N   0  0  0  0  0  0  0  0  0  0  0  0
  -26.8046   -9.2414   -4.1193 C   0  0  0  0  0  0  0  0  0  0  0  0
  -25.2760   -9.0281   -4.0679 C   0  0  0  0  0  0  0  0  0  0  0  0
  -24.5960  -10.0398   -4.8676 N   0  0  0  0  0  0  0  0  0  0  0  0
  -25.0486  -10.1806   -6.2445 C   0  0  0  0  0  0  0  0  0  0  0  0
  -26.5651  -10.4582   -6.2543 C   0  0  0  0  0  0  0  0  0  0  0  0
  -23.5169  -10.7368   -4.3969 C   0  0  0  0  0  0  0  0  0  0  0  0
  -22.7077  -11.3536   -5.2740 N   0  0  0  0  0  0  0  0  0  0  0  0
  -21.6221  -11.9885   -4.7907 C   0  0  0  0  0  0  0  0  0  0  0  0
  -21.3073  -12.0478   -3.4588 C   0  0  0  0  0  0  0  0  0  0  0  0
  -22.1884  -11.4043   -2.6320 C   0  0  0  0  0  0  0  0  0  0  0  0
  -23.2785  -10.7492   -3.0737 N   0  0  0  0  0  0  0  0  0  0  0  0
  1  2  2  0  0  0
  2 21  1  0  0  0
  2  3  1  0  0  0
 21 22  1  0  0  0
 22 23  1  0  0  0
 23 24  1  0  0  0
 24 25  2  0  0  0
 24 26  1  0  0  0
 26 27  1  0  0  0
 26 31  1  0  0  0
 27 28  1  0  0  0
 28 29  1  0  0  0
 29 32  1  0  0  0
 29 30  1  0  0  0
 32 33  1  0  0  0
 32 37  2  0  0  0
 33 34  2  0  0  0
 34 35  1  0  0  0
 35 36  2  0  0  0
 36 37  1  0  0  0
 30 31  1  0  0  0
  3  5  1  0  0  0
  3  4  1  0  0  0
  5  6  1  0  0  0
  5 10  2  0  0  0
  6  7  2  0  0  0
  7  8  1  0  0  0
  8  9  2  0  0  0
  9 11  1  0  0  0
  9 10  1  0  0  0
 11 12  1  0  0  0
 11 14  1  0  0  0
 12 13  2  0  0  0
 12 15  1  0  0  0
 15 16  1  0  0  0
 15 20  2  0  0  0
 16 17  2  0  0  0
 17 18  1  0  0  0
 18 19  2  0  0  0
 19 20  1  0  0  0
M  END
> <minimizedAffinity>
-9.17724

$$$$
