CHEMBL3690402


 39 42  0  0  0  0  0  0  0  0999 V2000
  -19.2049    1.8642  -15.0121 C   0  0  0  0  0  0  0  0  0  0  0  0
  -18.5031    2.7849  -15.9131 C   0  0  0  0  0  0  0  0  0  0  0  0
  -17.1786    2.6635  -16.1068 C   0  0  0  0  0  0  0  0  0  0  0  0
  -16.4733    1.6387  -15.4748 N   0  0  0  0  0  0  0  0  0  0  0  0
  -15.1358    1.2577  -15.5417 C   0  0  0  0  0  0  0  0  0  0  0  0
  -15.0531    0.1953  -14.6483 C   0  0  0  0  0  0  0  0  0  0  0  0
  -16.2521   -0.0950  -14.0639 N   0  0  0  0  0  0  0  0  0  0  0  0
  -17.0957    0.7669  -14.5789 C   0  0  0  0  0  0  0  0  0  0  0  0
  -18.4948    0.9158  -14.3578 C   0  0  0  0  0  0  0  0  0  0  0  0
  -14.0517    1.8477  -16.3472 C   0  0  0  0  0  0  0  0  0  0  0  0
  -13.0561    0.9928  -16.8503 C   0  0  0  0  0  0  0  0  0  0  0  0
  -12.0288    1.4803  -17.6499 C   0  0  0  0  0  0  0  0  0  0  0  0
  -11.9778    2.8321  -17.9675 C   0  0  0  0  0  0  0  0  0  0  0  0
  -12.9647    3.7098  -17.5125 C   0  0  0  0  0  0  0  0  0  0  0  0
  -13.9947    3.2084  -16.6999 C   0  0  0  0  0  0  0  0  0  0  0  0
  -12.9830    5.0871  -17.8448 N   0  0  0  0  0  0  0  0  0  0  0  0
  -13.6923    5.6483  -18.8843 C   0  0  0  0  0  0  0  0  0  0  0  0
  -14.4287    5.0757  -19.6712 O   0  0  0  0  0  0  0  0  0  0  0  0
  -13.4848    7.0074  -18.9987 N   0  0  0  0  0  0  0  0  0  0  0  0
  -12.4374    5.7091  -17.2769 H   0  0  0  0  0  0  0  0  0  0  0  0
  -13.2987    7.5184  -18.1507 H   0  0  0  0  0  0  0  0  0  0  0  0
  -14.2080    7.6951  -20.0725 C   0  0  0  0  0  0  0  0  0  0  0  0
  -15.2283    8.7678  -19.6359 C   0  0  0  0  0  0  0  0  0  0  0  0
  -16.2785    8.8810  -20.4759 F   0  0  0  0  0  0  0  0  0  0  0  0
  -15.7016    8.5346  -18.3916 F   0  0  0  0  0  0  0  0  0  0  0  0
  -14.6249    9.9852  -19.6045 F   0  0  0  0  0  0  0  0  0  0  0  0
  -20.7067    1.9948  -14.8248 C   0  0  0  0  0  0  0  0  0  0  0  0
  -21.0520    3.3444  -14.2261 C   0  0  0  0  0  0  0  0  0  0  0  0
  -22.2605    3.7893  -14.0882 N   0  0  0  0  0  0  0  0  0  0  0  0
  -22.9562    3.1249  -14.4422 H   0  0  0  0  0  0  0  0  0  0  0  0
  -22.2749    1.0499  -13.2073 N   0  0  0  0  0  0  0  0  0  0  0  0
  -21.2769    0.8589  -13.9993 C   0  0  0  0  0  0  0  0  0  0  0  0
  -26.1944   -0.8184  -11.0553 C   0  0  0  0  0  0  0  0  0  0  0  0
  -24.8173   -1.1044  -11.4622 N   0  0  0  0  0  0  0  0  0  0  0  0
  -24.7900   -2.2190  -12.4190 C   0  0  0  0  0  0  0  0  0  0  0  0
  -23.3595   -2.5489  -12.8431 C   0  0  0  0  0  0  0  0  0  0  0  0
  -22.6743   -1.3333  -13.4508 C   0  0  0  0  0  0  0  0  0  0  0  0
  -22.7440   -0.1438  -12.4910 C   0  0  0  0  0  0  0  0  0  0  0  0
  -24.1999    0.1014  -12.0400 C   0  0  0  0  0  0  0  0  0  0  0  0
 33 34  1  0  0  0
 34 35  1  0  0  0
 34 39  1  0  0  0
 35 36  1  0  0  0
 36 37  1  0  0  0
 37 38  1  0  0  0
 38 31  1  0  0  0
 38 39  1  0  0  0
 31 32  2  0  0  0
 32 27  1  0  0  0
 27 28  1  0  0  0
 27  1  1  0  0  0
 28 29  2  0  0  0
 29 30  1  0  0  0
  1  2  1  0  0  0
  1  9  2  0  0  0
  2  3  2  0  0  0
  3  4  1  0  0  0
  4  5  1  0  0  0
  4  8  1  0  0  0
  5 10  1  0  0  0
  5  6  2  0  0  0
 10 11  1  0  0  0
 10 15  2  0  0  0
 11 12  2  0  0  0
 12 13  1  0  0  0
 13 14  2  0  0  0
 14 16  1  0  0  0
 14 15  1  0  0  0
 16 17  1  0  0  0
 16 20  1  0  0  0
 17 18  2  0  0  0
 17 19  1  0  0  0
 19 22  1  0  0  0
 19 21  1  0  0  0
 22 23  1  0  0  0
 23 24  1  0  0  0
 23 25  1  0  0  0
 23 26  1  0  0  0
  6  7  1  0  0  0
  7  8  2  0  0  0
  8  9  1  0  0  0
M  END
> <minimizedAffinity>
-8.38438

$$$$
