CHEMBL450622


 33 36  0  0  0  0  0  0  0  0999 V2000
  -24.0429   -0.3646  -13.1696 C   0  0  0  0  0  0  0  0  0  0  0  0
  -22.9845   -1.1908  -13.6256 C   0  0  0  0  0  0  0  0  0  0  0  0
  -21.7968   -0.6593  -14.1350 C   0  0  0  0  0  0  0  0  0  0  0  0
  -21.6766    0.7142  -14.2136 C   0  0  0  0  0  0  0  0  0  0  0  0
  -22.7193    1.5405  -13.8016 C   0  0  0  0  0  0  0  0  0  0  0  0
  -23.8916    1.0353  -13.2723 C   0  0  0  0  0  0  0  0  0  0  0  0
  -22.3843    2.8774  -13.9988 N   0  0  0  0  0  0  0  0  0  0  0  0
  -21.1108    3.0051  -14.5412 C   0  0  0  0  0  0  0  0  0  0  0  0
  -20.5527    4.0397  -14.8556 O   0  0  0  0  0  0  0  0  0  0  0  0
  -20.5891    1.5956  -14.6603 C   0  0  0  0  0  0  0  0  0  0  0  0
  -19.4022    1.0928  -15.0187 C   0  0  0  0  0  0  0  0  0  0  0  0
  -22.9770    3.6698  -13.8009 H   0  0  0  0  0  0  0  0  0  0  0  0
  -18.2035    1.7499  -15.3926 C   0  0  0  0  0  0  0  0  0  0  0  0
  -18.2081    2.9660  -16.0251 N   0  0  0  0  0  0  0  0  0  0  0  0
  -16.9238    3.3721  -16.2611 C   0  0  0  0  0  0  0  0  0  0  0  0
  -16.0610    2.4001  -15.8015 C   0  0  0  0  0  0  0  0  0  0  0  0
  -14.5786    2.4504  -15.8915 C   0  0  0  0  0  0  0  0  0  0  0  0
  -16.8737    1.3599  -15.2366 C   0  0  0  0  0  0  0  0  0  0  0  0
  -19.0363    3.4995  -16.2765 H   0  0  0  0  0  0  0  0  0  0  0  0
  -16.3853    0.0806  -14.6038 C   0  0  0  0  0  0  0  0  0  0  0  0
  -16.0387    0.2457  -13.1270 C   0  0  0  0  0  0  0  0  0  0  0  0
  -14.5713    0.0135  -12.8714 C   0  0  0  0  0  0  0  0  0  0  0  0
  -14.0207   -1.0746  -12.8294 O   0  0  0  0  0  0  0  0  0  0  0  0
  -13.8960    1.1722  -12.6812 O   0  0  0  0  0  0  0  0  0  0  0  0
  -14.4589    1.9681  -12.7383 H   0  0  0  0  0  0  0  0  0  0  0  0
  -26.5948   -1.6108  -10.6268 C   0  0  0  0  0  0  0  0  0  0  0  0
  -27.6187   -2.0510  -11.4598 C   0  0  0  0  0  0  0  0  0  0  0  0
  -27.4722   -1.9693  -12.8437 C   0  0  0  0  0  0  0  0  0  0  0  0
  -26.3053   -1.4417  -13.3996 C   0  0  0  0  0  0  0  0  0  0  0  0
  -25.2627   -0.9681  -12.5874 C   0  0  0  0  0  0  0  0  0  0  0  0
  -25.4321   -1.0777  -11.1933 C   0  0  0  0  0  0  0  0  0  0  0  0
  -27.6907   -2.3162   -8.6433 C   0  0  0  0  0  0  0  0  0  0  0  0
  -26.6021   -1.6400   -9.2590 O   0  0  0  0  0  0  0  0  0  0  0  0
 32 33  1  0  0  0
 33 26  1  0  0  0
 26 27  1  0  0  0
 26 31  2  0  0  0
 27 28  2  0  0  0
 28 29  1  0  0  0
 29 30  2  0  0  0
 30  1  1  0  0  0
 30 31  1  0  0  0
  1  2  1  0  0  0
  1  6  2  0  0  0
  2  3  2  0  0  0
  3  4  1  0  0  0
  4  5  2  0  0  0
  4 10  1  0  0  0
  5  6  1  0  0  0
  5  7  1  0  0  0
  7  8  1  0  0  0
  7 12  1  0  0  0
  8  9  2  0  0  0
  8 10  1  0  0  0
 10 11  2  0  0  0
 11 13  1  0  0  0
 13 14  1  0  0  0
 13 18  2  0  0  0
 14 15  1  0  0  0
 14 19  1  0  0  0
 15 16  2  0  0  0
 16 17  1  0  0  0
 16 18  1  0  0  0
 18 20  1  0  0  0
 20 21  1  0  0  0
 21 22  1  0  0  0
 22 23  2  0  0  0
 22 24  1  0  0  0
 24 25  1  0  0  0
M  END
> <minimizedAffinity>
-10.93417

$$$$
