CHEMBL429410


 38 42  0  0  0  0  0  0  0  0999 V2000
  -22.3411    1.0361  -14.3879 C   0  0  0  0  0  0  0  0  0  0  0  0
  -22.3506    2.3871  -13.9981 C   0  0  0  0  0  0  0  0  0  0  0  0
  -21.1876    3.1692  -14.0321 C   0  0  0  0  0  0  0  0  0  0  0  0
  -20.0555    2.5373  -14.5269 C   0  0  0  0  0  0  0  0  0  0  0  0
  -18.8156    3.0760  -14.7101 O   0  0  0  0  0  0  0  0  0  0  0  0
  -18.0789    2.0446  -15.2350 C   0  0  0  0  0  0  0  0  0  0  0  0
  -18.7515    0.9215  -15.3846 N   0  0  0  0  0  0  0  0  0  0  0  0
  -20.0119    1.2193  -14.9478 C   0  0  0  0  0  0  0  0  0  0  0  0
  -21.1720    0.4405  -14.8867 C   0  0  0  0  0  0  0  0  0  0  0  0
  -16.8091    2.3550  -15.5536 N   0  0  0  0  0  0  0  0  0  0  0  0
  -16.6703    3.0167  -16.3027 H   0  0  0  0  0  0  0  0  0  0  0  0
  -15.6521    1.7406  -15.0440 C   0  0  0  0  0  0  0  0  0  0  0  0
  -14.4328    1.9200  -15.7042 C   0  0  0  0  0  0  0  0  0  0  0  0
  -13.2902    1.2251  -15.2923 C   0  0  0  0  0  0  0  0  0  0  0  0
  -13.3377    0.3460  -14.2024 C   0  0  0  0  0  0  0  0  0  0  0  0
  -11.8971   -0.5525  -13.8856 Cl  0  0  0  0  0  0  0  0  0  0  0  0
  -14.5325    0.1896  -13.4956 C   0  0  0  0  0  0  0  0  0  0  0  0
  -15.6760    0.8683  -13.9475 C   0  0  0  0  0  0  0  0  0  0  0  0
  -14.7940   -0.6165  -12.4225 O   0  0  0  0  0  0  0  0  0  0  0  0
  -15.6743   -1.7250  -12.5971 C   0  0  0  0  0  0  0  0  0  0  0  0
  -15.0545   -3.0382  -12.0449 C   0  0  0  0  0  0  0  0  0  0  0  0
  -15.9839   -3.7298  -11.0423 C   0  0  0  0  0  0  0  0  0  0  0  0
  -16.6182   -4.8956  -11.7919 C   0  0  0  0  0  0  0  0  0  0  0  0
  -15.9818   -4.8903  -13.1720 C   0  0  0  0  0  0  0  0  0  0  0  0
  -14.7448   -4.1361  -12.9794 N   0  0  0  0  0  0  0  0  0  0  0  0
  -14.1401   -3.7283  -14.2361 C   0  0  0  0  0  0  0  0  0  0  0  0
  -23.4613    0.2302  -14.3898 O   0  0  0  0  0  0  0  0  0  0  0  0
  -25.2991   -1.3425  -11.6299 C   0  0  0  0  0  0  0  0  0  0  0  0
  -25.1003   -0.5888  -12.7765 C   0  0  0  0  0  0  0  0  0  0  0  0
  -23.8013   -0.4704  -13.2560 C   0  0  0  0  0  0  0  0  0  0  0  0
  -22.7494   -1.0301  -12.5364 C   0  0  0  0  0  0  0  0  0  0  0  0
  -23.0428   -1.7412  -11.3846 C   0  0  0  0  0  0  0  0  0  0  0  0
  -24.2960   -1.9263  -10.9149 N   0  0  0  0  0  0  0  0  0  0  0  0
  -28.0814   -2.1654   -9.2078 C   0  0  0  0  0  0  0  0  0  0  0  0
  -26.8053   -1.9067   -9.8149 N   0  0  0  0  0  0  0  0  0  0  0  0
  -26.6975   -1.5685  -11.1456 C   0  0  0  0  0  0  0  0  0  0  0  0
  -27.6580   -1.4640  -11.9014 O   0  0  0  0  0  0  0  0  0  0  0  0
  -25.9411   -1.9800   -9.2844 H   0  0  0  0  0  0  0  0  0  0  0  0
 34 35  1  0  0  0
 35 36  1  0  0  0
 35 38  1  0  0  0
 36 37  2  0  0  0
 36 28  1  0  0  0
 28 29  1  0  0  0
 28 33  2  0  0  0
 29 30  2  0  0  0
 30 27  1  0  0  0
 30 31  1  0  0  0
 27  1  1  0  0  0
  1  2  1  0  0  0
  1  9  2  0  0  0
  2  3  2  0  0  0
  3  4  1  0  0  0
  4  5  1  0  0  0
  4  8  2  0  0  0
  5  6  1  0  0  0
  6 10  1  0  0  0
  6  7  2  0  0  0
 10 12  1  0  0  0
 10 11  1  0  0  0
 12 13  1  0  0  0
 12 18  2  0  0  0
 13 14  2  0  0  0
 14 15  1  0  0  0
 15 16  1  0  0  0
 15 17  2  0  0  0
 17 19  1  0  0  0
 17 18  1  0  0  0
 19 20  1  0  0  0
 20 21  1  0  0  0
 21 22  1  0  0  0
 21 25  1  0  0  0
 22 23  1  0  0  0
 23 24  1  0  0  0
 24 25  1  0  0  0
 25 26  1  0  0  0
  7  8  1  0  0  0
  8  9  1  0  0  0
 31 32  2  0  0  0
 32 33  1  0  0  0
M  END
> <minimizedAffinity>
-9.83392

$$$$
