CHEMBL364000


 29 31  0  0  0  0  0  0  0  0999 V2000
  -29.9387   -4.1350   -5.5402 C   0  0  0  0  0  0  0  0  0  0  0  0
  -30.8418   -3.8007   -4.5342 C   0  0  0  0  0  0  0  0  0  0  0  0
  -31.5359   -4.7189   -3.8194 N   0  0  0  0  0  0  0  0  0  0  0  0
  -31.2760   -6.0070   -4.1462 C   0  0  0  0  0  0  0  0  0  0  0  0
  -30.3578   -6.3798   -5.1254 C   0  0  0  0  0  0  0  0  0  0  0  0
  -29.6992   -5.4366   -5.8354 N   0  0  0  0  0  0  0  0  0  0  0  0
  -27.9618   -2.5262   -8.3643 C   0  0  0  0  0  0  0  0  0  0  0  0
  -27.7814   -1.2779   -7.7680 C   0  0  0  0  0  0  0  0  0  0  0  0
  -28.3072   -0.9025   -6.5784 N   0  0  0  0  0  0  0  0  0  0  0  0
  -29.0203   -1.8434   -5.9149 C   0  0  0  0  0  0  0  0  0  0  0  0
  -29.2137   -3.1522   -6.3529 C   0  0  0  0  0  0  0  0  0  0  0  0
  -28.6638   -3.4692   -7.6056 C   0  0  0  0  0  0  0  0  0  0  0  0
  -27.3395   -2.8402   -9.5851 N   0  0  0  0  0  0  0  0  0  0  0  0
  -26.7153   -3.6383   -9.4720 H   0  0  0  0  0  0  0  0  0  0  0  0
  -26.6700   -1.7389  -10.2870 C   0  0  0  0  0  0  0  0  0  0  0  0
  -26.8612   -1.8998  -11.7933 C   0  0  0  0  0  0  0  0  0  0  0  0
  -25.6143   -1.4729  -12.5790 C   0  0  0  0  0  0  0  0  0  0  0  0
  -23.3219   -1.9317  -11.8839 C   0  0  0  0  0  0  0  0  0  0  0  0
  -24.4840   -1.0531  -11.7334 N   0  0  0  0  0  0  0  0  0  0  0  0
  -24.1029    0.3271  -12.0470 C   0  0  0  0  0  0  0  0  0  0  0  0
  -30.1130   -7.7447   -5.3818 N   0  0  0  0  0  0  0  0  0  0  0  0
  -30.5489   -8.3155   -4.6658 H   0  0  0  0  0  0  0  0  0  0  0  0
  -30.1273   -8.3358   -6.6646 C   0  0  0  0  0  0  0  0  0  0  0  0
  -31.3110   -8.8778   -7.1804 C   0  0  0  0  0  0  0  0  0  0  0  0
  -31.3200   -9.5181   -8.4241 C   0  0  0  0  0  0  0  0  0  0  0  0
  -30.1392   -9.6463   -9.1547 C   0  0  0  0  0  0  0  0  0  0  0  0
  -28.9531   -9.1351   -8.6381 C   0  0  0  0  0  0  0  0  0  0  0  0
  -27.4853   -9.3149   -9.5186 Cl  0  0  0  0  0  0  0  0  0  0  0  0
  -28.9437   -8.4914   -7.4034 C   0  0  0  0  0  0  0  0  0  0  0  0
 18 19  1  0  0  0
 19 20  1  0  0  0
 19 17  1  0  0  0
 17 16  1  0  0  0
 16 15  1  0  0  0
 15 13  1  0  0  0
 13  7  1  0  0  0
 13 14  1  0  0  0
  7  8  1  0  0  0
  7 12  2  0  0  0
  8  9  2  0  0  0
  9 10  1  0  0  0
 10 11  2  0  0  0
 11  1  1  0  0  0
 11 12  1  0  0  0
  1  2  1  0  0  0
  1  6  2  0  0  0
  2  3  2  0  0  0
  3  4  1  0  0  0
  4  5  2  0  0  0
  5 21  1  0  0  0
  5  6  1  0  0  0
 21 23  1  0  0  0
 21 22  1  0  0  0
 23 24  1  0  0  0
 23 29  2  0  0  0
 24 25  2  0  0  0
 25 26  1  0  0  0
 26 27  2  0  0  0
 27 28  1  0  0  0
 27 29  1  0  0  0
M  END
> <minimizedAffinity>
-8.19888

$$$$
