CHEMBL470441


 29 31  0  0  0  0  0  0  0  0999 V2000
  -29.2464   -5.5658   -7.0686 N   0  0  0  0  0  0  0  0  0  0  0  0
  -29.6869   -4.3474   -7.5717 C   0  0  0  0  0  0  0  0  0  0  0  0
  -30.6750   -4.2209   -8.2894 O   0  0  0  0  0  0  0  0  0  0  0  0
  -28.5152   -5.5005   -6.3662 H   0  0  0  0  0  0  0  0  0  0  0  0
  -31.3428  -10.7754   -8.3046 C   0  0  0  0  0  0  0  0  0  0  0  0
  -30.7698   -9.4106   -8.0392 C   0  0  0  0  0  0  0  0  0  0  0  0
  -31.4524   -8.5838   -7.1437 C   0  0  0  0  0  0  0  0  0  0  0  0
  -30.9686   -7.3144   -6.8288 C   0  0  0  0  0  0  0  0  0  0  0  0
  -29.7837   -6.8321   -7.3845 C   0  0  0  0  0  0  0  0  0  0  0  0
  -29.1119   -7.6403   -8.3048 C   0  0  0  0  0  0  0  0  0  0  0  0
  -29.5853   -8.9354   -8.6410 C   0  0  0  0  0  0  0  0  0  0  0  0
  -28.7737   -9.7370   -9.6375 C   0  0  0  0  0  0  0  0  0  0  0  0
  -29.4271  -10.0803  -10.7804 F   0  0  0  0  0  0  0  0  0  0  0  0
  -27.6580   -9.0658  -10.0429 F   0  0  0  0  0  0  0  0  0  0  0  0
  -28.3243  -10.9104   -9.1083 F   0  0  0  0  0  0  0  0  0  0  0  0
  -28.8845   -3.1789   -7.1480 C   0  0  0  0  0  0  0  0  0  0  0  0
  -28.9540   -2.7879   -5.8626 N   0  0  0  0  0  0  0  0  0  0  0  0
  -28.1332   -1.3644   -5.6778 S   0  0  0  0  0  0  0  0  0  0  0  0
  -27.6055   -1.2420   -7.2924 C   0  0  0  0  0  0  0  0  0  0  0  0
  -28.0270   -2.3534   -7.9927 C   0  0  0  0  0  0  0  0  0  0  0  0
  -27.6532   -2.5213   -9.2955 N   0  0  0  0  0  0  0  0  0  0  0  0
  -27.4926   -3.4556   -9.6650 H   0  0  0  0  0  0  0  0  0  0  0  0
  -27.9242   -1.5431  -10.3391 C   0  0  0  0  0  0  0  0  0  0  0  0
  -26.8126   -1.5501  -11.3564 C   0  0  0  0  0  0  0  0  0  0  0  0
  -25.4852   -1.4122  -10.9400 C   0  0  0  0  0  0  0  0  0  0  0  0
  -24.4852   -1.4500  -11.8946 C   0  0  0  0  0  0  0  0  0  0  0  0
  -24.7174   -1.6001  -13.2157 N   0  0  0  0  0  0  0  0  0  0  0  0
  -26.0075   -1.7201  -13.5976 C   0  0  0  0  0  0  0  0  0  0  0  0
  -27.0784   -1.6971  -12.7191 C   0  0  0  0  0  0  0  0  0  0  0  0
  5  6  1  0  0  0
  6  7  1  0  0  0
  6 11  2  0  0  0
  7  8  2  0  0  0
  8  9  1  0  0  0
  9  1  1  0  0  0
  9 10  2  0  0  0
  1  2  1  0  0  0
  1  4  1  0  0  0
  2  3  2  0  0  0
  2 16  1  0  0  0
 16 17  2  0  0  0
 16 20  1  0  0  0
 17 18  1  0  0  0
 18 19  1  0  0  0
 19 20  2  0  0  0
 20 21  1  0  0  0
 21 23  1  0  0  0
 21 22  1  0  0  0
 23 24  1  0  0  0
 24 25  1  0  0  0
 24 29  2  0  0  0
 25 26  2  0  0  0
 26 27  1  0  0  0
 27 28  2  0  0  0
 28 29  1  0  0  0
 10 11  1  0  0  0
 11 12  1  0  0  0
 12 13  1  0  0  0
 12 14  1  0  0  0
 12 15  1  0  0  0
M  END
> <minimizedAffinity>
-8.19042

$$$$
