CHEMBL3981956


 28 31  0  0  0  0  0  0  0  0999 V2000
  -14.2966   -2.3933  -14.7585 N   0  0  0  0  0  0  0  0  0  0  0  0
  -14.8936   -1.7346  -13.7152 C   0  0  0  0  0  0  0  0  0  0  0  0
  -15.4400   -0.4706  -13.7462 C   0  0  0  0  0  0  0  0  0  0  0  0
  -15.9041   -0.2891  -12.4176 C   0  0  0  0  0  0  0  0  0  0  0  0
  -15.7223   -1.3605  -11.6413 N   0  0  0  0  0  0  0  0  0  0  0  0
  -15.1113   -2.2721  -12.4328 N   0  0  0  0  0  0  0  0  0  0  0  0
  -14.4006   -1.9671  -15.6878 H   0  0  0  0  0  0  0  0  0  0  0  0
  -14.3896   -3.4046  -14.8278 H   0  0  0  0  0  0  0  0  0  0  0  0
  -14.7666   -3.5542  -11.9347 C   0  0  0  0  0  0  0  0  0  0  0  0
  -13.6671   -3.6713  -11.0667 C   0  0  0  0  0  0  0  0  0  0  0  0
  -13.3095   -4.9282  -10.5863 C   0  0  0  0  0  0  0  0  0  0  0  0
  -12.2206   -5.0801   -9.7681 O   0  0  0  0  0  0  0  0  0  0  0  0
  -13.9788   -6.0661  -10.9665 C   0  0  0  0  0  0  0  0  0  0  0  0
  -15.1005   -5.9532  -11.8069 C   0  0  0  0  0  0  0  0  0  0  0  0
  -15.4912   -4.7078  -12.2919 C   0  0  0  0  0  0  0  0  0  0  0  0
  -16.8062   -4.7475  -13.4273 Cl  0  0  0  0  0  0  0  0  0  0  0  0
  -11.8557   -4.1953   -9.5491 H   0  0  0  0  0  0  0  0  0  0  0  0
  -15.5378    0.4011  -14.9013 C   0  0  0  0  0  0  0  0  0  0  0  0
  -14.5409    0.6658  -15.5745 O   0  0  0  0  0  0  0  0  0  0  0  0
  -16.8284    1.0038  -15.1563 C   0  0  0  0  0  0  0  0  0  0  0  0
  -17.1755    2.3397  -15.2592 C   0  0  0  0  0  0  0  0  0  0  0  0
  -18.5931    2.3890  -15.2547 C   0  0  0  0  0  0  0  0  0  0  0  0
  -19.5735    3.3880  -15.2700 C   0  0  0  0  0  0  0  0  0  0  0  0
  -20.7712    3.0927  -14.6152 C   0  0  0  0  0  0  0  0  0  0  0  0
  -21.1691    1.7637  -14.4791 C   0  0  0  0  0  0  0  0  0  0  0  0
  -20.3411    0.7180  -14.8985 C   0  0  0  0  0  0  0  0  0  0  0  0
  -19.0183    1.0814  -15.1215 C   0  0  0  0  0  0  0  0  0  0  0  0
  -17.9644    0.2351  -15.1889 O   0  0  0  0  0  0  0  0  0  0  0  0
  1  2  1  0  0  0
  1  7  1  0  0  0
  1  8  1  0  0  0
  2  3  2  0  0  0
  2  6  1  0  0  0
  3 18  1  0  0  0
  3  4  1  0  0  0
 18 19  2  0  0  0
 18 20  1  0  0  0
 20 21  2  0  0  0
 20 28  1  0  0  0
 21 22  1  0  0  0
 22 23  1  0  0  0
 22 27  2  0  0  0
 23 24  2  0  0  0
 24 25  1  0  0  0
 25 26  2  0  0  0
 26 27  1  0  0  0
 27 28  1  0  0  0
  4  5  2  0  0  0
  5  6  1  0  0  0
  6  9  1  0  0  0
  9 10  1  0  0  0
  9 15  2  0  0  0
 10 11  2  0  0  0
 11 12  1  0  0  0
 11 13  1  0  0  0
 12 17  1  0  0  0
 13 14  2  0  0  0
 14 15  1  0  0  0
 15 16  1  0  0  0
M  END
> <minimizedAffinity>
-8.98878

$$$$
