CHEMBL241669


 30 32  0  0  0  0  0  0  0  0999 V2000
  -16.0774    3.5773  -16.2755 C   0  0  0  0  0  0  0  0  0  0  0  0
  -15.5451    2.2726  -15.9592 N   0  0  0  0  0  0  0  0  0  0  0  0
  -14.3370    1.7952  -16.3791 C   0  0  0  0  0  0  0  0  0  0  0  0
  -14.0816    0.6127  -15.8663 N   0  0  0  0  0  0  0  0  0  0  0  0
  -15.1850    0.3049  -15.1313 C   0  0  0  0  0  0  0  0  0  0  0  0
  -16.1100    1.3265  -15.1280 C   0  0  0  0  0  0  0  0  0  0  0  0
  -17.3725    1.4570  -14.4395 C   0  0  0  0  0  0  0  0  0  0  0  0
  -17.4418    1.4103  -13.2158 O   0  0  0  0  0  0  0  0  0  0  0  0
  -18.4661    1.5560  -15.2946 N   0  0  0  0  0  0  0  0  0  0  0  0
  -18.2764    1.3412  -16.2649 H   0  0  0  0  0  0  0  0  0  0  0  0
  -19.8075    1.7591  -14.9142 C   0  0  0  0  0  0  0  0  0  0  0  0
  -20.3677    3.0324  -14.7822 C   0  0  0  0  0  0  0  0  0  0  0  0
  -21.6763    3.1919  -14.3392 C   0  0  0  0  0  0  0  0  0  0  0  0
  -22.4603    2.0750  -14.0439 C   0  0  0  0  0  0  0  0  0  0  0  0
  -21.9589    0.7984  -14.2652 C   0  0  0  0  0  0  0  0  0  0  0  0
  -20.6235    0.6422  -14.6782 C   0  0  0  0  0  0  0  0  0  0  0  0
  -22.6451   -0.3671  -14.0746 O   0  0  0  0  0  0  0  0  0  0  0  0
  -23.0285   -0.7549  -12.7590 C   0  0  0  0  0  0  0  0  0  0  0  0
  -24.2812   -0.3926  -12.4121 F   0  0  0  0  0  0  0  0  0  0  0  0
  -22.9609   -2.1032  -12.6779 F   0  0  0  0  0  0  0  0  0  0  0  0
  -22.1603   -0.2375  -11.8627 F   0  0  0  0  0  0  0  0  0  0  0  0
  -15.3179   -0.8754  -14.5061 N   0  0  0  0  0  0  0  0  0  0  0  0
  -15.7143   -1.6872  -14.9680 H   0  0  0  0  0  0  0  0  0  0  0  0
  -14.9188   -1.0646  -13.1286 C   0  0  0  0  0  0  0  0  0  0  0  0
  -15.5479   -2.2967  -12.5362 C   0  0  0  0  0  0  0  0  0  0  0  0
  -15.9610   -3.3461  -13.3623 C   0  0  0  0  0  0  0  0  0  0  0  0
  -16.4705   -4.4937  -12.7771 C   0  0  0  0  0  0  0  0  0  0  0  0
  -16.5967   -4.6649  -11.4432 N   0  0  0  0  0  0  0  0  0  0  0  0
  -16.1966   -3.6399  -10.6621 C   0  0  0  0  0  0  0  0  0  0  0  0
  -15.6747   -2.4524  -11.1524 C   0  0  0  0  0  0  0  0  0  0  0  0
  1  2  1  0  0  0
  2  3  1  0  0  0
  2  6  1  0  0  0
  3  4  2  0  0  0
  4  5  1  0  0  0
  5 22  1  0  0  0
  5  6  2  0  0  0
 22 24  1  0  0  0
 22 23  1  0  0  0
 24 25  1  0  0  0
 25 26  1  0  0  0
 25 30  2  0  0  0
 26 27  2  0  0  0
 27 28  1  0  0  0
 28 29  2  0  0  0
 29 30  1  0  0  0
  6  7  1  0  0  0
  7  8  2  0  0  0
  7  9  1  0  0  0
  9 11  1  0  0  0
  9 10  1  0  0  0
 11 12  1  0  0  0
 11 16  2  0  0  0
 12 13  2  0  0  0
 13 14  1  0  0  0
 14 15  2  0  0  0
 15 17  1  0  0  0
 15 16  1  0  0  0
 17 18  1  0  0  0
 18 19  1  0  0  0
 18 20  1  0  0  0
 18 21  1  0  0  0
M  END
> <minimizedAffinity>
-9.04941

$$$$
