CHEMBL3930158


 35 39  0  0  0  0  0  0  0  0999 V2000
  -27.1622   -1.9943   -8.8671 N   0  0  0  0  0  0  0  0  0  0  0  0
  -26.4568   -1.4736  -10.0374 C   0  0  0  0  0  0  0  0  0  0  0  0
  -25.9406   -2.4491  -10.8442 C   0  0  0  0  0  0  0  0  0  0  0  0
  -24.8753   -2.1585  -11.6169 C   0  0  0  0  0  0  0  0  0  0  0  0
  -24.3597   -0.9329  -11.7898 C   0  0  0  0  0  0  0  0  0  0  0  0
  -23.2029   -1.1253  -12.2549 N   0  0  0  0  0  0  0  0  0  0  0  0
  -23.1868   -0.7685  -13.5015 C   0  0  0  0  0  0  0  0  0  0  0  0
  -23.2190    0.4845  -13.7550 C   0  0  0  0  0  0  0  0  0  0  0  0
  -24.0404    1.2017  -12.7595 N   0  0  0  0  0  0  0  0  0  0  0  0
  -24.9455    0.2988  -11.6821 C   0  0  0  0  0  0  0  0  0  0  0  0
  -26.0735   -0.0913  -10.4974 C   0  0  0  0  0  0  0  0  0  0  0  0
  -21.8533    0.6777  -14.6403 C   0  0  0  0  0  0  0  0  0  0  0  0
  -21.2521    2.0404  -14.6781 C   0  0  0  0  0  0  0  0  0  0  0  0
  -19.9345    2.1217  -14.8020 N   0  0  0  0  0  0  0  0  0  0  0  0
  -19.5481    0.8532  -14.9216 N   0  0  0  0  0  0  0  0  0  0  0  0
  -18.1075    0.6544  -15.0662 C   0  0  0  0  0  0  0  0  0  0  0  0
  -20.6349   -0.0466  -14.7714 C   0  0  0  0  0  0  0  0  0  0  0  0
  -28.7766    0.3988   -6.4359 C   0  0  0  0  0  0  0  0  0  0  0  0
  -28.6640   -0.3095   -5.2387 C   0  0  0  0  0  0  0  0  0  0  0  0
  -28.0148   -1.5333   -5.2158 C   0  0  0  0  0  0  0  0  0  0  0  0
  -27.4317   -2.0130   -6.3996 C   0  0  0  0  0  0  0  0  0  0  0  0
  -27.5595   -1.3529   -7.6499 C   0  0  0  0  0  0  0  0  0  0  0  0
  -28.2064   -0.1105   -7.6249 C   0  0  0  0  0  0  0  0  0  0  0  0
  -30.8398    1.5684   -6.1684 C   0  0  0  0  0  0  0  0  0  0  0  0
  -29.4633    1.5833   -6.5537 O   0  0  0  0  0  0  0  0  0  0  0  0
  -27.9320   -2.3560   -4.1193 O   0  0  0  0  0  0  0  0  0  0  0  0
  -29.0964   -2.4287   -3.2934 C   0  0  0  0  0  0  0  0  0  0  0  0
  -27.9887   -3.3242   -9.1455 C   0  0  0  0  0  0  0  0  0  0  0  0
  -29.3739   -3.5666   -8.4330 C   0  0  0  0  0  0  0  0  0  0  0  0
  -29.4090   -4.7084   -7.5095 N   0  0  0  0  0  0  0  0  0  0  0  0
  -28.7209   -5.9453   -7.7306 C   0  0  0  0  0  0  0  0  0  0  0  0
  -28.7106   -6.5783   -6.3532 C   0  0  0  0  0  0  0  0  0  0  0  0
  -29.6993   -5.8615   -5.6077 O   0  0  0  0  0  0  0  0  0  0  0  0
  -29.9368   -4.6894   -6.2448 C   0  0  0  0  0  0  0  0  0  0  0  0
  -30.6402   -3.7983   -5.7960 O   0  0  0  0  0  0  0  0  0  0  0  0
 24 25  1  0  0  0
 25 18  1  0  0  0
 18 19  1  0  0  0
 18 23  2  0  0  0
 19 20  2  0  0  0
 20 26  1  0  0  0
 20 21  1  0  0  0
 26 27  1  0  0  0
 21 22  2  0  0  0
 22  1  1  0  0  0
 22 23  1  0  0  0
  1 28  1  0  0  0
  1  2  1  0  0  0
 28 29  1  0  0  0
 29 30  1  0  0  0
 30 31  1  0  0  0
 30 34  1  0  0  0
 31 32  1  0  0  0
 32 33  1  0  0  0
 33 34  1  0  0  0
 34 35  2  0  0  0
  2  3  1  0  0  0
  2 11  2  0  0  0
  3  4  2  0  0  0
  4  5  1  0  0  0
  5  6  1  0  0  0
  5 10  2  0  0  0
  6  7  2  0  0  0
  7  8  1  0  0  0
  8 12  1  0  0  0
  8  9  2  0  0  0
 12 13  1  0  0  0
 12 17  2  0  0  0
 13 14  2  0  0  0
 14 15  1  0  0  0
 15 16  1  0  0  0
 15 17  1  0  0  0
  9 10  1  0  0  0
 10 11  1  0  0  0
M  END
> <minimizedAffinity>
-5.65334

$$$$
