CHEMBL195567


 38 42  0  0  0  0  0  0  0  0999 V2000
  -12.1237   -6.4808  -10.7836 C   0  0  0  0  0  0  0  0  0  0  0  0
  -11.4808   -7.6763  -10.6104 O   0  0  0  0  0  0  0  0  0  0  0  0
  -11.8748   -8.5070  -11.6208 C   0  0  0  0  0  0  0  0  0  0  0  0
  -11.4111   -9.7552  -11.7638 N   0  0  0  0  0  0  0  0  0  0  0  0
  -11.9483  -10.3719  -12.8217 C   0  0  0  0  0  0  0  0  0  0  0  0
  -12.8514   -9.8693  -13.6933 N   0  0  0  0  0  0  0  0  0  0  0  0
  -13.3127   -8.6268  -13.5005 C   0  0  0  0  0  0  0  0  0  0  0  0
  -14.2720   -8.1975  -14.4013 N   0  0  0  0  0  0  0  0  0  0  0  0
  -12.7872   -7.8605  -12.4408 C   0  0  0  0  0  0  0  0  0  0  0  0
  -12.9422   -6.5475  -11.9053 C   0  0  0  0  0  0  0  0  0  0  0  0
  -14.2801   -8.7648  -15.2419 H   0  0  0  0  0  0  0  0  0  0  0  0
  -14.4797   -7.2285  -14.4979 H   0  0  0  0  0  0  0  0  0  0  0  0
  -11.7220   -3.6882   -7.5443 C   0  0  0  0  0  0  0  0  0  0  0  0
  -12.5940   -3.4250   -8.5938 C   0  0  0  0  0  0  0  0  0  0  0  0
  -12.6193   -4.2696   -9.7076 C   0  0  0  0  0  0  0  0  0  0  0  0
  -11.8591   -5.4531   -9.7603 C   0  0  0  0  0  0  0  0  0  0  0  0
  -10.9623   -5.6889   -8.7143 C   0  0  0  0  0  0  0  0  0  0  0  0
  -10.8953   -4.8134   -7.6216 C   0  0  0  0  0  0  0  0  0  0  0  0
  -11.2918   -3.6444   -5.2106 C   0  0  0  0  0  0  0  0  0  0  0  0
  -11.5882   -2.9379   -6.4102 O   0  0  0  0  0  0  0  0  0  0  0  0
  -13.7588   -5.4472  -12.3871 C   0  0  0  0  0  0  0  0  0  0  0  0
  -13.2848   -4.5925  -13.3759 C   0  0  0  0  0  0  0  0  0  0  0  0
  -14.1384   -3.6782  -13.9785 C   0  0  0  0  0  0  0  0  0  0  0  0
  -15.4306   -3.4687  -13.4996 C   0  0  0  0  0  0  0  0  0  0  0  0
  -15.8888   -4.2650  -12.4482 C   0  0  0  0  0  0  0  0  0  0  0  0
  -15.0761   -5.2866  -11.9427 C   0  0  0  0  0  0  0  0  0  0  0  0
  -16.2951   -2.4949  -14.0455 N   0  0  0  0  0  0  0  0  0  0  0  0
  -16.0292   -1.1462  -14.0749 C   0  0  0  0  0  0  0  0  0  0  0  0
  -15.0314   -0.5950  -13.6265 O   0  0  0  0  0  0  0  0  0  0  0  0
  -16.9914   -0.4175  -14.7333 N   0  0  0  0  0  0  0  0  0  0  0  0
  -17.1537   -2.8159  -14.4640 H   0  0  0  0  0  0  0  0  0  0  0  0
  -17.9342   -0.7736  -14.7484 H   0  0  0  0  0  0  0  0  0  0  0  0
  -16.7905    1.0225  -14.8336 C   0  0  0  0  0  0  0  0  0  0  0  0
  -18.1224    1.7784  -14.9239 C   0  0  0  0  0  0  0  0  0  0  0  0
  -17.8906    3.2854  -15.0012 C   0  0  0  0  0  0  0  0  0  0  0  0
  -16.9378    3.6506  -16.1388 C   0  0  0  0  0  0  0  0  0  0  0  0
  -15.6220    2.8779  -16.0497 C   0  0  0  0  0  0  0  0  0  0  0  0
  -15.8604    1.3718  -15.9931 C   0  0  0  0  0  0  0  0  0  0  0  0
 19 20  1  0  0  0
 20 13  1  0  0  0
 13 14  1  0  0  0
 13 18  2  0  0  0
 14 15  2  0  0  0
 15 16  1  0  0  0
 16  1  1  0  0  0
 16 17  2  0  0  0
  1  2  1  0  0  0
  1 10  2  0  0  0
  2  3  1  0  0  0
  3  4  1  0  0  0
  3  9  2  0  0  0
  4  5  2  0  0  0
  5  6  1  0  0  0
  6  7  2  0  0  0
  7  8  1  0  0  0
  7  9  1  0  0  0
  8 11  1  0  0  0
  8 12  1  0  0  0
  9 10  1  0  0  0
 10 21  1  0  0  0
 21 22  1  0  0  0
 21 26  2  0  0  0
 22 23  2  0  0  0
 23 24  1  0  0  0
 24 27  1  0  0  0
 24 25  2  0  0  0
 27 28  1  0  0  0
 27 31  1  0  0  0
 28 29  2  0  0  0
 28 30  1  0  0  0
 30 33  1  0  0  0
 30 32  1  0  0  0
 33 34  1  0  0  0
 33 38  1  0  0  0
 34 35  1  0  0  0
 35 36  1  0  0  0
 36 37  1  0  0  0
 37 38  1  0  0  0
 25 26  1  0  0  0
 17 18  1  0  0  0
M  END
> <minimizedAffinity>
-8.73334

$$$$
