CHEMBL4076909


 40 45  0  0  0  0  0  0  0  0999 V2000
  -22.3147    0.2242  -12.8960 C   0  0  0  0  0  0  0  0  0  0  0  0
  -22.9913    0.6900  -11.7682 C   0  0  0  0  0  0  0  0  0  0  0  0
  -24.2506    0.1987  -11.4228 C   0  0  0  0  0  0  0  0  0  0  0  0
  -24.8512   -0.7371  -12.2753 C   0  0  0  0  0  0  0  0  0  0  0  0
  -24.2472   -1.1398  -13.4730 C   0  0  0  0  0  0  0  0  0  0  0  0
  -25.1597   -2.0339  -14.1008 C   0  0  0  0  0  0  0  0  0  0  0  0
  -26.2119   -2.2507  -13.2356 C   0  0  0  0  0  0  0  0  0  0  0  0
  -26.0393   -1.4450  -12.1243 N   0  0  0  0  0  0  0  0  0  0  0  0
  -26.9576   -1.2732  -11.0786 C   0  0  0  0  0  0  0  0  0  0  0  0
  -27.3987   -0.1472  -10.8583 O   0  0  0  0  0  0  0  0  0  0  0  0
  -27.1212   -2.4218  -10.3339 N   0  0  0  0  0  0  0  0  0  0  0  0
  -22.9650   -0.6312  -13.7997 C   0  0  0  0  0  0  0  0  0  0  0  0
  -26.3656   -3.0991  -10.3326 H   0  0  0  0  0  0  0  0  0  0  0  0
  -27.8103   -2.3223   -9.1343 C   0  0  0  0  0  0  0  0  0  0  0  0
  -27.6672   -1.3190   -8.1482 C   0  0  0  0  0  0  0  0  0  0  0  0
  -28.4042   -1.7614   -7.0730 C   0  0  0  0  0  0  0  0  0  0  0  0
  -29.0213   -2.9238   -7.4381 O   0  0  0  0  0  0  0  0  0  0  0  0
  -28.7068   -3.2343   -8.7551 N   0  0  0  0  0  0  0  0  0  0  0  0
  -28.5233   -1.0926   -5.6811 C   0  0  0  0  0  0  0  0  0  0  0  0
  -27.4183   -1.4557   -4.6720 C   0  0  0  0  0  0  0  0  0  0  0  0
  -28.7769   -2.0227   -4.4795 C   0  0  0  0  0  0  0  0  0  0  0  0
  -29.1155    0.3034   -5.6161 C   0  0  0  0  0  0  0  0  0  0  0  0
  -30.4636    0.3167   -5.5271 F   0  0  0  0  0  0  0  0  0  0  0  0
  -28.6376    0.9760   -4.5382 F   0  0  0  0  0  0  0  0  0  0  0  0
  -28.7767    1.0247   -6.7151 F   0  0  0  0  0  0  0  0  0  0  0  0
  -20.9966    0.5853  -13.1493 O   0  0  0  0  0  0  0  0  0  0  0  0
  -16.1691    4.5983  -15.5576 C   0  0  0  0  0  0  0  0  0  0  0  0
  -16.0445    3.0930  -15.5940 C   0  0  0  0  0  0  0  0  0  0  0  0
  -14.9778    2.5776  -15.2640 O   0  0  0  0  0  0  0  0  0  0  0  0
  -17.1599    2.3676  -15.9901 N   0  0  0  0  0  0  0  0  0  0  0  0
  -18.3572    2.9967  -16.5476 C   0  0  0  0  0  0  0  0  0  0  0  0
  -19.5729    2.7910  -15.6713 C   0  0  0  0  0  0  0  0  0  0  0  0
  -20.6066    3.6303  -15.8981 N   0  0  0  0  0  0  0  0  0  0  0  0
  -21.6861    3.4581  -15.1333 C   0  0  0  0  0  0  0  0  0  0  0  0
  -21.8302    2.5274  -14.1930 N   0  0  0  0  0  0  0  0  0  0  0  0
  -20.8108    1.6514  -14.0392 C   0  0  0  0  0  0  0  0  0  0  0  0
  -19.6227    1.7528  -14.7406 C   0  0  0  0  0  0  0  0  0  0  0  0
  -18.4200    0.8769  -14.4924 C   0  0  0  0  0  0  0  0  0  0  0  0
  -17.3746    0.9488  -15.6330 C   0  0  0  0  0  0  0  0  0  0  0  0
  -16.1475    0.1155  -15.2612 C   0  0  0  0  0  0  0  0  0  0  0  0
 27 28  1  0  0  0
 28 29  2  0  0  0
 28 30  1  0  0  0
 30 31  1  0  0  0
 30 39  1  0  0  0
 31 32  1  0  0  0
 32 33  1  0  0  0
 32 37  2  0  0  0
 33 34  2  0  0  0
 34 35  1  0  0  0
 35 36  2  0  0  0
 36 26  1  0  0  0
 36 37  1  0  0  0
 26  1  1  0  0  0
  1  2  1  0  0  0
  1 12  2  0  0  0
  2  3  2  0  0  0
  3  4  1  0  0  0
  4  5  2  0  0  0
  4  8  1  0  0  0
  5  6  1  0  0  0
  5 12  1  0  0  0
  6  7  2  0  0  0
  7  8  1  0  0  0
  8  9  1  0  0  0
  9 10  2  0  0  0
  9 11  1  0  0  0
 11 14  1  0  0  0
 11 13  1  0  0  0
 14 15  1  0  0  0
 14 18  2  0  0  0
 15 16  2  0  0  0
 16 19  1  0  0  0
 16 17  1  0  0  0
 19 22  1  0  0  0
 19 20  1  0  0  0
 19 21  1  0  0  0
 22 23  1  0  0  0
 22 24  1  0  0  0
 22 25  1  0  0  0
 20 21  1  0  0  0
 17 18  1  0  0  0
 37 38  1  0  0  0
 38 39  1  0  0  0
 39 40  1  0  0  0
M  END
> <minimizedAffinity>
-9.17339

$$$$
