CHEMBL214063


 42 48  0  0  0  0  0  0  0  0999 V2000
  -26.8092   -1.6614  -10.1466 C   0  0  0  0  0  0  0  0  0  0  0  0
  -27.7201   -0.6193  -10.0359 C   0  0  0  0  0  0  0  0  0  0  0  0
  -28.4045   -0.6460   -8.7602 C   0  0  0  0  0  0  0  0  0  0  0  0
  -28.0284   -1.7362   -7.9962 C   0  0  0  0  0  0  0  0  0  0  0  0
  -27.2868   -2.8808   -9.0506 S   0  0  0  0  0  0  0  0  0  0  0  0
  -28.1084   -1.8788   -6.4673 C   0  0  0  0  0  0  0  0  0  0  0  0
  -27.0576   -2.2834   -5.7081 N   0  0  0  0  0  0  0  0  0  0  0  0
  -27.6460   -2.9836   -4.6782 N   0  0  0  0  0  0  0  0  0  0  0  0
  -29.0149   -2.8960   -4.6510 C   0  0  0  0  0  0  0  0  0  0  0  0
  -29.3043   -2.0604   -5.7394 C   0  0  0  0  0  0  0  0  0  0  0  0
  -30.6948   -2.3044   -6.2038 C   0  0  0  0  0  0  0  0  0  0  0  0
  -30.5525   -3.8105   -5.9850 C   0  0  0  0  0  0  0  0  0  0  0  0
  -30.0924   -4.7619   -6.9099 C   0  0  0  0  0  0  0  0  0  0  0  0
  -29.6851   -6.0176   -6.4306 C   0  0  0  0  0  0  0  0  0  0  0  0
  -29.9627   -6.3240   -5.0965 C   0  0  0  0  0  0  0  0  0  0  0  0
  -30.0157   -5.2761   -4.1815 C   0  0  0  0  0  0  0  0  0  0  0  0
  -30.0559   -3.9928   -4.6798 C   0  0  0  0  0  0  0  0  0  0  0  0
  -27.0552   -3.6050   -4.1282 H   0  0  0  0  0  0  0  0  0  0  0  0
  -28.7308   -6.9301   -7.1873 C   0  0  0  0  0  0  0  0  0  0  0  0
  -29.3623   -7.8219   -8.1517 N   0  0  0  0  0  0  0  0  0  0  0  0
  -28.3710   -8.6818   -8.8190 C   0  0  0  0  0  0  0  0  0  0  0  0
  -29.0423   -9.6577   -9.8169 C   0  0  0  0  0  0  0  0  0  0  0  0
  -30.1252  -10.4915   -9.2581 N   0  0  0  0  0  0  0  0  0  0  0  0
  -29.6074  -11.5863   -8.4433 C   0  0  0  0  0  0  0  0  0  0  0  0
  -31.0550   -9.6343   -8.4954 C   0  0  0  0  0  0  0  0  0  0  0  0
  -30.3747   -8.6742   -7.4915 C   0  0  0  0  0  0  0  0  0  0  0  0
  -25.5508   -1.8211  -10.9583 C   0  0  0  0  0  0  0  0  0  0  0  0
  -23.9783   -0.1601  -12.6943 N   0  0  0  0  0  0  0  0  0  0  0  0
  -24.9458   -0.9656  -13.2812 C   0  0  0  0  0  0  0  0  0  0  0  0
  -25.1237   -1.0370  -14.4939 O   0  0  0  0  0  0  0  0  0  0  0  0
  -25.7492   -1.6983  -12.3994 N   0  0  0  0  0  0  0  0  0  0  0  0
  -24.1057    0.0466  -11.7205 H   0  0  0  0  0  0  0  0  0  0  0  0
  -19.8130    0.2516  -15.2887 C   0  0  0  0  0  0  0  0  0  0  0  0
  -21.0236    0.8890  -14.6855 C   0  0  0  0  0  0  0  0  0  0  0  0
  -21.1701    2.2811  -14.6879 C   0  0  0  0  0  0  0  0  0  0  0  0
  -22.2720    2.8741  -14.0798 C   0  0  0  0  0  0  0  0  0  0  0  0
  -23.2270    2.0828  -13.4329 C   0  0  0  0  0  0  0  0  0  0  0  0
  -23.0917    0.6952  -13.3828 C   0  0  0  0  0  0  0  0  0  0  0  0
  -21.9982    0.1025  -14.0377 C   0  0  0  0  0  0  0  0  0  0  0  0
  -26.8815   -2.4015  -12.9839 C   0  0  0  0  0  0  0  0  0  0  0  0
  -27.5768   -2.0359  -14.2702 C   0  0  0  0  0  0  0  0  0  0  0  0
  -28.2618   -1.7812  -12.9658 C   0  0  0  0  0  0  0  0  0  0  0  0
 33 34  1  0  0  0
 34 35  1  0  0  0
 34 39  2  0  0  0
 35 36  2  0  0  0
 36 37  1  0  0  0
 37 38  2  0  0  0
 38 28  1  0  0  0
 38 39  1  0  0  0
 28 29  1  0  0  0
 28 32  1  0  0  0
 29 30  2  0  0  0
 29 31  1  0  0  0
 31 27  1  0  0  0
 31 40  1  0  0  0
 27  1  1  0  0  0
  1  2  2  0  0  0
  1  5  1  0  0  0
  2  3  1  0  0  0
  3  4  2  0  0  0
  4  6  1  0  0  0
  4  5  1  0  0  0
  6  7  2  0  0  0
  6 10  1  0  0  0
  7  8  1  0  0  0
  8  9  1  0  0  0
  8 18  1  0  0  0
  9 10  2  0  0  0
  9 17  1  0  0  0
 10 11  1  0  0  0
 11 12  1  0  0  0
 12 13  1  0  0  0
 12 17  2  0  0  0
 13 14  2  0  0  0
 14 19  1  0  0  0
 14 15  1  0  0  0
 19 20  1  0  0  0
 20 21  1  0  0  0
 20 26  1  0  0  0
 21 22  1  0  0  0
 22 23  1  0  0  0
 23 24  1  0  0  0
 23 25  1  0  0  0
 25 26  1  0  0  0
 15 16  2  0  0  0
 16 17  1  0  0  0
 40 41  1  0  0  0
 40 42  1  0  0  0
 41 42  1  0  0  0
M  END
> <minimizedAffinity>
-9.55097

$$$$
