CHEMBL1976134


 20 23  0  0  0  0  0  0  0  0999 V2000
  -26.8499   -1.9697  -10.9972 C   0  0  0  0  0  0  0  0  0  0  0  0
  -25.8859   -1.0369  -10.6772 C   0  0  0  0  0  0  0  0  0  0  0  0
  -25.1673   -0.7362  -11.8664 C   0  0  0  0  0  0  0  0  0  0  0  0
  -24.0963    0.1057  -12.2110 C   0  0  0  0  0  0  0  0  0  0  0  0
  -23.6251    0.1120  -13.5374 C   0  0  0  0  0  0  0  0  0  0  0  0
  -24.2970   -0.7337  -14.4339 C   0  0  0  0  0  0  0  0  0  0  0  0
  -25.3507   -1.5521  -14.1675 N   0  0  0  0  0  0  0  0  0  0  0  0
  -25.7232   -1.5063  -12.8781 C   0  0  0  0  0  0  0  0  0  0  0  0
  -26.7422   -2.2416  -12.3383 N   0  0  0  0  0  0  0  0  0  0  0  0
  -27.3108   -2.8829  -12.8706 H   0  0  0  0  0  0  0  0  0  0  0  0
  -22.4755    0.9517  -13.9552 C   0  0  0  0  0  0  0  0  0  0  0  0
  -22.5426    2.3591  -13.9109 C   0  0  0  0  0  0  0  0  0  0  0  0
  -21.4754    3.1786  -14.3171 C   0  0  0  0  0  0  0  0  0  0  0  0
  -20.2938    2.5730  -14.7649 C   0  0  0  0  0  0  0  0  0  0  0  0
  -19.0350    3.0075  -15.2369 C   0  0  0  0  0  0  0  0  0  0  0  0
  -18.2208    1.9936  -15.5413 N   0  0  0  0  0  0  0  0  0  0  0  0
  -18.9622    0.9055  -15.2669 N   0  0  0  0  0  0  0  0  0  0  0  0
  -20.2196    1.1881  -14.8005 C   0  0  0  0  0  0  0  0  0  0  0  0
  -21.2802    0.3576  -14.4157 C   0  0  0  0  0  0  0  0  0  0  0  0
  -18.5494   -0.0078  -15.4169 H   0  0  0  0  0  0  0  0  0  0  0  0
  1  2  2  0  0  0
  1  9  1  0  0  0
  2  3  1  0  0  0
  3  4  1  0  0  0
  3  8  2  0  0  0
  4  5  2  0  0  0
  5 11  1  0  0  0
  5  6  1  0  0  0
 11 12  1  0  0  0
 11 19  2  0  0  0
 12 13  2  0  0  0
 13 14  1  0  0  0
 14 15  1  0  0  0
 14 18  2  0  0  0
 15 16  2  0  0  0
 16 17  1  0  0  0
 17 18  1  0  0  0
 17 20  1  0  0  0
 18 19  1  0  0  0
  6  7  2  0  0  0
  7  8  1  0  0  0
  8  9  1  0  0  0
  9 10  1  0  0  0
M  END
> <minimizedAffinity>
-9.13342

$$$$
