CHEMBL2322138


 19 22  0  0  0  0  0  0  0  0999 V2000
  -31.6559   -4.9003   -3.2091 C   0  0  0  0  0  0  0  0  0  0  0  0
  -30.7841   -4.0530   -3.8745 C   0  0  0  0  0  0  0  0  0  0  0  0
  -30.4091   -4.7555   -5.0451 C   0  0  0  0  0  0  0  0  0  0  0  0
  -31.0259   -5.9843   -5.0693 C   0  0  0  0  0  0  0  0  0  0  0  0
  -30.8898   -6.9134   -6.0318 N   0  0  0  0  0  0  0  0  0  0  0  0
  -30.0426   -6.5669   -7.0528 C   0  0  0  0  0  0  0  0  0  0  0  0
  -29.3689   -5.3329   -7.0985 C   0  0  0  0  0  0  0  0  0  0  0  0
  -28.4928   -4.7965   -8.0077 N   0  0  0  0  0  0  0  0  0  0  0  0
  -28.2035   -3.5996   -7.5373 C   0  0  0  0  0  0  0  0  0  0  0  0
  -28.8684   -3.3207   -6.3619 N   0  0  0  0  0  0  0  0  0  0  0  0
  -29.5808   -4.4277   -6.0751 C   0  0  0  0  0  0  0  0  0  0  0  0
  -31.7927   -6.0608   -3.9411 N   0  0  0  0  0  0  0  0  0  0  0  0
  -32.3622   -6.8596   -3.7016 H   0  0  0  0  0  0  0  0  0  0  0  0
  -28.8648   -2.0382   -5.6746 C   0  0  0  0  0  0  0  0  0  0  0  0
  -29.9105   -1.0371   -6.1985 C   0  0  0  0  0  0  0  0  0  0  0  0
  -29.9451    0.2069   -5.3153 C   0  0  0  0  0  0  0  0  0  0  0  0
  -28.5685    0.8606   -5.2205 C   0  0  0  0  0  0  0  0  0  0  0  0
  -27.4919   -0.1276   -4.7760 C   0  0  0  0  0  0  0  0  0  0  0  0
  -27.4740   -1.3847   -5.6481 C   0  0  0  0  0  0  0  0  0  0  0  0
  1  2  2  0  0  0
  1 12  1  0  0  0
  2  3  1  0  0  0
  3  4  1  0  0  0
  3 11  2  0  0  0
  4  5  2  0  0  0
  4 12  1  0  0  0
  5  6  1  0  0  0
  6  7  2  0  0  0
  7  8  1  0  0  0
  7 11  1  0  0  0
  8  9  2  0  0  0
  9 10  1  0  0  0
 10 14  1  0  0  0
 10 11  1  0  0  0
 14 15  1  0  0  0
 14 19  1  0  0  0
 15 16  1  0  0  0
 16 17  1  0  0  0
 17 18  1  0  0  0
 18 19  1  0  0  0
 12 13  1  0  0  0
M  END
> <minimizedAffinity>
-7.14508

$$$$
