CHEMBL202805


 27 30  0  0  0  0  0  0  0  0999 V2000
  -28.1282   -1.7932   -7.1975 C   0  0  0  0  0  0  0  0  0  0  0  0
  -27.7382   -0.5063   -6.7647 C   0  0  0  0  0  0  0  0  0  0  0  0
  -28.2900    0.0818   -5.6240 C   0  0  0  0  0  0  0  0  0  0  0  0
  -29.2693   -0.5871   -4.9075 C   0  0  0  0  0  0  0  0  0  0  0  0
  -29.6749   -1.8539   -5.3175 C   0  0  0  0  0  0  0  0  0  0  0  0
  -29.1091   -2.4925   -6.4495 C   0  0  0  0  0  0  0  0  0  0  0  0
  -27.1752   -1.2928   -9.4110 N   0  0  0  0  0  0  0  0  0  0  0  0
  -27.5886   -2.2827   -8.5232 C   0  0  0  0  0  0  0  0  0  0  0  0
  -27.5845   -3.4822   -8.7526 O   0  0  0  0  0  0  0  0  0  0  0  0
  -27.0897   -0.3548   -9.0462 H   0  0  0  0  0  0  0  0  0  0  0  0
  -23.3498   -1.8390  -12.4488 C   0  0  0  0  0  0  0  0  0  0  0  0
  -24.8349   -1.7425  -12.2569 C   0  0  0  0  0  0  0  0  0  0  0  0
  -25.7115   -1.9305  -13.3262 C   0  0  0  0  0  0  0  0  0  0  0  0
  -27.0882   -1.8272  -13.1250 C   0  0  0  0  0  0  0  0  0  0  0  0
  -27.6045   -1.5747  -11.8469 C   0  0  0  0  0  0  0  0  0  0  0  0
  -26.7491   -1.4451  -10.7531 C   0  0  0  0  0  0  0  0  0  0  0  0
  -25.3627   -1.4867  -10.9798 C   0  0  0  0  0  0  0  0  0  0  0  0
  -29.6479   -3.8697   -6.7779 C   0  0  0  0  0  0  0  0  0  0  0  0
  -28.9728   -4.9772   -6.0884 N   0  0  0  0  0  0  0  0  0  0  0  0
  -28.7053   -5.0222   -4.7361 C   0  0  0  0  0  0  0  0  0  0  0  0
  -28.3963   -6.3146   -4.3933 C   0  0  0  0  0  0  0  0  0  0  0  0
  -28.4758   -7.1057   -5.5732 C   0  0  0  0  0  0  0  0  0  0  0  0
  -28.3265   -8.4737   -5.8402 C   0  0  0  0  0  0  0  0  0  0  0  0
  -28.4673   -8.9533   -7.0995 N   0  0  0  0  0  0  0  0  0  0  0  0
  -28.7393   -8.0825   -8.0952 C   0  0  0  0  0  0  0  0  0  0  0  0
  -28.9078   -6.7160   -7.9370 C   0  0  0  0  0  0  0  0  0  0  0  0
  -28.7875   -6.2409   -6.6290 C   0  0  0  0  0  0  0  0  0  0  0  0
 11 12  1  0  0  0
 12 13  1  0  0  0
 12 17  2  0  0  0
 13 14  2  0  0  0
 14 15  1  0  0  0
 15 16  2  0  0  0
 16  7  1  0  0  0
 16 17  1  0  0  0
  7  8  1  0  0  0
  7 10  1  0  0  0
  8  9  2  0  0  0
  8  1  1  0  0  0
  1  2  1  0  0  0
  1  6  2  0  0  0
  2  3  2  0  0  0
  3  4  1  0  0  0
  4  5  2  0  0  0
  5  6  1  0  0  0
  6 18  1  0  0  0
 18 19  1  0  0  0
 19 20  1  0  0  0
 19 27  1  0  0  0
 20 21  2  0  0  0
 21 22  1  0  0  0
 22 23  1  0  0  0
 22 27  2  0  0  0
 23 24  2  0  0  0
 24 25  1  0  0  0
 25 26  2  0  0  0
 26 27  1  0  0  0
M  END
> <minimizedAffinity>
-9.73464

$$$$
