CHEMBL74646


 30 33  0  0  0  0  0  0  0  0999 V2000
  -27.7010   -1.9719   -8.4199 C   0  0  0  0  0  0  0  0  0  0  0  0
  -27.9232   -3.2558   -8.7860 N   0  0  0  0  0  0  0  0  0  0  0  0
  -28.6783   -4.0876   -8.0204 N   0  0  0  0  0  0  0  0  0  0  0  0
  -29.1652   -3.6648   -6.8349 C   0  0  0  0  0  0  0  0  0  0  0  0
  -28.9232   -2.3655   -6.3566 C   0  0  0  0  0  0  0  0  0  0  0  0
  -29.3500   -1.8970   -5.0883 C   0  0  0  0  0  0  0  0  0  0  0  0
  -29.1628   -0.5753   -4.6859 C   0  0  0  0  0  0  0  0  0  0  0  0
  -28.5596    0.3240   -5.5488 C   0  0  0  0  0  0  0  0  0  0  0  0
  -28.0815   -0.1217   -6.7819 C   0  0  0  0  0  0  0  0  0  0  0  0
  -28.2184   -1.4678   -7.2077 C   0  0  0  0  0  0  0  0  0  0  0  0
  -26.8070   -1.1935   -9.2102 N   0  0  0  0  0  0  0  0  0  0  0  0
  -27.0479   -0.2122   -9.1483 H   0  0  0  0  0  0  0  0  0  0  0  0
  -28.1489   -1.9335  -13.7758 F   0  0  0  0  0  0  0  0  0  0  0  0
  -27.1768   -1.8111  -12.8636 C   0  0  0  0  0  0  0  0  0  0  0  0
  -27.5137   -1.5912  -11.5352 C   0  0  0  0  0  0  0  0  0  0  0  0
  -26.5092   -1.4821  -10.5651 C   0  0  0  0  0  0  0  0  0  0  0  0
  -25.1678   -1.5148  -10.9682 C   0  0  0  0  0  0  0  0  0  0  0  0
  -24.8265   -1.7455  -12.3166 C   0  0  0  0  0  0  0  0  0  0  0  0
  -25.8499   -1.8990  -13.2643 C   0  0  0  0  0  0  0  0  0  0  0  0
  -23.3878   -1.8414  -12.7539 C   0  0  0  0  0  0  0  0  0  0  0  0
  -23.1205   -1.1652  -13.9066 F   0  0  0  0  0  0  0  0  0  0  0  0
  -22.5249   -1.3505  -11.8231 F   0  0  0  0  0  0  0  0  0  0  0  0
  -23.0021   -3.1282  -12.9807 F   0  0  0  0  0  0  0  0  0  0  0  0
  -30.0745   -4.6653   -6.1517 C   0  0  0  0  0  0  0  0  0  0  0  0
  -29.3878   -5.9839   -5.8656 C   0  0  0  0  0  0  0  0  0  0  0  0
  -29.8238   -7.1655   -6.4765 C   0  0  0  0  0  0  0  0  0  0  0  0
  -29.2097   -8.3611   -6.1379 C   0  0  0  0  0  0  0  0  0  0  0  0
  -28.1936   -8.4579   -5.2553 N   0  0  0  0  0  0  0  0  0  0  0  0
  -27.7683   -7.3055   -4.6963 C   0  0  0  0  0  0  0  0  0  0  0  0
  -28.3203   -6.0614   -4.9671 C   0  0  0  0  0  0  0  0  0  0  0  0
 13 14  1  0  0  0
 14 15  1  0  0  0
 14 19  2  0  0  0
 15 16  2  0  0  0
 16 11  1  0  0  0
 16 17  1  0  0  0
 11  1  1  0  0  0
 11 12  1  0  0  0
  1  2  1  0  0  0
  1 10  2  0  0  0
  2  3  2  0  0  0
  3  4  1  0  0  0
  4 24  1  0  0  0
  4  5  2  0  0  0
 24 25  1  0  0  0
 25 26  1  0  0  0
 25 30  2  0  0  0
 26 27  2  0  0  0
 27 28  1  0  0  0
 28 29  2  0  0  0
 29 30  1  0  0  0
  5  6  1  0  0  0
  5 10  1  0  0  0
  6  7  2  0  0  0
  7  8  1  0  0  0
  8  9  2  0  0  0
  9 10  1  0  0  0
 17 18  2  0  0  0
 18 20  1  0  0  0
 18 19  1  0  0  0
 20 21  1  0  0  0
 20 22  1  0  0  0
 20 23  1  0  0  0
M  END
> <minimizedAffinity>
-10.41758

$$$$
