CHEMBL3953141


 38 41  0  0  0  0  0  0  0  0999 V2000
  -25.3344   -1.8799  -11.8742 C   0  0  0  0  0  0  0  0  0  0  0  0
  -24.0389   -1.6909  -11.3751 C   0  0  0  0  0  0  0  0  0  0  0  0
  -23.0023   -1.2515  -12.2059 C   0  0  0  0  0  0  0  0  0  0  0  0
  -23.2417   -1.0022  -13.5548 C   0  0  0  0  0  0  0  0  0  0  0  0
  -24.5275   -1.1859  -14.0697 C   0  0  0  0  0  0  0  0  0  0  0  0
  -25.5677   -1.5993  -13.2304 C   0  0  0  0  0  0  0  0  0  0  0  0
  -27.1526   -1.7531  -13.9109 Cl  0  0  0  0  0  0  0  0  0  0  0  0
  -26.4179   -0.8482   -9.3986 O   0  0  0  0  0  0  0  0  0  0  0  0
  -26.7901   -1.9189   -9.8515 C   0  0  0  0  0  0  0  0  0  0  0  0
  -27.6196   -2.8076   -9.1820 N   0  0  0  0  0  0  0  0  0  0  0  0
  -26.3890   -2.4081  -11.0795 N   0  0  0  0  0  0  0  0  0  0  0  0
  -27.6574   -3.7459   -9.5529 H   0  0  0  0  0  0  0  0  0  0  0  0
  -26.9973   -3.0709  -11.5427 H   0  0  0  0  0  0  0  0  0  0  0  0
  -28.1397   -2.6072   -7.8795 C   0  0  0  0  0  0  0  0  0  0  0  0
  -28.6344   -3.6467   -7.0881 C   0  0  0  0  0  0  0  0  0  0  0  0
  -29.2003   -3.3892   -5.8372 C   0  0  0  0  0  0  0  0  0  0  0  0
  -29.2628   -2.0873   -5.3622 C   0  0  0  0  0  0  0  0  0  0  0  0
  -29.8250   -1.8740   -4.1662 F   0  0  0  0  0  0  0  0  0  0  0  0
  -28.7559   -1.0289   -6.1096 C   0  0  0  0  0  0  0  0  0  0  0  0
  -28.1775   -1.3014   -7.3699 C   0  0  0  0  0  0  0  0  0  0  0  0
  -28.8351    0.3775   -5.5973 C   0  0  0  0  0  0  0  0  0  0  0  0
  -28.1715    0.6147   -4.4346 F   0  0  0  0  0  0  0  0  0  0  0  0
  -28.3421    1.2764   -6.4960 F   0  0  0  0  0  0  0  0  0  0  0  0
  -30.1239    0.7630   -5.3690 F   0  0  0  0  0  0  0  0  0  0  0  0
  -22.1429   -0.6839  -14.3238 O   0  0  0  0  0  0  0  0  0  0  0  0
  -21.7638    0.6497  -14.4166 C   0  0  0  0  0  0  0  0  0  0  0  0
  -20.5377    0.9086  -14.9966 C   0  0  0  0  0  0  0  0  0  0  0  0
  -20.1732    2.2357  -15.0463 C   0  0  0  0  0  0  0  0  0  0  0  0
  -20.9752    3.2028  -14.5857 N   0  0  0  0  0  0  0  0  0  0  0  0
  -22.1316    2.8445  -14.0298 C   0  0  0  0  0  0  0  0  0  0  0  0
  -22.5679    1.5945  -13.9022 N   0  0  0  0  0  0  0  0  0  0  0  0
  -18.9140    2.5797  -15.5732 N   0  0  0  0  0  0  0  0  0  0  0  0
  -17.7213    2.2359  -14.9651 C   0  0  0  0  0  0  0  0  0  0  0  0
  -17.5748    1.6561  -13.8984 O   0  0  0  0  0  0  0  0  0  0  0  0
  -18.8863    3.0584  -16.4599 H   0  0  0  0  0  0  0  0  0  0  0  0
  -16.4989    2.6198  -15.7413 C   0  0  0  0  0  0  0  0  0  0  0  0
  -15.6942    1.5344  -16.4271 C   0  0  0  0  0  0  0  0  0  0  0  0
  -15.1380    2.2188  -15.2128 C   0  0  0  0  0  0  0  0  0  0  0  0
  8  9  2  0  0  0
  9 10  1  0  0  0
  9 11  1  0  0  0
 10 14  1  0  0  0
 10 12  1  0  0  0
 14 15  1  0  0  0
 14 20  2  0  0  0
 15 16  2  0  0  0
 16 17  1  0  0  0
 17 18  1  0  0  0
 17 19  2  0  0  0
 19 21  1  0  0  0
 19 20  1  0  0  0
 21 22  1  0  0  0
 21 23  1  0  0  0
 21 24  1  0  0  0
 11  1  1  0  0  0
 11 13  1  0  0  0
  1  2  1  0  0  0
  1  6  2  0  0  0
  2  3  2  0  0  0
  3  4  1  0  0  0
  4 25  1  0  0  0
  4  5  2  0  0  0
 25 26  1  0  0  0
 26 27  1  0  0  0
 26 31  2  0  0  0
 27 28  2  0  0  0
 28 32  1  0  0  0
 28 29  1  0  0  0
 32 33  1  0  0  0
 32 35  1  0  0  0
 33 34  2  0  0  0
 33 36  1  0  0  0
 36 37  1  0  0  0
 36 38  1  0  0  0
 37 38  1  0  0  0
 29 30  2  0  0  0
 30 31  1  0  0  0
  5  6  1  0  0  0
  6  7  1  0  0  0
M  END
> <minimizedAffinity>
-12.14899

$$$$
