CHEMBL4752986


 43 47  0  0  0  0  0  0  0  0999 V2000
  -23.4622   -0.4862  -13.7653 C   0  0  0  0  0  0  0  0  0  0  0  0
  -23.5996    0.0642  -12.4914 C   0  0  0  0  0  0  0  0  0  0  0  0
  -24.7563   -0.1519  -11.7356 C   0  0  0  0  0  0  0  0  0  0  0  0
  -25.8149   -0.9167  -12.2309 C   0  0  0  0  0  0  0  0  0  0  0  0
  -25.7055   -1.4377  -13.5201 C   0  0  0  0  0  0  0  0  0  0  0  0
  -24.5440   -1.2168  -14.2738 C   0  0  0  0  0  0  0  0  0  0  0  0
  -26.9748   -1.2195  -11.4791 N   0  0  0  0  0  0  0  0  0  0  0  0
  -26.9944   -1.6654  -10.1747 C   0  0  0  0  0  0  0  0  0  0  0  0
  -26.0188   -1.7544   -9.4399 O   0  0  0  0  0  0  0  0  0  0  0  0
  -28.2676   -2.0598   -9.7790 N   0  0  0  0  0  0  0  0  0  0  0  0
  -27.8642   -1.0033  -11.9066 H   0  0  0  0  0  0  0  0  0  0  0  0
  -28.8252   -2.4684  -10.5159 H   0  0  0  0  0  0  0  0  0  0  0  0
  -28.4835   -2.5543   -8.4726 C   0  0  0  0  0  0  0  0  0  0  0  0
  -28.6152   -3.9246   -8.2837 C   0  0  0  0  0  0  0  0  0  0  0  0
  -28.7372   -4.4313   -6.9885 C   0  0  0  0  0  0  0  0  0  0  0  0
  -28.7706   -3.5754   -5.8767 C   0  0  0  0  0  0  0  0  0  0  0  0
  -28.9415   -4.3308   -4.3360 Cl  0  0  0  0  0  0  0  0  0  0  0  0
  -28.6686   -2.1925   -6.0475 C   0  0  0  0  0  0  0  0  0  0  0  0
  -28.5275   -1.6994   -7.3630 C   0  0  0  0  0  0  0  0  0  0  0  0
  -28.6801   -1.1803   -4.9313 C   0  0  0  0  0  0  0  0  0  0  0  0
  -28.5951    0.1254   -5.2977 F   0  0  0  0  0  0  0  0  0  0  0  0
  -29.8094   -1.2671   -4.1708 F   0  0  0  0  0  0  0  0  0  0  0  0
  -27.6444   -1.3761   -4.0630 F   0  0  0  0  0  0  0  0  0  0  0  0
  -22.2382   -0.3370  -14.4426 N   0  0  0  0  0  0  0  0  0  0  0  0
  -22.0192   -1.0779  -15.0916 H   0  0  0  0  0  0  0  0  0  0  0  0
  -18.1151    1.6813  -15.4687 N   0  0  0  0  0  0  0  0  0  0  0  0
  -17.9780    0.3562  -15.7807 N   0  0  0  0  0  0  0  0  0  0  0  0
  -19.1606   -0.1954  -15.4815 C   0  0  0  0  0  0  0  0  0  0  0  0
  -19.3465   -1.6576  -15.6683 C   0  0  0  0  0  0  0  0  0  0  0  0
  -20.0967    0.7630  -15.0150 C   0  0  0  0  0  0  0  0  0  0  0  0
  -21.4271    0.8008  -14.5539 C   0  0  0  0  0  0  0  0  0  0  0  0
  -21.9373    2.0172  -14.2307 N   0  0  0  0  0  0  0  0  0  0  0  0
  -21.1826    3.1131  -14.3441 C   0  0  0  0  0  0  0  0  0  0  0  0
  -19.9140    3.1710  -14.7387 N   0  0  0  0  0  0  0  0  0  0  0  0
  -19.4086    1.9651  -15.0562 C   0  0  0  0  0  0  0  0  0  0  0  0
  -14.8087    4.3246  -15.8233 C   0  0  0  0  0  0  0  0  0  0  0  0
  -16.1046    4.7741  -16.0762 C   0  0  0  0  0  0  0  0  0  0  0  0
  -17.1948    3.8995  -15.9562 C   0  0  0  0  0  0  0  0  0  0  0  0
  -16.9984    2.5646  -15.5734 C   0  0  0  0  0  0  0  0  0  0  0  0
  -15.6928    2.1246  -15.3211 C   0  0  0  0  0  0  0  0  0  0  0  0
  -14.6119    2.9992  -15.4450 C   0  0  0  0  0  0  0  0  0  0  0  0
  -12.6355    4.7563  -14.9745 C   0  0  0  0  0  0  0  0  0  0  0  0
  -13.6604    5.0594  -15.9092 O   0  0  0  0  0  0  0  0  0  0  0  0
 42 43  1  0  0  0
 43 36  1  0  0  0
 36 37  1  0  0  0
 36 41  2  0  0  0
 37 38  2  0  0  0
 38 39  1  0  0  0
 39 26  1  0  0  0
 39 40  2  0  0  0
 26 27  1  0  0  0
 26 35  1  0  0  0
 27 28  2  0  0  0
 28 29  1  0  0  0
 28 30  1  0  0  0
 30 31  1  0  0  0
 30 35  2  0  0  0
 31 24  1  0  0  0
 31 32  2  0  0  0
 24  1  1  0  0  0
 24 25  1  0  0  0
  1  2  1  0  0  0
  1  6  2  0  0  0
  2  3  2  0  0  0
  3  4  1  0  0  0
  4  7  1  0  0  0
  4  5  2  0  0  0
  7  8  1  0  0  0
  7 11  1  0  0  0
  8  9  2  0  0  0
  8 10  1  0  0  0
 10 13  1  0  0  0
 10 12  1  0  0  0
 13 14  1  0  0  0
 13 19  2  0  0  0
 14 15  2  0  0  0
 15 16  1  0  0  0
 16 17  1  0  0  0
 16 18  2  0  0  0
 18 20  1  0  0  0
 18 19  1  0  0  0
 20 21  1  0  0  0
 20 22  1  0  0  0
 20 23  1  0  0  0
  5  6  1  0  0  0
 32 33  1  0  0  0
 33 34  2  0  0  0
 34 35  1  0  0  0
 40 41  1  0  0  0
M  END
> <minimizedAffinity>
-10.10866

$$$$
