CHEMBL501752


 34 38  0  0  0  0  0  0  0  0999 V2000
  -11.9899   -1.0531  -16.1074 O   0  0  0  0  0  0  0  0  0  0  0  0
  -12.6668   -2.0588  -16.1384 C   0  0  0  0  0  0  0  0  0  0  0  0
  -12.6630   -2.9652  -17.1833 N   0  0  0  0  0  0  0  0  0  0  0  0
  -13.2178   -4.1769  -16.7976 C   0  0  0  0  0  0  0  0  0  0  0  0
  -13.2347   -5.3250  -17.5644 C   0  0  0  0  0  0  0  0  0  0  0  0
  -13.7518   -6.4715  -16.9694 C   0  0  0  0  0  0  0  0  0  0  0  0
  -13.7606   -7.9503  -17.8477 Cl  0  0  0  0  0  0  0  0  0  0  0  0
  -14.2432   -6.4405  -15.6558 C   0  0  0  0  0  0  0  0  0  0  0  0
  -14.2269   -5.2537  -14.9077 C   0  0  0  0  0  0  0  0  0  0  0  0
  -13.7052   -4.1079  -15.4842 C   0  0  0  0  0  0  0  0  0  0  0  0
  -13.5104   -2.7018  -15.0469 C   0  0  0  0  0  0  0  0  0  0  0  0
  -13.9694   -2.0327  -13.9598 C   0  0  0  0  0  0  0  0  0  0  0  0
  -12.1424   -2.7927  -18.0277 H   0  0  0  0  0  0  0  0  0  0  0  0
  -14.4927   -2.8101  -12.8146 C   0  0  0  0  0  0  0  0  0  0  0  0
  -13.5963   -3.3194  -11.8625 C   0  0  0  0  0  0  0  0  0  0  0  0
  -14.0583   -4.1134  -10.8128 C   0  0  0  0  0  0  0  0  0  0  0  0
  -15.4184   -4.3995  -10.7047 C   0  0  0  0  0  0  0  0  0  0  0  0
  -16.3207   -3.8699  -11.6283 C   0  0  0  0  0  0  0  0  0  0  0  0
  -15.8630   -3.0654  -12.6751 C   0  0  0  0  0  0  0  0  0  0  0  0
  -13.9793   -0.6653  -13.7140 N   0  0  0  0  0  0  0  0  0  0  0  0
  -13.1271   -0.2767  -13.3270 H   0  0  0  0  0  0  0  0  0  0  0  0
  -14.9822    0.2636  -14.0563 C   0  0  0  0  0  0  0  0  0  0  0  0
  -16.0116    0.6002  -13.1659 C   0  0  0  0  0  0  0  0  0  0  0  0
  -17.1832    1.2091  -13.6205 C   0  0  0  0  0  0  0  0  0  0  0  0
  -17.3373    1.5077  -14.9774 C   0  0  0  0  0  0  0  0  0  0  0  0
  -16.2472    1.3210  -15.8389 C   0  0  0  0  0  0  0  0  0  0  0  0
  -15.0771    0.7078  -15.3788 C   0  0  0  0  0  0  0  0  0  0  0  0
  -18.7054    1.8220  -15.5408 C   0  0  0  0  0  0  0  0  0  0  0  0
  -19.8092    1.8574  -14.5594 N   0  0  0  0  0  0  0  0  0  0  0  0
  -20.5314    3.1358  -14.6638 C   0  0  0  0  0  0  0  0  0  0  0  0
  -21.8070    3.1709  -13.8217 C   0  0  0  0  0  0  0  0  0  0  0  0
  -22.7203    2.0045  -14.1686 C   0  0  0  0  0  0  0  0  0  0  0  0
  -21.9624    0.7001  -13.9786 C   0  0  0  0  0  0  0  0  0  0  0  0
  -20.6801    0.6939  -14.8083 C   0  0  0  0  0  0  0  0  0  0  0  0
  1  2  2  0  0  0
  2  3  1  0  0  0
  2 11  1  0  0  0
  3  4  1  0  0  0
  3 13  1  0  0  0
  4  5  1  0  0  0
  4 10  2  0  0  0
  5  6  2  0  0  0
  6  7  1  0  0  0
  6  8  1  0  0  0
  8  9  2  0  0  0
  9 10  1  0  0  0
 10 11  1  0  0  0
 11 12  2  0  0  0
 12 20  1  0  0  0
 12 14  1  0  0  0
 20 22  1  0  0  0
 20 21  1  0  0  0
 22 23  1  0  0  0
 22 27  2  0  0  0
 23 24  2  0  0  0
 24 25  1  0  0  0
 25 28  1  0  0  0
 25 26  2  0  0  0
 28 29  1  0  0  0
 29 30  1  0  0  0
 29 34  1  0  0  0
 30 31  1  0  0  0
 31 32  1  0  0  0
 32 33  1  0  0  0
 33 34  1  0  0  0
 26 27  1  0  0  0
 14 15  1  0  0  0
 14 19  2  0  0  0
 15 16  2  0  0  0
 16 17  1  0  0  0
 17 18  2  0  0  0
 18 19  1  0  0  0
M  END
> <minimizedAffinity>
-8.56203

$$$$
