CHEMBL3759754


 41 45  0  0  0  0  0  0  0  0999 V2000
  -29.7094   -5.6407   -7.1319 C   0  0  0  0  0  0  0  0  0  0  0  0
  -29.1496   -4.6366   -7.9180 C   0  0  0  0  0  0  0  0  0  0  0  0
  -28.7408   -3.4042   -7.3577 C   0  0  0  0  0  0  0  0  0  0  0  0
  -28.2833   -2.3138   -8.1068 C   0  0  0  0  0  0  0  0  0  0  0  0
  -27.8701   -1.1764   -7.5174 N   0  0  0  0  0  0  0  0  0  0  0  0
  -27.9528   -1.1113   -6.1898 C   0  0  0  0  0  0  0  0  0  0  0  0
  -28.4310   -2.0662   -5.3891 N   0  0  0  0  0  0  0  0  0  0  0  0
  -28.8310   -3.1969   -5.9793 C   0  0  0  0  0  0  0  0  0  0  0  0
  -29.3573   -4.2141   -5.2006 C   0  0  0  0  0  0  0  0  0  0  0  0
  -29.7724   -5.4374   -5.7477 C   0  0  0  0  0  0  0  0  0  0  0  0
  -29.2943   -7.7915   -8.1324 C   0  0  0  0  0  0  0  0  0  0  0  0
  -30.1971   -6.8074   -7.6412 O   0  0  0  0  0  0  0  0  0  0  0  0
  -28.3015   -2.3871   -9.5268 N   0  0  0  0  0  0  0  0  0  0  0  0
  -28.6216   -3.3046   -9.8171 H   0  0  0  0  0  0  0  0  0  0  0  0
  -27.2809   -1.8865  -10.3598 C   0  0  0  0  0  0  0  0  0  0  0  0
  -25.9598   -1.8690   -9.9181 C   0  0  0  0  0  0  0  0  0  0  0  0
  -24.9757   -1.2243  -10.6736 C   0  0  0  0  0  0  0  0  0  0  0  0
  -25.2886   -0.6185  -11.8952 C   0  0  0  0  0  0  0  0  0  0  0  0
  -26.5780   -0.7707  -12.4054 C   0  0  0  0  0  0  0  0  0  0  0  0
  -27.5570   -1.4180  -11.6494 C   0  0  0  0  0  0  0  0  0  0  0  0
  -24.3939    0.1935  -12.6277 N   0  0  0  0  0  0  0  0  0  0  0  0
  -23.3458   -0.2586  -13.4064 C   0  0  0  0  0  0  0  0  0  0  0  0
  -23.1136   -1.4286  -13.6992 O   0  0  0  0  0  0  0  0  0  0  0  0
  -24.5100    1.1900  -12.5099 H   0  0  0  0  0  0  0  0  0  0  0  0
  -22.4204    0.7725  -13.9556 C   0  0  0  0  0  0  0  0  0  0  0  0
  -22.6169    2.1532  -13.8107 C   0  0  0  0  0  0  0  0  0  0  0  0
  -21.6558    3.0482  -14.2993 C   0  0  0  0  0  0  0  0  0  0  0  0
  -20.5006    2.5664  -14.9198 C   0  0  0  0  0  0  0  0  0  0  0  0
  -19.3133    3.6689  -15.4976 Cl  0  0  0  0  0  0  0  0  0  0  0  0
  -20.2962    1.1957  -15.0608 C   0  0  0  0  0  0  0  0  0  0  0  0
  -21.2501    0.3063  -14.5789 C   0  0  0  0  0  0  0  0  0  0  0  0
  -30.2238   -6.3253   -4.8044 O   0  0  0  0  0  0  0  0  0  0  0  0
  -29.2633   -6.9598   -3.9518 C   0  0  0  0  0  0  0  0  0  0  0  0
  -28.7130   -8.2794   -4.5047 C   0  0  0  0  0  0  0  0  0  0  0  0
  -27.1804   -8.3094   -4.4591 C   0  0  0  0  0  0  0  0  0  0  0  0
  -26.5917   -9.4900   -5.1186 N   0  0  0  0  0  0  0  0  0  0  0  0
  -27.2224  -10.7345   -4.6098 C   0  0  0  0  0  0  0  0  0  0  0  0
  -26.7911  -11.1214   -3.1807 C   0  0  0  0  0  0  0  0  0  0  0  0
  -25.3656  -11.2095   -3.0605 O   0  0  0  0  0  0  0  0  0  0  0  0
  -24.7441   -9.9832   -3.4641 C   0  0  0  0  0  0  0  0  0  0  0  0
  -25.1309   -9.6242   -4.9072 C   0  0  0  0  0  0  0  0  0  0  0  0
 11 12  1  0  0  0
 12  1  1  0  0  0
  1  2  1  0  0  0
  1 10  2  0  0  0
  2  3  2  0  0  0
  3  4  1  0  0  0
  3  8  1  0  0  0
  4 13  1  0  0  0
  4  5  2  0  0  0
 13 15  1  0  0  0
 13 14  1  0  0  0
 15 16  1  0  0  0
 15 20  2  0  0  0
 16 17  2  0  0  0
 17 18  1  0  0  0
 18 21  1  0  0  0
 18 19  2  0  0  0
 21 22  1  0  0  0
 21 24  1  0  0  0
 22 23  2  0  0  0
 22 25  1  0  0  0
 25 26  1  0  0  0
 25 31  2  0  0  0
 26 27  2  0  0  0
 27 28  1  0  0  0
 28 29  1  0  0  0
 28 30  2  0  0  0
 30 31  1  0  0  0
 19 20  1  0  0  0
  5  6  1  0  0  0
  6  7  2  0  0  0
  7  8  1  0  0  0
  8  9  2  0  0  0
  9 10  1  0  0  0
 10 32  1  0  0  0
 32 33  1  0  0  0
 33 34  1  0  0  0
 34 35  1  0  0  0
 35 36  1  0  0  0
 36 37  1  0  0  0
 36 41  1  0  0  0
 37 38  1  0  0  0
 38 39  1  0  0  0
 39 40  1  0  0  0
 40 41  1  0  0  0
M  END
> <minimizedAffinity>
-9.68054

$$$$
