CHEMBL2016929


 34 38  0  0  0  0  0  0  0  0999 V2000
  -15.6962    0.0269  -14.8998 N   0  0  0  0  0  0  0  0  0  0  0  0
  -14.7216    0.0272  -13.9278 C   0  0  0  0  0  0  0  0  0  0  0  0
  -14.6200    0.8962  -13.0613 O   0  0  0  0  0  0  0  0  0  0  0  0
  -13.8244   -1.0498  -13.9454 N   0  0  0  0  0  0  0  0  0  0  0  0
  -13.6433   -1.9846  -15.0899 C   0  0  0  0  0  0  0  0  0  0  0  0
  -12.7601   -3.2511  -14.9029 C   0  0  0  0  0  0  0  0  0  0  0  0
  -12.0053   -3.2243  -13.6391 C   0  0  0  0  0  0  0  0  0  0  0  0
  -11.4519   -4.3114  -13.0060 N   0  0  0  0  0  0  0  0  0  0  0  0
  -11.2302   -3.9004  -11.7568 C   0  0  0  0  0  0  0  0  0  0  0  0
  -11.2353   -2.5154  -11.7349 N   0  0  0  0  0  0  0  0  0  0  0  0
  -11.9920   -2.1432  -12.8105 C   0  0  0  0  0  0  0  0  0  0  0  0
  -12.7623   -0.9004  -12.9372 C   0  0  0  0  0  0  0  0  0  0  0  0
  -15.7946   -0.8008  -15.4601 H   0  0  0  0  0  0  0  0  0  0  0  0
  -11.0964   -1.9603  -10.9081 H   0  0  0  0  0  0  0  0  0  0  0  0
  -11.4429   -4.5950  -10.4978 C   0  0  0  0  0  0  0  0  0  0  0  0
  -12.3388   -5.6076  -10.5848 C   0  0  0  0  0  0  0  0  0  0  0  0
  -13.7343   -5.0755  -10.5771 C   0  0  0  0  0  0  0  0  0  0  0  0
  -14.6612   -5.5147  -11.5236 C   0  0  0  0  0  0  0  0  0  0  0  0
  -15.8100   -4.7605  -11.7612 C   0  0  0  0  0  0  0  0  0  0  0  0
  -16.0677   -3.6097  -11.0099 C   0  0  0  0  0  0  0  0  0  0  0  0
  -15.1922   -3.2137   -9.9964 C   0  0  0  0  0  0  0  0  0  0  0  0
  -14.0115   -3.9267   -9.8150 C   0  0  0  0  0  0  0  0  0  0  0  0
  -12.9882   -3.4077   -9.0090 N   0  0  0  0  0  0  0  0  0  0  0  0
  -11.6699   -3.7041   -9.2877 C   0  0  0  0  0  0  0  0  0  0  0  0
  -10.7396   -3.1340   -8.7272 O   0  0  0  0  0  0  0  0  0  0  0  0
  -13.1619   -2.6446   -8.3700 H   0  0  0  0  0  0  0  0  0  0  0  0
  -18.8242    2.8598  -15.3572 C   0  0  0  0  0  0  0  0  0  0  0  0
  -17.5219    3.2158  -15.6920 C   0  0  0  0  0  0  0  0  0  0  0  0
  -16.4771    2.2932  -15.5511 C   0  0  0  0  0  0  0  0  0  0  0  0
  -16.7106    1.0027  -15.0699 C   0  0  0  0  0  0  0  0  0  0  0  0
  -18.0223    0.6489  -14.7359 C   0  0  0  0  0  0  0  0  0  0  0  0
  -19.0671    1.5740  -14.8718 C   0  0  0  0  0  0  0  0  0  0  0  0
  -21.1052    3.2119  -14.8055 C   0  0  0  0  0  0  0  0  0  0  0  0
  -19.9240    3.6660  -15.4589 O   0  0  0  0  0  0  0  0  0  0  0  0
 33 34  1  0  0  0
 34 27  1  0  0  0
 27 28  1  0  0  0
 27 32  2  0  0  0
 28 29  2  0  0  0
 29 30  1  0  0  0
 30  1  1  0  0  0
 30 31  2  0  0  0
  1  2  1  0  0  0
  1 13  1  0  0  0
  2  3  2  0  0  0
  2  4  1  0  0  0
  4  5  1  0  0  0
  4 12  1  0  0  0
  5  6  1  0  0  0
  6  7  1  0  0  0
  7  8  1  0  0  0
  7 11  2  0  0  0
  8  9  2  0  0  0
  9 15  1  0  0  0
  9 10  1  0  0  0
 15 16  2  0  0  0
 15 24  1  0  0  0
 16 17  1  0  0  0
 17 18  1  0  0  0
 17 22  2  0  0  0
 18 19  2  0  0  0
 19 20  1  0  0  0
 20 21  2  0  0  0
 21 22  1  0  0  0
 22 23  1  0  0  0
 23 24  1  0  0  0
 23 26  1  0  0  0
 24 25  2  0  0  0
 10 11  1  0  0  0
 10 14  1  0  0  0
 11 12  1  0  0  0
 31 32  1  0  0  0
M  END
> <minimizedAffinity>
-9.25832

$$$$
