CHEMBL376245


 41 45  0  0  0  0  0  0  0  0999 V2000
  -28.5185   -2.4381   -8.3066 C   0  0  0  0  0  0  0  0  0  0  0  0
  -29.3363   -3.5874   -8.3885 C   0  0  0  0  0  0  0  0  0  0  0  0
  -30.0295   -4.0975   -7.2878 C   0  0  0  0  0  0  0  0  0  0  0  0
  -29.8876   -3.5375   -6.0175 C   0  0  0  0  0  0  0  0  0  0  0  0
  -29.0736   -2.4010   -5.9421 C   0  0  0  0  0  0  0  0  0  0  0  0
  -28.6479   -1.6730   -4.8645 N   0  0  0  0  0  0  0  0  0  0  0  0
  -28.0493   -0.5151   -5.1786 N   0  0  0  0  0  0  0  0  0  0  0  0
  -27.9912   -0.5489   -6.5069 C   0  0  0  0  0  0  0  0  0  0  0  0
  -27.5302    0.4819   -7.2285 N   0  0  0  0  0  0  0  0  0  0  0  0
  -28.4769   -1.7851   -7.0436 C   0  0  0  0  0  0  0  0  0  0  0  0
  -28.7414   -1.9189   -3.8868 H   0  0  0  0  0  0  0  0  0  0  0  0
  -27.2681    1.3438   -6.7692 H   0  0  0  0  0  0  0  0  0  0  0  0
  -27.6600    0.5433   -8.2331 H   0  0  0  0  0  0  0  0  0  0  0  0
  -26.1660   -1.1838  -11.7067 C   0  0  0  0  0  0  0  0  0  0  0  0
  -25.5473   -1.6095  -10.5286 C   0  0  0  0  0  0  0  0  0  0  0  0
  -26.3066   -2.0049   -9.4228 C   0  0  0  0  0  0  0  0  0  0  0  0
  -27.7075   -1.9732   -9.4559 C   0  0  0  0  0  0  0  0  0  0  0  0
  -28.2995   -1.4480  -10.6229 C   0  0  0  0  0  0  0  0  0  0  0  0
  -27.5488   -1.0831  -11.7477 C   0  0  0  0  0  0  0  0  0  0  0  0
  -23.6926    0.1973  -13.9737 N   0  0  0  0  0  0  0  0  0  0  0  0
  -24.3768    0.0293  -12.7731 C   0  0  0  0  0  0  0  0  0  0  0  0
  -24.1172    0.5912  -11.7278 O   0  0  0  0  0  0  0  0  0  0  0  0
  -25.4040   -0.9110  -12.8722 N   0  0  0  0  0  0  0  0  0  0  0  0
  -24.0759   -0.2390  -14.7924 H   0  0  0  0  0  0  0  0  0  0  0  0
  -25.1954   -1.7024  -13.4598 H   0  0  0  0  0  0  0  0  0  0  0  0
  -18.8630    0.6791  -15.1183 C   0  0  0  0  0  0  0  0  0  0  0  0
  -20.1818    1.2720  -14.7153 C   0  0  0  0  0  0  0  0  0  0  0  0
  -20.2728    2.6519  -14.5158 C   0  0  0  0  0  0  0  0  0  0  0  0
  -21.4791    3.2242  -14.1415 C   0  0  0  0  0  0  0  0  0  0  0  0
  -22.6040    2.4214  -13.9626 C   0  0  0  0  0  0  0  0  0  0  0  0
  -22.5562    1.0369  -14.1551 C   0  0  0  0  0  0  0  0  0  0  0  0
  -21.3308    0.4663  -14.5339 C   0  0  0  0  0  0  0  0  0  0  0  0
  -30.5031   -3.9821   -4.8797 O   0  0  0  0  0  0  0  0  0  0  0  0
  -29.8418   -5.0486   -4.1812 C   0  0  0  0  0  0  0  0  0  0  0  0
  -30.5912   -6.3665   -4.3940 C   0  0  0  0  0  0  0  0  0  0  0  0
  -30.1275   -7.0808   -5.5704 N   0  0  0  0  0  0  0  0  0  0  0  0
  -28.7297   -7.2511   -5.8696 C   0  0  0  0  0  0  0  0  0  0  0  0
  -28.7262   -7.5950   -7.3449 C   0  0  0  0  0  0  0  0  0  0  0  0
  -30.0748   -8.2676   -7.5739 C   0  0  0  0  0  0  0  0  0  0  0  0
  -30.9559   -7.6160   -6.5397 C   0  0  0  0  0  0  0  0  0  0  0  0
  -32.1756   -7.6058   -6.5416 O   0  0  0  0  0  0  0  0  0  0  0  0
 26 27  1  0  0  0
 27 28  1  0  0  0
 27 32  2  0  0  0
 28 29  2  0  0  0
 29 30  1  0  0  0
 30 31  2  0  0  0
 31 20  1  0  0  0
 31 32  1  0  0  0
 20 21  1  0  0  0
 20 24  1  0  0  0
 21 22  2  0  0  0
 21 23  1  0  0  0
 23 14  1  0  0  0
 23 25  1  0  0  0
 14 15  1  0  0  0
 14 19  2  0  0  0
 15 16  2  0  0  0
 16 17  1  0  0  0
 17  1  1  0  0  0
 17 18  2  0  0  0
  1  2  1  0  0  0
  1 10  2  0  0  0
  2  3  2  0  0  0
  3  4  1  0  0  0
  4 33  1  0  0  0
  4  5  2  0  0  0
 33 34  1  0  0  0
 34 35  1  0  0  0
 35 36  1  0  0  0
 36 37  1  0  0  0
 36 40  1  0  0  0
 37 38  1  0  0  0
 38 39  1  0  0  0
 39 40  1  0  0  0
 40 41  2  0  0  0
  5  6  1  0  0  0
  5 10  1  0  0  0
  6  7  1  0  0  0
  6 11  1  0  0  0
  7  8  2  0  0  0
  8  9  1  0  0  0
  8 10  1  0  0  0
  9 12  1  0  0  0
  9 13  1  0  0  0
 18 19  1  0  0  0
M  END
> <minimizedAffinity>
-9.87004

$$$$
