CHEMBL2036868


 26 29  0  0  0  0  0  0  0  0999 V2000
  -27.9739   -2.0175   -8.6556 C   0  0  0  0  0  0  0  0  0  0  0  0
  -27.7914   -0.7135   -8.3715 N   0  0  0  0  0  0  0  0  0  0  0  0
  -27.8603   -0.3489   -7.0861 C   0  0  0  0  0  0  0  0  0  0  0  0
  -28.1069   -1.2326   -6.0749 C   0  0  0  0  0  0  0  0  0  0  0  0
  -28.2970   -2.5505   -6.4458 C   0  0  0  0  0  0  0  0  0  0  0  0
  -28.2253   -2.9615   -7.7235 N   0  0  0  0  0  0  0  0  0  0  0  0
  -28.3479   -3.5616   -5.3800 C   0  0  0  0  0  0  0  0  0  0  0  0
  -28.2178   -4.8549   -5.6684 N   0  0  0  0  0  0  0  0  0  0  0  0
  -29.4026   -5.3615   -5.2270 C   0  0  0  0  0  0  0  0  0  0  0  0
  -30.0885   -6.4902   -5.6757 C   0  0  0  0  0  0  0  0  0  0  0  0
  -31.3692   -6.7145   -5.1709 C   0  0  0  0  0  0  0  0  0  0  0  0
  -31.8982   -5.8977   -4.1643 C   0  0  0  0  0  0  0  0  0  0  0  0
  -31.1878   -4.8039   -3.6464 C   0  0  0  0  0  0  0  0  0  0  0  0
  -29.9681   -4.5277   -4.2665 C   0  0  0  0  0  0  0  0  0  0  0  0
  -29.0545   -3.4978   -4.1936 N   0  0  0  0  0  0  0  0  0  0  0  0
  -28.6265   -2.8409   -2.9783 C   0  0  0  0  0  0  0  0  0  0  0  0
  -27.8720   -2.3217  -10.0099 N   0  0  0  0  0  0  0  0  0  0  0  0
  -28.4457   -3.1299  -10.2079 H   0  0  0  0  0  0  0  0  0  0  0  0
  -25.0523   -1.1773  -12.9389 C   0  0  0  0  0  0  0  0  0  0  0  0
  -24.6920   -1.2039  -11.5915 C   0  0  0  0  0  0  0  0  0  0  0  0
  -25.6263   -1.5852  -10.6304 C   0  0  0  0  0  0  0  0  0  0  0  0
  -26.9159   -1.9743  -10.9676 C   0  0  0  0  0  0  0  0  0  0  0  0
  -27.2768   -1.9300  -12.3202 C   0  0  0  0  0  0  0  0  0  0  0  0
  -26.3537   -1.5478  -13.3008 C   0  0  0  0  0  0  0  0  0  0  0  0
  -22.8932   -0.4868  -13.6050 C   0  0  0  0  0  0  0  0  0  0  0  0
  -24.2325   -0.8165  -13.9654 O   0  0  0  0  0  0  0  0  0  0  0  0
 25 26  1  0  0  0
 26 19  1  0  0  0
 19 20  1  0  0  0
 19 24  2  0  0  0
 20 21  2  0  0  0
 21 22  1  0  0  0
 22 17  1  0  0  0
 22 23  2  0  0  0
 17  1  1  0  0  0
 17 18  1  0  0  0
  1  2  1  0  0  0
  1  6  2  0  0  0
  2  3  2  0  0  0
  3  4  1  0  0  0
  4  5  2  0  0  0
  5  7  1  0  0  0
  5  6  1  0  0  0
  7  8  2  0  0  0
  7 15  1  0  0  0
  8  9  1  0  0  0
  9 10  1  0  0  0
  9 14  2  0  0  0
 10 11  2  0  0  0
 11 12  1  0  0  0
 12 13  2  0  0  0
 13 14  1  0  0  0
 14 15  1  0  0  0
 15 16  1  0  0  0
 23 24  1  0  0  0
M  END
> <minimizedAffinity>
-8.55197

$$$$
