CHEMBL2018758


 32 34  0  0  0  0  0  0  0  0999 V2000
  -20.7778    1.1154  -14.8058 C   0  0  0  0  0  0  0  0  0  0  0  0
  -19.5983    0.4850  -15.2229 C   0  0  0  0  0  0  0  0  0  0  0  0
  -18.4364    1.2159  -15.5034 C   0  0  0  0  0  0  0  0  0  0  0  0
  -18.4287    2.6024  -15.4118 C   0  0  0  0  0  0  0  0  0  0  0  0
  -19.6078    3.2359  -14.9927 C   0  0  0  0  0  0  0  0  0  0  0  0
  -20.7816    2.5167  -14.6832 C   0  0  0  0  0  0  0  0  0  0  0  0
  -21.9848    3.2990  -14.2217 C   0  0  0  0  0  0  0  0  0  0  0  0
  -22.3907   -0.0877  -13.3343 C   0  0  0  0  0  0  0  0  0  0  0  0
  -21.9606    0.1995  -12.2269 O   0  0  0  0  0  0  0  0  0  0  0  0
  -21.9600    0.3859  -14.5467 N   0  0  0  0  0  0  0  0  0  0  0  0
  -22.5125    0.0695  -15.3305 H   0  0  0  0  0  0  0  0  0  0  0  0
  -23.3298   -1.0466  -13.5396 O   0  0  0  0  0  0  0  0  0  0  0  0
  -24.2971   -0.6755  -14.5328 C   0  0  0  0  0  0  0  0  0  0  0  0
  -25.5173   -1.5905  -14.5804 C   0  0  0  0  0  0  0  0  0  0  0  0
  -27.6364   -2.0701  -13.2507 C   0  0  0  0  0  0  0  0  0  0  0  0
  -26.2016   -1.5783  -13.2089 C   0  0  0  0  0  0  0  0  0  0  0  0
  -17.2416    3.3268  -15.6455 N   0  0  0  0  0  0  0  0  0  0  0  0
  -17.2247    4.2487  -15.2267 H   0  0  0  0  0  0  0  0  0  0  0  0
  -15.9345    2.7876  -15.7365 C   0  0  0  0  0  0  0  0  0  0  0  0
  -15.5683    1.8751  -14.8216 N   0  0  0  0  0  0  0  0  0  0  0  0
  -14.3569    1.3252  -14.9796 C   0  0  0  0  0  0  0  0  0  0  0  0
  -13.5054    1.5731  -15.9760 N   0  0  0  0  0  0  0  0  0  0  0  0
  -13.8853    2.4764  -16.8916 C   0  0  0  0  0  0  0  0  0  0  0  0
  -13.0941    2.7019  -18.0216 C   0  0  0  0  0  0  0  0  0  0  0  0
  -13.4479    3.5995  -19.0566 C   0  0  0  0  0  0  0  0  0  0  0  0
  -14.6129    4.3565  -18.9176 C   0  0  0  0  0  0  0  0  0  0  0  0
  -15.4127    4.1253  -17.7836 C   0  0  0  0  0  0  0  0  0  0  0  0
  -15.0908    3.1696  -16.7927 C   0  0  0  0  0  0  0  0  0  0  0  0
  -12.7363    3.4080  -20.2119 O   0  0  0  0  0  0  0  0  0  0  0  0
  -12.3358    2.0839  -20.5314 C   0  0  0  0  0  0  0  0  0  0  0  0
  -15.2236    5.2718  -19.7146 O   0  0  0  0  0  0  0  0  0  0  0  0
  -14.9402    6.6494  -19.6652 C   0  0  0  0  0  0  0  0  0  0  0  0
 15 16  1  0  0  0
 16 14  1  0  0  0
 14 13  1  0  0  0
 13 12  1  0  0  0
 12  8  1  0  0  0
  8  9  2  0  0  0
  8 10  1  0  0  0
 10  1  1  0  0  0
 10 11  1  0  0  0
  1  2  1  0  0  0
  1  6  2  0  0  0
  2  3  2  0  0  0
  3  4  1  0  0  0
  4 17  1  0  0  0
  4  5  2  0  0  0
 17 19  1  0  0  0
 17 18  1  0  0  0
 19 20  1  0  0  0
 19 28  2  0  0  0
 20 21  2  0  0  0
 21 22  1  0  0  0
 22 23  2  0  0  0
 23 24  1  0  0  0
 23 28  1  0  0  0
 24 25  2  0  0  0
 25 29  1  0  0  0
 25 26  1  0  0  0
 29 30  1  0  0  0
 26 31  1  0  0  0
 26 27  2  0  0  0
 31 32  1  0  0  0
 27 28  1  0  0  0
  5  6  1  0  0  0
  6  7  1  0  0  0
M  END
> <minimizedAffinity>
-7.85951

$$$$
