CHEMBL3321893


 29 33  0  0  0  0  0  0  0  0999 V2000
  -26.4963   -1.9149  -10.1320 C   0  0  0  0  0  0  0  0  0  0  0  0
  -26.7374   -1.0675   -9.1504 N   0  0  0  0  0  0  0  0  0  0  0  0
  -27.5707   -1.7166   -8.2802 C   0  0  0  0  0  0  0  0  0  0  0  0
  -28.1424   -1.2589   -7.0934 C   0  0  0  0  0  0  0  0  0  0  0  0
  -28.9789   -2.1309   -6.3893 C   0  0  0  0  0  0  0  0  0  0  0  0
  -29.2261   -3.4508   -6.8165 C   0  0  0  0  0  0  0  0  0  0  0  0
  -28.6812   -3.8942   -8.0324 C   0  0  0  0  0  0  0  0  0  0  0  0
  -27.8487   -3.0028   -8.7197 C   0  0  0  0  0  0  0  0  0  0  0  0
  -27.1411   -3.1089   -9.8882 N   0  0  0  0  0  0  0  0  0  0  0  0
  -27.0885   -3.9261  -10.4725 H   0  0  0  0  0  0  0  0  0  0  0  0
  -27.6892   -1.9107  -12.8790 C   0  0  0  0  0  0  0  0  0  0  0  0
  -26.2219   -1.6776  -12.6250 C   0  0  0  0  0  0  0  0  0  0  0  0
  -25.3775   -1.4541  -13.7274 C   0  0  0  0  0  0  0  0  0  0  0  0
  -24.0153   -1.2154  -13.5515 C   0  0  0  0  0  0  0  0  0  0  0  0
  -23.4735   -1.2048  -12.2722 C   0  0  0  0  0  0  0  0  0  0  0  0
  -24.2945   -1.4353  -11.1682 C   0  0  0  0  0  0  0  0  0  0  0  0
  -25.6744   -1.6688  -11.3229 C   0  0  0  0  0  0  0  0  0  0  0  0
  -30.1168   -4.2850   -6.0948 N   0  0  0  0  0  0  0  0  0  0  0  0
  -31.0066   -4.4292   -6.5567 H   0  0  0  0  0  0  0  0  0  0  0  0
  -29.7239   -5.4699   -5.4231 C   0  0  0  0  0  0  0  0  0  0  0  0
  -29.3319   -5.3558   -4.1392 N   0  0  0  0  0  0  0  0  0  0  0  0
  -29.0767   -6.4857   -3.4822 C   0  0  0  0  0  0  0  0  0  0  0  0
  -29.1744   -7.7199   -3.9793 N   0  0  0  0  0  0  0  0  0  0  0  0
  -29.5351   -7.8221   -5.2622 C   0  0  0  0  0  0  0  0  0  0  0  0
  -29.6867   -9.0917   -5.7999 C   0  0  0  0  0  0  0  0  0  0  0  0
  -30.0570   -9.2916   -7.1318 C   0  0  0  0  0  0  0  0  0  0  0  0
  -30.2755   -8.1972   -7.9580 C   0  0  0  0  0  0  0  0  0  0  0  0
  -30.1537   -6.9098   -7.4361 C   0  0  0  0  0  0  0  0  0  0  0  0
  -29.7932   -6.7100   -6.0784 C   0  0  0  0  0  0  0  0  0  0  0  0
 11 12  1  0  0  0
 12 13  1  0  0  0
 12 17  2  0  0  0
 13 14  2  0  0  0
 14 15  1  0  0  0
 15 16  2  0  0  0
 16 17  1  0  0  0
 17  1  1  0  0  0
  1  2  2  0  0  0
  1  9  1  0  0  0
  2  3  1  0  0  0
  3  4  1  0  0  0
  3  8  2  0  0  0
  4  5  2  0  0  0
  5  6  1  0  0  0
  6 18  1  0  0  0
  6  7  2  0  0  0
 18 20  1  0  0  0
 18 19  1  0  0  0
 20 21  1  0  0  0
 20 29  2  0  0  0
 21 22  2  0  0  0
 22 23  1  0  0  0
 23 24  2  0  0  0
 24 25  1  0  0  0
 24 29  1  0  0  0
 25 26  2  0  0  0
 26 27  1  0  0  0
 27 28  2  0  0  0
 28 29  1  0  0  0
  7  8  1  0  0  0
  8  9  1  0  0  0
  9 10  1  0  0  0
M  END
> <minimizedAffinity>
-9.94907

$$$$
