CHEMBL3671572


 40 43  0  0  0  0  0  0  0  0999 V2000
  -29.6949   -5.1591   -7.0694 C   0  0  0  0  0  0  0  0  0  0  0  0
  -28.9982   -4.3365   -7.9575 C   0  0  0  0  0  0  0  0  0  0  0  0
  -28.6173   -3.0266   -7.5826 C   0  0  0  0  0  0  0  0  0  0  0  0
  -27.9997   -2.1024   -8.4466 C   0  0  0  0  0  0  0  0  0  0  0  0
  -27.6209   -0.8783   -8.0406 N   0  0  0  0  0  0  0  0  0  0  0  0
  -27.9050   -0.5647   -6.7758 C   0  0  0  0  0  0  0  0  0  0  0  0
  -28.5034   -1.3582   -5.8724 N   0  0  0  0  0  0  0  0  0  0  0  0
  -28.8543   -2.5838   -6.2748 C   0  0  0  0  0  0  0  0  0  0  0  0
  -29.4657   -3.4577   -5.3792 C   0  0  0  0  0  0  0  0  0  0  0  0
  -29.8644   -4.7509   -5.7392 C   0  0  0  0  0  0  0  0  0  0  0  0
  -29.5018   -7.5110   -7.5934 C   0  0  0  0  0  0  0  0  0  0  0  0
  -28.3835   -7.6521   -7.1176 O   0  0  0  0  0  0  0  0  0  0  0  0
  -30.2439   -6.3416   -7.6089 N   0  0  0  0  0  0  0  0  0  0  0  0
  -31.2428   -6.4742   -7.5124 H   0  0  0  0  0  0  0  0  0  0  0  0
  -31.4923   -8.9275   -7.7893 C   0  0  0  0  0  0  0  0  0  0  0  0
  -30.2485   -8.6451   -8.1958 C   0  0  0  0  0  0  0  0  0  0  0  0
  -27.8241   -2.4484   -9.8058 N   0  0  0  0  0  0  0  0  0  0  0  0
  -28.7055   -2.7439  -10.2159 H   0  0  0  0  0  0  0  0  0  0  0  0
  -26.9629   -1.8553  -10.7542 C   0  0  0  0  0  0  0  0  0  0  0  0
  -25.6532   -1.4812  -10.4331 C   0  0  0  0  0  0  0  0  0  0  0  0
  -24.7445   -1.1287  -11.4359 C   0  0  0  0  0  0  0  0  0  0  0  0
  -25.1443   -1.1405  -12.7713 C   0  0  0  0  0  0  0  0  0  0  0  0
  -23.8749   -0.8018  -14.1297 Br  0  0  0  0  0  0  0  0  0  0  0  0
  -26.4565   -1.4488  -13.1125 C   0  0  0  0  0  0  0  0  0  0  0  0
  -27.3462   -1.8088  -12.1044 C   0  0  0  0  0  0  0  0  0  0  0  0
  -28.5993   -2.1556  -12.4422 F   0  0  0  0  0  0  0  0  0  0  0  0
  -30.3466   -5.5149   -4.6946 O   0  0  0  0  0  0  0  0  0  0  0  0
  -29.3604   -5.9685   -3.7585 C   0  0  0  0  0  0  0  0  0  0  0  0
  -29.1746   -7.4904   -3.8121 C   0  0  0  0  0  0  0  0  0  0  0  0
  -27.8080   -7.8507   -4.1846 N   0  0  0  0  0  0  0  0  0  0  0  0
  -27.2947   -9.1024   -3.9124 C   0  0  0  0  0  0  0  0  0  0  0  0
  -27.9735  -10.0057   -3.4265 O   0  0  0  0  0  0  0  0  0  0  0  0
  -27.2173   -7.1652   -4.6404 H   0  0  0  0  0  0  0  0  0  0  0  0
  -25.7988   -9.2856   -4.1948 C   0  0  0  0  0  0  0  0  0  0  0  0
  -25.4939  -10.5586   -4.8825 N   0  0  0  0  0  0  0  0  0  0  0  0
  -24.6122  -11.4413   -4.0769 C   0  0  0  0  0  0  0  0  0  0  0  0
  -23.1646  -10.9357   -3.9349 C   0  0  0  0  0  0  0  0  0  0  0  0
  -22.5617  -10.6981   -5.2147 O   0  0  0  0  0  0  0  0  0  0  0  0
  -23.3443   -9.7883   -5.9946 C   0  0  0  0  0  0  0  0  0  0  0  0
  -24.7888  -10.2983   -6.1641 C   0  0  0  0  0  0  0  0  0  0  0  0
 15 16  2  0  0  0
 16 11  1  0  0  0
 11 12  2  0  0  0
 11 13  1  0  0  0
 13  1  1  0  0  0
 13 14  1  0  0  0
  1  2  1  0  0  0
  1 10  2  0  0  0
  2  3  2  0  0  0
  3  4  1  0  0  0
  3  8  1  0  0  0
  4 17  1  0  0  0
  4  5  2  0  0  0
 17 19  1  0  0  0
 17 18  1  0  0  0
 19 20  1  0  0  0
 19 25  2  0  0  0
 20 21  2  0  0  0
 21 22  1  0  0  0
 22 23  1  0  0  0
 22 24  2  0  0  0
 24 25  1  0  0  0
 25 26  1  0  0  0
  5  6  1  0  0  0
  6  7  2  0  0  0
  7  8  1  0  0  0
  8  9  2  0  0  0
  9 10  1  0  0  0
 10 27  1  0  0  0
 27 28  1  0  0  0
 28 29  1  0  0  0
 29 30  1  0  0  0
 30 31  1  0  0  0
 30 33  1  0  0  0
 31 32  2  0  0  0
 31 34  1  0  0  0
 34 35  1  0  0  0
 35 36  1  0  0  0
 35 40  1  0  0  0
 36 37  1  0  0  0
 37 38  1  0  0  0
 38 39  1  0  0  0
 39 40  1  0  0  0
M  END
> <minimizedAffinity>
-9.23578

$$$$
