CHEMBL254761


 41 45  0  0  0  0  0  0  0  0999 V2000
  -29.9893   -5.4198   -5.9453 C   0  0  0  0  0  0  0  0  0  0  0  0
  -29.7948   -5.0402   -7.2768 C   0  0  0  0  0  0  0  0  0  0  0  0
  -29.0158   -3.9206   -7.5749 C   0  0  0  0  0  0  0  0  0  0  0  0
  -28.3346   -3.2413   -6.5598 C   0  0  0  0  0  0  0  0  0  0  0  0
  -28.4616   -3.6729   -5.2399 C   0  0  0  0  0  0  0  0  0  0  0  0
  -29.2906   -4.7514   -4.9422 C   0  0  0  0  0  0  0  0  0  0  0  0
  -29.4483   -5.1075   -3.6587 F   0  0  0  0  0  0  0  0  0  0  0  0
  -27.6383   -2.0756   -6.9197 N   0  0  0  0  0  0  0  0  0  0  0  0
  -26.6243   -2.1230   -6.8107 H   0  0  0  0  0  0  0  0  0  0  0  0
  -28.1008   -0.8853   -7.4215 C   0  0  0  0  0  0  0  0  0  0  0  0
  -28.5525    0.4764   -6.5620 S   0  0  0  0  0  0  0  0  0  0  0  0
  -28.1361   -0.8047   -8.8012 N   0  0  0  0  0  0  0  0  0  0  0  0
  -27.3846   -1.5233   -9.7209 C   0  0  0  0  0  0  0  0  0  0  0  0
  -26.5191   -2.3391   -9.4039 O   0  0  0  0  0  0  0  0  0  0  0  0
  -28.8434   -0.1710   -9.1523 H   0  0  0  0  0  0  0  0  0  0  0  0
  -27.6627   -1.1694  -11.1665 C   0  0  0  0  0  0  0  0  0  0  0  0
  -26.4438   -1.1283  -12.0526 C   0  0  0  0  0  0  0  0  0  0  0  0
  -26.4748   -1.7316  -13.3191 C   0  0  0  0  0  0  0  0  0  0  0  0
  -25.3903   -1.6131  -14.1906 C   0  0  0  0  0  0  0  0  0  0  0  0
  -24.2624   -0.8914  -13.8072 C   0  0  0  0  0  0  0  0  0  0  0  0
  -24.2153   -0.2938  -12.5494 C   0  0  0  0  0  0  0  0  0  0  0  0
  -25.2998   -0.4093  -11.6762 C   0  0  0  0  0  0  0  0  0  0  0  0
  -30.8379   -6.4306   -5.5490 O   0  0  0  0  0  0  0  0  0  0  0  0
  -28.0002  -10.0911   -5.0116 C   0  0  0  0  0  0  0  0  0  0  0  0
  -28.5881  -10.5471   -6.1734 C   0  0  0  0  0  0  0  0  0  0  0  0
  -29.6729   -9.7435   -6.6064 C   0  0  0  0  0  0  0  0  0  0  0  0
  -30.4950  -10.0657   -7.6401 N   0  0  0  0  0  0  0  0  0  0  0  0
  -31.4906   -9.1996   -7.8810 C   0  0  0  0  0  0  0  0  0  0  0  0
  -31.6853   -8.0132   -7.2045 C   0  0  0  0  0  0  0  0  0  0  0  0
  -30.7756   -7.6393   -6.2108 C   0  0  0  0  0  0  0  0  0  0  0  0
  -29.7924   -8.5730   -5.8630 C   0  0  0  0  0  0  0  0  0  0  0  0
  -28.6165   -8.5398   -4.6028 S   0  0  0  0  0  0  0  0  0  0  0  0
  -21.6133  -11.3127   -5.9869 C   0  0  0  0  0  0  0  0  0  0  0  0
  -22.8130  -10.6954   -5.4260 N   0  0  0  0  0  0  0  0  0  0  0  0
  -23.8892  -10.6738   -6.4294 C   0  0  0  0  0  0  0  0  0  0  0  0
  -25.1625  -10.0143   -5.8825 C   0  0  0  0  0  0  0  0  0  0  0  0
  -25.6191  -10.6028   -4.6189 N   0  0  0  0  0  0  0  0  0  0  0  0
  -26.9528  -10.6932   -4.1884 C   0  0  0  0  0  0  0  0  0  0  0  0
  -27.2203  -11.2687   -3.1324 O   0  0  0  0  0  0  0  0  0  0  0  0
  -24.5590  -10.8188   -3.6287 C   0  0  0  0  0  0  0  0  0  0  0  0
  -23.2805  -11.4326   -4.2339 C   0  0  0  0  0  0  0  0  0  0  0  0
 33 34  1  0  0  0
 34 35  1  0  0  0
 34 41  1  0  0  0
 35 36  1  0  0  0
 36 37  1  0  0  0
 37 38  1  0  0  0
 37 40  1  0  0  0
 38 39  2  0  0  0
 38 24  1  0  0  0
 24 25  2  0  0  0
 24 32  1  0  0  0
 25 26  1  0  0  0
 26 27  1  0  0  0
 26 31  2  0  0  0
 27 28  2  0  0  0
 28 29  1  0  0  0
 29 30  2  0  0  0
 30 23  1  0  0  0
 30 31  1  0  0  0
 23  1  1  0  0  0
  1  2  1  0  0  0
  1  6  2  0  0  0
  2  3  2  0  0  0
  3  4  1  0  0  0
  4  8  1  0  0  0
  4  5  2  0  0  0
  8 10  1  0  0  0
  8  9  1  0  0  0
 10 11  2  0  0  0
 10 12  1  0  0  0
 12 13  1  0  0  0
 12 15  1  0  0  0
 13 14  2  0  0  0
 13 16  1  0  0  0
 16 17  1  0  0  0
 17 18  1  0  0  0
 17 22  2  0  0  0
 18 19  2  0  0  0
 19 20  1  0  0  0
 20 21  2  0  0  0
 21 22  1  0  0  0
  5  6  1  0  0  0
  6  7  1  0  0  0
 31 32  1  0  0  0
 40 41  1  0  0  0
M  END
> <minimizedAffinity>
-10.01795

$$$$
