CHEMBL3221549


 29 31  0  0  0  0  0  0  0  0999 V2000
  -28.0537   -2.3181   -9.9902 N   0  0  0  0  0  0  0  0  0  0  0  0
  -28.7542   -2.9737  -10.3537 H   0  0  0  0  0  0  0  0  0  0  0  0
  -28.1172   -2.0284   -8.5909 C   0  0  0  0  0  0  0  0  0  0  0  0
  -27.8852   -0.7630   -8.1437 N   0  0  0  0  0  0  0  0  0  0  0  0
  -27.8269   -0.4739   -6.8176 C   0  0  0  0  0  0  0  0  0  0  0  0
  -27.9757   -1.4574   -5.8973 N   0  0  0  0  0  0  0  0  0  0  0  0
  -28.2210   -2.7374   -6.2692 C   0  0  0  0  0  0  0  0  0  0  0  0
  -28.3735   -3.7154   -5.2829 C   0  0  0  0  0  0  0  0  0  0  0  0
  -28.6504   -5.0583   -5.6258 C   0  0  0  0  0  0  0  0  0  0  0  0
  -28.7685   -5.4051   -6.9940 C   0  0  0  0  0  0  0  0  0  0  0  0
  -28.5924   -4.4159   -7.9735 C   0  0  0  0  0  0  0  0  0  0  0  0
  -28.3122   -3.0713   -7.6347 C   0  0  0  0  0  0  0  0  0  0  0  0
  -28.8143   -6.0060   -4.6678 O   0  0  0  0  0  0  0  0  0  0  0  0
  -29.9844   -6.2685   -3.9806 C   0  0  0  0  0  0  0  0  0  0  0  0
  -29.0503   -6.6623   -7.4414 O   0  0  0  0  0  0  0  0  0  0  0  0
  -30.2860   -7.2621   -7.5698 C   0  0  0  0  0  0  0  0  0  0  0  0
  -24.8978   -1.2860  -12.6877 C   0  0  0  0  0  0  0  0  0  0  0  0
  -24.7307   -1.3465  -11.2885 C   0  0  0  0  0  0  0  0  0  0  0  0
  -25.7848   -1.6729  -10.4538 C   0  0  0  0  0  0  0  0  0  0  0  0
  -27.0645   -1.9342  -10.9526 C   0  0  0  0  0  0  0  0  0  0  0  0
  -27.2748   -1.8309  -12.3416 C   0  0  0  0  0  0  0  0  0  0  0  0
  -26.1957   -1.5118  -13.1993 C   0  0  0  0  0  0  0  0  0  0  0  0
  -23.1753    0.2104  -13.7297 C   0  0  0  0  0  0  0  0  0  0  0  0
  -23.4686    1.1616  -13.0237 O   0  0  0  0  0  0  0  0  0  0  0  0
  -23.8038   -1.0029  -13.5879 N   0  0  0  0  0  0  0  0  0  0  0  0
  -23.4509   -1.7807  -14.1645 H   0  0  0  0  0  0  0  0  0  0  0  0
  -22.1780    0.3613  -14.6431 O   0  0  0  0  0  0  0  0  0  0  0  0
  -19.8589    0.7370  -15.1719 C   0  0  0  0  0  0  0  0  0  0  0  0
  -21.1125    1.2387  -14.4687 C   0  0  0  0  0  0  0  0  0  0  0  0
 28 29  1  0  0  0
 29 27  1  0  0  0
 27 23  1  0  0  0
 23 24  2  0  0  0
 23 25  1  0  0  0
 25 17  1  0  0  0
 25 26  1  0  0  0
 17 18  1  0  0  0
 17 22  2  0  0  0
 18 19  2  0  0  0
 19 20  1  0  0  0
 20  1  1  0  0  0
 20 21  2  0  0  0
  1  3  1  0  0  0
  1  2  1  0  0  0
  3  4  1  0  0  0
  3 12  2  0  0  0
  4  5  2  0  0  0
  5  6  1  0  0  0
  6  7  2  0  0  0
  7  8  1  0  0  0
  7 12  1  0  0  0
  8  9  2  0  0  0
  9 13  1  0  0  0
  9 10  1  0  0  0
 13 14  1  0  0  0
 10 15  1  0  0  0
 10 11  2  0  0  0
 15 16  1  0  0  0
 11 12  1  0  0  0
 21 22  1  0  0  0
M  END
> <minimizedAffinity>
-8.40574

$$$$
