CHEMBL4535795


 25 28  0  0  0  0  0  0  0  0999 V2000
  -29.3367   -4.2710   -5.5488 C   0  0  0  0  0  0  0  0  0  0  0  0
  -29.0882   -4.7808   -6.8796 C   0  0  0  0  0  0  0  0  0  0  0  0
  -28.5563   -3.8245   -7.6579 N   0  0  0  0  0  0  0  0  0  0  0  0
  -28.4643   -2.7311   -6.8668 N   0  0  0  0  0  0  0  0  0  0  0  0
  -28.8864   -2.9644   -5.5821 C   0  0  0  0  0  0  0  0  0  0  0  0
  -28.8489   -2.0403   -4.5752 N   0  0  0  0  0  0  0  0  0  0  0  0
  -27.6264   -1.2617   -4.4323 C   0  0  0  0  0  0  0  0  0  0  0  0
  -27.6599   -0.0250   -5.3148 C   0  0  0  0  0  0  0  0  0  0  0  0
  -28.3641   -0.2063   -6.6650 C   0  0  0  0  0  0  0  0  0  0  0  0
  -27.9712   -1.4814   -7.4217 C   0  0  0  0  0  0  0  0  0  0  0  0
  -29.1550   -2.3854   -3.6652 H   0  0  0  0  0  0  0  0  0  0  0  0
  -29.4860   -6.0929   -7.4171 C   0  0  0  0  0  0  0  0  0  0  0  0
  -28.5395   -6.8998   -8.0487 C   0  0  0  0  0  0  0  0  0  0  0  0
  -28.6982   -8.2764   -8.1744 C   0  0  0  0  0  0  0  0  0  0  0  0
  -29.9678   -8.7968   -7.9303 C   0  0  0  0  0  0  0  0  0  0  0  0
  -30.5070  -10.4202   -8.1154 S   0  0  0  0  0  0  0  0  0  0  0  0
  -32.0990   -9.9058   -7.7661 C   0  0  0  0  0  0  0  0  0  0  0  0
  -32.2489   -8.6474   -7.4163 N   0  0  0  0  0  0  0  0  0  0  0  0
  -31.0274   -7.9936   -7.5041 C   0  0  0  0  0  0  0  0  0  0  0  0
  -30.7693   -6.6378   -7.1876 C   0  0  0  0  0  0  0  0  0  0  0  0
  -29.0237   -5.4513   -3.5083 N   0  0  0  0  0  0  0  0  0  0  0  0
  -29.9306   -4.8863   -4.3642 C   0  0  0  0  0  0  0  0  0  0  0  0
  -31.1155   -4.9623   -4.0967 O   0  0  0  0  0  0  0  0  0  0  0  0
  -29.3945   -5.7566   -2.6178 H   0  0  0  0  0  0  0  0  0  0  0  0
  -28.0441   -5.2048   -3.5799 H   0  0  0  0  0  0  0  0  0  0  0  0
 21 22  1  0  0  0
 21 24  1  0  0  0
 21 25  1  0  0  0
 22 23  2  0  0  0
 22  1  1  0  0  0
  1  2  1  0  0  0
  1  5  2  0  0  0
  2 12  1  0  0  0
  2  3  2  0  0  0
 12 13  1  0  0  0
 12 20  2  0  0  0
 13 14  2  0  0  0
 14 15  1  0  0  0
 15 16  1  0  0  0
 15 19  2  0  0  0
 16 17  1  0  0  0
 17 18  2  0  0  0
 18 19  1  0  0  0
 19 20  1  0  0  0
  3  4  1  0  0  0
  4  5  1  0  0  0
  4 10  1  0  0  0
  5  6  1  0  0  0
  6  7  1  0  0  0
  6 11  1  0  0  0
  7  8  1  0  0  0
  8  9  1  0  0  0
  9 10  1  0  0  0
M  END
> <minimizedAffinity>
-8.20910

$$$$
