CHEMBL502543


 25 28  0  0  0  0  0  0  0  0999 V2000
  -28.6948   -3.6813   -7.1546 C   0  0  0  0  0  0  0  0  0  0  0  0
  -29.2389   -3.0300   -6.0463 C   0  0  0  0  0  0  0  0  0  0  0  0
  -30.0924   -3.8651   -5.3329 N   0  0  0  0  0  0  0  0  0  0  0  0
  -30.0033   -4.9984   -5.9673 C   0  0  0  0  0  0  0  0  0  0  0  0
  -30.6738   -6.5838   -5.7371 S   0  0  0  0  0  0  0  0  0  0  0  0
  -29.7937   -7.1272   -7.1750 C   0  0  0  0  0  0  0  0  0  0  0  0
  -29.0690   -6.1500   -7.7454 C   0  0  0  0  0  0  0  0  0  0  0  0
  -29.1879   -4.9595   -7.0578 N   0  0  0  0  0  0  0  0  0  0  0  0
  -28.9639   -1.6700   -5.6066 C   0  0  0  0  0  0  0  0  0  0  0  0
  -27.6799   -1.3372   -5.1528 C   0  0  0  0  0  0  0  0  0  0  0  0
  -27.3616   -0.0174   -4.8213 C   0  0  0  0  0  0  0  0  0  0  0  0
  -28.3232    0.9837   -4.9445 C   0  0  0  0  0  0  0  0  0  0  0  0
  -29.6072    0.6633   -5.3794 C   0  0  0  0  0  0  0  0  0  0  0  0
  -29.9267   -0.6568   -5.7066 C   0  0  0  0  0  0  0  0  0  0  0  0
  -28.0841   -2.3051   -9.0057 C   0  0  0  0  0  0  0  0  0  0  0  0
  -27.8160   -3.3509   -8.2100 C   0  0  0  0  0  0  0  0  0  0  0  0
  -27.3380   -1.7212  -13.7860 N   0  0  0  0  0  0  0  0  0  0  0  0
  -26.9022   -1.6871  -12.4627 C   0  0  0  0  0  0  0  0  0  0  0  0
  -27.7626   -2.0055  -11.4362 C   0  0  0  0  0  0  0  0  0  0  0  0
  -27.2493   -1.9309  -10.1584 C   0  0  0  0  0  0  0  0  0  0  0  0
  -25.9825   -1.5510   -9.9072 N   0  0  0  0  0  0  0  0  0  0  0  0
  -25.2453   -1.2351  -10.9791 C   0  0  0  0  0  0  0  0  0  0  0  0
  -25.6426   -1.2914  -12.2574 N   0  0  0  0  0  0  0  0  0  0  0  0
  -27.7672   -2.6056  -14.0307 H   0  0  0  0  0  0  0  0  0  0  0  0
  -26.5379   -1.5100  -14.3781 H   0  0  0  0  0  0  0  0  0  0  0  0
 17 18  1  0  0  0
 17 24  1  0  0  0
 17 25  1  0  0  0
 18 19  1  0  0  0
 18 23  2  0  0  0
 19 20  2  0  0  0
 20 15  1  0  0  0
 20 21  1  0  0  0
 15 16  2  0  0  0
 16  1  1  0  0  0
  1  2  2  0  0  0
  1  8  1  0  0  0
  2  9  1  0  0  0
  2  3  1  0  0  0
  9 10  1  0  0  0
  9 14  2  0  0  0
 10 11  2  0  0  0
 11 12  1  0  0  0
 12 13  2  0  0  0
 13 14  1  0  0  0
  3  4  2  0  0  0
  4  5  1  0  0  0
  4  8  1  0  0  0
  5  6  1  0  0  0
  6  7  2  0  0  0
  7  8  1  0  0  0
 21 22  2  0  0  0
 22 23  1  0  0  0
M  END
> <minimizedAffinity>
-8.64111

$$$$
