CHEMBL3220401


 25 27  0  0  0  0  0  0  0  0999 V2000
  -12.8246    3.3829  -15.1675 C   0  0  0  0  0  0  0  0  0  0  0  0
  -12.9829    2.4837  -14.0981 C   0  0  0  0  0  0  0  0  0  0  0  0
  -14.0976    1.6715  -13.9640 C   0  0  0  0  0  0  0  0  0  0  0  0
  -14.1101    0.7719  -12.9773 N   0  0  0  0  0  0  0  0  0  0  0  0
  -15.1644   -0.0463  -12.9310 C   0  0  0  0  0  0  0  0  0  0  0  0
  -16.2057   -0.0291  -13.7627 N   0  0  0  0  0  0  0  0  0  0  0  0
  -16.2039    0.9057  -14.7342 C   0  0  0  0  0  0  0  0  0  0  0  0
  -15.1338    1.8049  -14.8901 C   0  0  0  0  0  0  0  0  0  0  0  0
  -15.0399    2.8080  -15.8827 C   0  0  0  0  0  0  0  0  0  0  0  0
  -13.8964    3.5962  -16.0348 C   0  0  0  0  0  0  0  0  0  0  0  0
  -11.4198    5.1446  -14.4575 C   0  0  0  0  0  0  0  0  0  0  0  0
  -11.6432    4.0494  -15.3527 O   0  0  0  0  0  0  0  0  0  0  0  0
  -17.2563    0.8796  -15.6950 N   0  0  0  0  0  0  0  0  0  0  0  0
  -16.9208    1.2746  -16.5688 H   0  0  0  0  0  0  0  0  0  0  0  0
  -18.5273    1.4717  -15.4772 C   0  0  0  0  0  0  0  0  0  0  0  0
  -18.6321    2.8649  -15.4534 C   0  0  0  0  0  0  0  0  0  0  0  0
  -19.8318    3.4697  -15.0811 C   0  0  0  0  0  0  0  0  0  0  0  0
  -20.9288    2.6838  -14.7202 C   0  0  0  0  0  0  0  0  0  0  0  0
  -20.8554    1.2910  -14.7564 C   0  0  0  0  0  0  0  0  0  0  0  0
  -21.9030    0.5053  -14.2647 N   0  0  0  0  0  0  0  0  0  0  0  0
  -19.6287    0.7014  -15.0742 C   0  0  0  0  0  0  0  0  0  0  0  0
  -22.8107    0.9277  -14.3802 H   0  0  0  0  0  0  0  0  0  0  0  0
  -21.8844   -0.4487  -14.6244 H   0  0  0  0  0  0  0  0  0  0  0  0
  -14.0298    4.4644  -17.0791 O   0  0  0  0  0  0  0  0  0  0  0  0
  -15.1416    4.3569  -17.9480 C   0  0  0  0  0  0  0  0  0  0  0  0
 11 12  1  0  0  0
 12  1  1  0  0  0
  1  2  1  0  0  0
  1 10  2  0  0  0
  2  3  2  0  0  0
  3  4  1  0  0  0
  3  8  1  0  0  0
  4  5  2  0  0  0
  5  6  1  0  0  0
  6  7  2  0  0  0
  7 13  1  0  0  0
  7  8  1  0  0  0
 13 15  1  0  0  0
 13 14  1  0  0  0
 15 16  1  0  0  0
 15 21  2  0  0  0
 16 17  2  0  0  0
 17 18  1  0  0  0
 18 19  2  0  0  0
 19 20  1  0  0  0
 19 21  1  0  0  0
 20 22  1  0  0  0
 20 23  1  0  0  0
  8  9  2  0  0  0
  9 10  1  0  0  0
 10 24  1  0  0  0
 24 25  1  0  0  0
M  END
> <minimizedAffinity>
-6.82025

$$$$
