CHEMBL3950169


 35 38  0  0  0  0  0  0  0  0999 V2000
  -17.6398    1.9738  -15.7239 N   0  0  0  0  0  0  0  0  0  0  0  0
  -19.0877    1.7765  -15.4884 C   0  0  0  0  0  0  0  0  0  0  0  0
  -19.7922    2.9896  -15.4583 C   0  0  0  0  0  0  0  0  0  0  0  0
  -20.9835    3.1132  -14.8545 C   0  0  0  0  0  0  0  0  0  0  0  0
  -21.6149    2.0376  -14.3317 C   0  0  0  0  0  0  0  0  0  0  0  0
  -22.6769    2.3269  -13.5930 N   0  0  0  0  0  0  0  0  0  0  0  0
  -23.4594    1.3987  -13.0840 C   0  0  0  0  0  0  0  0  0  0  0  0
  -23.2972    0.0577  -13.4455 C   0  0  0  0  0  0  0  0  0  0  0  0
  -22.0915   -0.2982  -14.0975 N   0  0  0  0  0  0  0  0  0  0  0  0
  -21.1684    0.7125  -14.4987 C   0  0  0  0  0  0  0  0  0  0  0  0
  -19.8339    0.5600  -15.0767 C   0  0  0  0  0  0  0  0  0  0  0  0
  -24.6129   -0.7351  -13.2523 C   0  0  0  0  0  0  0  0  0  0  0  0
  -25.3325   -0.7000  -12.0310 C   0  0  0  0  0  0  0  0  0  0  0  0
  -26.5161   -1.2831  -12.1529 N   0  0  0  0  0  0  0  0  0  0  0  0
  -26.6224   -1.7205  -13.3843 N   0  0  0  0  0  0  0  0  0  0  0  0
  -27.8776   -2.3112  -13.8294 C   0  0  0  0  0  0  0  0  0  0  0  0
  -25.4871   -1.4434  -14.0951 C   0  0  0  0  0  0  0  0  0  0  0  0
  -14.2656    0.1349  -15.3795 C   0  0  0  0  0  0  0  0  0  0  0  0
  -14.3979   -0.3592  -14.0827 C   0  0  0  0  0  0  0  0  0  0  0  0
  -15.5579   -0.1335  -13.3545 C   0  0  0  0  0  0  0  0  0  0  0  0
  -16.6185    0.6151  -13.9070 C   0  0  0  0  0  0  0  0  0  0  0  0
  -16.5311    1.1793  -15.1848 C   0  0  0  0  0  0  0  0  0  0  0  0
  -15.3269    0.8919  -15.9300 C   0  0  0  0  0  0  0  0  0  0  0  0
  -12.0498    0.7765  -16.2181 C   0  0  0  0  0  0  0  0  0  0  0  0
  -13.1293   -0.0909  -16.1048 O   0  0  0  0  0  0  0  0  0  0  0  0
  -15.6160   -0.6394  -12.1011 O   0  0  0  0  0  0  0  0  0  0  0  0
  -15.6391   -1.9804  -11.8049 C   0  0  0  0  0  0  0  0  0  0  0  0
  -17.3408    3.1974  -16.5372 C   0  0  0  0  0  0  0  0  0  0  0  0
  -16.2585    4.0552  -15.8128 C   0  0  0  0  0  0  0  0  0  0  0  0
  -14.6279    4.2121  -16.6286 P   0  0  0  0  0  0  0  0  0  0  0  0
  -15.2038    5.3315  -17.5401 O   0  0  0  0  0  0  0  0  0  0  0  0
  -14.1147    5.3078  -15.3750 O   0  0  0  0  0  0  0  0  0  0  0  0
  -13.0864    4.3603  -17.3998 O   0  0  0  0  0  0  0  0  0  0  0  0
  -14.0537    4.7618  -14.5482 H   0  0  0  0  0  0  0  0  0  0  0  0
  -13.1965    3.9212  -18.2815 H   0  0  0  0  0  0  0  0  0  0  0  0
 24 25  1  0  0  0
 25 18  1  0  0  0
 18 19  1  0  0  0
 18 23  2  0  0  0
 19 20  2  0  0  0
 20 26  1  0  0  0
 20 21  1  0  0  0
 26 27  1  0  0  0
 21 22  2  0  0  0
 22  1  1  0  0  0
 22 23  1  0  0  0
  1 28  1  0  0  0
  1  2  1  0  0  0
 28 29  1  0  0  0
 29 30  1  0  0  0
 30 31  2  0  0  0
 30 32  1  0  0  0
 30 33  1  0  0  0
 32 34  1  0  0  0
 33 35  1  0  0  0
  2  3  1  0  0  0
  2 11  2  0  0  0
  3  4  2  0  0  0
  4  5  1  0  0  0
  5  6  1  0  0  0
  5 10  2  0  0  0
  6  7  2  0  0  0
  7  8  1  0  0  0
  8 12  1  0  0  0
  8  9  2  0  0  0
 12 13  1  0  0  0
 12 17  2  0  0  0
 13 14  2  0  0  0
 14 15  1  0  0  0
 15 16  1  0  0  0
 15 17  1  0  0  0
  9 10  1  0  0  0
 10 11  1  0  0  0
M  END
> <minimizedAffinity>
-8.72362

$$$$
