CHEMBL1086736


 24 26  0  0  0  0  0  0  0  0999 V2000
  -14.8424   -1.7489  -13.1913 C   0  0  0  0  0  0  0  0  0  0  0  0
  -13.5854   -1.5489  -12.8796 N   0  0  0  0  0  0  0  0  0  0  0  0
  -13.1816   -0.3503  -13.4519 N   0  0  0  0  0  0  0  0  0  0  0  0
  -14.1319    0.2833  -14.2122 C   0  0  0  0  0  0  0  0  0  0  0  0
  -14.0821    1.2809  -14.8977 O   0  0  0  0  0  0  0  0  0  0  0  0
  -15.3304   -0.5934  -14.0035 C   0  0  0  0  0  0  0  0  0  0  0  0
  -16.5582   -0.4075  -14.3712 N   0  0  0  0  0  0  0  0  0  0  0  0
  -12.2229   -0.0365  -13.3570 H   0  0  0  0  0  0  0  0  0  0  0  0
  -15.8494   -3.3874  -11.5645 C   0  0  0  0  0  0  0  0  0  0  0  0
  -16.5297   -4.5907  -11.3555 C   0  0  0  0  0  0  0  0  0  0  0  0
  -16.9471   -5.3207  -12.4560 C   0  0  0  0  0  0  0  0  0  0  0  0
  -16.7397   -4.9352  -13.7282 N   0  0  0  0  0  0  0  0  0  0  0  0
  -16.0864   -3.7626  -13.9122 C   0  0  0  0  0  0  0  0  0  0  0  0
  -15.6234   -2.9538  -12.8791 C   0  0  0  0  0  0  0  0  0  0  0  0
  -14.7344   -3.1867   -9.4767 C   0  0  0  0  0  0  0  0  0  0  0  0
  -15.4560   -2.5681  -10.5376 O   0  0  0  0  0  0  0  0  0  0  0  0
  -16.7975    0.6658  -15.1688 N   0  0  0  0  0  0  0  0  0  0  0  0
  -16.0347    1.2918  -15.4535 H   0  0  0  0  0  0  0  0  0  0  0  0
  -18.0587    1.2935  -15.1323 C   0  0  0  0  0  0  0  0  0  0  0  0
  -19.2637    0.5805  -15.1309 C   0  0  0  0  0  0  0  0  0  0  0  0
  -20.4927    1.2478  -15.1267 C   0  0  0  0  0  0  0  0  0  0  0  0
  -20.5321    2.6397  -15.1631 C   0  0  0  0  0  0  0  0  0  0  0  0
  -19.3438    3.3635  -15.2095 C   0  0  0  0  0  0  0  0  0  0  0  0
  -18.1178    2.6932  -15.1992 C   0  0  0  0  0  0  0  0  0  0  0  0
 15 16  1  0  0  0
 16  9  1  0  0  0
  9 10  1  0  0  0
  9 14  2  0  0  0
 10 11  2  0  0  0
 11 12  1  0  0  0
 12 13  2  0  0  0
 13 14  1  0  0  0
 14  1  1  0  0  0
  1  2  2  0  0  0
  1  6  1  0  0  0
  2  3  1  0  0  0
  3  4  1  0  0  0
  3  8  1  0  0  0
  4  5  2  0  0  0
  4  6  1  0  0  0
  6  7  2  0  0  0
  7 17  1  0  0  0
 17 19  1  0  0  0
 17 18  1  0  0  0
 19 20  1  0  0  0
 19 24  2  0  0  0
 20 21  2  0  0  0
 21 22  1  0  0  0
 22 23  2  0  0  0
 23 24  1  0  0  0
M  END
> <minimizedAffinity>
-7.78383

$$$$
