CHEMBL3930485


 39 43  0  0  0  0  0  0  0  0999 V2000
  -14.9378    1.5145  -15.6902 C   0  0  0  0  0  0  0  0  0  0  0  0
  -14.2038    0.8163  -14.9890 O   0  0  0  0  0  0  0  0  0  0  0  0
  -16.3766    1.5812  -15.3414 C   0  0  0  0  0  0  0  0  0  0  0  0
  -17.0841    0.4879  -14.8431 C   0  0  0  0  0  0  0  0  0  0  0  0
  -18.4501    0.6035  -14.5366 C   0  0  0  0  0  0  0  0  0  0  0  0
  -19.1221    1.8272  -14.7534 C   0  0  0  0  0  0  0  0  0  0  0  0
  -20.4625    2.3322  -14.6906 C   0  0  0  0  0  0  0  0  0  0  0  0
  -20.4991    3.6478  -14.9566 N   0  0  0  0  0  0  0  0  0  0  0  0
  -19.2283    3.9684  -15.2259 N   0  0  0  0  0  0  0  0  0  0  0  0
  -18.3630    2.9144  -15.1739 C   0  0  0  0  0  0  0  0  0  0  0  0
  -16.9990    2.8344  -15.4632 C   0  0  0  0  0  0  0  0  0  0  0  0
  -19.0151    4.9304  -15.4652 H   0  0  0  0  0  0  0  0  0  0  0  0
  -21.6851    1.6247  -14.4463 C   0  0  0  0  0  0  0  0  0  0  0  0
  -21.9861    0.8442  -13.3998 C   0  0  0  0  0  0  0  0  0  0  0  0
  -23.2456    0.1122  -13.2210 C   0  0  0  0  0  0  0  0  0  0  0  0
  -24.0047    0.1854  -12.0583 C   0  0  0  0  0  0  0  0  0  0  0  0
  -25.2008   -0.5281  -12.0002 C   0  0  0  0  0  0  0  0  0  0  0  0
  -25.6015   -1.2783  -13.0982 C   0  0  0  0  0  0  0  0  0  0  0  0
  -24.7914   -1.2735  -14.2212 C   0  0  0  0  0  0  0  0  0  0  0  0
  -23.6291   -0.5918  -14.3078 N   0  0  0  0  0  0  0  0  0  0  0  0
  -13.8116    4.1739  -18.2070 C   0  0  0  0  0  0  0  0  0  0  0  0
  -14.4624    3.5933  -17.1054 C   0  0  0  0  0  0  0  0  0  0  0  0
  -14.3306    2.2148  -16.8505 C   0  0  0  0  0  0  0  0  0  0  0  0
  -13.5292    1.4206  -17.6765 C   0  0  0  0  0  0  0  0  0  0  0  0
  -12.8877    1.9770  -18.7715 C   0  0  0  0  0  0  0  0  0  0  0  0
  -13.0267    3.3436  -19.0573 C   0  0  0  0  0  0  0  0  0  0  0  0
  -12.3412    3.8458  -20.3038 C   0  0  0  0  0  0  0  0  0  0  0  0
  -13.2278    6.6662  -18.0642 C   0  0  0  0  0  0  0  0  0  0  0  0
  -12.2827    6.6418  -17.2866 O   0  0  0  0  0  0  0  0  0  0  0  0
  -13.9025    5.5490  -18.5410 N   0  0  0  0  0  0  0  0  0  0  0  0
  -14.5449    5.7476  -19.2910 H   0  0  0  0  0  0  0  0  0  0  0  0
  -13.1322    9.1150  -18.8309 N   0  0  0  0  0  0  0  0  0  0  0  0
  -13.8694    9.9729  -19.5748 N   0  0  0  0  0  0  0  0  0  0  0  0
  -15.0876    9.4428  -19.5871 C   0  0  0  0  0  0  0  0  0  0  0  0
  -16.2376   10.1800  -20.1561 C   0  0  0  0  0  0  0  0  0  0  0  0
  -15.0860    8.1656  -19.0025 C   0  0  0  0  0  0  0  0  0  0  0  0
  -13.7756    7.9055  -18.6185 C   0  0  0  0  0  0  0  0  0  0  0  0
  -11.9760   10.2043  -16.8946 C   0  0  0  0  0  0  0  0  0  0  0  0
  -11.8627    9.6019  -18.3004 C   0  0  0  0  0  0  0  0  0  0  0  0
 38 39  1  0  0  0
 39 32  1  0  0  0
 32 33  1  0  0  0
 32 37  1  0  0  0
 33 34  2  0  0  0
 34 35  1  0  0  0
 34 36  1  0  0  0
 36 37  2  0  0  0
 37 28  1  0  0  0
 28 29  2  0  0  0
 28 30  1  0  0  0
 30 21  1  0  0  0
 30 31  1  0  0  0
 21 22  1  0  0  0
 21 26  2  0  0  0
 22 23  2  0  0  0
 23  1  1  0  0  0
 23 24  1  0  0  0
  1  2  2  0  0  0
  1  3  1  0  0  0
  3  4  1  0  0  0
  3 11  2  0  0  0
  4  5  2  0  0  0
  5  6  1  0  0  0
  6  7  1  0  0  0
  6 10  2  0  0  0
  7 13  1  0  0  0
  7  8  2  0  0  0
 13 14  2  0  0  0
 14 15  1  0  0  0
 15 16  1  0  0  0
 15 20  2  0  0  0
 16 17  2  0  0  0
 17 18  1  0  0  0
 18 19  2  0  0  0
 19 20  1  0  0  0
  8  9  1  0  0  0
  9 10  1  0  0  0
  9 12  1  0  0  0
 10 11  1  0  0  0
 24 25  2  0  0  0
 25 26  1  0  0  0
 26 27  1  0  0  0
M  END
> <minimizedAffinity>
-9.43060

$$$$
