CHEMBL3942763


 38 42  0  0  0  0  0  0  0  0999 V2000
  -27.5852   -9.4723   -4.3675 N   0  0  0  0  0  0  0  0  0  0  0  0
  -28.0277   -8.1150   -4.1080 C   0  0  0  0  0  0  0  0  0  0  0  0
  -29.2043   -8.0105   -3.3518 C   0  0  0  0  0  0  0  0  0  0  0  0
  -30.0121   -6.9043   -3.4707 C   0  0  0  0  0  0  0  0  0  0  0  0
  -29.6204   -5.8158   -4.1974 C   0  0  0  0  0  0  0  0  0  0  0  0
  -30.5989   -4.9158   -4.3540 N   0  0  0  0  0  0  0  0  0  0  0  0
  -30.2433   -3.7457   -4.8865 C   0  0  0  0  0  0  0  0  0  0  0  0
  -28.9278   -3.4502   -5.2040 C   0  0  0  0  0  0  0  0  0  0  0  0
  -27.9463   -4.4203   -5.1593 N   0  0  0  0  0  0  0  0  0  0  0  0
  -28.3063   -5.6887   -4.6981 C   0  0  0  0  0  0  0  0  0  0  0  0
  -27.5282   -6.9128   -4.6830 C   0  0  0  0  0  0  0  0  0  0  0  0
  -28.6451   -2.0431   -5.4497 C   0  0  0  0  0  0  0  0  0  0  0  0
  -27.4748   -1.2911   -5.1631 C   0  0  0  0  0  0  0  0  0  0  0  0
  -27.6525    0.0283   -5.3142 N   0  0  0  0  0  0  0  0  0  0  0  0
  -28.9373    0.1246   -5.6940 N   0  0  0  0  0  0  0  0  0  0  0  0
  -29.4329    1.3310   -6.3147 C   0  0  0  0  0  0  0  0  0  0  0  0
  -29.6126   -1.0613   -5.5910 C   0  0  0  0  0  0  0  0  0  0  0  0
  -23.9249  -10.0016   -5.0578 C   0  0  0  0  0  0  0  0  0  0  0  0
  -23.5385  -10.7283   -3.9329 C   0  0  0  0  0  0  0  0  0  0  0  0
  -24.4870  -11.0709   -2.9739 C   0  0  0  0  0  0  0  0  0  0  0  0
  -25.8393  -10.7606   -3.1799 C   0  0  0  0  0  0  0  0  0  0  0  0
  -26.2707   -9.9938   -4.2736 C   0  0  0  0  0  0  0  0  0  0  0  0
  -25.2790   -9.6236   -5.2097 C   0  0  0  0  0  0  0  0  0  0  0  0
  -22.2728  -10.5834   -6.6869 C   0  0  0  0  0  0  0  0  0  0  0  0
  -23.0594   -9.5805   -6.0392 O   0  0  0  0  0  0  0  0  0  0  0  0
  -24.1992  -11.7061   -1.7921 O   0  0  0  0  0  0  0  0  0  0  0  0
  -22.8859  -12.2579   -1.6982 C   0  0  0  0  0  0  0  0  0  0  0  0
  -28.5499  -10.0968   -5.3779 C   0  0  0  0  0  0  0  0  0  0  0  0
  -28.6384   -9.4689   -6.7838 C   0  0  0  0  0  0  0  0  0  0  0  0
  -29.5892  -10.2514   -7.7518 C   0  0  0  0  0  0  0  0  0  0  0  0
  -30.6902   -9.3896   -8.2106 N   0  0  0  0  0  0  0  0  0  0  0  0
  -30.4940   -7.9744   -7.8481 C   0  0  0  0  0  0  0  0  0  0  0  0
  -31.4796   -7.7049   -6.7370 C   0  0  0  0  0  0  0  0  0  0  0  0
  -32.6920   -8.4667   -7.2083 C   0  0  0  0  0  0  0  0  0  0  0  0
  -32.0967   -9.7301   -7.8611 C   0  0  0  0  0  0  0  0  0  0  0  0
  -32.4326  -10.9754   -7.0145 C   0  0  0  0  0  0  0  0  0  0  0  0
  -33.3648  -10.6491   -5.9753 O   0  0  0  0  0  0  0  0  0  0  0  0
  -34.1434  -10.2374   -6.3900 H   0  0  0  0  0  0  0  0  0  0  0  0
 24 25  1  0  0  0
 25 18  1  0  0  0
 18 19  1  0  0  0
 18 23  2  0  0  0
 19 20  2  0  0  0
 20 26  1  0  0  0
 20 21  1  0  0  0
 26 27  1  0  0  0
 21 22  2  0  0  0
 22  1  1  0  0  0
 22 23  1  0  0  0
  1 28  1  0  0  0
  1  2  1  0  0  0
 28 29  1  0  0  0
 29 30  1  0  0  0
 30 31  1  0  0  0
 31 32  1  0  0  0
 31 35  1  0  0  0
 32 33  1  0  0  0
 33 34  1  0  0  0
 34 35  1  0  0  0
 35 36  1  0  0  0
 36 37  1  0  0  0
 37 38  1  0  0  0
  2  3  1  0  0  0
  2 11  2  0  0  0
  3  4  2  0  0  0
  4  5  1  0  0  0
  5  6  1  0  0  0
  5 10  2  0  0  0
  6  7  2  0  0  0
  7  8  1  0  0  0
  8 12  1  0  0  0
  8  9  2  0  0  0
 12 13  1  0  0  0
 12 17  2  0  0  0
 13 14  2  0  0  0
 14 15  1  0  0  0
 15 16  1  0  0  0
 15 17  1  0  0  0
  9 10  1  0  0  0
 10 11  1  0  0  0
M  END
> <minimizedAffinity>
-8.28336

$$$$
