CHEMBL3287222


 28 31  0  0  0  0  0  0  0  0999 V2000
  -28.7958   -8.5679   -5.2301 C   0  0  0  0  0  0  0  0  0  0  0  0
  -29.8285   -8.9202   -6.0531 N   0  0  0  0  0  0  0  0  0  0  0  0
  -30.7115   -8.0323   -6.5970 C   0  0  0  0  0  0  0  0  0  0  0  0
  -31.8174   -8.5291   -7.4696 C   0  0  0  0  0  0  0  0  0  0  0  0
  -30.5846   -6.7026   -6.3399 N   0  0  0  0  0  0  0  0  0  0  0  0
  -29.5568   -6.3000   -5.5578 C   0  0  0  0  0  0  0  0  0  0  0  0
  -29.2150   -5.0205   -5.1876 C   0  0  0  0  0  0  0  0  0  0  0  0
  -28.0763   -5.1517   -4.4141 C   0  0  0  0  0  0  0  0  0  0  0  0
  -27.7354   -6.4548   -4.2953 N   0  0  0  0  0  0  0  0  0  0  0  0
  -28.6506   -7.1697   -4.9982 C   0  0  0  0  0  0  0  0  0  0  0  0
  -26.9051   -6.7559   -3.7536 H   0  0  0  0  0  0  0  0  0  0  0  0
  -27.9337   -9.6102   -4.6904 N   0  0  0  0  0  0  0  0  0  0  0  0
  -28.4135  -10.4691   -3.6162 C   0  0  0  0  0  0  0  0  0  0  0  0
  -23.9258  -10.1454   -6.1593 C   0  0  0  0  0  0  0  0  0  0  0  0
  -25.0254  -10.5074   -6.9552 C   0  0  0  0  0  0  0  0  0  0  0  0
  -26.3275  -10.3538   -6.4764 C   0  0  0  0  0  0  0  0  0  0  0  0
  -26.5841   -9.8145   -5.1911 C   0  0  0  0  0  0  0  0  0  0  0  0
  -25.4598   -9.4724   -4.4011 C   0  0  0  0  0  0  0  0  0  0  0  0
  -24.1580   -9.6384   -4.8799 C   0  0  0  0  0  0  0  0  0  0  0  0
  -21.7294  -11.2036   -6.1238 C   0  0  0  0  0  0  0  0  0  0  0  0
  -22.6407  -10.2729   -6.5802 O   0  0  0  0  0  0  0  0  0  0  0  0
  -29.9057   -3.7350   -5.5271 C   0  0  0  0  0  0  0  0  0  0  0  0
  -29.1150   -2.9432   -6.5337 C   0  0  0  0  0  0  0  0  0  0  0  0
  -28.6433   -1.6598   -6.2089 C   0  0  0  0  0  0  0  0  0  0  0  0
  -27.8994   -0.9268   -7.1346 C   0  0  0  0  0  0  0  0  0  0  0  0
  -27.6216   -1.4645   -8.3942 C   0  0  0  0  0  0  0  0  0  0  0  0
  -28.0864   -2.7396   -8.7270 C   0  0  0  0  0  0  0  0  0  0  0  0
  -28.8297   -3.4799   -7.8015 C   0  0  0  0  0  0  0  0  0  0  0  0
 20 21  1  0  0  0
 21 14  1  0  0  0
 14 15  1  0  0  0
 14 19  2  0  0  0
 15 16  2  0  0  0
 16 17  1  0  0  0
 17 12  1  0  0  0
 17 18  2  0  0  0
 12 13  1  0  0  0
 12  1  1  0  0  0
  1  2  1  0  0  0
  1 10  2  0  0  0
  2  3  2  0  0  0
  3  4  1  0  0  0
  3  5  1  0  0  0
  5  6  2  0  0  0
  6  7  1  0  0  0
  6 10  1  0  0  0
  7 22  1  0  0  0
  7  8  2  0  0  0
 22 23  1  0  0  0
 23 24  1  0  0  0
 23 28  2  0  0  0
 24 25  2  0  0  0
 25 26  1  0  0  0
 26 27  2  0  0  0
 27 28  1  0  0  0
  8  9  1  0  0  0
  9 10  1  0  0  0
  9 11  1  0  0  0
 18 19  1  0  0  0
M  END
> <minimizedAffinity>
-8.29660

$$$$
