CHEMBL1980671


 21 23  0  0  0  0  0  0  0  0999 V2000
  -27.7954    0.2721   -6.5752 N   0  0  0  0  0  0  0  0  0  0  0  0
  -27.9052   -1.0544   -6.9902 C   0  0  0  0  0  0  0  0  0  0  0  0
  -27.8124   -1.2359   -8.3182 N   0  0  0  0  0  0  0  0  0  0  0  0
  -27.9957   -2.4845   -8.7581 C   0  0  0  0  0  0  0  0  0  0  0  0
  -28.2510   -3.5567   -7.9988 N   0  0  0  0  0  0  0  0  0  0  0  0
  -28.3730   -3.3383   -6.6701 C   0  0  0  0  0  0  0  0  0  0  0  0
  -28.2048   -2.0926   -6.1115 C   0  0  0  0  0  0  0  0  0  0  0  0
  -28.2857   -1.8296   -4.6757 C   0  0  0  0  0  0  0  0  0  0  0  0
  -27.5051   -1.0248   -4.1606 O   0  0  0  0  0  0  0  0  0  0  0  0
  -29.3017   -2.3543   -3.9248 N   0  0  0  0  0  0  0  0  0  0  0  0
  -30.0925   -3.4971   -4.1252 C   0  0  0  0  0  0  0  0  0  0  0  0
  -31.2051   -3.6246   -3.2792 C   0  0  0  0  0  0  0  0  0  0  0  0
  -31.9767   -4.7851   -3.2804 C   0  0  0  0  0  0  0  0  0  0  0  0
  -31.6129   -5.8505   -4.0927 C   0  0  0  0  0  0  0  0  0  0  0  0
  -30.5142   -5.7281   -4.9442 C   0  0  0  0  0  0  0  0  0  0  0  0
  -29.7746   -4.5330   -5.0199 C   0  0  0  0  0  0  0  0  0  0  0  0
  -28.7003   -4.4835   -5.9346 N   0  0  0  0  0  0  0  0  0  0  0  0
  -27.4605    0.8429   -7.3407 H   0  0  0  0  0  0  0  0  0  0  0  0
  -27.2373    0.3498   -5.7208 H   0  0  0  0  0  0  0  0  0  0  0  0
  -29.4199   -1.8651   -3.0451 H   0  0  0  0  0  0  0  0  0  0  0  0
  -28.7475   -5.2400   -6.6144 H   0  0  0  0  0  0  0  0  0  0  0  0
  1  2  1  0  0  0
  1 18  1  0  0  0
  1 19  1  0  0  0
  2  3  1  0  0  0
  2  7  2  0  0  0
  3  4  2  0  0  0
  4  5  1  0  0  0
  5  6  2  0  0  0
  6  7  1  0  0  0
  6 17  1  0  0  0
  7  8  1  0  0  0
  8  9  2  0  0  0
  8 10  1  0  0  0
 10 11  1  0  0  0
 10 20  1  0  0  0
 11 12  1  0  0  0
 11 16  2  0  0  0
 12 13  2  0  0  0
 13 14  1  0  0  0
 14 15  2  0  0  0
 15 16  1  0  0  0
 16 17  1  0  0  0
 17 21  1  0  0  0
M  END
> <minimizedAffinity>
-7.56760

$$$$
