CHEMBL3221260


 31 33  0  0  0  0  0  0  0  0999 V2000
  -28.3725   -6.3343   -7.2037 N   0  0  0  0  0  0  0  0  0  0  0  0
  -27.4751   -6.2421   -7.6979 H   0  0  0  0  0  0  0  0  0  0  0  0
  -28.6390   -5.5068   -6.0746 C   0  0  0  0  0  0  0  0  0  0  0  0
  -28.9329   -6.1008   -4.8807 N   0  0  0  0  0  0  0  0  0  0  0  0
  -29.1842   -5.3836   -3.7581 C   0  0  0  0  0  0  0  0  0  0  0  0
  -29.1287   -4.0346   -3.7973 N   0  0  0  0  0  0  0  0  0  0  0  0
  -28.8293   -3.3746   -4.9496 C   0  0  0  0  0  0  0  0  0  0  0  0
  -28.7257   -1.9891   -4.9336 C   0  0  0  0  0  0  0  0  0  0  0  0
  -28.3833   -1.2641   -6.1027 C   0  0  0  0  0  0  0  0  0  0  0  0
  -28.1603   -1.9958   -7.3133 C   0  0  0  0  0  0  0  0  0  0  0  0
  -28.2726   -3.3901   -7.3033 C   0  0  0  0  0  0  0  0  0  0  0  0
  -28.5933   -4.0969   -6.1347 C   0  0  0  0  0  0  0  0  0  0  0  0
  -28.2510    0.0935   -6.0561 O   0  0  0  0  0  0  0  0  0  0  0  0
  -28.4035    0.8590   -4.9119 C   0  0  0  0  0  0  0  0  0  0  0  0
  -27.8282   -1.4551   -8.5161 O   0  0  0  0  0  0  0  0  0  0  0  0
  -27.2197   -2.0232   -9.6108 C   0  0  0  0  0  0  0  0  0  0  0  0
  -31.1220   -9.3447   -8.3989 C   0  0  0  0  0  0  0  0  0  0  0  0
  -29.8204   -9.3455   -8.9120 C   0  0  0  0  0  0  0  0  0  0  0  0
  -28.9041   -8.3559   -8.5297 C   0  0  0  0  0  0  0  0  0  0  0  0
  -27.2788   -8.4202   -9.2014 Cl  0  0  0  0  0  0  0  0  0  0  0  0
  -29.2970   -7.3345   -7.6396 C   0  0  0  0  0  0  0  0  0  0  0  0
  -30.6143   -7.3534   -7.1301 C   0  0  0  0  0  0  0  0  0  0  0  0
  -31.5162   -8.3469   -7.5008 C   0  0  0  0  0  0  0  0  0  0  0  0
  -33.1291   -8.3367   -6.7983 Cl  0  0  0  0  0  0  0  0  0  0  0  0
  -31.9169  -11.6032   -8.1782 C   0  0  0  0  0  0  0  0  0  0  0  0
  -32.7444  -12.4650   -8.4387 O   0  0  0  0  0  0  0  0  0  0  0  0
  -32.0233  -10.3779   -8.7494 N   0  0  0  0  0  0  0  0  0  0  0  0
  -32.8084  -10.1658   -9.3839 H   0  0  0  0  0  0  0  0  0  0  0  0
  -30.8936  -11.8578   -7.3179 O   0  0  0  0  0  0  0  0  0  0  0  0
  -29.7342  -11.0939   -5.3806 C   0  0  0  0  0  0  0  0  0  0  0  0
  -30.9696  -11.7819   -5.9403 C   0  0  0  0  0  0  0  0  0  0  0  0
 30 31  1  0  0  0
 31 29  1  0  0  0
 29 25  1  0  0  0
 25 26  2  0  0  0
 25 27  1  0  0  0
 27 17  1  0  0  0
 27 28  1  0  0  0
 17 18  1  0  0  0
 17 23  2  0  0  0
 18 19  2  0  0  0
 19 20  1  0  0  0
 19 21  1  0  0  0
 21  1  1  0  0  0
 21 22  2  0  0  0
  1  3  1  0  0  0
  1  2  1  0  0  0
  3  4  1  0  0  0
  3 12  2  0  0  0
  4  5  2  0  0  0
  5  6  1  0  0  0
  6  7  2  0  0  0
  7  8  1  0  0  0
  7 12  1  0  0  0
  8  9  2  0  0  0
  9 13  1  0  0  0
  9 10  1  0  0  0
 13 14  1  0  0  0
 10 15  1  0  0  0
 10 11  2  0  0  0
 15 16  1  0  0  0
 11 12  1  0  0  0
 22 23  1  0  0  0
 23 24  1  0  0  0
M  END
> <minimizedAffinity>
-8.18764

$$$$
