CHEMBL219080


 39 45  0  0  0  0  0  0  0  0999 V2000
  -15.0387   -3.7270  -13.8521 N   0  0  0  0  0  0  0  0  0  0  0  0
  -14.8167   -2.3313  -13.7590 C   0  0  0  0  0  0  0  0  0  0  0  0
  -15.6073   -1.2758  -13.2597 C   0  0  0  0  0  0  0  0  0  0  0  0
  -15.1356    0.0521  -13.3869 C   0  0  0  0  0  0  0  0  0  0  0  0
  -13.9072    0.3367  -13.9754 C   0  0  0  0  0  0  0  0  0  0  0  0
  -13.1396   -0.7184  -14.4757 C   0  0  0  0  0  0  0  0  0  0  0  0
  -13.6008   -2.0450  -14.3940 C   0  0  0  0  0  0  0  0  0  0  0  0
  -13.2313   -3.2734  -14.8977 C   0  0  0  0  0  0  0  0  0  0  0  0
  -12.3533   -3.4028  -15.9850 C   0  0  0  0  0  0  0  0  0  0  0  0
  -12.4895   -4.5893  -16.7330 C   0  0  0  0  0  0  0  0  0  0  0  0
  -13.3292   -5.6537  -16.3661 C   0  0  0  0  0  0  0  0  0  0  0  0
  -13.6562   -5.6496  -14.9688 C   0  0  0  0  0  0  0  0  0  0  0  0
  -13.9472   -4.3566  -14.4679 C   0  0  0  0  0  0  0  0  0  0  0  0
  -12.8053   -6.7285  -14.1721 C   0  0  0  0  0  0  0  0  0  0  0  0
  -11.6423   -7.4022  -15.0189 C   0  0  0  0  0  0  0  0  0  0  0  0
  -12.2562   -7.8535  -16.2976 C   0  0  0  0  0  0  0  0  0  0  0  0
  -12.3705   -9.0996  -16.7557 N   0  0  0  0  0  0  0  0  0  0  0  0
  -13.3732   -8.9865  -17.6645 N   0  0  0  0  0  0  0  0  0  0  0  0
  -13.9106  -10.1723  -18.2867 C   0  0  0  0  0  0  0  0  0  0  0  0
  -13.9327   -7.7318  -17.7134 C   0  0  0  0  0  0  0  0  0  0  0  0
  -13.1015   -6.9464  -16.9552 C   0  0  0  0  0  0  0  0  0  0  0  0
  -11.5142   -4.5393  -17.7961 C   0  0  0  0  0  0  0  0  0  0  0  0
  -11.1860   -5.3183  -18.6792 O   0  0  0  0  0  0  0  0  0  0  0  0
  -10.8654   -3.3233  -17.6104 N   0  0  0  0  0  0  0  0  0  0  0  0
  -11.3554   -2.4954  -16.5356 C   0  0  0  0  0  0  0  0  0  0  0  0
  -10.0676   -3.0991  -18.1851 H   0  0  0  0  0  0  0  0  0  0  0  0
  -13.3523    1.6244  -14.1352 N   0  0  0  0  0  0  0  0  0  0  0  0
  -12.7753    2.4556  -13.1920 C   0  0  0  0  0  0  0  0  0  0  0  0
  -12.6452    2.1985  -11.9963 O   0  0  0  0  0  0  0  0  0  0  0  0
  -13.3728    2.0211  -15.0718 H   0  0  0  0  0  0  0  0  0  0  0  0
  -12.2905    3.6945  -13.7810 C   0  0  0  0  0  0  0  0  0  0  0  0
  -11.1232    4.3975  -13.5566 C   0  0  0  0  0  0  0  0  0  0  0  0
  -11.1498    5.5359  -14.4061 C   0  0  0  0  0  0  0  0  0  0  0  0
  -12.3378    5.4629  -15.0901 C   0  0  0  0  0  0  0  0  0  0  0  0
  -13.0460    4.3566  -14.7286 O   0  0  0  0  0  0  0  0  0  0  0  0
  -16.3191   -4.3599  -13.5308 C   0  0  0  0  0  0  0  0  0  0  0  0
  -15.3300   -5.9380  -11.7755 C   0  0  0  0  0  0  0  0  0  0  0  0
  -16.4197   -4.9112  -12.0860 C   0  0  0  0  0  0  0  0  0  0  0  0
  -16.3317   -3.7751  -11.0593 C   0  0  0  0  0  0  0  0  0  0  0  0
 37 38  1  0  0  0
 38 39  1  0  0  0
 38 36  1  0  0  0
 36  1  1  0  0  0
  1  2  1  0  0  0
  1 13  1  0  0  0
  2  3  1  0  0  0
  2  7  2  0  0  0
  3  4  2  0  0  0
  4  5  1  0  0  0
  5 27  1  0  0  0
  5  6  2  0  0  0
 27 28  1  0  0  0
 27 30  1  0  0  0
 28 29  2  0  0  0
 28 31  1  0  0  0
 31 32  2  0  0  0
 31 35  1  0  0  0
 32 33  1  0  0  0
 33 34  2  0  0  0
 34 35  1  0  0  0
  6  7  1  0  0  0
  7  8  1  0  0  0
  8  9  1  0  0  0
  8 13  2  0  0  0
  9 10  2  0  0  0
  9 25  1  0  0  0
 10 11  1  0  0  0
 10 22  1  0  0  0
 11 12  2  0  0  0
 11 21  1  0  0  0
 12 13  1  0  0  0
 12 14  1  0  0  0
 14 15  1  0  0  0
 15 16  1  0  0  0
 16 17  2  0  0  0
 16 21  1  0  0  0
 17 18  1  0  0  0
 18 19  1  0  0  0
 18 20  1  0  0  0
 20 21  2  0  0  0
 22 23  2  0  0  0
 22 24  1  0  0  0
 24 25  1  0  0  0
 24 26  1  0  0  0
M  END
> <minimizedAffinity>
-7.92855

$$$$
