CHEMBL468612


 39 42  0  0  0  0  0  0  0  0999 V2000
  -23.2123   -0.9335  -13.4935 C   0  0  0  0  0  0  0  0  0  0  0  0
  -23.0355   -1.3968  -12.1889 C   0  0  0  0  0  0  0  0  0  0  0  0
  -24.1067   -1.8877  -11.4513 C   0  0  0  0  0  0  0  0  0  0  0  0
  -25.3789   -1.9971  -12.0070 C   0  0  0  0  0  0  0  0  0  0  0  0
  -25.5312   -1.6691  -13.3673 C   0  0  0  0  0  0  0  0  0  0  0  0
  -24.4471   -1.1424  -14.1250 C   0  0  0  0  0  0  0  0  0  0  0  0
  -24.6415   -0.8701  -15.5907 C   0  0  0  0  0  0  0  0  0  0  0  0
  -26.5117   -2.4008  -11.2506 N   0  0  0  0  0  0  0  0  0  0  0  0
  -26.7922   -1.9886   -9.9509 C   0  0  0  0  0  0  0  0  0  0  0  0
  -26.0713   -1.2785   -9.2586 O   0  0  0  0  0  0  0  0  0  0  0  0
  -27.9878   -2.5053   -9.4714 N   0  0  0  0  0  0  0  0  0  0  0  0
  -27.2055   -2.9553  -11.7256 H   0  0  0  0  0  0  0  0  0  0  0  0
  -28.2202   -3.4226   -9.8213 H   0  0  0  0  0  0  0  0  0  0  0  0
  -28.4045   -2.2164   -8.1457 C   0  0  0  0  0  0  0  0  0  0  0  0
  -28.8169   -3.2745   -7.3351 C   0  0  0  0  0  0  0  0  0  0  0  0
  -29.1450   -3.0454   -5.9974 C   0  0  0  0  0  0  0  0  0  0  0  0
  -29.1191   -1.7504   -5.4772 C   0  0  0  0  0  0  0  0  0  0  0  0
  -28.7553   -0.6659   -6.2861 C   0  0  0  0  0  0  0  0  0  0  0  0
  -28.3818   -0.9145   -7.6208 C   0  0  0  0  0  0  0  0  0  0  0  0
  -28.7684    0.7432   -5.7437 C   0  0  0  0  0  0  0  0  0  0  0  0
  -29.9698    1.1012   -5.2019 F   0  0  0  0  0  0  0  0  0  0  0  0
  -27.8475    0.9526   -4.7642 F   0  0  0  0  0  0  0  0  0  0  0  0
  -28.5134    1.6745   -6.7056 F   0  0  0  0  0  0  0  0  0  0  0  0
  -22.1700   -0.2785  -14.1452 O   0  0  0  0  0  0  0  0  0  0  0  0
  -21.0044    1.8621  -14.2149 C   0  0  0  0  0  0  0  0  0  0  0  0
  -21.1252    3.2489  -13.9483 C   0  0  0  0  0  0  0  0  0  0  0  0
  -22.3382    3.8320  -13.6011 C   0  0  0  0  0  0  0  0  0  0  0  0
  -23.4483    3.0225  -13.5663 C   0  0  0  0  0  0  0  0  0  0  0  0
  -23.4055    1.7038  -13.8338 N   0  0  0  0  0  0  0  0  0  0  0  0
  -22.1929    1.1269  -14.0851 C   0  0  0  0  0  0  0  0  0  0  0  0
  -17.4883    1.9114  -15.1293 C   0  0  0  0  0  0  0  0  0  0  0  0
  -17.2287    0.7080  -15.6445 N   0  0  0  0  0  0  0  0  0  0  0  0
  -18.2270   -0.1929  -15.6155 C   0  0  0  0  0  0  0  0  0  0  0  0
  -19.4846    0.0689  -15.1136 C   0  0  0  0  0  0  0  0  0  0  0  0
  -19.6819    1.3415  -14.6212 C   0  0  0  0  0  0  0  0  0  0  0  0
  -18.6758    2.2562  -14.6175 N   0  0  0  0  0  0  0  0  0  0  0  0
  -16.7141    4.0401  -15.9414 C   0  0  0  0  0  0  0  0  0  0  0  0
  -16.4494    2.8264  -15.2072 N   0  0  0  0  0  0  0  0  0  0  0  0
  -15.6259    2.3027  -15.4837 H   0  0  0  0  0  0  0  0  0  0  0  0
 37 38  1  0  0  0
 38 31  1  0  0  0
 38 39  1  0  0  0
 31 32  1  0  0  0
 31 36  2  0  0  0
 32 33  2  0  0  0
 33 34  1  0  0  0
 34 35  2  0  0  0
 35 25  1  0  0  0
 35 36  1  0  0  0
 25 26  1  0  0  0
 25 30  2  0  0  0
 26 27  2  0  0  0
 27 28  1  0  0  0
 28 29  2  0  0  0
 29 30  1  0  0  0
 30 24  1  0  0  0
 24  1  1  0  0  0
  1  2  1  0  0  0
  1  6  2  0  0  0
  2  3  2  0  0  0
  3  4  1  0  0  0
  4  8  1  0  0  0
  4  5  2  0  0  0
  8  9  1  0  0  0
  8 12  1  0  0  0
  9 10  2  0  0  0
  9 11  1  0  0  0
 11 14  1  0  0  0
 11 13  1  0  0  0
 14 15  1  0  0  0
 14 19  2  0  0  0
 15 16  2  0  0  0
 16 17  1  0  0  0
 17 18  2  0  0  0
 18 20  1  0  0  0
 18 19  1  0  0  0
 20 21  1  0  0  0
 20 22  1  0  0  0
 20 23  1  0  0  0
  5  6  1  0  0  0
  6  7  1  0  0  0
M  END
> <minimizedAffinity>
-8.78856

$$$$
