CHEMBL359617


 35 38  0  0  0  0  0  0  0  0999 V2000
  -23.1572   -0.2354  -13.5045 C   0  0  0  0  0  0  0  0  0  0  0  0
  -23.6137    0.3899  -12.3506 C   0  0  0  0  0  0  0  0  0  0  0  0
  -24.8095   -0.0348  -11.7627 C   0  0  0  0  0  0  0  0  0  0  0  0
  -25.6027   -1.0297  -12.3486 C   0  0  0  0  0  0  0  0  0  0  0  0
  -25.2277   -1.5106  -13.6074 C   0  0  0  0  0  0  0  0  0  0  0  0
  -24.0053   -1.1188  -14.1787 C   0  0  0  0  0  0  0  0  0  0  0  0
  -26.7457   -1.5863  -11.7122 N   0  0  0  0  0  0  0  0  0  0  0  0
  -26.8375   -1.8461  -10.3525 C   0  0  0  0  0  0  0  0  0  0  0  0
  -25.9297   -1.6535   -9.5470 O   0  0  0  0  0  0  0  0  0  0  0  0
  -28.0784   -2.3493   -9.9723 N   0  0  0  0  0  0  0  0  0  0  0  0
  -27.4740   -1.9453  -12.3103 H   0  0  0  0  0  0  0  0  0  0  0  0
  -28.5836   -2.8884  -10.6640 H   0  0  0  0  0  0  0  0  0  0  0  0
  -28.4505   -2.5179   -8.6102 C   0  0  0  0  0  0  0  0  0  0  0  0
  -29.1640   -3.6435   -8.1709 C   0  0  0  0  0  0  0  0  0  0  0  0
  -29.6035   -3.7601   -6.8509 C   0  0  0  0  0  0  0  0  0  0  0  0
  -29.3050   -2.7624   -5.9301 C   0  0  0  0  0  0  0  0  0  0  0  0
  -29.9161   -2.9430   -4.3255 Cl  0  0  0  0  0  0  0  0  0  0  0  0
  -28.5393   -1.6643   -6.3369 C   0  0  0  0  0  0  0  0  0  0  0  0
  -28.1122   -0.3979   -5.2402 Cl  0  0  0  0  0  0  0  0  0  0  0  0
  -28.1024   -1.5453   -7.6708 C   0  0  0  0  0  0  0  0  0  0  0  0
  -21.8899   -0.0809  -14.0191 O   0  0  0  0  0  0  0  0  0  0  0  0
  -17.4352    2.3580  -15.2950 C   0  0  0  0  0  0  0  0  0  0  0  0
  -18.5174    3.2551  -15.3123 C   0  0  0  0  0  0  0  0  0  0  0  0
  -19.8201    2.8638  -15.0355 C   0  0  0  0  0  0  0  0  0  0  0  0
  -20.7638    3.8221  -14.9640 N   0  0  0  0  0  0  0  0  0  0  0  0
  -22.0150    3.4641  -14.6126 C   0  0  0  0  0  0  0  0  0  0  0  0
  -22.3794    2.1727  -14.3007 C   0  0  0  0  0  0  0  0  0  0  0  0
  -21.4094    1.1723  -14.3779 C   0  0  0  0  0  0  0  0  0  0  0  0
  -20.1013    1.5005  -14.8183 C   0  0  0  0  0  0  0  0  0  0  0  0
  -19.0357    0.5901  -15.0211 C   0  0  0  0  0  0  0  0  0  0  0  0
  -17.7058    0.9975  -15.1727 C   0  0  0  0  0  0  0  0  0  0  0  0
  -15.9465    4.0904  -15.9557 C   0  0  0  0  0  0  0  0  0  0  0  0
  -16.1373    2.7768  -15.4287 O   0  0  0  0  0  0  0  0  0  0  0  0
  -16.8561   -0.0706  -15.1494 O   0  0  0  0  0  0  0  0  0  0  0  0
  -16.0923   -0.3494  -13.9894 C   0  0  0  0  0  0  0  0  0  0  0  0
 32 33  1  0  0  0
 33 22  1  0  0  0
 22 23  1  0  0  0
 22 31  2  0  0  0
 23 24  2  0  0  0
 24 25  1  0  0  0
 24 29  1  0  0  0
 25 26  2  0  0  0
 26 27  1  0  0  0
 27 28  2  0  0  0
 28 21  1  0  0  0
 28 29  1  0  0  0
 21  1  1  0  0  0
  1  2  1  0  0  0
  1  6  2  0  0  0
  2  3  2  0  0  0
  3  4  1  0  0  0
  4  7  1  0  0  0
  4  5  2  0  0  0
  7  8  1  0  0  0
  7 11  1  0  0  0
  8  9  2  0  0  0
  8 10  1  0  0  0
 10 13  1  0  0  0
 10 12  1  0  0  0
 13 14  1  0  0  0
 13 20  2  0  0  0
 14 15  2  0  0  0
 15 16  1  0  0  0
 16 17  1  0  0  0
 16 18  2  0  0  0
 18 19  1  0  0  0
 18 20  1  0  0  0
  5  6  1  0  0  0
 29 30  2  0  0  0
 30 31  1  0  0  0
 31 34  1  0  0  0
 34 35  1  0  0  0
M  END
> <minimizedAffinity>
-11.14555

$$$$
