CHEMBL3942288


 36 40  0  0  0  0  0  0  0  0999 V2000
  -23.6088   -1.3594  -11.8694 O   0  0  0  0  0  0  0  0  0  0  0  0
  -22.9297   -0.5758  -12.7835 C   0  0  0  0  0  0  0  0  0  0  0  0
  -22.4359   -0.9882  -14.0306 C   0  0  0  0  0  0  0  0  0  0  0  0
  -21.6617   -0.1294  -14.8410 C   0  0  0  0  0  0  0  0  0  0  0  0
  -21.5921    1.2266  -14.4768 C   0  0  0  0  0  0  0  0  0  0  0  0
  -21.0048    2.4611  -14.9200 C   0  0  0  0  0  0  0  0  0  0  0  0
  -21.9705    3.3948  -14.7573 N   0  0  0  0  0  0  0  0  0  0  0  0
  -22.5365    2.9762  -13.6044 N   0  0  0  0  0  0  0  0  0  0  0  0
  -22.3630    1.6369  -13.3921 C   0  0  0  0  0  0  0  0  0  0  0  0
  -22.8784    0.7737  -12.4311 C   0  0  0  0  0  0  0  0  0  0  0  0
  -23.1303    3.6251  -13.0874 H   0  0  0  0  0  0  0  0  0  0  0  0
  -19.6812    2.9901  -14.5958 C   0  0  0  0  0  0  0  0  0  0  0  0
  -18.8621    3.5172  -15.5294 C   0  0  0  0  0  0  0  0  0  0  0  0
  -17.4199    3.1799  -15.6643 C   0  0  0  0  0  0  0  0  0  0  0  0
  -16.9483    1.8572  -15.7551 C   0  0  0  0  0  0  0  0  0  0  0  0
  -15.6251    1.5808  -16.1292 C   0  0  0  0  0  0  0  0  0  0  0  0
  -14.7529    2.6220  -16.4301 C   0  0  0  0  0  0  0  0  0  0  0  0
  -15.2016    3.9375  -16.3515 C   0  0  0  0  0  0  0  0  0  0  0  0
  -16.5222    4.2126  -15.9727 C   0  0  0  0  0  0  0  0  0  0  0  0
  -27.0577   -1.4123  -10.6647 C   0  0  0  0  0  0  0  0  0  0  0  0
  -27.7440   -1.6090  -11.8695 C   0  0  0  0  0  0  0  0  0  0  0  0
  -27.0649   -1.8495  -13.0576 C   0  0  0  0  0  0  0  0  0  0  0  0
  -25.6783   -1.8568  -13.0648 C   0  0  0  0  0  0  0  0  0  0  0  0
  -24.9765   -1.4905  -11.9162 C   0  0  0  0  0  0  0  0  0  0  0  0
  -25.6615   -1.3117  -10.7046 C   0  0  0  0  0  0  0  0  0  0  0  0
  -27.9088   -2.4136   -8.5586 C   0  0  0  0  0  0  0  0  0  0  0  0
  -27.5438   -3.5689   -8.7679 O   0  0  0  0  0  0  0  0  0  0  0  0
  -27.7210   -1.3372   -9.4122 N   0  0  0  0  0  0  0  0  0  0  0  0
  -27.8973   -0.4079   -9.0528 H   0  0  0  0  0  0  0  0  0  0  0  0
  -28.3970    0.7252   -4.7650 C   0  0  0  0  0  0  0  0  0  0  0  0
  -28.7323   -0.6060   -5.3677 C   0  0  0  0  0  0  0  0  0  0  0  0
  -29.4691   -1.5690   -4.6737 C   0  0  0  0  0  0  0  0  0  0  0  0
  -29.7409   -2.8103   -5.2602 C   0  0  0  0  0  0  0  0  0  0  0  0
  -29.2771   -3.1066   -6.5465 C   0  0  0  0  0  0  0  0  0  0  0  0
  -28.5412   -2.1501   -7.2472 C   0  0  0  0  0  0  0  0  0  0  0  0
  -28.2763   -0.9063   -6.6541 C   0  0  0  0  0  0  0  0  0  0  0  0
 30 31  1  0  0  0
 31 32  1  0  0  0
 31 36  2  0  0  0
 32 33  2  0  0  0
 33 34  1  0  0  0
 34 35  2  0  0  0
 35 26  1  0  0  0
 35 36  1  0  0  0
 26 27  2  0  0  0
 26 28  1  0  0  0
 28 20  1  0  0  0
 28 29  1  0  0  0
 20 21  1  0  0  0
 20 25  2  0  0  0
 21 22  2  0  0  0
 22 23  1  0  0  0
 23 24  2  0  0  0
 24  1  1  0  0  0
 24 25  1  0  0  0
  1  2  1  0  0  0
  2  3  1  0  0  0
  2 10  2  0  0  0
  3  4  2  0  0  0
  4  5  1  0  0  0
  5  6  1  0  0  0
  5  9  2  0  0  0
  6 12  1  0  0  0
  6  7  2  0  0  0
 12 13  2  0  0  0
 13 14  1  0  0  0
 14 15  1  0  0  0
 14 19  2  0  0  0
 15 16  2  0  0  0
 16 17  1  0  0  0
 17 18  2  0  0  0
 18 19  1  0  0  0
  7  8  1  0  0  0
  8  9  1  0  0  0
  8 11  1  0  0  0
  9 10  1  0  0  0
M  END
> <minimizedAffinity>
-11.50938

$$$$
