CHEMBL487863


 36 38  0  0  0  0  0  0  0  0999 V2000
  -28.5585   -3.1687   -7.1171 C   0  0  0  0  0  0  0  0  0  0  0  0
  -28.2987   -2.8918   -8.4698 C   0  0  0  0  0  0  0  0  0  0  0  0
  -27.7984   -1.6413   -8.8659 C   0  0  0  0  0  0  0  0  0  0  0  0
  -27.6204   -0.6298   -7.9214 C   0  0  0  0  0  0  0  0  0  0  0  0
  -27.9062   -0.8821   -6.5812 C   0  0  0  0  0  0  0  0  0  0  0  0
  -28.3636   -2.1452   -6.1586 C   0  0  0  0  0  0  0  0  0  0  0  0
  -28.6246   -2.3347   -4.6854 C   0  0  0  0  0  0  0  0  0  0  0  0
  -28.2565   -5.2787   -5.8788 N   0  0  0  0  0  0  0  0  0  0  0  0
  -29.0720   -4.5267   -6.7181 C   0  0  0  0  0  0  0  0  0  0  0  0
  -30.1682   -4.8898   -7.1255 O   0  0  0  0  0  0  0  0  0  0  0  0
  -27.3943   -4.8658   -5.5499 H   0  0  0  0  0  0  0  0  0  0  0  0
  -29.1928   -9.0071   -4.2937 C   0  0  0  0  0  0  0  0  0  0  0  0
  -28.8664   -8.9494   -5.5833 N   0  0  0  0  0  0  0  0  0  0  0  0
  -28.5580   -7.7406   -6.1039 C   0  0  0  0  0  0  0  0  0  0  0  0
  -28.5629   -6.5693   -5.3769 C   0  0  0  0  0  0  0  0  0  0  0  0
  -28.9054   -6.7468   -4.0462 C   0  0  0  0  0  0  0  0  0  0  0  0
  -29.2428   -7.9358   -3.4856 N   0  0  0  0  0  0  0  0  0  0  0  0
  -29.3710  -12.4659   -2.8938 C   0  0  0  0  0  0  0  0  0  0  0  0
  -28.6767  -11.2250   -3.3903 C   0  0  0  0  0  0  0  0  0  0  0  0
  -27.4538  -11.1991   -3.4721 O   0  0  0  0  0  0  0  0  0  0  0  0
  -29.5532  -10.2146   -3.7062 N   0  0  0  0  0  0  0  0  0  0  0  0
  -30.5293  -10.2803   -3.4700 H   0  0  0  0  0  0  0  0  0  0  0  0
  -27.4847   -1.4209  -10.3056 C   0  0  0  0  0  0  0  0  0  0  0  0
  -28.4225   -1.3559  -11.0911 O   0  0  0  0  0  0  0  0  0  0  0  0
  -26.1345   -1.4067  -10.6233 N   0  0  0  0  0  0  0  0  0  0  0  0
  -25.4855   -1.6905   -9.9002 H   0  0  0  0  0  0  0  0  0  0  0  0
  -25.5870   -1.2485  -11.9151 C   0  0  0  0  0  0  0  0  0  0  0  0
  -26.1503   -1.8153  -13.0590 C   0  0  0  0  0  0  0  0  0  0  0  0
  -25.5349   -1.6681  -14.3035 C   0  0  0  0  0  0  0  0  0  0  0  0
  -24.3417   -0.9589  -14.4145 C   0  0  0  0  0  0  0  0  0  0  0  0
  -23.7625   -0.3695  -13.2832 C   0  0  0  0  0  0  0  0  0  0  0  0
  -24.4117   -0.4954  -12.0400 C   0  0  0  0  0  0  0  0  0  0  0  0
  -22.4472    0.3630  -13.3794 C   0  0  0  0  0  0  0  0  0  0  0  0
  -21.6168   -0.1252  -14.3420 F   0  0  0  0  0  0  0  0  0  0  0  0
  -22.6041    1.6870  -13.6548 F   0  0  0  0  0  0  0  0  0  0  0  0
  -21.7403    0.3065  -12.2155 F   0  0  0  0  0  0  0  0  0  0  0  0
 18 19  1  0  0  0
 19 20  2  0  0  0
 19 21  1  0  0  0
 21 12  1  0  0  0
 21 22  1  0  0  0
 12 13  1  0  0  0
 12 17  2  0  0  0
 13 14  2  0  0  0
 14 15  1  0  0  0
 15  8  1  0  0  0
 15 16  2  0  0  0
  8  9  1  0  0  0
  8 11  1  0  0  0
  9 10  2  0  0  0
  9  1  1  0  0  0
  1  2  1  0  0  0
  1  6  2  0  0  0
  2  3  2  0  0  0
  3 23  1  0  0  0
  3  4  1  0  0  0
 23 24  2  0  0  0
 23 25  1  0  0  0
 25 27  1  0  0  0
 25 26  1  0  0  0
 27 28  1  0  0  0
 27 32  2  0  0  0
 28 29  2  0  0  0
 29 30  1  0  0  0
 30 31  2  0  0  0
 31 33  1  0  0  0
 31 32  1  0  0  0
 33 34  1  0  0  0
 33 35  1  0  0  0
 33 36  1  0  0  0
  4  5  2  0  0  0
  5  6  1  0  0  0
  6  7  1  0  0  0
 16 17  1  0  0  0
M  END
> <minimizedAffinity>
-10.42888

$$$$
