CHEMBL3808957


 33 37  0  0  0  0  0  0  0  0999 V2000
  -27.3839   -2.5138   -8.9071 N   0  0  0  0  0  0  0  0  0  0  0  0
  -27.8025   -1.6934   -7.8778 C   0  0  0  0  0  0  0  0  0  0  0  0
  -27.8095   -0.4724   -7.8171 O   0  0  0  0  0  0  0  0  0  0  0  0
  -28.0703   -2.4051   -6.6847 N   0  0  0  0  0  0  0  0  0  0  0  0
  -27.6497   -1.9302   -5.4507 C   0  0  0  0  0  0  0  0  0  0  0  0
  -28.0742   -2.7757   -4.4662 C   0  0  0  0  0  0  0  0  0  0  0  0
  -28.8308   -3.7930   -5.0905 C   0  0  0  0  0  0  0  0  0  0  0  0
  -29.5819   -4.8582   -4.5653 C   0  0  0  0  0  0  0  0  0  0  0  0
  -30.2431   -5.7201   -5.4277 C   0  0  0  0  0  0  0  0  0  0  0  0
  -30.1308   -5.5759   -6.8165 C   0  0  0  0  0  0  0  0  0  0  0  0
  -29.4485   -4.4750   -7.3621 C   0  0  0  0  0  0  0  0  0  0  0  0
  -28.7759   -3.5972   -6.4805 C   0  0  0  0  0  0  0  0  0  0  0  0
  -27.2177   -3.4959   -8.7400 H   0  0  0  0  0  0  0  0  0  0  0  0
  -25.6239   -1.3685  -11.7865 C   0  0  0  0  0  0  0  0  0  0  0  0
  -25.5866   -1.8645  -10.4992 C   0  0  0  0  0  0  0  0  0  0  0  0
  -26.9432   -1.9868  -10.1131 C   0  0  0  0  0  0  0  0  0  0  0  0
  -27.7379   -1.5382  -11.0882 N   0  0  0  0  0  0  0  0  0  0  0  0
  -26.9221   -1.1544  -12.1251 O   0  0  0  0  0  0  0  0  0  0  0  0
  -23.4122   -2.0874  -12.6100 C   0  0  0  0  0  0  0  0  0  0  0  0
  -24.5769   -1.1064  -12.8370 C   0  0  0  0  0  0  0  0  0  0  0  0
  -24.0649    0.3393  -12.7230 C   0  0  0  0  0  0  0  0  0  0  0  0
  -25.1126   -1.3169  -14.2674 C   0  0  0  0  0  0  0  0  0  0  0  0
  -30.6992   -6.4679   -7.7180 O   0  0  0  0  0  0  0  0  0  0  0  0
  -30.1472   -7.7420   -7.7384 C   0  0  0  0  0  0  0  0  0  0  0  0
  -28.8005   -7.8655   -7.7106 N   0  0  0  0  0  0  0  0  0  0  0  0
  -28.3213   -9.0808   -7.3817 C   0  0  0  0  0  0  0  0  0  0  0  0
  -29.0493  -10.1666   -7.0724 N   0  0  0  0  0  0  0  0  0  0  0  0
  -30.3706   -9.9835   -7.1888 C   0  0  0  0  0  0  0  0  0  0  0  0
  -30.9743   -8.8094   -7.5732 C   0  0  0  0  0  0  0  0  0  0  0  0
  -32.4445   -8.9686   -7.5340 C   0  0  0  0  0  0  0  0  0  0  0  0
  -32.6574  -10.0478   -6.5361 N   0  0  0  0  0  0  0  0  0  0  0  0
  -31.4438  -10.9130   -6.6778 C   0  0  0  0  0  0  0  0  0  0  0  0
  -32.5796   -9.5974   -5.6185 H   0  0  0  0  0  0  0  0  0  0  0  0
 19 20  1  0  0  0
 20 21  1  0  0  0
 20 22  1  0  0  0
 20 14  1  0  0  0
 14 15  2  0  0  0
 14 18  1  0  0  0
 15 16  1  0  0  0
 16  1  1  0  0  0
 16 17  2  0  0  0
  1  2  1  0  0  0
  1 13  1  0  0  0
  2  3  2  0  0  0
  2  4  1  0  0  0
  4  5  1  0  0  0
  4 12  1  0  0  0
  5  6  2  0  0  0
  6  7  1  0  0  0
  7  8  1  0  0  0
  7 12  2  0  0  0
  8  9  2  0  0  0
  9 10  1  0  0  0
 10 23  1  0  0  0
 10 11  2  0  0  0
 23 24  1  0  0  0
 24 25  1  0  0  0
 24 29  2  0  0  0
 25 26  2  0  0  0
 26 27  1  0  0  0
 27 28  2  0  0  0
 28 29  1  0  0  0
 28 32  1  0  0  0
 29 30  1  0  0  0
 30 31  1  0  0  0
 31 32  1  0  0  0
 31 33  1  0  0  0
 11 12  1  0  0  0
 17 18  1  0  0  0
M  END
> <minimizedAffinity>
-10.22903

$$$$
