CHEMBL4442620


 32 34  0  0  0  0  0  0  0  0999 V2000
  -29.5093   -3.7621   -5.8244 C   0  0  0  0  0  0  0  0  0  0  0  0
  -29.9292   -4.8585   -6.4999 N   0  0  0  0  0  0  0  0  0  0  0  0
  -30.1328   -5.9728   -5.7778 C   0  0  0  0  0  0  0  0  0  0  0  0
  -29.8408   -6.0601   -4.4715 N   0  0  0  0  0  0  0  0  0  0  0  0
  -29.4379   -4.9530   -3.8413 C   0  0  0  0  0  0  0  0  0  0  0  0
  -29.2988   -3.7438   -4.4659 C   0  0  0  0  0  0  0  0  0  0  0  0
  -28.9842   -2.5573   -3.6356 C   0  0  0  0  0  0  0  0  0  0  0  0
  -29.0145   -2.7441   -2.2926 F   0  0  0  0  0  0  0  0  0  0  0  0
  -27.7358   -2.0796   -3.9121 F   0  0  0  0  0  0  0  0  0  0  0  0
  -29.8270   -1.5151   -3.8867 F   0  0  0  0  0  0  0  0  0  0  0  0
  -30.7016   -7.0943   -6.3891 N   0  0  0  0  0  0  0  0  0  0  0  0
  -31.4111   -7.5254   -5.8162 H   0  0  0  0  0  0  0  0  0  0  0  0
  -30.0789   -7.9197   -7.3480 C   0  0  0  0  0  0  0  0  0  0  0  0
  -28.7246   -7.7668   -7.6936 C   0  0  0  0  0  0  0  0  0  0  0  0
  -28.1436   -8.4975   -8.7364 C   0  0  0  0  0  0  0  0  0  0  0  0
  -28.9237   -9.3963   -9.4614 C   0  0  0  0  0  0  0  0  0  0  0  0
  -30.2541   -9.6162   -9.0870 C   0  0  0  0  0  0  0  0  0  0  0  0
  -30.8235   -8.8872   -8.0305 C   0  0  0  0  0  0  0  0  0  0  0  0
  -28.2044  -10.3563  -10.7796 S   0  0  0  0  0  0  0  0  0  0  0  0
  -29.2267  -10.4008  -11.9317 N   0  0  0  0  0  0  0  0  0  0  0  0
  -26.8495   -9.8667  -10.9499 O   0  0  0  0  0  0  0  0  0  0  0  0
  -29.2271   -9.5121  -12.4321 H   0  0  0  0  0  0  0  0  0  0  0  0
  -27.9963  -12.0848  -10.2691 C   0  0  0  0  0  0  0  0  0  0  0  0
  -28.6785  -12.4657   -8.9803 C   0  0  0  0  0  0  0  0  0  0  0  0
  -27.1767  -12.3974   -9.0508 C   0  0  0  0  0  0  0  0  0  0  0  0
  -29.3764   -2.5648   -6.4990 O   0  0  0  0  0  0  0  0  0  0  0  0
  -28.0983   -2.2811   -7.1000 C   0  0  0  0  0  0  0  0  0  0  0  0
  -27.8446   -0.7728   -7.0204 C   0  0  0  0  0  0  0  0  0  0  0  0
  -27.3631   -1.8012   -9.5069 C   0  0  0  0  0  0  0  0  0  0  0  0
  -28.1502   -2.7227   -8.5848 C   0  0  0  0  0  0  0  0  0  0  0  0
  -27.6395   -4.0498   -8.7457 O   0  0  0  0  0  0  0  0  0  0  0  0
  -26.7369   -4.0551   -8.3782 H   0  0  0  0  0  0  0  0  0  0  0  0
 29 30  1  0  0  0
 30 31  1  0  0  0
 30 27  1  0  0  0
 31 32  1  0  0  0
 27 28  1  0  0  0
 27 26  1  0  0  0
 26  1  1  0  0  0
  1  2  1  0  0  0
  1  6  2  0  0  0
  2  3  2  0  0  0
  3 11  1  0  0  0
  3  4  1  0  0  0
 11 13  1  0  0  0
 11 12  1  0  0  0
 13 14  1  0  0  0
 13 18  2  0  0  0
 14 15  2  0  0  0
 15 16  1  0  0  0
 16 19  1  0  0  0
 16 17  2  0  0  0
 19 20  2  0  0  0
 19 21  2  0  0  0
 19 23  1  0  0  0
 20 22  1  0  0  0
 23 24  1  0  0  0
 23 25  1  0  0  0
 24 25  1  0  0  0
 17 18  1  0  0  0
  4  5  2  0  0  0
  5  6  1  0  0  0
  6  7  1  0  0  0
  7  8  1  0  0  0
  7  9  1  0  0  0
  7 10  1  0  0  0
M  END
> <minimizedAffinity>
-8.37271

$$$$
