CHEMBL497055


 38 43  0  0  0  0  0  0  0  0999 V2000
  -24.5353   11.8284  -12.5613 O   0  0  0  0  0  0  0  0  0  0  0  0
  -24.4304   11.9491  -13.7677 C   0  0  0  0  0  0  0  0  0  0  0  0
  -23.2511   12.2489  -14.4191 N   0  0  0  0  0  0  0  0  0  0  0  0
  -23.3561   12.0095  -15.7808 C   0  0  0  0  0  0  0  0  0  0  0  0
  -22.3048   12.0731  -16.6740 C   0  0  0  0  0  0  0  0  0  0  0  0
  -22.5712   11.7389  -18.0041 C   0  0  0  0  0  0  0  0  0  0  0  0
  -23.8885   11.4172  -18.4026 C   0  0  0  0  0  0  0  0  0  0  0  0
  -24.9338   11.3518  -17.4583 C   0  0  0  0  0  0  0  0  0  0  0  0
  -24.6568   11.6250  -16.1294 C   0  0  0  0  0  0  0  0  0  0  0  0
  -25.4308   11.6331  -14.8689 C   0  0  0  0  0  0  0  0  0  0  0  0
  -26.7285   11.3789  -14.5852 C   0  0  0  0  0  0  0  0  0  0  0  0
  -22.4022   12.4456  -13.9140 H   0  0  0  0  0  0  0  0  0  0  0  0
  -27.6202   10.7612  -15.5875 C   0  0  0  0  0  0  0  0  0  0  0  0
  -28.8057   11.4183  -15.9455 C   0  0  0  0  0  0  0  0  0  0  0  0
  -29.6345   10.8829  -16.9331 C   0  0  0  0  0  0  0  0  0  0  0  0
  -29.2874    9.6908  -17.5638 C   0  0  0  0  0  0  0  0  0  0  0  0
  -28.1074    9.0295  -17.2152 C   0  0  0  0  0  0  0  0  0  0  0  0
  -27.2695    9.5674  -16.2313 C   0  0  0  0  0  0  0  0  0  0  0  0
  -21.4909   11.6564  -18.9251 N   0  0  0  0  0  0  0  0  0  0  0  0
  -21.5201   12.0873  -20.2382 C   0  0  0  0  0  0  0  0  0  0  0  0
  -20.2741   11.9157  -20.7976 C   0  0  0  0  0  0  0  0  0  0  0  0
  -19.4565   11.3204  -19.8148 C   0  0  0  0  0  0  0  0  0  0  0  0
  -20.2184   11.1862  -18.6729 C   0  0  0  0  0  0  0  0  0  0  0  0
  -27.3642   11.6174  -13.3772 N   0  0  0  0  0  0  0  0  0  0  0  0
  -26.7921   11.9236  -12.6005 H   0  0  0  0  0  0  0  0  0  0  0  0
  -28.7428   11.4616  -13.1493 C   0  0  0  0  0  0  0  0  0  0  0  0
  -29.3401   10.1917  -13.1326 C   0  0  0  0  0  0  0  0  0  0  0  0
  -30.7236   10.0430  -13.1397 C   0  0  0  0  0  0  0  0  0  0  0  0
  -31.5555   11.1638  -13.1822 C   0  0  0  0  0  0  0  0  0  0  0  0
  -30.9646   12.4376  -13.1263 C   0  0  0  0  0  0  0  0  0  0  0  0
  -29.5711   12.5819  -13.0972 C   0  0  0  0  0  0  0  0  0  0  0  0
  -33.0385   11.0019  -13.4294 C   0  0  0  0  0  0  0  0  0  0  0  0
  -33.5695    9.6345  -13.2329 N   0  0  0  0  0  0  0  0  0  0  0  0
  -33.7547    9.3639  -11.7980 C   0  0  0  0  0  0  0  0  0  0  0  0
  -34.4823    8.0460  -11.5267 C   0  0  0  0  0  0  0  0  0  0  0  0
  -35.8198    8.0056  -12.2499 C   0  0  0  0  0  0  0  0  0  0  0  0
  -35.5900    8.2141  -13.7380 C   0  0  0  0  0  0  0  0  0  0  0  0
  -34.8225    9.5102  -14.0003 C   0  0  0  0  0  0  0  0  0  0  0  0
  1  2  2  0  0  0
  2  3  1  0  0  0
  2 10  1  0  0  0
  3  4  1  0  0  0
  3 12  1  0  0  0
  4  5  1  0  0  0
  4  9  2  0  0  0
  5  6  2  0  0  0
  6 19  1  0  0  0
  6  7  1  0  0  0
 19 20  1  0  0  0
 19 23  1  0  0  0
 20 21  2  0  0  0
 21 22  1  0  0  0
 22 23  2  0  0  0
  7  8  2  0  0  0
  8  9  1  0  0  0
  9 10  1  0  0  0
 10 11  2  0  0  0
 11 24  1  0  0  0
 11 13  1  0  0  0
 24 26  1  0  0  0
 24 25  1  0  0  0
 26 27  1  0  0  0
 26 31  2  0  0  0
 27 28  2  0  0  0
 28 29  1  0  0  0
 29 32  1  0  0  0
 29 30  2  0  0  0
 32 33  1  0  0  0
 33 34  1  0  0  0
 33 38  1  0  0  0
 34 35  1  0  0  0
 35 36  1  0  0  0
 36 37  1  0  0  0
 37 38  1  0  0  0
 30 31  1  0  0  0
 13 14  1  0  0  0
 13 18  2  0  0  0
 14 15  2  0  0  0
 15 16  1  0  0  0
 16 17  2  0  0  0
 17 18  1  0  0  0
M  END
> <minimizedAffinity>
-4.40690

$$$$
