CHEMBL3963728


 27 31  0  0  0  0  0  0  0  0999 V2000
  -29.5245   -7.3177   -7.2938 C   0  0  0  0  0  0  0  0  0  0  0  0
  -29.9305   -7.4049   -5.9870 C   0  0  0  0  0  0  0  0  0  0  0  0
  -30.1351   -6.4084   -5.1572 C   0  0  0  0  0  0  0  0  0  0  0  0
  -29.8688   -5.1654   -5.5257 C   0  0  0  0  0  0  0  0  0  0  0  0
  -30.2250   -4.2855   -4.6152 N   0  0  0  0  0  0  0  0  0  0  0  0
  -29.9644   -3.0181   -4.7322 C   0  0  0  0  0  0  0  0  0  0  0  0
  -29.2013   -2.5283   -5.7951 C   0  0  0  0  0  0  0  0  0  0  0  0
  -28.9069   -3.4369   -6.8512 N   0  0  0  0  0  0  0  0  0  0  0  0
  -29.2669   -4.8143   -6.7419 C   0  0  0  0  0  0  0  0  0  0  0  0
  -29.0972   -5.9425   -7.7121 C   0  0  0  0  0  0  0  0  0  0  0  0
  -28.7897   -1.0776   -5.5000 C   0  0  0  0  0  0  0  0  0  0  0  0
  -29.7360   -0.0144   -5.4544 C   0  0  0  0  0  0  0  0  0  0  0  0
  -29.1534    1.1438   -5.1632 N   0  0  0  0  0  0  0  0  0  0  0  0
  -27.8724    0.9069   -5.0052 N   0  0  0  0  0  0  0  0  0  0  0  0
  -27.6074   -0.4086   -5.1858 C   0  0  0  0  0  0  0  0  0  0  0  0
  -27.1998    1.6636   -4.7700 H   0  0  0  0  0  0  0  0  0  0  0  0
  -29.6264   -8.6503   -7.9530 N   0  0  0  0  0  0  0  0  0  0  0  0
  -27.4281  -10.0935  -11.3654 C   0  0  0  0  0  0  0  0  0  0  0  0
  -26.7978   -9.2868  -10.4177 C   0  0  0  0  0  0  0  0  0  0  0  0
  -27.5017   -8.7998   -9.3017 C   0  0  0  0  0  0  0  0  0  0  0  0
  -28.8646   -9.0934   -9.1175 C   0  0  0  0  0  0  0  0  0  0  0  0
  -29.4881   -9.9018  -10.1261 C   0  0  0  0  0  0  0  0  0  0  0  0
  -28.7747  -10.3986  -11.2214 C   0  0  0  0  0  0  0  0  0  0  0  0
  -30.4606   -9.7153   -7.2524 C   0  0  0  0  0  0  0  0  0  0  0  0
  -31.9527   -9.8980   -7.7695 C   0  0  0  0  0  0  0  0  0  0  0  0
  -33.0373   -8.9122   -7.2803 C   0  0  0  0  0  0  0  0  0  0  0  0
  -33.0056  -10.3014   -6.7071 C   0  0  0  0  0  0  0  0  0  0  0  0
 18 19  1  0  0  0
 18 23  2  0  0  0
 19 20  2  0  0  0
 20 21  1  0  0  0
 21 17  1  0  0  0
 21 22  2  0  0  0
 17 24  1  0  0  0
 17  1  1  0  0  0
 24 25  1  0  0  0
 25 26  1  0  0  0
 25 27  1  0  0  0
 26 27  1  0  0  0
  1  2  1  0  0  0
  1 10  2  0  0  0
  2  3  2  0  0  0
  3  4  1  0  0  0
  4  5  1  0  0  0
  4  9  2  0  0  0
  5  6  2  0  0  0
  6  7  1  0  0  0
  7 11  1  0  0  0
  7  8  2  0  0  0
 11 12  1  0  0  0
 11 15  2  0  0  0
 12 13  2  0  0  0
 13 14  1  0  0  0
 14 15  1  0  0  0
 14 16  1  0  0  0
  8  9  1  0  0  0
  9 10  1  0  0  0
 22 23  1  0  0  0
M  END
> <minimizedAffinity>
-8.29047

$$$$
