CHEMBL3916843


 35 38  0  0  0  0  0  0  0  0999 V2000
  -20.0268    2.0721  -15.2337 C   0  0  0  0  0  0  0  0  0  0  0  0
  -20.9516    2.9242  -14.6205 C   0  0  0  0  0  0  0  0  0  0  0  0
  -21.9981    2.3937  -13.8575 C   0  0  0  0  0  0  0  0  0  0  0  0
  -22.1206    1.0113  -13.6918 C   0  0  0  0  0  0  0  0  0  0  0  0
  -21.2512    0.1572  -14.3767 C   0  0  0  0  0  0  0  0  0  0  0  0
  -20.2095    0.6934  -15.1288 C   0  0  0  0  0  0  0  0  0  0  0  0
  -19.3195   -0.1370  -15.6958 F   0  0  0  0  0  0  0  0  0  0  0  0
  -16.6500    3.0403  -16.1505 N   0  0  0  0  0  0  0  0  0  0  0  0
  -17.6315    2.4892  -15.3453 C   0  0  0  0  0  0  0  0  0  0  0  0
  -17.4523    1.9306  -14.2717 O   0  0  0  0  0  0  0  0  0  0  0  0
  -18.8914    2.5651  -15.9317 N   0  0  0  0  0  0  0  0  0  0  0  0
  -16.9400    3.3506  -17.0652 H   0  0  0  0  0  0  0  0  0  0  0  0
  -18.8988    2.3758  -16.9251 H   0  0  0  0  0  0  0  0  0  0  0  0
  -12.6198    5.7890  -15.3327 C   0  0  0  0  0  0  0  0  0  0  0  0
  -13.2597    4.4415  -15.5026 C   0  0  0  0  0  0  0  0  0  0  0  0
  -12.4704    3.2890  -15.4625 C   0  0  0  0  0  0  0  0  0  0  0  0
  -13.0612    2.0377  -15.5818 C   0  0  0  0  0  0  0  0  0  0  0  0
  -14.4385    1.9270  -15.7624 C   0  0  0  0  0  0  0  0  0  0  0  0
  -14.9329    0.6855  -15.7408 F   0  0  0  0  0  0  0  0  0  0  0  0
  -15.2548    3.0632  -15.8750 C   0  0  0  0  0  0  0  0  0  0  0  0
  -14.6496    4.3221  -15.7070 C   0  0  0  0  0  0  0  0  0  0  0  0
  -23.1434    0.5844  -12.8707 O   0  0  0  0  0  0  0  0  0  0  0  0
  -24.1633   -0.1854  -13.3966 C   0  0  0  0  0  0  0  0  0  0  0  0
  -24.2763   -0.4888  -14.7553 C   0  0  0  0  0  0  0  0  0  0  0  0
  -25.3703   -1.2072  -15.1946 C   0  0  0  0  0  0  0  0  0  0  0  0
  -26.3323   -1.7097  -14.4042 N   0  0  0  0  0  0  0  0  0  0  0  0
  -26.1660   -1.5106  -13.0707 C   0  0  0  0  0  0  0  0  0  0  0  0
  -27.0331   -2.0219  -12.0654 C   0  0  0  0  0  0  0  0  0  0  0  0
  -26.6266   -1.7014  -10.7869 C   0  0  0  0  0  0  0  0  0  0  0  0
  -25.2114   -0.7393  -10.8150 S   0  0  0  0  0  0  0  0  0  0  0  0
  -25.1111   -0.7715  -12.5357 C   0  0  0  0  0  0  0  0  0  0  0  0
  -27.2789   -2.1121   -9.5525 C   0  0  0  0  0  0  0  0  0  0  0  0
  -27.9041   -1.3721   -8.8079 O   0  0  0  0  0  0  0  0  0  0  0  0
  -27.1343   -3.4351   -9.2875 O   0  0  0  0  0  0  0  0  0  0  0  0
  -26.6238   -3.8969   -9.9790 H   0  0  0  0  0  0  0  0  0  0  0  0
 14 15  1  0  0  0
 15 16  1  0  0  0
 15 21  2  0  0  0
 16 17  2  0  0  0
 17 18  1  0  0  0
 18 19  1  0  0  0
 18 20  2  0  0  0
 20  8  1  0  0  0
 20 21  1  0  0  0
  8  9  1  0  0  0
  8 12  1  0  0  0
  9 10  2  0  0  0
  9 11  1  0  0  0
 11  1  1  0  0  0
 11 13  1  0  0  0
  1  2  1  0  0  0
  1  6  2  0  0  0
  2  3  2  0  0  0
  3  4  1  0  0  0
  4 22  1  0  0  0
  4  5  2  0  0  0
 22 23  1  0  0  0
 23 24  1  0  0  0
 23 31  2  0  0  0
 24 25  2  0  0  0
 25 26  1  0  0  0
 26 27  2  0  0  0
 27 28  1  0  0  0
 27 31  1  0  0  0
 28 29  2  0  0  0
 29 32  1  0  0  0
 29 30  1  0  0  0
 32 33  2  0  0  0
 32 34  1  0  0  0
 34 35  1  0  0  0
 30 31  1  0  0  0
  5  6  1  0  0  0
  6  7  1  0  0  0
M  END
> <minimizedAffinity>
-9.26925

$$$$
