CHEMBL1076478


 50 55  0  0  0  0  0  0  0  0999 V2000
  -29.8107   -7.9631   -7.4147 C   0  0  0  0  0  0  0  0  0  0  0  0
  -31.0676   -7.8351   -7.8117 N   0  0  0  0  0  0  0  0  0  0  0  0
  -31.6126   -9.0182   -7.3904 C   0  0  0  0  0  0  0  0  0  0  0  0
  -32.9379   -9.3356   -7.0792 C   0  0  0  0  0  0  0  0  0  0  0  0
  -33.2040  -10.5995   -6.5297 C   0  0  0  0  0  0  0  0  0  0  0  0
  -32.1838  -11.5497   -6.3793 C   0  0  0  0  0  0  0  0  0  0  0  0
  -30.8645  -11.2705   -6.7467 C   0  0  0  0  0  0  0  0  0  0  0  0
  -30.6151   -9.9731   -7.2163 C   0  0  0  0  0  0  0  0  0  0  0  0
  -29.4731   -9.3071   -7.6496 N   0  0  0  0  0  0  0  0  0  0  0  0
  -28.3998   -9.9192   -8.3717 C   0  0  0  0  0  0  0  0  0  0  0  0
  -27.6262  -10.9436   -7.8559 C   0  0  0  0  0  0  0  0  0  0  0  0
  -26.4959  -11.2998   -8.5926 C   0  0  0  0  0  0  0  0  0  0  0  0
  -26.1946  -10.7104   -9.7615 N   0  0  0  0  0  0  0  0  0  0  0  0
  -27.0064   -9.7501  -10.1896 C   0  0  0  0  0  0  0  0  0  0  0  0
  -28.1025   -9.3361   -9.5589 N   0  0  0  0  0  0  0  0  0  0  0  0
  -25.6638  -12.3410   -8.1565 N   0  0  0  0  0  0  0  0  0  0  0  0
  -25.8482  -12.6112   -7.1972 H   0  0  0  0  0  0  0  0  0  0  0  0
  -24.2195  -12.1212   -8.3645 C   0  0  0  0  0  0  0  0  0  0  0  0
  -23.5473  -11.3658   -7.2033 C   0  0  0  0  0  0  0  0  0  0  0  0
  -23.6284  -12.0701   -5.8382 C   0  0  0  0  0  0  0  0  0  0  0  0
  -24.3173  -11.3033   -4.7967 N   0  0  0  0  0  0  0  0  0  0  0  0
  -24.8043   -9.9938   -5.2696 C   0  0  0  0  0  0  0  0  0  0  0  0
  -25.4475   -9.2082   -4.1068 C   0  0  0  0  0  0  0  0  0  0  0  0
  -26.5968   -9.8844   -3.4777 N   0  0  0  0  0  0  0  0  0  0  0  0
  -27.7829   -9.8300   -4.3311 C   0  0  0  0  0  0  0  0  0  0  0  0
  -26.2218  -11.2736   -3.1406 C   0  0  0  0  0  0  0  0  0  0  0  0
  -25.4640  -12.0589   -4.2449 C   0  0  0  0  0  0  0  0  0  0  0  0
  -29.2717   -7.2340   -6.3688 N   0  0  0  0  0  0  0  0  0  0  0  0
  -29.6838   -7.4674   -5.4672 H   0  0  0  0  0  0  0  0  0  0  0  0
  -30.3554   -5.4126   -4.2170 C   0  0  0  0  0  0  0  0  0  0  0  0
  -29.7593   -4.9334   -5.5146 C   0  0  0  0  0  0  0  0  0  0  0  0
  -29.7913   -3.5445   -5.7569 C   0  0  0  0  0  0  0  0  0  0  0  0
  -29.2494   -2.9976   -6.9224 C   0  0  0  0  0  0  0  0  0  0  0  0
  -28.6591   -3.8167   -7.8795 C   0  0  0  0  0  0  0  0  0  0  0  0
  -28.6423   -5.2020   -7.6466 C   0  0  0  0  0  0  0  0  0  0  0  0
  -29.2053   -5.7905   -6.4876 C   0  0  0  0  0  0  0  0  0  0  0  0
  -28.0808   -3.3184   -9.0784 N   0  0  0  0  0  0  0  0  0  0  0  0
  -27.3752   -2.1289   -9.2278 C   0  0  0  0  0  0  0  0  0  0  0  0
  -27.1609   -1.2935   -8.3584 O   0  0  0  0  0  0  0  0  0  0  0  0
  -28.2668   -3.8664   -9.9071 H   0  0  0  0  0  0  0  0  0  0  0  0
  -26.8511   -1.8260  -10.5951 C   0  0  0  0  0  0  0  0  0  0  0  0
  -27.6656   -1.8029  -11.7317 C   0  0  0  0  0  0  0  0  0  0  0  0
  -27.1001   -1.5752  -12.9915 C   0  0  0  0  0  0  0  0  0  0  0  0
  -25.7248   -1.3659  -13.1243 C   0  0  0  0  0  0  0  0  0  0  0  0
  -24.8905   -1.3836  -11.9984 C   0  0  0  0  0  0  0  0  0  0  0  0
  -25.4656   -1.6275  -10.7390 C   0  0  0  0  0  0  0  0  0  0  0  0
  -23.4041   -1.1430  -12.1202 C   0  0  0  0  0  0  0  0  0  0  0  0
  -23.0395    0.1428  -11.8508 F   0  0  0  0  0  0  0  0  0  0  0  0
  -22.6818   -1.9177  -11.2640 F   0  0  0  0  0  0  0  0  0  0  0  0
  -22.9253   -1.4109  -13.3656 F   0  0  0  0  0  0  0  0  0  0  0  0
 30 31  1  0  0  0
 31 32  1  0  0  0
 31 36  2  0  0  0
 32 33  2  0  0  0
 33 34  1  0  0  0
 34 37  1  0  0  0
 34 35  2  0  0  0
 37 38  1  0  0  0
 37 40  1  0  0  0
 38 39  2  0  0  0
 38 41  1  0  0  0
 41 42  1  0  0  0
 41 46  2  0  0  0
 42 43  2  0  0  0
 43 44  1  0  0  0
 44 45  2  0  0  0
 45 47  1  0  0  0
 45 46  1  0  0  0
 47 48  1  0  0  0
 47 49  1  0  0  0
 47 50  1  0  0  0
 35 36  1  0  0  0
 36 28  1  0  0  0
 28  1  1  0  0  0
 28 29  1  0  0  0
  1  2  2  0  0  0
  1  9  1  0  0  0
  2  3  1  0  0  0
  3  4  1  0  0  0
  3  8  2  0  0  0
  4  5  2  0  0  0
  5  6  1  0  0  0
  6  7  2  0  0  0
  7  8  1  0  0  0
  8  9  1  0  0  0
  9 10  1  0  0  0
 10 11  1  0  0  0
 10 15  2  0  0  0
 11 12  2  0  0  0
 12 16  1  0  0  0
 12 13  1  0  0  0
 16 18  1  0  0  0
 16 17  1  0  0  0
 18 19  1  0  0  0
 19 20  1  0  0  0
 20 21  1  0  0  0
 21 22  1  0  0  0
 21 27  1  0  0  0
 22 23  1  0  0  0
 23 24  1  0  0  0
 24 25  1  0  0  0
 24 26  1  0  0  0
 26 27  1  0  0  0
 13 14  2  0  0  0
 14 15  1  0  0  0
M  END
> <minimizedAffinity>
-10.84865

$$$$
