CHEMBL26641


 32 35  0  0  0  0  0  0  0  0999 V2000
  -29.1688   -5.3554   -7.3003 C   0  0  0  0  0  0  0  0  0  0  0  0
  -28.4813   -4.4657   -8.1331 C   0  0  0  0  0  0  0  0  0  0  0  0
  -28.2930   -3.1174   -7.7684 C   0  0  0  0  0  0  0  0  0  0  0  0
  -27.8809   -2.0910   -8.6363 C   0  0  0  0  0  0  0  0  0  0  0  0
  -27.7211   -0.8284   -8.2060 N   0  0  0  0  0  0  0  0  0  0  0  0
  -27.9960   -0.5816   -6.9235 C   0  0  0  0  0  0  0  0  0  0  0  0
  -28.4237   -1.4741   -6.0271 N   0  0  0  0  0  0  0  0  0  0  0  0
  -28.5935   -2.7208   -6.4672 C   0  0  0  0  0  0  0  0  0  0  0  0
  -29.1434   -3.6485   -5.5956 C   0  0  0  0  0  0  0  0  0  0  0  0
  -29.5057   -4.9495   -6.0028 C   0  0  0  0  0  0  0  0  0  0  0  0
  -28.5014   -7.3852   -8.3640 C   0  0  0  0  0  0  0  0  0  0  0  0
  -29.5217   -6.6088   -7.7249 O   0  0  0  0  0  0  0  0  0  0  0  0
  -27.7714   -2.3692  -10.0260 N   0  0  0  0  0  0  0  0  0  0  0  0
  -28.0596   -3.3174  -10.2473 H   0  0  0  0  0  0  0  0  0  0  0  0
  -26.8013   -1.9038  -10.9409 C   0  0  0  0  0  0  0  0  0  0  0  0
  -25.5286   -1.4730  -10.5510 C   0  0  0  0  0  0  0  0  0  0  0  0
  -24.5838   -1.0702  -11.4983 C   0  0  0  0  0  0  0  0  0  0  0  0
  -24.9255   -1.0423  -12.8476 C   0  0  0  0  0  0  0  0  0  0  0  0
  -23.6224   -0.5678  -14.1297 Br  0  0  0  0  0  0  0  0  0  0  0  0
  -26.2152   -1.3659  -13.2536 C   0  0  0  0  0  0  0  0  0  0  0  0
  -27.1386   -1.7802  -12.2979 C   0  0  0  0  0  0  0  0  0  0  0  0
  -28.3833   -2.0942  -12.6942 F   0  0  0  0  0  0  0  0  0  0  0  0
  -30.2166   -5.8117   -5.1773 O   0  0  0  0  0  0  0  0  0  0  0  0
  -29.5688   -6.0594   -3.9169 C   0  0  0  0  0  0  0  0  0  0  0  0
  -29.2966   -7.5375   -3.6206 C   0  0  0  0  0  0  0  0  0  0  0  0
  -28.4601   -8.2085   -4.7505 C   0  0  0  0  0  0  0  0  0  0  0  0
  -29.1884   -9.4201   -5.3603 C   0  0  0  0  0  0  0  0  0  0  0  0
  -29.0556  -10.6821   -4.5056 C   0  0  0  0  0  0  0  0  0  0  0  0
  -27.6523  -11.0246   -4.2725 N   0  0  0  0  0  0  0  0  0  0  0  0
  -26.9695   -9.9411   -3.5666 C   0  0  0  0  0  0  0  0  0  0  0  0
  -27.0274   -8.6345   -4.3562 C   0  0  0  0  0  0  0  0  0  0  0  0
  -27.1960  -11.1830   -5.1700 H   0  0  0  0  0  0  0  0  0  0  0  0
 11 12  1  0  0  0
 12  1  1  0  0  0
  1  2  1  0  0  0
  1 10  2  0  0  0
  2  3  2  0  0  0
  3  4  1  0  0  0
  3  8  1  0  0  0
  4 13  1  0  0  0
  4  5  2  0  0  0
 13 15  1  0  0  0
 13 14  1  0  0  0
 15 16  1  0  0  0
 15 21  2  0  0  0
 16 17  2  0  0  0
 17 18  1  0  0  0
 18 19  1  0  0  0
 18 20  2  0  0  0
 20 21  1  0  0  0
 21 22  1  0  0  0
  5  6  1  0  0  0
  6  7  2  0  0  0
  7  8  1  0  0  0
  8  9  2  0  0  0
  9 10  1  0  0  0
 10 23  1  0  0  0
 23 24  1  0  0  0
 24 25  1  0  0  0
 25 26  1  0  0  0
 26 27  1  0  0  0
 26 31  1  0  0  0
 27 28  1  0  0  0
 28 29  1  0  0  0
 29 30  1  0  0  0
 29 32  1  0  0  0
 30 31  1  0  0  0
M  END
> <minimizedAffinity>
-8.47848

$$$$
