CHEMBL4580644


 39 43  0  0  0  0  0  0  0  0999 V2000
  -30.2490   -8.1281   -5.2710 N   0  0  0  0  0  0  0  0  0  0  0  0
  -31.0890   -8.6943   -5.2323 H   0  0  0  0  0  0  0  0  0  0  0  0
  -29.0603   -8.8402   -5.0701 C   0  0  0  0  0  0  0  0  0  0  0  0
  -28.6165   -8.8759   -3.7783 N   0  0  0  0  0  0  0  0  0  0  0  0
  -27.4583   -9.4950   -3.4919 C   0  0  0  0  0  0  0  0  0  0  0  0
  -26.6528  -10.0508   -4.4518 C   0  0  0  0  0  0  0  0  0  0  0  0
  -27.0573   -9.9546   -5.7784 C   0  0  0  0  0  0  0  0  0  0  0  0
  -26.2030  -10.4356   -6.7706 N   0  0  0  0  0  0  0  0  0  0  0  0
  -26.4874  -10.2131   -8.0809 C   0  0  0  0  0  0  0  0  0  0  0  0
  -27.6596   -9.8047   -8.5987 C   0  0  0  0  0  0  0  0  0  0  0  0
  -28.7232   -9.4358   -7.5654 C   0  0  0  0  0  0  0  0  0  0  0  0
  -29.8860   -9.1859   -7.8838 O   0  0  0  0  0  0  0  0  0  0  0  0
  -28.3120   -9.4107   -6.1121 C   0  0  0  0  0  0  0  0  0  0  0  0
  -25.2322  -10.6097   -6.5277 H   0  0  0  0  0  0  0  0  0  0  0  0
  -27.7865   -9.7262  -10.0931 C   0  0  0  0  0  0  0  0  0  0  0  0
  -28.9071  -10.3052  -10.7502 C   0  0  0  0  0  0  0  0  0  0  0  0
  -29.0138  -10.3713  -12.1419 C   0  0  0  0  0  0  0  0  0  0  0  0
  -28.0196   -9.8077  -12.9165 C   0  0  0  0  0  0  0  0  0  0  0  0
  -28.1055   -9.8788  -14.2512 F   0  0  0  0  0  0  0  0  0  0  0  0
  -26.9400   -9.1681  -12.3191 C   0  0  0  0  0  0  0  0  0  0  0  0
  -26.8219   -9.1285  -10.9170 C   0  0  0  0  0  0  0  0  0  0  0  0
  -30.5622   -3.9049   -5.5434 C   0  0  0  0  0  0  0  0  0  0  0  0
  -30.1289   -4.6564   -6.6389 C   0  0  0  0  0  0  0  0  0  0  0  0
  -30.0518   -6.0585   -6.5575 C   0  0  0  0  0  0  0  0  0  0  0  0
  -30.4007   -6.7337   -5.3806 C   0  0  0  0  0  0  0  0  0  0  0  0
  -30.9154   -5.9746   -4.3220 C   0  0  0  0  0  0  0  0  0  0  0  0
  -30.9461   -4.5825   -4.3852 C   0  0  0  0  0  0  0  0  0  0  0  0
  -31.3387   -3.9192   -3.2873 F   0  0  0  0  0  0  0  0  0  0  0  0
  -30.5137   -2.5306   -5.6845 O   0  0  0  0  0  0  0  0  0  0  0  0
  -27.9106    1.5526   -5.2603 N   0  0  0  0  0  0  0  0  0  0  0  0
  -28.0637    0.1659   -5.2282 C   0  0  0  0  0  0  0  0  0  0  0  0
  -26.9148   -0.5134   -5.0310 N   0  0  0  0  0  0  0  0  0  0  0  0
  -26.9842   -1.8605   -5.0107 C   0  0  0  0  0  0  0  0  0  0  0  0
  -28.1563   -2.5727   -5.1829 C   0  0  0  0  0  0  0  0  0  0  0  0
  -29.3238   -1.8700   -5.4541 C   0  0  0  0  0  0  0  0  0  0  0  0
  -29.2945   -0.4720   -5.4408 C   0  0  0  0  0  0  0  0  0  0  0  0
  -30.7448    0.4528   -5.6401 Cl  0  0  0  0  0  0  0  0  0  0  0  0
  -26.9529    1.7644   -5.0050 H   0  0  0  0  0  0  0  0  0  0  0  0
  -28.5984    2.0273   -4.6907 H   0  0  0  0  0  0  0  0  0  0  0  0
 30 31  1  0  0  0
 30 38  1  0  0  0
 30 39  1  0  0  0
 31 32  1  0  0  0
 31 36  2  0  0  0
 32 33  2  0  0  0
 33 34  1  0  0  0
 34 35  2  0  0  0
 35 29  1  0  0  0
 35 36  1  0  0  0
 29 22  1  0  0  0
 22 23  1  0  0  0
 22 27  2  0  0  0
 23 24  2  0  0  0
 24 25  1  0  0  0
 25  1  1  0  0  0
 25 26  2  0  0  0
  1  3  1  0  0  0
  1  2  1  0  0  0
  3  4  1  0  0  0
  3 13  2  0  0  0
  4  5  2  0  0  0
  5  6  1  0  0  0
  6  7  2  0  0  0
  7  8  1  0  0  0
  7 13  1  0  0  0
  8  9  1  0  0  0
  8 14  1  0  0  0
  9 10  2  0  0  0
 10 15  1  0  0  0
 10 11  1  0  0  0
 15 16  1  0  0  0
 15 21  2  0  0  0
 16 17  2  0  0  0
 17 18  1  0  0  0
 18 19  1  0  0  0
 18 20  2  0  0  0
 20 21  1  0  0  0
 11 12  2  0  0  0
 11 13  1  0  0  0
 26 27  1  0  0  0
 27 28  1  0  0  0
 36 37  1  0  0  0
M  END
> <minimizedAffinity>
-9.95594

$$$$
