CHEMBL1380839


 20 21  0  0  0  0  0  0  0  0999 V2000
  -16.6180   -0.3584  -14.7041 N   0  0  0  0  0  0  0  0  0  0  0  0
  -17.2205   -0.5935  -13.9101 H   0  0  0  0  0  0  0  0  0  0  0  0
  -16.8117    1.0104  -15.0463 C   0  0  0  0  0  0  0  0  0  0  0  0
  -15.7286    1.7637  -15.3659 N   0  0  0  0  0  0  0  0  0  0  0  0
  -15.8639    3.0763  -15.7101 N   0  0  0  0  0  0  0  0  0  0  0  0
  -17.0942    3.6205  -15.7486 C   0  0  0  0  0  0  0  0  0  0  0  0
  -18.2505    2.9063  -15.4666 C   0  0  0  0  0  0  0  0  0  0  0  0
  -19.5212    3.5084  -15.5366 C   0  0  0  0  0  0  0  0  0  0  0  0
  -20.6724    2.7725  -15.2627 C   0  0  0  0  0  0  0  0  0  0  0  0
  -20.5680    1.4308  -14.9209 C   0  0  0  0  0  0  0  0  0  0  0  0
  -19.3104    0.8230  -14.8481 C   0  0  0  0  0  0  0  0  0  0  0  0
  -18.1210    1.5494  -15.1099 C   0  0  0  0  0  0  0  0  0  0  0  0
  -15.3414   -0.8378  -14.4942 N   0  0  0  0  0  0  0  0  0  0  0  0
  -14.6708   -0.7597  -15.2579 H   0  0  0  0  0  0  0  0  0  0  0  0
  -15.8429   -1.8375  -12.4555 N   0  0  0  0  0  0  0  0  0  0  0  0
  -15.0167   -1.6406  -13.4271 C   0  0  0  0  0  0  0  0  0  0  0  0
  -13.4025   -2.3132  -13.5656 S   0  0  0  0  0  0  0  0  0  0  0  0
  -13.3633   -2.9823  -12.4108 H   0  0  0  0  0  0  0  0  0  0  0  0
  -16.3362   -3.9754  -11.4538 C   0  0  0  0  0  0  0  0  0  0  0  0
  -15.5232   -2.6975  -11.3268 C   0  0  0  0  0  0  0  0  0  0  0  0
 19 20  1  0  0  0
 20 15  1  0  0  0
 15 16  2  0  0  0
 16 17  1  0  0  0
 16 13  1  0  0  0
 17 18  1  0  0  0
 13  1  1  0  0  0
 13 14  1  0  0  0
  1  3  1  0  0  0
  1  2  1  0  0  0
  3  4  1  0  0  0
  3 12  2  0  0  0
  4  5  2  0  0  0
  5  6  1  0  0  0
  6  7  2  0  0  0
  7  8  1  0  0  0
  7 12  1  0  0  0
  8  9  2  0  0  0
  9 10  1  0  0  0
 10 11  2  0  0  0
 11 12  1  0  0  0
M  END
> <minimizedAffinity>
-6.65588

$$$$
