CHEMBL3927549


 35 39  0  0  0  0  0  0  0  0999 V2000
  -28.7889   -9.2464   -5.8782 C   0  0  0  0  0  0  0  0  0  0  0  0
  -27.9436  -10.2199   -6.4145 C   0  0  0  0  0  0  0  0  0  0  0  0
  -27.5638  -10.1805   -7.7760 C   0  0  0  0  0  0  0  0  0  0  0  0
  -26.6916  -11.0828   -8.4008 C   0  0  0  0  0  0  0  0  0  0  0  0
  -26.3192  -10.9444   -9.6895 N   0  0  0  0  0  0  0  0  0  0  0  0
  -26.8277   -9.9143  -10.3603 C   0  0  0  0  0  0  0  0  0  0  0  0
  -27.6783   -9.0114   -9.8763 N   0  0  0  0  0  0  0  0  0  0  0  0
  -28.0277   -9.1572   -8.5994 C   0  0  0  0  0  0  0  0  0  0  0  0
  -28.9165   -8.2396   -8.0687 C   0  0  0  0  0  0  0  0  0  0  0  0
  -29.3578   -8.3014   -6.7412 C   0  0  0  0  0  0  0  0  0  0  0  0
  -28.0447   -9.5027   -3.6398 C   0  0  0  0  0  0  0  0  0  0  0  0
  -29.1055   -9.1902   -4.5470 O   0  0  0  0  0  0  0  0  0  0  0  0
  -26.1735  -12.1771   -7.6564 N   0  0  0  0  0  0  0  0  0  0  0  0
  -26.1635  -13.0054   -8.2436 H   0  0  0  0  0  0  0  0  0  0  0  0
  -25.0481  -12.0697   -6.8159 C   0  0  0  0  0  0  0  0  0  0  0  0
  -25.1303  -12.4659   -5.4737 C   0  0  0  0  0  0  0  0  0  0  0  0
  -24.0579  -12.2791   -4.6044 C   0  0  0  0  0  0  0  0  0  0  0  0
  -22.8799  -11.6994   -5.0725 C   0  0  0  0  0  0  0  0  0  0  0  0
  -21.6063  -11.4433   -3.9355 Cl  0  0  0  0  0  0  0  0  0  0  0  0
  -22.7718  -11.3365   -6.4202 C   0  0  0  0  0  0  0  0  0  0  0  0
  -21.3408  -10.6176   -7.0714 Cl  0  0  0  0  0  0  0  0  0  0  0  0
  -23.8500  -11.5312   -7.2912 C   0  0  0  0  0  0  0  0  0  0  0  0
  -30.3408   -7.4659   -6.2491 O   0  0  0  0  0  0  0  0  0  0  0  0
  -30.1479   -6.0945   -6.6294 C   0  0  0  0  0  0  0  0  0  0  0  0
  -29.5428   -5.2244   -5.5847 C   0  0  0  0  0  0  0  0  0  0  0  0
  -29.0610   -5.5662   -4.3392 C   0  0  0  0  0  0  0  0  0  0  0  0
  -28.3900   -4.1859   -3.5730 S   0  0  0  0  0  0  0  0  0  0  0  0
  -28.7124   -3.2562   -4.9854 C   0  0  0  0  0  0  0  0  0  0  0  0
  -29.4000   -3.8850   -5.9141 N   0  0  0  0  0  0  0  0  0  0  0  0
  -28.0660   -1.9187   -5.2555 C   0  0  0  0  0  0  0  0  0  0  0  0
  -29.1245   -0.8361   -4.9837 C   0  0  0  0  0  0  0  0  0  0  0  0
  -28.5925    0.5376   -6.0038 S   0  0  0  0  0  0  0  0  0  0  0  0
  -27.9793   -0.5878   -7.2559 C   0  0  0  0  0  0  0  0  0  0  0  0
  -27.4461   -1.7759   -6.5982 N   0  0  0  0  0  0  0  0  0  0  0  0
  -26.4481   -1.6275   -6.4512 H   0  0  0  0  0  0  0  0  0  0  0  0
 11 12  1  0  0  0
 12  1  1  0  0  0
  1  2  1  0  0  0
  1 10  2  0  0  0
  2  3  2  0  0  0
  3  4  1  0  0  0
  3  8  1  0  0  0
  4 13  1  0  0  0
  4  5  2  0  0  0
 13 15  1  0  0  0
 13 14  1  0  0  0
 15 16  1  0  0  0
 15 22  2  0  0  0
 16 17  2  0  0  0
 17 18  1  0  0  0
 18 19  1  0  0  0
 18 20  2  0  0  0
 20 21  1  0  0  0
 20 22  1  0  0  0
  5  6  1  0  0  0
  6  7  2  0  0  0
  7  8  1  0  0  0
  8  9  2  0  0  0
  9 10  1  0  0  0
 10 23  1  0  0  0
 23 24  1  0  0  0
 24 25  1  0  0  0
 25 26  2  0  0  0
 25 29  1  0  0  0
 26 27  1  0  0  0
 27 28  1  0  0  0
 28 29  2  0  0  0
 30 31  1  0  0  0
 30 34  1  0  0  0
 30 28  1  0  0  0
 31 32  1  0  0  0
 32 33  1  0  0  0
 33 34  1  0  0  0
 34 35  1  0  0  0
M  END
> <minimizedAffinity>
-7.70444

$$$$
