CHEMBL3898428


 34 38  0  0  0  0  0  0  0  0999 V2000
  -16.3734    2.6958  -16.2571 C   0  0  0  0  0  0  0  0  0  0  0  0
  -16.6724    1.3744  -15.8646 C   0  0  0  0  0  0  0  0  0  0  0  0
  -17.8943    1.0201  -15.2726 C   0  0  0  0  0  0  0  0  0  0  0  0
  -18.8470    2.0259  -15.0414 C   0  0  0  0  0  0  0  0  0  0  0  0
  -20.1574    2.1057  -14.4831 C   0  0  0  0  0  0  0  0  0  0  0  0
  -20.6185    3.3663  -14.5051 N   0  0  0  0  0  0  0  0  0  0  0  0
  -19.6259    4.0713  -15.0595 N   0  0  0  0  0  0  0  0  0  0  0  0
  -18.5358    3.3282  -15.4096 C   0  0  0  0  0  0  0  0  0  0  0  0
  -17.3293    3.6962  -16.0139 C   0  0  0  0  0  0  0  0  0  0  0  0
  -19.7524    5.0707  -15.1686 H   0  0  0  0  0  0  0  0  0  0  0  0
  -11.5768    3.9792  -18.9908 O   0  0  0  0  0  0  0  0  0  0  0  0
  -12.7253    3.6688  -18.3167 C   0  0  0  0  0  0  0  0  0  0  0  0
  -12.7258    2.6420  -17.3742 C   0  0  0  0  0  0  0  0  0  0  0  0
  -13.9122    2.3042  -16.7112 C   0  0  0  0  0  0  0  0  0  0  0  0
  -15.1024    3.0142  -16.9450 C   0  0  0  0  0  0  0  0  0  0  0  0
  -15.0525    4.0697  -17.8659 C   0  0  0  0  0  0  0  0  0  0  0  0
  -13.8982    4.3713  -18.5938 C   0  0  0  0  0  0  0  0  0  0  0  0
  -10.8499    3.4377  -18.6449 H   0  0  0  0  0  0  0  0  0  0  0  0
  -13.8654    5.3362  -19.5701 O   0  0  0  0  0  0  0  0  0  0  0  0
  -13.8499    6.6799  -19.0724 C   0  0  0  0  0  0  0  0  0  0  0  0
  -14.9217    7.5311  -19.7051 C   0  0  0  0  0  0  0  0  0  0  0  0
  -15.1652    8.8376  -19.2653 C   0  0  0  0  0  0  0  0  0  0  0  0
  -16.1070    9.6352  -19.9133 C   0  0  0  0  0  0  0  0  0  0  0  0
  -16.8040    9.1400  -21.0143 C   0  0  0  0  0  0  0  0  0  0  0  0
  -16.5590    7.8462  -21.4711 C   0  0  0  0  0  0  0  0  0  0  0  0
  -15.6190    7.0455  -20.8228 C   0  0  0  0  0  0  0  0  0  0  0  0
  -20.8974    1.0001  -13.9424 C   0  0  0  0  0  0  0  0  0  0  0  0
  -22.2402    0.9374  -13.9472 C   0  0  0  0  0  0  0  0  0  0  0  0
  -23.0692   -0.1264  -13.3680 C   0  0  0  0  0  0  0  0  0  0  0  0
  -24.1246   -0.7318  -14.0611 C   0  0  0  0  0  0  0  0  0  0  0  0
  -24.8143   -1.8109  -13.5012 C   0  0  0  0  0  0  0  0  0  0  0  0
  -24.4520   -2.2995  -12.2474 C   0  0  0  0  0  0  0  0  0  0  0  0
  -23.4059   -1.7048  -11.5472 C   0  0  0  0  0  0  0  0  0  0  0  0
  -22.7183   -0.6257  -12.1057 C   0  0  0  0  0  0  0  0  0  0  0  0
 11 12  1  0  0  0
 11 18  1  0  0  0
 12 13  1  0  0  0
 12 17  2  0  0  0
 13 14  2  0  0  0
 14 15  1  0  0  0
 15  1  1  0  0  0
 15 16  2  0  0  0
  1  2  1  0  0  0
  1  9  2  0  0  0
  2  3  2  0  0  0
  3  4  1  0  0  0
  4  5  1  0  0  0
  4  8  2  0  0  0
  5 27  1  0  0  0
  5  6  2  0  0  0
 27 28  2  0  0  0
 28 29  1  0  0  0
 29 30  1  0  0  0
 29 34  2  0  0  0
 30 31  2  0  0  0
 31 32  1  0  0  0
 32 33  2  0  0  0
 33 34  1  0  0  0
  6  7  1  0  0  0
  7  8  1  0  0  0
  7 10  1  0  0  0
  8  9  1  0  0  0
 16 17  1  0  0  0
 17 19  1  0  0  0
 19 20  1  0  0  0
 20 21  1  0  0  0
 21 22  1  0  0  0
 21 26  2  0  0  0
 22 23  2  0  0  0
 23 24  1  0  0  0
 24 25  2  0  0  0
 25 26  1  0  0  0
M  END
> <minimizedAffinity>
-10.69340

$$$$
