CHEMBL3979083


 38 41  0  0  0  0  0  0  0  0999 V2000
  -27.1051   -1.6409  -13.9926 C   0  0  0  0  0  0  0  0  0  0  0  0
  -25.7826   -1.6702  -13.2738 C   0  0  0  0  0  0  0  0  0  0  0  0
  -24.6436   -1.3101  -14.0243 C   0  0  0  0  0  0  0  0  0  0  0  0
  -23.3889   -1.1403  -13.4246 C   0  0  0  0  0  0  0  0  0  0  0  0
  -23.2450   -1.4349  -12.0836 C   0  0  0  0  0  0  0  0  0  0  0  0
  -24.3533   -1.8507  -11.3414 C   0  0  0  0  0  0  0  0  0  0  0  0
  -25.6343   -1.9837  -11.9088 C   0  0  0  0  0  0  0  0  0  0  0  0
  -26.7458   -2.4318  -11.1353 N   0  0  0  0  0  0  0  0  0  0  0  0
  -27.0120   -2.0294   -9.8361 C   0  0  0  0  0  0  0  0  0  0  0  0
  -26.3376   -1.2229   -9.1977 O   0  0  0  0  0  0  0  0  0  0  0  0
  -28.1066   -2.6712   -9.2655 N   0  0  0  0  0  0  0  0  0  0  0  0
  -27.3249   -3.1610  -11.5228 H   0  0  0  0  0  0  0  0  0  0  0  0
  -28.1801   -3.6546   -9.4968 H   0  0  0  0  0  0  0  0  0  0  0  0
  -28.4128   -2.3627   -7.9061 C   0  0  0  0  0  0  0  0  0  0  0  0
  -28.5929   -1.0367   -7.4850 C   0  0  0  0  0  0  0  0  0  0  0  0
  -28.6879   -0.7185   -6.1197 C   0  0  0  0  0  0  0  0  0  0  0  0
  -28.6151   -1.7574   -5.1783 C   0  0  0  0  0  0  0  0  0  0  0  0
  -28.4918   -3.0859   -5.5960 C   0  0  0  0  0  0  0  0  0  0  0  0
  -28.4143   -3.3818   -6.9549 C   0  0  0  0  0  0  0  0  0  0  0  0
  -28.2427   -4.6552   -7.3414 F   0  0  0  0  0  0  0  0  0  0  0  0
  -28.8202    0.7243   -5.6757 C   0  0  0  0  0  0  0  0  0  0  0  0
  -30.2683    1.1119   -5.4160 C   0  0  0  0  0  0  0  0  0  0  0  0
  -28.1104    0.9817   -4.5373 F   0  0  0  0  0  0  0  0  0  0  0  0
  -28.3233    1.5927   -6.6073 F   0  0  0  0  0  0  0  0  0  0  0  0
  -22.2684   -0.7095  -14.1002 O   0  0  0  0  0  0  0  0  0  0  0  0
  -22.0317    0.6474  -14.1987 C   0  0  0  0  0  0  0  0  0  0  0  0
  -22.8518    1.6069  -13.6122 C   0  0  0  0  0  0  0  0  0  0  0  0
  -22.5816    2.9264  -13.8846 C   0  0  0  0  0  0  0  0  0  0  0  0
  -21.5284    3.3264  -14.6170 N   0  0  0  0  0  0  0  0  0  0  0  0
  -20.6804    2.4042  -15.1053 C   0  0  0  0  0  0  0  0  0  0  0  0
  -20.8985    1.0448  -14.9139 C   0  0  0  0  0  0  0  0  0  0  0  0
  -19.5528    2.8236  -15.8367 N   0  0  0  0  0  0  0  0  0  0  0  0
  -18.3279    3.0959  -15.2589 C   0  0  0  0  0  0  0  0  0  0  0  0
  -18.0391    3.0462  -14.0714 O   0  0  0  0  0  0  0  0  0  0  0  0
  -19.6614    2.9462  -16.8295 H   0  0  0  0  0  0  0  0  0  0  0  0
  -17.2326    3.5249  -16.1792 C   0  0  0  0  0  0  0  0  0  0  0  0
  -16.0003    2.6609  -16.3130 C   0  0  0  0  0  0  0  0  0  0  0  0
  -15.8814    4.0683  -15.8014 C   0  0  0  0  0  0  0  0  0  0  0  0
  1  2  1  0  0  0
  2  3  1  0  0  0
  2  7  2  0  0  0
  3  4  2  0  0  0
  4 25  1  0  0  0
  4  5  1  0  0  0
 25 26  1  0  0  0
 26 27  1  0  0  0
 26 31  2  0  0  0
 27 28  2  0  0  0
 28 29  1  0  0  0
 29 30  2  0  0  0
 30 32  1  0  0  0
 30 31  1  0  0  0
 32 33  1  0  0  0
 32 35  1  0  0  0
 33 34  2  0  0  0
 33 36  1  0  0  0
 36 37  1  0  0  0
 36 38  1  0  0  0
 37 38  1  0  0  0
  5  6  2  0  0  0
  6  7  1  0  0  0
  7  8  1  0  0  0
  8  9  1  0  0  0
  8 12  1  0  0  0
  9 10  2  0  0  0
  9 11  1  0  0  0
 11 14  1  0  0  0
 11 13  1  0  0  0
 14 15  1  0  0  0
 14 19  2  0  0  0
 15 16  2  0  0  0
 16 21  1  0  0  0
 16 17  1  0  0  0
 21 22  1  0  0  0
 21 23  1  0  0  0
 21 24  1  0  0  0
 17 18  2  0  0  0
 18 19  1  0  0  0
 19 20  1  0  0  0
M  END
> <minimizedAffinity>
-11.92109

$$$$
