CHEMBL1254437


 34 37  0  0  0  0  0  0  0  0999 V2000
  -29.0496   -3.5662   -7.1663 C   0  0  0  0  0  0  0  0  0  0  0  0
  -29.8416   -4.6121   -7.6806 C   0  0  0  0  0  0  0  0  0  0  0  0
  -30.1660   -5.7174   -6.8814 C   0  0  0  0  0  0  0  0  0  0  0  0
  -29.7327   -5.8031   -5.5584 C   0  0  0  0  0  0  0  0  0  0  0  0
  -28.9304   -4.7759   -5.0465 C   0  0  0  0  0  0  0  0  0  0  0  0
  -28.6010   -3.6696   -5.8422 C   0  0  0  0  0  0  0  0  0  0  0  0
  -27.7185   -2.3719   -5.1148 Cl  0  0  0  0  0  0  0  0  0  0  0  0
  -27.5480   -1.3575   -9.7254 N   0  0  0  0  0  0  0  0  0  0  0  0
  -27.7449   -2.5539   -8.9449 C   0  0  0  0  0  0  0  0  0  0  0  0
  -27.0972   -3.5618   -9.1774 O   0  0  0  0  0  0  0  0  0  0  0  0
  -28.7131   -2.4309   -7.9743 N   0  0  0  0  0  0  0  0  0  0  0  0
  -27.9076   -0.4744   -9.3936 H   0  0  0  0  0  0  0  0  0  0  0  0
  -29.4715   -1.7865   -8.1529 H   0  0  0  0  0  0  0  0  0  0  0  0
  -28.4076   -2.0119  -12.7399 C   0  0  0  0  0  0  0  0  0  0  0  0
  -27.1172   -1.6631  -12.1968 N   0  0  0  0  0  0  0  0  0  0  0  0
  -26.0972   -1.5498  -13.0718 N   0  0  0  0  0  0  0  0  0  0  0  0
  -25.0282   -1.2631  -12.3214 C   0  0  0  0  0  0  0  0  0  0  0  0
  -25.3978   -1.1697  -10.9595 C   0  0  0  0  0  0  0  0  0  0  0  0
  -26.7604   -1.3855  -10.8925 C   0  0  0  0  0  0  0  0  0  0  0  0
  -23.6505   -1.1090  -12.9532 C   0  0  0  0  0  0  0  0  0  0  0  0
  -23.7546   -0.4162  -14.3268 C   0  0  0  0  0  0  0  0  0  0  0  0
  -22.7102   -0.2631  -12.0671 C   0  0  0  0  0  0  0  0  0  0  0  0
  -22.9989   -2.4934  -13.1463 C   0  0  0  0  0  0  0  0  0  0  0  0
  -30.0594   -6.9523   -4.8676 O   0  0  0  0  0  0  0  0  0  0  0  0
  -29.1987   -8.0449   -4.9277 C   0  0  0  0  0  0  0  0  0  0  0  0
  -28.1206   -8.0992   -4.1118 N   0  0  0  0  0  0  0  0  0  0  0  0
  -27.3077   -9.1656   -4.2066 C   0  0  0  0  0  0  0  0  0  0  0  0
  -27.4299  -10.2210   -5.0171 N   0  0  0  0  0  0  0  0  0  0  0  0
  -28.5297  -10.1764   -5.7965 C   0  0  0  0  0  0  0  0  0  0  0  0
  -28.9714  -11.1213   -6.7498 C   0  0  0  0  0  0  0  0  0  0  0  0
  -30.1484  -10.6442   -7.2827 C   0  0  0  0  0  0  0  0  0  0  0  0
  -30.4233   -9.4361   -6.6868 N   0  0  0  0  0  0  0  0  0  0  0  0
  -31.5882   -8.6335   -6.9876 C   0  0  0  0  0  0  0  0  0  0  0  0
  -29.4385   -9.1219   -5.7753 C   0  0  0  0  0  0  0  0  0  0  0  0
 14 15  1  0  0  0
 15 16  1  0  0  0
 15 19  1  0  0  0
 16 17  2  0  0  0
 17 20  1  0  0  0
 17 18  1  0  0  0
 20 21  1  0  0  0
 20 22  1  0  0  0
 20 23  1  0  0  0
 18 19  2  0  0  0
 19  8  1  0  0  0
  8  9  1  0  0  0
  8 12  1  0  0  0
  9 10  2  0  0  0
  9 11  1  0  0  0
 11  1  1  0  0  0
 11 13  1  0  0  0
  1  2  1  0  0  0
  1  6  2  0  0  0
  2  3  2  0  0  0
  3  4  1  0  0  0
  4 24  1  0  0  0
  4  5  2  0  0  0
 24 25  1  0  0  0
 25 26  1  0  0  0
 25 34  2  0  0  0
 26 27  2  0  0  0
 27 28  1  0  0  0
 28 29  2  0  0  0
 29 30  1  0  0  0
 29 34  1  0  0  0
 30 31  2  0  0  0
 31 32  1  0  0  0
 32 33  1  0  0  0
 32 34  1  0  0  0
  5  6  1  0  0  0
  6  7  1  0  0  0
M  END
> <minimizedAffinity>
-8.33555

$$$$
