CHEMBL461139


 33 37  0  0  0  0  0  0  0  0999 V2000
  -24.5740   11.3554  -15.3029 C   0  0  0  0  0  0  0  0  0  0  0  0
  -25.5006   10.5924  -16.0121 C   0  0  0  0  0  0  0  0  0  0  0  0
  -25.2161   10.2755  -17.3300 C   0  0  0  0  0  0  0  0  0  0  0  0
  -24.0850   10.6457  -17.9663 N   0  0  0  0  0  0  0  0  0  0  0  0
  -23.1837   11.3821  -17.2717 C   0  0  0  0  0  0  0  0  0  0  0  0
  -23.4057   11.7650  -15.9530 C   0  0  0  0  0  0  0  0  0  0  0  0
  -23.1239   12.4087   -9.8821 O   0  0  0  0  0  0  0  0  0  0  0  0
  -24.2663   12.4142  -10.3166 C   0  0  0  0  0  0  0  0  0  0  0  0
  -25.3686   12.6586   -9.5201 N   0  0  0  0  0  0  0  0  0  0  0  0
  -26.6669   12.6584   -9.9980 C   0  0  0  0  0  0  0  0  0  0  0  0
  -27.0122   12.4372  -11.2295 N   0  0  0  0  0  0  0  0  0  0  0  0
  -25.9524   12.1940  -12.0326 C   0  0  0  0  0  0  0  0  0  0  0  0
  -26.0520   11.9238  -13.3655 N   0  0  0  0  0  0  0  0  0  0  0  0
  -24.7941   11.7098  -13.9004 C   0  0  0  0  0  0  0  0  0  0  0  0
  -23.8868   11.8539  -12.8566 C   0  0  0  0  0  0  0  0  0  0  0  0
  -24.6203   12.1604  -11.6927 C   0  0  0  0  0  0  0  0  0  0  0  0
  -25.1779   12.8363   -8.5485 H   0  0  0  0  0  0  0  0  0  0  0  0
  -26.9269   11.8590  -13.8635 H   0  0  0  0  0  0  0  0  0  0  0  0
  -21.8930   11.6920  -17.9257 C   0  0  0  0  0  0  0  0  0  0  0  0
  -21.6610   11.4657  -19.2253 C   0  0  0  0  0  0  0  0  0  0  0  0
  -20.3638   11.5450  -19.9248 C   0  0  0  0  0  0  0  0  0  0  0  0
  -19.2371   11.1683  -19.1795 C   0  0  0  0  0  0  0  0  0  0  0  0
  -17.9504   11.2535  -19.7164 C   0  0  0  0  0  0  0  0  0  0  0  0
  -17.7398   11.7034  -21.0234 C   0  0  0  0  0  0  0  0  0  0  0  0
  -18.8689   12.0468  -21.7898 C   0  0  0  0  0  0  0  0  0  0  0  0
  -20.1659   11.9639  -21.2434 C   0  0  0  0  0  0  0  0  0  0  0  0
  -16.3203   11.9474  -21.4990 C   0  0  0  0  0  0  0  0  0  0  0  0
  -15.3866   10.8377  -21.6707 N   0  0  0  0  0  0  0  0  0  0  0  0
  -15.7748    9.7657  -22.5841 C   0  0  0  0  0  0  0  0  0  0  0  0
  -16.5230    8.6007  -21.9194 C   0  0  0  0  0  0  0  0  0  0  0  0
  -15.8446    8.0973  -20.7616 O   0  0  0  0  0  0  0  0  0  0  0  0
  -15.5246    9.1283  -19.8207 C   0  0  0  0  0  0  0  0  0  0  0  0
  -14.7543   10.2854  -20.4717 C   0  0  0  0  0  0  0  0  0  0  0  0
  7  8  2  0  0  0
  8  9  1  0  0  0
  8 16  1  0  0  0
  9 10  1  0  0  0
  9 17  1  0  0  0
 10 11  2  0  0  0
 11 12  1  0  0  0
 12 13  1  0  0  0
 12 16  2  0  0  0
 13 14  1  0  0  0
 13 18  1  0  0  0
 14  1  1  0  0  0
 14 15  2  0  0  0
  1  2  1  0  0  0
  1  6  2  0  0  0
  2  3  2  0  0  0
  3  4  1  0  0  0
  4  5  2  0  0  0
  5 19  1  0  0  0
  5  6  1  0  0  0
 19 20  2  0  0  0
 20 21  1  0  0  0
 21 22  1  0  0  0
 21 26  2  0  0  0
 22 23  2  0  0  0
 23 24  1  0  0  0
 24 27  1  0  0  0
 24 25  2  0  0  0
 27 28  1  0  0  0
 28 29  1  0  0  0
 28 33  1  0  0  0
 29 30  1  0  0  0
 30 31  1  0  0  0
 31 32  1  0  0  0
 32 33  1  0  0  0
 25 26  1  0  0  0
 15 16  1  0  0  0
M  END
> <minimizedAffinity>
-5.37885

$$$$
