CHEMBL1242031


 27 29  0  0  0  0  0  0  0  0999 V2000
  -12.9044   -4.6182   -9.4844 N   0  0  0  0  0  0  0  0  0  0  0  0
  -12.4591   -5.7237  -10.1200 N   0  0  0  0  0  0  0  0  0  0  0  0
  -13.3906   -5.9709  -11.0602 C   0  0  0  0  0  0  0  0  0  0  0  0
  -14.4703   -5.0364  -10.9743 C   0  0  0  0  0  0  0  0  0  0  0  0
  -15.6986   -4.7801  -11.6042 C   0  0  0  0  0  0  0  0  0  0  0  0
  -16.2569   -5.5421  -12.6224 N   0  0  0  0  0  0  0  0  0  0  0  0
  -16.4254   -3.7184  -11.2000 N   0  0  0  0  0  0  0  0  0  0  0  0
  -15.9490   -2.9545  -10.2002 C   0  0  0  0  0  0  0  0  0  0  0  0
  -14.8059   -3.1088   -9.5142 N   0  0  0  0  0  0  0  0  0  0  0  0
  -14.1102   -4.1744   -9.9530 C   0  0  0  0  0  0  0  0  0  0  0  0
  -16.0804   -6.5364  -12.5499 H   0  0  0  0  0  0  0  0  0  0  0  0
  -17.2279   -5.2847  -12.7625 H   0  0  0  0  0  0  0  0  0  0  0  0
  -13.2006   -7.0850  -11.9915 C   0  0  0  0  0  0  0  0  0  0  0  0
  -13.3486   -8.4166  -11.5719 C   0  0  0  0  0  0  0  0  0  0  0  0
  -13.1310   -9.4814  -12.4495 C   0  0  0  0  0  0  0  0  0  0  0  0
  -12.8406   -9.2292  -13.7849 C   0  0  0  0  0  0  0  0  0  0  0  0
  -12.7829   -7.9067  -14.2290 C   0  0  0  0  0  0  0  0  0  0  0  0
  -12.9201   -6.8365  -13.3394 C   0  0  0  0  0  0  0  0  0  0  0  0
  -12.6510   -7.5821  -15.9580 S   0  0  0  0  0  0  0  0  0  0  0  0
  -14.2760   -7.5684  -16.3788 N   0  0  0  0  0  0  0  0  0  0  0  0
  -12.1630   -6.2379  -16.1619 O   0  0  0  0  0  0  0  0  0  0  0  0
  -12.0737   -8.7279  -16.6180 O   0  0  0  0  0  0  0  0  0  0  0  0
  -14.5646   -6.6405  -16.6858 H   0  0  0  0  0  0  0  0  0  0  0  0
  -14.4927   -8.3281  -17.0219 H   0  0  0  0  0  0  0  0  0  0  0  0
  -11.9366   -4.9474   -7.2306 C   0  0  0  0  0  0  0  0  0  0  0  0
  -12.0967   -4.0120   -8.4297 C   0  0  0  0  0  0  0  0  0  0  0  0
  -10.7317   -3.5668   -8.9581 C   0  0  0  0  0  0  0  0  0  0  0  0
 25 26  1  0  0  0
 26 27  1  0  0  0
 26  1  1  0  0  0
  1  2  1  0  0  0
  1 10  1  0  0  0
  2  3  2  0  0  0
  3 13  1  0  0  0
  3  4  1  0  0  0
 13 14  1  0  0  0
 13 18  2  0  0  0
 14 15  2  0  0  0
 15 16  1  0  0  0
 16 17  2  0  0  0
 17 19  1  0  0  0
 17 18  1  0  0  0
 19 20  1  0  0  0
 19 21  2  0  0  0
 19 22  2  0  0  0
 20 23  1  0  0  0
 20 24  1  0  0  0
  4  5  1  0  0  0
  4 10  2  0  0  0
  5  6  1  0  0  0
  5  7  2  0  0  0
  6 11  1  0  0  0
  6 12  1  0  0  0
  7  8  1  0  0  0
  8  9  2  0  0  0
  9 10  1  0  0  0
M  END
> <minimizedAffinity>
-7.06567

$$$$
