CHEMBL192417


 20 22  0  0  0  0  0  0  0  0999 V2000
  -22.7044    0.3342  -14.0619 C   0  0  0  0  0  0  0  0  0  0  0  0
  -23.1056    1.5539  -13.7782 N   0  0  0  0  0  0  0  0  0  0  0  0
  -22.0365    2.3456  -14.0635 C   0  0  0  0  0  0  0  0  0  0  0  0
  -20.9881    1.5827  -14.5241 C   0  0  0  0  0  0  0  0  0  0  0  0
  -21.4166    0.2770  -14.5394 O   0  0  0  0  0  0  0  0  0  0  0  0
  -19.6292    1.8890  -14.9464 C   0  0  0  0  0  0  0  0  0  0  0  0
  -18.6665    0.8636  -14.9832 C   0  0  0  0  0  0  0  0  0  0  0  0
  -17.3537    1.1192  -15.3813 C   0  0  0  0  0  0  0  0  0  0  0  0
  -16.9811    2.4065  -15.7509 C   0  0  0  0  0  0  0  0  0  0  0  0
  -17.9228    3.4357  -15.7239 C   0  0  0  0  0  0  0  0  0  0  0  0
  -19.2392    3.1792  -15.3246 C   0  0  0  0  0  0  0  0  0  0  0  0
  -23.3426   -0.8455  -13.9317 N   0  0  0  0  0  0  0  0  0  0  0  0
  -22.9066   -1.6529  -14.3514 H   0  0  0  0  0  0  0  0  0  0  0  0
  -28.0907   -2.2448  -13.6460 C   0  0  0  0  0  0  0  0  0  0  0  0
  -26.8216   -1.8123  -12.9738 C   0  0  0  0  0  0  0  0  0  0  0  0
  -26.7544   -1.7451  -11.5800 C   0  0  0  0  0  0  0  0  0  0  0  0
  -25.5763   -1.3525  -10.9605 C   0  0  0  0  0  0  0  0  0  0  0  0
  -24.4558   -1.0340  -11.7281 C   0  0  0  0  0  0  0  0  0  0  0  0
  -24.4744   -1.1065  -13.1285 C   0  0  0  0  0  0  0  0  0  0  0  0
  -25.6814   -1.4920  -13.7374 C   0  0  0  0  0  0  0  0  0  0  0  0
 14 15  1  0  0  0
 15 16  1  0  0  0
 15 20  2  0  0  0
 16 17  2  0  0  0
 17 18  1  0  0  0
 18 19  2  0  0  0
 19 12  1  0  0  0
 19 20  1  0  0  0
 12  1  1  0  0  0
 12 13  1  0  0  0
  1  2  2  0  0  0
  1  5  1  0  0  0
  2  3  1  0  0  0
  3  4  2  0  0  0
  4  6  1  0  0  0
  4  5  1  0  0  0
  6  7  1  0  0  0
  6 11  2  0  0  0
  7  8  2  0  0  0
  8  9  1  0  0  0
  9 10  2  0  0  0
 10 11  1  0  0  0
M  END
> <minimizedAffinity>
-9.37839

$$$$
