CHEMBL150085


 34 39  0  0  0  0  0  0  0  0999 V2000
  -19.0721    1.8426  -14.6520 C   0  0  0  0  0  0  0  0  0  0  0  0
  -18.7853    2.7697  -15.6562 C   0  0  0  0  0  0  0  0  0  0  0  0
  -17.4595    3.0045  -16.0628 C   0  0  0  0  0  0  0  0  0  0  0  0
  -16.4243    2.3102  -15.4147 C   0  0  0  0  0  0  0  0  0  0  0  0
  -16.7265    1.2954  -14.4854 C   0  0  0  0  0  0  0  0  0  0  0  0
  -18.0510    1.0377  -14.1294 C   0  0  0  0  0  0  0  0  0  0  0  0
  -15.4886    0.7679  -14.2190 C   0  0  0  0  0  0  0  0  0  0  0  0
  -15.2369   -0.5803  -13.8726 C   0  0  0  0  0  0  0  0  0  0  0  0
  -13.9581   -1.0987  -14.3311 C   0  0  0  0  0  0  0  0  0  0  0  0
  -12.9888   -0.2228  -14.8307 C   0  0  0  0  0  0  0  0  0  0  0  0
  -13.1771    1.0649  -14.3279 C   0  0  0  0  0  0  0  0  0  0  0  0
  -14.4383    1.5526  -14.5759 C   0  0  0  0  0  0  0  0  0  0  0  0
  -15.0216    2.3313  -15.5946 N   0  0  0  0  0  0  0  0  0  0  0  0
  -11.8557    1.6853  -14.1840 C   0  0  0  0  0  0  0  0  0  0  0  0
  -11.3077    1.2401  -15.5098 C   0  0  0  0  0  0  0  0  0  0  0  0
  -10.6967    2.1701  -16.3432 C   0  0  0  0  0  0  0  0  0  0  0  0
  -10.8950    2.0129  -17.6994 C   0  0  0  0  0  0  0  0  0  0  0  0
  -11.6056    0.8911  -18.1754 C   0  0  0  0  0  0  0  0  0  0  0  0
  -12.1521   -0.1028  -17.3052 C   0  0  0  0  0  0  0  0  0  0  0  0
  -12.0289    0.0599  -15.9237 C   0  0  0  0  0  0  0  0  0  0  0  0
  -13.6825   -2.2089  -13.4082 C   0  0  0  0  0  0  0  0  0  0  0  0
  -12.6617   -2.8570  -13.2207 O   0  0  0  0  0  0  0  0  0  0  0  0
  -14.7767   -2.2830  -12.5567 N   0  0  0  0  0  0  0  0  0  0  0  0
  -15.8453   -1.3404  -12.7815 C   0  0  0  0  0  0  0  0  0  0  0  0
  -14.6202   -2.6916  -11.6466 H   0  0  0  0  0  0  0  0  0  0  0  0
  -20.4402    1.8294  -13.9987 C   0  0  0  0  0  0  0  0  0  0  0  0
  -21.2704    0.7660  -14.7248 C   0  0  0  0  0  0  0  0  0  0  0  0
  -22.4112    3.1855  -13.9993 C   0  0  0  0  0  0  0  0  0  0  0  0
  -21.0024    3.1384  -14.1267 O   0  0  0  0  0  0  0  0  0  0  0  0
  -14.3973    2.4782  -16.9038 C   0  0  0  0  0  0  0  0  0  0  0  0
  -14.0172    3.8378  -17.4739 C   0  0  0  0  0  0  0  0  0  0  0  0
  -13.3663    4.7231  -16.4298 C   0  0  0  0  0  0  0  0  0  0  0  0
  -14.3617    5.2492  -15.5630 O   0  0  0  0  0  0  0  0  0  0  0  0
  -14.9403    5.8272  -16.0896 H   0  0  0  0  0  0  0  0  0  0  0  0
 28 29  1  0  0  0
 29 26  1  0  0  0
 26 27  1  0  0  0
 26  1  1  0  0  0
  1  2  1  0  0  0
  1  6  2  0  0  0
  2  3  2  0  0  0
  3  4  1  0  0  0
  4  5  2  0  0  0
  4 13  1  0  0  0
  5  6  1  0  0  0
  5  7  1  0  0  0
  7  8  1  0  0  0
  7 12  2  0  0  0
  8  9  2  0  0  0
  8 24  1  0  0  0
  9 10  1  0  0  0
  9 21  1  0  0  0
 10 11  2  0  0  0
 10 20  1  0  0  0
 11 12  1  0  0  0
 11 14  1  0  0  0
 12 13  1  0  0  0
 13 30  1  0  0  0
 30 31  1  0  0  0
 31 32  1  0  0  0
 32 33  1  0  0  0
 33 34  1  0  0  0
 14 15  1  0  0  0
 15 16  1  0  0  0
 15 20  2  0  0  0
 16 17  2  0  0  0
 17 18  1  0  0  0
 18 19  2  0  0  0
 19 20  1  0  0  0
 21 22  2  0  0  0
 21 23  1  0  0  0
 23 24  1  0  0  0
 23 25  1  0  0  0
M  END
> <minimizedAffinity>
-7.19268

$$$$
