CHEMBL373272


 31 34  0  0  0  0  0  0  0  0999 V2000
  -29.4349   -5.2986   -5.8367 C   0  0  0  0  0  0  0  0  0  0  0  0
  -29.2092   -5.5316   -7.1924 C   0  0  0  0  0  0  0  0  0  0  0  0
  -29.4100   -6.8017   -7.7374 C   0  0  0  0  0  0  0  0  0  0  0  0
  -29.7723   -7.8857   -6.9282 C   0  0  0  0  0  0  0  0  0  0  0  0
  -29.8667   -7.6653   -5.5461 C   0  0  0  0  0  0  0  0  0  0  0  0
  -29.7127   -6.3793   -5.0023 C   0  0  0  0  0  0  0  0  0  0  0  0
  -30.1002   -9.1953   -7.5230 C   0  0  0  0  0  0  0  0  0  0  0  0
  -31.4222   -9.6102   -7.7024 C   0  0  0  0  0  0  0  0  0  0  0  0
  -32.7354   -8.9417   -7.4257 C   0  0  0  0  0  0  0  0  0  0  0  0
  -31.5169  -11.1921   -8.3543 S   0  0  0  0  0  0  0  0  0  0  0  0
  -29.8362  -11.3364   -8.4528 C   0  0  0  0  0  0  0  0  0  0  0  0
  -29.3106  -12.4650   -8.9560 N   0  0  0  0  0  0  0  0  0  0  0  0
  -27.9824  -12.4463   -8.9698 C   0  0  0  0  0  0  0  0  0  0  0  0
  -27.1841  -11.4686   -8.5320 N   0  0  0  0  0  0  0  0  0  0  0  0
  -27.7392  -10.3562   -8.0147 C   0  0  0  0  0  0  0  0  0  0  0  0
  -26.8263   -9.4237   -7.5378 N   0  0  0  0  0  0  0  0  0  0  0  0
  -29.1534  -10.2288   -7.9715 C   0  0  0  0  0  0  0  0  0  0  0  0
  -25.9060   -9.8494   -7.5114 H   0  0  0  0  0  0  0  0  0  0  0  0
  -27.1230   -8.9651   -6.6830 H   0  0  0  0  0  0  0  0  0  0  0  0
  -28.5647   -3.6128   -4.2803 C   0  0  0  0  0  0  0  0  0  0  0  0
  -27.6891   -4.3223   -3.7857 O   0  0  0  0  0  0  0  0  0  0  0  0
  -29.4267   -3.9937   -5.3025 N   0  0  0  0  0  0  0  0  0  0  0  0
  -29.8054   -3.2477   -5.8755 H   0  0  0  0  0  0  0  0  0  0  0  0
  -28.7536   -2.1901   -3.8027 C   0  0  0  0  0  0  0  0  0  0  0  0
  -31.0347    1.6742   -6.0235 C   0  0  0  0  0  0  0  0  0  0  0  0
  -29.8327    0.7833   -5.9226 C   0  0  0  0  0  0  0  0  0  0  0  0
  -28.7004    1.0055   -6.7092 C   0  0  0  0  0  0  0  0  0  0  0  0
  -27.5754    0.1935   -6.5651 C   0  0  0  0  0  0  0  0  0  0  0  0
  -27.5743   -0.8529   -5.6401 C   0  0  0  0  0  0  0  0  0  0  0  0
  -28.7098   -1.1142   -4.8629 C   0  0  0  0  0  0  0  0  0  0  0  0
  -29.8267   -0.2736   -5.0031 C   0  0  0  0  0  0  0  0  0  0  0  0
 25 26  1  0  0  0
 26 27  1  0  0  0
 26 31  2  0  0  0
 27 28  2  0  0  0
 28 29  1  0  0  0
 29 30  2  0  0  0
 30 24  1  0  0  0
 30 31  1  0  0  0
 24 20  1  0  0  0
 20 21  2  0  0  0
 20 22  1  0  0  0
 22  1  1  0  0  0
 22 23  1  0  0  0
  1  2  1  0  0  0
  1  6  2  0  0  0
  2  3  2  0  0  0
  3  4  1  0  0  0
  4  7  1  0  0  0
  4  5  2  0  0  0
  7  8  2  0  0  0
  7 17  1  0  0  0
  8  9  1  0  0  0
  8 10  1  0  0  0
 10 11  1  0  0  0
 11 12  1  0  0  0
 11 17  2  0  0  0
 12 13  2  0  0  0
 13 14  1  0  0  0
 14 15  2  0  0  0
 15 16  1  0  0  0
 15 17  1  0  0  0
 16 18  1  0  0  0
 16 19  1  0  0  0
  5  6  1  0  0  0
M  END
> <minimizedAffinity>
-9.10171

$$$$
