CHEMBL4291572


 27 30  0  0  0  0  0  0  0  0999 V2000
  -29.3619   -9.5904   -8.7269 C   0  0  0  0  0  0  0  0  0  0  0  0
  -28.0593   -9.7994   -8.5172 N   0  0  0  0  0  0  0  0  0  0  0  0
  -27.5768   -9.4410   -7.3085 C   0  0  0  0  0  0  0  0  0  0  0  0
  -28.3405   -8.8652   -6.3144 C   0  0  0  0  0  0  0  0  0  0  0  0
  -29.6666   -8.6528   -6.6425 C   0  0  0  0  0  0  0  0  0  0  0  0
  -30.1853   -9.0560   -7.8184 N   0  0  0  0  0  0  0  0  0  0  0  0
  -30.5456   -7.9173   -5.8383 N   0  0  0  0  0  0  0  0  0  0  0  0
  -30.1520   -6.7276   -5.3383 C   0  0  0  0  0  0  0  0  0  0  0  0
  -30.8656   -5.6015   -5.4290 N   0  0  0  0  0  0  0  0  0  0  0  0
  -30.0430   -4.6635   -4.9247 N   0  0  0  0  0  0  0  0  0  0  0  0
  -28.8307   -5.1427   -4.5106 C   0  0  0  0  0  0  0  0  0  0  0  0
  -27.7758   -4.2852   -3.9360 C   0  0  0  0  0  0  0  0  0  0  0  0
  -28.8894   -6.4919   -4.7476 C   0  0  0  0  0  0  0  0  0  0  0  0
  -27.9270   -7.4061   -4.3293 N   0  0  0  0  0  0  0  0  0  0  0  0
  -27.7423   -8.5090   -4.9978 C   0  0  0  0  0  0  0  0  0  0  0  0
  -31.4348   -7.8805   -6.3260 H   0  0  0  0  0  0  0  0  0  0  0  0
  -30.3775   -3.7058   -4.8958 H   0  0  0  0  0  0  0  0  0  0  0  0
  -26.8448   -9.5218   -4.3318 C   0  0  0  0  0  0  0  0  0  0  0  0
  -27.3529  -10.7099   -3.7898 C   0  0  0  0  0  0  0  0  0  0  0  0
  -26.5180  -11.5712   -3.0723 C   0  0  0  0  0  0  0  0  0  0  0  0
  -25.1724  -11.2494   -2.8671 C   0  0  0  0  0  0  0  0  0  0  0  0
  -24.2843  -12.1397   -2.0501 C   0  0  0  0  0  0  0  0  0  0  0  0
  -24.6614  -10.0695   -3.4191 C   0  0  0  0  0  0  0  0  0  0  0  0
  -25.4914   -9.2108   -4.1432 C   0  0  0  0  0  0  0  0  0  0  0  0
  -28.9157  -10.6811  -10.7838 C   0  0  0  0  0  0  0  0  0  0  0  0
  -29.8419   -9.8954   -9.9939 N   0  0  0  0  0  0  0  0  0  0  0  0
  -30.7557  -10.3131   -9.8557 H   0  0  0  0  0  0  0  0  0  0  0  0
 25 26  1  0  0  0
 26  1  1  0  0  0
 26 27  1  0  0  0
  1  2  1  0  0  0
  1  6  2  0  0  0
  2  3  2  0  0  0
  3  4  1  0  0  0
  4  5  2  0  0  0
  4 15  1  0  0  0
  5  6  1  0  0  0
  5  7  1  0  0  0
  7  8  1  0  0  0
  7 16  1  0  0  0
  8  9  2  0  0  0
  8 13  1  0  0  0
  9 10  1  0  0  0
 10 11  1  0  0  0
 10 17  1  0  0  0
 11 12  1  0  0  0
 11 13  2  0  0  0
 13 14  1  0  0  0
 14 15  2  0  0  0
 15 18  1  0  0  0
 18 19  1  0  0  0
 18 24  2  0  0  0
 19 20  2  0  0  0
 20 21  1  0  0  0
 21 22  1  0  0  0
 21 23  2  0  0  0
 23 24  1  0  0  0
M  END
> <minimizedAffinity>
-7.47588

$$$$
