CHEMBL409914


 36 39  0  0  0  0  0  0  0  0999 V2000
  -28.6834   -5.4001   -4.4611 C   0  0  0  0  0  0  0  0  0  0  0  0
  -28.5486   -4.4772   -5.6362 C   0  0  0  0  0  0  0  0  0  0  0  0
  -28.0407   -3.2061   -5.4367 C   0  0  0  0  0  0  0  0  0  0  0  0
  -27.9470   -2.2778   -6.4837 C   0  0  0  0  0  0  0  0  0  0  0  0
  -28.3508   -2.5344   -7.7949 C   0  0  0  0  0  0  0  0  0  0  0  0
  -28.8558   -3.8117   -7.9956 C   0  0  0  0  0  0  0  0  0  0  0  0
  -28.9486   -4.8049   -6.9313 C   0  0  0  0  0  0  0  0  0  0  0  0
  -29.5868   -6.0857   -7.2433 C   0  0  0  0  0  0  0  0  0  0  0  0
  -28.7039   -6.9865   -7.8127 C   0  0  0  0  0  0  0  0  0  0  0  0
  -29.0920   -8.2406   -8.0278 C   0  0  0  0  0  0  0  0  0  0  0  0
  -30.4100   -8.5178   -8.0248 C   0  0  0  0  0  0  0  0  0  0  0  0
  -30.6694   -9.4472   -8.8975 N   0  0  0  0  0  0  0  0  0  0  0  0
  -31.0506  -10.6336   -8.5249 C   0  0  0  0  0  0  0  0  0  0  0  0
  -29.9025  -10.9870   -9.1972 N   0  0  0  0  0  0  0  0  0  0  0  0
  -32.1352  -10.2507   -7.8765 N   0  0  0  0  0  0  0  0  0  0  0  0
  -32.3247   -8.9308   -7.2680 C   0  0  0  0  0  0  0  0  0  0  0  0
  -31.3534   -7.8806   -7.3292 C   0  0  0  0  0  0  0  0  0  0  0  0
  -30.9314   -6.5169   -6.9633 C   0  0  0  0  0  0  0  0  0  0  0  0
  -29.3661  -10.1462   -9.3837 H   0  0  0  0  0  0  0  0  0  0  0  0
  -29.5709  -11.7436   -9.7546 H   0  0  0  0  0  0  0  0  0  0  0  0
  -28.2389   -1.5745   -8.8764 N   0  0  0  0  0  0  0  0  0  0  0  0
  -27.4464   -1.8072   -9.9922 C   0  0  0  0  0  0  0  0  0  0  0  0
  -26.7840   -2.8249  -10.1483 O   0  0  0  0  0  0  0  0  0  0  0  0
  -27.4353   -0.8403  -10.9821 N   0  0  0  0  0  0  0  0  0  0  0  0
  -28.7928   -0.7273   -8.8379 H   0  0  0  0  0  0  0  0  0  0  0  0
  -27.6526    0.1003  -10.7036 H   0  0  0  0  0  0  0  0  0  0  0  0
  -26.5248   -1.0062  -12.0845 C   0  0  0  0  0  0  0  0  0  0  0  0
  -26.8782   -1.7383  -13.2261 C   0  0  0  0  0  0  0  0  0  0  0  0
  -25.9673   -1.8951  -14.2822 C   0  0  0  0  0  0  0  0  0  0  0  0
  -24.6889   -1.3493  -14.1949 C   0  0  0  0  0  0  0  0  0  0  0  0
  -24.3120   -0.6189  -13.0606 C   0  0  0  0  0  0  0  0  0  0  0  0
  -25.2444   -0.4367  -12.0208 C   0  0  0  0  0  0  0  0  0  0  0  0
  -22.9139   -0.0696  -12.9471 C   0  0  0  0  0  0  0  0  0  0  0  0
  -22.0628   -0.5860  -13.8801 F   0  0  0  0  0  0  0  0  0  0  0  0
  -22.8527    1.2802  -13.0967 F   0  0  0  0  0  0  0  0  0  0  0  0
  -22.3416   -0.3452  -11.7414 F   0  0  0  0  0  0  0  0  0  0  0  0
  1  2  1  0  0  0
  2  3  1  0  0  0
  2  7  2  0  0  0
  3  4  2  0  0  0
  4  5  1  0  0  0
  5 21  1  0  0  0
  5  6  2  0  0  0
 21 22  1  0  0  0
 21 25  1  0  0  0
 22 23  2  0  0  0
 22 24  1  0  0  0
 24 27  1  0  0  0
 24 26  1  0  0  0
 27 28  1  0  0  0
 27 32  2  0  0  0
 28 29  2  0  0  0
 29 30  1  0  0  0
 30 31  2  0  0  0
 31 33  1  0  0  0
 31 32  1  0  0  0
 33 34  1  0  0  0
 33 35  1  0  0  0
 33 36  1  0  0  0
  6  7  1  0  0  0
  7  8  1  0  0  0
  8  9  1  0  0  0
  8 18  2  0  0  0
  9 10  2  0  0  0
 10 11  1  0  0  0
 11 12  1  0  0  0
 11 17  2  0  0  0
 12 13  2  0  0  0
 13 14  1  0  0  0
 13 15  1  0  0  0
 14 19  1  0  0  0
 14 20  1  0  0  0
 15 16  2  0  0  0
 16 17  1  0  0  0
 17 18  1  0  0  0
M  END
> <minimizedAffinity>
-11.37072

$$$$
