CHEMBL3954368


 34 38  0  0  0  0  0  0  0  0999 V2000
  -14.5033   -1.7273  -13.1349 C   0  0  0  0  0  0  0  0  0  0  0  0
  -15.5617   -1.1295  -12.4525 C   0  0  0  0  0  0  0  0  0  0  0  0
  -16.2214   -0.0464  -13.0071 C   0  0  0  0  0  0  0  0  0  0  0  0
  -15.7584    0.5742  -14.1408 C   0  0  0  0  0  0  0  0  0  0  0  0
  -16.6215    1.4642  -14.6400 N   0  0  0  0  0  0  0  0  0  0  0  0
  -16.1673    2.2789  -15.5961 C   0  0  0  0  0  0  0  0  0  0  0  0
  -14.8448    2.2985  -15.9771 C   0  0  0  0  0  0  0  0  0  0  0  0
  -13.9933    1.2639  -15.5891 N   0  0  0  0  0  0  0  0  0  0  0  0
  -14.4803    0.3007  -14.6805 C   0  0  0  0  0  0  0  0  0  0  0  0
  -13.9074   -0.9540  -14.1803 C   0  0  0  0  0  0  0  0  0  0  0  0
  -14.3857    3.5903  -16.5174 C   0  0  0  0  0  0  0  0  0  0  0  0
  -13.3477    4.4936  -16.1688 C   0  0  0  0  0  0  0  0  0  0  0  0
  -13.1328    5.4536  -17.0892 N   0  0  0  0  0  0  0  0  0  0  0  0
  -14.0441    5.1682  -18.0568 N   0  0  0  0  0  0  0  0  0  0  0  0
  -14.7103    3.9922  -17.8100 C   0  0  0  0  0  0  0  0  0  0  0  0
  -14.3434    6.0884  -19.5011 S   0  0  0  0  0  0  0  0  0  0  0  0
  -14.6707    7.7762  -19.0764 C   0  0  0  0  0  0  0  0  0  0  0  0
  -13.1010    6.0255  -20.2521 O   0  0  0  0  0  0  0  0  0  0  0  0
  -15.5671    5.5150  -20.0349 O   0  0  0  0  0  0  0  0  0  0  0  0
  -14.2826   -3.1092  -12.7894 N   0  0  0  0  0  0  0  0  0  0  0  0
  -12.1096   -5.7095  -11.0499 C   0  0  0  0  0  0  0  0  0  0  0  0
  -11.5381   -4.9385  -10.0410 C   0  0  0  0  0  0  0  0  0  0  0  0
  -11.8541   -3.5908   -9.9562 C   0  0  0  0  0  0  0  0  0  0  0  0
  -12.7930   -3.0093  -10.8298 C   0  0  0  0  0  0  0  0  0  0  0  0
  -13.3434   -3.7167  -11.8994 C   0  0  0  0  0  0  0  0  0  0  0  0
  -12.9584   -5.0833  -11.9906 C   0  0  0  0  0  0  0  0  0  0  0  0
  -12.9812   -7.8261  -11.7210 C   0  0  0  0  0  0  0  0  0  0  0  0
  -11.8861   -7.0547  -11.2088 O   0  0  0  0  0  0  0  0  0  0  0  0
  -11.3105   -2.7499   -9.0153 O   0  0  0  0  0  0  0  0  0  0  0  0
  -11.6012   -3.1220   -7.6687 C   0  0  0  0  0  0  0  0  0  0  0  0
  -15.0239   -3.9992  -13.7494 C   0  0  0  0  0  0  0  0  0  0  0  0
  -16.3863   -4.5387  -13.3097 C   0  0  0  0  0  0  0  0  0  0  0  0
  -16.6344   -4.5718  -11.8065 C   0  0  0  0  0  0  0  0  0  0  0  0
  -16.5915   -5.8553  -12.5699 C   0  0  0  0  0  0  0  0  0  0  0  0
 27 28  1  0  0  0
 28 21  1  0  0  0
 21 22  1  0  0  0
 21 26  2  0  0  0
 22 23  2  0  0  0
 23 29  1  0  0  0
 23 24  1  0  0  0
 29 30  1  0  0  0
 24 25  2  0  0  0
 25 20  1  0  0  0
 25 26  1  0  0  0
 20 31  1  0  0  0
 20  1  1  0  0  0
 31 32  1  0  0  0
 32 33  1  0  0  0
 32 34  1  0  0  0
 33 34  1  0  0  0
  1  2  1  0  0  0
  1 10  2  0  0  0
  2  3  2  0  0  0
  3  4  1  0  0  0
  4  5  1  0  0  0
  4  9  2  0  0  0
  5  6  2  0  0  0
  6  7  1  0  0  0
  7 11  1  0  0  0
  7  8  2  0  0  0
 11 12  1  0  0  0
 11 15  2  0  0  0
 12 13  2  0  0  0
 13 14  1  0  0  0
 14 16  1  0  0  0
 14 15  1  0  0  0
 16 17  1  0  0  0
 16 18  2  0  0  0
 16 19  2  0  0  0
  8  9  1  0  0  0
  9 10  1  0  0  0
M  END
> <minimizedAffinity>
-6.96889

$$$$
