CHEMBL405040


 30 33  0  0  0  0  0  0  0  0999 V2000
  -13.1252   -6.0044  -13.4396 O   0  0  0  0  0  0  0  0  0  0  0  0
  -13.1850   -6.7072  -14.6346 C   0  0  0  0  0  0  0  0  0  0  0  0
  -13.0871   -8.0948  -14.5639 C   0  0  0  0  0  0  0  0  0  0  0  0
  -13.1657   -8.8786  -15.7296 C   0  0  0  0  0  0  0  0  0  0  0  0
  -13.3958   -8.2999  -16.9859 C   0  0  0  0  0  0  0  0  0  0  0  0
  -13.4461   -6.8923  -17.0434 C   0  0  0  0  0  0  0  0  0  0  0  0
  -13.3555   -6.1098  -15.8848 C   0  0  0  0  0  0  0  0  0  0  0  0
  -13.5803   -6.1637  -18.2038 O   0  0  0  0  0  0  0  0  0  0  0  0
  -14.1135   -6.9294  -19.2845 C   0  0  0  0  0  0  0  0  0  0  0  0
  -13.3929   -8.2561  -19.4199 C   0  0  0  0  0  0  0  0  0  0  0  0
  -13.5658   -9.0498  -18.1984 N   0  0  0  0  0  0  0  0  0  0  0  0
  -13.8660  -10.3867  -18.3679 C   0  0  0  0  0  0  0  0  0  0  0  0
  -14.2143  -11.1089  -17.2786 N   0  0  0  0  0  0  0  0  0  0  0  0
  -13.8923  -10.9558  -19.4581 O   0  0  0  0  0  0  0  0  0  0  0  0
  -14.7985  -10.6423  -16.6002 H   0  0  0  0  0  0  0  0  0  0  0  0
  -14.5295  -12.0401  -17.5205 H   0  0  0  0  0  0  0  0  0  0  0  0
  -14.8175   -1.1909  -12.7829 C   0  0  0  0  0  0  0  0  0  0  0  0
  -15.7544   -2.1210  -12.3066 C   0  0  0  0  0  0  0  0  0  0  0  0
  -15.5714   -3.4852  -12.3925 C   0  0  0  0  0  0  0  0  0  0  0  0
  -16.5368   -4.2418  -11.8367 N   0  0  0  0  0  0  0  0  0  0  0  0
  -16.3967   -5.5776  -11.8854 C   0  0  0  0  0  0  0  0  0  0  0  0
  -15.3213   -6.2038  -12.4580 C   0  0  0  0  0  0  0  0  0  0  0  0
  -14.2852   -5.4186  -12.9678 C   0  0  0  0  0  0  0  0  0  0  0  0
  -14.4227   -3.9994  -13.0068 C   0  0  0  0  0  0  0  0  0  0  0  0
  -13.5157   -3.0709  -13.5873 C   0  0  0  0  0  0  0  0  0  0  0  0
  -13.6949   -1.6741  -13.4598 C   0  0  0  0  0  0  0  0  0  0  0  0
  -15.9730    0.7176  -13.5553 C   0  0  0  0  0  0  0  0  0  0  0  0
  -15.0217    0.1575  -12.6380 O   0  0  0  0  0  0  0  0  0  0  0  0
  -12.7310   -0.9425  -14.0968 O   0  0  0  0  0  0  0  0  0  0  0  0
  -12.9016   -0.6529  -15.4814 C   0  0  0  0  0  0  0  0  0  0  0  0
 27 28  1  0  0  0
 28 17  1  0  0  0
 17 18  1  0  0  0
 17 26  2  0  0  0
 18 19  2  0  0  0
 19 20  1  0  0  0
 19 24  1  0  0  0
 20 21  2  0  0  0
 21 22  1  0  0  0
 22 23  2  0  0  0
 23  1  1  0  0  0
 23 24  1  0  0  0
  1  2  1  0  0  0
  2  3  1  0  0  0
  2  7  2  0  0  0
  3  4  2  0  0  0
  4  5  1  0  0  0
  5  6  2  0  0  0
  5 11  1  0  0  0
  6  7  1  0  0  0
  6  8  1  0  0  0
  8  9  1  0  0  0
  9 10  1  0  0  0
 10 11  1  0  0  0
 11 12  1  0  0  0
 12 13  1  0  0  0
 12 14  2  0  0  0
 13 15  1  0  0  0
 13 16  1  0  0  0
 24 25  2  0  0  0
 25 26  1  0  0  0
 26 29  1  0  0  0
 29 30  1  0  0  0
M  END
> <minimizedAffinity>
-6.70505

$$$$
