CHEMBL464409


 39 44  0  0  0  0  0  0  0  0999 V2000
  -14.1671   -1.2883  -14.2444 C   0  0  0  0  0  0  0  0  0  0  0  0
  -13.3147   -1.6959  -15.2721 C   0  0  0  0  0  0  0  0  0  0  0  0
  -13.2316   -3.0330  -15.6112 C   0  0  0  0  0  0  0  0  0  0  0  0
  -14.0465   -3.9807  -14.9888 C   0  0  0  0  0  0  0  0  0  0  0  0
  -15.0065   -3.5556  -14.0671 C   0  0  0  0  0  0  0  0  0  0  0  0
  -15.0525   -2.2138  -13.6962 C   0  0  0  0  0  0  0  0  0  0  0  0
  -15.9424   -1.8232  -12.7755 F   0  0  0  0  0  0  0  0  0  0  0  0
  -13.9223   -5.3412  -15.2943 N   0  0  0  0  0  0  0  0  0  0  0  0
  -13.7367   -6.3464  -14.3701 C   0  0  0  0  0  0  0  0  0  0  0  0
  -13.7625   -6.1887  -13.1490 O   0  0  0  0  0  0  0  0  0  0  0  0
  -13.5154   -7.6210  -14.8964 N   0  0  0  0  0  0  0  0  0  0  0  0
  -13.3726   -8.6933  -13.9352 C   0  0  0  0  0  0  0  0  0  0  0  0
  -12.7563   -9.8241  -14.7103 C   0  0  0  0  0  0  0  0  0  0  0  0
  -13.1136   -9.5414  -16.0850 N   0  0  0  0  0  0  0  0  0  0  0  0
  -13.4536   -8.1640  -16.2294 C   0  0  0  0  0  0  0  0  0  0  0  0
  -13.6661   -7.2824  -17.6358 S   0  0  0  0  0  0  0  0  0  0  0  0
  -14.1211   -5.6327  -16.2467 H   0  0  0  0  0  0  0  0  0  0  0  0
  -13.0570  -10.5602  -17.0621 C   0  0  0  0  0  0  0  0  0  0  0  0
  -11.8366  -11.0364  -17.5561 C   0  0  0  0  0  0  0  0  0  0  0  0
  -11.7937  -11.9912  -18.5746 C   0  0  0  0  0  0  0  0  0  0  0  0
  -12.9788  -12.4645  -19.1216 C   0  0  0  0  0  0  0  0  0  0  0  0
  -14.2037  -12.0076  -18.6474 C   0  0  0  0  0  0  0  0  0  0  0  0
  -14.2399  -11.0614  -17.6194 C   0  0  0  0  0  0  0  0  0  0  0  0
  -14.1672   -0.0060  -13.7467 O   0  0  0  0  0  0  0  0  0  0  0  0
  -18.0735    2.1380  -14.8605 C   0  0  0  0  0  0  0  0  0  0  0  0
  -17.3390    2.8466  -15.7845 C   0  0  0  0  0  0  0  0  0  0  0  0
  -15.9499    2.5323  -15.7187 C   0  0  0  0  0  0  0  0  0  0  0  0
  -14.9763    3.0957  -16.4866 N   0  0  0  0  0  0  0  0  0  0  0  0
  -13.7281    2.6427  -16.2708 C   0  0  0  0  0  0  0  0  0  0  0  0
  -13.3845    1.6528  -15.3711 C   0  0  0  0  0  0  0  0  0  0  0  0
  -14.3905    1.0383  -14.6238 C   0  0  0  0  0  0  0  0  0  0  0  0
  -15.6874    1.5389  -14.7759 C   0  0  0  0  0  0  0  0  0  0  0  0
  -17.1087    1.0844  -13.9381 S   0  0  0  0  0  0  0  0  0  0  0  0
  -22.8265    1.1618  -13.8330 C   0  0  0  0  0  0  0  0  0  0  0  0
  -21.6220    1.8329  -14.2439 N   0  0  0  0  0  0  0  0  0  0  0  0
  -21.4628    3.1725  -14.4420 C   0  0  0  0  0  0  0  0  0  0  0  0
  -20.2075    3.4783  -14.6828 N   0  0  0  0  0  0  0  0  0  0  0  0
  -19.5404    2.2781  -14.6703 C   0  0  0  0  0  0  0  0  0  0  0  0
  -20.4107    1.2368  -14.4341 C   0  0  0  0  0  0  0  0  0  0  0  0
 34 35  1  0  0  0
 35 36  1  0  0  0
 35 39  1  0  0  0
 36 37  2  0  0  0
 37 38  1  0  0  0
 38 25  1  0  0  0
 38 39  2  0  0  0
 25 26  2  0  0  0
 25 33  1  0  0  0
 26 27  1  0  0  0
 27 28  1  0  0  0
 27 32  2  0  0  0
 28 29  2  0  0  0
 29 30  1  0  0  0
 30 31  2  0  0  0
 31 24  1  0  0  0
 31 32  1  0  0  0
 24  1  1  0  0  0
  1  2  1  0  0  0
  1  6  2  0  0  0
  2  3  2  0  0  0
  3  4  1  0  0  0
  4  8  1  0  0  0
  4  5  2  0  0  0
  8  9  1  0  0  0
  8 17  1  0  0  0
  9 10  2  0  0  0
  9 11  1  0  0  0
 11 12  1  0  0  0
 11 15  1  0  0  0
 12 13  1  0  0  0
 13 14  1  0  0  0
 14 18  1  0  0  0
 14 15  1  0  0  0
 18 19  1  0  0  0
 18 23  2  0  0  0
 19 20  2  0  0  0
 20 21  1  0  0  0
 21 22  2  0  0  0
 22 23  1  0  0  0
 15 16  2  0  0  0
  5  6  1  0  0  0
  6  7  1  0  0  0
 32 33  1  0  0  0
M  END
> <minimizedAffinity>
-8.40453

$$$$
