CHEMBL3909658


 33 36  0  0  0  0  0  0  0  0999 V2000
  -28.9486   -3.4031   -7.5261 C   0  0  0  0  0  0  0  0  0  0  0  0
  -28.8175   -2.4700   -6.4955 C   0  0  0  0  0  0  0  0  0  0  0  0
  -28.8747   -2.8735   -5.1572 C   0  0  0  0  0  0  0  0  0  0  0  0
  -29.1276   -4.2063   -4.8257 C   0  0  0  0  0  0  0  0  0  0  0  0
  -29.4130   -5.1307   -5.8369 C   0  0  0  0  0  0  0  0  0  0  0  0
  -29.2000   -4.7398   -7.1853 C   0  0  0  0  0  0  0  0  0  0  0  0
  -30.3770   -6.2833   -5.5422 C   0  0  0  0  0  0  0  0  0  0  0  0
  -30.3812   -6.8839   -4.2698 C   0  0  0  0  0  0  0  0  0  0  0  0
  -29.2454   -7.7634   -4.3827 C   0  0  0  0  0  0  0  0  0  0  0  0
  -28.2368   -8.1828   -3.5068 C   0  0  0  0  0  0  0  0  0  0  0  0
  -27.1741   -8.9424   -4.0165 C   0  0  0  0  0  0  0  0  0  0  0  0
  -27.1498   -9.3300   -5.3619 C   0  0  0  0  0  0  0  0  0  0  0  0
  -28.1658   -8.9643   -6.2435 C   0  0  0  0  0  0  0  0  0  0  0  0
  -29.1585   -8.1235   -5.7336 C   0  0  0  0  0  0  0  0  0  0  0  0
  -30.2405   -7.4783   -6.3135 N   0  0  0  0  0  0  0  0  0  0  0  0
  -30.9389   -7.8862   -7.4532 C   0  0  0  0  0  0  0  0  0  0  0  0
  -32.2794   -7.6283   -7.3531 N   0  0  0  0  0  0  0  0  0  0  0  0
  -30.4143   -8.5504   -8.3358 O   0  0  0  0  0  0  0  0  0  0  0  0
  -32.6830   -7.4516   -6.4416 H   0  0  0  0  0  0  0  0  0  0  0  0
  -32.8494   -8.1778   -7.9868 H   0  0  0  0  0  0  0  0  0  0  0  0
  -28.0102   -2.0633  -10.8096 N   0  0  0  0  0  0  0  0  0  0  0  0
  -27.7597   -2.4383   -9.4903 C   0  0  0  0  0  0  0  0  0  0  0  0
  -26.6583   -2.3616   -8.9458 O   0  0  0  0  0  0  0  0  0  0  0  0
  -28.8959   -2.9253   -8.8642 N   0  0  0  0  0  0  0  0  0  0  0  0
  -28.9818   -1.8620  -11.0366 H   0  0  0  0  0  0  0  0  0  0  0  0
  -29.5891   -3.3058   -9.4921 H   0  0  0  0  0  0  0  0  0  0  0  0
  -23.6308   -0.0180  -11.9860 C   0  0  0  0  0  0  0  0  0  0  0  0
  -24.8989   -0.7180  -12.3800 C   0  0  0  0  0  0  0  0  0  0  0  0
  -25.1140   -1.0371  -13.7260 C   0  0  0  0  0  0  0  0  0  0  0  0
  -26.2801   -1.6828  -14.1087 C   0  0  0  0  0  0  0  0  0  0  0  0
  -27.2477   -2.0294  -13.1564 C   0  0  0  0  0  0  0  0  0  0  0  0
  -27.0530   -1.7372  -11.7991 C   0  0  0  0  0  0  0  0  0  0  0  0
  -25.8718   -1.0807  -11.4237 C   0  0  0  0  0  0  0  0  0  0  0  0
 27 28  1  0  0  0
 28 29  1  0  0  0
 28 33  2  0  0  0
 29 30  2  0  0  0
 30 31  1  0  0  0
 31 32  2  0  0  0
 32 21  1  0  0  0
 32 33  1  0  0  0
 21 22  1  0  0  0
 21 25  1  0  0  0
 22 23  2  0  0  0
 22 24  1  0  0  0
 24  1  1  0  0  0
 24 26  1  0  0  0
  1  2  1  0  0  0
  1  6  2  0  0  0
  2  3  2  0  0  0
  3  4  1  0  0  0
  4  5  2  0  0  0
  5  7  1  0  0  0
  5  6  1  0  0  0
  7  8  2  0  0  0
  7 15  1  0  0  0
  8  9  1  0  0  0
  9 10  1  0  0  0
  9 14  2  0  0  0
 10 11  2  0  0  0
 11 12  1  0  0  0
 12 13  2  0  0  0
 13 14  1  0  0  0
 14 15  1  0  0  0
 15 16  1  0  0  0
 16 17  1  0  0  0
 16 18  2  0  0  0
 17 19  1  0  0  0
 17 20  1  0  0  0
M  END
> <minimizedAffinity>
-9.88439

$$$$
