CHEMBL1271720


 24 26  0  0  0  0  0  0  0  0999 V2000
  -22.7225   -0.4912  -11.8018 O   0  0  0  0  0  0  0  0  0  0  0  0
  -23.6350   -0.1696  -12.5589 C   0  0  0  0  0  0  0  0  0  0  0  0
  -23.5212    0.7531  -13.5805 N   0  0  0  0  0  0  0  0  0  0  0  0
  -24.3801    1.0106  -14.0613 H   0  0  0  0  0  0  0  0  0  0  0  0
  -22.3374    1.4331  -13.9375 C   0  0  0  0  0  0  0  0  0  0  0  0
  -22.2201    2.8170  -13.9908 C   0  0  0  0  0  0  0  0  0  0  0  0
  -21.1022    3.4809  -14.3722 N   0  0  0  0  0  0  0  0  0  0  0  0
  -20.0414    2.7538  -14.7451 C   0  0  0  0  0  0  0  0  0  0  0  0
  -18.9091    3.4122  -15.1986 C   0  0  0  0  0  0  0  0  0  0  0  0
  -17.7830    2.7128  -15.6364 C   0  0  0  0  0  0  0  0  0  0  0  0
  -17.7796    1.3233  -15.6096 C   0  0  0  0  0  0  0  0  0  0  0  0
  -18.9010    0.6371  -15.1414 C   0  0  0  0  0  0  0  0  0  0  0  0
  -20.0408    1.3426  -14.7119 C   0  0  0  0  0  0  0  0  0  0  0  0
  -21.2061    0.6903  -14.2689 C   0  0  0  0  0  0  0  0  0  0  0  0
  -24.9771   -0.7897  -12.3355 C   0  0  0  0  0  0  0  0  0  0  0  0
  -25.3870   -0.9285  -10.9956 C   0  0  0  0  0  0  0  0  0  0  0  0
  -26.6021   -1.5332  -10.6825 C   0  0  0  0  0  0  0  0  0  0  0  0
  -27.1212   -1.7096   -8.8737 Br  0  0  0  0  0  0  0  0  0  0  0  0
  -27.4307   -2.0128  -11.6901 C   0  0  0  0  0  0  0  0  0  0  0  0
  -27.0383   -1.8723  -13.0211 C   0  0  0  0  0  0  0  0  0  0  0  0
  -28.1835   -2.5415  -14.3775 Br  0  0  0  0  0  0  0  0  0  0  0  0
  -25.8203   -1.2573  -13.3520 C   0  0  0  0  0  0  0  0  0  0  0  0
  -25.4605   -1.1175  -14.6707 O   0  0  0  0  0  0  0  0  0  0  0  0
  -26.1368   -1.5764  -15.2087 H   0  0  0  0  0  0  0  0  0  0  0  0
  1  2  2  0  0  0
  2  3  1  0  0  0
  2 15  1  0  0  0
  3  5  1  0  0  0
  3  4  1  0  0  0
  5  6  1  0  0  0
  5 14  2  0  0  0
  6  7  2  0  0  0
  7  8  1  0  0  0
  8  9  1  0  0  0
  8 13  2  0  0  0
  9 10  2  0  0  0
 10 11  1  0  0  0
 11 12  2  0  0  0
 12 13  1  0  0  0
 13 14  1  0  0  0
 15 16  1  0  0  0
 15 22  2  0  0  0
 16 17  2  0  0  0
 17 18  1  0  0  0
 17 19  1  0  0  0
 19 20  2  0  0  0
 20 21  1  0  0  0
 20 22  1  0  0  0
 22 23  1  0  0  0
 23 24  1  0  0  0
M  END
> <minimizedAffinity>
-9.18356

$$$$
