CHEMBL2016906


 30 33  0  0  0  0  0  0  0  0999 V2000
  -26.2358  -11.1309   -4.1523 C   0  0  0  0  0  0  0  0  0  0  0  0
  -26.6135  -12.3034   -4.1370 O   0  0  0  0  0  0  0  0  0  0  0  0
  -27.0113  -10.1012   -4.7065 N   0  0  0  0  0  0  0  0  0  0  0  0
  -28.3296  -10.4981   -5.2654 C   0  0  0  0  0  0  0  0  0  0  0  0
  -29.3493   -9.4253   -5.6940 C   0  0  0  0  0  0  0  0  0  0  0  0
  -28.9080   -8.0682   -5.3562 C   0  0  0  0  0  0  0  0  0  0  0  0
  -29.6231   -6.9290   -5.5778 N   0  0  0  0  0  0  0  0  0  0  0  0
  -28.8518   -5.9365   -5.1556 C   0  0  0  0  0  0  0  0  0  0  0  0
  -27.6614   -6.4314   -4.6672 N   0  0  0  0  0  0  0  0  0  0  0  0
  -27.7213   -7.7885   -4.7612 C   0  0  0  0  0  0  0  0  0  0  0  0
  -26.7203   -8.7333   -4.2728 C   0  0  0  0  0  0  0  0  0  0  0  0
  -26.8999   -5.8645   -4.3060 H   0  0  0  0  0  0  0  0  0  0  0  0
  -29.0870   -4.5359   -5.1600 C   0  0  0  0  0  0  0  0  0  0  0  0
  -28.3907   -3.7779   -6.0262 C   0  0  0  0  0  0  0  0  0  0  0  0
  -28.5553   -2.3291   -6.0575 C   0  0  0  0  0  0  0  0  0  0  0  0
  -27.8517   -1.5359   -6.9665 C   0  0  0  0  0  0  0  0  0  0  0  0
  -28.0182   -0.1497   -6.9562 C   0  0  0  0  0  0  0  0  0  0  0  0
  -28.8810    0.4466   -6.0361 C   0  0  0  0  0  0  0  0  0  0  0  0
  -29.5872   -0.3406   -5.1254 C   0  0  0  0  0  0  0  0  0  0  0  0
  -29.4259   -1.7208   -5.1434 C   0  0  0  0  0  0  0  0  0  0  0  0
  -30.1485   -2.5219   -4.2438 N   0  0  0  0  0  0  0  0  0  0  0  0
  -30.0617   -3.8868   -4.2185 C   0  0  0  0  0  0  0  0  0  0  0  0
  -30.7553   -4.5430   -3.4392 O   0  0  0  0  0  0  0  0  0  0  0  0
  -30.7913   -2.0915   -3.5937 H   0  0  0  0  0  0  0  0  0  0  0  0
  -24.8608  -10.7399   -3.5534 C   0  0  0  0  0  0  0  0  0  0  0  0
  -23.7324  -11.5190   -4.1299 N   0  0  0  0  0  0  0  0  0  0  0  0
  -23.3100   -9.7597   -5.9213 C   0  0  0  0  0  0  0  0  0  0  0  0
  -23.5927  -11.2171   -5.5678 C   0  0  0  0  0  0  0  0  0  0  0  0
  -22.4884  -11.3145   -3.3603 C   0  0  0  0  0  0  0  0  0  0  0  0
  -21.3577  -12.2929   -3.6826 C   0  0  0  0  0  0  0  0  0  0  0  0
 27 28  1  0  0  0
 28 26  1  0  0  0
 26 29  1  0  0  0
 26 25  1  0  0  0
 29 30  1  0  0  0
 25  1  1  0  0  0
  1  2  2  0  0  0
  1  3  1  0  0  0
  3  4  1  0  0  0
  3 11  1  0  0  0
  4  5  1  0  0  0
  5  6  1  0  0  0
  6  7  1  0  0  0
  6 10  2  0  0  0
  7  8  2  0  0  0
  8 13  1  0  0  0
  8  9  1  0  0  0
 13 14  2  0  0  0
 13 22  1  0  0  0
 14 15  1  0  0  0
 15 16  1  0  0  0
 15 20  2  0  0  0
 16 17  2  0  0  0
 17 18  1  0  0  0
 18 19  2  0  0  0
 19 20  1  0  0  0
 20 21  1  0  0  0
 21 22  1  0  0  0
 21 24  1  0  0  0
 22 23  2  0  0  0
  9 10  1  0  0  0
  9 12  1  0  0  0
 10 11  1  0  0  0
M  END
> <minimizedAffinity>
-8.01817

$$$$
