CHEMBL566215


 40 44  0  0  0  0  0  0  0  0999 V2000
  -14.9634    0.7459  -14.9634 C   0  0  0  0  0  0  0  0  0  0  0  0
  -15.2452    1.7787  -15.8559 C   0  0  0  0  0  0  0  0  0  0  0  0
  -16.4566    2.4727  -15.7735 C   0  0  0  0  0  0  0  0  0  0  0  0
  -17.4022    2.1480  -14.7988 C   0  0  0  0  0  0  0  0  0  0  0  0
  -17.0384    1.2339  -13.7991 C   0  0  0  0  0  0  0  0  0  0  0  0
  -15.8313    0.5205  -13.8990 C   0  0  0  0  0  0  0  0  0  0  0  0
  -15.5886   -0.4613  -13.0187 F   0  0  0  0  0  0  0  0  0  0  0  0
  -18.7329    2.6440  -14.8300 N   0  0  0  0  0  0  0  0  0  0  0  0
  -19.8636    1.8924  -15.1211 C   0  0  0  0  0  0  0  0  0  0  0  0
  -19.8498    0.7009  -15.4409 O   0  0  0  0  0  0  0  0  0  0  0  0
  -18.8713    3.5939  -14.4936 H   0  0  0  0  0  0  0  0  0  0  0  0
  -21.2222    2.5491  -14.9548 C   0  0  0  0  0  0  0  0  0  0  0  0
  -22.2565    1.8203  -14.1497 C   0  0  0  0  0  0  0  0  0  0  0  0
  -23.0940    2.4378  -13.4943 O   0  0  0  0  0  0  0  0  0  0  0  0
  -22.1438    0.4385  -14.1772 N   0  0  0  0  0  0  0  0  0  0  0  0
  -21.2282    0.0425  -14.3748 H   0  0  0  0  0  0  0  0  0  0  0  0
  -23.0147   -0.3957  -13.4393 C   0  0  0  0  0  0  0  0  0  0  0  0
  -22.7329   -0.7872  -12.1281 C   0  0  0  0  0  0  0  0  0  0  0  0
  -23.5913   -1.6636  -11.4587 C   0  0  0  0  0  0  0  0  0  0  0  0
  -24.7231   -2.1661  -12.1026 C   0  0  0  0  0  0  0  0  0  0  0  0
  -25.0193   -1.7632  -13.4047 C   0  0  0  0  0  0  0  0  0  0  0  0
  -24.1805   -0.8603  -14.0517 C   0  0  0  0  0  0  0  0  0  0  0  0
  -24.4573   -0.4969  -15.3139 F   0  0  0  0  0  0  0  0  0  0  0  0
  -14.0616   -0.1774  -15.4231 O   0  0  0  0  0  0  0  0  0  0  0  0
  -13.2186   -4.4338  -13.4380 C   0  0  0  0  0  0  0  0  0  0  0  0
  -12.2585   -3.7648  -12.7195 C   0  0  0  0  0  0  0  0  0  0  0  0
  -12.1294   -2.4153  -13.1502 C   0  0  0  0  0  0  0  0  0  0  0  0
  -11.3229   -1.5052  -12.5343 N   0  0  0  0  0  0  0  0  0  0  0  0
  -11.4359   -0.2410  -12.9626 C   0  0  0  0  0  0  0  0  0  0  0  0
  -12.2850    0.1728  -13.9689 C   0  0  0  0  0  0  0  0  0  0  0  0
  -13.0822   -0.7666  -14.6323 C   0  0  0  0  0  0  0  0  0  0  0  0
  -12.9922   -2.0986  -14.2116 C   0  0  0  0  0  0  0  0  0  0  0  0
  -13.8270   -3.5066  -14.7274 S   0  0  0  0  0  0  0  0  0  0  0  0
  -13.8019   -7.8288  -12.3548 N   0  0  0  0  0  0  0  0  0  0  0  0
  -14.8902   -7.5687  -13.1367 C   0  0  0  0  0  0  0  0  0  0  0  0
  -14.8791   -6.3275  -13.5684 N   0  0  0  0  0  0  0  0  0  0  0  0
  -13.7193   -5.7816  -13.0679 C   0  0  0  0  0  0  0  0  0  0  0  0
  -13.0605   -6.6862  -12.2714 C   0  0  0  0  0  0  0  0  0  0  0  0
  -12.3200   -9.7753  -12.5223 C   0  0  0  0  0  0  0  0  0  0  0  0
  -13.4518   -9.1023  -11.7670 C   0  0  0  0  0  0  0  0  0  0  0  0
 39 40  1  0  0  0
 40 34  1  0  0  0
 34 35  1  0  0  0
 34 38  1  0  0  0
 35 36  2  0  0  0
 36 37  1  0  0  0
 37 25  1  0  0  0
 37 38  2  0  0  0
 25 26  2  0  0  0
 25 33  1  0  0  0
 26 27  1  0  0  0
 27 28  1  0  0  0
 27 32  2  0  0  0
 28 29  2  0  0  0
 29 30  1  0  0  0
 30 31  2  0  0  0
 31 24  1  0  0  0
 31 32  1  0  0  0
 24  1  1  0  0  0
  1  2  1  0  0  0
  1  6  2  0  0  0
  2  3  2  0  0  0
  3  4  1  0  0  0
  4  8  1  0  0  0
  4  5  2  0  0  0
  8  9  1  0  0  0
  8 11  1  0  0  0
  9 10  2  0  0  0
  9 12  1  0  0  0
 12 13  1  0  0  0
 13 14  2  0  0  0
 13 15  1  0  0  0
 15 17  1  0  0  0
 15 16  1  0  0  0
 17 18  1  0  0  0
 17 22  2  0  0  0
 18 19  2  0  0  0
 19 20  1  0  0  0
 20 21  2  0  0  0
 21 22  1  0  0  0
 22 23  1  0  0  0
  5  6  1  0  0  0
  6  7  1  0  0  0
 32 33  1  0  0  0
M  END
> <minimizedAffinity>
-9.70928

$$$$
