CHEMBL150606


 30 33  0  0  0  0  0  0  0  0999 V2000
  -18.0447    1.0422  -15.0533 C   0  0  0  0  0  0  0  0  0  0  0  0
  -19.3505    0.5839  -14.8783 C   0  0  0  0  0  0  0  0  0  0  0  0
  -20.4137    1.4693  -14.6050 C   0  0  0  0  0  0  0  0  0  0  0  0
  -21.7192    1.0643  -14.2917 C   0  0  0  0  0  0  0  0  0  0  0  0
  -22.6976    1.9543  -14.0501 N   0  0  0  0  0  0  0  0  0  0  0  0
  -22.3725    3.2472  -14.1041 C   0  0  0  0  0  0  0  0  0  0  0  0
  -21.1543    3.7384  -14.3547 N   0  0  0  0  0  0  0  0  0  0  0  0
  -20.1863    2.8491  -14.5928 C   0  0  0  0  0  0  0  0  0  0  0  0
  -18.8936    3.3008  -14.8340 C   0  0  0  0  0  0  0  0  0  0  0  0
  -17.8302    2.4276  -15.0915 C   0  0  0  0  0  0  0  0  0  0  0  0
  -16.2206   -0.1264  -14.0192 C   0  0  0  0  0  0  0  0  0  0  0  0
  -16.9790    0.2014  -15.1819 O   0  0  0  0  0  0  0  0  0  0  0  0
  -22.0075   -0.3211  -14.1647 N   0  0  0  0  0  0  0  0  0  0  0  0
  -21.9115   -0.7929  -15.0590 H   0  0  0  0  0  0  0  0  0  0  0  0
  -23.0827   -0.8419  -13.4096 C   0  0  0  0  0  0  0  0  0  0  0  0
  -22.9173   -1.2132  -12.0696 C   0  0  0  0  0  0  0  0  0  0  0  0
  -24.0053   -1.6514  -11.3124 C   0  0  0  0  0  0  0  0  0  0  0  0
  -25.2643   -1.7416  -11.9020 C   0  0  0  0  0  0  0  0  0  0  0  0
  -26.6124   -2.2250  -10.9506 Cl  0  0  0  0  0  0  0  0  0  0  0  0
  -25.4407   -1.4338  -13.2468 C   0  0  0  0  0  0  0  0  0  0  0  0
  -24.3469   -0.9988  -13.9907 C   0  0  0  0  0  0  0  0  0  0  0  0
  -24.5189   -0.6904  -15.2849 F   0  0  0  0  0  0  0  0  0  0  0  0
  -16.6459    3.0774  -15.3383 O   0  0  0  0  0  0  0  0  0  0  0  0
  -16.3510    3.3982  -16.7014 C   0  0  0  0  0  0  0  0  0  0  0  0
  -15.3305    4.5276  -16.7456 C   0  0  0  0  0  0  0  0  0  0  0  0
  -14.0818    4.1662  -16.1155 N   0  0  0  0  0  0  0  0  0  0  0  0
  -13.3126    3.0717  -16.3586 C   0  0  0  0  0  0  0  0  0  0  0  0
  -12.2701    3.0859  -15.5596 N   0  0  0  0  0  0  0  0  0  0  0  0
  -12.4558    4.2272  -14.8339 C   0  0  0  0  0  0  0  0  0  0  0  0
  -13.5642    4.9157  -15.1254 N   0  0  0  0  0  0  0  0  0  0  0  0
 11 12  1  0  0  0
 12  1  1  0  0  0
  1  2  1  0  0  0
  1 10  2  0  0  0
  2  3  2  0  0  0
  3  4  1  0  0  0
  3  8  1  0  0  0
  4 13  1  0  0  0
  4  5  2  0  0  0
 13 15  1  0  0  0
 13 14  1  0  0  0
 15 16  1  0  0  0
 15 21  2  0  0  0
 16 17  2  0  0  0
 17 18  1  0  0  0
 18 19  1  0  0  0
 18 20  2  0  0  0
 20 21  1  0  0  0
 21 22  1  0  0  0
  5  6  1  0  0  0
  6  7  2  0  0  0
  7  8  1  0  0  0
  8  9  2  0  0  0
  9 10  1  0  0  0
 10 23  1  0  0  0
 23 24  1  0  0  0
 24 25  1  0  0  0
 25 26  1  0  0  0
 26 27  1  0  0  0
 26 30  1  0  0  0
 27 28  2  0  0  0
 28 29  1  0  0  0
 29 30  2  0  0  0
M  END
> <minimizedAffinity>
-8.77625

$$$$
