CHEMBL4068447


 40 46  0  0  0  0  0  0  0  0999 V2000
  -21.7781   -0.4721  -14.6630 N   0  0  0  0  0  0  0  0  0  0  0  0
  -21.5359   -1.3350  -15.1298 H   0  0  0  0  0  0  0  0  0  0  0  0
  -19.1987    1.7052  -14.9512 N   0  0  0  0  0  0  0  0  0  0  0  0
  -19.7489    0.5432  -15.3076 N   0  0  0  0  0  0  0  0  0  0  0  0
  -20.9614    0.5892  -14.7667 C   0  0  0  0  0  0  0  0  0  0  0  0
  -21.2988    1.7971  -14.2465 N   0  0  0  0  0  0  0  0  0  0  0  0
  -20.1745    2.4801  -14.3198 C   0  0  0  0  0  0  0  0  0  0  0  0
  -19.9762    3.7213  -13.8387 N   0  0  0  0  0  0  0  0  0  0  0  0
  -20.7763    4.2589  -13.5261 H   0  0  0  0  0  0  0  0  0  0  0  0
  -19.1339    4.2484  -14.0581 H   0  0  0  0  0  0  0  0  0  0  0  0
  -13.0088    1.0844  -14.1730 C   0  0  0  0  0  0  0  0  0  0  0  0
  -14.4849    0.9499  -14.0112 C   0  0  0  0  0  0  0  0  0  0  0  0
  -15.0939    0.1107  -13.1046 C   0  0  0  0  0  0  0  0  0  0  0  0
  -16.7861    0.1864  -13.1876 S   0  0  0  0  0  0  0  0  0  0  0  0
  -16.7814    1.3487  -14.4718 C   0  0  0  0  0  0  0  0  0  0  0  0
  -17.8235    1.9685  -15.2008 C   0  0  0  0  0  0  0  0  0  0  0  0
  -17.4892    2.8620  -16.1712 N   0  0  0  0  0  0  0  0  0  0  0  0
  -16.1902    3.1065  -16.3689 C   0  0  0  0  0  0  0  0  0  0  0  0
  -15.8346    4.2618  -17.5762 Cl  0  0  0  0  0  0  0  0  0  0  0  0
  -15.1390    2.5703  -15.7518 N   0  0  0  0  0  0  0  0  0  0  0  0
  -15.4586    1.6705  -14.7910 C   0  0  0  0  0  0  0  0  0  0  0  0
  -22.8724   -0.5040  -13.7754 C   0  0  0  0  0  0  0  0  0  0  0  0
  -22.6398   -0.5327  -12.3929 C   0  0  0  0  0  0  0  0  0  0  0  0
  -23.6431   -0.8567  -11.4871 C   0  0  0  0  0  0  0  0  0  0  0  0
  -24.9348   -1.1496  -11.9182 C   0  0  0  0  0  0  0  0  0  0  0  0
  -25.1758   -1.0542  -13.3019 C   0  0  0  0  0  0  0  0  0  0  0  0
  -24.1656   -0.7325  -14.2235 C   0  0  0  0  0  0  0  0  0  0  0  0
  -25.9214   -1.4616  -11.0052 N   0  0  0  0  0  0  0  0  0  0  0  0
  -27.0352   -2.3316  -11.3839 C   0  0  0  0  0  0  0  0  0  0  0  0
  -28.3263   -1.8052  -10.7302 C   0  0  0  0  0  0  0  0  0  0  0  0
  -28.2722   -1.6993   -9.2510 N   0  0  0  0  0  0  0  0  0  0  0  0
  -27.1225   -0.8232   -8.9155 C   0  0  0  0  0  0  0  0  0  0  0  0
  -25.7668   -1.2084   -9.5600 C   0  0  0  0  0  0  0  0  0  0  0  0
  -28.2175   -3.0127   -8.5902 C   0  0  0  0  0  0  0  0  0  0  0  0
  -29.6005   -3.7208   -8.5495 C   0  0  0  0  0  0  0  0  0  0  0  0
  -29.8700   -3.8939   -7.0505 C   0  0  0  0  0  0  0  0  0  0  0  0
  -30.0900   -2.5051   -6.4151 C   0  0  0  0  0  0  0  0  0  0  0  0
  -28.6674   -1.9413   -6.3138 C   0  0  0  0  0  0  0  0  0  0  0  0
  -27.8383   -2.9869   -7.0750 C   0  0  0  0  0  0  0  0  0  0  0  0
  -28.4815   -4.2779   -6.5530 C   0  0  0  0  0  0  0  0  0  0  0  0
 11 12  1  0  0  0
 12 13  2  0  0  0
 12 21  1  0  0  0
 13 14  1  0  0  0
 14 15  1  0  0  0
 15 16  1  0  0  0
 15 21  2  0  0  0
 16  3  1  0  0  0
 16 17  2  0  0  0
  3  4  1  0  0  0
  3  7  1  0  0  0
  4  5  2  0  0  0
  5  1  1  0  0  0
  5  6  1  0  0  0
  1 22  1  0  0  0
  1  2  1  0  0  0
 22 23  1  0  0  0
 22 27  2  0  0  0
 23 24  2  0  0  0
 24 25  1  0  0  0
 25 28  1  0  0  0
 25 26  2  0  0  0
 28 29  1  0  0  0
 28 33  1  0  0  0
 29 30  1  0  0  0
 30 31  1  0  0  0
 31 34  1  0  0  0
 31 32  1  0  0  0
 34 35  1  0  0  0
 34 39  1  0  0  0
 35 36  1  0  0  0
 36 37  1  0  0  0
 36 40  1  0  0  0
 37 38  1  0  0  0
 38 39  1  0  0  0
 39 40  1  0  0  0
 32 33  1  0  0  0
 26 27  1  0  0  0
  6  7  2  0  0  0
  7  8  1  0  0  0
  8  9  1  0  0  0
  8 10  1  0  0  0
 17 18  1  0  0  0
 18 19  1  0  0  0
 18 20  2  0  0  0
 20 21  1  0  0  0
M  END
> <minimizedAffinity>
-6.76545

$$$$
