CHEMBL424664


 38 42  0  0  0  0  0  0  0  0999 V2000
  -28.2606   -8.6335   -7.1522 C   0  0  0  0  0  0  0  0  0  0  0  0
  -28.0555   -8.1432   -8.3995 N   0  0  0  0  0  0  0  0  0  0  0  0
  -28.2467   -6.8400   -8.5834 C   0  0  0  0  0  0  0  0  0  0  0  0
  -28.6791   -5.9896   -7.6581 N   0  0  0  0  0  0  0  0  0  0  0  0
  -28.9037   -6.4896   -6.4424 C   0  0  0  0  0  0  0  0  0  0  0  0
  -29.3923   -5.5889   -5.5226 C   0  0  0  0  0  0  0  0  0  0  0  0
  -29.6987   -5.9583   -4.2181 C   0  0  0  0  0  0  0  0  0  0  0  0
  -29.4388   -7.2598   -3.8005 C   0  0  0  0  0  0  0  0  0  0  0  0
  -28.9118   -8.1955   -4.6971 C   0  0  0  0  0  0  0  0  0  0  0  0
  -28.6850   -7.8250   -6.0710 C   0  0  0  0  0  0  0  0  0  0  0  0
  -28.0572  -10.0175   -6.9636 N   0  0  0  0  0  0  0  0  0  0  0  0
  -28.8985  -10.5150   -7.2395 H   0  0  0  0  0  0  0  0  0  0  0  0
  -24.7148  -11.2618   -7.0908 C   0  0  0  0  0  0  0  0  0  0  0  0
  -24.6784  -12.1191   -8.1757 C   0  0  0  0  0  0  0  0  0  0  0  0
  -25.8344  -12.2689   -8.9297 C   0  0  0  0  0  0  0  0  0  0  0  0
  -26.9847  -11.5690   -8.5661 C   0  0  0  0  0  0  0  0  0  0  0  0
  -28.3362  -11.6641   -9.6427 Cl  0  0  0  0  0  0  0  0  0  0  0  0
  -26.9552  -10.7585   -7.4177 C   0  0  0  0  0  0  0  0  0  0  0  0
  -25.8171  -10.5857   -6.6970 N   0  0  0  0  0  0  0  0  0  0  0  0
  -23.0935   -9.7552   -6.3370 C   0  0  0  0  0  0  0  0  0  0  0  0
  -23.5270  -11.1094   -6.4018 O   0  0  0  0  0  0  0  0  0  0  0  0
  -30.2495   -5.1286   -3.2767 O   0  0  0  0  0  0  0  0  0  0  0  0
  -30.7005   -3.8589   -3.7628 C   0  0  0  0  0  0  0  0  0  0  0  0
  -29.7817   -2.7602   -3.2459 C   0  0  0  0  0  0  0  0  0  0  0  0
  -29.5521   -1.6800   -4.3075 C   0  0  0  0  0  0  0  0  0  0  0  0
  -28.1278   -1.3747   -4.5246 N   0  0  0  0  0  0  0  0  0  0  0  0
  -27.8810   -0.0233   -5.0774 C   0  0  0  0  0  0  0  0  0  0  0  0
  -28.2963    0.1400   -6.5492 C   0  0  0  0  0  0  0  0  0  0  0  0
  -27.6600   -0.8361   -7.3848 O   0  0  0  0  0  0  0  0  0  0  0  0
  -27.9506   -2.1654   -6.9245 C   0  0  0  0  0  0  0  0  0  0  0  0
  -27.5209   -2.3548   -5.4577 C   0  0  0  0  0  0  0  0  0  0  0  0
  -28.6263   -9.4897   -4.3260 O   0  0  0  0  0  0  0  0  0  0  0  0
  -27.5009   -9.7577   -3.4597 C   0  0  0  0  0  0  0  0  0  0  0  0
  -26.2278   -9.0426   -3.9332 C   0  0  0  0  0  0  0  0  0  0  0  0
  -24.9837   -9.5818   -3.2402 C   0  0  0  0  0  0  0  0  0  0  0  0
  -24.8897  -10.9950   -3.3913 O   0  0  0  0  0  0  0  0  0  0  0  0
  -25.9870  -11.6666   -2.7799 C   0  0  0  0  0  0  0  0  0  0  0  0
  -27.2926  -11.2781   -3.4551 C   0  0  0  0  0  0  0  0  0  0  0  0
 20 21  1  0  0  0
 21 13  1  0  0  0
 13 14  1  0  0  0
 13 19  2  0  0  0
 14 15  2  0  0  0
 15 16  1  0  0  0
 16 17  1  0  0  0
 16 18  2  0  0  0
 18 11  1  0  0  0
 18 19  1  0  0  0
 11  1  1  0  0  0
 11 12  1  0  0  0
  1  2  1  0  0  0
  1 10  2  0  0  0
  2  3  2  0  0  0
  3  4  1  0  0  0
  4  5  2  0  0  0
  5  6  1  0  0  0
  5 10  1  0  0  0
  6  7  2  0  0  0
  7 22  1  0  0  0
  7  8  1  0  0  0
 22 23  1  0  0  0
 23 24  1  0  0  0
 24 25  1  0  0  0
 25 26  1  0  0  0
 26 27  1  0  0  0
 26 31  1  0  0  0
 27 28  1  0  0  0
 28 29  1  0  0  0
 29 30  1  0  0  0
 30 31  1  0  0  0
  8  9  2  0  0  0
  9 32  1  0  0  0
  9 10  1  0  0  0
 32 33  1  0  0  0
 33 34  1  0  0  0
 33 38  1  0  0  0
 34 35  1  0  0  0
 35 36  1  0  0  0
 36 37  1  0  0  0
 37 38  1  0  0  0
M  END
> <minimizedAffinity>
-7.35528

$$$$
