CHEMBL3633770


 31 33  0  0  0  0  0  0  0  0999 V2000
  -15.0799   -6.8983  -12.9545 C   0  0  0  0  0  0  0  0  0  0  0  0
  -15.2720   -6.2398  -11.7354 C   0  0  0  0  0  0  0  0  0  0  0  0
  -15.4096   -4.8652  -11.6470 C   0  0  0  0  0  0  0  0  0  0  0  0
  -15.5220   -4.3340  -10.4274 N   0  0  0  0  0  0  0  0  0  0  0  0
  -15.6321   -3.0073  -10.3598 C   0  0  0  0  0  0  0  0  0  0  0  0
  -15.6711   -2.1772  -11.4004 N   0  0  0  0  0  0  0  0  0  0  0  0
  -15.5764   -2.7244  -12.6294 C   0  0  0  0  0  0  0  0  0  0  0  0
  -15.4125   -4.1066  -12.8220 C   0  0  0  0  0  0  0  0  0  0  0  0
  -15.2516   -4.7603  -14.0708 C   0  0  0  0  0  0  0  0  0  0  0  0
  -15.1195   -6.1510  -14.1428 C   0  0  0  0  0  0  0  0  0  0  0  0
  -13.6232   -8.7798  -12.5687 C   0  0  0  0  0  0  0  0  0  0  0  0
  -14.8526   -8.2417  -13.0430 O   0  0  0  0  0  0  0  0  0  0  0  0
  -15.6744   -1.8583  -13.7538 N   0  0  0  0  0  0  0  0  0  0  0  0
  -16.6261   -1.4956  -13.8006 H   0  0  0  0  0  0  0  0  0  0  0  0
  -14.7333   -0.8252  -14.0140 C   0  0  0  0  0  0  0  0  0  0  0  0
  -13.4023   -1.1553  -14.3188 C   0  0  0  0  0  0  0  0  0  0  0  0
  -12.4463   -0.1593  -14.4997 C   0  0  0  0  0  0  0  0  0  0  0  0
  -10.8122   -0.5952  -14.8126 Cl  0  0  0  0  0  0  0  0  0  0  0  0
  -12.8027    1.1838  -14.4121 C   0  0  0  0  0  0  0  0  0  0  0  0
  -14.1305    1.5328  -14.1561 C   0  0  0  0  0  0  0  0  0  0  0  0
  -15.0906    0.5340  -13.9642 C   0  0  0  0  0  0  0  0  0  0  0  0
  -16.7176    1.0067  -13.6208 Cl  0  0  0  0  0  0  0  0  0  0  0  0
  -14.9915   -6.6512  -15.4210 O   0  0  0  0  0  0  0  0  0  0  0  0
  -13.6668   -6.5373  -15.9545 C   0  0  0  0  0  0  0  0  0  0  0  0
  -13.6813   -6.7240  -17.4669 C   0  0  0  0  0  0  0  0  0  0  0  0
  -13.7412   -8.2047  -17.7769 C   0  0  0  0  0  0  0  0  0  0  0  0
  -13.7869   -8.6695  -18.9157 O   0  0  0  0  0  0  0  0  0  0  0  0
  -13.7422   -9.0266  -16.6765 N   0  0  0  0  0  0  0  0  0  0  0  0
  -13.9229  -10.4003  -16.9663 O   0  0  0  0  0  0  0  0  0  0  0  0
  -13.9887   -8.7267  -15.7391 H   0  0  0  0  0  0  0  0  0  0  0  0
  -13.9709  -10.4063  -17.9455 H   0  0  0  0  0  0  0  0  0  0  0  0
 11 12  1  0  0  0
 12  1  1  0  0  0
  1  2  1  0  0  0
  1 10  2  0  0  0
  2  3  2  0  0  0
  3  4  1  0  0  0
  3  8  1  0  0  0
  4  5  2  0  0  0
  5  6  1  0  0  0
  6  7  2  0  0  0
  7 13  1  0  0  0
  7  8  1  0  0  0
 13 15  1  0  0  0
 13 14  1  0  0  0
 15 16  1  0  0  0
 15 21  2  0  0  0
 16 17  2  0  0  0
 17 18  1  0  0  0
 17 19  1  0  0  0
 19 20  2  0  0  0
 20 21  1  0  0  0
 21 22  1  0  0  0
  8  9  2  0  0  0
  9 10  1  0  0  0
 10 23  1  0  0  0
 23 24  1  0  0  0
 24 25  1  0  0  0
 25 26  1  0  0  0
 26 27  2  0  0  0
 26 28  1  0  0  0
 28 29  1  0  0  0
 28 30  1  0  0  0
 29 31  1  0  0  0
M  END
> <minimizedAffinity>
-7.17312

$$$$
