CHEMBL4225562


 31 33  0  0  0  0  0  0  0  0999 V2000
  -29.2403   -2.8885   -6.5337 C   0  0  0  0  0  0  0  0  0  0  0  0
  -28.9445   -1.6038   -6.0670 C   0  0  0  0  0  0  0  0  0  0  0  0
  -28.1545   -0.7450   -6.8304 C   0  0  0  0  0  0  0  0  0  0  0  0
  -27.6379   -1.1782   -8.0506 C   0  0  0  0  0  0  0  0  0  0  0  0
  -27.9237   -2.4625   -8.5241 C   0  0  0  0  0  0  0  0  0  0  0  0
  -28.7238   -3.3163   -7.7638 C   0  0  0  0  0  0  0  0  0  0  0  0
  -27.2512   -2.8852   -9.6817 N   0  0  0  0  0  0  0  0  0  0  0  0
  -27.1585   -3.8885   -9.7958 H   0  0  0  0  0  0  0  0  0  0  0  0
  -26.7456   -2.1588  -10.7385 C   0  0  0  0  0  0  0  0  0  0  0  0
  -27.6155   -1.6151  -12.0540 S   0  0  0  0  0  0  0  0  0  0  0  0
  -25.4469   -1.7320  -10.5342 N   0  0  0  0  0  0  0  0  0  0  0  0
  -25.1192   -1.7058   -9.5744 H   0  0  0  0  0  0  0  0  0  0  0  0
  -24.5963   -1.2448  -11.5501 C   0  0  0  0  0  0  0  0  0  0  0  0
  -23.7796   -2.1152  -12.2859 C   0  0  0  0  0  0  0  0  0  0  0  0
  -22.8523   -1.6231  -13.2003 C   0  0  0  0  0  0  0  0  0  0  0  0
  -22.7560   -0.2515  -13.3982 C   0  0  0  0  0  0  0  0  0  0  0  0
  -21.5450    0.3696  -14.4481 Cl  0  0  0  0  0  0  0  0  0  0  0  0
  -23.6251    0.6188  -12.7371 C   0  0  0  0  0  0  0  0  0  0  0  0
  -24.5666    0.1203  -11.8278 C   0  0  0  0  0  0  0  0  0  0  0  0
  -30.1645   -4.0185   -5.5179 S   0  0  0  0  0  0  0  0  0  0  0  0
  -28.8181   -8.0639   -7.0852 C   0  0  0  0  0  0  0  0  0  0  0  0
  -29.8738   -7.4316   -7.7411 C   0  0  0  0  0  0  0  0  0  0  0  0
  -30.3393   -6.1972   -7.2729 C   0  0  0  0  0  0  0  0  0  0  0  0
  -29.7378   -5.6291   -6.1466 C   0  0  0  0  0  0  0  0  0  0  0  0
  -28.7282   -6.2440   -5.4906 N   0  0  0  0  0  0  0  0  0  0  0  0
  -28.2979   -7.4435   -5.9608 C   0  0  0  0  0  0  0  0  0  0  0  0
  -26.2854  -10.8398   -7.4515 C   0  0  0  0  0  0  0  0  0  0  0  0
  -26.9327   -9.5920   -7.1343 N   0  0  0  0  0  0  0  0  0  0  0  0
  -28.2383   -9.3522   -7.5278 C   0  0  0  0  0  0  0  0  0  0  0  0
  -28.9125  -10.1486   -8.1720 O   0  0  0  0  0  0  0  0  0  0  0  0
  -26.4937   -8.9899   -6.4509 H   0  0  0  0  0  0  0  0  0  0  0  0
 27 28  1  0  0  0
 28 29  1  0  0  0
 28 31  1  0  0  0
 29 30  2  0  0  0
 29 21  1  0  0  0
 21 22  1  0  0  0
 21 26  2  0  0  0
 22 23  2  0  0  0
 23 24  1  0  0  0
 24 20  1  0  0  0
 24 25  2  0  0  0
 20  1  1  0  0  0
  1  2  1  0  0  0
  1  6  2  0  0  0
  2  3  2  0  0  0
  3  4  1  0  0  0
  4  5  2  0  0  0
  5  7  1  0  0  0
  5  6  1  0  0  0
  7  9  1  0  0  0
  7  8  1  0  0  0
  9 10  2  0  0  0
  9 11  1  0  0  0
 11 13  1  0  0  0
 11 12  1  0  0  0
 13 14  1  0  0  0
 13 19  2  0  0  0
 14 15  2  0  0  0
 15 16  1  0  0  0
 16 17  1  0  0  0
 16 18  2  0  0  0
 18 19  1  0  0  0
 25 26  1  0  0  0
M  END
> <minimizedAffinity>
-9.21341

$$$$
