CHEMBL475924


 25 27  0  0  0  0  0  0  0  0999 V2000
  -14.7670    2.3217  -15.6166 F   0  0  0  0  0  0  0  0  0  0  0  0
  -14.9828    1.3327  -14.7395 C   0  0  0  0  0  0  0  0  0  0  0  0
  -14.0667    1.0332  -13.7723 C   0  0  0  0  0  0  0  0  0  0  0  0
  -14.2419    0.0376  -12.8903 N   0  0  0  0  0  0  0  0  0  0  0  0
  -15.3792   -0.6780  -12.9661 C   0  0  0  0  0  0  0  0  0  0  0  0
  -16.3520   -0.4133  -13.8472 N   0  0  0  0  0  0  0  0  0  0  0  0
  -16.1421    0.5786  -14.7477 C   0  0  0  0  0  0  0  0  0  0  0  0
  -15.5714   -1.7422  -12.0866 N   0  0  0  0  0  0  0  0  0  0  0  0
  -15.9632   -1.4389  -11.2103 H   0  0  0  0  0  0  0  0  0  0  0  0
  -15.7091   -3.1010  -12.4248 C   0  0  0  0  0  0  0  0  0  0  0  0
  -16.4658   -3.9507  -11.6092 C   0  0  0  0  0  0  0  0  0  0  0  0
  -16.5063   -5.3285  -11.8571 C   0  0  0  0  0  0  0  0  0  0  0  0
  -15.8064   -5.8703  -12.9359 C   0  0  0  0  0  0  0  0  0  0  0  0
  -15.0809   -5.0295  -13.7696 C   0  0  0  0  0  0  0  0  0  0  0  0
  -14.1231   -5.7388  -15.2380 Br  0  0  0  0  0  0  0  0  0  0  0  0
  -15.0348   -3.6598  -13.5197 C   0  0  0  0  0  0  0  0  0  0  0  0
  -17.1440    0.8972  -15.6972 N   0  0  0  0  0  0  0  0  0  0  0  0
  -17.1576    0.2327  -16.4631 H   0  0  0  0  0  0  0  0  0  0  0  0
  -18.3724    1.5191  -15.4148 C   0  0  0  0  0  0  0  0  0  0  0  0
  -18.4999    2.9131  -15.4980 C   0  0  0  0  0  0  0  0  0  0  0  0
  -19.6961    3.5513  -15.1752 C   0  0  0  0  0  0  0  0  0  0  0  0
  -20.7881    2.7962  -14.7606 C   0  0  0  0  0  0  0  0  0  0  0  0
  -20.6785    1.4080  -14.6917 C   0  0  0  0  0  0  0  0  0  0  0  0
  -22.1635    0.3864  -14.1172 Br  0  0  0  0  0  0  0  0  0  0  0  0
  -19.4833    0.7654  -15.0240 C   0  0  0  0  0  0  0  0  0  0  0  0
  1  2  1  0  0  0
  2  3  1  0  0  0
  2  7  2  0  0  0
  3  4  2  0  0  0
  4  5  1  0  0  0
  5  8  1  0  0  0
  5  6  2  0  0  0
  8 10  1  0  0  0
  8  9  1  0  0  0
 10 11  1  0  0  0
 10 16  2  0  0  0
 11 12  2  0  0  0
 12 13  1  0  0  0
 13 14  2  0  0  0
 14 15  1  0  0  0
 14 16  1  0  0  0
  6  7  1  0  0  0
  7 17  1  0  0  0
 17 19  1  0  0  0
 17 18  1  0  0  0
 19 20  1  0  0  0
 19 25  2  0  0  0
 20 21  2  0  0  0
 21 22  1  0  0  0
 22 23  2  0  0  0
 23 24  1  0  0  0
 23 25  1  0  0  0
M  END
> <minimizedAffinity>
-8.68698

$$$$
