CHEMBL407944


 39 43  0  0  0  0  0  0  0  0999 V2000
  -30.5932   11.7778  -12.7701 C   0  0  0  0  0  0  0  0  0  0  0  0
  -30.8143   11.1572  -13.9749 C   0  0  0  0  0  0  0  0  0  0  0  0
  -29.6288   11.1078  -14.6441 N   0  0  0  0  0  0  0  0  0  0  0  0
  -29.5142   10.6247  -15.8890 N   0  0  0  0  0  0  0  0  0  0  0  0
  -28.3010   10.6229  -16.3388 C   0  0  0  0  0  0  0  0  0  0  0  0
  -27.1897   11.0292  -15.6644 N   0  0  0  0  0  0  0  0  0  0  0  0
  -27.2842   11.5189  -14.4579 C   0  0  0  0  0  0  0  0  0  0  0  0
  -28.6092   11.6138  -13.8710 C   0  0  0  0  0  0  0  0  0  0  0  0
  -29.1721   12.0648  -12.6643 C   0  0  0  0  0  0  0  0  0  0  0  0
  -33.6108   12.3956  -10.9145 C   0  0  0  0  0  0  0  0  0  0  0  0
  -32.7270   12.6588   -9.9811 N   0  0  0  0  0  0  0  0  0  0  0  0
  -31.4988   12.4254  -10.5365 N   0  0  0  0  0  0  0  0  0  0  0  0
  -31.6951   12.0559  -11.7920 C   0  0  0  0  0  0  0  0  0  0  0  0
  -33.0402   12.0034  -12.0908 O   0  0  0  0  0  0  0  0  0  0  0  0
  -34.9530   12.4982  -10.8979 N   0  0  0  0  0  0  0  0  0  0  0  0
  -35.3546   12.7402   -9.9981 H   0  0  0  0  0  0  0  0  0  0  0  0
  -35.6931   11.5055  -11.6623 C   0  0  0  0  0  0  0  0  0  0  0  0
  -34.5111    9.4480  -12.5083 C   0  0  0  0  0  0  0  0  0  0  0  0
  -35.1964   10.1029  -11.3192 C   0  0  0  0  0  0  0  0  0  0  0  0
  -28.5747   12.6558  -11.3937 C   0  0  0  0  0  0  0  0  0  0  0  0
  -29.2524   12.0836  -10.1474 C   0  0  0  0  0  0  0  0  0  0  0  0
  -27.0623   12.6453  -11.2332 C   0  0  0  0  0  0  0  0  0  0  0  0
  -26.1271   11.9395  -13.8328 N   0  0  0  0  0  0  0  0  0  0  0  0
  -26.1810   12.9130  -13.5490 H   0  0  0  0  0  0  0  0  0  0  0  0
  -24.8166   11.6209  -14.2798 C   0  0  0  0  0  0  0  0  0  0  0  0
  -24.4611   11.6401  -15.6375 C   0  0  0  0  0  0  0  0  0  0  0  0
  -23.1633   11.2912  -16.0608 C   0  0  0  0  0  0  0  0  0  0  0  0
  -22.2275   10.8983  -15.1024 C   0  0  0  0  0  0  0  0  0  0  0  0
  -20.9773   10.5541  -15.4526 F   0  0  0  0  0  0  0  0  0  0  0  0
  -22.5612   10.8531  -13.7516 C   0  0  0  0  0  0  0  0  0  0  0  0
  -23.8465   11.2070  -13.3568 C   0  0  0  0  0  0  0  0  0  0  0  0
  -24.1604   11.1664  -12.0524 F   0  0  0  0  0  0  0  0  0  0  0  0
  -22.8523   11.3677  -17.5177 C   0  0  0  0  0  0  0  0  0  0  0  0
  -23.6854   10.9756  -18.3317 O   0  0  0  0  0  0  0  0  0  0  0  0
  -21.6317   11.8969  -17.8932 N   0  0  0  0  0  0  0  0  0  0  0  0
  -20.9813   12.2219  -17.1841 H   0  0  0  0  0  0  0  0  0  0  0  0
  -21.2768   12.0646  -19.2676 C   0  0  0  0  0  0  0  0  0  0  0  0
  -20.2276   11.1876  -19.8921 C   0  0  0  0  0  0  0  0  0  0  0  0
  -19.9512   12.6461  -19.6744 C   0  0  0  0  0  0  0  0  0  0  0  0
 18 19  1  0  0  0
 19 17  1  0  0  0
 17 15  1  0  0  0
 15 10  1  0  0  0
 15 16  1  0  0  0
 10 11  2  0  0  0
 10 14  1  0  0  0
 11 12  1  0  0  0
 12 13  2  0  0  0
 13  1  1  0  0  0
 13 14  1  0  0  0
  1  2  2  0  0  0
  1  9  1  0  0  0
  2  3  1  0  0  0
  3  4  1  0  0  0
  3  8  1  0  0  0
  4  5  2  0  0  0
  5  6  1  0  0  0
  6  7  2  0  0  0
  7 23  1  0  0  0
  7  8  1  0  0  0
 23 25  1  0  0  0
 23 24  1  0  0  0
 25 26  1  0  0  0
 25 31  2  0  0  0
 26 27  2  0  0  0
 27 33  1  0  0  0
 27 28  1  0  0  0
 33 34  2  0  0  0
 33 35  1  0  0  0
 35 37  1  0  0  0
 35 36  1  0  0  0
 37 38  1  0  0  0
 37 39  1  0  0  0
 38 39  1  0  0  0
 28 29  1  0  0  0
 28 30  2  0  0  0
 30 31  1  0  0  0
 31 32  1  0  0  0
  8  9  2  0  0  0
  9 20  1  0  0  0
 20 21  1  0  0  0
 20 22  1  0  0  0
M  END
> <minimizedAffinity>
-4.60220

$$$$
