CHEMBL1257795


 25 28  0  0  0  0  0  0  0  0999 V2000
  -14.8942    3.4137  -17.0621 C   0  0  0  0  0  0  0  0  0  0  0  0
  -13.6843    3.6426  -16.4085 C   0  0  0  0  0  0  0  0  0  0  0  0
  -13.4217    3.0126  -15.1918 C   0  0  0  0  0  0  0  0  0  0  0  0
  -14.3630    2.1470  -14.6037 C   0  0  0  0  0  0  0  0  0  0  0  0
  -15.5966    1.9364  -15.2494 C   0  0  0  0  0  0  0  0  0  0  0  0
  -15.8420    2.5586  -16.4898 C   0  0  0  0  0  0  0  0  0  0  0  0
  -16.6845    1.0719  -14.6578 C   0  0  0  0  0  0  0  0  0  0  0  0
  -16.5472   -0.1067  -14.1151 N   0  0  0  0  0  0  0  0  0  0  0  0
  -15.2692   -0.6127  -13.8869 C   0  0  0  0  0  0  0  0  0  0  0  0
  -14.9530   -1.9441  -13.8600 C   0  0  0  0  0  0  0  0  0  0  0  0
  -13.6511   -1.9952  -13.4554 N   0  0  0  0  0  0  0  0  0  0  0  0
  -13.1119   -0.7898  -13.1878 N   0  0  0  0  0  0  0  0  0  0  0  0
  -14.0981    0.0627  -13.4776 C   0  0  0  0  0  0  0  0  0  0  0  0
  -13.9621    1.4064  -13.4679 N   0  0  0  0  0  0  0  0  0  0  0  0
  -13.0684   -2.8155  -13.3286 H   0  0  0  0  0  0  0  0  0  0  0  0
  -13.0697    1.7105  -13.0957 H   0  0  0  0  0  0  0  0  0  0  0  0
  -18.1020    1.5865  -14.7338 C   0  0  0  0  0  0  0  0  0  0  0  0
  -18.3719    2.9166  -14.3782 C   0  0  0  0  0  0  0  0  0  0  0  0
  -19.6889    3.3891  -14.3584 C   0  0  0  0  0  0  0  0  0  0  0  0
  -20.7424    2.5466  -14.7122 C   0  0  0  0  0  0  0  0  0  0  0  0
  -20.4763    1.2437  -15.1272 C   0  0  0  0  0  0  0  0  0  0  0  0
  -19.1634    0.7764  -15.1496 C   0  0  0  0  0  0  0  0  0  0  0  0
  -18.9550   -0.4773  -15.5773 F   0  0  0  0  0  0  0  0  0  0  0  0
  -15.3839    4.5659  -19.3297 N   0  0  0  0  0  0  0  0  0  0  0  0
  -15.1643    4.0503  -18.3182 C   0  0  0  0  0  0  0  0  0  0  0  0
 24 25  3  0  0  0
 25  1  1  0  0  0
  1  2  1  0  0  0
  1  6  2  0  0  0
  2  3  2  0  0  0
  3  4  1  0  0  0
  4  5  2  0  0  0
  4 14  1  0  0  0
  5  6  1  0  0  0
  5  7  1  0  0  0
  7 17  1  0  0  0
  7  8  2  0  0  0
 17 18  1  0  0  0
 17 22  2  0  0  0
 18 19  2  0  0  0
 19 20  1  0  0  0
 20 21  2  0  0  0
 21 22  1  0  0  0
 22 23  1  0  0  0
  8  9  1  0  0  0
  9 10  2  0  0  0
  9 13  1  0  0  0
 10 11  1  0  0  0
 11 12  1  0  0  0
 11 15  1  0  0  0
 12 13  2  0  0  0
 13 14  1  0  0  0
 14 16  1  0  0  0
M  END
> <minimizedAffinity>
-7.42018

$$$$
