CHEMBL3671490


 33 35  0  0  0  0  0  0  0  0999 V2000
  -26.6027   -9.0922   -4.9854 C   0  0  0  0  0  0  0  0  0  0  0  0
  -27.3542   -8.0487   -4.4370 C   0  0  0  0  0  0  0  0  0  0  0  0
  -28.6226   -7.7293   -4.9602 C   0  0  0  0  0  0  0  0  0  0  0  0
  -29.3816   -6.6079   -4.5877 C   0  0  0  0  0  0  0  0  0  0  0  0
  -30.5864   -6.3561   -5.1339 N   0  0  0  0  0  0  0  0  0  0  0  0
  -31.0218   -7.2043   -6.0688 C   0  0  0  0  0  0  0  0  0  0  0  0
  -30.3573   -8.2660   -6.5328 N   0  0  0  0  0  0  0  0  0  0  0  0
  -29.1622   -8.5143   -5.9920 C   0  0  0  0  0  0  0  0  0  0  0  0
  -28.4111   -9.5685   -6.4972 C   0  0  0  0  0  0  0  0  0  0  0  0
  -27.1391   -9.8833   -6.0080 C   0  0  0  0  0  0  0  0  0  0  0  0
  -24.7893  -10.1424   -3.7250 C   0  0  0  0  0  0  0  0  0  0  0  0
  -23.5923  -10.4133   -3.6783 O   0  0  0  0  0  0  0  0  0  0  0  0
  -25.2542   -9.1998   -4.6108 N   0  0  0  0  0  0  0  0  0  0  0  0
  -24.5658   -9.0668   -5.3449 H   0  0  0  0  0  0  0  0  0  0  0  0
  -25.9438  -12.1741   -3.0437 C   0  0  0  0  0  0  0  0  0  0  0  0
  -25.7935  -10.8516   -2.8903 C   0  0  0  0  0  0  0  0  0  0  0  0
  -28.8528   -5.6637   -3.6695 N   0  0  0  0  0  0  0  0  0  0  0  0
  -29.2154   -5.8221   -2.7328 H   0  0  0  0  0  0  0  0  0  0  0  0
  -28.7046   -4.2827   -3.9483 C   0  0  0  0  0  0  0  0  0  0  0  0
  -27.5556   -3.7917   -4.5860 C   0  0  0  0  0  0  0  0  0  0  0  0
  -27.4495   -2.4443   -4.9336 C   0  0  0  0  0  0  0  0  0  0  0  0
  -28.4901   -1.5699   -4.6262 C   0  0  0  0  0  0  0  0  0  0  0  0
  -28.3793    0.2353   -5.1704 Br  0  0  0  0  0  0  0  0  0  0  0  0
  -29.6153   -2.0212   -3.9389 C   0  0  0  0  0  0  0  0  0  0  0  0
  -29.7056   -3.3684   -3.5988 C   0  0  0  0  0  0  0  0  0  0  0  0
  -30.7970   -3.8059   -2.9492 F   0  0  0  0  0  0  0  0  0  0  0  0
  -26.4987  -10.9035   -6.6688 O   0  0  0  0  0  0  0  0  0  0  0  0
  -25.9236  -10.5502   -7.9345 C   0  0  0  0  0  0  0  0  0  0  0  0
  -25.1009  -11.7076   -8.4992 C   0  0  0  0  0  0  0  0  0  0  0  0
  -23.8493  -11.9947   -7.6733 C   0  0  0  0  0  0  0  0  0  0  0  0
  -23.5166  -10.8240   -6.8558 N   0  0  0  0  0  0  0  0  0  0  0  0
  -22.0768  -10.6017   -6.8354 C   0  0  0  0  0  0  0  0  0  0  0  0
  -23.8497  -10.9613   -5.9019 H   0  0  0  0  0  0  0  0  0  0  0  0
 15 16  2  0  0  0
 16 11  1  0  0  0
 11 12  2  0  0  0
 11 13  1  0  0  0
 13  1  1  0  0  0
 13 14  1  0  0  0
  1  2  1  0  0  0
  1 10  2  0  0  0
  2  3  2  0  0  0
  3  4  1  0  0  0
  3  8  1  0  0  0
  4 17  1  0  0  0
  4  5  2  0  0  0
 17 19  1  0  0  0
 17 18  1  0  0  0
 19 20  1  0  0  0
 19 25  2  0  0  0
 20 21  2  0  0  0
 21 22  1  0  0  0
 22 23  1  0  0  0
 22 24  2  0  0  0
 24 25  1  0  0  0
 25 26  1  0  0  0
  5  6  1  0  0  0
  6  7  2  0  0  0
  7  8  1  0  0  0
  8  9  2  0  0  0
  9 10  1  0  0  0
 10 27  1  0  0  0
 27 28  1  0  0  0
 28 29  1  0  0  0
 29 30  1  0  0  0
 30 31  1  0  0  0
 31 32  1  0  0  0
 31 33  1  0  0  0
M  END
> <minimizedAffinity>
-6.95275

$$$$
