CHEMBL1969156


 18 20  0  0  0  0  0  0  0  0999 V2000
  -29.3013   -4.1174   -3.2111 N   0  0  0  0  0  0  0  0  0  0  0  0
  -29.1360   -5.1436   -4.0990 C   0  0  0  0  0  0  0  0  0  0  0  0
  -29.2266   -6.3577   -3.6142 N   0  0  0  0  0  0  0  0  0  0  0  0
  -29.1156   -7.4107   -4.4926 C   0  0  0  0  0  0  0  0  0  0  0  0
  -28.9431   -7.2970   -5.8159 C   0  0  0  0  0  0  0  0  0  0  0  0
  -28.8401   -6.0035   -6.3627 C   0  0  0  0  0  0  0  0  0  0  0  0
  -28.7100   -5.4707   -7.6139 C   0  0  0  0  0  0  0  0  0  0  0  0
  -28.6570   -4.1081   -7.5459 N   0  0  0  0  0  0  0  0  0  0  0  0
  -28.7220   -3.7813   -6.2592 C   0  0  0  0  0  0  0  0  0  0  0  0
  -28.9041   -4.9319   -5.4835 N   0  0  0  0  0  0  0  0  0  0  0  0
  -29.6251   -4.4594   -2.3109 H   0  0  0  0  0  0  0  0  0  0  0  0
  -29.8409   -3.3221   -3.5345 H   0  0  0  0  0  0  0  0  0  0  0  0
  -28.6532   -2.3835   -5.8079 C   0  0  0  0  0  0  0  0  0  0  0  0
  -27.4108   -1.8549   -5.4218 C   0  0  0  0  0  0  0  0  0  0  0  0
  -27.2893   -0.5261   -5.0066 C   0  0  0  0  0  0  0  0  0  0  0  0
  -28.4107    0.2983   -4.9828 C   0  0  0  0  0  0  0  0  0  0  0  0
  -29.6575   -0.2214   -5.3196 C   0  0  0  0  0  0  0  0  0  0  0  0
  -29.7818   -1.5640   -5.6888 C   0  0  0  0  0  0  0  0  0  0  0  0
  1  2  1  0  0  0
  1 11  1  0  0  0
  1 12  1  0  0  0
  2  3  2  0  0  0
  2 10  1  0  0  0
  3  4  1  0  0  0
  4  5  2  0  0  0
  5  6  1  0  0  0
  6  7  2  0  0  0
  6 10  1  0  0  0
  7  8  1  0  0  0
  8  9  2  0  0  0
  9 13  1  0  0  0
  9 10  1  0  0  0
 13 14  1  0  0  0
 13 18  2  0  0  0
 14 15  2  0  0  0
 15 16  1  0  0  0
 16 17  2  0  0  0
 17 18  1  0  0  0
M  END
> <minimizedAffinity>
-7.02513

$$$$
