CHEMBL1992125


 31 34  0  0  0  0  0  0  0  0999 V2000
  -15.2257   -0.9247  -13.0722 C   0  0  0  0  0  0  0  0  0  0  0  0
  -13.9278   -1.1542  -13.2474 N   0  0  0  0  0  0  0  0  0  0  0  0
  -13.3321   -0.3540  -14.1114 C   0  0  0  0  0  0  0  0  0  0  0  0
  -13.9278    0.5963  -14.8094 N   0  0  0  0  0  0  0  0  0  0  0  0
  -15.2459    0.7039  -14.6407 C   0  0  0  0  0  0  0  0  0  0  0  0
  -15.9187   -0.0258  -13.7494 N   0  0  0  0  0  0  0  0  0  0  0  0
  -15.9704    1.5825  -15.4661 N   0  0  0  0  0  0  0  0  0  0  0  0
  -15.1260    2.4806  -16.2568 C   0  0  0  0  0  0  0  0  0  0  0  0
  -15.4848    3.9515  -16.1469 C   0  0  0  0  0  0  0  0  0  0  0  0
  -16.9515    4.2814  -15.9698 C   0  0  0  0  0  0  0  0  0  0  0  0
  -17.8347    3.1434  -15.5700 C   0  0  0  0  0  0  0  0  0  0  0  0
  -19.1834    3.4385  -15.3112 C   0  0  0  0  0  0  0  0  0  0  0  0
  -20.0712    2.4613  -14.8644 C   0  0  0  0  0  0  0  0  0  0  0  0
  -21.4635    2.8484  -14.4700 C   0  0  0  0  0  0  0  0  0  0  0  0
  -19.6222    1.1454  -14.7797 C   0  0  0  0  0  0  0  0  0  0  0  0
  -18.2773    0.8474  -15.0397 C   0  0  0  0  0  0  0  0  0  0  0  0
  -17.3456    1.8491  -15.3800 C   0  0  0  0  0  0  0  0  0  0  0  0
  -15.9065   -1.5667  -12.0270 N   0  0  0  0  0  0  0  0  0  0  0  0
  -15.8479   -0.9332  -11.2355 H   0  0  0  0  0  0  0  0  0  0  0  0
  -14.4247   -4.4381  -10.1606 C   0  0  0  0  0  0  0  0  0  0  0  0
  -14.8403   -3.1495  -10.4907 C   0  0  0  0  0  0  0  0  0  0  0  0
  -15.5778   -2.8890  -11.6544 C   0  0  0  0  0  0  0  0  0  0  0  0
  -16.0270   -3.9518  -12.4266 C   0  0  0  0  0  0  0  0  0  0  0  0
  -15.6187   -5.2462  -12.1287 C   0  0  0  0  0  0  0  0  0  0  0  0
  -14.8196   -5.5063  -10.9862 C   0  0  0  0  0  0  0  0  0  0  0  0
  -12.6219   -3.6638   -8.7857 C   0  0  0  0  0  0  0  0  0  0  0  0
  -13.5680   -4.6764   -9.1175 O   0  0  0  0  0  0  0  0  0  0  0  0
  -15.9766   -6.3339  -12.9011 O   0  0  0  0  0  0  0  0  0  0  0  0
  -15.4884   -6.3118  -14.2451 C   0  0  0  0  0  0  0  0  0  0  0  0
  -14.4357   -6.8189  -10.8238 O   0  0  0  0  0  0  0  0  0  0  0  0
  -13.1715   -7.1825  -11.3601 C   0  0  0  0  0  0  0  0  0  0  0  0
 26 27  1  0  0  0
 27 20  1  0  0  0
 20 21  1  0  0  0
 20 25  2  0  0  0
 21 22  2  0  0  0
 22 18  1  0  0  0
 22 23  1  0  0  0
 18  1  1  0  0  0
 18 19  1  0  0  0
  1  2  1  0  0  0
  1  6  2  0  0  0
  2  3  2  0  0  0
  3  4  1  0  0  0
  4  5  2  0  0  0
  5  7  1  0  0  0
  5  6  1  0  0  0
  7  8  1  0  0  0
  7 17  1  0  0  0
  8  9  1  0  0  0
  9 10  1  0  0  0
 10 11  1  0  0  0
 11 12  1  0  0  0
 11 17  2  0  0  0
 12 13  2  0  0  0
 13 14  1  0  0  0
 13 15  1  0  0  0
 15 16  2  0  0  0
 16 17  1  0  0  0
 23 24  2  0  0  0
 24 28  1  0  0  0
 24 25  1  0  0  0
 28 29  1  0  0  0
 25 30  1  0  0  0
 30 31  1  0  0  0
M  END
> <minimizedAffinity>
-9.09692

$$$$
