CHEMBL603259


 28 32  0  0  0  0  0  0  0  0999 V2000
  -25.9576  -10.5108   -4.9136 C   0  0  0  0  0  0  0  0  0  0  0  0
  -26.2210   -9.5081   -3.9799 C   0  0  0  0  0  0  0  0  0  0  0  0
  -27.1358   -8.4639   -4.2573 C   0  0  0  0  0  0  0  0  0  0  0  0
  -27.8589   -8.4248   -5.4594 C   0  0  0  0  0  0  0  0  0  0  0  0
  -27.5708   -9.4743   -6.3993 C   0  0  0  0  0  0  0  0  0  0  0  0
  -26.6002  -10.4516   -6.1415 C   0  0  0  0  0  0  0  0  0  0  0  0
  -28.2822   -9.6928   -7.6031 N   0  0  0  0  0  0  0  0  0  0  0  0
  -29.6371   -9.6715   -7.7262 C   0  0  0  0  0  0  0  0  0  0  0  0
  -30.1811  -10.0675   -8.7594 O   0  0  0  0  0  0  0  0  0  0  0  0
  -30.4385   -9.2064   -6.5291 C   0  0  0  0  0  0  0  0  0  0  0  0
  -30.0188   -7.7931   -6.3388 C   0  0  0  0  0  0  0  0  0  0  0  0
  -30.7856   -6.8040   -7.1596 C   0  0  0  0  0  0  0  0  0  0  0  0
  -30.3002   -5.6944   -7.6205 N   0  0  0  0  0  0  0  0  0  0  0  0
  -29.0769   -5.3763   -7.1160 C   0  0  0  0  0  0  0  0  0  0  0  0
  -28.3119   -4.2485   -7.2122 C   0  0  0  0  0  0  0  0  0  0  0  0
  -28.3949   -3.7852   -5.8723 C   0  0  0  0  0  0  0  0  0  0  0  0
  -28.3559   -4.8769   -5.0496 N   0  0  0  0  0  0  0  0  0  0  0  0
  -28.5867   -5.9555   -5.9356 N   0  0  0  0  0  0  0  0  0  0  0  0
  -28.8856   -7.3522   -5.7524 C   0  0  0  0  0  0  0  0  0  0  0  0
  -27.8371  -10.2494   -8.3295 H   0  0  0  0  0  0  0  0  0  0  0  0
  -28.6006   -2.3374   -5.5829 C   0  0  0  0  0  0  0  0  0  0  0  0
  -27.4484   -1.5546   -5.2953 C   0  0  0  0  0  0  0  0  0  0  0  0
  -27.5043   -0.1823   -5.0225 C   0  0  0  0  0  0  0  0  0  0  0  0
  -28.7284    0.4594   -5.0451 C   0  0  0  0  0  0  0  0  0  0  0  0
  -29.8758   -0.2697   -5.3650 C   0  0  0  0  0  0  0  0  0  0  0  0
  -29.8189   -1.6575   -5.6411 C   0  0  0  0  0  0  0  0  0  0  0  0
  -23.9296  -11.4465   -4.0732 C   0  0  0  0  0  0  0  0  0  0  0  0
  -25.1533  -11.6033   -4.7746 O   0  0  0  0  0  0  0  0  0  0  0  0
 27 28  1  0  0  0
 28  1  1  0  0  0
  1  2  1  0  0  0
  1  6  2  0  0  0
  2  3  2  0  0  0
  3  4  1  0  0  0
  4  5  2  0  0  0
  4 19  1  0  0  0
  5  6  1  0  0  0
  5  7  1  0  0  0
  7  8  1  0  0  0
  7 20  1  0  0  0
  8  9  2  0  0  0
  8 10  1  0  0  0
 10 11  1  0  0  0
 11 12  1  0  0  0
 11 19  2  0  0  0
 12 13  2  0  0  0
 13 14  1  0  0  0
 14 15  2  0  0  0
 14 18  1  0  0  0
 15 16  1  0  0  0
 16 21  1  0  0  0
 16 17  2  0  0  0
 21 22  1  0  0  0
 21 26  2  0  0  0
 22 23  2  0  0  0
 23 24  1  0  0  0
 24 25  2  0  0  0
 25 26  1  0  0  0
 17 18  1  0  0  0
 18 19  1  0  0  0
M  END
> <minimizedAffinity>
-8.41195

$$$$
