CHEMBL1254923


 30 33  0  0  0  0  0  0  0  0999 V2000
  -28.1443   -1.9134   -8.3502 C   0  0  0  0  0  0  0  0  0  0  0  0
  -27.7602   -1.1510   -7.2408 C   0  0  0  0  0  0  0  0  0  0  0  0
  -27.6385   -1.7338   -5.9766 C   0  0  0  0  0  0  0  0  0  0  0  0
  -27.9419   -3.0826   -5.7935 C   0  0  0  0  0  0  0  0  0  0  0  0
  -28.3621   -3.8389   -6.8949 C   0  0  0  0  0  0  0  0  0  0  0  0
  -28.4895   -3.2529   -8.1658 C   0  0  0  0  0  0  0  0  0  0  0  0
  -26.9780   -0.8573  -11.6296 N   0  0  0  0  0  0  0  0  0  0  0  0
  -26.8910   -1.3928  -10.3541 C   0  0  0  0  0  0  0  0  0  0  0  0
  -25.8740   -1.8920   -9.8793 O   0  0  0  0  0  0  0  0  0  0  0  0
  -28.0968   -1.3662   -9.6625 N   0  0  0  0  0  0  0  0  0  0  0  0
  -27.7816   -0.2814  -11.8279 H   0  0  0  0  0  0  0  0  0  0  0  0
  -28.9138   -1.5055  -10.2381 H   0  0  0  0  0  0  0  0  0  0  0  0
  -22.3520    0.4019  -12.9527 C   0  0  0  0  0  0  0  0  0  0  0  0
  -23.6620   -0.2625  -13.2555 C   0  0  0  0  0  0  0  0  0  0  0  0
  -23.8450   -0.8882  -14.4933 C   0  0  0  0  0  0  0  0  0  0  0  0
  -25.0528   -1.5021  -14.7907 C   0  0  0  0  0  0  0  0  0  0  0  0
  -26.0889   -1.4922  -13.8567 C   0  0  0  0  0  0  0  0  0  0  0  0
  -25.9394   -0.8869  -12.6029 C   0  0  0  0  0  0  0  0  0  0  0  0
  -24.7148   -0.2638  -12.3138 C   0  0  0  0  0  0  0  0  0  0  0  0
  -27.7541   -3.7651   -4.6080 O   0  0  0  0  0  0  0  0  0  0  0  0
  -28.4610   -4.9428   -4.3907 C   0  0  0  0  0  0  0  0  0  0  0  0
  -27.8596   -6.1384   -4.5787 N   0  0  0  0  0  0  0  0  0  0  0  0
  -28.5756   -7.2510   -4.3586 C   0  0  0  0  0  0  0  0  0  0  0  0
  -29.8377   -7.3429   -3.9270 N   0  0  0  0  0  0  0  0  0  0  0  0
  -30.4111   -6.1453   -3.6874 C   0  0  0  0  0  0  0  0  0  0  0  0
  -31.7116   -5.8723   -3.2097 C   0  0  0  0  0  0  0  0  0  0  0  0
  -31.8375   -4.5029   -3.1274 C   0  0  0  0  0  0  0  0  0  0  0  0
  -30.6547   -3.9425   -3.5522 N   0  0  0  0  0  0  0  0  0  0  0  0
  -30.4079   -2.5201   -3.6047 C   0  0  0  0  0  0  0  0  0  0  0  0
  -29.7615   -4.9321   -3.9032 C   0  0  0  0  0  0  0  0  0  0  0  0
 13 14  1  0  0  0
 14 15  1  0  0  0
 14 19  2  0  0  0
 15 16  2  0  0  0
 16 17  1  0  0  0
 17 18  2  0  0  0
 18  7  1  0  0  0
 18 19  1  0  0  0
  7  8  1  0  0  0
  7 11  1  0  0  0
  8  9  2  0  0  0
  8 10  1  0  0  0
 10  1  1  0  0  0
 10 12  1  0  0  0
  1  2  1  0  0  0
  1  6  2  0  0  0
  2  3  2  0  0  0
  3  4  1  0  0  0
  4 20  1  0  0  0
  4  5  2  0  0  0
 20 21  1  0  0  0
 21 22  1  0  0  0
 21 30  2  0  0  0
 22 23  2  0  0  0
 23 24  1  0  0  0
 24 25  2  0  0  0
 25 26  1  0  0  0
 25 30  1  0  0  0
 26 27  2  0  0  0
 27 28  1  0  0  0
 28 29  1  0  0  0
 28 30  1  0  0  0
  5  6  1  0  0  0
M  END
> <minimizedAffinity>
-9.57662

$$$$
