CHEMBL3644545


 32 35  0  0  0  0  0  0  0  0999 V2000
  -15.5272   -2.4421  -12.4111 C   0  0  0  0  0  0  0  0  0  0  0  0
  -15.7951   -2.6845  -11.0689 C   0  0  0  0  0  0  0  0  0  0  0  0
  -15.5632   -3.8637  -10.4556 N   0  0  0  0  0  0  0  0  0  0  0  0
  -14.9833   -4.8237  -11.2132 C   0  0  0  0  0  0  0  0  0  0  0  0
  -14.6340   -4.7020  -12.5673 C   0  0  0  0  0  0  0  0  0  0  0  0
  -14.9469   -3.4693  -13.1651 C   0  0  0  0  0  0  0  0  0  0  0  0
  -13.9460   -5.7101  -13.2256 N   0  0  0  0  0  0  0  0  0  0  0  0
  -12.9092   -6.4943  -12.5515 C   0  0  0  0  0  0  0  0  0  0  0  0
  -13.0933   -7.9661  -12.9179 C   0  0  0  0  0  0  0  0  0  0  0  0
  -13.2080   -8.1533  -14.4047 C   0  0  0  0  0  0  0  0  0  0  0  0
  -12.9344   -9.3890  -14.8800 N   0  0  0  0  0  0  0  0  0  0  0  0
  -13.0526   -9.5753  -16.1963 C   0  0  0  0  0  0  0  0  0  0  0  0
  -12.7853  -10.8367  -16.6854 N   0  0  0  0  0  0  0  0  0  0  0  0
  -13.4518   -8.6430  -17.0640 N   0  0  0  0  0  0  0  0  0  0  0  0
  -13.7229   -7.4254  -16.5543 C   0  0  0  0  0  0  0  0  0  0  0  0
  -13.6267   -7.1132  -15.2147 C   0  0  0  0  0  0  0  0  0  0  0  0
  -13.9088   -5.7335  -14.6968 C   0  0  0  0  0  0  0  0  0  0  0  0
  -12.9249  -11.5163  -15.9508 H   0  0  0  0  0  0  0  0  0  0  0  0
  -13.2890  -10.9785  -17.5491 H   0  0  0  0  0  0  0  0  0  0  0  0
  -16.3155   -0.9454  -14.1901 N   0  0  0  0  0  0  0  0  0  0  0  0
  -15.7801   -1.0727  -12.9158 C   0  0  0  0  0  0  0  0  0  0  0  0
  -15.5221   -0.1605  -12.1380 O   0  0  0  0  0  0  0  0  0  0  0  0
  -16.5524   -1.7877  -14.6975 H   0  0  0  0  0  0  0  0  0  0  0  0
  -18.5275    1.8410  -15.3447 C   0  0  0  0  0  0  0  0  0  0  0  0
  -17.5835    2.7257  -15.8824 C   0  0  0  0  0  0  0  0  0  0  0  0
  -16.2355    2.3921  -15.9021 C   0  0  0  0  0  0  0  0  0  0  0  0
  -15.8068    1.1762  -15.3708 C   0  0  0  0  0  0  0  0  0  0  0  0
  -16.7132    0.2763  -14.8020 C   0  0  0  0  0  0  0  0  0  0  0  0
  -18.0793    0.6123  -14.8110 C   0  0  0  0  0  0  0  0  0  0  0  0
  -20.9213    1.1061  -14.9704 C   0  0  0  0  0  0  0  0  0  0  0  0
  -19.9885    2.2602  -15.3400 C   0  0  0  0  0  0  0  0  0  0  0  0
  -20.2262    3.4756  -14.4429 C   0  0  0  0  0  0  0  0  0  0  0  0
 30 31  1  0  0  0
 31 32  1  0  0  0
 31 24  1  0  0  0
 24 25  1  0  0  0
 24 29  2  0  0  0
 25 26  2  0  0  0
 26 27  1  0  0  0
 27 28  2  0  0  0
 28 20  1  0  0  0
 28 29  1  0  0  0
 20 21  1  0  0  0
 20 23  1  0  0  0
 21 22  2  0  0  0
 21  1  1  0  0  0
  1  2  1  0  0  0
  1  6  2  0  0  0
  2  3  2  0  0  0
  3  4  1  0  0  0
  4  5  2  0  0  0
  5  7  1  0  0  0
  5  6  1  0  0  0
  7  8  1  0  0  0
  7 17  1  0  0  0
  8  9  1  0  0  0
  9 10  1  0  0  0
 10 11  1  0  0  0
 10 16  2  0  0  0
 11 12  2  0  0  0
 12 13  1  0  0  0
 12 14  1  0  0  0
 13 18  1  0  0  0
 13 19  1  0  0  0
 14 15  2  0  0  0
 15 16  1  0  0  0
 16 17  1  0  0  0
M  END
> <minimizedAffinity>
-9.85639

$$$$
