CHEMBL3690519


 32 35  0  0  0  0  0  0  0  0999 V2000
  -29.3306   -2.8151   -5.2066 C   0  0  0  0  0  0  0  0  0  0  0  0
  -29.1610   -1.5126   -4.7540 C   0  0  0  0  0  0  0  0  0  0  0  0
  -28.5300   -0.7197   -5.6750 N   0  0  0  0  0  0  0  0  0  0  0  0
  -28.3076   -1.5025   -6.7066 C   0  0  0  0  0  0  0  0  0  0  0  0
  -27.6853   -1.2266   -7.9597 C   0  0  0  0  0  0  0  0  0  0  0  0
  -27.5644   -2.1836   -8.9140 C   0  0  0  0  0  0  0  0  0  0  0  0
  -28.0973   -3.5239   -8.6360 C   0  0  0  0  0  0  0  0  0  0  0  0
  -28.7071   -3.7815   -7.4702 C   0  0  0  0  0  0  0  0  0  0  0  0
  -28.7949   -2.7888   -6.4918 N   0  0  0  0  0  0  0  0  0  0  0  0
  -26.9212   -1.8494  -10.2130 C   0  0  0  0  0  0  0  0  0  0  0  0
  -27.7375   -1.6415  -11.2685 N   0  0  0  0  0  0  0  0  0  0  0  0
  -27.1353   -1.3419  -12.4369 C   0  0  0  0  0  0  0  0  0  0  0  0
  -25.7746   -1.2467  -12.5770 C   0  0  0  0  0  0  0  0  0  0  0  0
  -25.2171   -0.9347  -13.7542 F   0  0  0  0  0  0  0  0  0  0  0  0
  -25.0187   -1.4680  -11.4414 C   0  0  0  0  0  0  0  0  0  0  0  0
  -23.6243   -1.4799  -11.4862 N   0  0  0  0  0  0  0  0  0  0  0  0
  -25.5751   -1.7701  -10.2584 N   0  0  0  0  0  0  0  0  0  0  0  0
  -23.2355   -0.7089  -12.0164 H   0  0  0  0  0  0  0  0  0  0  0  0
  -23.2616   -1.5520  -10.5398 H   0  0  0  0  0  0  0  0  0  0  0  0
  -29.7831   -6.1894   -3.5230 C   0  0  0  0  0  0  0  0  0  0  0  0
  -31.1202   -6.0938   -3.1241 C   0  0  0  0  0  0  0  0  0  0  0  0
  -31.8879   -4.9949   -3.4893 C   0  0  0  0  0  0  0  0  0  0  0  0
  -31.3189   -3.9705   -4.2376 C   0  0  0  0  0  0  0  0  0  0  0  0
  -29.9526   -3.9719   -4.5456 C   0  0  0  0  0  0  0  0  0  0  0  0
  -29.1979   -5.1106   -4.2057 C   0  0  0  0  0  0  0  0  0  0  0  0
  -27.9855   -9.3427   -3.5717 N   0  0  0  0  0  0  0  0  0  0  0  0
  -28.7763   -8.3768   -4.1189 C   0  0  0  0  0  0  0  0  0  0  0  0
  -29.1677   -8.5146   -5.2689 O   0  0  0  0  0  0  0  0  0  0  0  0
  -29.0042   -7.3340   -3.2582 N   0  0  0  0  0  0  0  0  0  0  0  0
  -27.9093  -10.1538   -4.1763 H   0  0  0  0  0  0  0  0  0  0  0  0
  -28.1097   -9.5591   -2.5949 H   0  0  0  0  0  0  0  0  0  0  0  0
  -28.4010   -7.3029   -2.4467 H   0  0  0  0  0  0  0  0  0  0  0  0
 26 27  1  0  0  0
 26 30  1  0  0  0
 26 31  1  0  0  0
 27 28  2  0  0  0
 27 29  1  0  0  0
 29 20  1  0  0  0
 29 32  1  0  0  0
 20 21  1  0  0  0
 20 25  2  0  0  0
 21 22  2  0  0  0
 22 23  1  0  0  0
 23 24  2  0  0  0
 24  1  1  0  0  0
 24 25  1  0  0  0
  1  2  2  0  0  0
  1  9  1  0  0  0
  2  3  1  0  0  0
  3  4  2  0  0  0
  4  5  1  0  0  0
  4  9  1  0  0  0
  5  6  2  0  0  0
  6 10  1  0  0  0
  6  7  1  0  0  0
 10 11  1  0  0  0
 10 17  2  0  0  0
 11 12  2  0  0  0
 12 13  1  0  0  0
 13 14  1  0  0  0
 13 15  2  0  0  0
 15 16  1  0  0  0
 15 17  1  0  0  0
 16 18  1  0  0  0
 16 19  1  0  0  0
  7  8  2  0  0  0
  8  9  1  0  0  0
M  END
> <minimizedAffinity>
-9.70506

$$$$
