CHEMBL3984713


 37 41  0  0  0  0  0  0  0  0999 V2000
  -29.1027   -3.8271   -6.5911 N   0  0  0  0  0  0  0  0  0  0  0  0
  -29.8185   -3.0799   -5.6747 C   0  0  0  0  0  0  0  0  0  0  0  0
  -30.6271   -3.6468   -4.7810 C   0  0  0  0  0  0  0  0  0  0  0  0
  -30.8671   -5.0746   -4.7986 C   0  0  0  0  0  0  0  0  0  0  0  0
  -31.9614   -5.5604   -3.8923 C   0  0  0  0  0  0  0  0  0  0  0  0
  -30.1610   -5.8711   -5.6359 C   0  0  0  0  0  0  0  0  0  0  0  0
  -29.1706   -5.2277   -6.6111 C   0  0  0  0  0  0  0  0  0  0  0  0
  -28.5813   -5.9440   -7.4275 O   0  0  0  0  0  0  0  0  0  0  0  0
  -30.4576   -7.2261   -5.8468 N   0  0  0  0  0  0  0  0  0  0  0  0
  -29.7207   -8.3214   -5.1157 C   0  0  0  0  0  0  0  0  0  0  0  0
  -29.4669   -9.5745   -5.9930 C   0  0  0  0  0  0  0  0  0  0  0  0
  -30.8149   -9.9498   -6.5727 C   0  0  0  0  0  0  0  0  0  0  0  0
  -31.3776  -11.1296   -6.2549 N   0  0  0  0  0  0  0  0  0  0  0  0
  -32.7076  -11.1930   -6.3934 C   0  0  0  0  0  0  0  0  0  0  0  0
  -33.3429  -12.3562   -6.0165 N   0  0  0  0  0  0  0  0  0  0  0  0
  -33.4932  -10.2088   -6.8505 N   0  0  0  0  0  0  0  0  0  0  0  0
  -32.8826   -9.0640   -7.1947 C   0  0  0  0  0  0  0  0  0  0  0  0
  -31.5272   -8.8959   -7.1160 C   0  0  0  0  0  0  0  0  0  0  0  0
  -30.8360   -7.5868   -7.2244 C   0  0  0  0  0  0  0  0  0  0  0  0
  -32.7422  -13.1447   -6.2044 H   0  0  0  0  0  0  0  0  0  0  0  0
  -34.2682  -12.3612   -6.4212 H   0  0  0  0  0  0  0  0  0  0  0  0
  -26.7821   -1.9743   -9.5981 C   0  0  0  0  0  0  0  0  0  0  0  0
  -27.1755   -3.3045   -9.7286 C   0  0  0  0  0  0  0  0  0  0  0  0
  -27.9667   -3.9032   -8.7480 C   0  0  0  0  0  0  0  0  0  0  0  0
  -28.3524   -3.1833   -7.6131 C   0  0  0  0  0  0  0  0  0  0  0  0
  -27.9496   -1.8507   -7.4762 C   0  0  0  0  0  0  0  0  0  0  0  0
  -27.1734   -1.2493   -8.4639 C   0  0  0  0  0  0  0  0  0  0  0  0
  -26.0693   -1.3517  -11.9142 C   0  0  0  0  0  0  0  0  0  0  0  0
  -26.8854   -1.9901  -12.5650 O   0  0  0  0  0  0  0  0  0  0  0  0
  -25.9881   -1.3032  -10.5404 N   0  0  0  0  0  0  0  0  0  0  0  0
  -25.2806   -0.6722  -10.1752 H   0  0  0  0  0  0  0  0  0  0  0  0
  -24.9991   -1.2820  -14.9895 C   0  0  0  0  0  0  0  0  0  0  0  0
  -24.5684   -0.4538  -13.8371 C   0  0  0  0  0  0  0  0  0  0  0  0
  -23.5803    0.5684  -13.8364 C   0  0  0  0  0  0  0  0  0  0  0  0
  -23.5355    1.0748  -12.5603 C   0  0  0  0  0  0  0  0  0  0  0  0
  -24.4280    0.4350  -11.7666 O   0  0  0  0  0  0  0  0  0  0  0  0
  -25.0575   -0.5064  -12.5411 C   0  0  0  0  0  0  0  0  0  0  0  0
 32 33  1  0  0  0
 33 34  1  0  0  0
 33 37  2  0  0  0
 34 35  2  0  0  0
 35 36  1  0  0  0
 36 37  1  0  0  0
 37 28  1  0  0  0
 28 29  2  0  0  0
 28 30  1  0  0  0
 30 22  1  0  0  0
 30 31  1  0  0  0
 22 23  1  0  0  0
 22 27  2  0  0  0
 23 24  2  0  0  0
 24 25  1  0  0  0
 25  1  1  0  0  0
 25 26  2  0  0  0
  1  2  1  0  0  0
  1  7  1  0  0  0
  2  3  2  0  0  0
  3  4  1  0  0  0
  4  5  1  0  0  0
  4  6  2  0  0  0
  6  9  1  0  0  0
  6  7  1  0  0  0
  9 10  1  0  0  0
  9 19  1  0  0  0
 10 11  1  0  0  0
 11 12  1  0  0  0
 12 13  1  0  0  0
 12 18  2  0  0  0
 13 14  2  0  0  0
 14 15  1  0  0  0
 14 16  1  0  0  0
 15 20  1  0  0  0
 15 21  1  0  0  0
 16 17  2  0  0  0
 17 18  1  0  0  0
 18 19  1  0  0  0
  7  8  2  0  0  0
 26 27  1  0  0  0
M  END
> <minimizedAffinity>
-8.86133

$$$$
