CHEMBL3656115


 37 40  0  0  0  0  0  0  0  0999 V2000
  -22.0269    1.4296  -14.1109 C   0  0  0  0  0  0  0  0  0  0  0  0
  -23.0663    1.7000  -13.2146 C   0  0  0  0  0  0  0  0  0  0  0  0
  -23.7713    0.6715  -12.5877 C   0  0  0  0  0  0  0  0  0  0  0  0
  -23.4984   -0.6627  -12.8901 C   0  0  0  0  0  0  0  0  0  0  0  0
  -22.4822   -0.9435  -13.8108 C   0  0  0  0  0  0  0  0  0  0  0  0
  -21.7543    0.0958  -14.4315 C   0  0  0  0  0  0  0  0  0  0  0  0
  -19.1786    3.3452  -15.3868 N   0  0  0  0  0  0  0  0  0  0  0  0
  -19.8865    2.2481  -14.8824 C   0  0  0  0  0  0  0  0  0  0  0  0
  -19.4023    1.1558  -14.6775 O   0  0  0  0  0  0  0  0  0  0  0  0
  -21.2361    2.5039  -14.6281 N   0  0  0  0  0  0  0  0  0  0  0  0
  -19.6643    4.2184  -15.5017 H   0  0  0  0  0  0  0  0  0  0  0  0
  -21.6902    3.1478  -15.2590 H   0  0  0  0  0  0  0  0  0  0  0  0
  -15.0059    0.7572  -16.4015 C   0  0  0  0  0  0  0  0  0  0  0  0
  -15.7335    2.0553  -16.1929 C   0  0  0  0  0  0  0  0  0  0  0  0
  -15.0134    3.2497  -16.3026 C   0  0  0  0  0  0  0  0  0  0  0  0
  -15.6550    4.4626  -16.1258 C   0  0  0  0  0  0  0  0  0  0  0  0
  -17.0169    4.4917  -15.8334 C   0  0  0  0  0  0  0  0  0  0  0  0
  -17.7785    3.3231  -15.7023 C   0  0  0  0  0  0  0  0  0  0  0  0
  -17.1175    2.0958  -15.8915 C   0  0  0  0  0  0  0  0  0  0  0  0
  -24.1176   -1.7405  -12.2829 O   0  0  0  0  0  0  0  0  0  0  0  0
  -25.4636   -1.6807  -11.9749 C   0  0  0  0  0  0  0  0  0  0  0  0
  -26.4556   -1.5249  -12.9367 C   0  0  0  0  0  0  0  0  0  0  0  0
  -27.7718   -1.4771  -12.5235 C   0  0  0  0  0  0  0  0  0  0  0  0
  -28.1648   -1.6241  -11.2411 N   0  0  0  0  0  0  0  0  0  0  0  0
  -27.1879   -1.8039  -10.3202 C   0  0  0  0  0  0  0  0  0  0  0  0
  -25.8330   -1.8422  -10.6390 C   0  0  0  0  0  0  0  0  0  0  0  0
  -27.6801   -1.9288   -8.9499 C   0  0  0  0  0  0  0  0  0  0  0  0
  -27.6491   -1.0487   -7.8827 C   0  0  0  0  0  0  0  0  0  0  0  0
  -28.2777   -1.6567   -6.7526 C   0  0  0  0  0  0  0  0  0  0  0  0
  -28.6832   -2.9106   -7.1800 C   0  0  0  0  0  0  0  0  0  0  0  0
  -28.3466   -3.0485   -8.5044 N   0  0  0  0  0  0  0  0  0  0  0  0
  -28.5481   -3.8484   -9.0928 H   0  0  0  0  0  0  0  0  0  0  0  0
  -28.4457   -1.0439   -5.4413 C   0  0  0  0  0  0  0  0  0  0  0  0
  -29.3598   -1.6208   -4.6102 N   0  0  0  0  0  0  0  0  0  0  0  0
  -27.8144   -0.0554   -5.0761 O   0  0  0  0  0  0  0  0  0  0  0  0
  -29.9133   -2.4207   -4.8707 H   0  0  0  0  0  0  0  0  0  0  0  0
  -29.4952   -1.1956   -3.7048 H   0  0  0  0  0  0  0  0  0  0  0  0
 13 14  1  0  0  0
 14 15  1  0  0  0
 14 19  2  0  0  0
 15 16  2  0  0  0
 16 17  1  0  0  0
 17 18  2  0  0  0
 18  7  1  0  0  0
 18 19  1  0  0  0
  7  8  1  0  0  0
  7 11  1  0  0  0
  8  9  2  0  0  0
  8 10  1  0  0  0
 10  1  1  0  0  0
 10 12  1  0  0  0
  1  2  1  0  0  0
  1  6  2  0  0  0
  2  3  2  0  0  0
  3  4  1  0  0  0
  4 20  1  0  0  0
  4  5  2  0  0  0
 20 21  1  0  0  0
 21 22  1  0  0  0
 21 26  2  0  0  0
 22 23  2  0  0  0
 23 24  1  0  0  0
 24 25  2  0  0  0
 25 27  1  0  0  0
 25 26  1  0  0  0
 27 28  2  0  0  0
 27 31  1  0  0  0
 28 29  1  0  0  0
 29 33  1  0  0  0
 29 30  2  0  0  0
 33 34  1  0  0  0
 33 35  2  0  0  0
 34 36  1  0  0  0
 34 37  1  0  0  0
 30 31  1  0  0  0
 31 32  1  0  0  0
  5  6  1  0  0  0
M  END
> <minimizedAffinity>
-10.03569

$$$$
