CHEMBL3397928


 32 35  0  0  0  0  0  0  0  0999 V2000
  -28.3267   -0.3692  -10.7549 O   0  0  0  0  0  0  0  0  0  0  0  0
  -27.4847   -1.2521  -10.8910 C   0  0  0  0  0  0  0  0  0  0  0  0
  -27.1279   -2.2132   -9.9566 N   0  0  0  0  0  0  0  0  0  0  0  0
  -26.2876   -2.7498  -10.1312 H   0  0  0  0  0  0  0  0  0  0  0  0
  -27.7236   -2.3802   -8.6883 C   0  0  0  0  0  0  0  0  0  0  0  0
  -28.4641   -3.5105   -8.3541 C   0  0  0  0  0  0  0  0  0  0  0  0
  -29.0780   -3.6199   -7.1061 C   0  0  0  0  0  0  0  0  0  0  0  0
  -28.9546   -2.6056   -6.1588 C   0  0  0  0  0  0  0  0  0  0  0  0
  -28.2022   -1.4764   -6.4803 C   0  0  0  0  0  0  0  0  0  0  0  0
  -27.5733   -1.3713   -7.7310 C   0  0  0  0  0  0  0  0  0  0  0  0
  -29.5470   -2.6141   -4.9208 O   0  0  0  0  0  0  0  0  0  0  0  0
  -30.2737   -3.8150   -4.6263 C   0  0  0  0  0  0  0  0  0  0  0  0
  -29.4098   -4.8038   -3.8295 C   0  0  0  0  0  0  0  0  0  0  0  0
  -29.9090   -6.1902   -3.9158 N   0  0  0  0  0  0  0  0  0  0  0  0
  -28.8822   -7.1921   -4.2372 C   0  0  0  0  0  0  0  0  0  0  0  0
  -28.8139   -7.2309   -5.7494 C   0  0  0  0  0  0  0  0  0  0  0  0
  -30.2487   -6.9919   -6.1750 C   0  0  0  0  0  0  0  0  0  0  0  0
  -30.9234   -6.3296   -4.9767 C   0  0  0  0  0  0  0  0  0  0  0  0
  -26.7137   -1.2618  -12.1581 C   0  0  0  0  0  0  0  0  0  0  0  0
  -27.2445   -1.9610  -13.2451 C   0  0  0  0  0  0  0  0  0  0  0  0
  -26.5398   -2.0183  -14.4404 C   0  0  0  0  0  0  0  0  0  0  0  0
  -25.3079   -1.3677  -14.5521 C   0  0  0  0  0  0  0  0  0  0  0  0
  -24.7584   -0.6314  -13.4833 C   0  0  0  0  0  0  0  0  0  0  0  0
  -25.4759   -0.6166  -12.2727 C   0  0  0  0  0  0  0  0  0  0  0  0
  -23.5162    0.1623  -13.6412 C   0  0  0  0  0  0  0  0  0  0  0  0
  -22.3030   -0.4607  -13.9929 C   0  0  0  0  0  0  0  0  0  0  0  0
  -21.1451    0.2800  -14.2506 C   0  0  0  0  0  0  0  0  0  0  0  0
  -21.1782    1.6694  -14.1806 C   0  0  0  0  0  0  0  0  0  0  0  0
  -22.3621    2.3007  -13.8254 C   0  0  0  0  0  0  0  0  0  0  0  0
  -22.4534    3.6607  -13.7781 O   0  0  0  0  0  0  0  0  0  0  0  0
  -23.5097    1.5645  -13.5339 C   0  0  0  0  0  0  0  0  0  0  0  0
  -21.6330    4.0370  -14.1371 H   0  0  0  0  0  0  0  0  0  0  0  0
  1  2  2  0  0  0
  2  3  1  0  0  0
  2 19  1  0  0  0
  3  5  1  0  0  0
  3  4  1  0  0  0
  5  6  1  0  0  0
  5 10  2  0  0  0
  6  7  2  0  0  0
  7  8  1  0  0  0
  8 11  1  0  0  0
  8  9  2  0  0  0
 11 12  1  0  0  0
 12 13  1  0  0  0
 13 14  1  0  0  0
 14 15  1  0  0  0
 14 18  1  0  0  0
 15 16  1  0  0  0
 16 17  1  0  0  0
 17 18  1  0  0  0
  9 10  1  0  0  0
 19 20  1  0  0  0
 19 24  2  0  0  0
 20 21  2  0  0  0
 21 22  1  0  0  0
 22 23  2  0  0  0
 23 25  1  0  0  0
 23 24  1  0  0  0
 25 26  1  0  0  0
 25 31  2  0  0  0
 26 27  2  0  0  0
 27 28  1  0  0  0
 28 29  2  0  0  0
 29 30  1  0  0  0
 29 31  1  0  0  0
 30 32  1  0  0  0
M  END
> <minimizedAffinity>
-10.04479

$$$$
