CHEMBL3919076


 34 37  0  0  0  0  0  0  0  0999 V2000
  -30.1886   -4.7742   -6.7416 O   0  0  0  0  0  0  0  0  0  0  0  0
  -29.8394   -5.8018   -5.8874 C   0  0  0  0  0  0  0  0  0  0  0  0
  -30.0946   -5.8027   -4.5153 C   0  0  0  0  0  0  0  0  0  0  0  0
  -29.6312   -6.8496   -3.7448 C   0  0  0  0  0  0  0  0  0  0  0  0
  -29.0003   -7.9384   -4.2170 N   0  0  0  0  0  0  0  0  0  0  0  0
  -28.8353   -7.9857   -5.5659 C   0  0  0  0  0  0  0  0  0  0  0  0
  -28.2389   -9.0655   -6.2787 C   0  0  0  0  0  0  0  0  0  0  0  0
  -28.2063   -8.8548   -7.6433 C   0  0  0  0  0  0  0  0  0  0  0  0
  -28.8797   -7.3342   -8.0487 S   0  0  0  0  0  0  0  0  0  0  0  0
  -29.2362   -6.9549   -6.4145 C   0  0  0  0  0  0  0  0  0  0  0  0
  -27.6791   -9.7524   -8.6613 C   0  0  0  0  0  0  0  0  0  0  0  0
  -26.8393  -10.6161   -8.4256 O   0  0  0  0  0  0  0  0  0  0  0  0
  -28.1951   -9.5711   -9.9269 N   0  0  0  0  0  0  0  0  0  0  0  0
  -28.9051   -8.8611  -10.0583 H   0  0  0  0  0  0  0  0  0  0  0  0
  -27.7676  -10.3492  -11.0738 C   0  0  0  0  0  0  0  0  0  0  0  0
  -27.3176   -9.4536  -12.2248 C   0  0  0  0  0  0  0  0  0  0  0  0
  -26.3226   -8.5355  -11.7719 O   0  0  0  0  0  0  0  0  0  0  0  0
  -26.7559   -7.9673  -11.1117 H   0  0  0  0  0  0  0  0  0  0  0  0
  -27.8719   -2.4273   -8.3207 C   0  0  0  0  0  0  0  0  0  0  0  0
  -27.7645   -1.4541   -7.3233 C   0  0  0  0  0  0  0  0  0  0  0  0
  -28.3763   -1.6254   -6.0828 C   0  0  0  0  0  0  0  0  0  0  0  0
  -29.1259   -2.7672   -5.8346 C   0  0  0  0  0  0  0  0  0  0  0  0
  -29.3564   -3.6827   -6.8645 C   0  0  0  0  0  0  0  0  0  0  0  0
  -28.6986   -3.5344   -8.0928 C   0  0  0  0  0  0  0  0  0  0  0  0
  -27.4960   -1.4732  -10.6027 C   0  0  0  0  0  0  0  0  0  0  0  0
  -28.4029   -0.6520  -10.5988 O   0  0  0  0  0  0  0  0  0  0  0  0
  -27.1892   -2.3321   -9.5498 N   0  0  0  0  0  0  0  0  0  0  0  0
  -26.3282   -2.8627   -9.6602 H   0  0  0  0  0  0  0  0  0  0  0  0
  -28.1232   -2.2056  -13.7409 C   0  0  0  0  0  0  0  0  0  0  0  0
  -26.8263   -1.9193  -13.0728 C   0  0  0  0  0  0  0  0  0  0  0  0
  -25.5467   -1.9078  -13.7005 C   0  0  0  0  0  0  0  0  0  0  0  0
  -24.6339   -1.5931  -12.7270 C   0  0  0  0  0  0  0  0  0  0  0  0
  -25.2489   -1.4054  -11.5357 O   0  0  0  0  0  0  0  0  0  0  0  0
  -26.5934   -1.6111  -11.7363 C   0  0  0  0  0  0  0  0  0  0  0  0
 29 30  1  0  0  0
 30 31  1  0  0  0
 30 34  2  0  0  0
 31 32  2  0  0  0
 32 33  1  0  0  0
 33 34  1  0  0  0
 34 25  1  0  0  0
 25 26  2  0  0  0
 25 27  1  0  0  0
 27 19  1  0  0  0
 27 28  1  0  0  0
 19 20  1  0  0  0
 19 24  2  0  0  0
 20 21  2  0  0  0
 21 22  1  0  0  0
 22 23  2  0  0  0
 23  1  1  0  0  0
 23 24  1  0  0  0
  1  2  1  0  0  0
  2  3  1  0  0  0
  2 10  2  0  0  0
  3  4  2  0  0  0
  4  5  1  0  0  0
  5  6  2  0  0  0
  6  7  1  0  0  0
  6 10  1  0  0  0
  7  8  2  0  0  0
  8 11  1  0  0  0
  8  9  1  0  0  0
 11 12  2  0  0  0
 11 13  1  0  0  0
 13 15  1  0  0  0
 13 14  1  0  0  0
 15 16  1  0  0  0
 16 17  1  0  0  0
 17 18  1  0  0  0
  9 10  1  0  0  0
M  END
> <minimizedAffinity>
-9.33412

$$$$
