CHEMBL598626


 38 42  0  0  0  0  0  0  0  0999 V2000
  -28.8614   -6.9850   -6.6162 N   0  0  0  0  0  0  0  0  0  0  0  0
  -30.1226   -6.7239   -5.9875 C   0  0  0  0  0  0  0  0  0  0  0  0
  -31.0552   -7.4833   -6.1905 O   0  0  0  0  0  0  0  0  0  0  0  0
  -28.0440   -6.4509   -6.3438 H   0  0  0  0  0  0  0  0  0  0  0  0
  -30.2058   -5.5764   -5.0075 C   0  0  0  0  0  0  0  0  0  0  0  0
  -31.4351   -5.3898   -4.3527 C   0  0  0  0  0  0  0  0  0  0  0  0
  -31.6213   -4.3204   -3.4709 C   0  0  0  0  0  0  0  0  0  0  0  0
  -30.5952   -3.3988   -3.2468 C   0  0  0  0  0  0  0  0  0  0  0  0
  -29.3637   -3.5526   -3.8834 C   0  0  0  0  0  0  0  0  0  0  0  0
  -29.1624   -4.6585   -4.7453 C   0  0  0  0  0  0  0  0  0  0  0  0
  -28.4310   -2.5230   -3.9318 O   0  0  0  0  0  0  0  0  0  0  0  0
  -28.6598   -1.4321   -4.7338 C   0  0  0  0  0  0  0  0  0  0  0  0
  -29.6036   -0.4292   -4.4866 C   0  0  0  0  0  0  0  0  0  0  0  0
  -29.7777    0.6603   -5.3822 C   0  0  0  0  0  0  0  0  0  0  0  0
  -29.0169    0.7729   -6.5463 C   0  0  0  0  0  0  0  0  0  0  0  0
  -28.2991   -0.3443   -6.8828 C   0  0  0  0  0  0  0  0  0  0  0  0
  -27.8297   -0.7195   -8.1373 N   0  0  0  0  0  0  0  0  0  0  0  0
  -27.4927   -2.0788   -8.0878 C   0  0  0  0  0  0  0  0  0  0  0  0
  -27.2559   -2.8041   -9.0375 O   0  0  0  0  0  0  0  0  0  0  0  0
  -27.5766   -2.4714   -6.7432 N   0  0  0  0  0  0  0  0  0  0  0  0
  -28.1341   -1.4221   -6.0104 C   0  0  0  0  0  0  0  0  0  0  0  0
  -27.9935   -0.2313   -9.0053 H   0  0  0  0  0  0  0  0  0  0  0  0
  -27.5605   -3.4363   -6.4565 H   0  0  0  0  0  0  0  0  0  0  0  0
  -28.1754   -9.5280   -9.1082 C   0  0  0  0  0  0  0  0  0  0  0  0
  -28.8750   -8.3246   -8.7695 C   0  0  0  0  0  0  0  0  0  0  0  0
  -28.6072   -8.1013   -7.4216 C   0  0  0  0  0  0  0  0  0  0  0  0
  -27.8995   -9.2312   -7.0136 N   0  0  0  0  0  0  0  0  0  0  0  0
  -27.5114  -10.0027   -8.0521 N   0  0  0  0  0  0  0  0  0  0  0  0
  -27.6308   -9.6329   -5.6775 C   0  0  0  0  0  0  0  0  0  0  0  0
  -28.6717  -10.0457   -4.8291 C   0  0  0  0  0  0  0  0  0  0  0  0
  -28.3879  -10.4717   -3.5311 C   0  0  0  0  0  0  0  0  0  0  0  0
  -27.0734  -10.4882   -3.0747 C   0  0  0  0  0  0  0  0  0  0  0  0
  -26.0349  -10.0907   -3.9178 C   0  0  0  0  0  0  0  0  0  0  0  0
  -26.3076   -9.6759   -5.2221 C   0  0  0  0  0  0  0  0  0  0  0  0
  -27.9224  -11.8069  -10.2425 C   0  0  0  0  0  0  0  0  0  0  0  0
  -28.0790  -10.2890  -10.4403 C   0  0  0  0  0  0  0  0  0  0  0  0
  -26.8638   -9.7876  -11.2551 C   0  0  0  0  0  0  0  0  0  0  0  0
  -29.3444  -10.0618  -11.3037 C   0  0  0  0  0  0  0  0  0  0  0  0
 35 36  1  0  0  0
 36 37  1  0  0  0
 36 38  1  0  0  0
 36 24  1  0  0  0
 24 25  1  0  0  0
 24 28  2  0  0  0
 25 26  2  0  0  0
 26  1  1  0  0  0
 26 27  1  0  0  0
  1  2  1  0  0  0
  1  4  1  0  0  0
  2  3  2  0  0  0
  2  5  1  0  0  0
  5  6  1  0  0  0
  5 10  2  0  0  0
  6  7  2  0  0  0
  7  8  1  0  0  0
  8  9  2  0  0  0
  9 11  1  0  0  0
  9 10  1  0  0  0
 11 12  1  0  0  0
 12 13  1  0  0  0
 12 21  2  0  0  0
 13 14  2  0  0  0
 14 15  1  0  0  0
 15 16  2  0  0  0
 16 17  1  0  0  0
 16 21  1  0  0  0
 17 18  1  0  0  0
 17 22  1  0  0  0
 18 19  2  0  0  0
 18 20  1  0  0  0
 20 21  1  0  0  0
 20 23  1  0  0  0
 27 29  1  0  0  0
 27 28  1  0  0  0
 29 30  1  0  0  0
 29 34  2  0  0  0
 30 31  2  0  0  0
 31 32  1  0  0  0
 32 33  2  0  0  0
 33 34  1  0  0  0
M  END
> <minimizedAffinity>
-9.33464

$$$$
