CHEMBL1172421


 37 40  0  0  0  0  0  0  0  0999 V2000
  -13.9406   -2.2820  -14.3545 C   0  0  0  0  0  0  0  0  0  0  0  0
  -14.2405   -0.9799  -14.2448 C   0  0  0  0  0  0  0  0  0  0  0  0
  -15.0304   -0.3318  -13.1256 C   0  0  0  0  0  0  0  0  0  0  0  0
  -15.6141   -0.8494  -12.1931 O   0  0  0  0  0  0  0  0  0  0  0  0
  -14.9940    1.0211  -13.4087 N   0  0  0  0  0  0  0  0  0  0  0  0
  -14.3124    1.2749  -14.5917 C   0  0  0  0  0  0  0  0  0  0  0  0
  -14.1297    2.5183  -15.1598 C   0  0  0  0  0  0  0  0  0  0  0  0
  -13.4089    2.6207  -16.3569 C   0  0  0  0  0  0  0  0  0  0  0  0
  -12.9417    1.4355  -16.9646 C   0  0  0  0  0  0  0  0  0  0  0  0
  -13.1443    0.1694  -16.3638 C   0  0  0  0  0  0  0  0  0  0  0  0
  -13.8324    0.1011  -15.1624 C   0  0  0  0  0  0  0  0  0  0  0  0
  -15.4325    1.7155  -12.8228 H   0  0  0  0  0  0  0  0  0  0  0  0
  -16.9722   -5.5441  -12.3837 C   0  0  0  0  0  0  0  0  0  0  0  0
  -15.7225   -4.7353  -12.4426 C   0  0  0  0  0  0  0  0  0  0  0  0
  -15.5263   -3.8558  -13.4860 N   0  0  0  0  0  0  0  0  0  0  0  0
  -14.3094   -3.2379  -13.3752 C   0  0  0  0  0  0  0  0  0  0  0  0
  -13.6889   -3.7323  -12.2418 C   0  0  0  0  0  0  0  0  0  0  0  0
  -12.3577   -3.3296  -11.7060 C   0  0  0  0  0  0  0  0  0  0  0  0
  -14.5886   -4.6841  -11.6325 C   0  0  0  0  0  0  0  0  0  0  0  0
  -16.1935   -3.6831  -14.2262 H   0  0  0  0  0  0  0  0  0  0  0  0
  -14.3114   -5.4500  -10.4073 C   0  0  0  0  0  0  0  0  0  0  0  0
  -14.5858   -5.0516   -9.2853 O   0  0  0  0  0  0  0  0  0  0  0  0
  -13.7514   -6.6698  -10.6065 O   0  0  0  0  0  0  0  0  0  0  0  0
  -13.7930   -6.9109  -11.5466 H   0  0  0  0  0  0  0  0  0  0  0  0
  -13.1413    3.8831  -16.9661 N   0  0  0  0  0  0  0  0  0  0  0  0
  -14.1180    4.6305  -17.6098 C   0  0  0  0  0  0  0  0  0  0  0  0
  -15.3024    4.3020  -17.6206 O   0  0  0  0  0  0  0  0  0  0  0  0
  -13.6415    5.7714  -18.2366 N   0  0  0  0  0  0  0  0  0  0  0  0
  -12.2906    4.3596  -16.7026 H   0  0  0  0  0  0  0  0  0  0  0  0
  -12.6498    5.8111  -18.4354 H   0  0  0  0  0  0  0  0  0  0  0  0
  -14.4836    6.6734  -18.9530 C   0  0  0  0  0  0  0  0  0  0  0  0
  -15.1383    6.3141  -20.1411 C   0  0  0  0  0  0  0  0  0  0  0  0
  -15.8466    7.2478  -20.9002 C   0  0  0  0  0  0  0  0  0  0  0  0
  -15.9509    8.5538  -20.4506 C   0  0  0  0  0  0  0  0  0  0  0  0
  -16.7893    9.7141  -21.4026 Cl  0  0  0  0  0  0  0  0  0  0  0  0
  -15.3751    8.9210  -19.2359 C   0  0  0  0  0  0  0  0  0  0  0  0
  -14.6455    7.9812  -18.4827 C   0  0  0  0  0  0  0  0  0  0  0  0
 13 14  1  0  0  0
 14 15  1  0  0  0
 14 19  2  0  0  0
 15 16  1  0  0  0
 15 20  1  0  0  0
 16  1  1  0  0  0
 16 17  2  0  0  0
  1  2  2  0  0  0
  2  3  1  0  0  0
  2 11  1  0  0  0
  3  4  2  0  0  0
  3  5  1  0  0  0
  5  6  1  0  0  0
  5 12  1  0  0  0
  6  7  1  0  0  0
  6 11  2  0  0  0
  7  8  2  0  0  0
  8 25  1  0  0  0
  8  9  1  0  0  0
 25 26  1  0  0  0
 25 29  1  0  0  0
 26 27  2  0  0  0
 26 28  1  0  0  0
 28 31  1  0  0  0
 28 30  1  0  0  0
 31 32  1  0  0  0
 31 37  2  0  0  0
 32 33  2  0  0  0
 33 34  1  0  0  0
 34 35  1  0  0  0
 34 36  2  0  0  0
 36 37  1  0  0  0
  9 10  2  0  0  0
 10 11  1  0  0  0
 17 18  1  0  0  0
 17 19  1  0  0  0
 19 21  1  0  0  0
 21 22  2  0  0  0
 21 23  1  0  0  0
 23 24  1  0  0  0
M  END
> <minimizedAffinity>
-7.29264

$$$$
