CHEMBL200976


 36 41  0  0  0  0  0  0  0  0999 V2000
  -28.0944   -9.6239   -6.2930 C   0  0  0  0  0  0  0  0  0  0  0  0
  -29.0619   -9.4956   -7.3336 C   0  0  0  0  0  0  0  0  0  0  0  0
  -28.7184   -9.7835   -8.7085 C   0  0  0  0  0  0  0  0  0  0  0  0
  -29.5570   -9.7636   -9.8692 C   0  0  0  0  0  0  0  0  0  0  0  0
  -29.1371  -10.1526  -11.1464 C   0  0  0  0  0  0  0  0  0  0  0  0
  -27.8120  -10.4694  -11.3655 C   0  0  0  0  0  0  0  0  0  0  0  0
  -26.9265  -10.4539  -10.2936 C   0  0  0  0  0  0  0  0  0  0  0  0
  -27.3830  -10.1663   -8.9834 C   0  0  0  0  0  0  0  0  0  0  0  0
  -26.4800  -10.3272   -7.9103 C   0  0  0  0  0  0  0  0  0  0  0  0
  -25.1890  -10.7652   -8.0338 O   0  0  0  0  0  0  0  0  0  0  0  0
  -24.6787  -10.8730   -6.7879 C   0  0  0  0  0  0  0  0  0  0  0  0
  -25.6147  -10.4899   -5.8448 C   0  0  0  0  0  0  0  0  0  0  0  0
  -26.7932  -10.1079   -6.5653 C   0  0  0  0  0  0  0  0  0  0  0  0
  -25.2683  -10.5588   -4.4386 C   0  0  0  0  0  0  0  0  0  0  0  0
  -26.0413  -10.2630   -3.5387 O   0  0  0  0  0  0  0  0  0  0  0  0
  -23.8840  -10.9955   -4.1044 C   0  0  0  0  0  0  0  0  0  0  0  0
  -23.5007  -11.0101   -2.7539 C   0  0  0  0  0  0  0  0  0  0  0  0
  -22.2043  -11.3737   -2.3932 C   0  0  0  0  0  0  0  0  0  0  0  0
  -21.2853  -11.7395   -3.3759 C   0  0  0  0  0  0  0  0  0  0  0  0
  -21.6574  -11.7438   -4.7240 C   0  0  0  0  0  0  0  0  0  0  0  0
  -22.9554  -11.3669   -5.0995 C   0  0  0  0  0  0  0  0  0  0  0  0
  -23.3405  -11.3434   -6.5427 C   0  0  0  0  0  0  0  0  0  0  0  0
  -22.5397  -11.7009   -7.4051 O   0  0  0  0  0  0  0  0  0  0  0  0
  -28.5432   -9.3612   -4.9140 C   0  0  0  0  0  0  0  0  0  0  0  0
  -29.1870  -10.1494   -4.2451 O   0  0  0  0  0  0  0  0  0  0  0  0
  -29.0097   -7.5326   -3.5353 C   0  0  0  0  0  0  0  0  0  0  0  0
  -28.2258   -8.0774   -4.5974 O   0  0  0  0  0  0  0  0  0  0  0  0
  -30.3117   -9.1137   -6.8491 O   0  0  0  0  0  0  0  0  0  0  0  0
  -30.7860   -7.8492   -7.2621 C   0  0  0  0  0  0  0  0  0  0  0  0
  -30.9944   -6.8053   -6.1599 C   0  0  0  0  0  0  0  0  0  0  0  0
  -30.4309   -5.5080   -6.6103 N   0  0  0  0  0  0  0  0  0  0  0  0
  -30.2519   -4.5491   -5.5037 C   0  0  0  0  0  0  0  0  0  0  0  0
  -29.8093   -3.1834   -6.0154 C   0  0  0  0  0  0  0  0  0  0  0  0
  -28.5216   -3.2976   -6.8093 C   0  0  0  0  0  0  0  0  0  0  0  0
  -28.6652   -4.3560   -7.8983 C   0  0  0  0  0  0  0  0  0  0  0  0
  -29.1689   -5.6925   -7.3375 C   0  0  0  0  0  0  0  0  0  0  0  0
 26 27  1  0  0  0
 27 24  1  0  0  0
 24 25  2  0  0  0
 24  1  1  0  0  0
  1  2  1  0  0  0
  1 13  2  0  0  0
  2 28  1  0  0  0
  2  3  2  0  0  0
 28 29  1  0  0  0
 29 30  1  0  0  0
 30 31  1  0  0  0
 31 32  1  0  0  0
 31 36  1  0  0  0
 32 33  1  0  0  0
 33 34  1  0  0  0
 34 35  1  0  0  0
 35 36  1  0  0  0
  3  4  1  0  0  0
  3  8  1  0  0  0
  4  5  2  0  0  0
  5  6  1  0  0  0
  6  7  2  0  0  0
  7  8  1  0  0  0
  8  9  2  0  0  0
  9 10  1  0  0  0
  9 13  1  0  0  0
 10 11  1  0  0  0
 11 12  2  0  0  0
 11 22  1  0  0  0
 12 13  1  0  0  0
 12 14  1  0  0  0
 14 15  2  0  0  0
 14 16  1  0  0  0
 16 17  1  0  0  0
 16 21  2  0  0  0
 17 18  2  0  0  0
 18 19  1  0  0  0
 19 20  2  0  0  0
 20 21  1  0  0  0
 21 22  1  0  0  0
 22 23  2  0  0  0
M  END
> <minimizedAffinity>
-8.87882

$$$$
