CHEMBL370738


 34 37  0  0  0  0  0  0  0  0999 V2000
  -29.3039   -4.9522   -6.0984 C   0  0  0  0  0  0  0  0  0  0  0  0
  -28.6586   -6.0796   -5.6125 C   0  0  0  0  0  0  0  0  0  0  0  0
  -28.7526   -7.2946   -6.2860 C   0  0  0  0  0  0  0  0  0  0  0  0
  -29.6571   -7.4730   -7.3407 C   0  0  0  0  0  0  0  0  0  0  0  0
  -30.4460   -6.3776   -7.7062 C   0  0  0  0  0  0  0  0  0  0  0  0
  -30.2179   -5.1171   -7.1424 C   0  0  0  0  0  0  0  0  0  0  0  0
  -29.7539   -8.7637   -8.0425 C   0  0  0  0  0  0  0  0  0  0  0  0
  -30.8322   -9.6314   -7.8367 C   0  0  0  0  0  0  0  0  0  0  0  0
  -32.0787   -9.5227   -7.0057 C   0  0  0  0  0  0  0  0  0  0  0  0
  -30.6466  -11.0980   -8.7013 S   0  0  0  0  0  0  0  0  0  0  0  0
  -29.1941  -10.5913   -9.4024 C   0  0  0  0  0  0  0  0  0  0  0  0
  -28.5707  -11.4154  -10.2594 N   0  0  0  0  0  0  0  0  0  0  0  0
  -27.4454  -10.8955  -10.7376 C   0  0  0  0  0  0  0  0  0  0  0  0
  -26.9134   -9.7077  -10.4355 N   0  0  0  0  0  0  0  0  0  0  0  0
  -27.5537   -8.9112   -9.5588 C   0  0  0  0  0  0  0  0  0  0  0  0
  -26.8933   -7.7176   -9.3001 N   0  0  0  0  0  0  0  0  0  0  0  0
  -28.7827   -9.3314   -8.9909 C   0  0  0  0  0  0  0  0  0  0  0  0
  -25.9612   -7.7430   -9.6995 H   0  0  0  0  0  0  0  0  0  0  0  0
  -26.9409   -7.4076   -8.3389 H   0  0  0  0  0  0  0  0  0  0  0  0
  -29.5606   -3.3417   -4.3059 C   0  0  0  0  0  0  0  0  0  0  0  0
  -29.2094   -3.6981   -5.5067 N   0  0  0  0  0  0  0  0  0  0  0  0
  -29.4455   -2.0239   -3.9156 N   0  0  0  0  0  0  0  0  0  0  0  0
  -29.4056   -1.8273   -2.9255 H   0  0  0  0  0  0  0  0  0  0  0  0
  -31.2113    1.7603   -6.5290 C   0  0  0  0  0  0  0  0  0  0  0  0
  -30.0341    0.9801   -6.0293 C   0  0  0  0  0  0  0  0  0  0  0  0
  -28.7342    1.3404   -6.3878 C   0  0  0  0  0  0  0  0  0  0  0  0
  -27.6556    0.5941   -5.9321 C   0  0  0  0  0  0  0  0  0  0  0  0
  -27.8741   -0.5182   -5.1188 C   0  0  0  0  0  0  0  0  0  0  0  0
  -29.1623   -0.8990   -4.7230 C   0  0  0  0  0  0  0  0  0  0  0  0
  -30.2380   -0.1331   -5.1982 C   0  0  0  0  0  0  0  0  0  0  0  0
  -30.0172   -4.1849   -3.3193 N   0  0  0  0  0  0  0  0  0  0  0  0
  -29.3376   -4.7879   -2.8859 H   0  0  0  0  0  0  0  0  0  0  0  0
  -31.3833   -4.6239   -3.2685 C   0  0  0  0  0  0  0  0  0  0  0  0
  -32.4771   -5.0176   -3.2146 N   0  0  0  0  0  0  0  0  0  0  0  0
 24 25  1  0  0  0
 25 26  1  0  0  0
 25 30  2  0  0  0
 26 27  2  0  0  0
 27 28  1  0  0  0
 28 29  2  0  0  0
 29 22  1  0  0  0
 29 30  1  0  0  0
 22 20  1  0  0  0
 22 23  1  0  0  0
 20 21  2  0  0  0
 20 31  1  0  0  0
 21  1  1  0  0  0
  1  2  1  0  0  0
  1  6  2  0  0  0
  2  3  2  0  0  0
  3  4  1  0  0  0
  4  7  1  0  0  0
  4  5  2  0  0  0
  7  8  2  0  0  0
  7 17  1  0  0  0
  8  9  1  0  0  0
  8 10  1  0  0  0
 10 11  1  0  0  0
 11 12  1  0  0  0
 11 17  2  0  0  0
 12 13  2  0  0  0
 13 14  1  0  0  0
 14 15  2  0  0  0
 15 16  1  0  0  0
 15 17  1  0  0  0
 16 18  1  0  0  0
 16 19  1  0  0  0
  5  6  1  0  0  0
 31 33  1  0  0  0
 31 32  1  0  0  0
 33 34  3  0  0  0
M  END
> <minimizedAffinity>
-9.06266

$$$$
