CHEMBL3951527


 31 34  0  0  0  0  0  0  0  0999 V2000
  -28.5861  -10.4612   -4.5220 C   0  0  0  0  0  0  0  0  0  0  0  0
  -29.2568   -9.7026   -5.4876 C   0  0  0  0  0  0  0  0  0  0  0  0
  -28.6596   -9.4212   -6.7377 C   0  0  0  0  0  0  0  0  0  0  0  0
  -29.1875   -8.5586   -7.7058 C   0  0  0  0  0  0  0  0  0  0  0  0
  -28.5832   -8.3603   -8.8946 N   0  0  0  0  0  0  0  0  0  0  0  0
  -27.4401   -9.0093   -9.1112 C   0  0  0  0  0  0  0  0  0  0  0  0
  -26.8399   -9.8363   -8.2562 N   0  0  0  0  0  0  0  0  0  0  0  0
  -27.4538  -10.0236   -7.0839 C   0  0  0  0  0  0  0  0  0  0  0  0
  -26.8413  -10.8388   -6.1593 C   0  0  0  0  0  0  0  0  0  0  0  0
  -27.3449  -11.0164   -4.8574 C   0  0  0  0  0  0  0  0  0  0  0  0
  -29.9770  -11.7571   -3.0731 C   0  0  0  0  0  0  0  0  0  0  0  0
  -29.0716  -10.6669   -3.2557 O   0  0  0  0  0  0  0  0  0  0  0  0
  -30.3836   -7.8359   -7.4273 N   0  0  0  0  0  0  0  0  0  0  0  0
  -31.0943   -8.4924   -7.1116 H   0  0  0  0  0  0  0  0  0  0  0  0
  -30.3849   -6.6222   -6.7143 C   0  0  0  0  0  0  0  0  0  0  0  0
  -29.6949   -5.5155   -7.2227 C   0  0  0  0  0  0  0  0  0  0  0  0
  -29.5956   -4.3329   -6.4981 C   0  0  0  0  0  0  0  0  0  0  0  0
  -30.2067   -4.2338   -5.2466 C   0  0  0  0  0  0  0  0  0  0  0  0
  -29.9933   -2.7668   -4.3669 Cl  0  0  0  0  0  0  0  0  0  0  0  0
  -30.9447   -5.3170   -4.7502 C   0  0  0  0  0  0  0  0  0  0  0  0
  -31.7378   -5.2600   -3.2148 Cl  0  0  0  0  0  0  0  0  0  0  0  0
  -31.0430   -6.5037   -5.4867 C   0  0  0  0  0  0  0  0  0  0  0  0
  -26.6267  -11.7051   -3.8878 O   0  0  0  0  0  0  0  0  0  0  0  0
  -25.2434  -11.8814   -4.2384 C   0  0  0  0  0  0  0  0  0  0  0  0
  -24.3227  -10.7124   -3.8650 C   0  0  0  0  0  0  0  0  0  0  0  0
  -23.3339  -10.3311   -4.9806 C   0  0  0  0  0  0  0  0  0  0  0  0
  -22.3691  -11.4197   -5.2309 N   0  0  0  0  0  0  0  0  0  0  0  0
  -21.4499  -11.0465   -6.3018 C   0  0  0  0  0  0  0  0  0  0  0  0
  -21.6430  -11.7172   -3.9815 C   0  0  0  0  0  0  0  0  0  0  0  0
  -22.6021  -12.0278   -2.8192 C   0  0  0  0  0  0  0  0  0  0  0  0
  -23.5997  -11.0049   -2.6406 O   0  0  0  0  0  0  0  0  0  0  0  0
 11 12  1  0  0  0
 12  1  1  0  0  0
  1  2  1  0  0  0
  1 10  2  0  0  0
  2  3  2  0  0  0
  3  4  1  0  0  0
  3  8  1  0  0  0
  4 13  1  0  0  0
  4  5  2  0  0  0
 13 15  1  0  0  0
 13 14  1  0  0  0
 15 16  1  0  0  0
 15 22  2  0  0  0
 16 17  2  0  0  0
 17 18  1  0  0  0
 18 19  1  0  0  0
 18 20  2  0  0  0
 20 21  1  0  0  0
 20 22  1  0  0  0
  5  6  1  0  0  0
  6  7  2  0  0  0
  7  8  1  0  0  0
  8  9  2  0  0  0
  9 10  1  0  0  0
 10 23  1  0  0  0
 23 24  1  0  0  0
 24 25  1  0  0  0
 25 26  1  0  0  0
 25 31  1  0  0  0
 26 27  1  0  0  0
 27 28  1  0  0  0
 27 29  1  0  0  0
 29 30  1  0  0  0
 30 31  1  0  0  0
M  END
> <minimizedAffinity>
-7.26354

$$$$
