CHEMBL3917723


 38 41  0  0  0  0  0  0  0  0999 V2000
  -29.3907   -1.4253   -5.0018 C   0  0  0  0  0  0  0  0  0  0  0  0
  -29.4109   -0.1308   -4.6274 N   0  0  0  0  0  0  0  0  0  0  0  0
  -28.8170    0.7461   -5.4402 C   0  0  0  0  0  0  0  0  0  0  0  0
  -28.1824    0.4554   -6.5753 N   0  0  0  0  0  0  0  0  0  0  0  0
  -28.1832   -0.8256   -6.9418 C   0  0  0  0  0  0  0  0  0  0  0  0
  -27.6052   -1.1352   -8.1545 C   0  0  0  0  0  0  0  0  0  0  0  0
  -27.6676   -2.4178   -8.7287 C   0  0  0  0  0  0  0  0  0  0  0  0
  -28.2054   -3.4646   -7.9783 C   0  0  0  0  0  0  0  0  0  0  0  0
  -28.7179   -3.1750   -6.7061 C   0  0  0  0  0  0  0  0  0  0  0  0
  -28.7695   -1.8454   -6.1994 C   0  0  0  0  0  0  0  0  0  0  0  0
  -30.0053   -2.4093   -4.1915 N   0  0  0  0  0  0  0  0  0  0  0  0
  -30.3183   -1.9869   -3.3223 H   0  0  0  0  0  0  0  0  0  0  0  0
  -29.3727   -6.5905   -3.9702 C   0  0  0  0  0  0  0  0  0  0  0  0
  -28.2908   -5.7257   -3.7863 C   0  0  0  0  0  0  0  0  0  0  0  0
  -28.4828   -4.3349   -3.8273 C   0  0  0  0  0  0  0  0  0  0  0  0
  -29.7524   -3.7844   -4.0240 C   0  0  0  0  0  0  0  0  0  0  0  0
  -30.8226   -4.6696   -4.2328 C   0  0  0  0  0  0  0  0  0  0  0  0
  -30.6422   -6.0551   -4.2070 C   0  0  0  0  0  0  0  0  0  0  0  0
  -29.5513   -8.7148   -5.1454 N   0  0  0  0  0  0  0  0  0  0  0  0
  -29.2217   -8.0729   -3.9774 C   0  0  0  0  0  0  0  0  0  0  0  0
  -28.7979   -8.6655   -2.9904 O   0  0  0  0  0  0  0  0  0  0  0  0
  -29.7325   -8.1901   -5.9933 H   0  0  0  0  0  0  0  0  0  0  0  0
  -29.4059  -10.1574   -5.2784 C   0  0  0  0  0  0  0  0  0  0  0  0
  -30.2594  -10.6507   -6.4373 C   0  0  0  0  0  0  0  0  0  0  0  0
  -31.3086  -11.2736   -6.3077 O   0  0  0  0  0  0  0  0  0  0  0  0
  -30.6482   -9.9128   -8.6229 C   0  0  0  0  0  0  0  0  0  0  0  0
  -29.6988  -10.2938   -7.6259 O   0  0  0  0  0  0  0  0  0  0  0  0
  -28.3337   -4.7848   -8.3177 O   0  0  0  0  0  0  0  0  0  0  0  0
  -29.1829   -5.6118   -7.5324 C   0  0  0  0  0  0  0  0  0  0  0  0
  -27.2484   -2.6608  -10.0138 O   0  0  0  0  0  0  0  0  0  0  0  0
  -27.2477   -1.5208  -10.8715 C   0  0  0  0  0  0  0  0  0  0  0  0
  -26.6807   -1.8668  -12.2456 C   0  0  0  0  0  0  0  0  0  0  0  0
  -25.4534   -1.1010  -12.5463 N   0  0  0  0  0  0  0  0  0  0  0  0
  -24.3452   -1.4584  -11.6433 C   0  0  0  0  0  0  0  0  0  0  0  0
  -23.0697   -0.6824  -11.9566 C   0  0  0  0  0  0  0  0  0  0  0  0
  -22.6646   -0.8618  -13.4096 C   0  0  0  0  0  0  0  0  0  0  0  0
  -23.8304   -0.5059  -14.3231 C   0  0  0  0  0  0  0  0  0  0  0  0
  -25.0833   -1.2991  -13.9547 C   0  0  0  0  0  0  0  0  0  0  0  0
 26 27  1  0  0  0
 27 24  1  0  0  0
 24 25  2  0  0  0
 24 23  1  0  0  0
 23 19  1  0  0  0
 19 20  1  0  0  0
 19 22  1  0  0  0
 20 21  2  0  0  0
 20 13  1  0  0  0
 13 14  1  0  0  0
 13 18  2  0  0  0
 14 15  2  0  0  0
 15 16  1  0  0  0
 16 11  1  0  0  0
 16 17  2  0  0  0
 11  1  1  0  0  0
 11 12  1  0  0  0
  1  2  1  0  0  0
  1 10  2  0  0  0
  2  3  2  0  0  0
  3  4  1  0  0  0
  4  5  2  0  0  0
  5  6  1  0  0  0
  5 10  1  0  0  0
  6  7  2  0  0  0
  7 30  1  0  0  0
  7  8  1  0  0  0
 30 31  1  0  0  0
 31 32  1  0  0  0
 32 33  1  0  0  0
 33 34  1  0  0  0
 33 38  1  0  0  0
 34 35  1  0  0  0
 35 36  1  0  0  0
 36 37  1  0  0  0
 37 38  1  0  0  0
  8 28  1  0  0  0
  8  9  2  0  0  0
 28 29  1  0  0  0
  9 10  1  0  0  0
 17 18  1  0  0  0
M  END
> <minimizedAffinity>
-8.97254

$$$$
