CHEMBL458023


 39 44  0  0  0  0  0  0  0  0999 V2000
  -29.4789   -7.3405   -6.2633 C   0  0  0  0  0  0  0  0  0  0  0  0
  -28.3406   -7.5088   -5.4531 C   0  0  0  0  0  0  0  0  0  0  0  0
  -27.7153   -6.4422   -4.5962 C   0  0  0  0  0  0  0  0  0  0  0  0
  -27.6874   -8.7507   -5.4602 C   0  0  0  0  0  0  0  0  0  0  0  0
  -28.1647   -9.8578   -6.1760 C   0  0  0  0  0  0  0  0  0  0  0  0
  -29.4358   -9.7535   -6.8168 C   0  0  0  0  0  0  0  0  0  0  0  0
  -30.1015  -10.8676   -7.3971 C   0  0  0  0  0  0  0  0  0  0  0  0
  -31.3286  -10.7551   -8.0371 C   0  0  0  0  0  0  0  0  0  0  0  0
  -31.9373   -9.5124   -8.1242 C   0  0  0  0  0  0  0  0  0  0  0  0
  -31.3216   -8.3930   -7.5585 C   0  0  0  0  0  0  0  0  0  0  0  0
  -30.0830   -8.4788   -6.8804 C   0  0  0  0  0  0  0  0  0  0  0  0
  -27.3965  -11.0608   -6.2319 N   0  0  0  0  0  0  0  0  0  0  0  0
  -27.8903  -11.8079   -6.6944 H   0  0  0  0  0  0  0  0  0  0  0  0
  -26.0449  -11.1422   -6.2248 C   0  0  0  0  0  0  0  0  0  0  0  0
  -25.1712  -11.0766   -7.2052 N   0  0  0  0  0  0  0  0  0  0  0  0
  -23.9395  -11.2829   -6.6360 C   0  0  0  0  0  0  0  0  0  0  0  0
  -22.6719  -11.3371   -7.2350 C   0  0  0  0  0  0  0  0  0  0  0  0
  -21.5552  -11.5514   -6.4181 C   0  0  0  0  0  0  0  0  0  0  0  0
  -21.6976  -11.7077   -5.0367 C   0  0  0  0  0  0  0  0  0  0  0  0
  -22.9563  -11.6655   -4.4245 C   0  0  0  0  0  0  0  0  0  0  0  0
  -24.0512  -11.4538   -5.2633 C   0  0  0  0  0  0  0  0  0  0  0  0
  -25.3989  -11.3605   -5.0294 N   0  0  0  0  0  0  0  0  0  0  0  0
  -25.8471  -11.4226   -4.1323 H   0  0  0  0  0  0  0  0  0  0  0  0
  -30.1172   -6.1089   -6.4179 O   0  0  0  0  0  0  0  0  0  0  0  0
  -30.0972   -4.0719   -5.0990 C   0  0  0  0  0  0  0  0  0  0  0  0
  -30.7006   -3.3951   -4.0135 C   0  0  0  0  0  0  0  0  0  0  0  0
  -31.6326   -4.0150   -3.1872 C   0  0  0  0  0  0  0  0  0  0  0  0
  -31.9086   -5.3427   -3.4165 C   0  0  0  0  0  0  0  0  0  0  0  0
  -31.3376   -6.0544   -4.4057 N   0  0  0  0  0  0  0  0  0  0  0  0
  -30.4994   -5.4110   -5.2664 C   0  0  0  0  0  0  0  0  0  0  0  0
  -27.9144   -1.3545   -6.1615 C   0  0  0  0  0  0  0  0  0  0  0  0
  -27.6183   -1.6040   -7.4391 N   0  0  0  0  0  0  0  0  0  0  0  0
  -28.1021   -2.7399   -7.9649 C   0  0  0  0  0  0  0  0  0  0  0  0
  -28.8872   -3.6310   -7.2738 C   0  0  0  0  0  0  0  0  0  0  0  0
  -29.1698   -3.3056   -5.9637 C   0  0  0  0  0  0  0  0  0  0  0  0
  -28.6769   -2.1600   -5.4093 N   0  0  0  0  0  0  0  0  0  0  0  0
  -28.2828    0.6841   -4.9112 C   0  0  0  0  0  0  0  0  0  0  0  0
  -27.4006   -0.1671   -5.6703 N   0  0  0  0  0  0  0  0  0  0  0  0
  -26.9024    0.2699   -6.4380 H   0  0  0  0  0  0  0  0  0  0  0  0
 37 38  1  0  0  0
 38 31  1  0  0  0
 38 39  1  0  0  0
 31 32  1  0  0  0
 31 36  2  0  0  0
 32 33  2  0  0  0
 33 34  1  0  0  0
 34 35  2  0  0  0
 35 25  1  0  0  0
 35 36  1  0  0  0
 25 26  1  0  0  0
 25 30  2  0  0  0
 26 27  2  0  0  0
 27 28  1  0  0  0
 28 29  2  0  0  0
 29 30  1  0  0  0
 30 24  1  0  0  0
 24  1  1  0  0  0
  1  2  1  0  0  0
  1 11  2  0  0  0
  2  3  1  0  0  0
  2  4  2  0  0  0
  4  5  1  0  0  0
  5 12  1  0  0  0
  5  6  2  0  0  0
 12 14  1  0  0  0
 12 13  1  0  0  0
 14 15  2  0  0  0
 14 22  1  0  0  0
 15 16  1  0  0  0
 16 17  1  0  0  0
 16 21  2  0  0  0
 17 18  2  0  0  0
 18 19  1  0  0  0
 19 20  2  0  0  0
 20 21  1  0  0  0
 21 22  1  0  0  0
 22 23  1  0  0  0
  6  7  1  0  0  0
  6 11  1  0  0  0
  7  8  2  0  0  0
  8  9  1  0  0  0
  9 10  2  0  0  0
 10 11  1  0  0  0
M  END
> <minimizedAffinity>
-9.85792

$$$$
