CHEMBL429643


 30 32  0  0  0  0  0  0  0  0999 V2000
  -24.8416  -12.1252   -8.7821 C   0  0  0  0  0  0  0  0  0  0  0  0
  -24.3402  -11.3727   -7.6533 N   0  0  0  0  0  0  0  0  0  0  0  0
  -23.0065  -11.3249   -7.4606 N   0  0  0  0  0  0  0  0  0  0  0  0
  -22.8753  -10.5475   -6.3908 C   0  0  0  0  0  0  0  0  0  0  0  0
  -24.1181  -10.0788   -5.9073 C   0  0  0  0  0  0  0  0  0  0  0  0
  -25.0677  -10.6057   -6.7644 C   0  0  0  0  0  0  0  0  0  0  0  0
  -26.5103  -10.5054   -6.8109 C   0  0  0  0  0  0  0  0  0  0  0  0
  -27.2316  -11.4846   -6.6312 O   0  0  0  0  0  0  0  0  0  0  0  0
  -27.0058   -9.2630   -7.1653 N   0  0  0  0  0  0  0  0  0  0  0  0
  -26.3567   -8.6305   -7.6194 H   0  0  0  0  0  0  0  0  0  0  0  0
  -28.3770   -8.9366   -7.1883 C   0  0  0  0  0  0  0  0  0  0  0  0
  -29.1900   -9.5232   -8.1517 C   0  0  0  0  0  0  0  0  0  0  0  0
  -30.5603   -9.2496   -8.1658 C   0  0  0  0  0  0  0  0  0  0  0  0
  -31.1189   -8.3240   -7.2743 C   0  0  0  0  0  0  0  0  0  0  0  0
  -32.8213   -8.0721   -7.3969 Cl  0  0  0  0  0  0  0  0  0  0  0  0
  -30.3071   -7.6643   -6.3467 C   0  0  0  0  0  0  0  0  0  0  0  0
  -28.9343   -8.0092   -6.2983 C   0  0  0  0  0  0  0  0  0  0  0  0
  -30.7848   -6.5856   -5.4081 C   0  0  0  0  0  0  0  0  0  0  0  0
  -32.0747   -6.6683   -4.9894 F   0  0  0  0  0  0  0  0  0  0  0  0
  -30.0360   -6.5231   -4.2707 F   0  0  0  0  0  0  0  0  0  0  0  0
  -30.6770   -5.3479   -5.9790 F   0  0  0  0  0  0  0  0  0  0  0  0
  -24.2324   -9.2786   -4.8182 N   0  0  0  0  0  0  0  0  0  0  0  0
  -23.6519   -8.4415   -4.7814 H   0  0  0  0  0  0  0  0  0  0  0  0
  -24.5396   -9.7503   -3.4761 C   0  0  0  0  0  0  0  0  0  0  0  0
  -25.9183  -10.3682   -3.4157 C   0  0  0  0  0  0  0  0  0  0  0  0
  -26.1316  -11.7408   -3.2405 C   0  0  0  0  0  0  0  0  0  0  0  0
  -27.4317  -12.2207   -3.1848 C   0  0  0  0  0  0  0  0  0  0  0  0
  -28.5220  -11.4362   -3.2889 N   0  0  0  0  0  0  0  0  0  0  0  0
  -28.3034  -10.1171   -3.4680 C   0  0  0  0  0  0  0  0  0  0  0  0
  -27.0423   -9.5438   -3.5390 C   0  0  0  0  0  0  0  0  0  0  0  0
  1  2  1  0  0  0
  2  3  1  0  0  0
  2  6  1  0  0  0
  3  4  2  0  0  0
  4  5  1  0  0  0
  5 22  1  0  0  0
  5  6  2  0  0  0
 22 24  1  0  0  0
 22 23  1  0  0  0
 24 25  1  0  0  0
 25 26  1  0  0  0
 25 30  2  0  0  0
 26 27  2  0  0  0
 27 28  1  0  0  0
 28 29  2  0  0  0
 29 30  1  0  0  0
  6  7  1  0  0  0
  7  8  2  0  0  0
  7  9  1  0  0  0
  9 11  1  0  0  0
  9 10  1  0  0  0
 11 12  1  0  0  0
 11 17  2  0  0  0
 12 13  2  0  0  0
 13 14  1  0  0  0
 14 15  1  0  0  0
 14 16  2  0  0  0
 16 18  1  0  0  0
 16 17  1  0  0  0
 18 19  1  0  0  0
 18 20  1  0  0  0
 18 21  1  0  0  0
M  END
> <minimizedAffinity>
-6.71427

$$$$
