CHEMBL3690482


 35 38  0  0  0  0  0  0  0  0999 V2000
  -23.1893    0.3082  -14.0290 C   0  0  0  0  0  0  0  0  0  0  0  0
  -21.9407   -0.4413  -14.2547 C   0  0  0  0  0  0  0  0  0  0  0  0
  -20.7711    0.1989  -14.4077 C   0  0  0  0  0  0  0  0  0  0  0  0
  -20.7346    1.5945  -14.3923 N   0  0  0  0  0  0  0  0  0  0  0  0
  -19.6786    2.4920  -14.6108 C   0  0  0  0  0  0  0  0  0  0  0  0
  -20.2633    3.7294  -14.3785 C   0  0  0  0  0  0  0  0  0  0  0  0
  -21.6020    3.6354  -14.0983 N   0  0  0  0  0  0  0  0  0  0  0  0
  -21.8787    2.3525  -14.1461 C   0  0  0  0  0  0  0  0  0  0  0  0
  -23.1204    1.6609  -13.9766 C   0  0  0  0  0  0  0  0  0  0  0  0
  -26.1943   -1.1267  -12.4268 C   0  0  0  0  0  0  0  0  0  0  0  0
  -26.7547   -1.8094  -13.4933 C   0  0  0  0  0  0  0  0  0  0  0  0
  -26.1247   -1.7166  -14.7098 C   0  0  0  0  0  0  0  0  0  0  0  0
  -24.9944   -1.0276  -14.9017 N   0  0  0  0  0  0  0  0  0  0  0  0
  -24.4910   -0.4002  -13.8228 C   0  0  0  0  0  0  0  0  0  0  0  0
  -25.0607   -0.4102  -12.5995 N   0  0  0  0  0  0  0  0  0  0  0  0
  -28.2708   -1.2239  -11.1074 C   0  0  0  0  0  0  0  0  0  0  0  0
  -26.8185   -1.1376  -11.1768 N   0  0  0  0  0  0  0  0  0  0  0  0
  -26.0475   -1.6856  -10.0703 C   0  0  0  0  0  0  0  0  0  0  0  0
  -18.3115    2.1702  -15.0549 C   0  0  0  0  0  0  0  0  0  0  0  0
  -17.5579    3.1043  -15.7734 C   0  0  0  0  0  0  0  0  0  0  0  0
  -16.2718    2.8107  -16.2118 C   0  0  0  0  0  0  0  0  0  0  0  0
  -15.6798    1.6005  -15.8716 C   0  0  0  0  0  0  0  0  0  0  0  0
  -16.3543    0.6679  -15.0827 C   0  0  0  0  0  0  0  0  0  0  0  0
  -17.6857    0.9480  -14.7047 C   0  0  0  0  0  0  0  0  0  0  0  0
  -15.7384   -0.5334  -14.6392 N   0  0  0  0  0  0  0  0  0  0  0  0
  -15.4698   -0.8747  -13.3277 C   0  0  0  0  0  0  0  0  0  0  0  0
  -15.7182   -0.2155  -12.3241 O   0  0  0  0  0  0  0  0  0  0  0  0
  -14.8154   -2.0802  -13.2128 N   0  0  0  0  0  0  0  0  0  0  0  0
  -15.4991   -1.2106  -15.3475 H   0  0  0  0  0  0  0  0  0  0  0  0
  -15.0345   -2.7827  -13.9043 H   0  0  0  0  0  0  0  0  0  0  0  0
  -14.4763   -2.5584  -11.8632 C   0  0  0  0  0  0  0  0  0  0  0  0
  -15.6026   -3.2454  -11.0772 C   0  0  0  0  0  0  0  0  0  0  0  0
  -16.6245   -3.6234  -11.8795 F   0  0  0  0  0  0  0  0  0  0  0  0
  -15.1309   -4.3751  -10.4900 F   0  0  0  0  0  0  0  0  0  0  0  0
  -16.1006   -2.4656  -10.0957 F   0  0  0  0  0  0  0  0  0  0  0  0
 16 17  1  0  0  0
 17 18  1  0  0  0
 17 10  1  0  0  0
 10 11  1  0  0  0
 10 15  2  0  0  0
 11 12  2  0  0  0
 12 13  1  0  0  0
 13 14  2  0  0  0
 14  1  1  0  0  0
 14 15  1  0  0  0
  1  2  1  0  0  0
  1  9  2  0  0  0
  2  3  2  0  0  0
  3  4  1  0  0  0
  4  5  1  0  0  0
  4  8  1  0  0  0
  5 19  1  0  0  0
  5  6  2  0  0  0
 19 20  1  0  0  0
 19 24  2  0  0  0
 20 21  2  0  0  0
 21 22  1  0  0  0
 22 23  2  0  0  0
 23 25  1  0  0  0
 23 24  1  0  0  0
 25 26  1  0  0  0
 25 29  1  0  0  0
 26 27  2  0  0  0
 26 28  1  0  0  0
 28 31  1  0  0  0
 28 30  1  0  0  0
 31 32  1  0  0  0
 32 33  1  0  0  0
 32 34  1  0  0  0
 32 35  1  0  0  0
  6  7  1  0  0  0
  7  8  2  0  0  0
  8  9  1  0  0  0
M  END
> <minimizedAffinity>
-9.44154

$$$$
