CHEMBL3644556


 42 46  0  0  0  0  0  0  0  0999 V2000
  -13.4772    1.0498  -15.9516 N   0  0  0  0  0  0  0  0  0  0  0  0
  -12.5694    1.2551  -14.8209 C   0  0  0  0  0  0  0  0  0  0  0  0
  -12.7229    0.0895  -13.8426 C   0  0  0  0  0  0  0  0  0  0  0  0
  -12.6435   -1.2582  -14.5301 C   0  0  0  0  0  0  0  0  0  0  0  0
  -12.8464   -1.3205  -15.9307 C   0  0  0  0  0  0  0  0  0  0  0  0
  -12.7200   -2.5578  -16.5601 C   0  0  0  0  0  0  0  0  0  0  0  0
  -12.4367   -3.7091  -15.9200 N   0  0  0  0  0  0  0  0  0  0  0  0
  -12.2694   -3.6285  -14.5736 C   0  0  0  0  0  0  0  0  0  0  0  0
  -12.3779   -2.4570  -13.8319 C   0  0  0  0  0  0  0  0  0  0  0  0
  -13.1524   -0.1032  -16.7868 C   0  0  0  0  0  0  0  0  0  0  0  0
  -16.8979    2.5205  -15.7714 C   0  0  0  0  0  0  0  0  0  0  0  0
  -16.7665    3.6487  -16.5756 C   0  0  0  0  0  0  0  0  0  0  0  0
  -15.5424    3.8916  -17.2015 C   0  0  0  0  0  0  0  0  0  0  0  0
  -14.4538    3.0223  -17.0116 C   0  0  0  0  0  0  0  0  0  0  0  0
  -14.5473    1.8878  -16.1954 C   0  0  0  0  0  0  0  0  0  0  0  0
  -15.7984    1.6550  -15.6086 C   0  0  0  0  0  0  0  0  0  0  0  0
  -19.3525    2.5061  -15.5173 N   0  0  0  0  0  0  0  0  0  0  0  0
  -18.1140    2.2126  -14.9659 C   0  0  0  0  0  0  0  0  0  0  0  0
  -17.9270    1.6769  -13.8754 O   0  0  0  0  0  0  0  0  0  0  0  0
  -19.3920    2.7294  -16.5029 H   0  0  0  0  0  0  0  0  0  0  0  0
  -22.2267    0.6830  -13.9812 C   0  0  0  0  0  0  0  0  0  0  0  0
  -22.9640    1.7577  -13.4587 C   0  0  0  0  0  0  0  0  0  0  0  0
  -22.5488    3.0682  -13.6566 C   0  0  0  0  0  0  0  0  0  0  0  0
  -21.3748    3.3252  -14.3596 C   0  0  0  0  0  0  0  0  0  0  0  0
  -20.5947    2.2816  -14.8662 C   0  0  0  0  0  0  0  0  0  0  0  0
  -21.0529    0.9632  -14.7108 C   0  0  0  0  0  0  0  0  0  0  0  0
  -22.7664   -1.0313  -12.2295 C   0  0  0  0  0  0  0  0  0  0  0  0
  -22.7495   -0.7226  -13.7289 C   0  0  0  0  0  0  0  0  0  0  0  0
  -24.1117   -1.0195  -14.3584 C   0  0  0  0  0  0  0  0  0  0  0  0
  -12.1371   -2.5828  -12.3637 C   0  0  0  0  0  0  0  0  0  0  0  0
  -11.3094   -1.8614  -11.8234 O   0  0  0  0  0  0  0  0  0  0  0  0
  -12.8549   -3.5478  -11.6916 N   0  0  0  0  0  0  0  0  0  0  0  0
  -13.3188   -4.2656  -12.2304 H   0  0  0  0  0  0  0  0  0  0  0  0
  -12.7552   -3.7571  -10.2505 C   0  0  0  0  0  0  0  0  0  0  0  0
  -14.0005   -4.4963   -9.7595 C   0  0  0  0  0  0  0  0  0  0  0  0
  -14.7243   -5.3036  -10.8492 C   0  0  0  0  0  0  0  0  0  0  0  0
  -16.1114   -4.8375  -11.0256 N   0  0  0  0  0  0  0  0  0  0  0  0
  -16.8754   -5.5624  -12.0662 C   0  0  0  0  0  0  0  0  0  0  0  0
  -16.5355   -5.1547  -13.5091 C   0  0  0  0  0  0  0  0  0  0  0  0
  -16.6923   -3.7450  -13.7026 O   0  0  0  0  0  0  0  0  0  0  0  0
  -15.8704   -3.0185  -12.7823 C   0  0  0  0  0  0  0  0  0  0  0  0
  -16.1952   -3.3889  -11.3244 C   0  0  0  0  0  0  0  0  0  0  0  0
 27 28  1  0  0  0
 28 29  1  0  0  0
 28 21  1  0  0  0
 21 22  1  0  0  0
 21 26  2  0  0  0
 22 23  2  0  0  0
 23 24  1  0  0  0
 24 25  2  0  0  0
 25 17  1  0  0  0
 25 26  1  0  0  0
 17 18  1  0  0  0
 17 20  1  0  0  0
 18 19  2  0  0  0
 18 11  1  0  0  0
 11 12  1  0  0  0
 11 16  2  0  0  0
 12 13  2  0  0  0
 13 14  1  0  0  0
 14 15  2  0  0  0
 15  1  1  0  0  0
 15 16  1  0  0  0
  1  2  1  0  0  0
  1 10  1  0  0  0
  2  3  1  0  0  0
  3  4  1  0  0  0
  4  5  1  0  0  0
  4  9  2  0  0  0
  5  6  2  0  0  0
  5 10  1  0  0  0
  6  7  1  0  0  0
  7  8  2  0  0  0
  8  9  1  0  0  0
  9 30  1  0  0  0
 30 31  2  0  0  0
 30 32  1  0  0  0
 32 34  1  0  0  0
 32 33  1  0  0  0
 34 35  1  0  0  0
 35 36  1  0  0  0
 36 37  1  0  0  0
 37 38  1  0  0  0
 37 42  1  0  0  0
 38 39  1  0  0  0
 39 40  1  0  0  0
 40 41  1  0  0  0
 41 42  1  0  0  0
M  END
> <minimizedAffinity>
-9.99205

$$$$
