CHEMBL4101438


 27 29  0  0  0  0  0  0  0  0999 V2000
  -18.6052    2.1533  -15.0500 C   0  0  0  0  0  0  0  0  0  0  0  0
  -19.5126    2.9375  -14.3394 C   0  0  0  0  0  0  0  0  0  0  0  0
  -20.8140    2.5066  -14.0781 C   0  0  0  0  0  0  0  0  0  0  0  0
  -21.2321    1.2246  -14.4254 C   0  0  0  0  0  0  0  0  0  0  0  0
  -20.3029    0.3747  -15.0304 C   0  0  0  0  0  0  0  0  0  0  0  0
  -19.0133    0.8402  -15.3532 C   0  0  0  0  0  0  0  0  0  0  0  0
  -16.3216   -0.1835  -13.5883 C   0  0  0  0  0  0  0  0  0  0  0  0
  -15.5845    0.8745  -14.3332 C   0  0  0  0  0  0  0  0  0  0  0  0
  -14.2448    0.7759  -14.3577 N   0  0  0  0  0  0  0  0  0  0  0  0
  -13.8572    1.8501  -15.0562 N   0  0  0  0  0  0  0  0  0  0  0  0
  -14.8809    2.6315  -15.4873 C   0  0  0  0  0  0  0  0  0  0  0  0
  -14.7266    3.7634  -16.1969 N   0  0  0  0  0  0  0  0  0  0  0  0
  -15.8962    4.3493  -16.5071 C   0  0  0  0  0  0  0  0  0  0  0  0
  -17.1503    3.8715  -16.1574 C   0  0  0  0  0  0  0  0  0  0  0  0
  -17.2785    2.6814  -15.4121 C   0  0  0  0  0  0  0  0  0  0  0  0
  -16.0600    2.0301  -15.0542 C   0  0  0  0  0  0  0  0  0  0  0  0
  -12.8701    2.0082  -15.2093 H   0  0  0  0  0  0  0  0  0  0  0  0
  -22.5405    0.7486  -14.1725 N   0  0  0  0  0  0  0  0  0  0  0  0
  -22.9423    0.0730  -13.0419 C   0  0  0  0  0  0  0  0  0  0  0  0
  -22.2545   -0.1686  -12.0586 O   0  0  0  0  0  0  0  0  0  0  0  0
  -24.2605   -0.3238  -13.0922 N   0  0  0  0  0  0  0  0  0  0  0  0
  -23.2686    1.0360  -14.8088 H   0  0  0  0  0  0  0  0  0  0  0  0
  -24.6396   -0.4786  -14.0143 H   0  0  0  0  0  0  0  0  0  0  0  0
  -24.7323   -1.1720  -12.0099 C   0  0  0  0  0  0  0  0  0  0  0  0
  -26.2469   -1.1562  -11.7920 C   0  0  0  0  0  0  0  0  0  0  0  0
  -26.9928   -1.8265  -12.9423 C   0  0  0  0  0  0  0  0  0  0  0  0
  -26.6279   -1.7726  -10.4471 C   0  0  0  0  0  0  0  0  0  0  0  0
  7  8  1  0  0  0
  8  9  2  0  0  0
  8 16  1  0  0  0
  9 10  1  0  0  0
 10 11  1  0  0  0
 10 17  1  0  0  0
 11 12  1  0  0  0
 11 16  2  0  0  0
 12 13  2  0  0  0
 13 14  1  0  0  0
 14 15  2  0  0  0
 15  1  1  0  0  0
 15 16  1  0  0  0
  1  2  1  0  0  0
  1  6  2  0  0  0
  2  3  2  0  0  0
  3  4  1  0  0  0
  4 18  1  0  0  0
  4  5  2  0  0  0
 18 19  1  0  0  0
 18 22  1  0  0  0
 19 20  2  0  0  0
 19 21  1  0  0  0
 21 24  1  0  0  0
 21 23  1  0  0  0
 24 25  1  0  0  0
 25 26  1  0  0  0
 25 27  1  0  0  0
  5  6  1  0  0  0
M  END
> <minimizedAffinity>
-8.74530

$$$$
