CHEMBL281872


 30 33  0  0  0  0  0  0  0  0999 V2000
  -26.7322   -9.0267   -4.8402 C   0  0  0  0  0  0  0  0  0  0  0  0
  -27.5897   -8.0665   -4.3163 C   0  0  0  0  0  0  0  0  0  0  0  0
  -28.8221   -7.7653   -4.9278 C   0  0  0  0  0  0  0  0  0  0  0  0
  -29.6511   -6.7083   -4.5309 C   0  0  0  0  0  0  0  0  0  0  0  0
  -30.8292   -6.4825   -5.1286 N   0  0  0  0  0  0  0  0  0  0  0  0
  -31.1643   -7.2824   -6.1443 C   0  0  0  0  0  0  0  0  0  0  0  0
  -30.4212   -8.2796   -6.6389 N   0  0  0  0  0  0  0  0  0  0  0  0
  -29.2498   -8.5084   -6.0308 C   0  0  0  0  0  0  0  0  0  0  0  0
  -28.4223   -9.5222   -6.5052 C   0  0  0  0  0  0  0  0  0  0  0  0
  -27.1863   -9.8150   -5.9065 C   0  0  0  0  0  0  0  0  0  0  0  0
  -25.2964  -10.2572   -3.3393 C   0  0  0  0  0  0  0  0  0  0  0  0
  -25.4841   -9.2441   -4.3244 O   0  0  0  0  0  0  0  0  0  0  0  0
  -29.2074   -5.8059   -3.5241 N   0  0  0  0  0  0  0  0  0  0  0  0
  -29.7120   -5.9459   -2.6536 H   0  0  0  0  0  0  0  0  0  0  0  0
  -28.9515   -4.4393   -3.7703 C   0  0  0  0  0  0  0  0  0  0  0  0
  -27.7332   -4.0277   -4.3281 C   0  0  0  0  0  0  0  0  0  0  0  0
  -27.5401   -2.7040   -4.7202 C   0  0  0  0  0  0  0  0  0  0  0  0
  -28.5617   -1.7757   -4.5305 C   0  0  0  0  0  0  0  0  0  0  0  0
  -28.3450   -0.0122   -5.1726 Br  0  0  0  0  0  0  0  0  0  0  0  0
  -29.7489   -2.1445   -3.9012 C   0  0  0  0  0  0  0  0  0  0  0  0
  -29.9277   -3.4695   -3.5168 C   0  0  0  0  0  0  0  0  0  0  0  0
  -31.0824   -3.8322   -2.9349 F   0  0  0  0  0  0  0  0  0  0  0  0
  -26.5405  -10.8966   -6.4668 O   0  0  0  0  0  0  0  0  0  0  0  0
  -25.7979  -10.6040   -7.6501 C   0  0  0  0  0  0  0  0  0  0  0  0
  -25.9379  -11.7044   -8.6896 C   0  0  0  0  0  0  0  0  0  0  0  0
  -26.8865  -11.2825   -9.6997 N   0  0  0  0  0  0  0  0  0  0  0  0
  -28.2084  -11.6016   -9.7938 C   0  0  0  0  0  0  0  0  0  0  0  0
  -28.6796  -10.7526  -10.7662 C   0  0  0  0  0  0  0  0  0  0  0  0
  -27.6559   -9.9776  -11.2311 N   0  0  0  0  0  0  0  0  0  0  0  0
  -26.5553  -10.3136  -10.5719 N   0  0  0  0  0  0  0  0  0  0  0  0
 11 12  1  0  0  0
 12  1  1  0  0  0
  1  2  1  0  0  0
  1 10  2  0  0  0
  2  3  2  0  0  0
  3  4  1  0  0  0
  3  8  1  0  0  0
  4 13  1  0  0  0
  4  5  2  0  0  0
 13 15  1  0  0  0
 13 14  1  0  0  0
 15 16  1  0  0  0
 15 21  2  0  0  0
 16 17  2  0  0  0
 17 18  1  0  0  0
 18 19  1  0  0  0
 18 20  2  0  0  0
 20 21  1  0  0  0
 21 22  1  0  0  0
  5  6  1  0  0  0
  6  7  2  0  0  0
  7  8  1  0  0  0
  8  9  2  0  0  0
  9 10  1  0  0  0
 10 23  1  0  0  0
 23 24  1  0  0  0
 24 25  1  0  0  0
 25 26  1  0  0  0
 26 27  1  0  0  0
 26 30  1  0  0  0
 27 28  2  0  0  0
 28 29  1  0  0  0
 29 30  2  0  0  0
M  END
> <minimizedAffinity>
-7.59482

$$$$
