CHEMBL254760


 38 42  0  0  0  0  0  0  0  0999 V2000
  -13.7350   -1.6138  -13.0909 C   0  0  0  0  0  0  0  0  0  0  0  0
  -15.1045   -1.3841  -12.9518 C   0  0  0  0  0  0  0  0  0  0  0  0
  -15.7622   -0.5422  -13.8498 C   0  0  0  0  0  0  0  0  0  0  0  0
  -15.0896   -0.0012  -14.9540 C   0  0  0  0  0  0  0  0  0  0  0  0
  -13.7368   -0.2834  -15.1251 C   0  0  0  0  0  0  0  0  0  0  0  0
  -13.0730   -1.0869  -14.1983 C   0  0  0  0  0  0  0  0  0  0  0  0
  -11.7649   -1.3279  -14.3753 F   0  0  0  0  0  0  0  0  0  0  0  0
  -15.8559    0.8232  -15.7970 N   0  0  0  0  0  0  0  0  0  0  0  0
  -16.3464    0.3242  -16.5424 H   0  0  0  0  0  0  0  0  0  0  0  0
  -15.9722    2.1884  -15.8976 C   0  0  0  0  0  0  0  0  0  0  0  0
  -14.7756    3.3470  -16.0223 S   0  0  0  0  0  0  0  0  0  0  0  0
  -17.2782    2.6497  -15.9647 N   0  0  0  0  0  0  0  0  0  0  0  0
  -18.2748    2.5839  -14.9982 C   0  0  0  0  0  0  0  0  0  0  0  0
  -18.1098    2.0759  -13.8894 O   0  0  0  0  0  0  0  0  0  0  0  0
  -17.5075    3.0730  -16.8542 H   0  0  0  0  0  0  0  0  0  0  0  0
  -19.5984    3.1899  -15.4262 C   0  0  0  0  0  0  0  0  0  0  0  0
  -20.7612    2.3880  -14.9038 C   0  0  0  0  0  0  0  0  0  0  0  0
  -21.8289    3.0169  -14.2504 C   0  0  0  0  0  0  0  0  0  0  0  0
  -22.8453    2.2555  -13.6726 C   0  0  0  0  0  0  0  0  0  0  0  0
  -22.8072    0.8646  -13.7488 C   0  0  0  0  0  0  0  0  0  0  0  0
  -21.7625    0.2316  -14.4188 C   0  0  0  0  0  0  0  0  0  0  0  0
  -20.7430    0.9890  -14.9943 C   0  0  0  0  0  0  0  0  0  0  0  0
  -12.9744   -2.3469  -12.2088 O   0  0  0  0  0  0  0  0  0  0  0  0
  -13.7035   -6.4869  -14.1155 C   0  0  0  0  0  0  0  0  0  0  0  0
  -14.3118   -6.8295  -12.9295 C   0  0  0  0  0  0  0  0  0  0  0  0
  -14.2273   -5.7886  -11.9578 C   0  0  0  0  0  0  0  0  0  0  0  0
  -14.6961   -5.8666  -10.6816 N   0  0  0  0  0  0  0  0  0  0  0  0
  -14.4972   -4.7783   -9.9161 C   0  0  0  0  0  0  0  0  0  0  0  0
  -13.9066   -3.6052  -10.3395 C   0  0  0  0  0  0  0  0  0  0  0  0
  -13.5052   -3.4979  -11.6716 C   0  0  0  0  0  0  0  0  0  0  0  0
  -13.6132   -4.6462  -12.4688 C   0  0  0  0  0  0  0  0  0  0  0  0
  -13.0819   -4.9015  -14.0815 S   0  0  0  0  0  0  0  0  0  0  0  0
  -12.8691  -10.4718  -16.9678 C   0  0  0  0  0  0  0  0  0  0  0  0
  -13.2044   -9.1432  -16.5254 N   0  0  0  0  0  0  0  0  0  0  0  0
  -13.7714   -8.1551  -17.2745 C   0  0  0  0  0  0  0  0  0  0  0  0
  -14.0409   -7.0961  -16.5430 N   0  0  0  0  0  0  0  0  0  0  0  0
  -13.5888   -7.4051  -15.2827 C   0  0  0  0  0  0  0  0  0  0  0  0
  -13.0454   -8.6719  -15.2577 C   0  0  0  0  0  0  0  0  0  0  0  0
 33 34  1  0  0  0
 34 35  1  0  0  0
 34 38  1  0  0  0
 35 36  2  0  0  0
 36 37  1  0  0  0
 37 24  1  0  0  0
 37 38  2  0  0  0
 24 25  2  0  0  0
 24 32  1  0  0  0
 25 26  1  0  0  0
 26 27  1  0  0  0
 26 31  2  0  0  0
 27 28  2  0  0  0
 28 29  1  0  0  0
 29 30  2  0  0  0
 30 23  1  0  0  0
 30 31  1  0  0  0
 23  1  1  0  0  0
  1  2  1  0  0  0
  1  6  2  0  0  0
  2  3  2  0  0  0
  3  4  1  0  0  0
  4  8  1  0  0  0
  4  5  2  0  0  0
  8 10  1  0  0  0
  8  9  1  0  0  0
 10 11  2  0  0  0
 10 12  1  0  0  0
 12 13  1  0  0  0
 12 15  1  0  0  0
 13 14  2  0  0  0
 13 16  1  0  0  0
 16 17  1  0  0  0
 17 18  1  0  0  0
 17 22  2  0  0  0
 18 19  2  0  0  0
 19 20  1  0  0  0
 20 21  2  0  0  0
 21 22  1  0  0  0
  5  6  1  0  0  0
  6  7  1  0  0  0
 31 32  1  0  0  0
M  END
> <minimizedAffinity>
-9.11393

$$$$
