CHEMBL1080580


 38 41  0  0  0  0  0  0  0  0999 V2000
  -14.7603   -6.4532  -11.2845 C   0  0  0  0  0  0  0  0  0  0  0  0
  -14.9461   -5.1873  -12.0819 C   0  0  0  0  0  0  0  0  0  0  0  0
  -15.8610   -4.2433  -11.5996 C   0  0  0  0  0  0  0  0  0  0  0  0
  -16.0651   -3.0311  -12.2646 C   0  0  0  0  0  0  0  0  0  0  0  0
  -15.3664   -2.7297  -13.4265 C   0  0  0  0  0  0  0  0  0  0  0  0
  -14.4618   -3.6826  -13.9199 C   0  0  0  0  0  0  0  0  0  0  0  0
  -14.2509   -4.9302  -13.2838 C   0  0  0  0  0  0  0  0  0  0  0  0
  -15.5134   -1.5032  -14.1312 N   0  0  0  0  0  0  0  0  0  0  0  0
  -15.3917   -0.2392  -13.5760 C   0  0  0  0  0  0  0  0  0  0  0  0
  -15.2042    0.0149  -12.3877 O   0  0  0  0  0  0  0  0  0  0  0  0
  -15.8314   -1.5740  -15.0885 H   0  0  0  0  0  0  0  0  0  0  0  0
  -15.5692    0.9264  -14.4869 C   0  0  0  0  0  0  0  0  0  0  0  0
  -14.4077    1.5764  -14.9240 C   0  0  0  0  0  0  0  0  0  0  0  0
  -14.4802    2.6567  -15.8062 C   0  0  0  0  0  0  0  0  0  0  0  0
  -15.7138    3.0913  -16.3044 C   0  0  0  0  0  0  0  0  0  0  0  0
  -16.8768    2.4354  -15.8661 C   0  0  0  0  0  0  0  0  0  0  0  0
  -16.8096    1.3553  -14.9658 C   0  0  0  0  0  0  0  0  0  0  0  0
  -15.8153    4.2304  -17.2358 C   0  0  0  0  0  0  0  0  0  0  0  0
  -14.7574    4.7863  -17.8507 C   0  0  0  0  0  0  0  0  0  0  0  0
  -14.9186    5.9348  -18.7755 C   0  0  0  0  0  0  0  0  0  0  0  0
  -15.0951    5.8187  -19.9829 O   0  0  0  0  0  0  0  0  0  0  0  0
  -14.8458    7.1486  -18.1436 N   0  0  0  0  0  0  0  0  0  0  0  0
  -14.9594    8.2999  -18.9502 O   0  0  0  0  0  0  0  0  0  0  0  0
  -14.6804    7.2967  -17.1558 H   0  0  0  0  0  0  0  0  0  0  0  0
  -15.0682    7.9185  -19.8491 H   0  0  0  0  0  0  0  0  0  0  0  0
  -13.3149   -5.8770  -13.7662 N   0  0  0  0  0  0  0  0  0  0  0  0
  -12.6523   -6.1965  -13.0734 H   0  0  0  0  0  0  0  0  0  0  0  0
  -13.3324   -6.5279  -14.9530 C   0  0  0  0  0  0  0  0  0  0  0  0
  -13.4589   -5.9814  -16.1413 N   0  0  0  0  0  0  0  0  0  0  0  0
  -13.5021   -6.9353  -17.1383 C   0  0  0  0  0  0  0  0  0  0  0  0
  -13.3339   -8.2313  -16.7002 C   0  0  0  0  0  0  0  0  0  0  0  0
  -13.1409   -8.2466  -14.9948 S   0  0  0  0  0  0  0  0  0  0  0  0
  -13.7031   -6.5381  -18.5201 C   0  0  0  0  0  0  0  0  0  0  0  0
  -14.1216   -5.2394  -18.8274 C   0  0  0  0  0  0  0  0  0  0  0  0
  -14.3337   -4.8728  -20.1548 C   0  0  0  0  0  0  0  0  0  0  0  0
  -14.1279   -5.8256  -21.1387 C   0  0  0  0  0  0  0  0  0  0  0  0
  -13.7370   -7.0930  -20.8846 N   0  0  0  0  0  0  0  0  0  0  0  0
  -13.5384   -7.4192  -19.5832 C   0  0  0  0  0  0  0  0  0  0  0  0
  1  2  1  0  0  0
  2  3  1  0  0  0
  2  7  2  0  0  0
  3  4  2  0  0  0
  4  5  1  0  0  0
  5  8  1  0  0  0
  5  6  2  0  0  0
  8  9  1  0  0  0
  8 11  1  0  0  0
  9 10  2  0  0  0
  9 12  1  0  0  0
 12 13  1  0  0  0
 12 17  2  0  0  0
 13 14  2  0  0  0
 14 15  1  0  0  0
 15 18  1  0  0  0
 15 16  2  0  0  0
 18 19  2  0  0  0
 19 20  1  0  0  0
 20 21  2  0  0  0
 20 22  1  0  0  0
 22 23  1  0  0  0
 22 24  1  0  0  0
 23 25  1  0  0  0
 16 17  1  0  0  0
  6  7  1  0  0  0
  7 26  1  0  0  0
 26 28  1  0  0  0
 26 27  1  0  0  0
 28 29  2  0  0  0
 28 32  1  0  0  0
 29 30  1  0  0  0
 30 33  1  0  0  0
 30 31  2  0  0  0
 33 34  1  0  0  0
 33 38  2  0  0  0
 34 35  2  0  0  0
 35 36  1  0  0  0
 36 37  2  0  0  0
 37 38  1  0  0  0
 31 32  1  0  0  0
M  END
> <minimizedAffinity>
-8.02980

$$$$
