CHEMBL2086725


 29 33  0  0  0  0  0  0  0  0999 V2000
  -13.3465   -0.1634  -14.0182 O   0  0  0  0  0  0  0  0  0  0  0  0
  -13.8166    0.6290  -14.8118 C   0  0  0  0  0  0  0  0  0  0  0  0
  -13.0894    1.3583  -15.7340 N   0  0  0  0  0  0  0  0  0  0  0  0
  -13.8782    2.2997  -16.3772 C   0  0  0  0  0  0  0  0  0  0  0  0
  -13.4344    3.2260  -17.3032 C   0  0  0  0  0  0  0  0  0  0  0  0
  -14.3689    4.1293  -17.8050 C   0  0  0  0  0  0  0  0  0  0  0  0
  -15.7022    4.0870  -17.3679 C   0  0  0  0  0  0  0  0  0  0  0  0
  -16.1268    3.1326  -16.4308 C   0  0  0  0  0  0  0  0  0  0  0  0
  -15.2052    2.2238  -15.9359 C   0  0  0  0  0  0  0  0  0  0  0  0
  -15.2542    1.1080  -14.9579 C   0  0  0  0  0  0  0  0  0  0  0  0
  -16.3033    0.5419  -14.3169 C   0  0  0  0  0  0  0  0  0  0  0  0
  -12.0935    1.2444  -15.8446 H   0  0  0  0  0  0  0  0  0  0  0  0
  -16.0966   -0.5997  -13.4828 C   0  0  0  0  0  0  0  0  0  0  0  0
  -15.8511   -0.6840  -12.1907 N   0  0  0  0  0  0  0  0  0  0  0  0
  -15.7262   -2.0283  -11.9262 C   0  0  0  0  0  0  0  0  0  0  0  0
  -15.5080   -2.6894  -10.7087 C   0  0  0  0  0  0  0  0  0  0  0  0
  -15.4117   -4.0876  -10.7089 C   0  0  0  0  0  0  0  0  0  0  0  0
  -15.5206   -4.8124  -11.8983 C   0  0  0  0  0  0  0  0  0  0  0  0
  -15.7367   -4.1709  -13.1235 C   0  0  0  0  0  0  0  0  0  0  0  0
  -15.8415   -2.7780  -13.0905 C   0  0  0  0  0  0  0  0  0  0  0  0
  -16.0736   -1.8444  -14.0672 N   0  0  0  0  0  0  0  0  0  0  0  0
  -16.2295   -2.0404  -15.0432 H   0  0  0  0  0  0  0  0  0  0  0  0
  -17.6866    1.0182  -14.5415 C   0  0  0  0  0  0  0  0  0  0  0  0
  -18.5966    0.2245  -15.2581 C   0  0  0  0  0  0  0  0  0  0  0  0
  -19.9070    0.6617  -15.4661 C   0  0  0  0  0  0  0  0  0  0  0  0
  -20.3188    1.8891  -14.9498 C   0  0  0  0  0  0  0  0  0  0  0  0
  -19.4195    2.6643  -14.2258 C   0  0  0  0  0  0  0  0  0  0  0  0
  -19.8189    3.8416  -13.7249 F   0  0  0  0  0  0  0  0  0  0  0  0
  -18.1105    2.2436  -14.0146 C   0  0  0  0  0  0  0  0  0  0  0  0
  1  2  2  0  0  0
  2  3  1  0  0  0
  2 10  1  0  0  0
  3  4  1  0  0  0
  3 12  1  0  0  0
  4  5  1  0  0  0
  4  9  2  0  0  0
  5  6  2  0  0  0
  6  7  1  0  0  0
  7  8  2  0  0  0
  8  9  1  0  0  0
  9 10  1  0  0  0
 10 11  2  0  0  0
 11 23  1  0  0  0
 11 13  1  0  0  0
 23 24  1  0  0  0
 23 29  2  0  0  0
 24 25  2  0  0  0
 25 26  1  0  0  0
 26 27  2  0  0  0
 27 28  1  0  0  0
 27 29  1  0  0  0
 13 14  2  0  0  0
 13 21  1  0  0  0
 14 15  1  0  0  0
 15 16  1  0  0  0
 15 20  2  0  0  0
 16 17  2  0  0  0
 17 18  1  0  0  0
 18 19  2  0  0  0
 19 20  1  0  0  0
 20 21  1  0  0  0
 21 22  1  0  0  0
M  END
> <minimizedAffinity>
-9.35216

$$$$
