CHEMBL4580861


 45 50  0  0  0  0  0  0  0  0999 V2000
  -30.6090   -7.2820   -5.2194 N   0  0  0  0  0  0  0  0  0  0  0  0
  -31.3480   -7.6779   -4.6432 H   0  0  0  0  0  0  0  0  0  0  0  0
  -29.8267   -8.2455   -5.8851 C   0  0  0  0  0  0  0  0  0  0  0  0
  -29.8956   -8.2718   -7.2408 N   0  0  0  0  0  0  0  0  0  0  0  0
  -29.5180   -9.3685   -7.9155 C   0  0  0  0  0  0  0  0  0  0  0  0
  -29.1007  -10.5239   -7.3018 C   0  0  0  0  0  0  0  0  0  0  0  0
  -28.9417  -10.4878   -5.9234 C   0  0  0  0  0  0  0  0  0  0  0  0
  -29.1756   -9.2781   -5.2298 C   0  0  0  0  0  0  0  0  0  0  0  0
  -28.6182   -9.2188   -3.8354 C   0  0  0  0  0  0  0  0  0  0  0  0
  -28.8566   -8.2758   -3.0871 O   0  0  0  0  0  0  0  0  0  0  0  0
  -27.8458  -10.4461   -3.3504 C   0  0  0  0  0  0  0  0  0  0  0  0
  -28.7421  -11.3742   -3.7425 C   0  0  0  0  0  0  0  0  0  0  0  0
  -28.5709  -11.6475   -5.1369 N   0  0  0  0  0  0  0  0  0  0  0  0
  -26.6261  -11.0496   -4.0476 C   0  0  0  0  0  0  0  0  0  0  0  0
  -25.6560  -12.4118   -3.3074 C   0  0  0  0  0  0  0  0  0  0  0  0
  -23.8515  -12.4453   -3.4499 C   0  0  0  0  0  0  0  0  0  0  0  0
  -22.9986  -11.0755   -4.2504 C   0  0  0  0  0  0  0  0  0  0  0  0
  -21.6643  -10.9964   -4.1828 F   0  0  0  0  0  0  0  0  0  0  0  0
  -23.9059   -9.7428   -5.0184 C   0  0  0  0  0  0  0  0  0  0  0  0
  -25.7013   -9.7275   -4.9150 C   0  0  0  0  0  0  0  0  0  0  0  0
  -27.0739  -12.3218   -5.6556 C   0  0  0  0  0  0  0  0  0  0  0  0
  -26.0073  -12.2194   -7.5632 C   0  0  0  0  0  0  0  0  0  0  0  0
  -24.5139  -12.0111   -7.8557 O   0  0  0  0  0  0  0  0  0  0  0  0
  -24.4190  -11.0957   -8.1720 H   0  0  0  0  0  0  0  0  0  0  0  0
  -29.4157   -3.3688   -4.1176 C   0  0  0  0  0  0  0  0  0  0  0  0
  -30.7698   -3.7323   -4.1340 C   0  0  0  0  0  0  0  0  0  0  0  0
  -31.1592   -5.0002   -4.5727 C   0  0  0  0  0  0  0  0  0  0  0  0
  -30.2048   -5.9592   -4.9188 C   0  0  0  0  0  0  0  0  0  0  0  0
  -28.8477   -5.5764   -4.8792 C   0  0  0  0  0  0  0  0  0  0  0  0
  -28.4584   -4.3117   -4.4514 C   0  0  0  0  0  0  0  0  0  0  0  0
  -27.1500   -4.0156   -4.3854 F   0  0  0  0  0  0  0  0  0  0  0  0
  -28.9979   -2.0906   -3.8222 O   0  0  0  0  0  0  0  0  0  0  0  0
  -27.9938   -0.6392   -7.0530 C   0  0  0  0  0  0  0  0  0  0  0  0
  -28.0262   -1.5334   -5.9987 C   0  0  0  0  0  0  0  0  0  0  0  0
  -28.8096   -1.2307   -4.8859 C   0  0  0  0  0  0  0  0  0  0  0  0
  -29.4614   -0.0086   -4.8267 C   0  0  0  0  0  0  0  0  0  0  0  0
  -29.3057    0.8528   -5.8993 C   0  0  0  0  0  0  0  0  0  0  0  0
  -28.5646    0.5776   -6.9993 N   0  0  0  0  0  0  0  0  0  0  0  0
  -28.6777   -2.8283   -8.7301 O   0  0  0  0  0  0  0  0  0  0  0  0
  -27.7634   -2.0603   -9.0025 C   0  0  0  0  0  0  0  0  0  0  0  0
  -27.3593   -0.9759   -8.2509 N   0  0  0  0  0  0  0  0  0  0  0  0
  -26.9827   -0.1880   -8.7558 H   0  0  0  0  0  0  0  0  0  0  0  0
  -27.0098   -2.2048  -10.2824 C   0  0  0  0  0  0  0  0  0  0  0  0
  -26.2468   -1.0408  -10.8706 C   0  0  0  0  0  0  0  0  0  0  0  0
  -27.4988   -1.5224  -11.5420 C   0  0  0  0  0  0  0  0  0  0  0  0
 39 40  2  0  0  0
 40 41  1  0  0  0
 40 43  1  0  0  0
 41 33  1  0  0  0
 41 42  1  0  0  0
 33 34  1  0  0  0
 33 38  2  0  0  0
 34 35  2  0  0  0
 35 32  1  0  0  0
 35 36  1  0  0  0
 32 25  1  0  0  0
 25 26  1  0  0  0
 25 30  2  0  0  0
 26 27  2  0  0  0
 27 28  1  0  0  0
 28  1  1  0  0  0
 28 29  2  0  0  0
  1  3  1  0  0  0
  1  2  1  0  0  0
  3  4  1  0  0  0
  3  8  2  0  0  0
  4  5  2  0  0  0
  5  6  1  0  0  0
  6  7  2  0  0  0
  7  8  1  0  0  0
  7 13  1  0  0  0
  8  9  1  0  0  0
  9 10  2  0  0  0
  9 11  1  0  0  0
 11 14  1  0  0  0
 11 12  2  0  0  0
 14 15  1  0  0  0
 14 20  2  0  0  0
 15 16  2  0  0  0
 16 17  1  0  0  0
 17 18  1  0  0  0
 17 19  2  0  0  0
 19 20  1  0  0  0
 12 13  1  0  0  0
 13 21  1  0  0  0
 21 22  1  0  0  0
 22 23  1  0  0  0
 23 24  1  0  0  0
 29 30  1  0  0  0
 30 31  1  0  0  0
 36 37  2  0  0  0
 37 38  1  0  0  0
 43 44  1  0  0  0
 43 45  1  0  0  0
 44 45  1  0  0  0
M  END
> <minimizedAffinity>
-10.66979

$$$$
