CHEMBL1276980


 36 40  0  0  0  0  0  0  0  0999 V2000
  -16.3197   -3.8480  -13.6181 C   0  0  0  0  0  0  0  0  0  0  0  0
  -15.1414   -2.9465  -13.4614 C   0  0  0  0  0  0  0  0  0  0  0  0
  -15.1093   -1.5560  -13.5360 C   0  0  0  0  0  0  0  0  0  0  0  0
  -13.8220   -1.1554  -13.2636 N   0  0  0  0  0  0  0  0  0  0  0  0
  -13.0440   -2.2551  -13.0306 C   0  0  0  0  0  0  0  0  0  0  0  0
  -13.8169   -3.3808  -13.1706 C   0  0  0  0  0  0  0  0  0  0  0  0
  -13.2985   -4.7215  -12.9826 C   0  0  0  0  0  0  0  0  0  0  0  0
  -13.9691   -5.7210  -13.2215 O   0  0  0  0  0  0  0  0  0  0  0  0
  -11.9950   -4.7870  -12.4900 N   0  0  0  0  0  0  0  0  0  0  0  0
  -11.0768   -3.6380  -12.3746 C   0  0  0  0  0  0  0  0  0  0  0  0
  -11.6137   -2.2238  -12.6737 C   0  0  0  0  0  0  0  0  0  0  0  0
  -13.5004   -0.1906  -13.2250 H   0  0  0  0  0  0  0  0  0  0  0  0
  -16.1524   -0.6435  -13.8221 C   0  0  0  0  0  0  0  0  0  0  0  0
  -16.1340    0.5069  -14.5066 C   0  0  0  0  0  0  0  0  0  0  0  0
  -15.0251    1.2595  -15.1907 C   0  0  0  0  0  0  0  0  0  0  0  0
  -13.8506    0.9593  -15.2718 O   0  0  0  0  0  0  0  0  0  0  0  0
  -15.6333    2.3844  -15.7350 N   0  0  0  0  0  0  0  0  0  0  0  0
  -16.9965    2.4103  -15.4606 C   0  0  0  0  0  0  0  0  0  0  0  0
  -17.9142    3.3669  -15.8453 C   0  0  0  0  0  0  0  0  0  0  0  0
  -19.2454    3.1727  -15.4574 C   0  0  0  0  0  0  0  0  0  0  0  0
  -19.6098    2.0475  -14.7059 C   0  0  0  0  0  0  0  0  0  0  0  0
  -20.8909    1.8820  -14.3505 F   0  0  0  0  0  0  0  0  0  0  0  0
  -18.6764    1.0924  -14.3231 C   0  0  0  0  0  0  0  0  0  0  0  0
  -17.3620    1.2890  -14.7094 C   0  0  0  0  0  0  0  0  0  0  0  0
  -15.1249    3.0770  -16.2648 H   0  0  0  0  0  0  0  0  0  0  0  0
  -11.4821   -6.1007  -12.1293 C   0  0  0  0  0  0  0  0  0  0  0  0
  -11.7851   -6.5573  -10.6894 C   0  0  0  0  0  0  0  0  0  0  0  0
  -13.1997   -6.7760  -10.5859 O   0  0  0  0  0  0  0  0  0  0  0  0
  -13.4339   -7.4580  -11.2380 H   0  0  0  0  0  0  0  0  0  0  0  0
  -11.3428   -5.5039   -9.6454 C   0  0  0  0  0  0  0  0  0  0  0  0
  -12.4020   -5.0342   -8.7258 N   0  0  0  0  0  0  0  0  0  0  0  0
  -12.5179   -3.5585   -8.7581 C   0  0  0  0  0  0  0  0  0  0  0  0
  -11.3719   -2.8243   -8.0377 C   0  0  0  0  0  0  0  0  0  0  0  0
  -11.2309   -3.2679   -6.6828 O   0  0  0  0  0  0  0  0  0  0  0  0
  -11.0294   -4.6867   -6.6284 C   0  0  0  0  0  0  0  0  0  0  0  0
  -12.1772   -5.4407   -7.3212 C   0  0  0  0  0  0  0  0  0  0  0  0
  1  2  1  0  0  0
  2  3  2  0  0  0
  2  6  1  0  0  0
  3 13  1  0  0  0
  3  4  1  0  0  0
 13 14  2  0  0  0
 14 15  1  0  0  0
 14 24  1  0  0  0
 15 16  2  0  0  0
 15 17  1  0  0  0
 17 18  1  0  0  0
 17 25  1  0  0  0
 18 19  1  0  0  0
 18 24  2  0  0  0
 19 20  2  0  0  0
 20 21  1  0  0  0
 21 22  1  0  0  0
 21 23  2  0  0  0
 23 24  1  0  0  0
  4  5  1  0  0  0
  4 12  1  0  0  0
  5  6  2  0  0  0
  5 11  1  0  0  0
  6  7  1  0  0  0
  7  8  2  0  0  0
  7  9  1  0  0  0
  9 26  1  0  0  0
  9 10  1  0  0  0
 27 30  1  0  0  0
 27 28  1  0  0  0
 27 26  1  0  0  0
 28 29  1  0  0  0
 30 31  1  0  0  0
 31 32  1  0  0  0
 31 36  1  0  0  0
 32 33  1  0  0  0
 33 34  1  0  0  0
 34 35  1  0  0  0
 35 36  1  0  0  0
 10 11  1  0  0  0
M  END
> <minimizedAffinity>
-8.50132

$$$$
