CHEMBL249381


 27 30  0  0  0  0  0  0  0  0999 V2000
  -28.7928   -2.8997   -6.8770 C   0  0  0  0  0  0  0  0  0  0  0  0
  -29.4047   -2.4059   -5.7219 C   0  0  0  0  0  0  0  0  0  0  0  0
  -30.1746   -3.2352   -4.9063 C   0  0  0  0  0  0  0  0  0  0  0  0
  -30.3138   -4.5803   -5.2749 C   0  0  0  0  0  0  0  0  0  0  0  0
  -29.7350   -5.1151   -6.4338 C   0  0  0  0  0  0  0  0  0  0  0  0
  -28.9593   -4.2511   -7.2452 C   0  0  0  0  0  0  0  0  0  0  0  0
  -30.1130   -6.5014   -6.4918 C   0  0  0  0  0  0  0  0  0  0  0  0
  -30.8172   -6.7722   -5.3390 C   0  0  0  0  0  0  0  0  0  0  0  0
  -30.9835   -5.6063   -4.6458 N   0  0  0  0  0  0  0  0  0  0  0  0
  -31.7335   -5.4810   -3.4160 C   0  0  0  0  0  0  0  0  0  0  0  0
  -29.7507   -7.4766   -7.4795 C   0  0  0  0  0  0  0  0  0  0  0  0
  -30.5064   -8.4609   -7.9983 C   0  0  0  0  0  0  0  0  0  0  0  0
  -31.9338   -8.7966   -7.7450 C   0  0  0  0  0  0  0  0  0  0  0  0
  -32.8174   -8.1287   -7.2520 O   0  0  0  0  0  0  0  0  0  0  0  0
  -32.0531  -10.0716   -8.2669 N   0  0  0  0  0  0  0  0  0  0  0  0
  -30.9643  -10.5147   -8.9745 N   0  0  0  0  0  0  0  0  0  0  0  0
  -30.0501   -9.5762   -8.8779 C   0  0  0  0  0  0  0  0  0  0  0  0
  -32.9276  -10.5834   -8.2931 H   0  0  0  0  0  0  0  0  0  0  0  0
  -28.8163   -9.6595   -9.5954 C   0  0  0  0  0  0  0  0  0  0  0  0
  -27.5397   -9.2190   -9.3011 C   0  0  0  0  0  0  0  0  0  0  0  0
  -26.5905   -9.4394  -10.2858 N   0  0  0  0  0  0  0  0  0  0  0  0
  -27.1161  -10.0315  -11.3442 N   0  0  0  0  0  0  0  0  0  0  0  0
  -28.7547  -10.3209  -11.1798 S   0  0  0  0  0  0  0  0  0  0  0  0
  -27.9473   -2.0219   -7.7408 C   0  0  0  0  0  0  0  0  0  0  0  0
  -27.8113   -0.8236   -7.5545 O   0  0  0  0  0  0  0  0  0  0  0  0
  -27.0753   -2.0025   -9.9215 C   0  0  0  0  0  0  0  0  0  0  0  0
  -27.3792   -2.7455   -8.7380 O   0  0  0  0  0  0  0  0  0  0  0  0
 26 27  1  0  0  0
 27 24  1  0  0  0
 24 25  2  0  0  0
 24  1  1  0  0  0
  1  2  1  0  0  0
  1  6  2  0  0  0
  2  3  2  0  0  0
  3  4  1  0  0  0
  4  5  2  0  0  0
  4  9  1  0  0  0
  5  6  1  0  0  0
  5  7  1  0  0  0
  7 11  1  0  0  0
  7  8  2  0  0  0
 11 12  2  0  0  0
 12 13  1  0  0  0
 12 17  1  0  0  0
 13 14  2  0  0  0
 13 15  1  0  0  0
 15 16  1  0  0  0
 15 18  1  0  0  0
 16 17  2  0  0  0
 17 19  1  0  0  0
 19 20  2  0  0  0
 19 23  1  0  0  0
 20 21  1  0  0  0
 21 22  2  0  0  0
 22 23  1  0  0  0
  8  9  1  0  0  0
  9 10  1  0  0  0
M  END
> <minimizedAffinity>
-9.10138

$$$$
