CHEMBL401251


 30 33  0  0  0  0  0  0  0  0999 V2000
  -30.4926   11.2912  -13.4233 C   0  0  0  0  0  0  0  0  0  0  0  0
  -30.1708   11.6594  -12.1172 C   0  0  0  0  0  0  0  0  0  0  0  0
  -28.9090   12.0561  -11.7437 C   0  0  0  0  0  0  0  0  0  0  0  0
  -28.7628   12.3089  -10.4445 N   0  0  0  0  0  0  0  0  0  0  0  0
  -27.5216   12.5338   -9.9933 C   0  0  0  0  0  0  0  0  0  0  0  0
  -26.3983   12.5884  -10.7989 C   0  0  0  0  0  0  0  0  0  0  0  0
  -26.5671   12.5060  -12.1914 C   0  0  0  0  0  0  0  0  0  0  0  0
  -27.8707   12.1324  -12.6901 C   0  0  0  0  0  0  0  0  0  0  0  0
  -28.2055   11.7936  -14.0413 C   0  0  0  0  0  0  0  0  0  0  0  0
  -29.5014   11.3775  -14.4098 C   0  0  0  0  0  0  0  0  0  0  0  0
  -25.1595   12.6285  -10.0946 C   0  0  0  0  0  0  0  0  0  0  0  0
  -24.0903   12.5817   -9.6511 N   0  0  0  0  0  0  0  0  0  0  0  0
  -25.5053   12.6506  -13.1274 N   0  0  0  0  0  0  0  0  0  0  0  0
  -24.6017   12.7037  -12.6634 H   0  0  0  0  0  0  0  0  0  0  0  0
  -25.4364   11.9901  -14.4493 C   0  0  0  0  0  0  0  0  0  0  0  0
  -24.6658   10.7001  -14.4642 C   0  0  0  0  0  0  0  0  0  0  0  0
  -24.1270   11.9113  -15.1912 C   0  0  0  0  0  0  0  0  0  0  0  0
  -23.8304   11.6899  -16.6554 C   0  0  0  0  0  0  0  0  0  0  0  0
  -24.4766   12.3210  -17.7249 C   0  0  0  0  0  0  0  0  0  0  0  0
  -23.9884   12.2138  -19.0354 C   0  0  0  0  0  0  0  0  0  0  0  0
  -22.8607   11.4431  -19.3062 C   0  0  0  0  0  0  0  0  0  0  0  0
  -22.2418   10.7502  -18.2751 C   0  0  0  0  0  0  0  0  0  0  0  0
  -22.7277   10.8722  -16.9742 C   0  0  0  0  0  0  0  0  0  0  0  0
  -29.8693   11.0160  -15.6808 O   0  0  0  0  0  0  0  0  0  0  0  0
  -28.8773   10.4666  -16.5387 C   0  0  0  0  0  0  0  0  0  0  0  0
  -31.7462   10.8255  -13.7785 O   0  0  0  0  0  0  0  0  0  0  0  0
  -32.7573   11.0301  -12.7851 C   0  0  0  0  0  0  0  0  0  0  0  0
  -33.5776    9.7800  -12.5173 C   0  0  0  0  0  0  0  0  0  0  0  0
  -34.8788    8.6319  -14.1256 C   0  0  0  0  0  0  0  0  0  0  0  0
  -34.7125    9.8309  -13.3880 O   0  0  0  0  0  0  0  0  0  0  0  0
 29 30  1  0  0  0
 30 28  1  0  0  0
 28 27  1  0  0  0
 27 26  1  0  0  0
 26  1  1  0  0  0
  1  2  1  0  0  0
  1 10  2  0  0  0
  2  3  2  0  0  0
  3  4  1  0  0  0
  3  8  1  0  0  0
  4  5  2  0  0  0
  5  6  1  0  0  0
  6 11  1  0  0  0
  6  7  2  0  0  0
 11 12  3  0  0  0
  7 13  1  0  0  0
  7  8  1  0  0  0
 13 15  1  0  0  0
 13 14  1  0  0  0
 15 16  1  0  0  0
 15 17  1  0  0  0
 16 17  1  0  0  0
 17 18  1  0  0  0
 18 19  1  0  0  0
 18 23  2  0  0  0
 19 20  2  0  0  0
 20 21  1  0  0  0
 21 22  2  0  0  0
 22 23  1  0  0  0
  8  9  2  0  0  0
  9 10  1  0  0  0
 10 24  1  0  0  0
 24 25  1  0  0  0
M  END
> <minimizedAffinity>
-4.70585

$$$$
