CHEMBL269886


 34 37  0  0  0  0  0  0  0  0999 V2000
  -22.6901   -0.4439  -13.5913 C   0  0  0  0  0  0  0  0  0  0  0  0
  -22.5643   -0.9155  -12.2822 C   0  0  0  0  0  0  0  0  0  0  0  0
  -23.6402   -1.5008  -11.6082 C   0  0  0  0  0  0  0  0  0  0  0  0
  -24.8586   -1.7184  -12.2439 C   0  0  0  0  0  0  0  0  0  0  0  0
  -24.9768   -1.3492  -13.5861 C   0  0  0  0  0  0  0  0  0  0  0  0
  -23.9090   -0.7053  -14.2432 C   0  0  0  0  0  0  0  0  0  0  0  0
  -23.3917    2.8680  -13.2120 N   0  0  0  0  0  0  0  0  0  0  0  0
  -22.2203    2.8522  -13.8730 C   0  0  0  0  0  0  0  0  0  0  0  0
  -21.5928    3.9852  -14.1998 N   0  0  0  0  0  0  0  0  0  0  0  0
  -20.4542    3.6084  -14.8702 O   0  0  0  0  0  0  0  0  0  0  0  0
  -20.3887    2.2570  -14.9323 C   0  0  0  0  0  0  0  0  0  0  0  0
  -19.3522    1.5501  -15.5401 C   0  0  0  0  0  0  0  0  0  0  0  0
  -19.4372    0.1644  -15.4906 C   0  0  0  0  0  0  0  0  0  0  0  0
  -20.5176   -0.4617  -14.8634 C   0  0  0  0  0  0  0  0  0  0  0  0
  -21.5763    0.2634  -14.2533 C   0  0  0  0  0  0  0  0  0  0  0  0
  -21.4908    1.6909  -14.3005 C   0  0  0  0  0  0  0  0  0  0  0  0
  -23.8367    3.7686  -13.0690 H   0  0  0  0  0  0  0  0  0  0  0  0
  -24.0492    2.0972  -13.2753 H   0  0  0  0  0  0  0  0  0  0  0  0
  -25.9624   -2.3335  -11.6002 N   0  0  0  0  0  0  0  0  0  0  0  0
  -26.4901   -1.9288  -10.3861 C   0  0  0  0  0  0  0  0  0  0  0  0
  -26.1967   -0.8827   -9.8095 O   0  0  0  0  0  0  0  0  0  0  0  0
  -27.3635   -2.8743   -9.8578 N   0  0  0  0  0  0  0  0  0  0  0  0
  -26.5152   -2.9793  -12.1382 H   0  0  0  0  0  0  0  0  0  0  0  0
  -27.1368   -3.8257  -10.1036 H   0  0  0  0  0  0  0  0  0  0  0  0
  -27.9331   -2.6743   -8.5758 C   0  0  0  0  0  0  0  0  0  0  0  0
  -27.7577   -1.4759   -7.8761 C   0  0  0  0  0  0  0  0  0  0  0  0
  -28.2157   -1.3434   -6.5650 C   0  0  0  0  0  0  0  0  0  0  0  0
  -28.8534   -2.4152   -5.9268 C   0  0  0  0  0  0  0  0  0  0  0  0
  -29.0637   -3.6021   -6.6486 C   0  0  0  0  0  0  0  0  0  0  0  0
  -28.6283   -3.7238   -7.9745 C   0  0  0  0  0  0  0  0  0  0  0  0
  -29.2863   -2.3132   -4.4849 C   0  0  0  0  0  0  0  0  0  0  0  0
  -30.3126   -3.1469   -4.1589 F   0  0  0  0  0  0  0  0  0  0  0  0
  -28.2777   -2.6092   -3.6206 F   0  0  0  0  0  0  0  0  0  0  0  0
  -29.7031   -1.0600   -4.1538 F   0  0  0  0  0  0  0  0  0  0  0  0
  7  8  1  0  0  0
  7 17  1  0  0  0
  7 18  1  0  0  0
  8  9  2  0  0  0
  8 16  1  0  0  0
  9 10  1  0  0  0
 10 11  1  0  0  0
 11 12  1  0  0  0
 11 16  2  0  0  0
 12 13  2  0  0  0
 13 14  1  0  0  0
 14 15  2  0  0  0
 15  1  1  0  0  0
 15 16  1  0  0  0
  1  2  1  0  0  0
  1  6  2  0  0  0
  2  3  2  0  0  0
  3  4  1  0  0  0
  4 19  1  0  0  0
  4  5  2  0  0  0
 19 20  1  0  0  0
 19 23  1  0  0  0
 20 21  2  0  0  0
 20 22  1  0  0  0
 22 25  1  0  0  0
 22 24  1  0  0  0
 25 26  1  0  0  0
 25 30  2  0  0  0
 26 27  2  0  0  0
 27 28  1  0  0  0
 28 31  1  0  0  0
 28 29  2  0  0  0
 31 32  1  0  0  0
 31 33  1  0  0  0
 31 34  1  0  0  0
 29 30  1  0  0  0
  5  6  1  0  0  0
M  END
> <minimizedAffinity>
-11.02479

$$$$
