CHEMBL3961868


 39 42  0  0  0  0  0  0  0  0999 V2000
  -15.3273   -3.2773  -11.4473 C   0  0  0  0  0  0  0  0  0  0  0  0
  -14.2092   -3.5353  -10.6471 C   0  0  0  0  0  0  0  0  0  0  0  0
  -13.7252   -4.8458  -10.5022 C   0  0  0  0  0  0  0  0  0  0  0  0
  -14.3440   -5.9138  -11.1614 C   0  0  0  0  0  0  0  0  0  0  0  0
  -15.4906   -5.6661  -11.9208 C   0  0  0  0  0  0  0  0  0  0  0  0
  -15.9650   -4.3579  -12.0611 C   0  0  0  0  0  0  0  0  0  0  0  0
  -17.0221   -4.1319  -12.8572 F   0  0  0  0  0  0  0  0  0  0  0  0
  -15.9758    0.0245  -12.8688 N   0  0  0  0  0  0  0  0  0  0  0  0
  -15.4014   -1.2383  -12.7812 C   0  0  0  0  0  0  0  0  0  0  0  0
  -14.6239   -1.7140  -13.6074 O   0  0  0  0  0  0  0  0  0  0  0  0
  -15.8178   -1.9559  -11.6699 N   0  0  0  0  0  0  0  0  0  0  0  0
  -16.4410    0.3715  -12.0322 H   0  0  0  0  0  0  0  0  0  0  0  0
  -16.7880   -1.8155  -11.4128 H   0  0  0  0  0  0  0  0  0  0  0  0
  -15.5580    2.7691  -16.1141 C   0  0  0  0  0  0  0  0  0  0  0  0
  -16.7743    2.1298  -15.8671 C   0  0  0  0  0  0  0  0  0  0  0  0
  -16.9121    1.2249  -14.8150 C   0  0  0  0  0  0  0  0  0  0  0  0
  -15.8451    0.9177  -13.9660 C   0  0  0  0  0  0  0  0  0  0  0  0
  -14.6177    1.5508  -14.2183 C   0  0  0  0  0  0  0  0  0  0  0  0
  -14.4568    2.4798  -15.2917 C   0  0  0  0  0  0  0  0  0  0  0  0
  -13.1010    3.1189  -15.4993 C   0  0  0  0  0  0  0  0  0  0  0  0
  -12.1014    2.6241  -14.7269 F   0  0  0  0  0  0  0  0  0  0  0  0
  -12.6707    2.9899  -16.7843 F   0  0  0  0  0  0  0  0  0  0  0  0
  -13.1283    4.4571  -15.2499 F   0  0  0  0  0  0  0  0  0  0  0  0
  -15.4498    4.4337  -18.1050 N   0  0  0  0  0  0  0  0  0  0  0  0
  -15.5197    3.7017  -17.2063 C   0  0  0  0  0  0  0  0  0  0  0  0
  -13.8091   -7.1682  -10.9321 O   0  0  0  0  0  0  0  0  0  0  0  0
  -13.3316   -7.9391  -11.9753 C   0  0  0  0  0  0  0  0  0  0  0  0
  -13.1346   -9.3115  -11.8934 C   0  0  0  0  0  0  0  0  0  0  0  0
  -12.6328   -9.9539  -13.0043 C   0  0  0  0  0  0  0  0  0  0  0  0
  -12.3797   -9.3339  -14.1705 N   0  0  0  0  0  0  0  0  0  0  0  0
  -12.6364   -8.0195  -14.2849 C   0  0  0  0  0  0  0  0  0  0  0  0
  -13.1139   -7.2853  -13.2010 C   0  0  0  0  0  0  0  0  0  0  0  0
  -12.4324   -7.3868  -15.5319 N   0  0  0  0  0  0  0  0  0  0  0  0
  -13.4602   -6.8587  -16.2963 C   0  0  0  0  0  0  0  0  0  0  0  0
  -14.6569   -6.8997  -16.0487 O   0  0  0  0  0  0  0  0  0  0  0  0
  -11.4880   -7.3054  -15.8681 H   0  0  0  0  0  0  0  0  0  0  0  0
  -13.0899   -6.1579  -17.5687 C   0  0  0  0  0  0  0  0  0  0  0  0
  -14.0486   -5.9408  -18.7124 C   0  0  0  0  0  0  0  0  0  0  0  0
  -12.8694   -6.8628  -18.8835 C   0  0  0  0  0  0  0  0  0  0  0  0
 24 25  3  0  0  0
 25 14  1  0  0  0
 14 15  1  0  0  0
 14 19  2  0  0  0
 15 16  2  0  0  0
 16 17  1  0  0  0
 17  8  1  0  0  0
 17 18  2  0  0  0
  8  9  1  0  0  0
  8 12  1  0  0  0
  9 10  2  0  0  0
  9 11  1  0  0  0
 11  1  1  0  0  0
 11 13  1  0  0  0
  1  2  1  0  0  0
  1  6  2  0  0  0
  2  3  2  0  0  0
  3  4  1  0  0  0
  4 26  1  0  0  0
  4  5  2  0  0  0
 26 27  1  0  0  0
 27 28  1  0  0  0
 27 32  2  0  0  0
 28 29  2  0  0  0
 29 30  1  0  0  0
 30 31  2  0  0  0
 31 33  1  0  0  0
 31 32  1  0  0  0
 33 34  1  0  0  0
 33 36  1  0  0  0
 34 35  2  0  0  0
 34 37  1  0  0  0
 37 38  1  0  0  0
 37 39  1  0  0  0
 38 39  1  0  0  0
  5  6  1  0  0  0
  6  7  1  0  0  0
 18 19  1  0  0  0
 19 20  1  0  0  0
 20 21  1  0  0  0
 20 22  1  0  0  0
 20 23  1  0  0  0
M  END
> <minimizedAffinity>
-7.54971

$$$$
