CHEMBL2032027


 40 44  0  0  0  0  0  0  0  0999 V2000
  -26.7748   -1.8604  -10.2094 C   0  0  0  0  0  0  0  0  0  0  0  0
  -27.4401   -1.7348  -11.2338 O   0  0  0  0  0  0  0  0  0  0  0  0
  -25.4236   -1.5741  -10.0936 N   0  0  0  0  0  0  0  0  0  0  0  0
  -24.9940   -1.6853   -9.1778 H   0  0  0  0  0  0  0  0  0  0  0  0
  -28.6743   -2.4574   -7.0304 N   0  0  0  0  0  0  0  0  0  0  0  0
  -28.0538   -1.6466   -7.9946 C   0  0  0  0  0  0  0  0  0  0  0  0
  -28.0819   -0.1493   -7.9297 C   0  0  0  0  0  0  0  0  0  0  0  0
  -27.4488   -2.3676   -8.9702 C   0  0  0  0  0  0  0  0  0  0  0  0
  -27.6170   -3.7862   -8.5469 C   0  0  0  0  0  0  0  0  0  0  0  0
  -27.2137   -4.7264   -9.2192 O   0  0  0  0  0  0  0  0  0  0  0  0
  -28.3236   -3.7845   -7.3289 N   0  0  0  0  0  0  0  0  0  0  0  0
  -29.0490   -4.9072   -6.8694 C   0  0  0  0  0  0  0  0  0  0  0  0
  -30.1639   -5.3243   -7.6070 C   0  0  0  0  0  0  0  0  0  0  0  0
  -30.8394   -6.4964   -7.2663 C   0  0  0  0  0  0  0  0  0  0  0  0
  -30.4240   -7.2462   -6.1676 C   0  0  0  0  0  0  0  0  0  0  0  0
  -29.3261   -6.8303   -5.4158 C   0  0  0  0  0  0  0  0  0  0  0  0
  -28.6310   -5.6715   -5.7723 C   0  0  0  0  0  0  0  0  0  0  0  0
  -29.0889   -2.0462   -5.6654 C   0  0  0  0  0  0  0  0  0  0  0  0
  -28.0146   -2.1102   -4.5741 C   0  0  0  0  0  0  0  0  0  0  0  0
  -29.9520   -2.9868   -3.5432 C   0  0  0  0  0  0  0  0  0  0  0  0
  -28.5484   -2.7779   -3.4187 O   0  0  0  0  0  0  0  0  0  0  0  0
  -24.5774   -1.1487  -11.1496 C   0  0  0  0  0  0  0  0  0  0  0  0
  -24.7893    0.0926  -11.7393 C   0  0  0  0  0  0  0  0  0  0  0  0
  -23.9459    0.5460  -12.7810 C   0  0  0  0  0  0  0  0  0  0  0  0
  -22.8470   -0.2177  -13.1856 C   0  0  0  0  0  0  0  0  0  0  0  0
  -22.7278   -1.4473  -12.5646 C   0  0  0  0  0  0  0  0  0  0  0  0
  -23.5523   -1.9270  -11.5880 N   0  0  0  0  0  0  0  0  0  0  0  0
  -21.8764    0.1170  -14.1281 O   0  0  0  0  0  0  0  0  0  0  0  0
  -21.4124    1.4246  -14.1853 C   0  0  0  0  0  0  0  0  0  0  0  0
  -22.2897    2.4866  -14.3395 C   0  0  0  0  0  0  0  0  0  0  0  0
  -21.7663    3.6680  -14.8189 C   0  0  0  0  0  0  0  0  0  0  0  0
  -20.4876    3.7980  -15.2407 N   0  0  0  0  0  0  0  0  0  0  0  0
  -19.6414    2.7823  -14.9793 C   0  0  0  0  0  0  0  0  0  0  0  0
  -18.3950    2.7198  -15.5774 C   0  0  0  0  0  0  0  0  0  0  0  0
  -17.5562    1.6461  -15.2886 C   0  0  0  0  0  0  0  0  0  0  0  0
  -17.7127    1.0038  -14.0762 C   0  0  0  0  0  0  0  0  0  0  0  0
  -19.0101    0.8803  -13.6372 C   0  0  0  0  0  0  0  0  0  0  0  0
  -20.0188    1.6649  -14.2308 C   0  0  0  0  0  0  0  0  0  0  0  0
  -16.8717    1.0833  -16.3315 O   0  0  0  0  0  0  0  0  0  0  0  0
  -15.4730    1.4302  -16.3658 C   0  0  0  0  0  0  0  0  0  0  0  0
 20 21  1  0  0  0
 21 19  1  0  0  0
 19 18  1  0  0  0
 18  5  1  0  0  0
  5  6  1  0  0  0
  5 11  1  0  0  0
  6  7  1  0  0  0
  6  8  2  0  0  0
  8  1  1  0  0  0
  8  9  1  0  0  0
  1  2  2  0  0  0
  1  3  1  0  0  0
  3 22  1  0  0  0
  3  4  1  0  0  0
 22 23  1  0  0  0
 22 27  2  0  0  0
 23 24  2  0  0  0
 24 25  1  0  0  0
 25 28  1  0  0  0
 25 26  2  0  0  0
 28 29  1  0  0  0
 29 30  1  0  0  0
 29 38  2  0  0  0
 30 31  2  0  0  0
 31 32  1  0  0  0
 32 33  2  0  0  0
 33 34  1  0  0  0
 33 38  1  0  0  0
 34 35  2  0  0  0
 35 39  1  0  0  0
 35 36  1  0  0  0
 39 40  1  0  0  0
 36 37  2  0  0  0
 37 38  1  0  0  0
 26 27  1  0  0  0
  9 10  2  0  0  0
  9 11  1  0  0  0
 11 12  1  0  0  0
 12 13  1  0  0  0
 12 17  2  0  0  0
 13 14  2  0  0  0
 14 15  1  0  0  0
 15 16  2  0  0  0
 16 17  1  0  0  0
M  END
> <minimizedAffinity>
-7.67938

$$$$
