CHEMBL3918704


 33 37  0  0  0  0  0  0  0  0999 V2000
  -30.0225   -6.0266   -5.8038 N   0  0  0  0  0  0  0  0  0  0  0  0
  -29.4302   -4.7773   -6.1797 C   0  0  0  0  0  0  0  0  0  0  0  0
  -29.2371   -3.7476   -5.2425 C   0  0  0  0  0  0  0  0  0  0  0  0
  -28.7305   -2.4975   -5.6134 C   0  0  0  0  0  0  0  0  0  0  0  0
  -28.3024   -2.2565   -6.9041 C   0  0  0  0  0  0  0  0  0  0  0  0
  -27.8136   -1.0460   -7.2234 N   0  0  0  0  0  0  0  0  0  0  0  0
  -27.3773   -0.8979   -8.4963 C   0  0  0  0  0  0  0  0  0  0  0  0
  -27.3935   -1.9267   -9.4266 C   0  0  0  0  0  0  0  0  0  0  0  0
  -27.9169   -3.1378   -9.1121 N   0  0  0  0  0  0  0  0  0  0  0  0
  -28.3918   -3.2945   -7.8559 C   0  0  0  0  0  0  0  0  0  0  0  0
  -29.0057   -4.4926   -7.4874 C   0  0  0  0  0  0  0  0  0  0  0  0
  -26.8534   -1.7489  -10.7630 C   0  0  0  0  0  0  0  0  0  0  0  0
  -27.4918   -1.7463  -12.0241 C   0  0  0  0  0  0  0  0  0  0  0  0
  -26.6472   -1.5359  -13.0357 N   0  0  0  0  0  0  0  0  0  0  0  0
  -25.4559   -1.4049  -12.4259 N   0  0  0  0  0  0  0  0  0  0  0  0
  -24.2703   -1.1654  -13.2142 C   0  0  0  0  0  0  0  0  0  0  0  0
  -25.5261   -1.5140  -11.0674 C   0  0  0  0  0  0  0  0  0  0  0  0
  -29.3912   -8.9149   -8.1910 C   0  0  0  0  0  0  0  0  0  0  0  0
  -30.6773   -9.3624   -8.4474 C   0  0  0  0  0  0  0  0  0  0  0  0
  -31.7146   -8.7985   -7.7281 C   0  0  0  0  0  0  0  0  0  0  0  0
  -32.9614   -9.2550   -7.9096 F   0  0  0  0  0  0  0  0  0  0  0  0
  -31.5008   -7.7513   -6.8214 C   0  0  0  0  0  0  0  0  0  0  0  0
  -30.2320   -7.1808   -6.6222 C   0  0  0  0  0  0  0  0  0  0  0  0
  -29.1851   -7.8530   -7.2824 C   0  0  0  0  0  0  0  0  0  0  0  0
  -27.1563   -9.8461  -11.1042 C   0  0  0  0  0  0  0  0  0  0  0  0
  -28.2007   -9.2999  -10.2775 N   0  0  0  0  0  0  0  0  0  0  0  0
  -28.2483   -9.5407   -8.9199 C   0  0  0  0  0  0  0  0  0  0  0  0
  -27.4182  -10.2060   -8.3149 O   0  0  0  0  0  0  0  0  0  0  0  0
  -28.8013   -8.5956  -10.6831 H   0  0  0  0  0  0  0  0  0  0  0  0
  -30.3139   -6.1300   -4.3388 C   0  0  0  0  0  0  0  0  0  0  0  0
  -31.7034   -5.7458   -3.8691 C   0  0  0  0  0  0  0  0  0  0  0  0
  -32.0454   -4.3909   -3.2973 C   0  0  0  0  0  0  0  0  0  0  0  0
  -32.1252   -5.6156   -2.4267 C   0  0  0  0  0  0  0  0  0  0  0  0
 25 26  1  0  0  0
 26 27  1  0  0  0
 26 29  1  0  0  0
 27 28  2  0  0  0
 27 18  1  0  0  0
 18 19  1  0  0  0
 18 24  2  0  0  0
 19 20  2  0  0  0
 20 21  1  0  0  0
 20 22  1  0  0  0
 22 23  2  0  0  0
 23  1  1  0  0  0
 23 24  1  0  0  0
  1 30  1  0  0  0
  1  2  1  0  0  0
 30 31  1  0  0  0
 31 32  1  0  0  0
 31 33  1  0  0  0
 32 33  1  0  0  0
  2  3  1  0  0  0
  2 11  2  0  0  0
  3  4  2  0  0  0
  4  5  1  0  0  0
  5  6  1  0  0  0
  5 10  2  0  0  0
  6  7  2  0  0  0
  7  8  1  0  0  0
  8 12  1  0  0  0
  8  9  2  0  0  0
 12 13  1  0  0  0
 12 17  2  0  0  0
 13 14  2  0  0  0
 14 15  1  0  0  0
 15 16  1  0  0  0
 15 17  1  0  0  0
  9 10  1  0  0  0
 10 11  1  0  0  0
M  END
> <minimizedAffinity>
-9.42512

$$$$
