CHEMBL3690397


 39 42  0  0  0  0  0  0  0  0999 V2000
  -27.7521   10.7038  -16.0559 C   0  0  0  0  0  0  0  0  0  0  0  0
  -29.1479   10.3240  -16.2980 C   0  0  0  0  0  0  0  0  0  0  0  0
  -30.1017   10.7137  -15.4260 C   0  0  0  0  0  0  0  0  0  0  0  0
  -29.7642   11.4574  -14.2947 N   0  0  0  0  0  0  0  0  0  0  0  0
  -30.5380   11.9606  -13.2532 C   0  0  0  0  0  0  0  0  0  0  0  0
  -29.6045   12.5466  -12.4039 C   0  0  0  0  0  0  0  0  0  0  0  0
  -28.3305   12.4460  -12.8731 N   0  0  0  0  0  0  0  0  0  0  0  0
  -28.4406   11.7967  -14.0087 C   0  0  0  0  0  0  0  0  0  0  0  0
  -27.4380   11.3957  -14.9341 C   0  0  0  0  0  0  0  0  0  0  0  0
  -31.9951   11.8670  -13.0720 C   0  0  0  0  0  0  0  0  0  0  0  0
  -32.8210   12.6555  -13.8842 C   0  0  0  0  0  0  0  0  0  0  0  0
  -34.2046   12.5688  -13.7964 C   0  0  0  0  0  0  0  0  0  0  0  0
  -34.7818   11.6699  -12.9034 C   0  0  0  0  0  0  0  0  0  0  0  0
  -34.0029   10.8345  -12.1114 C   0  0  0  0  0  0  0  0  0  0  0  0
  -32.6057   10.9616  -12.1799 C   0  0  0  0  0  0  0  0  0  0  0  0
  -34.5528    9.8292  -11.2700 N   0  0  0  0  0  0  0  0  0  0  0  0
  -34.8964    8.5585  -11.6748 C   0  0  0  0  0  0  0  0  0  0  0  0
  -34.8062    8.1014  -12.8133 O   0  0  0  0  0  0  0  0  0  0  0  0
  -35.4327    7.7844  -10.6732 N   0  0  0  0  0  0  0  0  0  0  0  0
  -34.6406   10.0406  -10.2855 H   0  0  0  0  0  0  0  0  0  0  0  0
  -35.1389    7.9672   -9.7288 H   0  0  0  0  0  0  0  0  0  0  0  0
  -35.8205    6.4066  -11.0316 C   0  0  0  0  0  0  0  0  0  0  0  0
  -35.0395    5.2721  -10.3518 C   0  0  0  0  0  0  0  0  0  0  0  0
  -34.7323    4.2716  -11.2078 F   0  0  0  0  0  0  0  0  0  0  0  0
  -33.8640    5.7493   -9.8681 F   0  0  0  0  0  0  0  0  0  0  0  0
  -35.7113    4.7411   -9.3077 F   0  0  0  0  0  0  0  0  0  0  0  0
  -26.6753   10.3079  -17.0495 C   0  0  0  0  0  0  0  0  0  0  0  0
  -26.3801    8.8211  -16.9934 C   0  0  0  0  0  0  0  0  0  0  0  0
  -26.9741    7.9464  -17.7438 N   0  0  0  0  0  0  0  0  0  0  0  0
  -27.6631    8.3913  -18.3582 H   0  0  0  0  0  0  0  0  0  0  0  0
  -24.4567   11.0907  -17.7263 N   0  0  0  0  0  0  0  0  0  0  0  0
  -25.4415   11.1676  -16.8900 C   0  0  0  0  0  0  0  0  0  0  0  0
  -21.7796   11.5448  -18.8302 N   0  0  0  0  0  0  0  0  0  0  0  0
  -22.7694   12.6585  -18.6888 C   0  0  0  0  0  0  0  0  0  0  0  0
  -23.3318   11.9799  -17.4229 C   0  0  0  0  0  0  0  0  0  0  0  0
  -21.9670   11.2534  -17.3808 C   0  0  0  0  0  0  0  0  0  0  0  0
  -19.3433   10.9732  -18.8993 C   0  0  0  0  0  0  0  0  0  0  0  0
  -20.4241   12.0466  -19.1256 C   0  0  0  0  0  0  0  0  0  0  0  0
  -20.3224   12.5292  -20.5809 C   0  0  0  0  0  0  0  0  0  0  0  0
 37 38  1  0  0  0
 38 39  1  0  0  0
 38 33  1  0  0  0
 33 34  1  0  0  0
 33 36  1  0  0  0
 34 35  1  0  0  0
 35 31  1  0  0  0
 35 36  1  0  0  0
 31 32  2  0  0  0
 32 27  1  0  0  0
 27 28  1  0  0  0
 27  1  1  0  0  0
 28 29  2  0  0  0
 29 30  1  0  0  0
  1  2  1  0  0  0
  1  9  2  0  0  0
  2  3  2  0  0  0
  3  4  1  0  0  0
  4  5  1  0  0  0
  4  8  1  0  0  0
  5 10  1  0  0  0
  5  6  2  0  0  0
 10 11  1  0  0  0
 10 15  2  0  0  0
 11 12  2  0  0  0
 12 13  1  0  0  0
 13 14  2  0  0  0
 14 16  1  0  0  0
 14 15  1  0  0  0
 16 17  1  0  0  0
 16 20  1  0  0  0
 17 18  2  0  0  0
 17 19  1  0  0  0
 19 22  1  0  0  0
 19 21  1  0  0  0
 22 23  1  0  0  0
 23 24  1  0  0  0
 23 25  1  0  0  0
 23 26  1  0  0  0
  6  7  1  0  0  0
  7  8  2  0  0  0
  8  9  1  0  0  0
M  END
> <minimizedAffinity>
-3.67914

$$$$
