CHEMBL1683646


 24 26  0  0  0  0  0  0  0  0999 V2000
  -30.1581   -2.7271   -2.6859 C   0  0  0  0  0  0  0  0  0  0  0  0
  -28.9604   -3.3785   -3.3378 C   0  0  0  0  0  0  0  0  0  0  0  0
  -28.3262   -2.7731   -4.3715 C   0  0  0  0  0  0  0  0  0  0  0  0
  -28.8342   -3.1756   -5.7585 C   0  0  0  0  0  0  0  0  0  0  0  0
  -28.1339   -2.6044   -6.9825 C   0  0  0  0  0  0  0  0  0  0  0  0
  -28.0386   -1.2377   -7.2548 C   0  0  0  0  0  0  0  0  0  0  0  0
  -28.4559   -0.2832   -6.3663 O   0  0  0  0  0  0  0  0  0  0  0  0
  -27.7083   -0.7722   -8.5320 C   0  0  0  0  0  0  0  0  0  0  0  0
  -27.4557   -1.6723   -9.5760 C   0  0  0  0  0  0  0  0  0  0  0  0
  -27.3736   -3.0245   -9.2859 C   0  0  0  0  0  0  0  0  0  0  0  0
  -27.8264   -3.4727   -8.0538 C   0  0  0  0  0  0  0  0  0  0  0  0
  -28.1869   -4.7977   -8.1033 O   0  0  0  0  0  0  0  0  0  0  0  0
  -29.3560   -5.0818   -7.3054 C   0  0  0  0  0  0  0  0  0  0  0  0
  -29.6225   -6.5695   -7.5408 C   0  0  0  0  0  0  0  0  0  0  0  0
  -30.5976   -4.3249   -7.8486 C   0  0  0  0  0  0  0  0  0  0  0  0
  -28.9222   -4.7272   -5.8703 C   0  0  0  0  0  0  0  0  0  0  0  0
  -29.7339   -5.3159   -4.7124 C   0  0  0  0  0  0  0  0  0  0  0  0
  -29.0708   -4.8945   -3.3882 C   0  0  0  0  0  0  0  0  0  0  0  0
  -29.3584   -0.5295   -6.1037 H   0  0  0  0  0  0  0  0  0  0  0  0
  -27.6725   -1.3357  -11.0241 C   0  0  0  0  0  0  0  0  0  0  0  0
  -26.4779   -0.9306  -11.8651 C   0  0  0  0  0  0  0  0  0  0  0  0
  -26.5690   -1.6830  -13.1951 C   0  0  0  0  0  0  0  0  0  0  0  0
  -25.2470   -1.6758  -13.9281 C   0  0  0  0  0  0  0  0  0  0  0  0
  -23.7990   -1.8931  -12.6440 Br  0  0  0  0  0  0  0  0  0  0  0  0
  1  2  1  0  0  0
  2  3  2  0  0  0
  2 18  1  0  0  0
  3  4  1  0  0  0
  4  5  1  0  0  0
  4 16  1  0  0  0
  5  6  1  0  0  0
  5 11  2  0  0  0
  6  8  2  0  0  0
  6  7  1  0  0  0
  7 19  1  0  0  0
  8  9  1  0  0  0
  9 10  2  0  0  0
  9 20  1  0  0  0
 20 21  1  0  0  0
 21 22  1  0  0  0
 22 23  1  0  0  0
 23 24  1  0  0  0
 10 11  1  0  0  0
 11 12  1  0  0  0
 12 13  1  0  0  0
 13 16  1  0  0  0
 13 14  1  0  0  0
 13 15  1  0  0  0
 16 17  1  0  0  0
 17 18  1  0  0  0
M  END
> <minimizedAffinity>
-8.11444

$$$$
