CHEMBL4100555


 35 40  0  0  0  0  0  0  0  0999 V2000
  -27.2341   -1.3389   -7.3792 O   0  0  0  0  0  0  0  0  0  0  0  0
  -27.9998   -2.1899   -7.8030 C   0  0  0  0  0  0  0  0  0  0  0  0
  -28.2744   -2.5634   -9.0990 N   0  0  0  0  0  0  0  0  0  0  0  0
  -28.8850   -2.8353   -6.9239 N   0  0  0  0  0  0  0  0  0  0  0  0
  -29.6934   -2.2057   -5.9964 C   0  0  0  0  0  0  0  0  0  0  0  0
  -30.4977   -3.1507   -5.4013 C   0  0  0  0  0  0  0  0  0  0  0  0
  -30.1111   -4.4259   -5.8974 C   0  0  0  0  0  0  0  0  0  0  0  0
  -30.5399   -5.7410   -5.6395 C   0  0  0  0  0  0  0  0  0  0  0  0
  -29.9024   -6.8115   -6.2755 C   0  0  0  0  0  0  0  0  0  0  0  0
  -28.7880   -6.5644   -7.0971 C   0  0  0  0  0  0  0  0  0  0  0  0
  -28.3773   -5.2719   -7.4027 C   0  0  0  0  0  0  0  0  0  0  0  0
  -29.0777   -4.2097   -6.8130 C   0  0  0  0  0  0  0  0  0  0  0  0
  -29.2347   -2.8032   -9.3175 H   0  0  0  0  0  0  0  0  0  0  0  0
  -27.5941   -1.9732  -10.1410 C   0  0  0  0  0  0  0  0  0  0  0  0
  -26.2944   -2.2868  -10.5990 C   0  0  0  0  0  0  0  0  0  0  0  0
  -26.0601   -1.3845  -11.6088 C   0  0  0  0  0  0  0  0  0  0  0  0
  -27.1685   -0.6001  -11.7542 O   0  0  0  0  0  0  0  0  0  0  0  0
  -28.1582   -1.0281  -10.8885 N   0  0  0  0  0  0  0  0  0  0  0  0
  -24.7961   -1.2191  -12.4722 C   0  0  0  0  0  0  0  0  0  0  0  0
  -23.4709   -1.6237  -11.8306 C   0  0  0  0  0  0  0  0  0  0  0  0
  -23.7706   -0.1760  -12.0268 C   0  0  0  0  0  0  0  0  0  0  0  0
  -25.0054   -1.5032  -13.9481 C   0  0  0  0  0  0  0  0  0  0  0  0
  -26.3846   -1.5406  -14.3051 O   0  0  0  0  0  0  0  0  0  0  0  0
  -26.7228   -2.4069  -14.0234 H   0  0  0  0  0  0  0  0  0  0  0  0
  -30.4007   -8.0767   -6.0014 O   0  0  0  0  0  0  0  0  0  0  0  0
  -29.7119   -9.1387   -6.5579 C   0  0  0  0  0  0  0  0  0  0  0  0
  -28.6112   -9.6005   -5.9201 N   0  0  0  0  0  0  0  0  0  0  0  0
  -28.1926  -10.8297   -6.2759 C   0  0  0  0  0  0  0  0  0  0  0  0
  -28.7750  -11.6390   -7.1761 N   0  0  0  0  0  0  0  0  0  0  0  0
  -29.8169  -11.0842   -7.8088 C   0  0  0  0  0  0  0  0  0  0  0  0
  -30.2916   -9.8144   -7.5856 C   0  0  0  0  0  0  0  0  0  0  0  0
  -31.4864   -9.5717   -8.4198 C   0  0  0  0  0  0  0  0  0  0  0  0
  -32.0454  -10.9336   -8.6397 N   0  0  0  0  0  0  0  0  0  0  0  0
  -30.8309  -11.8117   -8.6584 C   0  0  0  0  0  0  0  0  0  0  0  0
  -32.5535  -11.1655   -7.7849 H   0  0  0  0  0  0  0  0  0  0  0  0
  1  2  2  0  0  0
  2  3  1  0  0  0
  2  4  1  0  0  0
  3 14  1  0  0  0
  3 13  1  0  0  0
 14 15  1  0  0  0
 14 18  2  0  0  0
 15 16  2  0  0  0
 16 19  1  0  0  0
 16 17  1  0  0  0
 19 22  1  0  0  0
 19 20  1  0  0  0
 19 21  1  0  0  0
 22 23  1  0  0  0
 23 24  1  0  0  0
 20 21  1  0  0  0
 17 18  1  0  0  0
  4  5  1  0  0  0
  4 12  1  0  0  0
  5  6  2  0  0  0
  6  7  1  0  0  0
  7  8  1  0  0  0
  7 12  2  0  0  0
  8  9  2  0  0  0
  9 25  1  0  0  0
  9 10  1  0  0  0
 25 26  1  0  0  0
 26 27  1  0  0  0
 26 31  2  0  0  0
 27 28  2  0  0  0
 28 29  1  0  0  0
 29 30  2  0  0  0
 30 31  1  0  0  0
 30 34  1  0  0  0
 31 32  1  0  0  0
 32 33  1  0  0  0
 33 34  1  0  0  0
 33 35  1  0  0  0
 10 11  2  0  0  0
 11 12  1  0  0  0
M  END
> <minimizedAffinity>
-9.57916

$$$$
