CHEMBL3808921


 38 43  0  0  0  0  0  0  0  0999 V2000
  -22.7048   -0.6415  -13.5551 C   0  0  0  0  0  0  0  0  0  0  0  0
  -22.8036   -1.0208  -12.2156 C   0  0  0  0  0  0  0  0  0  0  0  0
  -24.0190   -1.4177  -11.6698 C   0  0  0  0  0  0  0  0  0  0  0  0
  -25.1361   -1.4595  -12.5128 C   0  0  0  0  0  0  0  0  0  0  0  0
  -25.0441   -1.1941  -13.8806 C   0  0  0  0  0  0  0  0  0  0  0  0
  -26.3212   -1.4628  -14.4428 C   0  0  0  0  0  0  0  0  0  0  0  0
  -27.1330   -1.9125  -13.4250 C   0  0  0  0  0  0  0  0  0  0  0  0
  -26.4455   -1.8274  -12.2318 N   0  0  0  0  0  0  0  0  0  0  0  0
  -26.9263   -2.1968  -10.9689 C   0  0  0  0  0  0  0  0  0  0  0  0
  -27.5353   -3.2477  -10.8601 O   0  0  0  0  0  0  0  0  0  0  0  0
  -26.7089   -1.2097  -10.0241 N   0  0  0  0  0  0  0  0  0  0  0  0
  -23.8082   -0.7684  -14.4097 C   0  0  0  0  0  0  0  0  0  0  0  0
  -26.7802   -0.2595  -10.3471 H   0  0  0  0  0  0  0  0  0  0  0  0
  -27.2319   -1.4372   -8.7594 C   0  0  0  0  0  0  0  0  0  0  0  0
  -27.8452   -0.4848   -7.9073 C   0  0  0  0  0  0  0  0  0  0  0  0
  -28.0520   -1.1548   -6.7228 C   0  0  0  0  0  0  0  0  0  0  0  0
  -27.6482   -2.4494   -6.8964 O   0  0  0  0  0  0  0  0  0  0  0  0
  -27.2106   -2.6422   -8.1960 N   0  0  0  0  0  0  0  0  0  0  0  0
  -28.6334   -0.6016   -5.3988 C   0  0  0  0  0  0  0  0  0  0  0  0
  -28.2796   -1.3865   -4.1216 C   0  0  0  0  0  0  0  0  0  0  0  0
  -29.6626   -1.4717   -4.6517 C   0  0  0  0  0  0  0  0  0  0  0  0
  -28.7818    0.9064   -5.2891 C   0  0  0  0  0  0  0  0  0  0  0  0
  -30.0480    1.3116   -5.0445 F   0  0  0  0  0  0  0  0  0  0  0  0
  -28.0067    1.3932   -4.2872 F   0  0  0  0  0  0  0  0  0  0  0  0
  -28.3821    1.5138   -6.4344 F   0  0  0  0  0  0  0  0  0  0  0  0
  -21.5355   -0.1856  -14.1254 O   0  0  0  0  0  0  0  0  0  0  0  0
  -16.5746    0.6008  -15.6075 C   0  0  0  0  0  0  0  0  0  0  0  0
  -17.8217    1.4804  -15.6003 C   0  0  0  0  0  0  0  0  0  0  0  0
  -18.9814    0.7486  -14.9010 C   0  0  0  0  0  0  0  0  0  0  0  0
  -20.1486    1.6540  -14.6575 C   0  0  0  0  0  0  0  0  0  0  0  0
  -20.0217    3.0344  -14.7014 C   0  0  0  0  0  0  0  0  0  0  0  0
  -21.0564    3.8709  -14.4656 N   0  0  0  0  0  0  0  0  0  0  0  0
  -22.2325    3.2970  -14.1805 C   0  0  0  0  0  0  0  0  0  0  0  0
  -22.4625    1.9845  -14.0892 N   0  0  0  0  0  0  0  0  0  0  0  0
  -21.3947    1.1883  -14.2935 C   0  0  0  0  0  0  0  0  0  0  0  0
  -18.6895    3.6621  -15.0625 C   0  0  0  0  0  0  0  0  0  0  0  0
  -17.5307    2.7574  -14.9274 N   0  0  0  0  0  0  0  0  0  0  0  0
  -17.3705    2.5898  -13.9337 H   0  0  0  0  0  0  0  0  0  0  0  0
 27 28  1  0  0  0
 28 29  1  0  0  0
 28 37  1  0  0  0
 29 30  1  0  0  0
 30 31  1  0  0  0
 30 35  2  0  0  0
 31 32  2  0  0  0
 31 36  1  0  0  0
 32 33  1  0  0  0
 33 34  2  0  0  0
 34 35  1  0  0  0
 35 26  1  0  0  0
 26  1  1  0  0  0
  1  2  1  0  0  0
  1 12  2  0  0  0
  2  3  2  0  0  0
  3  4  1  0  0  0
  4  5  2  0  0  0
  4  8  1  0  0  0
  5  6  1  0  0  0
  5 12  1  0  0  0
  6  7  2  0  0  0
  7  8  1  0  0  0
  8  9  1  0  0  0
  9 10  2  0  0  0
  9 11  1  0  0  0
 11 14  1  0  0  0
 11 13  1  0  0  0
 14 15  1  0  0  0
 14 18  2  0  0  0
 15 16  2  0  0  0
 16 19  1  0  0  0
 16 17  1  0  0  0
 19 22  1  0  0  0
 19 20  1  0  0  0
 19 21  1  0  0  0
 22 23  1  0  0  0
 22 24  1  0  0  0
 22 25  1  0  0  0
 20 21  1  0  0  0
 17 18  1  0  0  0
 36 37  1  0  0  0
 37 38  1  0  0  0
M  END
> <minimizedAffinity>
-11.42976

$$$$
