CHEMBL593860


 42 47  0  0  0  0  0  0  0  0999 V2000
  -14.0378    3.5193  -15.9039 C   0  0  0  0  0  0  0  0  0  0  0  0
  -14.4352    2.4537  -15.1023 C   0  0  0  0  0  0  0  0  0  0  0  0
  -15.7823    2.0327  -15.0468 C   0  0  0  0  0  0  0  0  0  0  0  0
  -16.2529    1.0312  -14.1823 C   0  0  0  0  0  0  0  0  0  0  0  0
  -17.5415    0.6500  -14.1800 N   0  0  0  0  0  0  0  0  0  0  0  0
  -18.3569    1.2764  -15.0311 C   0  0  0  0  0  0  0  0  0  0  0  0
  -18.0171    2.2570  -15.8766 N   0  0  0  0  0  0  0  0  0  0  0  0
  -16.7341    2.6310  -15.8778 C   0  0  0  0  0  0  0  0  0  0  0  0
  -16.3139    3.6379  -16.7374 C   0  0  0  0  0  0  0  0  0  0  0  0
  -14.9814    4.0753  -16.7815 C   0  0  0  0  0  0  0  0  0  0  0  0
  -12.5627    5.2472  -15.1235 C   0  0  0  0  0  0  0  0  0  0  0  0
  -12.7772    4.0465  -15.8586 O   0  0  0  0  0  0  0  0  0  0  0  0
  -15.3328    0.4338  -13.2741 N   0  0  0  0  0  0  0  0  0  0  0  0
  -15.4385    0.8915  -12.3735 H   0  0  0  0  0  0  0  0  0  0  0  0
  -15.0509   -0.9367  -13.0930 C   0  0  0  0  0  0  0  0  0  0  0  0
  -15.6120   -1.7091  -12.0833 C   0  0  0  0  0  0  0  0  0  0  0  0
  -15.2813   -3.0591  -11.9354 C   0  0  0  0  0  0  0  0  0  0  0  0
  -14.3914   -3.7089  -12.8104 C   0  0  0  0  0  0  0  0  0  0  0  0
  -13.8924   -2.9452  -13.8945 C   0  0  0  0  0  0  0  0  0  0  0  0
  -14.2602   -1.5939  -14.0397 C   0  0  0  0  0  0  0  0  0  0  0  0
  -14.0079   -5.1137  -12.4735 C   0  0  0  0  0  0  0  0  0  0  0  0
  -12.8787   -5.4531  -11.8638 N   0  0  0  0  0  0  0  0  0  0  0  0
  -12.7028   -6.8347  -11.8703 C   0  0  0  0  0  0  0  0  0  0  0  0
  -11.5930   -7.5577  -11.3761 C   0  0  0  0  0  0  0  0  0  0  0  0
  -11.5382   -8.9495  -11.5354 C   0  0  0  0  0  0  0  0  0  0  0  0
  -12.5776   -9.6321  -12.1635 C   0  0  0  0  0  0  0  0  0  0  0  0
  -13.7038   -8.9457  -12.6164 C   0  0  0  0  0  0  0  0  0  0  0  0
  -13.7400   -7.5520  -12.4582 C   0  0  0  0  0  0  0  0  0  0  0  0
  -14.9729   -6.4678  -12.9237 S   0  0  0  0  0  0  0  0  0  0  0  0
  -13.0720   -3.5445  -14.8160 O   0  0  0  0  0  0  0  0  0  0  0  0
  -13.6719   -4.1023  -15.9838 C   0  0  0  0  0  0  0  0  0  0  0  0
  -14.7516    5.0476  -17.7296 O   0  0  0  0  0  0  0  0  0  0  0  0
  -14.5337    4.5568  -19.0510 C   0  0  0  0  0  0  0  0  0  0  0  0
  -13.0620    4.6690  -19.4326 C   0  0  0  0  0  0  0  0  0  0  0  0
  -12.5711    3.2733  -19.8358 C   0  0  0  0  0  0  0  0  0  0  0  0
  -12.9587    2.1939  -18.9233 N   0  0  0  0  0  0  0  0  0  0  0  0
  -13.6454    1.1265  -19.6830 C   0  0  0  0  0  0  0  0  0  0  0  0
  -14.0591   -0.0532  -18.7794 C   0  0  0  0  0  0  0  0  0  0  0  0
  -12.9483   -0.6661  -18.0251 N   0  0  0  0  0  0  0  0  0  0  0  0
  -12.0747   -1.4524  -18.8925 C   0  0  0  0  0  0  0  0  0  0  0  0
  -12.2016    0.4000  -17.3266 C   0  0  0  0  0  0  0  0  0  0  0  0
  -11.8078    1.6172  -18.2002 C   0  0  0  0  0  0  0  0  0  0  0  0
 11 12  1  0  0  0
 12  1  1  0  0  0
  1  2  1  0  0  0
  1 10  2  0  0  0
  2  3  2  0  0  0
  3  4  1  0  0  0
  3  8  1  0  0  0
  4 13  1  0  0  0
  4  5  2  0  0  0
 13 15  1  0  0  0
 13 14  1  0  0  0
 15 16  1  0  0  0
 15 20  2  0  0  0
 16 17  2  0  0  0
 17 18  1  0  0  0
 18 21  1  0  0  0
 18 19  2  0  0  0
 21 22  2  0  0  0
 21 29  1  0  0  0
 22 23  1  0  0  0
 23 24  1  0  0  0
 23 28  2  0  0  0
 24 25  2  0  0  0
 25 26  1  0  0  0
 26 27  2  0  0  0
 27 28  1  0  0  0
 28 29  1  0  0  0
 19 30  1  0  0  0
 19 20  1  0  0  0
 30 31  1  0  0  0
  5  6  1  0  0  0
  6  7  2  0  0  0
  7  8  1  0  0  0
  8  9  2  0  0  0
  9 10  1  0  0  0
 10 32  1  0  0  0
 32 33  1  0  0  0
 33 34  1  0  0  0
 34 35  1  0  0  0
 35 36  1  0  0  0
 36 37  1  0  0  0
 36 42  1  0  0  0
 37 38  1  0  0  0
 38 39  1  0  0  0
 39 40  1  0  0  0
 39 41  1  0  0  0
 41 42  1  0  0  0
M  END
> <minimizedAffinity>
-7.07099

$$$$
