CHEMBL1083350


 35 41  0  0  0  0  0  0  0  0999 V2000
  -30.6033   -5.3950   -3.9964 N   0  0  0  0  0  0  0  0  0  0  0  0
  -30.1311   -4.0649   -4.0629 C   0  0  0  0  0  0  0  0  0  0  0  0
  -30.4746   -2.9128   -3.3330 C   0  0  0  0  0  0  0  0  0  0  0  0
  -29.7950   -1.7101   -3.6095 C   0  0  0  0  0  0  0  0  0  0  0  0
  -28.8168   -1.6171   -4.6040 C   0  0  0  0  0  0  0  0  0  0  0  0
  -28.5487   -2.7542   -5.3743 C   0  0  0  0  0  0  0  0  0  0  0  0
  -29.1949   -3.9763   -5.1072 C   0  0  0  0  0  0  0  0  0  0  0  0
  -29.2314   -5.2397   -5.6512 C   0  0  0  0  0  0  0  0  0  0  0  0
  -28.6624   -5.6014   -6.8817 C   0  0  0  0  0  0  0  0  0  0  0  0
  -29.1193   -6.8278   -7.4134 C   0  0  0  0  0  0  0  0  0  0  0  0
  -29.9812   -7.6890   -6.7095 C   0  0  0  0  0  0  0  0  0  0  0  0
  -29.8662   -7.5334   -5.2986 C   0  0  0  0  0  0  0  0  0  0  0  0
  -29.9237   -6.1751   -4.9276 C   0  0  0  0  0  0  0  0  0  0  0  0
  -28.6560   -8.4371   -4.7933 C   0  0  0  0  0  0  0  0  0  0  0  0
  -28.4144   -9.7933   -5.5512 C   0  0  0  0  0  0  0  0  0  0  0  0
  -29.4529  -10.0216   -6.5902 C   0  0  0  0  0  0  0  0  0  0  0  0
  -30.2047   -9.0298   -7.1661 C   0  0  0  0  0  0  0  0  0  0  0  0
  -31.1978   -9.6912   -7.8950 C   0  0  0  0  0  0  0  0  0  0  0  0
  -30.9888  -11.0144   -7.9209 N   0  0  0  0  0  0  0  0  0  0  0  0
  -29.8627  -11.1769   -7.1927 N   0  0  0  0  0  0  0  0  0  0  0  0
  -29.2168  -12.4653   -7.1585 C   0  0  0  0  0  0  0  0  0  0  0  0
  -28.4091   -7.0531   -8.6484 C   0  0  0  0  0  0  0  0  0  0  0  0
  -28.3831   -7.9800   -9.4510 O   0  0  0  0  0  0  0  0  0  0  0  0
  -27.5770   -5.9457   -8.7742 N   0  0  0  0  0  0  0  0  0  0  0  0
  -27.6762   -4.9458   -7.7316 C   0  0  0  0  0  0  0  0  0  0  0  0
  -26.8772   -5.9386   -9.5014 H   0  0  0  0  0  0  0  0  0  0  0  0
  -27.9433   -0.3928   -4.8519 C   0  0  0  0  0  0  0  0  0  0  0  0
  -28.5260    0.9908   -4.5553 C   0  0  0  0  0  0  0  0  0  0  0  0
  -29.4933    1.4490   -5.6396 C   0  0  0  0  0  0  0  0  0  0  0  0
  -28.8566    1.3176   -7.0155 C   0  0  0  0  0  0  0  0  0  0  0  0
  -28.2368   -0.0582   -7.2176 C   0  0  0  0  0  0  0  0  0  0  0  0
  -27.3464   -0.4063   -6.1597 O   0  0  0  0  0  0  0  0  0  0  0  0
  -31.4312   -6.2686   -1.8247 C   0  0  0  0  0  0  0  0  0  0  0  0
  -31.7994   -5.7900   -3.2349 C   0  0  0  0  0  0  0  0  0  0  0  0
  -32.9180   -4.7506   -3.1742 C   0  0  0  0  0  0  0  0  0  0  0  0
 33 34  1  0  0  0
 34 35  1  0  0  0
 34  1  1  0  0  0
  1  2  1  0  0  0
  1 13  1  0  0  0
  2  3  1  0  0  0
  2  7  2  0  0  0
  3  4  2  0  0  0
  4  5  1  0  0  0
  5 27  1  0  0  0
  5  6  2  0  0  0
 27 28  1  0  0  0
 27 32  1  0  0  0
 28 29  1  0  0  0
 29 30  1  0  0  0
 30 31  1  0  0  0
 31 32  1  0  0  0
  6  7  1  0  0  0
  7  8  1  0  0  0
  8  9  1  0  0  0
  8 13  2  0  0  0
  9 10  2  0  0  0
  9 25  1  0  0  0
 10 11  1  0  0  0
 10 22  1  0  0  0
 11 12  2  0  0  0
 11 17  1  0  0  0
 12 13  1  0  0  0
 12 14  1  0  0  0
 14 15  1  0  0  0
 15 16  1  0  0  0
 16 17  2  0  0  0
 16 20  1  0  0  0
 17 18  1  0  0  0
 18 19  2  0  0  0
 19 20  1  0  0  0
 20 21  1  0  0  0
 22 23  2  0  0  0
 22 24  1  0  0  0
 24 25  1  0  0  0
 24 26  1  0  0  0
M  END
> <minimizedAffinity>
-7.22031

$$$$
