CHEMBL3964701


 40 43  0  0  0  0  0  0  0  0999 V2000
  -14.8370    3.7932  -16.4790 C   0  0  0  0  0  0  0  0  0  0  0  0
  -14.3710    2.9153  -15.5019 C   0  0  0  0  0  0  0  0  0  0  0  0
  -15.1814    1.8815  -15.0521 C   0  0  0  0  0  0  0  0  0  0  0  0
  -16.5083    1.8122  -15.3779 C   0  0  0  0  0  0  0  0  0  0  0  0
  -17.1022    0.6626  -15.0314 N   0  0  0  0  0  0  0  0  0  0  0  0
  -18.4284    0.6413  -15.0796 C   0  0  0  0  0  0  0  0  0  0  0  0
  -19.1621    1.7803  -15.3664 C   0  0  0  0  0  0  0  0  0  0  0  0
  -18.5596    2.8967  -15.9181 N   0  0  0  0  0  0  0  0  0  0  0  0
  -17.1600    2.9054  -15.9939 C   0  0  0  0  0  0  0  0  0  0  0  0
  -16.2522    3.8569  -16.6360 C   0  0  0  0  0  0  0  0  0  0  0  0
  -20.4570    1.8480  -14.6843 C   0  0  0  0  0  0  0  0  0  0  0  0
  -21.3614    2.8947  -14.3814 C   0  0  0  0  0  0  0  0  0  0  0  0
  -22.5260    2.4552  -13.8859 N   0  0  0  0  0  0  0  0  0  0  0  0
  -22.3890    1.1151  -13.8765 N   0  0  0  0  0  0  0  0  0  0  0  0
  -21.2171    0.7072  -14.4470 C   0  0  0  0  0  0  0  0  0  0  0  0
  -23.3873    0.2620  -13.2485 C   0  0  0  0  0  0  0  0  0  0  0  0
  -22.8200   -0.5444  -12.0795 C   0  0  0  0  0  0  0  0  0  0  0  0
  -23.3747   -1.9651  -11.9618 C   0  0  0  0  0  0  0  0  0  0  0  0
  -24.6630   -1.9919  -11.2784 N   0  0  0  0  0  0  0  0  0  0  0  0
  -24.5206   -1.7421  -10.2958 H   0  0  0  0  0  0  0  0  0  0  0  0
  -24.9913   -2.9581  -11.2453 H   0  0  0  0  0  0  0  0  0  0  0  0
  -13.8086    4.3724  -17.3129 N   0  0  0  0  0  0  0  0  0  0  0  0
  -14.7771    6.9353  -19.8958 C   0  0  0  0  0  0  0  0  0  0  0  0
  -14.1120    8.0664  -19.4235 C   0  0  0  0  0  0  0  0  0  0  0  0
  -13.3224    7.9787  -18.2796 C   0  0  0  0  0  0  0  0  0  0  0  0
  -13.1842    6.7477  -17.6216 C   0  0  0  0  0  0  0  0  0  0  0  0
  -13.8188    5.5762  -18.0688 C   0  0  0  0  0  0  0  0  0  0  0  0
  -14.6164    5.6981  -19.2263 C   0  0  0  0  0  0  0  0  0  0  0  0
  -16.3829    8.1282  -21.2165 C   0  0  0  0  0  0  0  0  0  0  0  0
  -15.6278    6.9350  -20.9780 O   0  0  0  0  0  0  0  0  0  0  0  0
  -12.6574    9.0195  -17.6870 O   0  0  0  0  0  0  0  0  0  0  0  0
  -12.2084    8.8219  -16.3512 C   0  0  0  0  0  0  0  0  0  0  0  0
  -12.9630    3.2450  -17.8882 C   0  0  0  0  0  0  0  0  0  0  0  0
  -13.3897    2.6888  -19.2680 C   0  0  0  0  0  0  0  0  0  0  0  0
  -12.3651    2.9385  -20.2611 O   0  0  0  0  0  0  0  0  0  0  0  0
  -11.5765    2.4160  -20.0297 H   0  0  0  0  0  0  0  0  0  0  0  0
  -13.7057    1.1786  -19.1213 C   0  0  0  0  0  0  0  0  0  0  0  0
  -14.6195    0.9307  -18.1537 F   0  0  0  0  0  0  0  0  0  0  0  0
  -14.1902    0.6557  -20.2699 F   0  0  0  0  0  0  0  0  0  0  0  0
  -12.5978    0.4703  -18.7899 F   0  0  0  0  0  0  0  0  0  0  0  0
 29 30  1  0  0  0
 30 23  1  0  0  0
 23 24  1  0  0  0
 23 28  2  0  0  0
 24 25  2  0  0  0
 25 31  1  0  0  0
 25 26  1  0  0  0
 31 32  1  0  0  0
 26 27  2  0  0  0
 27 22  1  0  0  0
 27 28  1  0  0  0
 22 33  1  0  0  0
 22  1  1  0  0  0
 33 34  1  0  0  0
 34 35  1  0  0  0
 34 37  1  0  0  0
 35 36  1  0  0  0
 37 38  1  0  0  0
 37 39  1  0  0  0
 37 40  1  0  0  0
  1  2  1  0  0  0
  1 10  2  0  0  0
  2  3  2  0  0  0
  3  4  1  0  0  0
  4  5  1  0  0  0
  4  9  2  0  0  0
  5  6  2  0  0  0
  6  7  1  0  0  0
  7 11  1  0  0  0
  7  8  2  0  0  0
 11 12  1  0  0  0
 11 15  2  0  0  0
 12 13  2  0  0  0
 13 14  1  0  0  0
 14 16  1  0  0  0
 14 15  1  0  0  0
 16 17  1  0  0  0
 17 18  1  0  0  0
 18 19  1  0  0  0
 19 20  1  0  0  0
 19 21  1  0  0  0
  8  9  1  0  0  0
  9 10  1  0  0  0
M  END
> <minimizedAffinity>
-7.69668

$$$$
