CHEMBL501751


 36 40  0  0  0  0  0  0  0  0999 V2000
  -28.6153   -5.8655   -8.3874 O   0  0  0  0  0  0  0  0  0  0  0  0
  -28.5151   -5.0095   -7.5283 C   0  0  0  0  0  0  0  0  0  0  0  0
  -27.9045   -3.7827   -7.7134 N   0  0  0  0  0  0  0  0  0  0  0  0
  -28.2731   -2.8865   -6.7213 C   0  0  0  0  0  0  0  0  0  0  0  0
  -27.9815   -1.5374   -6.7281 C   0  0  0  0  0  0  0  0  0  0  0  0
  -28.5525   -0.7707   -5.7093 C   0  0  0  0  0  0  0  0  0  0  0  0
  -29.3355   -1.3713   -4.6968 C   0  0  0  0  0  0  0  0  0  0  0  0
  -29.5880   -2.7547   -4.7120 C   0  0  0  0  0  0  0  0  0  0  0  0
  -29.0709   -3.5124   -5.7504 C   0  0  0  0  0  0  0  0  0  0  0  0
  -29.1685   -4.9302   -6.1593 C   0  0  0  0  0  0  0  0  0  0  0  0
  -29.7224   -6.0214   -5.5812 C   0  0  0  0  0  0  0  0  0  0  0  0
  -27.4413   -3.5489   -8.5789 H   0  0  0  0  0  0  0  0  0  0  0  0
  -30.6100   -5.8940   -4.4098 C   0  0  0  0  0  0  0  0  0  0  0  0
  -30.2865   -6.5867   -3.2366 C   0  0  0  0  0  0  0  0  0  0  0  0
  -31.0760   -6.4478   -2.0941 C   0  0  0  0  0  0  0  0  0  0  0  0
  -32.1939   -5.6156   -2.1185 C   0  0  0  0  0  0  0  0  0  0  0  0
  -32.5244   -4.9171   -3.2816 C   0  0  0  0  0  0  0  0  0  0  0  0
  -31.7301   -5.0541   -4.4288 C   0  0  0  0  0  0  0  0  0  0  0  0
  -28.3837    0.6863   -5.7433 N   0  0  0  0  0  0  0  0  0  0  0  0
  -28.6811    1.2819   -6.7864 O   0  0  0  0  0  0  0  0  0  0  0  0
  -27.9604    1.2388   -4.7159 O   0  0  0  0  0  0  0  0  0  0  0  0
  -29.5743   -7.3338   -6.0066 N   0  0  0  0  0  0  0  0  0  0  0  0
  -30.4033   -7.8191   -6.3246 H   0  0  0  0  0  0  0  0  0  0  0  0
  -28.3938   -8.0939   -5.8870 C   0  0  0  0  0  0  0  0  0  0  0  0
  -28.1140   -9.1461   -6.7690 C   0  0  0  0  0  0  0  0  0  0  0  0
  -27.1066  -10.0727   -6.4965 C   0  0  0  0  0  0  0  0  0  0  0  0
  -26.3479   -9.9661   -5.3278 C   0  0  0  0  0  0  0  0  0  0  0  0
  -26.5559   -8.8574   -4.4926 C   0  0  0  0  0  0  0  0  0  0  0  0
  -27.5637   -7.9248   -4.7754 C   0  0  0  0  0  0  0  0  0  0  0  0
  -25.4279  -11.0944   -4.9084 C   0  0  0  0  0  0  0  0  0  0  0  0
  -23.9793  -10.7974   -4.9853 N   0  0  0  0  0  0  0  0  0  0  0  0
  -23.2054  -11.8674   -4.3361 C   0  0  0  0  0  0  0  0  0  0  0  0
  -21.6976  -11.7329   -4.5479 C   0  0  0  0  0  0  0  0  0  0  0  0
  -21.3584  -11.6600   -6.0283 C   0  0  0  0  0  0  0  0  0  0  0  0
  -22.1063  -10.4936   -6.6539 C   0  0  0  0  0  0  0  0  0  0  0  0
  -23.6114  -10.5972   -6.4002 C   0  0  0  0  0  0  0  0  0  0  0  0
  1  2  2  0  0  0
  2  3  1  0  0  0
  2 10  1  0  0  0
  3  4  1  0  0  0
  3 12  1  0  0  0
  4  5  1  0  0  0
  4  9  2  0  0  0
  5  6  2  0  0  0
  6 19  1  0  0  0
  6  7  1  0  0  0
 19 20  2  0  0  0
 19 21  1  0  0  0
  7  8  2  0  0  0
  8  9  1  0  0  0
  9 10  1  0  0  0
 10 11  2  0  0  0
 11 22  1  0  0  0
 11 13  1  0  0  0
 22 24  1  0  0  0
 22 23  1  0  0  0
 24 25  1  0  0  0
 24 29  2  0  0  0
 25 26  2  0  0  0
 26 27  1  0  0  0
 27 30  1  0  0  0
 27 28  2  0  0  0
 30 31  1  0  0  0
 31 32  1  0  0  0
 31 36  1  0  0  0
 32 33  1  0  0  0
 33 34  1  0  0  0
 34 35  1  0  0  0
 35 36  1  0  0  0
 28 29  1  0  0  0
 13 14  1  0  0  0
 13 18  2  0  0  0
 14 15  2  0  0  0
 15 16  1  0  0  0
 16 17  2  0  0  0
 17 18  1  0  0  0
M  CHG 1  19   1
M  CHG 1  21  -1
M  END
> <minimizedAffinity>
-7.99795

$$$$
