CHEMBL4437124


 26 28  0  0  0  0  0  0  0  0999 V2000
  -29.2390   -9.4757   -9.1687 N   0  0  0  0  0  0  0  0  0  0  0  0
  -28.8332   -8.2874   -8.6944 N   0  0  0  0  0  0  0  0  0  0  0  0
  -29.8321   -7.8150   -7.9393 C   0  0  0  0  0  0  0  0  0  0  0  0
  -30.9508   -8.7072   -7.9800 C   0  0  0  0  0  0  0  0  0  0  0  0
  -30.5411   -9.7573   -8.7994 C   0  0  0  0  0  0  0  0  0  0  0  0
  -31.2107  -10.8858   -9.1591 N   0  0  0  0  0  0  0  0  0  0  0  0
  -31.9686  -11.2065   -8.5575 H   0  0  0  0  0  0  0  0  0  0  0  0
  -30.7461  -11.6677   -9.6052 H   0  0  0  0  0  0  0  0  0  0  0  0
  -29.6240   -6.5304   -7.2517 C   0  0  0  0  0  0  0  0  0  0  0  0
  -30.1157   -5.3204   -7.7450 C   0  0  0  0  0  0  0  0  0  0  0  0
  -29.9447   -4.1157   -7.0496 C   0  0  0  0  0  0  0  0  0  0  0  0
  -29.1566   -4.1256   -5.8916 C   0  0  0  0  0  0  0  0  0  0  0  0
  -28.6969   -2.8120   -4.8765 S   0  0  0  0  0  0  0  0  0  0  0  0
  -27.7290   -3.8802   -3.9541 C   0  0  0  0  0  0  0  0  0  0  0  0
  -27.7816   -5.1497   -4.2828 N   0  0  0  0  0  0  0  0  0  0  0  0
  -28.5892   -5.3017   -5.3995 C   0  0  0  0  0  0  0  0  0  0  0  0
  -28.8601   -6.5112   -6.0668 C   0  0  0  0  0  0  0  0  0  0  0  0
  -32.2307   -8.5822   -7.2998 C   0  0  0  0  0  0  0  0  0  0  0  0
  -32.2205   -7.8564   -6.1407 N   0  0  0  0  0  0  0  0  0  0  0  0
  -33.2760   -9.1008   -7.6750 O   0  0  0  0  0  0  0  0  0  0  0  0
  -31.3403   -7.6187   -5.7037 H   0  0  0  0  0  0  0  0  0  0  0  0
  -33.0540   -7.9149   -5.5706 H   0  0  0  0  0  0  0  0  0  0  0  0
  -26.9156   -9.4922  -10.1099 C   0  0  0  0  0  0  0  0  0  0  0  0
  -28.2627  -10.2591   -9.9594 C   0  0  0  0  0  0  0  0  0  0  0  0
  -28.7992  -10.5097  -11.3791 C   0  0  0  0  0  0  0  0  0  0  0  0
  -27.9144  -11.5957   -9.2728 C   0  0  0  0  0  0  0  0  0  0  0  0
 23 24  1  0  0  0
 24 25  1  0  0  0
 24 26  1  0  0  0
 24  1  1  0  0  0
  1  2  1  0  0  0
  1  5  1  0  0  0
  2  3  2  0  0  0
  3  9  1  0  0  0
  3  4  1  0  0  0
  9 10  1  0  0  0
  9 17  2  0  0  0
 10 11  2  0  0  0
 11 12  1  0  0  0
 12 13  1  0  0  0
 12 16  2  0  0  0
 13 14  1  0  0  0
 14 15  2  0  0  0
 15 16  1  0  0  0
 16 17  1  0  0  0
  4 18  1  0  0  0
  4  5  2  0  0  0
 18 19  1  0  0  0
 18 20  2  0  0  0
 19 21  1  0  0  0
 19 22  1  0  0  0
  5  6  1  0  0  0
  6  7  1  0  0  0
  6  8  1  0  0  0
M  END
> <minimizedAffinity>
-7.91195

$$$$
