CHEMBL3694672


 29 32  0  0  0  0  0  0  0  0999 V2000
  -29.2932   -2.8159   -5.2005 C   0  0  0  0  0  0  0  0  0  0  0  0
  -29.1902   -1.5102   -4.7353 C   0  0  0  0  0  0  0  0  0  0  0  0
  -28.5908   -0.6804   -5.6468 N   0  0  0  0  0  0  0  0  0  0  0  0
  -28.3327   -1.4412   -6.6837 C   0  0  0  0  0  0  0  0  0  0  0  0
  -27.7215   -1.1349   -7.9375 C   0  0  0  0  0  0  0  0  0  0  0  0
  -27.5603   -2.0868   -8.8855 C   0  0  0  0  0  0  0  0  0  0  0  0
  -28.0277   -3.4505   -8.6166 C   0  0  0  0  0  0  0  0  0  0  0  0
  -28.6303   -3.7365   -7.4576 C   0  0  0  0  0  0  0  0  0  0  0  0
  -28.7626   -2.7522   -6.4804 N   0  0  0  0  0  0  0  0  0  0  0  0
  -29.5973   -6.2195   -3.5257 C   0  0  0  0  0  0  0  0  0  0  0  0
  -30.9661   -6.2333   -3.2653 C   0  0  0  0  0  0  0  0  0  0  0  0
  -31.7805   -5.1704   -3.6532 C   0  0  0  0  0  0  0  0  0  0  0  0
  -31.2297   -4.0706   -4.3048 C   0  0  0  0  0  0  0  0  0  0  0  0
  -29.8529   -4.0018   -4.5397 C   0  0  0  0  0  0  0  0  0  0  0  0
  -29.0447   -5.0761   -4.1117 C   0  0  0  0  0  0  0  0  0  0  0  0
  -27.3515   -9.0975   -3.6130 N   0  0  0  0  0  0  0  0  0  0  0  0
  -28.1183   -8.0976   -4.1768 C   0  0  0  0  0  0  0  0  0  0  0  0
  -28.1761   -7.9441   -5.3906 O   0  0  0  0  0  0  0  0  0  0  0  0
  -28.7431   -7.3112   -3.2300 N   0  0  0  0  0  0  0  0  0  0  0  0
  -27.7041   -9.4912   -2.7524 H   0  0  0  0  0  0  0  0  0  0  0  0
  -28.3632   -7.3679   -2.2957 H   0  0  0  0  0  0  0  0  0  0  0  0
  -25.1790   -9.8015   -4.5721 C   0  0  0  0  0  0  0  0  0  0  0  0
  -26.6789   -9.9887   -4.5409 C   0  0  0  0  0  0  0  0  0  0  0  0
  -26.9311   -1.7521  -10.1900 C   0  0  0  0  0  0  0  0  0  0  0  0
  -25.6102   -1.5003  -10.2266 N   0  0  0  0  0  0  0  0  0  0  0  0
  -25.0934   -1.2379  -11.4377 C   0  0  0  0  0  0  0  0  0  0  0  0
  -25.8351   -1.2194  -12.5956 C   0  0  0  0  0  0  0  0  0  0  0  0
  -27.1748   -1.4746  -12.4495 C   0  0  0  0  0  0  0  0  0  0  0  0
  -27.7458   -1.7422  -11.2659 N   0  0  0  0  0  0  0  0  0  0  0  0
 22 23  1  0  0  0
 23 16  1  0  0  0
 16 17  1  0  0  0
 16 20  1  0  0  0
 17 18  2  0  0  0
 17 19  1  0  0  0
 19 10  1  0  0  0
 19 21  1  0  0  0
 10 11  1  0  0  0
 10 15  2  0  0  0
 11 12  2  0  0  0
 12 13  1  0  0  0
 13 14  2  0  0  0
 14  1  1  0  0  0
 14 15  1  0  0  0
  1  2  2  0  0  0
  1  9  1  0  0  0
  2  3  1  0  0  0
  3  4  2  0  0  0
  4  5  1  0  0  0
  4  9  1  0  0  0
  5  6  2  0  0  0
  6 24  1  0  0  0
  6  7  1  0  0  0
 24 25  1  0  0  0
 24 29  2  0  0  0
 25 26  2  0  0  0
 26 27  1  0  0  0
 27 28  2  0  0  0
 28 29  1  0  0  0
  7  8  2  0  0  0
  8  9  1  0  0  0
M  END
> <minimizedAffinity>
-9.26631

$$$$
