CHEMBL3660307


 32 35  0  0  0  0  0  0  0  0999 V2000
  -24.7430   -1.7082  -12.1378 C   0  0  0  0  0  0  0  0  0  0  0  0
  -23.5272   -1.3944  -11.5288 C   0  0  0  0  0  0  0  0  0  0  0  0
  -22.6292   -0.5181  -12.1476 C   0  0  0  0  0  0  0  0  0  0  0  0
  -22.9290    0.1032  -13.3745 C   0  0  0  0  0  0  0  0  0  0  0  0
  -24.1378   -0.2693  -13.9923 C   0  0  0  0  0  0  0  0  0  0  0  0
  -25.0212   -1.1885  -13.3995 C   0  0  0  0  0  0  0  0  0  0  0  0
  -27.1236   -2.9147   -9.6863 N   0  0  0  0  0  0  0  0  0  0  0  0
  -26.2195   -2.0307  -10.2522 C   0  0  0  0  0  0  0  0  0  0  0  0
  -25.9329   -0.9268   -9.8069 O   0  0  0  0  0  0  0  0  0  0  0  0
  -25.7107   -2.4946  -11.4636 N   0  0  0  0  0  0  0  0  0  0  0  0
  -27.3621   -3.7280  -10.2321 H   0  0  0  0  0  0  0  0  0  0  0  0
  -26.4046   -2.9301  -12.0517 H   0  0  0  0  0  0  0  0  0  0  0  0
  -28.4617    0.2654   -6.1365 C   0  0  0  0  0  0  0  0  0  0  0  0
  -28.4900   -1.1194   -6.7177 C   0  0  0  0  0  0  0  0  0  0  0  0
  -29.1603   -2.1418   -6.0389 C   0  0  0  0  0  0  0  0  0  0  0  0
  -29.2180   -3.4158   -6.5890 C   0  0  0  0  0  0  0  0  0  0  0  0
  -28.5942   -3.6830   -7.8054 C   0  0  0  0  0  0  0  0  0  0  0  0
  -28.8181   -4.8981   -8.3185 F   0  0  0  0  0  0  0  0  0  0  0  0
  -27.8590   -2.7000   -8.4857 C   0  0  0  0  0  0  0  0  0  0  0  0
  -27.8446   -1.4042   -7.9391 C   0  0  0  0  0  0  0  0  0  0  0  0
  -22.0218    1.1307  -13.9520 C   0  0  0  0  0  0  0  0  0  0  0  0
  -22.4454    2.4298  -14.2560 C   0  0  0  0  0  0  0  0  0  0  0  0
  -21.5408    3.3366  -14.7968 C   0  0  0  0  0  0  0  0  0  0  0  0
  -20.2507    3.0511  -15.0735 N   0  0  0  0  0  0  0  0  0  0  0  0
  -19.8386    1.7975  -14.7819 C   0  0  0  0  0  0  0  0  0  0  0  0
  -20.6731    0.8381  -14.2163 C   0  0  0  0  0  0  0  0  0  0  0  0
  -18.4475    1.5083  -15.1217 C   0  0  0  0  0  0  0  0  0  0  0  0
  -17.6277    0.4285  -14.8317 C   0  0  0  0  0  0  0  0  0  0  0  0
  -16.3597    0.6615  -15.4161 C   0  0  0  0  0  0  0  0  0  0  0  0
  -16.4265    1.8761  -16.0586 C   0  0  0  0  0  0  0  0  0  0  0  0
  -17.6889    2.3740  -15.8801 N   0  0  0  0  0  0  0  0  0  0  0  0
  -18.0473    3.2498  -16.2423 H   0  0  0  0  0  0  0  0  0  0  0  0
 13 14  1  0  0  0
 14 15  1  0  0  0
 14 20  2  0  0  0
 15 16  2  0  0  0
 16 17  1  0  0  0
 17 18  1  0  0  0
 17 19  2  0  0  0
 19  7  1  0  0  0
 19 20  1  0  0  0
  7  8  1  0  0  0
  7 11  1  0  0  0
  8  9  2  0  0  0
  8 10  1  0  0  0
 10  1  1  0  0  0
 10 12  1  0  0  0
  1  2  1  0  0  0
  1  6  2  0  0  0
  2  3  2  0  0  0
  3  4  1  0  0  0
  4 21  1  0  0  0
  4  5  2  0  0  0
 21 22  1  0  0  0
 21 26  2  0  0  0
 22 23  2  0  0  0
 23 24  1  0  0  0
 24 25  2  0  0  0
 25 27  1  0  0  0
 25 26  1  0  0  0
 27 28  2  0  0  0
 27 31  1  0  0  0
 28 29  1  0  0  0
 29 30  2  0  0  0
 30 31  1  0  0  0
 31 32  1  0  0  0
  5  6  1  0  0  0
M  END
> <minimizedAffinity>
-11.30782

$$$$
