CHEMBL3657557


 35 39  0  0  0  0  0  0  0  0999 V2000
  -29.2345   -7.6664   -6.8971 C   0  0  0  0  0  0  0  0  0  0  0  0
  -29.0525   -7.7041   -8.2628 C   0  0  0  0  0  0  0  0  0  0  0  0
  -28.6235   -8.9086   -8.7588 C   0  0  0  0  0  0  0  0  0  0  0  0
  -28.4090   -9.9931   -7.9933 N   0  0  0  0  0  0  0  0  0  0  0  0
  -28.6009   -9.8736   -6.6733 C   0  0  0  0  0  0  0  0  0  0  0  0
  -28.9805   -8.7273   -6.0862 N   0  0  0  0  0  0  0  0  0  0  0  0
  -31.2400   -4.7726   -3.5572 C   0  0  0  0  0  0  0  0  0  0  0  0
  -30.6424   -5.1768   -4.8575 C   0  0  0  0  0  0  0  0  0  0  0  0
  -30.4039   -6.4715   -5.1085 N   0  0  0  0  0  0  0  0  0  0  0  0
  -29.7707   -6.4781   -6.3105 N   0  0  0  0  0  0  0  0  0  0  0  0
  -29.6510   -5.2084   -6.8200 C   0  0  0  0  0  0  0  0  0  0  0  0
  -30.2190   -4.3284   -5.9210 C   0  0  0  0  0  0  0  0  0  0  0  0
  -30.2796   -2.8310   -5.9872 C   0  0  0  0  0  0  0  0  0  0  0  0
  -28.9654   -2.2142   -5.7398 N   0  0  0  0  0  0  0  0  0  0  0  0
  -28.9401   -1.3970   -4.5113 C   0  0  0  0  0  0  0  0  0  0  0  0
  -27.9959   -0.2212   -4.7655 C   0  0  0  0  0  0  0  0  0  0  0  0
  -28.6800    1.0245   -4.6391 O   0  0  0  0  0  0  0  0  0  0  0  0
  -27.5026   -0.4099   -6.1876 C   0  0  0  0  0  0  0  0  0  0  0  0
  -28.5491   -1.3199   -6.8337 C   0  0  0  0  0  0  0  0  0  0  0  0
  -27.9448   -2.0784   -8.0121 C   0  0  0  0  0  0  0  0  0  0  0  0
  -29.3418    1.0826   -5.3483 H   0  0  0  0  0  0  0  0  0  0  0  0
  -28.4178  -10.9588   -5.8138 N   0  0  0  0  0  0  0  0  0  0  0  0
  -28.8493  -11.7707   -6.2351 H   0  0  0  0  0  0  0  0  0  0  0  0
  -27.3685  -11.2639   -4.9235 C   0  0  0  0  0  0  0  0  0  0  0  0
  -27.5503  -11.8125   -3.6537 C   0  0  0  0  0  0  0  0  0  0  0  0
  -26.4735  -12.0759   -2.7876 C   0  0  0  0  0  0  0  0  0  0  0  0
  -25.1772  -11.7791   -3.2320 C   0  0  0  0  0  0  0  0  0  0  0  0
  -24.9462  -11.2805   -4.5151 C   0  0  0  0  0  0  0  0  0  0  0  0
  -26.0509  -11.0543   -5.3676 C   0  0  0  0  0  0  0  0  0  0  0  0
  -23.5452  -11.0939   -4.6427 C   0  0  0  0  0  0  0  0  0  0  0  0
  -22.7767  -10.4971   -6.0429 Cl  0  0  0  0  0  0  0  0  0  0  0  0
  -22.9437  -11.4319   -3.4462 C   0  0  0  0  0  0  0  0  0  0  0  0
  -21.5123  -11.3415   -3.0484 C   0  0  0  0  0  0  0  0  0  0  0  0
  -23.9435  -11.8845   -2.6082 N   0  0  0  0  0  0  0  0  0  0  0  0
  -23.7646  -12.3809   -1.2574 C   0  0  0  0  0  0  0  0  0  0  0  0
  7  8  1  0  0  0
  8  9  2  0  0  0
  8 12  1  0  0  0
  9 10  1  0  0  0
 10  1  1  0  0  0
 10 11  1  0  0  0
  1  2  1  0  0  0
  1  6  2  0  0  0
  2  3  2  0  0  0
  3  4  1  0  0  0
  4  5  2  0  0  0
  5 22  1  0  0  0
  5  6  1  0  0  0
 22 24  1  0  0  0
 22 23  1  0  0  0
 24 25  1  0  0  0
 24 29  2  0  0  0
 25 26  2  0  0  0
 26 27  1  0  0  0
 27 28  2  0  0  0
 27 34  1  0  0  0
 28 29  1  0  0  0
 28 30  1  0  0  0
 30 31  1  0  0  0
 30 32  2  0  0  0
 32 33  1  0  0  0
 32 34  1  0  0  0
 34 35  1  0  0  0
 11 12  2  0  0  0
 12 13  1  0  0  0
 13 14  1  0  0  0
 14 15  1  0  0  0
 14 19  1  0  0  0
 15 16  1  0  0  0
 16 18  1  0  0  0
 16 17  1  0  0  0
 17 21  1  0  0  0
 18 19  1  0  0  0
 19 20  1  0  0  0
M  END
> <minimizedAffinity>
-8.65989

$$$$
