CHEMBL4286385


 49 54  0  0  0  0  0  0  0  0999 V2000
  -27.0628   -0.1760   -7.6696 C   0  0  0  0  0  0  0  0  0  0  0  0
  -27.8828   -1.4322   -7.5593 C   0  0  0  0  0  0  0  0  0  0  0  0
  -28.6993   -1.5873   -6.4255 C   0  0  0  0  0  0  0  0  0  0  0  0
  -29.6069   -2.6459   -6.3317 C   0  0  0  0  0  0  0  0  0  0  0  0
  -29.5977   -3.6453   -7.2973 C   0  0  0  0  0  0  0  0  0  0  0  0
  -28.7864   -3.5115   -8.4261 C   0  0  0  0  0  0  0  0  0  0  0  0
  -27.9714   -2.3840   -8.5902 C   0  0  0  0  0  0  0  0  0  0  0  0
  -27.2285   -2.2195   -9.7733 N   0  0  0  0  0  0  0  0  0  0  0  0
  -27.5592   -1.3412  -10.7935 C   0  0  0  0  0  0  0  0  0  0  0  0
  -28.4492   -0.5019  -10.7927 O   0  0  0  0  0  0  0  0  0  0  0  0
  -26.3330   -2.6887   -9.8303 H   0  0  0  0  0  0  0  0  0  0  0  0
  -26.7186   -1.5002  -12.0167 C   0  0  0  0  0  0  0  0  0  0  0  0
  -27.4842   -1.7171  -13.3281 C   0  0  0  0  0  0  0  0  0  0  0  0
  -26.6183   -2.8106  -12.7948 C   0  0  0  0  0  0  0  0  0  0  0  0
  -25.4541   -0.6962  -11.9975 C   0  0  0  0  0  0  0  0  0  0  0  0
  -25.0520   -0.2852  -10.9293 O   0  0  0  0  0  0  0  0  0  0  0  0
  -24.8861   -0.5175  -13.2505 N   0  0  0  0  0  0  0  0  0  0  0  0
  -25.3868   -0.8924  -14.0535 H   0  0  0  0  0  0  0  0  0  0  0  0
  -23.6901    0.1928  -13.5220 C   0  0  0  0  0  0  0  0  0  0  0  0
  -23.5766    1.5766  -13.3442 C   0  0  0  0  0  0  0  0  0  0  0  0
  -22.4094    2.2563  -13.6983 C   0  0  0  0  0  0  0  0  0  0  0  0
  -21.3386    1.5493  -14.2216 C   0  0  0  0  0  0  0  0  0  0  0  0
  -20.2355    2.2073  -14.5966 F   0  0  0  0  0  0  0  0  0  0  0  0
  -21.4031    0.1677  -14.3579 C   0  0  0  0  0  0  0  0  0  0  0  0
  -22.5702   -0.5122  -13.9923 C   0  0  0  0  0  0  0  0  0  0  0  0
  -30.5027   -2.7800   -5.2947 O   0  0  0  0  0  0  0  0  0  0  0  0
  -30.6066   -3.9894   -4.6339 C   0  0  0  0  0  0  0  0  0  0  0  0
  -31.6457   -4.3388   -3.7738 C   0  0  0  0  0  0  0  0  0  0  0  0
  -31.6066   -5.5902   -3.1841 C   0  0  0  0  0  0  0  0  0  0  0  0
  -30.6577   -6.5185   -3.4364 N   0  0  0  0  0  0  0  0  0  0  0  0
  -29.6557   -6.1624   -4.2674 C   0  0  0  0  0  0  0  0  0  0  0  0
  -29.6067   -4.9231   -4.8995 C   0  0  0  0  0  0  0  0  0  0  0  0
  -28.6649   -7.1464   -4.4444 N   0  0  0  0  0  0  0  0  0  0  0  0
  -28.6525   -7.9679   -5.5440 C   0  0  0  0  0  0  0  0  0  0  0  0
  -29.5118   -7.9068   -6.4248 O   0  0  0  0  0  0  0  0  0  0  0  0
  -27.5960   -8.8725   -5.6280 N   0  0  0  0  0  0  0  0  0  0  0  0
  -27.4320   -9.6044   -6.8779 C   0  0  0  0  0  0  0  0  0  0  0  0
  -27.3101  -11.0966   -6.6021 C   0  0  0  0  0  0  0  0  0  0  0  0
  -26.0697  -11.4302   -5.7448 C   0  0  0  0  0  0  0  0  0  0  0  0
  -26.1807  -10.5631   -4.4518 C   0  0  0  0  0  0  0  0  0  0  0  0
  -26.5052   -9.0718   -4.6721 C   0  0  0  0  0  0  0  0  0  0  0  0
  -27.7644   -6.8220   -4.1312 H   0  0  0  0  0  0  0  0  0  0  0  0
  -24.7512  -11.2653   -6.4103 N   0  0  0  0  0  0  0  0  0  0  0  0
  -23.7846  -12.3794   -6.2422 C   0  0  0  0  0  0  0  0  0  0  0  0
  -23.0647  -12.4660   -4.8726 C   0  0  0  0  0  0  0  0  0  0  0  0
  -22.3495  -11.2213   -4.5507 N   0  0  0  0  0  0  0  0  0  0  0  0
  -21.7145  -11.2972   -3.2355 C   0  0  0  0  0  0  0  0  0  0  0  0
  -23.2784  -10.0827   -4.6336 C   0  0  0  0  0  0  0  0  0  0  0  0
  -24.0481  -10.0201   -5.9849 C   0  0  0  0  0  0  0  0  0  0  0  0
  1  2  1  0  0  0
  2  3  1  0  0  0
  2  7  2  0  0  0
  3  4  2  0  0  0
  4 26  1  0  0  0
  4  5  1  0  0  0
 26 27  1  0  0  0
 27 28  1  0  0  0
 27 32  2  0  0  0
 28 29  2  0  0  0
 29 30  1  0  0  0
 30 31  2  0  0  0
 31 33  1  0  0  0
 31 32  1  0  0  0
 33 34  1  0  0  0
 33 42  1  0  0  0
 34 35  2  0  0  0
 34 36  1  0  0  0
 36 37  1  0  0  0
 36 41  1  0  0  0
 37 38  1  0  0  0
 38 39  1  0  0  0
 39 43  1  0  0  0
 39 40  1  0  0  0
 43 44  1  0  0  0
 43 49  1  0  0  0
 44 45  1  0  0  0
 45 46  1  0  0  0
 46 47  1  0  0  0
 46 48  1  0  0  0
 48 49  1  0  0  0
 40 41  1  0  0  0
  5  6  2  0  0  0
  6  7  1  0  0  0
  7  8  1  0  0  0
  8  9  1  0  0  0
  8 11  1  0  0  0
  9 10  2  0  0  0
  9 12  1  0  0  0
 12 15  1  0  0  0
 12 13  1  0  0  0
 12 14  1  0  0  0
 15 16  2  0  0  0
 15 17  1  0  0  0
 17 19  1  0  0  0
 17 18  1  0  0  0
 19 20  1  0  0  0
 19 25  2  0  0  0
 20 21  2  0  0  0
 21 22  1  0  0  0
 22 23  1  0  0  0
 22 24  2  0  0  0
 24 25  1  0  0  0
 13 14  1  0  0  0
M  END
> <minimizedAffinity>
-9.62879

$$$$
