CHEMBL3931790


 40 44  0  0  0  0  0  0  0  0999 V2000
  -15.6225    2.1613  -15.9090 N   0  0  0  0  0  0  0  0  0  0  0  0
  -17.0064    2.3168  -15.5552 C   0  0  0  0  0  0  0  0  0  0  0  0
  -17.5031    1.1702  -14.9002 C   0  0  0  0  0  0  0  0  0  0  0  0
  -18.8050    1.1719  -14.5089 C   0  0  0  0  0  0  0  0  0  0  0  0
  -19.5736    2.1578  -14.7567 C   0  0  0  0  0  0  0  0  0  0  0  0
  -20.7422    1.6243  -14.8992 N   0  0  0  0  0  0  0  0  0  0  0  0
  -21.5014    1.2732  -13.9420 C   0  0  0  0  0  0  0  0  0  0  0  0
  -22.4388    2.2916  -13.9621 C   0  0  0  0  0  0  0  0  0  0  0  0
  -21.3256    3.4507  -14.6963 N   0  0  0  0  0  0  0  0  0  0  0  0
  -19.6391    3.3987  -15.2481 C   0  0  0  0  0  0  0  0  0  0  0  0
  -17.9093    3.3086  -15.7997 C   0  0  0  0  0  0  0  0  0  0  0  0
  -23.4595    0.7435  -13.4356 C   0  0  0  0  0  0  0  0  0  0  0  0
  -23.9185   -0.7676  -13.9495 C   0  0  0  0  0  0  0  0  0  0  0  0
  -24.7089   -1.6270  -13.2125 N   0  0  0  0  0  0  0  0  0  0  0  0
  -24.9595   -0.9702  -12.0813 N   0  0  0  0  0  0  0  0  0  0  0  0
  -25.6826   -1.6357  -10.9332 C   0  0  0  0  0  0  0  0  0  0  0  0
  -24.3067    0.3865  -12.1948 C   0  0  0  0  0  0  0  0  0  0  0  0
  -14.1239    4.7121  -18.2732 C   0  0  0  0  0  0  0  0  0  0  0  0
  -13.3413    5.3476  -17.3883 C   0  0  0  0  0  0  0  0  0  0  0  0
  -13.2025    4.9338  -16.0713 C   0  0  0  0  0  0  0  0  0  0  0  0
  -13.8767    3.8125  -15.6261 C   0  0  0  0  0  0  0  0  0  0  0  0
  -14.7819    3.1721  -16.4438 C   0  0  0  0  0  0  0  0  0  0  0  0
  -14.7186    3.5977  -17.7848 C   0  0  0  0  0  0  0  0  0  0  0  0
  -14.6603    6.5281  -19.6477 C   0  0  0  0  0  0  0  0  0  0  0  0
  -14.4296    5.1265  -19.5329 O   0  0  0  0  0  0  0  0  0  0  0  0
  -12.4508    5.6133  -15.1606 O   0  0  0  0  0  0  0  0  0  0  0  0
  -12.1395    6.9628  -15.5094 C   0  0  0  0  0  0  0  0  0  0  0  0
  -15.1901    0.7632  -15.9087 C   0  0  0  0  0  0  0  0  0  0  0  0
  -14.3075    0.3753  -14.7442 C   0  0  0  0  0  0  0  0  0  0  0  0
  -14.1259   -1.0017  -14.3977 N   0  0  0  0  0  0  0  0  0  0  0  0
  -12.7331   -1.2413  -14.0988 C   0  0  0  0  0  0  0  0  0  0  0  0
  -12.5512   -2.7023  -13.8282 C   0  0  0  0  0  0  0  0  0  0  0  0
  -13.4304   -3.1461  -12.6707 C   0  0  0  0  0  0  0  0  0  0  0  0
  -14.8900   -2.7336  -12.8791 C   0  0  0  0  0  0  0  0  0  0  0  0
  -14.9649   -1.2758  -13.2375 C   0  0  0  0  0  0  0  0  0  0  0  0
  -15.7083   -3.0303  -11.6279 C   0  0  0  0  0  0  0  0  0  0  0  0
  -16.5718   -4.1023  -11.6423 N   0  0  0  0  0  0  0  0  0  0  0  0
  -15.6093   -2.3125  -10.6358 O   0  0  0  0  0  0  0  0  0  0  0  0
  -16.7066   -4.7347  -12.4210 H   0  0  0  0  0  0  0  0  0  0  0  0
  -17.1321   -4.3184  -10.8260 H   0  0  0  0  0  0  0  0  0  0  0  0
 24 25  1  0  0  0
 25 18  1  0  0  0
 18 19  1  0  0  0
 18 23  2  0  0  0
 19 20  2  0  0  0
 20 26  1  0  0  0
 20 21  1  0  0  0
 26 27  1  0  0  0
 21 22  2  0  0  0
 22  1  1  0  0  0
 22 23  1  0  0  0
  1 28  1  0  0  0
  1  2  1  0  0  0
 28 29  1  0  0  0
 29 30  1  0  0  0
 30 31  1  0  0  0
 30 35  1  0  0  0
 31 32  1  0  0  0
 32 33  1  0  0  0
 33 34  1  0  0  0
 34 36  1  0  0  0
 34 35  1  0  0  0
 36 37  1  0  0  0
 36 38  2  0  0  0
 37 39  1  0  0  0
 37 40  1  0  0  0
  2  3  1  0  0  0
  2 11  2  0  0  0
  3  4  2  0  0  0
  4  5  1  0  0  0
  5  6  1  0  0  0
  5 10  2  0  0  0
  6  7  2  0  0  0
  7  8  1  0  0  0
  8 12  1  0  0  0
  8  9  2  0  0  0
 12 13  1  0  0  0
 12 17  2  0  0  0
 13 14  2  0  0  0
 14 15  1  0  0  0
 15 16  1  0  0  0
 15 17  1  0  0  0
  9 10  1  0  0  0
 10 11  1  0  0  0
M  END
> <minimizedAffinity>
-9.78016

$$$$
