CHEMBL191437


 21 23  0  0  0  0  0  0  0  0999 V2000
  -16.6076    4.2977  -16.2228 C   0  0  0  0  0  0  0  0  0  0  0  0
  -17.1004    3.0736  -15.9761 C   0  0  0  0  0  0  0  0  0  0  0  0
  -16.3471    1.7631  -16.0614 C   0  0  0  0  0  0  0  0  0  0  0  0
  -15.2198    1.5480  -16.4549 O   0  0  0  0  0  0  0  0  0  0  0  0
  -17.2473    0.8056  -15.6240 N   0  0  0  0  0  0  0  0  0  0  0  0
  -18.4794    1.3632  -15.3132 C   0  0  0  0  0  0  0  0  0  0  0  0
  -19.5926    0.6825  -14.8639 C   0  0  0  0  0  0  0  0  0  0  0  0
  -20.7424    1.4304  -14.6155 C   0  0  0  0  0  0  0  0  0  0  0  0
  -20.7471    2.8238  -14.8187 C   0  0  0  0  0  0  0  0  0  0  0  0
  -19.6010    3.4944  -15.2724 C   0  0  0  0  0  0  0  0  0  0  0  0
  -18.4618    2.7481  -15.5206 C   0  0  0  0  0  0  0  0  0  0  0  0
  -17.0082   -0.1732  -15.5766 H   0  0  0  0  0  0  0  0  0  0  0  0
  -11.9166    5.1382  -15.0742 C   0  0  0  0  0  0  0  0  0  0  0  0
  -13.0837    4.9066  -15.9608 C   0  0  0  0  0  0  0  0  0  0  0  0
  -14.3449    4.6448  -15.4727 N   0  0  0  0  0  0  0  0  0  0  0  0
  -15.2396    4.5286  -16.5122 C   0  0  0  0  0  0  0  0  0  0  0  0
  -14.5427    4.7013  -17.6999 C   0  0  0  0  0  0  0  0  0  0  0  0
  -15.1026    4.6935  -19.0771 C   0  0  0  0  0  0  0  0  0  0  0  0
  -13.1935    4.9397  -17.3319 C   0  0  0  0  0  0  0  0  0  0  0  0
  -11.8033    5.2930  -18.5494 Br  0  0  0  0  0  0  0  0  0  0  0  0
  -14.5859    4.5979  -14.4920 H   0  0  0  0  0  0  0  0  0  0  0  0
 13 14  1  0  0  0
 14 15  1  0  0  0
 14 19  2  0  0  0
 15 16  1  0  0  0
 15 21  1  0  0  0
 16  1  1  0  0  0
 16 17  2  0  0  0
  1  2  2  0  0  0
  2  3  1  0  0  0
  2 11  1  0  0  0
  3  4  2  0  0  0
  3  5  1  0  0  0
  5  6  1  0  0  0
  5 12  1  0  0  0
  6  7  1  0  0  0
  6 11  2  0  0  0
  7  8  2  0  0  0
  8  9  1  0  0  0
  9 10  2  0  0  0
 10 11  1  0  0  0
 17 18  1  0  0  0
 17 19  1  0  0  0
 19 20  1  0  0  0
M  END
> <minimizedAffinity>
-7.85754

$$$$
