CHEMBL3969414


 37 40  0  0  0  0  0  0  0  0999 V2000
  -14.3637    3.9356  -16.1431 N   0  0  0  0  0  0  0  0  0  0  0  0
  -15.6826    3.3067  -16.1303 C   0  0  0  0  0  0  0  0  0  0  0  0
  -16.6937    4.1924  -15.9247 C   0  0  0  0  0  0  0  0  0  0  0  0
  -17.8829    3.7449  -15.5272 C   0  0  0  0  0  0  0  0  0  0  0  0
  -18.1046    2.4257  -15.2262 C   0  0  0  0  0  0  0  0  0  0  0  0
  -18.8011    2.5463  -14.2031 N   0  0  0  0  0  0  0  0  0  0  0  0
  -20.0064    2.2039  -14.4127 C   0  0  0  0  0  0  0  0  0  0  0  0
  -20.2542    0.9349  -14.7088 C   0  0  0  0  0  0  0  0  0  0  0  0
  -18.9994    0.3288  -15.2561 N   0  0  0  0  0  0  0  0  0  0  0  0
  -17.6413    1.2379  -15.6417 C   0  0  0  0  0  0  0  0  0  0  0  0
  -16.1208    1.8663  -16.0989 C   0  0  0  0  0  0  0  0  0  0  0  0
  -21.7183    0.7292  -13.9951 C   0  0  0  0  0  0  0  0  0  0  0  0
  -22.8927    1.5280  -13.7696 C   0  0  0  0  0  0  0  0  0  0  0  0
  -24.0307    0.8539  -13.4688 N   0  0  0  0  0  0  0  0  0  0  0  0
  -23.7353   -0.4674  -13.5881 N   0  0  0  0  0  0  0  0  0  0  0  0
  -22.3633   -0.5744  -13.8494 C   0  0  0  0  0  0  0  0  0  0  0  0
  -24.8043   -1.5099  -13.3802 C   0  0  0  0  0  0  0  0  0  0  0  0
  -25.5206   -1.6192  -12.0003 C   0  0  0  0  0  0  0  0  0  0  0  0
  -25.9296   -1.5172  -14.4391 C   0  0  0  0  0  0  0  0  0  0  0  0
  -11.4186    4.7777  -14.0044 C   0  0  0  0  0  0  0  0  0  0  0  0
  -11.3376    3.6457  -13.2026 C   0  0  0  0  0  0  0  0  0  0  0  0
  -12.1993    2.5814  -13.4087 C   0  0  0  0  0  0  0  0  0  0  0  0
  -13.1803    2.6853  -14.3982 C   0  0  0  0  0  0  0  0  0  0  0  0
  -13.2593    3.7947  -15.2666 C   0  0  0  0  0  0  0  0  0  0  0  0
  -12.2736    4.7891  -15.1212 C   0  0  0  0  0  0  0  0  0  0  0  0
  -11.2752    7.1077  -14.2578 C   0  0  0  0  0  0  0  0  0  0  0  0
  -10.6968    5.9101  -13.7021 O   0  0  0  0  0  0  0  0  0  0  0  0
  -12.1875    1.4236  -12.6775 O   0  0  0  0  0  0  0  0  0  0  0  0
  -11.4259    0.3568  -13.2419 C   0  0  0  0  0  0  0  0  0  0  0  0
  -14.1104    4.8444  -17.3722 C   0  0  0  0  0  0  0  0  0  0  0  0
  -13.8367    4.3842  -18.8446 C   0  0  0  0  0  0  0  0  0  0  0  0
  -15.1287    4.6233  -19.5373 O   0  0  0  0  0  0  0  0  0  0  0  0
  -15.2631    3.9105  -20.1978 H   0  0  0  0  0  0  0  0  0  0  0  0
  -13.3586    2.9620  -19.1735 C   0  0  0  0  0  0  0  0  0  0  0  0
  -14.3298    2.0526  -19.3196 F   0  0  0  0  0  0  0  0  0  0  0  0
  -12.6935    2.9991  -20.3728 F   0  0  0  0  0  0  0  0  0  0  0  0
  -12.4624    2.4967  -18.2770 F   0  0  0  0  0  0  0  0  0  0  0  0
 26 27  1  0  0  0
 27 20  1  0  0  0
 20 21  1  0  0  0
 20 25  2  0  0  0
 21 22  2  0  0  0
 22 28  1  0  0  0
 22 23  1  0  0  0
 28 29  1  0  0  0
 23 24  2  0  0  0
 24  1  1  0  0  0
 24 25  1  0  0  0
  1 30  1  0  0  0
  1  2  1  0  0  0
 31 34  1  0  0  0
 31 32  1  0  0  0
 31 30  1  0  0  0
 32 33  1  0  0  0
 34 35  1  0  0  0
 34 36  1  0  0  0
 34 37  1  0  0  0
  2  3  1  0  0  0
  2 11  2  0  0  0
  3  4  2  0  0  0
  4  5  1  0  0  0
  5  6  1  0  0  0
  5 10  2  0  0  0
  6  7  2  0  0  0
  7  8  1  0  0  0
  8 12  1  0  0  0
  8  9  2  0  0  0
 12 13  1  0  0  0
 12 16  2  0  0  0
 13 14  2  0  0  0
 14 15  1  0  0  0
 15 17  1  0  0  0
 15 16  1  0  0  0
 17 18  1  0  0  0
 17 19  1  0  0  0
  9 10  1  0  0  0
 10 11  1  0  0  0
M  END
> <minimizedAffinity>
-8.05595

$$$$
