CHEMBL3897567


 45 50  0  0  0  0  0  0  0  0999 V2000
  -27.4082   -0.6032   -7.5373 C   0  0  0  0  0  0  0  0  0  0  0  0
  -27.7558   -1.7781   -8.3456 N   0  0  0  0  0  0  0  0  0  0  0  0
  -28.3403   -2.8256   -7.5837 C   0  0  0  0  0  0  0  0  0  0  0  0
  -29.1903   -2.5808   -6.4850 C   0  0  0  0  0  0  0  0  0  0  0  0
  -29.7796   -3.6283   -5.7354 C   0  0  0  0  0  0  0  0  0  0  0  0
  -29.6535   -4.9396   -6.2278 C   0  0  0  0  0  0  0  0  0  0  0  0
  -30.0080   -6.2944   -5.8942 C   0  0  0  0  0  0  0  0  0  0  0  0
  -30.2989   -6.9062   -7.0613 N   0  0  0  0  0  0  0  0  0  0  0  0
  -29.4056   -6.3224   -7.8947 N   0  0  0  0  0  0  0  0  0  0  0  0
  -28.9791   -5.1098   -7.4325 C   0  0  0  0  0  0  0  0  0  0  0  0
  -28.1649   -4.1444   -8.0207 C   0  0  0  0  0  0  0  0  0  0  0  0
  -29.2262   -6.7535   -8.7824 H   0  0  0  0  0  0  0  0  0  0  0  0
  -29.3463   -7.1938   -4.9568 C   0  0  0  0  0  0  0  0  0  0  0  0
  -28.0070   -7.3104   -4.8902 C   0  0  0  0  0  0  0  0  0  0  0  0
  -27.2887   -8.6041   -4.8223 C   0  0  0  0  0  0  0  0  0  0  0  0
  -27.4150   -9.5772   -5.8516 C   0  0  0  0  0  0  0  0  0  0  0  0
  -26.5179  -10.6568   -5.9566 C   0  0  0  0  0  0  0  0  0  0  0  0
  -25.5038  -10.7311   -5.0311 C   0  0  0  0  0  0  0  0  0  0  0  0
  -25.3853   -9.8067   -4.0212 C   0  0  0  0  0  0  0  0  0  0  0  0
  -26.2583   -8.7432   -3.8879 C   0  0  0  0  0  0  0  0  0  0  0  0
  -24.3035  -10.0378   -3.2276 O   0  0  0  0  0  0  0  0  0  0  0  0
  -23.7462  -11.2046   -3.8683 C   0  0  0  0  0  0  0  0  0  0  0  0
  -24.5094  -11.6568   -5.0068 O   0  0  0  0  0  0  0  0  0  0  0  0
  -27.5125   -1.7706   -9.7384 C   0  0  0  0  0  0  0  0  0  0  0  0
  -28.4953   -2.1192  -10.6808 C   0  0  0  0  0  0  0  0  0  0  0  0
  -28.2680   -2.0084  -12.0524 C   0  0  0  0  0  0  0  0  0  0  0  0
  -27.0453   -1.5406  -12.5177 C   0  0  0  0  0  0  0  0  0  0  0  0
  -26.0344   -1.1853  -11.6237 C   0  0  0  0  0  0  0  0  0  0  0  0
  -26.2606   -1.3539  -10.2460 C   0  0  0  0  0  0  0  0  0  0  0  0
  -24.8069   -0.6068  -12.0437 N   0  0  0  0  0  0  0  0  0  0  0  0
  -24.3376   -0.6335  -13.3523 C   0  0  0  0  0  0  0  0  0  0  0  0
  -24.8874   -1.1885  -14.2996 O   0  0  0  0  0  0  0  0  0  0  0  0
  -24.3664    0.0326  -11.3954 H   0  0  0  0  0  0  0  0  0  0  0  0
  -23.0992    0.1246  -13.6561 C   0  0  0  0  0  0  0  0  0  0  0  0
  -21.9072   -0.4692  -14.0547 C   0  0  0  0  0  0  0  0  0  0  0  0
  -20.8181    0.3405  -14.4237 C   0  0  0  0  0  0  0  0  0  0  0  0
  -20.8791    1.7573  -14.4170 C   0  0  0  0  0  0  0  0  0  0  0  0
  -22.1006    2.3157  -13.9933 C   0  0  0  0  0  0  0  0  0  0  0  0
  -22.3698    3.6520  -13.8962 O   0  0  0  0  0  0  0  0  0  0  0  0
  -23.1841    1.5180  -13.6200 C   0  0  0  0  0  0  0  0  0  0  0  0
  -21.6739    4.1749  -14.3104 H   0  0  0  0  0  0  0  0  0  0  0  0
  -19.6543    2.5971  -14.8529 C   0  0  0  0  0  0  0  0  0  0  0  0
  -18.9929    3.3798  -13.6859 C   0  0  0  0  0  0  0  0  0  0  0  0
  -18.5378    1.6930  -15.4276 C   0  0  0  0  0  0  0  0  0  0  0  0
  -20.0656    3.6674  -15.8898 C   0  0  0  0  0  0  0  0  0  0  0  0
  1  2  1  0  0  0
  2 24  1  0  0  0
  2  3  1  0  0  0
 24 25  1  0  0  0
 24 29  2  0  0  0
 25 26  2  0  0  0
 26 27  1  0  0  0
 27 28  2  0  0  0
 28 30  1  0  0  0
 28 29  1  0  0  0
 30 31  1  0  0  0
 30 33  1  0  0  0
 31 32  2  0  0  0
 31 34  1  0  0  0
 34 35  1  0  0  0
 34 40  2  0  0  0
 35 36  2  0  0  0
 36 37  1  0  0  0
 37 42  1  0  0  0
 37 38  2  0  0  0
 42 43  1  0  0  0
 42 44  1  0  0  0
 42 45  1  0  0  0
 38 39  1  0  0  0
 38 40  1  0  0  0
 39 41  1  0  0  0
  3  4  1  0  0  0
  3 11  2  0  0  0
  4  5  2  0  0  0
  5  6  1  0  0  0
  6  7  1  0  0  0
  6 10  2  0  0  0
  7 13  1  0  0  0
  7  8  2  0  0  0
 13 14  2  0  0  0
 14 15  1  0  0  0
 15 16  1  0  0  0
 15 20  2  0  0  0
 16 17  2  0  0  0
 17 18  1  0  0  0
 18 19  2  0  0  0
 18 23  1  0  0  0
 19 20  1  0  0  0
 19 21  1  0  0  0
 21 22  1  0  0  0
 22 23  1  0  0  0
  8  9  1  0  0  0
  9 10  1  0  0  0
  9 12  1  0  0  0
 10 11  1  0  0  0
M  END
> <minimizedAffinity>
-10.47708

$$$$
