CHEMBL225334


 37 42  0  0  0  0  0  0  0  0999 V2000
  -29.4097   -6.1777   -5.2410 C   0  0  0  0  0  0  0  0  0  0  0  0
  -29.4330   -5.0704   -4.3565 C   0  0  0  0  0  0  0  0  0  0  0  0
  -29.0765   -3.7868   -4.7861 C   0  0  0  0  0  0  0  0  0  0  0  0
  -28.6671   -3.6544   -6.0913 C   0  0  0  0  0  0  0  0  0  0  0  0
  -28.5725   -4.7619   -6.9773 C   0  0  0  0  0  0  0  0  0  0  0  0
  -28.9464   -6.0239   -6.5570 C   0  0  0  0  0  0  0  0  0  0  0  0
  -28.0765   -4.3854   -8.3806 C   0  0  0  0  0  0  0  0  0  0  0  0
  -27.9676   -2.9232   -8.1500 C   0  0  0  0  0  0  0  0  0  0  0  0
  -27.6230   -1.7419   -8.8066 C   0  0  0  0  0  0  0  0  0  0  0  0
  -27.7149   -0.6739   -7.9820 N   0  0  0  0  0  0  0  0  0  0  0  0
  -28.1657   -1.1969   -6.8076 N   0  0  0  0  0  0  0  0  0  0  0  0
  -28.2807   -2.5379   -6.8729 C   0  0  0  0  0  0  0  0  0  0  0  0
  -28.3702   -0.5701   -6.0374 H   0  0  0  0  0  0  0  0  0  0  0  0
  -27.2052   -1.6517  -10.2158 C   0  0  0  0  0  0  0  0  0  0  0  0
  -28.0094   -1.9377  -11.2971 C   0  0  0  0  0  0  0  0  0  0  0  0
  -27.1728   -1.7405  -12.7845 S   0  0  0  0  0  0  0  0  0  0  0  0
  -25.7258   -1.2547  -12.0014 C   0  0  0  0  0  0  0  0  0  0  0  0
  -25.8948   -1.2359  -10.6302 C   0  0  0  0  0  0  0  0  0  0  0  0
  -24.5078   -0.9260  -12.7047 C   0  0  0  0  0  0  0  0  0  0  0  0
  -23.4899   -0.6234  -13.2667 C   0  0  0  0  0  0  0  0  0  0  0  0
  -22.2296   -0.2043  -13.9265 C   0  0  0  0  0  0  0  0  0  0  0  0
  -22.2407    1.2101  -14.1775 O   0  0  0  0  0  0  0  0  0  0  0  0
  -21.0378    1.7366  -14.5869 C   0  0  0  0  0  0  0  0  0  0  0  0
  -20.7734    3.1024  -14.7171 C   0  0  0  0  0  0  0  0  0  0  0  0
  -19.5269    3.5449  -15.1656 C   0  0  0  0  0  0  0  0  0  0  0  0
  -18.5262    2.6257  -15.4659 C   0  0  0  0  0  0  0  0  0  0  0  0
  -18.7647    1.2629  -15.2958 C   0  0  0  0  0  0  0  0  0  0  0  0
  -20.0159    0.8202  -14.8511 C   0  0  0  0  0  0  0  0  0  0  0  0
  -29.9842   -7.4999   -4.8127 C   0  0  0  0  0  0  0  0  0  0  0  0
  -26.7381  -11.3567   -4.7932 C   0  0  0  0  0  0  0  0  0  0  0  0
  -26.6052  -10.0329   -5.3953 N   0  0  0  0  0  0  0  0  0  0  0  0
  -26.6530   -8.9520   -4.3965 C   0  0  0  0  0  0  0  0  0  0  0  0
  -28.0462   -8.7828   -3.7788 C   0  0  0  0  0  0  0  0  0  0  0  0
  -29.0628   -8.6197   -4.8107 N   0  0  0  0  0  0  0  0  0  0  0  0
  -29.0356   -9.4447   -5.9261 C   0  0  0  0  0  0  0  0  0  0  0  0
  -30.0431   -9.6875   -6.5910 O   0  0  0  0  0  0  0  0  0  0  0  0
  -27.6352   -9.8190   -6.4365 C   0  0  0  0  0  0  0  0  0  0  0  0
 30 31  1  0  0  0
 31 32  1  0  0  0
 31 37  1  0  0  0
 32 33  1  0  0  0
 33 34  1  0  0  0
 34 29  1  0  0  0
 34 35  1  0  0  0
 29  1  1  0  0  0
  1  2  1  0  0  0
  1  6  2  0  0  0
  2  3  2  0  0  0
  3  4  1  0  0  0
  4  5  2  0  0  0
  4 12  1  0  0  0
  5  6  1  0  0  0
  5  7  1  0  0  0
  7  8  1  0  0  0
  8  9  1  0  0  0
  8 12  2  0  0  0
  9 14  1  0  0  0
  9 10  2  0  0  0
 14 15  2  0  0  0
 14 18  1  0  0  0
 15 16  1  0  0  0
 16 17  1  0  0  0
 17 19  1  0  0  0
 17 18  2  0  0  0
 19 20  3  0  0  0
 20 21  1  0  0  0
 21 22  1  0  0  0
 22 23  1  0  0  0
 23 24  1  0  0  0
 23 28  2  0  0  0
 24 25  2  0  0  0
 25 26  1  0  0  0
 26 27  2  0  0  0
 27 28  1  0  0  0
 10 11  1  0  0  0
 11 12  1  0  0  0
 11 13  1  0  0  0
 35 36  2  0  0  0
 35 37  1  0  0  0
M  END
> <minimizedAffinity>
-10.30393

$$$$
