CHEMBL270869


 44 48  0  0  0  0  0  0  0  0999 V2000
  -16.4784    1.6085  -14.9877 C   0  0  0  0  0  0  0  0  0  0  0  0
  -17.7217    2.2641  -15.3357 C   0  0  0  0  0  0  0  0  0  0  0  0
  -17.4282    3.2258  -16.2733 C   0  0  0  0  0  0  0  0  0  0  0  0
  -16.0976    3.1688  -16.5528 N   0  0  0  0  0  0  0  0  0  0  0  0
  -15.4824    3.9766  -17.4274 N   0  0  0  0  0  0  0  0  0  0  0  0
  -14.2180    3.7360  -17.5620 C   0  0  0  0  0  0  0  0  0  0  0  0
  -13.5085    2.7644  -16.9259 N   0  0  0  0  0  0  0  0  0  0  0  0
  -14.0743    1.9620  -16.0732 C   0  0  0  0  0  0  0  0  0  0  0  0
  -15.4952    2.1755  -15.8213 C   0  0  0  0  0  0  0  0  0  0  0  0
  -19.1214    2.0263  -14.8361 C   0  0  0  0  0  0  0  0  0  0  0  0
  -19.9487    2.9783  -14.4394 N   0  0  0  0  0  0  0  0  0  0  0  0
  -21.1337    2.3574  -14.0640 N   0  0  0  0  0  0  0  0  0  0  0  0
  -20.9669    1.0771  -14.2957 C   0  0  0  0  0  0  0  0  0  0  0  0
  -19.7189    0.7927  -14.7569 O   0  0  0  0  0  0  0  0  0  0  0  0
  -21.7890    0.0173  -14.1957 N   0  0  0  0  0  0  0  0  0  0  0  0
  -21.4700   -0.7447  -13.6106 H   0  0  0  0  0  0  0  0  0  0  0  0
  -23.2286    0.1681  -14.3259 C   0  0  0  0  0  0  0  0  0  0  0  0
  -24.0000   -0.7684  -13.3429 C   0  0  0  0  0  0  0  0  0  0  0  0
  -23.0231   -1.8122  -12.7647 C   0  0  0  0  0  0  0  0  0  0  0  0
  -24.6270    0.0448  -12.1896 C   0  0  0  0  0  0  0  0  0  0  0  0
  -25.1313   -1.4765  -14.1456 C   0  0  0  0  0  0  0  0  0  0  0  0
  -25.2065   -1.0775  -15.5514 N   0  0  0  0  0  0  0  0  0  0  0  0
  -25.4304   -0.0853  -15.6216 H   0  0  0  0  0  0  0  0  0  0  0  0
  -25.9763   -1.5675  -16.0064 H   0  0  0  0  0  0  0  0  0  0  0  0
  -16.9377    0.9566  -12.5828 C   0  0  0  0  0  0  0  0  0  0  0  0
  -16.3020    0.5535  -13.9171 C   0  0  0  0  0  0  0  0  0  0  0  0
  -16.7014   -0.8443  -14.3921 C   0  0  0  0  0  0  0  0  0  0  0  0
  -13.3394    0.9549  -15.4778 N   0  0  0  0  0  0  0  0  0  0  0  0
  -13.0440    1.1071  -14.5269 H   0  0  0  0  0  0  0  0  0  0  0  0
  -13.3023   -0.4295  -15.7800 C   0  0  0  0  0  0  0  0  0  0  0  0
  -13.5720   -1.4591  -14.8749 C   0  0  0  0  0  0  0  0  0  0  0  0
  -13.4631   -2.8174  -15.2449 C   0  0  0  0  0  0  0  0  0  0  0  0
  -13.0841   -3.1325  -16.5504 C   0  0  0  0  0  0  0  0  0  0  0  0
  -12.9544   -4.4082  -16.9472 F   0  0  0  0  0  0  0  0  0  0  0  0
  -12.8321   -2.1312  -17.4828 C   0  0  0  0  0  0  0  0  0  0  0  0
  -12.9502   -0.8031  -17.0905 C   0  0  0  0  0  0  0  0  0  0  0  0
  -12.6934    0.1600  -17.9907 F   0  0  0  0  0  0  0  0  0  0  0  0
  -13.7648   -3.8474  -14.2100 C   0  0  0  0  0  0  0  0  0  0  0  0
  -12.8615   -4.5735  -13.8028 O   0  0  0  0  0  0  0  0  0  0  0  0
  -15.0607   -3.9371  -13.7385 N   0  0  0  0  0  0  0  0  0  0  0  0
  -15.7730   -3.3019  -14.0848 H   0  0  0  0  0  0  0  0  0  0  0  0
  -15.4126   -4.8682  -12.7123 C   0  0  0  0  0  0  0  0  0  0  0  0
  -16.7606   -5.5344  -12.7212 C   0  0  0  0  0  0  0  0  0  0  0  0
  -16.4260   -4.5336  -11.6547 C   0  0  0  0  0  0  0  0  0  0  0  0
 25 26  1  0  0  0
 26 27  1  0  0  0
 26  1  1  0  0  0
  1  2  1  0  0  0
  1  9  2  0  0  0
  2 10  1  0  0  0
  2  3  2  0  0  0
 10 11  2  0  0  0
 10 14  1  0  0  0
 11 12  1  0  0  0
 12 13  2  0  0  0
 13 15  1  0  0  0
 13 14  1  0  0  0
 15 17  1  0  0  0
 15 16  1  0  0  0
 17 18  1  0  0  0
 18 19  1  0  0  0
 18 20  1  0  0  0
 18 21  1  0  0  0
 21 22  1  0  0  0
 22 23  1  0  0  0
 22 24  1  0  0  0
  3  4  1  0  0  0
  4  5  1  0  0  0
  4  9  1  0  0  0
  5  6  2  0  0  0
  6  7  1  0  0  0
  7  8  2  0  0  0
  8 28  1  0  0  0
  8  9  1  0  0  0
 28 30  1  0  0  0
 28 29  1  0  0  0
 30 31  1  0  0  0
 30 36  2  0  0  0
 31 32  2  0  0  0
 32 38  1  0  0  0
 32 33  1  0  0  0
 38 39  2  0  0  0
 38 40  1  0  0  0
 40 42  1  0  0  0
 40 41  1  0  0  0
 42 43  1  0  0  0
 42 44  1  0  0  0
 43 44  1  0  0  0
 33 34  1  0  0  0
 33 35  2  0  0  0
 35 36  1  0  0  0
 36 37  1  0  0  0
M  END
> <minimizedAffinity>
-7.97068

$$$$
