CHEMBL398459


 27 30  0  0  0  0  0  0  0  0999 V2000
  -15.2264   -2.1726  -12.3070 C   0  0  0  0  0  0  0  0  0  0  0  0
  -15.9806   -0.9776  -12.2874 C   0  0  0  0  0  0  0  0  0  0  0  0
  -15.5428    0.1607  -12.9506 C   0  0  0  0  0  0  0  0  0  0  0  0
  -14.3431    0.1444  -13.6553 C   0  0  0  0  0  0  0  0  0  0  0  0
  -13.5856   -1.0403  -13.6694 C   0  0  0  0  0  0  0  0  0  0  0  0
  -13.9845   -2.2099  -12.9964 C   0  0  0  0  0  0  0  0  0  0  0  0
  -12.9364   -3.1672  -13.2191 C   0  0  0  0  0  0  0  0  0  0  0  0
  -11.9827   -2.5869  -14.0252 C   0  0  0  0  0  0  0  0  0  0  0  0
  -12.3808   -1.3068  -14.2873 N   0  0  0  0  0  0  0  0  0  0  0  0
  -11.6280   -0.3532  -15.0722 C   0  0  0  0  0  0  0  0  0  0  0  0
  -12.7450   -4.4575  -12.6469 C   0  0  0  0  0  0  0  0  0  0  0  0
  -12.3219   -4.7609  -11.4134 C   0  0  0  0  0  0  0  0  0  0  0  0
  -11.8592   -3.8494  -10.3475 C   0  0  0  0  0  0  0  0  0  0  0  0
  -11.9440   -2.6412  -10.2766 O   0  0  0  0  0  0  0  0  0  0  0  0
  -11.3084   -4.7205   -9.4182 N   0  0  0  0  0  0  0  0  0  0  0  0
  -11.4710   -6.0588   -9.7010 N   0  0  0  0  0  0  0  0  0  0  0  0
  -12.0950   -6.1192  -10.8536 C   0  0  0  0  0  0  0  0  0  0  0  0
  -10.9052   -4.4253   -8.5373 H   0  0  0  0  0  0  0  0  0  0  0  0
  -12.5626   -7.3515  -11.4092 C   0  0  0  0  0  0  0  0  0  0  0  0
  -13.8301   -7.7872  -11.7517 C   0  0  0  0  0  0  0  0  0  0  0  0
  -13.9110   -9.0884  -12.2208 N   0  0  0  0  0  0  0  0  0  0  0  0
  -12.7242   -9.6704  -12.2384 N   0  0  0  0  0  0  0  0  0  0  0  0
  -11.5011   -8.6704  -11.6840 S   0  0  0  0  0  0  0  0  0  0  0  0
  -15.7591   -3.3661  -11.6068 C   0  0  0  0  0  0  0  0  0  0  0  0
  -15.6286   -3.6148  -10.4195 O   0  0  0  0  0  0  0  0  0  0  0  0
  -16.7950   -5.4305  -12.0224 C   0  0  0  0  0  0  0  0  0  0  0  0
  -16.4023   -4.1483  -12.5124 O   0  0  0  0  0  0  0  0  0  0  0  0
 26 27  1  0  0  0
 27 24  1  0  0  0
 24 25  2  0  0  0
 24  1  1  0  0  0
  1  2  1  0  0  0
  1  6  2  0  0  0
  2  3  2  0  0  0
  3  4  1  0  0  0
  4  5  2  0  0  0
  5  6  1  0  0  0
  5  9  1  0  0  0
  6  7  1  0  0  0
  7 11  1  0  0  0
  7  8  2  0  0  0
 11 12  2  0  0  0
 12 13  1  0  0  0
 12 17  1  0  0  0
 13 14  2  0  0  0
 13 15  1  0  0  0
 15 16  1  0  0  0
 15 18  1  0  0  0
 16 17  2  0  0  0
 17 19  1  0  0  0
 19 20  2  0  0  0
 19 23  1  0  0  0
 20 21  1  0  0  0
 21 22  2  0  0  0
 22 23  1  0  0  0
  8  9  1  0  0  0
  9 10  1  0  0  0
M  END
> <minimizedAffinity>
-6.91287

$$$$
