CHEMBL3633292


 32 35  0  0  0  0  0  0  0  0999 V2000
  -17.8619    2.0012  -15.3930 C   0  0  0  0  0  0  0  0  0  0  0  0
  -18.3801    3.3086  -15.4715 C   0  0  0  0  0  0  0  0  0  0  0  0
  -19.7292    3.5690  -15.2792 C   0  0  0  0  0  0  0  0  0  0  0  0
  -20.5909    2.5227  -14.9783 C   0  0  0  0  0  0  0  0  0  0  0  0
  -20.1396    1.2018  -14.9444 C   0  0  0  0  0  0  0  0  0  0  0  0
  -18.7784    0.9538  -15.1631 C   0  0  0  0  0  0  0  0  0  0  0  0
  -16.7681    0.5207  -12.5351 N   0  0  0  0  0  0  0  0  0  0  0  0
  -15.6524    0.6806  -13.2671 C   0  0  0  0  0  0  0  0  0  0  0  0
  -14.4758    0.3079  -12.7729 N   0  0  0  0  0  0  0  0  0  0  0  0
  -13.6090    0.6357  -13.7338 N   0  0  0  0  0  0  0  0  0  0  0  0
  -14.1801    1.1929  -14.8444 C   0  0  0  0  0  0  0  0  0  0  0  0
  -13.5827    1.6540  -16.0211 C   0  0  0  0  0  0  0  0  0  0  0  0
  -14.4208    2.1695  -17.0000 C   0  0  0  0  0  0  0  0  0  0  0  0
  -15.7952    2.2267  -16.7902 C   0  0  0  0  0  0  0  0  0  0  0  0
  -16.4098    1.7926  -15.5840 C   0  0  0  0  0  0  0  0  0  0  0  0
  -15.5548    1.2402  -14.5849 C   0  0  0  0  0  0  0  0  0  0  0  0
  -16.5928    0.2724  -11.5667 H   0  0  0  0  0  0  0  0  0  0  0  0
  -17.5043    1.2112  -12.6264 H   0  0  0  0  0  0  0  0  0  0  0  0
  -12.6249    0.4572  -13.5736 H   0  0  0  0  0  0  0  0  0  0  0  0
  -21.0147    0.1062  -14.7040 N   0  0  0  0  0  0  0  0  0  0  0  0
  -22.2037    0.2207  -14.0053 C   0  0  0  0  0  0  0  0  0  0  0  0
  -22.6162    1.2684  -13.5201 O   0  0  0  0  0  0  0  0  0  0  0  0
  -22.9058   -0.9714  -13.9112 N   0  0  0  0  0  0  0  0  0  0  0  0
  -20.8921   -0.7161  -15.2777 H   0  0  0  0  0  0  0  0  0  0  0  0
  -22.3588   -1.8198  -13.9107 H   0  0  0  0  0  0  0  0  0  0  0  0
  -24.2165   -1.0387  -13.3660 C   0  0  0  0  0  0  0  0  0  0  0  0
  -24.5003   -0.6317  -12.0528 C   0  0  0  0  0  0  0  0  0  0  0  0
  -25.7663   -0.8083  -11.4972 C   0  0  0  0  0  0  0  0  0  0  0  0
  -26.7729   -1.3524  -12.2737 C   0  0  0  0  0  0  0  0  0  0  0  0
  -27.9851   -1.5460  -11.7393 F   0  0  0  0  0  0  0  0  0  0  0  0
  -26.5361   -1.7003  -13.6016 C   0  0  0  0  0  0  0  0  0  0  0  0
  -25.2608   -1.5354  -14.1554 C   0  0  0  0  0  0  0  0  0  0  0  0
  7  8  1  0  0  0
  7 17  1  0  0  0
  7 18  1  0  0  0
  8  9  2  0  0  0
  8 16  1  0  0  0
  9 10  1  0  0  0
 10 11  1  0  0  0
 10 19  1  0  0  0
 11 12  1  0  0  0
 11 16  2  0  0  0
 12 13  2  0  0  0
 13 14  1  0  0  0
 14 15  2  0  0  0
 15  1  1  0  0  0
 15 16  1  0  0  0
  1  2  1  0  0  0
  1  6  2  0  0  0
  2  3  2  0  0  0
  3  4  1  0  0  0
  4  5  2  0  0  0
  5 20  1  0  0  0
  5  6  1  0  0  0
 20 21  1  0  0  0
 20 24  1  0  0  0
 21 22  2  0  0  0
 21 23  1  0  0  0
 23 26  1  0  0  0
 23 25  1  0  0  0
 26 27  1  0  0  0
 26 32  2  0  0  0
 27 28  2  0  0  0
 28 29  1  0  0  0
 29 30  1  0  0  0
 29 31  2  0  0  0
 31 32  1  0  0  0
M  END
> <minimizedAffinity>
-10.50203

$$$$
