CHEMBL3694645


 39 43  0  0  0  0  0  0  0  0999 V2000
  -27.3264   -1.8633  -10.2091 C   0  0  0  0  0  0  0  0  0  0  0  0
  -27.4638   -3.1930   -9.7698 C   0  0  0  0  0  0  0  0  0  0  0  0
  -27.7821   -3.5241   -8.4517 C   0  0  0  0  0  0  0  0  0  0  0  0
  -28.0561   -2.4850   -7.5581 C   0  0  0  0  0  0  0  0  0  0  0  0
  -27.9182   -1.1502   -7.9680 C   0  0  0  0  0  0  0  0  0  0  0  0
  -27.5718   -0.8422   -9.2935 C   0  0  0  0  0  0  0  0  0  0  0  0
  -23.5584    0.0657  -13.2646 C   0  0  0  0  0  0  0  0  0  0  0  0
  -23.7430    0.1515  -11.8141 C   0  0  0  0  0  0  0  0  0  0  0  0
  -24.9076   -0.1957  -11.2610 C   0  0  0  0  0  0  0  0  0  0  0  0
  -25.8442   -0.8804  -12.0244 N   0  0  0  0  0  0  0  0  0  0  0  0
  -26.9642   -1.5908  -11.6129 C   0  0  0  0  0  0  0  0  0  0  0  0
  -27.4860   -2.0883  -12.7943 C   0  0  0  0  0  0  0  0  0  0  0  0
  -26.7037   -1.7671  -13.8840 N   0  0  0  0  0  0  0  0  0  0  0  0
  -25.6850   -1.0916  -13.3940 C   0  0  0  0  0  0  0  0  0  0  0  0
  -24.5062   -0.5530  -14.0209 C   0  0  0  0  0  0  0  0  0  0  0  0
  -17.7675    3.4525  -15.7814 C   0  0  0  0  0  0  0  0  0  0  0  0
  -19.0142    2.7855  -15.3421 C   0  0  0  0  0  0  0  0  0  0  0  0
  -20.1809    3.3203  -14.7995 C   0  0  0  0  0  0  0  0  0  0  0  0
  -20.9758    2.2386  -14.5514 N   0  0  0  0  0  0  0  0  0  0  0  0
  -22.1974    2.0877  -13.9590 N   0  0  0  0  0  0  0  0  0  0  0  0
  -22.4174    0.7999  -13.9235 C   0  0  0  0  0  0  0  0  0  0  0  0
  -21.1581   -0.2565  -14.6699 S   0  0  0  0  0  0  0  0  0  0  0  0
  -20.2767    1.1559  -14.9652 C   0  0  0  0  0  0  0  0  0  0  0  0
  -19.0963    1.4108  -15.4427 N   0  0  0  0  0  0  0  0  0  0  0  0
  -27.8335   -4.8666   -7.9895 N   0  0  0  0  0  0  0  0  0  0  0  0
  -28.9282   -5.4879   -7.4401 C   0  0  0  0  0  0  0  0  0  0  0  0
  -30.0461   -5.0164   -7.2721 O   0  0  0  0  0  0  0  0  0  0  0  0
  -28.6417   -6.7643   -7.0037 N   0  0  0  0  0  0  0  0  0  0  0  0
  -27.0117   -5.4277   -8.1471 H   0  0  0  0  0  0  0  0  0  0  0  0
  -27.9336   -7.2753   -7.5292 H   0  0  0  0  0  0  0  0  0  0  0  0
  -29.7287   -7.5616   -6.4013 C   0  0  0  0  0  0  0  0  0  0  0  0
  -30.5869   -8.3985   -7.3622 C   0  0  0  0  0  0  0  0  0  0  0  0
  -31.7856   -7.8214   -7.6121 F   0  0  0  0  0  0  0  0  0  0  0  0
  -29.9555   -8.5178   -8.5568 F   0  0  0  0  0  0  0  0  0  0  0  0
  -30.8074   -9.6461   -6.8998 F   0  0  0  0  0  0  0  0  0  0  0  0
  -28.0910   -0.0577   -7.1610 O   0  0  0  0  0  0  0  0  0  0  0  0
  -28.8257   -0.2114   -5.9382 C   0  0  0  0  0  0  0  0  0  0  0  0
  -27.9420   -0.0214   -4.7037 C   0  0  0  0  0  0  0  0  0  0  0  0
  -29.8973    0.8812   -5.9455 C   0  0  0  0  0  0  0  0  0  0  0  0
 16 17  1  0  0  0
 17 18  2  0  0  0
 17 24  1  0  0  0
 18 19  1  0  0  0
 19 20  1  0  0  0
 19 23  1  0  0  0
 20 21  2  0  0  0
 21  7  1  0  0  0
 21 22  1  0  0  0
  7  8  1  0  0  0
  7 15  2  0  0  0
  8  9  2  0  0  0
  9 10  1  0  0  0
 10 11  1  0  0  0
 10 14  1  0  0  0
 11  1  1  0  0  0
 11 12  2  0  0  0
  1  2  1  0  0  0
  1  6  2  0  0  0
  2  3  2  0  0  0
  3 25  1  0  0  0
  3  4  1  0  0  0
 25 26  1  0  0  0
 25 29  1  0  0  0
 26 27  2  0  0  0
 26 28  1  0  0  0
 28 31  1  0  0  0
 28 30  1  0  0  0
 31 32  1  0  0  0
 32 33  1  0  0  0
 32 34  1  0  0  0
 32 35  1  0  0  0
  4  5  2  0  0  0
  5 36  1  0  0  0
  5  6  1  0  0  0
 36 37  1  0  0  0
 37 38  1  0  0  0
 37 39  1  0  0  0
 12 13  1  0  0  0
 13 14  2  0  0  0
 14 15  1  0  0  0
 22 23  1  0  0  0
 23 24  2  0  0  0
M  END
> <minimizedAffinity>
-9.26115

$$$$
