CHEMBL1076197


 47 52  0  0  0  0  0  0  0  0999 V2000
  -27.3050   -2.2929   -9.0465 C   0  0  0  0  0  0  0  0  0  0  0  0
  -27.0968   -1.0364   -8.7057 N   0  0  0  0  0  0  0  0  0  0  0  0
  -27.8582   -0.8098   -7.5937 C   0  0  0  0  0  0  0  0  0  0  0  0
  -28.0648    0.3871   -6.8960 C   0  0  0  0  0  0  0  0  0  0  0  0
  -28.8833    0.3853   -5.7632 C   0  0  0  0  0  0  0  0  0  0  0  0
  -29.4732   -0.7975   -5.3160 C   0  0  0  0  0  0  0  0  0  0  0  0
  -29.2736   -2.0062   -6.0040 C   0  0  0  0  0  0  0  0  0  0  0  0
  -28.4851   -1.9740   -7.1635 C   0  0  0  0  0  0  0  0  0  0  0  0
  -28.0720   -2.9489   -8.0684 N   0  0  0  0  0  0  0  0  0  0  0  0
  -28.4003   -4.3367   -7.9798 C   0  0  0  0  0  0  0  0  0  0  0  0
  -29.5263   -4.7366   -7.2850 C   0  0  0  0  0  0  0  0  0  0  0  0
  -29.7261   -6.0971   -7.1488 C   0  0  0  0  0  0  0  0  0  0  0  0
  -28.9084   -6.9894   -7.7236 N   0  0  0  0  0  0  0  0  0  0  0  0
  -27.8767   -6.5098   -8.4255 C   0  0  0  0  0  0  0  0  0  0  0  0
  -27.5768   -5.2187   -8.5875 N   0  0  0  0  0  0  0  0  0  0  0  0
  -30.8525   -6.5410   -6.4337 N   0  0  0  0  0  0  0  0  0  0  0  0
  -30.9179   -6.1447   -5.5025 H   0  0  0  0  0  0  0  0  0  0  0  0
  -31.0799   -7.9919   -6.4366 C   0  0  0  0  0  0  0  0  0  0  0  0
  -32.1318   -8.4008   -7.4801 C   0  0  0  0  0  0  0  0  0  0  0  0
  -31.7981   -9.7269   -8.1776 C   0  0  0  0  0  0  0  0  0  0  0  0
  -30.3661  -10.0370   -8.2092 N   0  0  0  0  0  0  0  0  0  0  0  0
  -30.0541  -11.4179   -7.7942 C   0  0  0  0  0  0  0  0  0  0  0  0
  -28.5290  -11.6630   -7.7795 C   0  0  0  0  0  0  0  0  0  0  0  0
  -27.8551  -11.4108   -9.0676 N   0  0  0  0  0  0  0  0  0  0  0  0
  -28.1485  -12.4632  -10.0363 C   0  0  0  0  0  0  0  0  0  0  0  0
  -28.2551  -10.0778   -9.5663 C   0  0  0  0  0  0  0  0  0  0  0  0
  -29.7783   -9.7856   -9.5396 C   0  0  0  0  0  0  0  0  0  0  0  0
  -26.9477   -2.8510  -10.2391 N   0  0  0  0  0  0  0  0  0  0  0  0
  -26.6448   -3.8179  -10.2889 H   0  0  0  0  0  0  0  0  0  0  0  0
  -24.7638   -0.9366  -12.5909 C   0  0  0  0  0  0  0  0  0  0  0  0
  -25.5083   -1.0438  -13.7682 C   0  0  0  0  0  0  0  0  0  0  0  0
  -26.7989   -1.5632  -13.7352 C   0  0  0  0  0  0  0  0  0  0  0  0
  -27.3478   -2.0361  -12.5322 C   0  0  0  0  0  0  0  0  0  0  0  0
  -28.8254   -2.3296  -12.5103 C   0  0  0  0  0  0  0  0  0  0  0  0
  -26.5240   -2.1272  -11.3847 C   0  0  0  0  0  0  0  0  0  0  0  0
  -25.2566   -1.5113  -11.4136 C   0  0  0  0  0  0  0  0  0  0  0  0
  -23.2513    0.6120  -13.7338 N   0  0  0  0  0  0  0  0  0  0  0  0
  -23.4502   -0.2363  -12.6548 C   0  0  0  0  0  0  0  0  0  0  0  0
  -22.6361   -0.4977  -11.7704 O   0  0  0  0  0  0  0  0  0  0  0  0
  -24.0138    0.7153  -14.3967 H   0  0  0  0  0  0  0  0  0  0  0  0
  -18.5242    0.5054  -15.2212 C   0  0  0  0  0  0  0  0  0  0  0  0
  -19.7382    1.2791  -14.7938 C   0  0  0  0  0  0  0  0  0  0  0  0
  -19.6892    2.6742  -14.7307 C   0  0  0  0  0  0  0  0  0  0  0  0
  -20.7987    3.3924  -14.3022 C   0  0  0  0  0  0  0  0  0  0  0  0
  -21.9784    2.7282  -13.9516 C   0  0  0  0  0  0  0  0  0  0  0  0
  -22.0703    1.3366  -14.0392 C   0  0  0  0  0  0  0  0  0  0  0  0
  -20.9353    0.6187  -14.4506 C   0  0  0  0  0  0  0  0  0  0  0  0
 41 42  1  0  0  0
 42 43  1  0  0  0
 42 47  2  0  0  0
 43 44  2  0  0  0
 44 45  1  0  0  0
 45 46  2  0  0  0
 46 37  1  0  0  0
 46 47  1  0  0  0
 37 38  1  0  0  0
 37 40  1  0  0  0
 38 39  2  0  0  0
 38 30  1  0  0  0
 30 31  1  0  0  0
 30 36  2  0  0  0
 31 32  2  0  0  0
 32 33  1  0  0  0
 33 34  1  0  0  0
 33 35  2  0  0  0
 35 28  1  0  0  0
 35 36  1  0  0  0
 28  1  1  0  0  0
 28 29  1  0  0  0
  1  2  2  0  0  0
  1  9  1  0  0  0
  2  3  1  0  0  0
  3  4  1  0  0  0
  3  8  2  0  0  0
  4  5  2  0  0  0
  5  6  1  0  0  0
  6  7  2  0  0  0
  7  8  1  0  0  0
  8  9  1  0  0  0
  9 10  1  0  0  0
 10 11  1  0  0  0
 10 15  2  0  0  0
 11 12  2  0  0  0
 12 16  1  0  0  0
 12 13  1  0  0  0
 16 18  1  0  0  0
 16 17  1  0  0  0
 18 19  1  0  0  0
 19 20  1  0  0  0
 20 21  1  0  0  0
 21 22  1  0  0  0
 21 27  1  0  0  0
 22 23  1  0  0  0
 23 24  1  0  0  0
 24 25  1  0  0  0
 24 26  1  0  0  0
 26 27  1  0  0  0
 13 14  2  0  0  0
 14 15  1  0  0  0
M  END
> <minimizedAffinity>
-10.78589

$$$$
