CHEMBL260093


 33 36  0  0  0  0  0  0  0  0999 V2000
  -22.8249   -0.0259  -13.3584 C   0  0  0  0  0  0  0  0  0  0  0  0
  -22.5679   -0.4800  -12.0693 C   0  0  0  0  0  0  0  0  0  0  0  0
  -23.5043   -1.2706  -11.4064 C   0  0  0  0  0  0  0  0  0  0  0  0
  -24.7161   -1.6281  -12.0044 C   0  0  0  0  0  0  0  0  0  0  0  0
  -24.9562   -1.2035  -13.3165 C   0  0  0  0  0  0  0  0  0  0  0  0
  -24.0118   -0.4099  -13.9929 C   0  0  0  0  0  0  0  0  0  0  0  0
  -18.4291   -0.5435  -15.3265 N   0  0  0  0  0  0  0  0  0  0  0  0
  -18.5177    0.8504  -15.2087 C   0  0  0  0  0  0  0  0  0  0  0  0
  -17.5450    1.5587  -15.8080 N   0  0  0  0  0  0  0  0  0  0  0  0
  -17.6727    2.8890  -15.7408 C   0  0  0  0  0  0  0  0  0  0  0  0
  -18.6707    3.5666  -15.1537 N   0  0  0  0  0  0  0  0  0  0  0  0
  -19.6398    2.8300  -14.5774 C   0  0  0  0  0  0  0  0  0  0  0  0
  -19.6202    1.4279  -14.5682 C   0  0  0  0  0  0  0  0  0  0  0  0
  -20.5645    0.5879  -13.9155 N   0  0  0  0  0  0  0  0  0  0  0  0
  -21.8304    0.8435  -14.0500 C   0  0  0  0  0  0  0  0  0  0  0  0
  -22.3470    1.9900  -14.9024 C   0  0  0  0  0  0  0  0  0  0  0  0
  -22.0381    3.3179  -14.2304 C   0  0  0  0  0  0  0  0  0  0  0  0
  -20.6302    3.5936  -13.9654 N   0  0  0  0  0  0  0  0  0  0  0  0
  -17.5059   -0.7854  -15.6649 H   0  0  0  0  0  0  0  0  0  0  0  0
  -18.6919   -0.9713  -14.4434 H   0  0  0  0  0  0  0  0  0  0  0  0
  -20.3801    4.5659  -14.1413 H   0  0  0  0  0  0  0  0  0  0  0  0
  -25.6925   -2.4169  -11.3440 N   0  0  0  0  0  0  0  0  0  0  0  0
  -26.4232   -2.0128  -10.2381 C   0  0  0  0  0  0  0  0  0  0  0  0
  -26.3880   -0.8880   -9.7495 O   0  0  0  0  0  0  0  0  0  0  0  0
  -27.1784   -3.0436   -9.6966 N   0  0  0  0  0  0  0  0  0  0  0  0
  -25.9823   -3.2722  -11.7909 H   0  0  0  0  0  0  0  0  0  0  0  0
  -26.7429   -3.9516   -9.7598 H   0  0  0  0  0  0  0  0  0  0  0  0
  -27.9434   -2.7965   -8.5295 C   0  0  0  0  0  0  0  0  0  0  0  0
  -27.7381   -1.6468   -7.7565 C   0  0  0  0  0  0  0  0  0  0  0  0
  -28.4061   -1.4813   -6.5435 C   0  0  0  0  0  0  0  0  0  0  0  0
  -29.2818   -2.4673   -6.0973 C   0  0  0  0  0  0  0  0  0  0  0  0
  -29.5140   -3.5996   -6.8799 C   0  0  0  0  0  0  0  0  0  0  0  0
  -28.8657   -3.7545   -8.1086 C   0  0  0  0  0  0  0  0  0  0  0  0
  7  8  1  0  0  0
  7 19  1  0  0  0
  7 20  1  0  0  0
  8  9  1  0  0  0
  8 13  2  0  0  0
  9 10  2  0  0  0
 10 11  1  0  0  0
 11 12  2  0  0  0
 12 13  1  0  0  0
 12 18  1  0  0  0
 13 14  1  0  0  0
 14 15  2  0  0  0
 15  1  1  0  0  0
 15 16  1  0  0  0
  1  2  1  0  0  0
  1  6  2  0  0  0
  2  3  2  0  0  0
  3  4  1  0  0  0
  4 22  1  0  0  0
  4  5  2  0  0  0
 22 23  1  0  0  0
 22 26  1  0  0  0
 23 24  2  0  0  0
 23 25  1  0  0  0
 25 28  1  0  0  0
 25 27  1  0  0  0
 28 29  1  0  0  0
 28 33  2  0  0  0
 29 30  2  0  0  0
 30 31  1  0  0  0
 31 32  2  0  0  0
 32 33  1  0  0  0
  5  6  1  0  0  0
 16 17  1  0  0  0
 17 18  1  0  0  0
 18 21  1  0  0  0
M  END
> <minimizedAffinity>
-9.60527

$$$$
