CHEMBL1242380


 28 30  0  0  0  0  0  0  0  0999 V2000
  -29.4362   -6.2603   -6.4750 C   0  0  0  0  0  0  0  0  0  0  0  0
  -29.7129   -6.8841   -7.6401 N   0  0  0  0  0  0  0  0  0  0  0  0
  -29.6813   -8.1959   -7.3363 N   0  0  0  0  0  0  0  0  0  0  0  0
  -29.3818   -8.4420   -6.0263 C   0  0  0  0  0  0  0  0  0  0  0  0
  -29.2551   -9.6501   -5.4509 N   0  0  0  0  0  0  0  0  0  0  0  0
  -29.0000   -9.5446   -4.1396 C   0  0  0  0  0  0  0  0  0  0  0  0
  -28.9030   -8.4194   -3.4083 N   0  0  0  0  0  0  0  0  0  0  0  0
  -29.0448   -7.2255   -4.0209 C   0  0  0  0  0  0  0  0  0  0  0  0
  -28.9426   -6.1227   -3.1965 N   0  0  0  0  0  0  0  0  0  0  0  0
  -29.2711   -7.2049   -5.4093 C   0  0  0  0  0  0  0  0  0  0  0  0
  -28.8751   -6.3402   -2.2132 H   0  0  0  0  0  0  0  0  0  0  0  0
  -29.3666   -5.2447   -3.4617 H   0  0  0  0  0  0  0  0  0  0  0  0
  -29.1521   -1.9923   -6.1058 C   0  0  0  0  0  0  0  0  0  0  0  0
  -30.1065   -2.7173   -5.3790 C   0  0  0  0  0  0  0  0  0  0  0  0
  -30.2120   -4.1046   -5.5237 C   0  0  0  0  0  0  0  0  0  0  0  0
  -29.3989   -4.7958   -6.4280 C   0  0  0  0  0  0  0  0  0  0  0  0
  -28.5380   -4.0543   -7.2367 C   0  0  0  0  0  0  0  0  0  0  0  0
  -28.3532   -2.6775   -7.0325 C   0  0  0  0  0  0  0  0  0  0  0  0
  -28.1300   -0.1569   -4.9919 C   0  0  0  0  0  0  0  0  0  0  0  0
  -29.0043   -0.6369   -6.0055 O   0  0  0  0  0  0  0  0  0  0  0  0
  -27.3646   -2.1341   -7.8142 O   0  0  0  0  0  0  0  0  0  0  0  0
  -27.6353   -2.0993   -9.2135 C   0  0  0  0  0  0  0  0  0  0  0  0
  -29.9053   -9.1858   -8.3711 C   0  0  0  0  0  0  0  0  0  0  0  0
  -28.9309   -9.1429   -9.5662 C   0  0  0  0  0  0  0  0  0  0  0  0
  -29.0481  -10.3820  -10.4594 C   0  0  0  0  0  0  0  0  0  0  0  0
  -27.4833   -8.8873   -9.1340 C   0  0  0  0  0  0  0  0  0  0  0  0
  -27.1136   -7.5400   -9.4001 O   0  0  0  0  0  0  0  0  0  0  0  0
  -26.9075   -7.4704  -10.3494 H   0  0  0  0  0  0  0  0  0  0  0  0
 19 20  1  0  0  0
 20 13  1  0  0  0
 13 14  1  0  0  0
 13 18  2  0  0  0
 14 15  2  0  0  0
 15 16  1  0  0  0
 16  1  1  0  0  0
 16 17  2  0  0  0
  1  2  2  0  0  0
  1 10  1  0  0  0
  2  3  1  0  0  0
  3 23  1  0  0  0
  3  4  1  0  0  0
 24 26  1  0  0  0
 24 25  1  0  0  0
 24 23  1  0  0  0
 26 27  1  0  0  0
 27 28  1  0  0  0
  4  5  1  0  0  0
  4 10  2  0  0  0
  5  6  2  0  0  0
  6  7  1  0  0  0
  7  8  2  0  0  0
  8  9  1  0  0  0
  8 10  1  0  0  0
  9 11  1  0  0  0
  9 12  1  0  0  0
 17 18  1  0  0  0
 18 21  1  0  0  0
 21 22  1  0  0  0
M  END
> <minimizedAffinity>
-7.84289

$$$$
