CHEMBL3945521


 35 38  0  0  0  0  0  0  0  0999 V2000
  -18.9427    2.1619  -15.0147 C   0  0  0  0  0  0  0  0  0  0  0  0
  -19.5934    0.9471  -15.1146 C   0  0  0  0  0  0  0  0  0  0  0  0
  -20.8544    0.9085  -14.4482 C   0  0  0  0  0  0  0  0  0  0  0  0
  -21.1906    2.1584  -13.9760 C   0  0  0  0  0  0  0  0  0  0  0  0
  -19.9651    3.3192  -14.2658 S   0  0  0  0  0  0  0  0  0  0  0  0
  -15.4927   -0.1531  -14.4622 N   0  0  0  0  0  0  0  0  0  0  0  0
  -16.2971    0.8819  -14.0710 C   0  0  0  0  0  0  0  0  0  0  0  0
  -16.9129    0.9433  -13.0202 O   0  0  0  0  0  0  0  0  0  0  0  0
  -16.4260    1.8757  -15.0647 N   0  0  0  0  0  0  0  0  0  0  0  0
  -17.6129    2.5007  -15.4733 C   0  0  0  0  0  0  0  0  0  0  0  0
  -17.2711    3.4464  -16.4269 C   0  0  0  0  0  0  0  0  0  0  0  0
  -15.8685    3.4441  -16.5965 C   0  0  0  0  0  0  0  0  0  0  0  0
  -14.9846    4.2134  -17.3786 C   0  0  0  0  0  0  0  0  0  0  0  0
  -13.6070    3.9983  -17.2814 C   0  0  0  0  0  0  0  0  0  0  0  0
  -13.1042    3.0239  -16.4226 C   0  0  0  0  0  0  0  0  0  0  0  0
  -13.9635    2.2443  -15.6465 C   0  0  0  0  0  0  0  0  0  0  0  0
  -15.3532    2.4560  -15.7549 C   0  0  0  0  0  0  0  0  0  0  0  0
  -15.5269   -0.9819  -13.8821 H   0  0  0  0  0  0  0  0  0  0  0  0
  -15.2181   -0.2723  -15.4297 H   0  0  0  0  0  0  0  0  0  0  0  0
  -21.6823   -0.1982  -14.2786 N   0  0  0  0  0  0  0  0  0  0  0  0
  -23.0190   -0.1245  -13.9197 C   0  0  0  0  0  0  0  0  0  0  0  0
  -23.6662    0.9033  -13.7576 O   0  0  0  0  0  0  0  0  0  0  0  0
  -23.5399   -1.3933  -13.6923 N   0  0  0  0  0  0  0  0  0  0  0  0
  -21.3421   -1.0824  -14.6269 H   0  0  0  0  0  0  0  0  0  0  0  0
  -22.8772   -2.0229  -13.2641 H   0  0  0  0  0  0  0  0  0  0  0  0
  -24.8906   -1.5722  -13.3266 C   0  0  0  0  0  0  0  0  0  0  0  0
  -25.8461   -1.6443  -14.3402 C   0  0  0  0  0  0  0  0  0  0  0  0
  -27.1888   -1.8402  -14.0212 C   0  0  0  0  0  0  0  0  0  0  0  0
  -27.5896   -1.8962  -12.6863 C   0  0  0  0  0  0  0  0  0  0  0  0
  -26.6473   -1.7771  -11.6531 C   0  0  0  0  0  0  0  0  0  0  0  0
  -25.2873   -1.6502  -11.9866 C   0  0  0  0  0  0  0  0  0  0  0  0
  -27.0819   -1.7499  -10.2083 C   0  0  0  0  0  0  0  0  0  0  0  0
  -28.2893   -1.1422  -10.0202 F   0  0  0  0  0  0  0  0  0  0  0  0
  -27.2024   -2.9889   -9.6601 F   0  0  0  0  0  0  0  0  0  0  0  0
  -26.2061   -1.0692   -9.4163 F   0  0  0  0  0  0  0  0  0  0  0  0
  6  7  1  0  0  0
  6 18  1  0  0  0
  6 19  1  0  0  0
  7  8  2  0  0  0
  7  9  1  0  0  0
  9 10  1  0  0  0
  9 17  1  0  0  0
 10  1  1  0  0  0
 10 11  2  0  0  0
  1  2  2  0  0  0
  1  5  1  0  0  0
  2  3  1  0  0  0
  3 20  1  0  0  0
  3  4  2  0  0  0
 20 21  1  0  0  0
 20 24  1  0  0  0
 21 22  2  0  0  0
 21 23  1  0  0  0
 23 26  1  0  0  0
 23 25  1  0  0  0
 26 27  1  0  0  0
 26 31  2  0  0  0
 27 28  2  0  0  0
 28 29  1  0  0  0
 29 30  2  0  0  0
 30 32  1  0  0  0
 30 31  1  0  0  0
 32 33  1  0  0  0
 32 34  1  0  0  0
 32 35  1  0  0  0
  4  5  1  0  0  0
 11 12  1  0  0  0
 12 13  1  0  0  0
 12 17  2  0  0  0
 13 14  2  0  0  0
 14 15  1  0  0  0
 15 16  2  0  0  0
 16 17  1  0  0  0
M  END
> <minimizedAffinity>
-10.32133

$$$$
