CHEMBL3671532


 37 39  0  0  0  0  0  0  0  0999 V2000
  -26.6778   -9.0427   -5.0189 C   0  0  0  0  0  0  0  0  0  0  0  0
  -27.4365   -8.0183   -4.4481 C   0  0  0  0  0  0  0  0  0  0  0  0
  -28.7384   -7.7458   -4.9252 C   0  0  0  0  0  0  0  0  0  0  0  0
  -29.5262   -6.6571   -4.5187 C   0  0  0  0  0  0  0  0  0  0  0  0
  -30.7527   -6.4429   -5.0320 N   0  0  0  0  0  0  0  0  0  0  0  0
  -31.1878   -7.3012   -5.9531 C   0  0  0  0  0  0  0  0  0  0  0  0
  -30.5032   -8.3375   -6.4449 N   0  0  0  0  0  0  0  0  0  0  0  0
  -29.2878   -8.5471   -5.9370 C   0  0  0  0  0  0  0  0  0  0  0  0
  -28.5287   -9.5871   -6.4569 C   0  0  0  0  0  0  0  0  0  0  0  0
  -27.2338   -9.8703   -6.0037 C   0  0  0  0  0  0  0  0  0  0  0  0
  -24.7732  -10.1507   -3.9502 C   0  0  0  0  0  0  0  0  0  0  0  0
  -23.5639  -10.3628   -3.9711 O   0  0  0  0  0  0  0  0  0  0  0  0
  -25.3137   -9.1238   -4.6864 N   0  0  0  0  0  0  0  0  0  0  0  0
  -24.6566   -8.8484   -5.4103 H   0  0  0  0  0  0  0  0  0  0  0  0
  -25.2246  -11.8324   -2.2462 C   0  0  0  0  0  0  0  0  0  0  0  0
  -25.7133  -10.9993   -3.1736 C   0  0  0  0  0  0  0  0  0  0  0  0
  -29.0121   -5.7141   -3.5896 N   0  0  0  0  0  0  0  0  0  0  0  0
  -29.4096   -5.8628   -2.6657 H   0  0  0  0  0  0  0  0  0  0  0  0
  -28.8410   -4.3364   -3.8719 C   0  0  0  0  0  0  0  0  0  0  0  0
  -27.6659   -3.8604   -4.4688 C   0  0  0  0  0  0  0  0  0  0  0  0
  -27.5319   -2.5152   -4.8146 C   0  0  0  0  0  0  0  0  0  0  0  0
  -28.5716   -1.6272   -4.5420 C   0  0  0  0  0  0  0  0  0  0  0  0
  -28.4171    0.1783   -5.0786 Br  0  0  0  0  0  0  0  0  0  0  0  0
  -29.7258   -2.0653   -3.8979 C   0  0  0  0  0  0  0  0  0  0  0  0
  -29.8439   -3.4109   -3.5591 C   0  0  0  0  0  0  0  0  0  0  0  0
  -30.9628   -3.8328   -2.9489 F   0  0  0  0  0  0  0  0  0  0  0  0
  -26.6221  -10.9208   -6.6323 O   0  0  0  0  0  0  0  0  0  0  0  0
  -26.2357  -10.6694   -7.9855 C   0  0  0  0  0  0  0  0  0  0  0  0
  -25.0828  -11.5868   -8.3922 C   0  0  0  0  0  0  0  0  0  0  0  0
  -24.0019  -11.5446   -7.4210 N   0  0  0  0  0  0  0  0  0  0  0  0
  -22.7515  -12.0509   -7.7220 C   0  0  0  0  0  0  0  0  0  0  0  0
  -22.4496  -12.4659   -8.8390 O   0  0  0  0  0  0  0  0  0  0  0  0
  -24.2239  -11.3196   -6.4588 H   0  0  0  0  0  0  0  0  0  0  0  0
  -21.7496  -12.0081   -6.5646 C   0  0  0  0  0  0  0  0  0  0  0  0
  -21.4108  -10.6234   -6.1996 N   0  0  0  0  0  0  0  0  0  0  0  0
  -20.8007   -9.8985   -7.3073 C   0  0  0  0  0  0  0  0  0  0  0  0
  -20.7465  -10.6583   -5.4218 H   0  0  0  0  0  0  0  0  0  0  0  0
 15 16  2  0  0  0
 16 11  1  0  0  0
 11 12  2  0  0  0
 11 13  1  0  0  0
 13  1  1  0  0  0
 13 14  1  0  0  0
  1  2  1  0  0  0
  1 10  2  0  0  0
  2  3  2  0  0  0
  3  4  1  0  0  0
  3  8  1  0  0  0
  4 17  1  0  0  0
  4  5  2  0  0  0
 17 19  1  0  0  0
 17 18  1  0  0  0
 19 20  1  0  0  0
 19 25  2  0  0  0
 20 21  2  0  0  0
 21 22  1  0  0  0
 22 23  1  0  0  0
 22 24  2  0  0  0
 24 25  1  0  0  0
 25 26  1  0  0  0
  5  6  1  0  0  0
  6  7  2  0  0  0
  7  8  1  0  0  0
  8  9  2  0  0  0
  9 10  1  0  0  0
 10 27  1  0  0  0
 27 28  1  0  0  0
 28 29  1  0  0  0
 29 30  1  0  0  0
 30 31  1  0  0  0
 30 33  1  0  0  0
 31 32  2  0  0  0
 31 34  1  0  0  0
 34 35  1  0  0  0
 35 36  1  0  0  0
 35 37  1  0  0  0
M  END
> <minimizedAffinity>
-7.78259

$$$$
