CHEMBL3934080


 36 39  0  0  0  0  0  0  0  0999 V2000
  -27.7902   -2.3145   -8.0912 N   0  0  0  0  0  0  0  0  0  0  0  0
  -27.2957   -1.7072   -9.3156 C   0  0  0  0  0  0  0  0  0  0  0  0
  -28.2332   -1.7192  -10.3670 C   0  0  0  0  0  0  0  0  0  0  0  0
  -27.8098   -1.7645  -11.6767 C   0  0  0  0  0  0  0  0  0  0  0  0
  -26.4980   -1.5730  -12.0193 C   0  0  0  0  0  0  0  0  0  0  0  0
  -26.2625   -1.8134  -13.3149 N   0  0  0  0  0  0  0  0  0  0  0  0
  -25.0879   -1.4072  -13.7875 C   0  0  0  0  0  0  0  0  0  0  0  0
  -24.1928   -0.7060  -12.9959 C   0  0  0  0  0  0  0  0  0  0  0  0
  -24.3757   -0.6019  -11.6287 N   0  0  0  0  0  0  0  0  0  0  0  0
  -25.5568   -1.1164  -11.0775 C   0  0  0  0  0  0  0  0  0  0  0  0
  -25.9814   -1.2872   -9.6775 C   0  0  0  0  0  0  0  0  0  0  0  0
  -23.2061    0.0715  -13.7469 C   0  0  0  0  0  0  0  0  0  0  0  0
  -21.9748   -0.3524  -14.3307 C   0  0  0  0  0  0  0  0  0  0  0  0
  -21.1744    0.6658  -14.6792 N   0  0  0  0  0  0  0  0  0  0  0  0
  -21.8738    1.7518  -14.3128 N   0  0  0  0  0  0  0  0  0  0  0  0
  -21.4585    3.0708  -14.7324 C   0  0  0  0  0  0  0  0  0  0  0  0
  -23.0105    1.4416  -13.6147 C   0  0  0  0  0  0  0  0  0  0  0  0
  -28.3170   -6.0322   -8.1442 C   0  0  0  0  0  0  0  0  0  0  0  0
  -29.3073   -6.1905   -7.1740 C   0  0  0  0  0  0  0  0  0  0  0  0
  -29.8614   -5.0699   -6.5624 C   0  0  0  0  0  0  0  0  0  0  0  0
  -29.4164   -3.7874   -6.9256 C   0  0  0  0  0  0  0  0  0  0  0  0
  -28.4147   -3.5778   -7.8911 C   0  0  0  0  0  0  0  0  0  0  0  0
  -27.8960   -4.7327   -8.5134 C   0  0  0  0  0  0  0  0  0  0  0  0
  -28.2860   -8.3637   -8.6994 C   0  0  0  0  0  0  0  0  0  0  0  0
  -27.6684   -7.0760   -8.7626 O   0  0  0  0  0  0  0  0  0  0  0  0
  -30.8143   -5.0926   -5.5762 O   0  0  0  0  0  0  0  0  0  0  0  0
  -30.7412   -4.0774   -4.5793 C   0  0  0  0  0  0  0  0  0  0  0  0
  -28.2721   -1.1927   -7.1819 C   0  0  0  0  0  0  0  0  0  0  0  0
  -27.4645   -0.8255   -5.9168 C   0  0  0  0  0  0  0  0  0  0  0  0
  -28.2120   -0.2863   -4.6805 C   0  0  0  0  0  0  0  0  0  0  0  0
  -29.6617   -0.3296   -4.9789 N   0  0  0  0  0  0  0  0  0  0  0  0
  -30.1456   -0.8294   -4.2279 H   0  0  0  0  0  0  0  0  0  0  0  0
  -30.2878    1.0018   -5.1170 C   0  0  0  0  0  0  0  0  0  0  0  0
  -30.4232    1.4720   -6.5807 C   0  0  0  0  0  0  0  0  0  0  0  0
  -31.3763    2.4382   -6.6696 F   0  0  0  0  0  0  0  0  0  0  0  0
  -29.2600    2.0466   -6.9863 F   0  0  0  0  0  0  0  0  0  0  0  0
 24 25  1  0  0  0
 25 18  1  0  0  0
 18 19  1  0  0  0
 18 23  2  0  0  0
 19 20  2  0  0  0
 20 26  1  0  0  0
 20 21  1  0  0  0
 26 27  1  0  0  0
 21 22  2  0  0  0
 22  1  1  0  0  0
 22 23  1  0  0  0
  1 28  1  0  0  0
  1  2  1  0  0  0
 28 29  1  0  0  0
 29 30  1  0  0  0
 30 31  1  0  0  0
 31 33  1  0  0  0
 31 32  1  0  0  0
 33 34  1  0  0  0
 34 35  1  0  0  0
 34 36  1  0  0  0
  2  3  1  0  0  0
  2 11  2  0  0  0
  3  4  2  0  0  0
  4  5  1  0  0  0
  5  6  1  0  0  0
  5 10  2  0  0  0
  6  7  2  0  0  0
  7  8  1  0  0  0
  8 12  1  0  0  0
  8  9  2  0  0  0
 12 13  1  0  0  0
 12 17  2  0  0  0
 13 14  2  0  0  0
 14 15  1  0  0  0
 15 16  1  0  0  0
 15 17  1  0  0  0
  9 10  1  0  0  0
 10 11  1  0  0  0
M  END
> <minimizedAffinity>
-7.56971

$$$$
