CHEMBL466154


 22 24  0  0  0  0  0  0  0  0999 V2000
  -30.0611   -6.8550   -6.1031 C   0  0  0  0  0  0  0  0  0  0  0  0
  -30.4823   -5.7915   -5.1240 C   0  0  0  0  0  0  0  0  0  0  0  0
  -31.3055   -6.1655   -4.0482 C   0  0  0  0  0  0  0  0  0  0  0  0
  -31.7185   -5.2156   -3.1206 C   0  0  0  0  0  0  0  0  0  0  0  0
  -32.5174   -5.5562   -2.0698 O   0  0  0  0  0  0  0  0  0  0  0  0
  -31.3288   -3.8882   -3.2386 C   0  0  0  0  0  0  0  0  0  0  0  0
  -30.5104   -3.4971   -4.3020 C   0  0  0  0  0  0  0  0  0  0  0  0
  -30.1771   -2.1649   -4.3346 O   0  0  0  0  0  0  0  0  0  0  0  0
  -29.3715   -1.7126   -5.3504 C   0  0  0  0  0  0  0  0  0  0  0  0
  -29.0696   -0.3457   -5.3219 C   0  0  0  0  0  0  0  0  0  0  0  0
  -28.2590    0.1979   -6.3131 C   0  0  0  0  0  0  0  0  0  0  0  0
  -27.9361    1.5218   -6.3296 O   0  0  0  0  0  0  0  0  0  0  0  0
  -27.7448   -0.5964   -7.3303 C   0  0  0  0  0  0  0  0  0  0  0  0
  -28.0472   -1.9572   -7.3575 C   0  0  0  0  0  0  0  0  0  0  0  0
  -27.5301   -2.7181   -8.3668 O   0  0  0  0  0  0  0  0  0  0  0  0
  -28.8639   -2.5234   -6.3659 C   0  0  0  0  0  0  0  0  0  0  0  0
  -29.2185   -3.9575   -6.3427 C   0  0  0  0  0  0  0  0  0  0  0  0
  -28.8155   -4.7273   -7.2021 O   0  0  0  0  0  0  0  0  0  0  0  0
  -30.0849   -4.4387   -5.2433 C   0  0  0  0  0  0  0  0  0  0  0  0
  -32.7056   -6.5087   -2.1138 H   0  0  0  0  0  0  0  0  0  0  0  0
  -28.3555    1.9604   -5.5714 H   0  0  0  0  0  0  0  0  0  0  0  0
  -26.9934   -2.1746   -8.9636 H   0  0  0  0  0  0  0  0  0  0  0  0
  1  2  1  0  0  0
  2  3  1  0  0  0
  2 19  2  0  0  0
  3  4  2  0  0  0
  4  5  1  0  0  0
  4  6  1  0  0  0
  5 20  1  0  0  0
  6  7  2  0  0  0
  7  8  1  0  0  0
  7 19  1  0  0  0
  8  9  1  0  0  0
  9 10  1  0  0  0
  9 16  2  0  0  0
 10 11  2  0  0  0
 11 12  1  0  0  0
 11 13  1  0  0  0
 12 21  1  0  0  0
 13 14  2  0  0  0
 14 15  1  0  0  0
 14 16  1  0  0  0
 15 22  1  0  0  0
 16 17  1  0  0  0
 17 18  2  0  0  0
 17 19  1  0  0  0
M  END
> <minimizedAffinity>
-9.06093

$$$$
