CHEMBL2003657


 33 37  0  0  0  0  0  0  0  0999 V2000
  -29.6404   -6.0161   -4.9032 N   0  0  0  0  0  0  0  0  0  0  0  0
  -30.2901   -6.0683   -3.6894 C   0  0  0  0  0  0  0  0  0  0  0  0
  -31.1034   -5.1098   -3.2078 N   0  0  0  0  0  0  0  0  0  0  0  0
  -30.0236   -7.1934   -3.0731 N   0  0  0  0  0  0  0  0  0  0  0  0
  -29.2417   -7.9149   -3.9366 C   0  0  0  0  0  0  0  0  0  0  0  0
  -28.7279   -9.2066   -3.7632 C   0  0  0  0  0  0  0  0  0  0  0  0
  -28.0390   -9.8097   -4.8210 C   0  0  0  0  0  0  0  0  0  0  0  0
  -27.8592   -9.1512   -6.0481 C   0  0  0  0  0  0  0  0  0  0  0  0
  -28.2833   -7.8113   -6.1916 C   0  0  0  0  0  0  0  0  0  0  0  0
  -28.9892   -7.2183   -5.1208 C   0  0  0  0  0  0  0  0  0  0  0  0
  -31.5405   -4.4567   -3.8683 H   0  0  0  0  0  0  0  0  0  0  0  0
  -31.7578   -5.4154   -2.4897 H   0  0  0  0  0  0  0  0  0  0  0  0
  -27.3624   -9.9186   -7.2007 C   0  0  0  0  0  0  0  0  0  0  0  0
  -26.1550  -10.5520   -7.5399 C   0  0  0  0  0  0  0  0  0  0  0  0
  -26.1808  -11.0572   -8.8386 N   0  0  0  0  0  0  0  0  0  0  0  0
  -27.3476  -10.7081   -9.2803 C   0  0  0  0  0  0  0  0  0  0  0  0
  -28.1421  -10.8359  -10.8169 S   0  0  0  0  0  0  0  0  0  0  0  0
  -29.5085   -9.9451  -10.1378 C   0  0  0  0  0  0  0  0  0  0  0  0
  -29.3282   -9.6113   -8.8478 C   0  0  0  0  0  0  0  0  0  0  0  0
  -28.1007  -10.0353   -8.3706 N   0  0  0  0  0  0  0  0  0  0  0  0
  -24.9274  -10.6897   -6.7682 C   0  0  0  0  0  0  0  0  0  0  0  0
  -24.6257   -9.9141   -5.6427 C   0  0  0  0  0  0  0  0  0  0  0  0
  -23.4277  -10.1233   -4.9434 C   0  0  0  0  0  0  0  0  0  0  0  0
  -22.5462  -11.1145   -5.3596 C   0  0  0  0  0  0  0  0  0  0  0  0
  -21.4082  -11.3063   -4.6751 F   0  0  0  0  0  0  0  0  0  0  0  0
  -22.8277  -11.9097   -6.4545 C   0  0  0  0  0  0  0  0  0  0  0  0
  -24.0180  -11.6965   -7.1564 C   0  0  0  0  0  0  0  0  0  0  0  0
  -29.5391   -4.6070   -5.8417 S   0  0  0  0  0  0  0  0  0  0  0  0
  -30.8701   -4.0172   -5.7761 O   0  0  0  0  0  0  0  0  0  0  0  0
  -29.0020   -5.0413   -7.1129 O   0  0  0  0  0  0  0  0  0  0  0  0
  -29.1106   -2.2438   -4.5625 C   0  0  0  0  0  0  0  0  0  0  0  0
  -28.3646   -3.4674   -5.1003 C   0  0  0  0  0  0  0  0  0  0  0  0
  -27.5306   -4.0847   -3.9856 C   0  0  0  0  0  0  0  0  0  0  0  0
 31 32  1  0  0  0
 32 33  1  0  0  0
 32 28  1  0  0  0
 28 29  2  0  0  0
 28 30  2  0  0  0
 28  1  1  0  0  0
  1  2  1  0  0  0
  1 10  1  0  0  0
  2  3  1  0  0  0
  2  4  2  0  0  0
  3 11  1  0  0  0
  3 12  1  0  0  0
  4  5  1  0  0  0
  5  6  1  0  0  0
  5 10  2  0  0  0
  6  7  2  0  0  0
  7  8  1  0  0  0
  8 13  1  0  0  0
  8  9  2  0  0  0
 13 14  2  0  0  0
 13 20  1  0  0  0
 14 21  1  0  0  0
 14 15  1  0  0  0
 21 22  1  0  0  0
 21 27  2  0  0  0
 22 23  2  0  0  0
 23 24  1  0  0  0
 24 25  1  0  0  0
 24 26  2  0  0  0
 26 27  1  0  0  0
 15 16  2  0  0  0
 16 17  1  0  0  0
 16 20  1  0  0  0
 17 18  1  0  0  0
 18 19  2  0  0  0
 19 20  1  0  0  0
  9 10  1  0  0  0
M  END
> <minimizedAffinity>
-8.17912

$$$$
