CHEMBL1082756


 37 43  0  0  0  0  0  0  0  0999 V2000
  -30.1693   -4.6716   -5.6287 N   0  0  0  0  0  0  0  0  0  0  0  0
  -29.5960   -3.6308   -6.3985 C   0  0  0  0  0  0  0  0  0  0  0  0
  -29.8573   -2.2501   -6.4912 C   0  0  0  0  0  0  0  0  0  0  0  0
  -29.1487   -1.4901   -7.4524 C   0  0  0  0  0  0  0  0  0  0  0  0
  -28.1704   -2.0495   -8.2919 C   0  0  0  0  0  0  0  0  0  0  0  0
  -27.9259   -3.4124   -8.1631 C   0  0  0  0  0  0  0  0  0  0  0  0
  -28.6431   -4.2035   -7.2508 C   0  0  0  0  0  0  0  0  0  0  0  0
  -28.7456   -5.5414   -6.9636 C   0  0  0  0  0  0  0  0  0  0  0  0
  -28.3242   -6.5254   -7.8651 C   0  0  0  0  0  0  0  0  0  0  0  0
  -28.9774   -7.7654   -7.7383 C   0  0  0  0  0  0  0  0  0  0  0  0
  -29.8282   -8.0981   -6.6682 C   0  0  0  0  0  0  0  0  0  0  0  0
  -29.6504   -7.2429   -5.5266 C   0  0  0  0  0  0  0  0  0  0  0  0
  -29.5160   -5.8827   -5.8918 C   0  0  0  0  0  0  0  0  0  0  0  0
  -28.6993   -7.9413   -4.4450 C   0  0  0  0  0  0  0  0  0  0  0  0
  -28.0287   -9.3024   -4.9148 C   0  0  0  0  0  0  0  0  0  0  0  0
  -29.1160  -10.1305   -5.4995 C   0  0  0  0  0  0  0  0  0  0  0  0
  -29.5556  -11.3157   -5.0796 N   0  0  0  0  0  0  0  0  0  0  0  0
  -30.7929  -11.3813   -5.6350 N   0  0  0  0  0  0  0  0  0  0  0  0
  -31.6794  -12.4623   -5.2797 C   0  0  0  0  0  0  0  0  0  0  0  0
  -31.1524  -10.2449   -6.3170 C   0  0  0  0  0  0  0  0  0  0  0  0
  -30.0094   -9.4948   -6.3742 C   0  0  0  0  0  0  0  0  0  0  0  0
  -28.4722   -8.6053   -8.7950 C   0  0  0  0  0  0  0  0  0  0  0  0
  -28.7179   -9.7487   -9.1461 O   0  0  0  0  0  0  0  0  0  0  0  0
  -27.5179   -7.8340   -9.4409 N   0  0  0  0  0  0  0  0  0  0  0  0
  -27.3961   -6.4717   -8.9850 C   0  0  0  0  0  0  0  0  0  0  0  0
  -26.9823   -8.2302  -10.1968 H   0  0  0  0  0  0  0  0  0  0  0  0
  -27.3231   -1.1933   -9.2305 C   0  0  0  0  0  0  0  0  0  0  0  0
  -28.0826   -0.5007  -10.3716 C   0  0  0  0  0  0  0  0  0  0  0  0
  -28.1326   -1.3177  -11.6557 C   0  0  0  0  0  0  0  0  0  0  0  0
  -26.7271   -1.7479  -12.0377 C   0  0  0  0  0  0  0  0  0  0  0  0
  -26.1301   -2.5470  -10.8974 C   0  0  0  0  0  0  0  0  0  0  0  0
  -26.1005   -1.8169   -9.6719 O   0  0  0  0  0  0  0  0  0  0  0  0
  -31.3390   -4.5131   -4.7682 C   0  0  0  0  0  0  0  0  0  0  0  0
  -31.0559   -4.2026   -3.2837 C   0  0  0  0  0  0  0  0  0  0  0  0
  -30.5154   -2.8930   -3.0795 O   0  0  0  0  0  0  0  0  0  0  0  0
  -28.3388   -1.9891   -3.6030 C   0  0  0  0  0  0  0  0  0  0  0  0
  -29.1250   -2.9558   -2.7378 C   0  0  0  0  0  0  0  0  0  0  0  0
 36 37  1  0  0  0
 37 35  1  0  0  0
 35 34  1  0  0  0
 34 33  1  0  0  0
 33  1  1  0  0  0
  1  2  1  0  0  0
  1 13  1  0  0  0
  2  3  1  0  0  0
  2  7  2  0  0  0
  3  4  2  0  0  0
  4  5  1  0  0  0
  5 27  1  0  0  0
  5  6  2  0  0  0
 27 28  1  0  0  0
 27 32  1  0  0  0
 28 29  1  0  0  0
 29 30  1  0  0  0
 30 31  1  0  0  0
 31 32  1  0  0  0
  6  7  1  0  0  0
  7  8  1  0  0  0
  8  9  1  0  0  0
  8 13  2  0  0  0
  9 10  2  0  0  0
  9 25  1  0  0  0
 10 11  1  0  0  0
 10 22  1  0  0  0
 11 12  2  0  0  0
 11 21  1  0  0  0
 12 13  1  0  0  0
 12 14  1  0  0  0
 14 15  1  0  0  0
 15 16  1  0  0  0
 16 17  2  0  0  0
 16 21  1  0  0  0
 17 18  1  0  0  0
 18 19  1  0  0  0
 18 20  1  0  0  0
 20 21  2  0  0  0
 22 23  2  0  0  0
 22 24  1  0  0  0
 24 25  1  0  0  0
 24 26  1  0  0  0
M  END
> <minimizedAffinity>
-6.39310

$$$$
