CHEMBL2023474


 32 35  0  0  0  0  0  0  0  0999 V2000
  -16.9335    2.0444  -15.0698 C   0  0  0  0  0  0  0  0  0  0  0  0
  -17.1849    1.4410  -13.8118 C   0  0  0  0  0  0  0  0  0  0  0  0
  -16.2497    0.5973  -13.1955 C   0  0  0  0  0  0  0  0  0  0  0  0
  -15.0232    0.3601  -13.8027 C   0  0  0  0  0  0  0  0  0  0  0  0
  -14.7550    0.9876  -15.0293 C   0  0  0  0  0  0  0  0  0  0  0  0
  -15.6824    1.8387  -15.6624 C   0  0  0  0  0  0  0  0  0  0  0  0
  -15.2774    2.2538  -16.9023 O   0  0  0  0  0  0  0  0  0  0  0  0
  -14.8083    3.5887  -17.0523 C   0  0  0  0  0  0  0  0  0  0  0  0
  -18.1077    2.7137  -15.7480 C   0  0  0  0  0  0  0  0  0  0  0  0
  -20.0236    1.4077  -14.8867 N   0  0  0  0  0  0  0  0  0  0  0  0
  -19.4693    2.6604  -15.0815 C   0  0  0  0  0  0  0  0  0  0  0  0
  -20.0211    3.7260  -14.7966 O   0  0  0  0  0  0  0  0  0  0  0  0
  -19.4442    0.5841  -14.9945 H   0  0  0  0  0  0  0  0  0  0  0  0
  -23.1766    0.3109  -13.6690 N   0  0  0  0  0  0  0  0  0  0  0  0
  -21.9082    0.0210  -14.0726 C   0  0  0  0  0  0  0  0  0  0  0  0
  -21.3041    1.2154  -14.3823 C   0  0  0  0  0  0  0  0  0  0  0  0
  -22.2854    2.1811  -14.0549 C   0  0  0  0  0  0  0  0  0  0  0  0
  -23.4308    1.6332  -13.6270 N   0  0  0  0  0  0  0  0  0  0  0  0
  -23.5891   -1.9415  -12.7541 C   0  0  0  0  0  0  0  0  0  0  0  0
  -24.1902   -0.6639  -13.3147 C   0  0  0  0  0  0  0  0  0  0  0  0
  -14.0582   -0.5325  -13.3867 O   0  0  0  0  0  0  0  0  0  0  0  0
  -13.9785   -1.8353  -13.8429 C   0  0  0  0  0  0  0  0  0  0  0  0
  -13.3076   -2.1741  -15.0122 C   0  0  0  0  0  0  0  0  0  0  0  0
  -13.4073   -3.4791  -15.4605 C   0  0  0  0  0  0  0  0  0  0  0  0
  -14.1351   -4.4360  -14.8538 N   0  0  0  0  0  0  0  0  0  0  0  0
  -14.8277   -4.1071  -13.7537 C   0  0  0  0  0  0  0  0  0  0  0  0
  -15.6348   -5.0719  -13.1710 C   0  0  0  0  0  0  0  0  0  0  0  0
  -16.4011   -4.7815  -12.0497 C   0  0  0  0  0  0  0  0  0  0  0  0
  -17.1968   -5.7246  -11.5275 F   0  0  0  0  0  0  0  0  0  0  0  0
  -16.3637   -3.5234  -11.4719 C   0  0  0  0  0  0  0  0  0  0  0  0
  -15.5534   -2.5394  -12.0375 C   0  0  0  0  0  0  0  0  0  0  0  0
  -14.7804   -2.8075  -13.1921 C   0  0  0  0  0  0  0  0  0  0  0  0
 19 20  1  0  0  0
 20 14  1  0  0  0
 14 15  1  0  0  0
 14 18  1  0  0  0
 15 16  2  0  0  0
 16 10  1  0  0  0
 16 17  1  0  0  0
 10 11  1  0  0  0
 10 13  1  0  0  0
 11 12  2  0  0  0
 11  9  1  0  0  0
  9  1  1  0  0  0
  1  2  1  0  0  0
  1  6  2  0  0  0
  2  3  2  0  0  0
  3  4  1  0  0  0
  4 21  1  0  0  0
  4  5  2  0  0  0
 21 22  1  0  0  0
 22 23  1  0  0  0
 22 32  2  0  0  0
 23 24  2  0  0  0
 24 25  1  0  0  0
 25 26  2  0  0  0
 26 27  1  0  0  0
 26 32  1  0  0  0
 27 28  2  0  0  0
 28 29  1  0  0  0
 28 30  1  0  0  0
 30 31  2  0  0  0
 31 32  1  0  0  0
  5  6  1  0  0  0
  6  7  1  0  0  0
  7  8  1  0  0  0
 17 18  2  0  0  0
M  END
> <minimizedAffinity>
-8.89690

$$$$
