CHEMBL4250210


 21 23  0  0  0  0  0  0  0  0999 V2000
  -30.1827   -4.5872   -4.3582 N   0  0  0  0  0  0  0  0  0  0  0  0
  -31.3099   -4.6569   -3.4263 C   0  0  0  0  0  0  0  0  0  0  0  0
  -29.6667   -5.8775   -4.6471 C   0  0  0  0  0  0  0  0  0  0  0  0
  -29.4779   -6.7219   -3.5879 N   0  0  0  0  0  0  0  0  0  0  0  0
  -29.0166   -7.9668   -3.7825 C   0  0  0  0  0  0  0  0  0  0  0  0
  -28.6793   -8.5312   -4.9399 N   0  0  0  0  0  0  0  0  0  0  0  0
  -28.8233   -7.6798   -5.9619 C   0  0  0  0  0  0  0  0  0  0  0  0
  -28.4923   -8.0400   -7.2272 O   0  0  0  0  0  0  0  0  0  0  0  0
  -28.6982   -6.9654   -8.0132 C   0  0  0  0  0  0  0  0  0  0  0  0
  -29.1539   -5.8911   -7.2840 C   0  0  0  0  0  0  0  0  0  0  0  0
  -29.3961   -4.5524   -7.8741 C   0  0  0  0  0  0  0  0  0  0  0  0
  -29.2833   -6.3638   -5.9240 C   0  0  0  0  0  0  0  0  0  0  0  0
  -28.2419   -0.8979   -5.2313 C   0  0  0  0  0  0  0  0  0  0  0  0
  -27.5076   -2.0200   -4.8442 C   0  0  0  0  0  0  0  0  0  0  0  0
  -28.1417   -3.2176   -4.4722 C   0  0  0  0  0  0  0  0  0  0  0  0
  -29.5330   -3.3594   -4.5499 C   0  0  0  0  0  0  0  0  0  0  0  0
  -30.2714   -2.2219   -4.9047 C   0  0  0  0  0  0  0  0  0  0  0  0
  -29.6370   -1.0166   -5.2403 C   0  0  0  0  0  0  0  0  0  0  0  0
  -28.4662    1.2742   -6.4168 C   0  0  0  0  0  0  0  0  0  0  0  0
  -27.6754    0.2615   -5.7486 N   0  0  0  0  0  0  0  0  0  0  0  0
  -26.7478    0.1188   -6.1378 H   0  0  0  0  0  0  0  0  0  0  0  0
 19 20  1  0  0  0
 20 13  1  0  0  0
 20 21  1  0  0  0
 13 14  1  0  0  0
 13 18  2  0  0  0
 14 15  2  0  0  0
 15 16  1  0  0  0
 16  1  1  0  0  0
 16 17  2  0  0  0
  1  2  1  0  0  0
  1  3  1  0  0  0
  3  4  1  0  0  0
  3 12  2  0  0  0
  4  5  2  0  0  0
  5  6  1  0  0  0
  6  7  2  0  0  0
  7  8  1  0  0  0
  7 12  1  0  0  0
  8  9  1  0  0  0
  9 10  2  0  0  0
 10 11  1  0  0  0
 10 12  1  0  0  0
 17 18  1  0  0  0
M  END
> <minimizedAffinity>
-6.91880

$$$$
