CHEMBL1973516


 36 40  0  0  0  0  0  0  0  0999 V2000
  -27.0765   -8.8967   -4.7559 C   0  0  0  0  0  0  0  0  0  0  0  0
  -25.8686   -8.7695   -4.2041 N   0  0  0  0  0  0  0  0  0  0  0  0
  -24.9104   -9.5963   -4.6702 C   0  0  0  0  0  0  0  0  0  0  0  0
  -25.1039  -10.5163   -5.6783 C   0  0  0  0  0  0  0  0  0  0  0  0
  -26.3833  -10.5972   -6.1933 C   0  0  0  0  0  0  0  0  0  0  0  0
  -27.3533   -9.8112   -5.6943 N   0  0  0  0  0  0  0  0  0  0  0  0
  -28.0521   -7.9608   -4.4107 N   0  0  0  0  0  0  0  0  0  0  0  0
  -28.9263   -8.4432   -4.2379 H   0  0  0  0  0  0  0  0  0  0  0  0
  -28.6317   -4.0046   -5.8630 C   0  0  0  0  0  0  0  0  0  0  0  0
  -28.9776   -5.1122   -6.6402 C   0  0  0  0  0  0  0  0  0  0  0  0
  -28.7609   -6.4213   -6.1840 C   0  0  0  0  0  0  0  0  0  0  0  0
  -28.2010   -6.6648   -4.9263 C   0  0  0  0  0  0  0  0  0  0  0  0
  -27.8696   -5.5675   -4.1334 C   0  0  0  0  0  0  0  0  0  0  0  0
  -28.0626   -4.2623   -4.6054 C   0  0  0  0  0  0  0  0  0  0  0  0
  -28.5609    0.1185   -5.3518 N   0  0  0  0  0  0  0  0  0  0  0  0
  -27.4139   -0.6423   -5.9048 C   0  0  0  0  0  0  0  0  0  0  0  0
  -27.7470   -1.8580   -6.8072 C   0  0  0  0  0  0  0  0  0  0  0  0
  -28.8338   -2.6972   -6.2737 N   0  0  0  0  0  0  0  0  0  0  0  0
  -29.9779   -1.9752   -5.6986 C   0  0  0  0  0  0  0  0  0  0  0  0
  -29.4936   -0.8635   -4.7384 C   0  0  0  0  0  0  0  0  0  0  0  0
  -30.6674    1.3870   -5.9103 C   0  0  0  0  0  0  0  0  0  0  0  0
  -29.2735    0.9444   -6.3392 C   0  0  0  0  0  0  0  0  0  0  0  0
  -24.0239  -11.3087   -6.1465 C   0  0  0  0  0  0  0  0  0  0  0  0
  -23.1574  -11.9715   -6.5478 N   0  0  0  0  0  0  0  0  0  0  0  0
  -26.6707  -11.4182   -7.3146 N   0  0  0  0  0  0  0  0  0  0  0  0
  -26.7879  -12.3949   -7.0661 H   0  0  0  0  0  0  0  0  0  0  0  0
  -27.3973  -11.0819   -8.4872 C   0  0  0  0  0  0  0  0  0  0  0  0
  -28.7920  -11.2119   -8.5823 C   0  0  0  0  0  0  0  0  0  0  0  0
  -29.5079  -10.9177   -9.7479 C   0  0  0  0  0  0  0  0  0  0  0  0
  -28.7800  -10.3962  -10.8118 C   0  0  0  0  0  0  0  0  0  0  0  0
  -29.1534  -10.0389  -12.0781 N   0  0  0  0  0  0  0  0  0  0  0  0
  -28.1758   -9.4489  -12.7885 N   0  0  0  0  0  0  0  0  0  0  0  0
  -27.1238   -9.5016  -11.9654 C   0  0  0  0  0  0  0  0  0  0  0  0
  -27.4200  -10.1311  -10.7351 C   0  0  0  0  0  0  0  0  0  0  0  0
  -26.7122  -10.4889   -9.5681 C   0  0  0  0  0  0  0  0  0  0  0  0
  -30.0595  -10.1686  -12.5135 H   0  0  0  0  0  0  0  0  0  0  0  0
 21 22  1  0  0  0
 22 15  1  0  0  0
 15 16  1  0  0  0
 15 20  1  0  0  0
 16 17  1  0  0  0
 17 18  1  0  0  0
 18  9  1  0  0  0
 18 19  1  0  0  0
  9 10  1  0  0  0
  9 14  2  0  0  0
 10 11  2  0  0  0
 11 12  1  0  0  0
 12  7  1  0  0  0
 12 13  2  0  0  0
  7  1  1  0  0  0
  7  8  1  0  0  0
  1  2  1  0  0  0
  1  6  2  0  0  0
  2  3  2  0  0  0
  3  4  1  0  0  0
  4 23  1  0  0  0
  4  5  2  0  0  0
 23 24  3  0  0  0
  5 25  1  0  0  0
  5  6  1  0  0  0
 25 27  1  0  0  0
 25 26  1  0  0  0
 27 28  1  0  0  0
 27 35  2  0  0  0
 28 29  2  0  0  0
 29 30  1  0  0  0
 30 31  1  0  0  0
 30 34  2  0  0  0
 31 32  1  0  0  0
 31 36  1  0  0  0
 32 33  2  0  0  0
 33 34  1  0  0  0
 34 35  1  0  0  0
 13 14  1  0  0  0
 19 20  1  0  0  0
M  END
> <minimizedAffinity>
-8.45412

$$$$
