CHEMBL1242201


 27 30  0  0  0  0  0  0  0  0999 V2000
  -28.9871   -6.6377   -6.3555 C   0  0  0  0  0  0  0  0  0  0  0  0
  -28.8895   -7.2142   -7.5697 N   0  0  0  0  0  0  0  0  0  0  0  0
  -28.6959   -8.5245   -7.3112 N   0  0  0  0  0  0  0  0  0  0  0  0
  -28.7187   -8.8223   -5.9752 C   0  0  0  0  0  0  0  0  0  0  0  0
  -28.5633  -10.0349   -5.4193 N   0  0  0  0  0  0  0  0  0  0  0  0
  -28.6352   -9.9749   -4.0810 C   0  0  0  0  0  0  0  0  0  0  0  0
  -28.8539   -8.8936   -3.3141 N   0  0  0  0  0  0  0  0  0  0  0  0
  -29.0154   -7.6959   -3.9129 C   0  0  0  0  0  0  0  0  0  0  0  0
  -29.2748   -6.6310   -3.0612 N   0  0  0  0  0  0  0  0  0  0  0  0
  -28.9302   -7.6198   -5.3145 C   0  0  0  0  0  0  0  0  0  0  0  0
  -29.4966   -6.9743   -2.1322 H   0  0  0  0  0  0  0  0  0  0  0  0
  -29.9200   -5.9432   -3.4301 H   0  0  0  0  0  0  0  0  0  0  0  0
  -29.4028   -2.3670   -6.0735 C   0  0  0  0  0  0  0  0  0  0  0  0
  -30.2625   -3.2105   -5.3716 C   0  0  0  0  0  0  0  0  0  0  0  0
  -30.1011   -4.5990   -5.4361 C   0  0  0  0  0  0  0  0  0  0  0  0
  -29.1257   -5.1795   -6.2549 C   0  0  0  0  0  0  0  0  0  0  0  0
  -28.2555   -4.3321   -6.9543 C   0  0  0  0  0  0  0  0  0  0  0  0
  -28.3901   -2.9433   -6.8522 C   0  0  0  0  0  0  0  0  0  0  0  0
  -27.5148   -2.1262   -7.5194 O   0  0  0  0  0  0  0  0  0  0  0  0
  -26.8135   -2.6698   -7.9115 H   0  0  0  0  0  0  0  0  0  0  0  0
  -28.9489   -0.3495   -4.8916 C   0  0  0  0  0  0  0  0  0  0  0  0
  -29.4606   -0.9988   -6.0486 O   0  0  0  0  0  0  0  0  0  0  0  0
  -28.4730   -9.4597   -8.3942 C   0  0  0  0  0  0  0  0  0  0  0  0
  -27.2727   -9.1152   -9.2784 C   0  0  0  0  0  0  0  0  0  0  0  0
  -27.5282   -9.8374  -10.5997 C   0  0  0  0  0  0  0  0  0  0  0  0
  -29.0030  -10.2367  -10.6019 C   0  0  0  0  0  0  0  0  0  0  0  0
  -29.6256   -9.5500   -9.3933 C   0  0  0  0  0  0  0  0  0  0  0  0
 21 22  1  0  0  0
 22 13  1  0  0  0
 13 14  1  0  0  0
 13 18  2  0  0  0
 14 15  2  0  0  0
 15 16  1  0  0  0
 16  1  1  0  0  0
 16 17  2  0  0  0
  1  2  2  0  0  0
  1 10  1  0  0  0
  2  3  1  0  0  0
  3 23  1  0  0  0
  3  4  1  0  0  0
 23 24  1  0  0  0
 23 27  1  0  0  0
 24 25  1  0  0  0
 25 26  1  0  0  0
 26 27  1  0  0  0
  4  5  1  0  0  0
  4 10  2  0  0  0
  5  6  2  0  0  0
  6  7  1  0  0  0
  7  8  2  0  0  0
  8  9  1  0  0  0
  8 10  1  0  0  0
  9 11  1  0  0  0
  9 12  1  0  0  0
 17 18  1  0  0  0
 18 19  1  0  0  0
 19 20  1  0  0  0
M  END
> <minimizedAffinity>
-7.90556

$$$$
