CHEMBL3752404


 28 30  0  0  0  0  0  0  0  0999 V2000
  -27.9834   -2.1474   -7.7577 C   0  0  0  0  0  0  0  0  0  0  0  0
  -28.7251   -3.1399   -7.1057 C   0  0  0  0  0  0  0  0  0  0  0  0
  -29.4984   -2.8897   -5.9579 C   0  0  0  0  0  0  0  0  0  0  0  0
  -29.5305   -1.5711   -5.4853 C   0  0  0  0  0  0  0  0  0  0  0  0
  -28.7985   -0.5481   -6.1129 C   0  0  0  0  0  0  0  0  0  0  0  0
  -28.0307   -0.8471   -7.2528 C   0  0  0  0  0  0  0  0  0  0  0  0
  -28.0116   -0.8503  -10.3703 O   0  0  0  0  0  0  0  0  0  0  0  0
  -27.2549   -1.7819  -10.1190 C   0  0  0  0  0  0  0  0  0  0  0  0
  -26.4220   -2.3674  -11.0598 N   0  0  0  0  0  0  0  0  0  0  0  0
  -27.1572   -2.3991   -8.8802 N   0  0  0  0  0  0  0  0  0  0  0  0
  -26.0001   -3.2496  -10.8124 H   0  0  0  0  0  0  0  0  0  0  0  0
  -26.4224   -3.0791   -8.7612 H   0  0  0  0  0  0  0  0  0  0  0  0
  -26.3659   -2.0007  -12.4284 C   0  0  0  0  0  0  0  0  0  0  0  0
  -27.4651   -2.0493  -13.2850 C   0  0  0  0  0  0  0  0  0  0  0  0
  -27.2805   -1.7610  -14.6265 C   0  0  0  0  0  0  0  0  0  0  0  0
  -26.0939   -1.4105  -15.1596 N   0  0  0  0  0  0  0  0  0  0  0  0
  -25.0516   -1.3315  -14.3073 C   0  0  0  0  0  0  0  0  0  0  0  0
  -25.1370   -1.6000  -12.9489 C   0  0  0  0  0  0  0  0  0  0  0  0
  -30.2077   -3.9901   -5.2684 C   0  0  0  0  0  0  0  0  0  0  0  0
  -30.9718   -3.7711   -4.1098 C   0  0  0  0  0  0  0  0  0  0  0  0
  -31.6428   -4.8203   -3.4846 C   0  0  0  0  0  0  0  0  0  0  0  0
  -31.5441   -6.0820   -4.0383 C   0  0  0  0  0  0  0  0  0  0  0  0
  -30.8262   -6.3534   -5.1477 N   0  0  0  0  0  0  0  0  0  0  0  0
  -30.1768   -5.3103   -5.7237 C   0  0  0  0  0  0  0  0  0  0  0  0
  -28.7969    0.8496   -5.5450 C   0  0  0  0  0  0  0  0  0  0  0  0
  -27.9330    1.0170   -4.5059 F   0  0  0  0  0  0  0  0  0  0  0  0
  -28.4461    1.7800   -6.4757 F   0  0  0  0  0  0  0  0  0  0  0  0
  -30.0196    1.2269   -5.0813 F   0  0  0  0  0  0  0  0  0  0  0  0
  7  8  2  0  0  0
  8  9  1  0  0  0
  8 10  1  0  0  0
  9 13  1  0  0  0
  9 11  1  0  0  0
 13 14  1  0  0  0
 13 18  2  0  0  0
 14 15  2  0  0  0
 15 16  1  0  0  0
 16 17  2  0  0  0
 17 18  1  0  0  0
 10  1  1  0  0  0
 10 12  1  0  0  0
  1  2  1  0  0  0
  1  6  2  0  0  0
  2  3  2  0  0  0
  3 19  1  0  0  0
  3  4  1  0  0  0
 19 20  1  0  0  0
 19 24  2  0  0  0
 20 21  2  0  0  0
 21 22  1  0  0  0
 22 23  2  0  0  0
 23 24  1  0  0  0
  4  5  2  0  0  0
  5 25  1  0  0  0
  5  6  1  0  0  0
 25 26  1  0  0  0
 25 27  1  0  0  0
 25 28  1  0  0  0
M  END
> <minimizedAffinity>
-10.39529

$$$$
