CHEMBL406404


 41 45  0  0  0  0  0  0  0  0999 V2000
  -15.1183    2.6210  -16.4763 C   0  0  0  0  0  0  0  0  0  0  0  0
  -15.6359    3.9343  -16.4148 C   0  0  0  0  0  0  0  0  0  0  0  0
  -15.4671    4.8655  -17.4491 C   0  0  0  0  0  0  0  0  0  0  0  0
  -14.6943    4.5639  -18.5719 C   0  0  0  0  0  0  0  0  0  0  0  0
  -14.2296    3.2479  -18.6387 C   0  0  0  0  0  0  0  0  0  0  0  0
  -13.4959    2.7359  -19.6625 O   0  0  0  0  0  0  0  0  0  0  0  0
  -13.2767    1.3920  -19.4506 N   0  0  0  0  0  0  0  0  0  0  0  0
  -13.8867    1.1012  -18.2994 C   0  0  0  0  0  0  0  0  0  0  0  0
  -13.9987   -0.1606  -17.8366 N   0  0  0  0  0  0  0  0  0  0  0  0
  -14.4445    2.2646  -17.6794 C   0  0  0  0  0  0  0  0  0  0  0  0
  -13.7762   -0.8929  -18.5051 H   0  0  0  0  0  0  0  0  0  0  0  0
  -14.7991   -0.3973  -17.2590 H   0  0  0  0  0  0  0  0  0  0  0  0
  -15.5785   -0.2762  -13.3072 C   0  0  0  0  0  0  0  0  0  0  0  0
  -16.6224   -0.0253  -14.1986 C   0  0  0  0  0  0  0  0  0  0  0  0
  -16.4782    0.9307  -15.2102 C   0  0  0  0  0  0  0  0  0  0  0  0
  -15.2952    1.6756  -15.3518 C   0  0  0  0  0  0  0  0  0  0  0  0
  -14.3065    1.4830  -14.3682 C   0  0  0  0  0  0  0  0  0  0  0  0
  -14.4352    0.5126  -13.3637 C   0  0  0  0  0  0  0  0  0  0  0  0
  -15.3202   -3.5453  -11.7635 N   0  0  0  0  0  0  0  0  0  0  0  0
  -15.1436   -2.5971  -12.7561 C   0  0  0  0  0  0  0  0  0  0  0  0
  -14.5609   -2.7749  -13.8175 O   0  0  0  0  0  0  0  0  0  0  0  0
  -15.6425   -1.3489  -12.3842 N   0  0  0  0  0  0  0  0  0  0  0  0
  -15.6947   -3.2182  -10.8863 H   0  0  0  0  0  0  0  0  0  0  0  0
  -15.4755   -1.1081  -11.4190 H   0  0  0  0  0  0  0  0  0  0  0  0
  -11.6929   -6.7503  -10.7614 C   0  0  0  0  0  0  0  0  0  0  0  0
  -13.0510   -6.4659  -11.3344 C   0  0  0  0  0  0  0  0  0  0  0  0
  -13.7765   -7.4933  -11.9454 C   0  0  0  0  0  0  0  0  0  0  0  0
  -15.0461   -7.2409  -12.4490 C   0  0  0  0  0  0  0  0  0  0  0  0
  -15.5920   -5.9634  -12.3635 C   0  0  0  0  0  0  0  0  0  0  0  0
  -16.8653   -5.8456  -12.7575 F   0  0  0  0  0  0  0  0  0  0  0  0
  -14.8706   -4.8931  -11.8125 C   0  0  0  0  0  0  0  0  0  0  0  0
  -13.6042   -5.1709  -11.2699 C   0  0  0  0  0  0  0  0  0  0  0  0
  -14.4373    5.4107  -19.6121 O   0  0  0  0  0  0  0  0  0  0  0  0
  -13.1457    6.0280  -19.6478 C   0  0  0  0  0  0  0  0  0  0  0  0
  -12.9459    6.8796  -18.3841 C   0  0  0  0  0  0  0  0  0  0  0  0
  -11.6380    6.6771  -17.7247 N   0  0  0  0  0  0  0  0  0  0  0  0
  -11.6993    5.5422  -16.7712 C   0  0  0  0  0  0  0  0  0  0  0  0
  -12.4893    5.8503  -15.4841 C   0  0  0  0  0  0  0  0  0  0  0  0
  -11.9910    7.0200  -14.8206 O   0  0  0  0  0  0  0  0  0  0  0  0
  -11.9885    8.1494  -15.7013 C   0  0  0  0  0  0  0  0  0  0  0  0
  -11.1633    7.8568  -16.9638 C   0  0  0  0  0  0  0  0  0  0  0  0
 25 26  1  0  0  0
 26 27  1  0  0  0
 26 32  2  0  0  0
 27 28  2  0  0  0
 28 29  1  0  0  0
 29 30  1  0  0  0
 29 31  2  0  0  0
 31 19  1  0  0  0
 31 32  1  0  0  0
 19 20  1  0  0  0
 19 23  1  0  0  0
 20 21  2  0  0  0
 20 22  1  0  0  0
 22 13  1  0  0  0
 22 24  1  0  0  0
 13 14  1  0  0  0
 13 18  2  0  0  0
 14 15  2  0  0  0
 15 16  1  0  0  0
 16  1  1  0  0  0
 16 17  2  0  0  0
  1  2  1  0  0  0
  1 10  2  0  0  0
  2  3  2  0  0  0
  3  4  1  0  0  0
  4 33  1  0  0  0
  4  5  2  0  0  0
 33 34  1  0  0  0
 34 35  1  0  0  0
 35 36  1  0  0  0
 36 37  1  0  0  0
 36 41  1  0  0  0
 37 38  1  0  0  0
 38 39  1  0  0  0
 39 40  1  0  0  0
 40 41  1  0  0  0
  5  6  1  0  0  0
  5 10  1  0  0  0
  6  7  1  0  0  0
  7  8  2  0  0  0
  8  9  1  0  0  0
  8 10  1  0  0  0
  9 11  1  0  0  0
  9 12  1  0  0  0
 17 18  1  0  0  0
M  END
> <minimizedAffinity>
-7.50264

$$$$
