CHEMBL189825


 28 30  0  0  0  0  0  0  0  0999 V2000
  -17.3742    1.6885  -14.9668 C   0  0  0  0  0  0  0  0  0  0  0  0
  -16.4823    2.6256  -15.4849 C   0  0  0  0  0  0  0  0  0  0  0  0
  -15.1695    2.3698  -15.6931 N   0  0  0  0  0  0  0  0  0  0  0  0
  -14.7780    1.1167  -15.3618 C   0  0  0  0  0  0  0  0  0  0  0  0
  -15.6293    0.1581  -14.8097 C   0  0  0  0  0  0  0  0  0  0  0  0
  -16.9407    0.4464  -14.6334 N   0  0  0  0  0  0  0  0  0  0  0  0
  -21.1056    1.1882  -14.4012 C   0  0  0  0  0  0  0  0  0  0  0  0
  -21.4643    2.5363  -14.3621 C   0  0  0  0  0  0  0  0  0  0  0  0
  -20.6002    3.5735  -14.4593 N   0  0  0  0  0  0  0  0  0  0  0  0
  -19.2958    3.2570  -14.6487 C   0  0  0  0  0  0  0  0  0  0  0  0
  -18.8006    1.9577  -14.7465 C   0  0  0  0  0  0  0  0  0  0  0  0
  -19.7516    0.9286  -14.6391 C   0  0  0  0  0  0  0  0  0  0  0  0
  -22.0813    0.1773  -14.3505 N   0  0  0  0  0  0  0  0  0  0  0  0
  -22.4720    0.0067  -15.2767 H   0  0  0  0  0  0  0  0  0  0  0  0
  -23.1383    0.3274  -13.3451 C   0  0  0  0  0  0  0  0  0  0  0  0
  -22.8321   -0.5464  -12.1306 C   0  0  0  0  0  0  0  0  0  0  0  0
  -24.3667   -2.2605  -11.4218 O   0  0  0  0  0  0  0  0  0  0  0  0
  -23.3250   -1.9713  -12.3434 C   0  0  0  0  0  0  0  0  0  0  0  0
  -24.6810   -3.1600  -11.6135 H   0  0  0  0  0  0  0  0  0  0  0  0
  -15.1464   -1.1400  -14.5205 N   0  0  0  0  0  0  0  0  0  0  0  0
  -14.1310   -1.1532  -14.5184 H   0  0  0  0  0  0  0  0  0  0  0  0
  -15.6005   -1.9453  -13.4443 C   0  0  0  0  0  0  0  0  0  0  0  0
  -15.4415   -1.5639  -12.1012 C   0  0  0  0  0  0  0  0  0  0  0  0
  -15.8094   -2.4211  -11.0604 C   0  0  0  0  0  0  0  0  0  0  0  0
  -16.3325   -3.6764  -11.3513 C   0  0  0  0  0  0  0  0  0  0  0  0
  -16.4673   -4.0661  -12.6782 C   0  0  0  0  0  0  0  0  0  0  0  0
  -16.9572   -5.2807  -12.9596 F   0  0  0  0  0  0  0  0  0  0  0  0
  -16.0943   -3.2227  -13.7211 C   0  0  0  0  0  0  0  0  0  0  0  0
 17 18  1  0  0  0
 17 19  1  0  0  0
 18 16  1  0  0  0
 16 15  1  0  0  0
 15 13  1  0  0  0
 13  7  1  0  0  0
 13 14  1  0  0  0
  7  8  1  0  0  0
  7 12  2  0  0  0
  8  9  2  0  0  0
  9 10  1  0  0  0
 10 11  2  0  0  0
 11  1  1  0  0  0
 11 12  1  0  0  0
  1  2  1  0  0  0
  1  6  2  0  0  0
  2  3  2  0  0  0
  3  4  1  0  0  0
  4  5  2  0  0  0
  5 20  1  0  0  0
  5  6  1  0  0  0
 20 22  1  0  0  0
 20 21  1  0  0  0
 22 23  1  0  0  0
 22 28  2  0  0  0
 23 24  2  0  0  0
 24 25  1  0  0  0
 25 26  2  0  0  0
 26 27  1  0  0  0
 26 28  1  0  0  0
M  END
> <minimizedAffinity>
-8.51863

$$$$
