CHEMBL2023228


 37 41  0  0  0  0  0  0  0  0999 V2000
  -22.5026   -0.1154  -13.7578 C   0  0  0  0  0  0  0  0  0  0  0  0
  -22.6810   -0.1042  -12.3788 C   0  0  0  0  0  0  0  0  0  0  0  0
  -23.8582   -0.5760  -11.8060 C   0  0  0  0  0  0  0  0  0  0  0  0
  -24.9500   -0.9371  -12.5955 C   0  0  0  0  0  0  0  0  0  0  0  0
  -24.8155   -0.8838  -13.9843 C   0  0  0  0  0  0  0  0  0  0  0  0
  -23.5963   -0.4883  -14.5598 C   0  0  0  0  0  0  0  0  0  0  0  0
  -18.5948    2.6517  -15.4817 C   0  0  0  0  0  0  0  0  0  0  0  0
  -19.1864    3.8641  -15.1801 C   0  0  0  0  0  0  0  0  0  0  0  0
  -20.3879    4.0067  -14.6027 N   0  0  0  0  0  0  0  0  0  0  0  0
  -21.1102    2.9202  -14.2701 C   0  0  0  0  0  0  0  0  0  0  0  0
  -22.3043    3.2395  -13.6410 N   0  0  0  0  0  0  0  0  0  0  0  0
  -20.6252    1.6070  -14.5552 C   0  0  0  0  0  0  0  0  0  0  0  0
  -21.2047    0.2645  -14.3332 C   0  0  0  0  0  0  0  0  0  0  0  0
  -20.3685   -0.7337  -14.7872 C   0  0  0  0  0  0  0  0  0  0  0  0
  -18.9432   -0.1460  -15.4690 S   0  0  0  0  0  0  0  0  0  0  0  0
  -19.3572    1.5061  -15.1675 C   0  0  0  0  0  0  0  0  0  0  0  0
  -22.3170    4.2299  -13.4220 H   0  0  0  0  0  0  0  0  0  0  0  0
  -22.5601    2.6222  -12.8827 H   0  0  0  0  0  0  0  0  0  0  0  0
  -14.4124    3.9361  -17.8123 C   0  0  0  0  0  0  0  0  0  0  0  0
  -15.4284    3.1913  -17.1121 N   0  0  0  0  0  0  0  0  0  0  0  0
  -16.6263    3.6609  -16.6601 C   0  0  0  0  0  0  0  0  0  0  0  0
  -17.2748    2.5826  -16.0891 C   0  0  0  0  0  0  0  0  0  0  0  0
  -16.3534    1.5241  -16.2272 C   0  0  0  0  0  0  0  0  0  0  0  0
  -15.2330    1.8866  -16.8563 N   0  0  0  0  0  0  0  0  0  0  0  0
  -26.1737   -1.3587  -12.0338 N   0  0  0  0  0  0  0  0  0  0  0  0
  -26.3749   -1.5491  -10.6768 C   0  0  0  0  0  0  0  0  0  0  0  0
  -25.5786   -1.2289   -9.8012 O   0  0  0  0  0  0  0  0  0  0  0  0
  -27.5806   -2.1738  -10.4152 N   0  0  0  0  0  0  0  0  0  0  0  0
  -27.0049   -1.2621  -12.5948 H   0  0  0  0  0  0  0  0  0  0  0  0
  -27.8589   -2.8537  -11.1089 H   0  0  0  0  0  0  0  0  0  0  0  0
  -28.0161   -2.3907   -9.0899 C   0  0  0  0  0  0  0  0  0  0  0  0
  -28.6747   -3.5772   -8.7221 C   0  0  0  0  0  0  0  0  0  0  0  0
  -29.1280   -3.7577   -7.4159 C   0  0  0  0  0  0  0  0  0  0  0  0
  -28.9338   -2.7531   -6.4719 C   0  0  0  0  0  0  0  0  0  0  0  0
  -28.2779   -1.5775   -6.8375 C   0  0  0  0  0  0  0  0  0  0  0  0
  -28.0806   -0.3205   -5.6783 Cl  0  0  0  0  0  0  0  0  0  0  0  0
  -27.7986   -1.3988   -8.1356 C   0  0  0  0  0  0  0  0  0  0  0  0
 19 20  1  0  0  0
 20 21  1  0  0  0
 20 24  1  0  0  0
 21 22  2  0  0  0
 22  7  1  0  0  0
 22 23  1  0  0  0
  7  8  1  0  0  0
  7 16  2  0  0  0
  8  9  2  0  0  0
  9 10  1  0  0  0
 10 11  1  0  0  0
 10 12  2  0  0  0
 11 17  1  0  0  0
 11 18  1  0  0  0
 12 13  1  0  0  0
 12 16  1  0  0  0
 13  1  1  0  0  0
 13 14  2  0  0  0
  1  2  1  0  0  0
  1  6  2  0  0  0
  2  3  2  0  0  0
  3  4  1  0  0  0
  4 25  1  0  0  0
  4  5  2  0  0  0
 25 26  1  0  0  0
 25 29  1  0  0  0
 26 27  2  0  0  0
 26 28  1  0  0  0
 28 31  1  0  0  0
 28 30  1  0  0  0
 31 32  1  0  0  0
 31 37  2  0  0  0
 32 33  2  0  0  0
 33 34  1  0  0  0
 34 35  2  0  0  0
 35 36  1  0  0  0
 35 37  1  0  0  0
  5  6  1  0  0  0
 14 15  1  0  0  0
 15 16  1  0  0  0
 23 24  2  0  0  0
M  END
> <minimizedAffinity>
-9.27812

$$$$
