CHEMBL3951823


 38 41  0  0  0  0  0  0  0  0999 V2000
  -29.4541   -7.8858   -5.1633 C   0  0  0  0  0  0  0  0  0  0  0  0
  -29.4087   -8.8321   -6.1942 C   0  0  0  0  0  0  0  0  0  0  0  0
  -29.0152  -10.1486   -5.9432 C   0  0  0  0  0  0  0  0  0  0  0  0
  -28.5878  -10.5232   -4.6687 C   0  0  0  0  0  0  0  0  0  0  0  0
  -28.6210   -9.5769   -3.6371 C   0  0  0  0  0  0  0  0  0  0  0  0
  -29.0316   -8.2544   -3.8853 C   0  0  0  0  0  0  0  0  0  0  0  0
  -29.8124   -4.3571   -5.9781 N   0  0  0  0  0  0  0  0  0  0  0  0
  -29.1649   -5.5678   -5.7877 C   0  0  0  0  0  0  0  0  0  0  0  0
  -27.9625   -5.7495   -5.9748 O   0  0  0  0  0  0  0  0  0  0  0  0
  -30.0134   -6.5958   -5.3899 N   0  0  0  0  0  0  0  0  0  0  0  0
  -30.7447   -4.2771   -5.6010 H   0  0  0  0  0  0  0  0  0  0  0  0
  -30.9349   -6.5719   -5.8032 H   0  0  0  0  0  0  0  0  0  0  0  0
  -27.9368   -1.9890   -8.2179 C   0  0  0  0  0  0  0  0  0  0  0  0
  -28.5269   -3.1547   -7.7243 C   0  0  0  0  0  0  0  0  0  0  0  0
  -29.1990   -3.1797   -6.4954 C   0  0  0  0  0  0  0  0  0  0  0  0
  -29.2760   -1.9881   -5.7602 C   0  0  0  0  0  0  0  0  0  0  0  0
  -28.6890   -0.7970   -6.2469 C   0  0  0  0  0  0  0  0  0  0  0  0
  -28.0150   -0.8131   -7.4801 C   0  0  0  0  0  0  0  0  0  0  0  0
  -28.7530    0.5071   -5.4873 C   0  0  0  0  0  0  0  0  0  0  0  0
  -30.0065    0.8426   -5.0768 F   0  0  0  0  0  0  0  0  0  0  0  0
  -27.9795    0.4887   -4.3678 F   0  0  0  0  0  0  0  0  0  0  0  0
  -28.3063    1.5554   -6.2320 F   0  0  0  0  0  0  0  0  0  0  0  0
  -26.7005   -2.0405  -10.4957 N   0  0  0  0  0  0  0  0  0  0  0  0
  -27.2529   -2.0160   -9.4772 C   0  0  0  0  0  0  0  0  0  0  0  0
  -28.1865  -11.8083   -4.3424 O   0  0  0  0  0  0  0  0  0  0  0  0
  -26.9533  -12.0119   -3.7518 C   0  0  0  0  0  0  0  0  0  0  0  0
  -26.7986  -12.2839   -2.3954 C   0  0  0  0  0  0  0  0  0  0  0  0
  -25.5199  -12.4166   -1.9094 C   0  0  0  0  0  0  0  0  0  0  0  0
  -24.4241  -12.3671   -2.6854 N   0  0  0  0  0  0  0  0  0  0  0  0
  -24.5635  -12.1858   -4.0087 C   0  0  0  0  0  0  0  0  0  0  0  0
  -25.8214  -11.9986   -4.5826 C   0  0  0  0  0  0  0  0  0  0  0  0
  -23.4095  -12.1859   -4.8216 N   0  0  0  0  0  0  0  0  0  0  0  0
  -22.8421  -11.0326   -5.3474 C   0  0  0  0  0  0  0  0  0  0  0  0
  -23.2338   -9.8848   -5.1931 O   0  0  0  0  0  0  0  0  0  0  0  0
  -22.9726  -13.0720   -5.0201 H   0  0  0  0  0  0  0  0  0  0  0  0
  -21.6199  -11.1904   -6.1929 C   0  0  0  0  0  0  0  0  0  0  0  0
  -21.1726  -10.1929   -7.2275 C   0  0  0  0  0  0  0  0  0  0  0  0
  -21.6549  -11.5482   -7.6573 C   0  0  0  0  0  0  0  0  0  0  0  0
 23 24  3  0  0  0
 24 13  1  0  0  0
 13 14  1  0  0  0
 13 18  2  0  0  0
 14 15  2  0  0  0
 15  7  1  0  0  0
 15 16  1  0  0  0
  7  8  1  0  0  0
  7 11  1  0  0  0
  8  9  2  0  0  0
  8 10  1  0  0  0
 10  1  1  0  0  0
 10 12  1  0  0  0
  1  2  1  0  0  0
  1  6  2  0  0  0
  2  3  2  0  0  0
  3  4  1  0  0  0
  4 25  1  0  0  0
  4  5  2  0  0  0
 25 26  1  0  0  0
 26 27  1  0  0  0
 26 31  2  0  0  0
 27 28  2  0  0  0
 28 29  1  0  0  0
 29 30  2  0  0  0
 30 32  1  0  0  0
 30 31  1  0  0  0
 32 33  1  0  0  0
 32 35  1  0  0  0
 33 34  2  0  0  0
 33 36  1  0  0  0
 36 37  1  0  0  0
 36 38  1  0  0  0
 37 38  1  0  0  0
  5  6  1  0  0  0
 16 17  2  0  0  0
 17 19  1  0  0  0
 17 18  1  0  0  0
 19 20  1  0  0  0
 19 21  1  0  0  0
 19 22  1  0  0  0
M  END
> <minimizedAffinity>
-8.71737

$$$$
