CHEMBL4277848


 50 55  0  0  0  0  0  0  0  0999 V2000
  -14.6307    0.5752  -13.1678 O   0  0  0  0  0  0  0  0  0  0  0  0
  -17.6473    0.7680  -13.4179 C   0  0  0  0  0  0  0  0  0  0  0  0
  -17.1084    1.5957  -14.5348 C   0  0  0  0  0  0  0  0  0  0  0  0
  -17.8101    2.4103  -15.4897 C   0  0  0  0  0  0  0  0  0  0  0  0
  -16.8727    2.9801  -16.3172 C   0  0  0  0  0  0  0  0  0  0  0  0
  -15.6474    2.5380  -15.9500 N   0  0  0  0  0  0  0  0  0  0  0  0
  -14.5032    2.8793  -16.5586 N   0  0  0  0  0  0  0  0  0  0  0  0
  -13.4490    2.3262  -16.0543 C   0  0  0  0  0  0  0  0  0  0  0  0
  -13.4117    1.4807  -14.9806 N   0  0  0  0  0  0  0  0  0  0  0  0
  -14.5281    1.2332  -14.3804 C   0  0  0  0  0  0  0  0  0  0  0  0
  -15.7645    1.7194  -14.8726 C   0  0  0  0  0  0  0  0  0  0  0  0
  -19.1534    2.6064  -15.5888 O   0  0  0  0  0  0  0  0  0  0  0  0
  -19.6779    3.3671  -14.4746 C   0  0  0  0  0  0  0  0  0  0  0  0
  -21.0775    2.9008  -14.0631 C   0  0  0  0  0  0  0  0  0  0  0  0
  -22.0466    3.6757  -14.7781 O   0  0  0  0  0  0  0  0  0  0  0  0
  -21.8655    3.5330  -15.7254 H   0  0  0  0  0  0  0  0  0  0  0  0
  -21.2245    1.3897  -14.3331 C   0  0  0  0  0  0  0  0  0  0  0  0
  -22.1565    0.6125  -13.5091 N   0  0  0  0  0  0  0  0  0  0  0  0
  -22.3647   -0.7549  -13.9871 C   0  0  0  0  0  0  0  0  0  0  0  0
  -23.0040   -1.5812  -12.8740 C   0  0  0  0  0  0  0  0  0  0  0  0
  -24.2866   -0.9374  -12.3463 C   0  0  0  0  0  0  0  0  0  0  0  0
  -25.3642   -1.1596  -13.2570 O   0  0  0  0  0  0  0  0  0  0  0  0
  -24.1227    0.5608  -12.0862 C   0  0  0  0  0  0  0  0  0  0  0  0
  -23.4319    1.2787  -13.2482 C   0  0  0  0  0  0  0  0  0  0  0  0
  -25.1294   -0.7655  -14.1136 H   0  0  0  0  0  0  0  0  0  0  0  0
  -14.3311   -0.7920  -13.2556 C   0  0  0  0  0  0  0  0  0  0  0  0
  -13.3097   -1.2533  -14.0912 C   0  0  0  0  0  0  0  0  0  0  0  0
  -13.0513   -2.6100  -14.1835 C   0  0  0  0  0  0  0  0  0  0  0  0
  -13.7365   -3.5112  -13.3714 C   0  0  0  0  0  0  0  0  0  0  0  0
  -14.7583   -3.0539  -12.5318 C   0  0  0  0  0  0  0  0  0  0  0  0
  -15.0355   -1.6900  -12.4629 C   0  0  0  0  0  0  0  0  0  0  0  0
  -15.9654   -1.2531  -11.6029 F   0  0  0  0  0  0  0  0  0  0  0  0
  -13.3965   -4.8705  -13.3385 N   0  0  0  0  0  0  0  0  0  0  0  0
  -14.0587   -5.8657  -14.0339 C   0  0  0  0  0  0  0  0  0  0  0  0
  -15.0281   -5.7512  -14.7685 O   0  0  0  0  0  0  0  0  0  0  0  0
  -12.5386   -5.1240  -12.8640 H   0  0  0  0  0  0  0  0  0  0  0  0
  -13.4821   -7.2259  -13.8410 C   0  0  0  0  0  0  0  0  0  0  0  0
  -14.1629   -8.1958  -12.8697 C   0  0  0  0  0  0  0  0  0  0  0  0
  -12.8789   -7.5357  -12.4818 C   0  0  0  0  0  0  0  0  0  0  0  0
  -12.9867   -7.8114  -15.1136 C   0  0  0  0  0  0  0  0  0  0  0  0
  -11.7553   -7.8409  -15.2687 O   0  0  0  0  0  0  0  0  0  0  0  0
  -13.9086   -8.3288  -15.9996 N   0  0  0  0  0  0  0  0  0  0  0  0
  -14.8162   -7.8867  -16.0436 H   0  0  0  0  0  0  0  0  0  0  0  0
  -13.4897   -9.1611  -17.0593 C   0  0  0  0  0  0  0  0  0  0  0  0
  -13.5056   -8.6904  -18.3816 C   0  0  0  0  0  0  0  0  0  0  0  0
  -13.2540   -9.5565  -19.4433 C   0  0  0  0  0  0  0  0  0  0  0  0
  -12.9800  -10.8885  -19.1754 C   0  0  0  0  0  0  0  0  0  0  0  0
  -12.8165  -11.7441  -20.1924 F   0  0  0  0  0  0  0  0  0  0  0  0
  -12.8838  -11.3496  -17.8637 C   0  0  0  0  0  0  0  0  0  0  0  0
  -13.1077  -10.4745  -16.7966 C   0  0  0  0  0  0  0  0  0  0  0  0
  2  3  1  0  0  0
  3  4  1  0  0  0
  3 11  2  0  0  0
  4 12  1  0  0  0
  4  5  2  0  0  0
 12 13  1  0  0  0
 13 14  1  0  0  0
 14 15  1  0  0  0
 14 17  1  0  0  0
 15 16  1  0  0  0
 17 18  1  0  0  0
 18 19  1  0  0  0
 18 24  1  0  0  0
 19 20  1  0  0  0
 20 21  1  0  0  0
 21 22  1  0  0  0
 21 23  1  0  0  0
 22 25  1  0  0  0
 23 24  1  0  0  0
  5  6  1  0  0  0
  6  7  1  0  0  0
  6 11  1  0  0  0
  7  8  2  0  0  0
  8  9  1  0  0  0
  9 10  2  0  0  0
 10  1  1  0  0  0
 10 11  1  0  0  0
  1 26  1  0  0  0
 26 27  1  0  0  0
 26 31  2  0  0  0
 27 28  2  0  0  0
 28 29  1  0  0  0
 29 33  1  0  0  0
 29 30  2  0  0  0
 33 34  1  0  0  0
 33 36  1  0  0  0
 34 35  2  0  0  0
 34 37  1  0  0  0
 37 40  1  0  0  0
 37 38  1  0  0  0
 37 39  1  0  0  0
 40 41  2  0  0  0
 40 42  1  0  0  0
 42 44  1  0  0  0
 42 43  1  0  0  0
 44 45  1  0  0  0
 44 50  2  0  0  0
 45 46  2  0  0  0
 46 47  1  0  0  0
 47 48  1  0  0  0
 47 49  2  0  0  0
 49 50  1  0  0  0
 38 39  1  0  0  0
 30 31  1  0  0  0
 31 32  1  0  0  0
M  END
> <minimizedAffinity>
-8.93935

$$$$
