CHEMBL2032022


 39 43  0  0  0  0  0  0  0  0999 V2000
  -14.6807    1.5283  -16.0154 C   0  0  0  0  0  0  0  0  0  0  0  0
  -15.7333    1.0538  -16.4376 O   0  0  0  0  0  0  0  0  0  0  0  0
  -14.0583    1.1553  -14.8321 N   0  0  0  0  0  0  0  0  0  0  0  0
  -13.1627    1.5844  -14.6077 H   0  0  0  0  0  0  0  0  0  0  0  0
  -12.6734    3.6972  -18.3259 N   0  0  0  0  0  0  0  0  0  0  0  0
  -12.9604    2.5004  -17.6543 C   0  0  0  0  0  0  0  0  0  0  0  0
  -12.1615    1.2474  -17.8553 C   0  0  0  0  0  0  0  0  0  0  0  0
  -14.0208    2.6132  -16.8143 C   0  0  0  0  0  0  0  0  0  0  0  0
  -14.3931    4.0529  -16.8712 C   0  0  0  0  0  0  0  0  0  0  0  0
  -15.3467    4.5157  -16.2580 O   0  0  0  0  0  0  0  0  0  0  0  0
  -13.5040    4.6853  -17.7628 N   0  0  0  0  0  0  0  0  0  0  0  0
  -13.7665    5.9431  -18.3453 C   0  0  0  0  0  0  0  0  0  0  0  0
  -14.7047    6.0214  -19.3827 C   0  0  0  0  0  0  0  0  0  0  0  0
  -15.0540    7.2560  -19.9366 C   0  0  0  0  0  0  0  0  0  0  0  0
  -14.4448    8.4223  -19.4806 C   0  0  0  0  0  0  0  0  0  0  0  0
  -13.4852    8.3524  -18.4724 C   0  0  0  0  0  0  0  0  0  0  0  0
  -13.1497    7.1189  -17.9054 C   0  0  0  0  0  0  0  0  0  0  0  0
  -11.5017    4.0174  -19.1570 C   0  0  0  0  0  0  0  0  0  0  0  0
  -11.3607    5.3441  -21.3324 C   0  0  0  0  0  0  0  0  0  0  0  0
  -11.7125    4.0241  -20.6724 C   0  0  0  0  0  0  0  0  0  0  0  0
  -14.5840    0.2104  -13.9051 C   0  0  0  0  0  0  0  0  0  0  0  0
  -14.0672   -1.0844  -13.8894 C   0  0  0  0  0  0  0  0  0  0  0  0
  -14.5639   -2.0410  -12.9686 C   0  0  0  0  0  0  0  0  0  0  0  0
  -15.5240   -1.6800  -12.0193 C   0  0  0  0  0  0  0  0  0  0  0  0
  -16.0044   -0.3837  -12.1386 C   0  0  0  0  0  0  0  0  0  0  0  0
  -15.5621    0.5463  -13.0419 N   0  0  0  0  0  0  0  0  0  0  0  0
  -16.0565   -2.4705  -10.9984 O   0  0  0  0  0  0  0  0  0  0  0  0
  -15.3928   -3.6387  -10.6400 C   0  0  0  0  0  0  0  0  0  0  0  0
  -14.4353   -3.6347   -9.6229 C   0  0  0  0  0  0  0  0  0  0  0  0
  -13.5254   -4.6575   -9.6279 C   0  0  0  0  0  0  0  0  0  0  0  0
  -13.4414   -5.5887  -10.6022 N   0  0  0  0  0  0  0  0  0  0  0  0
  -14.4407   -5.6366  -11.4989 C   0  0  0  0  0  0  0  0  0  0  0  0
  -14.3432   -6.3925  -12.6545 C   0  0  0  0  0  0  0  0  0  0  0  0
  -15.4094   -6.3986  -13.5467 C   0  0  0  0  0  0  0  0  0  0  0  0
  -16.6765   -6.1679  -13.0583 C   0  0  0  0  0  0  0  0  0  0  0  0
  -16.7490   -5.2128  -12.0653 C   0  0  0  0  0  0  0  0  0  0  0  0
  -15.5694   -4.8113  -11.3943 C   0  0  0  0  0  0  0  0  0  0  0  0
  -15.1101   -6.2605  -14.8828 O   0  0  0  0  0  0  0  0  0  0  0  0
  -14.0830   -5.2862  -15.1569 C   0  0  0  0  0  0  0  0  0  0  0  0
 19 20  1  0  0  0
 20 18  1  0  0  0
 18  5  1  0  0  0
  5  6  1  0  0  0
  5 11  1  0  0  0
  6  7  1  0  0  0
  6  8  2  0  0  0
  8  1  1  0  0  0
  8  9  1  0  0  0
  1  2  2  0  0  0
  1  3  1  0  0  0
  3 21  1  0  0  0
  3  4  1  0  0  0
 21 22  1  0  0  0
 21 26  2  0  0  0
 22 23  2  0  0  0
 23 24  1  0  0  0
 24 27  1  0  0  0
 24 25  2  0  0  0
 27 28  1  0  0  0
 28 29  1  0  0  0
 28 37  2  0  0  0
 29 30  2  0  0  0
 30 31  1  0  0  0
 31 32  2  0  0  0
 32 33  1  0  0  0
 32 37  1  0  0  0
 33 34  2  0  0  0
 34 38  1  0  0  0
 34 35  1  0  0  0
 38 39  1  0  0  0
 35 36  2  0  0  0
 36 37  1  0  0  0
 25 26  1  0  0  0
  9 10  2  0  0  0
  9 11  1  0  0  0
 11 12  1  0  0  0
 12 13  1  0  0  0
 12 17  2  0  0  0
 13 14  2  0  0  0
 14 15  1  0  0  0
 15 16  2  0  0  0
 16 17  1  0  0  0
M  END
> <minimizedAffinity>
-7.26575

$$$$
