CHEMBL3694709


 37 40  0  0  0  0  0  0  0  0999 V2000
  -27.6473   -1.9439   -9.6110 C   0  0  0  0  0  0  0  0  0  0  0  0
  -28.3668   -3.1597   -9.2369 C   0  0  0  0  0  0  0  0  0  0  0  0
  -28.8031   -3.3137   -7.9740 C   0  0  0  0  0  0  0  0  0  0  0  0
  -28.5862   -2.2995   -7.0351 N   0  0  0  0  0  0  0  0  0  0  0  0
  -28.9532   -2.1854   -5.6969 C   0  0  0  0  0  0  0  0  0  0  0  0
  -28.3937   -0.9753   -5.3037 C   0  0  0  0  0  0  0  0  0  0  0  0
  -27.7416   -0.3424   -6.3199 N   0  0  0  0  0  0  0  0  0  0  0  0
  -27.8780   -1.1386   -7.3540 C   0  0  0  0  0  0  0  0  0  0  0  0
  -27.4101   -0.9866   -8.6880 C   0  0  0  0  0  0  0  0  0  0  0  0
  -25.2714   -1.0136  -12.4197 C   0  0  0  0  0  0  0  0  0  0  0  0
  -26.0498   -1.4028  -13.5255 C   0  0  0  0  0  0  0  0  0  0  0  0
  -27.3364   -1.9211  -13.3593 C   0  0  0  0  0  0  0  0  0  0  0  0
  -27.8668   -2.0763  -12.0815 C   0  0  0  0  0  0  0  0  0  0  0  0
  -27.1156   -1.7071  -10.9626 C   0  0  0  0  0  0  0  0  0  0  0  0
  -25.8328   -1.1641  -11.1386 C   0  0  0  0  0  0  0  0  0  0  0  0
  -23.4303   -0.4933  -14.0863 C   0  0  0  0  0  0  0  0  0  0  0  0
  -23.8439   -0.5024  -12.6095 C   0  0  0  0  0  0  0  0  0  0  0  0
  -22.8653   -1.3457  -11.7809 C   0  0  0  0  0  0  0  0  0  0  0  0
  -23.7426    0.8502  -12.1441 O   0  0  0  0  0  0  0  0  0  0  0  0
  -22.8111    1.1179  -12.2129 H   0  0  0  0  0  0  0  0  0  0  0  0
  -29.7261   -3.1279   -4.8745 C   0  0  0  0  0  0  0  0  0  0  0  0
  -30.1876   -2.6965   -3.6210 C   0  0  0  0  0  0  0  0  0  0  0  0
  -30.9815   -3.5184   -2.8262 C   0  0  0  0  0  0  0  0  0  0  0  0
  -31.3269   -4.7904   -3.2701 C   0  0  0  0  0  0  0  0  0  0  0  0
  -30.9064   -5.2501   -4.5190 C   0  0  0  0  0  0  0  0  0  0  0  0
  -30.1017   -4.4112   -5.3145 C   0  0  0  0  0  0  0  0  0  0  0  0
  -31.2548   -6.5272   -5.0248 N   0  0  0  0  0  0  0  0  0  0  0  0
  -30.4258   -7.3895   -5.7107 C   0  0  0  0  0  0  0  0  0  0  0  0
  -29.2485   -7.2169   -5.9871 O   0  0  0  0  0  0  0  0  0  0  0  0
  -31.0822   -8.5270   -6.1260 N   0  0  0  0  0  0  0  0  0  0  0  0
  -32.1950   -6.8440   -4.8458 H   0  0  0  0  0  0  0  0  0  0  0  0
  -31.8318   -8.8571   -5.5374 H   0  0  0  0  0  0  0  0  0  0  0  0
  -30.3006   -9.5509   -6.8342 C   0  0  0  0  0  0  0  0  0  0  0  0
  -30.4816   -9.5968   -8.3597 C   0  0  0  0  0  0  0  0  0  0  0  0
  -29.6930   -8.6978   -8.9933 F   0  0  0  0  0  0  0  0  0  0  0  0
  -30.1266  -10.8215   -8.8257 F   0  0  0  0  0  0  0  0  0  0  0  0
  -31.7578   -9.3804   -8.7376 F   0  0  0  0  0  0  0  0  0  0  0  0
 16 17  1  0  0  0
 17 18  1  0  0  0
 17 19  1  0  0  0
 17 10  1  0  0  0
 19 20  1  0  0  0
 10 11  1  0  0  0
 10 15  2  0  0  0
 11 12  2  0  0  0
 12 13  1  0  0  0
 13 14  2  0  0  0
 14  1  1  0  0  0
 14 15  1  0  0  0
  1  2  1  0  0  0
  1  9  2  0  0  0
  2  3  2  0  0  0
  3  4  1  0  0  0
  4  5  1  0  0  0
  4  8  1  0  0  0
  5 21  1  0  0  0
  5  6  2  0  0  0
 21 22  1  0  0  0
 21 26  2  0  0  0
 22 23  2  0  0  0
 23 24  1  0  0  0
 24 25  2  0  0  0
 25 27  1  0  0  0
 25 26  1  0  0  0
 27 28  1  0  0  0
 27 31  1  0  0  0
 28 29  2  0  0  0
 28 30  1  0  0  0
 30 33  1  0  0  0
 30 32  1  0  0  0
 33 34  1  0  0  0
 34 35  1  0  0  0
 34 36  1  0  0  0
 34 37  1  0  0  0
  6  7  1  0  0  0
  7  8  2  0  0  0
  8  9  1  0  0  0
M  END
> <minimizedAffinity>
-10.79587

$$$$
