CHEMBL3656063


 36 39  0  0  0  0  0  0  0  0999 V2000
  -28.3093   -3.0741   -5.6103 C   0  0  0  0  0  0  0  0  0  0  0  0
  -28.7756   -3.8348   -6.6770 C   0  0  0  0  0  0  0  0  0  0  0  0
  -28.7246   -3.3229   -7.9761 C   0  0  0  0  0  0  0  0  0  0  0  0
  -28.2185   -2.0443   -8.2293 C   0  0  0  0  0  0  0  0  0  0  0  0
  -27.8001   -1.2654   -7.1428 C   0  0  0  0  0  0  0  0  0  0  0  0
  -27.8723   -1.7658   -5.8391 C   0  0  0  0  0  0  0  0  0  0  0  0
  -28.0708   -1.5019   -9.5250 N   0  0  0  0  0  0  0  0  0  0  0  0
  -27.0095   -1.7176  -10.3799 C   0  0  0  0  0  0  0  0  0  0  0  0
  -26.0987   -2.5136  -10.1848 O   0  0  0  0  0  0  0  0  0  0  0  0
  -27.0684   -0.8869  -11.4917 N   0  0  0  0  0  0  0  0  0  0  0  0
  -28.8594   -1.0007   -9.9093 H   0  0  0  0  0  0  0  0  0  0  0  0
  -27.4001    0.0497  -11.2961 H   0  0  0  0  0  0  0  0  0  0  0  0
  -26.0521   -0.9579  -12.4783 C   0  0  0  0  0  0  0  0  0  0  0  0
  -24.7885   -0.3916  -12.2755 C   0  0  0  0  0  0  0  0  0  0  0  0
  -23.8336   -0.3927  -13.3019 C   0  0  0  0  0  0  0  0  0  0  0  0
  -22.4801    0.2203  -13.0882 C   0  0  0  0  0  0  0  0  0  0  0  0
  -24.1632   -0.9576  -14.5414 C   0  0  0  0  0  0  0  0  0  0  0  0
  -25.4131   -1.5482  -14.7390 C   0  0  0  0  0  0  0  0  0  0  0  0
  -26.3373   -1.5671  -13.6999 C   0  0  0  0  0  0  0  0  0  0  0  0
  -27.5458   -2.1149  -13.9039 F   0  0  0  0  0  0  0  0  0  0  0  0
  -28.3417   -3.6737   -4.3700 O   0  0  0  0  0  0  0  0  0  0  0  0
  -28.2499   -7.3484   -4.4551 C   0  0  0  0  0  0  0  0  0  0  0  0
  -27.8411   -6.0414   -4.6785 C   0  0  0  0  0  0  0  0  0  0  0  0
  -28.6840   -5.0051   -4.2901 C   0  0  0  0  0  0  0  0  0  0  0  0
  -29.9535   -5.2988   -3.8138 C   0  0  0  0  0  0  0  0  0  0  0  0
  -30.2986   -6.6318   -3.6733 C   0  0  0  0  0  0  0  0  0  0  0  0
  -29.4710   -7.6619   -3.9645 N   0  0  0  0  0  0  0  0  0  0  0  0
  -25.3652   -9.7522   -4.5312 C   0  0  0  0  0  0  0  0  0  0  0  0
  -26.0533   -8.6545   -4.0467 C   0  0  0  0  0  0  0  0  0  0  0  0
  -27.3185   -8.4463   -4.6913 C   0  0  0  0  0  0  0  0  0  0  0  0
  -27.5733   -9.4481   -5.6049 C   0  0  0  0  0  0  0  0  0  0  0  0
  -26.2810  -10.5643   -5.7298 S   0  0  0  0  0  0  0  0  0  0  0  0
  -24.0517  -10.2450   -4.1581 C   0  0  0  0  0  0  0  0  0  0  0  0
  -23.7339  -10.7329   -3.0786 O   0  0  0  0  0  0  0  0  0  0  0  0
  -22.2605  -11.1753   -5.3636 C   0  0  0  0  0  0  0  0  0  0  0  0
  -23.1963  -10.1071   -5.2153 O   0  0  0  0  0  0  0  0  0  0  0  0
 35 36  1  0  0  0
 36 33  1  0  0  0
 33 34  2  0  0  0
 33 28  1  0  0  0
 28 29  2  0  0  0
 28 32  1  0  0  0
 29 30  1  0  0  0
 30 22  1  0  0  0
 30 31  2  0  0  0
 22 23  1  0  0  0
 22 27  2  0  0  0
 23 24  2  0  0  0
 24 21  1  0  0  0
 24 25  1  0  0  0
 21  1  1  0  0  0
  1  2  1  0  0  0
  1  6  2  0  0  0
  2  3  2  0  0  0
  3  4  1  0  0  0
  4  7  1  0  0  0
  4  5  2  0  0  0
  7  8  1  0  0  0
  7 11  1  0  0  0
  8  9  2  0  0  0
  8 10  1  0  0  0
 10 13  1  0  0  0
 10 12  1  0  0  0
 13 14  1  0  0  0
 13 19  2  0  0  0
 14 15  2  0  0  0
 15 16  1  0  0  0
 15 17  1  0  0  0
 17 18  2  0  0  0
 18 19  1  0  0  0
 19 20  1  0  0  0
  5  6  1  0  0  0
 25 26  2  0  0  0
 26 27  1  0  0  0
 31 32  1  0  0  0
M  END
> <minimizedAffinity>
-9.90767

$$$$
