CHEMBL203789


 29 32  0  0  0  0  0  0  0  0999 V2000
  -26.9080   11.0703  -15.6634 C   0  0  0  0  0  0  0  0  0  0  0  0
  -27.9370   11.5816  -14.9007 C   0  0  0  0  0  0  0  0  0  0  0  0
  -29.0916   10.8770  -15.0797 N   0  0  0  0  0  0  0  0  0  0  0  0
  -28.7927    9.9395  -15.9523 C   0  0  0  0  0  0  0  0  0  0  0  0
  -27.4803   10.0132  -16.3303 N   0  0  0  0  0  0  0  0  0  0  0  0
  -26.8198    9.0928  -17.2217 C   0  0  0  0  0  0  0  0  0  0  0  0
  -23.4723   11.5564  -16.2417 C   0  0  0  0  0  0  0  0  0  0  0  0
  -23.7531   12.6266  -15.5316 N   0  0  0  0  0  0  0  0  0  0  0  0
  -25.0879   12.5729  -15.2390 N   0  0  0  0  0  0  0  0  0  0  0  0
  -25.5503   11.4667  -15.7650 C   0  0  0  0  0  0  0  0  0  0  0  0
  -24.5754   10.7639  -16.4351 O   0  0  0  0  0  0  0  0  0  0  0  0
  -22.3172   11.0888  -16.7513 N   0  0  0  0  0  0  0  0  0  0  0  0
  -21.5826   10.9313  -16.0823 H   0  0  0  0  0  0  0  0  0  0  0  0
  -18.4965   11.1952  -19.8898 C   0  0  0  0  0  0  0  0  0  0  0  0
  -19.9377   11.4841  -19.5909 C   0  0  0  0  0  0  0  0  0  0  0  0
  -20.7494   12.0923  -20.5487 C   0  0  0  0  0  0  0  0  0  0  0  0
  -22.0870   12.3488  -20.2755 C   0  0  0  0  0  0  0  0  0  0  0  0
  -22.6222   12.0072  -19.0357 C   0  0  0  0  0  0  0  0  0  0  0  0
  -21.8309   11.4240  -18.0354 C   0  0  0  0  0  0  0  0  0  0  0  0
  -20.4863   11.1445  -18.3424 C   0  0  0  0  0  0  0  0  0  0  0  0
  -27.8904   12.6587  -14.0967 N   0  0  0  0  0  0  0  0  0  0  0  0
  -28.1150   13.5896  -14.4312 H   0  0  0  0  0  0  0  0  0  0  0  0
  -27.2930   12.5860  -12.7783 C   0  0  0  0  0  0  0  0  0  0  0  0
  -28.3602   12.5331  -11.7148 C   0  0  0  0  0  0  0  0  0  0  0  0
  -28.0158   12.3963  -10.3672 C   0  0  0  0  0  0  0  0  0  0  0  0
  -29.0275   12.3409   -9.4226 C   0  0  0  0  0  0  0  0  0  0  0  0
  -30.3425   12.4142   -9.7231 N   0  0  0  0  0  0  0  0  0  0  0  0
  -30.6554   12.5539  -11.0277 C   0  0  0  0  0  0  0  0  0  0  0  0
  -29.7162   12.6219  -12.0459 C   0  0  0  0  0  0  0  0  0  0  0  0
 14 15  1  0  0  0
 15 16  1  0  0  0
 15 20  2  0  0  0
 16 17  2  0  0  0
 17 18  1  0  0  0
 18 19  2  0  0  0
 19 12  1  0  0  0
 19 20  1  0  0  0
 12  7  1  0  0  0
 12 13  1  0  0  0
  7  8  2  0  0  0
  7 11  1  0  0  0
  8  9  1  0  0  0
  9 10  2  0  0  0
 10  1  1  0  0  0
 10 11  1  0  0  0
  1  2  2  0  0  0
  1  5  1  0  0  0
  2 21  1  0  0  0
  2  3  1  0  0  0
 21 23  1  0  0  0
 21 22  1  0  0  0
 23 24  1  0  0  0
 24 25  1  0  0  0
 24 29  2  0  0  0
 25 26  2  0  0  0
 26 27  1  0  0  0
 27 28  2  0  0  0
 28 29  1  0  0  0
  3  4  2  0  0  0
  4  5  1  0  0  0
  5  6  1  0  0  0
M  END
> <minimizedAffinity>
-5.56733

$$$$
