CHEMBL3827045


 37 42  0  0  0  0  0  0  0  0999 V2000
  -30.1718   -1.8274   -4.7562 O   0  0  0  0  0  0  0  0  0  0  0  0
  -30.0799   -3.0049   -5.0367 C   0  0  0  0  0  0  0  0  0  0  0  0
  -30.6584   -4.1002   -4.2738 C   0  0  0  0  0  0  0  0  0  0  0  0
  -31.4054   -4.0179   -3.1080 C   0  0  0  0  0  0  0  0  0  0  0  0
  -31.8135   -5.2181   -2.5477 C   0  0  0  0  0  0  0  0  0  0  0  0
  -32.5699   -5.2554   -1.4148 O   0  0  0  0  0  0  0  0  0  0  0  0
  -31.4494   -6.4395   -3.1215 C   0  0  0  0  0  0  0  0  0  0  0  0
  -30.6707   -6.4795   -4.2890 C   0  0  0  0  0  0  0  0  0  0  0  0
  -30.2997   -5.2916   -4.9042 C   0  0  0  0  0  0  0  0  0  0  0  0
  -29.5406   -4.9540   -6.1199 C   0  0  0  0  0  0  0  0  0  0  0  0
  -29.3722   -3.6191   -6.1795 C   0  0  0  0  0  0  0  0  0  0  0  0
  -28.5915   -2.9857   -7.2307 C   0  0  0  0  0  0  0  0  0  0  0  0
  -28.3930   -1.6028   -7.3236 C   0  0  0  0  0  0  0  0  0  0  0  0
  -27.6332   -1.0586   -8.3659 C   0  0  0  0  0  0  0  0  0  0  0  0
  -27.0665   -1.9003   -9.3162 C   0  0  0  0  0  0  0  0  0  0  0  0
  -26.3280   -1.4152  -10.3520 O   0  0  0  0  0  0  0  0  0  0  0  0
  -27.2396   -3.2727   -9.2376 C   0  0  0  0  0  0  0  0  0  0  0  0
  -28.0004   -3.8140   -8.1931 C   0  0  0  0  0  0  0  0  0  0  0  0
  -28.1832   -5.2868   -8.1220 C   0  0  0  0  0  0  0  0  0  0  0  0
  -27.6465   -5.9668   -8.9939 O   0  0  0  0  0  0  0  0  0  0  0  0
  -28.9892   -5.8024   -7.0704 N   0  0  0  0  0  0  0  0  0  0  0  0
  -32.7416   -4.3464   -1.1162 H   0  0  0  0  0  0  0  0  0  0  0  0
  -26.3024   -0.4455  -10.2975 H   0  0  0  0  0  0  0  0  0  0  0  0
  -29.1485   -7.2141   -7.0697 C   0  0  0  0  0  0  0  0  0  0  0  0
  -30.2211   -7.7558   -7.7766 C   0  0  0  0  0  0  0  0  0  0  0  0
  -30.4506   -9.1229   -7.7579 C   0  0  0  0  0  0  0  0  0  0  0  0
  -29.6226   -9.9796   -7.0239 C   0  0  0  0  0  0  0  0  0  0  0  0
  -28.5434   -9.4425   -6.3184 C   0  0  0  0  0  0  0  0  0  0  0  0
  -28.3087   -8.0597   -6.3330 C   0  0  0  0  0  0  0  0  0  0  0  0
  -29.8080  -11.3427   -6.9326 O   0  0  0  0  0  0  0  0  0  0  0  0
  -29.4338  -12.0335   -8.1319 C   0  0  0  0  0  0  0  0  0  0  0  0
  -27.9237  -12.2289   -8.2659 C   0  0  0  0  0  0  0  0  0  0  0  0
  -27.4565  -11.9800   -9.6510 N   0  0  0  0  0  0  0  0  0  0  0  0
  -26.3488  -11.0121   -9.7501 C   0  0  0  0  0  0  0  0  0  0  0  0
  -27.0260   -9.6609   -9.6839 C   0  0  0  0  0  0  0  0  0  0  0  0
  -28.2643   -9.8819  -10.5319 C   0  0  0  0  0  0  0  0  0  0  0  0
  -28.5353  -11.3848  -10.4607 C   0  0  0  0  0  0  0  0  0  0  0  0
  1  2  2  0  0  0
  2  3  1  0  0  0
  2 11  1  0  0  0
  3  4  1  0  0  0
  3  9  2  0  0  0
  4  5  2  0  0  0
  5  6  1  0  0  0
  5  7  1  0  0  0
  6 22  1  0  0  0
  7  8  2  0  0  0
  8  9  1  0  0  0
  9 10  1  0  0  0
 10 11  2  0  0  0
 10 21  1  0  0  0
 11 12  1  0  0  0
 12 13  1  0  0  0
 12 18  2  0  0  0
 13 14  2  0  0  0
 14 15  1  0  0  0
 15 16  1  0  0  0
 15 17  2  0  0  0
 16 23  1  0  0  0
 17 18  1  0  0  0
 18 19  1  0  0  0
 19 20  2  0  0  0
 19 21  1  0  0  0
 21 24  1  0  0  0
 24 25  1  0  0  0
 24 29  2  0  0  0
 25 26  2  0  0  0
 26 27  1  0  0  0
 27 30  1  0  0  0
 27 28  2  0  0  0
 30 31  1  0  0  0
 31 32  1  0  0  0
 32 33  1  0  0  0
 33 34  1  0  0  0
 33 37  1  0  0  0
 34 35  1  0  0  0
 35 36  1  0  0  0
 36 37  1  0  0  0
 28 29  1  0  0  0
M  END
> <minimizedAffinity>
-7.49357

$$$$
