CHEMBL3911746


 37 41  0  0  0  0  0  0  0  0999 V2000
  -15.0974    0.2072  -13.6418 N   0  0  0  0  0  0  0  0  0  0  0  0
  -14.9554   -1.1531  -13.0974 C   0  0  0  0  0  0  0  0  0  0  0  0
  -15.8503   -1.3984  -12.0727 C   0  0  0  0  0  0  0  0  0  0  0  0
  -15.7539   -2.4352  -11.2268 C   0  0  0  0  0  0  0  0  0  0  0  0
  -14.7589   -3.3521  -11.3484 C   0  0  0  0  0  0  0  0  0  0  0  0
  -14.7125   -4.2344  -10.3654 N   0  0  0  0  0  0  0  0  0  0  0  0
  -13.8329   -5.2102  -10.3291 C   0  0  0  0  0  0  0  0  0  0  0  0
  -12.9369   -5.4126  -11.3756 C   0  0  0  0  0  0  0  0  0  0  0  0
  -12.9152   -4.4322  -12.4060 N   0  0  0  0  0  0  0  0  0  0  0  0
  -13.8276   -3.3542  -12.3988 C   0  0  0  0  0  0  0  0  0  0  0  0
  -13.9222   -2.1892  -13.3358 C   0  0  0  0  0  0  0  0  0  0  0  0
  -12.2040   -6.7727  -11.2225 C   0  0  0  0  0  0  0  0  0  0  0  0
  -11.0493   -7.1915  -10.5581 C   0  0  0  0  0  0  0  0  0  0  0  0
  -10.8061   -8.5068  -10.8402 N   0  0  0  0  0  0  0  0  0  0  0  0
  -11.7512   -8.9521  -11.6555 N   0  0  0  0  0  0  0  0  0  0  0  0
  -11.8332  -10.2858  -12.2654 C   0  0  0  0  0  0  0  0  0  0  0  0
  -12.6159   -7.9563  -11.8920 C   0  0  0  0  0  0  0  0  0  0  0  0
  -12.0547    2.4882  -13.8837 C   0  0  0  0  0  0  0  0  0  0  0  0
  -11.8678    2.5093  -15.2819 C   0  0  0  0  0  0  0  0  0  0  0  0
  -12.7386    1.8050  -16.1287 C   0  0  0  0  0  0  0  0  0  0  0  0
  -13.7904    1.0735  -15.5704 C   0  0  0  0  0  0  0  0  0  0  0  0
  -14.0440    1.0558  -14.1812 C   0  0  0  0  0  0  0  0  0  0  0  0
  -13.1669    1.7938  -13.3471 C   0  0  0  0  0  0  0  0  0  0  0  0
  -10.7377    4.3888  -13.0524 C   0  0  0  0  0  0  0  0  0  0  0  0
  -11.1743    3.0718  -13.0179 O   0  0  0  0  0  0  0  0  0  0  0  0
  -12.6010    1.7810  -17.4897 O   0  0  0  0  0  0  0  0  0  0  0  0
  -13.6100    1.8407  -18.4314 C   0  0  0  0  0  0  0  0  0  0  0  0
  -16.4989    0.7456  -13.6120 C   0  0  0  0  0  0  0  0  0  0  0  0
  -17.3004    1.0087  -14.9581 C   0  0  0  0  0  0  0  0  0  0  0  0
  -18.7965    0.5744  -15.1159 C   0  0  0  0  0  0  0  0  0  0  0  0
  -19.7273    1.7120  -14.9020 N   0  0  0  0  0  0  0  0  0  0  0  0
  -20.9974    1.7074  -14.4140 C   0  0  0  0  0  0  0  0  0  0  0  0
  -21.7951    0.5372  -13.9222 C   0  0  0  0  0  0  0  0  0  0  0  0
  -21.4762    3.0014  -14.4111 C   0  0  0  0  0  0  0  0  0  0  0  0
  -20.5277    3.8210  -14.8950 N   0  0  0  0  0  0  0  0  0  0  0  0
  -19.4831    3.0157  -15.1838 C   0  0  0  0  0  0  0  0  0  0  0  0
  -18.2123    3.5398  -15.7620 C   0  0  0  0  0  0  0  0  0  0  0  0
 24 25  1  0  0  0
 25 18  1  0  0  0
 18 19  1  0  0  0
 18 23  2  0  0  0
 19 20  2  0  0  0
 20 26  1  0  0  0
 20 21  1  0  0  0
 26 27  1  0  0  0
 21 22  2  0  0  0
 22  1  1  0  0  0
 22 23  1  0  0  0
  1 28  1  0  0  0
  1  2  1  0  0  0
 28 29  1  0  0  0
 29 30  1  0  0  0
 30 31  1  0  0  0
 31 32  1  0  0  0
 31 36  1  0  0  0
 32 33  1  0  0  0
 32 34  2  0  0  0
 34 35  1  0  0  0
 35 36  2  0  0  0
 36 37  1  0  0  0
  2  3  1  0  0  0
  2 11  2  0  0  0
  3  4  2  0  0  0
  4  5  1  0  0  0
  5  6  1  0  0  0
  5 10  2  0  0  0
  6  7  2  0  0  0
  7  8  1  0  0  0
  8 12  1  0  0  0
  8  9  2  0  0  0
 12 13  1  0  0  0
 12 17  2  0  0  0
 13 14  2  0  0  0
 14 15  1  0  0  0
 15 16  1  0  0  0
 15 17  1  0  0  0
  9 10  1  0  0  0
 10 11  1  0  0  0
M  END
> <minimizedAffinity>
-8.38935

$$$$
