CHEMBL3740073


 41 45  0  0  0  0  0  0  0  0999 V2000
  -27.6639   -2.1624   -7.9638 C   0  0  0  0  0  0  0  0  0  0  0  0
  -28.5562   -1.6641   -7.0224 C   0  0  0  0  0  0  0  0  0  0  0  0
  -29.1387   -2.5396   -6.1009 C   0  0  0  0  0  0  0  0  0  0  0  0
  -28.8986   -3.9302   -6.1891 C   0  0  0  0  0  0  0  0  0  0  0  0
  -29.4879   -4.8890   -5.3476 C   0  0  0  0  0  0  0  0  0  0  0  0
  -30.5392   -5.4783   -6.0137 C   0  0  0  0  0  0  0  0  0  0  0  0
  -30.2518   -5.9537   -7.2986 C   0  0  0  0  0  0  0  0  0  0  0  0
  -29.0750   -5.5278   -7.9283 C   0  0  0  0  0  0  0  0  0  0  0  0
  -28.4366   -4.3780   -7.4265 C   0  0  0  0  0  0  0  0  0  0  0  0
  -27.6322   -3.5352   -8.2121 C   0  0  0  0  0  0  0  0  0  0  0  0
  -28.4804   -6.0169   -4.8595 C   0  0  0  0  0  0  0  0  0  0  0  0
  -27.3851   -5.7120   -4.4018 O   0  0  0  0  0  0  0  0  0  0  0  0
  -28.9502   -7.3276   -5.0093 N   0  0  0  0  0  0  0  0  0  0  0  0
  -29.8950   -7.4248   -5.3483 H   0  0  0  0  0  0  0  0  0  0  0  0
  -28.2709   -8.5605   -4.8246 C   0  0  0  0  0  0  0  0  0  0  0  0
  -27.9344   -9.1150   -3.5917 C   0  0  0  0  0  0  0  0  0  0  0  0
  -27.2696  -10.3549   -3.5063 C   0  0  0  0  0  0  0  0  0  0  0  0
  -26.9376  -11.0726   -4.6582 C   0  0  0  0  0  0  0  0  0  0  0  0
  -27.2606  -10.5249   -5.8973 C   0  0  0  0  0  0  0  0  0  0  0  0
  -26.8607  -11.3691   -7.3339 Cl  0  0  0  0  0  0  0  0  0  0  0  0
  -27.9182   -9.2902   -5.9957 C   0  0  0  0  0  0  0  0  0  0  0  0
  -26.9581   -1.2521   -8.7126 O   0  0  0  0  0  0  0  0  0  0  0  0
  -25.3908   -1.6372  -11.8428 C   0  0  0  0  0  0  0  0  0  0  0  0
  -26.3876   -1.8022  -12.7241 N   0  0  0  0  0  0  0  0  0  0  0  0
  -27.6370   -1.8298  -12.2321 C   0  0  0  0  0  0  0  0  0  0  0  0
  -27.9319   -1.6818  -10.9005 C   0  0  0  0  0  0  0  0  0  0  0  0
  -26.8497   -1.4632  -10.0757 C   0  0  0  0  0  0  0  0  0  0  0  0
  -25.5806   -1.4826  -10.5223 N   0  0  0  0  0  0  0  0  0  0  0  0
  -24.0965   -1.6067  -12.3803 N   0  0  0  0  0  0  0  0  0  0  0  0
  -23.5131   -2.1055  -11.7119 H   0  0  0  0  0  0  0  0  0  0  0  0
  -21.7011    0.5432  -14.2981 C   0  0  0  0  0  0  0  0  0  0  0  0
  -22.2586    1.8045  -14.0411 C   0  0  0  0  0  0  0  0  0  0  0  0
  -23.4108    1.9224  -13.2632 C   0  0  0  0  0  0  0  0  0  0  0  0
  -24.0073    0.7845  -12.7175 C   0  0  0  0  0  0  0  0  0  0  0  0
  -23.4418   -0.4799  -12.9093 C   0  0  0  0  0  0  0  0  0  0  0  0
  -22.3101   -0.5904  -13.7290 C   0  0  0  0  0  0  0  0  0  0  0  0
  -20.5012    0.3984  -15.1861 C   0  0  0  0  0  0  0  0  0  0  0  0
  -17.7422    0.9799  -15.4716 C   0  0  0  0  0  0  0  0  0  0  0  0
  -19.2775    1.6679  -14.8722 S   0  0  0  0  0  0  0  0  0  0  0  0
  -19.1526    1.8655  -13.4484 O   0  0  0  0  0  0  0  0  0  0  0  0
  -19.5973    2.7900  -15.7353 O   0  0  0  0  0  0  0  0  0  0  0  0
 38 39  1  0  0  0
 39 40  2  0  0  0
 39 41  2  0  0  0
 39 37  1  0  0  0
 37 31  1  0  0  0
 31 32  1  0  0  0
 31 36  2  0  0  0
 32 33  2  0  0  0
 33 34  1  0  0  0
 34 35  2  0  0  0
 35 29  1  0  0  0
 35 36  1  0  0  0
 29 23  1  0  0  0
 29 30  1  0  0  0
 23 24  1  0  0  0
 23 28  2  0  0  0
 24 25  2  0  0  0
 25 26  1  0  0  0
 26 27  2  0  0  0
 27 22  1  0  0  0
 27 28  1  0  0  0
 22  1  1  0  0  0
  1  2  1  0  0  0
  1 10  2  0  0  0
  2  3  2  0  0  0
  3  4  1  0  0  0
  4  5  1  0  0  0
  4  9  2  0  0  0
  5 11  1  0  0  0
  5  6  2  0  0  0
 11 12  2  0  0  0
 11 13  1  0  0  0
 13 15  1  0  0  0
 13 14  1  0  0  0
 15 16  1  0  0  0
 15 21  2  0  0  0
 16 17  2  0  0  0
 17 18  1  0  0  0
 18 19  2  0  0  0
 19 20  1  0  0  0
 19 21  1  0  0  0
  6  7  1  0  0  0
  7  8  2  0  0  0
  8  9  1  0  0  0
  9 10  1  0  0  0
M  END
> <minimizedAffinity>
-9.56329

$$$$
