CHEMBL3982351


 35 38  0  0  0  0  0  0  0  0999 V2000
  -15.2912    2.4580  -15.9914 N   0  0  0  0  0  0  0  0  0  0  0  0
  -16.6771    2.3462  -15.4683 C   0  0  0  0  0  0  0  0  0  0  0  0
  -17.0453    1.1798  -14.8586 C   0  0  0  0  0  0  0  0  0  0  0  0
  -18.3677    1.0081  -14.5640 C   0  0  0  0  0  0  0  0  0  0  0  0
  -19.3749    1.8837  -14.9053 C   0  0  0  0  0  0  0  0  0  0  0  0
  -20.3088    1.1553  -15.3239 N   0  0  0  0  0  0  0  0  0  0  0  0
  -21.1446    0.9171  -14.3616 C   0  0  0  0  0  0  0  0  0  0  0  0
  -21.9467    1.8209  -13.9284 C   0  0  0  0  0  0  0  0  0  0  0  0
  -21.2596    3.0732  -14.5690 N   0  0  0  0  0  0  0  0  0  0  0  0
  -19.5289    3.2356  -15.0939 C   0  0  0  0  0  0  0  0  0  0  0  0
  -17.8792    3.3412  -15.5837 C   0  0  0  0  0  0  0  0  0  0  0  0
  -23.2690    0.6607  -13.5681 C   0  0  0  0  0  0  0  0  0  0  0  0
  -23.9195   -0.5330  -14.3035 C   0  0  0  0  0  0  0  0  0  0  0  0
  -24.8267   -1.2515  -13.5904 N   0  0  0  0  0  0  0  0  0  0  0  0
  -24.8242   -0.7194  -12.3583 N   0  0  0  0  0  0  0  0  0  0  0  0
  -25.7030   -1.2934  -11.2966 C   0  0  0  0  0  0  0  0  0  0  0  0
  -23.8897    0.3682  -12.3380 C   0  0  0  0  0  0  0  0  0  0  0  0
  -13.4429    4.7794  -18.6032 C   0  0  0  0  0  0  0  0  0  0  0  0
  -12.7445    3.7672  -19.2984 C   0  0  0  0  0  0  0  0  0  0  0  0
  -13.1225    2.4048  -19.1418 C   0  0  0  0  0  0  0  0  0  0  0  0
  -14.1262    2.0071  -18.1896 C   0  0  0  0  0  0  0  0  0  0  0  0
  -14.8170    2.9637  -17.3997 C   0  0  0  0  0  0  0  0  0  0  0  0
  -14.5990    4.4041  -17.7863 C   0  0  0  0  0  0  0  0  0  0  0  0
  -11.2909    5.8360  -18.4938 C   0  0  0  0  0  0  0  0  0  0  0  0
  -12.7173    5.9884  -18.4055 O   0  0  0  0  0  0  0  0  0  0  0  0
  -12.4352    1.3883  -19.8037 O   0  0  0  0  0  0  0  0  0  0  0  0
  -13.2334    0.5052  -20.6205 C   0  0  0  0  0  0  0  0  0  0  0  0
  -14.3976    1.3872  -15.3431 C   0  0  0  0  0  0  0  0  0  0  0  0
  -13.5265    1.8686  -14.1717 C   0  0  0  0  0  0  0  0  0  0  0  0
  -13.6339    1.4941  -12.9235 N   0  0  0  0  0  0  0  0  0  0  0  0
  -14.5943    0.5143  -12.6608 O   0  0  0  0  0  0  0  0  0  0  0  0
  -14.1169   -0.3397  -12.6775 H   0  0  0  0  0  0  0  0  0  0  0  0
  -12.6238    3.1141  -14.4469 C   0  0  0  0  0  0  0  0  0  0  0  0
  -11.8866    3.2624  -13.1223 C   0  0  0  0  0  0  0  0  0  0  0  0
  -11.6147    2.9158  -15.5813 C   0  0  0  0  0  0  0  0  0  0  0  0
 24 25  1  0  0  0
 25 18  1  0  0  0
 18 19  1  0  0  0
 18 23  2  0  0  0
 19 20  2  0  0  0
 20 26  1  0  0  0
 20 21  1  0  0  0
 26 27  1  0  0  0
 21 22  2  0  0  0
 22  1  1  0  0  0
 22 23  1  0  0  0
  1 28  1  0  0  0
  1  2  1  0  0  0
 28 29  1  0  0  0
 29 30  2  0  0  0
 29 33  1  0  0  0
 30 31  1  0  0  0
 31 32  1  0  0  0
 33 34  1  0  0  0
 33 35  1  0  0  0
  2  3  1  0  0  0
  2 11  2  0  0  0
  3  4  2  0  0  0
  4  5  1  0  0  0
  5  6  1  0  0  0
  5 10  2  0  0  0
  6  7  2  0  0  0
  7  8  1  0  0  0
  8 12  1  0  0  0
  8  9  2  0  0  0
 12 13  1  0  0  0
 12 17  2  0  0  0
 13 14  2  0  0  0
 14 15  1  0  0  0
 15 16  1  0  0  0
 15 17  1  0  0  0
  9 10  1  0  0  0
 10 11  1  0  0  0
M  END
> <minimizedAffinity>
-8.92568

$$$$
