CHEMBL600603


 40 43  0  0  0  0  0  0  0  0999 V2000
  -23.2861   -0.9830  -13.3747 C   0  0  0  0  0  0  0  0  0  0  0  0
  -23.1318   -1.3148  -12.0319 C   0  0  0  0  0  0  0  0  0  0  0  0
  -24.2229   -1.7661  -11.2724 C   0  0  0  0  0  0  0  0  0  0  0  0
  -25.4971   -1.8846  -11.8403 C   0  0  0  0  0  0  0  0  0  0  0  0
  -25.6437   -1.5965  -13.1987 C   0  0  0  0  0  0  0  0  0  0  0  0
  -24.5542   -1.1249  -13.9483 C   0  0  0  0  0  0  0  0  0  0  0  0
  -24.7743   -0.7957  -15.2290 F   0  0  0  0  0  0  0  0  0  0  0  0
  -26.6429   -2.2816  -11.0985 N   0  0  0  0  0  0  0  0  0  0  0  0
  -26.9891   -1.7965   -9.8465 C   0  0  0  0  0  0  0  0  0  0  0  0
  -26.4173   -0.8857   -9.2573 O   0  0  0  0  0  0  0  0  0  0  0  0
  -27.3285   -2.8471  -11.5849 H   0  0  0  0  0  0  0  0  0  0  0  0
  -28.2138   -2.4617   -9.2333 C   0  0  0  0  0  0  0  0  0  0  0  0
  -27.8055   -3.3040   -8.0051 C   0  0  0  0  0  0  0  0  0  0  0  0
  -28.9511   -4.3129   -7.6448 C   0  0  0  0  0  0  0  0  0  0  0  0
  -29.0418   -4.5677   -6.3212 F   0  0  0  0  0  0  0  0  0  0  0  0
  -30.1564   -3.8855   -8.0821 F   0  0  0  0  0  0  0  0  0  0  0  0
  -28.7264   -5.5114   -8.2513 F   0  0  0  0  0  0  0  0  0  0  0  0
  -27.4888   -2.4077   -6.8364 N   0  0  0  0  0  0  0  0  0  0  0  0
  -26.5400   -2.0273   -6.9374 H   0  0  0  0  0  0  0  0  0  0  0  0
  -28.3753   -1.3675   -6.5050 C   0  0  0  0  0  0  0  0  0  0  0  0
  -29.5256   -1.5570   -5.7323 C   0  0  0  0  0  0  0  0  0  0  0  0
  -30.3215   -0.4771   -5.3326 C   0  0  0  0  0  0  0  0  0  0  0  0
  -29.9780    0.8204   -5.6964 C   0  0  0  0  0  0  0  0  0  0  0  0
  -28.8278    1.0380   -6.4460 C   0  0  0  0  0  0  0  0  0  0  0  0
  -28.0265   -0.0442   -6.8272 C   0  0  0  0  0  0  0  0  0  0  0  0
  -22.1708   -0.4558  -13.9961 O   0  0  0  0  0  0  0  0  0  0  0  0
  -18.1897    2.5697  -14.9460 C   0  0  0  0  0  0  0  0  0  0  0  0
  -19.3362    3.3559  -14.7458 C   0  0  0  0  0  0  0  0  0  0  0  0
  -20.5835    2.8126  -14.4820 C   0  0  0  0  0  0  0  0  0  0  0  0
  -21.5983    3.6580  -14.2317 N   0  0  0  0  0  0  0  0  0  0  0  0
  -22.8014    3.1382  -13.9273 C   0  0  0  0  0  0  0  0  0  0  0  0
  -23.0604    1.7882  -13.8511 C   0  0  0  0  0  0  0  0  0  0  0  0
  -22.0008    0.9114  -14.0797 C   0  0  0  0  0  0  0  0  0  0  0  0
  -20.7307    1.4152  -14.4557 C   0  0  0  0  0  0  0  0  0  0  0  0
  -19.6071    0.6216  -14.7889 C   0  0  0  0  0  0  0  0  0  0  0  0
  -18.3370    1.1798  -15.0188 C   0  0  0  0  0  0  0  0  0  0  0  0
  -16.6362    3.6136  -16.4068 C   0  0  0  0  0  0  0  0  0  0  0  0
  -16.9517    3.1401  -15.0938 O   0  0  0  0  0  0  0  0  0  0  0  0
  -17.3916    0.2254  -15.2788 O   0  0  0  0  0  0  0  0  0  0  0  0
  -16.4347   -0.1040  -14.2836 C   0  0  0  0  0  0  0  0  0  0  0  0
 37 38  1  0  0  0
 38 27  1  0  0  0
 27 28  1  0  0  0
 27 36  2  0  0  0
 28 29  2  0  0  0
 29 30  1  0  0  0
 29 34  1  0  0  0
 30 31  2  0  0  0
 31 32  1  0  0  0
 32 33  2  0  0  0
 33 26  1  0  0  0
 33 34  1  0  0  0
 26  1  1  0  0  0
  1  2  1  0  0  0
  1  6  2  0  0  0
  2  3  2  0  0  0
  3  4  1  0  0  0
  4  8  1  0  0  0
  4  5  2  0  0  0
  8  9  1  0  0  0
  8 11  1  0  0  0
  9 10  2  0  0  0
  9 12  1  0  0  0
 12 13  1  0  0  0
 13 18  1  0  0  0
 13 14  1  0  0  0
 18 20  1  0  0  0
 18 19  1  0  0  0
 20 21  1  0  0  0
 20 25  2  0  0  0
 21 22  2  0  0  0
 22 23  1  0  0  0
 23 24  2  0  0  0
 24 25  1  0  0  0
 14 15  1  0  0  0
 14 16  1  0  0  0
 14 17  1  0  0  0
  5  6  1  0  0  0
  6  7  1  0  0  0
 34 35  2  0  0  0
 35 36  1  0  0  0
 36 39  1  0  0  0
 39 40  1  0  0  0
M  END
> <minimizedAffinity>
-10.74354

$$$$
