CHEMBL452569


 39 43  0  0  0  0  0  0  0  0999 V2000
  -25.5815   10.4346  -16.0090 C   0  0  0  0  0  0  0  0  0  0  0  0
  -26.1125    9.5867  -16.8956 N   0  0  0  0  0  0  0  0  0  0  0  0
  -27.4183    9.5756  -16.6036 N   0  0  0  0  0  0  0  0  0  0  0  0
  -28.3236    8.8263  -17.4410 C   0  0  0  0  0  0  0  0  0  0  0  0
  -27.7873   10.5040  -15.6690 C   0  0  0  0  0  0  0  0  0  0  0  0
  -29.0623   10.9651  -15.2976 C   0  0  0  0  0  0  0  0  0  0  0  0
  -29.1299   12.0384  -14.4174 C   0  0  0  0  0  0  0  0  0  0  0  0
  -27.9615   12.4746  -13.7783 C   0  0  0  0  0  0  0  0  0  0  0  0
  -26.6842   11.9664  -14.1258 C   0  0  0  0  0  0  0  0  0  0  0  0
  -26.5876   11.0053  -15.1551 C   0  0  0  0  0  0  0  0  0  0  0  0
  -22.3018   11.1781  -17.3056 N   0  0  0  0  0  0  0  0  0  0  0  0
  -23.6678   10.9322  -17.4864 C   0  0  0  0  0  0  0  0  0  0  0  0
  -24.2606   10.8874  -18.5549 O   0  0  0  0  0  0  0  0  0  0  0  0
  -24.2657   10.7782  -16.2520 N   0  0  0  0  0  0  0  0  0  0  0  0
  -21.9461   10.9321  -16.3920 H   0  0  0  0  0  0  0  0  0  0  0  0
  -23.9802   11.4801  -15.5850 H   0  0  0  0  0  0  0  0  0  0  0  0
  -19.4777   12.2416  -20.2875 C   0  0  0  0  0  0  0  0  0  0  0  0
  -19.0421   11.7095  -19.0757 C   0  0  0  0  0  0  0  0  0  0  0  0
  -19.9624   11.3498  -18.0792 C   0  0  0  0  0  0  0  0  0  0  0  0
  -21.3336   11.5101  -18.2784 C   0  0  0  0  0  0  0  0  0  0  0  0
  -21.7729   12.0101  -19.5131 C   0  0  0  0  0  0  0  0  0  0  0  0
  -20.8498   12.3781  -20.5036 C   0  0  0  0  0  0  0  0  0  0  0  0
  -18.3901   11.7003  -22.3298 C   0  0  0  0  0  0  0  0  0  0  0  0
  -18.6771   12.6582  -21.3156 O   0  0  0  0  0  0  0  0  0  0  0  0
  -30.3112   12.6578  -14.0634 O   0  0  0  0  0  0  0  0  0  0  0  0
  -31.4423   11.9550  -13.6630 C   0  0  0  0  0  0  0  0  0  0  0  0
  -32.4628   11.5402  -14.5199 C   0  0  0  0  0  0  0  0  0  0  0  0
  -33.5575   10.8852  -13.9620 C   0  0  0  0  0  0  0  0  0  0  0  0
  -33.7246   10.6838  -12.6474 N   0  0  0  0  0  0  0  0  0  0  0  0
  -32.7834   11.1532  -11.8100 C   0  0  0  0  0  0  0  0  0  0  0  0
  -33.0104   11.0392  -10.4478 C   0  0  0  0  0  0  0  0  0  0  0  0
  -32.1132   11.5347   -9.4870 C   0  0  0  0  0  0  0  0  0  0  0  0
  -30.9215   12.1243   -9.9267 C   0  0  0  0  0  0  0  0  0  0  0  0
  -30.6733   12.2194  -11.3039 C   0  0  0  0  0  0  0  0  0  0  0  0
  -31.6067   11.7768  -12.2657 C   0  0  0  0  0  0  0  0  0  0  0  0
  -32.3840   11.5099   -8.1454 O   0  0  0  0  0  0  0  0  0  0  0  0
  -33.0823   12.6166   -7.5883 C   0  0  0  0  0  0  0  0  0  0  0  0
  -29.8996   12.6504   -9.1821 O   0  0  0  0  0  0  0  0  0  0  0  0
  -28.6090   12.0712   -9.2878 C   0  0  0  0  0  0  0  0  0  0  0  0
 23 24  1  0  0  0
 24 17  1  0  0  0
 17 18  1  0  0  0
 17 22  2  0  0  0
 18 19  2  0  0  0
 19 20  1  0  0  0
 20 11  1  0  0  0
 20 21  2  0  0  0
 11 12  1  0  0  0
 11 15  1  0  0  0
 12 13  2  0  0  0
 12 14  1  0  0  0
 14  1  1  0  0  0
 14 16  1  0  0  0
  1  2  2  0  0  0
  1 10  1  0  0  0
  2  3  1  0  0  0
  3  4  1  0  0  0
  3  5  1  0  0  0
  5  6  1  0  0  0
  5 10  2  0  0  0
  6  7  2  0  0  0
  7 25  1  0  0  0
  7  8  1  0  0  0
 25 26  1  0  0  0
 26 27  1  0  0  0
 26 35  2  0  0  0
 27 28  2  0  0  0
 28 29  1  0  0  0
 29 30  2  0  0  0
 30 31  1  0  0  0
 30 35  1  0  0  0
 31 32  2  0  0  0
 32 36  1  0  0  0
 32 33  1  0  0  0
 36 37  1  0  0  0
 33 38  1  0  0  0
 33 34  2  0  0  0
 38 39  1  0  0  0
 34 35  1  0  0  0
  8  9  2  0  0  0
  9 10  1  0  0  0
 21 22  1  0  0  0
M  END
> <minimizedAffinity>
-5.08601

$$$$
