CHEMBL383593


 38 41  0  0  0  0  0  0  0  0999 V2000
  -28.6715   -7.8638   -6.1821 C   0  0  0  0  0  0  0  0  0  0  0  0
  -28.4803   -8.7422   -7.1897 N   0  0  0  0  0  0  0  0  0  0  0  0
  -28.2985   -8.2352   -8.4074 C   0  0  0  0  0  0  0  0  0  0  0  0
  -28.3246   -6.9427   -8.7258 N   0  0  0  0  0  0  0  0  0  0  0  0
  -28.5262   -6.0812   -7.7257 C   0  0  0  0  0  0  0  0  0  0  0  0
  -28.5480   -4.7415   -8.0606 C   0  0  0  0  0  0  0  0  0  0  0  0
  -28.7020   -3.7483   -7.1006 C   0  0  0  0  0  0  0  0  0  0  0  0
  -28.8794   -4.0997   -5.7750 C   0  0  0  0  0  0  0  0  0  0  0  0
  -28.9147   -5.4445   -5.4027 C   0  0  0  0  0  0  0  0  0  0  0  0
  -28.7105   -6.4651   -6.3855 C   0  0  0  0  0  0  0  0  0  0  0  0
  -28.8237   -8.3864   -4.8752 N   0  0  0  0  0  0  0  0  0  0  0  0
  -29.8045   -8.6017   -4.7186 H   0  0  0  0  0  0  0  0  0  0  0  0
  -25.9713  -10.0082   -3.4805 C   0  0  0  0  0  0  0  0  0  0  0  0
  -26.3963  -11.2785   -3.1443 C   0  0  0  0  0  0  0  0  0  0  0  0
  -27.7081  -11.6322   -3.4430 C   0  0  0  0  0  0  0  0  0  0  0  0
  -28.5470  -10.6960   -4.0450 C   0  0  0  0  0  0  0  0  0  0  0  0
  -30.1101  -11.2426   -4.5444 Cl  0  0  0  0  0  0  0  0  0  0  0  0
  -28.0546   -9.4035   -4.3021 C   0  0  0  0  0  0  0  0  0  0  0  0
  -26.7621   -9.0712   -4.0538 N   0  0  0  0  0  0  0  0  0  0  0  0
  -23.8987  -10.8547   -2.8047 C   0  0  0  0  0  0  0  0  0  0  0  0
  -24.6536   -9.7129   -3.1973 O   0  0  0  0  0  0  0  0  0  0  0  0
  -28.7058   -2.4710   -7.5809 O   0  0  0  0  0  0  0  0  0  0  0  0
  -27.4899   -1.9996   -8.1560 C   0  0  0  0  0  0  0  0  0  0  0  0
  -27.7639   -1.7097   -9.6224 C   0  0  0  0  0  0  0  0  0  0  0  0
  -26.4732   -1.8406  -10.4270 C   0  0  0  0  0  0  0  0  0  0  0  0
  -26.5987   -1.3879  -11.8194 N   0  0  0  0  0  0  0  0  0  0  0  0
  -25.7997   -2.2565  -12.7201 C   0  0  0  0  0  0  0  0  0  0  0  0
  -24.2692   -2.0642  -12.6152 C   0  0  0  0  0  0  0  0  0  0  0  0
  -23.8828   -0.6491  -12.6848 N   0  0  0  0  0  0  0  0  0  0  0  0
  -22.7987   -0.2917  -13.4577 C   0  0  0  0  0  0  0  0  0  0  0  0
  -22.3788    1.1555  -13.5406 C   0  0  0  0  0  0  0  0  0  0  0  0
  -22.1684   -1.1233  -14.1191 O   0  0  0  0  0  0  0  0  0  0  0  0
  -24.6656    0.2395  -11.8173 C   0  0  0  0  0  0  0  0  0  0  0  0
  -26.1731    0.0097  -12.0284 C   0  0  0  0  0  0  0  0  0  0  0  0
  -29.1496   -5.8425   -4.1049 O   0  0  0  0  0  0  0  0  0  0  0  0
  -30.4011   -5.4953   -3.4891 C   0  0  0  0  0  0  0  0  0  0  0  0
  -30.5518   -3.9813   -3.3999 C   0  0  0  0  0  0  0  0  0  0  0  0
  -31.5182   -6.0705   -4.3606 C   0  0  0  0  0  0  0  0  0  0  0  0
 20 21  1  0  0  0
 21 13  1  0  0  0
 13 14  1  0  0  0
 13 19  2  0  0  0
 14 15  2  0  0  0
 15 16  1  0  0  0
 16 17  1  0  0  0
 16 18  2  0  0  0
 18 11  1  0  0  0
 18 19  1  0  0  0
 11  1  1  0  0  0
 11 12  1  0  0  0
  1  2  1  0  0  0
  1 10  2  0  0  0
  2  3  2  0  0  0
  3  4  1  0  0  0
  4  5  2  0  0  0
  5  6  1  0  0  0
  5 10  1  0  0  0
  6  7  2  0  0  0
  7 22  1  0  0  0
  7  8  1  0  0  0
 22 23  1  0  0  0
 23 24  1  0  0  0
 24 25  1  0  0  0
 25 26  1  0  0  0
 26 27  1  0  0  0
 26 34  1  0  0  0
 27 28  1  0  0  0
 28 29  1  0  0  0
 29 30  1  0  0  0
 29 33  1  0  0  0
 30 31  1  0  0  0
 30 32  2  0  0  0
 33 34  1  0  0  0
  8  9  2  0  0  0
  9 35  1  0  0  0
  9 10  1  0  0  0
 35 36  1  0  0  0
 36 37  1  0  0  0
 36 38  1  0  0  0
M  END
> <minimizedAffinity>
-6.52589

$$$$
