CHEMBL1242032


 27 29  0  0  0  0  0  0  0  0999 V2000
  -29.2182   -7.1620   -7.4007 N   0  0  0  0  0  0  0  0  0  0  0  0
  -29.3150   -5.8414   -7.6762 N   0  0  0  0  0  0  0  0  0  0  0  0
  -29.2356   -5.2411   -6.4733 C   0  0  0  0  0  0  0  0  0  0  0  0
  -29.1600   -6.2070   -5.4145 C   0  0  0  0  0  0  0  0  0  0  0  0
  -29.1042   -6.2451   -4.0094 C   0  0  0  0  0  0  0  0  0  0  0  0
  -29.1555   -5.1454   -3.1622 N   0  0  0  0  0  0  0  0  0  0  0  0
  -29.0004   -7.4373   -3.3938 N   0  0  0  0  0  0  0  0  0  0  0  0
  -28.9736   -8.5499   -4.1493 C   0  0  0  0  0  0  0  0  0  0  0  0
  -29.0440   -8.6447   -5.4852 N   0  0  0  0  0  0  0  0  0  0  0  0
  -29.1358   -7.4326   -6.0613 C   0  0  0  0  0  0  0  0  0  0  0  0
  -29.7620   -4.3971   -3.4727 H   0  0  0  0  0  0  0  0  0  0  0  0
  -29.2892   -5.4407   -2.2016 H   0  0  0  0  0  0  0  0  0  0  0  0
  -29.2702   -3.7780   -6.3650 C   0  0  0  0  0  0  0  0  0  0  0  0
  -30.2779   -3.1303   -5.6329 C   0  0  0  0  0  0  0  0  0  0  0  0
  -30.2129   -1.7510   -5.4001 C   0  0  0  0  0  0  0  0  0  0  0  0
  -29.1173   -1.0267   -5.8776 C   0  0  0  0  0  0  0  0  0  0  0  0
  -28.1539   -1.6401   -6.6740 C   0  0  0  0  0  0  0  0  0  0  0  0
  -28.2640   -2.9999   -6.9519 C   0  0  0  0  0  0  0  0  0  0  0  0
  -28.9321    0.6858   -5.4905 S   0  0  0  0  0  0  0  0  0  0  0  0
  -28.3707    1.2862   -6.9568 N   0  0  0  0  0  0  0  0  0  0  0  0
  -30.2332    1.2781   -5.2956 O   0  0  0  0  0  0  0  0  0  0  0  0
  -27.8486    0.8518   -4.5472 O   0  0  0  0  0  0  0  0  0  0  0  0
  -29.0463    1.9450   -7.3457 H   0  0  0  0  0  0  0  0  0  0  0  0
  -27.4328    1.6703   -6.8390 H   0  0  0  0  0  0  0  0  0  0  0  0
  -27.8275   -8.8816   -8.5334 C   0  0  0  0  0  0  0  0  0  0  0  0
  -29.1627   -8.1371   -8.4867 C   0  0  0  0  0  0  0  0  0  0  0  0
  -30.3295   -9.1219   -8.4039 C   0  0  0  0  0  0  0  0  0  0  0  0
 25 26  1  0  0  0
 26 27  1  0  0  0
 26  1  1  0  0  0
  1  2  1  0  0  0
  1 10  1  0  0  0
  2  3  2  0  0  0
  3 13  1  0  0  0
  3  4  1  0  0  0
 13 14  1  0  0  0
 13 18  2  0  0  0
 14 15  2  0  0  0
 15 16  1  0  0  0
 16 19  1  0  0  0
 16 17  2  0  0  0
 19 20  1  0  0  0
 19 21  2  0  0  0
 19 22  2  0  0  0
 20 23  1  0  0  0
 20 24  1  0  0  0
 17 18  1  0  0  0
  4  5  1  0  0  0
  4 10  2  0  0  0
  5  6  1  0  0  0
  5  7  2  0  0  0
  6 11  1  0  0  0
  6 12  1  0  0  0
  7  8  1  0  0  0
  8  9  2  0  0  0
  9 10  1  0  0  0
M  END
> <minimizedAffinity>
-8.07703

$$$$
