CHEMBL3956056


 35 39  0  0  0  0  0  0  0  0999 V2000
  -29.5078   -5.0027   -6.9920 C   0  0  0  0  0  0  0  0  0  0  0  0
  -29.0331   -4.2267   -8.0516 C   0  0  0  0  0  0  0  0  0  0  0  0
  -28.5122   -2.9330   -7.8210 C   0  0  0  0  0  0  0  0  0  0  0  0
  -27.9566   -2.0999   -8.8013 C   0  0  0  0  0  0  0  0  0  0  0  0
  -27.4197   -0.8998   -8.4964 N   0  0  0  0  0  0  0  0  0  0  0  0
  -27.4455   -0.5274   -7.2169 C   0  0  0  0  0  0  0  0  0  0  0  0
  -27.9591   -1.2342   -6.2095 N   0  0  0  0  0  0  0  0  0  0  0  0
  -28.4781   -2.4195   -6.5225 C   0  0  0  0  0  0  0  0  0  0  0  0
  -29.0116   -3.1721   -5.4965 C   0  0  0  0  0  0  0  0  0  0  0  0
  -29.5800   -4.4339   -5.7134 C   0  0  0  0  0  0  0  0  0  0  0  0
  -29.0835   -7.1160   -7.9756 C   0  0  0  0  0  0  0  0  0  0  0  0
  -29.9231   -6.2985   -7.1551 O   0  0  0  0  0  0  0  0  0  0  0  0
  -27.9168   -2.5275  -10.1544 N   0  0  0  0  0  0  0  0  0  0  0  0
  -28.8622   -2.5850  -10.5203 H   0  0  0  0  0  0  0  0  0  0  0  0
  -26.9790   -2.0218  -11.0788 C   0  0  0  0  0  0  0  0  0  0  0  0
  -27.4050   -1.6011  -12.3480 C   0  0  0  0  0  0  0  0  0  0  0  0
  -26.4855   -1.2270  -13.3262 C   0  0  0  0  0  0  0  0  0  0  0  0
  -25.1227   -1.2533  -13.0383 C   0  0  0  0  0  0  0  0  0  0  0  0
  -24.0300   -0.8517  -14.3135 Cl  0  0  0  0  0  0  0  0  0  0  0  0
  -24.6880   -1.6206  -11.7585 C   0  0  0  0  0  0  0  0  0  0  0  0
  -23.0137   -1.6671  -11.3315 Cl  0  0  0  0  0  0  0  0  0  0  0  0
  -25.6158   -1.9947  -10.7787 C   0  0  0  0  0  0  0  0  0  0  0  0
  -30.2009   -5.1456   -4.7110 O   0  0  0  0  0  0  0  0  0  0  0  0
  -29.3145   -5.5631   -3.6549 C   0  0  0  0  0  0  0  0  0  0  0  0
  -28.8417   -6.9627   -3.7930 C   0  0  0  0  0  0  0  0  0  0  0  0
  -29.3448   -7.9627   -3.0546 N   0  0  0  0  0  0  0  0  0  0  0  0
  -28.5515   -9.0513   -3.4091 O   0  0  0  0  0  0  0  0  0  0  0  0
  -27.6373   -8.5884   -4.3117 C   0  0  0  0  0  0  0  0  0  0  0  0
  -27.7603   -7.3036   -4.5679 N   0  0  0  0  0  0  0  0  0  0  0  0
  -26.6757   -9.5989   -4.8528 C   0  0  0  0  0  0  0  0  0  0  0  0
  -25.9239  -10.2816   -3.7003 C   0  0  0  0  0  0  0  0  0  0  0  0
  -26.2966  -11.7566   -3.7798 C   0  0  0  0  0  0  0  0  0  0  0  0
  -27.5203  -11.7984   -4.6738 C   0  0  0  0  0  0  0  0  0  0  0  0
  -27.2518  -10.7236   -5.6249 N   0  0  0  0  0  0  0  0  0  0  0  0
  -28.4112  -10.3960   -6.4415 C   0  0  0  0  0  0  0  0  0  0  0  0
 11 12  1  0  0  0
 12  1  1  0  0  0
  1  2  1  0  0  0
  1 10  2  0  0  0
  2  3  2  0  0  0
  3  4  1  0  0  0
  3  8  1  0  0  0
  4 13  1  0  0  0
  4  5  2  0  0  0
 13 15  1  0  0  0
 13 14  1  0  0  0
 15 16  1  0  0  0
 15 22  2  0  0  0
 16 17  2  0  0  0
 17 18  1  0  0  0
 18 19  1  0  0  0
 18 20  2  0  0  0
 20 21  1  0  0  0
 20 22  1  0  0  0
  5  6  1  0  0  0
  6  7  2  0  0  0
  7  8  1  0  0  0
  8  9  2  0  0  0
  9 10  1  0  0  0
 10 23  1  0  0  0
 23 24  1  0  0  0
 24 25  1  0  0  0
 25 26  2  0  0  0
 25 29  1  0  0  0
 26 27  1  0  0  0
 27 28  1  0  0  0
 28 30  1  0  0  0
 28 29  2  0  0  0
 30 31  1  0  0  0
 30 34  1  0  0  0
 31 32  1  0  0  0
 32 33  1  0  0  0
 33 34  1  0  0  0
 34 35  1  0  0  0
M  END
> <minimizedAffinity>
-8.64850

$$$$
