CHEMBL3782044


 40 44  0  0  0  0  0  0  0  0999 V2000
  -13.5338    5.3242  -16.2530 N   0  0  0  0  0  0  0  0  0  0  0  0
  -12.5683    5.4442  -15.9762 H   0  0  0  0  0  0  0  0  0  0  0  0
  -14.3447    7.2134  -19.9091 C   0  0  0  0  0  0  0  0  0  0  0  0
  -14.8780    6.0141  -19.6009 N   0  0  0  0  0  0  0  0  0  0  0  0
  -14.5770    5.4072  -18.4113 N   0  0  0  0  0  0  0  0  0  0  0  0
  -13.7377    5.9735  -17.5144 C   0  0  0  0  0  0  0  0  0  0  0  0
  -13.1395    7.2250  -17.7994 C   0  0  0  0  0  0  0  0  0  0  0  0
  -12.2643    7.9020  -16.9097 C   0  0  0  0  0  0  0  0  0  0  0  0
  -11.6620    9.1152  -17.2467 C   0  0  0  0  0  0  0  0  0  0  0  0
  -11.9198    9.6932  -18.4789 C   0  0  0  0  0  0  0  0  0  0  0  0
  -12.7942    9.0680  -19.3666 C   0  0  0  0  0  0  0  0  0  0  0  0
  -13.4251    7.8414  -19.0498 C   0  0  0  0  0  0  0  0  0  0  0  0
  -14.9294    7.8645  -21.1451 C   0  0  0  0  0  0  0  0  0  0  0  0
  -18.6079   10.1642  -20.9879 C   0  0  0  0  0  0  0  0  0  0  0  0
  -17.5145   10.5515  -20.2134 C   0  0  0  0  0  0  0  0  0  0  0  0
  -16.3265    9.8045  -20.2328 C   0  0  0  0  0  0  0  0  0  0  0  0
  -16.2176    8.6499  -21.0170 C   0  0  0  0  0  0  0  0  0  0  0  0
  -17.3146    8.2876  -21.8164 C   0  0  0  0  0  0  0  0  0  0  0  0
  -18.4962    9.0341  -21.7966 C   0  0  0  0  0  0  0  0  0  0  0  0
  -20.2435   11.4920  -19.8870 C   0  0  0  0  0  0  0  0  0  0  0  0
  -19.8190   10.7964  -21.0524 O   0  0  0  0  0  0  0  0  0  0  0  0
  -13.8270    3.9423  -16.0451 C   0  0  0  0  0  0  0  0  0  0  0  0
  -12.7979    3.0132  -15.9041 C   0  0  0  0  0  0  0  0  0  0  0  0
  -13.0691    1.6726  -15.6387 C   0  0  0  0  0  0  0  0  0  0  0  0
  -14.3750    1.2132  -15.4728 C   0  0  0  0  0  0  0  0  0  0  0  0
  -15.4086    2.1517  -15.5310 C   0  0  0  0  0  0  0  0  0  0  0  0
  -15.1356    3.5075  -15.7987 C   0  0  0  0  0  0  0  0  0  0  0  0
  -14.6808   -0.1570  -15.2745 N   0  0  0  0  0  0  0  0  0  0  0  0
  -14.7719   -0.7865  -14.0444 C   0  0  0  0  0  0  0  0  0  0  0  0
  -14.7466   -0.2210  -12.9570 O   0  0  0  0  0  0  0  0  0  0  0  0
  -14.8622   -2.1689  -14.1585 N   0  0  0  0  0  0  0  0  0  0  0  0
  -14.9183   -0.7041  -16.0892 H   0  0  0  0  0  0  0  0  0  0  0  0
  -14.2939   -2.5584  -14.9008 H   0  0  0  0  0  0  0  0  0  0  0  0
  -14.9099   -2.9605  -12.9713 C   0  0  0  0  0  0  0  0  0  0  0  0
  -16.1397   -3.3626  -12.4310 C   0  0  0  0  0  0  0  0  0  0  0  0
  -16.1955   -4.0405  -11.2124 C   0  0  0  0  0  0  0  0  0  0  0  0
  -15.0205   -4.3291  -10.5233 C   0  0  0  0  0  0  0  0  0  0  0  0
  -13.7870   -3.9629  -11.0661 C   0  0  0  0  0  0  0  0  0  0  0  0
  -13.7298   -3.2970  -12.2948 C   0  0  0  0  0  0  0  0  0  0  0  0
  -12.1848   -2.8184  -12.9048 Cl  0  0  0  0  0  0  0  0  0  0  0  0
 20 21  1  0  0  0
 21 14  1  0  0  0
 14 15  1  0  0  0
 14 19  2  0  0  0
 15 16  2  0  0  0
 16 17  1  0  0  0
 17 13  1  0  0  0
 17 18  2  0  0  0
 13  3  1  0  0  0
  3  4  1  0  0  0
  3 12  2  0  0  0
  4  5  2  0  0  0
  5  6  1  0  0  0
  6  1  1  0  0  0
  6  7  2  0  0  0
  1 22  1  0  0  0
  1  2  1  0  0  0
 22 23  1  0  0  0
 22 27  2  0  0  0
 23 24  2  0  0  0
 24 25  1  0  0  0
 25 28  1  0  0  0
 25 26  2  0  0  0
 28 29  1  0  0  0
 28 32  1  0  0  0
 29 30  2  0  0  0
 29 31  1  0  0  0
 31 34  1  0  0  0
 31 33  1  0  0  0
 34 35  1  0  0  0
 34 39  2  0  0  0
 35 36  2  0  0  0
 36 37  1  0  0  0
 37 38  2  0  0  0
 38 39  1  0  0  0
 39 40  1  0  0  0
 26 27  1  0  0  0
  7  8  1  0  0  0
  7 12  1  0  0  0
  8  9  2  0  0  0
  9 10  1  0  0  0
 10 11  2  0  0  0
 11 12  1  0  0  0
 18 19  1  0  0  0
M  END
> <minimizedAffinity>
-7.76765

$$$$
