CHEMBL3822791


 25 28  0  0  0  0  0  0  0  0999 V2000
  -28.9162   -5.4768   -6.8906 C   0  0  0  0  0  0  0  0  0  0  0  0
  -28.9161   -5.1251   -5.5482 C   0  0  0  0  0  0  0  0  0  0  0  0
  -28.5915   -3.8141   -5.1953 C   0  0  0  0  0  0  0  0  0  0  0  0
  -28.2965   -2.8439   -6.1427 C   0  0  0  0  0  0  0  0  0  0  0  0
  -27.9952   -1.6153   -5.6934 N   0  0  0  0  0  0  0  0  0  0  0  0
  -27.7156   -0.6567   -6.5961 C   0  0  0  0  0  0  0  0  0  0  0  0
  -27.7495   -0.8582   -7.9584 C   0  0  0  0  0  0  0  0  0  0  0  0
  -28.0982   -2.1201   -8.4489 C   0  0  0  0  0  0  0  0  0  0  0  0
  -28.3362   -3.1758   -7.5195 C   0  0  0  0  0  0  0  0  0  0  0  0
  -28.6325   -4.5198   -7.8709 C   0  0  0  0  0  0  0  0  0  0  0  0
  -28.9981   -8.1217   -5.9681 C   0  0  0  0  0  0  0  0  0  0  0  0
  -29.3935   -7.1188   -7.3743 S   0  0  0  0  0  0  0  0  0  0  0  0
  -28.5201   -7.5145   -8.4623 O   0  0  0  0  0  0  0  0  0  0  0  0
  -30.8336   -7.1203   -7.5415 O   0  0  0  0  0  0  0  0  0  0  0  0
  -28.2020   -2.3091   -9.8543 N   0  0  0  0  0  0  0  0  0  0  0  0
  -29.1369   -2.1433  -10.2131 H   0  0  0  0  0  0  0  0  0  0  0  0
  -27.2716   -1.9337  -10.8602 C   0  0  0  0  0  0  0  0  0  0  0  0
  -27.6352   -1.7317  -12.1942 C   0  0  0  0  0  0  0  0  0  0  0  0
  -26.6862   -1.4353  -13.1808 C   0  0  0  0  0  0  0  0  0  0  0  0
  -25.3380   -1.3671  -12.8036 C   0  0  0  0  0  0  0  0  0  0  0  0
  -23.9476   -1.0910  -13.7831 S   0  0  0  0  0  0  0  0  0  0  0  0
  -22.9539   -1.2548  -12.3994 C   0  0  0  0  0  0  0  0  0  0  0  0
  -23.5687   -1.4672  -11.2583 N   0  0  0  0  0  0  0  0  0  0  0  0
  -24.9354   -1.5482  -11.4792 C   0  0  0  0  0  0  0  0  0  0  0  0
  -25.9181   -1.8158  -10.5021 C   0  0  0  0  0  0  0  0  0  0  0  0
 11 12  1  0  0  0
 12 13  2  0  0  0
 12 14  2  0  0  0
 12  1  1  0  0  0
  1  2  1  0  0  0
  1 10  2  0  0  0
  2  3  2  0  0  0
  3  4  1  0  0  0
  4  5  1  0  0  0
  4  9  2  0  0  0
  5  6  2  0  0  0
  6  7  1  0  0  0
  7  8  2  0  0  0
  8 15  1  0  0  0
  8  9  1  0  0  0
 15 17  1  0  0  0
 15 16  1  0  0  0
 17 18  1  0  0  0
 17 25  2  0  0  0
 18 19  2  0  0  0
 19 20  1  0  0  0
 20 21  1  0  0  0
 20 24  2  0  0  0
 21 22  1  0  0  0
 22 23  2  0  0  0
 23 24  1  0  0  0
 24 25  1  0  0  0
  9 10  1  0  0  0
M  END
> <minimizedAffinity>
-8.52549

$$$$
