CHEMBL3964762


 40 44  0  0  0  0  0  0  0  0999 V2000
  -28.0688   -1.9644   -9.1468 N   0  0  0  0  0  0  0  0  0  0  0  0
  -27.1000   -1.7070  -10.1721 C   0  0  0  0  0  0  0  0  0  0  0  0
  -25.8842   -1.2802   -9.7554 C   0  0  0  0  0  0  0  0  0  0  0  0
  -25.0060   -0.9464  -10.7109 C   0  0  0  0  0  0  0  0  0  0  0  0
  -25.2499   -0.8841  -12.0458 C   0  0  0  0  0  0  0  0  0  0  0  0
  -24.6278    0.1855  -12.3169 N   0  0  0  0  0  0  0  0  0  0  0  0
  -23.3932   -0.0450  -12.5872 C   0  0  0  0  0  0  0  0  0  0  0  0
  -23.3291   -0.3109  -13.8413 C   0  0  0  0  0  0  0  0  0  0  0  0
  -24.8217   -0.9605  -14.1722 N   0  0  0  0  0  0  0  0  0  0  0  0
  -26.0411   -1.3503  -12.9430 C   0  0  0  0  0  0  0  0  0  0  0  0
  -27.2417   -1.7259  -11.6871 C   0  0  0  0  0  0  0  0  0  0  0  0
  -21.7188    0.4037  -14.2826 C   0  0  0  0  0  0  0  0  0  0  0  0
  -20.4035   -0.0019  -15.1536 C   0  0  0  0  0  0  0  0  0  0  0  0
  -19.5310    1.0111  -15.4618 N   0  0  0  0  0  0  0  0  0  0  0  0
  -20.1027    2.1215  -14.9647 N   0  0  0  0  0  0  0  0  0  0  0  0
  -19.4657    3.4745  -15.1559 C   0  0  0  0  0  0  0  0  0  0  0  0
  -21.3609    1.7585  -14.3394 C   0  0  0  0  0  0  0  0  0  0  0  0
  -28.6185    0.3156   -6.1502 C   0  0  0  0  0  0  0  0  0  0  0  0
  -28.1521   -0.4543   -5.1487 C   0  0  0  0  0  0  0  0  0  0  0  0
  -27.6287   -1.7096   -5.4397 C   0  0  0  0  0  0  0  0  0  0  0  0
  -27.5659   -2.1991   -6.7536 C   0  0  0  0  0  0  0  0  0  0  0  0
  -28.0534   -1.4718   -7.8131 C   0  0  0  0  0  0  0  0  0  0  0  0
  -28.4093   -0.1692   -7.4335 C   0  0  0  0  0  0  0  0  0  0  0  0
  -30.6785    1.3445   -5.8091 C   0  0  0  0  0  0  0  0  0  0  0  0
  -29.2537    1.4825   -5.8529 O   0  0  0  0  0  0  0  0  0  0  0  0
  -27.2133   -2.5547   -4.4546 O   0  0  0  0  0  0  0  0  0  0  0  0
  -28.2353   -2.8541   -3.5052 C   0  0  0  0  0  0  0  0  0  0  0  0
  -28.8299   -3.2874   -9.3727 C   0  0  0  0  0  0  0  0  0  0  0  0
  -29.1435   -3.9717   -8.0528 C   0  0  0  0  0  0  0  0  0  0  0  0
  -29.4057   -4.5522   -7.0056 C   0  0  0  0  0  0  0  0  0  0  0  0
  -29.7419   -5.2778   -5.6828 C   0  0  0  0  0  0  0  0  0  0  0  0
  -30.8709   -4.9852   -4.9412 C   0  0  0  0  0  0  0  0  0  0  0  0
  -31.0656   -5.6240   -3.7258 C   0  0  0  0  0  0  0  0  0  0  0  0
  -32.4259   -5.3032   -2.7121 Cl  0  0  0  0  0  0  0  0  0  0  0  0
  -30.2752   -6.5881   -3.2667 N   0  0  0  0  0  0  0  0  0  0  0  0
  -29.2571   -6.8991   -4.0709 C   0  0  0  0  0  0  0  0  0  0  0  0
  -28.4521   -7.9149   -3.6353 N   0  0  0  0  0  0  0  0  0  0  0  0
  -28.9335   -6.2708   -5.2424 N   0  0  0  0  0  0  0  0  0  0  0  0
  -28.6548   -8.3811   -2.7664 H   0  0  0  0  0  0  0  0  0  0  0  0
  -27.6630   -8.1852   -4.1894 H   0  0  0  0  0  0  0  0  0  0  0  0
 24 25  1  0  0  0
 25 18  1  0  0  0
 18 19  1  0  0  0
 18 23  2  0  0  0
 19 20  2  0  0  0
 20 26  1  0  0  0
 20 21  1  0  0  0
 26 27  1  0  0  0
 21 22  2  0  0  0
 22  1  1  0  0  0
 22 23  1  0  0  0
  1 28  1  0  0  0
  1  2  1  0  0  0
 28 29  1  0  0  0
 29 30  3  0  0  0
 30 31  1  0  0  0
 31 32  1  0  0  0
 31 38  2  0  0  0
 32 33  2  0  0  0
 33 34  1  0  0  0
 33 35  1  0  0  0
 35 36  2  0  0  0
 36 37  1  0  0  0
 36 38  1  0  0  0
 37 39  1  0  0  0
 37 40  1  0  0  0
  2  3  1  0  0  0
  2 11  2  0  0  0
  3  4  2  0  0  0
  4  5  1  0  0  0
  5  6  1  0  0  0
  5 10  2  0  0  0
  6  7  2  0  0  0
  7  8  1  0  0  0
  8 12  1  0  0  0
  8  9  2  0  0  0
 12 13  1  0  0  0
 12 17  2  0  0  0
 13 14  2  0  0  0
 14 15  1  0  0  0
 15 16  1  0  0  0
 15 17  1  0  0  0
  9 10  1  0  0  0
 10 11  1  0  0  0
M  END
> <minimizedAffinity>
-9.28014

$$$$
