CHEMBL1940849


 22 24  0  0  0  0  0  0  0  0999 V2000
  -28.8534  -10.3430  -11.6414 C   0  0  0  0  0  0  0  0  0  0  0  0
  -28.5288  -10.2465  -10.1802 C   0  0  0  0  0  0  0  0  0  0  0  0
  -27.7820  -11.2338   -9.5385 C   0  0  0  0  0  0  0  0  0  0  0  0
  -27.4953  -11.1245   -8.1735 C   0  0  0  0  0  0  0  0  0  0  0  0
  -27.9371  -10.0467   -7.4156 C   0  0  0  0  0  0  0  0  0  0  0  0
  -27.6396   -9.9870   -6.1092 N   0  0  0  0  0  0  0  0  0  0  0  0
  -28.0929   -8.9243   -5.4040 C   0  0  0  0  0  0  0  0  0  0  0  0
  -27.6335   -9.0116   -3.7423 Cl  0  0  0  0  0  0  0  0  0  0  0  0
  -28.8639   -7.8816   -5.9240 C   0  0  0  0  0  0  0  0  0  0  0  0
  -29.1390   -7.9587   -7.2930 C   0  0  0  0  0  0  0  0  0  0  0  0
  -28.6905   -9.0481   -8.0598 C   0  0  0  0  0  0  0  0  0  0  0  0
  -28.9776   -9.1498   -9.4338 C   0  0  0  0  0  0  0  0  0  0  0  0
  -29.3211   -6.7304   -5.1183 C   0  0  0  0  0  0  0  0  0  0  0  0
  -30.6009   -6.3306   -5.0323 C   0  0  0  0  0  0  0  0  0  0  0  0
  -30.9885   -5.1428   -4.2052 C   0  0  0  0  0  0  0  0  0  0  0  0
  -31.9759   -5.2111   -3.4751 O   0  0  0  0  0  0  0  0  0  0  0  0
  -30.1235   -3.9754   -4.3080 C   0  0  0  0  0  0  0  0  0  0  0  0
  -29.2825   -3.4148   -3.3591 C   0  0  0  0  0  0  0  0  0  0  0  0
  -28.6054   -2.2542   -3.8431 C   0  0  0  0  0  0  0  0  0  0  0  0
  -28.9602   -1.9817   -5.1392 C   0  0  0  0  0  0  0  0  0  0  0  0
  -28.2334   -0.3836   -6.2052 I   0  0  0  0  0  0  0  0  0  0  0  0
  -30.0559   -3.1006   -5.7842 S   0  0  0  0  0  0  0  0  0  0  0  0
  1  2  1  0  0  0
  2  3  1  0  0  0
  2 12  2  0  0  0
  3  4  2  0  0  0
  4  5  1  0  0  0
  5  6  1  0  0  0
  5 11  2  0  0  0
  6  7  2  0  0  0
  7  8  1  0  0  0
  7  9  1  0  0  0
  9 13  1  0  0  0
  9 10  2  0  0  0
 13 14  2  0  0  0
 14 15  1  0  0  0
 15 16  2  0  0  0
 15 17  1  0  0  0
 17 18  2  0  0  0
 17 22  1  0  0  0
 18 19  1  0  0  0
 19 20  2  0  0  0
 20 21  1  0  0  0
 20 22  1  0  0  0
 10 11  1  0  0  0
 11 12  1  0  0  0
M  END
> <minimizedAffinity>
-7.45400

$$$$
