CHEMBL3676341


 35 37  0  0  0  0  0  0  0  0999 V2000
  -13.6881   -3.5223  -12.8056 C   0  0  0  0  0  0  0  0  0  0  0  0
  -14.0378   -2.3418  -13.4693 C   0  0  0  0  0  0  0  0  0  0  0  0
  -13.5017   -2.0267  -14.7469 C   0  0  0  0  0  0  0  0  0  0  0  0
  -13.6647   -0.7890  -15.4081 C   0  0  0  0  0  0  0  0  0  0  0  0
  -13.2607   -0.6054  -16.6857 N   0  0  0  0  0  0  0  0  0  0  0  0
  -12.6450   -1.6364  -17.2748 C   0  0  0  0  0  0  0  0  0  0  0  0
  -12.3479   -2.8091  -16.7039 N   0  0  0  0  0  0  0  0  0  0  0  0
  -12.7705   -2.9994  -15.4409 C   0  0  0  0  0  0  0  0  0  0  0  0
  -12.5014   -4.2125  -14.8039 C   0  0  0  0  0  0  0  0  0  0  0  0
  -12.9433   -4.4998  -13.4968 C   0  0  0  0  0  0  0  0  0  0  0  0
  -15.2879   -4.0010  -10.9917 C   0  0  0  0  0  0  0  0  0  0  0  0
  -15.5495   -4.1948   -9.7966 O   0  0  0  0  0  0  0  0  0  0  0  0
  -14.0386   -3.6065  -11.4282 N   0  0  0  0  0  0  0  0  0  0  0  0
  -13.3334   -4.0212  -10.8297 H   0  0  0  0  0  0  0  0  0  0  0  0
  -16.9341   -5.4704  -12.0945 C   0  0  0  0  0  0  0  0  0  0  0  0
  -16.2759   -4.3049  -12.0680 C   0  0  0  0  0  0  0  0  0  0  0  0
  -14.2105    0.3294  -14.7018 N   0  0  0  0  0  0  0  0  0  0  0  0
  -13.4614    0.9872  -14.4768 H   0  0  0  0  0  0  0  0  0  0  0  0
  -15.4111    0.9875  -15.0784 C   0  0  0  0  0  0  0  0  0  0  0  0
  -15.3538    2.2497  -15.6866 C   0  0  0  0  0  0  0  0  0  0  0  0
  -16.5035    3.0335  -15.8208 C   0  0  0  0  0  0  0  0  0  0  0  0
  -16.3142    4.6363  -16.4380 Cl  0  0  0  0  0  0  0  0  0  0  0  0
  -17.7345    2.5402  -15.3762 C   0  0  0  0  0  0  0  0  0  0  0  0
  -19.1350    3.5460  -15.2474 Cl  0  0  0  0  0  0  0  0  0  0  0  0
  -17.8321    1.2262  -14.9144 C   0  0  0  0  0  0  0  0  0  0  0  0
  -16.6756    0.4574  -14.7831 C   0  0  0  0  0  0  0  0  0  0  0  0
  -16.7789   -0.7719  -14.2553 F   0  0  0  0  0  0  0  0  0  0  0  0
  -12.5973   -5.7697  -13.0543 O   0  0  0  0  0  0  0  0  0  0  0  0
  -13.6542   -6.7221  -13.2064 C   0  0  0  0  0  0  0  0  0  0  0  0
  -13.8766   -7.6424  -12.0042 C   0  0  0  0  0  0  0  0  0  0  0  0
  -12.6041   -8.2109  -11.5473 N   0  0  0  0  0  0  0  0  0  0  0  0
  -11.9748   -9.2582  -12.1865 C   0  0  0  0  0  0  0  0  0  0  0  0
  -10.7004   -9.7258  -11.5226 C   0  0  0  0  0  0  0  0  0  0  0  0
  -12.3989   -9.7681  -13.1954 O   0  0  0  0  0  0  0  0  0  0  0  0
  -12.1258   -7.7658  -10.7737 H   0  0  0  0  0  0  0  0  0  0  0  0
 15 16  2  0  0  0
 16 11  1  0  0  0
 11 12  2  0  0  0
 11 13  1  0  0  0
 13  1  1  0  0  0
 13 14  1  0  0  0
  1  2  1  0  0  0
  1 10  2  0  0  0
  2  3  2  0  0  0
  3  4  1  0  0  0
  3  8  1  0  0  0
  4 17  1  0  0  0
  4  5  2  0  0  0
 17 19  1  0  0  0
 17 18  1  0  0  0
 19 20  1  0  0  0
 19 26  2  0  0  0
 20 21  2  0  0  0
 21 22  1  0  0  0
 21 23  1  0  0  0
 23 24  1  0  0  0
 23 25  2  0  0  0
 25 26  1  0  0  0
 26 27  1  0  0  0
  5  6  1  0  0  0
  6  7  2  0  0  0
  7  8  1  0  0  0
  8  9  2  0  0  0
  9 10  1  0  0  0
 10 28  1  0  0  0
 28 29  1  0  0  0
 29 30  1  0  0  0
 30 31  1  0  0  0
 31 32  1  0  0  0
 31 35  1  0  0  0
 32 33  1  0  0  0
 32 34  2  0  0  0
M  END
> <minimizedAffinity>
-7.39618

$$$$
