CHEMBL3706817


 35 38  0  0  0  0  0  0  0  0999 V2000
  -13.2627   -0.8288  -15.2610 C   0  0  0  0  0  0  0  0  0  0  0  0
  -13.2292   -0.8575  -16.6083 N   0  0  0  0  0  0  0  0  0  0  0  0
  -12.8937   -2.0164  -17.1776 C   0  0  0  0  0  0  0  0  0  0  0  0
  -12.5815   -3.1411  -16.5311 N   0  0  0  0  0  0  0  0  0  0  0  0
  -12.5930   -3.0844  -15.1955 C   0  0  0  0  0  0  0  0  0  0  0  0
  -12.1772   -4.1908  -14.4794 C   0  0  0  0  0  0  0  0  0  0  0  0
  -11.9885   -4.2037  -13.0709 C   0  0  0  0  0  0  0  0  0  0  0  0
  -12.4492   -3.0970  -12.3514 C   0  0  0  0  0  0  0  0  0  0  0  0
  -12.9219   -1.9886  -13.0738 C   0  0  0  0  0  0  0  0  0  0  0  0
  -12.9476   -1.9495  -14.4839 C   0  0  0  0  0  0  0  0  0  0  0  0
  -13.5727    0.3929  -14.6080 N   0  0  0  0  0  0  0  0  0  0  0  0
  -13.2042    0.3678  -13.6531 H   0  0  0  0  0  0  0  0  0  0  0  0
  -17.6524    1.6839  -14.4197 C   0  0  0  0  0  0  0  0  0  0  0  0
  -17.1014    0.9831  -13.4194 C   0  0  0  0  0  0  0  0  0  0  0  0
  -15.6770    0.6006  -13.4103 C   0  0  0  0  0  0  0  0  0  0  0  0
  -15.1829    0.0209  -12.4470 O   0  0  0  0  0  0  0  0  0  0  0  0
  -14.8592    0.9095  -14.6157 C   0  0  0  0  0  0  0  0  0  0  0  0
  -15.3988    1.6424  -15.5953 C   0  0  0  0  0  0  0  0  0  0  0  0
  -16.7920    2.0993  -15.5627 C   0  0  0  0  0  0  0  0  0  0  0  0
  -17.2149    2.8125  -16.4721 O   0  0  0  0  0  0  0  0  0  0  0  0
  -18.9740    2.0587  -14.4888 O   0  0  0  0  0  0  0  0  0  0  0  0
  -19.8734    1.2160  -15.1948 C   0  0  0  0  0  0  0  0  0  0  0  0
  -21.9593    0.6472  -13.6318 C   0  0  0  0  0  0  0  0  0  0  0  0
  -21.0237    0.9104  -14.3354 C   0  0  0  0  0  0  0  0  0  0  0  0
  -12.5225   -2.8098  -11.0256 O   0  0  0  0  0  0  0  0  0  0  0  0
  -11.6834   -3.3930  -10.0568 C   0  0  0  0  0  0  0  0  0  0  0  0
  -11.3033   -5.2555  -12.4692 O   0  0  0  0  0  0  0  0  0  0  0  0
  -12.1231   -6.4473  -12.3794 C   0  0  0  0  0  0  0  0  0  0  0  0
  -13.2926   -6.4073  -11.4001 C   0  0  0  0  0  0  0  0  0  0  0  0
  -14.6023   -6.5362  -12.2248 C   0  0  0  0  0  0  0  0  0  0  0  0
  -15.7946   -5.9076  -11.6333 N   0  0  0  0  0  0  0  0  0  0  0  0
  -16.8226   -5.5790  -12.6332 C   0  0  0  0  0  0  0  0  0  0  0  0
  -16.4425   -4.2076  -13.1520 C   0  0  0  0  0  0  0  0  0  0  0  0
  -16.0255   -3.4983  -11.8826 C   0  0  0  0  0  0  0  0  0  0  0  0
  -15.4440   -4.6067  -11.0043 C   0  0  0  0  0  0  0  0  0  0  0  0
 23 24  3  0  0  0
 24 22  1  0  0  0
 22 21  1  0  0  0
 21 13  1  0  0  0
 13 14  2  0  0  0
 13 19  1  0  0  0
 14 15  1  0  0  0
 15 16  2  0  0  0
 15 17  1  0  0  0
 17 11  1  0  0  0
 17 18  2  0  0  0
 11  1  1  0  0  0
 11 12  1  0  0  0
  1  2  1  0  0  0
  1 10  2  0  0  0
  2  3  2  0  0  0
  3  4  1  0  0  0
  4  5  2  0  0  0
  5  6  1  0  0  0
  5 10  1  0  0  0
  6  7  2  0  0  0
  7 27  1  0  0  0
  7  8  1  0  0  0
 27 28  1  0  0  0
 28 29  1  0  0  0
 29 30  1  0  0  0
 30 31  1  0  0  0
 31 32  1  0  0  0
 31 35  1  0  0  0
 32 33  1  0  0  0
 33 34  1  0  0  0
 34 35  1  0  0  0
  8 25  1  0  0  0
  8  9  2  0  0  0
 25 26  1  0  0  0
  9 10  1  0  0  0
 18 19  1  0  0  0
 19 20  2  0  0  0
M  END
> <minimizedAffinity>
-7.03360

$$$$
