CHEMBL205050


 29 32  0  0  0  0  0  0  0  0999 V2000
  -29.4434   -6.5096   -3.7139 C   0  0  0  0  0  0  0  0  0  0  0  0
  -30.6802   -6.0661   -3.6349 N   0  0  0  0  0  0  0  0  0  0  0  0
  -30.6817   -4.7846   -4.1515 N   0  0  0  0  0  0  0  0  0  0  0  0
  -29.4533   -4.5389   -4.5562 C   0  0  0  0  0  0  0  0  0  0  0  0
  -28.6155   -5.6007   -4.3109 O   0  0  0  0  0  0  0  0  0  0  0  0
  -28.8517   -3.3687   -5.1957 C   0  0  0  0  0  0  0  0  0  0  0  0
  -28.2937   -2.3571   -4.3850 C   0  0  0  0  0  0  0  0  0  0  0  0
  -27.7290   -1.2130   -4.9395 C   0  0  0  0  0  0  0  0  0  0  0  0
  -27.7366   -1.0936   -6.3085 C   0  0  0  0  0  0  0  0  0  0  0  0
  -28.2512   -2.0323   -7.1248 N   0  0  0  0  0  0  0  0  0  0  0  0
  -28.7846   -3.1705   -6.5859 C   0  0  0  0  0  0  0  0  0  0  0  0
  -29.3462   -4.1406   -7.6134 C   0  0  0  0  0  0  0  0  0  0  0  0
  -28.5012   -5.4260   -7.7345 C   0  0  0  0  0  0  0  0  0  0  0  0
  -29.2401   -6.7436   -7.8001 C   0  0  0  0  0  0  0  0  0  0  0  0
  -30.5371   -6.8063   -7.2713 C   0  0  0  0  0  0  0  0  0  0  0  0
  -31.2477   -7.9942   -7.3520 C   0  0  0  0  0  0  0  0  0  0  0  0
  -30.7677   -9.1133   -7.9290 N   0  0  0  0  0  0  0  0  0  0  0  0
  -29.5255   -9.0320   -8.4522 C   0  0  0  0  0  0  0  0  0  0  0  0
  -28.7362   -7.8880   -8.4198 C   0  0  0  0  0  0  0  0  0  0  0  0
  -28.9638   -7.7141   -3.3456 N   0  0  0  0  0  0  0  0  0  0  0  0
  -28.8434   -7.8353   -2.3459 H   0  0  0  0  0  0  0  0  0  0  0  0
  -28.4697  -10.7027   -5.5131 C   0  0  0  0  0  0  0  0  0  0  0  0
  -27.0967  -10.6745   -5.7350 C   0  0  0  0  0  0  0  0  0  0  0  0
  -26.3263   -9.6615   -5.1682 C   0  0  0  0  0  0  0  0  0  0  0  0
  -26.9214   -8.6782   -4.3730 C   0  0  0  0  0  0  0  0  0  0  0  0
  -28.2951   -8.6911   -4.1093 C   0  0  0  0  0  0  0  0  0  0  0  0
  -29.0563   -9.7139   -4.7091 C   0  0  0  0  0  0  0  0  0  0  0  0
  -30.5198  -11.8828   -5.2598 C   0  0  0  0  0  0  0  0  0  0  0  0
  -29.3422  -11.6288   -6.0186 O   0  0  0  0  0  0  0  0  0  0  0  0
 28 29  1  0  0  0
 29 22  1  0  0  0
 22 23  1  0  0  0
 22 27  2  0  0  0
 23 24  2  0  0  0
 24 25  1  0  0  0
 25 26  2  0  0  0
 26 20  1  0  0  0
 26 27  1  0  0  0
 20  1  1  0  0  0
 20 21  1  0  0  0
  1  2  2  0  0  0
  1  5  1  0  0  0
  2  3  1  0  0  0
  3  4  2  0  0  0
  4  6  1  0  0  0
  4  5  1  0  0  0
  6  7  1  0  0  0
  6 11  2  0  0  0
  7  8  2  0  0  0
  8  9  1  0  0  0
  9 10  2  0  0  0
 10 11  1  0  0  0
 11 12  1  0  0  0
 12 13  1  0  0  0
 13 14  1  0  0  0
 14 15  1  0  0  0
 14 19  2  0  0  0
 15 16  2  0  0  0
 16 17  1  0  0  0
 17 18  2  0  0  0
 18 19  1  0  0  0
M  END
> <minimizedAffinity>
-7.51647

$$$$
