CHEMBL3702611


 37 41  0  0  0  0  0  0  0  0999 V2000
  -28.3773   -9.8545   -8.4566 C   0  0  0  0  0  0  0  0  0  0  0  0
  -28.5874  -10.5757   -9.6318 C   0  0  0  0  0  0  0  0  0  0  0  0
  -27.8823  -11.7589   -9.8347 C   0  0  0  0  0  0  0  0  0  0  0  0
  -26.9523  -12.1932   -8.8829 C   0  0  0  0  0  0  0  0  0  0  0  0
  -26.7141  -11.4798   -7.6989 C   0  0  0  0  0  0  0  0  0  0  0  0
  -27.4802  -10.3293   -7.4841 C   0  0  0  0  0  0  0  0  0  0  0  0
  -25.7033  -11.8299   -6.8252 N   0  0  0  0  0  0  0  0  0  0  0  0
  -24.3083  -11.8118   -7.2618 C   0  0  0  0  0  0  0  0  0  0  0  0
  -23.4964  -10.9900   -6.2629 C   0  0  0  0  0  0  0  0  0  0  0  0
  -23.7661  -11.4142   -4.8452 C   0  0  0  0  0  0  0  0  0  0  0  0
  -22.8277  -11.0788   -3.9302 N   0  0  0  0  0  0  0  0  0  0  0  0
  -23.0576  -11.4368   -2.6650 C   0  0  0  0  0  0  0  0  0  0  0  0
  -22.1101  -11.0860   -1.7250 N   0  0  0  0  0  0  0  0  0  0  0  0
  -24.1537  -12.0706   -2.2393 N   0  0  0  0  0  0  0  0  0  0  0  0
  -25.0703  -12.3798   -3.1785 C   0  0  0  0  0  0  0  0  0  0  0  0
  -24.9407  -12.0687   -4.5145 C   0  0  0  0  0  0  0  0  0  0  0  0
  -25.9714  -12.4659   -5.5321 C   0  0  0  0  0  0  0  0  0  0  0  0
  -21.5974  -10.2810   -2.0535 H   0  0  0  0  0  0  0  0  0  0  0  0
  -22.5476  -11.0193   -0.8176 H   0  0  0  0  0  0  0  0  0  0  0  0
  -28.2689   -7.5847   -7.5752 N   0  0  0  0  0  0  0  0  0  0  0  0
  -29.0520   -8.5578   -8.1878 C   0  0  0  0  0  0  0  0  0  0  0  0
  -30.2363   -8.4732   -8.4768 O   0  0  0  0  0  0  0  0  0  0  0  0
  -27.3145   -7.8289   -7.3568 H   0  0  0  0  0  0  0  0  0  0  0  0
  -29.4703   -3.7326   -6.3020 C   0  0  0  0  0  0  0  0  0  0  0  0
  -29.5397   -4.8042   -5.4170 C   0  0  0  0  0  0  0  0  0  0  0  0
  -29.1567   -6.0876   -5.8170 C   0  0  0  0  0  0  0  0  0  0  0  0
  -28.7115   -6.3247   -7.1157 C   0  0  0  0  0  0  0  0  0  0  0  0
  -28.6750   -5.2497   -8.0152 C   0  0  0  0  0  0  0  0  0  0  0  0
  -29.0590   -3.9607   -7.6130 C   0  0  0  0  0  0  0  0  0  0  0  0
  -29.8432   -2.5268   -5.7846 O   0  0  0  0  0  0  0  0  0  0  0  0
  -29.3903    1.7816   -7.1859 C   0  0  0  0  0  0  0  0  0  0  0  0
  -28.9021    0.8383   -6.1762 N   0  0  0  0  0  0  0  0  0  0  0  0
  -30.0180    0.4000   -5.3248 C   0  0  0  0  0  0  0  0  0  0  0  0
  -29.5440   -0.6004   -4.2716 C   0  0  0  0  0  0  0  0  0  0  0  0
  -28.9161   -1.8305   -4.9346 C   0  0  0  0  0  0  0  0  0  0  0  0
  -27.7640   -1.3494   -5.8236 C   0  0  0  0  0  0  0  0  0  0  0  0
  -28.2410   -0.3009   -6.8330 C   0  0  0  0  0  0  0  0  0  0  0  0
 31 32  1  0  0  0
 32 33  1  0  0  0
 32 37  1  0  0  0
 33 34  1  0  0  0
 34 35  1  0  0  0
 35 30  1  0  0  0
 35 36  1  0  0  0
 30 24  1  0  0  0
 24 25  1  0  0  0
 24 29  2  0  0  0
 25 26  2  0  0  0
 26 27  1  0  0  0
 27 20  1  0  0  0
 27 28  2  0  0  0
 20 21  1  0  0  0
 20 23  1  0  0  0
 21 22  2  0  0  0
 21  1  1  0  0  0
  1  2  1  0  0  0
  1  6  2  0  0  0
  2  3  2  0  0  0
  3  4  1  0  0  0
  4  5  2  0  0  0
  5  7  1  0  0  0
  5  6  1  0  0  0
  7  8  1  0  0  0
  7 17  1  0  0  0
  8  9  1  0  0  0
  9 10  1  0  0  0
 10 11  1  0  0  0
 10 16  2  0  0  0
 11 12  2  0  0  0
 12 13  1  0  0  0
 12 14  1  0  0  0
 13 18  1  0  0  0
 13 19  1  0  0  0
 14 15  2  0  0  0
 15 16  1  0  0  0
 16 17  1  0  0  0
 28 29  1  0  0  0
 36 37  1  0  0  0
M  END
> <minimizedAffinity>
-8.02694

$$$$
