CHEMBL3656101


 37 40  0  0  0  0  0  0  0  0999 V2000
  -14.8064   -2.2615  -13.1575 C   0  0  0  0  0  0  0  0  0  0  0  0
  -13.4527   -2.0643  -13.4621 C   0  0  0  0  0  0  0  0  0  0  0  0
  -12.4446   -2.5373  -12.6090 C   0  0  0  0  0  0  0  0  0  0  0  0
  -12.7719   -3.2043  -11.4226 C   0  0  0  0  0  0  0  0  0  0  0  0
  -14.1247   -3.3996  -11.1183 C   0  0  0  0  0  0  0  0  0  0  0  0
  -15.1376   -2.9145  -11.9660 C   0  0  0  0  0  0  0  0  0  0  0  0
  -17.3039   -0.2555  -14.9014 N   0  0  0  0  0  0  0  0  0  0  0  0
  -16.3255   -0.5561  -13.9656 C   0  0  0  0  0  0  0  0  0  0  0  0
  -15.8693    0.2311  -13.1442 O   0  0  0  0  0  0  0  0  0  0  0  0
  -15.8185   -1.8589  -14.0769 N   0  0  0  0  0  0  0  0  0  0  0  0
  -17.5089   -0.9448  -15.6081 H   0  0  0  0  0  0  0  0  0  0  0  0
  -15.7012   -2.1683  -15.0318 H   0  0  0  0  0  0  0  0  0  0  0  0
  -21.4644    2.4590  -14.3528 C   0  0  0  0  0  0  0  0  0  0  0  0
  -20.0221    2.3393  -14.7646 C   0  0  0  0  0  0  0  0  0  0  0  0
  -19.3775    3.4615  -15.2917 C   0  0  0  0  0  0  0  0  0  0  0  0
  -18.0441    3.3802  -15.6636 C   0  0  0  0  0  0  0  0  0  0  0  0
  -17.3456    2.1820  -15.5216 C   0  0  0  0  0  0  0  0  0  0  0  0
  -16.0348    2.2473  -15.7839 F   0  0  0  0  0  0  0  0  0  0  0  0
  -17.9593    1.0159  -15.0323 C   0  0  0  0  0  0  0  0  0  0  0  0
  -19.3108    1.1220  -14.6356 C   0  0  0  0  0  0  0  0  0  0  0  0
  -11.4966   -3.8437  -10.3302 S   0  0  0  0  0  0  0  0  0  0  0  0
  -11.3738   -5.5730  -10.7762 C   0  0  0  0  0  0  0  0  0  0  0  0
  -10.7599   -6.4976   -9.9313 C   0  0  0  0  0  0  0  0  0  0  0  0
  -10.6973   -7.8286  -10.3311 C   0  0  0  0  0  0  0  0  0  0  0  0
  -11.1896   -8.2941  -11.5022 N   0  0  0  0  0  0  0  0  0  0  0  0
  -11.7830   -7.3819  -12.2994 C   0  0  0  0  0  0  0  0  0  0  0  0
  -11.9152   -6.0424  -11.9635 C   0  0  0  0  0  0  0  0  0  0  0  0
  -12.2669   -7.8672  -13.5850 C   0  0  0  0  0  0  0  0  0  0  0  0
  -12.2444   -7.2630  -14.8322 C   0  0  0  0  0  0  0  0  0  0  0  0
  -12.8659   -8.1235  -15.7782 C   0  0  0  0  0  0  0  0  0  0  0  0
  -13.2185   -9.2585  -15.0653 C   0  0  0  0  0  0  0  0  0  0  0  0
  -12.8312   -9.1069  -13.7591 N   0  0  0  0  0  0  0  0  0  0  0  0
  -12.9459   -9.7840  -13.0136 H   0  0  0  0  0  0  0  0  0  0  0  0
  -13.1139   -7.9208  -17.1997 C   0  0  0  0  0  0  0  0  0  0  0  0
  -12.2270   -7.9360  -18.0525 O   0  0  0  0  0  0  0  0  0  0  0  0
  -14.4087   -7.7057  -17.5418 O   0  0  0  0  0  0  0  0  0  0  0  0
  -15.0127   -7.7127  -16.7799 H   0  0  0  0  0  0  0  0  0  0  0  0
 13 14  1  0  0  0
 14 15  1  0  0  0
 14 20  2  0  0  0
 15 16  2  0  0  0
 16 17  1  0  0  0
 17 18  1  0  0  0
 17 19  2  0  0  0
 19  7  1  0  0  0
 19 20  1  0  0  0
  7  8  1  0  0  0
  7 11  1  0  0  0
  8  9  2  0  0  0
  8 10  1  0  0  0
 10  1  1  0  0  0
 10 12  1  0  0  0
  1  2  1  0  0  0
  1  6  2  0  0  0
  2  3  2  0  0  0
  3  4  1  0  0  0
  4 21  1  0  0  0
  4  5  2  0  0  0
 21 22  1  0  0  0
 22 23  1  0  0  0
 22 27  2  0  0  0
 23 24  2  0  0  0
 24 25  1  0  0  0
 25 26  2  0  0  0
 26 28  1  0  0  0
 26 27  1  0  0  0
 28 29  2  0  0  0
 28 32  1  0  0  0
 29 30  1  0  0  0
 30 34  1  0  0  0
 30 31  2  0  0  0
 34 35  2  0  0  0
 34 36  1  0  0  0
 36 37  1  0  0  0
 31 32  1  0  0  0
 32 33  1  0  0  0
  5  6  1  0  0  0
M  END
> <minimizedAffinity>
-8.44771

$$$$
