CHEMBL3114030


 28 31  0  0  0  0  0  0  0  0999 V2000
  -31.2606   -9.6377   -8.2472 C   0  0  0  0  0  0  0  0  0  0  0  0
  -32.5896   -9.4815   -8.1832 N   0  0  0  0  0  0  0  0  0  0  0  0
  -33.0520   -8.5890   -7.3047 C   0  0  0  0  0  0  0  0  0  0  0  0
  -32.2393   -7.8460   -6.4914 C   0  0  0  0  0  0  0  0  0  0  0  0
  -30.8720   -8.0321   -6.6122 C   0  0  0  0  0  0  0  0  0  0  0  0
  -30.3933   -8.9462   -7.4892 N   0  0  0  0  0  0  0  0  0  0  0  0
  -30.7299  -10.5741   -9.1437 N   0  0  0  0  0  0  0  0  0  0  0  0
  -31.0485  -11.4946   -8.8573 H   0  0  0  0  0  0  0  0  0  0  0  0
  -27.5159   -9.3693  -12.7160 C   0  0  0  0  0  0  0  0  0  0  0  0
  -27.8051  -10.0048  -11.3878 C   0  0  0  0  0  0  0  0  0  0  0  0
  -26.7669  -10.5428  -10.6157 C   0  0  0  0  0  0  0  0  0  0  0  0
  -27.0331  -11.1234   -9.3728 C   0  0  0  0  0  0  0  0  0  0  0  0
  -25.9409  -11.7019   -8.5248 C   0  0  0  0  0  0  0  0  0  0  0  0
  -28.3484  -11.1390   -8.9004 C   0  0  0  0  0  0  0  0  0  0  0  0
  -29.4031  -10.5680   -9.6289 C   0  0  0  0  0  0  0  0  0  0  0  0
  -29.1211  -10.0441  -10.8975 C   0  0  0  0  0  0  0  0  0  0  0  0
  -29.9635   -7.2875   -5.8165 N   0  0  0  0  0  0  0  0  0  0  0  0
  -29.1609   -8.0251   -4.8330 C   0  0  0  0  0  0  0  0  0  0  0  0
  -29.8855   -5.8599   -5.7534 C   0  0  0  0  0  0  0  0  0  0  0  0
  -30.6271   -5.1613   -4.7224 C   0  0  0  0  0  0  0  0  0  0  0  0
  -30.6234   -3.7625   -4.4987 C   0  0  0  0  0  0  0  0  0  0  0  0
  -29.7944   -3.1264   -5.4075 C   0  0  0  0  0  0  0  0  0  0  0  0
  -29.5139   -1.7883   -5.4379 C   0  0  0  0  0  0  0  0  0  0  0  0
  -28.6276   -1.6481   -6.4678 N   0  0  0  0  0  0  0  0  0  0  0  0
  -27.9547   -0.4369   -6.8718 C   0  0  0  0  0  0  0  0  0  0  0  0
  -28.3540   -2.7920   -7.1274 N   0  0  0  0  0  0  0  0  0  0  0  0
  -29.0467   -3.7370   -6.4685 C   0  0  0  0  0  0  0  0  0  0  0  0
  -29.0954   -5.1252   -6.6806 C   0  0  0  0  0  0  0  0  0  0  0  0
  9 10  1  0  0  0
 10 11  1  0  0  0
 10 16  2  0  0  0
 11 12  2  0  0  0
 12 13  1  0  0  0
 12 14  1  0  0  0
 14 15  2  0  0  0
 15  7  1  0  0  0
 15 16  1  0  0  0
  7  1  1  0  0  0
  7  8  1  0  0  0
  1  2  1  0  0  0
  1  6  2  0  0  0
  2  3  2  0  0  0
  3  4  1  0  0  0
  4  5  2  0  0  0
  5 17  1  0  0  0
  5  6  1  0  0  0
 17 18  1  0  0  0
 17 19  1  0  0  0
 19 20  1  0  0  0
 19 28  2  0  0  0
 20 21  2  0  0  0
 21 22  1  0  0  0
 22 23  2  0  0  0
 22 27  1  0  0  0
 23 24  1  0  0  0
 24 25  1  0  0  0
 24 26  1  0  0  0
 26 27  2  0  0  0
 27 28  1  0  0  0
M  END
> <minimizedAffinity>
-8.88298

$$$$
