CHEMBL1253837


 40 43  0  0  0  0  0  0  0  0999 V2000
  -29.6496   -7.1955   -4.8202 C   0  0  0  0  0  0  0  0  0  0  0  0
  -28.9890   -7.9983   -3.8909 C   0  0  0  0  0  0  0  0  0  0  0  0
  -28.7536   -9.3518   -4.1476 C   0  0  0  0  0  0  0  0  0  0  0  0
  -29.1393   -9.9243   -5.3612 C   0  0  0  0  0  0  0  0  0  0  0  0
  -29.8490   -9.1583   -6.2814 C   0  0  0  0  0  0  0  0  0  0  0  0
  -30.0953   -7.8015   -6.0144 C   0  0  0  0  0  0  0  0  0  0  0  0
  -30.9606   -6.8800   -7.2004 Cl  0  0  0  0  0  0  0  0  0  0  0  0
  -28.1882   -4.8664   -5.8449 O   0  0  0  0  0  0  0  0  0  0  0  0
  -29.1454   -4.7471   -5.0935 C   0  0  0  0  0  0  0  0  0  0  0  0
  -29.5998   -3.5297   -4.6001 N   0  0  0  0  0  0  0  0  0  0  0  0
  -29.8967   -5.8064   -4.6065 N   0  0  0  0  0  0  0  0  0  0  0  0
  -30.2974   -3.5680   -3.8736 H   0  0  0  0  0  0  0  0  0  0  0  0
  -30.7538   -5.5965   -4.1174 H   0  0  0  0  0  0  0  0  0  0  0  0
  -29.0348   -2.2576   -4.8663 C   0  0  0  0  0  0  0  0  0  0  0  0
  -27.6689   -1.9774   -4.7715 C   0  0  0  0  0  0  0  0  0  0  0  0
  -27.1802   -0.6885   -5.0006 C   0  0  0  0  0  0  0  0  0  0  0  0
  -28.0529    0.3396   -5.3414 C   0  0  0  0  0  0  0  0  0  0  0  0
  -29.4235    0.0825   -5.4714 C   0  0  0  0  0  0  0  0  0  0  0  0
  -29.9032   -1.2220   -5.2357 C   0  0  0  0  0  0  0  0  0  0  0  0
  -30.3831    1.1816   -5.8512 C   0  0  0  0  0  0  0  0  0  0  0  0
  -31.5719    0.7297   -6.3385 F   0  0  0  0  0  0  0  0  0  0  0  0
  -30.6939    1.9849   -4.7960 F   0  0  0  0  0  0  0  0  0  0  0  0
  -29.8760    2.0063   -6.8093 F   0  0  0  0  0  0  0  0  0  0  0  0
  -28.8559  -11.2452   -5.6631 O   0  0  0  0  0  0  0  0  0  0  0  0
  -28.4240  -11.4937   -6.9685 C   0  0  0  0  0  0  0  0  0  0  0  0
  -29.3577  -11.7381   -7.9220 N   0  0  0  0  0  0  0  0  0  0  0  0
  -28.9607  -11.9018   -9.1893 C   0  0  0  0  0  0  0  0  0  0  0  0
  -27.7119  -11.9061   -9.6507 N   0  0  0  0  0  0  0  0  0  0  0  0
  -26.7820  -11.7308   -8.6899 C   0  0  0  0  0  0  0  0  0  0  0  0
  -25.3816  -11.7365   -8.8460 C   0  0  0  0  0  0  0  0  0  0  0  0
  -24.8377  -11.5597   -7.5965 C   0  0  0  0  0  0  0  0  0  0  0  0
  -25.8674  -11.3723   -6.6965 N   0  0  0  0  0  0  0  0  0  0  0  0
  -27.0806  -11.5197   -7.3422 C   0  0  0  0  0  0  0  0  0  0  0  0
  -25.6354  -11.1723   -5.2721 C   0  0  0  0  0  0  0  0  0  0  0  0
  -25.1011   -9.7816   -4.9098 C   0  0  0  0  0  0  0  0  0  0  0  0
  -23.8962   -9.8475   -4.1356 O   0  0  0  0  0  0  0  0  0  0  0  0
  -23.2259  -11.0973   -4.3791 C   0  0  0  0  0  0  0  0  0  0  0  0
  -22.1462  -11.3415   -3.3283 C   0  0  0  0  0  0  0  0  0  0  0  0
  -22.6135  -10.9512   -2.0395 O   0  0  0  0  0  0  0  0  0  0  0  0
  -22.8729  -10.0166   -2.1281 H   0  0  0  0  0  0  0  0  0  0  0  0
  8  9  2  0  0  0
  9 10  1  0  0  0
  9 11  1  0  0  0
 10 14  1  0  0  0
 10 12  1  0  0  0
 14 15  1  0  0  0
 14 19  2  0  0  0
 15 16  2  0  0  0
 16 17  1  0  0  0
 17 18  2  0  0  0
 18 20  1  0  0  0
 18 19  1  0  0  0
 20 21  1  0  0  0
 20 22  1  0  0  0
 20 23  1  0  0  0
 11  1  1  0  0  0
 11 13  1  0  0  0
  1  2  1  0  0  0
  1  6  2  0  0  0
  2  3  2  0  0  0
  3  4  1  0  0  0
  4 24  1  0  0  0
  4  5  2  0  0  0
 24 25  1  0  0  0
 25 26  1  0  0  0
 25 33  2  0  0  0
 26 27  2  0  0  0
 27 28  1  0  0  0
 28 29  2  0  0  0
 29 30  1  0  0  0
 29 33  1  0  0  0
 30 31  2  0  0  0
 31 32  1  0  0  0
 32 34  1  0  0  0
 32 33  1  0  0  0
 34 35  1  0  0  0
 35 36  1  0  0  0
 36 37  1  0  0  0
 37 38  1  0  0  0
 38 39  1  0  0  0
 39 40  1  0  0  0
  5  6  1  0  0  0
  6  7  1  0  0  0
M  END
> <minimizedAffinity>
-8.37887

$$$$
