CHEMBL3644560


 34 37  0  0  0  0  0  0  0  0999 V2000
  -14.5129   -2.7602  -12.8874 C   0  0  0  0  0  0  0  0  0  0  0  0
  -13.3403   -2.5267  -13.6218 C   0  0  0  0  0  0  0  0  0  0  0  0
  -13.1899   -1.4017  -14.4477 C   0  0  0  0  0  0  0  0  0  0  0  0
  -14.2198   -0.4693  -14.5665 C   0  0  0  0  0  0  0  0  0  0  0  0
  -15.3950   -0.6716  -13.8464 C   0  0  0  0  0  0  0  0  0  0  0  0
  -15.5265   -1.8052  -13.0202 C   0  0  0  0  0  0  0  0  0  0  0  0
  -12.9125   -9.9226  -12.0445 N   0  0  0  0  0  0  0  0  0  0  0  0
  -13.0554   -8.5602  -11.8876 C   0  0  0  0  0  0  0  0  0  0  0  0
  -12.0430   -7.8951  -11.3273 N   0  0  0  0  0  0  0  0  0  0  0  0
  -12.2081   -6.5666  -11.1817 C   0  0  0  0  0  0  0  0  0  0  0  0
  -13.3333   -5.8811  -11.5869 C   0  0  0  0  0  0  0  0  0  0  0  0
  -14.3134   -6.6619  -12.1731 C   0  0  0  0  0  0  0  0  0  0  0  0
  -14.1793   -7.9982  -12.3409 N   0  0  0  0  0  0  0  0  0  0  0  0
  -15.5752   -6.0368  -12.7057 C   0  0  0  0  0  0  0  0  0  0  0  0
  -15.8489   -4.6944  -12.0355 C   0  0  0  0  0  0  0  0  0  0  0  0
  -14.6417   -3.8588  -12.0568 N   0  0  0  0  0  0  0  0  0  0  0  0
  -13.4793   -4.4050  -11.3510 C   0  0  0  0  0  0  0  0  0  0  0  0
  -11.9310  -10.1596  -12.0629 H   0  0  0  0  0  0  0  0  0  0  0  0
  -13.4829  -10.2358  -12.8168 H   0  0  0  0  0  0  0  0  0  0  0  0
  -16.5127    0.3070  -13.8226 C   0  0  0  0  0  0  0  0  0  0  0  0
  -16.6362    0.9747  -12.7973 O   0  0  0  0  0  0  0  0  0  0  0  0
  -17.3630    0.3424  -14.9207 N   0  0  0  0  0  0  0  0  0  0  0  0
  -17.2698   -0.3952  -15.6078 H   0  0  0  0  0  0  0  0  0  0  0  0
  -18.5114    1.1705  -15.0086 C   0  0  0  0  0  0  0  0  0  0  0  0
  -18.4680    2.4747  -15.5086 C   0  0  0  0  0  0  0  0  0  0  0  0
  -19.5968    3.2930  -15.4897 C   0  0  0  0  0  0  0  0  0  0  0  0
  -20.7897    2.8082  -14.9772 C   0  0  0  0  0  0  0  0  0  0  0  0
  -21.8463    3.6285  -14.9426 F   0  0  0  0  0  0  0  0  0  0  0  0
  -20.8860    1.5026  -14.5030 C   0  0  0  0  0  0  0  0  0  0  0  0
  -19.7399    0.6737  -14.5462 C   0  0  0  0  0  0  0  0  0  0  0  0
  -22.1769    0.9955  -13.9324 C   0  0  0  0  0  0  0  0  0  0  0  0
  -23.0909    1.9509  -13.6183 F   0  0  0  0  0  0  0  0  0  0  0  0
  -22.8122    0.1401  -14.7828 F   0  0  0  0  0  0  0  0  0  0  0  0
  -21.9803    0.2864  -12.7836 F   0  0  0  0  0  0  0  0  0  0  0  0
  7  8  1  0  0  0
  7 18  1  0  0  0
  7 19  1  0  0  0
  8  9  1  0  0  0
  8 13  2  0  0  0
  9 10  2  0  0  0
 10 11  1  0  0  0
 11 12  2  0  0  0
 11 17  1  0  0  0
 12 13  1  0  0  0
 12 14  1  0  0  0
 14 15  1  0  0  0
 15 16  1  0  0  0
 16  1  1  0  0  0
 16 17  1  0  0  0
  1  2  1  0  0  0
  1  6  2  0  0  0
  2  3  2  0  0  0
  3  4  1  0  0  0
  4  5  2  0  0  0
  5 20  1  0  0  0
  5  6  1  0  0  0
 20 21  2  0  0  0
 20 22  1  0  0  0
 22 24  1  0  0  0
 22 23  1  0  0  0
 24 25  1  0  0  0
 24 30  2  0  0  0
 25 26  2  0  0  0
 26 27  1  0  0  0
 27 28  1  0  0  0
 27 29  2  0  0  0
 29 31  1  0  0  0
 29 30  1  0  0  0
 31 32  1  0  0  0
 31 33  1  0  0  0
 31 34  1  0  0  0
M  END
> <minimizedAffinity>
-10.57933

$$$$
