CHEMBL3739936


 41 45  0  0  0  0  0  0  0  0999 V2000
  -29.7639   -5.7917   -7.0921 C   0  0  0  0  0  0  0  0  0  0  0  0
  -30.5298   -6.0607   -5.9609 C   0  0  0  0  0  0  0  0  0  0  0  0
  -30.1403   -7.0956   -5.1082 C   0  0  0  0  0  0  0  0  0  0  0  0
  -29.0563   -7.9255   -5.4518 C   0  0  0  0  0  0  0  0  0  0  0  0
  -28.6040   -9.0005   -4.6776 C   0  0  0  0  0  0  0  0  0  0  0  0
  -28.9588  -10.1868   -5.2789 C   0  0  0  0  0  0  0  0  0  0  0  0
  -28.6684  -10.2944   -6.6365 C   0  0  0  0  0  0  0  0  0  0  0  0
  -28.3414   -9.1396   -7.3622 C   0  0  0  0  0  0  0  0  0  0  0  0
  -28.6528   -7.8990   -6.7909 C   0  0  0  0  0  0  0  0  0  0  0  0
  -28.8440   -6.7365   -7.5483 C   0  0  0  0  0  0  0  0  0  0  0  0
  -27.0423   -8.9787   -4.4369 C   0  0  0  0  0  0  0  0  0  0  0  0
  -26.4491   -7.9226   -4.2386 O   0  0  0  0  0  0  0  0  0  0  0  0
  -26.4225  -10.2307   -4.5060 N   0  0  0  0  0  0  0  0  0  0  0  0
  -27.0242  -11.0433   -4.5701 H   0  0  0  0  0  0  0  0  0  0  0  0
  -25.0367  -10.5523   -4.5703 C   0  0  0  0  0  0  0  0  0  0  0  0
  -24.2194  -10.8525   -3.4819 C   0  0  0  0  0  0  0  0  0  0  0  0
  -22.8550  -11.1448   -3.6784 C   0  0  0  0  0  0  0  0  0  0  0  0
  -22.2962  -11.1382   -4.9620 C   0  0  0  0  0  0  0  0  0  0  0  0
  -23.0982  -10.8304   -6.0535 C   0  0  0  0  0  0  0  0  0  0  0  0
  -24.4428  -10.5355   -5.8469 C   0  0  0  0  0  0  0  0  0  0  0  0
  -25.1994  -10.2102   -6.9144 F   0  0  0  0  0  0  0  0  0  0  0  0
  -30.0485   -4.6506   -7.7970 O   0  0  0  0  0  0  0  0  0  0  0  0
  -27.5219   -2.2799   -8.3828 C   0  0  0  0  0  0  0  0  0  0  0  0
  -27.5592   -1.4493   -7.3305 N   0  0  0  0  0  0  0  0  0  0  0  0
  -28.5221   -1.6613   -6.4166 C   0  0  0  0  0  0  0  0  0  0  0  0
  -29.4306   -2.6841   -6.4981 C   0  0  0  0  0  0  0  0  0  0  0  0
  -29.2622   -3.5385   -7.5640 C   0  0  0  0  0  0  0  0  0  0  0  0
  -28.3365   -3.3334   -8.5157 N   0  0  0  0  0  0  0  0  0  0  0  0
  -26.5891   -1.9474   -9.3637 N   0  0  0  0  0  0  0  0  0  0  0  0
  -25.8418   -1.4247   -8.9290 H   0  0  0  0  0  0  0  0  0  0  0  0
  -25.5392   -1.5577  -12.9077 C   0  0  0  0  0  0  0  0  0  0  0  0
  -26.7715   -1.6514  -13.5638 C   0  0  0  0  0  0  0  0  0  0  0  0
  -27.9416   -1.8708  -12.8432 C   0  0  0  0  0  0  0  0  0  0  0  0
  -27.8864   -1.9831  -11.4537 C   0  0  0  0  0  0  0  0  0  0  0  0
  -26.6948   -1.8463  -10.7573 C   0  0  0  0  0  0  0  0  0  0  0  0
  -25.5249   -1.6304  -11.5074 C   0  0  0  0  0  0  0  0  0  0  0  0
  -24.2867   -1.3225  -13.7112 C   0  0  0  0  0  0  0  0  0  0  0  0
  -22.0033    0.2897  -14.1822 C   0  0  0  0  0  0  0  0  0  0  0  0
  -23.1948   -0.1320  -12.9328 S   0  0  0  0  0  0  0  0  0  0  0  0
  -22.4895   -0.7704  -11.8367 O   0  0  0  0  0  0  0  0  0  0  0  0
  -23.9782    1.0647  -12.6746 O   0  0  0  0  0  0  0  0  0  0  0  0
 38 39  1  0  0  0
 39 40  2  0  0  0
 39 41  2  0  0  0
 39 37  1  0  0  0
 37 31  1  0  0  0
 31 32  1  0  0  0
 31 36  2  0  0  0
 32 33  2  0  0  0
 33 34  1  0  0  0
 34 35  2  0  0  0
 35 29  1  0  0  0
 35 36  1  0  0  0
 29 23  1  0  0  0
 29 30  1  0  0  0
 23 24  1  0  0  0
 23 28  2  0  0  0
 24 25  2  0  0  0
 25 26  1  0  0  0
 26 27  2  0  0  0
 27 22  1  0  0  0
 27 28  1  0  0  0
 22  1  1  0  0  0
  1  2  1  0  0  0
  1 10  2  0  0  0
  2  3  2  0  0  0
  3  4  1  0  0  0
  4  5  1  0  0  0
  4  9  2  0  0  0
  5 11  1  0  0  0
  5  6  2  0  0  0
 11 12  2  0  0  0
 11 13  1  0  0  0
 13 15  1  0  0  0
 13 14  1  0  0  0
 15 16  1  0  0  0
 15 20  2  0  0  0
 16 17  2  0  0  0
 17 18  1  0  0  0
 18 19  2  0  0  0
 19 20  1  0  0  0
 20 21  1  0  0  0
  6  7  1  0  0  0
  7  8  2  0  0  0
  8  9  1  0  0  0
  9 10  1  0  0  0
M  END
> <minimizedAffinity>
-9.80984

$$$$
