CHEMBL4172205


 38 42  0  0  0  0  0  0  0  0999 V2000
  -18.7661    2.3772  -14.8234 C   0  0  0  0  0  0  0  0  0  0  0  0
  -18.0525    2.5353  -16.0328 C   0  0  0  0  0  0  0  0  0  0  0  0
  -16.7717    1.9764  -16.2001 C   0  0  0  0  0  0  0  0  0  0  0  0
  -16.2106    1.2693  -15.1473 C   0  0  0  0  0  0  0  0  0  0  0  0
  -16.9421    1.1154  -13.9612 C   0  0  0  0  0  0  0  0  0  0  0  0
  -18.2044    1.6393  -13.7788 C   0  0  0  0  0  0  0  0  0  0  0  0
  -16.2141    0.4029  -13.0150 N   0  0  0  0  0  0  0  0  0  0  0  0
  -14.9685    0.0616  -13.4951 C   0  0  0  0  0  0  0  0  0  0  0  0
  -14.0563   -0.4541  -12.8766 O   0  0  0  0  0  0  0  0  0  0  0  0
  -14.9457    0.5402  -14.9280 C   0  0  0  0  0  0  0  0  0  0  0  0
  -13.9018    0.2222  -15.7271 C   0  0  0  0  0  0  0  0  0  0  0  0
  -16.5007    0.2240  -12.0658 H   0  0  0  0  0  0  0  0  0  0  0  0
  -13.7406    0.8845  -17.0379 C   0  0  0  0  0  0  0  0  0  0  0  0
  -13.1228    2.1449  -17.0663 C   0  0  0  0  0  0  0  0  0  0  0  0
  -12.9102    2.8063  -18.2796 C   0  0  0  0  0  0  0  0  0  0  0  0
  -13.3046    2.2069  -19.4704 C   0  0  0  0  0  0  0  0  0  0  0  0
  -13.9123    0.9518  -19.4546 C   0  0  0  0  0  0  0  0  0  0  0  0
  -14.1265    0.2835  -18.2452 C   0  0  0  0  0  0  0  0  0  0  0  0
  -20.0962    3.0004  -14.5820 C   0  0  0  0  0  0  0  0  0  0  0  0
  -20.4536    4.0340  -15.1262 O   0  0  0  0  0  0  0  0  0  0  0  0
  -21.5849    1.2180  -14.3909 C   0  0  0  0  0  0  0  0  0  0  0  0
  -20.8473    2.2492  -13.7352 O   0  0  0  0  0  0  0  0  0  0  0  0
  -12.8348   -0.6244  -15.3959 N   0  0  0  0  0  0  0  0  0  0  0  0
  -12.5982   -0.5259  -14.3997 H   0  0  0  0  0  0  0  0  0  0  0  0
  -12.9439   -2.0353  -15.6320 C   0  0  0  0  0  0  0  0  0  0  0  0
  -12.3920   -2.5564  -16.8027 C   0  0  0  0  0  0  0  0  0  0  0  0
  -12.5553   -3.9036  -17.1515 C   0  0  0  0  0  0  0  0  0  0  0  0
  -13.2642   -4.7352  -16.2704 C   0  0  0  0  0  0  0  0  0  0  0  0
  -13.6982   -4.2881  -15.0198 C   0  0  0  0  0  0  0  0  0  0  0  0
  -13.5097   -2.9232  -14.6952 C   0  0  0  0  0  0  0  0  0  0  0  0
  -14.2684   -5.4146  -14.3323 C   0  0  0  0  0  0  0  0  0  0  0  0
  -14.3085   -6.4507  -15.2494 C   0  0  0  0  0  0  0  0  0  0  0  0
  -13.6839   -6.0420  -16.3945 N   0  0  0  0  0  0  0  0  0  0  0  0
  -13.5457   -6.8511  -17.5843 C   0  0  0  0  0  0  0  0  0  0  0  0
  -14.7649   -5.4568  -12.9155 C   0  0  0  0  0  0  0  0  0  0  0  0
  -16.0803   -4.7952  -12.7819 N   0  0  0  0  0  0  0  0  0  0  0  0
  -17.0713   -5.6598  -12.1328 C   0  0  0  0  0  0  0  0  0  0  0  0
  -15.9346   -3.5610  -12.0061 C   0  0  0  0  0  0  0  0  0  0  0  0
 21 22  1  0  0  0
 22 19  1  0  0  0
 19 20  2  0  0  0
 19  1  1  0  0  0
  1  2  1  0  0  0
  1  6  2  0  0  0
  2  3  2  0  0  0
  3  4  1  0  0  0
  4  5  2  0  0  0
  4 10  1  0  0  0
  5  6  1  0  0  0
  5  7  1  0  0  0
  7  8  1  0  0  0
  7 12  1  0  0  0
  8  9  2  0  0  0
  8 10  1  0  0  0
 10 11  2  0  0  0
 11 23  1  0  0  0
 11 13  1  0  0  0
 23 25  1  0  0  0
 23 24  1  0  0  0
 25 26  1  0  0  0
 25 30  2  0  0  0
 26 27  2  0  0  0
 27 28  1  0  0  0
 28 29  2  0  0  0
 28 33  1  0  0  0
 29 30  1  0  0  0
 29 31  1  0  0  0
 31 35  1  0  0  0
 31 32  2  0  0  0
 35 36  1  0  0  0
 36 37  1  0  0  0
 36 38  1  0  0  0
 32 33  1  0  0  0
 33 34  1  0  0  0
 13 14  1  0  0  0
 13 18  2  0  0  0
 14 15  2  0  0  0
 15 16  1  0  0  0
 16 17  2  0  0  0
 17 18  1  0  0  0
M  END
> <minimizedAffinity>
-7.73658

$$$$
