CHEMBL3589814


 32 35  0  0  0  0  0  0  0  0999 V2000
  -28.0375   -2.2930   -7.5333 C   0  0  0  0  0  0  0  0  0  0  0  0
  -28.4713   -3.5887   -7.7512 C   0  0  0  0  0  0  0  0  0  0  0  0
  -29.5226   -4.1040   -7.0269 C   0  0  0  0  0  0  0  0  0  0  0  0
  -30.0277   -3.4571   -5.9007 C   0  0  0  0  0  0  0  0  0  0  0  0
  -29.6087   -2.1565   -5.6585 C   0  0  0  0  0  0  0  0  0  0  0  0
  -28.6241   -1.5611   -6.4861 C   0  0  0  0  0  0  0  0  0  0  0  0
  -30.9343   -4.1744   -5.0837 N   0  0  0  0  0  0  0  0  0  0  0  0
  -30.3765   -5.1173   -4.3875 C   0  0  0  0  0  0  0  0  0  0  0  0
  -28.9922   -5.0326   -3.6784 C   0  0  0  0  0  0  0  0  0  0  0  0
  -28.5621   -4.0938   -3.0528 O   0  0  0  0  0  0  0  0  0  0  0  0
  -28.3447   -6.2192   -3.9827 N   0  0  0  0  0  0  0  0  0  0  0  0
  -29.1590   -7.0303   -4.7699 C   0  0  0  0  0  0  0  0  0  0  0  0
  -28.7231   -8.0356   -5.6073 C   0  0  0  0  0  0  0  0  0  0  0  0
  -29.6404   -8.5453   -6.5337 C   0  0  0  0  0  0  0  0  0  0  0  0
  -30.9755   -8.0764   -6.5695 C   0  0  0  0  0  0  0  0  0  0  0  0
  -32.0580   -8.7029   -7.7470 Cl  0  0  0  0  0  0  0  0  0  0  0  0
  -31.3984   -7.0480   -5.7241 C   0  0  0  0  0  0  0  0  0  0  0  0
  -30.4627   -6.5324   -4.8490 C   0  0  0  0  0  0  0  0  0  0  0  0
  -27.3567   -6.3520   -3.8126 H   0  0  0  0  0  0  0  0  0  0  0  0
  -28.2344   -1.7499  -10.3283 O   0  0  0  0  0  0  0  0  0  0  0  0
  -27.1770   -1.5923   -9.7263 C   0  0  0  0  0  0  0  0  0  0  0  0
  -25.9903   -1.2836  -10.3630 N   0  0  0  0  0  0  0  0  0  0  0  0
  -27.0282   -1.7396   -8.3537 N   0  0  0  0  0  0  0  0  0  0  0  0
  -25.1544   -1.3380   -9.7971 H   0  0  0  0  0  0  0  0  0  0  0  0
  -26.2798   -1.2420   -7.8979 H   0  0  0  0  0  0  0  0  0  0  0  0
  -25.8218   -1.1972  -11.7658 C   0  0  0  0  0  0  0  0  0  0  0  0
  -26.7474   -1.6946  -12.6967 C   0  0  0  0  0  0  0  0  0  0  0  0
  -26.4743   -1.6739  -14.0666 C   0  0  0  0  0  0  0  0  0  0  0  0
  -25.2779   -1.1341  -14.5169 C   0  0  0  0  0  0  0  0  0  0  0  0
  -24.9104   -1.1479  -16.1956 Cl  0  0  0  0  0  0  0  0  0  0  0  0
  -24.3681   -0.5963  -13.6135 C   0  0  0  0  0  0  0  0  0  0  0  0
  -24.6449   -0.6200  -12.2351 C   0  0  0  0  0  0  0  0  0  0  0  0
 20 21  2  0  0  0
 21 22  1  0  0  0
 21 23  1  0  0  0
 22 26  1  0  0  0
 22 24  1  0  0  0
 26 27  1  0  0  0
 26 32  2  0  0  0
 27 28  2  0  0  0
 28 29  1  0  0  0
 29 30  1  0  0  0
 29 31  2  0  0  0
 31 32  1  0  0  0
 23  1  1  0  0  0
 23 25  1  0  0  0
  1  2  1  0  0  0
  1  6  2  0  0  0
  2  3  2  0  0  0
  3  4  1  0  0  0
  4  7  1  0  0  0
  4  5  2  0  0  0
  7  8  2  0  0  0
  8  9  1  0  0  0
  8 18  1  0  0  0
  9 10  2  0  0  0
  9 11  1  0  0  0
 11 12  1  0  0  0
 11 19  1  0  0  0
 12 13  1  0  0  0
 12 18  2  0  0  0
 13 14  2  0  0  0
 14 15  1  0  0  0
 15 16  1  0  0  0
 15 17  2  0  0  0
 17 18  1  0  0  0
  5  6  1  0  0  0
M  END
> <minimizedAffinity>
-9.59962

$$$$
