CHEMBL3959516


 35 39  0  0  0  0  0  0  0  0999 V2000
  -28.7904  -10.3492   -4.6547 C   0  0  0  0  0  0  0  0  0  0  0  0
  -29.3118   -9.3990   -5.5249 C   0  0  0  0  0  0  0  0  0  0  0  0
  -28.7132   -9.1377   -6.7666 C   0  0  0  0  0  0  0  0  0  0  0  0
  -29.1775   -8.1633   -7.6528 C   0  0  0  0  0  0  0  0  0  0  0  0
  -28.6352   -7.9950   -8.8694 N   0  0  0  0  0  0  0  0  0  0  0  0
  -27.6037   -8.7817   -9.1756 C   0  0  0  0  0  0  0  0  0  0  0  0
  -27.0505   -9.7093   -8.3848 N   0  0  0  0  0  0  0  0  0  0  0  0
  -27.6153   -9.8876   -7.1860 C   0  0  0  0  0  0  0  0  0  0  0  0
  -27.1244  -10.8654   -6.3289 C   0  0  0  0  0  0  0  0  0  0  0  0
  -27.7079  -11.1337   -5.0825 C   0  0  0  0  0  0  0  0  0  0  0  0
  -30.0250  -11.7125   -3.0840 C   0  0  0  0  0  0  0  0  0  0  0  0
  -29.3012  -10.5330   -3.4086 O   0  0  0  0  0  0  0  0  0  0  0  0
  -30.2341   -7.3011   -7.2434 N   0  0  0  0  0  0  0  0  0  0  0  0
  -30.8749   -7.8340   -6.6557 H   0  0  0  0  0  0  0  0  0  0  0  0
  -29.9985   -6.0120   -6.7103 C   0  0  0  0  0  0  0  0  0  0  0  0
  -29.3991   -5.0288   -7.5042 C   0  0  0  0  0  0  0  0  0  0  0  0
  -29.0416   -3.7968   -6.9575 C   0  0  0  0  0  0  0  0  0  0  0  0
  -28.2544   -2.6693   -8.0007 Cl  0  0  0  0  0  0  0  0  0  0  0  0
  -29.3100   -3.5335   -5.6093 C   0  0  0  0  0  0  0  0  0  0  0  0
  -28.7615   -1.9279   -4.7592 Br  0  0  0  0  0  0  0  0  0  0  0  0
  -29.9807   -4.4809   -4.8297 C   0  0  0  0  0  0  0  0  0  0  0  0
  -30.3274   -5.7057   -5.3895 C   0  0  0  0  0  0  0  0  0  0  0  0
  -30.9495   -6.6214   -4.6307 F   0  0  0  0  0  0  0  0  0  0  0  0
  -27.1018  -12.1780   -4.4112 O   0  0  0  0  0  0  0  0  0  0  0  0
  -25.7533  -12.4220   -4.8099 C   0  0  0  0  0  0  0  0  0  0  0  0
  -24.7093  -12.0683   -3.7389 C   0  0  0  0  0  0  0  0  0  0  0  0
  -23.2913  -12.4660   -4.1648 C   0  0  0  0  0  0  0  0  0  0  0  0
  -22.9757  -11.7870   -5.4228 N   0  0  0  0  0  0  0  0  0  0  0  0
  -21.8189  -12.3057   -6.1384 C   0  0  0  0  0  0  0  0  0  0  0  0
  -21.2724  -11.3959   -7.2633 C   0  0  0  0  0  0  0  0  0  0  0  0
  -21.4237   -9.9885   -7.0361 O   0  0  0  0  0  0  0  0  0  0  0  0
  -22.7547   -9.6783   -6.6068 C   0  0  0  0  0  0  0  0  0  0  0  0
  -22.9944  -10.3235   -5.2390 C   0  0  0  0  0  0  0  0  0  0  0  0
  -24.3445   -9.8644   -4.6407 C   0  0  0  0  0  0  0  0  0  0  0  0
  -24.7239  -10.6310   -3.4771 O   0  0  0  0  0  0  0  0  0  0  0  0
 11 12  1  0  0  0
 12  1  1  0  0  0
  1  2  1  0  0  0
  1 10  2  0  0  0
  2  3  2  0  0  0
  3  4  1  0  0  0
  3  8  1  0  0  0
  4 13  1  0  0  0
  4  5  2  0  0  0
 13 15  1  0  0  0
 13 14  1  0  0  0
 15 16  1  0  0  0
 15 22  2  0  0  0
 16 17  2  0  0  0
 17 18  1  0  0  0
 17 19  1  0  0  0
 19 20  1  0  0  0
 19 21  2  0  0  0
 21 22  1  0  0  0
 22 23  1  0  0  0
  5  6  1  0  0  0
  6  7  2  0  0  0
  7  8  1  0  0  0
  8  9  2  0  0  0
  9 10  1  0  0  0
 10 24  1  0  0  0
 24 25  1  0  0  0
 25 26  1  0  0  0
 26 27  1  0  0  0
 26 35  1  0  0  0
 27 28  1  0  0  0
 28 29  1  0  0  0
 28 33  1  0  0  0
 29 30  1  0  0  0
 30 31  1  0  0  0
 31 32  1  0  0  0
 32 33  1  0  0  0
 33 34  1  0  0  0
 34 35  1  0  0  0
M  END
> <minimizedAffinity>
-7.97439

$$$$
