CHEMBL2349007


 41 45  0  0  0  0  0  0  0  0999 V2000
  -23.6011   -1.0356  -13.6943 C   0  0  0  0  0  0  0  0  0  0  0  0
  -24.7260   -1.0189  -14.6587 C   0  0  0  0  0  0  0  0  0  0  0  0
  -25.9273   -1.3666  -14.1783 C   0  0  0  0  0  0  0  0  0  0  0  0
  -26.0523   -1.7041  -12.8123 C   0  0  0  0  0  0  0  0  0  0  0  0
  -27.0983   -2.0460  -12.0986 N   0  0  0  0  0  0  0  0  0  0  0  0
  -26.6318   -2.2759  -10.8355 C   0  0  0  0  0  0  0  0  0  0  0  0
  -25.2706   -2.0829  -10.7771 C   0  0  0  0  0  0  0  0  0  0  0  0
  -24.9062   -1.6865  -12.0392 N   0  0  0  0  0  0  0  0  0  0  0  0
  -23.6481   -1.3480  -12.4372 N   0  0  0  0  0  0  0  0  0  0  0  0
  -27.4391   -2.6464   -9.7781 N   0  0  0  0  0  0  0  0  0  0  0  0
  -27.5389   -1.8970   -8.6195 C   0  0  0  0  0  0  0  0  0  0  0  0
  -26.9744   -0.8295   -8.3951 O   0  0  0  0  0  0  0  0  0  0  0  0
  -27.9854   -3.4840   -9.8985 H   0  0  0  0  0  0  0  0  0  0  0  0
  -28.4241   -2.4190   -7.5379 C   0  0  0  0  0  0  0  0  0  0  0  0
  -29.1111   -3.6361   -7.6097 C   0  0  0  0  0  0  0  0  0  0  0  0
  -29.8445   -4.0925   -6.5027 C   0  0  0  0  0  0  0  0  0  0  0  0
  -29.8966   -3.3464   -5.3126 C   0  0  0  0  0  0  0  0  0  0  0  0
  -29.2189   -2.1221   -5.2542 C   0  0  0  0  0  0  0  0  0  0  0  0
  -28.4915   -1.6672   -6.3536 C   0  0  0  0  0  0  0  0  0  0  0  0
  -30.6353   -3.8425   -4.0918 C   0  0  0  0  0  0  0  0  0  0  0  0
  -31.9222   -4.2086   -4.3454 F   0  0  0  0  0  0  0  0  0  0  0  0
  -30.0405   -4.9331   -3.5331 F   0  0  0  0  0  0  0  0  0  0  0  0
  -30.6999   -2.9059   -3.1056 F   0  0  0  0  0  0  0  0  0  0  0  0
  -22.4414   -0.6655  -14.3684 O   0  0  0  0  0  0  0  0  0  0  0  0
  -20.3898    2.3557  -14.9777 C   0  0  0  0  0  0  0  0  0  0  0  0
  -21.1839    3.3199  -14.3500 C   0  0  0  0  0  0  0  0  0  0  0  0
  -22.3814    2.9750  -13.7205 C   0  0  0  0  0  0  0  0  0  0  0  0
  -22.8076    1.6561  -13.7210 C   0  0  0  0  0  0  0  0  0  0  0  0
  -22.0605    0.6951  -14.4011 C   0  0  0  0  0  0  0  0  0  0  0  0
  -20.8490    1.0292  -15.0229 C   0  0  0  0  0  0  0  0  0  0  0  0
  -17.7071    1.5867  -14.0594 O   0  0  0  0  0  0  0  0  0  0  0  0
  -17.8998    2.2974  -15.0406 C   0  0  0  0  0  0  0  0  0  0  0  0
  -19.1333    2.6730  -15.5586 N   0  0  0  0  0  0  0  0  0  0  0  0
  -19.1521    3.0753  -16.4869 H   0  0  0  0  0  0  0  0  0  0  0  0
  -16.6959    2.7494  -15.7851 C   0  0  0  0  0  0  0  0  0  0  0  0
  -16.6099    4.1086  -16.1340 C   0  0  0  0  0  0  0  0  0  0  0  0
  -15.5340    4.5821  -16.8863 C   0  0  0  0  0  0  0  0  0  0  0  0
  -14.5453    3.6949  -17.3028 C   0  0  0  0  0  0  0  0  0  0  0  0
  -14.6441    2.3471  -16.9654 C   0  0  0  0  0  0  0  0  0  0  0  0
  -13.7005    1.4969  -17.3902 F   0  0  0  0  0  0  0  0  0  0  0  0
  -15.7083    1.8599  -16.2107 C   0  0  0  0  0  0  0  0  0  0  0  0
 31 32  2  0  0  0
 32 33  1  0  0  0
 32 35  1  0  0  0
 33 25  1  0  0  0
 33 34  1  0  0  0
 25 26  1  0  0  0
 25 30  2  0  0  0
 26 27  2  0  0  0
 27 28  1  0  0  0
 28 29  2  0  0  0
 29 24  1  0  0  0
 29 30  1  0  0  0
 24  1  1  0  0  0
  1  2  1  0  0  0
  1  9  2  0  0  0
  2  3  2  0  0  0
  3  4  1  0  0  0
  4  5  2  0  0  0
  4  8  1  0  0  0
  5  6  1  0  0  0
  6 10  1  0  0  0
  6  7  2  0  0  0
 10 11  1  0  0  0
 10 13  1  0  0  0
 11 12  2  0  0  0
 11 14  1  0  0  0
 14 15  1  0  0  0
 14 19  2  0  0  0
 15 16  2  0  0  0
 16 17  1  0  0  0
 17 20  1  0  0  0
 17 18  2  0  0  0
 20 21  1  0  0  0
 20 22  1  0  0  0
 20 23  1  0  0  0
 18 19  1  0  0  0
  7  8  1  0  0  0
  8  9  1  0  0  0
 35 36  1  0  0  0
 35 41  2  0  0  0
 36 37  2  0  0  0
 37 38  1  0  0  0
 38 39  2  0  0  0
 39 40  1  0  0  0
 39 41  1  0  0  0
M  END
> <minimizedAffinity>
-11.61808

$$$$
