CHEMBL3287317


 45 49  0  0  0  0  0  0  0  0999 V2000
  -12.9041   -5.6687  -16.9790 C   0  0  0  0  0  0  0  0  0  0  0  0
  -12.0145   -5.0349  -16.1090 C   0  0  0  0  0  0  0  0  0  0  0  0
  -11.9873   -3.6459  -16.0124 C   0  0  0  0  0  0  0  0  0  0  0  0
  -12.7860   -2.8556  -16.8371 C   0  0  0  0  0  0  0  0  0  0  0  0
  -13.6149   -3.4846  -17.7751 C   0  0  0  0  0  0  0  0  0  0  0  0
  -13.6633   -4.8828  -17.8426 C   0  0  0  0  0  0  0  0  0  0  0  0
  -14.4643   -5.4592  -18.7517 F   0  0  0  0  0  0  0  0  0  0  0  0
  -12.8013   -1.4459  -16.7402 N   0  0  0  0  0  0  0  0  0  0  0  0
  -13.4441   -0.7128  -15.7559 C   0  0  0  0  0  0  0  0  0  0  0  0
  -14.0092   -1.1361  -14.7598 O   0  0  0  0  0  0  0  0  0  0  0  0
  -12.2448   -0.9264  -17.4102 H   0  0  0  0  0  0  0  0  0  0  0  0
  -13.3833    0.7686  -15.9430 C   0  0  0  0  0  0  0  0  0  0  0  0
  -12.1168    1.3675  -16.5408 C   0  0  0  0  0  0  0  0  0  0  0  0
  -12.3706    1.5320  -15.0769 C   0  0  0  0  0  0  0  0  0  0  0  0
  -14.7064    1.4256  -16.1528 C   0  0  0  0  0  0  0  0  0  0  0  0
  -14.7899    2.1560  -17.1399 O   0  0  0  0  0  0  0  0  0  0  0  0
  -15.6817    1.2132  -15.1864 N   0  0  0  0  0  0  0  0  0  0  0  0
  -15.4014    0.7669  -14.3219 H   0  0  0  0  0  0  0  0  0  0  0  0
  -16.9941    1.7598  -15.2619 C   0  0  0  0  0  0  0  0  0  0  0  0
  -17.2087    3.1160  -15.5202 C   0  0  0  0  0  0  0  0  0  0  0  0
  -18.4864    3.6757  -15.5130 C   0  0  0  0  0  0  0  0  0  0  0  0
  -19.5894    2.8672  -15.2763 C   0  0  0  0  0  0  0  0  0  0  0  0
  -19.4009    1.5030  -15.0695 C   0  0  0  0  0  0  0  0  0  0  0  0
  -20.7813    0.5091  -14.7860 Cl  0  0  0  0  0  0  0  0  0  0  0  0
  -18.1148    0.9369  -15.0691 C   0  0  0  0  0  0  0  0  0  0  0  0
  -13.0494   -7.0422  -17.0158 O   0  0  0  0  0  0  0  0  0  0  0  0
  -14.8171   -7.5065  -13.9653 C   0  0  0  0  0  0  0  0  0  0  0  0
  -14.2534   -8.6160  -13.4617 N   0  0  0  0  0  0  0  0  0  0  0  0
  -13.3282   -9.2457  -14.2020 C   0  0  0  0  0  0  0  0  0  0  0  0
  -12.9052   -8.7879  -15.4214 C   0  0  0  0  0  0  0  0  0  0  0  0
  -13.5271   -7.6413  -15.8496 C   0  0  0  0  0  0  0  0  0  0  0  0
  -14.5237   -7.0333  -15.1743 N   0  0  0  0  0  0  0  0  0  0  0  0
  -15.7202   -6.7549  -13.2199 N   0  0  0  0  0  0  0  0  0  0  0  0
  -16.6717   -6.9944  -13.4602 H   0  0  0  0  0  0  0  0  0  0  0  0
  -13.9430   -3.9277  -11.6030 C   0  0  0  0  0  0  0  0  0  0  0  0
  -15.0260   -3.1505  -11.1678 C   0  0  0  0  0  0  0  0  0  0  0  0
  -16.3302   -3.5848  -11.3659 C   0  0  0  0  0  0  0  0  0  0  0  0
  -16.5649   -4.7926  -12.0159 C   0  0  0  0  0  0  0  0  0  0  0  0
  -15.5130   -5.6044  -12.4518 C   0  0  0  0  0  0  0  0  0  0  0  0
  -14.2035   -5.1713  -12.2060 C   0  0  0  0  0  0  0  0  0  0  0  0
  -12.5403   -3.4234  -11.3896 C   0  0  0  0  0  0  0  0  0  0  0  0
  -13.2200   -4.7411   -8.9776 C   0  0  0  0  0  0  0  0  0  0  0  0
  -11.8975   -3.8538   -9.7753 S   0  0  0  0  0  0  0  0  0  0  0  0
  -11.6393   -2.6473   -9.0078 O   0  0  0  0  0  0  0  0  0  0  0  0
  -10.8221   -4.8073   -9.9843 O   0  0  0  0  0  0  0  0  0  0  0  0
 42 43  1  0  0  0
 43 44  2  0  0  0
 43 45  2  0  0  0
 43 41  1  0  0  0
 41 35  1  0  0  0
 35 36  1  0  0  0
 35 40  2  0  0  0
 36 37  2  0  0  0
 37 38  1  0  0  0
 38 39  2  0  0  0
 39 33  1  0  0  0
 39 40  1  0  0  0
 33 27  1  0  0  0
 33 34  1  0  0  0
 27 28  1  0  0  0
 27 32  2  0  0  0
 28 29  2  0  0  0
 29 30  1  0  0  0
 30 31  2  0  0  0
 31 26  1  0  0  0
 31 32  1  0  0  0
 26  1  1  0  0  0
  1  2  1  0  0  0
  1  6  2  0  0  0
  2  3  2  0  0  0
  3  4  1  0  0  0
  4  8  1  0  0  0
  4  5  2  0  0  0
  8  9  1  0  0  0
  8 11  1  0  0  0
  9 10  2  0  0  0
  9 12  1  0  0  0
 12 15  1  0  0  0
 12 13  1  0  0  0
 12 14  1  0  0  0
 15 16  2  0  0  0
 15 17  1  0  0  0
 17 19  1  0  0  0
 17 18  1  0  0  0
 19 20  1  0  0  0
 19 25  2  0  0  0
 20 21  2  0  0  0
 21 22  1  0  0  0
 22 23  2  0  0  0
 23 24  1  0  0  0
 23 25  1  0  0  0
 13 14  1  0  0  0
  5  6  1  0  0  0
  6  7  1  0  0  0
M  END
> <minimizedAffinity>
-8.67707

$$$$
