CHEMBL2002346


 25 28  0  0  0  0  0  0  0  0999 V2000
  -21.5914    1.0132  -14.1993 C   0  0  0  0  0  0  0  0  0  0  0  0
  -20.2717    0.9882  -14.6075 C   0  0  0  0  0  0  0  0  0  0  0  0
  -19.6495    2.2075  -14.7967 C   0  0  0  0  0  0  0  0  0  0  0  0
  -20.2970    3.3792  -14.6518 N   0  0  0  0  0  0  0  0  0  0  0  0
  -21.5810    3.2929  -14.2964 C   0  0  0  0  0  0  0  0  0  0  0  0
  -22.2588    2.1662  -14.0467 N   0  0  0  0  0  0  0  0  0  0  0  0
  -18.2412    2.3092  -15.1683 C   0  0  0  0  0  0  0  0  0  0  0  0
  -17.7646    3.1155  -16.1920 C   0  0  0  0  0  0  0  0  0  0  0  0
  -16.3983    2.9994  -16.2319 N   0  0  0  0  0  0  0  0  0  0  0  0
  -15.9756    2.1372  -15.2617 C   0  0  0  0  0  0  0  0  0  0  0  0
  -14.6856    1.8264  -15.0392 N   0  0  0  0  0  0  0  0  0  0  0  0
  -14.5251    0.9479  -14.0231 C   0  0  0  0  0  0  0  0  0  0  0  0
  -15.5467    0.3850  -13.2703 C   0  0  0  0  0  0  0  0  0  0  0  0
  -16.8666    0.7438  -13.5474 C   0  0  0  0  0  0  0  0  0  0  0  0
  -17.0968    1.6703  -14.5826 C   0  0  0  0  0  0  0  0  0  0  0  0
  -15.7707    3.4754  -16.8622 H   0  0  0  0  0  0  0  0  0  0  0  0
  -22.2423   -0.2161  -13.9885 N   0  0  0  0  0  0  0  0  0  0  0  0
  -22.9392   -0.3420  -14.7195 H   0  0  0  0  0  0  0  0  0  0  0  0
  -22.8321   -0.3423  -12.6605 C   0  0  0  0  0  0  0  0  0  0  0  0
  -26.9297   -1.6976  -12.8876 C   0  0  0  0  0  0  0  0  0  0  0  0
  -26.1277   -1.7197  -14.0274 C   0  0  0  0  0  0  0  0  0  0  0  0
  -24.8087   -1.2662  -13.9642 C   0  0  0  0  0  0  0  0  0  0  0  0
  -24.2771   -0.7788  -12.7596 C   0  0  0  0  0  0  0  0  0  0  0  0
  -25.0965   -0.7535  -11.6237 C   0  0  0  0  0  0  0  0  0  0  0  0
  -26.4163   -1.2096  -11.6883 C   0  0  0  0  0  0  0  0  0  0  0  0
 20 21  1  0  0  0
 20 25  2  0  0  0
 21 22  2  0  0  0
 22 23  1  0  0  0
 23 19  1  0  0  0
 23 24  2  0  0  0
 19 17  1  0  0  0
 17  1  1  0  0  0
 17 18  1  0  0  0
  1  2  1  0  0  0
  1  6  2  0  0  0
  2  3  2  0  0  0
  3  7  1  0  0  0
  3  4  1  0  0  0
  7  8  2  0  0  0
  7 15  1  0  0  0
  8  9  1  0  0  0
  9 10  1  0  0  0
  9 16  1  0  0  0
 10 11  1  0  0  0
 10 15  2  0  0  0
 11 12  2  0  0  0
 12 13  1  0  0  0
 13 14  2  0  0  0
 14 15  1  0  0  0
  4  5  2  0  0  0
  5  6  1  0  0  0
 24 25  1  0  0  0
M  END
> <minimizedAffinity>
-9.34209

$$$$
