CHEMBL4552065


 27 29  0  0  0  0  0  0  0  0999 V2000
  -20.0010    1.8496  -14.7104 C   0  0  0  0  0  0  0  0  0  0  0  0
  -19.5541    3.0762  -15.2187 C   0  0  0  0  0  0  0  0  0  0  0  0
  -18.2239    3.2138  -15.6202 C   0  0  0  0  0  0  0  0  0  0  0  0
  -17.3462    2.1336  -15.5102 C   0  0  0  0  0  0  0  0  0  0  0  0
  -17.8031    0.9045  -15.0333 C   0  0  0  0  0  0  0  0  0  0  0  0
  -19.1280    0.7562  -14.6414 C   0  0  0  0  0  0  0  0  0  0  0  0
  -21.7050    0.3508  -13.8533 N   0  0  0  0  0  0  0  0  0  0  0  0
  -21.3946    1.6396  -14.2387 C   0  0  0  0  0  0  0  0  0  0  0  0
  -22.1550    2.6020  -14.2688 O   0  0  0  0  0  0  0  0  0  0  0  0
  -21.0100   -0.3788  -13.9318 H   0  0  0  0  0  0  0  0  0  0  0  0
  -26.2091   -1.5838  -13.5763 C   0  0  0  0  0  0  0  0  0  0  0  0
  -24.9662   -0.9173  -13.2758 N   0  0  0  0  0  0  0  0  0  0  0  0
  -23.8866   -0.8071  -14.0986 C   0  0  0  0  0  0  0  0  0  0  0  0
  -22.9592   -0.0502  -13.4255 C   0  0  0  0  0  0  0  0  0  0  0  0
  -23.5776    0.2289  -12.1857 C   0  0  0  0  0  0  0  0  0  0  0  0
  -24.8020   -0.2994  -12.0901 N   0  0  0  0  0  0  0  0  0  0  0  0
  -16.8954   -0.1805  -14.9041 N   0  0  0  0  0  0  0  0  0  0  0  0
  -17.2685   -1.1152  -15.0662 H   0  0  0  0  0  0  0  0  0  0  0  0
  -15.7921   -0.1622  -13.6203 S   0  0  0  0  0  0  0  0  0  0  0  0
  -14.4817   -0.0200  -14.2173 O   0  0  0  0  0  0  0  0  0  0  0  0
  -16.2557    0.7592  -12.6031 O   0  0  0  0  0  0  0  0  0  0  0  0
  -15.8838   -1.8126  -12.9496 C   0  0  0  0  0  0  0  0  0  0  0  0
  -15.7988   -1.9926  -11.5637 C   0  0  0  0  0  0  0  0  0  0  0  0
  -15.9524   -3.2700  -11.0217 C   0  0  0  0  0  0  0  0  0  0  0  0
  -16.1966   -4.3588  -11.8590 C   0  0  0  0  0  0  0  0  0  0  0  0
  -16.2929   -4.1751  -13.2397 C   0  0  0  0  0  0  0  0  0  0  0  0
  -16.1455   -2.8993  -13.7897 C   0  0  0  0  0  0  0  0  0  0  0  0
 11 12  1  0  0  0
 12 13  1  0  0  0
 12 16  1  0  0  0
 13 14  2  0  0  0
 14  7  1  0  0  0
 14 15  1  0  0  0
  7  8  1  0  0  0
  7 10  1  0  0  0
  8  9  2  0  0  0
  8  1  1  0  0  0
  1  2  1  0  0  0
  1  6  2  0  0  0
  2  3  2  0  0  0
  3  4  1  0  0  0
  4  5  2  0  0  0
  5 17  1  0  0  0
  5  6  1  0  0  0
 17 19  1  0  0  0
 17 18  1  0  0  0
 19 20  2  0  0  0
 19 21  2  0  0  0
 19 22  1  0  0  0
 22 23  1  0  0  0
 22 27  2  0  0  0
 23 24  2  0  0  0
 24 25  1  0  0  0
 25 26  2  0  0  0
 26 27  1  0  0  0
 15 16  2  0  0  0
M  END
> <minimizedAffinity>
-9.57888

$$$$
