CHEMBL4062803


 27 31  0  0  0  0  0  0  0  0999 V2000
  -30.1066   -6.8290   -5.9434 C   0  0  0  0  0  0  0  0  0  0  0  0
  -28.9166   -7.3031   -5.4983 N   0  0  0  0  0  0  0  0  0  0  0  0
  -28.3777   -8.4298   -6.0447 C   0  0  0  0  0  0  0  0  0  0  0  0
  -29.1170   -9.0287   -7.0544 C   0  0  0  0  0  0  0  0  0  0  0  0
  -28.8382  -10.1604   -7.7640 O   0  0  0  0  0  0  0  0  0  0  0  0
  -29.8822  -10.3393   -8.6236 C   0  0  0  0  0  0  0  0  0  0  0  0
  -30.8186   -9.3407   -8.4724 C   0  0  0  0  0  0  0  0  0  0  0  0
  -30.3205   -8.4970   -7.4577 C   0  0  0  0  0  0  0  0  0  0  0  0
  -30.8378   -7.3853   -6.9180 N   0  0  0  0  0  0  0  0  0  0  0  0
  -30.5761   -5.6830   -5.2899 N   0  0  0  0  0  0  0  0  0  0  0  0
  -31.5543   -5.8143   -5.0748 H   0  0  0  0  0  0  0  0  0  0  0  0
  -28.1112    0.6457   -4.9367 C   0  0  0  0  0  0  0  0  0  0  0  0
  -28.3101   -0.5770   -5.7474 C   0  0  0  0  0  0  0  0  0  0  0  0
  -27.7883   -0.6806   -6.9756 N   0  0  0  0  0  0  0  0  0  0  0  0
  -28.1647   -1.9098   -7.3764 N   0  0  0  0  0  0  0  0  0  0  0  0
  -28.8923   -2.6084   -6.4540 C   0  0  0  0  0  0  0  0  0  0  0  0
  -29.4330   -3.9034   -6.4669 C   0  0  0  0  0  0  0  0  0  0  0  0
  -30.1062   -4.3557   -5.3157 C   0  0  0  0  0  0  0  0  0  0  0  0
  -30.2822   -3.4596   -4.2501 C   0  0  0  0  0  0  0  0  0  0  0  0
  -29.7408   -2.1670   -4.2523 C   0  0  0  0  0  0  0  0  0  0  0  0
  -29.0184   -1.7469   -5.3735 C   0  0  0  0  0  0  0  0  0  0  0  0
  -27.8751   -2.2184   -8.2957 H   0  0  0  0  0  0  0  0  0  0  0  0
  -27.1461   -8.9594   -5.6344 N   0  0  0  0  0  0  0  0  0  0  0  0
  -26.8343   -9.7172   -6.2344 H   0  0  0  0  0  0  0  0  0  0  0  0
  -26.7257   -8.9165   -4.2427 C   0  0  0  0  0  0  0  0  0  0  0  0
  -25.2551   -8.9983   -3.9224 C   0  0  0  0  0  0  0  0  0  0  0  0
  -26.1718  -10.1166   -3.5267 C   0  0  0  0  0  0  0  0  0  0  0  0
 12 13  1  0  0  0
 13 14  2  0  0  0
 13 21  1  0  0  0
 14 15  1  0  0  0
 15 16  1  0  0  0
 15 22  1  0  0  0
 16 17  1  0  0  0
 16 21  2  0  0  0
 17 18  2  0  0  0
 18 10  1  0  0  0
 18 19  1  0  0  0
 10  1  1  0  0  0
 10 11  1  0  0  0
  1  2  1  0  0  0
  1  9  2  0  0  0
  2  3  2  0  0  0
  3 23  1  0  0  0
  3  4  1  0  0  0
 23 25  1  0  0  0
 23 24  1  0  0  0
 25 26  1  0  0  0
 25 27  1  0  0  0
 26 27  1  0  0  0
  4  5  1  0  0  0
  4  8  2  0  0  0
  5  6  1  0  0  0
  6  7  2  0  0  0
  7  8  1  0  0  0
  8  9  1  0  0  0
 19 20  2  0  0  0
 20 21  1  0  0  0
M  END
> <minimizedAffinity>
-7.87821

$$$$
