CHEMBL3901644


 33 37  0  0  0  0  0  0  0  0999 V2000
  -28.5093   -9.6617   -5.6288 N   0  0  0  0  0  0  0  0  0  0  0  0
  -28.4466   -8.3158   -5.0944 C   0  0  0  0  0  0  0  0  0  0  0  0
  -28.9901   -8.2018   -3.8119 C   0  0  0  0  0  0  0  0  0  0  0  0
  -29.5488   -7.0110   -3.3961 C   0  0  0  0  0  0  0  0  0  0  0  0
  -29.4445   -5.8577   -4.1363 C   0  0  0  0  0  0  0  0  0  0  0  0
  -30.2118   -4.8635   -3.6812 N   0  0  0  0  0  0  0  0  0  0  0  0
  -30.0513   -3.6670   -4.2578 C   0  0  0  0  0  0  0  0  0  0  0  0
  -29.0882   -3.4345   -5.2152 C   0  0  0  0  0  0  0  0  0  0  0  0
  -28.3775   -4.4867   -5.7789 N   0  0  0  0  0  0  0  0  0  0  0  0
  -28.6103   -5.7870   -5.2764 C   0  0  0  0  0  0  0  0  0  0  0  0
  -28.1597   -7.0967   -5.7775 C   0  0  0  0  0  0  0  0  0  0  0  0
  -28.7822   -2.0194   -5.4450 C   0  0  0  0  0  0  0  0  0  0  0  0
  -27.6710   -1.2609   -4.9807 C   0  0  0  0  0  0  0  0  0  0  0  0
  -27.8491    0.0620   -5.0871 N   0  0  0  0  0  0  0  0  0  0  0  0
  -29.0843    0.1723   -5.6033 N   0  0  0  0  0  0  0  0  0  0  0  0
  -29.5792    1.4570   -6.0469 C   0  0  0  0  0  0  0  0  0  0  0  0
  -29.7307   -1.0329   -5.6944 C   0  0  0  0  0  0  0  0  0  0  0  0
  -31.2155  -10.0437   -8.1943 C   0  0  0  0  0  0  0  0  0  0  0  0
  -30.5294  -10.6748   -9.2272 C   0  0  0  0  0  0  0  0  0  0  0  0
  -29.2000  -11.0661   -9.0254 C   0  0  0  0  0  0  0  0  0  0  0  0
  -28.5585  -10.8108   -7.8060 C   0  0  0  0  0  0  0  0  0  0  0  0
  -29.2114  -10.1747   -6.7483 C   0  0  0  0  0  0  0  0  0  0  0  0
  -30.5671   -9.8322   -6.9543 C   0  0  0  0  0  0  0  0  0  0  0  0
  -32.9369   -8.6174   -7.3048 C   0  0  0  0  0  0  0  0  0  0  0  0
  -32.4920   -9.5460   -8.2931 O   0  0  0  0  0  0  0  0  0  0  0  0
  -28.4003  -11.6191   -9.9911 O   0  0  0  0  0  0  0  0  0  0  0  0
  -27.1984  -10.9094  -10.2733 C   0  0  0  0  0  0  0  0  0  0  0  0
  -28.3495  -10.6267   -4.4544 C   0  0  0  0  0  0  0  0  0  0  0  0
  -26.9583  -11.2466   -4.1510 C   0  0  0  0  0  0  0  0  0  0  0  0
  -26.2666  -10.3951   -3.2059 O   0  0  0  0  0  0  0  0  0  0  0  0
  -24.8753  -10.4907   -3.5294 C   0  0  0  0  0  0  0  0  0  0  0  0
  -24.7925  -11.4823   -4.6644 C   0  0  0  0  0  0  0  0  0  0  0  0
  -26.0832  -11.3913   -5.2823 O   0  0  0  0  0  0  0  0  0  0  0  0
 24 25  1  0  0  0
 25 18  1  0  0  0
 18 19  1  0  0  0
 18 23  2  0  0  0
 19 20  2  0  0  0
 20 26  1  0  0  0
 20 21  1  0  0  0
 26 27  1  0  0  0
 21 22  2  0  0  0
 22  1  1  0  0  0
 22 23  1  0  0  0
  1 28  1  0  0  0
  1  2  1  0  0  0
 28 29  1  0  0  0
 29 30  1  0  0  0
 29 33  1  0  0  0
 30 31  1  0  0  0
 31 32  1  0  0  0
 32 33  1  0  0  0
  2  3  1  0  0  0
  2 11  2  0  0  0
  3  4  2  0  0  0
  4  5  1  0  0  0
  5  6  1  0  0  0
  5 10  2  0  0  0
  6  7  2  0  0  0
  7  8  1  0  0  0
  8 12  1  0  0  0
  8  9  2  0  0  0
 12 13  1  0  0  0
 12 17  2  0  0  0
 13 14  2  0  0  0
 14 15  1  0  0  0
 15 16  1  0  0  0
 15 17  1  0  0  0
  9 10  1  0  0  0
 10 11  1  0  0  0
M  END
> <minimizedAffinity>
-7.53412

$$$$
