CHEMBL3899692


 41 44  0  0  0  0  0  0  0  0999 V2000
  -27.2070   -9.8609   -4.1516 N   0  0  0  0  0  0  0  0  0  0  0  0
  -27.9348   -8.6250   -4.3360 C   0  0  0  0  0  0  0  0  0  0  0  0
  -29.2436   -8.7839   -4.7788 C   0  0  0  0  0  0  0  0  0  0  0  0
  -29.8676   -7.7884   -5.5014 C   0  0  0  0  0  0  0  0  0  0  0  0
  -29.3060   -6.5469   -5.6495 C   0  0  0  0  0  0  0  0  0  0  0  0
  -29.9496   -5.7581   -6.5234 N   0  0  0  0  0  0  0  0  0  0  0  0
  -29.5509   -4.4819   -6.5864 C   0  0  0  0  0  0  0  0  0  0  0  0
  -28.5823   -3.9763   -5.7448 C   0  0  0  0  0  0  0  0  0  0  0  0
  -27.8316   -4.8132   -4.9425 N   0  0  0  0  0  0  0  0  0  0  0  0
  -28.1500   -6.1784   -4.9409 C   0  0  0  0  0  0  0  0  0  0  0  0
  -27.4365   -7.2920   -4.3182 C   0  0  0  0  0  0  0  0  0  0  0  0
  -28.5417   -2.5193   -5.6316 C   0  0  0  0  0  0  0  0  0  0  0  0
  -27.5014   -1.6848   -5.1412 C   0  0  0  0  0  0  0  0  0  0  0  0
  -27.8928   -0.4196   -4.9404 N   0  0  0  0  0  0  0  0  0  0  0  0
  -29.1881   -0.4338   -5.2964 N   0  0  0  0  0  0  0  0  0  0  0  0
  -29.9098    0.8047   -5.4797 C   0  0  0  0  0  0  0  0  0  0  0  0
  -29.6555   -1.6952   -5.5543 C   0  0  0  0  0  0  0  0  0  0  0  0
  -23.8926  -11.3870   -3.2323 C   0  0  0  0  0  0  0  0  0  0  0  0
  -23.0731  -10.8909   -4.2475 C   0  0  0  0  0  0  0  0  0  0  0  0
  -23.5916  -10.0061   -5.1874 C   0  0  0  0  0  0  0  0  0  0  0  0
  -24.9363   -9.6160   -5.1111 C   0  0  0  0  0  0  0  0  0  0  0  0
  -25.8016  -10.0846   -4.1081 C   0  0  0  0  0  0  0  0  0  0  0  0
  -25.2409  -10.9649   -3.1553 C   0  0  0  0  0  0  0  0  0  0  0  0
  -24.1871  -12.3275   -1.0509 C   0  0  0  0  0  0  0  0  0  0  0  0
  -23.4852  -12.3104   -2.2967 O   0  0  0  0  0  0  0  0  0  0  0  0
  -22.9056   -9.4843   -6.2523 O   0  0  0  0  0  0  0  0  0  0  0  0
  -21.9289  -10.3164   -6.8663 C   0  0  0  0  0  0  0  0  0  0  0  0
  -28.0198  -10.9763   -4.7939 C   0  0  0  0  0  0  0  0  0  0  0  0
  -27.5945  -11.3943   -6.2302 C   0  0  0  0  0  0  0  0  0  0  0  0
  -28.0500  -10.4829   -7.3011 N   0  0  0  0  0  0  0  0  0  0  0  0
  -27.1926  -10.0459   -8.3005 C   0  0  0  0  0  0  0  0  0  0  0  0
  -25.9947  -10.3263   -8.2884 O   0  0  0  0  0  0  0  0  0  0  0  0
  -29.0508  -10.4424   -7.4911 H   0  0  0  0  0  0  0  0  0  0  0  0
  -27.8248   -9.2647   -9.4739 C   0  0  0  0  0  0  0  0  0  0  0  0
  -29.2298   -8.7784   -9.0800 C   0  0  0  0  0  0  0  0  0  0  0  0
  -27.0031   -8.0913   -9.6937 O   0  0  0  0  0  0  0  0  0  0  0  0
  -27.0871   -7.5261   -8.9036 H   0  0  0  0  0  0  0  0  0  0  0  0
  -27.9162  -10.1681  -10.7235 C   0  0  0  0  0  0  0  0  0  0  0  0
  -27.8124  -11.4864  -10.4421 F   0  0  0  0  0  0  0  0  0  0  0  0
  -29.0850  -10.0055  -11.3922 F   0  0  0  0  0  0  0  0  0  0  0  0
  -26.9282   -9.8866  -11.6117 F   0  0  0  0  0  0  0  0  0  0  0  0
 24 25  1  0  0  0
 25 18  1  0  0  0
 18 19  1  0  0  0
 18 23  2  0  0  0
 19 20  2  0  0  0
 20 26  1  0  0  0
 20 21  1  0  0  0
 26 27  1  0  0  0
 21 22  2  0  0  0
 22  1  1  0  0  0
 22 23  1  0  0  0
  1 28  1  0  0  0
  1  2  1  0  0  0
 28 29  1  0  0  0
 29 30  1  0  0  0
 30 31  1  0  0  0
 30 33  1  0  0  0
 31 32  2  0  0  0
 31 34  1  0  0  0
 34 35  1  0  0  0
 34 36  1  0  0  0
 34 38  1  0  0  0
 36 37  1  0  0  0
 38 39  1  0  0  0
 38 40  1  0  0  0
 38 41  1  0  0  0
  2  3  1  0  0  0
  2 11  2  0  0  0
  3  4  2  0  0  0
  4  5  1  0  0  0
  5  6  1  0  0  0
  5 10  2  0  0  0
  6  7  2  0  0  0
  7  8  1  0  0  0
  8 12  1  0  0  0
  8  9  2  0  0  0
 12 13  1  0  0  0
 12 17  2  0  0  0
 13 14  2  0  0  0
 14 15  1  0  0  0
 15 16  1  0  0  0
 15 17  1  0  0  0
  9 10  1  0  0  0
 10 11  1  0  0  0
M  END
> <minimizedAffinity>
-8.38947

$$$$
