CHEMBL4083001


 38 42  0  0  0  0  0  0  0  0999 V2000
  -26.7240   -1.8379   -9.9545 C   0  0  0  0  0  0  0  0  0  0  0  0
  -27.2023   -3.1264   -9.7085 C   0  0  0  0  0  0  0  0  0  0  0  0
  -27.8449   -3.4598   -8.5118 C   0  0  0  0  0  0  0  0  0  0  0  0
  -28.1851   -2.4709   -7.5928 C   0  0  0  0  0  0  0  0  0  0  0  0
  -27.8565   -1.1496   -7.8850 C   0  0  0  0  0  0  0  0  0  0  0  0
  -27.1090   -0.8449   -9.0329 C   0  0  0  0  0  0  0  0  0  0  0  0
  -28.7094   -2.2144  -12.7325 N   0  0  0  0  0  0  0  0  0  0  0  0
  -27.4910   -1.9296  -13.2153 C   0  0  0  0  0  0  0  0  0  0  0  0
  -27.3059   -1.8913  -14.5315 N   0  0  0  0  0  0  0  0  0  0  0  0
  -26.0171   -1.5794  -14.6646 N   0  0  0  0  0  0  0  0  0  0  0  0
  -25.3520   -1.3954  -13.4841 C   0  0  0  0  0  0  0  0  0  0  0  0
  -24.0145   -1.0571  -13.2591 C   0  0  0  0  0  0  0  0  0  0  0  0
  -23.6018   -0.9358  -11.9392 C   0  0  0  0  0  0  0  0  0  0  0  0
  -24.4965   -1.1599  -10.8957 C   0  0  0  0  0  0  0  0  0  0  0  0
  -25.8529   -1.5239  -11.1096 C   0  0  0  0  0  0  0  0  0  0  0  0
  -26.2917   -1.6280  -12.4716 C   0  0  0  0  0  0  0  0  0  0  0  0
  -29.4084   -2.5222  -13.3979 H   0  0  0  0  0  0  0  0  0  0  0  0
  -28.8398   -2.6047  -11.8097 H   0  0  0  0  0  0  0  0  0  0  0  0
  -25.6393   -1.5064  -15.6014 H   0  0  0  0  0  0  0  0  0  0  0  0
  -28.8940   -2.7434   -6.4070 N   0  0  0  0  0  0  0  0  0  0  0  0
  -28.3239   -2.9787   -5.1713 C   0  0  0  0  0  0  0  0  0  0  0  0
  -27.1319   -2.9109   -4.8851 O   0  0  0  0  0  0  0  0  0  0  0  0
  -29.9055   -2.7811   -6.4738 H   0  0  0  0  0  0  0  0  0  0  0  0
  -29.2709   -3.4208   -4.1117 C   0  0  0  0  0  0  0  0  0  0  0  0
  -30.1871   -2.4347   -3.3851 C   0  0  0  0  0  0  0  0  0  0  0  0
  -28.9636   -2.9360   -2.6907 C   0  0  0  0  0  0  0  0  0  0  0  0
  -29.7644   -4.8217   -4.2701 C   0  0  0  0  0  0  0  0  0  0  0  0
  -30.9349   -5.0555   -4.0050 O   0  0  0  0  0  0  0  0  0  0  0  0
  -28.8019   -5.6995   -4.7265 N   0  0  0  0  0  0  0  0  0  0  0  0
  -27.8979   -5.2976   -4.9690 H   0  0  0  0  0  0  0  0  0  0  0  0
  -28.9575   -7.0965   -4.9023 C   0  0  0  0  0  0  0  0  0  0  0  0
  -28.7414   -8.0069   -3.8740 C   0  0  0  0  0  0  0  0  0  0  0  0
  -28.8664   -9.3806   -4.0944 C   0  0  0  0  0  0  0  0  0  0  0  0
  -29.2073   -9.8567   -5.3579 C   0  0  0  0  0  0  0  0  0  0  0  0
  -29.3301  -11.5705   -5.5551 Cl  0  0  0  0  0  0  0  0  0  0  0  0
  -29.4374   -8.9516   -6.3927 C   0  0  0  0  0  0  0  0  0  0  0  0
  -29.8556   -9.4735   -7.9905 Cl  0  0  0  0  0  0  0  0  0  0  0  0
  -29.3141   -7.5699   -6.1720 C   0  0  0  0  0  0  0  0  0  0  0  0
  7  8  1  0  0  0
  7 17  1  0  0  0
  7 18  1  0  0  0
  8  9  2  0  0  0
  8 16  1  0  0  0
  9 10  1  0  0  0
 10 11  1  0  0  0
 10 19  1  0  0  0
 11 12  1  0  0  0
 11 16  2  0  0  0
 12 13  2  0  0  0
 13 14  1  0  0  0
 14 15  2  0  0  0
 15  1  1  0  0  0
 15 16  1  0  0  0
  1  2  1  0  0  0
  1  6  2  0  0  0
  2  3  2  0  0  0
  3  4  1  0  0  0
  4 20  1  0  0  0
  4  5  2  0  0  0
 20 21  1  0  0  0
 20 23  1  0  0  0
 21 22  2  0  0  0
 21 24  1  0  0  0
 24 27  1  0  0  0
 24 25  1  0  0  0
 24 26  1  0  0  0
 27 28  2  0  0  0
 27 29  1  0  0  0
 29 31  1  0  0  0
 29 30  1  0  0  0
 31 32  1  0  0  0
 31 38  2  0  0  0
 32 33  2  0  0  0
 33 34  1  0  0  0
 34 35  1  0  0  0
 34 36  2  0  0  0
 36 37  1  0  0  0
 36 38  1  0  0  0
 25 26  1  0  0  0
  5  6  1  0  0  0
M  END
> <minimizedAffinity>
-8.76729

$$$$
