CHEMBL3702668


 30 33  0  0  0  0  0  0  0  0999 V2000
  -25.6508   -1.1242  -15.7063 C   0  0  0  0  0  0  0  0  0  0  0  0
  -25.9729   -1.2658  -14.2388 C   0  0  0  0  0  0  0  0  0  0  0  0
  -27.1725   -1.9216  -13.8814 C   0  0  0  0  0  0  0  0  0  0  0  0
  -27.5093   -2.1489  -12.5440 C   0  0  0  0  0  0  0  0  0  0  0  0
  -26.6527   -1.6950  -11.5478 C   0  0  0  0  0  0  0  0  0  0  0  0
  -25.4698   -1.0213  -11.8984 C   0  0  0  0  0  0  0  0  0  0  0  0
  -25.0918   -0.8052  -13.2328 C   0  0  0  0  0  0  0  0  0  0  0  0
  -23.8614   -0.2176  -13.5566 N   0  0  0  0  0  0  0  0  0  0  0  0
  -22.6407   -1.0249  -13.3642 C   0  0  0  0  0  0  0  0  0  0  0  0
  -21.5738   -0.5266  -14.3363 C   0  0  0  0  0  0  0  0  0  0  0  0
  -21.4715    0.9763  -14.3475 C   0  0  0  0  0  0  0  0  0  0  0  0
  -20.3961    1.4964  -14.9801 N   0  0  0  0  0  0  0  0  0  0  0  0
  -20.3415    2.8373  -15.0478 C   0  0  0  0  0  0  0  0  0  0  0  0
  -21.2434    3.6915  -14.5390 N   0  0  0  0  0  0  0  0  0  0  0  0
  -22.2969    3.1261  -13.9179 C   0  0  0  0  0  0  0  0  0  0  0  0
  -22.4795    1.7623  -13.8032 C   0  0  0  0  0  0  0  0  0  0  0  0
  -23.6657    1.1696  -13.0956 C   0  0  0  0  0  0  0  0  0  0  0  0
  -26.9491   -1.8209  -10.0969 C   0  0  0  0  0  0  0  0  0  0  0  0
  -26.0839   -1.4113   -9.3279 O   0  0  0  0  0  0  0  0  0  0  0  0
  -28.1294   -2.4542   -9.7355 N   0  0  0  0  0  0  0  0  0  0  0  0
  -28.6562   -2.9206  -10.4625 H   0  0  0  0  0  0  0  0  0  0  0  0
  -28.5325   -2.7083   -8.3960 C   0  0  0  0  0  0  0  0  0  0  0  0
  -29.0025   -3.9553   -7.9771 C   0  0  0  0  0  0  0  0  0  0  0  0
  -29.4562   -4.1523   -6.6732 C   0  0  0  0  0  0  0  0  0  0  0  0
  -29.4417   -3.1010   -5.7643 C   0  0  0  0  0  0  0  0  0  0  0  0
  -28.9592   -1.8393   -6.1418 C   0  0  0  0  0  0  0  0  0  0  0  0
  -28.4814   -1.6624   -7.4592 C   0  0  0  0  0  0  0  0  0  0  0  0
  -29.0086   -0.6712   -5.1684 C   0  0  0  0  0  0  0  0  0  0  0  0
  -27.6116   -0.0752   -4.9552 C   0  0  0  0  0  0  0  0  0  0  0  0
  -29.9851    0.4200   -5.6176 C   0  0  0  0  0  0  0  0  0  0  0  0
  1  2  1  0  0  0
  2  3  1  0  0  0
  2  7  2  0  0  0
  3  4  2  0  0  0
  4  5  1  0  0  0
  5 18  1  0  0  0
  5  6  2  0  0  0
 18 19  2  0  0  0
 18 20  1  0  0  0
 20 22  1  0  0  0
 20 21  1  0  0  0
 22 23  1  0  0  0
 22 27  2  0  0  0
 23 24  2  0  0  0
 24 25  1  0  0  0
 25 26  2  0  0  0
 26 28  1  0  0  0
 26 27  1  0  0  0
 28 29  1  0  0  0
 28 30  1  0  0  0
  6  7  1  0  0  0
  7  8  1  0  0  0
  8  9  1  0  0  0
  8 17  1  0  0  0
  9 10  1  0  0  0
 10 11  1  0  0  0
 11 12  1  0  0  0
 11 16  2  0  0  0
 12 13  2  0  0  0
 13 14  1  0  0  0
 14 15  2  0  0  0
 15 16  1  0  0  0
 16 17  1  0  0  0
M  END
> <minimizedAffinity>
-10.62155

$$$$
