CHEMBL208363


 31 34  0  0  0  0  0  0  0  0999 V2000
  -26.3929   -1.9501  -10.9915 C   0  0  0  0  0  0  0  0  0  0  0  0
  -27.5096   -1.3927  -11.4100 N   0  0  0  0  0  0  0  0  0  0  0  0
  -28.3124   -1.2200  -10.2989 N   0  0  0  0  0  0  0  0  0  0  0  0
  -27.6214   -1.6418   -9.2617 C   0  0  0  0  0  0  0  0  0  0  0  0
  -26.3872   -2.1246   -9.6359 O   0  0  0  0  0  0  0  0  0  0  0  0
  -27.9325   -1.6747   -7.8255 C   0  0  0  0  0  0  0  0  0  0  0  0
  -27.6060   -0.5385   -7.0560 C   0  0  0  0  0  0  0  0  0  0  0  0
  -27.8641   -0.5229   -5.6992 C   0  0  0  0  0  0  0  0  0  0  0  0
  -28.4096   -1.5559   -5.0457 N   0  0  0  0  0  0  0  0  0  0  0  0
  -28.7199   -2.6436   -5.7829 C   0  0  0  0  0  0  0  0  0  0  0  0
  -28.5388   -2.7718   -7.1666 C   0  0  0  0  0  0  0  0  0  0  0  0
  -28.9199   -4.0784   -7.8467 C   0  0  0  0  0  0  0  0  0  0  0  0
  -29.8777   -4.9829   -7.0430 C   0  0  0  0  0  0  0  0  0  0  0  0
  -29.8420   -6.4267   -7.4739 C   0  0  0  0  0  0  0  0  0  0  0  0
  -30.9595   -7.2490   -7.3000 C   0  0  0  0  0  0  0  0  0  0  0  0
  -30.8912   -8.5652   -7.7299 C   0  0  0  0  0  0  0  0  0  0  0  0
  -29.8006   -9.1098   -8.3084 N   0  0  0  0  0  0  0  0  0  0  0  0
  -28.7309   -8.3002   -8.4626 C   0  0  0  0  0  0  0  0  0  0  0  0
  -28.7019   -6.9712   -8.0672 C   0  0  0  0  0  0  0  0  0  0  0  0
  -25.3001   -2.2673  -11.7149 N   0  0  0  0  0  0  0  0  0  0  0  0
  -24.9172   -3.1837  -11.5133 H   0  0  0  0  0  0  0  0  0  0  0  0
  -22.4534    0.2265  -13.6611 C   0  0  0  0  0  0  0  0  0  0  0  0
  -23.5607   -0.2562  -14.3683 C   0  0  0  0  0  0  0  0  0  0  0  0
  -24.5090   -1.0787  -13.7444 C   0  0  0  0  0  0  0  0  0  0  0  0
  -24.3947   -1.4292  -12.3956 C   0  0  0  0  0  0  0  0  0  0  0  0
  -23.2647   -0.9620  -11.7007 C   0  0  0  0  0  0  0  0  0  0  0  0
  -22.3117   -0.1411  -12.3177 C   0  0  0  0  0  0  0  0  0  0  0  0
  -20.3231    1.3355  -13.5579 F   0  0  0  0  0  0  0  0  0  0  0  0
  -21.4319    1.1213  -14.3204 C   0  0  0  0  0  0  0  0  0  0  0  0
  -21.9294    2.3557  -14.6087 F   0  0  0  0  0  0  0  0  0  0  0  0
  -20.9794    0.6153  -15.5010 F   0  0  0  0  0  0  0  0  0  0  0  0
 28 29  1  0  0  0
 29 30  1  0  0  0
 29 31  1  0  0  0
 29 22  1  0  0  0
 22 23  1  0  0  0
 22 27  2  0  0  0
 23 24  2  0  0  0
 24 25  1  0  0  0
 25 20  1  0  0  0
 25 26  2  0  0  0
 20  1  1  0  0  0
 20 21  1  0  0  0
  1  2  2  0  0  0
  1  5  1  0  0  0
  2  3  1  0  0  0
  3  4  2  0  0  0
  4  6  1  0  0  0
  4  5  1  0  0  0
  6  7  1  0  0  0
  6 11  2  0  0  0
  7  8  2  0  0  0
  8  9  1  0  0  0
  9 10  2  0  0  0
 10 11  1  0  0  0
 11 12  1  0  0  0
 12 13  1  0  0  0
 13 14  1  0  0  0
 14 15  1  0  0  0
 14 19  2  0  0  0
 15 16  2  0  0  0
 16 17  1  0  0  0
 17 18  2  0  0  0
 18 19  1  0  0  0
 26 27  1  0  0  0
M  END
> <minimizedAffinity>
-10.45844

$$$$
