CHEMBL3099460


 41 44  0  0  0  0  0  0  0  0999 V2000
  -28.8752   -4.4879   -7.1922 C   0  0  0  0  0  0  0  0  0  0  0  0
  -28.6771   -3.7778   -8.3936 C   0  0  0  0  0  0  0  0  0  0  0  0
  -28.2098   -2.4723   -8.4923 C   0  0  0  0  0  0  0  0  0  0  0  0
  -27.9304   -1.8117   -7.3021 C   0  0  0  0  0  0  0  0  0  0  0  0
  -28.1016   -2.4701   -6.0615 C   0  0  0  0  0  0  0  0  0  0  0  0
  -28.5447   -3.8148   -5.9972 C   0  0  0  0  0  0  0  0  0  0  0  0
  -29.3972   -8.1526   -8.2193 C   0  0  0  0  0  0  0  0  0  0  0  0
  -28.8074   -6.9130   -7.9510 C   0  0  0  0  0  0  0  0  0  0  0  0
  -29.4945   -5.8475   -7.3091 C   0  0  0  0  0  0  0  0  0  0  0  0
  -30.8164   -6.0979   -6.9301 C   0  0  0  0  0  0  0  0  0  0  0  0
  -31.3924   -7.3592   -7.1012 C   0  0  0  0  0  0  0  0  0  0  0  0
  -30.6723   -8.3965   -7.7075 C   0  0  0  0  0  0  0  0  0  0  0  0
  -31.3230   -9.7308   -7.7473 C   0  0  0  0  0  0  0  0  0  0  0  0
  -30.8018  -10.8402   -6.8582 C   0  0  0  0  0  0  0  0  0  0  0  0
  -32.3188   -9.8947   -8.4357 O   0  0  0  0  0  0  0  0  0  0  0  0
  -27.4624   -8.9395   -9.3992 C   0  0  0  0  0  0  0  0  0  0  0  0
  -28.8161   -9.1230   -8.9926 O   0  0  0  0  0  0  0  0  0  0  0  0
  -28.0439   -1.8315   -9.7536 N   0  0  0  0  0  0  0  0  0  0  0  0
  -26.8260   -1.6514  -10.4022 C   0  0  0  0  0  0  0  0  0  0  0  0
  -25.7299   -2.0041   -9.9753 O   0  0  0  0  0  0  0  0  0  0  0  0
  -26.9386   -0.9820  -11.6124 N   0  0  0  0  0  0  0  0  0  0  0  0
  -28.8792   -1.5618  -10.2512 H   0  0  0  0  0  0  0  0  0  0  0  0
  -27.5949   -0.2156  -11.6049 H   0  0  0  0  0  0  0  0  0  0  0  0
  -25.7511   -0.7856  -12.3693 C   0  0  0  0  0  0  0  0  0  0  0  0
  -25.5890   -1.4029  -13.6169 C   0  0  0  0  0  0  0  0  0  0  0  0
  -24.3932   -1.2717  -14.3276 C   0  0  0  0  0  0  0  0  0  0  0  0
  -23.3527   -0.5077  -13.8002 C   0  0  0  0  0  0  0  0  0  0  0  0
  -23.5058    0.0854  -12.5444 C   0  0  0  0  0  0  0  0  0  0  0  0
  -24.7111   -0.0227  -11.8410 C   0  0  0  0  0  0  0  0  0  0  0  0
  -22.1451   -0.2860  -14.4082 O   0  0  0  0  0  0  0  0  0  0  0  0
  -21.5511    0.9815  -14.1116 C   0  0  0  0  0  0  0  0  0  0  0  0
  -20.3723    1.2368  -15.0646 C   0  0  0  0  0  0  0  0  0  0  0  0
  -19.1312    1.5931  -14.3472 N   0  0  0  0  0  0  0  0  0  0  0  0
  -18.7522    3.0056  -14.5053 C   0  0  0  0  0  0  0  0  0  0  0  0
  -17.9713    3.0486  -15.8004 C   0  0  0  0  0  0  0  0  0  0  0  0
  -17.1584    1.7715  -15.7346 C   0  0  0  0  0  0  0  0  0  0  0  0
  -17.9780    0.8268  -14.8575 C   0  0  0  0  0  0  0  0  0  0  0  0
  -27.7460   -1.8279   -4.8998 O   0  0  0  0  0  0  0  0  0  0  0  0
  -27.6275   -0.4116   -5.0228 C   0  0  0  0  0  0  0  0  0  0  0  0
  -28.6252   -4.5611   -4.8440 O   0  0  0  0  0  0  0  0  0  0  0  0
  -29.6840   -4.2878   -3.9355 C   0  0  0  0  0  0  0  0  0  0  0  0
 16 17  1  0  0  0
 17  7  1  0  0  0
  7  8  1  0  0  0
  7 12  2  0  0  0
  8  9  2  0  0  0
  9  1  1  0  0  0
  9 10  1  0  0  0
  1  2  1  0  0  0
  1  6  2  0  0  0
  2  3  2  0  0  0
  3 18  1  0  0  0
  3  4  1  0  0  0
 18 19  1  0  0  0
 18 22  1  0  0  0
 19 20  2  0  0  0
 19 21  1  0  0  0
 21 24  1  0  0  0
 21 23  1  0  0  0
 24 25  1  0  0  0
 24 29  2  0  0  0
 25 26  2  0  0  0
 26 27  1  0  0  0
 27 30  1  0  0  0
 27 28  2  0  0  0
 30 31  1  0  0  0
 31 32  1  0  0  0
 32 33  1  0  0  0
 33 34  1  0  0  0
 33 37  1  0  0  0
 34 35  1  0  0  0
 35 36  1  0  0  0
 36 37  1  0  0  0
 28 29  1  0  0  0
  4  5  2  0  0  0
  5 38  1  0  0  0
  5  6  1  0  0  0
 38 39  1  0  0  0
  6 40  1  0  0  0
 40 41  1  0  0  0
 10 11  2  0  0  0
 11 12  1  0  0  0
 12 13  1  0  0  0
 13 14  1  0  0  0
 13 15  2  0  0  0
M  END
> <minimizedAffinity>
-10.58788

$$$$
