CHEMBL1088153


 41 45  0  0  0  0  0  0  0  0999 V2000
  -29.6402   -3.9955   -4.2801 C   0  0  0  0  0  0  0  0  0  0  0  0
  -29.2179   -3.6695   -5.6855 C   0  0  0  0  0  0  0  0  0  0  0  0
  -28.8952   -2.3327   -5.9660 C   0  0  0  0  0  0  0  0  0  0  0  0
  -28.3323   -1.9700   -7.1851 C   0  0  0  0  0  0  0  0  0  0  0  0
  -28.0217   -2.9418   -8.1258 C   0  0  0  0  0  0  0  0  0  0  0  0
  -28.4398   -4.2598   -7.8896 C   0  0  0  0  0  0  0  0  0  0  0  0
  -29.1037   -4.6419   -6.7045 C   0  0  0  0  0  0  0  0  0  0  0  0
  -27.2847   -2.6722   -9.3040 N   0  0  0  0  0  0  0  0  0  0  0  0
  -27.5580   -1.6807  -10.2355 C   0  0  0  0  0  0  0  0  0  0  0  0
  -28.5148   -0.9159  -10.1721 O   0  0  0  0  0  0  0  0  0  0  0  0
  -26.4109   -3.1611   -9.3923 H   0  0  0  0  0  0  0  0  0  0  0  0
  -26.5867   -1.5668  -11.3060 C   0  0  0  0  0  0  0  0  0  0  0  0
  -25.2471   -1.2210  -11.2966 C   0  0  0  0  0  0  0  0  0  0  0  0
  -24.8144   -1.2669  -12.6434 C   0  0  0  0  0  0  0  0  0  0  0  0
  -25.8119   -1.6362  -13.4504 N   0  0  0  0  0  0  0  0  0  0  0  0
  -26.8658   -1.8140  -12.6302 N   0  0  0  0  0  0  0  0  0  0  0  0
  -28.1341   -2.2013  -13.2125 C   0  0  0  0  0  0  0  0  0  0  0  0
  -23.4320   -0.9418  -13.1827 C   0  0  0  0  0  0  0  0  0  0  0  0
  -22.7158   -2.2397  -13.6049 C   0  0  0  0  0  0  0  0  0  0  0  0
  -23.4832   -0.0018  -14.4058 C   0  0  0  0  0  0  0  0  0  0  0  0
  -22.6047   -0.2454  -12.0827 C   0  0  0  0  0  0  0  0  0  0  0  0
  -29.6186   -5.9518   -6.5060 N   0  0  0  0  0  0  0  0  0  0  0  0
  -30.3651   -6.1906   -7.1584 H   0  0  0  0  0  0  0  0  0  0  0  0
  -28.9666   -7.0103   -5.9372 C   0  0  0  0  0  0  0  0  0  0  0  0
  -27.8765   -6.9798   -5.1996 N   0  0  0  0  0  0  0  0  0  0  0  0
  -27.6396   -8.2552   -4.7902 C   0  0  0  0  0  0  0  0  0  0  0  0
  -26.5979   -8.7276   -3.9766 C   0  0  0  0  0  0  0  0  0  0  0  0
  -26.5312  -10.0900   -3.6779 C   0  0  0  0  0  0  0  0  0  0  0  0
  -27.4610  -10.9733   -4.2177 C   0  0  0  0  0  0  0  0  0  0  0  0
  -28.4896  -10.5212   -5.0547 C   0  0  0  0  0  0  0  0  0  0  0  0
  -28.5923   -9.1359   -5.2919 C   0  0  0  0  0  0  0  0  0  0  0  0
  -29.4668   -8.3219   -6.0166 N   0  0  0  0  0  0  0  0  0  0  0  0
  -30.6577   -8.7194   -6.7015 C   0  0  0  0  0  0  0  0  0  0  0  0
  -30.6545   -9.8641   -7.4738 C   0  0  0  0  0  0  0  0  0  0  0  0
  -31.8381  -10.2037   -8.0890 C   0  0  0  0  0  0  0  0  0  0  0  0
  -31.9140  -11.3623   -8.8599 N   0  0  0  0  0  0  0  0  0  0  0  0
  -32.9359   -9.4491   -8.0114 N   0  0  0  0  0  0  0  0  0  0  0  0
  -32.8488   -8.3587   -7.2388 C   0  0  0  0  0  0  0  0  0  0  0  0
  -31.7748   -7.9722   -6.5316 N   0  0  0  0  0  0  0  0  0  0  0  0
  -31.5926  -12.1815   -8.3557 H   0  0  0  0  0  0  0  0  0  0  0  0
  -32.8768  -11.4685   -9.1717 H   0  0  0  0  0  0  0  0  0  0  0  0
  1  2  1  0  0  0
  2  3  1  0  0  0
  2  7  2  0  0  0
  3  4  2  0  0  0
  4  5  1  0  0  0
  5  8  1  0  0  0
  5  6  2  0  0  0
  8  9  1  0  0  0
  8 11  1  0  0  0
  9 10  2  0  0  0
  9 12  1  0  0  0
 12 13  2  0  0  0
 12 16  1  0  0  0
 13 14  1  0  0  0
 14 18  1  0  0  0
 14 15  2  0  0  0
 18 19  1  0  0  0
 18 20  1  0  0  0
 18 21  1  0  0  0
 15 16  1  0  0  0
 16 17  1  0  0  0
  6  7  1  0  0  0
  7 22  1  0  0  0
 22 24  1  0  0  0
 22 23  1  0  0  0
 24 25  2  0  0  0
 24 32  1  0  0  0
 25 26  1  0  0  0
 26 27  1  0  0  0
 26 31  2  0  0  0
 27 28  2  0  0  0
 28 29  1  0  0  0
 29 30  2  0  0  0
 30 31  1  0  0  0
 31 32  1  0  0  0
 32 33  1  0  0  0
 33 34  1  0  0  0
 33 39  2  0  0  0
 34 35  2  0  0  0
 35 36  1  0  0  0
 35 37  1  0  0  0
 36 40  1  0  0  0
 36 41  1  0  0  0
 37 38  2  0  0  0
 38 39  1  0  0  0
M  END
> <minimizedAffinity>
-10.51874

$$$$
