CHEMBL3660284


 40 43  0  0  0  0  0  0  0  0999 V2000
  -12.0467   -0.7824  -13.6713 C   0  0  0  0  0  0  0  0  0  0  0  0
  -12.9958    0.1720  -13.2870 C   0  0  0  0  0  0  0  0  0  0  0  0
  -13.9795    0.5963  -14.1808 C   0  0  0  0  0  0  0  0  0  0  0  0
  -13.9883    0.1198  -15.4921 C   0  0  0  0  0  0  0  0  0  0  0  0
  -13.0313   -0.8242  -15.8830 C   0  0  0  0  0  0  0  0  0  0  0  0
  -12.0450   -1.2584  -14.9835 C   0  0  0  0  0  0  0  0  0  0  0  0
  -10.7019   -2.7014  -10.9045 N   0  0  0  0  0  0  0  0  0  0  0  0
  -11.6251   -2.3227  -11.8662 C   0  0  0  0  0  0  0  0  0  0  0  0
  -12.7250   -2.8395  -12.0234 O   0  0  0  0  0  0  0  0  0  0  0  0
  -11.1507   -1.3227  -12.7085 N   0  0  0  0  0  0  0  0  0  0  0  0
   -9.7702   -2.3277  -10.9981 H   0  0  0  0  0  0  0  0  0  0  0  0
  -10.2013   -1.4666  -13.0236 H   0  0  0  0  0  0  0  0  0  0  0  0
  -11.4597   -3.8106   -6.1406 C   0  0  0  0  0  0  0  0  0  0  0  0
  -11.2550   -4.2535   -7.5610 C   0  0  0  0  0  0  0  0  0  0  0  0
  -11.1995   -5.6181   -7.8596 C   0  0  0  0  0  0  0  0  0  0  0  0
  -11.0429   -6.0340   -9.1753 C   0  0  0  0  0  0  0  0  0  0  0  0
  -10.9224   -5.0939  -10.1963 C   0  0  0  0  0  0  0  0  0  0  0  0
  -10.9159   -5.5836  -11.4423 F   0  0  0  0  0  0  0  0  0  0  0  0
  -10.9087   -3.7155   -9.9286 C   0  0  0  0  0  0  0  0  0  0  0  0
  -11.1114   -3.3083   -8.5984 C   0  0  0  0  0  0  0  0  0  0  0  0
  -14.9387    0.4717  -16.4326 O   0  0  0  0  0  0  0  0  0  0  0  0
  -15.7654    1.5494  -16.1891 C   0  0  0  0  0  0  0  0  0  0  0  0
  -15.3849    2.8687  -16.4074 C   0  0  0  0  0  0  0  0  0  0  0  0
  -16.2801    3.8652  -16.0896 C   0  0  0  0  0  0  0  0  0  0  0  0
  -17.5285    3.6299  -15.6349 N   0  0  0  0  0  0  0  0  0  0  0  0
  -17.9177    2.3387  -15.4918 C   0  0  0  0  0  0  0  0  0  0  0  0
  -17.0666    1.2696  -15.7573 C   0  0  0  0  0  0  0  0  0  0  0  0
  -19.3018    2.1764  -15.0479 C   0  0  0  0  0  0  0  0  0  0  0  0
  -20.1464    3.1818  -14.6182 C   0  0  0  0  0  0  0  0  0  0  0  0
  -21.3448    2.6172  -14.2589 N   0  0  0  0  0  0  0  0  0  0  0  0
  -21.2955    1.2485  -14.4050 C   0  0  0  0  0  0  0  0  0  0  0  0
  -20.0434    0.9598  -14.9210 C   0  0  0  0  0  0  0  0  0  0  0  0
  -22.1471    3.1150  -13.8918 H   0  0  0  0  0  0  0  0  0  0  0  0
  -22.3849    0.3956  -13.9995 C   0  0  0  0  0  0  0  0  0  0  0  0
  -23.3849    0.1885  -14.6733 O   0  0  0  0  0  0  0  0  0  0  0  0
  -22.1807   -0.0806  -12.7410 O   0  0  0  0  0  0  0  0  0  0  0  0
  -23.3716   -0.2875  -11.9584 C   0  0  0  0  0  0  0  0  0  0  0  0
  -23.6342   -1.7563  -11.6359 C   0  0  0  0  0  0  0  0  0  0  0  0
  -24.7060   -1.8849  -10.7067 O   0  0  0  0  0  0  0  0  0  0  0  0
  -24.4338   -1.4141   -9.8990 H   0  0  0  0  0  0  0  0  0  0  0  0
 13 14  1  0  0  0
 14 15  1  0  0  0
 14 20  2  0  0  0
 15 16  2  0  0  0
 16 17  1  0  0  0
 17 18  1  0  0  0
 17 19  2  0  0  0
 19  7  1  0  0  0
 19 20  1  0  0  0
  7  8  1  0  0  0
  7 11  1  0  0  0
  8  9  2  0  0  0
  8 10  1  0  0  0
 10  1  1  0  0  0
 10 12  1  0  0  0
  1  2  1  0  0  0
  1  6  2  0  0  0
  2  3  2  0  0  0
  3  4  1  0  0  0
  4 21  1  0  0  0
  4  5  2  0  0  0
 21 22  1  0  0  0
 22 23  1  0  0  0
 22 27  2  0  0  0
 23 24  2  0  0  0
 24 25  1  0  0  0
 25 26  2  0  0  0
 26 28  1  0  0  0
 26 27  1  0  0  0
 28 29  2  0  0  0
 28 32  1  0  0  0
 29 30  1  0  0  0
 30 31  1  0  0  0
 30 33  1  0  0  0
 31 34  1  0  0  0
 31 32  2  0  0  0
 34 35  2  0  0  0
 34 36  1  0  0  0
 36 37  1  0  0  0
 37 38  1  0  0  0
 38 39  1  0  0  0
 39 40  1  0  0  0
  5  6  1  0  0  0
M  END
> <minimizedAffinity>
-8.38505

$$$$
