CHEMBL222918


 32 35  0  0  0  0  0  0  0  0999 V2000
  -27.7172   -2.2444   -9.2005 C   0  0  0  0  0  0  0  0  0  0  0  0
  -27.9426   -3.5574   -8.7913 C   0  0  0  0  0  0  0  0  0  0  0  0
  -28.4372   -3.8333   -7.5129 C   0  0  0  0  0  0  0  0  0  0  0  0
  -28.6802   -2.8165   -6.5695 C   0  0  0  0  0  0  0  0  0  0  0  0
  -28.3765   -1.5048   -6.9865 C   0  0  0  0  0  0  0  0  0  0  0  0
  -27.8877   -1.2173   -8.2773 C   0  0  0  0  0  0  0  0  0  0  0  0
  -29.0816   -3.1439   -5.1730 C   0  0  0  0  0  0  0  0  0  0  0  0
  -28.7118   -2.2739   -4.1061 C   0  0  0  0  0  0  0  0  0  0  0  0
  -29.1893   -2.4182   -2.8079 C   0  0  0  0  0  0  0  0  0  0  0  0
  -30.1579   -3.3672   -2.5182 C   0  0  0  0  0  0  0  0  0  0  0  0
  -30.5576   -4.2099   -3.5596 C   0  0  0  0  0  0  0  0  0  0  0  0
  -29.9644   -4.2157   -4.8287 C   0  0  0  0  0  0  0  0  0  0  0  0
  -30.4192   -5.4772   -5.3654 C   0  0  0  0  0  0  0  0  0  0  0  0
  -31.5128   -5.9020   -4.7317 N   0  0  0  0  0  0  0  0  0  0  0  0
  -31.5370   -5.1680   -3.6199 N   0  0  0  0  0  0  0  0  0  0  0  0
  -32.4808   -5.5124   -2.5866 C   0  0  0  0  0  0  0  0  0  0  0  0
  -29.7486   -6.2539   -6.2697 N   0  0  0  0  0  0  0  0  0  0  0  0
  -28.6841   -7.1078   -5.6977 C   0  0  0  0  0  0  0  0  0  0  0  0
  -30.5288   -6.9103   -7.3261 C   0  0  0  0  0  0  0  0  0  0  0  0
  -25.9357   -1.2664  -12.2111 N   0  0  0  0  0  0  0  0  0  0  0  0
  -26.1388   -1.4527  -10.8554 C   0  0  0  0  0  0  0  0  0  0  0  0
  -25.2946   -1.2476   -9.9915 O   0  0  0  0  0  0  0  0  0  0  0  0
  -27.4099   -1.9495  -10.5566 N   0  0  0  0  0  0  0  0  0  0  0  0
  -26.7544   -1.2037  -12.7953 H   0  0  0  0  0  0  0  0  0  0  0  0
  -27.7966   -2.5710  -11.2514 H   0  0  0  0  0  0  0  0  0  0  0  0
  -22.8307    2.2750  -13.7661 C   0  0  0  0  0  0  0  0  0  0  0  0
  -23.1574    0.8253  -13.5683 C   0  0  0  0  0  0  0  0  0  0  0  0
  -22.2359   -0.1525  -13.9630 C   0  0  0  0  0  0  0  0  0  0  0  0
  -22.5352   -1.4980  -13.7849 C   0  0  0  0  0  0  0  0  0  0  0  0
  -23.7481   -1.8713  -13.2137 C   0  0  0  0  0  0  0  0  0  0  0  0
  -24.6888   -0.9197  -12.7958 C   0  0  0  0  0  0  0  0  0  0  0  0
  -24.3778    0.4348  -12.9830 C   0  0  0  0  0  0  0  0  0  0  0  0
 26 27  1  0  0  0
 27 28  1  0  0  0
 27 32  2  0  0  0
 28 29  2  0  0  0
 29 30  1  0  0  0
 30 31  2  0  0  0
 31 20  1  0  0  0
 31 32  1  0  0  0
 20 21  1  0  0  0
 20 24  1  0  0  0
 21 22  2  0  0  0
 21 23  1  0  0  0
 23  1  1  0  0  0
 23 25  1  0  0  0
  1  2  1  0  0  0
  1  6  2  0  0  0
  2  3  2  0  0  0
  3  4  1  0  0  0
  4  7  1  0  0  0
  4  5  2  0  0  0
  7  8  1  0  0  0
  7 12  2  0  0  0
  8  9  2  0  0  0
  9 10  1  0  0  0
 10 11  2  0  0  0
 11 12  1  0  0  0
 11 15  1  0  0  0
 12 13  1  0  0  0
 13 17  1  0  0  0
 13 14  2  0  0  0
 17 18  1  0  0  0
 17 19  1  0  0  0
 14 15  1  0  0  0
 15 16  1  0  0  0
  5  6  1  0  0  0
M  END
> <minimizedAffinity>
-9.46107

$$$$
