CHEMBL3403514


 22 25  0  0  0  0  0  0  0  0999 V2000
  -32.3122   -9.0613   -7.6268 C   0  0  0  0  0  0  0  0  0  0  0  0
  -31.1656   -8.5149   -6.8315 C   0  0  0  0  0  0  0  0  0  0  0  0
  -31.2611   -7.2350   -6.4172 N   0  0  0  0  0  0  0  0  0  0  0  0
  -30.2700   -6.6439   -5.6824 C   0  0  0  0  0  0  0  0  0  0  0  0
  -29.1630   -7.4613   -5.3745 C   0  0  0  0  0  0  0  0  0  0  0  0
  -27.9549   -7.3654   -4.6234 C   0  0  0  0  0  0  0  0  0  0  0  0
  -27.3102   -8.5751   -4.7434 C   0  0  0  0  0  0  0  0  0  0  0  0
  -26.0282   -9.0944   -4.2298 C   0  0  0  0  0  0  0  0  0  0  0  0
  -28.0582   -9.4293   -5.4901 O   0  0  0  0  0  0  0  0  0  0  0  0
  -29.1882   -8.7624   -5.8636 C   0  0  0  0  0  0  0  0  0  0  0  0
  -30.1459   -9.3441   -6.5926 N   0  0  0  0  0  0  0  0  0  0  0  0
  -30.4535   -5.3058   -5.2673 N   0  0  0  0  0  0  0  0  0  0  0  0
  -31.2767   -5.0513   -4.0869 C   0  0  0  0  0  0  0  0  0  0  0  0
  -29.7695   -4.1855   -5.8133 C   0  0  0  0  0  0  0  0  0  0  0  0
  -29.1850   -4.2024   -7.0979 C   0  0  0  0  0  0  0  0  0  0  0  0
  -28.4950   -3.1025   -7.6365 C   0  0  0  0  0  0  0  0  0  0  0  0
  -28.4042   -1.9790   -6.8295 C   0  0  0  0  0  0  0  0  0  0  0  0
  -27.7740   -0.8142   -7.1558 O   0  0  0  0  0  0  0  0  0  0  0  0
  -27.9176    0.0196   -6.0940 C   0  0  0  0  0  0  0  0  0  0  0  0
  -28.6273   -0.5910   -5.0859 C   0  0  0  0  0  0  0  0  0  0  0  0
  -28.9502   -1.8901   -5.5581 C   0  0  0  0  0  0  0  0  0  0  0  0
  -29.6410   -3.0038   -5.0486 C   0  0  0  0  0  0  0  0  0  0  0  0
  1  2  1  0  0  0
  2  3  1  0  0  0
  2 11  2  0  0  0
  3  4  2  0  0  0
  4 12  1  0  0  0
  4  5  1  0  0  0
 12 13  1  0  0  0
 12 14  1  0  0  0
 14 15  1  0  0  0
 14 22  2  0  0  0
 15 16  2  0  0  0
 16 17  1  0  0  0
 17 18  1  0  0  0
 17 21  2  0  0  0
 18 19  1  0  0  0
 19 20  2  0  0  0
 20 21  1  0  0  0
 21 22  1  0  0  0
  5  6  1  0  0  0
  5 10  2  0  0  0
  6  7  2  0  0  0
  7  8  1  0  0  0
  7  9  1  0  0  0
  9 10  1  0  0  0
 10 11  1  0  0  0
M  END
> <minimizedAffinity>
-7.86994

$$$$
