CHEMBL3622959


 31 35  0  0  0  0  0  0  0  0999 V2000
  -28.6742   -3.0822   -6.9458 C   0  0  0  0  0  0  0  0  0  0  0  0
  -28.5252   -1.8458   -6.3555 C   0  0  0  0  0  0  0  0  0  0  0  0
  -27.8861   -0.9066   -7.1174 C   0  0  0  0  0  0  0  0  0  0  0  0
  -27.4504   -1.1327   -8.3665 N   0  0  0  0  0  0  0  0  0  0  0  0
  -27.6433   -2.3496   -8.8899 C   0  0  0  0  0  0  0  0  0  0  0  0
  -28.2317   -3.3560   -8.2084 N   0  0  0  0  0  0  0  0  0  0  0  0
  -31.6508   -5.2116   -3.7440 C   0  0  0  0  0  0  0  0  0  0  0  0
  -30.5049   -5.0550   -4.6847 C   0  0  0  0  0  0  0  0  0  0  0  0
  -30.2662   -3.8753   -5.2633 N   0  0  0  0  0  0  0  0  0  0  0  0
  -29.2762   -4.1207   -6.1627 N   0  0  0  0  0  0  0  0  0  0  0  0
  -28.9621   -5.4611   -6.1954 C   0  0  0  0  0  0  0  0  0  0  0  0
  -29.6095   -6.0671   -5.1309 C   0  0  0  0  0  0  0  0  0  0  0  0
  -29.5400   -7.4786   -4.6376 C   0  0  0  0  0  0  0  0  0  0  0  0
  -28.8069   -8.3813   -5.5524 N   0  0  0  0  0  0  0  0  0  0  0  0
  -29.4630   -9.6866   -5.8287 C   0  0  0  0  0  0  0  0  0  0  0  0
  -28.8417  -10.2730   -4.5448 C   0  0  0  0  0  0  0  0  0  0  0  0
  -29.6476  -10.2361   -3.3382 O   0  0  0  0  0  0  0  0  0  0  0  0
  -27.7954   -9.1436   -4.7466 C   0  0  0  0  0  0  0  0  0  0  0  0
  -30.5432   -9.9838   -3.6311 H   0  0  0  0  0  0  0  0  0  0  0  0
  -27.2163   -2.6474  -10.1874 N   0  0  0  0  0  0  0  0  0  0  0  0
  -27.3564   -3.6315  -10.3612 H   0  0  0  0  0  0  0  0  0  0  0  0
  -26.3577   -1.9817  -11.0907 C   0  0  0  0  0  0  0  0  0  0  0  0
  -25.1643   -1.3465  -10.7196 C   0  0  0  0  0  0  0  0  0  0  0  0
  -24.2737   -0.7857  -11.6568 C   0  0  0  0  0  0  0  0  0  0  0  0
  -24.6094   -0.8954  -13.0106 C   0  0  0  0  0  0  0  0  0  0  0  0
  -25.8062   -1.4686  -13.4251 C   0  0  0  0  0  0  0  0  0  0  0  0
  -25.7736   -1.4002  -14.8303 C   0  0  0  0  0  0  0  0  0  0  0  0
  -24.6555   -0.8372  -15.2934 N   0  0  0  0  0  0  0  0  0  0  0  0
  -23.9686   -0.5338  -14.1720 N   0  0  0  0  0  0  0  0  0  0  0  0
  -22.6768    0.0982  -14.2993 C   0  0  0  0  0  0  0  0  0  0  0  0
  -26.7065   -1.9702  -12.4559 C   0  0  0  0  0  0  0  0  0  0  0  0
  7  8  1  0  0  0
  8  9  2  0  0  0
  8 12  1  0  0  0
  9 10  1  0  0  0
 10  1  1  0  0  0
 10 11  1  0  0  0
  1  2  1  0  0  0
  1  6  2  0  0  0
  2  3  2  0  0  0
  3  4  1  0  0  0
  4  5  2  0  0  0
  5 20  1  0  0  0
  5  6  1  0  0  0
 20 22  1  0  0  0
 20 21  1  0  0  0
 22 23  1  0  0  0
 22 31  2  0  0  0
 23 24  2  0  0  0
 24 25  1  0  0  0
 25 26  2  0  0  0
 25 29  1  0  0  0
 26 27  1  0  0  0
 26 31  1  0  0  0
 27 28  2  0  0  0
 28 29  1  0  0  0
 29 30  1  0  0  0
 11 12  2  0  0  0
 12 13  1  0  0  0
 13 14  1  0  0  0
 14 15  1  0  0  0
 14 18  1  0  0  0
 15 16  1  0  0  0
 16 17  1  0  0  0
 16 18  1  0  0  0
 17 19  1  0  0  0
M  END
> <minimizedAffinity>
-9.67366

$$$$
