CHEMBL391437


 30 35  0  0  0  0  0  0  0  0999 V2000
  -28.9966   -5.6667   -7.3730 C   0  0  0  0  0  0  0  0  0  0  0  0
  -29.2265   -5.2531   -6.0485 C   0  0  0  0  0  0  0  0  0  0  0  0
  -29.0565   -4.0041   -5.5261 N   0  0  0  0  0  0  0  0  0  0  0  0
  -28.5615   -3.1388   -6.4280 C   0  0  0  0  0  0  0  0  0  0  0  0
  -28.2267   -1.8338   -6.2104 N   0  0  0  0  0  0  0  0  0  0  0  0
  -27.6843   -1.2176   -7.2868 N   0  0  0  0  0  0  0  0  0  0  0  0
  -27.7170   -2.1755   -8.2308 C   0  0  0  0  0  0  0  0  0  0  0  0
  -28.2855   -3.3834   -7.7584 C   0  0  0  0  0  0  0  0  0  0  0  0
  -28.5739   -4.6625   -8.2590 C   0  0  0  0  0  0  0  0  0  0  0  0
  -28.3285   -1.3222   -5.3431 H   0  0  0  0  0  0  0  0  0  0  0  0
  -32.7353   -9.4348   -7.2412 C   0  0  0  0  0  0  0  0  0  0  0  0
  -32.7584   -8.0947   -6.8921 C   0  0  0  0  0  0  0  0  0  0  0  0
  -31.6334   -7.2951   -7.1179 C   0  0  0  0  0  0  0  0  0  0  0  0
  -30.4193   -7.8116   -7.6457 C   0  0  0  0  0  0  0  0  0  0  0  0
  -29.1981   -7.0737   -7.8123 C   0  0  0  0  0  0  0  0  0  0  0  0
  -28.1330   -7.7640   -8.4102 C   0  0  0  0  0  0  0  0  0  0  0  0
  -28.1605   -9.0456   -8.8364 N   0  0  0  0  0  0  0  0  0  0  0  0
  -29.3103   -9.7155   -8.6297 C   0  0  0  0  0  0  0  0  0  0  0  0
  -30.4479   -9.1732   -8.0371 C   0  0  0  0  0  0  0  0  0  0  0  0
  -31.5935   -9.9668   -7.8334 C   0  0  0  0  0  0  0  0  0  0  0  0
  -27.1490   -1.9590   -9.5935 C   0  0  0  0  0  0  0  0  0  0  0  0
  -25.9177   -1.5692   -9.8609 N   0  0  0  0  0  0  0  0  0  0  0  0
  -25.8470   -1.5063  -11.2312 C   0  0  0  0  0  0  0  0  0  0  0  0
  -24.7656   -1.1677  -12.0582 C   0  0  0  0  0  0  0  0  0  0  0  0
  -24.9492   -1.1902  -13.4464 C   0  0  0  0  0  0  0  0  0  0  0  0
  -26.1852   -1.5376  -13.9980 C   0  0  0  0  0  0  0  0  0  0  0  0
  -27.2791   -1.8651  -13.1911 C   0  0  0  0  0  0  0  0  0  0  0  0
  -27.0658   -1.8490  -11.8112 C   0  0  0  0  0  0  0  0  0  0  0  0
  -27.8773   -2.1267  -10.7430 N   0  0  0  0  0  0  0  0  0  0  0  0
  -28.8467   -2.4062  -10.7636 H   0  0  0  0  0  0  0  0  0  0  0  0
 11 12  1  0  0  0
 11 20  2  0  0  0
 12 13  2  0  0  0
 13 14  1  0  0  0
 14 15  1  0  0  0
 14 19  2  0  0  0
 15  1  1  0  0  0
 15 16  2  0  0  0
  1  2  1  0  0  0
  1  9  2  0  0  0
  2  3  2  0  0  0
  3  4  1  0  0  0
  4  5  1  0  0  0
  4  8  2  0  0  0
  5  6  1  0  0  0
  5 10  1  0  0  0
  6  7  2  0  0  0
  7 21  1  0  0  0
  7  8  1  0  0  0
 21 22  2  0  0  0
 21 29  1  0  0  0
 22 23  1  0  0  0
 23 24  1  0  0  0
 23 28  2  0  0  0
 24 25  2  0  0  0
 25 26  1  0  0  0
 26 27  2  0  0  0
 27 28  1  0  0  0
 28 29  1  0  0  0
 29 30  1  0  0  0
  8  9  1  0  0  0
 16 17  1  0  0  0
 17 18  2  0  0  0
 18 19  1  0  0  0
 19 20  1  0  0  0
M  END
> <minimizedAffinity>
-10.96607

$$$$
