CHEMBL150187


 31 34  0  0  0  0  0  0  0  0999 V2000
  -26.8257   -8.9973   -4.8874 C   0  0  0  0  0  0  0  0  0  0  0  0
  -27.7352   -8.0401   -4.4345 C   0  0  0  0  0  0  0  0  0  0  0  0
  -28.9695   -7.8452   -5.0686 C   0  0  0  0  0  0  0  0  0  0  0  0
  -29.8427   -6.8069   -4.7198 C   0  0  0  0  0  0  0  0  0  0  0  0
  -31.0069   -6.6188   -5.3586 N   0  0  0  0  0  0  0  0  0  0  0  0
  -31.2918   -7.4911   -6.3335 C   0  0  0  0  0  0  0  0  0  0  0  0
  -30.5276   -8.5121   -6.7446 N   0  0  0  0  0  0  0  0  0  0  0  0
  -29.3612   -8.6878   -6.1107 C   0  0  0  0  0  0  0  0  0  0  0  0
  -28.4895   -9.7195   -6.4833 C   0  0  0  0  0  0  0  0  0  0  0  0
  -27.2332   -9.9039   -5.8733 C   0  0  0  0  0  0  0  0  0  0  0  0
  -25.3480   -9.9429   -3.3177 C   0  0  0  0  0  0  0  0  0  0  0  0
  -25.5514   -9.0285   -4.3970 O   0  0  0  0  0  0  0  0  0  0  0  0
  -29.4474   -5.8764   -3.7164 N   0  0  0  0  0  0  0  0  0  0  0  0
  -28.7069   -6.2940   -3.1572 H   0  0  0  0  0  0  0  0  0  0  0  0
  -29.1919   -4.5067   -3.9561 C   0  0  0  0  0  0  0  0  0  0  0  0
  -30.2105   -3.5460   -3.9609 C   0  0  0  0  0  0  0  0  0  0  0  0
  -31.4706   -3.8927   -3.6560 F   0  0  0  0  0  0  0  0  0  0  0  0
  -29.9513   -2.2071   -4.2432 C   0  0  0  0  0  0  0  0  0  0  0  0
  -28.6421   -1.8110   -4.5082 C   0  0  0  0  0  0  0  0  0  0  0  0
  -28.2876   -0.0065   -4.9413 Br  0  0  0  0  0  0  0  0  0  0  0  0
  -27.5972   -2.7298   -4.4611 C   0  0  0  0  0  0  0  0  0  0  0  0
  -27.8820   -4.0629   -4.1737 C   0  0  0  0  0  0  0  0  0  0  0  0
  -26.8727   -4.9464   -4.1272 F   0  0  0  0  0  0  0  0  0  0  0  0
  -26.4781  -10.9445   -6.3724 O   0  0  0  0  0  0  0  0  0  0  0  0
  -25.7875  -10.6532   -7.5996 C   0  0  0  0  0  0  0  0  0  0  0  0
  -26.0866  -11.6897   -8.6763 C   0  0  0  0  0  0  0  0  0  0  0  0
  -26.9705  -11.2153   -9.7108 N   0  0  0  0  0  0  0  0  0  0  0  0
  -28.2842  -11.5263   -9.8911 C   0  0  0  0  0  0  0  0  0  0  0  0
  -28.6632  -10.7336  -10.9457 C   0  0  0  0  0  0  0  0  0  0  0  0
  -27.6059   -9.9640  -11.3419 N   0  0  0  0  0  0  0  0  0  0  0  0
  -26.5707  -10.2579  -10.5653 N   0  0  0  0  0  0  0  0  0  0  0  0
 11 12  1  0  0  0
 12  1  1  0  0  0
  1  2  1  0  0  0
  1 10  2  0  0  0
  2  3  2  0  0  0
  3  4  1  0  0  0
  3  8  1  0  0  0
  4 13  1  0  0  0
  4  5  2  0  0  0
 13 15  1  0  0  0
 13 14  1  0  0  0
 15 16  1  0  0  0
 15 22  2  0  0  0
 16 17  1  0  0  0
 16 18  2  0  0  0
 18 19  1  0  0  0
 19 20  1  0  0  0
 19 21  2  0  0  0
 21 22  1  0  0  0
 22 23  1  0  0  0
  5  6  1  0  0  0
  6  7  2  0  0  0
  7  8  1  0  0  0
  8  9  2  0  0  0
  9 10  1  0  0  0
 10 24  1  0  0  0
 24 25  1  0  0  0
 25 26  1  0  0  0
 26 27  1  0  0  0
 27 28  1  0  0  0
 27 31  1  0  0  0
 28 29  2  0  0  0
 29 30  1  0  0  0
 30 31  2  0  0  0
M  END
> <minimizedAffinity>
-7.79627

$$$$
