CHEMBL243839


 40 43  0  0  0  0  0  0  0  0999 V2000
  -28.4719   -1.5084   -5.2910 C   0  0  0  0  0  0  0  0  0  0  0  0
  -29.3356   -1.9820   -4.2832 C   0  0  0  0  0  0  0  0  0  0  0  0
  -30.0021   -3.1950   -4.3783 C   0  0  0  0  0  0  0  0  0  0  0  0
  -30.7419   -3.6216   -3.3498 N   0  0  0  0  0  0  0  0  0  0  0  0
  -31.3689   -4.7930   -3.5083 C   0  0  0  0  0  0  0  0  0  0  0  0
  -31.3433   -5.5599   -4.6018 N   0  0  0  0  0  0  0  0  0  0  0  0
  -30.5739   -5.1268   -5.6183 C   0  0  0  0  0  0  0  0  0  0  0  0
  -29.8671   -3.9234   -5.5545 C   0  0  0  0  0  0  0  0  0  0  0  0
  -29.0789   -3.4232   -6.6042 C   0  0  0  0  0  0  0  0  0  0  0  0
  -28.3265   -2.2564   -6.4693 C   0  0  0  0  0  0  0  0  0  0  0  0
  -27.4293   -1.8614   -7.4991 N   0  0  0  0  0  0  0  0  0  0  0  0
  -27.6978   -2.0362   -8.8482 C   0  0  0  0  0  0  0  0  0  0  0  0
  -28.6635   -2.6390   -9.3102 O   0  0  0  0  0  0  0  0  0  0  0  0
  -26.5059   -1.5742   -7.1971 H   0  0  0  0  0  0  0  0  0  0  0  0
  -26.6899   -1.4523   -9.7725 C   0  0  0  0  0  0  0  0  0  0  0  0
  -26.6804   -1.8987  -11.0432 C   0  0  0  0  0  0  0  0  0  0  0  0
  -25.8011   -1.4003  -12.1470 C   0  0  0  0  0  0  0  0  0  0  0  0
  -24.4739   -0.9950  -11.6586 N   0  0  0  0  0  0  0  0  0  0  0  0
  -23.4380   -1.9761  -11.9904 C   0  0  0  0  0  0  0  0  0  0  0  0
  -24.1139    0.3115  -12.2133 C   0  0  0  0  0  0  0  0  0  0  0  0
  -30.4347   -5.9442   -6.7874 N   0  0  0  0  0  0  0  0  0  0  0  0
  -29.7101   -5.4731   -7.3400 H   0  0  0  0  0  0  0  0  0  0  0  0
  -30.1060   -7.2756   -6.5924 C   0  0  0  0  0  0  0  0  0  0  0  0
  -28.8686   -7.6531   -6.2604 C   0  0  0  0  0  0  0  0  0  0  0  0
  -28.4647   -9.0614   -6.2230 C   0  0  0  0  0  0  0  0  0  0  0  0
  -27.3468   -9.3667   -5.8274 O   0  0  0  0  0  0  0  0  0  0  0  0
  -29.4440  -10.0809   -6.7092 C   0  0  0  0  0  0  0  0  0  0  0  0
  -30.7032   -9.7061   -6.9868 C   0  0  0  0  0  0  0  0  0  0  0  0
  -31.1617   -8.3106   -6.8318 C   0  0  0  0  0  0  0  0  0  0  0  0
  -32.3520   -8.0232   -6.9092 O   0  0  0  0  0  0  0  0  0  0  0  0
  -28.9388  -11.3574   -6.8071 O   0  0  0  0  0  0  0  0  0  0  0  0
  -29.2503  -12.1193   -7.9679 C   0  0  0  0  0  0  0  0  0  0  0  0
  -28.5711  -11.4505   -9.1239 C   0  0  0  0  0  0  0  0  0  0  0  0
  -29.1317  -10.8448  -10.2337 C   0  0  0  0  0  0  0  0  0  0  0  0
  -28.1534  -10.2635  -11.0878 C   0  0  0  0  0  0  0  0  0  0  0  0
  -26.8767  -10.4460  -10.6060 C   0  0  0  0  0  0  0  0  0  0  0  0
  -26.8618  -11.3232   -9.1393 S   0  0  0  0  0  0  0  0  0  0  0  0
  -27.7228   -0.3580   -5.1588 O   0  0  0  0  0  0  0  0  0  0  0  0
  -28.9705    1.2748   -6.4316 C   0  0  0  0  0  0  0  0  0  0  0  0
  -28.4945    0.8496   -5.0583 C   0  0  0  0  0  0  0  0  0  0  0  0
 39 40  1  0  0  0
 40 38  1  0  0  0
 38  1  1  0  0  0
  1  2  1  0  0  0
  1 10  2  0  0  0
  2  3  2  0  0  0
  3  4  1  0  0  0
  3  8  1  0  0  0
  4  5  2  0  0  0
  5  6  1  0  0  0
  6  7  2  0  0  0
  7 21  1  0  0  0
  7  8  1  0  0  0
 21 23  1  0  0  0
 21 22  1  0  0  0
 23 24  2  0  0  0
 23 29  1  0  0  0
 24 25  1  0  0  0
 25 26  2  0  0  0
 25 27  1  0  0  0
 27 31  1  0  0  0
 27 28  2  0  0  0
 31 32  1  0  0  0
 32 33  1  0  0  0
 33 34  2  0  0  0
 33 37  1  0  0  0
 34 35  1  0  0  0
 35 36  2  0  0  0
 36 37  1  0  0  0
 28 29  1  0  0  0
 29 30  2  0  0  0
  8  9  2  0  0  0
  9 10  1  0  0  0
 10 11  1  0  0  0
 11 12  1  0  0  0
 11 14  1  0  0  0
 12 13  2  0  0  0
 12 15  1  0  0  0
 15 16  2  0  0  0
 16 17  1  0  0  0
 17 18  1  0  0  0
 18 19  1  0  0  0
 18 20  1  0  0  0
M  END
> <minimizedAffinity>
-8.73182

$$$$
