CHEMBL390696


 45 49  0  0  0  0  0  0  0  0999 V2000
  -23.6831   -1.3187  -13.5279 C   0  0  0  0  0  0  0  0  0  0  0  0
  -23.3974   -1.5782  -12.1903 C   0  0  0  0  0  0  0  0  0  0  0  0
  -24.4327   -1.8930  -11.3062 C   0  0  0  0  0  0  0  0  0  0  0  0
  -25.7622   -1.9526  -11.7400 C   0  0  0  0  0  0  0  0  0  0  0  0
  -26.0445   -1.6219  -13.0688 C   0  0  0  0  0  0  0  0  0  0  0  0
  -25.0114   -1.2762  -13.9478 C   0  0  0  0  0  0  0  0  0  0  0  0
  -26.8395   -2.3563  -10.9158 N   0  0  0  0  0  0  0  0  0  0  0  0
  -27.0681   -1.9394   -9.6229 C   0  0  0  0  0  0  0  0  0  0  0  0
  -26.4146   -1.0812   -9.0304 O   0  0  0  0  0  0  0  0  0  0  0  0
  -28.1167   -2.6217   -9.0195 N   0  0  0  0  0  0  0  0  0  0  0  0
  -27.5496   -2.9384  -11.3353 H   0  0  0  0  0  0  0  0  0  0  0  0
  -28.1447   -3.6104   -9.2365 H   0  0  0  0  0  0  0  0  0  0  0  0
  -28.4612   -2.2916   -7.6831 C   0  0  0  0  0  0  0  0  0  0  0  0
  -28.6100   -0.9569   -7.2847 C   0  0  0  0  0  0  0  0  0  0  0  0
  -28.8386   -0.6293   -5.9394 C   0  0  0  0  0  0  0  0  0  0  0  0
  -28.9097   -1.6656   -4.9930 C   0  0  0  0  0  0  0  0  0  0  0  0
  -28.7877   -3.0002   -5.3914 C   0  0  0  0  0  0  0  0  0  0  0  0
  -28.5881   -3.3051   -6.7349 C   0  0  0  0  0  0  0  0  0  0  0  0
  -28.4394   -4.5866   -7.1035 F   0  0  0  0  0  0  0  0  0  0  0  0
  -28.9904    0.8109   -5.5115 C   0  0  0  0  0  0  0  0  0  0  0  0
  -30.2726    1.1692   -5.2262 F   0  0  0  0  0  0  0  0  0  0  0  0
  -28.2711    1.0887   -4.3875 F   0  0  0  0  0  0  0  0  0  0  0  0
  -28.5555    1.6880   -6.4571 F   0  0  0  0  0  0  0  0  0  0  0  0
  -22.5988   -1.0952  -14.3477 O   0  0  0  0  0  0  0  0  0  0  0  0
  -18.8519    3.3094  -14.9985 C   0  0  0  0  0  0  0  0  0  0  0  0
  -19.9537    3.7415  -14.4417 N   0  0  0  0  0  0  0  0  0  0  0  0
  -20.7806    2.6498  -14.3732 C   0  0  0  0  0  0  0  0  0  0  0  0
  -22.0924    2.5583  -13.8973 C   0  0  0  0  0  0  0  0  0  0  0  0
  -22.7280    1.3112  -13.9325 C   0  0  0  0  0  0  0  0  0  0  0  0
  -22.0484    0.1703  -14.3799 C   0  0  0  0  0  0  0  0  0  0  0  0
  -20.7566    0.2558  -14.9132 C   0  0  0  0  0  0  0  0  0  0  0  0
  -20.1540    1.5149  -14.8763 C   0  0  0  0  0  0  0  0  0  0  0  0
  -18.9187    1.9653  -15.2597 N   0  0  0  0  0  0  0  0  0  0  0  0
  -18.1828    1.4135  -15.6682 H   0  0  0  0  0  0  0  0  0  0  0  0
  -17.7748    4.0619  -15.2894 N   0  0  0  0  0  0  0  0  0  0  0  0
  -17.9688    5.0596  -15.2320 H   0  0  0  0  0  0  0  0  0  0  0  0
  -16.8564    3.6667  -16.3458 C   0  0  0  0  0  0  0  0  0  0  0  0
  -15.6036    2.9847  -15.7628 C   0  0  0  0  0  0  0  0  0  0  0  0
  -11.9720    0.5290  -13.7160 C   0  0  0  0  0  0  0  0  0  0  0  0
  -13.2551    0.4137  -14.3979 N   0  0  0  0  0  0  0  0  0  0  0  0
  -14.3243    1.0796  -13.6374 C   0  0  0  0  0  0  0  0  0  0  0  0
  -15.6777    0.9479  -14.3682 C   0  0  0  0  0  0  0  0  0  0  0  0
  -15.6885    1.5126  -15.7351 N   0  0  0  0  0  0  0  0  0  0  0  0
  -14.5642    0.9076  -16.4884 C   0  0  0  0  0  0  0  0  0  0  0  0
  -13.1909    0.9548  -15.7686 C   0  0  0  0  0  0  0  0  0  0  0  0
 39 40  1  0  0  0
 40 41  1  0  0  0
 40 45  1  0  0  0
 41 42  1  0  0  0
 42 43  1  0  0  0
 43 38  1  0  0  0
 43 44  1  0  0  0
 38 37  1  0  0  0
 37 35  1  0  0  0
 35 25  1  0  0  0
 35 36  1  0  0  0
 25 26  2  0  0  0
 25 33  1  0  0  0
 26 27  1  0  0  0
 27 28  1  0  0  0
 27 32  2  0  0  0
 28 29  2  0  0  0
 29 30  1  0  0  0
 30 24  1  0  0  0
 30 31  2  0  0  0
 24  1  1  0  0  0
  1  2  1  0  0  0
  1  6  2  0  0  0
  2  3  2  0  0  0
  3  4  1  0  0  0
  4  7  1  0  0  0
  4  5  2  0  0  0
  7  8  1  0  0  0
  7 11  1  0  0  0
  8  9  2  0  0  0
  8 10  1  0  0  0
 10 13  1  0  0  0
 10 12  1  0  0  0
 13 14  1  0  0  0
 13 18  2  0  0  0
 14 15  2  0  0  0
 15 20  1  0  0  0
 15 16  1  0  0  0
 20 21  1  0  0  0
 20 22  1  0  0  0
 20 23  1  0  0  0
 16 17  2  0  0  0
 17 18  1  0  0  0
 18 19  1  0  0  0
  5  6  1  0  0  0
 31 32  1  0  0  0
 32 33  1  0  0  0
 33 34  1  0  0  0
 44 45  1  0  0  0
M  END
> <minimizedAffinity>
-11.45801

$$$$
