CHEMBL3676384


 38 40  0  0  0  0  0  0  0  0999 V2000
  -29.7499   -5.2093   -7.0797 C   0  0  0  0  0  0  0  0  0  0  0  0
  -29.1031   -4.3826   -7.9996 C   0  0  0  0  0  0  0  0  0  0  0  0
  -28.5544   -3.1573   -7.5737 C   0  0  0  0  0  0  0  0  0  0  0  0
  -28.0384   -2.1768   -8.4421 C   0  0  0  0  0  0  0  0  0  0  0  0
  -27.5481   -1.0156   -7.9809 N   0  0  0  0  0  0  0  0  0  0  0  0
  -27.5942   -0.8116   -6.6648 C   0  0  0  0  0  0  0  0  0  0  0  0
  -28.1054   -1.6513   -5.7594 N   0  0  0  0  0  0  0  0  0  0  0  0
  -28.5874   -2.8091   -6.2174 C   0  0  0  0  0  0  0  0  0  0  0  0
  -29.1753   -3.6843   -5.3125 C   0  0  0  0  0  0  0  0  0  0  0  0
  -29.7409   -4.8961   -5.7151 C   0  0  0  0  0  0  0  0  0  0  0  0
  -30.1367   -7.5307   -7.7155 C   0  0  0  0  0  0  0  0  0  0  0  0
  -30.9442   -8.4505   -7.8076 O   0  0  0  0  0  0  0  0  0  0  0  0
  -30.5721   -6.2311   -7.5866 N   0  0  0  0  0  0  0  0  0  0  0  0
  -31.5371   -6.2337   -7.2707 H   0  0  0  0  0  0  0  0  0  0  0  0
  -28.0666   -8.3332   -8.7309 C   0  0  0  0  0  0  0  0  0  0  0  0
  -28.6689   -7.7676   -7.6776 C   0  0  0  0  0  0  0  0  0  0  0  0
  -28.1239   -2.3574   -9.8506 N   0  0  0  0  0  0  0  0  0  0  0  0
  -28.4297   -3.3003  -10.0833 H   0  0  0  0  0  0  0  0  0  0  0  0
  -27.1308   -1.8814  -10.7423 C   0  0  0  0  0  0  0  0  0  0  0  0
  -25.8554   -1.5449  -10.2685 C   0  0  0  0  0  0  0  0  0  0  0  0
  -24.8201   -1.2492  -11.1533 C   0  0  0  0  0  0  0  0  0  0  0  0
  -25.0574   -1.2503  -12.5289 C   0  0  0  0  0  0  0  0  0  0  0  0
  -23.5595   -0.9621  -13.6608 Br  0  0  0  0  0  0  0  0  0  0  0  0
  -26.3471   -1.4907  -13.0178 C   0  0  0  0  0  0  0  0  0  0  0  0
  -26.7137   -1.4560  -14.7070 Cl  0  0  0  0  0  0  0  0  0  0  0  0
  -27.3738   -1.7949  -12.1176 C   0  0  0  0  0  0  0  0  0  0  0  0
  -28.6140   -2.0589  -12.5657 F   0  0  0  0  0  0  0  0  0  0  0  0
  -30.2912   -5.6466   -4.7034 O   0  0  0  0  0  0  0  0  0  0  0  0
  -29.3528   -6.0921   -3.7161 C   0  0  0  0  0  0  0  0  0  0  0  0
  -28.9294   -7.5400   -3.9626 C   0  0  0  0  0  0  0  0  0  0  0  0
  -27.5099   -7.6198   -4.2793 N   0  0  0  0  0  0  0  0  0  0  0  0
  -26.8483   -8.8147   -4.1570 C   0  0  0  0  0  0  0  0  0  0  0  0
  -27.3797   -9.8505   -3.7814 O   0  0  0  0  0  0  0  0  0  0  0  0
  -25.5261   -8.7068   -4.4978 N   0  0  0  0  0  0  0  0  0  0  0  0
  -27.1253   -6.9544   -4.9348 H   0  0  0  0  0  0  0  0  0  0  0  0
  -25.0997   -7.8025   -4.3597 H   0  0  0  0  0  0  0  0  0  0  0  0
  -24.6626   -9.8712   -4.4899 C   0  0  0  0  0  0  0  0  0  0  0  0
  -23.5820   -9.8165   -5.5568 C   0  0  0  0  0  0  0  0  0  0  0  0
 15 16  2  0  0  0
 16 11  1  0  0  0
 11 12  2  0  0  0
 11 13  1  0  0  0
 13  1  1  0  0  0
 13 14  1  0  0  0
  1  2  1  0  0  0
  1 10  2  0  0  0
  2  3  2  0  0  0
  3  4  1  0  0  0
  3  8  1  0  0  0
  4 17  1  0  0  0
  4  5  2  0  0  0
 17 19  1  0  0  0
 17 18  1  0  0  0
 19 20  1  0  0  0
 19 26  2  0  0  0
 20 21  2  0  0  0
 21 22  1  0  0  0
 22 23  1  0  0  0
 22 24  2  0  0  0
 24 25  1  0  0  0
 24 26  1  0  0  0
 26 27  1  0  0  0
  5  6  1  0  0  0
  6  7  2  0  0  0
  7  8  1  0  0  0
  8  9  2  0  0  0
  9 10  1  0  0  0
 10 28  1  0  0  0
 28 29  1  0  0  0
 29 30  1  0  0  0
 30 31  1  0  0  0
 31 32  1  0  0  0
 31 35  1  0  0  0
 32 33  2  0  0  0
 32 34  1  0  0  0
 34 37  1  0  0  0
 34 36  1  0  0  0
 37 38  1  0  0  0
M  END
> <minimizedAffinity>
-9.20468

$$$$
