CHEMBL215019


 35 38  0  0  0  0  0  0  0  0999 V2000
  -17.0820    1.5562  -14.8360 C   0  0  0  0  0  0  0  0  0  0  0  0
  -18.3885    1.3787  -14.2967 C   0  0  0  0  0  0  0  0  0  0  0  0
  -19.4594    2.2013  -14.6647 C   0  0  0  0  0  0  0  0  0  0  0  0
  -19.2394    3.2555  -15.5506 C   0  0  0  0  0  0  0  0  0  0  0  0
  -17.9724    3.4744  -16.0761 C   0  0  0  0  0  0  0  0  0  0  0  0
  -16.8943    2.6268  -15.7562 C   0  0  0  0  0  0  0  0  0  0  0  0
  -15.5970    2.9264  -16.4672 C   0  0  0  0  0  0  0  0  0  0  0  0
  -13.1519   -2.9815  -12.4334 C   0  0  0  0  0  0  0  0  0  0  0  0
  -14.2517   -2.9968  -11.6733 N   0  0  0  0  0  0  0  0  0  0  0  0
  -15.2233   -2.1293  -12.0068 C   0  0  0  0  0  0  0  0  0  0  0  0
  -15.1322   -1.2372  -13.0607 C   0  0  0  0  0  0  0  0  0  0  0  0
  -16.1719   -0.3589  -13.4345 C   0  0  0  0  0  0  0  0  0  0  0  0
  -16.0081    0.5919  -14.4518 C   0  0  0  0  0  0  0  0  0  0  0  0
  -14.7650    0.5773  -15.1099 C   0  0  0  0  0  0  0  0  0  0  0  0
  -13.7604   -0.3458  -14.7746 C   0  0  0  0  0  0  0  0  0  0  0  0
  -13.9238   -1.2605  -13.7465 C   0  0  0  0  0  0  0  0  0  0  0  0
  -12.9463   -2.1249  -13.4450 N   0  0  0  0  0  0  0  0  0  0  0  0
  -12.6657   -5.3055  -12.1890 C   0  0  0  0  0  0  0  0  0  0  0  0
  -12.2031   -3.9409  -12.1196 N   0  0  0  0  0  0  0  0  0  0  0  0
  -11.3769   -3.7183  -12.6630 H   0  0  0  0  0  0  0  0  0  0  0  0
  -20.8694    1.9511  -14.2599 C   0  0  0  0  0  0  0  0  0  0  0  0
  -21.6469    2.8991  -14.3590 O   0  0  0  0  0  0  0  0  0  0  0  0
  -21.1929    0.6968  -13.7555 N   0  0  0  0  0  0  0  0  0  0  0  0
  -20.4306    0.0727  -13.5267 H   0  0  0  0  0  0  0  0  0  0  0  0
  -22.4905    0.3216  -13.3181 C   0  0  0  0  0  0  0  0  0  0  0  0
  -22.9226    0.4904  -12.0020 C   0  0  0  0  0  0  0  0  0  0  0  0
  -24.1852    0.0488  -11.5991 C   0  0  0  0  0  0  0  0  0  0  0  0
  -25.0480   -0.5691  -12.5070 C   0  0  0  0  0  0  0  0  0  0  0  0
  -26.5663   -1.0910  -11.8787 Cl  0  0  0  0  0  0  0  0  0  0  0  0
  -24.6584   -0.7319  -13.8394 C   0  0  0  0  0  0  0  0  0  0  0  0
  -23.3772   -0.2576  -14.2350 C   0  0  0  0  0  0  0  0  0  0  0  0
  -25.5135   -1.3914  -14.8916 C   0  0  0  0  0  0  0  0  0  0  0  0
  -26.8580   -1.2568  -14.7617 F   0  0  0  0  0  0  0  0  0  0  0  0
  -25.2181   -0.9306  -16.1408 F   0  0  0  0  0  0  0  0  0  0  0  0
  -25.2913   -2.7371  -14.9429 F   0  0  0  0  0  0  0  0  0  0  0  0
 18 19  1  0  0  0
 19  8  1  0  0  0
 19 20  1  0  0  0
  8  9  1  0  0  0
  8 17  2  0  0  0
  9 10  2  0  0  0
 10 11  1  0  0  0
 11 12  1  0  0  0
 11 16  2  0  0  0
 12 13  2  0  0  0
 13  1  1  0  0  0
 13 14  1  0  0  0
  1  2  1  0  0  0
  1  6  2  0  0  0
  2  3  2  0  0  0
  3 21  1  0  0  0
  3  4  1  0  0  0
 21 22  2  0  0  0
 21 23  1  0  0  0
 23 25  1  0  0  0
 23 24  1  0  0  0
 25 26  1  0  0  0
 25 31  2  0  0  0
 26 27  2  0  0  0
 27 28  1  0  0  0
 28 29  1  0  0  0
 28 30  2  0  0  0
 30 32  1  0  0  0
 30 31  1  0  0  0
 32 33  1  0  0  0
 32 34  1  0  0  0
 32 35  1  0  0  0
  4  5  2  0  0  0
  5  6  1  0  0  0
  6  7  1  0  0  0
 14 15  2  0  0  0
 15 16  1  0  0  0
 16 17  1  0  0  0
M  END
> <minimizedAffinity>
-10.17135

$$$$
