CHEMBL172517


 22 24  0  0  0  0  0  0  0  0999 V2000
  -26.1528   -1.5185  -10.7402 C   0  0  0  0  0  0  0  0  0  0  0  0
  -27.0257   -1.9829  -11.7264 C   0  0  0  0  0  0  0  0  0  0  0  0
  -26.7258   -1.8017  -13.0792 C   0  0  0  0  0  0  0  0  0  0  0  0
  -27.6088   -2.2653  -14.0120 O   0  0  0  0  0  0  0  0  0  0  0  0
  -25.5482   -1.1535  -13.4630 C   0  0  0  0  0  0  0  0  0  0  0  0
  -25.1872   -0.9173  -14.8767 C   0  0  0  0  0  0  0  0  0  0  0  0
  -25.8491   -1.2843  -15.8382 O   0  0  0  0  0  0  0  0  0  0  0  0
  -23.9352   -0.1834  -15.1179 C   0  0  0  0  0  0  0  0  0  0  0  0
  -23.1678    0.1913  -14.0862 C   0  0  0  0  0  0  0  0  0  0  0  0
  -23.4925   -0.0507  -12.7598 O   0  0  0  0  0  0  0  0  0  0  0  0
  -24.6725   -0.6973  -12.4770 C   0  0  0  0  0  0  0  0  0  0  0  0
  -24.9705   -0.8806  -11.1213 C   0  0  0  0  0  0  0  0  0  0  0  0
  -28.3686   -2.6909  -13.5861 H   0  0  0  0  0  0  0  0  0  0  0  0
  -21.8950    0.9214  -14.2856 C   0  0  0  0  0  0  0  0  0  0  0  0
  -20.7800    0.2593  -14.8232 C   0  0  0  0  0  0  0  0  0  0  0  0
  -19.5767    0.9365  -15.0409 C   0  0  0  0  0  0  0  0  0  0  0  0
  -19.4684    2.2884  -14.7250 C   0  0  0  0  0  0  0  0  0  0  0  0
  -20.5618    2.9632  -14.1912 C   0  0  0  0  0  0  0  0  0  0  0  0
  -21.7664    2.2869  -13.9776 C   0  0  0  0  0  0  0  0  0  0  0  0
  -26.3562   -1.6321   -9.3890 O   0  0  0  0  0  0  0  0  0  0  0  0
  -27.9321   -1.7622   -7.5775 C   0  0  0  0  0  0  0  0  0  0  0  0
  -27.5972   -2.2161   -8.9849 C   0  0  0  0  0  0  0  0  0  0  0  0
 21 22  1  0  0  0
 22 20  1  0  0  0
 20  1  1  0  0  0
  1  2  1  0  0  0
  1 12  2  0  0  0
  2  3  2  0  0  0
  3  4  1  0  0  0
  3  5  1  0  0  0
  4 13  1  0  0  0
  5  6  1  0  0  0
  5 11  2  0  0  0
  6  7  2  0  0  0
  6  8  1  0  0  0
  8  9  2  0  0  0
  9 14  1  0  0  0
  9 10  1  0  0  0
 14 15  1  0  0  0
 14 19  2  0  0  0
 15 16  2  0  0  0
 16 17  1  0  0  0
 17 18  2  0  0  0
 18 19  1  0  0  0
 10 11  1  0  0  0
 11 12  1  0  0  0
M  END
> <minimizedAffinity>
-8.85771

$$$$
