CHEMBL3921873


 35 39  0  0  0  0  0  0  0  0999 V2000
  -22.7771   -0.0957  -12.7762 C   0  0  0  0  0  0  0  0  0  0  0  0
  -22.2986   -0.7082  -13.9452 C   0  0  0  0  0  0  0  0  0  0  0  0
  -21.4485   -0.0280  -14.8453 C   0  0  0  0  0  0  0  0  0  0  0  0
  -21.2578    1.3506  -14.6487 C   0  0  0  0  0  0  0  0  0  0  0  0
  -20.6471    2.4813  -15.2980 C   0  0  0  0  0  0  0  0  0  0  0  0
  -21.6394    3.4005  -15.3461 N   0  0  0  0  0  0  0  0  0  0  0  0
  -22.1638    3.2262  -14.1241 N   0  0  0  0  0  0  0  0  0  0  0  0
  -22.0252    1.9498  -13.6566 C   0  0  0  0  0  0  0  0  0  0  0  0
  -22.6069    1.2779  -12.5917 C   0  0  0  0  0  0  0  0  0  0  0  0
  -22.7528    3.9644  -13.7437 H   0  0  0  0  0  0  0  0  0  0  0  0
  -19.3653    3.1069  -14.9827 C   0  0  0  0  0  0  0  0  0  0  0  0
  -18.4269    3.4473  -15.8879 C   0  0  0  0  0  0  0  0  0  0  0  0
  -16.9791    3.2809  -15.6178 C   0  0  0  0  0  0  0  0  0  0  0  0
  -16.0887    4.2934  -15.9621 C   0  0  0  0  0  0  0  0  0  0  0  0
  -14.7163    4.0458  -15.8990 C   0  0  0  0  0  0  0  0  0  0  0  0
  -14.2635    2.7922  -15.5082 C   0  0  0  0  0  0  0  0  0  0  0  0
  -15.2115    1.8377  -15.1836 C   0  0  0  0  0  0  0  0  0  0  0  0
  -16.5465    2.0541  -15.2283 N   0  0  0  0  0  0  0  0  0  0  0  0
  -23.5723   -0.6761  -11.8074 O   0  0  0  0  0  0  0  0  0  0  0  0
  -26.9141   -1.9902  -11.1654 C   0  0  0  0  0  0  0  0  0  0  0  0
  -27.4611   -1.9665  -12.4503 C   0  0  0  0  0  0  0  0  0  0  0  0
  -26.6903   -1.5944  -13.5487 C   0  0  0  0  0  0  0  0  0  0  0  0
  -25.3672   -1.2184  -13.3687 C   0  0  0  0  0  0  0  0  0  0  0  0
  -24.8479   -1.1018  -12.0814 C   0  0  0  0  0  0  0  0  0  0  0  0
  -25.6109   -1.5161  -10.9800 C   0  0  0  0  0  0  0  0  0  0  0  0
  -27.0381   -0.8801   -8.4510 O   0  0  0  0  0  0  0  0  0  0  0  0
  -27.6146   -1.9109   -8.7835 C   0  0  0  0  0  0  0  0  0  0  0  0
  -27.6236   -2.4842  -10.0460 N   0  0  0  0  0  0  0  0  0  0  0  0
  -28.3075   -3.2079  -10.2252 H   0  0  0  0  0  0  0  0  0  0  0  0
  -28.4362   -2.5920   -7.7511 C   0  0  0  0  0  0  0  0  0  0  0  0
  -29.0994   -3.7726   -8.1109 C   0  0  0  0  0  0  0  0  0  0  0  0
  -29.9246   -4.4242   -7.1957 C   0  0  0  0  0  0  0  0  0  0  0  0
  -30.0960   -3.8890   -5.9217 C   0  0  0  0  0  0  0  0  0  0  0  0
  -29.4515   -2.7062   -5.5632 C   0  0  0  0  0  0  0  0  0  0  0  0
  -28.6197   -2.0519   -6.4736 C   0  0  0  0  0  0  0  0  0  0  0  0
 26 27  2  0  0  0
 27 28  1  0  0  0
 27 30  1  0  0  0
 28 20  1  0  0  0
 28 29  1  0  0  0
 20 21  1  0  0  0
 20 25  2  0  0  0
 21 22  2  0  0  0
 22 23  1  0  0  0
 23 24  2  0  0  0
 24 19  1  0  0  0
 24 25  1  0  0  0
 19  1  1  0  0  0
  1  2  1  0  0  0
  1  9  2  0  0  0
  2  3  2  0  0  0
  3  4  1  0  0  0
  4  5  1  0  0  0
  4  8  2  0  0  0
  5 11  1  0  0  0
  5  6  2  0  0  0
 11 12  2  0  0  0
 12 13  1  0  0  0
 13 14  1  0  0  0
 13 18  2  0  0  0
 14 15  2  0  0  0
 15 16  1  0  0  0
 16 17  2  0  0  0
 17 18  1  0  0  0
  6  7  1  0  0  0
  7  8  1  0  0  0
  7 10  1  0  0  0
  8  9  1  0  0  0
 30 31  1  0  0  0
 30 35  2  0  0  0
 31 32  2  0  0  0
 32 33  1  0  0  0
 33 34  2  0  0  0
 34 35  1  0  0  0
M  END
> <minimizedAffinity>
-10.75556

$$$$
