CHEMBL2086729


 30 34  0  0  0  0  0  0  0  0999 V2000
  -31.6359   -6.7631   -7.0928 O   0  0  0  0  0  0  0  0  0  0  0  0
  -31.3077   -7.9303   -7.1761 C   0  0  0  0  0  0  0  0  0  0  0  0
  -31.9660   -8.8978   -7.9121 N   0  0  0  0  0  0  0  0  0  0  0  0
  -31.3566  -10.1382   -7.7877 C   0  0  0  0  0  0  0  0  0  0  0  0
  -31.7782  -11.3093   -8.3862 C   0  0  0  0  0  0  0  0  0  0  0  0
  -31.0439  -12.4659   -8.1254 C   0  0  0  0  0  0  0  0  0  0  0  0
  -29.9213  -12.4181   -7.2850 C   0  0  0  0  0  0  0  0  0  0  0  0
  -29.5095  -11.2130   -6.6987 C   0  0  0  0  0  0  0  0  0  0  0  0
  -30.2359  -10.0600   -6.9529 C   0  0  0  0  0  0  0  0  0  0  0  0
  -30.1373   -8.6443   -6.5221 C   0  0  0  0  0  0  0  0  0  0  0  0
  -29.2381   -8.0213   -5.7235 C   0  0  0  0  0  0  0  0  0  0  0  0
  -32.7893   -8.6963   -8.4575 H   0  0  0  0  0  0  0  0  0  0  0  0
  -28.1374   -8.7551   -5.1967 C   0  0  0  0  0  0  0  0  0  0  0  0
  -27.9785   -9.3417   -4.0277 N   0  0  0  0  0  0  0  0  0  0  0  0
  -26.7244   -9.9009   -4.0587 C   0  0  0  0  0  0  0  0  0  0  0  0
  -26.0406  -10.6269   -3.0727 C   0  0  0  0  0  0  0  0  0  0  0  0
  -24.7409  -11.0714   -3.3484 C   0  0  0  0  0  0  0  0  0  0  0  0
  -24.1379  -10.8016   -4.5801 C   0  0  0  0  0  0  0  0  0  0  0  0
  -24.8070  -10.0826   -5.5776 C   0  0  0  0  0  0  0  0  0  0  0  0
  -26.0991   -9.6515   -5.2771 C   0  0  0  0  0  0  0  0  0  0  0  0
  -27.0299   -8.9421   -5.9925 N   0  0  0  0  0  0  0  0  0  0  0  0
  -26.9178   -8.5896   -6.9335 H   0  0  0  0  0  0  0  0  0  0  0  0
  -29.3615   -6.5717   -5.4093 C   0  0  0  0  0  0  0  0  0  0  0  0
  -29.9124   -6.1880   -4.1754 C   0  0  0  0  0  0  0  0  0  0  0  0
  -30.0434   -4.8363   -3.8490 C   0  0  0  0  0  0  0  0  0  0  0  0
  -29.6344   -3.8594   -4.7539 C   0  0  0  0  0  0  0  0  0  0  0  0
  -29.8072   -2.1948   -4.3529 Cl  0  0  0  0  0  0  0  0  0  0  0  0
  -29.0926   -4.2194   -5.9854 C   0  0  0  0  0  0  0  0  0  0  0  0
  -28.9565   -5.5709   -6.3119 C   0  0  0  0  0  0  0  0  0  0  0  0
  -28.2855   -5.9599   -7.8606 Cl  0  0  0  0  0  0  0  0  0  0  0  0
  1  2  2  0  0  0
  2  3  1  0  0  0
  2 10  1  0  0  0
  3  4  1  0  0  0
  3 12  1  0  0  0
  4  5  1  0  0  0
  4  9  2  0  0  0
  5  6  2  0  0  0
  6  7  1  0  0  0
  7  8  2  0  0  0
  8  9  1  0  0  0
  9 10  1  0  0  0
 10 11  2  0  0  0
 11 13  1  0  0  0
 11 23  1  0  0  0
 13 14  2  0  0  0
 13 21  1  0  0  0
 14 15  1  0  0  0
 15 16  1  0  0  0
 15 20  2  0  0  0
 16 17  2  0  0  0
 17 18  1  0  0  0
 18 19  2  0  0  0
 19 20  1  0  0  0
 20 21  1  0  0  0
 21 22  1  0  0  0
 23 24  1  0  0  0
 23 29  2  0  0  0
 24 25  2  0  0  0
 25 26  1  0  0  0
 26 27  1  0  0  0
 26 28  2  0  0  0
 28 29  1  0  0  0
 29 30  1  0  0  0
M  END
> <minimizedAffinity>
-7.75747

$$$$
