CHEMBL3949434


 38 41  0  0  0  0  0  0  0  0999 V2000
  -29.1420   -6.6094   -5.6798 C   0  0  0  0  0  0  0  0  0  0  0  0
  -28.5874   -7.8538   -5.3484 C   0  0  0  0  0  0  0  0  0  0  0  0
  -28.2378   -8.8014   -6.3465 C   0  0  0  0  0  0  0  0  0  0  0  0
  -27.7156  -10.0849   -6.1339 C   0  0  0  0  0  0  0  0  0  0  0  0
  -27.4002  -10.9137   -7.1543 N   0  0  0  0  0  0  0  0  0  0  0  0
  -27.6058  -10.4659   -8.3912 C   0  0  0  0  0  0  0  0  0  0  0  0
  -28.0933   -9.2692   -8.7076 N   0  0  0  0  0  0  0  0  0  0  0  0
  -28.3950   -8.4639   -7.6881 C   0  0  0  0  0  0  0  0  0  0  0  0
  -28.9274   -7.2331   -8.0024 C   0  0  0  0  0  0  0  0  0  0  0  0
  -29.3683   -6.3212   -7.0280 C   0  0  0  0  0  0  0  0  0  0  0  0
  -30.8453   -5.9893   -4.1027 C   0  0  0  0  0  0  0  0  0  0  0  0
  -29.5168   -5.8684   -4.5956 O   0  0  0  0  0  0  0  0  0  0  0  0
  -27.4975  -10.5509   -4.8102 N   0  0  0  0  0  0  0  0  0  0  0  0
  -28.0733  -11.3695   -4.6372 H   0  0  0  0  0  0  0  0  0  0  0  0
  -26.2087  -10.6332   -4.2415 C   0  0  0  0  0  0  0  0  0  0  0  0
  -25.1118  -10.0717   -4.9124 C   0  0  0  0  0  0  0  0  0  0  0  0
  -23.8135  -10.2400   -4.4366 C   0  0  0  0  0  0  0  0  0  0  0  0
  -23.5937  -10.9680   -3.2690 C   0  0  0  0  0  0  0  0  0  0  0  0
  -21.9580  -11.1899   -2.7618 Cl  0  0  0  0  0  0  0  0  0  0  0  0
  -24.6825  -11.5021   -2.5684 C   0  0  0  0  0  0  0  0  0  0  0  0
  -24.4824  -12.4133   -1.1127 Cl  0  0  0  0  0  0  0  0  0  0  0  0
  -25.9868  -11.3283   -3.0504 C   0  0  0  0  0  0  0  0  0  0  0  0
  -30.0622   -5.1868   -7.3804 O   0  0  0  0  0  0  0  0  0  0  0  0
  -29.2297   -4.1567   -7.9323 C   0  0  0  0  0  0  0  0  0  0  0  0
  -28.7605   -3.1819   -6.8602 C   0  0  0  0  0  0  0  0  0  0  0  0
  -29.8724   -2.8731   -6.0116 O   0  0  0  0  0  0  0  0  0  0  0  0
  -29.5253   -1.9698   -4.9674 C   0  0  0  0  0  0  0  0  0  0  0  0
  -29.1045   -0.6152   -5.5759 C   0  0  0  0  0  0  0  0  0  0  0  0
  -28.7813    0.3289   -4.5491 O   0  0  0  0  0  0  0  0  0  0  0  0
  -27.9153   -0.8155   -6.5314 C   0  0  0  0  0  0  0  0  0  0  0  0
  -27.5950    0.4061   -7.2161 O   0  0  0  0  0  0  0  0  0  0  0  0
  -28.2271   -1.9190   -7.5518 C   0  0  0  0  0  0  0  0  0  0  0  0
  -27.0845   -2.2290   -8.3547 O   0  0  0  0  0  0  0  0  0  0  0  0
  -28.0219   -0.0396   -4.0605 H   0  0  0  0  0  0  0  0  0  0  0  0
  -28.2893    0.5865   -7.8738 H   0  0  0  0  0  0  0  0  0  0  0  0
  -26.3309   -2.4104   -7.7651 H   0  0  0  0  0  0  0  0  0  0  0  0
  -28.4665   -2.4854   -4.1491 O   0  0  0  0  0  0  0  0  0  0  0  0
  -28.9379   -2.8569   -2.8552 C   0  0  0  0  0  0  0  0  0  0  0  0
 11 12  1  0  0  0
 12  1  1  0  0  0
  1  2  1  0  0  0
  1 10  2  0  0  0
  2  3  2  0  0  0
  3  4  1  0  0  0
  3  8  1  0  0  0
  4 13  1  0  0  0
  4  5  2  0  0  0
 13 15  1  0  0  0
 13 14  1  0  0  0
 15 16  1  0  0  0
 15 22  2  0  0  0
 16 17  2  0  0  0
 17 18  1  0  0  0
 18 19  1  0  0  0
 18 20  2  0  0  0
 20 21  1  0  0  0
 20 22  1  0  0  0
  5  6  1  0  0  0
  6  7  2  0  0  0
  7  8  1  0  0  0
  8  9  2  0  0  0
  9 10  1  0  0  0
 10 23  1  0  0  0
 23 24  1  0  0  0
 25 26  1  0  0  0
 25 32  1  0  0  0
 25 24  1  0  0  0
 26 27  1  0  0  0
 27 37  1  0  0  0
 27 28  1  0  0  0
 37 38  1  0  0  0
 28 29  1  0  0  0
 28 30  1  0  0  0
 29 34  1  0  0  0
 30 31  1  0  0  0
 30 32  1  0  0  0
 31 35  1  0  0  0
 32 33  1  0  0  0
 33 36  1  0  0  0
M  END
> <minimizedAffinity>
-8.42632

$$$$
