CHEMBL3633298


 33 36  0  0  0  0  0  0  0  0999 V2000
  -29.0815   -6.2213   -4.9868 C   0  0  0  0  0  0  0  0  0  0  0  0
  -30.2316   -6.3982   -4.2169 C   0  0  0  0  0  0  0  0  0  0  0  0
  -31.0340   -5.3096   -3.8931 C   0  0  0  0  0  0  0  0  0  0  0  0
  -30.6998   -4.0378   -4.3594 C   0  0  0  0  0  0  0  0  0  0  0  0
  -29.5211   -3.8108   -5.0955 C   0  0  0  0  0  0  0  0  0  0  0  0
  -28.6905   -4.9269   -5.3421 C   0  0  0  0  0  0  0  0  0  0  0  0
  -29.1518   -2.4484   -5.5453 C   0  0  0  0  0  0  0  0  0  0  0  0
  -29.3665   -1.3226   -4.7097 C   0  0  0  0  0  0  0  0  0  0  0  0
  -28.9116   -0.0458   -5.0380 C   0  0  0  0  0  0  0  0  0  0  0  0
  -28.1754    0.1679   -6.1979 C   0  0  0  0  0  0  0  0  0  0  0  0
  -28.0004   -0.9265   -7.0478 C   0  0  0  0  0  0  0  0  0  0  0  0
  -27.3208   -1.0334   -8.2305 N   0  0  0  0  0  0  0  0  0  0  0  0
  -27.4793   -2.2068   -8.8525 N   0  0  0  0  0  0  0  0  0  0  0  0
  -28.2265   -2.9110   -8.0080 C   0  0  0  0  0  0  0  0  0  0  0  0
  -28.6744   -4.1361   -8.3313 N   0  0  0  0  0  0  0  0  0  0  0  0
  -28.5148   -2.2008   -6.7966 C   0  0  0  0  0  0  0  0  0  0  0  0
  -26.7457   -0.3285   -8.6761 H   0  0  0  0  0  0  0  0  0  0  0  0
  -28.6071   -4.3748   -9.3150 H   0  0  0  0  0  0  0  0  0  0  0  0
  -29.5374   -4.4672   -7.9100 H   0  0  0  0  0  0  0  0  0  0  0  0
  -27.8234   -8.9718   -7.0030 N   0  0  0  0  0  0  0  0  0  0  0  0
  -28.5957   -7.8591   -6.7242 C   0  0  0  0  0  0  0  0  0  0  0  0
  -29.4211   -7.3773   -7.4969 O   0  0  0  0  0  0  0  0  0  0  0  0
  -28.3352   -7.3287   -5.4626 N   0  0  0  0  0  0  0  0  0  0  0  0
  -27.5360   -9.5154   -6.2015 H   0  0  0  0  0  0  0  0  0  0  0  0
  -27.3597   -7.3632   -5.1968 H   0  0  0  0  0  0  0  0  0  0  0  0
  -27.1156   -9.6366  -10.6005 C   0  0  0  0  0  0  0  0  0  0  0  0
  -27.6494  -10.9172  -10.7513 C   0  0  0  0  0  0  0  0  0  0  0  0
  -28.2896  -11.5351   -9.6828 C   0  0  0  0  0  0  0  0  0  0  0  0
  -28.3755  -10.8871   -8.4526 C   0  0  0  0  0  0  0  0  0  0  0  0
  -27.8108   -9.6214   -8.2650 C   0  0  0  0  0  0  0  0  0  0  0  0
  -27.2146   -8.9832   -9.3599 C   0  0  0  0  0  0  0  0  0  0  0  0
  -26.9886   -9.0592  -12.9014 C   0  0  0  0  0  0  0  0  0  0  0  0
  -26.4644   -8.9358  -11.5824 O   0  0  0  0  0  0  0  0  0  0  0  0
 32 33  1  0  0  0
 33 26  1  0  0  0
 26 27  1  0  0  0
 26 31  2  0  0  0
 27 28  2  0  0  0
 28 29  1  0  0  0
 29 30  2  0  0  0
 30 20  1  0  0  0
 30 31  1  0  0  0
 20 21  1  0  0  0
 20 24  1  0  0  0
 21 22  2  0  0  0
 21 23  1  0  0  0
 23  1  1  0  0  0
 23 25  1  0  0  0
  1  2  1  0  0  0
  1  6  2  0  0  0
  2  3  2  0  0  0
  3  4  1  0  0  0
  4  5  2  0  0  0
  5  7  1  0  0  0
  5  6  1  0  0  0
  7  8  1  0  0  0
  7 16  2  0  0  0
  8  9  2  0  0  0
  9 10  1  0  0  0
 10 11  2  0  0  0
 11 12  1  0  0  0
 11 16  1  0  0  0
 12 13  1  0  0  0
 12 17  1  0  0  0
 13 14  2  0  0  0
 14 15  1  0  0  0
 14 16  1  0  0  0
 15 18  1  0  0  0
 15 19  1  0  0  0
M  END
> <minimizedAffinity>
-9.88040

$$$$
