CHEMBL269936


 38 40  0  0  0  0  0  0  0  0999 V2000
  -26.2471   -2.0609  -11.8295 C   0  0  0  0  0  0  0  0  0  0  0  0
  -25.0101   -1.3898  -11.7924 C   0  0  0  0  0  0  0  0  0  0  0  0
  -24.4700   -0.8394  -12.9620 C   0  0  0  0  0  0  0  0  0  0  0  0
  -25.1904   -0.9247  -14.1567 C   0  0  0  0  0  0  0  0  0  0  0  0
  -26.4377   -1.5447  -14.1892 C   0  0  0  0  0  0  0  0  0  0  0  0
  -26.9913   -2.1073  -13.0275 C   0  0  0  0  0  0  0  0  0  0  0  0
  -28.4143   -2.6000  -13.1071 C   0  0  0  0  0  0  0  0  0  0  0  0
  -27.5678   -1.8890   -9.7520 C   0  0  0  0  0  0  0  0  0  0  0  0
  -28.0615   -0.7974  -10.0316 O   0  0  0  0  0  0  0  0  0  0  0  0
  -26.7265   -2.5978  -10.6082 N   0  0  0  0  0  0  0  0  0  0  0  0
  -26.7322   -3.6045  -10.5561 H   0  0  0  0  0  0  0  0  0  0  0  0
  -28.8806   -3.6978   -6.1818 C   0  0  0  0  0  0  0  0  0  0  0  0
  -28.7909   -4.4617   -7.2731 N   0  0  0  0  0  0  0  0  0  0  0  0
  -28.3338   -3.8638   -8.3925 C   0  0  0  0  0  0  0  0  0  0  0  0
  -27.9751   -2.5360   -8.4749 C   0  0  0  0  0  0  0  0  0  0  0  0
  -28.0926   -1.8145   -7.2860 C   0  0  0  0  0  0  0  0  0  0  0  0
  -28.5342   -2.4062   -6.1531 N   0  0  0  0  0  0  0  0  0  0  0  0
  -28.4986   -4.3044   -3.9069 C   0  0  0  0  0  0  0  0  0  0  0  0
  -29.3817   -4.3261   -5.0520 N   0  0  0  0  0  0  0  0  0  0  0  0
  -30.3048   -3.9378   -4.8957 H   0  0  0  0  0  0  0  0  0  0  0  0
  -27.6539   -0.4856   -7.2089 N   0  0  0  0  0  0  0  0  0  0  0  0
  -28.4471    0.4700   -6.4600 C   0  0  0  0  0  0  0  0  0  0  0  0
  -27.3512   -0.1514   -8.1296 H   0  0  0  0  0  0  0  0  0  0  0  0
  -23.1909   -0.0782  -12.9952 C   0  0  0  0  0  0  0  0  0  0  0  0
  -22.4656   -0.1682  -12.0083 O   0  0  0  0  0  0  0  0  0  0  0  0
  -22.9496    0.7191  -14.1032 N   0  0  0  0  0  0  0  0  0  0  0  0
  -23.7121    0.8856  -14.7522 H   0  0  0  0  0  0  0  0  0  0  0  0
  -21.8024    1.5426  -14.2767 C   0  0  0  0  0  0  0  0  0  0  0  0
  -21.8360    2.9372  -14.1813 C   0  0  0  0  0  0  0  0  0  0  0  0
  -20.6893    3.7017  -14.4123 C   0  0  0  0  0  0  0  0  0  0  0  0
  -19.4887    3.0799  -14.7427 C   0  0  0  0  0  0  0  0  0  0  0  0
  -19.4212    1.6822  -14.8262 C   0  0  0  0  0  0  0  0  0  0  0  0
  -20.5748    0.9315  -14.5723 C   0  0  0  0  0  0  0  0  0  0  0  0
  -20.5159   -0.4084  -14.6414 F   0  0  0  0  0  0  0  0  0  0  0  0
  -18.1491    0.9867  -15.2056 C   0  0  0  0  0  0  0  0  0  0  0  0
  -17.2569    0.9062  -14.1751 F   0  0  0  0  0  0  0  0  0  0  0  0
  -18.3458   -0.2958  -15.6158 F   0  0  0  0  0  0  0  0  0  0  0  0
  -17.4817    1.6134  -16.2127 F   0  0  0  0  0  0  0  0  0  0  0  0
 18 19  1  0  0  0
 19 12  1  0  0  0
 19 20  1  0  0  0
 12 13  1  0  0  0
 12 17  2  0  0  0
 13 14  2  0  0  0
 14 15  1  0  0  0
 15  8  1  0  0  0
 15 16  2  0  0  0
  8  9  2  0  0  0
  8 10  1  0  0  0
 10  1  1  0  0  0
 10 11  1  0  0  0
  1  2  1  0  0  0
  1  6  2  0  0  0
  2  3  2  0  0  0
  3 24  1  0  0  0
  3  4  1  0  0  0
 24 25  2  0  0  0
 24 26  1  0  0  0
 26 28  1  0  0  0
 26 27  1  0  0  0
 28 29  1  0  0  0
 28 33  2  0  0  0
 29 30  2  0  0  0
 30 31  1  0  0  0
 31 32  2  0  0  0
 32 35  1  0  0  0
 32 33  1  0  0  0
 35 36  1  0  0  0
 35 37  1  0  0  0
 35 38  1  0  0  0
 33 34  1  0  0  0
  4  5  2  0  0  0
  5  6  1  0  0  0
  6  7  1  0  0  0
 16 21  1  0  0  0
 16 17  1  0  0  0
 21 22  1  0  0  0
 21 23  1  0  0  0
M  END
> <minimizedAffinity>
-10.64113

$$$$
