CHEMBL260199


 28 31  0  0  0  0  0  0  0  0999 V2000
  -30.0408   -5.6333   -5.5704 C   0  0  0  0  0  0  0  0  0  0  0  0
  -30.1521   -6.2861   -4.4650 N   0  0  0  0  0  0  0  0  0  0  0  0
  -29.4377   -5.8012   -3.3958 C   0  0  0  0  0  0  0  0  0  0  0  0
  -28.7036   -4.7310   -3.3683 N   0  0  0  0  0  0  0  0  0  0  0  0
  -28.6356   -4.0685   -4.5356 N   0  0  0  0  0  0  0  0  0  0  0  0
  -27.9414   -2.9190   -4.7658 C   0  0  0  0  0  0  0  0  0  0  0  0
  -28.0735   -2.6068   -6.1004 C   0  0  0  0  0  0  0  0  0  0  0  0
  -28.9478   -3.5639   -6.6947 C   0  0  0  0  0  0  0  0  0  0  0  0
  -29.4246   -3.6082   -8.1026 C   0  0  0  0  0  0  0  0  0  0  0  0
  -29.2505   -4.4626   -5.6829 C   0  0  0  0  0  0  0  0  0  0  0  0
  -30.6502   -5.9756   -6.7604 O   0  0  0  0  0  0  0  0  0  0  0  0
  -28.5193  -11.3116  -11.2635 C   0  0  0  0  0  0  0  0  0  0  0  0
  -28.9761  -10.4344  -10.1594 C   0  0  0  0  0  0  0  0  0  0  0  0
  -28.3489   -9.3769   -9.5266 C   0  0  0  0  0  0  0  0  0  0  0  0
  -29.3006   -8.7576   -8.6736 C   0  0  0  0  0  0  0  0  0  0  0  0
  -29.3311   -7.5940   -7.8925 C   0  0  0  0  0  0  0  0  0  0  0  0
  -30.5472   -7.2744   -7.2913 C   0  0  0  0  0  0  0  0  0  0  0  0
  -31.6396   -8.1255   -7.4300 C   0  0  0  0  0  0  0  0  0  0  0  0
  -31.6402   -9.2836   -8.1345 N   0  0  0  0  0  0  0  0  0  0  0  0
  -30.4626   -9.5187   -8.7451 C   0  0  0  0  0  0  0  0  0  0  0  0
  -30.2309  -10.5554   -9.6070 N   0  0  0  0  0  0  0  0  0  0  0  0
  -30.9324  -11.2379   -9.8535 H   0  0  0  0  0  0  0  0  0  0  0  0
  -27.4959   -1.5635   -6.7462 O   0  0  0  0  0  0  0  0  0  0  0  0
  -27.5978   -0.3191   -6.0324 C   0  0  0  0  0  0  0  0  0  0  0  0
  -28.8056    0.4838   -6.5301 C   0  0  0  0  0  0  0  0  0  0  0  0
  -29.9186    0.5520   -5.4946 C   0  0  0  0  0  0  0  0  0  0  0  0
  -28.4144    1.8125   -6.8762 O   0  0  0  0  0  0  0  0  0  0  0  0
  -27.9736    2.1876   -6.0924 H   0  0  0  0  0  0  0  0  0  0  0  0
 12 13  1  0  0  0
 13 14  2  0  0  0
 13 21  1  0  0  0
 14 15  1  0  0  0
 15 16  1  0  0  0
 15 20  2  0  0  0
 16 17  2  0  0  0
 17 11  1  0  0  0
 17 18  1  0  0  0
 11  1  1  0  0  0
  1  2  2  0  0  0
  1 10  1  0  0  0
  2  3  1  0  0  0
  3  4  2  0  0  0
  4  5  1  0  0  0
  5  6  1  0  0  0
  5 10  1  0  0  0
  6  7  2  0  0  0
  7 23  1  0  0  0
  7  8  1  0  0  0
 23 24  1  0  0  0
 24 25  1  0  0  0
 25 26  1  0  0  0
 25 27  1  0  0  0
 27 28  1  0  0  0
  8  9  1  0  0  0
  8 10  2  0  0  0
 18 19  2  0  0  0
 19 20  1  0  0  0
 20 21  1  0  0  0
 21 22  1  0  0  0
M  END
> <minimizedAffinity>
-8.49698

$$$$
