CHEMBL3353359


 39 45  0  0  0  0  0  0  0  0999 V2000
  -16.7559    1.3081  -15.0420 C   0  0  0  0  0  0  0  0  0  0  0  0
  -16.5439    1.5831  -16.3411 N   0  0  0  0  0  0  0  0  0  0  0  0
  -15.3278    1.0911  -16.5699 N   0  0  0  0  0  0  0  0  0  0  0  0
  -14.8047    0.4571  -15.4847 C   0  0  0  0  0  0  0  0  0  0  0  0
  -13.7606   -0.4545  -15.3880 C   0  0  0  0  0  0  0  0  0  0  0  0
  -13.2651   -0.7776  -14.1130 C   0  0  0  0  0  0  0  0  0  0  0  0
  -13.8443   -0.1586  -12.9998 C   0  0  0  0  0  0  0  0  0  0  0  0
  -15.0317    0.6049  -13.1125 C   0  0  0  0  0  0  0  0  0  0  0  0
  -15.5571    0.8588  -14.4032 C   0  0  0  0  0  0  0  0  0  0  0  0
  -14.9275    1.1971  -17.4912 H   0  0  0  0  0  0  0  0  0  0  0  0
  -12.1926   -1.8358  -14.0673 C   0  0  0  0  0  0  0  0  0  0  0  0
  -12.0422   -3.1102  -14.8372 C   0  0  0  0  0  0  0  0  0  0  0  0
  -12.5761   -3.1821  -13.4485 C   0  0  0  0  0  0  0  0  0  0  0  0
  -11.8270   -3.5282  -12.1886 C   0  0  0  0  0  0  0  0  0  0  0  0
  -10.6972   -3.1712  -11.9161 O   0  0  0  0  0  0  0  0  0  0  0  0
  -12.7142   -4.1801  -11.3402 N   0  0  0  0  0  0  0  0  0  0  0  0
  -14.0190   -4.0759  -11.8545 C   0  0  0  0  0  0  0  0  0  0  0  0
  -15.1809   -4.1279  -11.1154 C   0  0  0  0  0  0  0  0  0  0  0  0
  -16.3608   -3.7708  -11.7676 C   0  0  0  0  0  0  0  0  0  0  0  0
  -16.3678   -3.5176  -13.1501 C   0  0  0  0  0  0  0  0  0  0  0  0
  -15.1713   -3.4625  -13.8693 C   0  0  0  0  0  0  0  0  0  0  0  0
  -13.9859   -3.6060  -13.1674 C   0  0  0  0  0  0  0  0  0  0  0  0
  -12.4056   -5.1220  -11.1162 H   0  0  0  0  0  0  0  0  0  0  0  0
  -19.1066    2.1055  -15.0616 C   0  0  0  0  0  0  0  0  0  0  0  0
  -18.0788    1.4135  -14.5510 C   0  0  0  0  0  0  0  0  0  0  0  0
  -22.9211    0.6504  -13.8799 C   0  0  0  0  0  0  0  0  0  0  0  0
  -22.6249    2.0049  -13.7058 C   0  0  0  0  0  0  0  0  0  0  0  0
  -21.3889    2.5381  -14.0924 C   0  0  0  0  0  0  0  0  0  0  0  0
  -20.4340    1.6755  -14.6450 C   0  0  0  0  0  0  0  0  0  0  0  0
  -20.7048    0.3159  -14.7530 C   0  0  0  0  0  0  0  0  0  0  0  0
  -21.9292   -0.2079  -14.3857 C   0  0  0  0  0  0  0  0  0  0  0  0
  -24.3355    0.1250  -13.5386 C   0  0  0  0  0  0  0  0  0  0  0  0
  -27.6663   -1.5038  -10.5439 C   0  0  0  0  0  0  0  0  0  0  0  0
  -26.6114   -1.9127  -11.4653 N   0  0  0  0  0  0  0  0  0  0  0  0
  -26.8961   -1.4478  -12.8331 C   0  0  0  0  0  0  0  0  0  0  0  0
  -25.7649   -1.8554  -13.8047 C   0  0  0  0  0  0  0  0  0  0  0  0
  -24.4333   -1.3238  -13.4383 N   0  0  0  0  0  0  0  0  0  0  0  0
  -24.1603   -1.7540  -12.0444 C   0  0  0  0  0  0  0  0  0  0  0  0
  -25.2889   -1.4285  -11.0259 C   0  0  0  0  0  0  0  0  0  0  0  0
 33 34  1  0  0  0
 34 35  1  0  0  0
 34 39  1  0  0  0
 35 36  1  0  0  0
 36 37  1  0  0  0
 37 32  1  0  0  0
 37 38  1  0  0  0
 32 26  1  0  0  0
 26 27  1  0  0  0
 26 31  2  0  0  0
 27 28  2  0  0  0
 28 29  1  0  0  0
 29 24  1  0  0  0
 29 30  2  0  0  0
 24 25  2  0  0  0
 25  1  1  0  0  0
  1  2  2  0  0  0
  1  9  1  0  0  0
  2  3  1  0  0  0
  3  4  1  0  0  0
  3 10  1  0  0  0
  4  5  1  0  0  0
  4  9  2  0  0  0
  5  6  2  0  0  0
  6  7  1  0  0  0
  6 11  1  0  0  0
 11 12  1  0  0  0
 11 13  1  0  0  0
 12 13  1  0  0  0
 13 14  1  0  0  0
 13 22  1  0  0  0
 14 16  1  0  0  0
 14 15  2  0  0  0
 16 17  1  0  0  0
 16 23  1  0  0  0
 17 18  1  0  0  0
 17 22  2  0  0  0
 18 19  2  0  0  0
 19 20  1  0  0  0
 20 21  2  0  0  0
 21 22  1  0  0  0
  7  8  2  0  0  0
  8  9  1  0  0  0
 30 31  1  0  0  0
 38 39  1  0  0  0
M  END
> <minimizedAffinity>
-10.00241

$$$$
