CHEMBL234655


 39 43  0  0  0  0  0  0  0  0999 V2000
  -12.2211   -2.1831  -16.8890 N   0  0  0  0  0  0  0  0  0  0  0  0
  -11.4934   -1.7905  -16.2932 H   0  0  0  0  0  0  0  0  0  0  0  0
  -12.9019   -3.1979  -16.1383 C   0  0  0  0  0  0  0  0  0  0  0  0
  -13.2411   -2.9503  -14.8587 N   0  0  0  0  0  0  0  0  0  0  0  0
  -13.8813   -3.9064  -14.1859 C   0  0  0  0  0  0  0  0  0  0  0  0
  -14.1634   -5.1091  -14.6859 N   0  0  0  0  0  0  0  0  0  0  0  0
  -13.8385   -5.3448  -15.9517 C   0  0  0  0  0  0  0  0  0  0  0  0
  -14.1431   -6.5512  -16.4341 N   0  0  0  0  0  0  0  0  0  0  0  0
  -13.8314   -6.8205  -17.7221 C   0  0  0  0  0  0  0  0  0  0  0  0
  -13.2162   -5.8939  -18.5371 C   0  0  0  0  0  0  0  0  0  0  0  0
  -12.8828   -4.6703  -18.0806 N   0  0  0  0  0  0  0  0  0  0  0  0
  -13.1996   -4.4026  -16.7761 C   0  0  0  0  0  0  0  0  0  0  0  0
  -14.3177   -3.6268  -12.8138 C   0  0  0  0  0  0  0  0  0  0  0  0
  -13.5323   -4.0269  -11.7142 C   0  0  0  0  0  0  0  0  0  0  0  0
  -13.9772   -3.8335  -10.4038 C   0  0  0  0  0  0  0  0  0  0  0  0
  -12.9016   -4.4034   -8.9578 Br  0  0  0  0  0  0  0  0  0  0  0  0
  -15.2087   -3.2356  -10.1529 C   0  0  0  0  0  0  0  0  0  0  0  0
  -15.9900   -2.8074  -11.2232 C   0  0  0  0  0  0  0  0  0  0  0  0
  -15.5415   -3.0013  -12.5322 C   0  0  0  0  0  0  0  0  0  0  0  0
  -16.3567   -2.6038  -13.5214 F   0  0  0  0  0  0  0  0  0  0  0  0
  -13.5070   -0.0946  -17.2706 C   0  0  0  0  0  0  0  0  0  0  0  0
  -14.1422    0.7412  -18.1911 C   0  0  0  0  0  0  0  0  0  0  0  0
  -14.0961    0.5737  -19.5331 N   0  0  0  0  0  0  0  0  0  0  0  0
  -13.3725   -0.4688  -19.9778 C   0  0  0  0  0  0  0  0  0  0  0  0
  -12.7132   -1.3540  -19.1400 C   0  0  0  0  0  0  0  0  0  0  0  0
  -12.8207   -1.2243  -17.7496 C   0  0  0  0  0  0  0  0  0  0  0  0
  -12.6533    0.4568  -15.1531 O   0  0  0  0  0  0  0  0  0  0  0  0
  -13.6476    0.2706  -15.8450 C   0  0  0  0  0  0  0  0  0  0  0  0
  -14.9380    0.3502  -15.3576 N   0  0  0  0  0  0  0  0  0  0  0  0
  -15.6890   -0.0570  -15.9081 H   0  0  0  0  0  0  0  0  0  0  0  0
  -15.1967    0.6307  -13.9564 C   0  0  0  0  0  0  0  0  0  0  0  0
  -16.6850    0.7016  -13.6374 C   0  0  0  0  0  0  0  0  0  0  0  0
  -17.5548    0.4751  -14.8720 C   0  0  0  0  0  0  0  0  0  0  0  0
  -18.5232    1.5406  -15.0497 N   0  0  0  0  0  0  0  0  0  0  0  0
  -18.1499    2.8712  -15.4610 C   0  0  0  0  0  0  0  0  0  0  0  0
  -19.3942    3.6719  -15.1431 C   0  0  0  0  0  0  0  0  0  0  0  0
  -20.5270    2.6877  -15.4154 C   0  0  0  0  0  0  0  0  0  0  0  0
  -19.8967    1.3514  -15.0996 C   0  0  0  0  0  0  0  0  0  0  0  0
  -20.4966    0.2969  -14.9702 O   0  0  0  0  0  0  0  0  0  0  0  0
 27 28  2  0  0  0
 28 29  1  0  0  0
 28 21  1  0  0  0
 29 31  1  0  0  0
 29 30  1  0  0  0
 31 32  1  0  0  0
 32 33  1  0  0  0
 33 34  1  0  0  0
 34 35  1  0  0  0
 34 38  1  0  0  0
 35 36  1  0  0  0
 36 37  1  0  0  0
 37 38  1  0  0  0
 38 39  2  0  0  0
 21 22  1  0  0  0
 21 26  2  0  0  0
 22 23  2  0  0  0
 23 24  1  0  0  0
 24 25  2  0  0  0
 25 26  1  0  0  0
 26  1  1  0  0  0
  1  3  1  0  0  0
  1  2  1  0  0  0
  3  4  1  0  0  0
  3 12  2  0  0  0
  4  5  2  0  0  0
  5 13  1  0  0  0
  5  6  1  0  0  0
 13 14  1  0  0  0
 13 19  2  0  0  0
 14 15  2  0  0  0
 15 16  1  0  0  0
 15 17  1  0  0  0
 17 18  2  0  0  0
 18 19  1  0  0  0
 19 20  1  0  0  0
  6  7  2  0  0  0
  7  8  1  0  0  0
  7 12  1  0  0  0
  8  9  2  0  0  0
  9 10  1  0  0  0
 10 11  2  0  0  0
 11 12  1  0  0  0
M  END
> <minimizedAffinity>
-8.27267

$$$$
