CHEMBL2000746


 37 40  0  0  0  0  0  0  0  0999 V2000
  -27.6755   -1.9748   -8.1983 C   0  0  0  0  0  0  0  0  0  0  0  0
  -28.0515   -0.9025   -7.3658 C   0  0  0  0  0  0  0  0  0  0  0  0
  -28.7014   -1.1349   -6.1376 C   0  0  0  0  0  0  0  0  0  0  0  0
  -28.8518   -2.4510   -5.6956 C   0  0  0  0  0  0  0  0  0  0  0  0
  -28.0311   -3.3973   -6.2444 C   0  0  0  0  0  0  0  0  0  0  0  0
  -27.6462   -3.2249   -7.5726 C   0  0  0  0  0  0  0  0  0  0  0  0
  -27.8628   -4.6448   -5.6058 N   0  0  0  0  0  0  0  0  0  0  0  0
  -28.8540   -5.5650   -5.9972 C   0  0  0  0  0  0  0  0  0  0  0  0
  -28.3950   -6.6028   -6.8009 C   0  0  0  0  0  0  0  0  0  0  0  0
  -29.2614   -7.3904   -7.5310 C   0  0  0  0  0  0  0  0  0  0  0  0
  -30.6373   -7.2514   -7.2561 C   0  0  0  0  0  0  0  0  0  0  0  0
  -31.0989   -6.2109   -6.3879 C   0  0  0  0  0  0  0  0  0  0  0  0
  -30.2079   -5.2903   -5.8149 C   0  0  0  0  0  0  0  0  0  0  0  0
  -30.6351   -4.1364   -5.1091 N   0  0  0  0  0  0  0  0  0  0  0  0
  -30.0127   -2.9050   -4.8484 C   0  0  0  0  0  0  0  0  0  0  0  0
  -30.5084   -2.0982   -4.0615 O   0  0  0  0  0  0  0  0  0  0  0  0
  -28.0012   -4.4851   -4.6042 H   0  0  0  0  0  0  0  0  0  0  0  0
  -31.5805   -4.1566   -4.7419 H   0  0  0  0  0  0  0  0  0  0  0  0
  -25.7451   -1.3610  -11.4619 C   0  0  0  0  0  0  0  0  0  0  0  0
  -26.0488   -1.4930  -10.0948 C   0  0  0  0  0  0  0  0  0  0  0  0
  -27.3423   -1.8365   -9.6476 C   0  0  0  0  0  0  0  0  0  0  0  0
  -28.3314   -1.9849  -10.6448 C   0  0  0  0  0  0  0  0  0  0  0  0
  -28.0557   -1.8271  -12.0042 C   0  0  0  0  0  0  0  0  0  0  0  0
  -26.7621   -1.5338  -12.4060 C   0  0  0  0  0  0  0  0  0  0  0  0
  -26.4796   -1.4149  -13.7398 O   0  0  0  0  0  0  0  0  0  0  0  0
  -27.2884   -1.5733  -14.2506 H   0  0  0  0  0  0  0  0  0  0  0  0
  -23.4242   -1.9019  -11.5969 C   0  0  0  0  0  0  0  0  0  0  0  0
  -24.5073   -1.0658  -11.9715 O   0  0  0  0  0  0  0  0  0  0  0  0
  -31.6449   -8.0077   -7.8129 O   0  0  0  0  0  0  0  0  0  0  0  0
  -32.7714   -8.2648   -6.9821 C   0  0  0  0  0  0  0  0  0  0  0  0
  -28.7869   -8.2192   -8.5262 O   0  0  0  0  0  0  0  0  0  0  0  0
  -28.0084   -9.3397   -8.0617 C   0  0  0  0  0  0  0  0  0  0  0  0
  -28.0155  -10.5032   -9.0417 C   0  0  0  0  0  0  0  0  0  0  0  0
  -26.8523  -10.4424  -10.0237 C   0  0  0  0  0  0  0  0  0  0  0  0
  -27.2882   -9.8056  -11.3357 C   0  0  0  0  0  0  0  0  0  0  0  0
  -26.4625   -8.6865  -11.6217 O   0  0  0  0  0  0  0  0  0  0  0  0
  -26.5456   -8.0656  -10.8774 H   0  0  0  0  0  0  0  0  0  0  0  0
 27 28  1  0  0  0
 28 19  1  0  0  0
 19 20  1  0  0  0
 19 24  2  0  0  0
 20 21  2  0  0  0
 21  1  1  0  0  0
 21 22  1  0  0  0
  1  2  1  0  0  0
  1  6  2  0  0  0
  2  3  2  0  0  0
  3  4  1  0  0  0
  4  5  2  0  0  0
  4 15  1  0  0  0
  5  6  1  0  0  0
  5  7  1  0  0  0
  7  8  1  0  0  0
  7 17  1  0  0  0
  8  9  1  0  0  0
  8 13  2  0  0  0
  9 10  2  0  0  0
 10 31  1  0  0  0
 10 11  1  0  0  0
 31 32  1  0  0  0
 32 33  1  0  0  0
 33 34  1  0  0  0
 34 35  1  0  0  0
 35 36  1  0  0  0
 36 37  1  0  0  0
 11 29  1  0  0  0
 11 12  2  0  0  0
 29 30  1  0  0  0
 12 13  1  0  0  0
 13 14  1  0  0  0
 14 15  1  0  0  0
 14 18  1  0  0  0
 15 16  2  0  0  0
 22 23  2  0  0  0
 23 24  1  0  0  0
 24 25  1  0  0  0
 25 26  1  0  0  0
M  END
> <minimizedAffinity>
-7.47970

$$$$
