CHEMBL507533


 36 39  0  0  0  0  0  0  0  0999 V2000
  -22.4845    0.6843  -13.9887 C   0  0  0  0  0  0  0  0  0  0  0  0
  -22.3376    2.0705  -13.9433 C   0  0  0  0  0  0  0  0  0  0  0  0
  -21.2092    2.6739  -14.5007 C   0  0  0  0  0  0  0  0  0  0  0  0
  -20.2063    1.9062  -15.1028 C   0  0  0  0  0  0  0  0  0  0  0  0
  -20.3777    0.5215  -15.1902 C   0  0  0  0  0  0  0  0  0  0  0  0
  -21.5058   -0.0887  -14.6250 C   0  0  0  0  0  0  0  0  0  0  0  0
  -26.9913   -1.5897  -11.5542 C   0  0  0  0  0  0  0  0  0  0  0  0
  -27.4865   -2.1609  -12.7421 C   0  0  0  0  0  0  0  0  0  0  0  0
  -26.7105   -1.9290  -13.8014 N   0  0  0  0  0  0  0  0  0  0  0  0
  -25.6917   -1.1634  -13.3085 N   0  0  0  0  0  0  0  0  0  0  0  0
  -24.6184   -0.5977  -14.0488 C   0  0  0  0  0  0  0  0  0  0  0  0
  -24.6497   -0.7624  -15.4323 N   0  0  0  0  0  0  0  0  0  0  0  0
  -23.6522    0.0575  -13.3673 C   0  0  0  0  0  0  0  0  0  0  0  0
  -23.8599    0.1639  -11.8895 C   0  0  0  0  0  0  0  0  0  0  0  0
  -24.8502   -0.3194  -11.2069 N   0  0  0  0  0  0  0  0  0  0  0  0
  -25.7971   -0.9987  -11.9231 C   0  0  0  0  0  0  0  0  0  0  0  0
  -25.2620   -1.5328  -15.7112 H   0  0  0  0  0  0  0  0  0  0  0  0
  -23.7417   -0.7544  -15.8859 H   0  0  0  0  0  0  0  0  0  0  0  0
  -27.6456   -1.5741  -10.2654 C   0  0  0  0  0  0  0  0  0  0  0  0
  -28.4534   -0.7086   -9.9466 O   0  0  0  0  0  0  0  0  0  0  0  0
  -27.1717   -2.5305   -9.4206 O   0  0  0  0  0  0  0  0  0  0  0  0
  -28.7027   -3.7863   -8.0845 C   0  0  0  0  0  0  0  0  0  0  0  0
  -27.7787   -2.5804   -8.1266 C   0  0  0  0  0  0  0  0  0  0  0  0
  -19.0326    2.4840  -15.6386 N   0  0  0  0  0  0  0  0  0  0  0  0
  -17.7818    1.8900  -15.5801 C   0  0  0  0  0  0  0  0  0  0  0  0
  -17.5712    0.7491  -15.1860 O   0  0  0  0  0  0  0  0  0  0  0  0
  -16.7865    2.7586  -16.0077 N   0  0  0  0  0  0  0  0  0  0  0  0
  -19.1446    3.1796  -16.3626 H   0  0  0  0  0  0  0  0  0  0  0  0
  -16.9397    3.7215  -15.7446 H   0  0  0  0  0  0  0  0  0  0  0  0
  -15.4393    2.3343  -16.0874 C   0  0  0  0  0  0  0  0  0  0  0  0
  -15.0731    1.2104  -16.8343 C   0  0  0  0  0  0  0  0  0  0  0  0
  -13.7457    0.7891  -16.8667 C   0  0  0  0  0  0  0  0  0  0  0  0
  -12.7778    1.4677  -16.1224 C   0  0  0  0  0  0  0  0  0  0  0  0
  -13.1334    2.5915  -15.3621 C   0  0  0  0  0  0  0  0  0  0  0  0
  -12.1222    3.2737  -14.4910 C   0  0  0  0  0  0  0  0  0  0  0  0
  -14.4629    3.0438  -15.3833 C   0  0  0  0  0  0  0  0  0  0  0  0
 22 23  1  0  0  0
 23 21  1  0  0  0
 21 19  1  0  0  0
 19 20  2  0  0  0
 19  7  1  0  0  0
  7  8  1  0  0  0
  7 16  2  0  0  0
  8  9  2  0  0  0
  9 10  1  0  0  0
 10 11  1  0  0  0
 10 16  1  0  0  0
 11 12  1  0  0  0
 11 13  2  0  0  0
 12 17  1  0  0  0
 12 18  1  0  0  0
 13  1  1  0  0  0
 13 14  1  0  0  0
  1  2  1  0  0  0
  1  6  2  0  0  0
  2  3  2  0  0  0
  3  4  1  0  0  0
  4 24  1  0  0  0
  4  5  2  0  0  0
 24 25  1  0  0  0
 24 28  1  0  0  0
 25 26  2  0  0  0
 25 27  1  0  0  0
 27 30  1  0  0  0
 27 29  1  0  0  0
 30 31  1  0  0  0
 30 36  2  0  0  0
 31 32  2  0  0  0
 32 33  1  0  0  0
 33 34  2  0  0  0
 34 35  1  0  0  0
 34 36  1  0  0  0
  5  6  1  0  0  0
 14 15  2  0  0  0
 15 16  1  0  0  0
M  END
> <minimizedAffinity>
-9.13696

$$$$
