CHEMBL2000801


 32 35  0  0  0  0  0  0  0  0999 V2000
  -23.9241    1.2383  -12.1207 O   0  0  0  0  0  0  0  0  0  0  0  0
  -23.9526    0.3725  -12.9826 C   0  0  0  0  0  0  0  0  0  0  0  0
  -24.7774   -0.7381  -12.9590 N   0  0  0  0  0  0  0  0  0  0  0  0
  -23.1336    0.3640  -14.1096 N   0  0  0  0  0  0  0  0  0  0  0  0
  -24.6311   -1.4304  -13.6766 H   0  0  0  0  0  0  0  0  0  0  0  0
  -23.3552   -0.3174  -14.8205 H   0  0  0  0  0  0  0  0  0  0  0  0
  -22.0586    1.2370  -14.3857 C   0  0  0  0  0  0  0  0  0  0  0  0
  -22.1808    2.6281  -14.4246 C   0  0  0  0  0  0  0  0  0  0  0  0
  -21.0700    3.4360  -14.6808 C   0  0  0  0  0  0  0  0  0  0  0  0
  -19.8261    2.8591  -14.8922 C   0  0  0  0  0  0  0  0  0  0  0  0
  -18.7837    3.6635  -15.1289 F   0  0  0  0  0  0  0  0  0  0  0  0
  -19.6643    1.4778  -14.8542 C   0  0  0  0  0  0  0  0  0  0  0  0
  -20.7940    0.6697  -14.6024 C   0  0  0  0  0  0  0  0  0  0  0  0
  -18.3156    0.8554  -15.0569 C   0  0  0  0  0  0  0  0  0  0  0  0
  -17.5742    1.3798  -16.0677 F   0  0  0  0  0  0  0  0  0  0  0  0
  -17.5401    0.9567  -13.9389 F   0  0  0  0  0  0  0  0  0  0  0  0
  -18.4027   -0.4809  -15.3161 F   0  0  0  0  0  0  0  0  0  0  0  0
  -25.6913   -1.0890  -11.9413 C   0  0  0  0  0  0  0  0  0  0  0  0
  -27.0672   -1.2179  -12.1246 C   0  0  0  0  0  0  0  0  0  0  0  0
  -27.9105   -1.5488  -11.0499 C   0  0  0  0  0  0  0  0  0  0  0  0
  -27.4054   -1.7931   -9.7632 C   0  0  0  0  0  0  0  0  0  0  0  0
  -26.0113   -1.6796   -9.6073 C   0  0  0  0  0  0  0  0  0  0  0  0
  -25.1706   -1.3235  -10.6690 C   0  0  0  0  0  0  0  0  0  0  0  0
  -28.2654   -2.2770   -8.6561 C   0  0  0  0  0  0  0  0  0  0  0  0
  -29.0364   -3.4554   -8.7931 C   0  0  0  0  0  0  0  0  0  0  0  0
  -29.6789   -4.0498   -7.7112 C   0  0  0  0  0  0  0  0  0  0  0  0
  -29.5584   -3.5085   -6.4359 C   0  0  0  0  0  0  0  0  0  0  0  0
  -28.8656   -2.2975   -6.2974 C   0  0  0  0  0  0  0  0  0  0  0  0
  -28.5746   -1.3878   -4.8635 S   0  0  0  0  0  0  0  0  0  0  0  0
  -27.8272   -0.1128   -5.6027 N   0  0  0  0  0  0  0  0  0  0  0  0
  -27.7626   -0.3738   -6.9038 C   0  0  0  0  0  0  0  0  0  0  0  0
  -28.2657   -1.6395   -7.3772 C   0  0  0  0  0  0  0  0  0  0  0  0
  1  2  2  0  0  0
  2  3  1  0  0  0
  2  4  1  0  0  0
  3 18  1  0  0  0
  3  5  1  0  0  0
 18 19  1  0  0  0
 18 23  2  0  0  0
 19 20  2  0  0  0
 20 21  1  0  0  0
 21 24  1  0  0  0
 21 22  2  0  0  0
 24 25  1  0  0  0
 24 32  2  0  0  0
 25 26  2  0  0  0
 26 27  1  0  0  0
 27 28  2  0  0  0
 28 29  1  0  0  0
 28 32  1  0  0  0
 29 30  1  0  0  0
 30 31  2  0  0  0
 31 32  1  0  0  0
 22 23  1  0  0  0
  4  7  1  0  0  0
  4  6  1  0  0  0
  7  8  1  0  0  0
  7 13  2  0  0  0
  8  9  2  0  0  0
  9 10  1  0  0  0
 10 11  1  0  0  0
 10 12  2  0  0  0
 12 14  1  0  0  0
 12 13  1  0  0  0
 14 15  1  0  0  0
 14 16  1  0  0  0
 14 17  1  0  0  0
M  END
> <minimizedAffinity>
-9.83678

$$$$
