CHEMBL2312303


 37 40  0  0  0  0  0  0  0  0999 V2000
  -28.4831   -3.2368   -7.5261 C   0  0  0  0  0  0  0  0  0  0  0  0
  -29.3340   -4.2152   -8.0067 C   0  0  0  0  0  0  0  0  0  0  0  0
  -29.9387   -5.1715   -7.2605 N   0  0  0  0  0  0  0  0  0  0  0  0
  -29.7114   -5.1400   -5.9493 C   0  0  0  0  0  0  0  0  0  0  0  0
  -28.9151   -4.2378   -5.3770 N   0  0  0  0  0  0  0  0  0  0  0  0
  -28.3111   -3.2842   -6.1352 C   0  0  0  0  0  0  0  0  0  0  0  0
  -27.2531   -1.2505   -8.0380 O   0  0  0  0  0  0  0  0  0  0  0  0
  -27.9335   -2.1773   -8.4614 C   0  0  0  0  0  0  0  0  0  0  0  0
  -28.2306   -2.2931   -9.8312 N   0  0  0  0  0  0  0  0  0  0  0  0
  -28.4997   -3.1942  -10.1967 H   0  0  0  0  0  0  0  0  0  0  0  0
  -27.8645   -1.3002  -10.8583 C   0  0  0  0  0  0  0  0  0  0  0  0
  -26.6939   -1.7986  -11.7356 C   0  0  0  0  0  0  0  0  0  0  0  0
  -25.3002   -1.5833  -11.1162 C   0  0  0  0  0  0  0  0  0  0  0  0
  -24.3649   -0.9296  -12.0383 N   0  0  0  0  0  0  0  0  0  0  0  0
  -24.1841    0.5030  -12.0829 C   0  0  0  0  0  0  0  0  0  0  0  0
  -23.3638    0.7150  -13.3427 C   0  0  0  0  0  0  0  0  0  0  0  0
  -22.4959   -0.5350  -13.4125 C   0  0  0  0  0  0  0  0  0  0  0  0
  -23.3636   -1.5839  -12.7486 C   0  0  0  0  0  0  0  0  0  0  0  0
  -23.1736   -2.7905  -12.7954 O   0  0  0  0  0  0  0  0  0  0  0  0
  -30.4373   -6.0333   -5.1831 N   0  0  0  0  0  0  0  0  0  0  0  0
  -31.2362   -6.3274   -5.7322 H   0  0  0  0  0  0  0  0  0  0  0  0
  -29.7084   -7.1140   -4.5380 C   0  0  0  0  0  0  0  0  0  0  0  0
  -29.3561   -8.2080   -5.5347 C   0  0  0  0  0  0  0  0  0  0  0  0
  -30.3289   -8.6640   -6.4548 C   0  0  0  0  0  0  0  0  0  0  0  0
  -30.0441   -9.7036   -7.3443 C   0  0  0  0  0  0  0  0  0  0  0  0
  -31.2440  -10.2221   -8.4650 Cl  0  0  0  0  0  0  0  0  0  0  0  0
  -28.8006  -10.3268   -7.3284 C   0  0  0  0  0  0  0  0  0  0  0  0
  -27.8381   -9.9113   -6.4104 C   0  0  0  0  0  0  0  0  0  0  0  0
  -28.1156   -8.8695   -5.5142 C   0  0  0  0  0  0  0  0  0  0  0  0
  -26.8784   -8.4653   -4.3770 Cl  0  0  0  0  0  0  0  0  0  0  0  0
  -27.6002   -2.3238   -5.4217 N   0  0  0  0  0  0  0  0  0  0  0  0
  -26.7845   -2.6874   -4.9373 H   0  0  0  0  0  0  0  0  0  0  0  0
  -28.3098   -1.2069   -4.7919 C   0  0  0  0  0  0  0  0  0  0  0  0
  -29.7120   -1.0839   -5.3981 C   0  0  0  0  0  0  0  0  0  0  0  0
  -30.0428    0.4022   -5.4849 C   0  0  0  0  0  0  0  0  0  0  0  0
  -28.8270    1.1569   -4.9756 C   0  0  0  0  0  0  0  0  0  0  0  0
  -27.6713    0.1643   -5.0099 C   0  0  0  0  0  0  0  0  0  0  0  0
  7  8  2  0  0  0
  8  9  1  0  0  0
  8  1  1  0  0  0
  9 11  1  0  0  0
  9 10  1  0  0  0
 11 12  1  0  0  0
 12 13  1  0  0  0
 13 14  1  0  0  0
 14 15  1  0  0  0
 14 18  1  0  0  0
 15 16  1  0  0  0
 16 17  1  0  0  0
 17 18  1  0  0  0
 18 19  2  0  0  0
  1  2  1  0  0  0
  1  6  2  0  0  0
  2  3  2  0  0  0
  3  4  1  0  0  0
  4 20  1  0  0  0
  4  5  2  0  0  0
 20 22  1  0  0  0
 20 21  1  0  0  0
 22 23  1  0  0  0
 23 24  1  0  0  0
 23 29  2  0  0  0
 24 25  2  0  0  0
 25 26  1  0  0  0
 25 27  1  0  0  0
 27 28  2  0  0  0
 28 29  1  0  0  0
 29 30  1  0  0  0
  5  6  1  0  0  0
  6 31  1  0  0  0
 31 33  1  0  0  0
 31 32  1  0  0  0
 33 34  1  0  0  0
 33 37  1  0  0  0
 34 35  1  0  0  0
 35 36  1  0  0  0
 36 37  1  0  0  0
M  END
> <minimizedAffinity>
-9.45335

$$$$
