CHEMBL3671479


 38 41  0  0  0  0  0  0  0  0999 V2000
  -17.8380    0.9566  -14.9070 C   0  0  0  0  0  0  0  0  0  0  0  0
  -19.1501    0.5555  -14.6443 C   0  0  0  0  0  0  0  0  0  0  0  0
  -20.2016    1.4789  -14.5572 C   0  0  0  0  0  0  0  0  0  0  0  0
  -21.5301    1.1096  -14.2903 C   0  0  0  0  0  0  0  0  0  0  0  0
  -22.5198    2.0142  -14.2575 N   0  0  0  0  0  0  0  0  0  0  0  0
  -22.1670    3.2894  -14.4349 C   0  0  0  0  0  0  0  0  0  0  0  0
  -20.9294    3.7465  -14.6896 N   0  0  0  0  0  0  0  0  0  0  0  0
  -19.9540    2.8337  -14.7658 C   0  0  0  0  0  0  0  0  0  0  0  0
  -18.6466    3.2216  -15.0701 C   0  0  0  0  0  0  0  0  0  0  0  0
  -17.5765    2.3096  -15.1735 C   0  0  0  0  0  0  0  0  0  0  0  0
  -16.0408   -0.1687  -13.7343 C   0  0  0  0  0  0  0  0  0  0  0  0
  -16.1431    0.4897  -12.7057 O   0  0  0  0  0  0  0  0  0  0  0  0
  -16.8720   -0.0695  -14.8392 N   0  0  0  0  0  0  0  0  0  0  0  0
  -16.6016   -0.5448  -15.6830 H   0  0  0  0  0  0  0  0  0  0  0  0
  -15.0652   -2.4070  -13.5975 C   0  0  0  0  0  0  0  0  0  0  0  0
  -14.9188   -1.1218  -13.9429 C   0  0  0  0  0  0  0  0  0  0  0  0
  -21.8275   -0.2482  -14.0437 N   0  0  0  0  0  0  0  0  0  0  0  0
  -20.9846   -0.8163  -14.0100 H   0  0  0  0  0  0  0  0  0  0  0  0
  -22.9141   -0.8103  -13.3497 C   0  0  0  0  0  0  0  0  0  0  0  0
  -22.8373   -1.1385  -11.9921 C   0  0  0  0  0  0  0  0  0  0  0  0
  -23.9834   -1.5055  -11.2803 C   0  0  0  0  0  0  0  0  0  0  0  0
  -25.2169   -1.5579  -11.9274 C   0  0  0  0  0  0  0  0  0  0  0  0
  -26.7780   -1.9428  -10.9343 Br  0  0  0  0  0  0  0  0  0  0  0  0
  -25.3120   -1.2870  -13.2875 C   0  0  0  0  0  0  0  0  0  0  0  0
  -24.1650   -0.9100  -13.9798 C   0  0  0  0  0  0  0  0  0  0  0  0
  -24.2693   -0.6064  -15.2839 F   0  0  0  0  0  0  0  0  0  0  0  0
  -16.3834    2.9353  -15.4537 O   0  0  0  0  0  0  0  0  0  0  0  0
  -16.3284    3.7679  -16.6005 C   0  0  0  0  0  0  0  0  0  0  0  0
  -15.1142    3.4699  -17.4934 C   0  0  0  0  0  0  0  0  0  0  0  0
  -13.8278    3.5422  -16.6451 C   0  0  0  0  0  0  0  0  0  0  0  0
  -13.4500    4.9794  -16.2754 C   0  0  0  0  0  0  0  0  0  0  0  0
  -13.4069    5.8254  -17.4627 N   0  0  0  0  0  0  0  0  0  0  0  0
  -12.3143    6.6649  -17.6216 C   0  0  0  0  0  0  0  0  0  0  0  0
  -11.4056    6.7460  -16.7959 O   0  0  0  0  0  0  0  0  0  0  0  0
  -14.6309    5.8398  -18.2668 C   0  0  0  0  0  0  0  0  0  0  0  0
  -14.9945    4.4204  -18.6953 C   0  0  0  0  0  0  0  0  0  0  0  0
  -12.2484    7.4701  -18.8673 C   0  0  0  0  0  0  0  0  0  0  0  0
  -12.4468    8.7930  -18.8214 C   0  0  0  0  0  0  0  0  0  0  0  0
 15 16  2  0  0  0
 16 11  1  0  0  0
 11 12  2  0  0  0
 11 13  1  0  0  0
 13  1  1  0  0  0
 13 14  1  0  0  0
  1  2  1  0  0  0
  1 10  2  0  0  0
  2  3  2  0  0  0
  3  4  1  0  0  0
  3  8  1  0  0  0
  4 17  1  0  0  0
  4  5  2  0  0  0
 17 19  1  0  0  0
 17 18  1  0  0  0
 19 20  1  0  0  0
 19 25  2  0  0  0
 20 21  2  0  0  0
 21 22  1  0  0  0
 22 23  1  0  0  0
 22 24  2  0  0  0
 24 25  1  0  0  0
 25 26  1  0  0  0
  5  6  1  0  0  0
  6  7  2  0  0  0
  7  8  1  0  0  0
  8  9  2  0  0  0
  9 10  1  0  0  0
 10 27  1  0  0  0
 27 28  1  0  0  0
 28 29  1  0  0  0
 29 30  1  0  0  0
 29 36  1  0  0  0
 30 31  1  0  0  0
 31 32  1  0  0  0
 32 33  1  0  0  0
 32 35  1  0  0  0
 33 34  2  0  0  0
 33 37  1  0  0  0
 37 38  2  0  0  0
 35 36  1  0  0  0
M  END
> <minimizedAffinity>
-9.55446

$$$$
