CHEMBL3656047


 36 39  0  0  0  0  0  0  0  0999 V2000
  -29.8468   -6.3061   -3.7626 C   0  0  0  0  0  0  0  0  0  0  0  0
  -31.1661   -6.2190   -3.3364 C   0  0  0  0  0  0  0  0  0  0  0  0
  -31.8513   -5.0382   -3.5691 C   0  0  0  0  0  0  0  0  0  0  0  0
  -31.3006   -3.9479   -4.1415 N   0  0  0  0  0  0  0  0  0  0  0  0
  -29.9944   -4.0371   -4.4922 C   0  0  0  0  0  0  0  0  0  0  0  0
  -29.2355   -5.1893   -4.3197 C   0  0  0  0  0  0  0  0  0  0  0  0
  -29.4391   -2.8179   -5.0612 C   0  0  0  0  0  0  0  0  0  0  0  0
  -29.3981   -1.5178   -4.5856 C   0  0  0  0  0  0  0  0  0  0  0  0
  -28.8159   -0.6838   -5.5816 C   0  0  0  0  0  0  0  0  0  0  0  0
  -28.4719   -1.5209   -6.6282 C   0  0  0  0  0  0  0  0  0  0  0  0
  -28.8410   -2.7952   -6.3008 N   0  0  0  0  0  0  0  0  0  0  0  0
  -28.7403   -3.6223   -6.8803 H   0  0  0  0  0  0  0  0  0  0  0  0
  -28.6915    0.7639   -5.5247 C   0  0  0  0  0  0  0  0  0  0  0  0
  -28.0859    1.3450   -4.6328 O   0  0  0  0  0  0  0  0  0  0  0  0
  -29.3893    1.3909   -6.5140 O   0  0  0  0  0  0  0  0  0  0  0  0
  -30.8072    1.4806   -6.2966 C   0  0  0  0  0  0  0  0  0  0  0  0
  -31.5030    2.4206   -7.2753 C   0  0  0  0  0  0  0  0  0  0  0  0
  -32.8822    2.0847   -7.3953 O   0  0  0  0  0  0  0  0  0  0  0  0
  -32.9171    1.1840   -7.7633 H   0  0  0  0  0  0  0  0  0  0  0  0
  -29.0562   -7.4337   -3.6377 O   0  0  0  0  0  0  0  0  0  0  0  0
  -27.0897   -9.4695   -5.9712 C   0  0  0  0  0  0  0  0  0  0  0  0
  -28.0690   -9.8114   -6.9094 C   0  0  0  0  0  0  0  0  0  0  0  0
  -29.3619   -9.2978   -6.8179 C   0  0  0  0  0  0  0  0  0  0  0  0
  -29.6986   -8.4495   -5.7692 C   0  0  0  0  0  0  0  0  0  0  0  0
  -28.7759   -8.1966   -4.7510 C   0  0  0  0  0  0  0  0  0  0  0  0
  -27.4638   -8.6820   -4.8688 C   0  0  0  0  0  0  0  0  0  0  0  0
  -25.2940  -11.1582   -6.4180 C   0  0  0  0  0  0  0  0  0  0  0  0
  -26.0187  -12.1187   -6.6685 O   0  0  0  0  0  0  0  0  0  0  0  0
  -25.7456   -9.8838   -6.0922 N   0  0  0  0  0  0  0  0  0  0  0  0
  -25.0233   -9.1719   -6.0409 H   0  0  0  0  0  0  0  0  0  0  0  0
  -23.0560  -10.8193   -4.0610 C   0  0  0  0  0  0  0  0  0  0  0  0
  -22.8641  -11.1279   -5.5027 C   0  0  0  0  0  0  0  0  0  0  0  0
  -21.6215  -11.3459   -6.1591 C   0  0  0  0  0  0  0  0  0  0  0  0
  -21.9144  -11.6042   -7.4737 C   0  0  0  0  0  0  0  0  0  0  0  0
  -23.2532  -11.5676   -7.6835 O   0  0  0  0  0  0  0  0  0  0  0  0
  -23.8437  -11.2694   -6.4814 C   0  0  0  0  0  0  0  0  0  0  0  0
 31 32  1  0  0  0
 32 33  1  0  0  0
 32 36  2  0  0  0
 33 34  2  0  0  0
 34 35  1  0  0  0
 35 36  1  0  0  0
 36 27  1  0  0  0
 27 28  2  0  0  0
 27 29  1  0  0  0
 29 21  1  0  0  0
 29 30  1  0  0  0
 21 22  1  0  0  0
 21 26  2  0  0  0
 22 23  2  0  0  0
 23 24  1  0  0  0
 24 25  2  0  0  0
 25 20  1  0  0  0
 25 26  1  0  0  0
 20  1  1  0  0  0
  1  2  1  0  0  0
  1  6  2  0  0  0
  2  3  2  0  0  0
  3  4  1  0  0  0
  4  5  2  0  0  0
  5  7  1  0  0  0
  5  6  1  0  0  0
  7  8  2  0  0  0
  7 11  1  0  0  0
  8  9  1  0  0  0
  9 13  1  0  0  0
  9 10  2  0  0  0
 13 14  2  0  0  0
 13 15  1  0  0  0
 15 16  1  0  0  0
 16 17  1  0  0  0
 17 18  1  0  0  0
 18 19  1  0  0  0
 10 11  1  0  0  0
 11 12  1  0  0  0
M  END
> <minimizedAffinity>
-8.30617

$$$$
