CHEMBL2086734


 29 33  0  0  0  0  0  0  0  0999 V2000
  -12.1564    0.0279  -16.0617 O   0  0  0  0  0  0  0  0  0  0  0  0
  -12.9272   -0.4407  -15.2417 C   0  0  0  0  0  0  0  0  0  0  0  0
  -12.5898   -1.4606  -14.3866 N   0  0  0  0  0  0  0  0  0  0  0  0
  -13.6061   -1.7282  -13.4920 C   0  0  0  0  0  0  0  0  0  0  0  0
  -13.5367   -2.6875  -12.4972 C   0  0  0  0  0  0  0  0  0  0  0  0
  -14.6458   -2.8198  -11.6752 C   0  0  0  0  0  0  0  0  0  0  0  0
  -14.6234   -4.1000  -10.2842 Br  0  0  0  0  0  0  0  0  0  0  0  0
  -15.7760   -2.0101  -11.8657 C   0  0  0  0  0  0  0  0  0  0  0  0
  -15.8127   -1.0450  -12.8916 C   0  0  0  0  0  0  0  0  0  0  0  0
  -14.7157   -0.8939  -13.7204 C   0  0  0  0  0  0  0  0  0  0  0  0
  -14.3728   -0.0409  -14.8921 C   0  0  0  0  0  0  0  0  0  0  0  0
  -15.0339    0.8937  -15.6277 C   0  0  0  0  0  0  0  0  0  0  0  0
  -11.6815   -1.9002  -14.4089 H   0  0  0  0  0  0  0  0  0  0  0  0
  -16.3639    1.3991  -15.3532 C   0  0  0  0  0  0  0  0  0  0  0  0
  -16.8886    2.5345  -14.9183 N   0  0  0  0  0  0  0  0  0  0  0  0
  -18.2591    2.3312  -14.8184 C   0  0  0  0  0  0  0  0  0  0  0  0
  -19.3000    3.1764  -14.3955 C   0  0  0  0  0  0  0  0  0  0  0  0
  -20.6142    2.6641  -14.3509 C   0  0  0  0  0  0  0  0  0  0  0  0
  -20.8911    1.3487  -14.7279 C   0  0  0  0  0  0  0  0  0  0  0  0
  -19.8752    0.5101  -15.1867 C   0  0  0  0  0  0  0  0  0  0  0  0
  -18.5897    1.0492  -15.2105 C   0  0  0  0  0  0  0  0  0  0  0  0
  -17.3994    0.5102  -15.5978 N   0  0  0  0  0  0  0  0  0  0  0  0
  -17.3021   -0.4189  -15.9768 H   0  0  0  0  0  0  0  0  0  0  0  0
  -14.3564    1.3894  -16.8726 C   0  0  0  0  0  0  0  0  0  0  0  0
  -14.4162    0.6204  -18.0462 C   0  0  0  0  0  0  0  0  0  0  0  0
  -13.8817    1.1154  -19.2354 C   0  0  0  0  0  0  0  0  0  0  0  0
  -13.3065    2.3851  -19.2646 C   0  0  0  0  0  0  0  0  0  0  0  0
  -13.2609    3.1627  -18.1069 C   0  0  0  0  0  0  0  0  0  0  0  0
  -13.7810    2.6684  -16.9108 C   0  0  0  0  0  0  0  0  0  0  0  0
  1  2  2  0  0  0
  2  3  1  0  0  0
  2 11  1  0  0  0
  3  4  1  0  0  0
  3 13  1  0  0  0
  4  5  1  0  0  0
  4 10  2  0  0  0
  5  6  2  0  0  0
  6  7  1  0  0  0
  6  8  1  0  0  0
  8  9  2  0  0  0
  9 10  1  0  0  0
 10 11  1  0  0  0
 11 12  2  0  0  0
 12 24  1  0  0  0
 12 14  1  0  0  0
 24 25  1  0  0  0
 24 29  2  0  0  0
 25 26  2  0  0  0
 26 27  1  0  0  0
 27 28  2  0  0  0
 28 29  1  0  0  0
 14 15  2  0  0  0
 14 22  1  0  0  0
 15 16  1  0  0  0
 16 17  1  0  0  0
 16 21  2  0  0  0
 17 18  2  0  0  0
 18 19  1  0  0  0
 19 20  2  0  0  0
 20 21  1  0  0  0
 21 22  1  0  0  0
 22 23  1  0  0  0
M  END
> <minimizedAffinity>
-8.24829

$$$$
