CHEMBL1761937


 34 37  0  0  0  0  0  0  0  0999 V2000
  -11.8932   -1.8969  -12.8363 C   0  0  0  0  0  0  0  0  0  0  0  0
  -13.1644   -2.4625  -12.8923 C   0  0  0  0  0  0  0  0  0  0  0  0
  -14.1809   -1.8361  -13.6152 C   0  0  0  0  0  0  0  0  0  0  0  0
  -13.9774   -0.6042  -14.2354 C   0  0  0  0  0  0  0  0  0  0  0  0
  -12.7333    0.0183  -14.0645 C   0  0  0  0  0  0  0  0  0  0  0  0
  -11.6922   -0.6237  -13.3654 C   0  0  0  0  0  0  0  0  0  0  0  0
  -14.9435   -0.0008  -15.0801 N   0  0  0  0  0  0  0  0  0  0  0  0
  -16.1402    0.5669  -14.6558 C   0  0  0  0  0  0  0  0  0  0  0  0
  -16.4668    0.7275  -13.4845 O   0  0  0  0  0  0  0  0  0  0  0  0
  -16.9861    0.8938  -15.7136 N   0  0  0  0  0  0  0  0  0  0  0  0
  -14.7366    0.0546  -16.0677 H   0  0  0  0  0  0  0  0  0  0  0  0
  -16.9487    0.2504  -16.4905 H   0  0  0  0  0  0  0  0  0  0  0  0
  -18.2554    1.4650  -15.4338 C   0  0  0  0  0  0  0  0  0  0  0  0
  -18.4263    2.8553  -15.3736 C   0  0  0  0  0  0  0  0  0  0  0  0
  -19.6473    3.4058  -14.9791 C   0  0  0  0  0  0  0  0  0  0  0  0
  -20.7005    2.5625  -14.6402 C   0  0  0  0  0  0  0  0  0  0  0  0
  -22.3322    3.3004  -14.0347 Br  0  0  0  0  0  0  0  0  0  0  0  0
  -20.5529    1.1777  -14.7287 C   0  0  0  0  0  0  0  0  0  0  0  0
  -19.3363    0.6273  -15.1503 C   0  0  0  0  0  0  0  0  0  0  0  0
  -10.8233   -2.5714  -12.2733 O   0  0  0  0  0  0  0  0  0  0  0  0
  -11.0422   -7.6758  -12.0921 C   0  0  0  0  0  0  0  0  0  0  0  0
  -11.3175   -7.1313  -10.8325 C   0  0  0  0  0  0  0  0  0  0  0  0
  -11.3583   -5.7662  -10.6047 C   0  0  0  0  0  0  0  0  0  0  0  0
  -11.5850   -5.3635   -9.3532 N   0  0  0  0  0  0  0  0  0  0  0  0
  -11.6048   -4.0477   -9.1359 C   0  0  0  0  0  0  0  0  0  0  0  0
  -11.4269   -3.1056  -10.0576 N   0  0  0  0  0  0  0  0  0  0  0  0
  -11.1471   -3.5365  -11.3079 C   0  0  0  0  0  0  0  0  0  0  0  0
  -11.1315   -4.8903  -11.6721 C   0  0  0  0  0  0  0  0  0  0  0  0
  -10.9054   -5.4271  -12.9660 C   0  0  0  0  0  0  0  0  0  0  0  0
  -10.9031   -6.8134  -13.1850 C   0  0  0  0  0  0  0  0  0  0  0  0
  -12.1111   -9.7786  -12.2135 C   0  0  0  0  0  0  0  0  0  0  0  0
  -10.8965   -9.0277  -12.2761 O   0  0  0  0  0  0  0  0  0  0  0  0
  -10.6966   -7.1758  -14.4900 O   0  0  0  0  0  0  0  0  0  0  0  0
  -11.8459   -7.1766  -15.3347 C   0  0  0  0  0  0  0  0  0  0  0  0
 31 32  1  0  0  0
 32 21  1  0  0  0
 21 22  1  0  0  0
 21 30  2  0  0  0
 22 23  2  0  0  0
 23 24  1  0  0  0
 23 28  1  0  0  0
 24 25  2  0  0  0
 25 26  1  0  0  0
 26 27  2  0  0  0
 27 20  1  0  0  0
 27 28  1  0  0  0
 20  1  1  0  0  0
  1  2  1  0  0  0
  1  6  2  0  0  0
  2  3  2  0  0  0
  3  4  1  0  0  0
  4  7  1  0  0  0
  4  5  2  0  0  0
  7  8  1  0  0  0
  7 11  1  0  0  0
  8  9  2  0  0  0
  8 10  1  0  0  0
 10 13  1  0  0  0
 10 12  1  0  0  0
 13 14  1  0  0  0
 13 19  2  0  0  0
 14 15  2  0  0  0
 15 16  1  0  0  0
 16 17  1  0  0  0
 16 18  2  0  0  0
 18 19  1  0  0  0
  5  6  1  0  0  0
 28 29  2  0  0  0
 29 30  1  0  0  0
 30 33  1  0  0  0
 33 34  1  0  0  0
M  END
> <minimizedAffinity>
-7.76264

$$$$
