CHEMBL3895645


 35 38  0  0  0  0  0  0  0  0999 V2000
  -29.3959   -9.2626   -6.4308 C   0  0  0  0  0  0  0  0  0  0  0  0
  -28.5118  -10.2848   -6.7953 C   0  0  0  0  0  0  0  0  0  0  0  0
  -28.4430  -10.7499   -8.1375 C   0  0  0  0  0  0  0  0  0  0  0  0
  -27.6341  -11.7933   -8.6283 C   0  0  0  0  0  0  0  0  0  0  0  0
  -27.6661  -12.1668   -9.9239 N   0  0  0  0  0  0  0  0  0  0  0  0
  -28.4778  -11.4973  -10.7404 C   0  0  0  0  0  0  0  0  0  0  0  0
  -29.2677  -10.4889  -10.3900 N   0  0  0  0  0  0  0  0  0  0  0  0
  -29.2414  -10.1340   -9.1056 C   0  0  0  0  0  0  0  0  0  0  0  0
  -30.0557   -9.0837   -8.7391 C   0  0  0  0  0  0  0  0  0  0  0  0
  -30.1502   -8.6250   -7.4215 C   0  0  0  0  0  0  0  0  0  0  0  0
  -28.0541   -8.6894   -4.5849 C   0  0  0  0  0  0  0  0  0  0  0  0
  -29.3654   -8.8950   -5.1108 O   0  0  0  0  0  0  0  0  0  0  0  0
  -26.7440  -12.4635   -7.7461 N   0  0  0  0  0  0  0  0  0  0  0  0
  -26.8844  -13.4656   -7.8247 H   0  0  0  0  0  0  0  0  0  0  0  0
  -25.3930  -12.1379   -7.4866 C   0  0  0  0  0  0  0  0  0  0  0  0
  -24.3612  -12.4033   -8.3970 C   0  0  0  0  0  0  0  0  0  0  0  0
  -23.0334  -12.0810   -8.1077 C   0  0  0  0  0  0  0  0  0  0  0  0
  -22.7184  -11.4353   -6.9149 C   0  0  0  0  0  0  0  0  0  0  0  0
  -21.0570  -11.0829   -6.6056 Cl  0  0  0  0  0  0  0  0  0  0  0  0
  -23.7416  -11.0950   -6.0262 C   0  0  0  0  0  0  0  0  0  0  0  0
  -23.4373  -10.2568   -4.5452 Cl  0  0  0  0  0  0  0  0  0  0  0  0
  -25.0693  -11.4351   -6.3180 C   0  0  0  0  0  0  0  0  0  0  0  0
  -30.9198   -7.5508   -7.0683 O   0  0  0  0  0  0  0  0  0  0  0  0
  -30.4207   -6.2646   -7.4234 C   0  0  0  0  0  0  0  0  0  0  0  0
  -30.1659   -5.4286   -6.1782 C   0  0  0  0  0  0  0  0  0  0  0  0
  -28.6511   -5.2558   -5.9232 C   0  0  0  0  0  0  0  0  0  0  0  0
  -28.3558   -4.4621   -4.6976 N   0  0  0  0  0  0  0  0  0  0  0  0
  -29.0518   -5.1708   -3.5875 C   0  0  0  0  0  0  0  0  0  0  0  0
  -30.5550   -5.4066   -3.8375 C   0  0  0  0  0  0  0  0  0  0  0  0
  -30.7849   -6.1005   -5.0660 O   0  0  0  0  0  0  0  0  0  0  0  0
  -28.8090   -3.0459   -4.8306 C   0  0  0  0  0  0  0  0  0  0  0  0
  -29.1184   -2.3849   -3.4853 C   0  0  0  0  0  0  0  0  0  0  0  0
  -27.7834   -2.1900   -5.5924 C   0  0  0  0  0  0  0  0  0  0  0  0
  -27.9929   -1.9052   -7.0566 C   0  0  0  0  0  0  0  0  0  0  0  0
  -26.8150   -1.6984   -5.0031 O   0  0  0  0  0  0  0  0  0  0  0  0
 11 12  1  0  0  0
 12  1  1  0  0  0
  1  2  1  0  0  0
  1 10  2  0  0  0
  2  3  2  0  0  0
  3  4  1  0  0  0
  3  8  1  0  0  0
  4 13  1  0  0  0
  4  5  2  0  0  0
 13 15  1  0  0  0
 13 14  1  0  0  0
 15 16  1  0  0  0
 15 22  2  0  0  0
 16 17  2  0  0  0
 17 18  1  0  0  0
 18 19  1  0  0  0
 18 20  2  0  0  0
 20 21  1  0  0  0
 20 22  1  0  0  0
  5  6  1  0  0  0
  6  7  2  0  0  0
  7  8  1  0  0  0
  8  9  2  0  0  0
  9 10  1  0  0  0
 10 23  1  0  0  0
 23 24  1  0  0  0
 24 25  1  0  0  0
 25 26  1  0  0  0
 25 30  1  0  0  0
 26 27  1  0  0  0
 27 31  1  0  0  0
 27 28  1  0  0  0
 31 32  1  0  0  0
 31 33  1  0  0  0
 33 34  1  0  0  0
 33 35  2  0  0  0
 28 29  1  0  0  0
 29 30  1  0  0  0
M  END
> <minimizedAffinity>
-7.53982

$$$$
