CHEMBL3818283


 27 30  0  0  0  0  0  0  0  0999 V2000
  -15.4348   -0.6404  -12.9362 C   0  0  0  0  0  0  0  0  0  0  0  0
  -14.2851    0.0364  -12.8410 N   0  0  0  0  0  0  0  0  0  0  0  0
  -14.1012    1.0276  -13.7334 C   0  0  0  0  0  0  0  0  0  0  0  0
  -15.0088    1.3549  -14.7142 C   0  0  0  0  0  0  0  0  0  0  0  0
  -16.1805    0.6347  -14.7157 C   0  0  0  0  0  0  0  0  0  0  0  0
  -16.3874   -0.3506  -13.8315 N   0  0  0  0  0  0  0  0  0  0  0  0
  -15.6337   -1.7080  -12.0534 N   0  0  0  0  0  0  0  0  0  0  0  0
  -15.0589   -1.5450  -11.2361 H   0  0  0  0  0  0  0  0  0  0  0  0
  -16.0793   -7.0613  -13.4323 F   0  0  0  0  0  0  0  0  0  0  0  0
  -15.9507   -5.7711  -13.0964 C   0  0  0  0  0  0  0  0  0  0  0  0
  -15.2203   -4.9227  -13.9137 C   0  0  0  0  0  0  0  0  0  0  0  0
  -15.1050   -3.5742  -13.5709 C   0  0  0  0  0  0  0  0  0  0  0  0
  -15.7292   -3.0647  -12.4203 C   0  0  0  0  0  0  0  0  0  0  0  0
  -16.4228   -3.9524  -11.5870 C   0  0  0  0  0  0  0  0  0  0  0  0
  -16.5486   -5.3013  -11.9329 C   0  0  0  0  0  0  0  0  0  0  0  0
  -17.1849    0.9389  -15.6652 N   0  0  0  0  0  0  0  0  0  0  0  0
  -17.2899    0.1717  -16.3192 H   0  0  0  0  0  0  0  0  0  0  0  0
  -18.4194    1.5564  -15.3362 C   0  0  0  0  0  0  0  0  0  0  0  0
  -18.5644    2.9505  -15.4415 C   0  0  0  0  0  0  0  0  0  0  0  0
  -19.7541    3.6093  -15.1191 C   0  0  0  0  0  0  0  0  0  0  0  0
  -20.8111    2.8125  -14.6838 C   0  0  0  0  0  0  0  0  0  0  0  0
  -22.0798    3.1315  -14.2764 N   0  0  0  0  0  0  0  0  0  0  0  0
  -22.8264    2.0693  -13.9260 N   0  0  0  0  0  0  0  0  0  0  0  0
  -21.9977    1.0386  -14.1062 C   0  0  0  0  0  0  0  0  0  0  0  0
  -20.7243    1.4296  -14.5817 C   0  0  0  0  0  0  0  0  0  0  0  0
  -19.5191    0.7839  -14.9253 C   0  0  0  0  0  0  0  0  0  0  0  0
  -22.4917    4.0549  -14.2111 H   0  0  0  0  0  0  0  0  0  0  0  0
  9 10  1  0  0  0
 10 11  1  0  0  0
 10 15  2  0  0  0
 11 12  2  0  0  0
 12 13  1  0  0  0
 13  7  1  0  0  0
 13 14  2  0  0  0
  7  1  1  0  0  0
  7  8  1  0  0  0
  1  2  1  0  0  0
  1  6  2  0  0  0
  2  3  2  0  0  0
  3  4  1  0  0  0
  4  5  2  0  0  0
  5 16  1  0  0  0
  5  6  1  0  0  0
 16 18  1  0  0  0
 16 17  1  0  0  0
 18 19  1  0  0  0
 18 26  2  0  0  0
 19 20  2  0  0  0
 20 21  1  0  0  0
 21 22  1  0  0  0
 21 25  2  0  0  0
 22 23  1  0  0  0
 22 27  1  0  0  0
 23 24  2  0  0  0
 24 25  1  0  0  0
 25 26  1  0  0  0
 14 15  1  0  0  0
M  END
> <minimizedAffinity>
-9.26755

$$$$
