CHEMBL3903645


 45 49  0  0  0  0  0  0  0  0999 V2000
  -16.0759    0.2498  -12.8419 N   0  0  0  0  0  0  0  0  0  0  0  0
  -15.8906   -1.1288  -12.8668 C   0  0  0  0  0  0  0  0  0  0  0  0
  -16.1619   -1.8596  -13.8111 O   0  0  0  0  0  0  0  0  0  0  0  0
  -15.3830   -1.6443  -11.6773 N   0  0  0  0  0  0  0  0  0  0  0  0
  -15.7036    0.7543  -12.0502 H   0  0  0  0  0  0  0  0  0  0  0  0
  -15.7547   -1.2116  -10.8444 H   0  0  0  0  0  0  0  0  0  0  0  0
  -15.1586   -3.0499  -11.6246 C   0  0  0  0  0  0  0  0  0  0  0  0
  -16.2366   -3.9375  -11.7377 C   0  0  0  0  0  0  0  0  0  0  0  0
  -16.0610   -5.3104  -11.5462 C   0  0  0  0  0  0  0  0  0  0  0  0
  -14.7864   -5.8322  -11.3107 C   0  0  0  0  0  0  0  0  0  0  0  0
  -13.7161   -4.9385  -11.1916 C   0  0  0  0  0  0  0  0  0  0  0  0
  -12.4927   -5.3956  -10.8848 F   0  0  0  0  0  0  0  0  0  0  0  0
  -13.8863   -3.5568  -11.3629 C   0  0  0  0  0  0  0  0  0  0  0  0
  -14.5333   -7.1827  -11.1337 O   0  0  0  0  0  0  0  0  0  0  0  0
  -13.8965   -7.9010  -12.1391 C   0  0  0  0  0  0  0  0  0  0  0  0
  -12.9216   -8.8565  -11.8780 C   0  0  0  0  0  0  0  0  0  0  0  0
  -12.3040   -9.4521  -12.9524 C   0  0  0  0  0  0  0  0  0  0  0  0
  -12.6442   -9.2066  -14.2270 N   0  0  0  0  0  0  0  0  0  0  0  0
  -13.6427   -8.3441  -14.4868 C   0  0  0  0  0  0  0  0  0  0  0  0
  -14.2964   -7.6652  -13.4618 C   0  0  0  0  0  0  0  0  0  0  0  0
  -14.0162   -8.1345  -15.8302 N   0  0  0  0  0  0  0  0  0  0  0  0
  -13.4069   -7.1965  -16.6528 C   0  0  0  0  0  0  0  0  0  0  0  0
  -12.5020   -6.4376  -16.3562 O   0  0  0  0  0  0  0  0  0  0  0  0
  -14.7784   -8.6855  -16.1998 H   0  0  0  0  0  0  0  0  0  0  0  0
  -13.9096   -7.0832  -18.0528 C   0  0  0  0  0  0  0  0  0  0  0  0
  -13.6345   -8.1954  -19.0424 C   0  0  0  0  0  0  0  0  0  0  0  0
  -13.1157   -6.8089  -19.3016 C   0  0  0  0  0  0  0  0  0  0  0  0
  -16.2359    2.3385  -15.9890 C   0  0  0  0  0  0  0  0  0  0  0  0
  -15.7806    1.5312  -14.9407 C   0  0  0  0  0  0  0  0  0  0  0  0
  -16.5974    1.0246  -13.9201 C   0  0  0  0  0  0  0  0  0  0  0  0
  -17.9596    1.3269  -13.9693 C   0  0  0  0  0  0  0  0  0  0  0  0
  -18.4676    2.1432  -15.0005 C   0  0  0  0  0  0  0  0  0  0  0  0
  -17.5974    2.6283  -15.9960 C   0  0  0  0  0  0  0  0  0  0  0  0
  -13.5207    4.8224  -15.4101 C   0  0  0  0  0  0  0  0  0  0  0  0
  -13.7862    4.7127  -16.9119 C   0  0  0  0  0  0  0  0  0  0  0  0
  -15.2267    4.2484  -17.2302 C   0  0  0  0  0  0  0  0  0  0  0  0
  -15.3842    2.8108  -16.9641 N   0  0  0  0  0  0  0  0  0  0  0  0
  -14.3445    1.9781  -17.5943 C   0  0  0  0  0  0  0  0  0  0  0  0
  -12.9354    2.4933  -17.2427 C   0  0  0  0  0  0  0  0  0  0  0  0
  -11.8846    1.7260  -18.0370 C   0  0  0  0  0  0  0  0  0  0  0  0
  -12.7949    3.8920  -17.5623 O   0  0  0  0  0  0  0  0  0  0  0  0
  -19.9155    2.5526  -15.0731 C   0  0  0  0  0  0  0  0  0  0  0  0
  -20.1429    3.6151  -15.8922 F   0  0  0  0  0  0  0  0  0  0  0  0
  -20.7106    1.5468  -15.5379 F   0  0  0  0  0  0  0  0  0  0  0  0
  -20.4290    2.8969  -13.8590 F   0  0  0  0  0  0  0  0  0  0  0  0
 34 35  1  0  0  0
 35 36  1  0  0  0
 35 41  1  0  0  0
 36 37  1  0  0  0
 37 28  1  0  0  0
 37 38  1  0  0  0
 28 29  1  0  0  0
 28 33  2  0  0  0
 29 30  2  0  0  0
 30  1  1  0  0  0
 30 31  1  0  0  0
  1  2  1  0  0  0
  1  5  1  0  0  0
  2  3  2  0  0  0
  2  4  1  0  0  0
  4  7  1  0  0  0
  4  6  1  0  0  0
  7  8  1  0  0  0
  7 13  2  0  0  0
  8  9  2  0  0  0
  9 10  1  0  0  0
 10 14  1  0  0  0
 10 11  2  0  0  0
 14 15  1  0  0  0
 15 16  1  0  0  0
 15 20  2  0  0  0
 16 17  2  0  0  0
 17 18  1  0  0  0
 18 19  2  0  0  0
 19 21  1  0  0  0
 19 20  1  0  0  0
 21 22  1  0  0  0
 21 24  1  0  0  0
 22 23  2  0  0  0
 22 25  1  0  0  0
 25 26  1  0  0  0
 25 27  1  0  0  0
 26 27  1  0  0  0
 11 12  1  0  0  0
 11 13  1  0  0  0
 31 32  2  0  0  0
 32 42  1  0  0  0
 32 33  1  0  0  0
 42 43  1  0  0  0
 42 44  1  0  0  0
 42 45  1  0  0  0
 38 39  1  0  0  0
 39 40  1  0  0  0
 39 41  1  0  0  0
M  END
> <minimizedAffinity>
-9.67619

$$$$
