CHEMBL4079136


 35 39  0  0  0  0  0  0  0  0999 V2000
  -29.5842   -4.7424   -5.2554 N   0  0  0  0  0  0  0  0  0  0  0  0
  -29.8237   -5.2621   -6.5068 C   0  0  0  0  0  0  0  0  0  0  0  0
  -30.0995   -4.6921   -7.5516 O   0  0  0  0  0  0  0  0  0  0  0  0
  -29.9010   -6.6685   -6.4820 N   0  0  0  0  0  0  0  0  0  0  0  0
  -30.8307   -7.3755   -7.2394 C   0  0  0  0  0  0  0  0  0  0  0  0
  -30.6514   -8.7193   -7.0499 C   0  0  0  0  0  0  0  0  0  0  0  0
  -29.5274   -8.8796   -6.1994 C   0  0  0  0  0  0  0  0  0  0  0  0
  -28.8203  -10.0201   -5.7679 C   0  0  0  0  0  0  0  0  0  0  0  0
  -27.6679   -9.8721   -4.9964 C   0  0  0  0  0  0  0  0  0  0  0  0
  -27.2853   -8.5964   -4.5650 C   0  0  0  0  0  0  0  0  0  0  0  0
  -27.9688   -7.4455   -4.9831 C   0  0  0  0  0  0  0  0  0  0  0  0
  -29.0940   -7.6010   -5.8134 C   0  0  0  0  0  0  0  0  0  0  0  0
  -29.6152   -5.3488   -4.4481 H   0  0  0  0  0  0  0  0  0  0  0  0
  -29.2869   -1.1999   -5.2800 C   0  0  0  0  0  0  0  0  0  0  0  0
  -29.1175   -2.4039   -5.9290 C   0  0  0  0  0  0  0  0  0  0  0  0
  -29.5990   -3.3797   -5.0219 C   0  0  0  0  0  0  0  0  0  0  0  0
  -30.0588   -2.7906   -3.9161 N   0  0  0  0  0  0  0  0  0  0  0  0
  -29.8625   -1.4394   -4.0729 O   0  0  0  0  0  0  0  0  0  0  0  0
  -28.2391    0.2593   -6.9856 C   0  0  0  0  0  0  0  0  0  0  0  0
  -28.9871    0.2340   -5.6375 C   0  0  0  0  0  0  0  0  0  0  0  0
  -28.0954    0.9226   -4.5831 C   0  0  0  0  0  0  0  0  0  0  0  0
  -30.3198    1.0151   -5.7798 C   0  0  0  0  0  0  0  0  0  0  0  0
  -30.3331    1.8778   -6.9146 O   0  0  0  0  0  0  0  0  0  0  0  0
  -29.5738    2.4843   -6.8498 H   0  0  0  0  0  0  0  0  0  0  0  0
  -26.9933  -11.0506   -4.7177 O   0  0  0  0  0  0  0  0  0  0  0  0
  -25.6507  -11.0939   -5.0459 C   0  0  0  0  0  0  0  0  0  0  0  0
  -25.2563  -10.5834   -6.2304 N   0  0  0  0  0  0  0  0  0  0  0  0
  -23.9422  -10.3214   -6.3417 C   0  0  0  0  0  0  0  0  0  0  0  0
  -23.0110  -10.4682   -5.3835 N   0  0  0  0  0  0  0  0  0  0  0  0
  -23.4755  -11.0396   -4.2660 C   0  0  0  0  0  0  0  0  0  0  0  0
  -24.7721  -11.4460   -4.0702 C   0  0  0  0  0  0  0  0  0  0  0  0
  -24.9323  -11.9811   -2.7001 C   0  0  0  0  0  0  0  0  0  0  0  0
  -23.8835  -11.2634   -1.9297 N   0  0  0  0  0  0  0  0  0  0  0  0
  -22.7789  -11.0786   -2.9269 C   0  0  0  0  0  0  0  0  0  0  0  0
  -24.2642  -10.3298   -1.7492 H   0  0  0  0  0  0  0  0  0  0  0  0
 19 20  1  0  0  0
 20 21  1  0  0  0
 20 22  1  0  0  0
 20 14  1  0  0  0
 22 23  1  0  0  0
 23 24  1  0  0  0
 14 15  2  0  0  0
 14 18  1  0  0  0
 15 16  1  0  0  0
 16  1  1  0  0  0
 16 17  2  0  0  0
  1  2  1  0  0  0
  1 13  1  0  0  0
  2  3  2  0  0  0
  2  4  1  0  0  0
  4  5  1  0  0  0
  4 12  1  0  0  0
  5  6  2  0  0  0
  6  7  1  0  0  0
  7  8  1  0  0  0
  7 12  2  0  0  0
  8  9  2  0  0  0
  9 25  1  0  0  0
  9 10  1  0  0  0
 25 26  1  0  0  0
 26 27  1  0  0  0
 26 31  2  0  0  0
 27 28  2  0  0  0
 28 29  1  0  0  0
 29 30  2  0  0  0
 30 31  1  0  0  0
 30 34  1  0  0  0
 31 32  1  0  0  0
 32 33  1  0  0  0
 33 34  1  0  0  0
 33 35  1  0  0  0
 10 11  2  0  0  0
 11 12  1  0  0  0
 17 18  1  0  0  0
M  END
> <minimizedAffinity>
-9.04593

$$$$
