CHEMBL196021


 28 31  0  0  0  0  0  0  0  0999 V2000
  -28.8451   -9.7438   -6.2805 C   0  0  0  0  0  0  0  0  0  0  0  0
  -29.3394  -11.0121   -6.2559 O   0  0  0  0  0  0  0  0  0  0  0  0
  -30.6580  -10.9526   -6.5905 C   0  0  0  0  0  0  0  0  0  0  0  0
  -31.4263  -12.0486   -6.6641 N   0  0  0  0  0  0  0  0  0  0  0  0
  -32.6841  -11.7368   -7.0057 C   0  0  0  0  0  0  0  0  0  0  0  0
  -33.1923  -10.5201   -7.2511 N   0  0  0  0  0  0  0  0  0  0  0  0
  -32.3902   -9.4427   -7.1321 C   0  0  0  0  0  0  0  0  0  0  0  0
  -33.0023   -8.2232   -7.3327 N   0  0  0  0  0  0  0  0  0  0  0  0
  -31.0413   -9.6336   -6.8140 C   0  0  0  0  0  0  0  0  0  0  0  0
  -29.8584   -8.8439   -6.6220 C   0  0  0  0  0  0  0  0  0  0  0  0
  -33.9097   -8.2681   -7.7776 H   0  0  0  0  0  0  0  0  0  0  0  0
  -32.4859   -7.3599   -7.3434 H   0  0  0  0  0  0  0  0  0  0  0  0
  -24.7998   -9.7716   -4.9090 C   0  0  0  0  0  0  0  0  0  0  0  0
  -25.7728   -9.0649   -4.2097 C   0  0  0  0  0  0  0  0  0  0  0  0
  -27.0651   -8.9458   -4.7334 C   0  0  0  0  0  0  0  0  0  0  0  0
  -27.4327   -9.5967   -5.9202 C   0  0  0  0  0  0  0  0  0  0  0  0
  -26.4315  -10.2395   -6.6554 C   0  0  0  0  0  0  0  0  0  0  0  0
  -25.1250  -10.3214   -6.1529 C   0  0  0  0  0  0  0  0  0  0  0  0
  -22.7615  -10.9606   -5.2116 C   0  0  0  0  0  0  0  0  0  0  0  0
  -23.5168   -9.9926   -4.4911 O   0  0  0  0  0  0  0  0  0  0  0  0
  -29.6632   -7.4025   -6.7333 C   0  0  0  0  0  0  0  0  0  0  0  0
  -30.2261   -6.5153   -5.8042 C   0  0  0  0  0  0  0  0  0  0  0  0
  -29.9358   -5.1465   -5.8438 C   0  0  0  0  0  0  0  0  0  0  0  0
  -29.1614   -4.6289   -6.8781 C   0  0  0  0  0  0  0  0  0  0  0  0
  -28.6426   -5.4975   -7.8392 C   0  0  0  0  0  0  0  0  0  0  0  0
  -28.8512   -6.8768   -7.7412 C   0  0  0  0  0  0  0  0  0  0  0  0
  -28.8480   -3.3121   -7.0640 O   0  0  0  0  0  0  0  0  0  0  0  0
  -28.1247   -2.9884   -8.2448 C   0  0  0  0  0  0  0  0  0  0  0  0
 19 20  1  0  0  0
 20 13  1  0  0  0
 13 14  1  0  0  0
 13 18  2  0  0  0
 14 15  2  0  0  0
 15 16  1  0  0  0
 16  1  1  0  0  0
 16 17  2  0  0  0
  1  2  1  0  0  0
  1 10  2  0  0  0
  2  3  1  0  0  0
  3  4  1  0  0  0
  3  9  2  0  0  0
  4  5  2  0  0  0
  5  6  1  0  0  0
  6  7  2  0  0  0
  7  8  1  0  0  0
  7  9  1  0  0  0
  8 11  1  0  0  0
  8 12  1  0  0  0
  9 10  1  0  0  0
 10 21  1  0  0  0
 21 22  1  0  0  0
 21 26  2  0  0  0
 22 23  2  0  0  0
 23 24  1  0  0  0
 24 27  1  0  0  0
 24 25  2  0  0  0
 27 28  1  0  0  0
 25 26  1  0  0  0
 17 18  1  0  0  0
M  END
> <minimizedAffinity>
-7.24382

$$$$
