CHEMBL3098322


 25 27  0  0  0  0  0  0  0  0999 V2000
  -12.8196    3.1422  -14.4097 C   0  0  0  0  0  0  0  0  0  0  0  0
  -13.0074    2.0112  -13.6029 C   0  0  0  0  0  0  0  0  0  0  0  0
  -14.1196    1.1906  -13.7245 C   0  0  0  0  0  0  0  0  0  0  0  0
  -14.2516    0.1570  -12.8909 N   0  0  0  0  0  0  0  0  0  0  0  0
  -15.3652   -0.5673  -13.0306 C   0  0  0  0  0  0  0  0  0  0  0  0
  -15.5590   -1.8843  -11.9621 Cl  0  0  0  0  0  0  0  0  0  0  0  0
  -16.3545   -0.3688  -13.9010 N   0  0  0  0  0  0  0  0  0  0  0  0
  -16.2013    0.6682  -14.7392 C   0  0  0  0  0  0  0  0  0  0  0  0
  -15.0683    1.4993  -14.7071 C   0  0  0  0  0  0  0  0  0  0  0  0
  -14.8654    2.6149  -15.5569 C   0  0  0  0  0  0  0  0  0  0  0  0
  -13.7487    3.4389  -15.4113 C   0  0  0  0  0  0  0  0  0  0  0  0
  -11.1445    3.6616  -12.8182 C   0  0  0  0  0  0  0  0  0  0  0  0
  -11.6775    3.8478  -14.1273 O   0  0  0  0  0  0  0  0  0  0  0  0
  -17.2296    0.9366  -15.6792 N   0  0  0  0  0  0  0  0  0  0  0  0
  -17.3234    0.1551  -16.3197 H   0  0  0  0  0  0  0  0  0  0  0  0
  -18.4572    1.5708  -15.3933 C   0  0  0  0  0  0  0  0  0  0  0  0
  -19.5998    0.8264  -15.0595 C   0  0  0  0  0  0  0  0  0  0  0  0
  -20.8087    1.4529  -14.7556 C   0  0  0  0  0  0  0  0  0  0  0  0
  -20.8722    2.8393  -14.7607 C   0  0  0  0  0  0  0  0  0  0  0  0
  -22.0404    3.4920  -14.5029 O   0  0  0  0  0  0  0  0  0  0  0  0
  -19.7418    3.6010  -15.0287 C   0  0  0  0  0  0  0  0  0  0  0  0
  -18.5326    2.9679  -15.3322 C   0  0  0  0  0  0  0  0  0  0  0  0
  -22.7561    2.8352  -14.4755 H   0  0  0  0  0  0  0  0  0  0  0  0
  -13.4869    4.4741  -16.2656 O   0  0  0  0  0  0  0  0  0  0  0  0
  -14.3830    4.6272  -17.3610 C   0  0  0  0  0  0  0  0  0  0  0  0
 12 13  1  0  0  0
 13  1  1  0  0  0
  1  2  1  0  0  0
  1 11  2  0  0  0
  2  3  2  0  0  0
  3  4  1  0  0  0
  3  9  1  0  0  0
  4  5  2  0  0  0
  5  6  1  0  0  0
  5  7  1  0  0  0
  7  8  2  0  0  0
  8 14  1  0  0  0
  8  9  1  0  0  0
 14 16  1  0  0  0
 14 15  1  0  0  0
 16 17  1  0  0  0
 16 22  2  0  0  0
 17 18  2  0  0  0
 18 19  1  0  0  0
 19 20  1  0  0  0
 19 21  2  0  0  0
 20 23  1  0  0  0
 21 22  1  0  0  0
  9 10  2  0  0  0
 10 11  1  0  0  0
 11 24  1  0  0  0
 24 25  1  0  0  0
M  END
> <minimizedAffinity>
-7.67433

$$$$
