CHEMBL401900


 33 38  0  0  0  0  0  0  0  0999 V2000
  -22.9265  -11.1654   -6.3059 C   0  0  0  0  0  0  0  0  0  0  0  0
  -23.3046  -11.3141   -4.9736 C   0  0  0  0  0  0  0  0  0  0  0  0
  -24.5989  -11.1177   -4.5668 C   0  0  0  0  0  0  0  0  0  0  0  0
  -25.5341  -10.7219   -5.5315 C   0  0  0  0  0  0  0  0  0  0  0  0
  -25.2527  -10.6263   -6.9112 C   0  0  0  0  0  0  0  0  0  0  0  0
  -23.9002  -10.8713   -7.2934 C   0  0  0  0  0  0  0  0  0  0  0  0
  -26.5142  -10.3725   -7.4829 C   0  0  0  0  0  0  0  0  0  0  0  0
  -26.9319  -10.4262   -8.8417 C   0  0  0  0  0  0  0  0  0  0  0  0
  -28.3760  -10.4126   -9.1324 C   0  0  0  0  0  0  0  0  0  0  0  0
  -29.4118  -10.3158   -8.1555 C   0  0  0  0  0  0  0  0  0  0  0  0
  -28.8875   -9.9954   -6.8725 C   0  0  0  0  0  0  0  0  0  0  0  0
  -27.4926  -10.1397   -6.5670 C   0  0  0  0  0  0  0  0  0  0  0  0
  -26.8676  -10.4307   -5.3378 N   0  0  0  0  0  0  0  0  0  0  0  0
  -29.8777  -10.0880   -5.6878 C   0  0  0  0  0  0  0  0  0  0  0  0
  -30.8235  -11.2555   -5.4914 C   0  0  0  0  0  0  0  0  0  0  0  0
  -31.0610  -11.8816   -6.8587 C   0  0  0  0  0  0  0  0  0  0  0  0
  -32.2557  -12.4623   -6.9897 N   0  0  0  0  0  0  0  0  0  0  0  0
  -32.9435  -11.3295   -7.2429 N   0  0  0  0  0  0  0  0  0  0  0  0
  -33.9084  -10.9681   -6.1993 C   0  0  0  0  0  0  0  0  0  0  0  0
  -32.0851  -10.4777   -8.0233 C   0  0  0  0  0  0  0  0  0  0  0  0
  -30.7820  -11.0722   -8.0618 C   0  0  0  0  0  0  0  0  0  0  0  0
  -28.4655  -10.3615  -10.5667 C   0  0  0  0  0  0  0  0  0  0  0  0
  -29.4031  -10.2233  -11.3367 O   0  0  0  0  0  0  0  0  0  0  0  0
  -27.1397  -10.3927  -11.0351 N   0  0  0  0  0  0  0  0  0  0  0  0
  -26.1027  -10.4904  -10.0462 C   0  0  0  0  0  0  0  0  0  0  0  0
  -26.9616  -10.2095  -12.0242 H   0  0  0  0  0  0  0  0  0  0  0  0
  -20.8088  -10.0430   -7.1869 C   0  0  0  0  0  0  0  0  0  0  0  0
  -21.4765  -11.2431   -6.5633 C   0  0  0  0  0  0  0  0  0  0  0  0
  -20.8261  -12.2207   -6.1994 O   0  0  0  0  0  0  0  0  0  0  0  0
  -27.6230  -10.8762   -4.1989 C   0  0  0  0  0  0  0  0  0  0  0  0
  -27.8143  -12.2597   -3.5944 C   0  0  0  0  0  0  0  0  0  0  0  0
  -26.7619  -12.4659   -2.4999 C   0  0  0  0  0  0  0  0  0  0  0  0
  -29.2318  -12.2580   -2.9677 C   0  0  0  0  0  0  0  0  0  0  0  0
 27 28  1  0  0  0
 28 29  2  0  0  0
 28  1  1  0  0  0
  1  2  1  0  0  0
  1  6  2  0  0  0
  2  3  2  0  0  0
  3  4  1  0  0  0
  4  5  2  0  0  0
  4 13  1  0  0  0
  5  6  1  0  0  0
  5  7  1  0  0  0
  7  8  1  0  0  0
  7 12  2  0  0  0
  8  9  2  0  0  0
  8 25  1  0  0  0
  9 10  1  0  0  0
  9 22  1  0  0  0
 10 11  2  0  0  0
 10 21  1  0  0  0
 11 12  1  0  0  0
 11 14  1  0  0  0
 12 13  1  0  0  0
 13 30  1  0  0  0
 30 31  1  0  0  0
 31 32  1  0  0  0
 31 33  1  0  0  0
 14 15  1  0  0  0
 15 16  1  0  0  0
 16 17  2  0  0  0
 16 21  1  0  0  0
 17 18  1  0  0  0
 18 19  1  0  0  0
 18 20  1  0  0  0
 20 21  2  0  0  0
 22 23  2  0  0  0
 22 24  1  0  0  0
 24 25  1  0  0  0
 24 26  1  0  0  0
M  END
> <minimizedAffinity>
-5.65610

$$$$
