CHEMBL1969190


 34 37  0  0  0  0  0  0  0  0999 V2000
  -16.1856    2.9297  -16.3657 C   0  0  0  0  0  0  0  0  0  0  0  0
  -16.4806    1.6228  -15.9685 C   0  0  0  0  0  0  0  0  0  0  0  0
  -17.5914    1.3237  -15.1786 C   0  0  0  0  0  0  0  0  0  0  0  0
  -18.5135    2.3111  -14.8244 C   0  0  0  0  0  0  0  0  0  0  0  0
  -18.2884    3.6081  -15.2814 C   0  0  0  0  0  0  0  0  0  0  0  0
  -17.1324    3.9161  -16.0253 C   0  0  0  0  0  0  0  0  0  0  0  0
  -12.6886    3.7209  -18.8318 C   0  0  0  0  0  0  0  0  0  0  0  0
  -13.9616    4.1334  -19.2171 C   0  0  0  0  0  0  0  0  0  0  0  0
  -15.0727    3.8785  -18.4089 C   0  0  0  0  0  0  0  0  0  0  0  0
  -14.9695    3.2278  -17.1544 C   0  0  0  0  0  0  0  0  0  0  0  0
  -13.6587    2.8542  -16.7229 C   0  0  0  0  0  0  0  0  0  0  0  0
  -13.0088    2.2403  -15.5969 C   0  0  0  0  0  0  0  0  0  0  0  0
  -13.5919    1.8179  -14.4618 N   0  0  0  0  0  0  0  0  0  0  0  0
  -11.6931    2.1150  -15.7801 N   0  0  0  0  0  0  0  0  0  0  0  0
  -11.4365    2.6702  -17.0071 O   0  0  0  0  0  0  0  0  0  0  0  0
  -12.5831    3.1058  -17.5799 C   0  0  0  0  0  0  0  0  0  0  0  0
  -14.4769    2.2007  -14.1398 H   0  0  0  0  0  0  0  0  0  0  0  0
  -12.9892    1.5012  -13.7079 H   0  0  0  0  0  0  0  0  0  0  0  0
  -11.6039    3.2100  -20.8723 C   0  0  0  0  0  0  0  0  0  0  0  0
  -11.6598    4.0278  -19.7061 O   0  0  0  0  0  0  0  0  0  0  0  0
  -19.6808    2.0358  -14.0739 N   0  0  0  0  0  0  0  0  0  0  0  0
  -20.5084    0.9388  -14.2747 C   0  0  0  0  0  0  0  0  0  0  0  0
  -20.2504   -0.0139  -15.0005 O   0  0  0  0  0  0  0  0  0  0  0  0
  -21.7136    1.0672  -13.5928 N   0  0  0  0  0  0  0  0  0  0  0  0
  -19.8355    2.5683  -13.2398 H   0  0  0  0  0  0  0  0  0  0  0  0
  -22.0393    2.0207  -13.5161 H   0  0  0  0  0  0  0  0  0  0  0  0
  -22.7070    0.0682  -13.7444 C   0  0  0  0  0  0  0  0  0  0  0  0
  -23.5873    0.0751  -14.8329 C   0  0  0  0  0  0  0  0  0  0  0  0
  -24.6326   -0.8389  -14.8876 C   0  0  0  0  0  0  0  0  0  0  0  0
  -25.4812   -0.8110  -15.9233 F   0  0  0  0  0  0  0  0  0  0  0  0
  -24.8215   -1.7666  -13.8746 C   0  0  0  0  0  0  0  0  0  0  0  0
  -23.9231   -1.7886  -12.8165 C   0  0  0  0  0  0  0  0  0  0  0  0
  -24.1081   -2.6623  -11.8181 F   0  0  0  0  0  0  0  0  0  0  0  0
  -22.8504   -0.9001  -12.7512 C   0  0  0  0  0  0  0  0  0  0  0  0
 19 20  1  0  0  0
 20  7  1  0  0  0
  7  8  1  0  0  0
  7 16  2  0  0  0
  8  9  2  0  0  0
  9 10  1  0  0  0
 10  1  1  0  0  0
 10 11  2  0  0  0
  1  2  1  0  0  0
  1  6  2  0  0  0
  2  3  2  0  0  0
  3  4  1  0  0  0
  4 21  1  0  0  0
  4  5  2  0  0  0
 21 22  1  0  0  0
 21 25  1  0  0  0
 22 23  2  0  0  0
 22 24  1  0  0  0
 24 27  1  0  0  0
 24 26  1  0  0  0
 27 28  1  0  0  0
 27 34  2  0  0  0
 28 29  2  0  0  0
 29 30  1  0  0  0
 29 31  1  0  0  0
 31 32  2  0  0  0
 32 33  1  0  0  0
 32 34  1  0  0  0
  5  6  1  0  0  0
 11 12  1  0  0  0
 11 16  1  0  0  0
 12 13  1  0  0  0
 12 14  2  0  0  0
 13 17  1  0  0  0
 13 18  1  0  0  0
 14 15  1  0  0  0
 15 16  1  0  0  0
M  END
> <minimizedAffinity>
-8.27445

$$$$
