CHEMBL1096972


 28 31  0  0  0  0  0  0  0  0999 V2000
  -24.2057   -0.8942  -13.4571 C   0  0  0  0  0  0  0  0  0  0  0  0
  -24.5518   -0.8874  -14.7747 N   0  0  0  0  0  0  0  0  0  0  0  0
  -25.7930   -1.2454  -15.1359 C   0  0  0  0  0  0  0  0  0  0  0  0
  -26.7987   -1.6243  -14.3369 N   0  0  0  0  0  0  0  0  0  0  0  0
  -26.4160   -1.6524  -13.0548 C   0  0  0  0  0  0  0  0  0  0  0  0
  -27.2421   -1.9857  -12.0209 N   0  0  0  0  0  0  0  0  0  0  0  0
  -26.5557   -1.9448  -10.8291 C   0  0  0  0  0  0  0  0  0  0  0  0
  -25.2622   -1.5417  -11.1278 C   0  0  0  0  0  0  0  0  0  0  0  0
  -25.1692   -1.3379  -12.5356 C   0  0  0  0  0  0  0  0  0  0  0  0
  -28.2159   -2.2199  -12.1546 H   0  0  0  0  0  0  0  0  0  0  0  0
  -22.9246   -0.4436  -13.0879 N   0  0  0  0  0  0  0  0  0  0  0  0
  -22.7221   -0.5841  -12.1027 H   0  0  0  0  0  0  0  0  0  0  0  0
  -20.4046    1.8178  -14.6170 C   0  0  0  0  0  0  0  0  0  0  0  0
  -21.0994    3.0298  -14.6568 C   0  0  0  0  0  0  0  0  0  0  0  0
  -22.3889    3.1026  -14.1391 C   0  0  0  0  0  0  0  0  0  0  0  0
  -22.9852    1.9608  -13.6075 C   0  0  0  0  0  0  0  0  0  0  0  0
  -22.3180    0.7265  -13.5981 C   0  0  0  0  0  0  0  0  0  0  0  0
  -21.0060    0.6740  -14.0812 C   0  0  0  0  0  0  0  0  0  0  0  0
  -17.9527    1.6972  -15.5529 C   0  0  0  0  0  0  0  0  0  0  0  0
  -19.0750    1.7522  -15.1366 C   0  0  0  0  0  0  0  0  0  0  0  0
  -27.1913   -2.2476   -9.5050 C   0  0  0  0  0  0  0  0  0  0  0  0
  -27.9364   -1.0602   -8.8888 C   0  0  0  0  0  0  0  0  0  0  0  0
  -27.8980   -1.0767   -7.3820 C   0  0  0  0  0  0  0  0  0  0  0  0
  -27.9276    0.1225   -6.6565 C   0  0  0  0  0  0  0  0  0  0  0  0
  -27.9424    0.1030   -5.2615 C   0  0  0  0  0  0  0  0  0  0  0  0
  -27.9195   -1.1128   -4.5809 C   0  0  0  0  0  0  0  0  0  0  0  0
  -27.8585   -2.3089   -5.2934 C   0  0  0  0  0  0  0  0  0  0  0  0
  -27.8405   -2.2919   -6.6883 C   0  0  0  0  0  0  0  0  0  0  0  0
 19 20  3  0  0  0
 20 13  1  0  0  0
 13 14  1  0  0  0
 13 18  2  0  0  0
 14 15  2  0  0  0
 15 16  1  0  0  0
 16 17  2  0  0  0
 17 11  1  0  0  0
 17 18  1  0  0  0
 11  1  1  0  0  0
 11 12  1  0  0  0
  1  2  1  0  0  0
  1  9  2  0  0  0
  2  3  2  0  0  0
  3  4  1  0  0  0
  4  5  2  0  0  0
  5  6  1  0  0  0
  5  9  1  0  0  0
  6  7  1  0  0  0
  6 10  1  0  0  0
  7 21  1  0  0  0
  7  8  2  0  0  0
 21 22  1  0  0  0
 22 23  1  0  0  0
 23 24  1  0  0  0
 23 28  2  0  0  0
 24 25  2  0  0  0
 25 26  1  0  0  0
 26 27  2  0  0  0
 27 28  1  0  0  0
  8  9  1  0  0  0
M  END
> <minimizedAffinity>
-9.88640

$$$$
