CHEMBL3913970


 34 38  0  0  0  0  0  0  0  0999 V2000
  -17.0166    1.8645  -15.5802 N   0  0  0  0  0  0  0  0  0  0  0  0
  -18.4563    1.7957  -15.5346 C   0  0  0  0  0  0  0  0  0  0  0  0
  -19.0896    3.0326  -15.7435 C   0  0  0  0  0  0  0  0  0  0  0  0
  -20.3530    3.2572  -15.2170 C   0  0  0  0  0  0  0  0  0  0  0  0
  -21.0754    2.2625  -14.6196 C   0  0  0  0  0  0  0  0  0  0  0  0
  -22.1790    2.6819  -13.9911 N   0  0  0  0  0  0  0  0  0  0  0  0
  -23.0079    1.7348  -13.5407 C   0  0  0  0  0  0  0  0  0  0  0  0
  -22.7965    0.3952  -13.7902 C   0  0  0  0  0  0  0  0  0  0  0  0
  -21.6051   -0.0476  -14.3233 N   0  0  0  0  0  0  0  0  0  0  0  0
  -20.6599    0.9131  -14.6920 C   0  0  0  0  0  0  0  0  0  0  0  0
  -19.2863    0.7222  -15.1055 C   0  0  0  0  0  0  0  0  0  0  0  0
  -23.9657   -0.4657  -13.6303 C   0  0  0  0  0  0  0  0  0  0  0  0
  -24.7586   -1.0921  -14.6281 C   0  0  0  0  0  0  0  0  0  0  0  0
  -25.9076   -1.5878  -14.1508 N   0  0  0  0  0  0  0  0  0  0  0  0
  -25.8661   -1.2713  -12.8460 N   0  0  0  0  0  0  0  0  0  0  0  0
  -26.8163   -1.8484  -11.9240 C   0  0  0  0  0  0  0  0  0  0  0  0
  -24.8033   -0.4694  -12.5246 C   0  0  0  0  0  0  0  0  0  0  0  0
  -13.8101   -0.0574  -14.9123 C   0  0  0  0  0  0  0  0  0  0  0  0
  -14.0886   -0.6216  -13.6762 C   0  0  0  0  0  0  0  0  0  0  0  0
  -15.3320   -0.4001  -13.0831 C   0  0  0  0  0  0  0  0  0  0  0  0
  -16.3007    0.3854  -13.7356 C   0  0  0  0  0  0  0  0  0  0  0  0
  -16.0429    1.0336  -14.9524 C   0  0  0  0  0  0  0  0  0  0  0  0
  -14.7819    0.7489  -15.5333 C   0  0  0  0  0  0  0  0  0  0  0  0
  -12.3325    0.7663  -16.5974 C   0  0  0  0  0  0  0  0  0  0  0  0
  -12.6368   -0.2156  -15.6071 O   0  0  0  0  0  0  0  0  0  0  0  0
  -15.7123   -0.9006  -11.8635 O   0  0  0  0  0  0  0  0  0  0  0  0
  -15.5741   -2.3061  -11.6748 C   0  0  0  0  0  0  0  0  0  0  0  0
  -16.6316    3.3006  -15.8307 C   0  0  0  0  0  0  0  0  0  0  0  0
  -15.6547    3.5759  -16.9724 C   0  0  0  0  0  0  0  0  0  0  0  0
  -14.5028    4.4737  -16.5499 C   0  0  0  0  0  0  0  0  0  0  0  0
  -15.3826    4.9144  -17.6790 C   0  0  0  0  0  0  0  0  0  0  0  0
  -14.7400    5.0004  -19.0344 C   0  0  0  0  0  0  0  0  0  0  0  0
  -15.7488    5.2039  -20.0199 O   0  0  0  0  0  0  0  0  0  0  0  0
  -16.1808    6.0511  -19.8199 H   0  0  0  0  0  0  0  0  0  0  0  0
 24 25  1  0  0  0
 25 18  1  0  0  0
 18 19  1  0  0  0
 18 23  2  0  0  0
 19 20  2  0  0  0
 20 26  1  0  0  0
 20 21  1  0  0  0
 26 27  1  0  0  0
 21 22  2  0  0  0
 22  1  1  0  0  0
 22 23  1  0  0  0
  1 28  1  0  0  0
  1  2  1  0  0  0
 28 29  1  0  0  0
 29 30  1  0  0  0
 29 31  1  0  0  0
 30 31  1  0  0  0
 31 32  1  0  0  0
 32 33  1  0  0  0
 33 34  1  0  0  0
  2  3  1  0  0  0
  2 11  2  0  0  0
  3  4  2  0  0  0
  4  5  1  0  0  0
  5  6  1  0  0  0
  5 10  2  0  0  0
  6  7  2  0  0  0
  7  8  1  0  0  0
  8 12  1  0  0  0
  8  9  2  0  0  0
 12 13  1  0  0  0
 12 17  2  0  0  0
 13 14  2  0  0  0
 14 15  1  0  0  0
 15 16  1  0  0  0
 15 17  1  0  0  0
  9 10  1  0  0  0
 10 11  1  0  0  0
M  END
> <minimizedAffinity>
-9.13528

$$$$
