CHEMBL190389


 39 41  0  0  0  0  0  0  0  0999 V2000
  -29.2823   -7.3089   -6.5512 C   0  0  0  0  0  0  0  0  0  0  0  0
  -29.4030   -6.0308   -6.9916 N   0  0  0  0  0  0  0  0  0  0  0  0
  -28.9549   -5.0306   -6.2111 C   0  0  0  0  0  0  0  0  0  0  0  0
  -29.1178   -3.7164   -6.5985 C   0  0  0  0  0  0  0  0  0  0  0  0
  -28.5824   -2.6766   -5.8409 C   0  0  0  0  0  0  0  0  0  0  0  0
  -27.9594   -2.9111   -4.6702 N   0  0  0  0  0  0  0  0  0  0  0  0
  -27.8463   -4.1884   -4.2691 C   0  0  0  0  0  0  0  0  0  0  0  0
  -28.3068   -5.2822   -4.9997 C   0  0  0  0  0  0  0  0  0  0  0  0
  -28.1319   -6.6106   -4.5955 C   0  0  0  0  0  0  0  0  0  0  0  0
  -28.6147   -7.6845   -5.3666 C   0  0  0  0  0  0  0  0  0  0  0  0
  -29.7412   -9.5566   -9.3022 N   0  0  0  0  0  0  0  0  0  0  0  0
  -29.1147   -8.5498   -8.5922 C   0  0  0  0  0  0  0  0  0  0  0  0
  -28.0493   -8.0483   -8.9252 O   0  0  0  0  0  0  0  0  0  0  0  0
  -29.8214   -8.2572   -7.4411 N   0  0  0  0  0  0  0  0  0  0  0  0
  -30.7496   -9.5708   -9.2358 H   0  0  0  0  0  0  0  0  0  0  0  0
  -29.9941   -9.1267   -6.9547 H   0  0  0  0  0  0  0  0  0  0  0  0
  -28.3061  -11.3806  -10.1651 C   0  0  0  0  0  0  0  0  0  0  0  0
  -29.1318  -10.1452  -10.4777 C   0  0  0  0  0  0  0  0  0  0  0  0
  -28.2983   -9.0795   -4.9539 C   0  0  0  0  0  0  0  0  0  0  0  0
  -29.1326   -9.7888   -4.0643 C   0  0  0  0  0  0  0  0  0  0  0  0
  -28.7964  -11.0645   -3.5990 C   0  0  0  0  0  0  0  0  0  0  0  0
  -27.6331  -11.6830   -4.0618 C   0  0  0  0  0  0  0  0  0  0  0  0
  -26.7975  -11.0222   -4.9552 C   0  0  0  0  0  0  0  0  0  0  0  0
  -27.1193   -9.7249   -5.3628 C   0  0  0  0  0  0  0  0  0  0  0  0
  -29.5157  -11.8023   -2.6969 O   0  0  0  0  0  0  0  0  0  0  0  0
  -30.7713  -12.3118   -3.1311 C   0  0  0  0  0  0  0  0  0  0  0  0
  -25.6405  -11.5086   -5.4998 O   0  0  0  0  0  0  0  0  0  0  0  0
  -24.6761  -10.5518   -5.9154 C   0  0  0  0  0  0  0  0  0  0  0  0
  -28.7851   -1.3590   -6.2774 N   0  0  0  0  0  0  0  0  0  0  0  0
  -29.7085   -1.2660   -6.6916 H   0  0  0  0  0  0  0  0  0  0  0  0
  -27.7538   -0.8509   -7.1793 C   0  0  0  0  0  0  0  0  0  0  0  0
  -28.1666   -1.1280   -8.6289 C   0  0  0  0  0  0  0  0  0  0  0  0
  -27.0204   -1.7645   -9.4211 C   0  0  0  0  0  0  0  0  0  0  0  0
  -27.2386   -1.7636  -10.9401 C   0  0  0  0  0  0  0  0  0  0  0  0
  -26.1455   -1.2156  -11.7718 N   0  0  0  0  0  0  0  0  0  0  0  0
  -24.8001   -1.5474  -11.2739 C   0  0  0  0  0  0  0  0  0  0  0  0
  -23.8146   -2.1141  -12.2927 C   0  0  0  0  0  0  0  0  0  0  0  0
  -26.3711   -1.6101  -13.1762 C   0  0  0  0  0  0  0  0  0  0  0  0
  -27.7536   -2.1835  -13.4694 C   0  0  0  0  0  0  0  0  0  0  0  0
 17 18  1  0  0  0
 18 11  1  0  0  0
 11 12  1  0  0  0
 11 15  1  0  0  0
 12 13  2  0  0  0
 12 14  1  0  0  0
 14  1  1  0  0  0
 14 16  1  0  0  0
  1  2  1  0  0  0
  1 10  2  0  0  0
  2  3  2  0  0  0
  3  4  1  0  0  0
  3  8  1  0  0  0
  4  5  2  0  0  0
  5 29  1  0  0  0
  5  6  1  0  0  0
 29 31  1  0  0  0
 29 30  1  0  0  0
 31 32  1  0  0  0
 32 33  1  0  0  0
 33 34  1  0  0  0
 34 35  1  0  0  0
 35 36  1  0  0  0
 35 38  1  0  0  0
 36 37  1  0  0  0
 38 39  1  0  0  0
  6  7  2  0  0  0
  7  8  1  0  0  0
  8  9  2  0  0  0
  9 10  1  0  0  0
 10 19  1  0  0  0
 19 20  1  0  0  0
 19 24  2  0  0  0
 20 21  2  0  0  0
 21 25  1  0  0  0
 21 22  1  0  0  0
 25 26  1  0  0  0
 22 23  2  0  0  0
 23 27  1  0  0  0
 23 24  1  0  0  0
 27 28  1  0  0  0
M  END
> <minimizedAffinity>
-7.53216

$$$$
