CHEMBL4553770


 38 41  0  0  0  0  0  0  0  0999 V2000
  -27.6535   -9.3476   -5.7158 C   0  0  0  0  0  0  0  0  0  0  0  0
  -27.7685   -8.2257   -4.8848 C   0  0  0  0  0  0  0  0  0  0  0  0
  -28.5062   -7.1261   -5.3009 C   0  0  0  0  0  0  0  0  0  0  0  0
  -29.1586   -7.1607   -6.5483 C   0  0  0  0  0  0  0  0  0  0  0  0
  -29.0003   -8.2577   -7.4045 C   0  0  0  0  0  0  0  0  0  0  0  0
  -28.2248   -9.3413   -6.9789 C   0  0  0  0  0  0  0  0  0  0  0  0
  -25.4630  -11.6390   -3.9634 N   0  0  0  0  0  0  0  0  0  0  0  0
  -25.9577  -10.4204   -4.3541 C   0  0  0  0  0  0  0  0  0  0  0  0
  -25.5540   -9.3297   -3.9458 O   0  0  0  0  0  0  0  0  0  0  0  0
  -27.0159  -10.5230   -5.2470 N   0  0  0  0  0  0  0  0  0  0  0  0
  -25.7417  -12.4418   -4.5166 H   0  0  0  0  0  0  0  0  0  0  0  0
  -27.6191  -11.3222   -5.0731 H   0  0  0  0  0  0  0  0  0  0  0  0
  -22.5847  -12.2534   -0.9103 C   0  0  0  0  0  0  0  0  0  0  0  0
  -22.1709  -12.0538   -2.2199 C   0  0  0  0  0  0  0  0  0  0  0  0
  -23.1098  -11.8595   -3.2347 C   0  0  0  0  0  0  0  0  0  0  0  0
  -24.4815  -11.8561   -2.9652 C   0  0  0  0  0  0  0  0  0  0  0  0
  -24.8975  -12.0504   -1.6467 C   0  0  0  0  0  0  0  0  0  0  0  0
  -23.9507  -12.2506   -0.6273 C   0  0  0  0  0  0  0  0  0  0  0  0
  -21.8539  -11.5301    1.2265 C   0  0  0  0  0  0  0  0  0  0  0  0
  -21.7524  -12.4659    0.1560 O   0  0  0  0  0  0  0  0  0  0  0  0
  -29.9970   -6.0088   -6.9144 C   0  0  0  0  0  0  0  0  0  0  0  0
  -30.8677   -6.1639   -7.7662 O   0  0  0  0  0  0  0  0  0  0  0  0
  -29.6823   -4.7940   -6.2806 N   0  0  0  0  0  0  0  0  0  0  0  0
  -28.7204   -4.6901   -5.9720 H   0  0  0  0  0  0  0  0  0  0  0  0
  -30.2181   -3.6404   -6.7967 N   0  0  0  0  0  0  0  0  0  0  0  0
  -29.3648   -2.8953   -7.4312 C   0  0  0  0  0  0  0  0  0  0  0  0
  -28.0813   -3.2909   -8.1768 C   0  0  0  0  0  0  0  0  0  0  0  0
  -27.8617   -4.3535   -8.7219 O   0  0  0  0  0  0  0  0  0  0  0  0
  -27.2784   -2.1717   -8.1184 N   0  0  0  0  0  0  0  0  0  0  0  0
  -27.8713   -1.2123   -7.3040 C   0  0  0  0  0  0  0  0  0  0  0  0
  -27.2306   -0.2809   -6.5166 C   0  0  0  0  0  0  0  0  0  0  0  0
  -28.0131    0.4076   -5.5757 C   0  0  0  0  0  0  0  0  0  0  0  0
  -29.4142    0.2373   -5.5117 C   0  0  0  0  0  0  0  0  0  0  0  0
  -30.0366   -0.7353   -6.2863 C   0  0  0  0  0  0  0  0  0  0  0  0
  -29.2258   -1.4765   -7.1177 C   0  0  0  0  0  0  0  0  0  0  0  0
  -26.3834   -2.0987   -8.5787 H   0  0  0  0  0  0  0  0  0  0  0  0
  -30.2454    0.8851   -4.6398 O   0  0  0  0  0  0  0  0  0  0  0  0
  -31.1206    1.8341   -5.2326 C   0  0  0  0  0  0  0  0  0  0  0  0
 19 20  1  0  0  0
 20 13  1  0  0  0
 13 14  1  0  0  0
 13 18  2  0  0  0
 14 15  2  0  0  0
 15 16  1  0  0  0
 16  7  1  0  0  0
 16 17  2  0  0  0
  7  8  1  0  0  0
  7 11  1  0  0  0
  8  9  2  0  0  0
  8 10  1  0  0  0
 10  1  1  0  0  0
 10 12  1  0  0  0
  1  2  1  0  0  0
  1  6  2  0  0  0
  2  3  2  0  0  0
  3  4  1  0  0  0
  4 21  1  0  0  0
  4  5  2  0  0  0
 21 22  2  0  0  0
 21 23  1  0  0  0
 23 25  1  0  0  0
 23 24  1  0  0  0
 25 26  2  0  0  0
 26 27  1  0  0  0
 26 35  1  0  0  0
 27 28  2  0  0  0
 27 29  1  0  0  0
 29 30  1  0  0  0
 29 36  1  0  0  0
 30 31  1  0  0  0
 30 35  2  0  0  0
 31 32  2  0  0  0
 32 33  1  0  0  0
 33 37  1  0  0  0
 33 34  2  0  0  0
 37 38  1  0  0  0
 34 35  1  0  0  0
  5  6  1  0  0  0
 17 18  1  0  0  0
M  END
> <minimizedAffinity>
-4.69168

$$$$
