CHEMBL368936


 27 29  0  0  0  0  0  0  0  0999 V2000
  -20.6004    1.9384  -14.6013 C   0  0  0  0  0  0  0  0  0  0  0  0
  -21.4609    3.0069  -14.3960 C   0  0  0  0  0  0  0  0  0  0  0  0
  -22.7294    2.8466  -13.9498 N   0  0  0  0  0  0  0  0  0  0  0  0
  -23.0905    1.5612  -13.7099 C   0  0  0  0  0  0  0  0  0  0  0  0
  -22.2638    0.4600  -13.9534 C   0  0  0  0  0  0  0  0  0  0  0  0
  -21.0018    0.6557  -14.4041 N   0  0  0  0  0  0  0  0  0  0  0  0
  -17.2285    1.4270  -15.5183 C   0  0  0  0  0  0  0  0  0  0  0  0
  -17.1633    2.7306  -15.6650 N   0  0  0  0  0  0  0  0  0  0  0  0
  -18.4293    3.1594  -15.3592 C   0  0  0  0  0  0  0  0  0  0  0  0
  -19.2181    2.0912  -14.9987 C   0  0  0  0  0  0  0  0  0  0  0  0
  -18.4431    0.9626  -15.1018 O   0  0  0  0  0  0  0  0  0  0  0  0
  -16.2690    0.5017  -15.6816 N   0  0  0  0  0  0  0  0  0  0  0  0
  -16.5918   -0.4264  -15.9285 H   0  0  0  0  0  0  0  0  0  0  0  0
  -15.1461    0.5584  -14.7604 C   0  0  0  0  0  0  0  0  0  0  0  0
  -15.6041    0.3022  -13.3287 C   0  0  0  0  0  0  0  0  0  0  0  0
  -16.0527   -1.9886  -13.8927 O   0  0  0  0  0  0  0  0  0  0  0  0
  -15.3838   -1.1587  -12.9518 C   0  0  0  0  0  0  0  0  0  0  0  0
  -15.8676   -2.9116  -13.6390 H   0  0  0  0  0  0  0  0  0  0  0  0
  -22.7096   -0.8473  -13.6456 N   0  0  0  0  0  0  0  0  0  0  0  0
  -22.1381   -1.2681  -12.9189 H   0  0  0  0  0  0  0  0  0  0  0  0
  -24.0616   -1.2104  -13.4186 C   0  0  0  0  0  0  0  0  0  0  0  0
  -24.9754   -1.3744  -14.4690 C   0  0  0  0  0  0  0  0  0  0  0  0
  -26.3244   -1.6342  -14.2154 C   0  0  0  0  0  0  0  0  0  0  0  0
  -26.7778   -1.7258  -12.9021 C   0  0  0  0  0  0  0  0  0  0  0  0
  -25.8816   -1.5485  -11.8521 C   0  0  0  0  0  0  0  0  0  0  0  0
  -26.4450   -1.6498  -10.2274 Cl  0  0  0  0  0  0  0  0  0  0  0  0
  -24.5337   -1.2802  -12.1016 C   0  0  0  0  0  0  0  0  0  0  0  0
 16 17  1  0  0  0
 16 18  1  0  0  0
 17 15  1  0  0  0
 15 14  1  0  0  0
 14 12  1  0  0  0
 12  7  1  0  0  0
 12 13  1  0  0  0
  7  8  2  0  0  0
  7 11  1  0  0  0
  8  9  1  0  0  0
  9 10  2  0  0  0
 10  1  1  0  0  0
 10 11  1  0  0  0
  1  2  1  0  0  0
  1  6  2  0  0  0
  2  3  2  0  0  0
  3  4  1  0  0  0
  4  5  2  0  0  0
  5 19  1  0  0  0
  5  6  1  0  0  0
 19 21  1  0  0  0
 19 20  1  0  0  0
 21 22  1  0  0  0
 21 27  2  0  0  0
 22 23  2  0  0  0
 23 24  1  0  0  0
 24 25  2  0  0  0
 25 26  1  0  0  0
 25 27  1  0  0  0
M  END
> <minimizedAffinity>
-7.89038

$$$$
