CHEMBL3741966


 37 41  0  0  0  0  0  0  0  0999 V2000
  -27.6207   -2.3514   -8.7701 C   0  0  0  0  0  0  0  0  0  0  0  0
  -27.2270   -1.1707   -8.2810 N   0  0  0  0  0  0  0  0  0  0  0  0
  -27.8733   -0.7260   -7.1825 C   0  0  0  0  0  0  0  0  0  0  0  0
  -28.8505   -1.4356   -6.5230 C   0  0  0  0  0  0  0  0  0  0  0  0
  -29.1539   -2.6502   -7.0780 C   0  0  0  0  0  0  0  0  0  0  0  0
  -28.6072   -3.0722   -8.2303 N   0  0  0  0  0  0  0  0  0  0  0  0
  -26.9092   -2.8801   -9.8517 N   0  0  0  0  0  0  0  0  0  0  0  0
  -26.0063   -3.1843   -9.5088 H   0  0  0  0  0  0  0  0  0  0  0  0
  -25.5783   -1.5436  -13.0872 C   0  0  0  0  0  0  0  0  0  0  0  0
  -26.7730   -1.4359  -13.8077 C   0  0  0  0  0  0  0  0  0  0  0  0
  -27.9934   -1.7557  -13.2117 C   0  0  0  0  0  0  0  0  0  0  0  0
  -28.0309   -2.2214  -11.8970 C   0  0  0  0  0  0  0  0  0  0  0  0
  -26.8555   -2.3353  -11.1496 C   0  0  0  0  0  0  0  0  0  0  0  0
  -25.6385   -1.9949  -11.7594 C   0  0  0  0  0  0  0  0  0  0  0  0
  -24.2401   -1.2972  -13.7141 C   0  0  0  0  0  0  0  0  0  0  0  0
  -22.1060    0.5066  -13.9320 C   0  0  0  0  0  0  0  0  0  0  0  0
  -23.2329   -0.1427  -12.7659 S   0  0  0  0  0  0  0  0  0  0  0  0
  -22.5002   -0.8778  -11.7512 O   0  0  0  0  0  0  0  0  0  0  0  0
  -24.1146    0.9363  -12.3558 O   0  0  0  0  0  0  0  0  0  0  0  0
  -30.0281   -3.4938   -6.3815 O   0  0  0  0  0  0  0  0  0  0  0  0
  -29.7087   -4.8391   -6.3174 C   0  0  0  0  0  0  0  0  0  0  0  0
  -28.9388   -5.3899   -5.2897 C   0  0  0  0  0  0  0  0  0  0  0  0
  -28.4083   -6.6708   -5.4156 C   0  0  0  0  0  0  0  0  0  0  0  0
  -28.8186   -7.4917   -6.4726 C   0  0  0  0  0  0  0  0  0  0  0  0
  -28.3908   -8.8159   -6.6207 C   0  0  0  0  0  0  0  0  0  0  0  0
  -29.4128   -9.6834   -6.2957 C   0  0  0  0  0  0  0  0  0  0  0  0
  -30.6579   -9.3953   -6.8577 C   0  0  0  0  0  0  0  0  0  0  0  0
  -30.8764   -8.1340   -7.4491 C   0  0  0  0  0  0  0  0  0  0  0  0
  -29.9770   -7.0914   -7.1530 C   0  0  0  0  0  0  0  0  0  0  0  0
  -30.2813   -5.7170   -7.2423 C   0  0  0  0  0  0  0  0  0  0  0  0
  -27.9243   -9.1580   -8.0657 C   0  0  0  0  0  0  0  0  0  0  0  0
  -27.7319   -8.2867   -8.9060 O   0  0  0  0  0  0  0  0  0  0  0  0
  -27.8127  -10.5147   -8.3808 N   0  0  0  0  0  0  0  0  0  0  0  0
  -27.9736  -11.1929   -7.6486 H   0  0  0  0  0  0  0  0  0  0  0  0
  -27.5647  -10.9952   -9.7034 C   0  0  0  0  0  0  0  0  0  0  0  0
  -28.6470  -11.0604  -10.7512 C   0  0  0  0  0  0  0  0  0  0  0  0
  -28.1148  -12.3269  -10.1553 C   0  0  0  0  0  0  0  0  0  0  0  0
 16 17  1  0  0  0
 17 18  2  0  0  0
 17 19  2  0  0  0
 17 15  1  0  0  0
 15  9  1  0  0  0
  9 10  1  0  0  0
  9 14  2  0  0  0
 10 11  2  0  0  0
 11 12  1  0  0  0
 12 13  2  0  0  0
 13  7  1  0  0  0
 13 14  1  0  0  0
  7  1  1  0  0  0
  7  8  1  0  0  0
  1  2  1  0  0  0
  1  6  2  0  0  0
  2  3  2  0  0  0
  3  4  1  0  0  0
  4  5  2  0  0  0
  5 20  1  0  0  0
  5  6  1  0  0  0
 20 21  1  0  0  0
 21 22  1  0  0  0
 21 30  2  0  0  0
 22 23  2  0  0  0
 23 24  1  0  0  0
 24 25  1  0  0  0
 24 29  2  0  0  0
 25 31  1  0  0  0
 25 26  2  0  0  0
 31 32  2  0  0  0
 31 33  1  0  0  0
 33 35  1  0  0  0
 33 34  1  0  0  0
 35 36  1  0  0  0
 35 37  1  0  0  0
 36 37  1  0  0  0
 26 27  1  0  0  0
 27 28  2  0  0  0
 28 29  1  0  0  0
 29 30  1  0  0  0
M  END
> <minimizedAffinity>
-9.02358

$$$$
