CHEMBL3671498


 37 39  0  0  0  0  0  0  0  0999 V2000
  -22.3929    0.0043  -12.9229 C   0  0  0  0  0  0  0  0  0  0  0  0
  -21.1336    0.2106  -13.4894 C   0  0  0  0  0  0  0  0  0  0  0  0
  -20.8333    1.4276  -14.1390 C   0  0  0  0  0  0  0  0  0  0  0  0
  -19.6562    1.6797  -14.8600 C   0  0  0  0  0  0  0  0  0  0  0  0
  -19.4402    2.8590  -15.4727 N   0  0  0  0  0  0  0  0  0  0  0  0
  -20.4056    3.7738  -15.3893 C   0  0  0  0  0  0  0  0  0  0  0  0
  -21.5798    3.6224  -14.7709 N   0  0  0  0  0  0  0  0  0  0  0  0
  -21.7901    2.4536  -14.1599 C   0  0  0  0  0  0  0  0  0  0  0  0
  -23.0186    2.2390  -13.5485 C   0  0  0  0  0  0  0  0  0  0  0  0
  -23.3359    1.0367  -12.9080 C   0  0  0  0  0  0  0  0  0  0  0  0
  -23.4172   -2.1864  -13.3000 C   0  0  0  0  0  0  0  0  0  0  0  0
  -23.3556   -3.3907  -13.0797 O   0  0  0  0  0  0  0  0  0  0  0  0
  -22.7268   -1.2996  -12.5077 N   0  0  0  0  0  0  0  0  0  0  0  0
  -22.0041   -1.8021  -12.0040 H   0  0  0  0  0  0  0  0  0  0  0  0
  -25.5251   -1.7362  -14.4480 C   0  0  0  0  0  0  0  0  0  0  0  0
  -24.1922   -1.6231  -14.4370 C   0  0  0  0  0  0  0  0  0  0  0  0
  -18.6840    0.6556  -15.0159 N   0  0  0  0  0  0  0  0  0  0  0  0
  -19.0622   -0.2448  -14.7311 H   0  0  0  0  0  0  0  0  0  0  0  0
  -17.3264    0.8015  -14.6356 C   0  0  0  0  0  0  0  0  0  0  0  0
  -16.8731    0.3526  -13.3898 C   0  0  0  0  0  0  0  0  0  0  0  0
  -15.5173    0.4070  -13.0569 C   0  0  0  0  0  0  0  0  0  0  0  0
  -14.6070    0.9399  -13.9654 C   0  0  0  0  0  0  0  0  0  0  0  0
  -12.7620    0.9258  -13.5536 Br  0  0  0  0  0  0  0  0  0  0  0  0
  -15.0448    1.4617  -15.1799 C   0  0  0  0  0  0  0  0  0  0  0  0
  -16.4000    1.3984  -15.5006 C   0  0  0  0  0  0  0  0  0  0  0  0
  -16.8115    1.8795  -16.6790 F   0  0  0  0  0  0  0  0  0  0  0  0
  -24.5991    0.9865  -12.3779 O   0  0  0  0  0  0  0  0  0  0  0  0
  -24.7611    0.0988  -11.2651 C   0  0  0  0  0  0  0  0  0  0  0  0
  -26.0736   -0.6821  -11.3880 C   0  0  0  0  0  0  0  0  0  0  0  0
  -26.2387   -1.6333  -10.3020 N   0  0  0  0  0  0  0  0  0  0  0  0
  -27.4902   -1.9371   -9.8022 C   0  0  0  0  0  0  0  0  0  0  0  0
  -28.5352   -1.6041  -10.3565 O   0  0  0  0  0  0  0  0  0  0  0  0
  -25.4702   -1.8002   -9.6557 H   0  0  0  0  0  0  0  0  0  0  0  0
  -27.4757   -2.7432   -8.4979 C   0  0  0  0  0  0  0  0  0  0  0  0
  -28.3756   -2.1533   -7.4692 N   0  0  0  0  0  0  0  0  0  0  0  0
  -28.5571   -3.0697   -6.3344 C   0  0  0  0  0  0  0  0  0  0  0  0
  -27.7745   -0.9072   -6.9721 C   0  0  0  0  0  0  0  0  0  0  0  0
 15 16  2  0  0  0
 16 11  1  0  0  0
 11 12  2  0  0  0
 11 13  1  0  0  0
 13  1  1  0  0  0
 13 14  1  0  0  0
  1  2  1  0  0  0
  1 10  2  0  0  0
  2  3  2  0  0  0
  3  4  1  0  0  0
  3  8  1  0  0  0
  4 17  1  0  0  0
  4  5  2  0  0  0
 17 19  1  0  0  0
 17 18  1  0  0  0
 19 20  1  0  0  0
 19 25  2  0  0  0
 20 21  2  0  0  0
 21 22  1  0  0  0
 22 23  1  0  0  0
 22 24  2  0  0  0
 24 25  1  0  0  0
 25 26  1  0  0  0
  5  6  1  0  0  0
  6  7  2  0  0  0
  7  8  1  0  0  0
  8  9  2  0  0  0
  9 10  1  0  0  0
 10 27  1  0  0  0
 27 28  1  0  0  0
 28 29  1  0  0  0
 29 30  1  0  0  0
 30 31  1  0  0  0
 30 33  1  0  0  0
 31 32  2  0  0  0
 31 34  1  0  0  0
 34 35  1  0  0  0
 35 36  1  0  0  0
 35 37  1  0  0  0
M  END
> <minimizedAffinity>
-6.11004

$$$$
