CHEMBL3957336


 45 47  0  0  0  0  0  0  0  0999 V2000
  -13.9540   -2.3165  -12.8113 C   0  0  0  0  0  0  0  0  0  0  0  0
  -12.9358   -2.2077  -13.7440 C   0  0  0  0  0  0  0  0  0  0  0  0
  -12.9955   -1.4033  -14.8396 N   0  0  0  0  0  0  0  0  0  0  0  0
  -14.1119   -0.6647  -15.0164 C   0  0  0  0  0  0  0  0  0  0  0  0
  -14.1668    0.0545  -16.2085 N   0  0  0  0  0  0  0  0  0  0  0  0
  -15.1795   -0.6868  -14.1098 C   0  0  0  0  0  0  0  0  0  0  0  0
  -15.0927   -1.5251  -12.9967 C   0  0  0  0  0  0  0  0  0  0  0  0
  -13.2598   -0.0069  -16.6610 H   0  0  0  0  0  0  0  0  0  0  0  0
  -14.4934    1.0051  -16.0858 H   0  0  0  0  0  0  0  0  0  0  0  0
  -13.8528   -3.2544  -11.6609 C   0  0  0  0  0  0  0  0  0  0  0  0
  -14.3657   -2.8745  -10.6107 O   0  0  0  0  0  0  0  0  0  0  0  0
  -14.0430   -5.7721  -11.2310 S   0  0  0  0  0  0  0  0  0  0  0  0
  -15.4742   -6.0769  -12.2543 C   0  0  0  0  0  0  0  0  0  0  0  0
  -14.4717   -5.8833   -9.8496 O   0  0  0  0  0  0  0  0  0  0  0  0
  -13.2984   -4.5426  -11.8019 N   0  0  0  0  0  0  0  0  0  0  0  0
  -13.0455   -7.2204  -11.5730 C   0  0  0  0  0  0  0  0  0  0  0  0
  -13.8491   -8.3296  -12.2493 C   0  0  0  0  0  0  0  0  0  0  0  0
  -13.0502   -8.9843  -13.3782 C   0  0  0  0  0  0  0  0  0  0  0  0
  -12.7950   -8.0204  -14.5394 C   0  0  0  0  0  0  0  0  0  0  0  0
  -13.0256   -8.6929  -15.8749 C   0  0  0  0  0  0  0  0  0  0  0  0
  -12.6530   -9.8205  -16.1682 O   0  0  0  0  0  0  0  0  0  0  0  0
  -13.9615   -6.5657  -16.1432 C   0  0  0  0  0  0  0  0  0  0  0  0
  -13.7121   -7.8568  -16.7040 O   0  0  0  0  0  0  0  0  0  0  0  0
  -16.3350    0.1465  -14.2790 C   0  0  0  0  0  0  0  0  0  0  0  0
  -17.3211    0.8080  -14.4591 C   0  0  0  0  0  0  0  0  0  0  0  0
  -18.5283    1.5435  -14.6885 C   0  0  0  0  0  0  0  0  0  0  0  0
  -18.4577    2.8828  -15.0745 C   0  0  0  0  0  0  0  0  0  0  0  0
  -19.6284    3.6112  -15.2520 C   0  0  0  0  0  0  0  0  0  0  0  0
  -20.8672    3.0015  -15.0466 C   0  0  0  0  0  0  0  0  0  0  0  0
  -20.9590    1.6538  -14.6798 C   0  0  0  0  0  0  0  0  0  0  0  0
  -19.7752    0.9291  -14.4950 C   0  0  0  0  0  0  0  0  0  0  0  0
  -22.1975    0.9957  -14.4696 N   0  0  0  0  0  0  0  0  0  0  0  0
  -22.5675    0.3518  -13.3001 C   0  0  0  0  0  0  0  0  0  0  0  0
  -21.9131    0.3197  -12.2583 O   0  0  0  0  0  0  0  0  0  0  0  0
  -22.8980    1.1075  -15.1911 H   0  0  0  0  0  0  0  0  0  0  0  0
  -23.8988   -0.3097  -13.2680 C   0  0  0  0  0  0  0  0  0  0  0  0
  -24.4020   -1.0727  -14.3241 C   0  0  0  0  0  0  0  0  0  0  0  0
  -25.6417   -1.7125  -14.1870 C   0  0  0  0  0  0  0  0  0  0  0  0
  -26.3880   -1.5853  -13.0061 C   0  0  0  0  0  0  0  0  0  0  0  0
  -25.8761   -0.8228  -11.9389 C   0  0  0  0  0  0  0  0  0  0  0  0
  -24.6328   -0.2044  -12.0772 C   0  0  0  0  0  0  0  0  0  0  0  0
  -27.6151   -2.1616  -12.7940 O   0  0  0  0  0  0  0  0  0  0  0  0
  -28.4504   -2.3816  -13.9201 C   0  0  0  0  0  0  0  0  0  0  0  0
  -26.6549   -0.7398  -10.8107 O   0  0  0  0  0  0  0  0  0  0  0  0
  -26.6947   -1.8752   -9.9539 C   0  0  0  0  0  0  0  0  0  0  0  0
 22 23  1  0  0  0
 23 20  1  0  0  0
 20 21  2  0  0  0
 20 19  1  0  0  0
 19 18  1  0  0  0
 18 17  1  0  0  0
 17 16  1  0  0  0
 16 12  1  0  0  0
 12 13  1  0  0  0
 12 14  2  0  0  0
 12 15  2  0  0  0
 15 10  1  0  0  0
 10 11  2  0  0  0
 10  1  1  0  0  0
  1  2  1  0  0  0
  1  7  2  0  0  0
  2  3  2  0  0  0
  3  4  1  0  0  0
  4  5  1  0  0  0
  4  6  2  0  0  0
  5  8  1  0  0  0
  5  9  1  0  0  0
  6 24  1  0  0  0
  6  7  1  0  0  0
 24 25  3  0  0  0
 25 26  1  0  0  0
 26 27  1  0  0  0
 26 31  2  0  0  0
 27 28  2  0  0  0
 28 29  1  0  0  0
 29 30  2  0  0  0
 30 32  1  0  0  0
 30 31  1  0  0  0
 32 33  1  0  0  0
 32 35  1  0  0  0
 33 34  2  0  0  0
 33 36  1  0  0  0
 36 37  1  0  0  0
 36 41  2  0  0  0
 37 38  2  0  0  0
 38 39  1  0  0  0
 39 42  1  0  0  0
 39 40  2  0  0  0
 42 43  1  0  0  0
 40 44  1  0  0  0
 40 41  1  0  0  0
 44 45  1  0  0  0
M  END
> <minimizedAffinity>
-9.21813

$$$$
