CHEMBL3969373


 34 37  0  0  0  0  0  0  0  0999 V2000
  -16.9972    2.0080  -15.5330 N   0  0  0  0  0  0  0  0  0  0  0  0
  -18.4470    1.9152  -15.4901 C   0  0  0  0  0  0  0  0  0  0  0  0
  -19.0975    3.1269  -15.6625 C   0  0  0  0  0  0  0  0  0  0  0  0
  -20.3600    3.3325  -15.1363 C   0  0  0  0  0  0  0  0  0  0  0  0
  -21.0827    2.3106  -14.5680 C   0  0  0  0  0  0  0  0  0  0  0  0
  -22.2087    2.7157  -13.9682 N   0  0  0  0  0  0  0  0  0  0  0  0
  -23.0470    1.7602  -13.5543 C   0  0  0  0  0  0  0  0  0  0  0  0
  -22.8041    0.4222  -13.7936 C   0  0  0  0  0  0  0  0  0  0  0  0
  -21.5932   -0.0059  -14.3031 N   0  0  0  0  0  0  0  0  0  0  0  0
  -20.6500    0.9677  -14.6608 C   0  0  0  0  0  0  0  0  0  0  0  0
  -19.2590    0.8117  -15.0844 C   0  0  0  0  0  0  0  0  0  0  0  0
  -23.9531   -0.4628  -13.6074 C   0  0  0  0  0  0  0  0  0  0  0  0
  -24.7660   -1.1036  -14.5816 C   0  0  0  0  0  0  0  0  0  0  0  0
  -25.8874   -1.6256  -14.0667 N   0  0  0  0  0  0  0  0  0  0  0  0
  -25.8036   -1.3154  -12.7624 N   0  0  0  0  0  0  0  0  0  0  0  0
  -26.6771   -1.9459  -11.8001 C   0  0  0  0  0  0  0  0  0  0  0  0
  -24.7615   -0.4743  -12.4805 C   0  0  0  0  0  0  0  0  0  0  0  0
  -15.4118   -0.3697  -13.0869 C   0  0  0  0  0  0  0  0  0  0  0  0
  -14.3012   -0.8146  -13.8064 C   0  0  0  0  0  0  0  0  0  0  0  0
  -14.0407   -0.2892  -15.0682 C   0  0  0  0  0  0  0  0  0  0  0  0
  -14.8939    0.6881  -15.6092 C   0  0  0  0  0  0  0  0  0  0  0  0
  -16.0199    1.1741  -14.9205 C   0  0  0  0  0  0  0  0  0  0  0  0
  -16.2449    0.6341  -13.6361 C   0  0  0  0  0  0  0  0  0  0  0  0
  -15.5987   -2.2743  -11.6428 C   0  0  0  0  0  0  0  0  0  0  0  0
  -15.7886   -0.8735  -11.8642 O   0  0  0  0  0  0  0  0  0  0  0  0
  -13.0085   -0.6700  -15.8873 O   0  0  0  0  0  0  0  0  0  0  0  0
  -12.6473    0.2216  -16.9377 C   0  0  0  0  0  0  0  0  0  0  0  0
  -16.6413    3.4726  -15.6647 C   0  0  0  0  0  0  0  0  0  0  0  0
  -15.9494    3.9506  -16.9586 C   0  0  0  0  0  0  0  0  0  0  0  0
  -14.4165    3.8684  -17.0800 C   0  0  0  0  0  0  0  0  0  0  0  0
  -13.6409    4.1128  -15.7814 C   0  0  0  0  0  0  0  0  0  0  0  0
  -13.7084    5.5214  -15.3941 N   0  0  0  0  0  0  0  0  0  0  0  0
  -13.2362    6.0996  -16.0892 H   0  0  0  0  0  0  0  0  0  0  0  0
  -13.2020    5.6644  -14.5203 H   0  0  0  0  0  0  0  0  0  0  0  0
 24 25  1  0  0  0
 25 18  1  0  0  0
 18 19  1  0  0  0
 18 23  2  0  0  0
 19 20  2  0  0  0
 20 26  1  0  0  0
 20 21  1  0  0  0
 26 27  1  0  0  0
 21 22  2  0  0  0
 22  1  1  0  0  0
 22 23  1  0  0  0
  1 28  1  0  0  0
  1  2  1  0  0  0
 28 29  1  0  0  0
 29 30  1  0  0  0
 30 31  1  0  0  0
 31 32  1  0  0  0
 32 33  1  0  0  0
 32 34  1  0  0  0
  2  3  1  0  0  0
  2 11  2  0  0  0
  3  4  2  0  0  0
  4  5  1  0  0  0
  5  6  1  0  0  0
  5 10  2  0  0  0
  6  7  2  0  0  0
  7  8  1  0  0  0
  8 12  1  0  0  0
  8  9  2  0  0  0
 12 13  1  0  0  0
 12 17  2  0  0  0
 13 14  2  0  0  0
 14 15  1  0  0  0
 15 16  1  0  0  0
 15 17  1  0  0  0
  9 10  1  0  0  0
 10 11  1  0  0  0
M  END
> <minimizedAffinity>
-8.57818

$$$$
