CHEMBL2337372


 33 36  0  0  0  0  0  0  0  0999 V2000
  -15.1313   -2.3774  -13.1888 C   0  0  0  0  0  0  0  0  0  0  0  0
  -14.3291   -2.4417  -12.0874 N   0  0  0  0  0  0  0  0  0  0  0  0
  -14.6790   -3.3098  -11.1229 C   0  0  0  0  0  0  0  0  0  0  0  0
  -15.7663   -4.1040  -11.1645 N   0  0  0  0  0  0  0  0  0  0  0  0
  -16.2893   -4.1749  -12.4102 C   0  0  0  0  0  0  0  0  0  0  0  0
  -16.9844   -5.2545  -12.9164 N   0  0  0  0  0  0  0  0  0  0  0  0
  -15.9227   -5.9477  -13.4871 C   0  0  0  0  0  0  0  0  0  0  0  0
  -15.5823   -7.2966  -13.3997 C   0  0  0  0  0  0  0  0  0  0  0  0
  -14.3655   -7.6689  -13.9630 C   0  0  0  0  0  0  0  0  0  0  0  0
  -13.5987   -6.7467  -14.6802 C   0  0  0  0  0  0  0  0  0  0  0  0
  -13.9851   -5.3966  -14.7559 C   0  0  0  0  0  0  0  0  0  0  0  0
  -13.0901   -4.2507  -15.6443 Cl  0  0  0  0  0  0  0  0  0  0  0  0
  -15.1296   -4.9340  -14.0691 C   0  0  0  0  0  0  0  0  0  0  0  0
  -15.6769   -3.6408  -13.5550 C   0  0  0  0  0  0  0  0  0  0  0  0
  -17.7778   -5.0770  -13.5134 H   0  0  0  0  0  0  0  0  0  0  0  0
  -13.8681   -3.5237  -10.0096 N   0  0  0  0  0  0  0  0  0  0  0  0
  -12.7324   -4.2935   -9.9956 C   0  0  0  0  0  0  0  0  0  0  0  0
  -12.2391   -4.8114  -10.9961 O   0  0  0  0  0  0  0  0  0  0  0  0
  -14.1447   -2.9723   -9.2144 H   0  0  0  0  0  0  0  0  0  0  0  0
  -12.0775   -4.4930   -8.6024 C   0  0  0  0  0  0  0  0  0  0  0  0
  -12.9505   -5.4093   -7.7325 C   0  0  0  0  0  0  0  0  0  0  0  0
  -10.7074   -5.1707   -8.8074 C   0  0  0  0  0  0  0  0  0  0  0  0
  -11.8461   -3.1633   -7.8678 C   0  0  0  0  0  0  0  0  0  0  0  0
  -15.9524   -1.2182  -13.1571 N   0  0  0  0  0  0  0  0  0  0  0  0
  -16.0405   -0.9515  -12.1766 H   0  0  0  0  0  0  0  0  0  0  0  0
  -17.3092    1.5602  -15.2481 C   0  0  0  0  0  0  0  0  0  0  0  0
  -16.1358    2.0818  -15.7837 C   0  0  0  0  0  0  0  0  0  0  0  0
  -14.9131    1.5060  -15.4585 C   0  0  0  0  0  0  0  0  0  0  0  0
  -14.8800    0.4114  -14.5783 C   0  0  0  0  0  0  0  0  0  0  0  0
  -16.0543   -0.0975  -14.0006 C   0  0  0  0  0  0  0  0  0  0  0  0
  -17.2654    0.5064  -14.3221 C   0  0  0  0  0  0  0  0  0  0  0  0
  -19.5503    2.0786  -14.7577 C   0  0  0  0  0  0  0  0  0  0  0  0
  -18.4714    2.1402  -15.6883 O   0  0  0  0  0  0  0  0  0  0  0  0
 32 33  1  0  0  0
 33 26  1  0  0  0
 26 27  1  0  0  0
 26 31  2  0  0  0
 27 28  2  0  0  0
 28 29  1  0  0  0
 29 30  2  0  0  0
 30 24  1  0  0  0
 30 31  1  0  0  0
 24  1  1  0  0  0
 24 25  1  0  0  0
  1  2  1  0  0  0
  1 14  2  0  0  0
  2  3  2  0  0  0
  3 16  1  0  0  0
  3  4  1  0  0  0
 16 17  1  0  0  0
 16 19  1  0  0  0
 17 18  2  0  0  0
 17 20  1  0  0  0
 20 21  1  0  0  0
 20 22  1  0  0  0
 20 23  1  0  0  0
  4  5  2  0  0  0
  5  6  1  0  0  0
  5 14  1  0  0  0
  6  7  1  0  0  0
  6 15  1  0  0  0
  7  8  1  0  0  0
  7 13  2  0  0  0
  8  9  2  0  0  0
  9 10  1  0  0  0
 10 11  2  0  0  0
 11 12  1  0  0  0
 11 13  1  0  0  0
 13 14  1  0  0  0
M  END
> <minimizedAffinity>
-7.62613

$$$$
