CHEMBL3114027


 27 30  0  0  0  0  0  0  0  0999 V2000
  -25.4343   -1.5489  -11.9533 C   0  0  0  0  0  0  0  0  0  0  0  0
  -26.5149   -1.5792  -12.8178 C   0  0  0  0  0  0  0  0  0  0  0  0
  -27.7530   -1.5851  -12.2593 C   0  0  0  0  0  0  0  0  0  0  0  0
  -27.9606   -1.5641  -10.9378 N   0  0  0  0  0  0  0  0  0  0  0  0
  -26.8755   -1.5148  -10.1462 C   0  0  0  0  0  0  0  0  0  0  0  0
  -25.6291   -1.5075  -10.6139 N   0  0  0  0  0  0  0  0  0  0  0  0
  -23.4547   -2.8587  -12.5299 C   0  0  0  0  0  0  0  0  0  0  0  0
  -24.1172   -1.5550  -12.4602 N   0  0  0  0  0  0  0  0  0  0  0  0
  -23.4487   -0.4408  -13.0282 C   0  0  0  0  0  0  0  0  0  0  0  0
  -23.9965    0.8767  -12.7839 C   0  0  0  0  0  0  0  0  0  0  0  0
  -23.4149    2.0922  -13.1939 C   0  0  0  0  0  0  0  0  0  0  0  0
  -22.2386    1.8578  -13.8855 C   0  0  0  0  0  0  0  0  0  0  0  0
  -21.4119    2.8189  -14.3899 C   0  0  0  0  0  0  0  0  0  0  0  0
  -20.3925    2.1218  -14.9723 N   0  0  0  0  0  0  0  0  0  0  0  0
  -19.2427    2.6814  -15.6413 C   0  0  0  0  0  0  0  0  0  0  0  0
  -20.5048    0.7823  -14.8781 N   0  0  0  0  0  0  0  0  0  0  0  0
  -21.6481    0.5832  -14.1932 C   0  0  0  0  0  0  0  0  0  0  0  0
  -22.2547   -0.6116  -13.7789 C   0  0  0  0  0  0  0  0  0  0  0  0
  -27.0676   -1.3981   -8.7673 N   0  0  0  0  0  0  0  0  0  0  0  0
  -26.5190   -0.6565   -8.3631 H   0  0  0  0  0  0  0  0  0  0  0  0
  -27.8796   -2.1853   -7.9437 C   0  0  0  0  0  0  0  0  0  0  0  0
  -28.4105   -3.3979   -8.4148 C   0  0  0  0  0  0  0  0  0  0  0  0
  -29.2945   -4.1542   -7.6430 C   0  0  0  0  0  0  0  0  0  0  0  0
  -29.6848   -3.6886   -6.3952 C   0  0  0  0  0  0  0  0  0  0  0  0
  -29.1793   -2.4803   -5.9194 C   0  0  0  0  0  0  0  0  0  0  0  0
  -29.7068   -1.8862   -4.3918 Cl  0  0  0  0  0  0  0  0  0  0  0  0
  -28.2746   -1.7336   -6.6833 C   0  0  0  0  0  0  0  0  0  0  0  0
  7  8  1  0  0  0
  8  9  1  0  0  0
  8  1  1  0  0  0
  9 10  1  0  0  0
  9 18  2  0  0  0
 10 11  2  0  0  0
 11 12  1  0  0  0
 12 13  2  0  0  0
 12 17  1  0  0  0
 13 14  1  0  0  0
 14 15  1  0  0  0
 14 16  1  0  0  0
 16 17  2  0  0  0
 17 18  1  0  0  0
  1  2  1  0  0  0
  1  6  2  0  0  0
  2  3  2  0  0  0
  3  4  1  0  0  0
  4  5  2  0  0  0
  5 19  1  0  0  0
  5  6  1  0  0  0
 19 21  1  0  0  0
 19 20  1  0  0  0
 21 22  1  0  0  0
 21 27  2  0  0  0
 22 23  2  0  0  0
 23 24  1  0  0  0
 24 25  2  0  0  0
 25 26  1  0  0  0
 25 27  1  0  0  0
M  END
> <minimizedAffinity>
-9.19122

$$$$
