CHEMBL3297894


 21 23  0  0  0  0  0  0  0  0999 V2000
  -32.0235   -4.8410   -3.1336 C   0  0  0  0  0  0  0  0  0  0  0  0
  -31.2406   -5.2045   -4.3591 C   0  0  0  0  0  0  0  0  0  0  0  0
  -30.5220   -4.2150   -4.9275 N   0  0  0  0  0  0  0  0  0  0  0  0
  -29.7811   -4.4537   -6.0382 C   0  0  0  0  0  0  0  0  0  0  0  0
  -29.7940   -5.7505   -6.5546 C   0  0  0  0  0  0  0  0  0  0  0  0
  -29.2172   -6.4338   -7.6570 C   0  0  0  0  0  0  0  0  0  0  0  0
  -29.6942   -7.7246   -7.6029 C   0  0  0  0  0  0  0  0  0  0  0  0
  -29.4949   -8.9122   -8.4559 C   0  0  0  0  0  0  0  0  0  0  0  0
  -30.5189   -7.8785   -6.5286 O   0  0  0  0  0  0  0  0  0  0  0  0
  -30.5837   -6.6746   -5.8883 C   0  0  0  0  0  0  0  0  0  0  0  0
  -31.3239   -6.4705   -4.7910 N   0  0  0  0  0  0  0  0  0  0  0  0
  -29.0333   -3.4212   -6.6170 N   0  0  0  0  0  0  0  0  0  0  0  0
  -28.9393   -3.4712   -7.6225 H   0  0  0  0  0  0  0  0  0  0  0  0
  -28.7465   -2.1599   -6.0655 C   0  0  0  0  0  0  0  0  0  0  0  0
  -27.5084   -1.9516   -5.4424 C   0  0  0  0  0  0  0  0  0  0  0  0
  -27.2159   -0.7283   -4.8349 C   0  0  0  0  0  0  0  0  0  0  0  0
  -28.1605    0.2928   -4.8518 C   0  0  0  0  0  0  0  0  0  0  0  0
  -27.8554    1.4602   -4.2684 F   0  0  0  0  0  0  0  0  0  0  0  0
  -29.3930    0.1042   -5.4669 C   0  0  0  0  0  0  0  0  0  0  0  0
  -30.5615    1.3683   -5.5115 Cl  0  0  0  0  0  0  0  0  0  0  0  0
  -29.6892   -1.1200   -6.0604 C   0  0  0  0  0  0  0  0  0  0  0  0
  1  2  1  0  0  0
  2  3  1  0  0  0
  2 11  2  0  0  0
  3  4  2  0  0  0
  4 12  1  0  0  0
  4  5  1  0  0  0
 12 14  1  0  0  0
 12 13  1  0  0  0
 14 15  1  0  0  0
 14 21  2  0  0  0
 15 16  2  0  0  0
 16 17  1  0  0  0
 17 18  1  0  0  0
 17 19  2  0  0  0
 19 20  1  0  0  0
 19 21  1  0  0  0
  5  6  1  0  0  0
  5 10  2  0  0  0
  6  7  2  0  0  0
  7  8  1  0  0  0
  7  9  1  0  0  0
  9 10  1  0  0  0
 10 11  1  0  0  0
M  END
> <minimizedAffinity>
-8.33281

$$$$
