CHEMBL212128


 34 37  0  0  0  0  0  0  0  0999 V2000
  -25.2680   -0.8678  -12.7895 C   0  0  0  0  0  0  0  0  0  0  0  0
  -25.6310   -0.8307  -11.4167 C   0  0  0  0  0  0  0  0  0  0  0  0
  -26.8448   -1.3241  -10.9248 C   0  0  0  0  0  0  0  0  0  0  0  0
  -27.7488   -1.8694  -11.8282 C   0  0  0  0  0  0  0  0  0  0  0  0
  -27.4063   -1.9833  -13.1772 C   0  0  0  0  0  0  0  0  0  0  0  0
  -26.1754   -1.5035  -13.6731 C   0  0  0  0  0  0  0  0  0  0  0  0
  -25.9124   -1.7219  -15.1412 C   0  0  0  0  0  0  0  0  0  0  0  0
  -20.2486    2.8918  -14.3978 C   0  0  0  0  0  0  0  0  0  0  0  0
  -21.2726    3.7223  -14.1742 N   0  0  0  0  0  0  0  0  0  0  0  0
  -22.4441    3.1518  -13.8356 C   0  0  0  0  0  0  0  0  0  0  0  0
  -22.6349    1.7857  -13.7171 C   0  0  0  0  0  0  0  0  0  0  0  0
  -23.8735    1.1885  -13.3846 C   0  0  0  0  0  0  0  0  0  0  0  0
  -23.9968   -0.1937  -13.1969 C   0  0  0  0  0  0  0  0  0  0  0  0
  -22.8285   -0.9480  -13.4262 C   0  0  0  0  0  0  0  0  0  0  0  0
  -21.6183   -0.3528  -13.8146 C   0  0  0  0  0  0  0  0  0  0  0  0
  -21.4988    1.0179  -13.9489 C   0  0  0  0  0  0  0  0  0  0  0  0
  -20.3232    1.5579  -14.2924 N   0  0  0  0  0  0  0  0  0  0  0  0
  -18.1594    2.6063  -15.4854 C   0  0  0  0  0  0  0  0  0  0  0  0
  -19.0619    3.4969  -14.7901 N   0  0  0  0  0  0  0  0  0  0  0  0
  -19.3347    4.3302  -15.3003 H   0  0  0  0  0  0  0  0  0  0  0  0
  -27.2049   -1.2949   -9.5571 N   0  0  0  0  0  0  0  0  0  0  0  0
  -27.4935   -2.3958   -8.7618 C   0  0  0  0  0  0  0  0  0  0  0  0
  -27.5072   -3.5670   -9.1247 O   0  0  0  0  0  0  0  0  0  0  0  0
  -27.3916   -0.3776   -9.1658 H   0  0  0  0  0  0  0  0  0  0  0  0
  -27.8827   -2.1169   -7.3560 C   0  0  0  0  0  0  0  0  0  0  0  0
  -28.1002   -3.1306   -6.4171 C   0  0  0  0  0  0  0  0  0  0  0  0
  -28.5217   -2.8020   -5.1262 C   0  0  0  0  0  0  0  0  0  0  0  0
  -28.7211   -1.4660   -4.7643 C   0  0  0  0  0  0  0  0  0  0  0  0
  -28.5046   -0.4365   -5.6924 C   0  0  0  0  0  0  0  0  0  0  0  0
  -28.0907   -0.7763   -6.9891 C   0  0  0  0  0  0  0  0  0  0  0  0
  -28.7090    1.0116   -5.3237 C   0  0  0  0  0  0  0  0  0  0  0  0
  -27.9362    1.4215   -4.2786 F   0  0  0  0  0  0  0  0  0  0  0  0
  -28.4162    1.8538   -6.3514 F   0  0  0  0  0  0  0  0  0  0  0  0
  -29.9933    1.2871   -4.9667 F   0  0  0  0  0  0  0  0  0  0  0  0
 18 19  1  0  0  0
 19  8  1  0  0  0
 19 20  1  0  0  0
  8  9  1  0  0  0
  8 17  2  0  0  0
  9 10  2  0  0  0
 10 11  1  0  0  0
 11 12  1  0  0  0
 11 16  2  0  0  0
 12 13  2  0  0  0
 13  1  1  0  0  0
 13 14  1  0  0  0
  1  2  1  0  0  0
  1  6  2  0  0  0
  2  3  2  0  0  0
  3 21  1  0  0  0
  3  4  1  0  0  0
 21 22  1  0  0  0
 21 24  1  0  0  0
 22 23  2  0  0  0
 22 25  1  0  0  0
 25 26  1  0  0  0
 25 30  2  0  0  0
 26 27  2  0  0  0
 27 28  1  0  0  0
 28 29  2  0  0  0
 29 31  1  0  0  0
 29 30  1  0  0  0
 31 32  1  0  0  0
 31 33  1  0  0  0
 31 34  1  0  0  0
  4  5  2  0  0  0
  5  6  1  0  0  0
  6  7  1  0  0  0
 14 15  2  0  0  0
 15 16  1  0  0  0
 16 17  1  0  0  0
M  END
> <minimizedAffinity>
-11.40817

$$$$
