CHEMBL3690552


 34 37  0  0  0  0  0  0  0  0999 V2000
  -21.8488    0.9022  -14.1982 C   0  0  0  0  0  0  0  0  0  0  0  0
  -22.3096    2.2117  -14.0765 C   0  0  0  0  0  0  0  0  0  0  0  0
  -21.4536    3.2863  -14.3182 C   0  0  0  0  0  0  0  0  0  0  0  0
  -20.1140    3.0606  -14.6299 C   0  0  0  0  0  0  0  0  0  0  0  0
  -19.6120    1.7564  -14.7159 C   0  0  0  0  0  0  0  0  0  0  0  0
  -20.5090    0.6885  -14.5528 C   0  0  0  0  0  0  0  0  0  0  0  0
  -18.1818    1.5474  -14.9675 C   0  0  0  0  0  0  0  0  0  0  0  0
  -17.4201    0.3987  -14.7982 C   0  0  0  0  0  0  0  0  0  0  0  0
  -16.1178    0.5768  -15.1728 N   0  0  0  0  0  0  0  0  0  0  0  0
  -16.0515    1.8223  -15.5818 C   0  0  0  0  0  0  0  0  0  0  0  0
  -14.9408    2.5656  -16.0694 C   0  0  0  0  0  0  0  0  0  0  0  0
  -15.0791    3.8538  -16.4691 C   0  0  0  0  0  0  0  0  0  0  0  0
  -16.4018    4.4826  -16.3845 C   0  0  0  0  0  0  0  0  0  0  0  0
  -17.4563    3.7822  -15.9392 C   0  0  0  0  0  0  0  0  0  0  0  0
  -17.2853    2.4640  -15.5099 N   0  0  0  0  0  0  0  0  0  0  0  0
  -13.8859    4.6062  -16.9322 C   0  0  0  0  0  0  0  0  0  0  0  0
  -13.0421    5.2758  -16.0439 C   0  0  0  0  0  0  0  0  0  0  0  0
  -11.9676    6.0079  -16.5437 C   0  0  0  0  0  0  0  0  0  0  0  0
  -11.7547    6.0304  -17.9112 C   0  0  0  0  0  0  0  0  0  0  0  0
  -10.7365    6.7436  -18.4638 O   0  0  0  0  0  0  0  0  0  0  0  0
  -12.6077    5.3080  -18.7286 C   0  0  0  0  0  0  0  0  0  0  0  0
  -13.6629    4.5958  -18.2691 N   0  0  0  0  0  0  0  0  0  0  0  0
  -10.2896    7.2439  -17.7598 H   0  0  0  0  0  0  0  0  0  0  0  0
  -24.0314    0.4451  -12.2287 O   0  0  0  0  0  0  0  0  0  0  0  0
  -23.6403   -0.3889  -13.0362 C   0  0  0  0  0  0  0  0  0  0  0  0
  -24.2173   -1.6421  -13.1058 N   0  0  0  0  0  0  0  0  0  0  0  0
  -22.6517   -0.2385  -13.9747 N   0  0  0  0  0  0  0  0  0  0  0  0
  -23.6032   -2.3885  -13.4042 H   0  0  0  0  0  0  0  0  0  0  0  0
  -22.5089   -1.0176  -14.6008 H   0  0  0  0  0  0  0  0  0  0  0  0
  -25.2308   -2.0045  -12.1100 C   0  0  0  0  0  0  0  0  0  0  0  0
  -26.6663   -1.5892  -12.4609 C   0  0  0  0  0  0  0  0  0  0  0  0
  -27.5457   -2.6003  -12.2668 F   0  0  0  0  0  0  0  0  0  0  0  0
  -27.0846   -0.5243  -11.7474 F   0  0  0  0  0  0  0  0  0  0  0  0
  -26.7426   -1.2550  -13.7729 F   0  0  0  0  0  0  0  0  0  0  0  0
 24 25  2  0  0  0
 25 26  1  0  0  0
 25 27  1  0  0  0
 26 30  1  0  0  0
 26 28  1  0  0  0
 30 31  1  0  0  0
 31 32  1  0  0  0
 31 33  1  0  0  0
 31 34  1  0  0  0
 27  1  1  0  0  0
 27 29  1  0  0  0
  1  2  1  0  0  0
  1  6  2  0  0  0
  2  3  2  0  0  0
  3  4  1  0  0  0
  4  5  2  0  0  0
  5  7  1  0  0  0
  5  6  1  0  0  0
  7  8  2  0  0  0
  7 15  1  0  0  0
  8  9  1  0  0  0
  9 10  2  0  0  0
 10 11  1  0  0  0
 10 15  1  0  0  0
 11 12  2  0  0  0
 12 16  1  0  0  0
 12 13  1  0  0  0
 16 17  1  0  0  0
 16 22  2  0  0  0
 17 18  2  0  0  0
 18 19  1  0  0  0
 19 20  1  0  0  0
 19 21  2  0  0  0
 20 23  1  0  0  0
 21 22  1  0  0  0
 13 14  2  0  0  0
 14 15  1  0  0  0
M  END
> <minimizedAffinity>
-9.26803

$$$$
