CHEMBL499864


 23 25  0  0  0  0  0  0  0  0999 V2000
  -13.4415    1.5277  -15.2532 C   0  0  0  0  0  0  0  0  0  0  0  0
  -14.7851    2.0082  -15.4496 N   0  0  0  0  0  0  0  0  0  0  0  0
  -15.1483    3.0845  -16.2049 C   0  0  0  0  0  0  0  0  0  0  0  0
  -16.4527    3.2398  -16.2221 N   0  0  0  0  0  0  0  0  0  0  0  0
  -16.9534    2.2329  -15.4216 C   0  0  0  0  0  0  0  0  0  0  0  0
  -15.9240    1.4432  -14.9375 C   0  0  0  0  0  0  0  0  0  0  0  0
  -18.3771    2.0813  -15.1619 C   0  0  0  0  0  0  0  0  0  0  0  0
  -19.1374    3.1894  -14.7679 C   0  0  0  0  0  0  0  0  0  0  0  0
  -20.4931    3.0445  -14.4582 C   0  0  0  0  0  0  0  0  0  0  0  0
  -21.0971    1.7901  -14.5329 C   0  0  0  0  0  0  0  0  0  0  0  0
  -20.3564    0.6838  -14.9373 C   0  0  0  0  0  0  0  0  0  0  0  0
  -19.0050    0.8307  -15.2482 C   0  0  0  0  0  0  0  0  0  0  0  0
  -15.9726    0.2766  -14.1237 C   0  0  0  0  0  0  0  0  0  0  0  0
  -15.9689   -0.7473  -13.4972 C   0  0  0  0  0  0  0  0  0  0  0  0
  -15.8790   -1.9957  -12.8041 C   0  0  0  0  0  0  0  0  0  0  0  0
  -15.9832   -3.1883  -13.4821 C   0  0  0  0  0  0  0  0  0  0  0  0
  -15.7927   -4.3054  -12.7118 C   0  0  0  0  0  0  0  0  0  0  0  0
  -15.5375   -4.2561  -11.3918 N   0  0  0  0  0  0  0  0  0  0  0  0
  -15.4566   -3.0445  -10.8349 C   0  0  0  0  0  0  0  0  0  0  0  0
  -15.2010   -2.9866   -9.4844 N   0  0  0  0  0  0  0  0  0  0  0  0
  -15.6362   -1.8916  -11.4872 N   0  0  0  0  0  0  0  0  0  0  0  0
  -15.4697   -3.8592   -9.0523 H   0  0  0  0  0  0  0  0  0  0  0  0
  -15.5767   -2.1349   -9.0946 H   0  0  0  0  0  0  0  0  0  0  0  0
  1  2  1  0  0  0
  2  3  1  0  0  0
  2  6  1  0  0  0
  3  4  2  0  0  0
  4  5  1  0  0  0
  5  7  1  0  0  0
  5  6  2  0  0  0
  7  8  1  0  0  0
  7 12  2  0  0  0
  8  9  2  0  0  0
  9 10  1  0  0  0
 10 11  2  0  0  0
 11 12  1  0  0  0
  6 13  1  0  0  0
 13 14  3  0  0  0
 14 15  1  0  0  0
 15 16  1  0  0  0
 15 21  2  0  0  0
 16 17  2  0  0  0
 17 18  1  0  0  0
 18 19  2  0  0  0
 19 20  1  0  0  0
 19 21  1  0  0  0
 20 22  1  0  0  0
 20 23  1  0  0  0
M  END
> <minimizedAffinity>
-8.27667

$$$$
