CHEMBL1995592


 31 34  0  0  0  0  0  0  0  0999 V2000
  -29.0424   -8.8183   -6.3341 N   0  0  0  0  0  0  0  0  0  0  0  0
  -27.8811   -9.7034   -6.4833 C   0  0  0  0  0  0  0  0  0  0  0  0
  -26.6471   -9.5025   -5.8307 C   0  0  0  0  0  0  0  0  0  0  0  0
  -25.5150  -10.2787   -6.1275 C   0  0  0  0  0  0  0  0  0  0  0  0
  -23.9958   -9.8747   -5.4258 Cl  0  0  0  0  0  0  0  0  0  0  0  0
  -25.5993  -11.3519   -6.9990 C   0  0  0  0  0  0  0  0  0  0  0  0
  -26.8267  -11.6505   -7.5702 C   0  0  0  0  0  0  0  0  0  0  0  0
  -27.9459  -10.8312   -7.3179 C   0  0  0  0  0  0  0  0  0  0  0  0
  -29.2044  -11.1959   -7.9706 C   0  0  0  0  0  0  0  0  0  0  0  0
  -29.2437  -12.1546   -8.7425 O   0  0  0  0  0  0  0  0  0  0  0  0
  -30.3898  -10.3628   -7.7350 C   0  0  0  0  0  0  0  0  0  0  0  0
  -31.6342  -10.7022   -8.2415 C   0  0  0  0  0  0  0  0  0  0  0  0
  -31.9131  -11.9540   -8.7858 N   0  0  0  0  0  0  0  0  0  0  0  0
  -32.6994   -9.9090   -8.1047 N   0  0  0  0  0  0  0  0  0  0  0  0
  -32.5054   -8.7552   -7.4877 C   0  0  0  0  0  0  0  0  0  0  0  0
  -33.6080   -7.9994   -7.1764 N   0  0  0  0  0  0  0  0  0  0  0  0
  -31.3207   -8.3276   -7.0612 N   0  0  0  0  0  0  0  0  0  0  0  0
  -30.2581   -9.1614   -7.0576 C   0  0  0  0  0  0  0  0  0  0  0  0
  -31.1552  -12.3091   -9.3699 H   0  0  0  0  0  0  0  0  0  0  0  0
  -32.8321  -11.9609   -9.2133 H   0  0  0  0  0  0  0  0  0  0  0  0
  -34.4440   -8.2470   -7.6768 H   0  0  0  0  0  0  0  0  0  0  0  0
  -33.4096   -7.0576   -6.9085 H   0  0  0  0  0  0  0  0  0  0  0  0
  -28.5022   -5.9341   -7.5158 C   0  0  0  0  0  0  0  0  0  0  0  0
  -28.7394   -6.2806   -6.0691 C   0  0  0  0  0  0  0  0  0  0  0  0
  -28.7057   -5.1575   -5.2039 C   0  0  0  0  0  0  0  0  0  0  0  0
  -29.0180   -5.2769   -3.8605 C   0  0  0  0  0  0  0  0  0  0  0  0
  -29.0614   -4.1899   -3.0426 O   0  0  0  0  0  0  0  0  0  0  0  0
  -29.2864   -6.5164   -3.3227 C   0  0  0  0  0  0  0  0  0  0  0  0
  -29.1900   -7.6541   -4.1354 C   0  0  0  0  0  0  0  0  0  0  0  0
  -28.9784   -7.5835   -5.5368 C   0  0  0  0  0  0  0  0  0  0  0  0
  -28.7740   -3.4110   -3.5480 H   0  0  0  0  0  0  0  0  0  0  0  0
 23 24  1  0  0  0
 24 25  1  0  0  0
 24 30  2  0  0  0
 25 26  2  0  0  0
 26 27  1  0  0  0
 26 28  1  0  0  0
 27 31  1  0  0  0
 28 29  2  0  0  0
 29 30  1  0  0  0
 30  1  1  0  0  0
  1  2  1  0  0  0
  1 18  1  0  0  0
  2  3  1  0  0  0
  2  8  2  0  0  0
  3  4  2  0  0  0
  4  5  1  0  0  0
  4  6  1  0  0  0
  6  7  2  0  0  0
  7  8  1  0  0  0
  8  9  1  0  0  0
  9 10  2  0  0  0
  9 11  1  0  0  0
 11 12  1  0  0  0
 11 18  2  0  0  0
 12 13  1  0  0  0
 12 14  2  0  0  0
 13 19  1  0  0  0
 13 20  1  0  0  0
 14 15  1  0  0  0
 15 16  1  0  0  0
 15 17  2  0  0  0
 16 21  1  0  0  0
 16 22  1  0  0  0
 17 18  1  0  0  0
M  END
> <minimizedAffinity>
-7.88470

$$$$
