CHEMBL2063325


 43 47  0  0  0  0  0  0  0  0999 V2000
  -17.0684    2.3450  -15.8827 C   0  0  0  0  0  0  0  0  0  0  0  0
  -16.6975    3.5983  -16.2913 C   0  0  0  0  0  0  0  0  0  0  0  0
  -15.3333    3.5051  -16.6737 C   0  0  0  0  0  0  0  0  0  0  0  0
  -14.8920    2.2438  -16.5172 N   0  0  0  0  0  0  0  0  0  0  0  0
  -15.9538    1.5723  -16.0423 N   0  0  0  0  0  0  0  0  0  0  0  0
  -15.8191    0.5972  -15.8022 H   0  0  0  0  0  0  0  0  0  0  0  0
  -14.4875    4.5893  -17.1778 C   0  0  0  0  0  0  0  0  0  0  0  0
  -14.8653    5.3165  -18.3161 C   0  0  0  0  0  0  0  0  0  0  0  0
  -14.0689    6.3545  -18.8027 C   0  0  0  0  0  0  0  0  0  0  0  0
  -12.8626    6.6795  -18.1649 C   0  0  0  0  0  0  0  0  0  0  0  0
  -12.4930    5.9665  -17.0190 C   0  0  0  0  0  0  0  0  0  0  0  0
  -13.2926    4.9287  -16.5328 C   0  0  0  0  0  0  0  0  0  0  0  0
  -11.9952    7.7829  -18.6960 C   0  0  0  0  0  0  0  0  0  0  0  0
  -12.6789    8.5750  -19.6837 N   0  0  0  0  0  0  0  0  0  0  0  0
  -12.9390    9.8968  -19.5005 C   0  0  0  0  0  0  0  0  0  0  0  0
  -12.5597   10.5585  -18.5444 O   0  0  0  0  0  0  0  0  0  0  0  0
  -13.1055    8.1363  -20.4860 H   0  0  0  0  0  0  0  0  0  0  0  0
  -13.7537   10.3337  -20.4889 O   0  0  0  0  0  0  0  0  0  0  0  0
  -15.0229   10.8261  -20.0443 C   0  0  0  0  0  0  0  0  0  0  0  0
  -16.1866   10.0225  -20.5657 C   0  0  0  0  0  0  0  0  0  0  0  0
  -17.4680   10.5904  -20.6345 C   0  0  0  0  0  0  0  0  0  0  0  0
  -18.5236    9.8940  -21.2263 C   0  0  0  0  0  0  0  0  0  0  0  0
  -18.3101    8.6228  -21.7544 C   0  0  0  0  0  0  0  0  0  0  0  0
  -17.0447    8.0427  -21.6808 C   0  0  0  0  0  0  0  0  0  0  0  0
  -15.9888    8.7381  -21.0875 C   0  0  0  0  0  0  0  0  0  0  0  0
  -19.3897    2.8464  -15.1591 C   0  0  0  0  0  0  0  0  0  0  0  0
  -19.2772    4.0458  -15.3316 O   0  0  0  0  0  0  0  0  0  0  0  0
  -18.3099    1.9285  -15.4254 N   0  0  0  0  0  0  0  0  0  0  0  0
  -18.4518    0.9364  -15.2932 H   0  0  0  0  0  0  0  0  0  0  0  0
  -22.9683    1.0252  -13.6554 C   0  0  0  0  0  0  0  0  0  0  0  0
  -21.9189    0.2493  -14.1738 C   0  0  0  0  0  0  0  0  0  0  0  0
  -20.7583    0.8467  -14.6641 C   0  0  0  0  0  0  0  0  0  0  0  0
  -20.6515    2.2393  -14.6787 C   0  0  0  0  0  0  0  0  0  0  0  0
  -21.7245    3.0289  -14.2509 C   0  0  0  0  0  0  0  0  0  0  0  0
  -22.8673    2.4226  -13.7221 C   0  0  0  0  0  0  0  0  0  0  0  0
  -24.1930    0.3574  -13.0525 C   0  0  0  0  0  0  0  0  0  0  0  0
  -27.7275   -1.8135  -10.6420 C   0  0  0  0  0  0  0  0  0  0  0  0
  -26.5130   -2.0508  -11.4167 N   0  0  0  0  0  0  0  0  0  0  0  0
  -26.6482   -1.5336  -12.7861 C   0  0  0  0  0  0  0  0  0  0  0  0
  -25.3530   -1.7755  -13.5928 C   0  0  0  0  0  0  0  0  0  0  0  0
  -24.1535   -1.1179  -13.0254 N   0  0  0  0  0  0  0  0  0  0  0  0
  -24.0347   -1.6001  -11.6211 C   0  0  0  0  0  0  0  0  0  0  0  0
  -25.3267   -1.4667  -10.7628 C   0  0  0  0  0  0  0  0  0  0  0  0
 37 38  1  0  0  0
 38 39  1  0  0  0
 38 43  1  0  0  0
 39 40  1  0  0  0
 40 41  1  0  0  0
 41 36  1  0  0  0
 41 42  1  0  0  0
 36 30  1  0  0  0
 30 31  1  0  0  0
 30 35  2  0  0  0
 31 32  2  0  0  0
 32 33  1  0  0  0
 33 26  1  0  0  0
 33 34  2  0  0  0
 26 27  2  0  0  0
 26 28  1  0  0  0
 28  1  1  0  0  0
 28 29  1  0  0  0
  1  2  2  0  0  0
  1  5  1  0  0  0
  2  3  1  0  0  0
  3  7  1  0  0  0
  3  4  2  0  0  0
  7  8  1  0  0  0
  7 12  2  0  0  0
  8  9  2  0  0  0
  9 10  1  0  0  0
 10 13  1  0  0  0
 10 11  2  0  0  0
 13 14  1  0  0  0
 14 15  1  0  0  0
 14 17  1  0  0  0
 15 16  2  0  0  0
 15 18  1  0  0  0
 18 19  1  0  0  0
 19 20  1  0  0  0
 20 21  1  0  0  0
 20 25  2  0  0  0
 21 22  2  0  0  0
 22 23  1  0  0  0
 23 24  2  0  0  0
 24 25  1  0  0  0
 11 12  1  0  0  0
  4  5  1  0  0  0
  5  6  1  0  0  0
 34 35  1  0  0  0
 42 43  1  0  0  0
M  END
> <minimizedAffinity>
-9.22024

$$$$
