CHEMBL1991095


 15 16  0  0  0  0  0  0  0  0999 V2000
  -28.4048   -2.7627   -7.3861 C   0  0  0  0  0  0  0  0  0  0  0  0
  -29.2707   -3.9650   -7.4674 C   0  0  0  0  0  0  0  0  0  0  0  0
  -30.0018   -4.4440   -6.5045 N   0  0  0  0  0  0  0  0  0  0  0  0
  -29.9511   -3.7595   -5.3185 C   0  0  0  0  0  0  0  0  0  0  0  0
  -30.5634   -3.9433   -4.1027 C   0  0  0  0  0  0  0  0  0  0  0  0
  -31.7485   -5.2941   -3.5907 Br  0  0  0  0  0  0  0  0  0  0  0  0
  -30.1343   -2.9009   -3.2776 C   0  0  0  0  0  0  0  0  0  0  0  0
  -29.2906   -2.0782   -3.9003 N   0  0  0  0  0  0  0  0  0  0  0  0
  -29.1548   -2.6188   -5.1500 N   0  0  0  0  0  0  0  0  0  0  0  0
  -28.3505   -2.1151   -6.2038 C   0  0  0  0  0  0  0  0  0  0  0  0
  -27.5700   -0.9945   -5.9200 N   0  0  0  0  0  0  0  0  0  0  0  0
  -27.8865   -0.5002   -5.0798 H   0  0  0  0  0  0  0  0  0  0  0  0
  -27.3356   -0.3828   -6.6971 H   0  0  0  0  0  0  0  0  0  0  0  0
  -26.9132   -1.9024   -9.5699 N   0  0  0  0  0  0  0  0  0  0  0  0
  -27.5895   -2.2925   -8.5797 C   0  0  0  0  0  0  0  0  0  0  0  0
 14 15  3  0  0  0
 15  1  1  0  0  0
  1  2  1  0  0  0
  1 10  2  0  0  0
  2  3  2  0  0  0
  3  4  1  0  0  0
  4  5  2  0  0  0
  4  9  1  0  0  0
  5  6  1  0  0  0
  5  7  1  0  0  0
  7  8  2  0  0  0
  8  9  1  0  0  0
  9 10  1  0  0  0
 10 11  1  0  0  0
 11 12  1  0  0  0
 11 13  1  0  0  0
M  END
> <minimizedAffinity>
-5.60157

$$$$
