CHEMBL3912310


 37 40  0  0  0  0  0  0  0  0999 V2000
  -29.1895   -3.9819   -6.6896 N   0  0  0  0  0  0  0  0  0  0  0  0
  -28.2647   -3.3318   -7.6024 C   0  0  0  0  0  0  0  0  0  0  0  0
  -28.1309   -1.9877   -7.3741 C   0  0  0  0  0  0  0  0  0  0  0  0
  -27.9803   -1.1568   -8.4474 C   0  0  0  0  0  0  0  0  0  0  0  0
  -27.7006   -1.6281   -9.6934 C   0  0  0  0  0  0  0  0  0  0  0  0
  -27.9962   -0.7464  -10.6149 N   0  0  0  0  0  0  0  0  0  0  0  0
  -27.2994   -0.7986  -11.7403 C   0  0  0  0  0  0  0  0  0  0  0  0
  -26.1950   -1.6104  -11.8862 C   0  0  0  0  0  0  0  0  0  0  0  0
  -26.1308   -2.7413  -11.0488 N   0  0  0  0  0  0  0  0  0  0  0  0
  -27.0560   -2.8458   -9.8797 C   0  0  0  0  0  0  0  0  0  0  0  0
  -27.5862   -3.7941   -8.7867 C   0  0  0  0  0  0  0  0  0  0  0  0
  -25.1097   -0.8501  -12.6318 C   0  0  0  0  0  0  0  0  0  0  0  0
  -24.7470   -1.1677  -14.0007 C   0  0  0  0  0  0  0  0  0  0  0  0
  -23.7079   -0.5052  -14.4815 N   0  0  0  0  0  0  0  0  0  0  0  0
  -23.3936    0.3311  -13.4895 N   0  0  0  0  0  0  0  0  0  0  0  0
  -22.3586    1.2998  -13.7932 C   0  0  0  0  0  0  0  0  0  0  0  0
  -24.1662    0.1346  -12.3427 C   0  0  0  0  0  0  0  0  0  0  0  0
  -28.8712   -7.5023   -5.3857 C   0  0  0  0  0  0  0  0  0  0  0  0
  -29.9629   -8.1179   -5.9841 C   0  0  0  0  0  0  0  0  0  0  0  0
  -30.7749   -7.3764   -6.8587 C   0  0  0  0  0  0  0  0  0  0  0  0
  -30.5116   -6.0106   -7.0818 C   0  0  0  0  0  0  0  0  0  0  0  0
  -29.4476   -5.3500   -6.4492 C   0  0  0  0  0  0  0  0  0  0  0  0
  -28.6140   -6.1389   -5.6305 C   0  0  0  0  0  0  0  0  0  0  0  0
  -25.8392   -9.1562   -3.7844 C   0  0  0  0  0  0  0  0  0  0  0  0
  -26.6681   -8.3461   -4.6484 N   0  0  0  0  0  0  0  0  0  0  0  0
  -28.0134   -8.2231   -4.3903 C   0  0  0  0  0  0  0  0  0  0  0  0
  -28.5284   -8.6651   -3.3713 O   0  0  0  0  0  0  0  0  0  0  0  0
  -26.2254   -7.8489   -5.4101 H   0  0  0  0  0  0  0  0  0  0  0  0
  -31.8506   -7.8904   -7.5390 O   0  0  0  0  0  0  0  0  0  0  0  0
  -32.0116   -9.3072   -7.5046 C   0  0  0  0  0  0  0  0  0  0  0  0
  -30.0887   -2.9780   -5.9563 C   0  0  0  0  0  0  0  0  0  0  0  0
  -29.6749   -2.4531   -4.5329 C   0  0  0  0  0  0  0  0  0  0  0  0
  -29.6602   -1.0190   -4.1957 N   0  0  0  0  0  0  0  0  0  0  0  0
  -29.0625   -0.8683   -3.3837 H   0  0  0  0  0  0  0  0  0  0  0  0
  -29.3422   -0.0556   -5.2557 C   0  0  0  0  0  0  0  0  0  0  0  0
  -30.4559    0.9370   -5.6035 C   0  0  0  0  0  0  0  0  0  0  0  0
  -28.0984    0.7428   -4.8318 C   0  0  0  0  0  0  0  0  0  0  0  0
 24 25  1  0  0  0
 25 26  1  0  0  0
 25 28  1  0  0  0
 26 27  2  0  0  0
 26 18  1  0  0  0
 18 19  1  0  0  0
 18 23  2  0  0  0
 19 20  2  0  0  0
 20 29  1  0  0  0
 20 21  1  0  0  0
 29 30  1  0  0  0
 21 22  2  0  0  0
 22  1  1  0  0  0
 22 23  1  0  0  0
  1 31  1  0  0  0
  1  2  1  0  0  0
 31 32  1  0  0  0
 32 33  1  0  0  0
 33 35  1  0  0  0
 33 34  1  0  0  0
 35 36  1  0  0  0
 35 37  1  0  0  0
  2  3  1  0  0  0
  2 11  2  0  0  0
  3  4  2  0  0  0
  4  5  1  0  0  0
  5  6  1  0  0  0
  5 10  2  0  0  0
  6  7  2  0  0  0
  7  8  1  0  0  0
  8 12  1  0  0  0
  8  9  2  0  0  0
 12 13  1  0  0  0
 12 17  2  0  0  0
 13 14  2  0  0  0
 14 15  1  0  0  0
 15 16  1  0  0  0
 15 17  1  0  0  0
  9 10  1  0  0  0
 10 11  1  0  0  0
M  END
> <minimizedAffinity>
-8.05721

$$$$
