CHEMBL1988300


 33 37  0  0  0  0  0  0  0  0999 V2000
  -12.4886    5.3849  -15.6450 C   0  0  0  0  0  0  0  0  0  0  0  0
  -11.7073    4.7778  -14.6784 C   0  0  0  0  0  0  0  0  0  0  0  0
  -12.3239    3.2922  -14.1640 S   0  0  0  0  0  0  0  0  0  0  0  0
  -13.6961    3.4017  -15.2159 C   0  0  0  0  0  0  0  0  0  0  0  0
  -14.7434    2.4523  -15.3484 C   0  0  0  0  0  0  0  0  0  0  0  0
  -15.7224    2.7954  -16.2615 C   0  0  0  0  0  0  0  0  0  0  0  0
  -15.7338    3.9015  -17.0137 N   0  0  0  0  0  0  0  0  0  0  0  0
  -14.7327    4.7919  -16.9014 C   0  0  0  0  0  0  0  0  0  0  0  0
  -14.8716    5.8832  -17.7489 N   0  0  0  0  0  0  0  0  0  0  0  0
  -13.6706    4.5753  -15.9780 C   0  0  0  0  0  0  0  0  0  0  0  0
  -15.6253    5.8409  -18.4109 H   0  0  0  0  0  0  0  0  0  0  0  0
  -14.0533    6.3717  -18.0334 H   0  0  0  0  0  0  0  0  0  0  0  0
  -10.8517   10.3537  -17.8460 N   0  0  0  0  0  0  0  0  0  0  0  0
  -11.1224    9.1317  -17.2508 C   0  0  0  0  0  0  0  0  0  0  0  0
  -11.7693    9.0740  -16.0076 C   0  0  0  0  0  0  0  0  0  0  0  0
  -12.1967    7.8540  -15.4693 C   0  0  0  0  0  0  0  0  0  0  0  0
  -12.0602    6.6763  -16.1927 C   0  0  0  0  0  0  0  0  0  0  0  0
  -11.5243    6.7721  -17.4826 C   0  0  0  0  0  0  0  0  0  0  0  0
  -10.9985    7.9605  -17.9782 C   0  0  0  0  0  0  0  0  0  0  0  0
  -10.7176   11.1199  -17.1984 H   0  0  0  0  0  0  0  0  0  0  0  0
  -10.1558   10.3185  -18.5807 H   0  0  0  0  0  0  0  0  0  0  0  0
  -14.7878    1.2309  -14.5169 C   0  0  0  0  0  0  0  0  0  0  0  0
  -15.8742    0.4968  -14.2728 C   0  0  0  0  0  0  0  0  0  0  0  0
  -15.8028   -0.6523  -13.4360 C   0  0  0  0  0  0  0  0  0  0  0  0
  -15.5714   -0.7736  -12.1434 N   0  0  0  0  0  0  0  0  0  0  0  0
  -15.6748   -2.1169  -11.8647 C   0  0  0  0  0  0  0  0  0  0  0  0
  -15.5555   -2.7975  -10.6437 C   0  0  0  0  0  0  0  0  0  0  0  0
  -15.6987   -4.1923  -10.6354 C   0  0  0  0  0  0  0  0  0  0  0  0
  -15.9537   -4.8931  -11.8168 C   0  0  0  0  0  0  0  0  0  0  0  0
  -16.0888   -4.2290  -13.0412 C   0  0  0  0  0  0  0  0  0  0  0  0
  -15.9464   -2.8393  -13.0186 C   0  0  0  0  0  0  0  0  0  0  0  0
  -16.0242   -1.8854  -13.9993 N   0  0  0  0  0  0  0  0  0  0  0  0
  -16.2258   -2.0640  -14.9708 H   0  0  0  0  0  0  0  0  0  0  0  0
 13 14  1  0  0  0
 13 20  1  0  0  0
 13 21  1  0  0  0
 14 15  1  0  0  0
 14 19  2  0  0  0
 15 16  2  0  0  0
 16 17  1  0  0  0
 17  1  1  0  0  0
 17 18  2  0  0  0
  1  2  2  0  0  0
  1 10  1  0  0  0
  2  3  1  0  0  0
  3  4  1  0  0  0
  4  5  1  0  0  0
  4 10  2  0  0  0
  5 22  1  0  0  0
  5  6  2  0  0  0
 22 23  2  0  0  0
 23 24  1  0  0  0
 24 25  2  0  0  0
 24 32  1  0  0  0
 25 26  1  0  0  0
 26 27  1  0  0  0
 26 31  2  0  0  0
 27 28  2  0  0  0
 28 29  1  0  0  0
 29 30  2  0  0  0
 30 31  1  0  0  0
 31 32  1  0  0  0
 32 33  1  0  0  0
  6  7  1  0  0  0
  7  8  2  0  0  0
  8  9  1  0  0  0
  8 10  1  0  0  0
  9 11  1  0  0  0
  9 12  1  0  0  0
 18 19  1  0  0  0
M  END
> <minimizedAffinity>
-7.71951

$$$$
