CHEMBL597393


 31 34  0  0  0  0  0  0  0  0999 V2000
  -23.1753   11.7526  -17.5926 C   0  0  0  0  0  0  0  0  0  0  0  0
  -24.2952   12.5107  -17.9129 C   0  0  0  0  0  0  0  0  0  0  0  0
  -25.3299   12.6590  -16.9787 C   0  0  0  0  0  0  0  0  0  0  0  0
  -25.2492   12.1061  -15.6832 C   0  0  0  0  0  0  0  0  0  0  0  0
  -24.0829   11.3767  -15.3618 C   0  0  0  0  0  0  0  0  0  0  0  0
  -23.0961   11.1580  -16.3343 C   0  0  0  0  0  0  0  0  0  0  0  0
  -23.8001   10.8331  -14.0925 N   0  0  0  0  0  0  0  0  0  0  0  0
  -24.1331   11.3420  -12.8660 C   0  0  0  0  0  0  0  0  0  0  0  0
  -23.7641   10.7657  -11.8436 O   0  0  0  0  0  0  0  0  0  0  0  0
  -24.8722   12.6589  -12.8178 C   0  0  0  0  0  0  0  0  0  0  0  0
  -26.2258   12.5130  -13.4108 C   0  0  0  0  0  0  0  0  0  0  0  0
  -27.3767   12.5580  -12.6579 C   0  0  0  0  0  0  0  0  0  0  0  0
  -28.6044   12.3835  -13.1715 N   0  0  0  0  0  0  0  0  0  0  0  0
  -28.6870   12.1655  -14.4915 C   0  0  0  0  0  0  0  0  0  0  0  0
  -27.6159   12.1127  -15.2963 N   0  0  0  0  0  0  0  0  0  0  0  0
  -26.3899   12.2592  -14.7551 C   0  0  0  0  0  0  0  0  0  0  0  0
  -23.1292   10.0752  -14.0331 H   0  0  0  0  0  0  0  0  0  0  0  0
  -22.0985   12.1293  -19.6784 C   0  0  0  0  0  0  0  0  0  0  0  0
  -22.0891   11.5280  -18.3906 O   0  0  0  0  0  0  0  0  0  0  0  0
  -29.9811   12.0394  -14.9855 N   0  0  0  0  0  0  0  0  0  0  0  0
  -29.9633   12.1248  -15.9902 H   0  0  0  0  0  0  0  0  0  0  0  0
  -31.1736   11.6263  -14.3856 C   0  0  0  0  0  0  0  0  0  0  0  0
  -31.1405   10.5308  -13.5054 C   0  0  0  0  0  0  0  0  0  0  0  0
  -32.2861   10.1081  -12.8152 C   0  0  0  0  0  0  0  0  0  0  0  0
  -33.4939   10.7674  -13.0087 C   0  0  0  0  0  0  0  0  0  0  0  0
  -33.5285   11.8518  -13.8892 C   0  0  0  0  0  0  0  0  0  0  0  0
  -34.6978   12.5330  -14.1002 O   0  0  0  0  0  0  0  0  0  0  0  0
  -32.3940   12.2786  -14.5701 C   0  0  0  0  0  0  0  0  0  0  0  0
  -35.3575   12.0778  -13.5418 H   0  0  0  0  0  0  0  0  0  0  0  0
  -34.6910   10.4642  -12.4136 O   0  0  0  0  0  0  0  0  0  0  0  0
  -34.8594    9.1188  -11.9829 C   0  0  0  0  0  0  0  0  0  0  0  0
 18 19  1  0  0  0
 19  1  1  0  0  0
  1  2  1  0  0  0
  1  6  2  0  0  0
  2  3  2  0  0  0
  3  4  1  0  0  0
  4  5  2  0  0  0
  4 16  1  0  0  0
  5  6  1  0  0  0
  5  7  1  0  0  0
  7  8  1  0  0  0
  7 17  1  0  0  0
  8  9  2  0  0  0
  8 10  1  0  0  0
 10 11  1  0  0  0
 11 12  1  0  0  0
 11 16  2  0  0  0
 12 13  2  0  0  0
 13 14  1  0  0  0
 14 20  1  0  0  0
 14 15  2  0  0  0
 20 22  1  0  0  0
 20 21  1  0  0  0
 22 23  1  0  0  0
 22 28  2  0  0  0
 23 24  2  0  0  0
 24 25  1  0  0  0
 25 30  1  0  0  0
 25 26  2  0  0  0
 30 31  1  0  0  0
 26 27  1  0  0  0
 26 28  1  0  0  0
 27 29  1  0  0  0
 15 16  1  0  0  0
M  END
> <minimizedAffinity>
-5.37327

$$$$
