CHEMBL3935064


 37 40  0  0  0  0  0  0  0  0999 V2000
  -25.6364   -1.6993  -12.1684 C   0  0  0  0  0  0  0  0  0  0  0  0
  -25.6968   -1.5687  -13.5614 C   0  0  0  0  0  0  0  0  0  0  0  0
  -24.5854   -1.1420  -14.2942 C   0  0  0  0  0  0  0  0  0  0  0  0
  -23.4053   -0.7980  -13.6400 C   0  0  0  0  0  0  0  0  0  0  0  0
  -23.3633   -0.8845  -12.2457 C   0  0  0  0  0  0  0  0  0  0  0  0
  -22.2254   -0.6139  -11.5863 F   0  0  0  0  0  0  0  0  0  0  0  0
  -24.4775   -1.3084  -11.5013 C   0  0  0  0  0  0  0  0  0  0  0  0
  -27.9117   -2.6968   -9.5164 N   0  0  0  0  0  0  0  0  0  0  0  0
  -26.8608   -2.0071  -10.1007 C   0  0  0  0  0  0  0  0  0  0  0  0
  -26.1380   -1.2125   -9.5039 O   0  0  0  0  0  0  0  0  0  0  0  0
  -26.7054   -2.3017  -11.4530 N   0  0  0  0  0  0  0  0  0  0  0  0
  -28.1400   -3.5869   -9.9360 H   0  0  0  0  0  0  0  0  0  0  0  0
  -27.5772   -2.4250  -11.9499 H   0  0  0  0  0  0  0  0  0  0  0  0
  -28.8726   -0.9328   -6.3717 C   0  0  0  0  0  0  0  0  0  0  0  0
  -29.2987   -2.0090   -5.5794 C   0  0  0  0  0  0  0  0  0  0  0  0
  -29.2091   -3.3090   -6.0585 C   0  0  0  0  0  0  0  0  0  0  0  0
  -28.7198   -3.5428   -7.3426 C   0  0  0  0  0  0  0  0  0  0  0  0
  -28.3217   -2.4867   -8.1719 C   0  0  0  0  0  0  0  0  0  0  0  0
  -28.3554   -1.1837   -7.6609 C   0  0  0  0  0  0  0  0  0  0  0  0
  -28.0818    0.7601   -4.7143 C   0  0  0  0  0  0  0  0  0  0  0  0
  -29.0476    0.4795   -5.8568 C   0  0  0  0  0  0  0  0  0  0  0  0
  -30.3135    0.7181   -5.4079 F   0  0  0  0  0  0  0  0  0  0  0  0
  -28.8242    1.4184   -6.8241 F   0  0  0  0  0  0  0  0  0  0  0  0
  -22.2311   -0.4741  -14.2986 O   0  0  0  0  0  0  0  0  0  0  0  0
  -21.8798    0.8683  -14.4042 C   0  0  0  0  0  0  0  0  0  0  0  0
  -20.7178    1.1726  -15.0915 C   0  0  0  0  0  0  0  0  0  0  0  0
  -20.3967    2.5128  -15.1672 C   0  0  0  0  0  0  0  0  0  0  0  0
  -21.1757    3.4516  -14.6182 N   0  0  0  0  0  0  0  0  0  0  0  0
  -22.2614    3.0516  -13.9590 C   0  0  0  0  0  0  0  0  0  0  0  0
  -22.6514    1.7894  -13.8022 N   0  0  0  0  0  0  0  0  0  0  0  0
  -19.2096    2.9076  -15.8188 N   0  0  0  0  0  0  0  0  0  0  0  0
  -17.9436    2.5742  -15.3695 C   0  0  0  0  0  0  0  0  0  0  0  0
  -17.6528    1.9545  -14.3557 O   0  0  0  0  0  0  0  0  0  0  0  0
  -19.2932    3.4312  -16.6772 H   0  0  0  0  0  0  0  0  0  0  0  0
  -16.8354    3.0103  -16.2821 C   0  0  0  0  0  0  0  0  0  0  0  0
  -15.4256    3.0843  -15.7337 C   0  0  0  0  0  0  0  0  0  0  0  0
  -16.1597    4.3505  -16.0632 C   0  0  0  0  0  0  0  0  0  0  0  0
 20 21  1  0  0  0
 21 22  1  0  0  0
 21 23  1  0  0  0
 21 14  1  0  0  0
 14 15  1  0  0  0
 14 19  2  0  0  0
 15 16  2  0  0  0
 16 17  1  0  0  0
 17 18  2  0  0  0
 18  8  1  0  0  0
 18 19  1  0  0  0
  8  9  1  0  0  0
  8 12  1  0  0  0
  9 10  2  0  0  0
  9 11  1  0  0  0
 11  1  1  0  0  0
 11 13  1  0  0  0
  1  2  1  0  0  0
  1  7  2  0  0  0
  2  3  2  0  0  0
  3  4  1  0  0  0
  4 24  1  0  0  0
  4  5  2  0  0  0
 24 25  1  0  0  0
 25 26  1  0  0  0
 25 30  2  0  0  0
 26 27  2  0  0  0
 27 31  1  0  0  0
 27 28  1  0  0  0
 31 32  1  0  0  0
 31 34  1  0  0  0
 32 33  2  0  0  0
 32 35  1  0  0  0
 35 36  1  0  0  0
 35 37  1  0  0  0
 36 37  1  0  0  0
 28 29  2  0  0  0
 29 30  1  0  0  0
  5  6  1  0  0  0
  5  7  1  0  0  0
M  END
> <minimizedAffinity>
-11.97488

$$$$
