CHEMBL3893058


 39 44  0  0  0  0  0  0  0  0999 V2000
  -29.5602   -8.0354   -8.0115 C   0  0  0  0  0  0  0  0  0  0  0  0
  -29.6160   -9.4219   -8.1102 C   0  0  0  0  0  0  0  0  0  0  0  0
  -30.7739  -10.1313   -7.7293 C   0  0  0  0  0  0  0  0  0  0  0  0
  -30.8785  -11.5283   -7.7898 C   0  0  0  0  0  0  0  0  0  0  0  0
  -32.0177  -12.1656   -7.4722 N   0  0  0  0  0  0  0  0  0  0  0  0
  -33.0412  -11.4092   -7.0686 C   0  0  0  0  0  0  0  0  0  0  0  0
  -33.0371  -10.0738   -6.9542 N   0  0  0  0  0  0  0  0  0  0  0  0
  -31.9063   -9.4453   -7.2866 C   0  0  0  0  0  0  0  0  0  0  0  0
  -31.8423   -8.0577   -7.1999 C   0  0  0  0  0  0  0  0  0  0  0  0
  -30.6752   -7.3439   -7.5240 C   0  0  0  0  0  0  0  0  0  0  0  0
  -27.4584   -7.9617   -9.1302 C   0  0  0  0  0  0  0  0  0  0  0  0
  -28.4527   -7.2979   -8.3542 O   0  0  0  0  0  0  0  0  0  0  0  0
  -29.7451  -12.2852   -8.1896 N   0  0  0  0  0  0  0  0  0  0  0  0
  -29.7815  -12.4435   -9.1953 H   0  0  0  0  0  0  0  0  0  0  0  0
  -28.4214  -12.0210   -7.7612 C   0  0  0  0  0  0  0  0  0  0  0  0
  -27.4628  -11.6576   -8.6988 C   0  0  0  0  0  0  0  0  0  0  0  0
  -26.1484  -11.4227   -8.3119 C   0  0  0  0  0  0  0  0  0  0  0  0
  -25.7044  -11.5551   -6.9802 C   0  0  0  0  0  0  0  0  0  0  0  0
  -26.6975  -11.8917   -6.0202 C   0  0  0  0  0  0  0  0  0  0  0  0
  -26.2940  -12.1838   -4.3464 Cl  0  0  0  0  0  0  0  0  0  0  0  0
  -28.0451  -12.0929   -6.4103 C   0  0  0  0  0  0  0  0  0  0  0  0
  -29.2944  -12.4656   -5.2477 Cl  0  0  0  0  0  0  0  0  0  0  0  0
  -24.3608  -11.3026   -6.7416 N   0  0  0  0  0  0  0  0  0  0  0  0
  -23.8521  -10.1989   -5.9169 C   0  0  0  0  0  0  0  0  0  0  0  0
  -22.5899   -9.5841   -6.5688 C   0  0  0  0  0  0  0  0  0  0  0  0
  -21.5373  -10.5780   -6.8749 N   0  0  0  0  0  0  0  0  0  0  0  0
  -20.4142   -9.9316   -7.5497 C   0  0  0  0  0  0  0  0  0  0  0  0
  -22.1109  -11.6489   -7.7168 C   0  0  0  0  0  0  0  0  0  0  0  0
  -23.3317  -12.3218   -7.0445 C   0  0  0  0  0  0  0  0  0  0  0  0
  -30.5649   -5.9800   -7.4085 O   0  0  0  0  0  0  0  0  0  0  0  0
  -30.3391   -5.4357   -6.1010 C   0  0  0  0  0  0  0  0  0  0  0  0
  -29.6955   -6.4418   -5.1418 C   0  0  0  0  0  0  0  0  0  0  0  0
  -28.5010   -5.8698   -4.5879 O   0  0  0  0  0  0  0  0  0  0  0  0
  -28.4717   -4.4866   -4.9355 C   0  0  0  0  0  0  0  0  0  0  0  0
  -29.1925   -3.6173   -3.9266 C   0  0  0  0  0  0  0  0  0  0  0  0
  -28.3216   -3.1168   -3.0169 F   0  0  0  0  0  0  0  0  0  0  0  0
  -29.7662   -2.5117   -4.7850 C   0  0  0  0  0  0  0  0  0  0  0  0
  -29.9027   -3.0145   -6.1264 O   0  0  0  0  0  0  0  0  0  0  0  0
  -29.2984   -4.3182   -6.1877 C   0  0  0  0  0  0  0  0  0  0  0  0
 11 12  1  0  0  0
 12  1  1  0  0  0
  1  2  1  0  0  0
  1 10  2  0  0  0
  2  3  2  0  0  0
  3  4  1  0  0  0
  3  8  1  0  0  0
  4 13  1  0  0  0
  4  5  2  0  0  0
 13 15  1  0  0  0
 13 14  1  0  0  0
 15 16  1  0  0  0
 15 21  2  0  0  0
 16 17  2  0  0  0
 17 18  1  0  0  0
 18 23  1  0  0  0
 18 19  2  0  0  0
 23 24  1  0  0  0
 23 29  1  0  0  0
 24 25  1  0  0  0
 25 26  1  0  0  0
 26 27  1  0  0  0
 26 28  1  0  0  0
 28 29  1  0  0  0
 19 20  1  0  0  0
 19 21  1  0  0  0
 21 22  1  0  0  0
  5  6  1  0  0  0
  6  7  2  0  0  0
  7  8  1  0  0  0
  8  9  2  0  0  0
  9 10  1  0  0  0
 10 30  1  0  0  0
 31 32  1  0  0  0
 31 39  1  0  0  0
 31 30  1  0  0  0
 32 33  1  0  0  0
 33 34  1  0  0  0
 34 35  1  0  0  0
 34 39  1  0  0  0
 35 36  1  0  0  0
 35 37  1  0  0  0
 37 38  1  0  0  0
 38 39  1  0  0  0
M  END
> <minimizedAffinity>
-8.34079

$$$$
