CHEMBL397496


 38 43  0  0  0  0  0  0  0  0999 V2000
  -26.9616   -1.9870  -10.9059 C   0  0  0  0  0  0  0  0  0  0  0  0
  -25.7511   -1.5594  -10.6238 N   0  0  0  0  0  0  0  0  0  0  0  0
  -25.1299   -1.3247  -11.8175 C   0  0  0  0  0  0  0  0  0  0  0  0
  -23.8331   -0.8504  -12.0773 C   0  0  0  0  0  0  0  0  0  0  0  0
  -23.4230   -0.7246  -13.4075 C   0  0  0  0  0  0  0  0  0  0  0  0
  -24.3143   -0.9965  -14.4581 C   0  0  0  0  0  0  0  0  0  0  0  0
  -25.6120   -1.4762  -14.2147 C   0  0  0  0  0  0  0  0  0  0  0  0
  -25.9749   -1.6285  -12.8763 C   0  0  0  0  0  0  0  0  0  0  0  0
  -27.1307   -2.0582  -12.2718 N   0  0  0  0  0  0  0  0  0  0  0  0
  -27.9790   -2.3226  -12.7382 H   0  0  0  0  0  0  0  0  0  0  0  0
  -27.9836   -2.3265  -10.0858 N   0  0  0  0  0  0  0  0  0  0  0  0
  -28.9113   -2.4465  -10.4719 H   0  0  0  0  0  0  0  0  0  0  0  0
  -28.1986   -2.8648   -6.3645 C   0  0  0  0  0  0  0  0  0  0  0  0
  -28.2416   -3.0934   -7.7536 C   0  0  0  0  0  0  0  0  0  0  0  0
  -28.0240   -2.0865   -8.6964 C   0  0  0  0  0  0  0  0  0  0  0  0
  -27.8711   -0.7809   -8.2211 C   0  0  0  0  0  0  0  0  0  0  0  0
  -27.7758   -0.5299   -6.8465 C   0  0  0  0  0  0  0  0  0  0  0  0
  -27.8958   -1.5747   -5.9238 C   0  0  0  0  0  0  0  0  0  0  0  0
  -27.5914   -1.2183   -4.2632 Cl  0  0  0  0  0  0  0  0  0  0  0  0
  -28.4946   -4.0368   -5.4529 C   0  0  0  0  0  0  0  0  0  0  0  0
  -28.7222   -8.5122   -3.7764 C   0  0  0  0  0  0  0  0  0  0  0  0
  -29.4585   -7.5319   -4.5703 N   0  0  0  0  0  0  0  0  0  0  0  0
  -29.7522   -6.3231   -3.7813 C   0  0  0  0  0  0  0  0  0  0  0  0
  -30.4454   -5.2254   -4.6279 C   0  0  0  0  0  0  0  0  0  0  0  0
  -29.6909   -4.8135   -5.8348 N   0  0  0  0  0  0  0  0  0  0  0  0
  -29.3935   -6.0470   -6.6030 C   0  0  0  0  0  0  0  0  0  0  0  0
  -28.7141   -7.1824   -5.7967 C   0  0  0  0  0  0  0  0  0  0  0  0
  -22.1237   -0.2869  -13.6016 O   0  0  0  0  0  0  0  0  0  0  0  0
  -21.9040    1.0434  -13.9207 C   0  0  0  0  0  0  0  0  0  0  0  0
  -22.8829    2.0178  -13.7326 C   0  0  0  0  0  0  0  0  0  0  0  0
  -22.5485    3.3279  -13.9760 C   0  0  0  0  0  0  0  0  0  0  0  0
  -21.3455    3.7202  -14.4336 N   0  0  0  0  0  0  0  0  0  0  0  0
  -20.4302    2.7772  -14.7096 C   0  0  0  0  0  0  0  0  0  0  0  0
  -19.2137    3.1844  -15.2365 C   0  0  0  0  0  0  0  0  0  0  0  0
  -18.2171    2.2714  -15.5819 C   0  0  0  0  0  0  0  0  0  0  0  0
  -18.4398    0.9119  -15.3980 C   0  0  0  0  0  0  0  0  0  0  0  0
  -19.6475    0.4778  -14.8476 C   0  0  0  0  0  0  0  0  0  0  0  0
  -20.6588    1.4016  -14.4875 C   0  0  0  0  0  0  0  0  0  0  0  0
 21 22  1  0  0  0
 22 23  1  0  0  0
 22 27  1  0  0  0
 23 24  1  0  0  0
 24 25  1  0  0  0
 25 20  1  0  0  0
 25 26  1  0  0  0
 20 13  1  0  0  0
 13 14  1  0  0  0
 13 18  2  0  0  0
 14 15  2  0  0  0
 15 11  1  0  0  0
 15 16  1  0  0  0
 11  1  1  0  0  0
 11 12  1  0  0  0
  1  2  2  0  0  0
  1  9  1  0  0  0
  2  3  1  0  0  0
  3  4  1  0  0  0
  3  8  2  0  0  0
  4  5  2  0  0  0
  5 28  1  0  0  0
  5  6  1  0  0  0
 28 29  1  0  0  0
 29 30  1  0  0  0
 29 38  2  0  0  0
 30 31  2  0  0  0
 31 32  1  0  0  0
 32 33  2  0  0  0
 33 34  1  0  0  0
 33 38  1  0  0  0
 34 35  2  0  0  0
 35 36  1  0  0  0
 36 37  2  0  0  0
 37 38  1  0  0  0
  6  7  2  0  0  0
  7  8  1  0  0  0
  8  9  1  0  0  0
  9 10  1  0  0  0
 16 17  2  0  0  0
 17 18  1  0  0  0
 18 19  1  0  0  0
 26 27  1  0  0  0
M  END
> <minimizedAffinity>
-12.40407

$$$$
