CHEMBL450786


 45 50  0  0  0  0  0  0  0  0999 V2000
  -20.9235    0.0826  -14.3701 C   0  0  0  0  0  0  0  0  0  0  0  0
  -20.6443    1.3780  -14.5865 C   0  0  0  0  0  0  0  0  0  0  0  0
  -21.6148    2.5388  -14.4666 C   0  0  0  0  0  0  0  0  0  0  0  0
  -22.8176    2.5324  -14.3010 O   0  0  0  0  0  0  0  0  0  0  0  0
  -20.8361    3.6687  -14.6407 N   0  0  0  0  0  0  0  0  0  0  0  0
  -19.5203    3.3409  -14.9310 C   0  0  0  0  0  0  0  0  0  0  0  0
  -18.5133    4.2368  -15.2186 C   0  0  0  0  0  0  0  0  0  0  0  0
  -17.2718    3.7078  -15.5653 C   0  0  0  0  0  0  0  0  0  0  0  0
  -17.0674    2.3079  -15.6197 C   0  0  0  0  0  0  0  0  0  0  0  0
  -18.0976    1.4098  -15.2916 C   0  0  0  0  0  0  0  0  0  0  0  0
  -19.3322    1.9509  -14.9407 C   0  0  0  0  0  0  0  0  0  0  0  0
  -21.2307    4.5954  -14.6203 H   0  0  0  0  0  0  0  0  0  0  0  0
  -25.4947   -0.7058  -15.5263 C   0  0  0  0  0  0  0  0  0  0  0  0
  -24.3833   -0.7511  -14.5280 C   0  0  0  0  0  0  0  0  0  0  0  0
  -23.1129   -0.5719  -15.0232 N   0  0  0  0  0  0  0  0  0  0  0  0
  -22.2262   -0.3452  -14.0140 C   0  0  0  0  0  0  0  0  0  0  0  0
  -22.8938   -0.5477  -12.8209 C   0  0  0  0  0  0  0  0  0  0  0  0
  -22.3081   -0.3730  -11.4581 C   0  0  0  0  0  0  0  0  0  0  0  0
  -24.2838   -0.8816  -13.1335 C   0  0  0  0  0  0  0  0  0  0  0  0
  -22.9014   -0.4571  -16.0042 H   0  0  0  0  0  0  0  0  0  0  0  0
  -25.3173   -1.1427  -12.0879 C   0  0  0  0  0  0  0  0  0  0  0  0
  -25.0275   -1.0055  -10.8958 O   0  0  0  0  0  0  0  0  0  0  0  0
  -26.5807   -1.6082  -12.4388 N   0  0  0  0  0  0  0  0  0  0  0  0
  -26.9460   -2.1789  -13.7101 C   0  0  0  0  0  0  0  0  0  0  0  0
  -28.4287   -1.9059  -13.7521 C   0  0  0  0  0  0  0  0  0  0  0  0
  -28.8589   -2.2955  -12.3403 C   0  0  0  0  0  0  0  0  0  0  0  0
  -27.5891   -2.0849  -11.4690 C   0  0  0  0  0  0  0  0  0  0  0  0
  -27.8792   -1.2640  -10.1901 C   0  0  0  0  0  0  0  0  0  0  0  0
  -27.2289   -1.8186   -8.9659 N   0  0  0  0  0  0  0  0  0  0  0  0
  -27.5608   -3.2477   -8.8015 C   0  0  0  0  0  0  0  0  0  0  0  0
  -28.9166   -3.2481   -8.1200 C   0  0  0  0  0  0  0  0  0  0  0  0
  -28.7797   -2.1164   -7.1211 C   0  0  0  0  0  0  0  0  0  0  0  0
  -27.7238   -1.1908   -7.7215 C   0  0  0  0  0  0  0  0  0  0  0  0
  -15.4391    1.7944  -16.1769 S   0  0  0  0  0  0  0  0  0  0  0  0
  -15.6652    0.5419  -16.8739 O   0  0  0  0  0  0  0  0  0  0  0  0
  -14.9052    2.9459  -16.8795 O   0  0  0  0  0  0  0  0  0  0  0  0
  -14.4377    1.4759  -14.7313 C   0  0  0  0  0  0  0  0  0  0  0  0
  -14.4717   -0.0026  -14.3840 C   0  0  0  0  0  0  0  0  0  0  0  0
  -13.5897   -0.9210  -14.9897 C   0  0  0  0  0  0  0  0  0  0  0  0
  -12.3761   -0.4253  -16.1175 Cl  0  0  0  0  0  0  0  0  0  0  0  0
  -13.6199   -2.2863  -14.6683 C   0  0  0  0  0  0  0  0  0  0  0  0
  -14.5314   -2.7733  -13.7363 C   0  0  0  0  0  0  0  0  0  0  0  0
  -15.4068   -1.8882  -13.1195 C   0  0  0  0  0  0  0  0  0  0  0  0
  -15.3766   -0.5195  -13.4334 C   0  0  0  0  0  0  0  0  0  0  0  0
  -16.4628    0.4969  -12.5505 Cl  0  0  0  0  0  0  0  0  0  0  0  0
 13 14  1  0  0  0
 14 15  1  0  0  0
 14 19  2  0  0  0
 15 16  1  0  0  0
 15 20  1  0  0  0
 16  1  1  0  0  0
 16 17  2  0  0  0
  1  2  2  0  0  0
  2  3  1  0  0  0
  2 11  1  0  0  0
  3  4  2  0  0  0
  3  5  1  0  0  0
  5  6  1  0  0  0
  5 12  1  0  0  0
  6  7  1  0  0  0
  6 11  2  0  0  0
  7  8  2  0  0  0
  8  9  1  0  0  0
  9 34  1  0  0  0
  9 10  2  0  0  0
 34 35  2  0  0  0
 34 36  2  0  0  0
 34 37  1  0  0  0
 37 38  1  0  0  0
 38 39  1  0  0  0
 38 44  2  0  0  0
 39 40  1  0  0  0
 39 41  2  0  0  0
 41 42  1  0  0  0
 42 43  2  0  0  0
 43 44  1  0  0  0
 44 45  1  0  0  0
 10 11  1  0  0  0
 17 18  1  0  0  0
 17 19  1  0  0  0
 19 21  1  0  0  0
 21 22  2  0  0  0
 21 23  1  0  0  0
 23 24  1  0  0  0
 23 27  1  0  0  0
 24 25  1  0  0  0
 25 26  1  0  0  0
 26 27  1  0  0  0
 27 28  1  0  0  0
 28 29  1  0  0  0
 29 30  1  0  0  0
 29 33  1  0  0  0
 30 31  1  0  0  0
 31 32  1  0  0  0
 32 33  1  0  0  0
M  END
> <minimizedAffinity>
-8.02539

$$$$
