CHEMBL2385596


 32 37  0  0  0  0  0  0  0  0999 V2000
  -24.4912   -0.5540  -12.3397 C   0  0  0  0  0  0  0  0  0  0  0  0
  -24.3866   -0.9844  -10.9160 C   0  0  0  0  0  0  0  0  0  0  0  0
  -25.3541   -1.3901  -10.0847 N   0  0  0  0  0  0  0  0  0  0  0  0
  -26.6426   -1.6276  -10.5452 C   0  0  0  0  0  0  0  0  0  0  0  0
  -27.8098   -2.2358   -9.9758 C   0  0  0  0  0  0  0  0  0  0  0  0
  -28.7369   -2.0138  -11.1681 C   0  0  0  0  0  0  0  0  0  0  0  0
  -28.1442   -1.4759  -12.2486 N   0  0  0  0  0  0  0  0  0  0  0  0
  -26.8485   -1.2561  -11.9167 N   0  0  0  0  0  0  0  0  0  0  0  0
  -25.7752   -0.7201  -12.7491 C   0  0  0  0  0  0  0  0  0  0  0  0
  -28.2114   -2.9250   -8.4252 C   0  0  0  0  0  0  0  0  0  0  0  0
  -28.5436   -4.3038   -7.8327 C   0  0  0  0  0  0  0  0  0  0  0  0
  -28.8761   -4.5085   -6.3541 C   0  0  0  0  0  0  0  0  0  0  0  0
  -28.2901   -3.5669   -5.8462 N   0  0  0  0  0  0  0  0  0  0  0  0
  -28.6711   -2.3860   -6.1730 C   0  0  0  0  0  0  0  0  0  0  0  0
  -29.0489   -1.6371   -5.1317 C   0  0  0  0  0  0  0  0  0  0  0  0
  -28.8796   -0.2821   -5.2004 C   0  0  0  0  0  0  0  0  0  0  0  0
  -28.2660    0.2280   -6.3284 C   0  0  0  0  0  0  0  0  0  0  0  0
  -27.8530   -0.6390   -7.3414 C   0  0  0  0  0  0  0  0  0  0  0  0
  -28.2923   -1.9540   -7.4101 C   0  0  0  0  0  0  0  0  0  0  0  0
  -20.9575    1.0780  -14.4891 C   0  0  0  0  0  0  0  0  0  0  0  0
  -21.8687    1.9096  -13.8304 C   0  0  0  0  0  0  0  0  0  0  0  0
  -23.0169    1.4110  -13.1688 C   0  0  0  0  0  0  0  0  0  0  0  0
  -23.3090    0.0259  -13.1063 C   0  0  0  0  0  0  0  0  0  0  0  0
  -22.4115   -0.7946  -13.8073 C   0  0  0  0  0  0  0  0  0  0  0  0
  -21.2480   -0.2914  -14.4394 C   0  0  0  0  0  0  0  0  0  0  0  0
  -16.1129    3.5314  -15.7420 C   0  0  0  0  0  0  0  0  0  0  0  0
  -17.3827    2.8472  -15.9582 N   0  0  0  0  0  0  0  0  0  0  0  0
  -17.4075    1.5394  -15.2641 C   0  0  0  0  0  0  0  0  0  0  0  0
  -18.7171    0.7739  -15.5548 C   0  0  0  0  0  0  0  0  0  0  0  0
  -19.8900    1.5913  -15.1947 N   0  0  0  0  0  0  0  0  0  0  0  0
  -19.8837    2.9632  -15.7255 C   0  0  0  0  0  0  0  0  0  0  0  0
  -18.5204    3.6496  -15.4516 C   0  0  0  0  0  0  0  0  0  0  0  0
 26 27  1  0  0  0
 27 28  1  0  0  0
 27 32  1  0  0  0
 28 29  1  0  0  0
 29 30  1  0  0  0
 30 20  1  0  0  0
 30 31  1  0  0  0
 20 21  1  0  0  0
 20 25  2  0  0  0
 21 22  2  0  0  0
 22 23  1  0  0  0
 23  1  1  0  0  0
 23 24  2  0  0  0
  1  2  1  0  0  0
  1  9  2  0  0  0
  2  3  2  0  0  0
  3  4  1  0  0  0
  4  5  2  0  0  0
  4  8  1  0  0  0
  5 10  1  0  0  0
  5  6  1  0  0  0
 10 11  1  0  0  0
 10 19  2  0  0  0
 11 12  2  0  0  0
 12 13  1  0  0  0
 13 14  2  0  0  0
 14 15  1  0  0  0
 14 19  1  0  0  0
 15 16  2  0  0  0
 16 17  1  0  0  0
 17 18  2  0  0  0
 18 19  1  0  0  0
  6  7  2  0  0  0
  7  8  1  0  0  0
  8  9  1  0  0  0
 24 25  1  0  0  0
 31 32  1  0  0  0
M  END
> <minimizedAffinity>
-9.29499

$$$$
