CHEMBL3894122


 29 33  0  0  0  0  0  0  0  0999 V2000
  -27.6174   -2.1697   -8.3477 C   0  0  0  0  0  0  0  0  0  0  0  0
  -27.8423   -1.0821   -7.5089 C   0  0  0  0  0  0  0  0  0  0  0  0
  -28.6663   -1.2140   -6.3992 C   0  0  0  0  0  0  0  0  0  0  0  0
  -29.2747   -2.4377   -6.1248 C   0  0  0  0  0  0  0  0  0  0  0  0
  -29.0846   -3.5646   -6.9407 C   0  0  0  0  0  0  0  0  0  0  0  0
  -28.2551   -3.3910   -8.0657 C   0  0  0  0  0  0  0  0  0  0  0  0
  -29.6560   -4.7863   -6.6249 N   0  0  0  0  0  0  0  0  0  0  0  0
  -29.9877   -5.8027   -7.6309 C   0  0  0  0  0  0  0  0  0  0  0  0
  -29.2448   -7.1131   -7.3253 C   0  0  0  0  0  0  0  0  0  0  0  0
  -29.2492   -7.4361   -5.8549 C   0  0  0  0  0  0  0  0  0  0  0  0
  -29.6311   -6.5197   -4.9426 C   0  0  0  0  0  0  0  0  0  0  0  0
  -29.5552   -6.9510   -3.5194 C   0  0  0  0  0  0  0  0  0  0  0  0
  -29.1719   -8.1158   -3.0902 N   0  0  0  0  0  0  0  0  0  0  0  0
  -28.7981   -9.0082   -4.0569 C   0  0  0  0  0  0  0  0  0  0  0  0
  -28.3341  -10.2992   -3.9690 C   0  0  0  0  0  0  0  0  0  0  0  0
  -28.1164  -10.6987   -5.2941 C   0  0  0  0  0  0  0  0  0  0  0  0
  -28.4126   -9.7471   -6.1802 N   0  0  0  0  0  0  0  0  0  0  0  0
  -28.8295   -8.6962   -5.4243 N   0  0  0  0  0  0  0  0  0  0  0  0
  -30.0347   -5.1139   -5.2440 C   0  0  0  0  0  0  0  0  0  0  0  0
  -28.1559   -1.0287  -11.0095 O   0  0  0  0  0  0  0  0  0  0  0  0
  -27.0998   -1.5742  -10.7088 C   0  0  0  0  0  0  0  0  0  0  0  0
  -26.7641   -2.1053   -9.4753 N   0  0  0  0  0  0  0  0  0  0  0  0
  -25.7939   -2.3459   -9.3183 H   0  0  0  0  0  0  0  0  0  0  0  0
  -26.0348   -1.6189  -11.7440 C   0  0  0  0  0  0  0  0  0  0  0  0
  -24.7019   -1.6065  -11.3114 C   0  0  0  0  0  0  0  0  0  0  0  0
  -23.6630   -1.6069  -12.2410 C   0  0  0  0  0  0  0  0  0  0  0  0
  -23.9550   -1.6093  -13.6037 C   0  0  0  0  0  0  0  0  0  0  0  0
  -25.2826   -1.6101  -14.0396 C   0  0  0  0  0  0  0  0  0  0  0  0
  -26.3282   -1.6140  -13.1119 C   0  0  0  0  0  0  0  0  0  0  0  0
 20 21  2  0  0  0
 21 22  1  0  0  0
 21 24  1  0  0  0
 22  1  1  0  0  0
 22 23  1  0  0  0
  1  2  1  0  0  0
  1  6  2  0  0  0
  2  3  2  0  0  0
  3  4  1  0  0  0
  4  5  2  0  0  0
  5  7  1  0  0  0
  5  6  1  0  0  0
  7  8  1  0  0  0
  7 19  1  0  0  0
  8  9  1  0  0  0
  9 10  1  0  0  0
 10 11  2  0  0  0
 10 18  1  0  0  0
 11 12  1  0  0  0
 11 19  1  0  0  0
 12 13  2  0  0  0
 13 14  1  0  0  0
 14 15  2  0  0  0
 14 18  1  0  0  0
 15 16  1  0  0  0
 16 17  2  0  0  0
 17 18  1  0  0  0
 24 25  1  0  0  0
 24 29  2  0  0  0
 25 26  2  0  0  0
 26 27  1  0  0  0
 27 28  2  0  0  0
 28 29  1  0  0  0
M  END
> <minimizedAffinity>
-10.25119

$$$$
