CHEMBL2322137


 19 22  0  0  0  0  0  0  0  0999 V2000
  -27.9184   -2.1918   -8.8494 C   0  0  0  0  0  0  0  0  0  0  0  0
  -28.4249   -3.3043   -8.1997 C   0  0  0  0  0  0  0  0  0  0  0  0
  -28.4023   -2.9659   -6.8473 C   0  0  0  0  0  0  0  0  0  0  0  0
  -27.8989   -1.7039   -6.6505 C   0  0  0  0  0  0  0  0  0  0  0  0
  -27.7211   -1.0541   -5.4856 N   0  0  0  0  0  0  0  0  0  0  0  0
  -28.0790   -1.7510   -4.3722 C   0  0  0  0  0  0  0  0  0  0  0  0
  -28.5894   -3.0316   -4.4963 C   0  0  0  0  0  0  0  0  0  0  0  0
  -29.0033   -3.8925   -3.5222 O   0  0  0  0  0  0  0  0  0  0  0  0
  -29.4726   -5.0717   -4.1122 N   0  0  0  0  0  0  0  0  0  0  0  0
  -29.3528   -4.9022   -5.4450 C   0  0  0  0  0  0  0  0  0  0  0  0
  -28.7765   -3.6612   -5.6910 C   0  0  0  0  0  0  0  0  0  0  0  0
  -27.6086   -1.2294   -7.9050 N   0  0  0  0  0  0  0  0  0  0  0  0
  -27.2225   -0.3150   -8.0871 H   0  0  0  0  0  0  0  0  0  0  0  0
  -29.8455   -5.9156   -6.4273 C   0  0  0  0  0  0  0  0  0  0  0  0
  -30.9551   -6.8309   -5.8878 C   0  0  0  0  0  0  0  0  0  0  0  0
  -31.5082   -7.7085   -7.0105 C   0  0  0  0  0  0  0  0  0  0  0  0
  -30.4063   -8.5223   -7.6863 C   0  0  0  0  0  0  0  0  0  0  0  0
  -29.2436   -7.6476   -8.1516 C   0  0  0  0  0  0  0  0  0  0  0  0
  -28.7120   -6.7606   -7.0257 C   0  0  0  0  0  0  0  0  0  0  0  0
  1  2  2  0  0  0
  1 12  1  0  0  0
  2  3  1  0  0  0
  3  4  1  0  0  0
  3 11  2  0  0  0
  4  5  2  0  0  0
  4 12  1  0  0  0
  5  6  1  0  0  0
  6  7  2  0  0  0
  7  8  1  0  0  0
  7 11  1  0  0  0
  8  9  1  0  0  0
  9 10  2  0  0  0
 10 14  1  0  0  0
 10 11  1  0  0  0
 14 15  1  0  0  0
 14 19  1  0  0  0
 15 16  1  0  0  0
 16 17  1  0  0  0
 17 18  1  0  0  0
 18 19  1  0  0  0
 12 13  1  0  0  0
M  END
> <minimizedAffinity>
-7.24255

$$$$
