CHEMBL3644020


 34 36  0  0  0  0  0  0  0  0999 V2000
  -29.5271   -4.4354   -5.0277 C   0  0  0  0  0  0  0  0  0  0  0  0
  -29.8733   -5.5874   -5.6558 N   0  0  0  0  0  0  0  0  0  0  0  0
  -30.7719   -6.3668   -5.0210 C   0  0  0  0  0  0  0  0  0  0  0  0
  -31.1998   -6.1130   -3.7722 N   0  0  0  0  0  0  0  0  0  0  0  0
  -30.8625   -4.9512   -3.2122 C   0  0  0  0  0  0  0  0  0  0  0  0
  -30.0706   -4.0260   -3.8324 C   0  0  0  0  0  0  0  0  0  0  0  0
  -29.9287   -2.6919   -3.2077 C   0  0  0  0  0  0  0  0  0  0  0  0
  -30.1985   -1.6245   -4.0036 F   0  0  0  0  0  0  0  0  0  0  0  0
  -30.7659   -2.5638   -2.1345 F   0  0  0  0  0  0  0  0  0  0  0  0
  -28.6788   -2.4825   -2.7094 F   0  0  0  0  0  0  0  0  0  0  0  0
  -31.3568   -7.4571   -5.6696 N   0  0  0  0  0  0  0  0  0  0  0  0
  -32.1996   -7.7807   -5.2180 H   0  0  0  0  0  0  0  0  0  0  0  0
  -30.6700   -8.3923   -6.4791 C   0  0  0  0  0  0  0  0  0  0  0  0
  -29.6194   -9.1803   -5.9700 C   0  0  0  0  0  0  0  0  0  0  0  0
  -28.8456  -10.0032   -6.7932 C   0  0  0  0  0  0  0  0  0  0  0  0
  -29.1152  -10.0481   -8.1573 C   0  0  0  0  0  0  0  0  0  0  0  0
  -30.1941   -9.3272   -8.6815 C   0  0  0  0  0  0  0  0  0  0  0  0
  -30.9679   -8.5077   -7.8423 C   0  0  0  0  0  0  0  0  0  0  0  0
  -28.1503  -11.1220   -9.1951 S   0  0  0  0  0  0  0  0  0  0  0  0
  -26.8212  -11.2013   -8.6143 O   0  0  0  0  0  0  0  0  0  0  0  0
  -28.9220  -12.3374   -9.3778 O   0  0  0  0  0  0  0  0  0  0  0  0
  -27.9803  -10.3601  -10.7996 C   0  0  0  0  0  0  0  0  0  0  0  0
  -26.8529   -9.5784  -11.0807 C   0  0  0  0  0  0  0  0  0  0  0  0
  -26.6660   -9.0720  -12.3696 C   0  0  0  0  0  0  0  0  0  0  0  0
  -27.5928   -9.3537  -13.3736 C   0  0  0  0  0  0  0  0  0  0  0  0
  -28.7106  -10.1414  -13.0939 C   0  0  0  0  0  0  0  0  0  0  0  0
  -28.9055  -10.6503  -11.8077 C   0  0  0  0  0  0  0  0  0  0  0  0
  -28.6045   -3.5785   -5.5977 O   0  0  0  0  0  0  0  0  0  0  0  0
  -28.9987   -2.7978   -6.7397 C   0  0  0  0  0  0  0  0  0  0  0  0
  -28.6853   -3.5389   -8.0438 C   0  0  0  0  0  0  0  0  0  0  0  0
  -27.3153   -1.3017   -5.4677 C   0  0  0  0  0  0  0  0  0  0  0  0
  -28.1701   -1.4787   -6.7162 C   0  0  0  0  0  0  0  0  0  0  0  0
  -27.2961   -1.4101   -7.8508 O   0  0  0  0  0  0  0  0  0  0  0  0
  -26.7088   -2.1868   -7.8031 H   0  0  0  0  0  0  0  0  0  0  0  0
 31 32  1  0  0  0
 32 33  1  0  0  0
 32 29  1  0  0  0
 33 34  1  0  0  0
 29 30  1  0  0  0
 29 28  1  0  0  0
 28  1  1  0  0  0
  1  2  1  0  0  0
  1  6  2  0  0  0
  2  3  2  0  0  0
  3 11  1  0  0  0
  3  4  1  0  0  0
 11 13  1  0  0  0
 11 12  1  0  0  0
 13 14  1  0  0  0
 13 18  2  0  0  0
 14 15  2  0  0  0
 15 16  1  0  0  0
 16 19  1  0  0  0
 16 17  2  0  0  0
 19 20  2  0  0  0
 19 21  2  0  0  0
 19 22  1  0  0  0
 22 23  1  0  0  0
 22 27  2  0  0  0
 23 24  2  0  0  0
 24 25  1  0  0  0
 25 26  2  0  0  0
 26 27  1  0  0  0
 17 18  1  0  0  0
  4  5  2  0  0  0
  5  6  1  0  0  0
  6  7  1  0  0  0
  7  8  1  0  0  0
  7  9  1  0  0  0
  7 10  1  0  0  0
M  END
> <minimizedAffinity>
-8.49834

$$$$
