CHEMBL3967065


 39 43  0  0  0  0  0  0  0  0999 V2000
  -28.8430   -8.3977   -5.7322 N   0  0  0  0  0  0  0  0  0  0  0  0
  -29.0026   -6.8989   -5.7216 C   0  0  0  0  0  0  0  0  0  0  0  0
  -29.5977   -6.4805   -6.8983 C   0  0  0  0  0  0  0  0  0  0  0  0
  -29.4426   -5.2429   -7.3496 C   0  0  0  0  0  0  0  0  0  0  0  0
  -28.8174   -4.2950   -6.6581 C   0  0  0  0  0  0  0  0  0  0  0  0
  -28.3765   -3.3106   -7.4217 N   0  0  0  0  0  0  0  0  0  0  0  0
  -27.8069   -2.2237   -6.9731 C   0  0  0  0  0  0  0  0  0  0  0  0
  -28.0913   -1.8946   -5.6879 C   0  0  0  0  0  0  0  0  0  0  0  0
  -28.2885   -3.0118   -4.7796 N   0  0  0  0  0  0  0  0  0  0  0  0
  -28.5308   -4.3405   -5.3120 C   0  0  0  0  0  0  0  0  0  0  0  0
  -28.5538   -5.7736   -4.7847 C   0  0  0  0  0  0  0  0  0  0  0  0
  -28.7332   -0.4374   -5.7947 C   0  0  0  0  0  0  0  0  0  0  0  0
  -28.0575    0.7021   -6.3883 C   0  0  0  0  0  0  0  0  0  0  0  0
  -28.9286    1.6958   -6.6280 N   0  0  0  0  0  0  0  0  0  0  0  0
  -30.1165    1.2980   -6.2136 N   0  0  0  0  0  0  0  0  0  0  0  0
  -31.3545    2.0497   -6.5241 C   0  0  0  0  0  0  0  0  0  0  0  0
  -30.0238    0.0550   -5.6421 C   0  0  0  0  0  0  0  0  0  0  0  0
  -31.1311  -10.7476   -7.8311 C   0  0  0  0  0  0  0  0  0  0  0  0
  -30.2964  -10.9495   -8.9202 C   0  0  0  0  0  0  0  0  0  0  0  0
  -29.0257  -10.3778   -8.9547 C   0  0  0  0  0  0  0  0  0  0  0  0
  -28.5729   -9.6275   -7.8686 C   0  0  0  0  0  0  0  0  0  0  0  0
  -29.3774   -9.3025   -6.7709 C   0  0  0  0  0  0  0  0  0  0  0  0
  -30.6998   -9.9116   -6.7758 C   0  0  0  0  0  0  0  0  0  0  0  0
  -32.9308  -12.0095   -6.7187 C   0  0  0  0  0  0  0  0  0  0  0  0
  -32.3734  -11.3072   -7.7783 O   0  0  0  0  0  0  0  0  0  0  0  0
  -28.2255  -10.5076  -10.0432 O   0  0  0  0  0  0  0  0  0  0  0  0
  -27.0563   -9.7924  -10.2193 C   0  0  0  0  0  0  0  0  0  0  0  0
  -28.1874   -8.9801   -4.4674 C   0  0  0  0  0  0  0  0  0  0  0  0
  -26.6212   -9.1463   -4.6570 C   0  0  0  0  0  0  0  0  0  0  0  0
  -25.9455   -8.0230   -4.1766 O   0  0  0  0  0  0  0  0  0  0  0  0
  -26.3612   -7.7828   -3.3126 H   0  0  0  0  0  0  0  0  0  0  0  0
  -25.8624  -10.4263   -4.1902 C   0  0  0  0  0  0  0  0  0  0  0  0
  -24.5287  -10.5291   -4.8229 N   0  0  0  0  0  0  0  0  0  0  0  0
  -23.4170  -10.5746   -3.8475 C   0  0  0  0  0  0  0  0  0  0  0  0
  -22.5365  -11.7549   -4.2205 C   0  0  0  0  0  0  0  0  0  0  0  0
  -22.8141  -11.9200   -5.6961 C   0  0  0  0  0  0  0  0  0  0  0  0
  -24.3179  -11.6862   -5.7159 C   0  0  0  0  0  0  0  0  0  0  0  0
  -22.0935  -10.8842   -6.5033 C   0  0  0  0  0  0  0  0  0  0  0  0
  -21.5245  -10.1160   -7.1186 N   0  0  0  0  0  0  0  0  0  0  0  0
 24 25  1  0  0  0
 25 18  1  0  0  0
 18 19  1  0  0  0
 18 23  2  0  0  0
 19 20  2  0  0  0
 20 26  1  0  0  0
 20 21  1  0  0  0
 26 27  1  0  0  0
 21 22  2  0  0  0
 22  1  1  0  0  0
 22 23  1  0  0  0
  1 28  1  0  0  0
  1  2  1  0  0  0
 28 29  1  0  0  0
 29 30  1  0  0  0
 29 32  1  0  0  0
 30 31  1  0  0  0
 32 33  1  0  0  0
 33 34  1  0  0  0
 33 37  1  0  0  0
 34 35  1  0  0  0
 35 36  1  0  0  0
 36 38  1  0  0  0
 36 37  1  0  0  0
 38 39  3  0  0  0
  2  3  1  0  0  0
  2 11  2  0  0  0
  3  4  2  0  0  0
  4  5  1  0  0  0
  5  6  1  0  0  0
  5 10  2  0  0  0
  6  7  2  0  0  0
  7  8  1  0  0  0
  8 12  1  0  0  0
  8  9  2  0  0  0
 12 13  1  0  0  0
 12 17  2  0  0  0
 13 14  2  0  0  0
 14 15  1  0  0  0
 15 16  1  0  0  0
 15 17  1  0  0  0
  9 10  1  0  0  0
 10 11  1  0  0  0
M  END
> <minimizedAffinity>
-8.35288

$$$$
