CHEMBL4175773


 33 35  0  0  0  0  0  0  0  0999 V2000
  -23.7707    0.0817  -13.2650 C   0  0  0  0  0  0  0  0  0  0  0  0
  -24.2301    0.4491  -11.9988 C   0  0  0  0  0  0  0  0  0  0  0  0
  -25.2809   -0.2184  -11.3786 C   0  0  0  0  0  0  0  0  0  0  0  0
  -25.9338   -1.2884  -11.9909 C   0  0  0  0  0  0  0  0  0  0  0  0
  -25.5118   -1.6545  -13.2738 C   0  0  0  0  0  0  0  0  0  0  0  0
  -24.4387   -0.9809  -13.8993 C   0  0  0  0  0  0  0  0  0  0  0  0
  -20.5440    2.1800  -15.0498 C   0  0  0  0  0  0  0  0  0  0  0  0
  -21.5397    2.9093  -14.4209 C   0  0  0  0  0  0  0  0  0  0  0  0
  -22.5920    2.2206  -13.8272 C   0  0  0  0  0  0  0  0  0  0  0  0
  -22.6386    0.8181  -13.8533 C   0  0  0  0  0  0  0  0  0  0  0  0
  -21.5925    0.1945  -14.5307 C   0  0  0  0  0  0  0  0  0  0  0  0
  -20.5748    0.8377  -15.1622 N   0  0  0  0  0  0  0  0  0  0  0  0
  -18.1773    2.7149  -15.0893 C   0  0  0  0  0  0  0  0  0  0  0  0
  -17.8671    2.1062  -14.0718 O   0  0  0  0  0  0  0  0  0  0  0  0
  -19.4388    2.8048  -15.6271 N   0  0  0  0  0  0  0  0  0  0  0  0
  -19.5384    2.9719  -16.6171 H   0  0  0  0  0  0  0  0  0  0  0  0
  -16.0325    2.7480  -16.2585 C   0  0  0  0  0  0  0  0  0  0  0  0
  -17.1541    3.3949  -15.9294 C   0  0  0  0  0  0  0  0  0  0  0  0
  -26.9992   -1.9941  -11.3625 N   0  0  0  0  0  0  0  0  0  0  0  0
  -27.1532   -2.1257   -9.9923 C   0  0  0  0  0  0  0  0  0  0  0  0
  -26.3467   -1.7027   -9.1708 O   0  0  0  0  0  0  0  0  0  0  0  0
  -28.3168   -2.7815   -9.6168 N   0  0  0  0  0  0  0  0  0  0  0  0
  -27.6662   -2.4538  -11.9622 H   0  0  0  0  0  0  0  0  0  0  0  0
  -28.7017   -3.4500  -10.2679 H   0  0  0  0  0  0  0  0  0  0  0  0
  -28.7385   -2.8838   -8.2565 C   0  0  0  0  0  0  0  0  0  0  0  0
  -29.2493   -4.0742   -7.7274 C   0  0  0  0  0  0  0  0  0  0  0  0
  -29.7389   -4.1429   -6.4271 C   0  0  0  0  0  0  0  0  0  0  0  0
  -29.6842   -3.0139   -5.6129 C   0  0  0  0  0  0  0  0  0  0  0  0
  -29.1207   -1.8213   -6.0917 C   0  0  0  0  0  0  0  0  0  0  0  0
  -28.6458   -1.7663   -7.4191 C   0  0  0  0  0  0  0  0  0  0  0  0
  -29.0046   -0.6120   -5.1756 C   0  0  0  0  0  0  0  0  0  0  0  0
  -27.5619   -0.1147   -5.0497 C   0  0  0  0  0  0  0  0  0  0  0  0
  -29.9210    0.5188   -5.6573 C   0  0  0  0  0  0  0  0  0  0  0  0
 17 18  2  0  0  0
 18 13  1  0  0  0
 13 14  2  0  0  0
 13 15  1  0  0  0
 15  7  1  0  0  0
 15 16  1  0  0  0
  7  8  1  0  0  0
  7 12  2  0  0  0
  8  9  2  0  0  0
  9 10  1  0  0  0
 10  1  1  0  0  0
 10 11  2  0  0  0
  1  2  1  0  0  0
  1  6  2  0  0  0
  2  3  2  0  0  0
  3  4  1  0  0  0
  4 19  1  0  0  0
  4  5  2  0  0  0
 19 20  1  0  0  0
 19 23  1  0  0  0
 20 21  2  0  0  0
 20 22  1  0  0  0
 22 25  1  0  0  0
 22 24  1  0  0  0
 25 26  1  0  0  0
 25 30  2  0  0  0
 26 27  2  0  0  0
 27 28  1  0  0  0
 28 29  2  0  0  0
 29 31  1  0  0  0
 29 30  1  0  0  0
 31 32  1  0  0  0
 31 33  1  0  0  0
  5  6  1  0  0  0
 11 12  1  0  0  0
M  END
> <minimizedAffinity>
-11.19200

$$$$
