CHEMBL233822


 28 30  0  0  0  0  0  0  0  0999 V2000
  -15.1529    0.4011  -12.4987 O   0  0  0  0  0  0  0  0  0  0  0  0
  -14.8822    0.1458  -13.6684 C   0  0  0  0  0  0  0  0  0  0  0  0
  -14.6167   -1.1434  -14.1233 N   0  0  0  0  0  0  0  0  0  0  0  0
  -14.3548   -1.2431  -15.0935 H   0  0  0  0  0  0  0  0  0  0  0  0
  -14.5274   -2.3088  -13.3240 C   0  0  0  0  0  0  0  0  0  0  0  0
  -13.4188   -2.6190  -12.5410 C   0  0  0  0  0  0  0  0  0  0  0  0
  -13.3445   -3.8346  -11.8593 C   0  0  0  0  0  0  0  0  0  0  0  0
  -14.3812   -4.7647  -11.9403 C   0  0  0  0  0  0  0  0  0  0  0  0
  -14.1410   -6.2515  -11.1015 Cl  0  0  0  0  0  0  0  0  0  0  0  0
  -15.5295   -4.4673  -12.6813 C   0  0  0  0  0  0  0  0  0  0  0  0
  -15.5949   -3.2165  -13.3505 C   0  0  0  0  0  0  0  0  0  0  0  0
  -16.7051   -5.3993  -12.8265 C   0  0  0  0  0  0  0  0  0  0  0  0
  -17.4460   -5.6285  -11.7133 F   0  0  0  0  0  0  0  0  0  0  0  0
  -17.5855   -4.9544  -13.7692 F   0  0  0  0  0  0  0  0  0  0  0  0
  -16.3127   -6.6340  -13.2580 F   0  0  0  0  0  0  0  0  0  0  0  0
  -14.7800    1.1938  -14.6660 C   0  0  0  0  0  0  0  0  0  0  0  0
  -13.6941    1.9847  -15.0260 C   0  0  0  0  0  0  0  0  0  0  0  0
  -14.1735    2.8805  -15.9924 C   0  0  0  0  0  0  0  0  0  0  0  0
  -15.4611    2.6894  -16.2563 N   0  0  0  0  0  0  0  0  0  0  0  0
  -15.8243    1.6666  -15.4477 N   0  0  0  0  0  0  0  0  0  0  0  0
  -17.2274    1.2690  -15.4747 C   0  0  0  0  0  0  0  0  0  0  0  0
  -18.1758    2.4440  -15.7336 C   0  0  0  0  0  0  0  0  0  0  0  0
  -19.5527    2.2165  -15.1551 C   0  0  0  0  0  0  0  0  0  0  0  0
  -20.3738    3.2965  -14.8191 C   0  0  0  0  0  0  0  0  0  0  0  0
  -21.6375    3.0403  -14.3059 C   0  0  0  0  0  0  0  0  0  0  0  0
  -22.1271    1.8012  -14.0987 N   0  0  0  0  0  0  0  0  0  0  0  0
  -21.3165    0.7702  -14.4205 C   0  0  0  0  0  0  0  0  0  0  0  0
  -20.0393    0.9247  -14.9399 C   0  0  0  0  0  0  0  0  0  0  0  0
  1  2  2  0  0  0
  2  3  1  0  0  0
  2 16  1  0  0  0
  3  5  1  0  0  0
  3  4  1  0  0  0
  5  6  1  0  0  0
  5 11  2  0  0  0
  6  7  2  0  0  0
  7  8  1  0  0  0
  8  9  1  0  0  0
  8 10  2  0  0  0
 10 12  1  0  0  0
 10 11  1  0  0  0
 12 13  1  0  0  0
 12 14  1  0  0  0
 12 15  1  0  0  0
 16 17  2  0  0  0
 16 20  1  0  0  0
 17 18  1  0  0  0
 18 19  2  0  0  0
 19 20  1  0  0  0
 20 21  1  0  0  0
 21 22  1  0  0  0
 22 23  1  0  0  0
 23 24  1  0  0  0
 23 28  2  0  0  0
 24 25  2  0  0  0
 25 26  1  0  0  0
 26 27  2  0  0  0
 27 28  1  0  0  0
M  END
> <minimizedAffinity>
-8.67115

$$$$
