CHEMBL387817


 37 40  0  0  0  0  0  0  0  0999 V2000
  -13.8139   -3.6240  -10.7674 C   0  0  0  0  0  0  0  0  0  0  0  0
  -15.1257   -3.2017  -10.5723 C   0  0  0  0  0  0  0  0  0  0  0  0
  -15.7928   -2.5137  -11.5811 C   0  0  0  0  0  0  0  0  0  0  0  0
  -15.1503   -2.1663  -12.7754 C   0  0  0  0  0  0  0  0  0  0  0  0
  -13.7955   -2.4805  -12.9115 C   0  0  0  0  0  0  0  0  0  0  0  0
  -13.1287   -3.2081  -11.9105 C   0  0  0  0  0  0  0  0  0  0  0  0
  -15.8271   -1.5504  -13.8569 N   0  0  0  0  0  0  0  0  0  0  0  0
  -16.3517   -0.2768  -13.8445 C   0  0  0  0  0  0  0  0  0  0  0  0
  -16.2148    0.5339  -12.9332 O   0  0  0  0  0  0  0  0  0  0  0  0
  -17.1149    0.0104  -14.9699 N   0  0  0  0  0  0  0  0  0  0  0  0
  -15.8881   -2.0641  -14.7289 H   0  0  0  0  0  0  0  0  0  0  0  0
  -17.7038   -0.7538  -15.2799 H   0  0  0  0  0  0  0  0  0  0  0  0
  -17.7156    1.2979  -15.0521 C   0  0  0  0  0  0  0  0  0  0  0  0
  -19.0498    1.4971  -14.6652 C   0  0  0  0  0  0  0  0  0  0  0  0
  -19.6953    2.7172  -14.9080 C   0  0  0  0  0  0  0  0  0  0  0  0
  -18.9758    3.7500  -15.5313 C   0  0  0  0  0  0  0  0  0  0  0  0
  -17.6314    3.5721  -15.8744 C   0  0  0  0  0  0  0  0  0  0  0  0
  -17.0048    2.3563  -15.6142 C   0  0  0  0  0  0  0  0  0  0  0  0
  -15.7305    2.1776  -15.9946 F   0  0  0  0  0  0  0  0  0  0  0  0
  -21.1467    2.9074  -14.5351 C   0  0  0  0  0  0  0  0  0  0  0  0
  -21.3357    3.6590  -13.4159 F   0  0  0  0  0  0  0  0  0  0  0  0
  -21.8506    3.5305  -15.5212 F   0  0  0  0  0  0  0  0  0  0  0  0
  -21.7879    1.7279  -14.3089 F   0  0  0  0  0  0  0  0  0  0  0  0
  -13.1355   -4.4116   -9.8648 O   0  0  0  0  0  0  0  0  0  0  0  0
  -12.2567  -10.9260  -12.7487 N   0  0  0  0  0  0  0  0  0  0  0  0
  -12.1293   -9.7564  -12.1133 C   0  0  0  0  0  0  0  0  0  0  0  0
  -11.0754   -9.2992  -11.4884 N   0  0  0  0  0  0  0  0  0  0  0  0
  -11.4345   -8.0563  -11.0238 C   0  0  0  0  0  0  0  0  0  0  0  0
  -10.6965   -7.1181  -10.2870 C   0  0  0  0  0  0  0  0  0  0  0  0
  -11.3115   -5.9087   -9.9217 C   0  0  0  0  0  0  0  0  0  0  0  0
  -12.6330   -5.6332  -10.2882 C   0  0  0  0  0  0  0  0  0  0  0  0
  -13.3636   -6.5386  -11.0770 C   0  0  0  0  0  0  0  0  0  0  0  0
  -12.7409   -7.7507  -11.3886 C   0  0  0  0  0  0  0  0  0  0  0  0
  -13.1680   -8.8660  -12.0627 N   0  0  0  0  0  0  0  0  0  0  0  0
  -11.4994  -11.5913  -12.6071 H   0  0  0  0  0  0  0  0  0  0  0  0
  -13.1567  -11.3630  -12.9029 H   0  0  0  0  0  0  0  0  0  0  0  0
  -14.0778   -9.0064  -12.4698 H   0  0  0  0  0  0  0  0  0  0  0  0
 25 26  1  0  0  0
 25 35  1  0  0  0
 25 36  1  0  0  0
 26 27  2  0  0  0
 26 34  1  0  0  0
 27 28  1  0  0  0
 28 29  1  0  0  0
 28 33  2  0  0  0
 29 30  2  0  0  0
 30 31  1  0  0  0
 31 24  1  0  0  0
 31 32  2  0  0  0
 24  1  1  0  0  0
  1  2  1  0  0  0
  1  6  2  0  0  0
  2  3  2  0  0  0
  3  4  1  0  0  0
  4  7  1  0  0  0
  4  5  2  0  0  0
  7  8  1  0  0  0
  7 11  1  0  0  0
  8  9  2  0  0  0
  8 10  1  0  0  0
 10 13  1  0  0  0
 10 12  1  0  0  0
 13 14  1  0  0  0
 13 18  2  0  0  0
 14 15  2  0  0  0
 15 20  1  0  0  0
 15 16  1  0  0  0
 20 21  1  0  0  0
 20 22  1  0  0  0
 20 23  1  0  0  0
 16 17  2  0  0  0
 17 18  1  0  0  0
 18 19  1  0  0  0
  5  6  1  0  0  0
 32 33  1  0  0  0
 33 34  1  0  0  0
 34 37  1  0  0  0
M  END
> <minimizedAffinity>
-9.84194

$$$$
