CHEMBL1980329


 26 29  0  0  0  0  0  0  0  0999 V2000
  -15.6589    1.4363  -16.2009 O   0  0  0  0  0  0  0  0  0  0  0  0
  -16.8136    1.5995  -15.8637 C   0  0  0  0  0  0  0  0  0  0  0  0
  -17.6939    0.5959  -15.5063 N   0  0  0  0  0  0  0  0  0  0  0  0
  -18.9181    1.1062  -15.1054 C   0  0  0  0  0  0  0  0  0  0  0  0
  -20.0008    0.3602  -14.6771 C   0  0  0  0  0  0  0  0  0  0  0  0
  -21.1733    1.0313  -14.2858 C   0  0  0  0  0  0  0  0  0  0  0  0
  -21.1888    2.4489  -14.3959 C   0  0  0  0  0  0  0  0  0  0  0  0
  -20.0766    3.1879  -14.8492 C   0  0  0  0  0  0  0  0  0  0  0  0
  -18.9289    2.4989  -15.1870 C   0  0  0  0  0  0  0  0  0  0  0  0
  -17.5964    2.8829  -15.6778 C   0  0  0  0  0  0  0  0  0  0  0  0
  -17.1596    4.1267  -15.9322 C   0  0  0  0  0  0  0  0  0  0  0  0
  -17.4326   -0.3774  -15.5292 H   0  0  0  0  0  0  0  0  0  0  0  0
  -22.3384    0.2672  -13.7654 C   0  0  0  0  0  0  0  0  0  0  0  0
  -22.4435   -0.0625  -12.3965 C   0  0  0  0  0  0  0  0  0  0  0  0
  -23.5311   -0.7830  -11.8898 C   0  0  0  0  0  0  0  0  0  0  0  0
  -24.5457   -1.1751  -12.7491 C   0  0  0  0  0  0  0  0  0  0  0  0
  -25.6311   -1.8659  -12.3008 O   0  0  0  0  0  0  0  0  0  0  0  0
  -24.4805   -0.8689  -14.1003 C   0  0  0  0  0  0  0  0  0  0  0  0
  -23.3833   -0.1604  -14.6042 C   0  0  0  0  0  0  0  0  0  0  0  0
  -25.5444   -1.9950  -11.3418 H   0  0  0  0  0  0  0  0  0  0  0  0
  -15.9025    4.3627  -16.5353 C   0  0  0  0  0  0  0  0  0  0  0  0
  -15.4960    4.4198  -17.8526 C   0  0  0  0  0  0  0  0  0  0  0  0
  -14.0878    4.5667  -17.8613 C   0  0  0  0  0  0  0  0  0  0  0  0
  -13.6754    4.6331  -16.5497 C   0  0  0  0  0  0  0  0  0  0  0  0
  -14.7862    4.5216  -15.7499 N   0  0  0  0  0  0  0  0  0  0  0  0
  -14.7693    4.4874  -14.7396 H   0  0  0  0  0  0  0  0  0  0  0  0
  1  2  2  0  0  0
  2  3  1  0  0  0
  2 10  1  0  0  0
  3  4  1  0  0  0
  3 12  1  0  0  0
  4  5  1  0  0  0
  4  9  2  0  0  0
  5  6  2  0  0  0
  6 13  1  0  0  0
  6  7  1  0  0  0
 13 14  1  0  0  0
 13 19  2  0  0  0
 14 15  2  0  0  0
 15 16  1  0  0  0
 16 17  1  0  0  0
 16 18  2  0  0  0
 17 20  1  0  0  0
 18 19  1  0  0  0
  7  8  2  0  0  0
  8  9  1  0  0  0
  9 10  1  0  0  0
 10 11  2  0  0  0
 11 21  1  0  0  0
 21 22  2  0  0  0
 21 25  1  0  0  0
 22 23  1  0  0  0
 23 24  2  0  0  0
 24 25  1  0  0  0
 25 26  1  0  0  0
M  END
> <minimizedAffinity>
-10.23258

$$$$
