CHEMBL1688357


 37 42  0  0  0  0  0  0  0  0999 V2000
  -30.5682   -3.8046   -3.4317 C   0  0  0  0  0  0  0  0  0  0  0  0
  -30.0729   -2.5155   -3.5187 C   0  0  0  0  0  0  0  0  0  0  0  0
  -29.4048   -2.1129   -4.6744 C   0  0  0  0  0  0  0  0  0  0  0  0
  -29.2273   -2.9889   -5.7717 C   0  0  0  0  0  0  0  0  0  0  0  0
  -29.7707   -4.3014   -5.7075 C   0  0  0  0  0  0  0  0  0  0  0  0
  -30.4015   -4.6854   -4.5018 C   0  0  0  0  0  0  0  0  0  0  0  0
  -28.5124   -2.4900   -6.9544 C   0  0  0  0  0  0  0  0  0  0  0  0
  -27.5120   -1.6285   -6.9901 N   0  0  0  0  0  0  0  0  0  0  0  0
  -27.1735   -1.4090   -8.3100 N   0  0  0  0  0  0  0  0  0  0  0  0
  -27.9539   -2.1479   -9.0641 C   0  0  0  0  0  0  0  0  0  0  0  0
  -28.7987   -2.8523   -8.2498 N   0  0  0  0  0  0  0  0  0  0  0  0
  -29.5484   -3.4481   -8.5589 H   0  0  0  0  0  0  0  0  0  0  0  0
  -28.0630   -2.1600  -10.4124 N   0  0  0  0  0  0  0  0  0  0  0  0
  -29.0051   -2.0720  -10.7851 H   0  0  0  0  0  0  0  0  0  0  0  0
  -27.0591   -1.9414  -11.3766 C   0  0  0  0  0  0  0  0  0  0  0  0
  -27.3404   -1.8554  -12.7450 C   0  0  0  0  0  0  0  0  0  0  0  0
  -26.3256   -1.5650  -13.6663 C   0  0  0  0  0  0  0  0  0  0  0  0
  -25.0220   -1.3421  -13.2314 C   0  0  0  0  0  0  0  0  0  0  0  0
  -24.7182   -1.4881  -11.8802 C   0  0  0  0  0  0  0  0  0  0  0  0
  -25.7307   -1.7927  -10.9643 C   0  0  0  0  0  0  0  0  0  0  0  0
  -23.4512   -1.3437  -11.3871 O   0  0  0  0  0  0  0  0  0  0  0  0
  -22.6648   -0.4902  -12.2199 C   0  0  0  0  0  0  0  0  0  0  0  0
  -22.7780   -0.8343  -13.6984 C   0  0  0  0  0  0  0  0  0  0  0  0
  -24.1173   -0.9607  -14.1803 O   0  0  0  0  0  0  0  0  0  0  0  0
  -29.5620   -5.2583   -6.7508 N   0  0  0  0  0  0  0  0  0  0  0  0
  -29.9511   -4.8891   -7.6265 H   0  0  0  0  0  0  0  0  0  0  0  0
  -30.0497   -6.6050   -6.4598 C   0  0  0  0  0  0  0  0  0  0  0  0
  -29.8300   -7.6458   -7.5363 C   0  0  0  0  0  0  0  0  0  0  0  0
  -30.8709   -8.5596   -7.7668 C   0  0  0  0  0  0  0  0  0  0  0  0
  -30.7014   -9.6482   -8.6238 C   0  0  0  0  0  0  0  0  0  0  0  0
  -29.5091   -9.8706   -9.2791 C   0  0  0  0  0  0  0  0  0  0  0  0
  -29.4108  -10.9473  -10.0786 N   0  0  0  0  0  0  0  0  0  0  0  0
  -28.2443  -11.1475  -10.7256 C   0  0  0  0  0  0  0  0  0  0  0  0
  -27.1517  -10.3107  -10.6101 C   0  0  0  0  0  0  0  0  0  0  0  0
  -27.2561   -9.2052   -9.7692 C   0  0  0  0  0  0  0  0  0  0  0  0
  -28.4509   -8.9593   -9.0756 C   0  0  0  0  0  0  0  0  0  0  0  0
  -28.6113   -7.8612   -8.1930 C   0  0  0  0  0  0  0  0  0  0  0  0
  1  2  1  0  0  0
  1  6  2  0  0  0
  2  3  2  0  0  0
  3  4  1  0  0  0
  4  7  1  0  0  0
  4  5  2  0  0  0
  7  8  2  0  0  0
  7 11  1  0  0  0
  8  9  1  0  0  0
  9 10  2  0  0  0
 10 13  1  0  0  0
 10 11  1  0  0  0
 13 15  1  0  0  0
 13 14  1  0  0  0
 15 16  1  0  0  0
 15 20  2  0  0  0
 16 17  2  0  0  0
 17 18  1  0  0  0
 18 19  2  0  0  0
 18 24  1  0  0  0
 19 20  1  0  0  0
 19 21  1  0  0  0
 21 22  1  0  0  0
 22 23  1  0  0  0
 23 24  1  0  0  0
 11 12  1  0  0  0
  5 25  1  0  0  0
  5  6  1  0  0  0
 25 27  1  0  0  0
 25 26  1  0  0  0
 27 28  1  0  0  0
 28 29  1  0  0  0
 28 37  2  0  0  0
 29 30  2  0  0  0
 30 31  1  0  0  0
 31 32  1  0  0  0
 31 36  2  0  0  0
 32 33  2  0  0  0
 33 34  1  0  0  0
 34 35  2  0  0  0
 35 36  1  0  0  0
 36 37  1  0  0  0
M  END
> <minimizedAffinity>
-11.40569

$$$$
