CHEMBL270827


 30 35  0  0  0  0  0  0  0  0999 V2000
  -28.3191   -2.7753   -7.6129 N   0  0  0  0  0  0  0  0  0  0  0  0
  -28.5312   -1.5586   -6.9265 C   0  0  0  0  0  0  0  0  0  0  0  0
  -28.0066   -0.2685   -7.1353 C   0  0  0  0  0  0  0  0  0  0  0  0
  -28.2935    0.7334   -6.1992 C   0  0  0  0  0  0  0  0  0  0  0  0
  -29.1272    0.4887   -5.1158 C   0  0  0  0  0  0  0  0  0  0  0  0
  -29.6667   -0.7799   -4.9186 C   0  0  0  0  0  0  0  0  0  0  0  0
  -29.3441   -1.8182   -5.8120 C   0  0  0  0  0  0  0  0  0  0  0  0
  -29.5203   -3.1842   -5.8912 C   0  0  0  0  0  0  0  0  0  0  0  0
  -29.8843   -3.9629   -4.7836 C   0  0  0  0  0  0  0  0  0  0  0  0
  -29.4762   -5.3094   -4.8481 C   0  0  0  0  0  0  0  0  0  0  0  0
  -28.9283   -5.9157   -5.9923 C   0  0  0  0  0  0  0  0  0  0  0  0
  -29.2121   -5.1947   -7.1914 C   0  0  0  0  0  0  0  0  0  0  0  0
  -29.0733   -3.7957   -7.0310 C   0  0  0  0  0  0  0  0  0  0  0  0
  -30.4191   -5.8573   -7.9949 C   0  0  0  0  0  0  0  0  0  0  0  0
  -31.1524   -7.0449   -7.2394 C   0  0  0  0  0  0  0  0  0  0  0  0
  -30.0857   -7.9504   -6.7371 C   0  0  0  0  0  0  0  0  0  0  0  0
  -29.8712   -9.2214   -7.0735 N   0  0  0  0  0  0  0  0  0  0  0  0
  -28.5706   -9.4005   -6.7284 N   0  0  0  0  0  0  0  0  0  0  0  0
  -27.9003  -10.6272   -7.0827 C   0  0  0  0  0  0  0  0  0  0  0  0
  -27.9614   -8.2583   -6.2684 C   0  0  0  0  0  0  0  0  0  0  0  0
  -28.9820   -7.3585   -6.1056 C   0  0  0  0  0  0  0  0  0  0  0  0
  -29.8863   -5.9333   -3.6033 C   0  0  0  0  0  0  0  0  0  0  0  0
  -29.7807   -7.0672   -3.1579 O   0  0  0  0  0  0  0  0  0  0  0  0
  -30.5358   -4.9246   -2.9090 N   0  0  0  0  0  0  0  0  0  0  0  0
  -30.5423   -3.6191   -3.5290 C   0  0  0  0  0  0  0  0  0  0  0  0
  -30.9867   -5.1389   -2.0345 H   0  0  0  0  0  0  0  0  0  0  0  0
  -27.3731   -2.9149   -8.7127 C   0  0  0  0  0  0  0  0  0  0  0  0
  -25.8631   -1.7011  -10.4658 C   0  0  0  0  0  0  0  0  0  0  0  0
  -27.1748   -1.7109   -9.6756 C   0  0  0  0  0  0  0  0  0  0  0  0
  -28.3466   -1.5187  -10.6354 C   0  0  0  0  0  0  0  0  0  0  0  0
 28 29  1  0  0  0
 29 30  1  0  0  0
 29 27  1  0  0  0
 27  1  1  0  0  0
  1  2  1  0  0  0
  1 13  1  0  0  0
  2  3  1  0  0  0
  2  7  2  0  0  0
  3  4  2  0  0  0
  4  5  1  0  0  0
  5  6  2  0  0  0
  6  7  1  0  0  0
  7  8  1  0  0  0
  8  9  1  0  0  0
  8 13  2  0  0  0
  9 10  2  0  0  0
  9 25  1  0  0  0
 10 11  1  0  0  0
 10 22  1  0  0  0
 11 12  2  0  0  0
 11 21  1  0  0  0
 12 13  1  0  0  0
 12 14  1  0  0  0
 14 15  1  0  0  0
 15 16  1  0  0  0
 16 17  2  0  0  0
 16 21  1  0  0  0
 17 18  1  0  0  0
 18 19  1  0  0  0
 18 20  1  0  0  0
 20 21  2  0  0  0
 22 23  2  0  0  0
 22 24  1  0  0  0
 24 25  1  0  0  0
 24 26  1  0  0  0
M  END
> <minimizedAffinity>
-9.07829

$$$$
