CHEMBL1169656


 20 22  0  0  0  0  0  0  0  0999 V2000
  -28.3396   -0.6047  -10.0924 O   0  0  0  0  0  0  0  0  0  0  0  0
  -27.7487   -1.6448   -9.8244 C   0  0  0  0  0  0  0  0  0  0  0  0
  -26.9387   -2.3703  -10.6790 N   0  0  0  0  0  0  0  0  0  0  0  0
  -26.6856   -3.3256  -10.4360 H   0  0  0  0  0  0  0  0  0  0  0  0
  -26.6300   -2.0259  -12.0263 C   0  0  0  0  0  0  0  0  0  0  0  0
  -27.5887   -2.0897  -13.0462 C   0  0  0  0  0  0  0  0  0  0  0  0
  -27.2433   -1.8134  -14.3641 C   0  0  0  0  0  0  0  0  0  0  0  0
  -25.9349   -1.4662  -14.6721 C   0  0  0  0  0  0  0  0  0  0  0  0
  -24.9721   -1.3683  -13.6571 C   0  0  0  0  0  0  0  0  0  0  0  0
  -23.6512   -1.0211  -13.9635 C   0  0  0  0  0  0  0  0  0  0  0  0
  -22.7092   -0.9240  -12.9495 C   0  0  0  0  0  0  0  0  0  0  0  0
  -23.1248   -1.1754  -11.6555 C   0  0  0  0  0  0  0  0  0  0  0  0
  -24.3884   -1.5253  -11.3172 N   0  0  0  0  0  0  0  0  0  0  0  0
  -25.3100   -1.6282  -12.3071 C   0  0  0  0  0  0  0  0  0  0  0  0
  -27.9678   -2.2251   -8.4775 C   0  0  0  0  0  0  0  0  0  0  0  0
  -28.5021   -3.5205   -8.3998 C   0  0  0  0  0  0  0  0  0  0  0  0
  -28.7933   -4.0892   -7.1628 C   0  0  0  0  0  0  0  0  0  0  0  0
  -28.5646   -3.3596   -5.9957 C   0  0  0  0  0  0  0  0  0  0  0  0
  -28.0407   -2.0661   -6.0678 C   0  0  0  0  0  0  0  0  0  0  0  0
  -27.7387   -1.4948   -7.3072 C   0  0  0  0  0  0  0  0  0  0  0  0
  1  2  2  0  0  0
  2  3  1  0  0  0
  2 15  1  0  0  0
  3  5  1  0  0  0
  3  4  1  0  0  0
  5  6  1  0  0  0
  5 14  2  0  0  0
  6  7  2  0  0  0
  7  8  1  0  0  0
  8  9  2  0  0  0
  9 10  1  0  0  0
  9 14  1  0  0  0
 10 11  2  0  0  0
 11 12  1  0  0  0
 12 13  2  0  0  0
 13 14  1  0  0  0
 15 16  1  0  0  0
 15 20  2  0  0  0
 16 17  2  0  0  0
 17 18  1  0  0  0
 18 19  2  0  0  0
 19 20  1  0  0  0
M  END
> <minimizedAffinity>
-8.56622

$$$$
