CHEMBL194042


 33 36  0  0  0  0  0  0  0  0999 V2000
  -27.0448   -9.1808   -4.8217 C   0  0  0  0  0  0  0  0  0  0  0  0
  -27.0413   -7.8823   -4.4433 N   0  0  0  0  0  0  0  0  0  0  0  0
  -28.0077   -7.0046   -4.8850 N   0  0  0  0  0  0  0  0  0  0  0  0
  -29.0254   -7.4211   -5.6645 C   0  0  0  0  0  0  0  0  0  0  0  0
  -29.1200   -8.7850   -6.0371 C   0  0  0  0  0  0  0  0  0  0  0  0
  -30.2259   -9.3144   -6.7552 C   0  0  0  0  0  0  0  0  0  0  0  0
  -30.2438  -10.6270   -7.2229 C   0  0  0  0  0  0  0  0  0  0  0  0
  -29.1403  -11.4307   -7.0317 C   0  0  0  0  0  0  0  0  0  0  0  0
  -28.0584  -10.9493   -6.2908 C   0  0  0  0  0  0  0  0  0  0  0  0
  -28.0511   -9.6563   -5.7011 C   0  0  0  0  0  0  0  0  0  0  0  0
  -23.8968  -11.4946   -2.8922 C   0  0  0  0  0  0  0  0  0  0  0  0
  -23.6012  -10.6697   -3.9771 C   0  0  0  0  0  0  0  0  0  0  0  0
  -24.6224   -9.9681   -4.6367 C   0  0  0  0  0  0  0  0  0  0  0  0
  -25.9590   -9.9961   -4.1941 C   0  0  0  0  0  0  0  0  0  0  0  0
  -26.2407  -10.8850   -3.1359 C   0  0  0  0  0  0  0  0  0  0  0  0
  -25.2323  -11.6295   -2.4982 C   0  0  0  0  0  0  0  0  0  0  0  0
  -22.7715  -12.1863   -2.2015 C   0  0  0  0  0  0  0  0  0  0  0  0
  -21.7026  -12.4271   -2.7342 O   0  0  0  0  0  0  0  0  0  0  0  0
  -22.1195  -12.0815    0.0425 C   0  0  0  0  0  0  0  0  0  0  0  0
  -23.1048  -12.4659   -0.9180 O   0  0  0  0  0  0  0  0  0  0  0  0
  -30.0350   -6.4968   -6.0803 N   0  0  0  0  0  0  0  0  0  0  0  0
  -30.2868   -6.7291   -7.0380 H   0  0  0  0  0  0  0  0  0  0  0  0
  -29.9127   -5.0811   -6.0629 C   0  0  0  0  0  0  0  0  0  0  0  0
  -30.1896   -4.3149   -4.9252 C   0  0  0  0  0  0  0  0  0  0  0  0
  -29.9275   -2.9370   -4.8971 C   0  0  0  0  0  0  0  0  0  0  0  0
  -29.3677   -2.3070   -6.0061 C   0  0  0  0  0  0  0  0  0  0  0  0
  -29.0509   -3.0741   -7.1296 C   0  0  0  0  0  0  0  0  0  0  0  0
  -29.2945   -4.4513   -7.1473 C   0  0  0  0  0  0  0  0  0  0  0  0
  -29.1339   -0.9701   -6.1445 O   0  0  0  0  0  0  0  0  0  0  0  0
  -27.8670   -0.4634   -5.7430 C   0  0  0  0  0  0  0  0  0  0  0  0
  -27.1619   -1.4076   -5.0741 F   0  0  0  0  0  0  0  0  0  0  0  0
  -27.1553   -0.0974   -6.8377 F   0  0  0  0  0  0  0  0  0  0  0  0
  -28.1063    0.9373   -4.6898 Cl  0  0  0  0  0  0  0  0  0  0  0  0
 19 20  1  0  0  0
 20 17  1  0  0  0
 17 18  2  0  0  0
 17 11  1  0  0  0
 11 12  1  0  0  0
 11 16  2  0  0  0
 12 13  2  0  0  0
 13 14  1  0  0  0
 14  1  1  0  0  0
 14 15  2  0  0  0
  1  2  1  0  0  0
  1 10  2  0  0  0
  2  3  2  0  0  0
  3  4  1  0  0  0
  4 21  1  0  0  0
  4  5  2  0  0  0
 21 23  1  0  0  0
 21 22  1  0  0  0
 23 24  1  0  0  0
 23 28  2  0  0  0
 24 25  2  0  0  0
 25 26  1  0  0  0
 26 29  1  0  0  0
 26 27  2  0  0  0
 29 30  1  0  0  0
 30 31  1  0  0  0
 30 32  1  0  0  0
 30 33  1  0  0  0
 27 28  1  0  0  0
  5  6  1  0  0  0
  5 10  1  0  0  0
  6  7  2  0  0  0
  7  8  1  0  0  0
  8  9  2  0  0  0
  9 10  1  0  0  0
 15 16  1  0  0  0
M  END
> <minimizedAffinity>
-7.88855

$$$$
