CHEMBL3690574


 35 39  0  0  0  0  0  0  0  0999 V2000
  -29.8818   -5.5444   -6.2125 C   0  0  0  0  0  0  0  0  0  0  0  0
  -29.9948   -4.4627   -7.1974 C   0  0  0  0  0  0  0  0  0  0  0  0
  -30.1483   -3.1960   -6.7927 C   0  0  0  0  0  0  0  0  0  0  0  0
  -29.9590   -2.8850   -5.4532 N   0  0  0  0  0  0  0  0  0  0  0  0
  -29.8137   -1.6487   -4.8468 C   0  0  0  0  0  0  0  0  0  0  0  0
  -29.6360   -1.9661   -3.5058 C   0  0  0  0  0  0  0  0  0  0  0  0
  -29.6035   -3.3192   -3.2868 N   0  0  0  0  0  0  0  0  0  0  0  0
  -29.7498   -3.8551   -4.4720 C   0  0  0  0  0  0  0  0  0  0  0  0
  -29.7465   -5.2356   -4.9015 C   0  0  0  0  0  0  0  0  0  0  0  0
  -30.4661  -12.3046   -8.5325 C   0  0  0  0  0  0  0  0  0  0  0  0
  -30.4059  -10.9171   -8.0232 C   0  0  0  0  0  0  0  0  0  0  0  0
  -31.1448   -9.7930   -8.3860 C   0  0  0  0  0  0  0  0  0  0  0  0
  -30.6560   -8.7922   -7.5992 N   0  0  0  0  0  0  0  0  0  0  0  0
  -30.9246   -7.4566   -7.5155 N   0  0  0  0  0  0  0  0  0  0  0  0
  -30.0924   -6.9839   -6.6166 C   0  0  0  0  0  0  0  0  0  0  0  0
  -28.9948   -8.1764   -5.8233 S   0  0  0  0  0  0  0  0  0  0  0  0
  -29.6948   -9.3485   -6.8268 C   0  0  0  0  0  0  0  0  0  0  0  0
  -29.4932  -10.6154   -7.0298 N   0  0  0  0  0  0  0  0  0  0  0  0
  -29.7362   -0.3339   -5.5081 C   0  0  0  0  0  0  0  0  0  0  0  0
  -28.4839    0.1748   -5.8536 C   0  0  0  0  0  0  0  0  0  0  0  0
  -28.3802    1.3600   -6.5909 C   0  0  0  0  0  0  0  0  0  0  0  0
  -29.5262    2.0369   -7.0024 C   0  0  0  0  0  0  0  0  0  0  0  0
  -30.7940    1.5585   -6.6832 C   0  0  0  0  0  0  0  0  0  0  0  0
  -30.8880    0.3745   -5.9227 C   0  0  0  0  0  0  0  0  0  0  0  0
  -31.9922    2.1858   -7.1107 N   0  0  0  0  0  0  0  0  0  0  0  0
  -32.3733    2.4268   -8.4123 C   0  0  0  0  0  0  0  0  0  0  0  0
  -31.7563    2.1482   -9.4341 O   0  0  0  0  0  0  0  0  0  0  0  0
  -33.5802    3.0872   -8.4928 N   0  0  0  0  0  0  0  0  0  0  0  0
  -32.6316    2.4917   -6.3925 H   0  0  0  0  0  0  0  0  0  0  0  0
  -34.2460    2.8902   -7.7572 H   0  0  0  0  0  0  0  0  0  0  0  0
  -34.1400    3.3800   -9.8253 C   0  0  0  0  0  0  0  0  0  0  0  0
  -34.6289    4.8191  -10.0483 C   0  0  0  0  0  0  0  0  0  0  0  0
  -35.8154    5.0508   -9.4401 F   0  0  0  0  0  0  0  0  0  0  0  0
  -33.7402    5.6947   -9.5139 F   0  0  0  0  0  0  0  0  0  0  0  0
  -34.7564    5.1255  -11.3549 F   0  0  0  0  0  0  0  0  0  0  0  0
 10 11  1  0  0  0
 11 12  2  0  0  0
 11 18  1  0  0  0
 12 13  1  0  0  0
 13 14  1  0  0  0
 13 17  1  0  0  0
 14 15  2  0  0  0
 15  1  1  0  0  0
 15 16  1  0  0  0
  1  2  1  0  0  0
  1  9  2  0  0  0
  2  3  2  0  0  0
  3  4  1  0  0  0
  4  5  1  0  0  0
  4  8  1  0  0  0
  5 19  1  0  0  0
  5  6  2  0  0  0
 19 20  1  0  0  0
 19 24  2  0  0  0
 20 21  2  0  0  0
 21 22  1  0  0  0
 22 23  2  0  0  0
 23 25  1  0  0  0
 23 24  1  0  0  0
 25 26  1  0  0  0
 25 29  1  0  0  0
 26 27  2  0  0  0
 26 28  1  0  0  0
 28 31  1  0  0  0
 28 30  1  0  0  0
 31 32  1  0  0  0
 32 33  1  0  0  0
 32 34  1  0  0  0
 32 35  1  0  0  0
  6  7  1  0  0  0
  7  8  2  0  0  0
  8  9  1  0  0  0
 16 17  1  0  0  0
 17 18  2  0  0  0
M  END
> <minimizedAffinity>
-8.14482

$$$$
