CHEMBL3951099


 39 43  0  0  0  0  0  0  0  0999 V2000
  -29.7601   -5.5015   -7.0649 C   0  0  0  0  0  0  0  0  0  0  0  0
  -29.2656   -4.5327   -7.9489 C   0  0  0  0  0  0  0  0  0  0  0  0
  -28.6557   -3.3372   -7.4804 C   0  0  0  0  0  0  0  0  0  0  0  0
  -28.1922   -2.2673   -8.2605 C   0  0  0  0  0  0  0  0  0  0  0  0
  -27.6520   -1.1607   -7.7006 N   0  0  0  0  0  0  0  0  0  0  0  0
  -27.5465   -1.1298   -6.3731 C   0  0  0  0  0  0  0  0  0  0  0  0
  -27.9281   -2.0979   -5.5458 N   0  0  0  0  0  0  0  0  0  0  0  0
  -28.4771   -3.1718   -6.1074 C   0  0  0  0  0  0  0  0  0  0  0  0
  -28.9008   -4.1688   -5.2526 C   0  0  0  0  0  0  0  0  0  0  0  0
  -29.5772   -5.3183   -5.6918 C   0  0  0  0  0  0  0  0  0  0  0  0
  -29.5404   -7.6624   -8.0539 C   0  0  0  0  0  0  0  0  0  0  0  0
  -30.3614   -6.5552   -7.6961 O   0  0  0  0  0  0  0  0  0  0  0  0
  -28.2610   -2.3463   -9.6746 N   0  0  0  0  0  0  0  0  0  0  0  0
  -29.2022   -2.1247   -9.9801 H   0  0  0  0  0  0  0  0  0  0  0  0
  -27.2801   -1.9321  -10.6032 C   0  0  0  0  0  0  0  0  0  0  0  0
  -25.9721   -1.6034  -10.2219 C   0  0  0  0  0  0  0  0  0  0  0  0
  -25.0170   -1.2055  -11.1590 C   0  0  0  0  0  0  0  0  0  0  0  0
  -25.3411   -1.1809  -12.5126 C   0  0  0  0  0  0  0  0  0  0  0  0
  -24.1216   -0.6661  -13.6205 Cl  0  0  0  0  0  0  0  0  0  0  0  0
  -26.6185   -1.5738  -12.9219 C   0  0  0  0  0  0  0  0  0  0  0  0
  -27.0806   -1.6169  -14.5870 Cl  0  0  0  0  0  0  0  0  0  0  0  0
  -27.5762   -1.9542  -11.9720 C   0  0  0  0  0  0  0  0  0  0  0  0
  -30.0490   -6.2586   -4.8033 O   0  0  0  0  0  0  0  0  0  0  0  0
  -29.0792   -6.6544   -3.8267 C   0  0  0  0  0  0  0  0  0  0  0  0
  -28.4163   -7.8970   -4.2435 C   0  0  0  0  0  0  0  0  0  0  0  0
  -27.1299   -8.1173   -4.3454 N   0  0  0  0  0  0  0  0  0  0  0  0
  -27.0856   -9.2821   -5.0705 C   0  0  0  0  0  0  0  0  0  0  0  0
  -28.2938   -9.7914   -5.3647 N   0  0  0  0  0  0  0  0  0  0  0  0
  -29.1828   -8.8637   -4.8171 O   0  0  0  0  0  0  0  0  0  0  0  0
  -25.8128   -9.8396   -5.4857 C   0  0  0  0  0  0  0  0  0  0  0  0
  -25.7384  -10.5438   -6.6929 C   0  0  0  0  0  0  0  0  0  0  0  0
  -24.5257  -11.0582   -7.1469 C   0  0  0  0  0  0  0  0  0  0  0  0
  -23.3483  -10.8898   -6.4057 C   0  0  0  0  0  0  0  0  0  0  0  0
  -23.4452  -10.2160   -5.1712 C   0  0  0  0  0  0  0  0  0  0  0  0
  -24.6603   -9.6973   -4.7148 C   0  0  0  0  0  0  0  0  0  0  0  0
  -21.9878  -11.3870   -6.9140 C   0  0  0  0  0  0  0  0  0  0  0  0
  -21.0091  -10.2436   -7.2658 C   0  0  0  0  0  0  0  0  0  0  0  0
  -21.3217  -12.2431   -5.8164 C   0  0  0  0  0  0  0  0  0  0  0  0
  -22.1805  -12.2370   -8.1852 C   0  0  0  0  0  0  0  0  0  0  0  0
 11 12  1  0  0  0
 12  1  1  0  0  0
  1  2  1  0  0  0
  1 10  2  0  0  0
  2  3  2  0  0  0
  3  4  1  0  0  0
  3  8  1  0  0  0
  4 13  1  0  0  0
  4  5  2  0  0  0
 13 15  1  0  0  0
 13 14  1  0  0  0
 15 16  1  0  0  0
 15 22  2  0  0  0
 16 17  2  0  0  0
 17 18  1  0  0  0
 18 19  1  0  0  0
 18 20  2  0  0  0
 20 21  1  0  0  0
 20 22  1  0  0  0
  5  6  1  0  0  0
  6  7  2  0  0  0
  7  8  1  0  0  0
  8  9  2  0  0  0
  9 10  1  0  0  0
 10 23  1  0  0  0
 23 24  1  0  0  0
 24 25  1  0  0  0
 25 26  2  0  0  0
 25 29  1  0  0  0
 26 27  1  0  0  0
 27 30  1  0  0  0
 27 28  2  0  0  0
 30 31  1  0  0  0
 30 35  2  0  0  0
 31 32  2  0  0  0
 32 33  1  0  0  0
 33 36  1  0  0  0
 33 34  2  0  0  0
 36 37  1  0  0  0
 36 38  1  0  0  0
 36 39  1  0  0  0
 34 35  1  0  0  0
 28 29  1  0  0  0
M  END
> <minimizedAffinity>
-10.24790

$$$$
