CHEMBL101682


 27 29  0  0  0  0  0  0  0  0999 V2000
  -26.6110   -1.8020  -11.9567 C   0  0  0  0  0  0  0  0  0  0  0  0
  -27.8611   -2.1095  -12.5412 C   0  0  0  0  0  0  0  0  0  0  0  0
  -28.0485   -2.0825  -13.9186 C   0  0  0  0  0  0  0  0  0  0  0  0
  -26.9959   -1.7070  -14.7337 C   0  0  0  0  0  0  0  0  0  0  0  0
  -25.7509   -1.4118  -14.1710 C   0  0  0  0  0  0  0  0  0  0  0  0
  -25.5042   -1.5176  -12.7824 C   0  0  0  0  0  0  0  0  0  0  0  0
  -25.5573   -1.4581   -9.9153 O   0  0  0  0  0  0  0  0  0  0  0  0
  -26.6125   -1.7746  -10.4628 C   0  0  0  0  0  0  0  0  0  0  0  0
  -27.7912   -2.0602   -9.7998 N   0  0  0  0  0  0  0  0  0  0  0  0
  -28.6284   -2.1797  -10.3722 H   0  0  0  0  0  0  0  0  0  0  0  0
  -27.9499   -2.0415   -8.3889 C   0  0  0  0  0  0  0  0  0  0  0  0
  -27.8053   -0.8785   -7.6220 C   0  0  0  0  0  0  0  0  0  0  0  0
  -28.0250   -0.8879   -6.2415 C   0  0  0  0  0  0  0  0  0  0  0  0
  -28.3866   -2.0676   -5.6002 C   0  0  0  0  0  0  0  0  0  0  0  0
  -28.5026   -3.2420   -6.3405 C   0  0  0  0  0  0  0  0  0  0  0  0
  -28.2745   -3.2258   -7.7196 C   0  0  0  0  0  0  0  0  0  0  0  0
  -28.4074   -4.3706   -8.4076 F   0  0  0  0  0  0  0  0  0  0  0  0
  -24.2172   -1.2441  -12.2401 N   0  0  0  0  0  0  0  0  0  0  0  0
  -24.2463   -0.3105  -11.8218 H   0  0  0  0  0  0  0  0  0  0  0  0
  -23.1157   -1.3244  -13.2096 C   0  0  0  0  0  0  0  0  0  0  0  0
  -22.5497    0.0221  -13.6005 C   0  0  0  0  0  0  0  0  0  0  0  0
  -21.3444    0.0454  -14.3340 C   0  0  0  0  0  0  0  0  0  0  0  0
  -20.8157    1.2452  -14.8018 C   0  0  0  0  0  0  0  0  0  0  0  0
  -21.4925    2.4287  -14.5496 C   0  0  0  0  0  0  0  0  0  0  0  0
  -20.9966    3.5827  -15.0135 F   0  0  0  0  0  0  0  0  0  0  0  0
  -22.6862    2.4321  -13.8342 C   0  0  0  0  0  0  0  0  0  0  0  0
  -23.2192    1.2281  -13.3636 C   0  0  0  0  0  0  0  0  0  0  0  0
  7  8  2  0  0  0
  8  9  1  0  0  0
  8  1  1  0  0  0
  9 11  1  0  0  0
  9 10  1  0  0  0
 11 12  1  0  0  0
 11 16  2  0  0  0
 12 13  2  0  0  0
 13 14  1  0  0  0
 14 15  2  0  0  0
 15 16  1  0  0  0
 16 17  1  0  0  0
  1  2  1  0  0  0
  1  6  2  0  0  0
  2  3  2  0  0  0
  3  4  1  0  0  0
  4  5  2  0  0  0
  5  6  1  0  0  0
  6 18  1  0  0  0
 18 20  1  0  0  0
 18 19  1  0  0  0
 20 21  1  0  0  0
 21 22  1  0  0  0
 21 27  2  0  0  0
 22 23  2  0  0  0
 23 24  1  0  0  0
 24 25  1  0  0  0
 24 26  2  0  0  0
 26 27  1  0  0  0
M  END
> <minimizedAffinity>
-9.65833

$$$$
