CHEMBL3912723


 26 29  0  0  0  0  0  0  0  0999 V2000
  -28.2412   -8.6198   -4.4794 O   0  0  0  0  0  0  0  0  0  0  0  0
  -28.4530   -8.2201   -5.6219 C   0  0  0  0  0  0  0  0  0  0  0  0
  -28.2499   -9.1158   -6.8133 C   0  0  0  0  0  0  0  0  0  0  0  0
  -28.6059   -8.1345   -8.2723 S   0  0  0  0  0  0  0  0  0  0  0  0
  -28.9805   -6.7023   -7.3375 C   0  0  0  0  0  0  0  0  0  0  0  0
  -29.2182   -5.6165   -8.0057 N   0  0  0  0  0  0  0  0  0  0  0  0
  -28.9254   -6.9682   -5.9838 N   0  0  0  0  0  0  0  0  0  0  0  0
  -29.3285   -6.0487   -4.9797 C   0  0  0  0  0  0  0  0  0  0  0  0
  -28.3756   -5.2626   -4.3211 C   0  0  0  0  0  0  0  0  0  0  0  0
  -28.7862   -4.2403   -3.4603 C   0  0  0  0  0  0  0  0  0  0  0  0
  -30.1445   -4.0261   -3.2301 C   0  0  0  0  0  0  0  0  0  0  0  0
  -30.6465   -2.7259   -2.2228 Cl  0  0  0  0  0  0  0  0  0  0  0  0
  -31.0982   -4.8482   -3.8237 C   0  0  0  0  0  0  0  0  0  0  0  0
  -30.6893   -5.8669   -4.6875 C   0  0  0  0  0  0  0  0  0  0  0  0
  -29.3916   -4.4609   -7.3232 N   0  0  0  0  0  0  0  0  0  0  0  0
  -29.4416   -4.5008   -6.3035 H   0  0  0  0  0  0  0  0  0  0  0  0
  -28.7142   -3.2777   -7.6722 C   0  0  0  0  0  0  0  0  0  0  0  0
  -27.8961   -3.4045   -8.7487 N   0  0  0  0  0  0  0  0  0  0  0  0
  -27.1333   -2.3660   -9.1815 N   0  0  0  0  0  0  0  0  0  0  0  0
  -27.2018   -1.1943   -8.5270 C   0  0  0  0  0  0  0  0  0  0  0  0
  -28.0007   -0.9895   -7.4105 C   0  0  0  0  0  0  0  0  0  0  0  0
  -28.0317    0.2592   -6.7607 C   0  0  0  0  0  0  0  0  0  0  0  0
  -28.8120    0.4533   -5.6230 C   0  0  0  0  0  0  0  0  0  0  0  0
  -29.5525   -0.6019   -5.1118 C   0  0  0  0  0  0  0  0  0  0  0  0
  -29.5286   -1.8418   -5.7533 C   0  0  0  0  0  0  0  0  0  0  0  0
  -28.7749   -2.0677   -6.9359 C   0  0  0  0  0  0  0  0  0  0  0  0
  1  2  2  0  0  0
  2  3  1  0  0  0
  2  7  1  0  0  0
  3  4  1  0  0  0
  4  5  1  0  0  0
  5  6  2  0  0  0
  5  7  1  0  0  0
  6 15  1  0  0  0
 15 17  1  0  0  0
 15 16  1  0  0  0
 17 18  1  0  0  0
 17 26  2  0  0  0
 18 19  2  0  0  0
 19 20  1  0  0  0
 20 21  2  0  0  0
 21 22  1  0  0  0
 21 26  1  0  0  0
 22 23  2  0  0  0
 23 24  1  0  0  0
 24 25  2  0  0  0
 25 26  1  0  0  0
  7  8  1  0  0  0
  8  9  1  0  0  0
  8 14  2  0  0  0
  9 10  2  0  0  0
 10 11  1  0  0  0
 11 12  1  0  0  0
 11 13  2  0  0  0
 13 14  1  0  0  0
M  END
> <minimizedAffinity>
-8.25917

$$$$
