CHEMBL3690510


 29 33  0  0  0  0  0  0  0  0999 V2000
  -20.2910    1.3298  -14.8315 C   0  0  0  0  0  0  0  0  0  0  0  0
  -20.5929    2.6906  -14.8639 C   0  0  0  0  0  0  0  0  0  0  0  0
  -19.6329    3.6175  -15.2594 C   0  0  0  0  0  0  0  0  0  0  0  0
  -18.3536    3.1900  -15.6023 C   0  0  0  0  0  0  0  0  0  0  0  0
  -17.9863    1.8442  -15.4734 C   0  0  0  0  0  0  0  0  0  0  0  0
  -18.9779    0.9151  -15.1165 C   0  0  0  0  0  0  0  0  0  0  0  0
  -16.5960    1.4175  -15.6798 C   0  0  0  0  0  0  0  0  0  0  0  0
  -15.7339    1.6338  -16.7437 C   0  0  0  0  0  0  0  0  0  0  0  0
  -14.5083    1.0450  -16.5441 N   0  0  0  0  0  0  0  0  0  0  0  0
  -14.5945    0.4518  -15.3746 C   0  0  0  0  0  0  0  0  0  0  0  0
  -13.6380   -0.3246  -14.6474 C   0  0  0  0  0  0  0  0  0  0  0  0
  -13.9520   -0.8890  -13.4526 C   0  0  0  0  0  0  0  0  0  0  0  0
  -15.2969   -0.6640  -12.9025 C   0  0  0  0  0  0  0  0  0  0  0  0
  -16.2026    0.0463  -13.5886 C   0  0  0  0  0  0  0  0  0  0  0  0
  -15.8563    0.6213  -14.8112 N   0  0  0  0  0  0  0  0  0  0  0  0
  -12.9433   -1.6829  -12.7999 C   0  0  0  0  0  0  0  0  0  0  0  0
  -11.7738   -1.2731  -12.3337 N   0  0  0  0  0  0  0  0  0  0  0  0
  -11.0353   -2.2739  -11.7402 N   0  0  0  0  0  0  0  0  0  0  0  0
  -11.6539   -3.4329  -11.7851 C   0  0  0  0  0  0  0  0  0  0  0  0
  -13.1731   -3.3949  -12.5592 S   0  0  0  0  0  0  0  0  0  0  0  0
  -23.0236    1.6228  -13.7361 O   0  0  0  0  0  0  0  0  0  0  0  0
  -22.5055    0.5394  -13.9859 C   0  0  0  0  0  0  0  0  0  0  0  0
  -21.2420    0.3361  -14.5111 N   0  0  0  0  0  0  0  0  0  0  0  0
  -23.1657   -0.6571  -13.7754 N   0  0  0  0  0  0  0  0  0  0  0  0
  -21.0322   -0.6004  -14.8176 H   0  0  0  0  0  0  0  0  0  0  0  0
  -22.6841   -1.5228  -13.9606 H   0  0  0  0  0  0  0  0  0  0  0  0
  -24.5022   -0.7175  -13.2707 C   0  0  0  0  0  0  0  0  0  0  0  0
  -24.9839   -1.9115  -12.4945 C   0  0  0  0  0  0  0  0  0  0  0  0
  -25.4980   -1.6643  -13.8826 C   0  0  0  0  0  0  0  0  0  0  0  0
 21 22  2  0  0  0
 22 23  1  0  0  0
 22 24  1  0  0  0
 23  1  1  0  0  0
 23 25  1  0  0  0
  1  2  1  0  0  0
  1  6  2  0  0  0
  2  3  2  0  0  0
  3  4  1  0  0  0
  4  5  2  0  0  0
  5  7  1  0  0  0
  5  6  1  0  0  0
  7  8  2  0  0  0
  7 15  1  0  0  0
  8  9  1  0  0  0
  9 10  2  0  0  0
 10 11  1  0  0  0
 10 15  1  0  0  0
 11 12  2  0  0  0
 12 16  1  0  0  0
 12 13  1  0  0  0
 16 17  2  0  0  0
 16 20  1  0  0  0
 17 18  1  0  0  0
 18 19  2  0  0  0
 19 20  1  0  0  0
 13 14  2  0  0  0
 14 15  1  0  0  0
 24 27  1  0  0  0
 24 26  1  0  0  0
 27 28  1  0  0  0
 27 29  1  0  0  0
 28 29  1  0  0  0
M  END
> <minimizedAffinity>
-8.94701

$$$$
