CHEMBL3116440


 49 54  0  0  0  0  0  0  0  0999 V2000
  -23.1653   -0.5714  -13.4478 C   0  0  0  0  0  0  0  0  0  0  0  0
  -24.3239   -0.9556  -14.1284 C   0  0  0  0  0  0  0  0  0  0  0  0
  -25.5378   -1.0985  -13.4435 C   0  0  0  0  0  0  0  0  0  0  0  0
  -25.6031   -0.9640  -12.0522 C   0  0  0  0  0  0  0  0  0  0  0  0
  -24.4331   -0.6207  -11.3696 C   0  0  0  0  0  0  0  0  0  0  0  0
  -23.2387   -0.4143  -12.0619 C   0  0  0  0  0  0  0  0  0  0  0  0
  -22.1560   -0.0403  -11.3637 F   0  0  0  0  0  0  0  0  0  0  0  0
  -26.8442   -1.0877  -11.4151 N   0  0  0  0  0  0  0  0  0  0  0  0
  -27.5317   -0.3627  -11.6315 H   0  0  0  0  0  0  0  0  0  0  0  0
  -27.2374   -2.0758  -10.5414 C   0  0  0  0  0  0  0  0  0  0  0  0
  -27.8775   -1.9576   -9.3675 C   0  0  0  0  0  0  0  0  0  0  0  0
  -28.4142   -0.6626   -8.9362 C   0  0  0  0  0  0  0  0  0  0  0  0
  -28.8398    0.1901   -9.6932 O   0  0  0  0  0  0  0  0  0  0  0  0
  -28.4060   -0.4923   -7.5899 N   0  0  0  0  0  0  0  0  0  0  0  0
  -28.5414   -1.5166   -6.6832 C   0  0  0  0  0  0  0  0  0  0  0  0
  -28.9543   -1.2108   -5.5637 O   0  0  0  0  0  0  0  0  0  0  0  0
  -28.2964   -2.7979   -7.1378 N   0  0  0  0  0  0  0  0  0  0  0  0
  -27.9399   -3.1241   -8.4495 C   0  0  0  0  0  0  0  0  0  0  0  0
  -27.6079   -4.2386   -8.8457 O   0  0  0  0  0  0  0  0  0  0  0  0
  -28.7784    0.3832   -7.2604 H   0  0  0  0  0  0  0  0  0  0  0  0
  -28.4351   -3.8684   -6.2050 C   0  0  0  0  0  0  0  0  0  0  0  0
  -29.3816   -4.8736   -6.4036 C   0  0  0  0  0  0  0  0  0  0  0  0
  -29.5710   -5.8716   -5.4455 C   0  0  0  0  0  0  0  0  0  0  0  0
  -28.7717   -5.9010   -4.2881 C   0  0  0  0  0  0  0  0  0  0  0  0
  -28.9782   -6.9572   -3.2490 C   0  0  0  0  0  0  0  0  0  0  0  0
  -27.8081   -4.9081   -4.0993 C   0  0  0  0  0  0  0  0  0  0  0  0
  -27.6393   -3.9007   -5.0386 C   0  0  0  0  0  0  0  0  0  0  0  0
  -21.9415   -0.3019  -14.0325 O   0  0  0  0  0  0  0  0  0  0  0  0
  -17.9161    0.8067  -15.1378 C   0  0  0  0  0  0  0  0  0  0  0  0
  -19.2439    0.4342  -14.9988 C   0  0  0  0  0  0  0  0  0  0  0  0
  -20.2554    1.3703  -14.7272 C   0  0  0  0  0  0  0  0  0  0  0  0
  -21.5408    0.9990  -14.2798 C   0  0  0  0  0  0  0  0  0  0  0  0
  -22.5186    1.9708  -14.1166 C   0  0  0  0  0  0  0  0  0  0  0  0
  -22.1639    3.2838  -14.3542 C   0  0  0  0  0  0  0  0  0  0  0  0
  -20.9184    3.6799  -14.7000 N   0  0  0  0  0  0  0  0  0  0  0  0
  -19.9725    2.7390  -14.8685 C   0  0  0  0  0  0  0  0  0  0  0  0
  -18.6773    3.1073  -15.2181 C   0  0  0  0  0  0  0  0  0  0  0  0
  -17.6470    2.1642  -15.3628 C   0  0  0  0  0  0  0  0  0  0  0  0
  -16.0961   -0.1818  -13.9126 C   0  0  0  0  0  0  0  0  0  0  0  0
  -16.9035   -0.1136  -15.0930 O   0  0  0  0  0  0  0  0  0  0  0  0
  -16.4436    2.7005  -15.7656 O   0  0  0  0  0  0  0  0  0  0  0  0
  -16.4903    4.1113  -15.9840 C   0  0  0  0  0  0  0  0  0  0  0  0
  -15.4225    4.5624  -16.9785 C   0  0  0  0  0  0  0  0  0  0  0  0
  -14.0597    4.0490  -16.4836 C   0  0  0  0  0  0  0  0  0  0  0  0
  -13.6081    4.6142  -15.2002 N   0  0  0  0  0  0  0  0  0  0  0  0
  -12.6340    5.7050  -15.3516 C   0  0  0  0  0  0  0  0  0  0  0  0
  -11.3047    5.0051  -15.5425 C   0  0  0  0  0  0  0  0  0  0  0  0
  -11.3938    3.8829  -14.5278 C   0  0  0  0  0  0  0  0  0  0  0  0
  -12.8904    3.5858  -14.4097 C   0  0  0  0  0  0  0  0  0  0  0  0
 39 40  1  0  0  0
 40 29  1  0  0  0
 29 30  1  0  0  0
 29 38  2  0  0  0
 30 31  2  0  0  0
 31 32  1  0  0  0
 31 36  1  0  0  0
 32 28  1  0  0  0
 32 33  2  0  0  0
 28  1  1  0  0  0
  1  2  1  0  0  0
  1  6  2  0  0  0
  2  3  2  0  0  0
  3  4  1  0  0  0
  4  8  1  0  0  0
  4  5  2  0  0  0
  8 10  1  0  0  0
  8  9  1  0  0  0
 10 11  2  0  0  0
 11 12  1  0  0  0
 11 18  1  0  0  0
 12 13  2  0  0  0
 12 14  1  0  0  0
 14 15  1  0  0  0
 14 20  1  0  0  0
 15 16  2  0  0  0
 15 17  1  0  0  0
 17 21  1  0  0  0
 17 18  1  0  0  0
 21 22  1  0  0  0
 21 27  2  0  0  0
 22 23  2  0  0  0
 23 24  1  0  0  0
 24 25  1  0  0  0
 24 26  2  0  0  0
 26 27  1  0  0  0
 18 19  2  0  0  0
  5  6  1  0  0  0
  6  7  1  0  0  0
 33 34  1  0  0  0
 34 35  2  0  0  0
 35 36  1  0  0  0
 36 37  2  0  0  0
 37 38  1  0  0  0
 38 41  1  0  0  0
 41 42  1  0  0  0
 42 43  1  0  0  0
 43 44  1  0  0  0
 44 45  1  0  0  0
 45 46  1  0  0  0
 45 49  1  0  0  0
 46 47  1  0  0  0
 47 48  1  0  0  0
 48 49  1  0  0  0
M  END
> <minimizedAffinity>
-9.23087

$$$$
