CHEMBL3775336


 26 28  0  0  0  0  0  0  0  0999 V2000
  -27.8358   -2.3927   -5.4773 C   0  0  0  0  0  0  0  0  0  0  0  0
  -28.0921   -3.2841   -4.4201 C   0  0  0  0  0  0  0  0  0  0  0  0
  -28.7944   -4.4685   -4.5922 C   0  0  0  0  0  0  0  0  0  0  0  0
  -28.9235   -5.2990   -3.5548 N   0  0  0  0  0  0  0  0  0  0  0  0
  -29.5737   -6.4449   -3.7820 C   0  0  0  0  0  0  0  0  0  0  0  0
  -30.1029   -6.8300   -4.9450 N   0  0  0  0  0  0  0  0  0  0  0  0
  -29.9627   -5.9881   -5.9852 C   0  0  0  0  0  0  0  0  0  0  0  0
  -29.3117   -4.7566   -5.8585 C   0  0  0  0  0  0  0  0  0  0  0  0
  -29.1592   -3.8106   -6.8971 C   0  0  0  0  0  0  0  0  0  0  0  0
  -28.4147   -2.6392   -6.7266 C   0  0  0  0  0  0  0  0  0  0  0  0
  -27.7522   -0.0844   -4.9496 C   0  0  0  0  0  0  0  0  0  0  0  0
  -27.0547   -1.2824   -5.2936 O   0  0  0  0  0  0  0  0  0  0  0  0
  -30.4588   -6.3838   -7.2575 N   0  0  0  0  0  0  0  0  0  0  0  0
  -30.2552   -5.6528   -7.9396 H   0  0  0  0  0  0  0  0  0  0  0  0
  -30.2427   -7.6629   -7.8249 C   0  0  0  0  0  0  0  0  0  0  0  0
  -28.9764   -8.0248   -8.3147 C   0  0  0  0  0  0  0  0  0  0  0  0
  -28.7767   -9.2663   -8.9123 C   0  0  0  0  0  0  0  0  0  0  0  0
  -29.8391  -10.1541   -9.0157 C   0  0  0  0  0  0  0  0  0  0  0  0
  -29.6570  -11.3392   -9.6153 F   0  0  0  0  0  0  0  0  0  0  0  0
  -31.0950   -9.8293   -8.5137 C   0  0  0  0  0  0  0  0  0  0  0  0
  -32.1333  -10.7138   -8.6276 O   0  0  0  0  0  0  0  0  0  0  0  0
  -31.2908   -8.5920   -7.9112 C   0  0  0  0  0  0  0  0  0  0  0  0
  -32.4960   -8.2617   -7.4204 F   0  0  0  0  0  0  0  0  0  0  0  0
  -31.7984  -11.4873   -9.1186 H   0  0  0  0  0  0  0  0  0  0  0  0
  -28.3611   -1.9122   -7.8798 O   0  0  0  0  0  0  0  0  0  0  0  0
  -27.5491   -2.3457   -8.9561 C   0  0  0  0  0  0  0  0  0  0  0  0
 11 12  1  0  0  0
 12  1  1  0  0  0
  1  2  1  0  0  0
  1 10  2  0  0  0
  2  3  2  0  0  0
  3  4  1  0  0  0
  3  8  1  0  0  0
  4  5  2  0  0  0
  5  6  1  0  0  0
  6  7  2  0  0  0
  7 13  1  0  0  0
  7  8  1  0  0  0
 13 15  1  0  0  0
 13 14  1  0  0  0
 15 16  1  0  0  0
 15 22  2  0  0  0
 16 17  2  0  0  0
 17 18  1  0  0  0
 18 19  1  0  0  0
 18 20  2  0  0  0
 20 21  1  0  0  0
 20 22  1  0  0  0
 21 24  1  0  0  0
 22 23  1  0  0  0
  8  9  2  0  0  0
  9 10  1  0  0  0
 10 25  1  0  0  0
 25 26  1  0  0  0
M  END
> <minimizedAffinity>
-7.91557

$$$$
