CHEMBL2007421


 30 32  0  0  0  0  0  0  0  0999 V2000
  -30.2854   -6.8903   -6.1662 C   0  0  0  0  0  0  0  0  0  0  0  0
  -30.2779   -5.6974   -6.8035 N   0  0  0  0  0  0  0  0  0  0  0  0
  -29.2956   -4.8320   -6.5536 C   0  0  0  0  0  0  0  0  0  0  0  0
  -28.3376   -5.0498   -5.6459 N   0  0  0  0  0  0  0  0  0  0  0  0
  -28.3551   -6.2499   -5.0247 C   0  0  0  0  0  0  0  0  0  0  0  0
  -29.2901   -7.2293   -5.2676 C   0  0  0  0  0  0  0  0  0  0  0  0
  -29.2304   -8.7279   -4.4319 Cl  0  0  0  0  0  0  0  0  0  0  0  0
  -31.3798   -7.7498   -6.3878 N   0  0  0  0  0  0  0  0  0  0  0  0
  -31.9834   -7.8378   -5.5799 H   0  0  0  0  0  0  0  0  0  0  0  0
  -30.7103  -10.3342   -8.6815 C   0  0  0  0  0  0  0  0  0  0  0  0
  -30.2729   -9.4686   -7.7108 C   0  0  0  0  0  0  0  0  0  0  0  0
  -31.4188   -8.7528   -7.2888 C   0  0  0  0  0  0  0  0  0  0  0  0
  -32.5068   -9.1342   -7.9567 N   0  0  0  0  0  0  0  0  0  0  0  0
  -32.0628  -10.1370   -8.7409 N   0  0  0  0  0  0  0  0  0  0  0  0
  -32.7198  -10.6212   -9.3373 H   0  0  0  0  0  0  0  0  0  0  0  0
  -30.1229  -11.2162   -9.4922 O   0  0  0  0  0  0  0  0  0  0  0  0
  -27.9945  -12.1485  -10.0246 C   0  0  0  0  0  0  0  0  0  0  0  0
  -28.8171  -10.8635   -9.9781 C   0  0  0  0  0  0  0  0  0  0  0  0
  -28.9185  -10.2618  -11.3805 C   0  0  0  0  0  0  0  0  0  0  0  0
  -29.2857   -3.7092   -7.3498 N   0  0  0  0  0  0  0  0  0  0  0  0
  -30.0331   -3.0946   -7.0328 H   0  0  0  0  0  0  0  0  0  0  0  0
  -28.0199   -3.0197   -7.5358 C   0  0  0  0  0  0  0  0  0  0  0  0
  -27.9067   -2.6378   -9.0147 C   0  0  0  0  0  0  0  0  0  0  0  0
  -27.9671   -1.7582   -6.6752 C   0  0  0  0  0  0  0  0  0  0  0  0
  -28.4054   -0.5370   -7.1920 C   0  0  0  0  0  0  0  0  0  0  0  0
  -28.3903    0.5905   -6.3708 C   0  0  0  0  0  0  0  0  0  0  0  0
  -27.9361    0.4670   -5.0679 C   0  0  0  0  0  0  0  0  0  0  0  0
  -27.9237    1.5286   -4.2522 F   0  0  0  0  0  0  0  0  0  0  0  0
  -27.4996   -0.7678   -4.6270 C   0  0  0  0  0  0  0  0  0  0  0  0
  -27.4957   -1.8802   -5.4007 N   0  0  0  0  0  0  0  0  0  0  0  0
 17 18  1  0  0  0
 18 19  1  0  0  0
 18 16  1  0  0  0
 16 10  1  0  0  0
 10 11  2  0  0  0
 10 14  1  0  0  0
 11 12  1  0  0  0
 12  8  1  0  0  0
 12 13  2  0  0  0
  8  1  1  0  0  0
  8  9  1  0  0  0
  1  2  1  0  0  0
  1  6  2  0  0  0
  2  3  2  0  0  0
  3 20  1  0  0  0
  3  4  1  0  0  0
 20 22  1  0  0  0
 20 21  1  0  0  0
 22 23  1  0  0  0
 22 24  1  0  0  0
 24 25  1  0  0  0
 24 30  2  0  0  0
 25 26  2  0  0  0
 26 27  1  0  0  0
 27 28  1  0  0  0
 27 29  2  0  0  0
 29 30  1  0  0  0
  4  5  2  0  0  0
  5  6  1  0  0  0
  6  7  1  0  0  0
 13 14  1  0  0  0
 14 15  1  0  0  0
M  END
> <minimizedAffinity>
-8.30927

$$$$
