CHEMBL3977192


 19 20  0  0  0  0  0  0  0  0999 V2000
  -27.7997   -2.4462   -8.3676 C   0  0  0  0  0  0  0  0  0  0  0  0
  -27.4492   -1.1846   -8.0136 N   0  0  0  0  0  0  0  0  0  0  0  0
  -27.8271   -0.6722   -6.8089 N   0  0  0  0  0  0  0  0  0  0  0  0
  -28.5760   -1.4234   -5.9782 C   0  0  0  0  0  0  0  0  0  0  0  0
  -28.9893   -2.7141   -6.2866 C   0  0  0  0  0  0  0  0  0  0  0  0
  -29.8049   -3.4644   -5.4177 C   0  0  0  0  0  0  0  0  0  0  0  0
  -30.2280   -4.7447   -5.7694 C   0  0  0  0  0  0  0  0  0  0  0  0
  -29.8345   -5.2975   -6.9824 C   0  0  0  0  0  0  0  0  0  0  0  0
  -29.0166   -4.5658   -7.8462 C   0  0  0  0  0  0  0  0  0  0  0  0
  -28.5833   -3.2583   -7.5185 C   0  0  0  0  0  0  0  0  0  0  0  0
  -27.3234   -2.9963   -9.5970 N   0  0  0  0  0  0  0  0  0  0  0  0
  -26.8914   -3.8940   -9.3642 H   0  0  0  0  0  0  0  0  0  0  0  0
  -26.3894   -2.1605  -10.2458 N   0  0  0  0  0  0  0  0  0  0  0  0
  -25.8189   -1.5498   -9.6575 H   0  0  0  0  0  0  0  0  0  0  0  0
  -27.8202   -2.0947  -12.0531 N   0  0  0  0  0  0  0  0  0  0  0  0
  -26.5723   -1.8677  -11.5682 C   0  0  0  0  0  0  0  0  0  0  0  0
  -25.3543   -1.3076  -12.5416 S   0  0  0  0  0  0  0  0  0  0  0  0
  -28.0396   -1.7644  -12.9835 H   0  0  0  0  0  0  0  0  0  0  0  0
  -28.5661   -2.1203  -11.3713 H   0  0  0  0  0  0  0  0  0  0  0  0
 15 16  1  0  0  0
 15 18  1  0  0  0
 15 19  1  0  0  0
 16 17  2  0  0  0
 16 13  1  0  0  0
 13 11  1  0  0  0
 13 14  1  0  0  0
 11  1  1  0  0  0
 11 12  1  0  0  0
  1  2  1  0  0  0
  1 10  2  0  0  0
  2  3  2  0  0  0
  3  4  1  0  0  0
  4  5  2  0  0  0
  5  6  1  0  0  0
  5 10  1  0  0  0
  6  7  2  0  0  0
  7  8  1  0  0  0
  8  9  2  0  0  0
  9 10  1  0  0  0
M  END
> <minimizedAffinity>
-6.68390

$$$$
