CHEMBL602123


 37 40  0  0  0  0  0  0  0  0999 V2000
  -28.0989   -2.7333   -8.2914 C   0  0  0  0  0  0  0  0  0  0  0  0
  -28.9608   -3.8038   -8.0181 C   0  0  0  0  0  0  0  0  0  0  0  0
  -29.6082   -3.9009   -6.7756 C   0  0  0  0  0  0  0  0  0  0  0  0
  -29.3463   -2.9425   -5.7907 C   0  0  0  0  0  0  0  0  0  0  0  0
  -29.8978   -3.0338   -4.5718 F   0  0  0  0  0  0  0  0  0  0  0  0
  -28.5189   -1.8638   -6.0662 C   0  0  0  0  0  0  0  0  0  0  0  0
  -28.3380   -0.9061   -5.1458 F   0  0  0  0  0  0  0  0  0  0  0  0
  -27.8913   -1.7678   -7.2994 C   0  0  0  0  0  0  0  0  0  0  0  0
  -27.0836   -0.7244   -7.5540 F   0  0  0  0  0  0  0  0  0  0  0  0
  -28.5164   -0.6915  -10.3684 O   0  0  0  0  0  0  0  0  0  0  0  0
  -27.6703   -1.5744  -10.4592 C   0  0  0  0  0  0  0  0  0  0  0  0
  -27.4127   -2.5479   -9.5163 N   0  0  0  0  0  0  0  0  0  0  0  0
  -26.5670   -3.1004   -9.6270 H   0  0  0  0  0  0  0  0  0  0  0  0
  -26.7704   -1.5708  -11.6437 C   0  0  0  0  0  0  0  0  0  0  0  0
  -27.3385   -1.8220  -12.8966 C   0  0  0  0  0  0  0  0  0  0  0  0
  -26.5314   -1.8779  -14.0295 C   0  0  0  0  0  0  0  0  0  0  0  0
  -25.1536   -1.6785  -13.9193 C   0  0  0  0  0  0  0  0  0  0  0  0
  -24.5823   -1.3746  -12.6828 C   0  0  0  0  0  0  0  0  0  0  0  0
  -25.3900   -1.3570  -11.5368 C   0  0  0  0  0  0  0  0  0  0  0  0
  -23.2609   -1.1382  -12.4551 O   0  0  0  0  0  0  0  0  0  0  0  0
  -22.6306   -0.0099  -13.0541 C   0  0  0  0  0  0  0  0  0  0  0  0
  -22.2317   -0.2051  -14.3279 F   0  0  0  0  0  0  0  0  0  0  0  0
  -23.5107    1.0168  -13.0559 F   0  0  0  0  0  0  0  0  0  0  0  0
  -21.5622    0.3516  -12.3127 F   0  0  0  0  0  0  0  0  0  0  0  0
  -30.4310   -4.9962   -6.5920 O   0  0  0  0  0  0  0  0  0  0  0  0
  -29.8845   -6.2006   -6.2164 C   0  0  0  0  0  0  0  0  0  0  0  0
  -28.7418   -6.3461   -5.4139 C   0  0  0  0  0  0  0  0  0  0  0  0
  -28.2069   -7.6190   -5.1156 C   0  0  0  0  0  0  0  0  0  0  0  0
  -28.8382   -8.7859   -5.5518 C   0  0  0  0  0  0  0  0  0  0  0  0
  -29.9942   -8.6253   -6.2759 C   0  0  0  0  0  0  0  0  0  0  0  0
  -30.8414   -9.5977   -6.7949 N   0  0  0  0  0  0  0  0  0  0  0  0
  -31.9017   -8.9579   -7.4608 C   0  0  0  0  0  0  0  0  0  0  0  0
  -32.8343   -9.5061   -8.0281 O   0  0  0  0  0  0  0  0  0  0  0  0
  -31.6797   -7.5822   -7.3391 N   0  0  0  0  0  0  0  0  0  0  0  0
  -30.5093   -7.3699   -6.6060 C   0  0  0  0  0  0  0  0  0  0  0  0
  -30.7449  -10.5970   -6.7194 H   0  0  0  0  0  0  0  0  0  0  0  0
  -32.2894   -6.8756   -7.7164 H   0  0  0  0  0  0  0  0  0  0  0  0
 10 11  2  0  0  0
 11 12  1  0  0  0
 11 14  1  0  0  0
 12  1  1  0  0  0
 12 13  1  0  0  0
  1  2  1  0  0  0
  1  8  2  0  0  0
  2  3  2  0  0  0
  3 25  1  0  0  0
  3  4  1  0  0  0
 25 26  1  0  0  0
 26 27  1  0  0  0
 26 35  2  0  0  0
 27 28  2  0  0  0
 28 29  1  0  0  0
 29 30  2  0  0  0
 30 31  1  0  0  0
 30 35  1  0  0  0
 31 32  1  0  0  0
 31 36  1  0  0  0
 32 33  2  0  0  0
 32 34  1  0  0  0
 34 35  1  0  0  0
 34 37  1  0  0  0
  4  5  1  0  0  0
  4  6  2  0  0  0
  6  7  1  0  0  0
  6  8  1  0  0  0
  8  9  1  0  0  0
 14 15  1  0  0  0
 14 19  2  0  0  0
 15 16  2  0  0  0
 16 17  1  0  0  0
 17 18  2  0  0  0
 18 20  1  0  0  0
 18 19  1  0  0  0
 20 21  1  0  0  0
 21 22  1  0  0  0
 21 23  1  0  0  0
 21 24  1  0  0  0
M  END
> <minimizedAffinity>
-11.12475

$$$$
