CHEMBL92623


 21 24  0  0  0  0  0  0  0  0999 V2000
  -29.8567   -2.8731   -4.5726 C   0  0  0  0  0  0  0  0  0  0  0  0
  -30.5130   -3.3817   -3.4309 C   0  0  0  0  0  0  0  0  0  0  0  0
  -30.8946   -4.6518   -3.5603 N   0  0  0  0  0  0  0  0  0  0  0  0
  -30.5008   -4.9911   -4.8108 N   0  0  0  0  0  0  0  0  0  0  0  0
  -30.7081   -6.2102   -5.4514 C   0  0  0  0  0  0  0  0  0  0  0  0
  -30.2718   -6.4048   -6.7043 C   0  0  0  0  0  0  0  0  0  0  0  0
  -29.5573   -5.2348   -7.3035 C   0  0  0  0  0  0  0  0  0  0  0  0
  -29.3533   -4.0829   -6.7363 N   0  0  0  0  0  0  0  0  0  0  0  0
  -29.8390   -3.9396   -5.4586 C   0  0  0  0  0  0  0  0  0  0  0  0
  -28.4202    1.0361   -5.5034 C   0  0  0  0  0  0  0  0  0  0  0  0
  -27.5520    0.0894   -4.9651 C   0  0  0  0  0  0  0  0  0  0  0  0
  -28.0214   -1.1849   -4.6341 C   0  0  0  0  0  0  0  0  0  0  0  0
  -29.3637   -1.5291   -4.8398 C   0  0  0  0  0  0  0  0  0  0  0  0
  -30.2359   -0.5519   -5.3440 C   0  0  0  0  0  0  0  0  0  0  0  0
  -29.7640    0.7190   -5.6853 C   0  0  0  0  0  0  0  0  0  0  0  0
  -30.4799   -7.6544   -7.4339 C   0  0  0  0  0  0  0  0  0  0  0  0
  -29.4621   -8.1882   -8.2248 C   0  0  0  0  0  0  0  0  0  0  0  0
  -29.7110   -9.3690   -8.9062 C   0  0  0  0  0  0  0  0  0  0  0  0
  -30.8851  -10.0326   -8.8496 N   0  0  0  0  0  0  0  0  0  0  0  0
  -31.8557   -9.4944   -8.0829 C   0  0  0  0  0  0  0  0  0  0  0  0
  -31.7037   -8.3198   -7.3637 C   0  0  0  0  0  0  0  0  0  0  0  0
 10 11  1  0  0  0
 10 15  2  0  0  0
 11 12  2  0  0  0
 12 13  1  0  0  0
 13  1  1  0  0  0
 13 14  2  0  0  0
  1  2  1  0  0  0
  1  9  2  0  0  0
  2  3  2  0  0  0
  3  4  1  0  0  0
  4  5  1  0  0  0
  4  9  1  0  0  0
  5  6  2  0  0  0
  6 16  1  0  0  0
  6  7  1  0  0  0
 16 17  1  0  0  0
 16 21  2  0  0  0
 17 18  2  0  0  0
 18 19  1  0  0  0
 19 20  2  0  0  0
 20 21  1  0  0  0
  7  8  2  0  0  0
  8  9  1  0  0  0
 14 15  1  0  0  0
M  END
> <minimizedAffinity>
-8.65518

$$$$
