CHEMBL3690450


 38 42  0  0  0  0  0  0  0  0999 V2000
  -29.6470   -2.5480   -5.5874 C   0  0  0  0  0  0  0  0  0  0  0  0
  -29.4787   -1.2556   -5.1093 C   0  0  0  0  0  0  0  0  0  0  0  0
  -28.7266   -0.4808   -5.9506 N   0  0  0  0  0  0  0  0  0  0  0  0
  -28.4023   -1.2720   -6.9467 C   0  0  0  0  0  0  0  0  0  0  0  0
  -27.6211   -1.0120   -8.1125 C   0  0  0  0  0  0  0  0  0  0  0  0
  -27.4052   -1.9873   -9.0236 C   0  0  0  0  0  0  0  0  0  0  0  0
  -27.9546   -3.3240   -8.8050 C   0  0  0  0  0  0  0  0  0  0  0  0
  -28.6669   -3.5789   -7.6961 C   0  0  0  0  0  0  0  0  0  0  0  0
  -28.9195   -2.5567   -6.7757 N   0  0  0  0  0  0  0  0  0  0  0  0
  -30.8844   -6.0736   -4.8307 C   0  0  0  0  0  0  0  0  0  0  0  0
  -31.6358   -5.8348   -3.6822 C   0  0  0  0  0  0  0  0  0  0  0  0
  -31.7929   -4.5338   -3.2034 C   0  0  0  0  0  0  0  0  0  0  0  0
  -31.1572   -3.4666   -3.8409 C   0  0  0  0  0  0  0  0  0  0  0  0
  -30.3608   -3.6797   -4.9723 C   0  0  0  0  0  0  0  0  0  0  0  0
  -30.2803   -4.9872   -5.4822 C   0  0  0  0  0  0  0  0  0  0  0  0
  -31.0434   -6.9968   -7.6620 O   0  0  0  0  0  0  0  0  0  0  0  0
  -30.7845   -7.7205   -6.7103 C   0  0  0  0  0  0  0  0  0  0  0  0
  -30.5166   -9.0645   -6.8804 N   0  0  0  0  0  0  0  0  0  0  0  0
  -30.6863   -7.3566   -5.3870 N   0  0  0  0  0  0  0  0  0  0  0  0
  -30.7699   -9.6638   -6.1075 H   0  0  0  0  0  0  0  0  0  0  0  0
  -30.3856   -8.0802   -4.7538 H   0  0  0  0  0  0  0  0  0  0  0  0
  -30.6624   -9.6512   -8.2170 C   0  0  0  0  0  0  0  0  0  0  0  0
  -29.3611   -9.7654   -9.0231 C   0  0  0  0  0  0  0  0  0  0  0  0
  -28.7651   -8.5607   -9.1887 F   0  0  0  0  0  0  0  0  0  0  0  0
  -28.4716  -10.6006   -8.4515 F   0  0  0  0  0  0  0  0  0  0  0  0
  -29.6267  -10.2405  -10.2655 F   0  0  0  0  0  0  0  0  0  0  0  0
  -26.6058   -1.6746  -10.2160 C   0  0  0  0  0  0  0  0  0  0  0  0
  -27.1623   -1.3088  -11.4187 C   0  0  0  0  0  0  0  0  0  0  0  0
  -26.4402   -0.9332  -12.5001 N   0  0  0  0  0  0  0  0  0  0  0  0
  -25.1050   -0.9318  -12.3784 C   0  0  0  0  0  0  0  0  0  0  0  0
  -24.4676   -1.2988  -11.2522 N   0  0  0  0  0  0  0  0  0  0  0  0
  -25.2295   -1.6532  -10.1947 C   0  0  0  0  0  0  0  0  0  0  0  0
  -24.3298   -0.4967  -13.4675 N   0  0  0  0  0  0  0  0  0  0  0  0
  -23.8461    0.8404  -13.6176 C   0  0  0  0  0  0  0  0  0  0  0  0
  -22.4461    0.2833  -13.9074 C   0  0  0  0  0  0  0  0  0  0  0  0
  -21.8902    0.6480  -15.0881 F   0  0  0  0  0  0  0  0  0  0  0  0
  -21.5104    0.5214  -12.9548 F   0  0  0  0  0  0  0  0  0  0  0  0
  -23.0955   -1.1036  -13.8681 C   0  0  0  0  0  0  0  0  0  0  0  0
 16 17  2  0  0  0
 17 18  1  0  0  0
 17 19  1  0  0  0
 18 22  1  0  0  0
 18 20  1  0  0  0
 22 23  1  0  0  0
 23 24  1  0  0  0
 23 25  1  0  0  0
 23 26  1  0  0  0
 19 10  1  0  0  0
 19 21  1  0  0  0
 10 11  1  0  0  0
 10 15  2  0  0  0
 11 12  2  0  0  0
 12 13  1  0  0  0
 13 14  2  0  0  0
 14  1  1  0  0  0
 14 15  1  0  0  0
  1  2  2  0  0  0
  1  9  1  0  0  0
  2  3  1  0  0  0
  3  4  2  0  0  0
  4  5  1  0  0  0
  4  9  1  0  0  0
  5  6  2  0  0  0
  6 27  1  0  0  0
  6  7  1  0  0  0
 27 28  1  0  0  0
 27 32  2  0  0  0
 28 29  2  0  0  0
 29 30  1  0  0  0
 30 33  1  0  0  0
 30 31  2  0  0  0
 33 34  1  0  0  0
 33 38  1  0  0  0
 34 35  1  0  0  0
 35 36  1  0  0  0
 35 37  1  0  0  0
 35 38  1  0  0  0
 31 32  1  0  0  0
  7  8  2  0  0  0
  8  9  1  0  0  0
M  END
> <minimizedAffinity>
-9.82677

$$$$
