CHEMBL243914


 39 42  0  0  0  0  0  0  0  0999 V2000
  -16.9681    1.5924  -15.4244 C   0  0  0  0  0  0  0  0  0  0  0  0
  -17.0455    1.1677  -14.1034 C   0  0  0  0  0  0  0  0  0  0  0  0
  -16.0133    0.4017  -13.5526 C   0  0  0  0  0  0  0  0  0  0  0  0
  -14.8916    0.0460  -14.3107 C   0  0  0  0  0  0  0  0  0  0  0  0
  -14.8503    0.4269  -15.6555 C   0  0  0  0  0  0  0  0  0  0  0  0
  -15.8971    1.1704  -16.2164 C   0  0  0  0  0  0  0  0  0  0  0  0
  -13.7817   -0.6555  -13.7838 N   0  0  0  0  0  0  0  0  0  0  0  0
  -13.8180   -1.9103  -13.2106 C   0  0  0  0  0  0  0  0  0  0  0  0
  -14.8011   -2.6440  -13.1756 O   0  0  0  0  0  0  0  0  0  0  0  0
  -12.6025   -2.2599  -12.6347 N   0  0  0  0  0  0  0  0  0  0  0  0
  -12.8675   -0.2523  -13.9272 H   0  0  0  0  0  0  0  0  0  0  0  0
  -12.1397   -1.4998  -12.1506 H   0  0  0  0  0  0  0  0  0  0  0  0
  -12.4809   -3.5280  -12.0106 C   0  0  0  0  0  0  0  0  0  0  0  0
  -12.6359   -3.6703  -10.6261 C   0  0  0  0  0  0  0  0  0  0  0  0
  -12.3951   -4.9021   -9.9992 C   0  0  0  0  0  0  0  0  0  0  0  0
  -11.9901   -5.9940  -10.7853 C   0  0  0  0  0  0  0  0  0  0  0  0
  -11.8683   -5.8642  -12.1720 C   0  0  0  0  0  0  0  0  0  0  0  0
  -12.1374   -4.6403  -12.7773 C   0  0  0  0  0  0  0  0  0  0  0  0
  -11.9877   -4.5152  -14.1049 F   0  0  0  0  0  0  0  0  0  0  0  0
  -12.5522   -5.0509   -8.5049 C   0  0  0  0  0  0  0  0  0  0  0  0
  -11.6337   -5.8764   -7.9320 F   0  0  0  0  0  0  0  0  0  0  0  0
  -12.4292   -3.8575   -7.8580 F   0  0  0  0  0  0  0  0  0  0  0  0
  -13.7720   -5.5409   -8.1520 F   0  0  0  0  0  0  0  0  0  0  0  0
  -18.0002    2.3915  -15.8653 O   0  0  0  0  0  0  0  0  0  0  0  0
  -22.9345    0.2627  -13.8336 C   0  0  0  0  0  0  0  0  0  0  0  0
  -23.0039    1.5734  -13.7228 N   0  0  0  0  0  0  0  0  0  0  0  0
  -21.7729    1.9949  -14.1504 C   0  0  0  0  0  0  0  0  0  0  0  0
  -21.2105    3.2743  -14.1998 C   0  0  0  0  0  0  0  0  0  0  0  0
  -19.9158    3.4026  -14.7218 C   0  0  0  0  0  0  0  0  0  0  0  0
  -19.2320    2.2933  -15.2484 C   0  0  0  0  0  0  0  0  0  0  0  0
  -19.7544    0.9979  -15.1378 C   0  0  0  0  0  0  0  0  0  0  0  0
  -21.0240    0.9115  -14.5798 C   0  0  0  0  0  0  0  0  0  0  0  0
  -21.7657   -0.2122  -14.3557 O   0  0  0  0  0  0  0  0  0  0  0  0
  -23.8822   -1.4199  -12.4211 C   0  0  0  0  0  0  0  0  0  0  0  0
  -22.9692   -1.5738  -11.6292 O   0  0  0  0  0  0  0  0  0  0  0  0
  -23.9352   -0.5882  -13.4915 N   0  0  0  0  0  0  0  0  0  0  0  0
  -24.8152   -0.4777  -13.9658 H   0  0  0  0  0  0  0  0  0  0  0  0
  -26.2025   -1.1776  -12.1609 C   0  0  0  0  0  0  0  0  0  0  0  0
  -25.0851   -2.0537  -12.3216 O   0  0  0  0  0  0  0  0  0  0  0  0
 38 39  1  0  0  0
 39 34  1  0  0  0
 34 35  2  0  0  0
 34 36  1  0  0  0
 36 25  1  0  0  0
 36 37  1  0  0  0
 25 26  2  0  0  0
 25 33  1  0  0  0
 26 27  1  0  0  0
 27 28  1  0  0  0
 27 32  2  0  0  0
 28 29  2  0  0  0
 29 30  1  0  0  0
 30 24  1  0  0  0
 30 31  2  0  0  0
 24  1  1  0  0  0
  1  2  1  0  0  0
  1  6  2  0  0  0
  2  3  2  0  0  0
  3  4  1  0  0  0
  4  7  1  0  0  0
  4  5  2  0  0  0
  7  8  1  0  0  0
  7 11  1  0  0  0
  8  9  2  0  0  0
  8 10  1  0  0  0
 10 13  1  0  0  0
 10 12  1  0  0  0
 13 14  1  0  0  0
 13 18  2  0  0  0
 14 15  2  0  0  0
 15 20  1  0  0  0
 15 16  1  0  0  0
 20 21  1  0  0  0
 20 22  1  0  0  0
 20 23  1  0  0  0
 16 17  2  0  0  0
 17 18  1  0  0  0
 18 19  1  0  0  0
  5  6  1  0  0  0
 31 32  1  0  0  0
 32 33  1  0  0  0
M  END
> <minimizedAffinity>
-9.62382

$$$$
