CHEMBL3969197


 38 42  0  0  0  0  0  0  0  0999 V2000
  -28.0630   -7.8613   -5.2729 C   0  0  0  0  0  0  0  0  0  0  0  0
  -28.7493   -7.9512   -6.4823 C   0  0  0  0  0  0  0  0  0  0  0  0
  -29.2949   -6.8161   -7.0732 C   0  0  0  0  0  0  0  0  0  0  0  0
  -29.2570   -5.5892   -6.4086 C   0  0  0  0  0  0  0  0  0  0  0  0
  -28.5717   -5.4875   -5.1957 C   0  0  0  0  0  0  0  0  0  0  0  0
  -27.9792   -6.6175   -4.6285 C   0  0  0  0  0  0  0  0  0  0  0  0
  -29.0890   -9.7398   -3.2778 O   0  0  0  0  0  0  0  0  0  0  0  0
  -27.9490   -9.7876   -3.7331 C   0  0  0  0  0  0  0  0  0  0  0  0
  -27.4175   -8.9672   -4.6737 N   0  0  0  0  0  0  0  0  0  0  0  0
  -27.1861  -10.8307   -3.3055 N   0  0  0  0  0  0  0  0  0  0  0  0
  -26.6063   -9.3124   -5.1537 H   0  0  0  0  0  0  0  0  0  0  0  0
  -27.7684  -11.4868   -2.7962 H   0  0  0  0  0  0  0  0  0  0  0  0
  -25.8340  -11.1593   -3.4316 C   0  0  0  0  0  0  0  0  0  0  0  0
  -25.0686  -11.8262   -2.4737 C   0  0  0  0  0  0  0  0  0  0  0  0
  -23.7248  -12.1110   -2.7364 C   0  0  0  0  0  0  0  0  0  0  0  0
  -23.1483  -11.7706   -3.9625 C   0  0  0  0  0  0  0  0  0  0  0  0
  -23.9086  -11.1329   -4.9259 C   0  0  0  0  0  0  0  0  0  0  0  0
  -25.2471  -10.8270   -4.6503 C   0  0  0  0  0  0  0  0  0  0  0  0
  -23.3504  -10.7563   -6.2516 C   0  0  0  0  0  0  0  0  0  0  0  0
  -24.1718  -11.1645   -7.2691 F   0  0  0  0  0  0  0  0  0  0  0  0
  -23.2843   -9.3983   -6.3925 F   0  0  0  0  0  0  0  0  0  0  0  0
  -21.9852  -11.3267   -6.5381 C   0  0  0  0  0  0  0  0  0  0  0  0
  -21.1800  -11.7423   -5.3187 C   0  0  0  0  0  0  0  0  0  0  0  0
  -21.8631  -12.1564   -4.1432 O   0  0  0  0  0  0  0  0  0  0  0  0
  -29.8437   -4.4406   -6.9009 O   0  0  0  0  0  0  0  0  0  0  0  0
  -29.0433   -3.3489   -7.1825 C   0  0  0  0  0  0  0  0  0  0  0  0
  -28.9187   -2.2488   -6.3368 C   0  0  0  0  0  0  0  0  0  0  0  0
  -28.1545   -1.1895   -6.7680 C   0  0  0  0  0  0  0  0  0  0  0  0
  -27.4738   -1.1986   -7.9214 N   0  0  0  0  0  0  0  0  0  0  0  0
  -27.5253   -2.2890   -8.7033 C   0  0  0  0  0  0  0  0  0  0  0  0
  -28.3050   -3.3893   -8.3692 C   0  0  0  0  0  0  0  0  0  0  0  0
  -26.7733   -2.3157   -9.8881 N   0  0  0  0  0  0  0  0  0  0  0  0
  -27.1189   -1.6092  -11.0236 C   0  0  0  0  0  0  0  0  0  0  0  0
  -28.0873   -0.8807  -11.1908 O   0  0  0  0  0  0  0  0  0  0  0  0
  -25.9304   -2.8649   -9.8973 H   0  0  0  0  0  0  0  0  0  0  0  0
  -26.1502   -1.7709  -12.1546 C   0  0  0  0  0  0  0  0  0  0  0  0
  -24.6853   -1.9792  -11.8401 C   0  0  0  0  0  0  0  0  0  0  0  0
  -25.1371   -0.6799  -12.4387 C   0  0  0  0  0  0  0  0  0  0  0  0
  7  8  2  0  0  0
  8  9  1  0  0  0
  8 10  1  0  0  0
  9  1  1  0  0  0
  9 11  1  0  0  0
  1  2  1  0  0  0
  1  6  2  0  0  0
  2  3  2  0  0  0
  3  4  1  0  0  0
  4 25  1  0  0  0
  4  5  2  0  0  0
 25 26  1  0  0  0
 26 27  1  0  0  0
 26 31  2  0  0  0
 27 28  2  0  0  0
 28 29  1  0  0  0
 29 30  2  0  0  0
 30 32  1  0  0  0
 30 31  1  0  0  0
 32 33  1  0  0  0
 32 35  1  0  0  0
 33 34  2  0  0  0
 33 36  1  0  0  0
 36 37  1  0  0  0
 36 38  1  0  0  0
 37 38  1  0  0  0
  5  6  1  0  0  0
 10 13  1  0  0  0
 10 12  1  0  0  0
 13 14  1  0  0  0
 13 18  2  0  0  0
 14 15  2  0  0  0
 15 16  1  0  0  0
 16 17  2  0  0  0
 16 24  1  0  0  0
 17 18  1  0  0  0
 17 19  1  0  0  0
 19 20  1  0  0  0
 19 21  1  0  0  0
 19 22  1  0  0  0
 22 23  1  0  0  0
 23 24  1  0  0  0
M  END
> <minimizedAffinity>
-9.90764

$$$$
