CHEMBL1095359


 47 52  0  0  0  0  0  0  0  0999 V2000
  -23.4496   -0.8755  -13.3145 C   0  0  0  0  0  0  0  0  0  0  0  0
  -22.8036   -1.1868  -12.1245 C   0  0  0  0  0  0  0  0  0  0  0  0
  -23.5452   -1.4974  -10.9995 C   0  0  0  0  0  0  0  0  0  0  0  0
  -24.9377   -1.5097  -11.0579 C   0  0  0  0  0  0  0  0  0  0  0  0
  -25.5803   -1.3965  -12.2902 C   0  0  0  0  0  0  0  0  0  0  0  0
  -24.8277   -1.0766  -13.4193 C   0  0  0  0  0  0  0  0  0  0  0  0
  -25.4825   -0.9286  -14.5799 F   0  0  0  0  0  0  0  0  0  0  0  0
  -25.7065   -1.6382   -9.8950 N   0  0  0  0  0  0  0  0  0  0  0  0
  -27.0904   -1.5918   -9.8789 C   0  0  0  0  0  0  0  0  0  0  0  0
  -27.8376   -1.6182  -10.8465 O   0  0  0  0  0  0  0  0  0  0  0  0
  -25.2155   -1.8579   -9.0398 H   0  0  0  0  0  0  0  0  0  0  0  0
  -27.6267   -1.4937   -8.5469 C   0  0  0  0  0  0  0  0  0  0  0  0
  -27.8413   -0.3545   -7.7633 C   0  0  0  0  0  0  0  0  0  0  0  0
  -28.5032   -0.6381   -6.6515 N   0  0  0  0  0  0  0  0  0  0  0  0
  -28.6058   -2.0013   -6.6411 N   0  0  0  0  0  0  0  0  0  0  0  0
  -28.1181   -2.5527   -7.7958 C   0  0  0  0  0  0  0  0  0  0  0  0
  -29.2013   -2.6092   -5.5033 C   0  0  0  0  0  0  0  0  0  0  0  0
  -28.5231   -2.5209   -4.2782 C   0  0  0  0  0  0  0  0  0  0  0  0
  -29.0780   -3.0777   -3.1288 C   0  0  0  0  0  0  0  0  0  0  0  0
  -30.2961   -3.7475   -3.2014 C   0  0  0  0  0  0  0  0  0  0  0  0
  -30.9586   -3.8647   -4.4232 C   0  0  0  0  0  0  0  0  0  0  0  0
  -30.4148   -3.2982   -5.5772 C   0  0  0  0  0  0  0  0  0  0  0  0
  -28.2855   -3.9723   -8.1695 C   0  0  0  0  0  0  0  0  0  0  0  0
  -28.0714   -4.8284   -7.1368 F   0  0  0  0  0  0  0  0  0  0  0  0
  -29.5279   -4.2411   -8.6399 F   0  0  0  0  0  0  0  0  0  0  0  0
  -27.4025   -4.3486   -9.1292 F   0  0  0  0  0  0  0  0  0  0  0  0
  -22.5833   -0.3537  -14.2325 O   0  0  0  0  0  0  0  0  0  0  0  0
  -18.5344    1.5623  -14.7184 C   0  0  0  0  0  0  0  0  0  0  0  0
  -19.1676    2.7871  -14.5826 C   0  0  0  0  0  0  0  0  0  0  0  0
  -20.5665    2.6574  -14.3078 C   0  0  0  0  0  0  0  0  0  0  0  0
  -21.4682    3.6683  -14.1553 N   0  0  0  0  0  0  0  0  0  0  0  0
  -22.7584    3.2796  -14.0146 C   0  0  0  0  0  0  0  0  0  0  0  0
  -23.2210    1.9772  -14.0457 C   0  0  0  0  0  0  0  0  0  0  0  0
  -22.2864    0.9715  -14.2184 C   0  0  0  0  0  0  0  0  0  0  0  0
  -20.9424    1.3241  -14.2876 C   0  0  0  0  0  0  0  0  0  0  0  0
  -19.6046    0.2751  -14.3736 S   0  0  0  0  0  0  0  0  0  0  0  0
  -14.5803    0.7794  -15.9447 C   0  0  0  0  0  0  0  0  0  0  0  0
  -15.0763    0.1147  -14.8149 C   0  0  0  0  0  0  0  0  0  0  0  0
  -16.3902    0.3297  -14.3914 C   0  0  0  0  0  0  0  0  0  0  0  0
  -17.1780    1.2057  -15.1222 C   0  0  0  0  0  0  0  0  0  0  0  0
  -16.7230    1.8536  -16.2228 N   0  0  0  0  0  0  0  0  0  0  0  0
  -15.4521    1.6152  -16.6161 C   0  0  0  0  0  0  0  0  0  0  0  0
  -10.8712    0.8516  -16.8269 C   0  0  0  0  0  0  0  0  0  0  0  0
  -12.1080    1.2254  -16.1589 N   0  0  0  0  0  0  0  0  0  0  0  0
  -12.0189    2.2486  -15.1256 C   0  0  0  0  0  0  0  0  0  0  0  0
  -13.2285    0.4451  -16.4540 C   0  0  0  0  0  0  0  0  0  0  0  0
  -13.1462   -0.5560  -17.1686 O   0  0  0  0  0  0  0  0  0  0  0  0
 43 44  1  0  0  0
 44 45  1  0  0  0
 44 46  1  0  0  0
 46 47  2  0  0  0
 46 37  1  0  0  0
 37 38  1  0  0  0
 37 42  2  0  0  0
 38 39  2  0  0  0
 39 40  1  0  0  0
 40 28  1  0  0  0
 40 41  2  0  0  0
 28 29  2  0  0  0
 28 36  1  0  0  0
 29 30  1  0  0  0
 30 31  1  0  0  0
 30 35  2  0  0  0
 31 32  2  0  0  0
 32 33  1  0  0  0
 33 34  2  0  0  0
 34 27  1  0  0  0
 34 35  1  0  0  0
 27  1  1  0  0  0
  1  2  1  0  0  0
  1  6  2  0  0  0
  2  3  2  0  0  0
  3  4  1  0  0  0
  4  8  1  0  0  0
  4  5  2  0  0  0
  8  9  1  0  0  0
  8 11  1  0  0  0
  9 10  2  0  0  0
  9 12  1  0  0  0
 12 13  1  0  0  0
 12 16  2  0  0  0
 13 14  2  0  0  0
 14 15  1  0  0  0
 15 17  1  0  0  0
 15 16  1  0  0  0
 17 18  1  0  0  0
 17 22  2  0  0  0
 18 19  2  0  0  0
 19 20  1  0  0  0
 20 21  2  0  0  0
 21 22  1  0  0  0
 16 23  1  0  0  0
 23 24  1  0  0  0
 23 25  1  0  0  0
 23 26  1  0  0  0
  5  6  1  0  0  0
  6  7  1  0  0  0
 35 36  1  0  0  0
 41 42  1  0  0  0
M  END
> <minimizedAffinity>
-9.36478

$$$$
