CHEMBL2385586


 28 32  0  0  0  0  0  0  0  0999 V2000
  -21.9809    0.3313  -14.0591 C   0  0  0  0  0  0  0  0  0  0  0  0
  -22.3199    0.1856  -12.6107 C   0  0  0  0  0  0  0  0  0  0  0  0
  -23.4175   -0.3031  -12.1227 N   0  0  0  0  0  0  0  0  0  0  0  0
  -24.3416   -0.7286  -13.0419 C   0  0  0  0  0  0  0  0  0  0  0  0
  -25.6141   -1.2383  -12.9053 C   0  0  0  0  0  0  0  0  0  0  0  0
  -26.0437   -1.5052  -14.2164 C   0  0  0  0  0  0  0  0  0  0  0  0
  -25.1351   -1.1756  -15.1386 N   0  0  0  0  0  0  0  0  0  0  0  0
  -24.0953   -0.6751  -14.4201 N   0  0  0  0  0  0  0  0  0  0  0  0
  -22.9095   -0.1367  -14.9094 C   0  0  0  0  0  0  0  0  0  0  0  0
  -19.7607    0.2232  -15.1484 C   0  0  0  0  0  0  0  0  0  0  0  0
  -18.5219    0.8018  -15.4442 C   0  0  0  0  0  0  0  0  0  0  0  0
  -18.2124    2.1201  -15.0793 C   0  0  0  0  0  0  0  0  0  0  0  0
  -19.2115    2.8405  -14.4076 C   0  0  0  0  0  0  0  0  0  0  0  0
  -20.4538    2.2748  -14.1031 C   0  0  0  0  0  0  0  0  0  0  0  0
  -20.7280    0.9568  -14.4646 C   0  0  0  0  0  0  0  0  0  0  0  0
  -16.9997    2.6869  -15.4036 N   0  0  0  0  0  0  0  0  0  0  0  0
  -16.8956    4.0754  -15.8659 C   0  0  0  0  0  0  0  0  0  0  0  0
  -15.9698    4.1352  -17.1015 C   0  0  0  0  0  0  0  0  0  0  0  0
  -14.6294    3.5578  -16.8612 N   0  0  0  0  0  0  0  0  0  0  0  0
  -14.7881    2.1660  -16.3806 C   0  0  0  0  0  0  0  0  0  0  0  0
  -15.7138    2.0212  -15.1496 C   0  0  0  0  0  0  0  0  0  0  0  0
  -14.1875    4.0985  -16.1182 H   0  0  0  0  0  0  0  0  0  0  0  0
  -26.3849   -1.4510  -11.6958 C   0  0  0  0  0  0  0  0  0  0  0  0
  -25.8708   -1.6151  -10.3912 C   0  0  0  0  0  0  0  0  0  0  0  0
  -26.8381   -1.7786   -9.4814 N   0  0  0  0  0  0  0  0  0  0  0  0
  -27.9664   -1.7164  -10.2090 N   0  0  0  0  0  0  0  0  0  0  0  0
  -27.7488   -1.5259  -11.5419 C   0  0  0  0  0  0  0  0  0  0  0  0
  -28.8526   -1.8070   -9.7241 H   0  0  0  0  0  0  0  0  0  0  0  0
 10 11  1  0  0  0
 10 15  2  0  0  0
 11 12  2  0  0  0
 12 16  1  0  0  0
 12 13  1  0  0  0
 16 17  1  0  0  0
 16 21  1  0  0  0
 17 18  1  0  0  0
 18 19  1  0  0  0
 19 20  1  0  0  0
 19 22  1  0  0  0
 20 21  1  0  0  0
 13 14  2  0  0  0
 14 15  1  0  0  0
 15  1  1  0  0  0
  1  2  1  0  0  0
  1  9  2  0  0  0
  2  3  2  0  0  0
  3  4  1  0  0  0
  4  5  2  0  0  0
  4  8  1  0  0  0
  5 23  1  0  0  0
  5  6  1  0  0  0
 23 24  1  0  0  0
 23 27  2  0  0  0
 24 25  2  0  0  0
 25 26  1  0  0  0
 26 27  1  0  0  0
 26 28  1  0  0  0
  6  7  2  0  0  0
  7  8  1  0  0  0
  8  9  1  0  0  0
M  END
> <minimizedAffinity>
-9.34798

$$$$
