CHEMBL1991008


 19 21  0  0  0  0  0  0  0  0999 V2000
  -26.7909   -2.4933  -10.6601 N   0  0  0  0  0  0  0  0  0  0  0  0
  -25.8377   -1.7448  -11.2314 C   0  0  0  0  0  0  0  0  0  0  0  0
  -24.8880   -1.1326  -10.5344 N   0  0  0  0  0  0  0  0  0  0  0  0
  -24.1886   -0.4727  -11.4704 N   0  0  0  0  0  0  0  0  0  0  0  0
  -24.5877   -0.7023  -12.7627 C   0  0  0  0  0  0  0  0  0  0  0  0
  -24.0780   -0.2541  -14.0053 C   0  0  0  0  0  0  0  0  0  0  0  0
  -24.8308   -0.6695  -15.1297 C   0  0  0  0  0  0  0  0  0  0  0  0
  -25.9747   -1.4647  -15.0243 C   0  0  0  0  0  0  0  0  0  0  0  0
  -26.4219   -1.9035  -13.7792 C   0  0  0  0  0  0  0  0  0  0  0  0
  -25.7131   -1.5160  -12.6294 C   0  0  0  0  0  0  0  0  0  0  0  0
  -26.6606   -2.7460   -9.6875 H   0  0  0  0  0  0  0  0  0  0  0  0
  -27.3532   -3.1383  -11.1998 H   0  0  0  0  0  0  0  0  0  0  0  0
  -23.4306    0.1234  -11.1595 H   0  0  0  0  0  0  0  0  0  0  0  0
  -22.8647    0.5850  -14.1316 C   0  0  0  0  0  0  0  0  0  0  0  0
  -21.6220    0.0509  -14.5147 C   0  0  0  0  0  0  0  0  0  0  0  0
  -20.4808    0.8536  -14.6205 C   0  0  0  0  0  0  0  0  0  0  0  0
  -20.5641    2.2209  -14.3877 C   0  0  0  0  0  0  0  0  0  0  0  0
  -21.7870    2.7851  -14.0409 C   0  0  0  0  0  0  0  0  0  0  0  0
  -22.9186    1.9741  -13.9036 C   0  0  0  0  0  0  0  0  0  0  0  0
  1  2  1  0  0  0
  1 11  1  0  0  0
  1 12  1  0  0  0
  2  3  2  0  0  0
  2 10  1  0  0  0
  3  4  1  0  0  0
  4  5  1  0  0  0
  4 13  1  0  0  0
  5  6  1  0  0  0
  5 10  2  0  0  0
  6 14  1  0  0  0
  6  7  2  0  0  0
 14 15  1  0  0  0
 14 19  2  0  0  0
 15 16  2  0  0  0
 16 17  1  0  0  0
 17 18  2  0  0  0
 18 19  1  0  0  0
  7  8  1  0  0  0
  8  9  2  0  0  0
  9 10  1  0  0  0
M  END
> <minimizedAffinity>
-8.00093

$$$$
