CHEMBL243628


 43 46  0  0  0  0  0  0  0  0999 V2000
  -27.6092   -2.2082   -8.9443 C   0  0  0  0  0  0  0  0  0  0  0  0
  -27.7709   -0.8834   -8.4803 C   0  0  0  0  0  0  0  0  0  0  0  0
  -28.2522   -0.5650   -7.2257 C   0  0  0  0  0  0  0  0  0  0  0  0
  -28.3451    0.7206   -6.8974 N   0  0  0  0  0  0  0  0  0  0  0  0
  -28.8409    0.9988   -5.6890 C   0  0  0  0  0  0  0  0  0  0  0  0
  -29.2476    0.1060   -4.7800 N   0  0  0  0  0  0  0  0  0  0  0  0
  -29.1359   -1.1950   -5.1168 C   0  0  0  0  0  0  0  0  0  0  0  0
  -28.6493   -1.5950   -6.3737 C   0  0  0  0  0  0  0  0  0  0  0  0
  -28.5227   -2.9156   -6.8428 C   0  0  0  0  0  0  0  0  0  0  0  0
  -27.9313   -3.2511   -8.0648 C   0  0  0  0  0  0  0  0  0  0  0  0
  -27.6919   -4.6200   -8.3631 N   0  0  0  0  0  0  0  0  0  0  0  0
  -28.5430   -5.6564   -7.9798 C   0  0  0  0  0  0  0  0  0  0  0  0
  -29.5102   -5.5507   -7.2270 O   0  0  0  0  0  0  0  0  0  0  0  0
  -26.7961   -4.8433   -8.7812 H   0  0  0  0  0  0  0  0  0  0  0  0
  -28.1891   -6.9801   -8.5340 C   0  0  0  0  0  0  0  0  0  0  0  0
  -29.0526   -7.9985   -8.3612 C   0  0  0  0  0  0  0  0  0  0  0  0
  -28.8650   -9.4347   -8.7726 C   0  0  0  0  0  0  0  0  0  0  0  0
  -28.1048   -9.6505  -10.0160 N   0  0  0  0  0  0  0  0  0  0  0  0
  -26.9081  -10.4660   -9.7705 C   0  0  0  0  0  0  0  0  0  0  0  0
  -28.9587  -10.3506  -10.9847 C   0  0  0  0  0  0  0  0  0  0  0  0
  -29.6537   -2.0588   -4.1225 N   0  0  0  0  0  0  0  0  0  0  0  0
  -29.1235   -1.7320   -3.3066 H   0  0  0  0  0  0  0  0  0  0  0  0
  -29.6564   -3.4520   -4.1586 C   0  0  0  0  0  0  0  0  0  0  0  0
  -30.7885   -4.1627   -4.2355 C   0  0  0  0  0  0  0  0  0  0  0  0
  -30.8448   -5.6288   -4.1428 C   0  0  0  0  0  0  0  0  0  0  0  0
  -31.9217   -6.2059   -4.2595 O   0  0  0  0  0  0  0  0  0  0  0  0
  -29.5750   -6.3570   -3.8519 C   0  0  0  0  0  0  0  0  0  0  0  0
  -28.4312   -5.6614   -3.7680 C   0  0  0  0  0  0  0  0  0  0  0  0
  -28.3716   -4.1919   -3.9348 C   0  0  0  0  0  0  0  0  0  0  0  0
  -27.2949   -3.6121   -3.8392 O   0  0  0  0  0  0  0  0  0  0  0  0
  -29.7105   -7.7182   -3.6796 O   0  0  0  0  0  0  0  0  0  0  0  0
  -29.3385   -8.5787   -4.7503 C   0  0  0  0  0  0  0  0  0  0  0  0
  -28.1151   -9.3522   -4.3198 C   0  0  0  0  0  0  0  0  0  0  0  0
  -28.2311  -10.5863   -3.6599 C   0  0  0  0  0  0  0  0  0  0  0  0
  -27.0878  -11.2739   -3.2416 C   0  0  0  0  0  0  0  0  0  0  0  0
  -25.8295  -10.7291   -3.4785 C   0  0  0  0  0  0  0  0  0  0  0  0
  -24.7393  -11.3908   -3.0668 F   0  0  0  0  0  0  0  0  0  0  0  0
  -25.7032   -9.5098   -4.1303 C   0  0  0  0  0  0  0  0  0  0  0  0
  -24.4909   -8.9833   -4.3532 F   0  0  0  0  0  0  0  0  0  0  0  0
  -26.8346   -8.8188   -4.5506 C   0  0  0  0  0  0  0  0  0  0  0  0
  -27.1365   -2.5071  -10.2071 O   0  0  0  0  0  0  0  0  0  0  0  0
  -26.6645   -1.7489  -12.4914 C   0  0  0  0  0  0  0  0  0  0  0  0
  -27.3874   -1.4818  -11.1873 C   0  0  0  0  0  0  0  0  0  0  0  0
 42 43  1  0  0  0
 43 41  1  0  0  0
 41  1  1  0  0  0
  1  2  1  0  0  0
  1 10  2  0  0  0
  2  3  2  0  0  0
  3  4  1  0  0  0
  3  8  1  0  0  0
  4  5  2  0  0  0
  5  6  1  0  0  0
  6  7  2  0  0  0
  7 21  1  0  0  0
  7  8  1  0  0  0
 21 23  1  0  0  0
 21 22  1  0  0  0
 23 24  2  0  0  0
 23 29  1  0  0  0
 24 25  1  0  0  0
 25 26  2  0  0  0
 25 27  1  0  0  0
 27 31  1  0  0  0
 27 28  2  0  0  0
 31 32  1  0  0  0
 32 33  1  0  0  0
 33 34  1  0  0  0
 33 40  2  0  0  0
 34 35  2  0  0  0
 35 36  1  0  0  0
 36 37  1  0  0  0
 36 38  2  0  0  0
 38 39  1  0  0  0
 38 40  1  0  0  0
 28 29  1  0  0  0
 29 30  2  0  0  0
  8  9  2  0  0  0
  9 10  1  0  0  0
 10 11  1  0  0  0
 11 12  1  0  0  0
 11 14  1  0  0  0
 12 13  2  0  0  0
 12 15  1  0  0  0
 15 16  2  0  0  0
 16 17  1  0  0  0
 17 18  1  0  0  0
 18 19  1  0  0  0
 18 20  1  0  0  0
M  END
> <minimizedAffinity>
-8.82927

$$$$
