CHEMBL3809144


 34 39  0  0  0  0  0  0  0  0999 V2000
  -26.7169   -1.3956  -12.1426 C   0  0  0  0  0  0  0  0  0  0  0  0
  -27.1955   -1.9453  -13.3716 C   0  0  0  0  0  0  0  0  0  0  0  0
  -26.2221   -1.7878  -14.3246 C   0  0  0  0  0  0  0  0  0  0  0  0
  -25.1367   -1.1878  -13.7361 N   0  0  0  0  0  0  0  0  0  0  0  0
  -23.9240   -0.8740  -14.3352 C   0  0  0  0  0  0  0  0  0  0  0  0
  -22.9459   -0.3133  -13.6048 C   0  0  0  0  0  0  0  0  0  0  0  0
  -23.1772   -0.1195  -12.1755 C   0  0  0  0  0  0  0  0  0  0  0  0
  -24.3597   -0.4122  -11.5993 C   0  0  0  0  0  0  0  0  0  0  0  0
  -25.4214   -0.9537  -12.3891 C   0  0  0  0  0  0  0  0  0  0  0  0
  -27.0441   -2.3447   -9.9701 N   0  0  0  0  0  0  0  0  0  0  0  0
  -27.4857   -1.4247  -10.8978 C   0  0  0  0  0  0  0  0  0  0  0  0
  -28.4102   -0.6266  -10.7604 O   0  0  0  0  0  0  0  0  0  0  0  0
  -26.2297   -2.8991  -10.1761 H   0  0  0  0  0  0  0  0  0  0  0  0
  -28.4007   -2.1909   -6.6902 C   0  0  0  0  0  0  0  0  0  0  0  0
  -27.9041   -1.5316   -7.7945 C   0  0  0  0  0  0  0  0  0  0  0  0
  -27.6556   -2.5464   -8.7509 C   0  0  0  0  0  0  0  0  0  0  0  0
  -28.0629   -3.7309   -8.2992 N   0  0  0  0  0  0  0  0  0  0  0  0
  -28.5309   -3.4916   -7.0748 N   0  0  0  0  0  0  0  0  0  0  0  0
  -28.8615   -4.2837   -6.5343 H   0  0  0  0  0  0  0  0  0  0  0  0
  -29.6820   -2.3940   -4.4375 C   0  0  0  0  0  0  0  0  0  0  0  0
  -28.6828   -1.6453   -5.2866 C   0  0  0  0  0  0  0  0  0  0  0  0
  -27.4712   -1.0390   -4.5861 C   0  0  0  0  0  0  0  0  0  0  0  0
  -28.5673   -0.1467   -5.0555 C   0  0  0  0  0  0  0  0  0  0  0  0
  -21.7034   -0.0589  -14.1639 O   0  0  0  0  0  0  0  0  0  0  0  0
  -21.2915    1.2450  -14.3717 C   0  0  0  0  0  0  0  0  0  0  0  0
  -22.1423    2.2676  -14.1425 N   0  0  0  0  0  0  0  0  0  0  0  0
  -21.6512    3.5038  -14.3536 C   0  0  0  0  0  0  0  0  0  0  0  0
  -20.4177    3.8095  -14.7896 N   0  0  0  0  0  0  0  0  0  0  0  0
  -19.6432    2.7421  -15.0230 C   0  0  0  0  0  0  0  0  0  0  0  0
  -20.0267    1.4422  -14.8378 C   0  0  0  0  0  0  0  0  0  0  0  0
  -18.9333    0.5098  -15.1772 C   0  0  0  0  0  0  0  0  0  0  0  0
  -17.7834    1.3503  -15.5984 N   0  0  0  0  0  0  0  0  0  0  0  0
  -18.2273    2.7690  -15.5202 C   0  0  0  0  0  0  0  0  0  0  0  0
  -17.5604    1.1368  -16.5696 H   0  0  0  0  0  0  0  0  0  0  0  0
 20 21  1  0  0  0
 21 14  1  0  0  0
 21 22  1  0  0  0
 21 23  1  0  0  0
 14 15  2  0  0  0
 14 18  1  0  0  0
 15 16  1  0  0  0
 16 10  1  0  0  0
 16 17  2  0  0  0
 10 11  1  0  0  0
 10 13  1  0  0  0
 11 12  2  0  0  0
 11  1  1  0  0  0
  1  2  1  0  0  0
  1  9  2  0  0  0
  2  3  2  0  0  0
  3  4  1  0  0  0
  4  5  1  0  0  0
  4  9  1  0  0  0
  5  6  2  0  0  0
  6 24  1  0  0  0
  6  7  1  0  0  0
 24 25  1  0  0  0
 25 26  1  0  0  0
 25 30  2  0  0  0
 26 27  2  0  0  0
 27 28  1  0  0  0
 28 29  2  0  0  0
 29 30  1  0  0  0
 29 33  1  0  0  0
 30 31  1  0  0  0
 31 32  1  0  0  0
 32 33  1  0  0  0
 32 34  1  0  0  0
  7  8  2  0  0  0
  8  9  1  0  0  0
 17 18  1  0  0  0
 18 19  1  0  0  0
 22 23  1  0  0  0
M  END
> <minimizedAffinity>
-11.63515

$$$$
