CHEMBL4074755


 29 31  0  0  0  0  0  0  0  0999 V2000
  -28.8160   -4.7945   -5.7652 C   0  0  0  0  0  0  0  0  0  0  0  0
  -29.3043   -4.7688   -7.0607 C   0  0  0  0  0  0  0  0  0  0  0  0
  -29.3584   -5.9377   -7.8080 C   0  0  0  0  0  0  0  0  0  0  0  0
  -29.0529   -7.1823   -7.3050 C   0  0  0  0  0  0  0  0  0  0  0  0
  -28.5136   -7.1972   -6.0074 C   0  0  0  0  0  0  0  0  0  0  0  0
  -28.3852   -6.0170   -5.2504 C   0  0  0  0  0  0  0  0  0  0  0  0
  -29.2467   -8.4070   -8.1103 C   0  0  0  0  0  0  0  0  0  0  0  0
  -28.1781   -9.0184   -8.7907 C   0  0  0  0  0  0  0  0  0  0  0  0
  -28.3802  -10.1951   -9.4975 C   0  0  0  0  0  0  0  0  0  0  0  0
  -29.5494  -10.8557   -9.6048 N   0  0  0  0  0  0  0  0  0  0  0  0
  -30.5532  -10.2383   -8.9546 C   0  0  0  0  0  0  0  0  0  0  0  0
  -31.8384  -10.6825   -8.8944 N   0  0  0  0  0  0  0  0  0  0  0  0
  -32.6571   -9.9014   -8.1743 N   0  0  0  0  0  0  0  0  0  0  0  0
  -31.8793   -8.9084   -7.7304 C   0  0  0  0  0  0  0  0  0  0  0  0
  -32.4624   -7.8669   -6.8780 C   0  0  0  0  0  0  0  0  0  0  0  0
  -30.5063   -9.0602   -8.2112 C   0  0  0  0  0  0  0  0  0  0  0  0
  -32.2114  -11.5173   -9.3261 H   0  0  0  0  0  0  0  0  0  0  0  0
  -28.0926   -1.4785   -4.4541 N   0  0  0  0  0  0  0  0  0  0  0  0
  -28.0426   -2.5115   -5.3667 C   0  0  0  0  0  0  0  0  0  0  0  0
  -27.4405   -2.3614   -6.4246 O   0  0  0  0  0  0  0  0  0  0  0  0
  -28.7407   -3.6285   -4.9769 N   0  0  0  0  0  0  0  0  0  0  0  0
  -28.4082   -1.6575   -3.5115 H   0  0  0  0  0  0  0  0  0  0  0  0
  -29.4126   -3.5250   -4.2393 H   0  0  0  0  0  0  0  0  0  0  0  0
  -27.4206   -0.2349   -4.7753 C   0  0  0  0  0  0  0  0  0  0  0  0
  -28.3810    0.9551   -4.8532 C   0  0  0  0  0  0  0  0  0  0  0  0
  -29.1045    1.0067   -6.2017 C   0  0  0  0  0  0  0  0  0  0  0  0
  -30.5950    1.2929   -6.0282 C   0  0  0  0  0  0  0  0  0  0  0  0
  -32.4882    2.0145   -7.5188 C   0  0  0  0  0  0  0  0  0  0  0  0
  -31.0878    2.3426   -7.0248 C   0  0  0  0  0  0  0  0  0  0  0  0
 28 29  1  0  0  0
 29 27  1  0  0  0
 27 26  1  0  0  0
 26 25  1  0  0  0
 25 24  1  0  0  0
 24 18  1  0  0  0
 18 19  1  0  0  0
 18 22  1  0  0  0
 19 20  2  0  0  0
 19 21  1  0  0  0
 21  1  1  0  0  0
 21 23  1  0  0  0
  1  2  1  0  0  0
  1  6  2  0  0  0
  2  3  2  0  0  0
  3  4  1  0  0  0
  4  7  1  0  0  0
  4  5  2  0  0  0
  7  8  1  0  0  0
  7 16  2  0  0  0
  8  9  2  0  0  0
  9 10  1  0  0  0
 10 11  2  0  0  0
 11 12  1  0  0  0
 11 16  1  0  0  0
 12 13  1  0  0  0
 12 17  1  0  0  0
 13 14  2  0  0  0
 14 15  1  0  0  0
 14 16  1  0  0  0
  5  6  1  0  0  0
M  END
> <minimizedAffinity>
-8.45937

$$$$
