CHEMBL265191


 30 33  0  0  0  0  0  0  0  0999 V2000
  -28.9818   -8.5738   -6.9940 C   0  0  0  0  0  0  0  0  0  0  0  0
  -28.2521   -9.5309   -7.7811 C   0  0  0  0  0  0  0  0  0  0  0  0
  -27.4162  -10.2173   -6.9429 C   0  0  0  0  0  0  0  0  0  0  0  0
  -27.6508   -9.7951   -5.6731 N   0  0  0  0  0  0  0  0  0  0  0  0
  -26.9698  -10.2381   -4.6081 N   0  0  0  0  0  0  0  0  0  0  0  0
  -27.3470   -9.7046   -3.4969 C   0  0  0  0  0  0  0  0  0  0  0  0
  -28.3606   -8.8061   -3.3297 N   0  0  0  0  0  0  0  0  0  0  0  0
  -29.0508   -8.3851   -4.3531 C   0  0  0  0  0  0  0  0  0  0  0  0
  -28.6558   -8.8618   -5.6612 C   0  0  0  0  0  0  0  0  0  0  0  0
  -31.3496   -7.7071   -7.1103 C   0  0  0  0  0  0  0  0  0  0  0  0
  -29.9070   -7.5297   -7.5842 C   0  0  0  0  0  0  0  0  0  0  0  0
  -29.4067   -6.0837   -7.4478 C   0  0  0  0  0  0  0  0  0  0  0  0
  -30.1340   -7.5647   -4.1008 N   0  0  0  0  0  0  0  0  0  0  0  0
  -31.0581   -7.9410   -4.2267 H   0  0  0  0  0  0  0  0  0  0  0  0
  -30.0568   -6.1635   -3.9587 C   0  0  0  0  0  0  0  0  0  0  0  0
  -31.1767   -5.3497   -3.7271 C   0  0  0  0  0  0  0  0  0  0  0  0
  -31.2047   -3.9937   -3.6486 N   0  0  0  0  0  0  0  0  0  0  0  0
  -30.0003   -3.4449   -3.8763 C   0  0  0  0  0  0  0  0  0  0  0  0
  -29.7621   -2.0994   -3.9263 N   0  0  0  0  0  0  0  0  0  0  0  0
  -28.4421   -1.8747   -4.2227 C   0  0  0  0  0  0  0  0  0  0  0  0
  -27.8188   -3.1011   -4.3286 C   0  0  0  0  0  0  0  0  0  0  0  0
  -28.8030   -4.1056   -4.1207 C   0  0  0  0  0  0  0  0  0  0  0  0
  -28.8290   -5.5142   -4.1402 C   0  0  0  0  0  0  0  0  0  0  0  0
  -30.4795   -1.4001   -3.7960 H   0  0  0  0  0  0  0  0  0  0  0  0
  -28.3426   -9.7044   -9.1260 O   0  0  0  0  0  0  0  0  0  0  0  0
  -27.0860   -9.5170   -9.8108 C   0  0  0  0  0  0  0  0  0  0  0  0
  -27.2123   -9.8712  -11.2971 C   0  0  0  0  0  0  0  0  0  0  0  0
  -28.6505  -10.1481  -11.7070 C   0  0  0  0  0  0  0  0  0  0  0  0
  -26.6948   -8.8159  -12.1087 O   0  0  0  0  0  0  0  0  0  0  0  0
  -27.1248   -7.9938  -11.8072 H   0  0  0  0  0  0  0  0  0  0  0  0
 10 11  1  0  0  0
 11 12  1  0  0  0
 11  1  1  0  0  0
  1  2  1  0  0  0
  1  9  2  0  0  0
  2 25  1  0  0  0
  2  3  2  0  0  0
 25 26  1  0  0  0
 26 27  1  0  0  0
 27 28  1  0  0  0
 27 29  1  0  0  0
 29 30  1  0  0  0
  3  4  1  0  0  0
  4  5  1  0  0  0
  4  9  1  0  0  0
  5  6  2  0  0  0
  6  7  1  0  0  0
  7  8  2  0  0  0
  8 13  1  0  0  0
  8  9  1  0  0  0
 13 15  1  0  0  0
 13 14  1  0  0  0
 15 16  1  0  0  0
 15 23  2  0  0  0
 16 17  2  0  0  0
 17 18  1  0  0  0
 18 19  1  0  0  0
 18 22  2  0  0  0
 19 20  1  0  0  0
 19 24  1  0  0  0
 20 21  2  0  0  0
 21 22  1  0  0  0
 22 23  1  0  0  0
M  END
> <minimizedAffinity>
-8.10121

$$$$
