CHEMBL3741655


 36 41  0  0  0  0  0  0  0  0999 V2000
  -11.7467   -2.3681  -17.0859 C   0  0  0  0  0  0  0  0  0  0  0  0
  -12.3964   -2.8446  -15.8298 C   0  0  0  0  0  0  0  0  0  0  0  0
  -12.7240   -4.1731  -15.7473 N   0  0  0  0  0  0  0  0  0  0  0  0
  -13.2670   -4.5000  -14.5354 C   0  0  0  0  0  0  0  0  0  0  0  0
  -13.3062   -3.3172  -13.7800 C   0  0  0  0  0  0  0  0  0  0  0  0
  -12.7558   -2.2473  -14.6196 C   0  0  0  0  0  0  0  0  0  0  0  0
  -12.5497   -4.8430  -16.4853 H   0  0  0  0  0  0  0  0  0  0  0  0
  -12.5125   -0.8416  -14.3019 C   0  0  0  0  0  0  0  0  0  0  0  0
  -11.2407   -0.3619  -14.2104 N   0  0  0  0  0  0  0  0  0  0  0  0
  -10.8852    1.0377  -13.9673 N   0  0  0  0  0  0  0  0  0  0  0  0
  -11.7989    2.0490  -13.8844 C   0  0  0  0  0  0  0  0  0  0  0  0
  -11.3432    3.4344  -13.5950 C   0  0  0  0  0  0  0  0  0  0  0  0
  -13.1343    1.6123  -14.0583 C   0  0  0  0  0  0  0  0  0  0  0  0
  -14.2842    2.3172  -14.1211 N   0  0  0  0  0  0  0  0  0  0  0  0
  -15.2626    1.3908  -14.3141 N   0  0  0  0  0  0  0  0  0  0  0  0
  -14.7988    0.1171  -14.1406 C   0  0  0  0  0  0  0  0  0  0  0  0
  -13.4378    0.1998  -14.2108 C   0  0  0  0  0  0  0  0  0  0  0  0
  -16.5862    1.7723  -14.6817 C   0  0  0  0  0  0  0  0  0  0  0  0
  -16.8012    2.9125  -15.4648 C   0  0  0  0  0  0  0  0  0  0  0  0
  -18.1009    3.2825  -15.8230 C   0  0  0  0  0  0  0  0  0  0  0  0
  -19.1858    2.5101  -15.4090 C   0  0  0  0  0  0  0  0  0  0  0  0
  -20.7867    2.9769  -15.8278 Cl  0  0  0  0  0  0  0  0  0  0  0  0
  -18.9819    1.3601  -14.6564 C   0  0  0  0  0  0  0  0  0  0  0  0
  -17.6867    0.9906  -14.2941 C   0  0  0  0  0  0  0  0  0  0  0  0
  -13.6491   -5.9021  -14.2749 C   0  0  0  0  0  0  0  0  0  0  0  0
  -12.7060   -6.9343  -14.3044 C   0  0  0  0  0  0  0  0  0  0  0  0
  -13.0647   -8.2455  -13.9720 C   0  0  0  0  0  0  0  0  0  0  0  0
  -14.3856   -8.5506  -13.6614 C   0  0  0  0  0  0  0  0  0  0  0  0
  -15.3504   -7.5485  -13.6851 C   0  0  0  0  0  0  0  0  0  0  0  0
  -14.9852   -6.2323  -13.9820 C   0  0  0  0  0  0  0  0  0  0  0  0
  -13.8592   -3.2556  -12.4107 C   0  0  0  0  0  0  0  0  0  0  0  0
  -13.1019   -3.6342  -11.2968 C   0  0  0  0  0  0  0  0  0  0  0  0
  -13.6051   -3.5346   -9.9953 C   0  0  0  0  0  0  0  0  0  0  0  0
  -14.9276   -3.1539   -9.7897 C   0  0  0  0  0  0  0  0  0  0  0  0
  -15.7246   -2.8442  -10.8823 C   0  0  0  0  0  0  0  0  0  0  0  0
  -15.1835   -2.8495  -12.1745 C   0  0  0  0  0  0  0  0  0  0  0  0
  1  2  1  0  0  0
  2  3  1  0  0  0
  2  6  2  0  0  0
  3  4  1  0  0  0
  3  7  1  0  0  0
  4 25  1  0  0  0
  4  5  2  0  0  0
 25 26  1  0  0  0
 25 30  2  0  0  0
 26 27  2  0  0  0
 27 28  1  0  0  0
 28 29  2  0  0  0
 29 30  1  0  0  0
  5 31  1  0  0  0
  5  6  1  0  0  0
 31 32  1  0  0  0
 31 36  2  0  0  0
 32 33  2  0  0  0
 33 34  1  0  0  0
 34 35  2  0  0  0
 35 36  1  0  0  0
  6  8  1  0  0  0
  8  9  2  0  0  0
  8 17  1  0  0  0
  9 10  1  0  0  0
 10 11  2  0  0  0
 11 12  1  0  0  0
 11 13  1  0  0  0
 13 14  2  0  0  0
 13 17  1  0  0  0
 14 15  1  0  0  0
 15 18  1  0  0  0
 15 16  1  0  0  0
 18 19  1  0  0  0
 18 24  2  0  0  0
 19 20  2  0  0  0
 20 21  1  0  0  0
 21 22  1  0  0  0
 21 23  2  0  0  0
 23 24  1  0  0  0
 16 17  2  0  0  0
M  END
> <minimizedAffinity>
-8.11060

$$$$
