CHEMBL3967722


 27 30  0  0  0  0  0  0  0  0999 V2000
  -23.3704    2.4390  -13.2780 O   0  0  0  0  0  0  0  0  0  0  0  0
  -22.7323    1.4966  -13.7454 C   0  0  0  0  0  0  0  0  0  0  0  0
  -21.7067    1.6905  -14.6774 N   0  0  0  0  0  0  0  0  0  0  0  0
  -21.3796    3.0596  -15.0940 C   0  0  0  0  0  0  0  0  0  0  0  0
  -19.9946    3.4615  -14.5824 C   0  0  0  0  0  0  0  0  0  0  0  0
  -18.9740    2.3871  -14.8544 C   0  0  0  0  0  0  0  0  0  0  0  0
  -17.6791    2.7304  -14.7674 N   0  0  0  0  0  0  0  0  0  0  0  0
  -16.7446    1.7755  -14.9423 C   0  0  0  0  0  0  0  0  0  0  0  0
  -17.0318    0.4917  -15.1988 N   0  0  0  0  0  0  0  0  0  0  0  0
  -18.3346    0.1832  -15.2974 C   0  0  0  0  0  0  0  0  0  0  0  0
  -19.3570    1.0907  -15.1114 C   0  0  0  0  0  0  0  0  0  0  0  0
  -20.7843    0.6744  -15.1778 C   0  0  0  0  0  0  0  0  0  0  0  0
  -23.0614    0.1428  -13.2296 C   0  0  0  0  0  0  0  0  0  0  0  0
  -22.5559   -0.4095  -12.0509 C   0  0  0  0  0  0  0  0  0  0  0  0
  -23.0304   -1.6418  -11.6039 C   0  0  0  0  0  0  0  0  0  0  0  0
  -23.9309   -2.3281  -12.4005 C   0  0  0  0  0  0  0  0  0  0  0  0
  -24.3743   -1.8690  -13.5890 N   0  0  0  0  0  0  0  0  0  0  0  0
  -23.9285   -0.6463  -13.9783 C   0  0  0  0  0  0  0  0  0  0  0  0
  -15.4032    2.1063  -14.8235 N   0  0  0  0  0  0  0  0  0  0  0  0
  -14.8974    1.4165  -14.2880 H   0  0  0  0  0  0  0  0  0  0  0  0
  -14.6464    2.9190  -15.6802 C   0  0  0  0  0  0  0  0  0  0  0  0
  -13.5648    3.6457  -15.1672 C   0  0  0  0  0  0  0  0  0  0  0  0
  -12.8525    4.5348  -15.9798 C   0  0  0  0  0  0  0  0  0  0  0  0
  -13.2061    4.6933  -17.3177 C   0  0  0  0  0  0  0  0  0  0  0  0
  -14.2633    3.9624  -17.8310 C   0  0  0  0  0  0  0  0  0  0  0  0
  -14.6072    4.1017  -19.1195 F   0  0  0  0  0  0  0  0  0  0  0  0
  -14.9845    3.0881  -17.0281 C   0  0  0  0  0  0  0  0  0  0  0  0
  1  2  2  0  0  0
  2 13  1  0  0  0
  2  3  1  0  0  0
 13 14  1  0  0  0
 13 18  2  0  0  0
 14 15  2  0  0  0
 15 16  1  0  0  0
 16 17  2  0  0  0
 17 18  1  0  0  0
  3  4  1  0  0  0
  3 12  1  0  0  0
  4  5  1  0  0  0
  5  6  1  0  0  0
  6  7  1  0  0  0
  6 11  2  0  0  0
  7  8  2  0  0  0
  8 19  1  0  0  0
  8  9  1  0  0  0
 19 21  1  0  0  0
 19 20  1  0  0  0
 21 22  1  0  0  0
 21 27  2  0  0  0
 22 23  2  0  0  0
 23 24  1  0  0  0
 24 25  2  0  0  0
 25 26  1  0  0  0
 25 27  1  0  0  0
  9 10  2  0  0  0
 10 11  1  0  0  0
 11 12  1  0  0  0
M  END
> <minimizedAffinity>
-8.34317

$$$$
