CHEMBL3690434


 41 45  0  0  0  0  0  0  0  0999 V2000
  -14.4195   -1.5023  -13.3386 C   0  0  0  0  0  0  0  0  0  0  0  0
  -15.6777   -1.0770  -12.6988 C   0  0  0  0  0  0  0  0  0  0  0  0
  -16.3168    0.0240  -13.1243 C   0  0  0  0  0  0  0  0  0  0  0  0
  -15.9660    0.5625  -14.3582 N   0  0  0  0  0  0  0  0  0  0  0  0
  -16.6839    1.3951  -15.2048 C   0  0  0  0  0  0  0  0  0  0  0  0
  -15.8498    1.5407  -16.3054 C   0  0  0  0  0  0  0  0  0  0  0  0
  -14.7075    0.7944  -16.1950 N   0  0  0  0  0  0  0  0  0  0  0  0
  -14.8330    0.1533  -15.0554 C   0  0  0  0  0  0  0  0  0  0  0  0
  -14.0257   -0.8639  -14.4681 C   0  0  0  0  0  0  0  0  0  0  0  0
  -18.0819    1.8314  -15.0589 C   0  0  0  0  0  0  0  0  0  0  0  0
  -18.3885    3.1855  -15.2373 C   0  0  0  0  0  0  0  0  0  0  0  0
  -19.7092    3.6194  -15.2212 C   0  0  0  0  0  0  0  0  0  0  0  0
  -20.7408    2.6994  -15.0511 C   0  0  0  0  0  0  0  0  0  0  0  0
  -20.4865    1.3394  -14.9082 C   0  0  0  0  0  0  0  0  0  0  0  0
  -19.1424    0.9129  -14.8904 C   0  0  0  0  0  0  0  0  0  0  0  0
  -21.5127    0.3602  -14.8085 N   0  0  0  0  0  0  0  0  0  0  0  0
  -22.1763    0.0113  -13.6449 C   0  0  0  0  0  0  0  0  0  0  0  0
  -21.9959    0.4692  -12.5318 O   0  0  0  0  0  0  0  0  0  0  0  0
  -23.0643   -1.0260  -13.8289 N   0  0  0  0  0  0  0  0  0  0  0  0
  -21.8074   -0.0901  -15.6566 H   0  0  0  0  0  0  0  0  0  0  0  0
  -23.5332   -1.0876  -14.7129 H   0  0  0  0  0  0  0  0  0  0  0  0
  -23.8062   -1.4974  -12.6360 C   0  0  0  0  0  0  0  0  0  0  0  0
  -25.3273   -1.2732  -12.6446 C   0  0  0  0  0  0  0  0  0  0  0  0
  -25.6730   -0.0822  -12.1044 F   0  0  0  0  0  0  0  0  0  0  0  0
  -25.7818   -1.2680  -13.9239 F   0  0  0  0  0  0  0  0  0  0  0  0
  -25.9959   -2.2445  -11.9890 F   0  0  0  0  0  0  0  0  0  0  0  0
  -12.9081   -4.1032  -11.3495 N   0  0  0  0  0  0  0  0  0  0  0  0
  -14.0231   -3.4857  -11.8568 C   0  0  0  0  0  0  0  0  0  0  0  0
  -13.5838   -2.4681  -12.6768 C   0  0  0  0  0  0  0  0  0  0  0  0
  -12.1769   -2.5724  -12.6210 C   0  0  0  0  0  0  0  0  0  0  0  0
  -11.7650   -3.5808  -11.8444 N   0  0  0  0  0  0  0  0  0  0  0  0
  -13.6899   -4.7497   -9.1116 C   0  0  0  0  0  0  0  0  0  0  0  0
  -12.8859   -5.1881  -10.3564 C   0  0  0  0  0  0  0  0  0  0  0  0
  -11.4634   -5.5497   -9.8779 C   0  0  0  0  0  0  0  0  0  0  0  0
  -13.5260   -6.4508  -10.9670 C   0  0  0  0  0  0  0  0  0  0  0  0
  -14.7373   -6.5317  -11.1822 O   0  0  0  0  0  0  0  0  0  0  0  0
  -12.6677   -7.5078  -11.2355 N   0  0  0  0  0  0  0  0  0  0  0  0
  -11.6631   -7.3548  -11.2075 H   0  0  0  0  0  0  0  0  0  0  0  0
  -13.1596   -8.7455  -11.7621 C   0  0  0  0  0  0  0  0  0  0  0  0
  -12.1930   -9.7895  -12.2545 C   0  0  0  0  0  0  0  0  0  0  0  0
  -13.0863   -9.0781  -13.2263 C   0  0  0  0  0  0  0  0  0  0  0  0
 32 33  1  0  0  0
 33 34  1  0  0  0
 33 35  1  0  0  0
 33 27  1  0  0  0
 35 36  2  0  0  0
 35 37  1  0  0  0
 37 39  1  0  0  0
 37 38  1  0  0  0
 39 40  1  0  0  0
 39 41  1  0  0  0
 40 41  1  0  0  0
 27 28  1  0  0  0
 27 31  1  0  0  0
 28 29  2  0  0  0
 29  1  1  0  0  0
 29 30  1  0  0  0
  1  2  1  0  0  0
  1  9  2  0  0  0
  2  3  2  0  0  0
  3  4  1  0  0  0
  4  5  1  0  0  0
  4  8  1  0  0  0
  5 10  1  0  0  0
  5  6  2  0  0  0
 10 11  1  0  0  0
 10 15  2  0  0  0
 11 12  2  0  0  0
 12 13  1  0  0  0
 13 14  2  0  0  0
 14 16  1  0  0  0
 14 15  1  0  0  0
 16 17  1  0  0  0
 16 20  1  0  0  0
 17 18  2  0  0  0
 17 19  1  0  0  0
 19 22  1  0  0  0
 19 21  1  0  0  0
 22 23  1  0  0  0
 23 24  1  0  0  0
 23 25  1  0  0  0
 23 26  1  0  0  0
  6  7  1  0  0  0
  7  8  2  0  0  0
  8  9  1  0  0  0
 30 31  2  0  0  0
M  END
> <minimizedAffinity>
-10.17144

$$$$
