CHEMBL3903198


 36 40  0  0  0  0  0  0  0  0999 V2000
  -15.4669    2.3501  -16.1798 N   0  0  0  0  0  0  0  0  0  0  0  0
  -16.8196    2.3640  -15.6083 C   0  0  0  0  0  0  0  0  0  0  0  0
  -17.2709    1.1862  -15.0801 C   0  0  0  0  0  0  0  0  0  0  0  0
  -18.5543    1.1628  -14.6571 C   0  0  0  0  0  0  0  0  0  0  0  0
  -19.4635    2.1569  -14.8389 C   0  0  0  0  0  0  0  0  0  0  0  0
  -20.4627    1.4847  -15.2121 N   0  0  0  0  0  0  0  0  0  0  0  0
  -21.2673    1.2951  -14.2110 C   0  0  0  0  0  0  0  0  0  0  0  0
  -22.2067    2.2020  -13.9658 C   0  0  0  0  0  0  0  0  0  0  0  0
  -21.1744    3.3545  -14.3733 N   0  0  0  0  0  0  0  0  0  0  0  0
  -19.5302    3.4296  -14.9840 C   0  0  0  0  0  0  0  0  0  0  0  0
  -17.8740    3.5090  -15.6001 C   0  0  0  0  0  0  0  0  0  0  0  0
  -23.2505    0.7916  -13.5053 C   0  0  0  0  0  0  0  0  0  0  0  0
  -23.4990   -0.6443  -14.0447 C   0  0  0  0  0  0  0  0  0  0  0  0
  -24.2433   -1.5103  -13.2979 N   0  0  0  0  0  0  0  0  0  0  0  0
  -24.5740   -0.8329  -12.1908 N   0  0  0  0  0  0  0  0  0  0  0  0
  -25.2939   -1.5194  -11.0636 C   0  0  0  0  0  0  0  0  0  0  0  0
  -24.0548    0.5248  -12.3152 C   0  0  0  0  0  0  0  0  0  0  0  0
  -13.0555    5.3032  -15.8392 C   0  0  0  0  0  0  0  0  0  0  0  0
  -13.0490    5.7474  -17.1156 C   0  0  0  0  0  0  0  0  0  0  0  0
  -13.8800    5.1573  -18.0710 C   0  0  0  0  0  0  0  0  0  0  0  0
  -14.7225    4.0889  -17.7382 C   0  0  0  0  0  0  0  0  0  0  0  0
  -14.6966    3.5252  -16.4717 C   0  0  0  0  0  0  0  0  0  0  0  0
  -13.9241    4.2775  -15.5542 C   0  0  0  0  0  0  0  0  0  0  0  0
  -11.3743    6.7588  -15.1248 C   0  0  0  0  0  0  0  0  0  0  0  0
  -12.2580    5.6986  -14.8066 O   0  0  0  0  0  0  0  0  0  0  0  0
  -13.9030    5.5478  -19.3813 O   0  0  0  0  0  0  0  0  0  0  0  0
  -14.5051    6.8202  -19.5961 C   0  0  0  0  0  0  0  0  0  0  0  0
  -15.1720    1.0708  -16.9423 C   0  0  0  0  0  0  0  0  0  0  0  0
  -13.8704    0.3990  -16.5600 C   0  0  0  0  0  0  0  0  0  0  0  0
  -13.7534   -0.2958  -15.2448 C   0  0  0  0  0  0  0  0  0  0  0  0
  -13.2084    0.6149  -14.2438 N   0  0  0  0  0  0  0  0  0  0  0  0
  -11.9299    1.2386  -14.3757 C   0  0  0  0  0  0  0  0  0  0  0  0
  -11.9323    2.2443  -13.2492 C   0  0  0  0  0  0  0  0  0  0  0  0
  -13.0381    1.8905  -12.4093 O   0  0  0  0  0  0  0  0  0  0  0  0
  -13.8242    0.9903  -13.0746 C   0  0  0  0  0  0  0  0  0  0  0  0
  -14.9000    0.5950  -12.6576 O   0  0  0  0  0  0  0  0  0  0  0  0
 24 25  1  0  0  0
 25 18  1  0  0  0
 18 19  1  0  0  0
 18 23  2  0  0  0
 19 20  2  0  0  0
 20 26  1  0  0  0
 20 21  1  0  0  0
 26 27  1  0  0  0
 21 22  2  0  0  0
 22  1  1  0  0  0
 22 23  1  0  0  0
  1 28  1  0  0  0
  1  2  1  0  0  0
 28 29  1  0  0  0
 29 30  1  0  0  0
 30 31  1  0  0  0
 31 32  1  0  0  0
 31 35  1  0  0  0
 32 33  1  0  0  0
 33 34  1  0  0  0
 34 35  1  0  0  0
 35 36  2  0  0  0
  2  3  1  0  0  0
  2 11  2  0  0  0
  3  4  2  0  0  0
  4  5  1  0  0  0
  5  6  1  0  0  0
  5 10  2  0  0  0
  6  7  2  0  0  0
  7  8  1  0  0  0
  8 12  1  0  0  0
  8  9  2  0  0  0
 12 13  1  0  0  0
 12 17  2  0  0  0
 13 14  2  0  0  0
 14 15  1  0  0  0
 15 16  1  0  0  0
 15 17  1  0  0  0
  9 10  1  0  0  0
 10 11  1  0  0  0
M  END
> <minimizedAffinity>
-9.33598

$$$$
