CHEMBL3972140


 36 40  0  0  0  0  0  0  0  0999 V2000
  -11.6170   -1.6239  -16.1803 S   0  0  0  0  0  0  0  0  0  0  0  0
  -13.0057   -0.6036  -15.6969 C   0  0  0  0  0  0  0  0  0  0  0  0
  -13.4556   -0.4899  -14.3700 C   0  0  0  0  0  0  0  0  0  0  0  0
  -14.5611    0.3273  -14.0380 C   0  0  0  0  0  0  0  0  0  0  0  0
  -15.1054    1.1670  -15.0428 C   0  0  0  0  0  0  0  0  0  0  0  0
  -16.2501    1.9915  -15.2962 C   0  0  0  0  0  0  0  0  0  0  0  0
  -15.8917    2.9276  -16.1948 N   0  0  0  0  0  0  0  0  0  0  0  0
  -15.0008    2.2493  -16.9347 N   0  0  0  0  0  0  0  0  0  0  0  0
  -14.4786    1.1640  -16.2872 C   0  0  0  0  0  0  0  0  0  0  0  0
  -13.5371    0.2251  -16.6857 C   0  0  0  0  0  0  0  0  0  0  0  0
  -14.7568    2.6108  -17.8470 H   0  0  0  0  0  0  0  0  0  0  0  0
  -17.6371    1.5739  -15.3983 C   0  0  0  0  0  0  0  0  0  0  0  0
  -18.6536    2.4549  -15.4922 C   0  0  0  0  0  0  0  0  0  0  0  0
  -19.9649    2.2637  -14.8309 C   0  0  0  0  0  0  0  0  0  0  0  0
  -20.4869    0.9786  -14.7159 C   0  0  0  0  0  0  0  0  0  0  0  0
  -21.7957    0.8112  -14.2606 C   0  0  0  0  0  0  0  0  0  0  0  0
  -22.5577    1.9297  -13.9527 C   0  0  0  0  0  0  0  0  0  0  0  0
  -21.9716    3.1731  -14.1062 C   0  0  0  0  0  0  0  0  0  0  0  0
  -20.6968    3.3639  -14.5264 N   0  0  0  0  0  0  0  0  0  0  0  0
  -13.1749   -3.8527  -17.0393 C   0  0  0  0  0  0  0  0  0  0  0  0
  -13.6867   -4.6521  -18.0844 C   0  0  0  0  0  0  0  0  0  0  0  0
  -13.3988   -4.3706  -19.4190 C   0  0  0  0  0  0  0  0  0  0  0  0
  -12.5936   -3.2840  -19.7284 C   0  0  0  0  0  0  0  0  0  0  0  0
  -12.0707   -2.4907  -18.7050 C   0  0  0  0  0  0  0  0  0  0  0  0
  -12.3351   -2.7661  -17.3487 C   0  0  0  0  0  0  0  0  0  0  0  0
  -12.8864   -5.1348  -15.1240 O   0  0  0  0  0  0  0  0  0  0  0  0
  -13.5917   -4.2864  -15.6741 C   0  0  0  0  0  0  0  0  0  0  0  0
  -14.7663   -3.7605  -15.1756 N   0  0  0  0  0  0  0  0  0  0  0  0
  -15.2207   -3.0404  -15.7175 H   0  0  0  0  0  0  0  0  0  0  0  0
  -15.4141   -4.1438  -13.9640 C   0  0  0  0  0  0  0  0  0  0  0  0
  -16.1202   -5.3455  -13.8091 C   0  0  0  0  0  0  0  0  0  0  0  0
  -16.7302   -5.6736  -12.5919 C   0  0  0  0  0  0  0  0  0  0  0  0
  -16.6445   -4.8012  -11.5122 C   0  0  0  0  0  0  0  0  0  0  0  0
  -15.9587   -3.5949  -11.6640 C   0  0  0  0  0  0  0  0  0  0  0  0
  -15.8653   -2.5104  -10.3319 Cl  0  0  0  0  0  0  0  0  0  0  0  0
  -15.3501   -3.2664  -12.8824 C   0  0  0  0  0  0  0  0  0  0  0  0
 26 27  2  0  0  0
 27 28  1  0  0  0
 27 20  1  0  0  0
 28 30  1  0  0  0
 28 29  1  0  0  0
 30 31  1  0  0  0
 30 36  2  0  0  0
 31 32  2  0  0  0
 32 33  1  0  0  0
 33 34  2  0  0  0
 34 35  1  0  0  0
 34 36  1  0  0  0
 20 21  1  0  0  0
 20 25  2  0  0  0
 21 22  2  0  0  0
 22 23  1  0  0  0
 23 24  2  0  0  0
 24 25  1  0  0  0
 25  1  1  0  0  0
  1  2  1  0  0  0
  2  3  1  0  0  0
  2 10  2  0  0  0
  3  4  2  0  0  0
  4  5  1  0  0  0
  5  6  1  0  0  0
  5  9  2  0  0  0
  6 12  1  0  0  0
  6  7  2  0  0  0
 12 13  2  0  0  0
 13 14  1  0  0  0
 14 15  1  0  0  0
 14 19  2  0  0  0
 15 16  2  0  0  0
 16 17  1  0  0  0
 17 18  2  0  0  0
 18 19  1  0  0  0
  7  8  1  0  0  0
  8  9  1  0  0  0
  8 11  1  0  0  0
  9 10  1  0  0  0
M  END
> <minimizedAffinity>
-9.15255

$$$$
