CHEMBL3596879


 34 37  0  0  0  0  0  0  0  0999 V2000
  -15.3681    0.2525  -13.6926 C   0  0  0  0  0  0  0  0  0  0  0  0
  -14.7004    0.6055  -14.8691 C   0  0  0  0  0  0  0  0  0  0  0  0
  -15.3721    1.2922  -15.8769 C   0  0  0  0  0  0  0  0  0  0  0  0
  -16.7318    1.5636  -15.7504 C   0  0  0  0  0  0  0  0  0  0  0  0
  -17.4277    1.1489  -14.6174 C   0  0  0  0  0  0  0  0  0  0  0  0
  -16.7355    0.5217  -13.5737 C   0  0  0  0  0  0  0  0  0  0  0  0
  -18.8153    1.3147  -14.4773 N   0  0  0  0  0  0  0  0  0  0  0  0
  -19.5239    2.4871  -14.4926 C   0  0  0  0  0  0  0  0  0  0  0  0
  -19.0604    3.6176  -14.6216 O   0  0  0  0  0  0  0  0  0  0  0  0
  -20.8896    2.3608  -14.4496 N   0  0  0  0  0  0  0  0  0  0  0  0
  -19.3749    0.4683  -14.4908 H   0  0  0  0  0  0  0  0  0  0  0  0
  -21.3881    3.2224  -14.6144 H   0  0  0  0  0  0  0  0  0  0  0  0
  -21.6160    1.2174  -14.2094 C   0  0  0  0  0  0  0  0  0  0  0  0
  -22.7232    1.1289  -13.3416 C   0  0  0  0  0  0  0  0  0  0  0  0
  -23.1178   -0.1888  -13.4158 C   0  0  0  0  0  0  0  0  0  0  0  0
  -22.2897   -0.8445  -14.2695 O   0  0  0  0  0  0  0  0  0  0  0  0
  -21.3674    0.0338  -14.7791 N   0  0  0  0  0  0  0  0  0  0  0  0
  -24.2272   -0.9811  -12.7892 C   0  0  0  0  0  0  0  0  0  0  0  0
  -25.0156   -0.0695  -11.8336 C   0  0  0  0  0  0  0  0  0  0  0  0
  -25.1938   -1.5380  -13.8521 C   0  0  0  0  0  0  0  0  0  0  0  0
  -23.6255   -2.1600  -12.0063 C   0  0  0  0  0  0  0  0  0  0  0  0
  -14.7921   -0.4448  -12.6531 O   0  0  0  0  0  0  0  0  0  0  0  0
  -15.1649   -3.9720  -13.1617 C   0  0  0  0  0  0  0  0  0  0  0  0
  -15.8762   -4.2983  -12.0089 C   0  0  0  0  0  0  0  0  0  0  0  0
  -16.2162   -3.3863  -11.0615 N   0  0  0  0  0  0  0  0  0  0  0  0
  -15.8237   -2.1171  -11.3253 C   0  0  0  0  0  0  0  0  0  0  0  0
  -15.1326   -1.7763  -12.4788 C   0  0  0  0  0  0  0  0  0  0  0  0
  -14.7654   -2.6988  -13.4009 N   0  0  0  0  0  0  0  0  0  0  0  0
  -13.3423   -6.1500  -17.2336 C   0  0  0  0  0  0  0  0  0  0  0  0
  -14.0277   -5.8966  -15.9896 N   0  0  0  0  0  0  0  0  0  0  0  0
  -14.0633   -4.7272  -15.2899 C   0  0  0  0  0  0  0  0  0  0  0  0
  -14.8475   -4.9603  -14.1754 C   0  0  0  0  0  0  0  0  0  0  0  0
  -15.2328   -6.3131  -14.3139 C   0  0  0  0  0  0  0  0  0  0  0  0
  -14.7386   -6.8843  -15.4149 N   0  0  0  0  0  0  0  0  0  0  0  0
 29 30  1  0  0  0
 30 31  1  0  0  0
 30 34  1  0  0  0
 31 32  2  0  0  0
 32 23  1  0  0  0
 32 33  1  0  0  0
 23 24  1  0  0  0
 23 28  2  0  0  0
 24 25  2  0  0  0
 25 26  1  0  0  0
 26 27  2  0  0  0
 27 22  1  0  0  0
 27 28  1  0  0  0
 22  1  1  0  0  0
  1  2  1  0  0  0
  1  6  2  0  0  0
  2  3  2  0  0  0
  3  4  1  0  0  0
  4  5  2  0  0  0
  5  7  1  0  0  0
  5  6  1  0  0  0
  7  8  1  0  0  0
  7 11  1  0  0  0
  8  9  2  0  0  0
  8 10  1  0  0  0
 10 13  1  0  0  0
 10 12  1  0  0  0
 13 14  1  0  0  0
 13 17  2  0  0  0
 14 15  2  0  0  0
 15 18  1  0  0  0
 15 16  1  0  0  0
 18 19  1  0  0  0
 18 20  1  0  0  0
 18 21  1  0  0  0
 16 17  1  0  0  0
 33 34  2  0  0  0
M  END
> <minimizedAffinity>
-9.34461

$$$$
