CHEMBL3902581


 38 41  0  0  0  0  0  0  0  0999 V2000
  -28.8566   -7.9317   -5.5679 N   0  0  0  0  0  0  0  0  0  0  0  0
  -28.5971   -6.5054   -5.4422 C   0  0  0  0  0  0  0  0  0  0  0  0
  -27.5853   -6.1943   -4.5408 C   0  0  0  0  0  0  0  0  0  0  0  0
  -27.5768   -4.9665   -3.9032 C   0  0  0  0  0  0  0  0  0  0  0  0
  -28.4263   -3.9529   -4.2617 C   0  0  0  0  0  0  0  0  0  0  0  0
  -28.3954   -2.9057   -3.4340 N   0  0  0  0  0  0  0  0  0  0  0  0
  -29.0073   -1.7935   -3.8481 C   0  0  0  0  0  0  0  0  0  0  0  0
  -29.5508   -1.6859   -5.1121 C   0  0  0  0  0  0  0  0  0  0  0  0
  -29.7360   -2.8238   -5.8919 N   0  0  0  0  0  0  0  0  0  0  0  0
  -29.2159   -4.0412   -5.4365 C   0  0  0  0  0  0  0  0  0  0  0  0
  -29.3378   -5.4023   -5.9613 C   0  0  0  0  0  0  0  0  0  0  0  0
  -29.5531   -0.3267   -5.6613 C   0  0  0  0  0  0  0  0  0  0  0  0
  -28.5540    0.6016   -6.0402 C   0  0  0  0  0  0  0  0  0  0  0  0
  -29.0508    1.7076   -6.6283 N   0  0  0  0  0  0  0  0  0  0  0  0
  -30.3815    1.4948   -6.6425 N   0  0  0  0  0  0  0  0  0  0  0  0
  -30.7047    0.2382   -6.1994 C   0  0  0  0  0  0  0  0  0  0  0  0
  -31.3341    2.5811   -6.8218 C   0  0  0  0  0  0  0  0  0  0  0  0
  -32.3020    2.4958   -7.9980 C   0  0  0  0  0  0  0  0  0  0  0  0
  -32.3080    3.6909   -8.7727 O   0  0  0  0  0  0  0  0  0  0  0  0
  -32.9857    4.2719   -8.3819 H   0  0  0  0  0  0  0  0  0  0  0  0
  -29.5622   -9.4669   -8.9308 C   0  0  0  0  0  0  0  0  0  0  0  0
  -30.9033   -9.8307   -8.7883 C   0  0  0  0  0  0  0  0  0  0  0  0
  -31.5669   -9.5504   -7.5962 C   0  0  0  0  0  0  0  0  0  0  0  0
  -30.8634   -8.9414   -6.5359 C   0  0  0  0  0  0  0  0  0  0  0  0
  -29.5019   -8.5896   -6.6413 C   0  0  0  0  0  0  0  0  0  0  0  0
  -28.8807   -8.8439   -7.8696 C   0  0  0  0  0  0  0  0  0  0  0  0
  -28.7439  -10.1837  -12.5636 C   0  0  0  0  0  0  0  0  0  0  0  0
  -29.4287   -9.7543  -11.3705 N   0  0  0  0  0  0  0  0  0  0  0  0
  -28.7753   -9.8006  -10.1519 C   0  0  0  0  0  0  0  0  0  0  0  0
  -27.5983  -10.1093  -10.0458 O   0  0  0  0  0  0  0  0  0  0  0  0
  -30.3478   -9.3498  -11.4608 H   0  0  0  0  0  0  0  0  0  0  0  0
  -32.8895   -9.8256   -7.3555 O   0  0  0  0  0  0  0  0  0  0  0  0
  -33.1834  -10.9629   -6.5445 C   0  0  0  0  0  0  0  0  0  0  0  0
  -29.1191   -8.4605   -4.1759 C   0  0  0  0  0  0  0  0  0  0  0  0
  -28.2996   -9.6577   -3.6622 C   0  0  0  0  0  0  0  0  0  0  0  0
  -28.9623  -11.0291   -3.7141 C   0  0  0  0  0  0  0  0  0  0  0  0
  -30.2632  -10.9428   -3.1231 O   0  0  0  0  0  0  0  0  0  0  0  0
  -30.1633  -10.6390   -2.2041 H   0  0  0  0  0  0  0  0  0  0  0  0
 27 28  1  0  0  0
 28 29  1  0  0  0
 28 31  1  0  0  0
 29 30  2  0  0  0
 29 21  1  0  0  0
 21 22  1  0  0  0
 21 26  2  0  0  0
 22 23  2  0  0  0
 23 32  1  0  0  0
 23 24  1  0  0  0
 32 33  1  0  0  0
 24 25  2  0  0  0
 25  1  1  0  0  0
 25 26  1  0  0  0
  1 34  1  0  0  0
  1  2  1  0  0  0
 34 35  1  0  0  0
 35 36  1  0  0  0
 36 37  1  0  0  0
 37 38  1  0  0  0
  2  3  1  0  0  0
  2 11  2  0  0  0
  3  4  2  0  0  0
  4  5  1  0  0  0
  5  6  1  0  0  0
  5 10  2  0  0  0
  6  7  2  0  0  0
  7  8  1  0  0  0
  8 12  1  0  0  0
  8  9  2  0  0  0
 12 13  1  0  0  0
 12 16  2  0  0  0
 13 14  2  0  0  0
 14 15  1  0  0  0
 15 17  1  0  0  0
 15 16  1  0  0  0
 17 18  1  0  0  0
 18 19  1  0  0  0
 19 20  1  0  0  0
  9 10  1  0  0  0
 10 11  1  0  0  0
M  END
> <minimizedAffinity>
-8.24843

$$$$
