CHEMBL215969


 35 38  0  0  0  0  0  0  0  0999 V2000
  -25.1795   -0.7954  -13.0518 C   0  0  0  0  0  0  0  0  0  0  0  0
  -25.4960   -0.9678  -11.6756 C   0  0  0  0  0  0  0  0  0  0  0  0
  -26.6838   -1.5883  -11.2626 C   0  0  0  0  0  0  0  0  0  0  0  0
  -27.6043   -2.0117  -12.2205 C   0  0  0  0  0  0  0  0  0  0  0  0
  -27.3326   -1.8482  -13.5716 C   0  0  0  0  0  0  0  0  0  0  0  0
  -26.1222   -1.2779  -14.0061 C   0  0  0  0  0  0  0  0  0  0  0  0
  -25.9075   -1.2633  -15.5009 C   0  0  0  0  0  0  0  0  0  0  0  0
  -20.1191    2.8917  -14.6486 C   0  0  0  0  0  0  0  0  0  0  0  0
  -21.1320    3.7283  -14.3990 N   0  0  0  0  0  0  0  0  0  0  0  0
  -22.2879    3.1673  -14.0031 C   0  0  0  0  0  0  0  0  0  0  0  0
  -22.4757    1.8030  -13.8669 C   0  0  0  0  0  0  0  0  0  0  0  0
  -23.6846    1.2191  -13.4342 C   0  0  0  0  0  0  0  0  0  0  0  0
  -23.8759   -0.1704  -13.4230 C   0  0  0  0  0  0  0  0  0  0  0  0
  -22.7575   -0.9450  -13.7792 C   0  0  0  0  0  0  0  0  0  0  0  0
  -21.5325   -0.3549  -14.1350 C   0  0  0  0  0  0  0  0  0  0  0  0
  -21.3772    1.0209  -14.2006 C   0  0  0  0  0  0  0  0  0  0  0  0
  -20.2088    1.5549  -14.5759 N   0  0  0  0  0  0  0  0  0  0  0  0
  -17.9957    2.6314  -15.6941 C   0  0  0  0  0  0  0  0  0  0  0  0
  -18.9229    3.4957  -15.0038 N   0  0  0  0  0  0  0  0  0  0  0  0
  -19.1677    4.3582  -15.4768 H   0  0  0  0  0  0  0  0  0  0  0  0
  -26.9925   -1.9186   -9.8423 C   0  0  0  0  0  0  0  0  0  0  0  0
  -26.0775   -1.7764   -9.0334 O   0  0  0  0  0  0  0  0  0  0  0  0
  -28.2577   -2.4125   -9.5675 N   0  0  0  0  0  0  0  0  0  0  0  0
  -28.8342   -2.6490  -10.3606 H   0  0  0  0  0  0  0  0  0  0  0  0
  -28.7222   -2.8279   -8.2861 C   0  0  0  0  0  0  0  0  0  0  0  0
  -29.1673   -4.1414   -8.0657 C   0  0  0  0  0  0  0  0  0  0  0  0
  -29.6670   -4.5453   -6.8332 C   0  0  0  0  0  0  0  0  0  0  0  0
  -29.7251   -3.6398   -5.7840 C   0  0  0  0  0  0  0  0  0  0  0  0
  -29.2703   -2.3195   -5.9467 C   0  0  0  0  0  0  0  0  0  0  0  0
  -28.7465   -1.9093   -7.2089 C   0  0  0  0  0  0  0  0  0  0  0  0
  -28.2494   -0.4955   -7.4072 C   0  0  0  0  0  0  0  0  0  0  0  0
  -29.3787   -1.3824   -4.7620 C   0  0  0  0  0  0  0  0  0  0  0  0
  -28.1724   -0.9542   -4.2896 F   0  0  0  0  0  0  0  0  0  0  0  0
  -30.0792   -0.2499   -5.0493 F   0  0  0  0  0  0  0  0  0  0  0  0
  -30.0026   -1.9545   -3.6940 F   0  0  0  0  0  0  0  0  0  0  0  0
 18 19  1  0  0  0
 19  8  1  0  0  0
 19 20  1  0  0  0
  8  9  1  0  0  0
  8 17  2  0  0  0
  9 10  2  0  0  0
 10 11  1  0  0  0
 11 12  1  0  0  0
 11 16  2  0  0  0
 12 13  2  0  0  0
 13  1  1  0  0  0
 13 14  1  0  0  0
  1  2  1  0  0  0
  1  6  2  0  0  0
  2  3  2  0  0  0
  3 21  1  0  0  0
  3  4  1  0  0  0
 21 22  2  0  0  0
 21 23  1  0  0  0
 23 25  1  0  0  0
 23 24  1  0  0  0
 25 26  1  0  0  0
 25 30  2  0  0  0
 26 27  2  0  0  0
 27 28  1  0  0  0
 28 29  2  0  0  0
 29 32  1  0  0  0
 29 30  1  0  0  0
 32 33  1  0  0  0
 32 34  1  0  0  0
 32 35  1  0  0  0
 30 31  1  0  0  0
  4  5  2  0  0  0
  5  6  1  0  0  0
  6  7  1  0  0  0
 14 15  2  0  0  0
 15 16  1  0  0  0
 16 17  1  0  0  0
M  END
> <minimizedAffinity>
-11.34124

$$$$
