CHEMBL249622


 24 27  0  0  0  0  0  0  0  0999 V2000
  -13.9208   -3.3534  -13.5170 C   0  0  0  0  0  0  0  0  0  0  0  0
  -13.0620   -4.0560  -14.2220 N   0  0  0  0  0  0  0  0  0  0  0  0
  -12.7190   -3.2834  -15.3062 N   0  0  0  0  0  0  0  0  0  0  0  0
  -13.3625   -2.0605  -15.3870 C   0  0  0  0  0  0  0  0  0  0  0  0
  -13.2999   -1.2568  -16.2932 O   0  0  0  0  0  0  0  0  0  0  0  0
  -14.1257   -2.0097  -14.1156 C   0  0  0  0  0  0  0  0  0  0  0  0
  -14.7593   -0.9451  -13.6050 C   0  0  0  0  0  0  0  0  0  0  0  0
  -12.1130   -3.6412  -16.0356 H   0  0  0  0  0  0  0  0  0  0  0  0
  -14.8898    0.3110  -14.2565 C   0  0  0  0  0  0  0  0  0  0  0  0
  -13.8413    1.1791  -14.4503 C   0  0  0  0  0  0  0  0  0  0  0  0
  -14.3548    2.3200  -15.0093 N   0  0  0  0  0  0  0  0  0  0  0  0
  -13.5848    3.5113  -15.2882 C   0  0  0  0  0  0  0  0  0  0  0  0
  -15.7105    2.1827  -15.2290 C   0  0  0  0  0  0  0  0  0  0  0  0
  -16.6525    3.0770  -15.7620 C   0  0  0  0  0  0  0  0  0  0  0  0
  -17.9824    2.6554  -15.8507 C   0  0  0  0  0  0  0  0  0  0  0  0
  -18.3611    1.3844  -15.4293 C   0  0  0  0  0  0  0  0  0  0  0  0
  -17.4175    0.5025  -14.8916 C   0  0  0  0  0  0  0  0  0  0  0  0
  -16.0702    0.9072  -14.7808 C   0  0  0  0  0  0  0  0  0  0  0  0
  -16.6961   -4.9653  -13.3328 C   0  0  0  0  0  0  0  0  0  0  0  0
  -15.7588   -4.5928  -12.2418 C   0  0  0  0  0  0  0  0  0  0  0  0
  -16.0985   -4.9537  -10.9419 N   0  0  0  0  0  0  0  0  0  0  0  0
  -15.2062   -4.5350  -10.0639 N   0  0  0  0  0  0  0  0  0  0  0  0
  -13.9575   -3.6884  -10.7694 S   0  0  0  0  0  0  0  0  0  0  0  0
  -14.5529   -3.9139  -12.3600 C   0  0  0  0  0  0  0  0  0  0  0  0
 19 20  1  0  0  0
 20 21  1  0  0  0
 20 24  2  0  0  0
 21 22  2  0  0  0
 22 23  1  0  0  0
 23 24  1  0  0  0
 24  1  1  0  0  0
  1  2  2  0  0  0
  1  6  1  0  0  0
  2  3  1  0  0  0
  3  4  1  0  0  0
  3  8  1  0  0  0
  4  5  2  0  0  0
  4  6  1  0  0  0
  6  7  2  0  0  0
  7  9  1  0  0  0
  9 10  2  0  0  0
  9 18  1  0  0  0
 10 11  1  0  0  0
 11 12  1  0  0  0
 11 13  1  0  0  0
 13 14  1  0  0  0
 13 18  2  0  0  0
 14 15  2  0  0  0
 15 16  1  0  0  0
 16 17  2  0  0  0
 17 18  1  0  0  0
M  END
> <minimizedAffinity>
-7.22290

$$$$
