CHEMBL3633764


 32 34  0  0  0  0  0  0  0  0999 V2000
  -29.9560   -4.2493   -5.3553 C   0  0  0  0  0  0  0  0  0  0  0  0
  -29.6092   -2.8950   -5.3065 C   0  0  0  0  0  0  0  0  0  0  0  0
  -28.8555   -2.2835   -6.2979 C   0  0  0  0  0  0  0  0  0  0  0  0
  -28.5461   -0.9946   -6.1382 N   0  0  0  0  0  0  0  0  0  0  0  0
  -27.8174   -0.4299   -7.1031 C   0  0  0  0  0  0  0  0  0  0  0  0
  -27.3996   -1.0290   -8.2166 N   0  0  0  0  0  0  0  0  0  0  0  0
  -27.7277   -2.3257   -8.3798 C   0  0  0  0  0  0  0  0  0  0  0  0
  -28.4545   -3.0346   -7.4077 C   0  0  0  0  0  0  0  0  0  0  0  0
  -28.7998   -4.4044   -7.4754 C   0  0  0  0  0  0  0  0  0  0  0  0
  -29.5773   -4.9980   -6.4777 C   0  0  0  0  0  0  0  0  0  0  0  0
  -31.6551   -4.1992   -3.6462 C   0  0  0  0  0  0  0  0  0  0  0  0
  -30.6396   -4.8914   -4.3631 O   0  0  0  0  0  0  0  0  0  0  0  0
  -27.3495   -2.9716   -9.5905 N   0  0  0  0  0  0  0  0  0  0  0  0
  -28.0710   -3.6389   -9.8444 H   0  0  0  0  0  0  0  0  0  0  0  0
  -26.8490   -2.2751  -10.7167 C   0  0  0  0  0  0  0  0  0  0  0  0
  -27.6757   -2.0286  -11.8235 C   0  0  0  0  0  0  0  0  0  0  0  0
  -27.1741   -1.4224  -12.9746 C   0  0  0  0  0  0  0  0  0  0  0  0
  -25.8382   -1.0410  -13.0280 C   0  0  0  0  0  0  0  0  0  0  0  0
  -25.0165   -1.2518  -11.9200 C   0  0  0  0  0  0  0  0  0  0  0  0
  -23.1960   -0.7446  -12.0030 Br  0  0  0  0  0  0  0  0  0  0  0  0
  -25.5163   -1.8570  -10.7633 C   0  0  0  0  0  0  0  0  0  0  0  0
  -29.8363   -6.3286   -6.6824 O   0  0  0  0  0  0  0  0  0  0  0  0
  -29.0479   -6.9489   -7.7027 C   0  0  0  0  0  0  0  0  0  0  0  0
  -29.4276   -8.4309   -7.7978 C   0  0  0  0  0  0  0  0  0  0  0  0
  -29.8670   -8.9785   -6.4369 C   0  0  0  0  0  0  0  0  0  0  0  0
  -28.6911   -9.2815   -5.5123 C   0  0  0  0  0  0  0  0  0  0  0  0
  -28.9444   -8.7543   -4.1130 C   0  0  0  0  0  0  0  0  0  0  0  0
  -28.3655   -9.1454   -3.1020 O   0  0  0  0  0  0  0  0  0  0  0  0
  -29.9013   -7.7690   -4.0580 N   0  0  0  0  0  0  0  0  0  0  0  0
  -30.0841   -7.1724   -2.7879 O   0  0  0  0  0  0  0  0  0  0  0  0
  -30.1919   -7.2249   -4.8624 H   0  0  0  0  0  0  0  0  0  0  0  0
  -29.4690   -7.6919   -2.2226 H   0  0  0  0  0  0  0  0  0  0  0  0
 11 12  1  0  0  0
 12  1  1  0  0  0
  1  2  1  0  0  0
  1 10  2  0  0  0
  2  3  2  0  0  0
  3  4  1  0  0  0
  3  8  1  0  0  0
  4  5  2  0  0  0
  5  6  1  0  0  0
  6  7  2  0  0  0
  7 13  1  0  0  0
  7  8  1  0  0  0
 13 15  1  0  0  0
 13 14  1  0  0  0
 15 16  1  0  0  0
 15 21  2  0  0  0
 16 17  2  0  0  0
 17 18  1  0  0  0
 18 19  2  0  0  0
 19 20  1  0  0  0
 19 21  1  0  0  0
  8  9  2  0  0  0
  9 10  1  0  0  0
 10 22  1  0  0  0
 22 23  1  0  0  0
 23 24  1  0  0  0
 24 25  1  0  0  0
 25 26  1  0  0  0
 26 27  1  0  0  0
 27 28  2  0  0  0
 27 29  1  0  0  0
 29 30  1  0  0  0
 29 31  1  0  0  0
 30 32  1  0  0  0
M  END
> <minimizedAffinity>
-8.21092

$$$$
