CHEMBL3287601


 45 49  0  0  0  0  0  0  0  0999 V2000
  -28.3186   -2.7263   -6.1364 C   0  0  0  0  0  0  0  0  0  0  0  0
  -28.7234   -3.7145   -7.0356 C   0  0  0  0  0  0  0  0  0  0  0  0
  -28.5272   -3.5517   -8.4058 C   0  0  0  0  0  0  0  0  0  0  0  0
  -27.9822   -2.3750   -8.9151 C   0  0  0  0  0  0  0  0  0  0  0  0
  -27.6217   -1.3577   -8.0223 C   0  0  0  0  0  0  0  0  0  0  0  0
  -27.8033   -1.5362   -6.6447 C   0  0  0  0  0  0  0  0  0  0  0  0
  -27.4734   -0.5347   -5.8143 F   0  0  0  0  0  0  0  0  0  0  0  0
  -27.7748   -2.1824  -10.2967 N   0  0  0  0  0  0  0  0  0  0  0  0
  -26.5775   -1.8339  -10.9033 C   0  0  0  0  0  0  0  0  0  0  0  0
  -25.4849   -1.6783  -10.3761 O   0  0  0  0  0  0  0  0  0  0  0  0
  -28.5731   -2.3275  -10.9049 H   0  0  0  0  0  0  0  0  0  0  0  0
  -26.6672   -1.6615  -12.3869 C   0  0  0  0  0  0  0  0  0  0  0  0
  -27.9516   -1.0262  -12.9319 C   0  0  0  0  0  0  0  0  0  0  0  0
  -27.6979   -2.4823  -13.1578 C   0  0  0  0  0  0  0  0  0  0  0  0
  -25.3786   -1.2968  -13.0542 C   0  0  0  0  0  0  0  0  0  0  0  0
  -24.9602   -2.0636  -13.9136 O   0  0  0  0  0  0  0  0  0  0  0  0
  -24.7835   -0.1207  -12.6240 N   0  0  0  0  0  0  0  0  0  0  0  0
  -25.1836    0.3392  -11.8139 H   0  0  0  0  0  0  0  0  0  0  0  0
  -23.6143    0.4514  -13.1841 C   0  0  0  0  0  0  0  0  0  0  0  0
  -23.4679    1.8325  -13.3685 C   0  0  0  0  0  0  0  0  0  0  0  0
  -22.3281    2.3625  -13.9778 C   0  0  0  0  0  0  0  0  0  0  0  0
  -21.3218    1.5097  -14.4004 C   0  0  0  0  0  0  0  0  0  0  0  0
  -20.2429    2.0138  -15.0134 F   0  0  0  0  0  0  0  0  0  0  0  0
  -21.4220    0.1388  -14.1924 C   0  0  0  0  0  0  0  0  0  0  0  0
  -22.5614   -0.3909  -13.5689 C   0  0  0  0  0  0  0  0  0  0  0  0
  -28.4399   -2.8651   -4.7682 O   0  0  0  0  0  0  0  0  0  0  0  0
  -29.5194   -6.0848   -3.5356 C   0  0  0  0  0  0  0  0  0  0  0  0
  -28.6922   -5.1147   -4.0696 C   0  0  0  0  0  0  0  0  0  0  0  0
  -29.2693   -3.8866   -4.3086 C   0  0  0  0  0  0  0  0  0  0  0  0
  -30.5736   -3.6229   -4.1111 N   0  0  0  0  0  0  0  0  0  0  0  0
  -31.2768   -4.6040   -3.5564 C   0  0  0  0  0  0  0  0  0  0  0  0
  -30.8046   -5.8112   -3.2410 N   0  0  0  0  0  0  0  0  0  0  0  0
  -29.0252   -7.3998   -3.3802 N   0  0  0  0  0  0  0  0  0  0  0  0
  -29.2596   -7.8204   -2.4919 H   0  0  0  0  0  0  0  0  0  0  0  0
  -29.0656   -9.2729   -6.6195 C   0  0  0  0  0  0  0  0  0  0  0  0
  -28.0002  -10.1608   -6.4230 C   0  0  0  0  0  0  0  0  0  0  0  0
  -27.2829  -10.1418   -5.2341 C   0  0  0  0  0  0  0  0  0  0  0  0
  -27.6236   -9.2348   -4.2322 C   0  0  0  0  0  0  0  0  0  0  0  0
  -28.6749   -8.3224   -4.3917 C   0  0  0  0  0  0  0  0  0  0  0  0
  -29.4010   -8.3658   -5.5940 C   0  0  0  0  0  0  0  0  0  0  0  0
  -29.8296   -9.3004   -7.9163 C   0  0  0  0  0  0  0  0  0  0  0  0
  -30.9131  -11.7085   -8.7555 C   0  0  0  0  0  0  0  0  0  0  0  0
  -31.2997  -10.3074   -7.7344 S   0  0  0  0  0  0  0  0  0  0  0  0
  -32.4190   -9.6274   -8.3665 O   0  0  0  0  0  0  0  0  0  0  0  0
  -31.3855  -10.7915   -6.3745 O   0  0  0  0  0  0  0  0  0  0  0  0
 42 43  1  0  0  0
 43 44  2  0  0  0
 43 45  2  0  0  0
 43 41  1  0  0  0
 41 35  1  0  0  0
 35 36  1  0  0  0
 35 40  2  0  0  0
 36 37  2  0  0  0
 37 38  1  0  0  0
 38 39  2  0  0  0
 39 33  1  0  0  0
 39 40  1  0  0  0
 33 27  1  0  0  0
 33 34  1  0  0  0
 27 28  1  0  0  0
 27 32  2  0  0  0
 28 29  2  0  0  0
 29 26  1  0  0  0
 29 30  1  0  0  0
 26  1  1  0  0  0
  1  2  1  0  0  0
  1  6  2  0  0  0
  2  3  2  0  0  0
  3  4  1  0  0  0
  4  8  1  0  0  0
  4  5  2  0  0  0
  8  9  1  0  0  0
  8 11  1  0  0  0
  9 10  2  0  0  0
  9 12  1  0  0  0
 12 15  1  0  0  0
 12 13  1  0  0  0
 12 14  1  0  0  0
 15 16  2  0  0  0
 15 17  1  0  0  0
 17 19  1  0  0  0
 17 18  1  0  0  0
 19 20  1  0  0  0
 19 25  2  0  0  0
 20 21  2  0  0  0
 21 22  1  0  0  0
 22 23  1  0  0  0
 22 24  2  0  0  0
 24 25  1  0  0  0
 13 14  1  0  0  0
  5  6  1  0  0  0
  6  7  1  0  0  0
 30 31  2  0  0  0
 31 32  1  0  0  0
M  END
> <minimizedAffinity>
-10.38982

$$$$
