CHEMBL118748


 36 40  0  0  0  0  0  0  0  0999 V2000
  -29.3745   -2.6917   -5.7152 C   0  0  0  0  0  0  0  0  0  0  0  0
  -28.9534   -1.3759   -5.4745 C   0  0  0  0  0  0  0  0  0  0  0  0
  -28.2206   -0.6617   -6.4147 C   0  0  0  0  0  0  0  0  0  0  0  0
  -27.9298   -1.3130   -7.6040 C   0  0  0  0  0  0  0  0  0  0  0  0
  -27.2231   -0.8745   -8.6902 N   0  0  0  0  0  0  0  0  0  0  0  0
  -27.1451   -1.8513   -9.6512 C   0  0  0  0  0  0  0  0  0  0  0  0
  -27.8460   -2.9407   -9.1646 C   0  0  0  0  0  0  0  0  0  0  0  0
  -28.3362   -2.6171   -7.8800 C   0  0  0  0  0  0  0  0  0  0  0  0
  -29.0755   -3.3202   -6.9233 C   0  0  0  0  0  0  0  0  0  0  0  0
  -26.7831    0.0353   -8.7700 H   0  0  0  0  0  0  0  0  0  0  0  0
  -26.3967   -1.6782  -10.8899 C   0  0  0  0  0  0  0  0  0  0  0  0
  -25.0753   -1.2498  -10.8354 C   0  0  0  0  0  0  0  0  0  0  0  0
  -24.3799   -0.9758  -12.0081 C   0  0  0  0  0  0  0  0  0  0  0  0
  -23.0695   -0.4850  -11.9466 C   0  0  0  0  0  0  0  0  0  0  0  0
  -22.4218   -0.0994  -13.1113 C   0  0  0  0  0  0  0  0  0  0  0  0
  -23.0729   -0.2529  -14.3356 C   0  0  0  0  0  0  0  0  0  0  0  0
  -24.3511   -0.8114  -14.3875 C   0  0  0  0  0  0  0  0  0  0  0  0
  -25.0448   -1.1657  -13.2360 C   0  0  0  0  0  0  0  0  0  0  0  0
  -26.3064   -1.6270  -13.3229 N   0  0  0  0  0  0  0  0  0  0  0  0
  -26.9396   -1.8603  -12.1590 C   0  0  0  0  0  0  0  0  0  0  0  0
  -28.2339   -2.2531  -12.3304 O   0  0  0  0  0  0  0  0  0  0  0  0
  -28.3036   -2.1893  -13.3013 H   0  0  0  0  0  0  0  0  0  0  0  0
  -30.0783   -3.4577   -4.8264 O   0  0  0  0  0  0  0  0  0  0  0  0
  -29.3442   -3.8336   -3.6648 C   0  0  0  0  0  0  0  0  0  0  0  0
  -28.7018   -5.1806   -3.9237 C   0  0  0  0  0  0  0  0  0  0  0  0
  -29.6626   -6.3306   -3.6059 C   0  0  0  0  0  0  0  0  0  0  0  0
  -29.5114   -8.4176   -7.4154 C   0  0  0  0  0  0  0  0  0  0  0  0
  -30.7739   -7.6785   -6.9758 C   0  0  0  0  0  0  0  0  0  0  0  0
  -30.5496   -6.6825   -5.8407 C   0  0  0  0  0  0  0  0  0  0  0  0
  -29.8244   -7.2931   -4.7152 N   0  0  0  0  0  0  0  0  0  0  0  0
  -28.5129   -7.7772   -5.1691 C   0  0  0  0  0  0  0  0  0  0  0  0
  -28.6881   -8.8816   -6.2160 C   0  0  0  0  0  0  0  0  0  0  0  0
  -28.3449   -6.4318   -8.2086 O   0  0  0  0  0  0  0  0  0  0  0  0
  -28.6281   -7.6101   -8.3469 C   0  0  0  0  0  0  0  0  0  0  0  0
  -28.1213   -8.3600   -9.3574 O   0  0  0  0  0  0  0  0  0  0  0  0
  -28.4058   -9.2946   -9.3475 H   0  0  0  0  0  0  0  0  0  0  0  0
 33 34  2  0  0  0
 34 35  1  0  0  0
 34 27  1  0  0  0
 35 36  1  0  0  0
 27 28  1  0  0  0
 27 32  1  0  0  0
 28 29  1  0  0  0
 29 30  1  0  0  0
 30 26  1  0  0  0
 30 31  1  0  0  0
 26 25  1  0  0  0
 25 24  1  0  0  0
 24 23  1  0  0  0
 23  1  1  0  0  0
  1  2  1  0  0  0
  1  9  2  0  0  0
  2  3  2  0  0  0
  3  4  1  0  0  0
  4  5  1  0  0  0
  4  8  2  0  0  0
  5  6  1  0  0  0
  5 10  1  0  0  0
  6 11  1  0  0  0
  6  7  2  0  0  0
 11 12  1  0  0  0
 11 20  2  0  0  0
 12 13  2  0  0  0
 13 14  1  0  0  0
 13 18  1  0  0  0
 14 15  2  0  0  0
 15 16  1  0  0  0
 16 17  2  0  0  0
 17 18  1  0  0  0
 18 19  2  0  0  0
 19 20  1  0  0  0
 20 21  1  0  0  0
 21 22  1  0  0  0
  7  8  1  0  0  0
  8  9  1  0  0  0
 31 32  1  0  0  0
M  END
> <minimizedAffinity>
-10.48055

$$$$
