CHEMBL3690426


 40 44  0  0  0  0  0  0  0  0999 V2000
  -14.3497   -1.0427  -13.5239 C   0  0  0  0  0  0  0  0  0  0  0  0
  -15.5842   -0.7424  -12.7788 C   0  0  0  0  0  0  0  0  0  0  0  0
  -16.4064    0.2357  -13.1818 C   0  0  0  0  0  0  0  0  0  0  0  0
  -16.2161    0.8009  -14.4366 N   0  0  0  0  0  0  0  0  0  0  0  0
  -17.0753    1.5711  -15.2045 C   0  0  0  0  0  0  0  0  0  0  0  0
  -16.3469    1.8256  -16.3582 C   0  0  0  0  0  0  0  0  0  0  0  0
  -15.1371    1.1786  -16.3586 N   0  0  0  0  0  0  0  0  0  0  0  0
  -15.1031    0.5175  -15.2226 C   0  0  0  0  0  0  0  0  0  0  0  0
  -14.1463   -0.4091  -14.7072 C   0  0  0  0  0  0  0  0  0  0  0  0
  -18.4744    1.9000  -14.9058 C   0  0  0  0  0  0  0  0  0  0  0  0
  -18.8600    3.2422  -14.8506 C   0  0  0  0  0  0  0  0  0  0  0  0
  -20.1987    3.5873  -14.6914 C   0  0  0  0  0  0  0  0  0  0  0  0
  -21.1743    2.5946  -14.5882 C   0  0  0  0  0  0  0  0  0  0  0  0
  -20.8332    1.2418  -14.6411 C   0  0  0  0  0  0  0  0  0  0  0  0
  -19.4743    0.9103  -14.7962 C   0  0  0  0  0  0  0  0  0  0  0  0
  -21.7987    0.1931  -14.5695 N   0  0  0  0  0  0  0  0  0  0  0  0
  -22.4412   -0.2363  -13.4410 C   0  0  0  0  0  0  0  0  0  0  0  0
  -22.3039    0.1925  -12.2965 O   0  0  0  0  0  0  0  0  0  0  0  0
  -23.2771   -1.3066  -13.6659 N   0  0  0  0  0  0  0  0  0  0  0  0
  -22.0352   -0.2561  -15.4392 H   0  0  0  0  0  0  0  0  0  0  0  0
  -23.7223   -1.3395  -14.5696 H   0  0  0  0  0  0  0  0  0  0  0  0
  -24.0440   -1.8457  -12.5318 C   0  0  0  0  0  0  0  0  0  0  0  0
  -25.5357   -1.4779  -12.4875 C   0  0  0  0  0  0  0  0  0  0  0  0
  -26.2265   -2.2609  -11.6268 F   0  0  0  0  0  0  0  0  0  0  0  0
  -25.6805   -0.2003  -12.0520 F   0  0  0  0  0  0  0  0  0  0  0  0
  -26.1258   -1.5557  -13.6973 F   0  0  0  0  0  0  0  0  0  0  0  0
  -12.3855   -3.4141  -11.6449 N   0  0  0  0  0  0  0  0  0  0  0  0
  -13.6001   -2.8790  -11.9697 C   0  0  0  0  0  0  0  0  0  0  0  0
  -13.3696   -1.9140  -12.9302 C   0  0  0  0  0  0  0  0  0  0  0  0
  -11.9710   -1.9607  -13.1191 C   0  0  0  0  0  0  0  0  0  0  0  0
  -11.3765   -2.8701  -12.3433 N   0  0  0  0  0  0  0  0  0  0  0  0
  -13.2678   -9.3456  -12.1178 C   0  0  0  0  0  0  0  0  0  0  0  0
  -12.0171   -8.5028  -12.1443 C   0  0  0  0  0  0  0  0  0  0  0  0
  -10.9364   -9.0189  -12.4319 O   0  0  0  0  0  0  0  0  0  0  0  0
  -12.1485   -7.1541  -11.8329 N   0  0  0  0  0  0  0  0  0  0  0  0
  -11.0056   -6.2765  -12.0661 C   0  0  0  0  0  0  0  0  0  0  0  0
  -10.8558   -5.2520  -10.9498 C   0  0  0  0  0  0  0  0  0  0  0  0
  -12.1562   -4.4856  -10.6786 C   0  0  0  0  0  0  0  0  0  0  0  0
  -13.3440   -5.4433  -10.5187 C   0  0  0  0  0  0  0  0  0  0  0  0
  -13.4297   -6.4762  -11.6401 C   0  0  0  0  0  0  0  0  0  0  0  0
 32 33  1  0  0  0
 33 34  2  0  0  0
 33 35  1  0  0  0
 35 36  1  0  0  0
 35 40  1  0  0  0
 36 37  1  0  0  0
 37 38  1  0  0  0
 38 27  1  0  0  0
 38 39  1  0  0  0
 27 28  1  0  0  0
 27 31  1  0  0  0
 28 29  2  0  0  0
 29  1  1  0  0  0
 29 30  1  0  0  0
  1  2  1  0  0  0
  1  9  2  0  0  0
  2  3  2  0  0  0
  3  4  1  0  0  0
  4  5  1  0  0  0
  4  8  1  0  0  0
  5 10  1  0  0  0
  5  6  2  0  0  0
 10 11  1  0  0  0
 10 15  2  0  0  0
 11 12  2  0  0  0
 12 13  1  0  0  0
 13 14  2  0  0  0
 14 16  1  0  0  0
 14 15  1  0  0  0
 16 17  1  0  0  0
 16 20  1  0  0  0
 17 18  2  0  0  0
 17 19  1  0  0  0
 19 22  1  0  0  0
 19 21  1  0  0  0
 22 23  1  0  0  0
 23 24  1  0  0  0
 23 25  1  0  0  0
 23 26  1  0  0  0
  6  7  1  0  0  0
  7  8  2  0  0  0
  8  9  1  0  0  0
 30 31  2  0  0  0
 39 40  1  0  0  0
M  END
> <minimizedAffinity>
-10.19756

$$$$
