CHEMBL1762524


 35 39  0  0  0  0  0  0  0  0999 V2000
  -28.1927   -8.6154   -4.5950 C   0  0  0  0  0  0  0  0  0  0  0  0
  -29.1085   -9.0454   -5.5600 C   0  0  0  0  0  0  0  0  0  0  0  0
  -28.8117  -10.1008   -6.4302 C   0  0  0  0  0  0  0  0  0  0  0  0
  -27.5396  -10.6887   -6.3240 C   0  0  0  0  0  0  0  0  0  0  0  0
  -26.5495  -10.2432   -5.4359 C   0  0  0  0  0  0  0  0  0  0  0  0
  -26.9206   -9.2101   -4.5685 C   0  0  0  0  0  0  0  0  0  0  0  0
  -29.7064  -10.5578   -7.3723 N   0  0  0  0  0  0  0  0  0  0  0  0
  -30.2866   -9.6892   -8.4013 C   0  0  0  0  0  0  0  0  0  0  0  0
  -31.8133   -9.6682   -8.2682 C   0  0  0  0  0  0  0  0  0  0  0  0
  -32.3631  -10.9979   -8.2973 O   0  0  0  0  0  0  0  0  0  0  0  0
  -31.8327  -11.7790   -7.2112 C   0  0  0  0  0  0  0  0  0  0  0  0
  -30.3003  -11.8993   -7.2861 C   0  0  0  0  0  0  0  0  0  0  0  0
  -25.2786  -10.7816   -5.4431 N   0  0  0  0  0  0  0  0  0  0  0  0
  -24.7057  -11.5360   -4.3198 C   0  0  0  0  0  0  0  0  0  0  0  0
  -23.3705  -10.9026   -3.9045 C   0  0  0  0  0  0  0  0  0  0  0  0
  -22.4546  -10.8471   -5.0129 O   0  0  0  0  0  0  0  0  0  0  0  0
  -23.0102  -10.0522   -6.0737 C   0  0  0  0  0  0  0  0  0  0  0  0
  -24.3555  -10.6063   -6.5761 C   0  0  0  0  0  0  0  0  0  0  0  0
  -28.5647   -7.5989   -3.6897 N   0  0  0  0  0  0  0  0  0  0  0  0
  -28.6697   -7.9028   -2.7324 H   0  0  0  0  0  0  0  0  0  0  0  0
  -29.8724   -4.5668   -5.0913 C   0  0  0  0  0  0  0  0  0  0  0  0
  -31.0826   -4.4558   -4.4261 C   0  0  0  0  0  0  0  0  0  0  0  0
  -31.4041   -5.4466   -3.5360 C   0  0  0  0  0  0  0  0  0  0  0  0
  -30.5987   -6.4761   -3.2701 N   0  0  0  0  0  0  0  0  0  0  0  0
  -29.4375   -6.5350   -3.9368 C   0  0  0  0  0  0  0  0  0  0  0  0
  -29.0657   -5.6286   -4.8551 N   0  0  0  0  0  0  0  0  0  0  0  0
  -29.5980   -3.9346   -7.4464 C   0  0  0  0  0  0  0  0  0  0  0  0
  -29.4590   -3.5839   -6.0296 N   0  0  0  0  0  0  0  0  0  0  0  0
  -28.9784   -2.2928   -5.7102 C   0  0  0  0  0  0  0  0  0  0  0  0
  -27.6574   -2.0533   -5.2890 C   0  0  0  0  0  0  0  0  0  0  0  0
  -27.2222   -0.7749   -4.9187 C   0  0  0  0  0  0  0  0  0  0  0  0
  -28.0991    0.3026   -4.9774 C   0  0  0  0  0  0  0  0  0  0  0  0
  -29.4012    0.0967   -5.4185 C   0  0  0  0  0  0  0  0  0  0  0  0
  -30.4932    1.4254   -5.4982 Cl  0  0  0  0  0  0  0  0  0  0  0  0
  -29.8347   -1.1794   -5.7831 C   0  0  0  0  0  0  0  0  0  0  0  0
 27 28  1  0  0  0
 28 29  1  0  0  0
 28 21  1  0  0  0
 29 30  1  0  0  0
 29 35  2  0  0  0
 30 31  2  0  0  0
 31 32  1  0  0  0
 32 33  2  0  0  0
 33 34  1  0  0  0
 33 35  1  0  0  0
 21 22  1  0  0  0
 21 26  2  0  0  0
 22 23  2  0  0  0
 23 24  1  0  0  0
 24 25  2  0  0  0
 25 19  1  0  0  0
 25 26  1  0  0  0
 19  1  1  0  0  0
 19 20  1  0  0  0
  1  2  1  0  0  0
  1  6  2  0  0  0
  2  3  2  0  0  0
  3  7  1  0  0  0
  3  4  1  0  0  0
  7  8  1  0  0  0
  7 12  1  0  0  0
  8  9  1  0  0  0
  9 10  1  0  0  0
 10 11  1  0  0  0
 11 12  1  0  0  0
  4  5  2  0  0  0
  5 13  1  0  0  0
  5  6  1  0  0  0
 13 14  1  0  0  0
 13 18  1  0  0  0
 14 15  1  0  0  0
 15 16  1  0  0  0
 16 17  1  0  0  0
 17 18  1  0  0  0
M  END
> <minimizedAffinity>
-9.56471

$$$$
