CHEMBL225240


 43 49  0  0  0  0  0  0  0  0999 V2000
  -23.6607    0.3541  -13.6219 C   0  0  0  0  0  0  0  0  0  0  0  0
  -24.0590   -0.5802  -14.5538 C   0  0  0  0  0  0  0  0  0  0  0  0
  -25.1859   -1.6875  -13.9076 S   0  0  0  0  0  0  0  0  0  0  0  0
  -25.1464   -0.9233  -12.3801 C   0  0  0  0  0  0  0  0  0  0  0  0
  -24.2721    0.1418  -12.3525 C   0  0  0  0  0  0  0  0  0  0  0  0
  -17.0721    1.8126  -15.8093 C   0  0  0  0  0  0  0  0  0  0  0  0
  -17.4830    3.1718  -15.7324 C   0  0  0  0  0  0  0  0  0  0  0  0
  -18.7351    3.5438  -15.2417 C   0  0  0  0  0  0  0  0  0  0  0  0
  -19.5948    2.5297  -14.9161 C   0  0  0  0  0  0  0  0  0  0  0  0
  -19.2592    1.1559  -15.0576 C   0  0  0  0  0  0  0  0  0  0  0  0
  -17.9862    0.7930  -15.4797 C   0  0  0  0  0  0  0  0  0  0  0  0
  -20.4321    0.2169  -14.7099 C   0  0  0  0  0  0  0  0  0  0  0  0
  -21.4132    1.2730  -14.3230 C   0  0  0  0  0  0  0  0  0  0  0  0
  -22.7295    1.4472  -13.8866 C   0  0  0  0  0  0  0  0  0  0  0  0
  -23.0429    2.7512  -13.7516 N   0  0  0  0  0  0  0  0  0  0  0  0
  -21.8942    3.4032  -14.0731 N   0  0  0  0  0  0  0  0  0  0  0  0
  -20.9288    2.5423  -14.4435 C   0  0  0  0  0  0  0  0  0  0  0  0
  -21.8682    4.4152  -14.0118 H   0  0  0  0  0  0  0  0  0  0  0  0
  -15.6558    1.4777  -16.2577 C   0  0  0  0  0  0  0  0  0  0  0  0
  -13.1697   -2.3574  -14.7156 C   0  0  0  0  0  0  0  0  0  0  0  0
  -13.3299   -0.9146  -14.5799 N   0  0  0  0  0  0  0  0  0  0  0  0
  -13.0940   -0.2280  -15.8599 C   0  0  0  0  0  0  0  0  0  0  0  0
  -13.2416    1.2994  -15.6799 C   0  0  0  0  0  0  0  0  0  0  0  0
  -14.5957    1.7210  -15.2560 N   0  0  0  0  0  0  0  0  0  0  0  0
  -14.8890    0.9859  -13.9960 C   0  0  0  0  0  0  0  0  0  0  0  0
  -14.6624   -0.5538  -14.0564 C   0  0  0  0  0  0  0  0  0  0  0  0
  -25.9408   -1.3652  -11.2870 C   0  0  0  0  0  0  0  0  0  0  0  0
  -26.7052   -1.7872  -10.3186 C   0  0  0  0  0  0  0  0  0  0  0  0
  -27.5961   -2.2790   -9.1896 C   0  0  0  0  0  0  0  0  0  0  0  0
  -27.2052   -1.6021   -8.0259 O   0  0  0  0  0  0  0  0  0  0  0  0
  -27.9542   -1.9705   -6.9500 C   0  0  0  0  0  0  0  0  0  0  0  0
  -27.6598   -1.6531   -5.6135 C   0  0  0  0  0  0  0  0  0  0  0  0
  -28.4534   -2.1743   -4.5899 C   0  0  0  0  0  0  0  0  0  0  0  0
  -29.5670   -2.9663   -4.8945 C   0  0  0  0  0  0  0  0  0  0  0  0
  -29.8716   -3.2130   -6.2576 C   0  0  0  0  0  0  0  0  0  0  0  0
  -29.0434   -2.7267   -7.2709 C   0  0  0  0  0  0  0  0  0  0  0  0
  -30.3673   -3.6673   -3.8137 C   0  0  0  0  0  0  0  0  0  0  0  0
  -30.1926   -5.0932   -3.5607 N   0  0  0  0  0  0  0  0  0  0  0  0
  -28.8559   -5.6657   -3.6644 C   0  0  0  0  0  0  0  0  0  0  0  0
  -28.5031   -6.2337   -5.0468 C   0  0  0  0  0  0  0  0  0  0  0  0
  -29.5290   -7.0344   -5.6469 O   0  0  0  0  0  0  0  0  0  0  0  0
  -30.8742   -6.5725   -5.4825 C   0  0  0  0  0  0  0  0  0  0  0  0
  -31.1843   -6.0229   -4.0870 C   0  0  0  0  0  0  0  0  0  0  0  0
 20 21  1  0  0  0
 21 22  1  0  0  0
 21 26  1  0  0  0
 22 23  1  0  0  0
 23 24  1  0  0  0
 24 19  1  0  0  0
 24 25  1  0  0  0
 19  6  1  0  0  0
  6  7  1  0  0  0
  6 11  2  0  0  0
  7  8  2  0  0  0
  8  9  1  0  0  0
  9 10  2  0  0  0
  9 17  1  0  0  0
 10 11  1  0  0  0
 10 12  1  0  0  0
 12 13  1  0  0  0
 13 14  1  0  0  0
 13 17  2  0  0  0
 14  1  1  0  0  0
 14 15  2  0  0  0
  1  2  2  0  0  0
  1  5  1  0  0  0
  2  3  1  0  0  0
  3  4  1  0  0  0
  4 27  1  0  0  0
  4  5  2  0  0  0
 27 28  3  0  0  0
 28 29  1  0  0  0
 29 30  1  0  0  0
 30 31  1  0  0  0
 31 32  1  0  0  0
 31 36  2  0  0  0
 32 33  2  0  0  0
 33 34  1  0  0  0
 34 37  1  0  0  0
 34 35  2  0  0  0
 37 38  1  0  0  0
 38 39  1  0  0  0
 38 43  1  0  0  0
 39 40  1  0  0  0
 40 41  1  0  0  0
 41 42  1  0  0  0
 42 43  1  0  0  0
 35 36  1  0  0  0
 15 16  1  0  0  0
 16 17  1  0  0  0
 16 18  1  0  0  0
 25 26  1  0  0  0
M  END
> <minimizedAffinity>
-11.78036

$$$$
