CHEMBL172518


 34 38  0  0  0  0  0  0  0  0999 V2000
  -15.2145   -3.1332  -12.9402 C   0  0  0  0  0  0  0  0  0  0  0  0
  -15.0717   -2.1696  -13.9368 C   0  0  0  0  0  0  0  0  0  0  0  0
  -13.8805   -1.4281  -14.0771 C   0  0  0  0  0  0  0  0  0  0  0  0
  -13.7102   -0.3839  -14.9988 C   0  0  0  0  0  0  0  0  0  0  0  0
  -12.5346    0.2658  -15.1152 N   0  0  0  0  0  0  0  0  0  0  0  0
  -11.5459   -0.1226  -14.3032 C   0  0  0  0  0  0  0  0  0  0  0  0
  -11.6116   -1.0811  -13.3773 N   0  0  0  0  0  0  0  0  0  0  0  0
  -12.7768   -1.7282  -13.2654 C   0  0  0  0  0  0  0  0  0  0  0  0
  -12.9011   -2.7507  -12.3376 C   0  0  0  0  0  0  0  0  0  0  0  0
  -14.0909   -3.4783  -12.1805 C   0  0  0  0  0  0  0  0  0  0  0  0
  -16.7105   -4.9613  -13.3438 C   0  0  0  0  0  0  0  0  0  0  0  0
  -16.4077   -3.7443  -12.6659 O   0  0  0  0  0  0  0  0  0  0  0  0
  -14.7886   -0.0252  -15.8512 N   0  0  0  0  0  0  0  0  0  0  0  0
  -15.4239   -0.7991  -16.0254 H   0  0  0  0  0  0  0  0  0  0  0  0
  -15.4457    1.2124  -15.9325 C   0  0  0  0  0  0  0  0  0  0  0  0
  -14.8146    2.3752  -16.4028 C   0  0  0  0  0  0  0  0  0  0  0  0
  -15.4507    3.6164  -16.4317 C   0  0  0  0  0  0  0  0  0  0  0  0
  -16.7817    3.7440  -16.0334 C   0  0  0  0  0  0  0  0  0  0  0  0
  -17.4812    2.5908  -15.6350 C   0  0  0  0  0  0  0  0  0  0  0  0
  -18.8048    2.3044  -15.2128 C   0  0  0  0  0  0  0  0  0  0  0  0
  -20.0621    3.4320  -15.0460 Cl  0  0  0  0  0  0  0  0  0  0  0  0
  -18.8632    0.9517  -14.9813 C   0  0  0  0  0  0  0  0  0  0  0  0
  -17.6497    0.3757  -15.2003 O   0  0  0  0  0  0  0  0  0  0  0  0
  -16.8014    1.3749  -15.6017 C   0  0  0  0  0  0  0  0  0  0  0  0
  -14.0178   -4.4777  -11.2420 O   0  0  0  0  0  0  0  0  0  0  0  0
  -12.7113   -4.7332  -10.7155 C   0  0  0  0  0  0  0  0  0  0  0  0
  -12.3733   -6.2157  -10.8699 C   0  0  0  0  0  0  0  0  0  0  0  0
  -12.5959   -6.7070  -12.3037 C   0  0  0  0  0  0  0  0  0  0  0  0
  -13.6781   -7.7042  -12.4282 N   0  0  0  0  0  0  0  0  0  0  0  0
  -13.2806   -8.9808  -11.7826 C   0  0  0  0  0  0  0  0  0  0  0  0
  -12.2180   -9.7784  -12.5668 C   0  0  0  0  0  0  0  0  0  0  0  0
  -12.5995   -9.9950  -13.9324 O   0  0  0  0  0  0  0  0  0  0  0  0
  -12.9181   -8.7580  -14.5837 C   0  0  0  0  0  0  0  0  0  0  0  0
  -14.0355   -8.0229  -13.8296 C   0  0  0  0  0  0  0  0  0  0  0  0
 11 12  1  0  0  0
 12  1  1  0  0  0
  1  2  1  0  0  0
  1 10  2  0  0  0
  2  3  2  0  0  0
  3  4  1  0  0  0
  3  8  1  0  0  0
  4 13  1  0  0  0
  4  5  2  0  0  0
 13 15  1  0  0  0
 13 14  1  0  0  0
 15 16  1  0  0  0
 15 24  2  0  0  0
 16 17  2  0  0  0
 17 18  1  0  0  0
 18 19  2  0  0  0
 19 20  1  0  0  0
 19 24  1  0  0  0
 20 21  1  0  0  0
 20 22  2  0  0  0
 22 23  1  0  0  0
 23 24  1  0  0  0
  5  6  1  0  0  0
  6  7  2  0  0  0
  7  8  1  0  0  0
  8  9  2  0  0  0
  9 10  1  0  0  0
 10 25  1  0  0  0
 25 26  1  0  0  0
 26 27  1  0  0  0
 27 28  1  0  0  0
 28 29  1  0  0  0
 29 30  1  0  0  0
 29 34  1  0  0  0
 30 31  1  0  0  0
 31 32  1  0  0  0
 32 33  1  0  0  0
 33 34  1  0  0  0
M  END
> <minimizedAffinity>
-7.27094

$$$$
