CHEMBL3914264


 32 35  0  0  0  0  0  0  0  0999 V2000
  -28.7817   -5.4734   -7.1336 C   0  0  0  0  0  0  0  0  0  0  0  0
  -28.6586   -4.4194   -8.0457 C   0  0  0  0  0  0  0  0  0  0  0  0
  -28.3371   -3.1103   -7.6126 C   0  0  0  0  0  0  0  0  0  0  0  0
  -28.1297   -2.0012   -8.4490 C   0  0  0  0  0  0  0  0  0  0  0  0
  -27.7915   -0.7926   -7.9596 N   0  0  0  0  0  0  0  0  0  0  0  0
  -27.6645   -0.6839   -6.6348 C   0  0  0  0  0  0  0  0  0  0  0  0
  -27.8350   -1.6705   -5.7529 N   0  0  0  0  0  0  0  0  0  0  0  0
  -28.1586   -2.8674   -6.2503 C   0  0  0  0  0  0  0  0  0  0  0  0
  -28.3289   -3.9028   -5.3554 C   0  0  0  0  0  0  0  0  0  0  0  0
  -28.6880   -5.1944   -5.7605 C   0  0  0  0  0  0  0  0  0  0  0  0
  -30.3796   -7.1719   -7.5856 C   0  0  0  0  0  0  0  0  0  0  0  0
  -29.0066   -6.7674   -7.5266 O   0  0  0  0  0  0  0  0  0  0  0  0
  -28.2429   -2.1538   -9.8541 N   0  0  0  0  0  0  0  0  0  0  0  0
  -29.1486   -1.8136  -10.1636 H   0  0  0  0  0  0  0  0  0  0  0  0
  -27.2014   -1.8802  -10.7655 C   0  0  0  0  0  0  0  0  0  0  0  0
  -25.9062   -1.6029  -10.3053 C   0  0  0  0  0  0  0  0  0  0  0  0
  -24.8828   -1.2680  -11.1903 C   0  0  0  0  0  0  0  0  0  0  0  0
  -25.1411   -1.2148  -12.5594 C   0  0  0  0  0  0  0  0  0  0  0  0
  -23.8463   -0.7479  -13.6027 Cl  0  0  0  0  0  0  0  0  0  0  0  0
  -26.4198   -1.5231  -13.0366 C   0  0  0  0  0  0  0  0  0  0  0  0
  -26.8125   -1.4820  -14.7198 Cl  0  0  0  0  0  0  0  0  0  0  0  0
  -27.4426   -1.8647  -12.1426 C   0  0  0  0  0  0  0  0  0  0  0  0
  -28.9662   -6.2050   -4.8604 O   0  0  0  0  0  0  0  0  0  0  0  0
  -27.8459   -7.0143   -4.5046 C   0  0  0  0  0  0  0  0  0  0  0  0
  -28.0418   -8.5311   -4.5783 C   0  0  0  0  0  0  0  0  0  0  0  0
  -29.1586   -8.9982   -4.8170 O   0  0  0  0  0  0  0  0  0  0  0  0
  -26.9077   -9.3284   -4.5209 N   0  0  0  0  0  0  0  0  0  0  0  0
  -25.5951   -8.8726   -4.0534 C   0  0  0  0  0  0  0  0  0  0  0  0
  -24.4610   -9.6161   -4.7636 C   0  0  0  0  0  0  0  0  0  0  0  0
  -24.6286  -11.0374   -4.6840 O   0  0  0  0  0  0  0  0  0  0  0  0
  -25.8702  -11.4305   -5.2893 C   0  0  0  0  0  0  0  0  0  0  0  0
  -27.0591  -10.7833   -4.5748 C   0  0  0  0  0  0  0  0  0  0  0  0
 11 12  1  0  0  0
 12  1  1  0  0  0
  1  2  1  0  0  0
  1 10  2  0  0  0
  2  3  2  0  0  0
  3  4  1  0  0  0
  3  8  1  0  0  0
  4 13  1  0  0  0
  4  5  2  0  0  0
 13 15  1  0  0  0
 13 14  1  0  0  0
 15 16  1  0  0  0
 15 22  2  0  0  0
 16 17  2  0  0  0
 17 18  1  0  0  0
 18 19  1  0  0  0
 18 20  2  0  0  0
 20 21  1  0  0  0
 20 22  1  0  0  0
  5  6  1  0  0  0
  6  7  2  0  0  0
  7  8  1  0  0  0
  8  9  2  0  0  0
  9 10  1  0  0  0
 10 23  1  0  0  0
 23 24  1  0  0  0
 24 25  1  0  0  0
 25 26  2  0  0  0
 25 27  1  0  0  0
 27 28  1  0  0  0
 27 32  1  0  0  0
 28 29  1  0  0  0
 29 30  1  0  0  0
 30 31  1  0  0  0
 31 32  1  0  0  0
M  END
> <minimizedAffinity>
-8.50101

$$$$
