CHEMBL425587


 29 33  0  0  0  0  0  0  0  0999 V2000
  -26.1074   -1.6682  -12.6140 C   0  0  0  0  0  0  0  0  0  0  0  0
  -27.2977   -2.0273  -13.2747 C   0  0  0  0  0  0  0  0  0  0  0  0
  -27.4167   -1.8868  -14.6560 C   0  0  0  0  0  0  0  0  0  0  0  0
  -26.3615   -1.3585  -15.3890 C   0  0  0  0  0  0  0  0  0  0  0  0
  -25.1756   -1.0001  -14.7465 C   0  0  0  0  0  0  0  0  0  0  0  0
  -25.0147   -1.1607  -13.3533 C   0  0  0  0  0  0  0  0  0  0  0  0
  -25.0397   -1.5331  -10.5462 O   0  0  0  0  0  0  0  0  0  0  0  0
  -26.1024   -1.7236  -11.1232 C   0  0  0  0  0  0  0  0  0  0  0  0
  -27.3336   -1.9529  -10.5287 N   0  0  0  0  0  0  0  0  0  0  0  0
  -28.1270   -2.0923  -11.1422 H   0  0  0  0  0  0  0  0  0  0  0  0
  -27.6134   -2.0235   -9.1431 C   0  0  0  0  0  0  0  0  0  0  0  0
  -27.9495   -3.2192   -8.4794 C   0  0  0  0  0  0  0  0  0  0  0  0
  -28.2330   -3.2343   -7.1071 C   0  0  0  0  0  0  0  0  0  0  0  0
  -28.1745   -2.0409   -6.4268 C   0  0  0  0  0  0  0  0  0  0  0  0
  -27.8402   -0.8680   -7.0620 C   0  0  0  0  0  0  0  0  0  0  0  0
  -27.5551   -0.8271   -8.4129 C   0  0  0  0  0  0  0  0  0  0  0  0
  -27.8421    0.1946   -6.2116 O   0  0  0  0  0  0  0  0  0  0  0  0
  -28.3173   -0.4307   -4.9996 C   0  0  0  0  0  0  0  0  0  0  0  0
  -28.4299   -1.8641   -5.1053 O   0  0  0  0  0  0  0  0  0  0  0  0
  -23.6723   -0.7951  -12.7540 C   0  0  0  0  0  0  0  0  0  0  0  0
  -23.1931    0.5137  -13.2060 N   0  0  0  0  0  0  0  0  0  0  0  0
  -23.7486    1.7136  -12.8203 C   0  0  0  0  0  0  0  0  0  0  0  0
  -22.9692    2.7307  -13.3228 C   0  0  0  0  0  0  0  0  0  0  0  0
  -21.8911    2.1390  -14.0337 C   0  0  0  0  0  0  0  0  0  0  0  0
  -20.7849    2.6530  -14.7241 C   0  0  0  0  0  0  0  0  0  0  0  0
  -19.8921    1.8261  -15.3196 N   0  0  0  0  0  0  0  0  0  0  0  0
  -20.0805    0.4941  -15.2203 C   0  0  0  0  0  0  0  0  0  0  0  0
  -21.1285   -0.1109  -14.5452 C   0  0  0  0  0  0  0  0  0  0  0  0
  -22.0527    0.7514  -13.9509 C   0  0  0  0  0  0  0  0  0  0  0  0
  7  8  2  0  0  0
  8  9  1  0  0  0
  8  1  1  0  0  0
  9 11  1  0  0  0
  9 10  1  0  0  0
 11 12  1  0  0  0
 11 16  2  0  0  0
 12 13  2  0  0  0
 13 14  1  0  0  0
 14 15  2  0  0  0
 14 19  1  0  0  0
 15 16  1  0  0  0
 15 17  1  0  0  0
 17 18  1  0  0  0
 18 19  1  0  0  0
  1  2  1  0  0  0
  1  6  2  0  0  0
  2  3  2  0  0  0
  3  4  1  0  0  0
  4  5  2  0  0  0
  5  6  1  0  0  0
  6 20  1  0  0  0
 20 21  1  0  0  0
 21 22  1  0  0  0
 21 29  1  0  0  0
 22 23  2  0  0  0
 23 24  1  0  0  0
 24 25  1  0  0  0
 24 29  2  0  0  0
 25 26  2  0  0  0
 26 27  1  0  0  0
 27 28  2  0  0  0
 28 29  1  0  0  0
M  END
> <minimizedAffinity>
-8.46684

$$$$
