CHEMBL3690400


 41 45  0  0  0  0  0  0  0  0999 V2000
  -27.6198   -1.8828   -8.6494 C   0  0  0  0  0  0  0  0  0  0  0  0
  -28.2457   -3.2120   -8.6148 C   0  0  0  0  0  0  0  0  0  0  0  0
  -29.0153   -3.5734   -7.5730 C   0  0  0  0  0  0  0  0  0  0  0  0
  -29.1919   -2.6974   -6.4967 N   0  0  0  0  0  0  0  0  0  0  0  0
  -29.8642   -2.8376   -5.2797 C   0  0  0  0  0  0  0  0  0  0  0  0
  -29.7255   -1.5932   -4.6814 C   0  0  0  0  0  0  0  0  0  0  0  0
  -28.9732   -0.7340   -5.4317 N   0  0  0  0  0  0  0  0  0  0  0  0
  -28.6431   -1.4179   -6.5019 C   0  0  0  0  0  0  0  0  0  0  0  0
  -27.8491   -1.0329   -7.6192 C   0  0  0  0  0  0  0  0  0  0  0  0
  -25.1596   -0.5492  -11.8905 C   0  0  0  0  0  0  0  0  0  0  0  0
  -26.3644   -1.1789  -12.1655 C   0  0  0  0  0  0  0  0  0  0  0  0
  -27.2061   -1.6010  -11.1319 C   0  0  0  0  0  0  0  0  0  0  0  0
  -26.8282   -1.4092   -9.8139 C   0  0  0  0  0  0  0  0  0  0  0  0
  -25.6793   -0.7645   -9.5499 N   0  0  0  0  0  0  0  0  0  0  0  0
  -24.8568   -0.3383  -10.5900 N   0  0  0  0  0  0  0  0  0  0  0  0
  -21.6441    0.1693  -14.0909 C   0  0  0  0  0  0  0  0  0  0  0  0
  -22.5322   -1.0757  -14.3408 C   0  0  0  0  0  0  0  0  0  0  0  0
  -24.0352   -0.8455  -14.1309 C   0  0  0  0  0  0  0  0  0  0  0  0
  -24.2880   -0.1388  -12.8770 N   0  0  0  0  0  0  0  0  0  0  0  0
  -23.5063    1.0774  -12.6615 C   0  0  0  0  0  0  0  0  0  0  0  0
  -22.0275    0.7072  -12.6948 C   0  0  0  0  0  0  0  0  0  0  0  0
  -22.0316    2.5425  -14.5444 C   0  0  0  0  0  0  0  0  0  0  0  0
  -21.7248    1.2290  -15.1370 N   0  0  0  0  0  0  0  0  0  0  0  0
  -20.4914    1.3597  -15.9183 C   0  0  0  0  0  0  0  0  0  0  0  0
  -30.4969   -4.0528   -4.7400 C   0  0  0  0  0  0  0  0  0  0  0  0
  -31.4828   -3.9565   -3.7518 C   0  0  0  0  0  0  0  0  0  0  0  0
  -32.1021   -5.0918   -3.2408 C   0  0  0  0  0  0  0  0  0  0  0  0
  -31.7997   -6.3377   -3.7670 C   0  0  0  0  0  0  0  0  0  0  0  0
  -30.8847   -6.4789   -4.8106 C   0  0  0  0  0  0  0  0  0  0  0  0
  -30.2077   -5.3295   -5.2678 C   0  0  0  0  0  0  0  0  0  0  0  0
  -30.6363   -7.7277   -5.4381 N   0  0  0  0  0  0  0  0  0  0  0  0
  -30.8081   -8.0069   -6.7795 C   0  0  0  0  0  0  0  0  0  0  0  0
  -31.2236   -7.2529   -7.6465 O   0  0  0  0  0  0  0  0  0  0  0  0
  -30.4994   -9.3123   -7.0959 N   0  0  0  0  0  0  0  0  0  0  0  0
  -30.2718   -8.4675   -4.8572 H   0  0  0  0  0  0  0  0  0  0  0  0
  -29.7497   -9.7391   -6.5710 H   0  0  0  0  0  0  0  0  0  0  0  0
  -30.6520   -9.7316   -8.4993 C   0  0  0  0  0  0  0  0  0  0  0  0
  -29.3744   -9.7114   -9.3505 C   0  0  0  0  0  0  0  0  0  0  0  0
  -28.6571   -8.5796   -9.1610 F   0  0  0  0  0  0  0  0  0  0  0  0
  -28.5709  -10.7455   -8.9943 F   0  0  0  0  0  0  0  0  0  0  0  0
  -29.6261   -9.8372  -10.6691 F   0  0  0  0  0  0  0  0  0  0  0  0
 22 23  1  0  0  0
 23 24  1  0  0  0
 23 16  1  0  0  0
 16 17  1  0  0  0
 16 21  1  0  0  0
 17 18  1  0  0  0
 18 19  1  0  0  0
 19 10  1  0  0  0
 19 20  1  0  0  0
 10 11  1  0  0  0
 10 15  2  0  0  0
 11 12  2  0  0  0
 12 13  1  0  0  0
 13  1  1  0  0  0
 13 14  2  0  0  0
  1  2  1  0  0  0
  1  9  2  0  0  0
  2  3  2  0  0  0
  3  4  1  0  0  0
  4  5  1  0  0  0
  4  8  1  0  0  0
  5 25  1  0  0  0
  5  6  2  0  0  0
 25 26  1  0  0  0
 25 30  2  0  0  0
 26 27  2  0  0  0
 27 28  1  0  0  0
 28 29  2  0  0  0
 29 31  1  0  0  0
 29 30  1  0  0  0
 31 32  1  0  0  0
 31 35  1  0  0  0
 32 33  2  0  0  0
 32 34  1  0  0  0
 34 37  1  0  0  0
 34 36  1  0  0  0
 37 38  1  0  0  0
 38 39  1  0  0  0
 38 40  1  0  0  0
 38 41  1  0  0  0
  6  7  1  0  0  0
  7  8  2  0  0  0
  8  9  1  0  0  0
 14 15  1  0  0  0
 20 21  1  0  0  0
M  END
> <minimizedAffinity>
-7.30789

$$$$
