CHEMBL2403377


 27 30  0  0  0  0  0  0  0  0999 V2000
  -26.0604   -1.4676  -10.6132 C   0  0  0  0  0  0  0  0  0  0  0  0
  -26.2801   -1.5399  -11.9340 C   0  0  0  0  0  0  0  0  0  0  0  0
  -27.4432   -2.0725  -12.7340 C   0  0  0  0  0  0  0  0  0  0  0  0
  -28.4627   -2.5940  -12.3249 O   0  0  0  0  0  0  0  0  0  0  0  0
  -27.1065   -1.8461  -14.0618 N   0  0  0  0  0  0  0  0  0  0  0  0
  -25.8607   -1.2388  -14.1739 C   0  0  0  0  0  0  0  0  0  0  0  0
  -25.2105   -0.8737  -15.3347 C   0  0  0  0  0  0  0  0  0  0  0  0
  -23.9471   -0.2830  -15.2073 C   0  0  0  0  0  0  0  0  0  0  0  0
  -23.3670   -0.0787  -13.9370 C   0  0  0  0  0  0  0  0  0  0  0  0
  -24.0506   -0.4580  -12.7754 C   0  0  0  0  0  0  0  0  0  0  0  0
  -25.3031   -1.0349  -12.9103 C   0  0  0  0  0  0  0  0  0  0  0  0
  -27.7107   -2.1057  -14.8268 H   0  0  0  0  0  0  0  0  0  0  0  0
  -30.5599   -3.9074   -3.7883 C   0  0  0  0  0  0  0  0  0  0  0  0
  -29.9354   -2.7217   -4.4781 C   0  0  0  0  0  0  0  0  0  0  0  0
  -29.9245   -1.6200   -3.9271 O   0  0  0  0  0  0  0  0  0  0  0  0
  -29.3665   -2.9419   -5.7294 N   0  0  0  0  0  0  0  0  0  0  0  0
  -29.4747   -4.2431   -6.4270 C   0  0  0  0  0  0  0  0  0  0  0  0
  -28.8391   -4.4497   -7.8166 C   0  0  0  0  0  0  0  0  0  0  0  0
  -28.1273   -3.2494   -8.2785 C   0  0  0  0  0  0  0  0  0  0  0  0
  -27.4105   -3.1562   -9.4394 N   0  0  0  0  0  0  0  0  0  0  0  0
  -26.8757   -1.8935   -9.5381 C   0  0  0  0  0  0  0  0  0  0  0  0
  -27.2841   -1.1906   -8.4170 C   0  0  0  0  0  0  0  0  0  0  0  0
  -28.0743   -2.0492   -7.6203 C   0  0  0  0  0  0  0  0  0  0  0  0
  -28.7335   -1.7632   -6.3304 C   0  0  0  0  0  0  0  0  0  0  0  0
  -27.2924   -3.9042  -10.1176 H   0  0  0  0  0  0  0  0  0  0  0  0
  -22.0680    0.5171  -13.8228 C   0  0  0  0  0  0  0  0  0  0  0  0
  -21.0211    1.0110  -13.7423 N   0  0  0  0  0  0  0  0  0  0  0  0
 13 14  1  0  0  0
 14 15  2  0  0  0
 14 16  1  0  0  0
 16 17  1  0  0  0
 16 24  1  0  0  0
 17 18  1  0  0  0
 18 19  1  0  0  0
 19 20  1  0  0  0
 19 23  2  0  0  0
 20 21  1  0  0  0
 20 25  1  0  0  0
 21  1  1  0  0  0
 21 22  2  0  0  0
  1  2  2  0  0  0
  2  3  1  0  0  0
  2 11  1  0  0  0
  3  4  2  0  0  0
  3  5  1  0  0  0
  5  6  1  0  0  0
  5 12  1  0  0  0
  6  7  1  0  0  0
  6 11  2  0  0  0
  7  8  2  0  0  0
  8  9  1  0  0  0
  9 26  1  0  0  0
  9 10  2  0  0  0
 26 27  3  0  0  0
 10 11  1  0  0  0
 22 23  1  0  0  0
 23 24  1  0  0  0
M  END
> <minimizedAffinity>
-8.79614

$$$$
