CHEMBL3894418


 41 45  0  0  0  0  0  0  0  0999 V2000
  -28.4470   -9.0125   -4.3842 C   0  0  0  0  0  0  0  0  0  0  0  0
  -27.0733   -8.9014   -4.1245 C   0  0  0  0  0  0  0  0  0  0  0  0
  -26.1163   -9.6422   -4.8037 C   0  0  0  0  0  0  0  0  0  0  0  0
  -24.8358   -9.4984   -4.4520 N   0  0  0  0  0  0  0  0  0  0  0  0
  -23.9430  -10.2289   -5.1248 C   0  0  0  0  0  0  0  0  0  0  0  0
  -24.2068  -11.0592   -6.1332 N   0  0  0  0  0  0  0  0  0  0  0  0
  -25.4966  -11.1924   -6.4894 C   0  0  0  0  0  0  0  0  0  0  0  0
  -26.5314  -10.5110   -5.8179 C   0  0  0  0  0  0  0  0  0  0  0  0
  -27.9212  -10.6357   -6.0899 C   0  0  0  0  0  0  0  0  0  0  0  0
  -28.8698   -9.8763   -5.3987 C   0  0  0  0  0  0  0  0  0  0  0  0
  -25.8456  -12.0435   -7.5785 N   0  0  0  0  0  0  0  0  0  0  0  0
  -26.1140  -12.9474   -7.1987 H   0  0  0  0  0  0  0  0  0  0  0  0
  -26.6193  -11.7305   -8.7183 C   0  0  0  0  0  0  0  0  0  0  0  0
  -27.7484  -12.4658   -9.0923 C   0  0  0  0  0  0  0  0  0  0  0  0
  -28.4830  -12.1284  -10.2312 C   0  0  0  0  0  0  0  0  0  0  0  0
  -28.1225  -11.0201  -10.9949 C   0  0  0  0  0  0  0  0  0  0  0  0
  -29.0493  -10.6812  -12.4105 Cl  0  0  0  0  0  0  0  0  0  0  0  0
  -27.0444  -10.2277  -10.5924 C   0  0  0  0  0  0  0  0  0  0  0  0
  -26.5612   -8.8117  -11.4563 Cl  0  0  0  0  0  0  0  0  0  0  0  0
  -26.3087  -10.5767   -9.4562 C   0  0  0  0  0  0  0  0  0  0  0  0
  -30.1759  -10.1570   -5.6928 O   0  0  0  0  0  0  0  0  0  0  0  0
  -30.3804  -10.6144   -7.0292 C   0  0  0  0  0  0  0  0  0  0  0  0
  -29.2007   -8.2383   -3.5400 O   0  0  0  0  0  0  0  0  0  0  0  0
  -29.6661   -6.9999   -4.0622 C   0  0  0  0  0  0  0  0  0  0  0  0
  -28.1346   -3.9176   -4.4344 C   0  0  0  0  0  0  0  0  0  0  0  0
  -27.1566   -4.4903   -3.9232 O   0  0  0  0  0  0  0  0  0  0  0  0
  -28.7500   -4.5303   -5.5169 N   0  0  0  0  0  0  0  0  0  0  0  0
  -29.9396   -4.1695   -6.2956 C   0  0  0  0  0  0  0  0  0  0  0  0
  -31.0735   -5.1810   -6.0583 C   0  0  0  0  0  0  0  0  0  0  0  0
  -30.6463   -6.5316   -6.2976 O   0  0  0  0  0  0  0  0  0  0  0  0
  -29.4459   -6.9045   -5.5777 C   0  0  0  0  0  0  0  0  0  0  0  0
  -28.3130   -5.8977   -5.8713 C   0  0  0  0  0  0  0  0  0  0  0  0
  -28.6143   -2.6116   -3.7258 C   0  0  0  0  0  0  0  0  0  0  0  0
  -28.6460   -1.4367   -4.7087 C   0  0  0  0  0  0  0  0  0  0  0  0
  -29.7777   -0.6016   -4.7643 C   0  0  0  0  0  0  0  0  0  0  0  0
  -29.8338    0.4658   -5.6549 C   0  0  0  0  0  0  0  0  0  0  0  0
  -28.7559    0.7245   -6.5005 C   0  0  0  0  0  0  0  0  0  0  0  0
  -27.6237   -0.0884   -6.4496 C   0  0  0  0  0  0  0  0  0  0  0  0
  -27.5652   -1.1627   -5.5582 C   0  0  0  0  0  0  0  0  0  0  0  0
  -30.9179   -3.6278   -3.1685 C   0  0  0  0  0  0  0  0  0  0  0  0
  -29.8324   -2.6192   -2.7996 C   0  0  0  0  0  0  0  0  0  0  0  0
 40 41  1  0  0  0
 41 33  1  0  0  0
 33 25  1  0  0  0
 33 34  1  0  0  0
 25 26  2  0  0  0
 25 27  1  0  0  0
 27 28  1  0  0  0
 27 32  1  0  0  0
 28 29  1  0  0  0
 29 30  1  0  0  0
 30 31  1  0  0  0
 31 24  1  0  0  0
 31 32  1  0  0  0
 24 23  1  0  0  0
 23  1  1  0  0  0
  1  2  1  0  0  0
  1 10  2  0  0  0
  2  3  2  0  0  0
  3  4  1  0  0  0
  3  8  1  0  0  0
  4  5  2  0  0  0
  5  6  1  0  0  0
  6  7  2  0  0  0
  7 11  1  0  0  0
  7  8  1  0  0  0
 11 13  1  0  0  0
 11 12  1  0  0  0
 13 14  1  0  0  0
 13 20  2  0  0  0
 14 15  2  0  0  0
 15 16  1  0  0  0
 16 17  1  0  0  0
 16 18  2  0  0  0
 18 19  1  0  0  0
 18 20  1  0  0  0
  8  9  2  0  0  0
  9 10  1  0  0  0
 10 21  1  0  0  0
 21 22  1  0  0  0
 34 35  1  0  0  0
 34 39  2  0  0  0
 35 36  2  0  0  0
 36 37  1  0  0  0
 37 38  2  0  0  0
 38 39  1  0  0  0
M  END
> <minimizedAffinity>
-8.72996

$$$$
