CHEMBL2016924


 32 36  0  0  0  0  0  0  0  0999 V2000
  -25.6794  -12.3380   -3.3021 O   0  0  0  0  0  0  0  0  0  0  0  0
  -25.4727  -11.1239   -3.3715 C   0  0  0  0  0  0  0  0  0  0  0  0
  -26.5134  -10.2097   -3.6081 N   0  0  0  0  0  0  0  0  0  0  0  0
  -27.8419  -10.8237   -3.8311 C   0  0  0  0  0  0  0  0  0  0  0  0
  -29.0734   -9.8973   -3.8224 C   0  0  0  0  0  0  0  0  0  0  0  0
  -28.7141   -8.5309   -4.2317 C   0  0  0  0  0  0  0  0  0  0  0  0
  -29.5980   -7.5163   -4.4612 N   0  0  0  0  0  0  0  0  0  0  0  0
  -28.8673   -6.4771   -4.8429 C   0  0  0  0  0  0  0  0  0  0  0  0
  -27.5226   -6.8127   -4.8244 N   0  0  0  0  0  0  0  0  0  0  0  0
  -27.4262   -8.1129   -4.4070 C   0  0  0  0  0  0  0  0  0  0  0  0
  -26.1876   -8.9053   -4.2365 C   0  0  0  0  0  0  0  0  0  0  0  0
  -26.7740   -6.1966   -5.1174 H   0  0  0  0  0  0  0  0  0  0  0  0
  -29.2853   -5.2106   -5.3337 C   0  0  0  0  0  0  0  0  0  0  0  0
  -28.9369   -4.8761   -6.5849 C   0  0  0  0  0  0  0  0  0  0  0  0
  -28.9006   -3.4699   -6.9945 C   0  0  0  0  0  0  0  0  0  0  0  0
  -28.3567   -3.1180   -8.2267 C   0  0  0  0  0  0  0  0  0  0  0  0
  -27.7345   -1.8850   -8.3263 C   0  0  0  0  0  0  0  0  0  0  0  0
  -26.8912   -1.6644   -9.3420 F   0  0  0  0  0  0  0  0  0  0  0  0
  -27.8931   -0.9194   -7.3353 C   0  0  0  0  0  0  0  0  0  0  0  0
  -28.7106   -1.1832   -6.2329 C   0  0  0  0  0  0  0  0  0  0  0  0
  -29.1482   -2.4880   -6.0278 C   0  0  0  0  0  0  0  0  0  0  0  0
  -29.7603   -2.8585   -4.8272 N   0  0  0  0  0  0  0  0  0  0  0  0
  -29.8981   -4.1711   -4.4383 C   0  0  0  0  0  0  0  0  0  0  0  0
  -30.4458   -4.4667   -3.3853 O   0  0  0  0  0  0  0  0  0  0  0  0
  -30.0552   -2.1551   -4.1612 H   0  0  0  0  0  0  0  0  0  0  0  0
  -24.0673  -10.5919   -3.1662 C   0  0  0  0  0  0  0  0  0  0  0  0
  -23.0858  -11.0712   -4.2037 C   0  0  0  0  0  0  0  0  0  0  0  0
  -22.1467  -12.0585   -3.9010 C   0  0  0  0  0  0  0  0  0  0  0  0
  -21.2241  -12.4392   -4.8704 C   0  0  0  0  0  0  0  0  0  0  0  0
  -21.2658  -11.8262   -6.1219 C   0  0  0  0  0  0  0  0  0  0  0  0
  -22.2357  -10.8673   -6.3510 C   0  0  0  0  0  0  0  0  0  0  0  0
  -23.1431  -10.4779   -5.4264 N   0  0  0  0  0  0  0  0  0  0  0  0
  1  2  2  0  0  0
  2 26  1  0  0  0
  2  3  1  0  0  0
 26 27  1  0  0  0
 27 28  1  0  0  0
 27 32  2  0  0  0
 28 29  2  0  0  0
 29 30  1  0  0  0
 30 31  2  0  0  0
 31 32  1  0  0  0
  3  4  1  0  0  0
  3 11  1  0  0  0
  4  5  1  0  0  0
  5  6  1  0  0  0
  6  7  1  0  0  0
  6 10  2  0  0  0
  7  8  2  0  0  0
  8 13  1  0  0  0
  8  9  1  0  0  0
 13 14  2  0  0  0
 13 23  1  0  0  0
 14 15  1  0  0  0
 15 16  1  0  0  0
 15 21  2  0  0  0
 16 17  2  0  0  0
 17 18  1  0  0  0
 17 19  1  0  0  0
 19 20  2  0  0  0
 20 21  1  0  0  0
 21 22  1  0  0  0
 22 23  1  0  0  0
 22 25  1  0  0  0
 23 24  2  0  0  0
  9 10  1  0  0  0
  9 12  1  0  0  0
 10 11  1  0  0  0
M  END
> <minimizedAffinity>
-9.70161

$$$$
