CHEMBL1994321


 40 43  0  0  0  0  0  0  0  0999 V2000
  -21.7758    0.0148  -14.3309 C   0  0  0  0  0  0  0  0  0  0  0  0
  -20.7573   -0.7757  -14.8316 C   0  0  0  0  0  0  0  0  0  0  0  0
  -19.4225    0.1000  -15.3938 S   0  0  0  0  0  0  0  0  0  0  0  0
  -20.1480    1.6155  -15.0074 C   0  0  0  0  0  0  0  0  0  0  0  0
  -19.5898    2.8925  -15.2091 C   0  0  0  0  0  0  0  0  0  0  0  0
  -20.3621    3.9648  -14.8255 C   0  0  0  0  0  0  0  0  0  0  0  0
  -21.5773    3.8543  -14.2646 N   0  0  0  0  0  0  0  0  0  0  0  0
  -22.1173    2.6353  -14.0434 C   0  0  0  0  0  0  0  0  0  0  0  0
  -23.3504    2.6833  -13.4061 N   0  0  0  0  0  0  0  0  0  0  0  0
  -21.4266    1.4466  -14.4282 C   0  0  0  0  0  0  0  0  0  0  0  0
  -23.5111    3.6276  -13.0712 H   0  0  0  0  0  0  0  0  0  0  0  0
  -23.4700    1.9597  -12.7081 H   0  0  0  0  0  0  0  0  0  0  0  0
  -25.3179   -1.7188  -12.5786 C   0  0  0  0  0  0  0  0  0  0  0  0
  -24.0881   -1.7890  -11.9221 C   0  0  0  0  0  0  0  0  0  0  0  0
  -22.9368   -1.2448  -12.5044 C   0  0  0  0  0  0  0  0  0  0  0  0
  -22.9776   -0.6456  -13.7741 C   0  0  0  0  0  0  0  0  0  0  0  0
  -24.1940   -0.6949  -14.4686 C   0  0  0  0  0  0  0  0  0  0  0  0
  -25.3616   -1.2042  -13.8721 C   0  0  0  0  0  0  0  0  0  0  0  0
  -27.8355   -2.4329  -10.0506 N   0  0  0  0  0  0  0  0  0  0  0  0
  -26.6067   -2.0172  -10.5433 C   0  0  0  0  0  0  0  0  0  0  0  0
  -25.6831   -1.5762   -9.8614 O   0  0  0  0  0  0  0  0  0  0  0  0
  -26.5212   -2.1085  -11.9293 N   0  0  0  0  0  0  0  0  0  0  0  0
  -28.4443   -2.9245  -10.6865 H   0  0  0  0  0  0  0  0  0  0  0  0
  -27.3802   -1.8958  -12.4153 H   0  0  0  0  0  0  0  0  0  0  0  0
  -27.9939    0.1209   -5.7826 C   0  0  0  0  0  0  0  0  0  0  0  0
  -28.3212   -1.1012   -6.5914 C   0  0  0  0  0  0  0  0  0  0  0  0
  -29.0346   -2.1501   -5.9919 C   0  0  0  0  0  0  0  0  0  0  0  0
  -29.3418   -3.2851   -6.7204 C   0  0  0  0  0  0  0  0  0  0  0  0
  -28.9435   -3.3915   -8.0502 C   0  0  0  0  0  0  0  0  0  0  0  0
  -28.2471   -2.3593   -8.6918 C   0  0  0  0  0  0  0  0  0  0  0  0
  -27.9307   -1.2116   -7.9422 C   0  0  0  0  0  0  0  0  0  0  0  0
  -18.2915    3.0696  -15.7876 C   0  0  0  0  0  0  0  0  0  0  0  0
  -17.1003    3.2278  -16.2935 C   0  0  0  0  0  0  0  0  0  0  0  0
  -15.7116    3.4122  -16.8833 C   0  0  0  0  0  0  0  0  0  0  0  0
  -15.4269    4.8112  -17.1814 N   0  0  0  0  0  0  0  0  0  0  0  0
  -14.9504    5.3137  -16.4322 H   0  0  0  0  0  0  0  0  0  0  0  0
  -14.6432    5.0733  -18.6479 S   0  0  0  0  0  0  0  0  0  0  0  0
  -13.4528    3.7405  -18.6773 C   0  0  0  0  0  0  0  0  0  0  0  0
  -15.6223    4.8322  -19.6833 O   0  0  0  0  0  0  0  0  0  0  0  0
  -13.9329    6.3257  -18.5498 O   0  0  0  0  0  0  0  0  0  0  0  0
 25 26  1  0  0  0
 26 27  1  0  0  0
 26 31  2  0  0  0
 27 28  2  0  0  0
 28 29  1  0  0  0
 29 30  2  0  0  0
 30 19  1  0  0  0
 30 31  1  0  0  0
 19 20  1  0  0  0
 19 23  1  0  0  0
 20 21  2  0  0  0
 20 22  1  0  0  0
 22 13  1  0  0  0
 22 24  1  0  0  0
 13 14  1  0  0  0
 13 18  2  0  0  0
 14 15  2  0  0  0
 15 16  1  0  0  0
 16  1  1  0  0  0
 16 17  2  0  0  0
  1  2  2  0  0  0
  1 10  1  0  0  0
  2  3  1  0  0  0
  3  4  1  0  0  0
  4  5  1  0  0  0
  4 10  2  0  0  0
  5 32  1  0  0  0
  5  6  2  0  0  0
 32 33  3  0  0  0
 33 34  1  0  0  0
 34 35  1  0  0  0
 35 37  1  0  0  0
 35 36  1  0  0  0
 37 38  1  0  0  0
 37 39  2  0  0  0
 37 40  2  0  0  0
  6  7  1  0  0  0
  7  8  2  0  0  0
  8  9  1  0  0  0
  8 10  1  0  0  0
  9 11  1  0  0  0
  9 12  1  0  0  0
 17 18  1  0  0  0
M  END
> <minimizedAffinity>
-9.93057

$$$$
