CHEMBL492399


 21 23  0  0  0  0  0  0  0  0999 V2000
  -29.6462   -7.5201   -7.2773 C   0  0  0  0  0  0  0  0  0  0  0  0
  -30.9428   -7.7629   -6.9290 N   0  0  0  0  0  0  0  0  0  0  0  0
  -31.6266   -8.7148   -7.5752 C   0  0  0  0  0  0  0  0  0  0  0  0
  -33.0634   -8.9555   -7.2302 C   0  0  0  0  0  0  0  0  0  0  0  0
  -31.1220   -9.4764   -8.5417 N   0  0  0  0  0  0  0  0  0  0  0  0
  -29.8619   -9.2685   -8.8891 C   0  0  0  0  0  0  0  0  0  0  0  0
  -29.3776  -10.1271   -9.8637 C   0  0  0  0  0  0  0  0  0  0  0  0
  -28.0779  -10.0347  -10.3428 C   0  0  0  0  0  0  0  0  0  0  0  0
  -27.2393   -9.0634   -9.8255 C   0  0  0  0  0  0  0  0  0  0  0  0
  -27.7005   -8.2188   -8.8101 C   0  0  0  0  0  0  0  0  0  0  0  0
  -29.0343   -8.2834   -8.3169 C   0  0  0  0  0  0  0  0  0  0  0  0
  -28.9462   -6.5443   -6.4987 N   0  0  0  0  0  0  0  0  0  0  0  0
  -28.4025   -7.1118   -5.2480 C   0  0  0  0  0  0  0  0  0  0  0  0
  -28.1918   -2.3709   -7.0659 C   0  0  0  0  0  0  0  0  0  0  0  0
  -28.3582   -2.8867   -5.7877 C   0  0  0  0  0  0  0  0  0  0  0  0
  -28.5921   -4.2618   -5.6083 C   0  0  0  0  0  0  0  0  0  0  0  0
  -28.6920   -5.1625   -6.6901 C   0  0  0  0  0  0  0  0  0  0  0  0
  -28.5466   -4.6095   -7.9696 C   0  0  0  0  0  0  0  0  0  0  0  0
  -28.2798   -3.2420   -8.1525 C   0  0  0  0  0  0  0  0  0  0  0  0
  -27.9604   -0.1169   -6.3230 C   0  0  0  0  0  0  0  0  0  0  0  0
  -27.9390   -1.0655   -7.3845 O   0  0  0  0  0  0  0  0  0  0  0  0
 20 21  1  0  0  0
 21 14  1  0  0  0
 14 15  1  0  0  0
 14 19  2  0  0  0
 15 16  2  0  0  0
 16 17  1  0  0  0
 17 12  1  0  0  0
 17 18  2  0  0  0
 12 13  1  0  0  0
 12  1  1  0  0  0
  1  2  1  0  0  0
  1 11  2  0  0  0
  2  3  2  0  0  0
  3  4  1  0  0  0
  3  5  1  0  0  0
  5  6  2  0  0  0
  6  7  1  0  0  0
  6 11  1  0  0  0
  7  8  2  0  0  0
  8  9  1  0  0  0
  9 10  2  0  0  0
 10 11  1  0  0  0
 18 19  1  0  0  0
M  END
> <minimizedAffinity>
-7.14937

$$$$
