CHEMBL3896485


 38 41  0  0  0  0  0  0  0  0999 V2000
  -27.9703   -2.1938  -13.6373 C   0  0  0  0  0  0  0  0  0  0  0  0
  -26.5162   -1.8324  -13.4674 C   0  0  0  0  0  0  0  0  0  0  0  0
  -25.8916   -1.2185  -14.5752 C   0  0  0  0  0  0  0  0  0  0  0  0
  -24.5667   -0.7997  -14.5175 C   0  0  0  0  0  0  0  0  0  0  0  0
  -23.8637   -0.9099  -13.3250 C   0  0  0  0  0  0  0  0  0  0  0  0
  -24.4545   -1.5641  -12.2360 C   0  0  0  0  0  0  0  0  0  0  0  0
  -25.7787   -2.0411  -12.2800 C   0  0  0  0  0  0  0  0  0  0  0  0
  -26.3608   -2.7457  -11.1792 N   0  0  0  0  0  0  0  0  0  0  0  0
  -27.1074   -2.1839  -10.1467 C   0  0  0  0  0  0  0  0  0  0  0  0
  -27.5123   -1.0272  -10.1127 O   0  0  0  0  0  0  0  0  0  0  0  0
  -27.3131   -3.0703   -9.0924 N   0  0  0  0  0  0  0  0  0  0  0  0
  -26.3069   -3.7515  -11.1982 H   0  0  0  0  0  0  0  0  0  0  0  0
  -26.5565   -3.7263   -8.9546 H   0  0  0  0  0  0  0  0  0  0  0  0
  -28.0022   -2.6592   -7.9186 C   0  0  0  0  0  0  0  0  0  0  0  0
  -28.7301   -3.6040   -7.2005 C   0  0  0  0  0  0  0  0  0  0  0  0
  -29.3426   -3.2477   -5.9950 C   0  0  0  0  0  0  0  0  0  0  0  0
  -29.2904   -1.9304   -5.5199 C   0  0  0  0  0  0  0  0  0  0  0  0
  -30.0732   -1.6304   -4.0112 Cl  0  0  0  0  0  0  0  0  0  0  0  0
  -28.6242   -0.9452   -6.2544 C   0  0  0  0  0  0  0  0  0  0  0  0
  -27.9661   -1.3355   -7.4490 C   0  0  0  0  0  0  0  0  0  0  0  0
  -28.5566    0.5091   -5.8611 C   0  0  0  0  0  0  0  0  0  0  0  0
  -28.2678    1.3922   -6.8547 F   0  0  0  0  0  0  0  0  0  0  0  0
  -29.7223    0.9528   -5.3110 F   0  0  0  0  0  0  0  0  0  0  0  0
  -27.6000    0.7278   -4.9104 F   0  0  0  0  0  0  0  0  0  0  0  0
  -22.5732   -0.4425  -13.1474 O   0  0  0  0  0  0  0  0  0  0  0  0
  -22.2451    0.8149  -13.6175 C   0  0  0  0  0  0  0  0  0  0  0  0
  -23.0062    1.9505  -13.3569 C   0  0  0  0  0  0  0  0  0  0  0  0
  -22.6296    3.1253  -13.9653 C   0  0  0  0  0  0  0  0  0  0  0  0
  -21.5327    3.2413  -14.7336 N   0  0  0  0  0  0  0  0  0  0  0  0
  -20.7439    2.1706  -14.9164 C   0  0  0  0  0  0  0  0  0  0  0  0
  -21.0689    0.9292  -14.3660 C   0  0  0  0  0  0  0  0  0  0  0  0
  -19.5750    2.2929  -15.6829 N   0  0  0  0  0  0  0  0  0  0  0  0
  -18.3813    2.7854  -15.1880 C   0  0  0  0  0  0  0  0  0  0  0  0
  -18.1653    3.2028  -14.0636 O   0  0  0  0  0  0  0  0  0  0  0  0
  -19.6178    2.0073  -16.6504 H   0  0  0  0  0  0  0  0  0  0  0  0
  -17.2325    2.8463  -16.1414 C   0  0  0  0  0  0  0  0  0  0  0  0
  -16.2029    1.7388  -16.1318 C   0  0  0  0  0  0  0  0  0  0  0  0
  -15.7929    3.1512  -15.8255 C   0  0  0  0  0  0  0  0  0  0  0  0
  1  2  1  0  0  0
  2  3  1  0  0  0
  2  7  2  0  0  0
  3  4  2  0  0  0
  4  5  1  0  0  0
  5 25  1  0  0  0
  5  6  2  0  0  0
 25 26  1  0  0  0
 26 27  1  0  0  0
 26 31  2  0  0  0
 27 28  2  0  0  0
 28 29  1  0  0  0
 29 30  2  0  0  0
 30 32  1  0  0  0
 30 31  1  0  0  0
 32 33  1  0  0  0
 32 35  1  0  0  0
 33 34  2  0  0  0
 33 36  1  0  0  0
 36 37  1  0  0  0
 36 38  1  0  0  0
 37 38  1  0  0  0
  6  7  1  0  0  0
  7  8  1  0  0  0
  8  9  1  0  0  0
  8 12  1  0  0  0
  9 10  2  0  0  0
  9 11  1  0  0  0
 11 14  1  0  0  0
 11 13  1  0  0  0
 14 15  1  0  0  0
 14 20  2  0  0  0
 15 16  2  0  0  0
 16 17  1  0  0  0
 17 18  1  0  0  0
 17 19  2  0  0  0
 19 21  1  0  0  0
 19 20  1  0  0  0
 21 22  1  0  0  0
 21 23  1  0  0  0
 21 24  1  0  0  0
M  END
> <minimizedAffinity>
-11.35461

$$$$
