CHEMBL3671501


 37 39  0  0  0  0  0  0  0  0999 V2000
  -13.8424   -3.5274  -12.7430 C   0  0  0  0  0  0  0  0  0  0  0  0
  -14.0328   -2.2970  -13.3751 C   0  0  0  0  0  0  0  0  0  0  0  0
  -13.6241   -2.1132  -14.7123 C   0  0  0  0  0  0  0  0  0  0  0  0
  -13.6296   -0.8818  -15.3858 C   0  0  0  0  0  0  0  0  0  0  0  0
  -13.2039   -0.7718  -16.6581 N   0  0  0  0  0  0  0  0  0  0  0  0
  -12.7529   -1.8777  -17.2494 C   0  0  0  0  0  0  0  0  0  0  0  0
  -12.6637   -3.0856  -16.6883 N   0  0  0  0  0  0  0  0  0  0  0  0
  -13.0868   -3.1941  -15.4277 C   0  0  0  0  0  0  0  0  0  0  0  0
  -12.9584   -4.4232  -14.7916 C   0  0  0  0  0  0  0  0  0  0  0  0
  -13.3472   -4.6194  -13.4641 C   0  0  0  0  0  0  0  0  0  0  0  0
  -15.1464   -4.0348  -10.7389 C   0  0  0  0  0  0  0  0  0  0  0  0
  -15.1266   -4.4074   -9.5716 O   0  0  0  0  0  0  0  0  0  0  0  0
  -13.9970   -3.5841  -11.3459 N   0  0  0  0  0  0  0  0  0  0  0  0
  -13.1970   -3.9197  -10.8184 H   0  0  0  0  0  0  0  0  0  0  0  0
  -16.9045   -5.2848  -11.8751 C   0  0  0  0  0  0  0  0  0  0  0  0
  -16.3793   -4.0925  -11.5680 C   0  0  0  0  0  0  0  0  0  0  0  0
  -14.0178    0.3024  -14.7025 N   0  0  0  0  0  0  0  0  0  0  0  0
  -13.7345    0.2663  -13.7264 H   0  0  0  0  0  0  0  0  0  0  0  0
  -15.2843    0.9165  -14.8591 C   0  0  0  0  0  0  0  0  0  0  0  0
  -16.3513    0.5975  -14.0063 C   0  0  0  0  0  0  0  0  0  0  0  0
  -17.5661    1.2794  -14.0926 C   0  0  0  0  0  0  0  0  0  0  0  0
  -17.7302    2.2733  -15.0546 C   0  0  0  0  0  0  0  0  0  0  0  0
  -19.3454    3.2524  -15.1136 Br  0  0  0  0  0  0  0  0  0  0  0  0
  -16.7090    2.5616  -15.9566 C   0  0  0  0  0  0  0  0  0  0  0  0
  -15.5016    1.8742  -15.8569 C   0  0  0  0  0  0  0  0  0  0  0  0
  -14.5113    2.1684  -16.7144 F   0  0  0  0  0  0  0  0  0  0  0  0
  -13.1335   -5.8885  -12.9849 O   0  0  0  0  0  0  0  0  0  0  0  0
  -14.1604   -6.8368  -13.2901 C   0  0  0  0  0  0  0  0  0  0  0  0
  -13.5471   -8.1478  -13.7897 C   0  0  0  0  0  0  0  0  0  0  0  0
  -13.6656   -8.2799  -15.2344 N   0  0  0  0  0  0  0  0  0  0  0  0
  -12.6059   -7.9579  -16.0822 C   0  0  0  0  0  0  0  0  0  0  0  0
  -11.4952   -7.6643  -15.6363 O   0  0  0  0  0  0  0  0  0  0  0  0
  -14.5869   -8.4102  -15.6449 H   0  0  0  0  0  0  0  0  0  0  0  0
  -12.9414   -7.9772  -17.5918 C   0  0  0  0  0  0  0  0  0  0  0  0
  -12.1791   -8.8888  -18.2659 F   0  0  0  0  0  0  0  0  0  0  0  0
  -14.2376   -8.3172  -17.8294 F   0  0  0  0  0  0  0  0  0  0  0  0
  -12.7287   -6.7775  -18.1947 F   0  0  0  0  0  0  0  0  0  0  0  0
 15 16  2  0  0  0
 16 11  1  0  0  0
 11 12  2  0  0  0
 11 13  1  0  0  0
 13  1  1  0  0  0
 13 14  1  0  0  0
  1  2  1  0  0  0
  1 10  2  0  0  0
  2  3  2  0  0  0
  3  4  1  0  0  0
  3  8  1  0  0  0
  4 17  1  0  0  0
  4  5  2  0  0  0
 17 19  1  0  0  0
 17 18  1  0  0  0
 19 20  1  0  0  0
 19 25  2  0  0  0
 20 21  2  0  0  0
 21 22  1  0  0  0
 22 23  1  0  0  0
 22 24  2  0  0  0
 24 25  1  0  0  0
 25 26  1  0  0  0
  5  6  1  0  0  0
  6  7  2  0  0  0
  7  8  1  0  0  0
  8  9  2  0  0  0
  9 10  1  0  0  0
 10 27  1  0  0  0
 27 28  1  0  0  0
 28 29  1  0  0  0
 29 30  1  0  0  0
 30 31  1  0  0  0
 30 33  1  0  0  0
 31 32  2  0  0  0
 31 34  1  0  0  0
 34 35  1  0  0  0
 34 36  1  0  0  0
 34 37  1  0  0  0
M  END
> <minimizedAffinity>
-7.13860

$$$$
