CHEMBL1241580


 25 28  0  0  0  0  0  0  0  0999 V2000
  -32.9141   -7.9520   -6.2983 N   0  0  0  0  0  0  0  0  0  0  0  0
  -32.1963   -8.8378   -7.0962 C   0  0  0  0  0  0  0  0  0  0  0  0
  -32.7910  -10.0211   -7.3271 N   0  0  0  0  0  0  0  0  0  0  0  0
  -32.1493  -10.9276   -8.0932 C   0  0  0  0  0  0  0  0  0  0  0  0
  -30.9546  -10.8044   -8.6873 N   0  0  0  0  0  0  0  0  0  0  0  0
  -30.3877   -9.6112   -8.4227 C   0  0  0  0  0  0  0  0  0  0  0  0
  -30.9226   -8.5960   -7.6437 C   0  0  0  0  0  0  0  0  0  0  0  0
  -29.9210   -7.5738   -7.6337 C   0  0  0  0  0  0  0  0  0  0  0  0
  -28.8688   -7.9201   -8.3938 N   0  0  0  0  0  0  0  0  0  0  0  0
  -29.1560   -9.1613   -8.8371 N   0  0  0  0  0  0  0  0  0  0  0  0
  -33.8630   -8.2714   -6.1530 H   0  0  0  0  0  0  0  0  0  0  0  0
  -32.8073   -6.9707   -6.5157 H   0  0  0  0  0  0  0  0  0  0  0  0
  -29.8962   -6.2950   -6.9173 C   0  0  0  0  0  0  0  0  0  0  0  0
  -30.0009   -5.0778   -7.6060 C   0  0  0  0  0  0  0  0  0  0  0  0
  -29.9397   -3.8574   -6.9313 C   0  0  0  0  0  0  0  0  0  0  0  0
  -29.8623   -3.8455   -5.5445 C   0  0  0  0  0  0  0  0  0  0  0  0
  -29.8561   -2.3370   -4.7120 Cl  0  0  0  0  0  0  0  0  0  0  0  0
  -29.8209   -5.0504   -4.8401 C   0  0  0  0  0  0  0  0  0  0  0  0
  -29.7940   -5.0833   -3.4729 O   0  0  0  0  0  0  0  0  0  0  0  0
  -29.8172   -6.2654   -5.5169 C   0  0  0  0  0  0  0  0  0  0  0  0
  -29.8816   -4.1634   -3.1609 H   0  0  0  0  0  0  0  0  0  0  0  0
  -28.2287   -9.9446   -9.6208 C   0  0  0  0  0  0  0  0  0  0  0  0
  -27.0363   -9.0789  -10.1418 C   0  0  0  0  0  0  0  0  0  0  0  0
  -27.1521   -9.8283  -11.4820 C   0  0  0  0  0  0  0  0  0  0  0  0
  -28.6278  -10.0841  -11.1235 C   0  0  0  0  0  0  0  0  0  0  0  0
  1  2  1  0  0  0
  1 11  1  0  0  0
  1 12  1  0  0  0
  2  3  1  0  0  0
  2  7  2  0  0  0
  3  4  2  0  0  0
  4  5  1  0  0  0
  5  6  2  0  0  0
  6  7  1  0  0  0
  6 10  1  0  0  0
  7  8  1  0  0  0
  8 13  1  0  0  0
  8  9  2  0  0  0
 13 14  1  0  0  0
 13 20  2  0  0  0
 14 15  2  0  0  0
 15 16  1  0  0  0
 16 17  1  0  0  0
 16 18  2  0  0  0
 18 19  1  0  0  0
 18 20  1  0  0  0
 19 21  1  0  0  0
  9 10  1  0  0  0
 10 22  1  0  0  0
 22 23  1  0  0  0
 22 25  1  0  0  0
 23 24  1  0  0  0
 24 25  1  0  0  0
M  END
> <minimizedAffinity>
-8.08571

$$$$
