CHEMBL4292983


 44 48  0  0  0  0  0  0  0  0999 V2000
  -29.3624   -7.2473   -4.8299 C   0  0  0  0  0  0  0  0  0  0  0  0
  -28.7649   -6.8266   -6.0195 C   0  0  0  0  0  0  0  0  0  0  0  0
  -28.6372   -5.4724   -6.2883 C   0  0  0  0  0  0  0  0  0  0  0  0
  -29.1758   -4.5261   -5.4175 C   0  0  0  0  0  0  0  0  0  0  0  0
  -29.7775   -4.9451   -4.2258 C   0  0  0  0  0  0  0  0  0  0  0  0
  -29.8832   -6.3074   -3.9474 C   0  0  0  0  0  0  0  0  0  0  0  0
  -30.5153   -6.6994   -2.8318 F   0  0  0  0  0  0  0  0  0  0  0  0
  -29.1571   -3.1565   -5.7193 N   0  0  0  0  0  0  0  0  0  0  0  0
  -28.0415   -2.3449   -5.6447 C   0  0  0  0  0  0  0  0  0  0  0  0
  -26.9029   -2.6591   -5.3270 O   0  0  0  0  0  0  0  0  0  0  0  0
  -30.0045   -2.7499   -6.0976 H   0  0  0  0  0  0  0  0  0  0  0  0
  -28.2996   -0.9238   -6.0113 C   0  0  0  0  0  0  0  0  0  0  0  0
  -27.8034    0.1910   -5.0880 C   0  0  0  0  0  0  0  0  0  0  0  0
  -29.2613   -0.1480   -5.1210 C   0  0  0  0  0  0  0  0  0  0  0  0
  -28.1615   -0.6845   -7.4711 C   0  0  0  0  0  0  0  0  0  0  0  0
  -28.3711    0.4582   -7.8738 O   0  0  0  0  0  0  0  0  0  0  0  0
  -27.7670   -1.7497   -8.2509 N   0  0  0  0  0  0  0  0  0  0  0  0
  -27.9671   -2.6896   -7.9273 H   0  0  0  0  0  0  0  0  0  0  0  0
  -27.3242   -1.5652   -9.5757 C   0  0  0  0  0  0  0  0  0  0  0  0
  -28.2455   -1.5047  -10.6325 C   0  0  0  0  0  0  0  0  0  0  0  0
  -27.8073   -1.4535  -11.9530 C   0  0  0  0  0  0  0  0  0  0  0  0
  -26.4427   -1.4640  -12.2123 C   0  0  0  0  0  0  0  0  0  0  0  0
  -26.0157   -1.4915  -13.4799 F   0  0  0  0  0  0  0  0  0  0  0  0
  -25.5187   -1.4544  -11.1719 C   0  0  0  0  0  0  0  0  0  0  0  0
  -25.9586   -1.4711   -9.8432 C   0  0  0  0  0  0  0  0  0  0  0  0
  -29.4966   -8.6123   -4.5356 O   0  0  0  0  0  0  0  0  0  0  0  0
  -30.7449   -9.9190   -7.0056 C   0  0  0  0  0  0  0  0  0  0  0  0
  -29.3162  -10.3361   -6.9938 C   0  0  0  0  0  0  0  0  0  0  0  0
  -28.6089  -11.0909   -7.9827 C   0  0  0  0  0  0  0  0  0  0  0  0
  -27.3076  -11.2305   -7.5535 C   0  0  0  0  0  0  0  0  0  0  0  0
  -27.1904  -10.6338   -6.3398 N   0  0  0  0  0  0  0  0  0  0  0  0
  -26.0692  -10.5964   -5.6138 N   0  0  0  0  0  0  0  0  0  0  0  0
  -26.1862   -9.9651   -4.4856 C   0  0  0  0  0  0  0  0  0  0  0  0
  -27.3073   -9.3362   -4.0200 N   0  0  0  0  0  0  0  0  0  0  0  0
  -28.3555   -9.3506   -4.7780 C   0  0  0  0  0  0  0  0  0  0  0  0
  -28.3817  -10.0640   -5.9997 C   0  0  0  0  0  0  0  0  0  0  0  0
  -29.1157  -11.5866   -9.1436 O   0  0  0  0  0  0  0  0  0  0  0  0
  -28.1325  -11.6662  -10.1840 C   0  0  0  0  0  0  0  0  0  0  0  0
  -28.1676  -10.4703  -11.1303 C   0  0  0  0  0  0  0  0  0  0  0  0
  -29.4628   -9.8546  -11.0413 O   0  0  0  0  0  0  0  0  0  0  0  0
  -29.5088   -9.3742  -10.1948 H   0  0  0  0  0  0  0  0  0  0  0  0
  -27.0738   -9.4502  -10.7955 C   0  0  0  0  0  0  0  0  0  0  0  0
  -26.6107   -8.7848  -11.9700 O   0  0  0  0  0  0  0  0  0  0  0  0
  -26.5871   -9.4382  -12.6912 H   0  0  0  0  0  0  0  0  0  0  0  0
 27 28  1  0  0  0
 28 29  1  0  0  0
 28 36  2  0  0  0
 29 37  1  0  0  0
 29 30  2  0  0  0
 37 38  1  0  0  0
 38 39  1  0  0  0
 39 40  1  0  0  0
 39 42  1  0  0  0
 40 41  1  0  0  0
 42 43  1  0  0  0
 43 44  1  0  0  0
 30 31  1  0  0  0
 31 32  1  0  0  0
 31 36  1  0  0  0
 32 33  2  0  0  0
 33 34  1  0  0  0
 34 35  2  0  0  0
 35 26  1  0  0  0
 35 36  1  0  0  0
 26  1  1  0  0  0
  1  2  1  0  0  0
  1  6  2  0  0  0
  2  3  2  0  0  0
  3  4  1  0  0  0
  4  8  1  0  0  0
  4  5  2  0  0  0
  8  9  1  0  0  0
  8 11  1  0  0  0
  9 10  2  0  0  0
  9 12  1  0  0  0
 12 15  1  0  0  0
 12 13  1  0  0  0
 12 14  1  0  0  0
 15 16  2  0  0  0
 15 17  1  0  0  0
 17 19  1  0  0  0
 17 18  1  0  0  0
 19 20  1  0  0  0
 19 25  2  0  0  0
 20 21  2  0  0  0
 21 22  1  0  0  0
 22 23  1  0  0  0
 22 24  2  0  0  0
 24 25  1  0  0  0
 13 14  1  0  0  0
  5  6  1  0  0  0
  6  7  1  0  0  0
M  END
> <minimizedAffinity>
-8.84421

$$$$
