CHEMBL3913556


 37 40  0  0  0  0  0  0  0  0999 V2000
  -24.5921   11.5488  -16.7553 C   0  0  0  0  0  0  0  0  0  0  0  0
  -23.9846   10.3157  -17.0180 C   0  0  0  0  0  0  0  0  0  0  0  0
  -23.0017   10.1916  -17.9969 C   0  0  0  0  0  0  0  0  0  0  0  0
  -22.5829   11.2925  -18.7479 C   0  0  0  0  0  0  0  0  0  0  0  0
  -23.1635   12.5341  -18.4777 C   0  0  0  0  0  0  0  0  0  0  0  0
  -24.1640   12.6590  -17.4974 C   0  0  0  0  0  0  0  0  0  0  0  0
  -25.6998   11.7492  -14.3786 C   0  0  0  0  0  0  0  0  0  0  0  0
  -25.6798   11.6442  -15.7718 C   0  0  0  0  0  0  0  0  0  0  0  0
  -26.9940   11.6833  -16.1912 N   0  0  0  0  0  0  0  0  0  0  0  0
  -27.8553   11.8700  -15.1427 C   0  0  0  0  0  0  0  0  0  0  0  0
  -29.2509   11.9945  -15.1416 C   0  0  0  0  0  0  0  0  0  0  0  0
  -29.8844   12.1976  -13.9142 C   0  0  0  0  0  0  0  0  0  0  0  0
  -29.1498   12.2407  -12.7351 C   0  0  0  0  0  0  0  0  0  0  0  0
  -27.7588   12.0778  -12.7548 C   0  0  0  0  0  0  0  0  0  0  0  0
  -27.0826   11.9143  -13.9852 C   0  0  0  0  0  0  0  0  0  0  0  0
  -27.2847   11.6231  -17.1566 H   0  0  0  0  0  0  0  0  0  0  0  0
  -24.1666   10.4376  -13.0924 N   0  0  0  0  0  0  0  0  0  0  0  0
  -24.5232   11.6885  -13.5171 C   0  0  0  0  0  0  0  0  0  0  0  0
  -23.8718   12.6587  -13.1513 O   0  0  0  0  0  0  0  0  0  0  0  0
  -23.4062   10.3818  -12.4311 H   0  0  0  0  0  0  0  0  0  0  0  0
  -24.7870    9.6497  -13.1917 H   0  0  0  0  0  0  0  0  0  0  0  0
  -21.5871   11.2131  -19.7485 N   0  0  0  0  0  0  0  0  0  0  0  0
  -20.2226   11.1987  -19.5233 C   0  0  0  0  0  0  0  0  0  0  0  0
  -19.6843   11.1423  -18.4258 O   0  0  0  0  0  0  0  0  0  0  0  0
  -19.5029   11.3030  -20.7116 N   0  0  0  0  0  0  0  0  0  0  0  0
  -21.8958   11.0172  -20.6886 H   0  0  0  0  0  0  0  0  0  0  0  0
  -19.9539   11.8590  -21.4229 H   0  0  0  0  0  0  0  0  0  0  0  0
  -18.0888   11.3409  -20.6874 C   0  0  0  0  0  0  0  0  0  0  0  0
  -17.4478   12.5634  -20.8767 C   0  0  0  0  0  0  0  0  0  0  0  0
  -16.0575   12.6468  -20.7537 C   0  0  0  0  0  0  0  0  0  0  0  0
  -15.3070   11.5036  -20.4804 C   0  0  0  0  0  0  0  0  0  0  0  0
  -15.9330   10.2599  -20.3265 C   0  0  0  0  0  0  0  0  0  0  0  0
  -17.3320   10.1905  -20.4308 C   0  0  0  0  0  0  0  0  0  0  0  0
  -15.1365    9.0106  -20.0393 C   0  0  0  0  0  0  0  0  0  0  0  0
  -15.7072    7.8776  -20.5402 F   0  0  0  0  0  0  0  0  0  0  0  0
  -13.8788    9.0501  -20.5581 F   0  0  0  0  0  0  0  0  0  0  0  0
  -14.9843    8.7844  -18.7039 F   0  0  0  0  0  0  0  0  0  0  0  0
 17 18  1  0  0  0
 17 20  1  0  0  0
 17 21  1  0  0  0
 18 19  2  0  0  0
 18  7  1  0  0  0
  7  8  2  0  0  0
  7 15  1  0  0  0
  8  1  1  0  0  0
  8  9  1  0  0  0
  1  2  1  0  0  0
  1  6  2  0  0  0
  2  3  2  0  0  0
  3  4  1  0  0  0
  4 22  1  0  0  0
  4  5  2  0  0  0
 22 23  1  0  0  0
 22 26  1  0  0  0
 23 24  2  0  0  0
 23 25  1  0  0  0
 25 28  1  0  0  0
 25 27  1  0  0  0
 28 29  1  0  0  0
 28 33  2  0  0  0
 29 30  2  0  0  0
 30 31  1  0  0  0
 31 32  2  0  0  0
 32 34  1  0  0  0
 32 33  1  0  0  0
 34 35  1  0  0  0
 34 36  1  0  0  0
 34 37  1  0  0  0
  5  6  1  0  0  0
  9 10  1  0  0  0
  9 16  1  0  0  0
 10 11  1  0  0  0
 10 15  2  0  0  0
 11 12  2  0  0  0
 12 13  1  0  0  0
 13 14  2  0  0  0
 14 15  1  0  0  0
M  END
> <minimizedAffinity>
-6.47001

$$$$
