CHEMBL3939532


 37 40  0  0  0  0  0  0  0  0999 V2000
  -25.7220   -1.8647  -11.8201 C   0  0  0  0  0  0  0  0  0  0  0  0
  -25.9507   -1.6200  -13.1817 C   0  0  0  0  0  0  0  0  0  0  0  0
  -24.9401   -1.1438  -14.0153 C   0  0  0  0  0  0  0  0  0  0  0  0
  -23.6878   -0.8535  -13.4900 C   0  0  0  0  0  0  0  0  0  0  0  0
  -23.4742   -1.0269  -12.1191 C   0  0  0  0  0  0  0  0  0  0  0  0
  -22.2761   -0.7751  -11.5722 F   0  0  0  0  0  0  0  0  0  0  0  0
  -24.4880   -1.5023  -11.2792 C   0  0  0  0  0  0  0  0  0  0  0  0
  -27.9571   -2.8529   -9.0935 N   0  0  0  0  0  0  0  0  0  0  0  0
  -26.9640   -2.1082   -9.7049 C   0  0  0  0  0  0  0  0  0  0  0  0
  -26.4070   -1.1672   -9.1470 O   0  0  0  0  0  0  0  0  0  0  0  0
  -26.6737   -2.5246  -10.9940 N   0  0  0  0  0  0  0  0  0  0  0  0
  -28.1378   -3.7787   -9.4557 H   0  0  0  0  0  0  0  0  0  0  0  0
  -27.3799   -3.0748  -11.4621 H   0  0  0  0  0  0  0  0  0  0  0  0
  -28.9887   -0.8511   -6.1337 C   0  0  0  0  0  0  0  0  0  0  0  0
  -29.5731   -1.8563   -5.3731 C   0  0  0  0  0  0  0  0  0  0  0  0
  -29.6226   -3.1449   -5.7505 N   0  0  0  0  0  0  0  0  0  0  0  0
  -29.0746   -3.4486   -6.9538 C   0  0  0  0  0  0  0  0  0  0  0  0
  -28.4894   -2.5206   -7.8185 C   0  0  0  0  0  0  0  0  0  0  0  0
  -28.4351   -1.1981   -7.3782 C   0  0  0  0  0  0  0  0  0  0  0  0
  -30.3663    1.1238   -5.4395 C   0  0  0  0  0  0  0  0  0  0  0  0
  -28.9661    0.5549   -5.6045 C   0  0  0  0  0  0  0  0  0  0  0  0
  -28.2682    1.3971   -6.4198 F   0  0  0  0  0  0  0  0  0  0  0  0
  -28.3456    0.6334   -4.3909 F   0  0  0  0  0  0  0  0  0  0  0  0
  -22.7326   -0.5112  -14.4173 O   0  0  0  0  0  0  0  0  0  0  0  0
  -22.1684    0.7390  -14.3975 C   0  0  0  0  0  0  0  0  0  0  0  0
  -22.7918    1.8632  -13.8740 C   0  0  0  0  0  0  0  0  0  0  0  0
  -22.0915    3.0473  -13.9056 C   0  0  0  0  0  0  0  0  0  0  0  0
  -20.8733    3.1749  -14.4619 N   0  0  0  0  0  0  0  0  0  0  0  0
  -20.2990    2.0958  -15.0175 C   0  0  0  0  0  0  0  0  0  0  0  0
  -20.9194    0.8550  -15.0089 C   0  0  0  0  0  0  0  0  0  0  0  0
  -19.0321    2.2048  -15.6080 N   0  0  0  0  0  0  0  0  0  0  0  0
  -17.8538    1.9008  -14.9566 C   0  0  0  0  0  0  0  0  0  0  0  0
  -17.6990    1.5477  -13.7973 O   0  0  0  0  0  0  0  0  0  0  0  0
  -18.9924    2.4929  -16.5731 H   0  0  0  0  0  0  0  0  0  0  0  0
  -16.6524    1.9989  -15.8457 C   0  0  0  0  0  0  0  0  0  0  0  0
  -15.2821    2.0395  -15.2055 C   0  0  0  0  0  0  0  0  0  0  0  0
  -15.8261    3.2683  -15.8719 C   0  0  0  0  0  0  0  0  0  0  0  0
 20 21  1  0  0  0
 21 22  1  0  0  0
 21 23  1  0  0  0
 21 14  1  0  0  0
 14 15  1  0  0  0
 14 19  2  0  0  0
 15 16  2  0  0  0
 16 17  1  0  0  0
 17 18  2  0  0  0
 18  8  1  0  0  0
 18 19  1  0  0  0
  8  9  1  0  0  0
  8 12  1  0  0  0
  9 10  2  0  0  0
  9 11  1  0  0  0
 11  1  1  0  0  0
 11 13  1  0  0  0
  1  2  1  0  0  0
  1  7  2  0  0  0
  2  3  2  0  0  0
  3  4  1  0  0  0
  4 24  1  0  0  0
  4  5  2  0  0  0
 24 25  1  0  0  0
 25 26  1  0  0  0
 25 30  2  0  0  0
 26 27  2  0  0  0
 27 28  1  0  0  0
 28 29  2  0  0  0
 29 31  1  0  0  0
 29 30  1  0  0  0
 31 32  1  0  0  0
 31 34  1  0  0  0
 32 33  2  0  0  0
 32 35  1  0  0  0
 35 36  1  0  0  0
 35 37  1  0  0  0
 36 37  1  0  0  0
  5  6  1  0  0  0
  5  7  1  0  0  0
M  END
> <minimizedAffinity>
-11.40621

$$$$
