CHEMBL3982334


 33 37  0  0  0  0  0  0  0  0999 V2000
  -29.2428   -4.6520   -6.0259 C   0  0  0  0  0  0  0  0  0  0  0  0
  -29.1979   -3.5277   -5.1928 C   0  0  0  0  0  0  0  0  0  0  0  0
  -28.7208   -2.3009   -5.6576 C   0  0  0  0  0  0  0  0  0  0  0  0
  -28.2783   -2.1489   -6.9570 C   0  0  0  0  0  0  0  0  0  0  0  0
  -27.8356   -0.9410   -7.3495 N   0  0  0  0  0  0  0  0  0  0  0  0
  -27.4010   -0.8537   -8.6267 C   0  0  0  0  0  0  0  0  0  0  0  0
  -27.3926   -1.9320   -9.4963 C   0  0  0  0  0  0  0  0  0  0  0  0
  -27.8475   -3.1515   -9.1009 N   0  0  0  0  0  0  0  0  0  0  0  0
  -28.2922   -3.2617   -7.8280 C   0  0  0  0  0  0  0  0  0  0  0  0
  -28.7745   -4.4805   -7.3452 C   0  0  0  0  0  0  0  0  0  0  0  0
  -26.8824   -1.8131  -10.8491 C   0  0  0  0  0  0  0  0  0  0  0  0
  -27.5511   -1.6776  -12.0922 C   0  0  0  0  0  0  0  0  0  0  0  0
  -26.7122   -1.5758  -13.1255 N   0  0  0  0  0  0  0  0  0  0  0  0
  -25.4966   -1.6473  -12.5528 N   0  0  0  0  0  0  0  0  0  0  0  0
  -25.5479   -1.7924  -11.1928 C   0  0  0  0  0  0  0  0  0  0  0  0
  -24.3051   -1.5452  -13.3704 C   0  0  0  0  0  0  0  0  0  0  0  0
  -24.4940   -0.6279  -14.5734 C   0  0  0  0  0  0  0  0  0  0  0  0
  -25.2778   -1.2485  -15.5894 O   0  0  0  0  0  0  0  0  0  0  0  0
  -24.7045   -1.9087  -16.0215 H   0  0  0  0  0  0  0  0  0  0  0  0
  -29.7267   -5.9119   -5.5668 N   0  0  0  0  0  0  0  0  0  0  0  0
  -30.8232   -8.7726   -7.7370 C   0  0  0  0  0  0  0  0  0  0  0  0
  -29.6096   -9.3755   -8.0352 C   0  0  0  0  0  0  0  0  0  0  0  0
  -28.4623   -8.9149   -7.4099 C   0  0  0  0  0  0  0  0  0  0  0  0
  -27.2926   -9.5127   -7.6741 F   0  0  0  0  0  0  0  0  0  0  0  0
  -28.4877   -7.8261   -6.5387 C   0  0  0  0  0  0  0  0  0  0  0  0
  -29.6752   -7.1228   -6.3043 C   0  0  0  0  0  0  0  0  0  0  0  0
  -30.8463   -7.6460   -6.9005 C   0  0  0  0  0  0  0  0  0  0  0  0
  -33.1378   -8.9937   -7.3567 C   0  0  0  0  0  0  0  0  0  0  0  0
  -32.0310   -9.1816   -8.2382 O   0  0  0  0  0  0  0  0  0  0  0  0
  -30.0994   -5.9572   -4.1320 C   0  0  0  0  0  0  0  0  0  0  0  0
  -31.5814   -5.7389   -3.9428 C   0  0  0  0  0  0  0  0  0  0  0  0
  -32.1102   -4.3846   -3.5206 C   0  0  0  0  0  0  0  0  0  0  0  0
  -32.1574   -5.5401   -2.5631 C   0  0  0  0  0  0  0  0  0  0  0  0
 28 29  1  0  0  0
 29 21  1  0  0  0
 21 22  1  0  0  0
 21 27  2  0  0  0
 22 23  2  0  0  0
 23 24  1  0  0  0
 23 25  1  0  0  0
 25 26  2  0  0  0
 26 20  1  0  0  0
 26 27  1  0  0  0
 20 30  1  0  0  0
 20  1  1  0  0  0
 30 31  1  0  0  0
 31 32  1  0  0  0
 31 33  1  0  0  0
 32 33  1  0  0  0
  1  2  1  0  0  0
  1 10  2  0  0  0
  2  3  2  0  0  0
  3  4  1  0  0  0
  4  5  1  0  0  0
  4  9  2  0  0  0
  5  6  2  0  0  0
  6  7  1  0  0  0
  7 11  1  0  0  0
  7  8  2  0  0  0
 11 12  1  0  0  0
 11 15  2  0  0  0
 12 13  2  0  0  0
 13 14  1  0  0  0
 14 16  1  0  0  0
 14 15  1  0  0  0
 16 17  1  0  0  0
 17 18  1  0  0  0
 18 19  1  0  0  0
  8  9  1  0  0  0
  9 10  1  0  0  0
M  END
> <minimizedAffinity>
-8.49589

$$$$
