CHEMBL1977652


 23 25  0  0  0  0  0  0  0  0999 V2000
  -29.6742   -5.7506   -6.5486 C   0  0  0  0  0  0  0  0  0  0  0  0
  -30.3059   -5.2328   -5.4064 C   0  0  0  0  0  0  0  0  0  0  0  0
  -30.2004   -3.8781   -5.0851 C   0  0  0  0  0  0  0  0  0  0  0  0
  -29.4581   -3.0594   -5.9202 C   0  0  0  0  0  0  0  0  0  0  0  0
  -28.8158   -3.5852   -7.0605 C   0  0  0  0  0  0  0  0  0  0  0  0
  -28.9220   -4.9276   -7.3947 C   0  0  0  0  0  0  0  0  0  0  0  0
  -28.1046   -2.4476   -7.7128 C   0  0  0  0  0  0  0  0  0  0  0  0
  -27.3518   -2.3841   -8.7657 N   0  0  0  0  0  0  0  0  0  0  0  0
  -27.1844   -3.6193   -9.3894 O   0  0  0  0  0  0  0  0  0  0  0  0
  -28.3936   -1.2435   -6.8939 C   0  0  0  0  0  0  0  0  0  0  0  0
  -27.9826    0.0657   -7.0706 C   0  0  0  0  0  0  0  0  0  0  0  0
  -28.4160    1.0085   -6.1349 C   0  0  0  0  0  0  0  0  0  0  0  0
  -29.2380    0.6264   -5.0595 C   0  0  0  0  0  0  0  0  0  0  0  0
  -29.6386   -0.7047   -4.8988 C   0  0  0  0  0  0  0  0  0  0  0  0
  -29.2072   -1.6405   -5.8257 C   0  0  0  0  0  0  0  0  0  0  0  0
  -26.6379   -3.3875  -10.1624 H   0  0  0  0  0  0  0  0  0  0  0  0
  -29.8762   -7.1292   -6.8640 N   0  0  0  0  0  0  0  0  0  0  0  0
  -30.8470   -7.4465   -6.8077 H   0  0  0  0  0  0  0  0  0  0  0  0
  -28.9006   -8.2592   -6.0567 S   0  0  0  0  0  0  0  0  0  0  0  0
  -29.8317   -9.1918   -5.4558 O   0  0  0  0  0  0  0  0  0  0  0  0
  -27.9131   -7.5672   -5.2604 O   0  0  0  0  0  0  0  0  0  0  0  0
  -28.3577   -8.3933   -8.7322 C   0  0  0  0  0  0  0  0  0  0  0  0
  -28.0850   -9.0980   -7.4155 C   0  0  0  0  0  0  0  0  0  0  0  0
 22 23  1  0  0  0
 23 19  1  0  0  0
 19 20  2  0  0  0
 19 21  2  0  0  0
 19 17  1  0  0  0
 17  1  1  0  0  0
 17 18  1  0  0  0
  1  2  1  0  0  0
  1  6  2  0  0  0
  2  3  2  0  0  0
  3  4  1  0  0  0
  4  5  2  0  0  0
  4 15  1  0  0  0
  5  6  1  0  0  0
  5  7  1  0  0  0
  7  8  2  0  0  0
  7 10  1  0  0  0
  8  9  1  0  0  0
  9 16  1  0  0  0
 10 11  1  0  0  0
 10 15  2  0  0  0
 11 12  2  0  0  0
 12 13  1  0  0  0
 13 14  2  0  0  0
 14 15  1  0  0  0
M  END
> <minimizedAffinity>
-8.17289

$$$$
