CHEMBL444138


 26 28  0  0  0  0  0  0  0  0999 V2000
  -30.2217   -6.3738   -4.3106 C   0  0  0  0  0  0  0  0  0  0  0  0
  -31.5047   -5.9219   -4.0712 C   0  0  0  0  0  0  0  0  0  0  0  0
  -31.6312   -4.5972   -3.7528 C   0  0  0  0  0  0  0  0  0  0  0  0
  -30.5945   -3.7544   -3.7217 N   0  0  0  0  0  0  0  0  0  0  0  0
  -29.3834   -4.2480   -4.0218 C   0  0  0  0  0  0  0  0  0  0  0  0
  -29.1613   -5.5393   -4.2920 N   0  0  0  0  0  0  0  0  0  0  0  0
  -30.0554   -7.7336   -4.6941 N   0  0  0  0  0  0  0  0  0  0  0  0
  -29.2876   -8.1391   -4.1659 H   0  0  0  0  0  0  0  0  0  0  0  0
  -29.5358   -9.7850  -10.0273 C   0  0  0  0  0  0  0  0  0  0  0  0
  -29.6692   -9.2464   -8.6342 C   0  0  0  0  0  0  0  0  0  0  0  0
  -28.5370   -8.8217   -7.9315 C   0  0  0  0  0  0  0  0  0  0  0  0
  -28.6592   -8.2991   -6.6427 C   0  0  0  0  0  0  0  0  0  0  0  0
  -29.9148   -8.1676   -6.0380 C   0  0  0  0  0  0  0  0  0  0  0  0
  -31.0426   -8.6393   -6.7187 C   0  0  0  0  0  0  0  0  0  0  0  0
  -30.9165   -9.1574   -8.0088 C   0  0  0  0  0  0  0  0  0  0  0  0
  -32.0214   -9.5941   -8.6880 O   0  0  0  0  0  0  0  0  0  0  0  0
  -32.8075   -9.4176   -8.1467 H   0  0  0  0  0  0  0  0  0  0  0  0
  -28.2871   -3.3836   -4.0601 N   0  0  0  0  0  0  0  0  0  0  0  0
  -27.4545   -3.8587   -3.7401 H   0  0  0  0  0  0  0  0  0  0  0  0
  -28.0772   -2.3278   -4.9664 C   0  0  0  0  0  0  0  0  0  0  0  0
  -28.0352   -1.0098   -4.4957 C   0  0  0  0  0  0  0  0  0  0  0  0
  -27.9304    0.0641   -5.3868 C   0  0  0  0  0  0  0  0  0  0  0  0
  -27.8417   -0.1687   -6.7591 C   0  0  0  0  0  0  0  0  0  0  0  0
  -27.8430   -1.4780   -7.2326 C   0  0  0  0  0  0  0  0  0  0  0  0
  -27.7155   -1.8117   -9.0885 Br  0  0  0  0  0  0  0  0  0  0  0  0
  -27.9551   -2.5455   -6.3464 C   0  0  0  0  0  0  0  0  0  0  0  0
  9 10  1  0  0  0
 10 11  1  0  0  0
 10 15  2  0  0  0
 11 12  2  0  0  0
 12 13  1  0  0  0
 13  7  1  0  0  0
 13 14  2  0  0  0
  7  1  1  0  0  0
  7  8  1  0  0  0
  1  2  1  0  0  0
  1  6  2  0  0  0
  2  3  2  0  0  0
  3  4  1  0  0  0
  4  5  2  0  0  0
  5 18  1  0  0  0
  5  6  1  0  0  0
 18 20  1  0  0  0
 18 19  1  0  0  0
 20 21  1  0  0  0
 20 26  2  0  0  0
 21 22  2  0  0  0
 22 23  1  0  0  0
 23 24  2  0  0  0
 24 25  1  0  0  0
 24 26  1  0  0  0
 14 15  1  0  0  0
 15 16  1  0  0  0
 16 17  1  0  0  0
M  END
> <minimizedAffinity>
-8.47281

$$$$
