CHEMBL3909596


 35 39  0  0  0  0  0  0  0  0999 V2000
  -17.6036    1.0510  -15.1164 C   0  0  0  0  0  0  0  0  0  0  0  0
  -18.9036    0.6007  -14.8905 C   0  0  0  0  0  0  0  0  0  0  0  0
  -19.9742    1.5158  -14.7492 C   0  0  0  0  0  0  0  0  0  0  0  0
  -21.2836    1.1716  -14.4046 C   0  0  0  0  0  0  0  0  0  0  0  0
  -22.2686    2.0879  -14.3170 N   0  0  0  0  0  0  0  0  0  0  0  0
  -21.9455    3.3556  -14.5690 C   0  0  0  0  0  0  0  0  0  0  0  0
  -20.7298    3.7961  -14.8931 N   0  0  0  0  0  0  0  0  0  0  0  0
  -19.7663    2.8755  -14.9710 C   0  0  0  0  0  0  0  0  0  0  0  0
  -18.4922    3.3045  -15.2730 C   0  0  0  0  0  0  0  0  0  0  0  0
  -17.3983    2.4287  -15.2928 C   0  0  0  0  0  0  0  0  0  0  0  0
  -15.9988   -0.2836  -13.9305 C   0  0  0  0  0  0  0  0  0  0  0  0
  -16.5061    0.2360  -15.1579 O   0  0  0  0  0  0  0  0  0  0  0  0
  -21.5907   -0.1837  -14.1047 N   0  0  0  0  0  0  0  0  0  0  0  0
  -20.7695   -0.6310  -13.7101 H   0  0  0  0  0  0  0  0  0  0  0  0
  -22.7918   -0.5669  -13.4700 C   0  0  0  0  0  0  0  0  0  0  0  0
  -22.7944   -0.8044  -12.0870 C   0  0  0  0  0  0  0  0  0  0  0  0
  -23.9344   -1.2939  -11.4576 C   0  0  0  0  0  0  0  0  0  0  0  0
  -25.0886   -1.5351  -12.1956 C   0  0  0  0  0  0  0  0  0  0  0  0
  -26.4473   -2.2073  -11.3614 Cl  0  0  0  0  0  0  0  0  0  0  0  0
  -25.1131   -1.2481  -13.5657 C   0  0  0  0  0  0  0  0  0  0  0  0
  -26.5137   -1.5080  -14.5384 Cl  0  0  0  0  0  0  0  0  0  0  0  0
  -23.9689   -0.7570  -14.1988 C   0  0  0  0  0  0  0  0  0  0  0  0
  -16.1075    2.8770  -15.4679 O   0  0  0  0  0  0  0  0  0  0  0  0
  -15.6355    2.7895  -16.8241 C   0  0  0  0  0  0  0  0  0  0  0  0
  -14.9810    4.0311  -17.2939 C   0  0  0  0  0  0  0  0  0  0  0  0
  -13.9713    4.6054  -16.6265 N   0  0  0  0  0  0  0  0  0  0  0  0
  -13.7310    5.7672  -17.3582 O   0  0  0  0  0  0  0  0  0  0  0  0
  -14.6326    5.7714  -18.3850 C   0  0  0  0  0  0  0  0  0  0  0  0
  -15.4425    4.7372  -18.3762 N   0  0  0  0  0  0  0  0  0  0  0  0
  -14.5384    6.8758  -19.3703 C   0  0  0  0  0  0  0  0  0  0  0  0
  -15.0573    8.1851  -18.8025 C   0  0  0  0  0  0  0  0  0  0  0  0
  -15.2705    9.0220  -20.0459 C   0  0  0  0  0  0  0  0  0  0  0  0
  -15.5907    8.0094  -21.1427 C   0  0  0  0  0  0  0  0  0  0  0  0
  -15.3681    6.6859  -20.5712 N   0  0  0  0  0  0  0  0  0  0  0  0
  -14.8974    6.0667  -21.2344 H   0  0  0  0  0  0  0  0  0  0  0  0
 11 12  1  0  0  0
 12  1  1  0  0  0
  1  2  1  0  0  0
  1 10  2  0  0  0
  2  3  2  0  0  0
  3  4  1  0  0  0
  3  8  1  0  0  0
  4 13  1  0  0  0
  4  5  2  0  0  0
 13 15  1  0  0  0
 13 14  1  0  0  0
 15 16  1  0  0  0
 15 22  2  0  0  0
 16 17  2  0  0  0
 17 18  1  0  0  0
 18 19  1  0  0  0
 18 20  2  0  0  0
 20 21  1  0  0  0
 20 22  1  0  0  0
  5  6  1  0  0  0
  6  7  2  0  0  0
  7  8  1  0  0  0
  8  9  2  0  0  0
  9 10  1  0  0  0
 10 23  1  0  0  0
 23 24  1  0  0  0
 24 25  1  0  0  0
 25 26  2  0  0  0
 25 29  1  0  0  0
 26 27  1  0  0  0
 27 28  1  0  0  0
 28 30  1  0  0  0
 28 29  2  0  0  0
 30 31  1  0  0  0
 30 34  1  0  0  0
 31 32  1  0  0  0
 32 33  1  0  0  0
 33 34  1  0  0  0
 34 35  1  0  0  0
M  END
> <minimizedAffinity>
-9.22002

$$$$
