CHEMBL3902161


 38 41  0  0  0  0  0  0  0  0999 V2000
  -26.5486   -1.7545  -12.1849 C   0  0  0  0  0  0  0  0  0  0  0  0
  -27.5169   -2.3697  -12.9107 N   0  0  0  0  0  0  0  0  0  0  0  0
  -27.4852   -2.2749  -14.2554 C   0  0  0  0  0  0  0  0  0  0  0  0
  -26.5720   -1.6604  -15.0236 N   0  0  0  0  0  0  0  0  0  0  0  0
  -25.6226   -1.0837  -14.2734 C   0  0  0  0  0  0  0  0  0  0  0  0
  -24.5608   -0.3821  -14.7750 N   0  0  0  0  0  0  0  0  0  0  0  0
  -23.7813    0.1113  -13.7451 C   0  0  0  0  0  0  0  0  0  0  0  0
  -24.3887   -0.3060  -12.5690 C   0  0  0  0  0  0  0  0  0  0  0  0
  -25.5384   -1.0776  -12.8935 C   0  0  0  0  0  0  0  0  0  0  0  0
  -24.4060   -0.2362  -15.7604 H   0  0  0  0  0  0  0  0  0  0  0  0
  -22.5733    0.9090  -13.9581 C   0  0  0  0  0  0  0  0  0  0  0  0
  -21.4109    0.2917  -14.4351 C   0  0  0  0  0  0  0  0  0  0  0  0
  -20.2639    1.0385  -14.7231 C   0  0  0  0  0  0  0  0  0  0  0  0
  -20.2620    2.4194  -14.5398 C   0  0  0  0  0  0  0  0  0  0  0  0
  -21.4019    3.0393  -14.0275 C   0  0  0  0  0  0  0  0  0  0  0  0
  -22.5509    2.2918  -13.7391 C   0  0  0  0  0  0  0  0  0  0  0  0
  -19.1982    3.2445  -14.7895 O   0  0  0  0  0  0  0  0  0  0  0  0
  -18.3879    2.8740  -15.9072 C   0  0  0  0  0  0  0  0  0  0  0  0
  -16.9679    2.6089  -15.4156 C   0  0  0  0  0  0  0  0  0  0  0  0
  -16.6281    1.1197  -15.4929 C   0  0  0  0  0  0  0  0  0  0  0  0
  -16.5198    0.5029  -14.0979 C   0  0  0  0  0  0  0  0  0  0  0  0
  -15.3165   -0.4279  -13.9782 C   0  0  0  0  0  0  0  0  0  0  0  0
  -15.6116   -1.5964  -13.0613 C   0  0  0  0  0  0  0  0  0  0  0  0
  -15.5542   -1.5531  -11.8359 O   0  0  0  0  0  0  0  0  0  0  0  0
  -15.9614   -2.7467  -13.7241 N   0  0  0  0  0  0  0  0  0  0  0  0
  -16.2316   -3.8757  -12.9220 O   0  0  0  0  0  0  0  0  0  0  0  0
  -15.9945   -2.8649  -14.7293 H   0  0  0  0  0  0  0  0  0  0  0  0
  -16.0930   -3.5231  -12.0138 H   0  0  0  0  0  0  0  0  0  0  0  0
  -26.5789   -1.7867  -10.7790 N   0  0  0  0  0  0  0  0  0  0  0  0
  -26.2492   -2.7167  -10.5137 H   0  0  0  0  0  0  0  0  0  0  0  0
  -28.3749   -0.1321  -10.3757 C   0  0  0  0  0  0  0  0  0  0  0  0
  -27.9257   -1.5914  -10.2083 C   0  0  0  0  0  0  0  0  0  0  0  0
  -27.9527   -1.9412   -8.7204 C   0  0  0  0  0  0  0  0  0  0  0  0
  -28.3397   -3.2359   -8.3251 C   0  0  0  0  0  0  0  0  0  0  0  0
  -28.4510   -3.5748   -6.9741 C   0  0  0  0  0  0  0  0  0  0  0  0
  -28.1646   -2.6303   -5.9934 C   0  0  0  0  0  0  0  0  0  0  0  0
  -27.7788   -1.3426   -6.3637 C   0  0  0  0  0  0  0  0  0  0  0  0
  -27.6858   -0.9966   -7.7176 C   0  0  0  0  0  0  0  0  0  0  0  0
 31 32  1  0  0  0
 32 29  1  0  0  0
 32 33  1  0  0  0
 29  1  1  0  0  0
 29 30  1  0  0  0
  1  2  1  0  0  0
  1  9  2  0  0  0
  2  3  2  0  0  0
  3  4  1  0  0  0
  4  5  2  0  0  0
  5  6  1  0  0  0
  5  9  1  0  0  0
  6  7  1  0  0  0
  6 10  1  0  0  0
  7 11  1  0  0  0
  7  8  2  0  0  0
 11 12  1  0  0  0
 11 16  2  0  0  0
 12 13  2  0  0  0
 13 14  1  0  0  0
 14 17  1  0  0  0
 14 15  2  0  0  0
 17 18  1  0  0  0
 18 19  1  0  0  0
 19 20  1  0  0  0
 20 21  1  0  0  0
 21 22  1  0  0  0
 22 23  1  0  0  0
 23 24  2  0  0  0
 23 25  1  0  0  0
 25 26  1  0  0  0
 25 27  1  0  0  0
 26 28  1  0  0  0
 15 16  1  0  0  0
  8  9  1  0  0  0
 33 34  1  0  0  0
 33 38  2  0  0  0
 34 35  2  0  0  0
 35 36  1  0  0  0
 36 37  2  0  0  0
 37 38  1  0  0  0
M  END
> <minimizedAffinity>
-8.48926

$$$$
