CHEMBL375311


 44 50  0  0  0  0  0  0  0  0999 V2000
  -27.5516   -0.9670   -9.4190 N   0  0  0  0  0  0  0  0  0  0  0  0
  -27.7855   -2.2627   -8.9029 C   0  0  0  0  0  0  0  0  0  0  0  0
  -28.4367   -2.7054   -7.7405 C   0  0  0  0  0  0  0  0  0  0  0  0
  -28.4528   -4.0886   -7.4578 C   0  0  0  0  0  0  0  0  0  0  0  0
  -27.8626   -5.0366   -8.2980 C   0  0  0  0  0  0  0  0  0  0  0  0
  -27.2123   -4.5787   -9.4454 C   0  0  0  0  0  0  0  0  0  0  0  0
  -27.1448   -3.1955   -9.7300 C   0  0  0  0  0  0  0  0  0  0  0  0
  -26.4782   -2.3730  -10.6152 C   0  0  0  0  0  0  0  0  0  0  0  0
  -25.3559   -2.8038  -11.3353 C   0  0  0  0  0  0  0  0  0  0  0  0
  -24.4818   -1.7852  -11.7554 C   0  0  0  0  0  0  0  0  0  0  0  0
  -24.7402   -0.4133  -11.6154 C   0  0  0  0  0  0  0  0  0  0  0  0
  -26.1486   -0.1406  -11.4761 C   0  0  0  0  0  0  0  0  0  0  0  0
  -26.8019   -1.0440  -10.5986 C   0  0  0  0  0  0  0  0  0  0  0  0
  -26.7701    0.3473  -12.8674 C   0  0  0  0  0  0  0  0  0  0  0  0
  -25.7871    0.2159  -14.1126 C   0  0  0  0  0  0  0  0  0  0  0  0
  -24.5047    0.8497  -13.7004 C   0  0  0  0  0  0  0  0  0  0  0  0
  -23.9306    1.9352  -14.2177 N   0  0  0  0  0  0  0  0  0  0  0  0
  -23.1236    2.3484  -13.2074 N   0  0  0  0  0  0  0  0  0  0  0  0
  -22.4337    3.6115  -13.3135 C   0  0  0  0  0  0  0  0  0  0  0  0
  -23.2520    1.6005  -12.0612 C   0  0  0  0  0  0  0  0  0  0  0  0
  -24.0085    0.5184  -12.4295 C   0  0  0  0  0  0  0  0  0  0  0  0
  -23.4025   -2.4303  -12.4707 C   0  0  0  0  0  0  0  0  0  0  0  0
  -22.4304   -2.0046  -13.0745 O   0  0  0  0  0  0  0  0  0  0  0  0
  -23.7011   -3.7819  -12.4181 N   0  0  0  0  0  0  0  0  0  0  0  0
  -24.8848   -4.1381  -11.6789 C   0  0  0  0  0  0  0  0  0  0  0  0
  -23.1283   -4.4281  -12.9345 H   0  0  0  0  0  0  0  0  0  0  0  0
  -27.8608   -6.4412   -8.0652 N   0  0  0  0  0  0  0  0  0  0  0  0
  -28.9219   -7.1959   -7.6032 C   0  0  0  0  0  0  0  0  0  0  0  0
  -30.0114   -6.7215   -7.3011 O   0  0  0  0  0  0  0  0  0  0  0  0
  -28.6128   -8.5579   -7.5112 N   0  0  0  0  0  0  0  0  0  0  0  0
  -27.0014   -6.9357   -8.2589 H   0  0  0  0  0  0  0  0  0  0  0  0
  -27.6459   -8.8061   -7.3516 H   0  0  0  0  0  0  0  0  0  0  0  0
  -29.5893   -9.5403   -7.1801 C   0  0  0  0  0  0  0  0  0  0  0  0
  -30.6721   -9.8063   -8.0136 C   0  0  0  0  0  0  0  0  0  0  0  0
  -31.7135  -10.6479   -7.6088 C   0  0  0  0  0  0  0  0  0  0  0  0
  -31.7249  -11.2847   -6.3642 C   0  0  0  0  0  0  0  0  0  0  0  0
  -30.5634  -11.1065   -5.5868 C   0  0  0  0  0  0  0  0  0  0  0  0
  -29.5055  -10.2582   -5.9878 C   0  0  0  0  0  0  0  0  0  0  0  0
  -32.8372  -11.9812   -5.9126 N   0  0  0  0  0  0  0  0  0  0  0  0
  -34.0929  -12.0064   -6.6532 C   0  0  0  0  0  0  0  0  0  0  0  0
  -32.9472  -12.4322   -4.5237 C   0  0  0  0  0  0  0  0  0  0  0  0
  -27.9510    0.2598   -8.7345 C   0  0  0  0  0  0  0  0  0  0  0  0
  -29.0329    0.1773   -6.4041 C   0  0  0  0  0  0  0  0  0  0  0  0
  -27.7467    0.2777   -7.2086 C   0  0  0  0  0  0  0  0  0  0  0  0
 43 44  1  0  0  0
 44 42  1  0  0  0
 42  1  1  0  0  0
  1  2  1  0  0  0
  1 13  1  0  0  0
  2  3  1  0  0  0
  2  7  2  0  0  0
  3  4  2  0  0  0
  4  5  1  0  0  0
  5 27  1  0  0  0
  5  6  2  0  0  0
 27 28  1  0  0  0
 27 31  1  0  0  0
 28 29  2  0  0  0
 28 30  1  0  0  0
 30 33  1  0  0  0
 30 32  1  0  0  0
 33 34  1  0  0  0
 33 38  2  0  0  0
 34 35  2  0  0  0
 35 36  1  0  0  0
 36 39  1  0  0  0
 36 37  2  0  0  0
 39 40  1  0  0  0
 39 41  1  0  0  0
 37 38  1  0  0  0
  6  7  1  0  0  0
  7  8  1  0  0  0
  8  9  1  0  0  0
  8 13  2  0  0  0
  9 10  2  0  0  0
  9 25  1  0  0  0
 10 11  1  0  0  0
 10 22  1  0  0  0
 11 12  2  0  0  0
 11 21  1  0  0  0
 12 13  1  0  0  0
 12 14  1  0  0  0
 14 15  1  0  0  0
 15 16  1  0  0  0
 16 17  2  0  0  0
 16 21  1  0  0  0
 17 18  1  0  0  0
 18 19  1  0  0  0
 18 20  1  0  0  0
 20 21  2  0  0  0
 22 23  2  0  0  0
 22 24  1  0  0  0
 24 25  1  0  0  0
 24 26  1  0  0  0
M  END
> <minimizedAffinity>
15.51167

$$$$
