CHEMBL291759


 43 47  0  0  0  0  0  0  0  0999 V2000
  -13.9821    1.6216  -15.3665 C   0  0  0  0  0  0  0  0  0  0  0  0
  -13.2620    0.5405  -14.8557 C   0  0  0  0  0  0  0  0  0  0  0  0
  -12.0347    1.0141  -14.4497 N   0  0  0  0  0  0  0  0  0  0  0  0
  -11.9823    2.3689  -14.6214 C   0  0  0  0  0  0  0  0  0  0  0  0
  -13.1850    2.7965  -15.1425 C   0  0  0  0  0  0  0  0  0  0  0  0
  -13.4515    4.2525  -15.4041 C   0  0  0  0  0  0  0  0  0  0  0  0
  -12.1664    5.0953  -15.3881 C   0  0  0  0  0  0  0  0  0  0  0  0
  -11.2357    4.6986  -14.2364 C   0  0  0  0  0  0  0  0  0  0  0  0
  -10.7979    3.2269  -14.3422 C   0  0  0  0  0  0  0  0  0  0  0  0
  -11.2791    0.4423  -14.1002 H   0  0  0  0  0  0  0  0  0  0  0  0
  -13.5276   -0.8500  -14.6853 C   0  0  0  0  0  0  0  0  0  0  0  0
  -14.3404   -1.3497  -13.7416 C   0  0  0  0  0  0  0  0  0  0  0  0
  -15.0917   -0.5428  -12.7033 C   0  0  0  0  0  0  0  0  0  0  0  0
  -15.0583    0.6483  -12.4704 O   0  0  0  0  0  0  0  0  0  0  0  0
  -15.8658   -1.4670  -12.0249 N   0  0  0  0  0  0  0  0  0  0  0  0
  -15.6635   -2.7561  -12.4933 C   0  0  0  0  0  0  0  0  0  0  0  0
  -16.2927   -3.8916  -12.0173 C   0  0  0  0  0  0  0  0  0  0  0  0
  -15.9625   -5.1051  -12.6131 C   0  0  0  0  0  0  0  0  0  0  0  0
  -15.0091   -5.1467  -13.6522 C   0  0  0  0  0  0  0  0  0  0  0  0
  -14.3811   -3.9767  -14.1313 C   0  0  0  0  0  0  0  0  0  0  0  0
  -14.7223   -2.7667  -13.5389 C   0  0  0  0  0  0  0  0  0  0  0  0
  -16.4786   -1.1985  -11.2699 H   0  0  0  0  0  0  0  0  0  0  0  0
  -14.6710   -6.7301  -14.3882 S   0  0  0  0  0  0  0  0  0  0  0  0
  -15.4126   -7.7194  -13.6304 O   0  0  0  0  0  0  0  0  0  0  0  0
  -14.8025   -6.6083  -15.8215 O   0  0  0  0  0  0  0  0  0  0  0  0
  -13.0470   -6.9808  -14.0214 N   0  0  0  0  0  0  0  0  0  0  0  0
  -12.6895   -8.1710  -13.2556 C   0  0  0  0  0  0  0  0  0  0  0  0
  -12.5707   -6.1102  -13.7838 H   0  0  0  0  0  0  0  0  0  0  0  0
  -15.3228    1.5335  -16.0313 C   0  0  0  0  0  0  0  0  0  0  0  0
  -16.1009    2.8454  -16.1257 C   0  0  0  0  0  0  0  0  0  0  0  0
  -17.6324    2.6595  -16.1466 C   0  0  0  0  0  0  0  0  0  0  0  0
  -21.0080    1.4618  -15.0962 N   0  0  0  0  0  0  0  0  0  0  0  0
  -19.7737    0.6580  -15.2319 C   0  0  0  0  0  0  0  0  0  0  0  0
  -18.5887    1.2080  -14.4127 C   0  0  0  0  0  0  0  0  0  0  0  0
  -18.2190    2.5824  -14.7890 N   0  0  0  0  0  0  0  0  0  0  0  0
  -19.4238    3.4429  -14.7017 C   0  0  0  0  0  0  0  0  0  0  0  0
  -20.6852    2.8766  -15.4108 C   0  0  0  0  0  0  0  0  0  0  0  0
  -21.5979    1.3603  -13.7408 C   0  0  0  0  0  0  0  0  0  0  0  0
  -22.7587    0.3681  -13.6413 C   0  0  0  0  0  0  0  0  0  0  0  0
  -23.4897   -0.0195  -14.5417 O   0  0  0  0  0  0  0  0  0  0  0  0
  -22.8992    0.0152  -12.3255 O   0  0  0  0  0  0  0  0  0  0  0  0
  -24.0533   -1.9053  -11.5026 C   0  0  0  0  0  0  0  0  0  0  0  0
  -24.1988   -0.4647  -11.9589 C   0  0  0  0  0  0  0  0  0  0  0  0
 42 43  1  0  0  0
 43 41  1  0  0  0
 41 39  1  0  0  0
 39 40  2  0  0  0
 39 38  1  0  0  0
 38 32  1  0  0  0
 32 33  1  0  0  0
 32 37  1  0  0  0
 33 34  1  0  0  0
 34 35  1  0  0  0
 35 31  1  0  0  0
 35 36  1  0  0  0
 31 30  1  0  0  0
 30 29  1  0  0  0
 29  1  1  0  0  0
  1  2  2  0  0  0
  1  5  1  0  0  0
  2 11  1  0  0  0
  2  3  1  0  0  0
 11 12  2  0  0  0
 12 13  1  0  0  0
 12 21  1  0  0  0
 13 14  2  0  0  0
 13 15  1  0  0  0
 15 16  1  0  0  0
 15 22  1  0  0  0
 16 17  1  0  0  0
 16 21  2  0  0  0
 17 18  2  0  0  0
 18 19  1  0  0  0
 19 23  1  0  0  0
 19 20  2  0  0  0
 23 24  2  0  0  0
 23 25  2  0  0  0
 23 26  1  0  0  0
 26 27  1  0  0  0
 26 28  1  0  0  0
 20 21  1  0  0  0
  3  4  1  0  0  0
  3 10  1  0  0  0
  4  5  2  0  0  0
  4  9  1  0  0  0
  5  6  1  0  0  0
  6  7  1  0  0  0
  7  8  1  0  0  0
  8  9  1  0  0  0
 36 37  1  0  0  0
M  END
> <minimizedAffinity>
-8.58661

$$$$
