CHEMBL2071216


 30 33  0  0  0  0  0  0  0  0999 V2000
  -27.4899   -2.5186   -8.9011 C   0  0  0  0  0  0  0  0  0  0  0  0
  -27.3043   -1.2758   -8.4336 N   0  0  0  0  0  0  0  0  0  0  0  0
  -27.8533   -0.9971   -7.2329 C   0  0  0  0  0  0  0  0  0  0  0  0
  -28.5573   -1.9099   -6.4804 C   0  0  0  0  0  0  0  0  0  0  0  0
  -29.1939   -1.4698   -4.9462 Cl  0  0  0  0  0  0  0  0  0  0  0  0
  -28.6662   -3.1870   -7.0107 C   0  0  0  0  0  0  0  0  0  0  0  0
  -28.1254   -3.4798   -8.2092 N   0  0  0  0  0  0  0  0  0  0  0  0
  -26.9956   -2.7588  -10.1862 N   0  0  0  0  0  0  0  0  0  0  0  0
  -27.0010   -3.7600  -10.3411 H   0  0  0  0  0  0  0  0  0  0  0  0
  -24.7836   -0.7227  -11.9624 N   0  0  0  0  0  0  0  0  0  0  0  0
  -25.0168   -1.6134  -10.9517 C   0  0  0  0  0  0  0  0  0  0  0  0
  -26.3506   -1.9310  -11.0318 C   0  0  0  0  0  0  0  0  0  0  0  0
  -26.8289   -1.1881  -12.1303 C   0  0  0  0  0  0  0  0  0  0  0  0
  -25.8709   -0.4558  -12.7081 N   0  0  0  0  0  0  0  0  0  0  0  0
  -22.8576   -0.7226  -13.4835 C   0  0  0  0  0  0  0  0  0  0  0  0
  -23.5232   -0.0811  -12.2810 C   0  0  0  0  0  0  0  0  0  0  0  0
  -29.4396   -4.1700   -6.3658 N   0  0  0  0  0  0  0  0  0  0  0  0
  -29.5943   -3.9556   -5.3815 H   0  0  0  0  0  0  0  0  0  0  0  0
  -29.0875   -5.5667   -6.6420 C   0  0  0  0  0  0  0  0  0  0  0  0
  -28.5595   -6.3895   -5.4169 C   0  0  0  0  0  0  0  0  0  0  0  0
  -29.5658   -7.5697   -5.3538 C   0  0  0  0  0  0  0  0  0  0  0  0
  -29.3772   -8.4091   -6.6017 C   0  0  0  0  0  0  0  0  0  0  0  0
  -29.8602   -7.6981   -7.6326 C   0  0  0  0  0  0  0  0  0  0  0  0
  -30.3496   -6.3768   -7.0713 C   0  0  0  0  0  0  0  0  0  0  0  0
  -30.8845   -6.8869   -5.7340 C   0  0  0  0  0  0  0  0  0  0  0  0
  -28.5037   -5.6564   -4.0905 C   0  0  0  0  0  0  0  0  0  0  0  0
  -29.2125   -6.2240   -3.0746 N   0  0  0  0  0  0  0  0  0  0  0  0
  -27.8579   -4.6344   -3.8885 O   0  0  0  0  0  0  0  0  0  0  0  0
  -29.7406   -7.0809   -3.1786 H   0  0  0  0  0  0  0  0  0  0  0  0
  -29.2165   -5.7497   -2.1810 H   0  0  0  0  0  0  0  0  0  0  0  0
 15 16  1  0  0  0
 16 10  1  0  0  0
 10 11  1  0  0  0
 10 14  1  0  0  0
 11 12  2  0  0  0
 12  8  1  0  0  0
 12 13  1  0  0  0
  8  1  1  0  0  0
  8  9  1  0  0  0
  1  2  1  0  0  0
  1  7  2  0  0  0
  2  3  2  0  0  0
  3  4  1  0  0  0
  4  5  1  0  0  0
  4  6  2  0  0  0
  6 17  1  0  0  0
  6  7  1  0  0  0
 17 18  1  0  0  0
 19 20  1  0  0  0
 19 24  1  0  0  0
 19 17  1  0  0  0
 20 26  1  0  0  0
 20 21  1  0  0  0
 26 27  1  0  0  0
 26 28  2  0  0  0
 27 29  1  0  0  0
 27 30  1  0  0  0
 21 22  1  0  0  0
 21 25  1  0  0  0
 22 23  2  0  0  0
 23 24  1  0  0  0
 24 25  1  0  0  0
 13 14  2  0  0  0
M  END
> <minimizedAffinity>
-8.67128

$$$$
