CHEMBL4435024


 34 37  0  0  0  0  0  0  0  0999 V2000
  -16.9422    2.0687  -15.8800 N   0  0  0  0  0  0  0  0  0  0  0  0
  -17.9813    2.8806  -15.4396 C   0  0  0  0  0  0  0  0  0  0  0  0
  -17.9092    4.0985  -15.2962 O   0  0  0  0  0  0  0  0  0  0  0  0
  -17.0821    1.0779  -16.0792 H   0  0  0  0  0  0  0  0  0  0  0  0
  -15.7552    0.8063  -13.6967 O   0  0  0  0  0  0  0  0  0  0  0  0
  -14.7709    1.3831  -14.1084 C   0  0  0  0  0  0  0  0  0  0  0  0
  -13.4786    1.3730  -13.6249 N   0  0  0  0  0  0  0  0  0  0  0  0
  -12.6581    2.1923  -14.3973 C   0  0  0  0  0  0  0  0  0  0  0  0
  -11.3102    2.4346  -14.2249 C   0  0  0  0  0  0  0  0  0  0  0  0
  -10.6965    3.3075  -15.1328 C   0  0  0  0  0  0  0  0  0  0  0  0
  -11.4379    3.9055  -16.1689 C   0  0  0  0  0  0  0  0  0  0  0  0
  -10.8146    4.7377  -17.0132 F   0  0  0  0  0  0  0  0  0  0  0  0
  -12.7956    3.6551  -16.3391 C   0  0  0  0  0  0  0  0  0  0  0  0
  -13.3747    2.7892  -15.4370 C   0  0  0  0  0  0  0  0  0  0  0  0
  -14.7476    2.3085  -15.3279 C   0  0  0  0  0  0  0  0  0  0  0  0
  -15.7144    2.6196  -16.1291 N   0  0  0  0  0  0  0  0  0  0  0  0
  -13.1910    0.8410  -12.8161 H   0  0  0  0  0  0  0  0  0  0  0  0
  -19.2764    2.1978  -15.1439 C   0  0  0  0  0  0  0  0  0  0  0  0
  -19.4021    0.8097  -15.1613 C   0  0  0  0  0  0  0  0  0  0  0  0
  -20.6299    0.2090  -14.8539 C   0  0  0  0  0  0  0  0  0  0  0  0
  -21.7546    0.9689  -14.5142 C   0  0  0  0  0  0  0  0  0  0  0  0
  -21.6211    2.3618  -14.4807 C   0  0  0  0  0  0  0  0  0  0  0  0
  -20.3918    2.9703  -14.7884 C   0  0  0  0  0  0  0  0  0  0  0  0
  -23.0199    0.4008  -14.2024 N   0  0  0  0  0  0  0  0  0  0  0  0
  -23.3219   -0.3112  -13.0516 C   0  0  0  0  0  0  0  0  0  0  0  0
  -22.5590   -0.5083  -12.1093 O   0  0  0  0  0  0  0  0  0  0  0  0
  -23.7610    0.5732  -14.8680 H   0  0  0  0  0  0  0  0  0  0  0  0
  -24.6921   -0.8898  -12.9161 C   0  0  0  0  0  0  0  0  0  0  0  0
  -25.4491   -0.8396  -11.7399 C   0  0  0  0  0  0  0  0  0  0  0  0
  -26.7722   -1.3076  -11.7438 C   0  0  0  0  0  0  0  0  0  0  0  0
  -27.3369   -1.8185  -12.9148 C   0  0  0  0  0  0  0  0  0  0  0  0
  -28.9740   -2.3459  -12.9222 Cl  0  0  0  0  0  0  0  0  0  0  0  0
  -26.5894   -1.8839  -14.0848 C   0  0  0  0  0  0  0  0  0  0  0  0
  -25.2733   -1.4220  -14.0825 C   0  0  0  0  0  0  0  0  0  0  0  0
  5  6  2  0  0  0
  6  7  1  0  0  0
  6 15  1  0  0  0
  7  8  1  0  0  0
  7 17  1  0  0  0
  8  9  1  0  0  0
  8 14  2  0  0  0
  9 10  2  0  0  0
 10 11  1  0  0  0
 11 12  1  0  0  0
 11 13  2  0  0  0
 13 14  1  0  0  0
 14 15  1  0  0  0
 15 16  2  0  0  0
 16  1  1  0  0  0
  1  2  1  0  0  0
  1  4  1  0  0  0
  2  3  2  0  0  0
  2 18  1  0  0  0
 18 19  1  0  0  0
 18 23  2  0  0  0
 19 20  2  0  0  0
 20 21  1  0  0  0
 21 24  1  0  0  0
 21 22  2  0  0  0
 24 25  1  0  0  0
 24 27  1  0  0  0
 25 26  2  0  0  0
 25 28  1  0  0  0
 28 29  1  0  0  0
 28 34  2  0  0  0
 29 30  2  0  0  0
 30 31  1  0  0  0
 31 32  1  0  0  0
 31 33  2  0  0  0
 33 34  1  0  0  0
 22 23  1  0  0  0
M  END
> <minimizedAffinity>
-9.49489

$$$$
