CHEMBL1973720


 28 31  0  0  0  0  0  0  0  0999 V2000
  -30.2187   -3.7257   -5.4832 C   0  0  0  0  0  0  0  0  0  0  0  0
  -30.9306   -3.9710   -4.3873 N   0  0  0  0  0  0  0  0  0  0  0  0
  -31.2897   -5.2473   -4.1943 C   0  0  0  0  0  0  0  0  0  0  0  0
  -32.1814   -5.5159   -2.7513 Cl  0  0  0  0  0  0  0  0  0  0  0  0
  -30.9929   -6.2842   -5.0338 C   0  0  0  0  0  0  0  0  0  0  0  0
  -30.2459   -5.9335   -6.1323 C   0  0  0  0  0  0  0  0  0  0  0  0
  -29.8407   -4.6706   -6.3541 N   0  0  0  0  0  0  0  0  0  0  0  0
  -29.8504   -6.9289   -7.1226 C   0  0  0  0  0  0  0  0  0  0  0  0
  -28.6963   -6.8273   -7.8886 C   0  0  0  0  0  0  0  0  0  0  0  0
  -28.6241   -7.9259   -8.7053 N   0  0  0  0  0  0  0  0  0  0  0  0
  -29.7017   -8.7343   -8.4959 C   0  0  0  0  0  0  0  0  0  0  0  0
  -29.9075   -9.8928   -9.1465 N   0  0  0  0  0  0  0  0  0  0  0  0
  -31.0517  -10.5068   -8.7715 C   0  0  0  0  0  0  0  0  0  0  0  0
  -31.9499  -10.0382   -7.8236 C   0  0  0  0  0  0  0  0  0  0  0  0
  -31.6804   -8.8301   -7.1735 C   0  0  0  0  0  0  0  0  0  0  0  0
  -30.5033   -8.1420   -7.5239 C   0  0  0  0  0  0  0  0  0  0  0  0
  -27.8975   -8.1287   -9.3768 H   0  0  0  0  0  0  0  0  0  0  0  0
  -29.7977   -2.4344   -5.7628 N   0  0  0  0  0  0  0  0  0  0  0  0
  -30.0498   -2.2723   -6.7289 H   0  0  0  0  0  0  0  0  0  0  0  0
  -29.0865    1.8671   -6.9818 N   0  0  0  0  0  0  0  0  0  0  0  0
  -28.3549    0.7412   -6.3987 C   0  0  0  0  0  0  0  0  0  0  0  0
  -28.9733    0.3465   -5.0533 C   0  0  0  0  0  0  0  0  0  0  0  0
  -28.3083   -0.9091   -4.4880 C   0  0  0  0  0  0  0  0  0  0  0  0
  -28.4017   -2.0949   -5.4655 C   0  0  0  0  0  0  0  0  0  0  0  0
  -27.7133   -1.6931   -6.7826 C   0  0  0  0  0  0  0  0  0  0  0  0
  -28.3247   -0.4268   -7.3934 C   0  0  0  0  0  0  0  0  0  0  0  0
  -29.1640    2.6143   -6.2931 H   0  0  0  0  0  0  0  0  0  0  0  0
  -30.0461    1.5750   -7.1757 H   0  0  0  0  0  0  0  0  0  0  0  0
 20 21  1  0  0  0
 20 27  1  0  0  0
 20 28  1  0  0  0
 21 22  1  0  0  0
 21 26  1  0  0  0
 22 23  1  0  0  0
 23 24  1  0  0  0
 24 18  1  0  0  0
 24 25  1  0  0  0
 18  1  1  0  0  0
 18 19  1  0  0  0
  1  2  1  0  0  0
  1  7  2  0  0  0
  2  3  2  0  0  0
  3  4  1  0  0  0
  3  5  1  0  0  0
  5  6  2  0  0  0
  6  8  1  0  0  0
  6  7  1  0  0  0
  8  9  2  0  0  0
  8 16  1  0  0  0
  9 10  1  0  0  0
 10 11  1  0  0  0
 10 17  1  0  0  0
 11 12  1  0  0  0
 11 16  2  0  0  0
 12 13  2  0  0  0
 13 14  1  0  0  0
 14 15  2  0  0  0
 15 16  1  0  0  0
 25 26  1  0  0  0
M  END
> <minimizedAffinity>
-8.95853

$$$$
