CHEMBL271864


 43 48  0  0  0  0  0  0  0  0999 V2000
  -29.8318   -8.4623   -5.7488 C   0  0  0  0  0  0  0  0  0  0  0  0
  -30.6573   -7.2972   -5.9842 C   0  0  0  0  0  0  0  0  0  0  0  0
  -31.6387   -7.6418   -6.8796 C   0  0  0  0  0  0  0  0  0  0  0  0
  -31.4193   -8.9233   -7.2712 N   0  0  0  0  0  0  0  0  0  0  0  0
  -32.1707   -9.5513   -8.1848 N   0  0  0  0  0  0  0  0  0  0  0  0
  -31.7702  -10.7469   -8.4601 C   0  0  0  0  0  0  0  0  0  0  0  0
  -30.7006  -11.3882   -7.9090 N   0  0  0  0  0  0  0  0  0  0  0  0
  -29.9758  -10.8016   -6.9977 C   0  0  0  0  0  0  0  0  0  0  0  0
  -30.3321   -9.4496   -6.6164 C   0  0  0  0  0  0  0  0  0  0  0  0
  -30.5602   -5.9123   -5.4238 C   0  0  0  0  0  0  0  0  0  0  0  0
  -31.1181   -5.4993   -4.3030 N   0  0  0  0  0  0  0  0  0  0  0  0
  -30.7390   -4.1863   -4.1255 N   0  0  0  0  0  0  0  0  0  0  0  0
  -29.9662   -3.8750   -5.1438 C   0  0  0  0  0  0  0  0  0  0  0  0
  -29.8215   -4.9173   -6.0148 O   0  0  0  0  0  0  0  0  0  0  0  0
  -29.3649   -2.7047   -5.4584 N   0  0  0  0  0  0  0  0  0  0  0  0
  -28.9639   -2.4798   -6.8423 C   0  0  0  0  0  0  0  0  0  0  0  0
  -27.6947   -1.6262   -6.8599 C   0  0  0  0  0  0  0  0  0  0  0  0
  -27.8201   -0.3431   -6.0246 C   0  0  0  0  0  0  0  0  0  0  0  0
  -28.6291    0.6763   -6.7003 N   0  0  0  0  0  0  0  0  0  0  0  0
  -28.3808   -0.6479   -4.6295 C   0  0  0  0  0  0  0  0  0  0  0  0
  -29.6439   -1.5028   -4.6795 C   0  0  0  0  0  0  0  0  0  0  0  0
  -29.5650    0.3292   -6.9015 H   0  0  0  0  0  0  0  0  0  0  0  0
  -28.2101    0.9033   -7.6024 H   0  0  0  0  0  0  0  0  0  0  0  0
  -27.5706   -7.5473   -5.1588 C   0  0  0  0  0  0  0  0  0  0  0  0
  -28.7129   -8.4671   -4.7185 C   0  0  0  0  0  0  0  0  0  0  0  0
  -29.0814   -8.2294   -3.2615 C   0  0  0  0  0  0  0  0  0  0  0  0
  -28.9319  -11.5008   -6.4375 N   0  0  0  0  0  0  0  0  0  0  0  0
  -29.2037  -12.3905   -6.0330 H   0  0  0  0  0  0  0  0  0  0  0  0
  -27.5852  -11.4802   -6.8754 C   0  0  0  0  0  0  0  0  0  0  0  0
  -26.5254  -11.0307   -6.0692 C   0  0  0  0  0  0  0  0  0  0  0  0
  -25.1897  -11.0746   -6.5197 C   0  0  0  0  0  0  0  0  0  0  0  0
  -24.9320  -11.5805   -7.7964 C   0  0  0  0  0  0  0  0  0  0  0  0
  -23.6816  -11.6415   -8.2782 F   0  0  0  0  0  0  0  0  0  0  0  0
  -25.9615  -12.0466   -8.6066 C   0  0  0  0  0  0  0  0  0  0  0  0
  -27.2709  -12.0022   -8.1345 C   0  0  0  0  0  0  0  0  0  0  0  0
  -28.2564  -12.4654   -8.9179 F   0  0  0  0  0  0  0  0  0  0  0  0
  -24.1104  -10.5866   -5.6103 C   0  0  0  0  0  0  0  0  0  0  0  0
  -23.4962   -9.5609   -5.8993 O   0  0  0  0  0  0  0  0  0  0  0  0
  -23.8436  -11.3258   -4.4715 N   0  0  0  0  0  0  0  0  0  0  0  0
  -24.3690  -12.1761   -4.2961 H   0  0  0  0  0  0  0  0  0  0  0  0
  -22.8011  -10.9811   -3.5545 C   0  0  0  0  0  0  0  0  0  0  0  0
  -21.6238  -11.8988   -3.3575 C   0  0  0  0  0  0  0  0  0  0  0  0
  -22.6301  -11.7251   -2.2591 C   0  0  0  0  0  0  0  0  0  0  0  0
 24 25  1  0  0  0
 25 26  1  0  0  0
 25  1  1  0  0  0
  1  2  1  0  0  0
  1  9  2  0  0  0
  2 10  1  0  0  0
  2  3  2  0  0  0
 10 11  2  0  0  0
 10 14  1  0  0  0
 11 12  1  0  0  0
 12 13  2  0  0  0
 13 15  1  0  0  0
 13 14  1  0  0  0
 15 16  1  0  0  0
 15 21  1  0  0  0
 16 17  1  0  0  0
 17 18  1  0  0  0
 18 19  1  0  0  0
 18 20  1  0  0  0
 19 22  1  0  0  0
 19 23  1  0  0  0
 20 21  1  0  0  0
  3  4  1  0  0  0
  4  5  1  0  0  0
  4  9  1  0  0  0
  5  6  2  0  0  0
  6  7  1  0  0  0
  7  8  2  0  0  0
  8 27  1  0  0  0
  8  9  1  0  0  0
 27 29  1  0  0  0
 27 28  1  0  0  0
 29 30  1  0  0  0
 29 35  2  0  0  0
 30 31  2  0  0  0
 31 37  1  0  0  0
 31 32  1  0  0  0
 37 38  2  0  0  0
 37 39  1  0  0  0
 39 41  1  0  0  0
 39 40  1  0  0  0
 41 42  1  0  0  0
 41 43  1  0  0  0
 42 43  1  0  0  0
 32 33  1  0  0  0
 32 34  2  0  0  0
 34 35  1  0  0  0
 35 36  1  0  0  0
M  END
> <minimizedAffinity>
-8.65987

$$$$
