CHEMBL3671500


 35 37  0  0  0  0  0  0  0  0999 V2000
  -17.8776    1.0269  -14.9965 C   0  0  0  0  0  0  0  0  0  0  0  0
  -19.1834    0.6115  -14.7243 C   0  0  0  0  0  0  0  0  0  0  0  0
  -20.2387    1.5271  -14.5838 C   0  0  0  0  0  0  0  0  0  0  0  0
  -21.5572    1.1493  -14.2843 C   0  0  0  0  0  0  0  0  0  0  0  0
  -22.5489    2.0469  -14.1966 N   0  0  0  0  0  0  0  0  0  0  0  0
  -22.1975    3.3303  -14.3490 C   0  0  0  0  0  0  0  0  0  0  0  0
  -20.9697    3.7960  -14.6259 N   0  0  0  0  0  0  0  0  0  0  0  0
  -19.9950    2.8895  -14.7524 C   0  0  0  0  0  0  0  0  0  0  0  0
  -18.6930    3.2909  -15.0716 C   0  0  0  0  0  0  0  0  0  0  0  0
  -17.6271    2.3831  -15.2357 C   0  0  0  0  0  0  0  0  0  0  0  0
  -16.0928   -0.0766  -13.7976 C   0  0  0  0  0  0  0  0  0  0  0  0
  -16.2439    0.5525  -12.7564 O   0  0  0  0  0  0  0  0  0  0  0  0
  -16.8897    0.0281  -14.9246 N   0  0  0  0  0  0  0  0  0  0  0  0
  -16.5614   -0.4023  -15.7685 H   0  0  0  0  0  0  0  0  0  0  0  0
  -14.7830   -2.0305  -13.1431 C   0  0  0  0  0  0  0  0  0  0  0  0
  -14.9466   -1.0036  -13.9872 C   0  0  0  0  0  0  0  0  0  0  0  0
  -21.8444   -0.2146  -14.0612 N   0  0  0  0  0  0  0  0  0  0  0  0
  -20.9968   -0.7781  -14.0446 H   0  0  0  0  0  0  0  0  0  0  0  0
  -22.9221   -0.7929  -13.3657 C   0  0  0  0  0  0  0  0  0  0  0  0
  -22.8353   -1.1262  -12.0096 C   0  0  0  0  0  0  0  0  0  0  0  0
  -23.9710   -1.5202  -11.2958 C   0  0  0  0  0  0  0  0  0  0  0  0
  -25.2052   -1.5939  -11.9391 C   0  0  0  0  0  0  0  0  0  0  0  0
  -26.7533   -2.0251  -10.9464 Br  0  0  0  0  0  0  0  0  0  0  0  0
  -25.3100   -1.3106  -13.2968 C   0  0  0  0  0  0  0  0  0  0  0  0
  -24.1732   -0.9066  -13.9910 C   0  0  0  0  0  0  0  0  0  0  0  0
  -24.2891   -0.5933  -15.2916 F   0  0  0  0  0  0  0  0  0  0  0  0
  -16.4153    2.9879  -15.4504 O   0  0  0  0  0  0  0  0  0  0  0  0
  -16.1397    3.4294  -16.7770 C   0  0  0  0  0  0  0  0  0  0  0  0
  -15.0091    4.4726  -16.8047 C   0  0  0  0  0  0  0  0  0  0  0  0
  -14.5412    4.7878  -15.4469 N   0  0  0  0  0  0  0  0  0  0  0  0
  -15.1952    4.4200  -14.7542 H   0  0  0  0  0  0  0  0  0  0  0  0
  -13.2112    4.2253  -15.1949 C   0  0  0  0  0  0  0  0  0  0  0  0
  -12.2166    5.3622  -15.0010 C   0  0  0  0  0  0  0  0  0  0  0  0
  -10.8871    5.0345  -14.3725 C   0  0  0  0  0  0  0  0  0  0  0  0
  -12.4922    6.5171  -15.3352 O   0  0  0  0  0  0  0  0  0  0  0  0
 15 16  2  0  0  0
 16 11  1  0  0  0
 11 12  2  0  0  0
 11 13  1  0  0  0
 13  1  1  0  0  0
 13 14  1  0  0  0
  1  2  1  0  0  0
  1 10  2  0  0  0
  2  3  2  0  0  0
  3  4  1  0  0  0
  3  8  1  0  0  0
  4 17  1  0  0  0
  4  5  2  0  0  0
 17 19  1  0  0  0
 17 18  1  0  0  0
 19 20  1  0  0  0
 19 25  2  0  0  0
 20 21  2  0  0  0
 21 22  1  0  0  0
 22 23  1  0  0  0
 22 24  2  0  0  0
 24 25  1  0  0  0
 25 26  1  0  0  0
  5  6  1  0  0  0
  6  7  2  0  0  0
  7  8  1  0  0  0
  8  9  2  0  0  0
  9 10  1  0  0  0
 10 27  1  0  0  0
 27 28  1  0  0  0
 28 29  1  0  0  0
 29 30  1  0  0  0
 30 32  1  0  0  0
 30 31  1  0  0  0
 32 33  1  0  0  0
 33 34  1  0  0  0
 33 35  2  0  0  0
M  END
> <minimizedAffinity>
-8.83914

$$$$
