CHEMBL404401


 37 41  0  0  0  0  0  0  0  0999 V2000
  -28.4404   -9.3883   -7.6861 C   0  0  0  0  0  0  0  0  0  0  0  0
  -27.5932   -9.9663   -6.7778 C   0  0  0  0  0  0  0  0  0  0  0  0
  -27.8767   -9.4530   -5.5515 N   0  0  0  0  0  0  0  0  0  0  0  0
  -27.1880   -9.7645   -4.4462 N   0  0  0  0  0  0  0  0  0  0  0  0
  -27.6406   -9.2102   -3.3723 C   0  0  0  0  0  0  0  0  0  0  0  0
  -28.7227   -8.3892   -3.2837 N   0  0  0  0  0  0  0  0  0  0  0  0
  -29.3993   -8.0582   -4.3522 C   0  0  0  0  0  0  0  0  0  0  0  0
  -28.9475   -8.5877   -5.6232 C   0  0  0  0  0  0  0  0  0  0  0  0
  -29.3360   -8.4970   -6.9722 C   0  0  0  0  0  0  0  0  0  0  0  0
  -27.8319   -9.6909  -11.2107 C   0  0  0  0  0  0  0  0  0  0  0  0
  -28.8845  -10.4686  -11.1129 N   0  0  0  0  0  0  0  0  0  0  0  0
  -29.2293  -10.4829   -9.7831 N   0  0  0  0  0  0  0  0  0  0  0  0
  -28.3785   -9.6986   -9.1504 C   0  0  0  0  0  0  0  0  0  0  0  0
  -27.4426   -9.1693  -10.0125 O   0  0  0  0  0  0  0  0  0  0  0  0
  -27.7697   -9.4633  -13.5754 C   0  0  0  0  0  0  0  0  0  0  0  0
  -27.1297   -9.3008  -12.2882 N   0  0  0  0  0  0  0  0  0  0  0  0
  -26.5925   -8.4502  -12.1752 H   0  0  0  0  0  0  0  0  0  0  0  0
  -30.4608   -7.7582   -7.6818 C   0  0  0  0  0  0  0  0  0  0  0  0
  -31.8285   -8.3133   -7.2763 C   0  0  0  0  0  0  0  0  0  0  0  0
  -30.4606   -6.2385   -7.6424 C   0  0  0  0  0  0  0  0  0  0  0  0
  -30.4794   -7.2137   -4.2053 N   0  0  0  0  0  0  0  0  0  0  0  0
  -31.2565   -7.4769   -4.8034 H   0  0  0  0  0  0  0  0  0  0  0  0
  -30.3679   -5.7994   -4.1203 C   0  0  0  0  0  0  0  0  0  0  0  0
  -29.3855   -5.0878   -4.8226 C   0  0  0  0  0  0  0  0  0  0  0  0
  -29.2709   -3.6882   -4.7125 C   0  0  0  0  0  0  0  0  0  0  0  0
  -30.1506   -3.0092   -3.8674 C   0  0  0  0  0  0  0  0  0  0  0  0
  -30.0863   -1.6764   -3.7292 F   0  0  0  0  0  0  0  0  0  0  0  0
  -31.1227   -3.6949   -3.1427 C   0  0  0  0  0  0  0  0  0  0  0  0
  -31.2172   -5.0769   -3.2689 C   0  0  0  0  0  0  0  0  0  0  0  0
  -32.1587   -5.7317   -2.5726 F   0  0  0  0  0  0  0  0  0  0  0  0
  -28.2184   -3.0091   -5.5209 C   0  0  0  0  0  0  0  0  0  0  0  0
  -27.1484   -2.7183   -4.9932 O   0  0  0  0  0  0  0  0  0  0  0  0
  -28.4933   -2.7449   -6.8493 N   0  0  0  0  0  0  0  0  0  0  0  0
  -29.3789   -3.0395   -7.2484 H   0  0  0  0  0  0  0  0  0  0  0  0
  -27.5098   -2.1847   -7.7228 C   0  0  0  0  0  0  0  0  0  0  0  0
  -27.8445   -1.0389   -8.6371 C   0  0  0  0  0  0  0  0  0  0  0  0
  -27.5889   -2.4028   -9.2083 C   0  0  0  0  0  0  0  0  0  0  0  0
 15 16  1  0  0  0
 16 10  1  0  0  0
 16 17  1  0  0  0
 10 11  2  0  0  0
 10 14  1  0  0  0
 11 12  1  0  0  0
 12 13  2  0  0  0
 13  1  1  0  0  0
 13 14  1  0  0  0
  1  2  2  0  0  0
  1  9  1  0  0  0
  2  3  1  0  0  0
  3  4  1  0  0  0
  3  8  1  0  0  0
  4  5  2  0  0  0
  5  6  1  0  0  0
  6  7  2  0  0  0
  7 21  1  0  0  0
  7  8  1  0  0  0
 21 23  1  0  0  0
 21 22  1  0  0  0
 23 24  1  0  0  0
 23 29  2  0  0  0
 24 25  2  0  0  0
 25 31  1  0  0  0
 25 26  1  0  0  0
 31 32  2  0  0  0
 31 33  1  0  0  0
 33 35  1  0  0  0
 33 34  1  0  0  0
 35 36  1  0  0  0
 35 37  1  0  0  0
 36 37  1  0  0  0
 26 27  1  0  0  0
 26 28  2  0  0  0
 28 29  1  0  0  0
 29 30  1  0  0  0
  8  9  2  0  0  0
  9 18  1  0  0  0
 18 19  1  0  0  0
 18 20  1  0  0  0
M  END
> <minimizedAffinity>
-8.47829

$$$$
