CHEMBL4757787


 43 46  0  0  0  0  0  0  0  0999 V2000
  -14.7114   -2.2866  -12.8016 C   0  0  0  0  0  0  0  0  0  0  0  0
  -16.0299   -2.0751  -12.5564 N   0  0  0  0  0  0  0  0  0  0  0  0
  -14.2126   -1.4324  -13.6505 N   0  0  0  0  0  0  0  0  0  0  0  0
  -16.3542   -2.1732  -11.5998 H   0  0  0  0  0  0  0  0  0  0  0  0
  -16.3662   -1.2374  -13.0180 H   0  0  0  0  0  0  0  0  0  0  0  0
  -13.0316   -1.6863  -14.3412 N   0  0  0  0  0  0  0  0  0  0  0  0
  -12.7871   -0.5957  -15.0197 C   0  0  0  0  0  0  0  0  0  0  0  0
  -13.2124    0.8156  -14.5725 C   0  0  0  0  0  0  0  0  0  0  0  0
  -12.8952    1.3502  -13.5360 O   0  0  0  0  0  0  0  0  0  0  0  0
  -13.9806    1.2883  -15.6182 N   0  0  0  0  0  0  0  0  0  0  0  0
  -13.7843    0.4843  -16.7539 C   0  0  0  0  0  0  0  0  0  0  0  0
  -14.3505    0.6197  -18.0056 C   0  0  0  0  0  0  0  0  0  0  0  0
  -13.9535   -0.2827  -18.9971 C   0  0  0  0  0  0  0  0  0  0  0  0
  -13.0120   -1.2959  -18.7210 C   0  0  0  0  0  0  0  0  0  0  0  0
  -12.5222   -2.3456  -19.9945 Cl  0  0  0  0  0  0  0  0  0  0  0  0
  -12.4889   -1.4747  -17.4395 C   0  0  0  0  0  0  0  0  0  0  0  0
  -12.8920   -0.5685  -16.4813 C   0  0  0  0  0  0  0  0  0  0  0  0
  -14.7978    2.4732  -15.5424 C   0  0  0  0  0  0  0  0  0  0  0  0
  -16.2792    2.1758  -15.4450 C   0  0  0  0  0  0  0  0  0  0  0  0
  -16.7420    0.9199  -15.0232 C   0  0  0  0  0  0  0  0  0  0  0  0
  -18.1103    0.6557  -14.9198 C   0  0  0  0  0  0  0  0  0  0  0  0
  -19.0388    1.6503  -15.2284 C   0  0  0  0  0  0  0  0  0  0  0  0
  -18.5963    2.9076  -15.6313 C   0  0  0  0  0  0  0  0  0  0  0  0
  -17.2262    3.1700  -15.7358 C   0  0  0  0  0  0  0  0  0  0  0  0
  -13.9049   -3.6685  -12.1270 S   0  0  0  0  0  0  0  0  0  0  0  0
  -15.0575   -4.3599  -11.0223 C   0  0  0  0  0  0  0  0  0  0  0  0
  -16.1021   -5.1182  -11.1960 N   0  0  0  0  0  0  0  0  0  0  0  0
  -14.5541   -4.0587   -9.5967 C   0  0  0  0  0  0  0  0  0  0  0  0
  -14.3760   -2.9471   -9.1350 O   0  0  0  0  0  0  0  0  0  0  0  0
  -14.2023   -5.2281   -8.9978 O   0  0  0  0  0  0  0  0  0  0  0  0
  -11.7856   -5.4627   -9.2768 C   0  0  0  0  0  0  0  0  0  0  0  0
  -12.9383   -5.2369   -8.3103 C   0  0  0  0  0  0  0  0  0  0  0  0
  -16.3896   -5.5536  -12.4433 N   0  0  0  0  0  0  0  0  0  0  0  0
  -17.3275   -5.4416  -12.8390 H   0  0  0  0  0  0  0  0  0  0  0  0
  -15.5375   -6.4379  -13.1232 C   0  0  0  0  0  0  0  0  0  0  0  0
  -14.8584   -7.4928  -12.4932 C   0  0  0  0  0  0  0  0  0  0  0  0
  -13.9486   -8.2920  -13.2028 C   0  0  0  0  0  0  0  0  0  0  0  0
  -13.6942   -8.0191  -14.5527 C   0  0  0  0  0  0  0  0  0  0  0  0
  -14.3536   -6.9676  -15.1950 C   0  0  0  0  0  0  0  0  0  0  0  0
  -15.2654   -6.1883  -14.4766 C   0  0  0  0  0  0  0  0  0  0  0  0
  -12.7256   -8.8281  -15.3016 N   0  0  0  0  0  0  0  0  0  0  0  0
  -12.6418  -10.0333  -15.0228 O   0  0  0  0  0  0  0  0  0  0  0  0
  -12.0445   -8.2596  -16.1684 O   0  0  0  0  0  0  0  0  0  0  0  0
 31 32  1  0  0  0
 32 30  1  0  0  0
 30 28  1  0  0  0
 28 29  2  0  0  0
 28 26  1  0  0  0
 26 27  2  0  0  0
 26 25  1  0  0  0
 27 33  1  0  0  0
 33 35  1  0  0  0
 33 34  1  0  0  0
 35 36  1  0  0  0
 35 40  2  0  0  0
 36 37  2  0  0  0
 37 38  1  0  0  0
 38 41  1  0  0  0
 38 39  2  0  0  0
 41 42  2  0  0  0
 41 43  1  0  0  0
 39 40  1  0  0  0
 25  1  1  0  0  0
  1  2  1  0  0  0
  1  3  2  0  0  0
  2  4  1  0  0  0
  2  5  1  0  0  0
  3  6  1  0  0  0
  6  7  2  0  0  0
  7  8  1  0  0  0
  7 17  1  0  0  0
  8  9  2  0  0  0
  8 10  1  0  0  0
 10 18  1  0  0  0
 10 11  1  0  0  0
 18 19  1  0  0  0
 19 20  1  0  0  0
 19 24  2  0  0  0
 20 21  2  0  0  0
 21 22  1  0  0  0
 22 23  2  0  0  0
 23 24  1  0  0  0
 11 12  1  0  0  0
 11 17  2  0  0  0
 12 13  2  0  0  0
 13 14  1  0  0  0
 14 15  1  0  0  0
 14 16  2  0  0  0
 16 17  1  0  0  0
M  CHG 1  41   1
M  CHG 1  43  -1
M  END
> <minimizedAffinity>
-8.33805

$$$$
