CHEMBL1972355


 26 29  0  0  0  0  0  0  0  0999 V2000
  -15.3427    1.3017  -14.9470 C   0  0  0  0  0  0  0  0  0  0  0  0
  -14.6535    0.4590  -14.0328 C   0  0  0  0  0  0  0  0  0  0  0  0
  -13.3608    0.8764  -13.6215 C   0  0  0  0  0  0  0  0  0  0  0  0
  -12.5688    0.1049  -12.8024 O   0  0  0  0  0  0  0  0  0  0  0  0
  -12.7863    2.0741  -14.0136 C   0  0  0  0  0  0  0  0  0  0  0  0
  -13.4724    2.8945  -14.8888 C   0  0  0  0  0  0  0  0  0  0  0  0
  -12.8062    4.0437  -15.2319 O   0  0  0  0  0  0  0  0  0  0  0  0
  -13.3895    4.8986  -16.1438 C   0  0  0  0  0  0  0  0  0  0  0  0
  -12.5478    6.0858  -16.4959 C   0  0  0  0  0  0  0  0  0  0  0  0
  -14.5992    4.6935  -16.6767 C   0  0  0  0  0  0  0  0  0  0  0  0
  -15.3870    3.5001  -16.2924 C   0  0  0  0  0  0  0  0  0  0  0  0
  -16.5250    3.3938  -16.7336 O   0  0  0  0  0  0  0  0  0  0  0  0
  -14.7321    2.5232  -15.3717 C   0  0  0  0  0  0  0  0  0  0  0  0
  -12.4807   -0.7605  -13.2478 H   0  0  0  0  0  0  0  0  0  0  0  0
  -15.1812   -0.7748  -13.4037 C   0  0  0  0  0  0  0  0  0  0  0  0
  -15.3477   -1.0841  -12.1316 N   0  0  0  0  0  0  0  0  0  0  0  0
  -15.7521   -2.4040  -12.0959 C   0  0  0  0  0  0  0  0  0  0  0  0
  -15.9592   -3.2738  -11.0132 C   0  0  0  0  0  0  0  0  0  0  0  0
  -16.3678   -4.5919  -11.2781 C   0  0  0  0  0  0  0  0  0  0  0  0
  -16.5992   -5.0249  -12.5866 C   0  0  0  0  0  0  0  0  0  0  0  0
  -16.4016   -4.1711  -13.6744 C   0  0  0  0  0  0  0  0  0  0  0  0
  -15.9514   -2.8848  -13.3796 C   0  0  0  0  0  0  0  0  0  0  0  0
  -15.5817   -1.8450  -14.1821 N   0  0  0  0  0  0  0  0  0  0  0  0
  -15.5871   -1.8412  -15.1917 H   0  0  0  0  0  0  0  0  0  0  0  0
  -17.7478    0.9825  -14.8219 C   0  0  0  0  0  0  0  0  0  0  0  0
  -16.5400    1.0472  -15.5588 O   0  0  0  0  0  0  0  0  0  0  0  0
 25 26  1  0  0  0
 26  1  1  0  0  0
  1  2  1  0  0  0
  1 13  2  0  0  0
  2 15  1  0  0  0
  2  3  2  0  0  0
 15 16  2  0  0  0
 15 23  1  0  0  0
 16 17  1  0  0  0
 17 18  1  0  0  0
 17 22  2  0  0  0
 18 19  2  0  0  0
 19 20  1  0  0  0
 20 21  2  0  0  0
 21 22  1  0  0  0
 22 23  1  0  0  0
 23 24  1  0  0  0
  3  4  1  0  0  0
  3  5  1  0  0  0
  4 14  1  0  0  0
  5  6  2  0  0  0
  6  7  1  0  0  0
  6 13  1  0  0  0
  7  8  1  0  0  0
  8  9  1  0  0  0
  8 10  2  0  0  0
 10 11  1  0  0  0
 11 12  2  0  0  0
 11 13  1  0  0  0
M  END
> <minimizedAffinity>
-7.78580

$$$$
