CHEMBL3671554


 36 38  0  0  0  0  0  0  0  0999 V2000
  -13.8442   -3.0752  -12.7333 C   0  0  0  0  0  0  0  0  0  0  0  0
  -14.2658   -1.8814  -13.3180 C   0  0  0  0  0  0  0  0  0  0  0  0
  -13.8488   -1.5420  -14.6207 C   0  0  0  0  0  0  0  0  0  0  0  0
  -14.0892   -0.3009  -15.2250 C   0  0  0  0  0  0  0  0  0  0  0  0
  -13.6568   -0.0319  -16.4698 N   0  0  0  0  0  0  0  0  0  0  0  0
  -12.9675   -0.9784  -17.0992 C   0  0  0  0  0  0  0  0  0  0  0  0
  -12.6401   -2.1745  -16.5943 N   0  0  0  0  0  0  0  0  0  0  0  0
  -13.0679   -2.4408  -15.3588 C   0  0  0  0  0  0  0  0  0  0  0  0
  -12.6893   -3.6430  -14.7659 C   0  0  0  0  0  0  0  0  0  0  0  0
  -13.0761   -3.9869  -13.4663 C   0  0  0  0  0  0  0  0  0  0  0  0
  -15.1915   -3.8919  -10.8628 C   0  0  0  0  0  0  0  0  0  0  0  0
  -15.1902   -4.3227   -9.7129 O   0  0  0  0  0  0  0  0  0  0  0  0
  -14.0815   -3.2501  -11.3611 N   0  0  0  0  0  0  0  0  0  0  0  0
  -13.2797   -3.4894  -10.7875 H   0  0  0  0  0  0  0  0  0  0  0  0
  -16.8242   -5.3204  -11.9650 C   0  0  0  0  0  0  0  0  0  0  0  0
  -16.3443   -4.0846  -11.7800 C   0  0  0  0  0  0  0  0  0  0  0  0
  -14.7358    0.7315  -14.4966 N   0  0  0  0  0  0  0  0  0  0  0  0
  -14.6023    0.6109  -13.4962 H   0  0  0  0  0  0  0  0  0  0  0  0
  -16.0225    1.2314  -14.8030 C   0  0  0  0  0  0  0  0  0  0  0  0
  -17.1754    0.4969  -14.4908 C   0  0  0  0  0  0  0  0  0  0  0  0
  -18.4447    1.0388  -14.6965 C   0  0  0  0  0  0  0  0  0  0  0  0
  -18.5683    2.3135  -15.2445 C   0  0  0  0  0  0  0  0  0  0  0  0
  -20.2845    3.0811  -15.4319 Br  0  0  0  0  0  0  0  0  0  0  0  0
  -17.4394    3.0318  -15.6313 C   0  0  0  0  0  0  0  0  0  0  0  0
  -16.1797    2.4798  -15.4173 C   0  0  0  0  0  0  0  0  0  0  0  0
  -15.0908    3.1798  -15.7735 F   0  0  0  0  0  0  0  0  0  0  0  0
  -12.5834   -5.1850  -13.0068 O   0  0  0  0  0  0  0  0  0  0  0  0
  -13.4748   -6.2944  -13.1468 C   0  0  0  0  0  0  0  0  0  0  0  0
  -13.5205   -7.1305  -11.8707 C   0  0  0  0  0  0  0  0  0  0  0  0
  -12.2826   -6.9558  -10.9967 C   0  0  0  0  0  0  0  0  0  0  0  0
  -12.5477   -5.9078  -10.0046 N   0  0  0  0  0  0  0  0  0  0  0  0
  -12.8240   -6.3439   -9.1219 H   0  0  0  0  0  0  0  0  0  0  0  0
  -11.3464   -5.0962   -9.7737 C   0  0  0  0  0  0  0  0  0  0  0  0
  -11.6853   -3.9348   -8.8494 C   0  0  0  0  0  0  0  0  0  0  0  0
  -11.7937   -4.2162   -7.3727 C   0  0  0  0  0  0  0  0  0  0  0  0
  -11.8858   -2.8010   -9.2915 O   0  0  0  0  0  0  0  0  0  0  0  0
 15 16  2  0  0  0
 16 11  1  0  0  0
 11 12  2  0  0  0
 11 13  1  0  0  0
 13  1  1  0  0  0
 13 14  1  0  0  0
  1  2  1  0  0  0
  1 10  2  0  0  0
  2  3  2  0  0  0
  3  4  1  0  0  0
  3  8  1  0  0  0
  4 17  1  0  0  0
  4  5  2  0  0  0
 17 19  1  0  0  0
 17 18  1  0  0  0
 19 20  1  0  0  0
 19 25  2  0  0  0
 20 21  2  0  0  0
 21 22  1  0  0  0
 22 23  1  0  0  0
 22 24  2  0  0  0
 24 25  1  0  0  0
 25 26  1  0  0  0
  5  6  1  0  0  0
  6  7  2  0  0  0
  7  8  1  0  0  0
  8  9  2  0  0  0
  9 10  1  0  0  0
 10 27  1  0  0  0
 27 28  1  0  0  0
 28 29  1  0  0  0
 29 30  1  0  0  0
 30 31  1  0  0  0
 31 33  1  0  0  0
 31 32  1  0  0  0
 33 34  1  0  0  0
 34 35  1  0  0  0
 34 36  2  0  0  0
M  END
> <minimizedAffinity>
-7.13678

$$$$
