CHEMBL497114


 25 28  0  0  0  0  0  0  0  0999 V2000
  -15.6714    1.0141  -14.2544 C   0  0  0  0  0  0  0  0  0  0  0  0
  -16.5693    1.8259  -14.9526 C   0  0  0  0  0  0  0  0  0  0  0  0
  -15.9054    2.7051  -15.8015 N   0  0  0  0  0  0  0  0  0  0  0  0
  -14.6529    2.3868  -15.6452 C   0  0  0  0  0  0  0  0  0  0  0  0
  -13.1567    2.9443  -16.3286 S   0  0  0  0  0  0  0  0  0  0  0  0
  -12.2973    1.7722  -15.3148 C   0  0  0  0  0  0  0  0  0  0  0  0
  -13.1211    1.0438  -14.5441 C   0  0  0  0  0  0  0  0  0  0  0  0
  -14.4433    1.3924  -14.7387 N   0  0  0  0  0  0  0  0  0  0  0  0
  -18.0223    1.8122  -14.8554 C   0  0  0  0  0  0  0  0  0  0  0  0
  -18.6971    2.9843  -14.4860 C   0  0  0  0  0  0  0  0  0  0  0  0
  -20.0935    3.0180  -14.4330 C   0  0  0  0  0  0  0  0  0  0  0  0
  -20.8299    1.8804  -14.7555 C   0  0  0  0  0  0  0  0  0  0  0  0
  -20.1726    0.7086  -15.1228 C   0  0  0  0  0  0  0  0  0  0  0  0
  -18.7763    0.6749  -15.1736 C   0  0  0  0  0  0  0  0  0  0  0  0
  -15.6850   -1.2962  -13.6495 C   0  0  0  0  0  0  0  0  0  0  0  0
  -15.7559   -0.0077  -13.2816 C   0  0  0  0  0  0  0  0  0  0  0  0
  -15.1375   -3.0112   -9.2726 N   0  0  0  0  0  0  0  0  0  0  0  0
  -15.5398   -3.2147  -10.5758 C   0  0  0  0  0  0  0  0  0  0  0  0
  -16.0111   -4.4231  -10.8903 N   0  0  0  0  0  0  0  0  0  0  0  0
  -16.3975   -4.6019  -12.1651 C   0  0  0  0  0  0  0  0  0  0  0  0
  -16.3158   -3.6239  -13.1251 C   0  0  0  0  0  0  0  0  0  0  0  0
  -15.7977   -2.4182  -12.7045 C   0  0  0  0  0  0  0  0  0  0  0  0
  -15.3982   -2.2024  -11.4344 N   0  0  0  0  0  0  0  0  0  0  0  0
  -14.9177   -3.8992   -8.8436 H   0  0  0  0  0  0  0  0  0  0  0  0
  -14.4312   -2.2906   -9.2377 H   0  0  0  0  0  0  0  0  0  0  0  0
 17 18  1  0  0  0
 17 24  1  0  0  0
 17 25  1  0  0  0
 18 19  1  0  0  0
 18 23  2  0  0  0
 19 20  2  0  0  0
 20 21  1  0  0  0
 21 22  2  0  0  0
 22 15  1  0  0  0
 22 23  1  0  0  0
 15 16  2  0  0  0
 16  1  1  0  0  0
  1  2  2  0  0  0
  1  8  1  0  0  0
  2  9  1  0  0  0
  2  3  1  0  0  0
  9 10  1  0  0  0
  9 14  2  0  0  0
 10 11  2  0  0  0
 11 12  1  0  0  0
 12 13  2  0  0  0
 13 14  1  0  0  0
  3  4  2  0  0  0
  4  5  1  0  0  0
  4  8  1  0  0  0
  5  6  1  0  0  0
  6  7  2  0  0  0
  7  8  1  0  0  0
M  END
> <minimizedAffinity>
-8.81429

$$$$
