CHEMBL3960571


 34 37  0  0  0  0  0  0  0  0999 V2000
  -28.3098   -8.3341   -6.1095 N   0  0  0  0  0  0  0  0  0  0  0  0
  -28.4533   -6.9623   -5.6717 C   0  0  0  0  0  0  0  0  0  0  0  0
  -29.1801   -6.1379   -6.4959 C   0  0  0  0  0  0  0  0  0  0  0  0
  -29.2569   -4.8273   -6.1987 C   0  0  0  0  0  0  0  0  0  0  0  0
  -28.6198   -4.2609   -5.1371 C   0  0  0  0  0  0  0  0  0  0  0  0
  -28.2055   -3.1538   -5.6133 N   0  0  0  0  0  0  0  0  0  0  0  0
  -29.0288   -2.1658   -5.3927 C   0  0  0  0  0  0  0  0  0  0  0  0
  -28.8599   -1.4928   -4.2631 C   0  0  0  0  0  0  0  0  0  0  0  0
  -28.4490   -2.9304   -3.4925 N   0  0  0  0  0  0  0  0  0  0  0  0
  -28.1551   -4.5691   -3.9987 C   0  0  0  0  0  0  0  0  0  0  0  0
  -27.8460   -6.2352   -4.4926 C   0  0  0  0  0  0  0  0  0  0  0  0
  -29.2877   -0.0159   -5.2907 C   0  0  0  0  0  0  0  0  0  0  0  0
  -28.5803    0.9627   -6.3215 C   0  0  0  0  0  0  0  0  0  0  0  0
  -29.3233    1.9027   -6.9765 N   0  0  0  0  0  0  0  0  0  0  0  0
  -30.5807    1.7115   -6.5587 N   0  0  0  0  0  0  0  0  0  0  0  0
  -31.7057    2.5234   -7.1480 C   0  0  0  0  0  0  0  0  0  0  0  0
  -30.5781    0.6075   -5.5808 C   0  0  0  0  0  0  0  0  0  0  0  0
  -30.9679   -9.6785   -8.4476 C   0  0  0  0  0  0  0  0  0  0  0  0
  -30.1964   -9.9849   -9.5196 C   0  0  0  0  0  0  0  0  0  0  0  0
  -28.8178   -9.8133   -9.4786 C   0  0  0  0  0  0  0  0  0  0  0  0
  -28.1890   -9.3187   -8.3338 C   0  0  0  0  0  0  0  0  0  0  0  0
  -28.9279   -8.9293   -7.2305 C   0  0  0  0  0  0  0  0  0  0  0  0
  -30.3090   -9.2440   -7.3125 C   0  0  0  0  0  0  0  0  0  0  0  0
  -32.8997   -8.9481   -7.3434 C   0  0  0  0  0  0  0  0  0  0  0  0
  -32.3319   -9.7188   -8.3925 O   0  0  0  0  0  0  0  0  0  0  0  0
  -28.0131  -10.0705  -10.5530 O   0  0  0  0  0  0  0  0  0  0  0  0
  -28.7209  -10.3782  -11.7524 C   0  0  0  0  0  0  0  0  0  0  0  0
  -27.8797   -9.2336   -4.9439 C   0  0  0  0  0  0  0  0  0  0  0  0
  -26.4865   -9.8346   -5.1144 C   0  0  0  0  0  0  0  0  0  0  0  0
  -25.3429   -9.0177   -4.7382 N   0  0  0  0  0  0  0  0  0  0  0  0
  -25.5174   -8.6600   -3.7967 H   0  0  0  0  0  0  0  0  0  0  0  0
  -24.1533   -9.8948   -4.7056 C   0  0  0  0  0  0  0  0  0  0  0  0
  -23.4602   -9.7373   -6.0386 C   0  0  0  0  0  0  0  0  0  0  0  0
  -23.9638  -10.6506   -6.9161 F   0  0  0  0  0  0  0  0  0  0  0  0
 24 25  1  0  0  0
 25 18  1  0  0  0
 18 19  1  0  0  0
 18 23  2  0  0  0
 19 20  2  0  0  0
 20 26  1  0  0  0
 20 21  1  0  0  0
 26 27  1  0  0  0
 21 22  2  0  0  0
 22  1  1  0  0  0
 22 23  1  0  0  0
  1 28  1  0  0  0
  1  2  1  0  0  0
 28 29  1  0  0  0
 29 30  1  0  0  0
 30 32  1  0  0  0
 30 31  1  0  0  0
 32 33  1  0  0  0
 33 34  1  0  0  0
  2  3  1  0  0  0
  2 11  2  0  0  0
  3  4  2  0  0  0
  4  5  1  0  0  0
  5  6  1  0  0  0
  5 10  2  0  0  0
  6  7  2  0  0  0
  7  8  1  0  0  0
  8 12  1  0  0  0
  8  9  2  0  0  0
 12 13  1  0  0  0
 12 17  2  0  0  0
 13 14  2  0  0  0
 14 15  1  0  0  0
 15 16  1  0  0  0
 15 17  1  0  0  0
  9 10  1  0  0  0
 10 11  1  0  0  0
M  END
> <minimizedAffinity>
-8.43264

$$$$
