CHEMBL413933


 31 34  0  0  0  0  0  0  0  0999 V2000
  -14.5555    2.9998  -17.5959 C   0  0  0  0  0  0  0  0  0  0  0  0
  -13.8267    2.1117  -16.8175 C   0  0  0  0  0  0  0  0  0  0  0  0
  -14.4326    1.4361  -15.7573 C   0  0  0  0  0  0  0  0  0  0  0  0
  -15.7675    1.6992  -15.3740 C   0  0  0  0  0  0  0  0  0  0  0  0
  -16.4408    1.0517  -14.2936 C   0  0  0  0  0  0  0  0  0  0  0  0
  -17.7590    1.4164  -13.9632 C   0  0  0  0  0  0  0  0  0  0  0  0
  -18.4264    2.3816  -14.7060 C   0  0  0  0  0  0  0  0  0  0  0  0
  -17.7940    2.9963  -15.7824 C   0  0  0  0  0  0  0  0  0  0  0  0
  -16.4716    2.6714  -16.1309 C   0  0  0  0  0  0  0  0  0  0  0  0
  -15.8643    3.3068  -17.2335 C   0  0  0  0  0  0  0  0  0  0  0  0
  -15.7777    0.0007  -13.4463 C   0  0  0  0  0  0  0  0  0  0  0  0
  -15.0605    0.3415  -12.5143 O   0  0  0  0  0  0  0  0  0  0  0  0
  -16.0346   -1.3112  -13.8289 N   0  0  0  0  0  0  0  0  0  0  0  0
  -16.5360   -1.4465  -14.6969 H   0  0  0  0  0  0  0  0  0  0  0  0
  -15.5113   -2.4810  -13.2343 C   0  0  0  0  0  0  0  0  0  0  0  0
  -14.5033   -3.2610  -13.8071 C   0  0  0  0  0  0  0  0  0  0  0  0
  -14.1102   -4.4661  -13.2137 C   0  0  0  0  0  0  0  0  0  0  0  0
  -14.7169   -4.8896  -12.0360 C   0  0  0  0  0  0  0  0  0  0  0  0
  -14.2877   -6.4053  -11.3462 Cl  0  0  0  0  0  0  0  0  0  0  0  0
  -15.6809   -4.0951  -11.4217 C   0  0  0  0  0  0  0  0  0  0  0  0
  -16.0673   -2.8873  -12.0136 C   0  0  0  0  0  0  0  0  0  0  0  0
  -14.0335    3.6066  -18.7287 O   0  0  0  0  0  0  0  0  0  0  0  0
  -14.8688    6.8999  -19.7819 C   0  0  0  0  0  0  0  0  0  0  0  0
  -14.0804    7.6814  -19.0367 N   0  0  0  0  0  0  0  0  0  0  0  0
  -13.2964    7.0663  -18.1276 C   0  0  0  0  0  0  0  0  0  0  0  0
  -13.2550    5.7053  -17.9478 C   0  0  0  0  0  0  0  0  0  0  0  0
  -14.0954    4.9972  -18.7674 C   0  0  0  0  0  0  0  0  0  0  0  0
  -14.9422    5.5799  -19.6336 N   0  0  0  0  0  0  0  0  0  0  0  0
  -16.0328    8.8557  -20.4917 C   0  0  0  0  0  0  0  0  0  0  0  0
  -15.5925    7.5119  -20.7917 N   0  0  0  0  0  0  0  0  0  0  0  0
  -15.0994    7.3683  -21.6624 H   0  0  0  0  0  0  0  0  0  0  0  0
 29 30  1  0  0  0
 30 23  1  0  0  0
 30 31  1  0  0  0
 23 24  1  0  0  0
 23 28  2  0  0  0
 24 25  2  0  0  0
 25 26  1  0  0  0
 26 27  2  0  0  0
 27 22  1  0  0  0
 27 28  1  0  0  0
 22  1  1  0  0  0
  1  2  1  0  0  0
  1 10  2  0  0  0
  2  3  2  0  0  0
  3  4  1  0  0  0
  4  5  1  0  0  0
  4  9  2  0  0  0
  5 11  1  0  0  0
  5  6  2  0  0  0
 11 12  2  0  0  0
 11 13  1  0  0  0
 13 15  1  0  0  0
 13 14  1  0  0  0
 15 16  1  0  0  0
 15 21  2  0  0  0
 16 17  2  0  0  0
 17 18  1  0  0  0
 18 19  1  0  0  0
 18 20  2  0  0  0
 20 21  1  0  0  0
  6  7  1  0  0  0
  7  8  2  0  0  0
  8  9  1  0  0  0
  9 10  1  0  0  0
M  END
> <minimizedAffinity>
-7.79534

$$$$
