CHEMBL404367


 32 35  0  0  0  0  0  0  0  0999 V2000
  -21.1862    1.5151  -14.6675 C   0  0  0  0  0  0  0  0  0  0  0  0
  -21.2168    0.1241  -14.5677 C   0  0  0  0  0  0  0  0  0  0  0  0
  -22.2552   -0.5190  -13.8845 C   0  0  0  0  0  0  0  0  0  0  0  0
  -23.2817    0.2066  -13.2543 C   0  0  0  0  0  0  0  0  0  0  0  0
  -23.1422    1.6054  -13.2424 C   0  0  0  0  0  0  0  0  0  0  0  0
  -22.1206    2.2584  -13.9531 C   0  0  0  0  0  0  0  0  0  0  0  0
  -24.4378   -0.4902  -12.6512 C   0  0  0  0  0  0  0  0  0  0  0  0
  -24.5308   -0.7063  -11.2660 C   0  0  0  0  0  0  0  0  0  0  0  0
  -25.5210   -1.3591  -10.6099 N   0  0  0  0  0  0  0  0  0  0  0  0
  -26.5439   -1.8596  -11.3246 C   0  0  0  0  0  0  0  0  0  0  0  0
  -26.5459   -1.6972  -12.7012 C   0  0  0  0  0  0  0  0  0  0  0  0
  -25.5194   -1.0410  -13.3952 C   0  0  0  0  0  0  0  0  0  0  0  0
  -25.9219   -1.1729  -14.7659 C   0  0  0  0  0  0  0  0  0  0  0  0
  -25.2382   -0.7690  -15.8488 N   0  0  0  0  0  0  0  0  0  0  0  0
  -27.0967   -1.7843  -14.9023 N   0  0  0  0  0  0  0  0  0  0  0  0
  -27.4493   -2.0948  -13.6495 N   0  0  0  0  0  0  0  0  0  0  0  0
  -28.6809   -2.8161  -13.4278 C   0  0  0  0  0  0  0  0  0  0  0  0
  -24.2250   -0.8189  -15.8187 H   0  0  0  0  0  0  0  0  0  0  0  0
  -25.6171   -1.1050  -16.7291 H   0  0  0  0  0  0  0  0  0  0  0  0
  -18.1697    2.9144  -16.1312 N   0  0  0  0  0  0  0  0  0  0  0  0
  -18.9294    2.2711  -15.1692 C   0  0  0  0  0  0  0  0  0  0  0  0
  -18.4848    1.7943  -14.1306 O   0  0  0  0  0  0  0  0  0  0  0  0
  -20.2712    2.1766  -15.5273 N   0  0  0  0  0  0  0  0  0  0  0  0
  -18.6692    3.4593  -16.8170 H   0  0  0  0  0  0  0  0  0  0  0  0
  -20.4361    2.0785  -16.5182 H   0  0  0  0  0  0  0  0  0  0  0  0
  -13.7404    0.7003  -16.4801 C   0  0  0  0  0  0  0  0  0  0  0  0
  -14.5695    1.9372  -16.2935 C   0  0  0  0  0  0  0  0  0  0  0  0
  -13.9386    3.1715  -16.1109 C   0  0  0  0  0  0  0  0  0  0  0  0
  -14.6961    4.3205  -15.9309 C   0  0  0  0  0  0  0  0  0  0  0  0
  -16.0888    4.2464  -15.9316 C   0  0  0  0  0  0  0  0  0  0  0  0
  -16.7536    3.0309  -16.1245 C   0  0  0  0  0  0  0  0  0  0  0  0
  -15.9779    1.8739  -16.3015 C   0  0  0  0  0  0  0  0  0  0  0  0
 26 27  1  0  0  0
 27 28  1  0  0  0
 27 32  2  0  0  0
 28 29  2  0  0  0
 29 30  1  0  0  0
 30 31  2  0  0  0
 31 20  1  0  0  0
 31 32  1  0  0  0
 20 21  1  0  0  0
 20 24  1  0  0  0
 21 22  2  0  0  0
 21 23  1  0  0  0
 23  1  1  0  0  0
 23 25  1  0  0  0
  1  2  1  0  0  0
  1  6  2  0  0  0
  2  3  2  0  0  0
  3  4  1  0  0  0
  4  7  1  0  0  0
  4  5  2  0  0  0
  7  8  1  0  0  0
  7 12  2  0  0  0
  8  9  2  0  0  0
  9 10  1  0  0  0
 10 11  2  0  0  0
 11 12  1  0  0  0
 11 16  1  0  0  0
 12 13  1  0  0  0
 13 14  1  0  0  0
 13 15  2  0  0  0
 14 18  1  0  0  0
 14 19  1  0  0  0
 15 16  1  0  0  0
 16 17  1  0  0  0
  5  6  1  0  0  0
M  END
> <minimizedAffinity>
-9.24844

$$$$
