CHEMBL4557318


 37 42  0  0  0  0  0  0  0  0999 V2000
  -15.0400   -3.4689  -13.3784 N   0  0  0  0  0  0  0  0  0  0  0  0
  -14.8746   -2.4224  -14.2537 N   0  0  0  0  0  0  0  0  0  0  0  0
  -15.0550   -1.3247  -13.5865 C   0  0  0  0  0  0  0  0  0  0  0  0
  -15.3425   -1.5077  -12.1222 C   0  0  0  0  0  0  0  0  0  0  0  0
  -15.3643   -3.0357  -12.0227 C   0  0  0  0  0  0  0  0  0  0  0  0
  -14.3466   -3.5414  -11.0092 C   0  0  0  0  0  0  0  0  0  0  0  0
  -14.7805   -4.1355   -9.8138 C   0  0  0  0  0  0  0  0  0  0  0  0
  -13.8553   -4.6379   -8.8950 C   0  0  0  0  0  0  0  0  0  0  0  0
  -12.4909   -4.5469   -9.1626 C   0  0  0  0  0  0  0  0  0  0  0  0
  -11.3548   -5.1876   -8.0408 Cl  0  0  0  0  0  0  0  0  0  0  0  0
  -12.0408   -3.9493  -10.3363 C   0  0  0  0  0  0  0  0  0  0  0  0
  -12.9642   -3.4493  -11.2555 C   0  0  0  0  0  0  0  0  0  0  0  0
  -15.0024    0.0238  -14.2003 C   0  0  0  0  0  0  0  0  0  0  0  0
  -13.8185    0.7625  -14.1662 C   0  0  0  0  0  0  0  0  0  0  0  0
  -13.7461    2.0079  -14.8093 C   0  0  0  0  0  0  0  0  0  0  0  0
  -14.8391    2.5446  -15.5081 C   0  0  0  0  0  0  0  0  0  0  0  0
  -16.0258    1.7998  -15.4908 C   0  0  0  0  0  0  0  0  0  0  0  0
  -16.1133    0.5573  -14.8515 C   0  0  0  0  0  0  0  0  0  0  0  0
  -14.7092    3.7100  -16.2456 N   0  0  0  0  0  0  0  0  0  0  0  0
  -15.7728    4.1496  -17.1509 C   0  0  0  0  0  0  0  0  0  0  0  0
  -15.1328    4.7456  -18.4042 C   0  0  0  0  0  0  0  0  0  0  0  0
  -14.1341    5.8489  -18.0615 C   0  0  0  0  0  0  0  0  0  0  0  0
  -13.1184    5.3835  -17.0162 C   0  0  0  0  0  0  0  0  0  0  0  0
  -13.8056    4.7722  -15.7940 C   0  0  0  0  0  0  0  0  0  0  0  0
  -14.6533   -6.7182  -14.7697 C   0  0  0  0  0  0  0  0  0  0  0  0
  -15.6337   -7.1572  -13.9045 C   0  0  0  0  0  0  0  0  0  0  0  0
  -16.1446   -5.8809  -12.8969 S   0  0  0  0  0  0  0  0  0  0  0  0
  -15.0894   -4.7869  -13.7349 C   0  0  0  0  0  0  0  0  0  0  0  0
  -14.3997   -5.3523  -14.7132 N   0  0  0  0  0  0  0  0  0  0  0  0
  -12.5687   -9.3623  -17.4228 C   0  0  0  0  0  0  0  0  0  0  0  0
  -12.8092   -9.7358  -16.0961 C   0  0  0  0  0  0  0  0  0  0  0  0
  -13.4869   -8.8676  -15.2258 C   0  0  0  0  0  0  0  0  0  0  0  0
  -13.9261   -7.6131  -15.6681 C   0  0  0  0  0  0  0  0  0  0  0  0
  -13.6796   -7.2500  -17.0032 C   0  0  0  0  0  0  0  0  0  0  0  0
  -13.0059   -8.1147  -17.8740 C   0  0  0  0  0  0  0  0  0  0  0  0
  -11.3321  -10.9765  -19.0414 N   0  0  0  0  0  0  0  0  0  0  0  0
  -11.8874  -10.2558  -18.3195 C   0  0  0  0  0  0  0  0  0  0  0  0
 36 37  3  0  0  0
 37 30  1  0  0  0
 30 31  1  0  0  0
 30 35  2  0  0  0
 31 32  2  0  0  0
 32 33  1  0  0  0
 33 25  1  0  0  0
 33 34  2  0  0  0
 25 26  2  0  0  0
 25 29  1  0  0  0
 26 27  1  0  0  0
 27 28  1  0  0  0
 28  1  1  0  0  0
 28 29  2  0  0  0
  1  2  1  0  0  0
  1  5  1  0  0  0
  2  3  2  0  0  0
  3 13  1  0  0  0
  3  4  1  0  0  0
 13 14  1  0  0  0
 13 18  2  0  0  0
 14 15  2  0  0  0
 15 16  1  0  0  0
 16 19  1  0  0  0
 16 17  2  0  0  0
 19 20  1  0  0  0
 19 24  1  0  0  0
 20 21  1  0  0  0
 21 22  1  0  0  0
 22 23  1  0  0  0
 23 24  1  0  0  0
 17 18  1  0  0  0
  4  5  1  0  0  0
  5  6  1  0  0  0
  6  7  1  0  0  0
  6 12  2  0  0  0
  7  8  2  0  0  0
  8  9  1  0  0  0
  9 10  1  0  0  0
  9 11  2  0  0  0
 11 12  1  0  0  0
 34 35  1  0  0  0
M  END
> <minimizedAffinity>
-7.47648

$$$$
