CHEMBL3676370


 38 40  0  0  0  0  0  0  0  0999 V2000
  -29.7231   -5.0680   -7.0966 C   0  0  0  0  0  0  0  0  0  0  0  0
  -29.0337   -4.2561   -7.9985 C   0  0  0  0  0  0  0  0  0  0  0  0
  -28.6143   -2.9583   -7.6223 C   0  0  0  0  0  0  0  0  0  0  0  0
  -27.9589   -2.0508   -8.4768 C   0  0  0  0  0  0  0  0  0  0  0  0
  -27.5465   -0.8405   -8.0615 N   0  0  0  0  0  0  0  0  0  0  0  0
  -27.8305   -0.5217   -6.7963 C   0  0  0  0  0  0  0  0  0  0  0  0
  -28.4570   -1.2970   -5.9022 N   0  0  0  0  0  0  0  0  0  0  0  0
  -28.8407   -2.5097   -6.3152 C   0  0  0  0  0  0  0  0  0  0  0  0
  -29.4761   -3.3625   -5.4152 C   0  0  0  0  0  0  0  0  0  0  0  0
  -29.9020   -4.6478   -5.7734 C   0  0  0  0  0  0  0  0  0  0  0  0
  -29.6090   -7.4378   -7.4129 C   0  0  0  0  0  0  0  0  0  0  0  0
  -28.5169   -7.5546   -6.8727 O   0  0  0  0  0  0  0  0  0  0  0  0
  -30.3086   -6.2536   -7.5881 N   0  0  0  0  0  0  0  0  0  0  0  0
  -31.3050   -6.3543   -7.4323 H   0  0  0  0  0  0  0  0  0  0  0  0
  -31.6555   -8.7734   -7.6198 C   0  0  0  0  0  0  0  0  0  0  0  0
  -30.3634   -8.6091   -7.9278 C   0  0  0  0  0  0  0  0  0  0  0  0
  -27.7601   -2.4010   -9.8284 N   0  0  0  0  0  0  0  0  0  0  0  0
  -28.6268   -2.7531  -10.2397 H   0  0  0  0  0  0  0  0  0  0  0  0
  -26.9103   -1.7961  -10.7807 C   0  0  0  0  0  0  0  0  0  0  0  0
  -25.6166   -1.3802  -10.4500 C   0  0  0  0  0  0  0  0  0  0  0  0
  -24.7029   -1.0247  -11.4465 C   0  0  0  0  0  0  0  0  0  0  0  0
  -25.0741   -1.0723  -12.7934 C   0  0  0  0  0  0  0  0  0  0  0  0
  -23.7217   -0.7222  -14.0807 Br  0  0  0  0  0  0  0  0  0  0  0  0
  -26.3819   -1.4184  -13.1435 C   0  0  0  0  0  0  0  0  0  0  0  0
  -26.9214   -1.4593  -14.7859 Cl  0  0  0  0  0  0  0  0  0  0  0  0
  -27.2807   -1.7814  -12.1354 C   0  0  0  0  0  0  0  0  0  0  0  0
  -28.5306   -2.1633  -12.4555 F   0  0  0  0  0  0  0  0  0  0  0  0
  -30.4539   -5.3787   -4.7456 O   0  0  0  0  0  0  0  0  0  0  0  0
  -29.5294   -5.8223   -3.7453 C   0  0  0  0  0  0  0  0  0  0  0  0
  -29.6334   -7.3359   -3.5310 C   0  0  0  0  0  0  0  0  0  0  0  0
  -28.3412   -7.9891   -3.7083 N   0  0  0  0  0  0  0  0  0  0  0  0
  -28.2094   -9.3495   -3.5143 C   0  0  0  0  0  0  0  0  0  0  0  0
  -29.1749  -10.0915   -3.3683 O   0  0  0  0  0  0  0  0  0  0  0  0
  -27.5204   -7.4125   -3.8178 H   0  0  0  0  0  0  0  0  0  0  0  0
  -26.7883   -9.8718   -3.5083 C   0  0  0  0  0  0  0  0  0  0  0  0
  -25.8229   -8.9096   -4.1838 C   0  0  0  0  0  0  0  0  0  0  0  0
  -25.1291   -9.5781   -5.2377 O   0  0  0  0  0  0  0  0  0  0  0  0
  -23.8140   -9.9554   -4.8577 C   0  0  0  0  0  0  0  0  0  0  0  0
 15 16  2  0  0  0
 16 11  1  0  0  0
 11 12  2  0  0  0
 11 13  1  0  0  0
 13  1  1  0  0  0
 13 14  1  0  0  0
  1  2  1  0  0  0
  1 10  2  0  0  0
  2  3  2  0  0  0
  3  4  1  0  0  0
  3  8  1  0  0  0
  4 17  1  0  0  0
  4  5  2  0  0  0
 17 19  1  0  0  0
 17 18  1  0  0  0
 19 20  1  0  0  0
 19 26  2  0  0  0
 20 21  2  0  0  0
 21 22  1  0  0  0
 22 23  1  0  0  0
 22 24  2  0  0  0
 24 25  1  0  0  0
 24 26  1  0  0  0
 26 27  1  0  0  0
  5  6  1  0  0  0
  6  7  2  0  0  0
  7  8  1  0  0  0
  8  9  2  0  0  0
  9 10  1  0  0  0
 10 28  1  0  0  0
 28 29  1  0  0  0
 29 30  1  0  0  0
 30 31  1  0  0  0
 31 32  1  0  0  0
 31 34  1  0  0  0
 32 33  2  0  0  0
 32 35  1  0  0  0
 35 36  1  0  0  0
 36 37  1  0  0  0
 37 38  1  0  0  0
M  END
> <minimizedAffinity>
-8.71320

$$$$
