CHEMBL3660301


 36 39  0  0  0  0  0  0  0  0999 V2000
  -13.9465   -0.8000  -14.3342 C   0  0  0  0  0  0  0  0  0  0  0  0
  -12.7138   -0.1585  -14.1788 C   0  0  0  0  0  0  0  0  0  0  0  0
  -11.6997   -0.7483  -13.4261 C   0  0  0  0  0  0  0  0  0  0  0  0
  -11.9318   -1.9580  -12.7676 C   0  0  0  0  0  0  0  0  0  0  0  0
  -13.1656   -2.5974  -12.9179 C   0  0  0  0  0  0  0  0  0  0  0  0
  -14.1841   -2.0092  -13.6795 C   0  0  0  0  0  0  0  0  0  0  0  0
  -16.9301    0.8052  -15.6131 N   0  0  0  0  0  0  0  0  0  0  0  0
  -16.0064    0.4150  -14.6588 C   0  0  0  0  0  0  0  0  0  0  0  0
  -16.0677    0.6742  -13.4642 O   0  0  0  0  0  0  0  0  0  0  0  0
  -14.9227   -0.2659  -15.2145 N   0  0  0  0  0  0  0  0  0  0  0  0
  -16.6594    0.6892  -16.5777 H   0  0  0  0  0  0  0  0  0  0  0  0
  -14.5699    0.1479  -16.0637 H   0  0  0  0  0  0  0  0  0  0  0  0
  -21.7295    0.6913  -14.4263 C   0  0  0  0  0  0  0  0  0  0  0  0
  -20.5002    1.4757  -14.7873 C   0  0  0  0  0  0  0  0  0  0  0  0
  -20.5755    2.8647  -14.9201 C   0  0  0  0  0  0  0  0  0  0  0  0
  -19.4318    3.5941  -15.2149 C   0  0  0  0  0  0  0  0  0  0  0  0
  -18.2129    2.9456  -15.3961 C   0  0  0  0  0  0  0  0  0  0  0  0
  -17.1438    3.7371  -15.5359 F   0  0  0  0  0  0  0  0  0  0  0  0
  -18.1158    1.5440  -15.3450 C   0  0  0  0  0  0  0  0  0  0  0  0
  -19.2691    0.8221  -14.9976 C   0  0  0  0  0  0  0  0  0  0  0  0
  -10.9903   -2.6160  -12.0034 O   0  0  0  0  0  0  0  0  0  0  0  0
  -11.3999   -3.6105  -11.1433 C   0  0  0  0  0  0  0  0  0  0  0  0
  -11.6202   -3.4136   -9.7845 C   0  0  0  0  0  0  0  0  0  0  0  0
  -11.9552   -4.5021   -8.9986 C   0  0  0  0  0  0  0  0  0  0  0  0
  -11.9895   -4.3587   -7.6143 N   0  0  0  0  0  0  0  0  0  0  0  0
  -12.1449   -5.7348   -9.5009 N   0  0  0  0  0  0  0  0  0  0  0  0
  -11.9906   -5.8950  -10.8419 C   0  0  0  0  0  0  0  0  0  0  0  0
  -11.6226   -4.8644  -11.6946 C   0  0  0  0  0  0  0  0  0  0  0  0
  -12.5115   -3.5484   -7.3077 H   0  0  0  0  0  0  0  0  0  0  0  0
  -12.3078   -5.2286   -7.1995 H   0  0  0  0  0  0  0  0  0  0  0  0
  -12.2093   -7.2586  -11.3224 C   0  0  0  0  0  0  0  0  0  0  0  0
  -11.3396   -8.2246  -11.8064 C   0  0  0  0  0  0  0  0  0  0  0  0
  -12.0916   -9.3853  -12.1138 C   0  0  0  0  0  0  0  0  0  0  0  0
  -13.4075   -9.1073  -11.8183 C   0  0  0  0  0  0  0  0  0  0  0  0
  -13.4639   -7.8228  -11.3413 N   0  0  0  0  0  0  0  0  0  0  0  0
  -14.2977   -7.3386  -11.0308 H   0  0  0  0  0  0  0  0  0  0  0  0
 13 14  1  0  0  0
 14 15  1  0  0  0
 14 20  2  0  0  0
 15 16  2  0  0  0
 16 17  1  0  0  0
 17 18  1  0  0  0
 17 19  2  0  0  0
 19  7  1  0  0  0
 19 20  1  0  0  0
  7  8  1  0  0  0
  7 11  1  0  0  0
  8  9  2  0  0  0
  8 10  1  0  0  0
 10  1  1  0  0  0
 10 12  1  0  0  0
  1  2  1  0  0  0
  1  6  2  0  0  0
  2  3  2  0  0  0
  3  4  1  0  0  0
  4 21  1  0  0  0
  4  5  2  0  0  0
 21 22  1  0  0  0
 22 23  1  0  0  0
 22 28  2  0  0  0
 23 24  2  0  0  0
 24 25  1  0  0  0
 24 26  1  0  0  0
 25 29  1  0  0  0
 25 30  1  0  0  0
 26 27  2  0  0  0
 27 31  1  0  0  0
 27 28  1  0  0  0
 31 32  2  0  0  0
 31 35  1  0  0  0
 32 33  1  0  0  0
 33 34  2  0  0  0
 34 35  1  0  0  0
 35 36  1  0  0  0
  5  6  1  0  0  0
M  END
> <minimizedAffinity>
-9.00766

$$$$
