CHEMBL199886


 33 36  0  0  0  0  0  0  0  0999 V2000
  -24.2443   12.4649  -16.8258 O   0  0  0  0  0  0  0  0  0  0  0  0
  -23.5665   11.7414  -16.1049 C   0  0  0  0  0  0  0  0  0  0  0  0
  -22.3393   11.2066  -16.4658 N   0  0  0  0  0  0  0  0  0  0  0  0
  -23.9526   11.3468  -14.8291 N   0  0  0  0  0  0  0  0  0  0  0  0
  -22.0000   10.4462  -15.8964 H   0  0  0  0  0  0  0  0  0  0  0  0
  -23.2105   11.0673  -14.2036 H   0  0  0  0  0  0  0  0  0  0  0  0
  -21.7296   11.3774  -17.7353 C   0  0  0  0  0  0  0  0  0  0  0  0
  -22.3905   11.1140  -18.9420 C   0  0  0  0  0  0  0  0  0  0  0  0
  -21.7163   11.1736  -20.1627 C   0  0  0  0  0  0  0  0  0  0  0  0
  -20.3642   11.4876  -20.1859 C   0  0  0  0  0  0  0  0  0  0  0  0
  -19.7062   11.8036  -18.9999 C   0  0  0  0  0  0  0  0  0  0  0  0
  -20.3902   11.7833  -17.7757 C   0  0  0  0  0  0  0  0  0  0  0  0
  -18.2794   12.1574  -19.0053 C   0  0  0  0  0  0  0  0  0  0  0  0
  -17.3452   11.6875  -19.7734 N   0  0  0  0  0  0  0  0  0  0  0  0
  -17.6018   10.6779  -20.7341 C   0  0  0  0  0  0  0  0  0  0  0  0
  -16.6981    9.6642  -21.0123 C   0  0  0  0  0  0  0  0  0  0  0  0
  -15.2066    9.5206  -20.1545 Cl  0  0  0  0  0  0  0  0  0  0  0  0
  -16.8598    8.6840  -21.9292 N   0  0  0  0  0  0  0  0  0  0  0  0
  -17.9954    8.7392  -22.6263 C   0  0  0  0  0  0  0  0  0  0  0  0
  -18.9547    9.6567  -22.4803 N   0  0  0  0  0  0  0  0  0  0  0  0
  -18.7331   10.5949  -21.5312 C   0  0  0  0  0  0  0  0  0  0  0  0
  -19.7451   11.5219  -21.4076 O   0  0  0  0  0  0  0  0  0  0  0  0
  -25.2069   11.6553  -14.2504 C   0  0  0  0  0  0  0  0  0  0  0  0
  -25.3315   12.4417  -13.1062 C   0  0  0  0  0  0  0  0  0  0  0  0
  -26.5825   12.6589  -12.5227 C   0  0  0  0  0  0  0  0  0  0  0  0
  -27.7285   12.0882  -13.0707 C   0  0  0  0  0  0  0  0  0  0  0  0
  -29.1999   12.3827  -12.2204 Cl  0  0  0  0  0  0  0  0  0  0  0  0
  -27.6434   11.3150  -14.2376 C   0  0  0  0  0  0  0  0  0  0  0  0
  -26.3692   11.1410  -14.8389 C   0  0  0  0  0  0  0  0  0  0  0  0
  -28.8250   10.6181  -14.8602 C   0  0  0  0  0  0  0  0  0  0  0  0
  -28.5996    9.9522  -16.0216 F   0  0  0  0  0  0  0  0  0  0  0  0
  -29.3804    9.7011  -14.0164 F   0  0  0  0  0  0  0  0  0  0  0  0
  -29.8298   11.4998  -15.1437 F   0  0  0  0  0  0  0  0  0  0  0  0
  1  2  2  0  0  0
  2  3  1  0  0  0
  2  4  1  0  0  0
  3  7  1  0  0  0
  3  5  1  0  0  0
  7  8  1  0  0  0
  7 12  2  0  0  0
  8  9  2  0  0  0
  9 10  1  0  0  0
 10 11  2  0  0  0
 10 22  1  0  0  0
 11 12  1  0  0  0
 11 13  1  0  0  0
 13 14  2  0  0  0
 14 15  1  0  0  0
 15 16  1  0  0  0
 15 21  2  0  0  0
 16 17  1  0  0  0
 16 18  2  0  0  0
 18 19  1  0  0  0
 19 20  2  0  0  0
 20 21  1  0  0  0
 21 22  1  0  0  0
  4 23  1  0  0  0
  4  6  1  0  0  0
 23 24  1  0  0  0
 23 29  2  0  0  0
 24 25  2  0  0  0
 25 26  1  0  0  0
 26 27  1  0  0  0
 26 28  2  0  0  0
 28 30  1  0  0  0
 28 29  1  0  0  0
 30 31  1  0  0  0
 30 32  1  0  0  0
 30 33  1  0  0  0
M  END
> <minimizedAffinity>
-5.87311

$$$$
