CHEMBL3920861


 45 47  0  0  0  0  0  0  0  0999 V2000
  -22.2644   11.6061  -18.4234 C   0  0  0  0  0  0  0  0  0  0  0  0
  -22.9044   12.1644  -19.5171 C   0  0  0  0  0  0  0  0  0  0  0  0
  -22.3002   12.3848  -20.7159 N   0  0  0  0  0  0  0  0  0  0  0  0
  -21.0035   12.0294  -20.8416 C   0  0  0  0  0  0  0  0  0  0  0  0
  -20.4009   12.3886  -22.0450 N   0  0  0  0  0  0  0  0  0  0  0  0
  -20.2846   11.4275  -19.8014 C   0  0  0  0  0  0  0  0  0  0  0  0
  -20.9318   11.2128  -18.5842 C   0  0  0  0  0  0  0  0  0  0  0  0
  -21.1206   12.7214  -22.6793 H   0  0  0  0  0  0  0  0  0  0  0  0
  -19.8187   11.6589  -22.4371 H   0  0  0  0  0  0  0  0  0  0  0  0
  -22.9568   11.4490  -17.1156 C   0  0  0  0  0  0  0  0  0  0  0  0
  -22.2391   11.1649  -16.1592 O   0  0  0  0  0  0  0  0  0  0  0  0
  -25.2398   10.7163  -16.2170 S   0  0  0  0  0  0  0  0  0  0  0  0
  -24.8472   10.8066  -14.4764 C   0  0  0  0  0  0  0  0  0  0  0  0
  -25.3355    9.3105  -16.5617 O   0  0  0  0  0  0  0  0  0  0  0  0
  -24.3319   11.7212  -16.9653 N   0  0  0  0  0  0  0  0  0  0  0  0
  -26.9129   11.3606  -16.2457 C   0  0  0  0  0  0  0  0  0  0  0  0
  -27.5779   11.3053  -14.8708 C   0  0  0  0  0  0  0  0  0  0  0  0
  -28.8512   10.4555  -14.8981 C   0  0  0  0  0  0  0  0  0  0  0  0
  -30.0420   11.1728  -14.2553 C   0  0  0  0  0  0  0  0  0  0  0  0
  -30.2050   10.7804  -12.8031 C   0  0  0  0  0  0  0  0  0  0  0  0
  -29.5418   11.2221  -11.8753 O   0  0  0  0  0  0  0  0  0  0  0  0
  -32.4952   10.4337  -12.4644 C   0  0  0  0  0  0  0  0  0  0  0  0
  -31.2035    9.8597  -12.6796 O   0  0  0  0  0  0  0  0  0  0  0  0
  -18.9220   11.0088  -19.9658 C   0  0  0  0  0  0  0  0  0  0  0  0
  -17.7756   10.6488  -20.0353 C   0  0  0  0  0  0  0  0  0  0  0  0
  -16.4252   10.1755  -20.0742 C   0  0  0  0  0  0  0  0  0  0  0  0
  -15.4905   10.8008  -20.9020 C   0  0  0  0  0  0  0  0  0  0  0  0
  -14.1915   10.3087  -20.9702 C   0  0  0  0  0  0  0  0  0  0  0  0
  -13.8260    9.1954  -20.2112 C   0  0  0  0  0  0  0  0  0  0  0  0
  -14.7405    8.5670  -19.3599 C   0  0  0  0  0  0  0  0  0  0  0  0
  -16.0492    9.0632  -19.3002 C   0  0  0  0  0  0  0  0  0  0  0  0
  -14.4016    7.4343  -18.5730 N   0  0  0  0  0  0  0  0  0  0  0  0
  -14.6673    6.1182  -18.9227 C   0  0  0  0  0  0  0  0  0  0  0  0
  -15.1600    5.7374  -19.9819 O   0  0  0  0  0  0  0  0  0  0  0  0
  -13.8284    7.6053  -17.7589 H   0  0  0  0  0  0  0  0  0  0  0  0
  -14.2697    5.0552  -17.9602 C   0  0  0  0  0  0  0  0  0  0  0  0
  -12.9675    4.9121  -17.4728 C   0  0  0  0  0  0  0  0  0  0  0  0
  -12.6913    3.9271  -16.5180 C   0  0  0  0  0  0  0  0  0  0  0  0
  -13.7045    3.0801  -16.0571 C   0  0  0  0  0  0  0  0  0  0  0  0
  -15.0132    3.2055  -16.5393 C   0  0  0  0  0  0  0  0  0  0  0  0
  -15.2849    4.2098  -17.4807 C   0  0  0  0  0  0  0  0  0  0  0  0
  -16.1197    2.2881  -16.0787 C   0  0  0  0  0  0  0  0  0  0  0  0
  -17.3667    2.7793  -16.3242 F   0  0  0  0  0  0  0  0  0  0  0  0
  -16.0762    1.0656  -16.6749 F   0  0  0  0  0  0  0  0  0  0  0  0
  -16.0716    2.0548  -14.7376 F   0  0  0  0  0  0  0  0  0  0  0  0
 22 23  1  0  0  0
 23 20  1  0  0  0
 20 21  2  0  0  0
 20 19  1  0  0  0
 19 18  1  0  0  0
 18 17  1  0  0  0
 17 16  1  0  0  0
 16 12  1  0  0  0
 12 13  1  0  0  0
 12 14  2  0  0  0
 12 15  2  0  0  0
 15 10  1  0  0  0
 10 11  2  0  0  0
 10  1  1  0  0  0
  1  2  1  0  0  0
  1  7  2  0  0  0
  2  3  2  0  0  0
  3  4  1  0  0  0
  4  5  1  0  0  0
  4  6  2  0  0  0
  5  8  1  0  0  0
  5  9  1  0  0  0
  6 24  1  0  0  0
  6  7  1  0  0  0
 24 25  3  0  0  0
 25 26  1  0  0  0
 26 27  1  0  0  0
 26 31  2  0  0  0
 27 28  2  0  0  0
 28 29  1  0  0  0
 29 30  2  0  0  0
 30 32  1  0  0  0
 30 31  1  0  0  0
 32 33  1  0  0  0
 32 35  1  0  0  0
 33 34  2  0  0  0
 33 36  1  0  0  0
 36 37  1  0  0  0
 36 41  2  0  0  0
 37 38  2  0  0  0
 38 39  1  0  0  0
 39 40  2  0  0  0
 40 42  1  0  0  0
 40 41  1  0  0  0
 42 43  1  0  0  0
 42 44  1  0  0  0
 42 45  1  0  0  0
M  END
> <minimizedAffinity>
-7.61827

$$$$
