CHEMBL59042


 33 36  0  0  0  0  0  0  0  0999 V2000
  -22.3546    0.7719  -14.0196 C   0  0  0  0  0  0  0  0  0  0  0  0
  -22.7841    2.1160  -14.0159 C   0  0  0  0  0  0  0  0  0  0  0  0
  -21.8707    3.1445  -14.2318 C   0  0  0  0  0  0  0  0  0  0  0  0
  -20.5536    2.7895  -14.4429 C   0  0  0  0  0  0  0  0  0  0  0  0
  -20.1044    1.4605  -14.4631 C   0  0  0  0  0  0  0  0  0  0  0  0
  -21.0059    0.4270  -14.2437 C   0  0  0  0  0  0  0  0  0  0  0  0
  -18.6484    1.5369  -14.7111 C   0  0  0  0  0  0  0  0  0  0  0  0
  -17.8003    0.5104  -14.8959 C   0  0  0  0  0  0  0  0  0  0  0  0
  -18.2937    3.0096  -14.7686 C   0  0  0  0  0  0  0  0  0  0  0  0
  -17.2079    3.5431  -14.8723 O   0  0  0  0  0  0  0  0  0  0  0  0
  -19.5000    3.6726  -14.6275 N   0  0  0  0  0  0  0  0  0  0  0  0
  -19.5570    4.6792  -14.6111 H   0  0  0  0  0  0  0  0  0  0  0  0
  -16.4366    0.7005  -15.2471 C   0  0  0  0  0  0  0  0  0  0  0  0
  -16.1363    1.1300  -16.5197 N   0  0  0  0  0  0  0  0  0  0  0  0
  -14.7790    1.1785  -16.6745 C   0  0  0  0  0  0  0  0  0  0  0  0
  -14.1856    0.7827  -15.4931 C   0  0  0  0  0  0  0  0  0  0  0  0
  -15.2397    0.5004  -14.5634 C   0  0  0  0  0  0  0  0  0  0  0  0
  -12.6996    0.6302  -15.3715 C   0  0  0  0  0  0  0  0  0  0  0  0
  -11.9520    1.2812  -16.5522 C   0  0  0  0  0  0  0  0  0  0  0  0
  -12.6350    1.0095  -17.9022 C   0  0  0  0  0  0  0  0  0  0  0  0
  -14.0741    1.5546  -17.9312 C   0  0  0  0  0  0  0  0  0  0  0  0
  -16.8112    1.3153  -17.2482 H   0  0  0  0  0  0  0  0  0  0  0  0
  -15.1120   -0.0008  -13.1542 C   0  0  0  0  0  0  0  0  0  0  0  0
  -15.1995   -1.5194  -12.9940 C   0  0  0  0  0  0  0  0  0  0  0  0
  -15.7438   -1.9692  -11.6303 C   0  0  0  0  0  0  0  0  0  0  0  0
  -15.3071   -3.3340  -11.2642 N   0  0  0  0  0  0  0  0  0  0  0  0
  -14.9062   -3.4183   -9.8561 C   0  0  0  0  0  0  0  0  0  0  0  0
  -16.3907   -4.2890  -11.5155 C   0  0  0  0  0  0  0  0  0  0  0  0
  -23.5432   -0.4922  -13.5923 S   0  0  0  0  0  0  0  0  0  0  0  0
  -22.7972   -1.6345  -13.1041 O   0  0  0  0  0  0  0  0  0  0  0  0
  -24.4293   -0.6143  -14.7340 O   0  0  0  0  0  0  0  0  0  0  0  0
  -25.6501   -0.7058  -11.8756 C   0  0  0  0  0  0  0  0  0  0  0  0
  -24.4663    0.1802  -12.2252 C   0  0  0  0  0  0  0  0  0  0  0  0
 32 33  1  0  0  0
 33 29  1  0  0  0
 29 30  2  0  0  0
 29 31  2  0  0  0
 29  1  1  0  0  0
  1  2  1  0  0  0
  1  6  2  0  0  0
  2  3  2  0  0  0
  3  4  1  0  0  0
  4  5  2  0  0  0
  4 11  1  0  0  0
  5  6  1  0  0  0
  5  7  1  0  0  0
  7  8  2  0  0  0
  7  9  1  0  0  0
  8 13  1  0  0  0
 13 14  1  0  0  0
 13 17  2  0  0  0
 14 15  1  0  0  0
 14 22  1  0  0  0
 15 16  2  0  0  0
 15 21  1  0  0  0
 16 17  1  0  0  0
 16 18  1  0  0  0
 17 23  1  0  0  0
 23 24  1  0  0  0
 24 25  1  0  0  0
 25 26  1  0  0  0
 26 27  1  0  0  0
 26 28  1  0  0  0
 18 19  1  0  0  0
 19 20  1  0  0  0
 20 21  1  0  0  0
  9 10  2  0  0  0
  9 11  1  0  0  0
 11 12  1  0  0  0
M  END
> <minimizedAffinity>
-8.94060

$$$$
