CHEMBL116324


 32 36  0  0  0  0  0  0  0  0999 V2000
  -33.5426    4.4557   -9.4771 N   0  0  0  0  0  0  0  0  0  0  0  0
  -33.8453    3.0944   -9.5056 C   0  0  0  0  0  0  0  0  0  0  0  0
  -33.0654    2.1905   -8.8849 C   0  0  0  0  0  0  0  0  0  0  0  0
  -31.7984    2.5904   -8.2862 C   0  0  0  0  0  0  0  0  0  0  0  0
  -31.4735    3.8938   -8.3515 C   0  0  0  0  0  0  0  0  0  0  0  0
  -32.5448    4.8672   -8.6038 C   0  0  0  0  0  0  0  0  0  0  0  0
  -32.4700    5.9405   -8.0281 O   0  0  0  0  0  0  0  0  0  0  0  0
  -30.8614    1.7253   -7.5914 C   0  0  0  0  0  0  0  0  0  0  0  0
  -29.6079    1.1660   -8.2041 C   0  0  0  0  0  0  0  0  0  0  0  0
  -28.8207    0.2708   -7.6667 N   0  0  0  0  0  0  0  0  0  0  0  0
  -29.1032   -0.0496   -6.3530 C   0  0  0  0  0  0  0  0  0  0  0  0
  -28.3903   -0.6971   -5.3387 C   0  0  0  0  0  0  0  0  0  0  0  0
  -28.2685    0.4482   -4.4787 C   0  0  0  0  0  0  0  0  0  0  0  0
  -29.4080    1.1516   -4.4691 N   0  0  0  0  0  0  0  0  0  0  0  0
  -29.9754    0.7776   -5.6411 N   0  0  0  0  0  0  0  0  0  0  0  0
  -30.9898    1.4433   -6.2825 C   0  0  0  0  0  0  0  0  0  0  0  0
  -28.8748   -1.9114   -4.6024 C   0  0  0  0  0  0  0  0  0  0  0  0
  -28.1231   -2.5743   -3.6114 C   0  0  0  0  0  0  0  0  0  0  0  0
  -28.4302   -3.8943   -3.2595 C   0  0  0  0  0  0  0  0  0  0  0  0
  -29.4875   -4.5662   -3.8736 C   0  0  0  0  0  0  0  0  0  0  0  0
  -30.2745   -3.9041   -4.8088 C   0  0  0  0  0  0  0  0  0  0  0  0
  -29.9843   -2.5820   -5.1551 C   0  0  0  0  0  0  0  0  0  0  0  0
  -34.5243    5.4349   -9.9734 C   0  0  0  0  0  0  0  0  0  0  0  0
  -33.9589    6.5979  -10.8435 C   0  0  0  0  0  0  0  0  0  0  0  0
  -35.0479    7.5490  -11.3479 C   0  0  0  0  0  0  0  0  0  0  0  0
  -34.1177   12.1207  -10.1992 C   0  0  0  0  0  0  0  0  0  0  0  0
  -34.2655   11.1693  -11.2955 N   0  0  0  0  0  0  0  0  0  0  0  0
  -33.2811   10.0809  -11.2005 C   0  0  0  0  0  0  0  0  0  0  0  0
  -33.4316    9.0756  -12.3719 C   0  0  0  0  0  0  0  0  0  0  0  0
  -34.7644    8.4400  -12.4859 N   0  0  0  0  0  0  0  0  0  0  0  0
  -35.7837    9.5400  -12.4736 C   0  0  0  0  0  0  0  0  0  0  0  0
  -35.6261   10.6029  -11.3456 C   0  0  0  0  0  0  0  0  0  0  0  0
 26 27  1  0  0  0
 27 28  1  0  0  0
 27 32  1  0  0  0
 28 29  1  0  0  0
 29 30  1  0  0  0
 30 25  1  0  0  0
 30 31  1  0  0  0
 25 24  1  0  0  0
 24 23  1  0  0  0
 23  1  1  0  0  0
  1  2  1  0  0  0
  1  6  1  0  0  0
  2  3  2  0  0  0
  3  4  1  0  0  0
  4  8  1  0  0  0
  4  5  2  0  0  0
  8  9  1  0  0  0
  8 16  2  0  0  0
  9 10  2  0  0  0
 10 11  1  0  0  0
 11 12  2  0  0  0
 11 15  1  0  0  0
 12 17  1  0  0  0
 12 13  1  0  0  0
 17 18  1  0  0  0
 17 22  2  0  0  0
 18 19  2  0  0  0
 19 20  1  0  0  0
 20 21  2  0  0  0
 21 22  1  0  0  0
 13 14  2  0  0  0
 14 15  1  0  0  0
 15 16  1  0  0  0
  5  6  1  0  0  0
  6  7  2  0  0  0
 31 32  1  0  0  0
M  END
> <minimizedAffinity>
-0.02997

$$$$
