CHEMBL1982388


 25 27  0  0  0  0  0  0  0  0999 V2000
  -16.2640   -0.0048  -15.0193 N   0  0  0  0  0  0  0  0  0  0  0  0
  -16.9314    1.1865  -15.2373 C   0  0  0  0  0  0  0  0  0  0  0  0
  -18.2691    1.2400  -15.0671 N   0  0  0  0  0  0  0  0  0  0  0  0
  -18.9092    2.4119  -15.2738 C   0  0  0  0  0  0  0  0  0  0  0  0
  -18.3614    3.5758  -15.6428 N   0  0  0  0  0  0  0  0  0  0  0  0
  -17.0322    3.5083  -15.7990 C   0  0  0  0  0  0  0  0  0  0  0  0
  -16.2240    4.5564  -16.1506 N   0  0  0  0  0  0  0  0  0  0  0  0
  -15.0125    4.0538  -16.1692 C   0  0  0  0  0  0  0  0  0  0  0  0
  -15.0046    2.7256  -15.8565 N   0  0  0  0  0  0  0  0  0  0  0  0
  -16.2987    2.3542  -15.6096 C   0  0  0  0  0  0  0  0  0  0  0  0
  -16.9068   -0.7913  -15.0227 H   0  0  0  0  0  0  0  0  0  0  0  0
  -15.4023   -0.1514  -15.5245 H   0  0  0  0  0  0  0  0  0  0  0  0
  -14.1927    2.1284  -15.8040 H   0  0  0  0  0  0  0  0  0  0  0  0
  -20.6621    2.5122  -14.9520 S   0  0  0  0  0  0  0  0  0  0  0  0
  -21.0587    0.7961  -14.5317 C   0  0  0  0  0  0  0  0  0  0  0  0
  -22.4419    0.6152  -13.9356 C   0  0  0  0  0  0  0  0  0  0  0  0
  -23.1368    1.6051  -13.7150 O   0  0  0  0  0  0  0  0  0  0  0  0
  -22.8182   -0.6965  -13.7592 N   0  0  0  0  0  0  0  0  0  0  0  0
  -22.1375   -1.4383  -13.8365 H   0  0  0  0  0  0  0  0  0  0  0  0
  -24.0399   -1.1126  -13.2494 C   0  0  0  0  0  0  0  0  0  0  0  0
  -25.0766   -1.3628  -14.0561 N   0  0  0  0  0  0  0  0  0  0  0  0
  -26.2448   -1.6848  -13.4768 C   0  0  0  0  0  0  0  0  0  0  0  0
  -26.4147   -1.7628  -12.1186 C   0  0  0  0  0  0  0  0  0  0  0  0
  -25.2852   -1.5225  -11.3745 C   0  0  0  0  0  0  0  0  0  0  0  0
  -24.0869   -1.2146  -11.9117 N   0  0  0  0  0  0  0  0  0  0  0  0
  1  2  1  0  0  0
  1 11  1  0  0  0
  1 12  1  0  0  0
  2  3  1  0  0  0
  2 10  2  0  0  0
  3  4  2  0  0  0
  4 14  1  0  0  0
  4  5  1  0  0  0
 14 15  1  0  0  0
 15 16  1  0  0  0
 16 17  2  0  0  0
 16 18  1  0  0  0
 18 20  1  0  0  0
 18 19  1  0  0  0
 20 21  1  0  0  0
 20 25  2  0  0  0
 21 22  2  0  0  0
 22 23  1  0  0  0
 23 24  2  0  0  0
 24 25  1  0  0  0
  5  6  2  0  0  0
  6  7  1  0  0  0
  6 10  1  0  0  0
  7  8  2  0  0  0
  8  9  1  0  0  0
  9 10  1  0  0  0
  9 13  1  0  0  0
M  END
> <minimizedAffinity>
-7.41737

$$$$
