CHEMBL3964605


 35 40  0  0  0  0  0  0  0  0999 V2000
  -15.7305    0.6783  -14.3238 C   0  0  0  0  0  0  0  0  0  0  0  0
  -14.9480    1.8219  -14.5145 C   0  0  0  0  0  0  0  0  0  0  0  0
  -13.5560    1.7947  -14.3135 C   0  0  0  0  0  0  0  0  0  0  0  0
  -12.7270    2.9128  -14.4710 C   0  0  0  0  0  0  0  0  0  0  0  0
  -11.3897    2.8241  -14.3632 N   0  0  0  0  0  0  0  0  0  0  0  0
  -10.8925    1.6271  -14.0539 C   0  0  0  0  0  0  0  0  0  0  0  0
  -11.5971    0.5120  -13.8244 N   0  0  0  0  0  0  0  0  0  0  0  0
  -12.9248    0.5972  -13.9573 C   0  0  0  0  0  0  0  0  0  0  0  0
  -13.7103   -0.5244  -13.7372 C   0  0  0  0  0  0  0  0  0  0  0  0
  -15.1010   -0.5051  -13.9063 C   0  0  0  0  0  0  0  0  0  0  0  0
  -17.7968    1.8646  -14.3073 C   0  0  0  0  0  0  0  0  0  0  0  0
  -17.0819    0.6525  -14.5455 O   0  0  0  0  0  0  0  0  0  0  0  0
  -13.3214    4.1891  -14.7120 N   0  0  0  0  0  0  0  0  0  0  0  0
  -13.0517    4.8101  -13.9553 H   0  0  0  0  0  0  0  0  0  0  0  0
  -13.3113    4.8308  -15.9682 C   0  0  0  0  0  0  0  0  0  0  0  0
  -12.4279    5.8875  -16.2108 C   0  0  0  0  0  0  0  0  0  0  0  0
  -12.4864    6.6110  -17.4000 C   0  0  0  0  0  0  0  0  0  0  0  0
  -13.4298    6.2757  -18.3709 C   0  0  0  0  0  0  0  0  0  0  0  0
  -13.5268    7.3815  -19.9110 Br  0  0  0  0  0  0  0  0  0  0  0  0
  -14.2734    5.1775  -18.1692 C   0  0  0  0  0  0  0  0  0  0  0  0
  -15.4521    4.6828  -19.3340 Cl  0  0  0  0  0  0  0  0  0  0  0  0
  -14.2017    4.4487  -16.9761 C   0  0  0  0  0  0  0  0  0  0  0  0
  -15.9046   -1.5838  -13.6290 O   0  0  0  0  0  0  0  0  0  0  0  0
  -15.3557   -2.6402  -12.8336 C   0  0  0  0  0  0  0  0  0  0  0  0
  -16.2281   -3.8700  -13.0462 C   0  0  0  0  0  0  0  0  0  0  0  0
  -16.4854   -4.4317  -11.6650 C   0  0  0  0  0  0  0  0  0  0  0  0
  -16.0263   -5.7817  -11.5772 O   0  0  0  0  0  0  0  0  0  0  0  0
  -14.6482   -5.7208  -11.1851 C   0  0  0  0  0  0  0  0  0  0  0  0
  -14.4807   -4.4651  -10.3221 C   0  0  0  0  0  0  0  0  0  0  0  0
  -13.1904   -3.8759  -10.5575 O   0  0  0  0  0  0  0  0  0  0  0  0
  -12.5422   -3.8667   -9.2822 C   0  0  0  0  0  0  0  0  0  0  0  0
  -13.2197   -4.9676   -8.5141 C   0  0  0  0  0  0  0  0  0  0  0  0
  -14.5791   -4.8402   -8.9298 O   0  0  0  0  0  0  0  0  0  0  0  0
  -15.6718   -3.5703  -10.7174 C   0  0  0  0  0  0  0  0  0  0  0  0
  -15.3556   -2.3627  -11.4282 O   0  0  0  0  0  0  0  0  0  0  0  0
 11 12  1  0  0  0
 12  1  1  0  0  0
  1  2  1  0  0  0
  1 10  2  0  0  0
  2  3  2  0  0  0
  3  4  1  0  0  0
  3  8  1  0  0  0
  4 13  1  0  0  0
  4  5  2  0  0  0
 13 15  1  0  0  0
 13 14  1  0  0  0
 15 16  1  0  0  0
 15 22  2  0  0  0
 16 17  2  0  0  0
 17 18  1  0  0  0
 18 19  1  0  0  0
 18 20  2  0  0  0
 20 21  1  0  0  0
 20 22  1  0  0  0
  5  6  1  0  0  0
  6  7  2  0  0  0
  7  8  1  0  0  0
  8  9  2  0  0  0
  9 10  1  0  0  0
 10 23  1  0  0  0
 24 25  1  0  0  0
 24 35  1  0  0  0
 24 23  1  0  0  0
 25 26  1  0  0  0
 26 27  1  0  0  0
 26 34  1  0  0  0
 27 28  1  0  0  0
 28 29  1  0  0  0
 29 30  1  0  0  0
 29 33  1  0  0  0
 29 34  1  0  0  0
 30 31  1  0  0  0
 31 32  1  0  0  0
 32 33  1  0  0  0
 34 35  1  0  0  0
M  END
> <minimizedAffinity>
-8.01483

$$$$
