CHEMBL1254669


 30 33  0  0  0  0  0  0  0  0999 V2000
  -29.1579   -5.9133   -5.9493 C   0  0  0  0  0  0  0  0  0  0  0  0
  -29.1614   -6.9579   -6.8667 C   0  0  0  0  0  0  0  0  0  0  0  0
  -28.5688   -8.1753   -6.5497 C   0  0  0  0  0  0  0  0  0  0  0  0
  -27.9138   -8.3840   -5.3329 C   0  0  0  0  0  0  0  0  0  0  0  0
  -27.8606   -7.3114   -4.4328 C   0  0  0  0  0  0  0  0  0  0  0  0
  -28.4793   -6.0849   -4.7427 C   0  0  0  0  0  0  0  0  0  0  0  0
  -27.3036   -9.6229   -4.9933 N   0  0  0  0  0  0  0  0  0  0  0  0
  -26.0058   -9.7647   -4.5347 C   0  0  0  0  0  0  0  0  0  0  0  0
  -25.2215   -8.8358   -4.3414 O   0  0  0  0  0  0  0  0  0  0  0  0
  -25.6289  -11.0859   -4.3153 N   0  0  0  0  0  0  0  0  0  0  0  0
  -27.8762  -10.4536   -5.0333 H   0  0  0  0  0  0  0  0  0  0  0  0
  -25.9295  -11.7119   -5.0531 H   0  0  0  0  0  0  0  0  0  0  0  0
  -24.2814  -11.2928   -3.8798 C   0  0  0  0  0  0  0  0  0  0  0  0
  -23.2233  -11.0837   -4.7787 C   0  0  0  0  0  0  0  0  0  0  0  0
  -21.9221  -11.4657   -4.4476 C   0  0  0  0  0  0  0  0  0  0  0  0
  -21.6645  -12.0516   -3.2108 C   0  0  0  0  0  0  0  0  0  0  0  0
  -22.7014  -12.2191   -2.2892 C   0  0  0  0  0  0  0  0  0  0  0  0
  -24.0040  -11.8231   -2.6141 C   0  0  0  0  0  0  0  0  0  0  0  0
  -25.2670  -12.1092   -1.4708 Cl  0  0  0  0  0  0  0  0  0  0  0  0
  -29.7385   -4.6880   -6.2023 O   0  0  0  0  0  0  0  0  0  0  0  0
  -29.6735   -2.7494   -3.8289 C   0  0  0  0  0  0  0  0  0  0  0  0
  -28.9449   -2.0366   -4.8548 N   0  0  0  0  0  0  0  0  0  0  0  0
  -28.4276   -0.7723   -4.7068 C   0  0  0  0  0  0  0  0  0  0  0  0
  -27.7744   -0.4425   -5.8749 C   0  0  0  0  0  0  0  0  0  0  0  0
  -27.9099   -1.5390   -6.7560 C   0  0  0  0  0  0  0  0  0  0  0  0
  -27.4295   -1.6784   -8.0087 N   0  0  0  0  0  0  0  0  0  0  0  0
  -27.7776   -2.8350   -8.5838 C   0  0  0  0  0  0  0  0  0  0  0  0
  -28.5284   -3.8194   -8.0635 N   0  0  0  0  0  0  0  0  0  0  0  0
  -28.9612   -3.6906   -6.7876 C   0  0  0  0  0  0  0  0  0  0  0  0
  -28.6632   -2.5152   -6.1129 C   0  0  0  0  0  0  0  0  0  0  0  0
 21 22  1  0  0  0
 22 23  1  0  0  0
 22 30  1  0  0  0
 23 24  2  0  0  0
 24 25  1  0  0  0
 25 26  1  0  0  0
 25 30  2  0  0  0
 26 27  2  0  0  0
 27 28  1  0  0  0
 28 29  2  0  0  0
 29 20  1  0  0  0
 29 30  1  0  0  0
 20  1  1  0  0  0
  1  2  1  0  0  0
  1  6  2  0  0  0
  2  3  2  0  0  0
  3  4  1  0  0  0
  4  7  1  0  0  0
  4  5  2  0  0  0
  7  8  1  0  0  0
  7 11  1  0  0  0
  8  9  2  0  0  0
  8 10  1  0  0  0
 10 13  1  0  0  0
 10 12  1  0  0  0
 13 14  1  0  0  0
 13 18  2  0  0  0
 14 15  2  0  0  0
 15 16  1  0  0  0
 16 17  2  0  0  0
 17 18  1  0  0  0
 18 19  1  0  0  0
  5  6  1  0  0  0
M  END
> <minimizedAffinity>
-8.57507

$$$$
