CHEMBL245745


 36 39  0  0  0  0  0  0  0  0999 V2000
  -13.4593   -3.3774  -13.2084 C   0  0  0  0  0  0  0  0  0  0  0  0
  -14.2278   -2.2728  -13.6398 C   0  0  0  0  0  0  0  0  0  0  0  0
  -15.2098   -1.7208  -12.8138 C   0  0  0  0  0  0  0  0  0  0  0  0
  -15.4754   -2.3492  -11.5861 C   0  0  0  0  0  0  0  0  0  0  0  0
  -14.7744   -3.4861  -11.1858 C   0  0  0  0  0  0  0  0  0  0  0  0
  -13.7543   -4.0115  -11.9878 C   0  0  0  0  0  0  0  0  0  0  0  0
  -13.0191   -5.2346  -11.5202 C   0  0  0  0  0  0  0  0  0  0  0  0
  -15.9952   -0.4781  -13.1173 C   0  0  0  0  0  0  0  0  0  0  0  0
  -16.1365    0.3239  -12.2001 O   0  0  0  0  0  0  0  0  0  0  0  0
  -16.5037   -0.3175  -14.4049 N   0  0  0  0  0  0  0  0  0  0  0  0
  -16.3904   -1.0639  -15.0680 H   0  0  0  0  0  0  0  0  0  0  0  0
  -17.1826    0.8331  -14.8944 C   0  0  0  0  0  0  0  0  0  0  0  0
  -16.5233    1.9655  -15.3788 C   0  0  0  0  0  0  0  0  0  0  0  0
  -17.2341    3.0474  -15.8973 C   0  0  0  0  0  0  0  0  0  0  0  0
  -18.6224    3.0392  -15.8892 C   0  0  0  0  0  0  0  0  0  0  0  0
  -19.3186    1.9602  -15.3282 C   0  0  0  0  0  0  0  0  0  0  0  0
  -18.5877    0.8377  -14.8801 C   0  0  0  0  0  0  0  0  0  0  0  0
  -20.8085    2.0713  -15.0492 C   0  0  0  0  0  0  0  0  0  0  0  0
  -21.2646    0.8042  -14.3099 C   0  0  0  0  0  0  0  0  0  0  0  0
  -21.2070    3.3200  -14.2597 C   0  0  0  0  0  0  0  0  0  0  0  0
  -12.4295   -3.8969  -13.9820 O   0  0  0  0  0  0  0  0  0  0  0  0
  -13.3386   -5.2511  -15.7773 C   0  0  0  0  0  0  0  0  0  0  0  0
  -13.5666   -5.3129  -17.1716 C   0  0  0  0  0  0  0  0  0  0  0  0
  -13.1416   -4.3106  -18.0383 C   0  0  0  0  0  0  0  0  0  0  0  0
  -12.4766   -3.2353  -17.5015 C   0  0  0  0  0  0  0  0  0  0  0  0
  -12.2273   -3.1119  -16.1869 N   0  0  0  0  0  0  0  0  0  0  0  0
  -12.6735   -4.0879  -15.3433 C   0  0  0  0  0  0  0  0  0  0  0  0
  -13.5315   -8.3931  -13.6006 C   0  0  0  0  0  0  0  0  0  0  0  0
  -13.0223   -7.4156  -14.4616 C   0  0  0  0  0  0  0  0  0  0  0  0
  -13.8339   -6.3652  -14.9179 C   0  0  0  0  0  0  0  0  0  0  0  0
  -15.1645   -6.3776  -14.4623 C   0  0  0  0  0  0  0  0  0  0  0  0
  -15.5776   -7.3427  -13.5623 C   0  0  0  0  0  0  0  0  0  0  0  0
  -14.7883   -8.3356  -13.1248 N   0  0  0  0  0  0  0  0  0  0  0  0
  -12.0125   -9.2298  -11.9480 C   0  0  0  0  0  0  0  0  0  0  0  0
  -12.6855   -9.4513  -13.2202 N   0  0  0  0  0  0  0  0  0  0  0  0
  -13.2355  -10.3060  -13.2078 H   0  0  0  0  0  0  0  0  0  0  0  0
 34 35  1  0  0  0
 35 28  1  0  0  0
 35 36  1  0  0  0
 28 29  1  0  0  0
 28 33  2  0  0  0
 29 30  2  0  0  0
 30 22  1  0  0  0
 30 31  1  0  0  0
 22 23  1  0  0  0
 22 27  2  0  0  0
 23 24  2  0  0  0
 24 25  1  0  0  0
 25 26  2  0  0  0
 26 27  1  0  0  0
 27 21  1  0  0  0
 21  1  1  0  0  0
  1  2  1  0  0  0
  1  6  2  0  0  0
  2  3  2  0  0  0
  3  8  1  0  0  0
  3  4  1  0  0  0
  8  9  2  0  0  0
  8 10  1  0  0  0
 10 12  1  0  0  0
 10 11  1  0  0  0
 12 13  1  0  0  0
 12 17  2  0  0  0
 13 14  2  0  0  0
 14 15  1  0  0  0
 15 16  2  0  0  0
 16 18  1  0  0  0
 16 17  1  0  0  0
 18 19  1  0  0  0
 18 20  1  0  0  0
  4  5  2  0  0  0
  5  6  1  0  0  0
  6  7  1  0  0  0
 31 32  2  0  0  0
 32 33  1  0  0  0
M  END
> <minimizedAffinity>
-9.23259

$$$$
