CHEMBL1241775


 25 28  0  0  0  0  0  0  0  0999 V2000
  -29.1696   -2.7071   -6.1956 N   0  0  0  0  0  0  0  0  0  0  0  0
  -29.1892   -3.6635   -7.1441 N   0  0  0  0  0  0  0  0  0  0  0  0
  -29.8665   -4.6877   -6.5905 C   0  0  0  0  0  0  0  0  0  0  0  0
  -30.3529   -4.3367   -5.2884 C   0  0  0  0  0  0  0  0  0  0  0  0
  -31.0628   -4.9073   -4.2216 C   0  0  0  0  0  0  0  0  0  0  0  0
  -31.6301   -6.1738   -4.2114 N   0  0  0  0  0  0  0  0  0  0  0  0
  -31.2027   -4.2015   -3.0783 N   0  0  0  0  0  0  0  0  0  0  0  0
  -30.6448   -2.9808   -2.9946 C   0  0  0  0  0  0  0  0  0  0  0  0
  -29.9528   -2.3323   -3.9393 N   0  0  0  0  0  0  0  0  0  0  0  0
  -29.8504   -3.0611   -5.0642 C   0  0  0  0  0  0  0  0  0  0  0  0
  -31.0838   -6.8891   -4.6698 H   0  0  0  0  0  0  0  0  0  0  0  0
  -31.9104   -6.4086   -3.2638 H   0  0  0  0  0  0  0  0  0  0  0  0
  -29.8463   -5.9861   -7.2767 C   0  0  0  0  0  0  0  0  0  0  0  0
  -28.6478   -6.3896   -7.8497 C   0  0  0  0  0  0  0  0  0  0  0  0
  -28.4133   -7.6080   -8.3838 N   0  0  0  0  0  0  0  0  0  0  0  0
  -29.4030   -8.4949   -8.3663 C   0  0  0  0  0  0  0  0  0  0  0  0
  -29.1281   -9.7182   -8.8221 N   0  0  0  0  0  0  0  0  0  0  0  0
  -30.1156  -10.6341   -8.7839 C   0  0  0  0  0  0  0  0  0  0  0  0
  -31.3740  -10.3326   -8.3117 C   0  0  0  0  0  0  0  0  0  0  0  0
  -31.6899   -9.1035   -7.8421 N   0  0  0  0  0  0  0  0  0  0  0  0
  -30.6952   -8.1830   -7.8609 C   0  0  0  0  0  0  0  0  0  0  0  0
  -30.8952   -6.8995   -7.3398 C   0  0  0  0  0  0  0  0  0  0  0  0
  -27.2342   -1.4436   -5.3323 C   0  0  0  0  0  0  0  0  0  0  0  0
  -28.3599   -1.5031   -6.3673 C   0  0  0  0  0  0  0  0  0  0  0  0
  -27.7934   -1.3574   -7.7812 C   0  0  0  0  0  0  0  0  0  0  0  0
 23 24  1  0  0  0
 24 25  1  0  0  0
 24  1  1  0  0  0
  1  2  1  0  0  0
  1 10  1  0  0  0
  2  3  2  0  0  0
  3 13  1  0  0  0
  3  4  1  0  0  0
 13 14  1  0  0  0
 13 22  2  0  0  0
 14 15  2  0  0  0
 15 16  1  0  0  0
 16 17  1  0  0  0
 16 21  2  0  0  0
 17 18  2  0  0  0
 18 19  1  0  0  0
 19 20  2  0  0  0
 20 21  1  0  0  0
 21 22  1  0  0  0
  4  5  1  0  0  0
  4 10  2  0  0  0
  5  6  1  0  0  0
  5  7  2  0  0  0
  6 11  1  0  0  0
  6 12  1  0  0  0
  7  8  1  0  0  0
  8  9  2  0  0  0
  9 10  1  0  0  0
M  END
> <minimizedAffinity>
-8.40026

$$$$
