CHEMBL1761932


 28 30  0  0  0  0  0  0  0  0999 V2000
  -28.3610   -1.9827   -9.7858 O   0  0  0  0  0  0  0  0  0  0  0  0
  -28.1404   -1.8061   -8.4197 C   0  0  0  0  0  0  0  0  0  0  0  0
  -27.7388   -0.6136   -7.9424 N   0  0  0  0  0  0  0  0  0  0  0  0
  -27.5636   -0.5478   -6.6214 C   0  0  0  0  0  0  0  0  0  0  0  0
  -27.7827   -1.5370   -5.7473 N   0  0  0  0  0  0  0  0  0  0  0  0
  -28.2037   -2.7036   -6.2450 C   0  0  0  0  0  0  0  0  0  0  0  0
  -28.4479   -3.7453   -5.3617 C   0  0  0  0  0  0  0  0  0  0  0  0
  -28.8699   -5.0174   -5.7807 C   0  0  0  0  0  0  0  0  0  0  0  0
  -29.0734   -5.2411   -7.1498 C   0  0  0  0  0  0  0  0  0  0  0  0
  -28.8471   -4.1887   -8.0490 C   0  0  0  0  0  0  0  0  0  0  0  0
  -28.4049   -2.9185   -7.6072 C   0  0  0  0  0  0  0  0  0  0  0  0
  -29.0990   -6.0434   -4.9025 O   0  0  0  0  0  0  0  0  0  0  0  0
  -30.4017   -6.1682   -4.3431 C   0  0  0  0  0  0  0  0  0  0  0  0
  -29.4836   -6.3858   -7.7808 O   0  0  0  0  0  0  0  0  0  0  0  0
  -28.5097   -7.3439   -8.1690 C   0  0  0  0  0  0  0  0  0  0  0  0
  -25.1535   -1.3576  -12.4087 C   0  0  0  0  0  0  0  0  0  0  0  0
  -26.4344   -1.5455  -12.9337 C   0  0  0  0  0  0  0  0  0  0  0  0
  -27.5351   -1.7670  -12.0997 C   0  0  0  0  0  0  0  0  0  0  0  0
  -27.3647   -1.8557  -10.7233 C   0  0  0  0  0  0  0  0  0  0  0  0
  -26.0772   -1.6983  -10.1955 C   0  0  0  0  0  0  0  0  0  0  0  0
  -24.9750   -1.4638  -11.0294 C   0  0  0  0  0  0  0  0  0  0  0  0
  -23.4456    0.1623  -13.3504 C   0  0  0  0  0  0  0  0  0  0  0  0
  -23.7149    1.1822  -12.7363 O   0  0  0  0  0  0  0  0  0  0  0  0
  -24.0353   -1.0673  -13.2132 N   0  0  0  0  0  0  0  0  0  0  0  0
  -23.5907   -1.8142  -13.7283 H   0  0  0  0  0  0  0  0  0  0  0  0
  -22.4982    0.1071  -14.3275 O   0  0  0  0  0  0  0  0  0  0  0  0
  -20.3054    0.7115  -15.0923 C   0  0  0  0  0  0  0  0  0  0  0  0
  -21.4556    1.0861  -14.1735 C   0  0  0  0  0  0  0  0  0  0  0  0
 27 28  1  0  0  0
 28 26  1  0  0  0
 26 22  1  0  0  0
 22 23  2  0  0  0
 22 24  1  0  0  0
 24 16  1  0  0  0
 24 25  1  0  0  0
 16 17  1  0  0  0
 16 21  2  0  0  0
 17 18  2  0  0  0
 18 19  1  0  0  0
 19  1  1  0  0  0
 19 20  2  0  0  0
  1  2  1  0  0  0
  2  3  1  0  0  0
  2 11  2  0  0  0
  3  4  2  0  0  0
  4  5  1  0  0  0
  5  6  2  0  0  0
  6  7  1  0  0  0
  6 11  1  0  0  0
  7  8  2  0  0  0
  8 12  1  0  0  0
  8  9  1  0  0  0
 12 13  1  0  0  0
  9 14  1  0  0  0
  9 10  2  0  0  0
 14 15  1  0  0  0
 10 11  1  0  0  0
 20 21  1  0  0  0
M  END
> <minimizedAffinity>
-7.96992

$$$$
