CHEMBL151656


 34 39  0  0  0  0  0  0  0  0999 V2000
  -28.3878   -0.4776   -6.5525 C   0  0  0  0  0  0  0  0  0  0  0  0
  -27.8674   -1.1071   -7.6863 C   0  0  0  0  0  0  0  0  0  0  0  0
  -27.8139   -2.4941   -7.7938 C   0  0  0  0  0  0  0  0  0  0  0  0
  -28.2930   -3.2601   -6.7255 C   0  0  0  0  0  0  0  0  0  0  0  0
  -28.8780   -2.6548   -5.5887 C   0  0  0  0  0  0  0  0  0  0  0  0
  -28.9683   -1.2470   -5.5330 C   0  0  0  0  0  0  0  0  0  0  0  0
  -29.2912   -3.7321   -4.8548 C   0  0  0  0  0  0  0  0  0  0  0  0
  -30.4589   -3.7628   -4.0471 C   0  0  0  0  0  0  0  0  0  0  0  0
  -31.1809   -5.0356   -4.0239 C   0  0  0  0  0  0  0  0  0  0  0  0
  -30.6041   -6.1409   -4.6819 C   0  0  0  0  0  0  0  0  0  0  0  0
  -29.2151   -6.0437   -4.6127 C   0  0  0  0  0  0  0  0  0  0  0  0
  -28.7495   -4.9227   -5.2325 C   0  0  0  0  0  0  0  0  0  0  0  0
  -28.4083   -4.6570   -6.5706 N   0  0  0  0  0  0  0  0  0  0  0  0
  -28.6487   -7.3614   -4.3095 C   0  0  0  0  0  0  0  0  0  0  0  0
  -29.5354   -8.1534   -5.2243 C   0  0  0  0  0  0  0  0  0  0  0  0
  -28.9434   -9.0135   -6.1507 C   0  0  0  0  0  0  0  0  0  0  0  0
  -29.5551   -9.1331   -7.3817 C   0  0  0  0  0  0  0  0  0  0  0  0
  -30.7739   -8.4700   -7.6178 C   0  0  0  0  0  0  0  0  0  0  0  0
  -31.3997   -7.6407   -6.6337 C   0  0  0  0  0  0  0  0  0  0  0  0
  -30.7757   -7.4300   -5.3945 C   0  0  0  0  0  0  0  0  0  0  0  0
  -31.9360   -5.0342   -2.7886 C   0  0  0  0  0  0  0  0  0  0  0  0
  -32.5509   -5.9087   -2.1966 O   0  0  0  0  0  0  0  0  0  0  0  0
  -31.6639   -3.7811   -2.2033 N   0  0  0  0  0  0  0  0  0  0  0  0
  -30.7743   -2.8938   -2.9281 C   0  0  0  0  0  0  0  0  0  0  0  0
  -31.7651   -3.7111   -1.1998 H   0  0  0  0  0  0  0  0  0  0  0  0
  -29.6806    1.6780   -6.5581 C   0  0  0  0  0  0  0  0  0  0  0  0
  -28.3119    1.0238   -6.3952 C   0  0  0  0  0  0  0  0  0  0  0  0
  -27.7867    1.3678   -5.1181 O   0  0  0  0  0  0  0  0  0  0  0  0
  -27.6879    0.5481   -4.6052 H   0  0  0  0  0  0  0  0  0  0  0  0
  -28.8063   -5.5449   -7.6644 C   0  0  0  0  0  0  0  0  0  0  0  0
  -27.8458   -5.9186   -8.7856 C   0  0  0  0  0  0  0  0  0  0  0  0
  -27.5174   -7.3965   -8.7708 C   0  0  0  0  0  0  0  0  0  0  0  0
  -26.6910   -7.7144   -9.8836 O   0  0  0  0  0  0  0  0  0  0  0  0
  -27.2077   -7.5562  -10.6920 H   0  0  0  0  0  0  0  0  0  0  0  0
 26 27  1  0  0  0
 27 28  1  0  0  0
 27  1  1  0  0  0
 28 29  1  0  0  0
  1  2  1  0  0  0
  1  6  2  0  0  0
  2  3  2  0  0  0
  3  4  1  0  0  0
  4  5  2  0  0  0
  4 13  1  0  0  0
  5  6  1  0  0  0
  5  7  1  0  0  0
  7  8  1  0  0  0
  7 12  2  0  0  0
  8  9  2  0  0  0
  8 24  1  0  0  0
  9 10  1  0  0  0
  9 21  1  0  0  0
 10 11  2  0  0  0
 10 20  1  0  0  0
 11 12  1  0  0  0
 11 14  1  0  0  0
 12 13  1  0  0  0
 13 30  1  0  0  0
 30 31  1  0  0  0
 31 32  1  0  0  0
 32 33  1  0  0  0
 33 34  1  0  0  0
 14 15  1  0  0  0
 15 16  1  0  0  0
 15 20  2  0  0  0
 16 17  2  0  0  0
 17 18  1  0  0  0
 18 19  2  0  0  0
 19 20  1  0  0  0
 21 22  2  0  0  0
 21 23  1  0  0  0
 23 24  1  0  0  0
 23 25  1  0  0  0
M  END
> <minimizedAffinity>
-8.46712

$$$$
