CHEMBL3919479


 36 40  0  0  0  0  0  0  0  0999 V2000
  -28.2788   -9.5852   -4.8032 N   0  0  0  0  0  0  0  0  0  0  0  0
  -28.6889   -8.1900   -5.0298 C   0  0  0  0  0  0  0  0  0  0  0  0
  -29.5196   -8.0558   -6.1413 C   0  0  0  0  0  0  0  0  0  0  0  0
  -29.5880   -6.9054   -6.8414 C   0  0  0  0  0  0  0  0  0  0  0  0
  -28.9396   -5.7978   -6.4194 C   0  0  0  0  0  0  0  0  0  0  0  0
  -28.8585   -4.8057   -7.3036 N   0  0  0  0  0  0  0  0  0  0  0  0
  -28.3782   -3.6180   -6.9843 C   0  0  0  0  0  0  0  0  0  0  0  0
  -28.1943   -3.3104   -5.6387 C   0  0  0  0  0  0  0  0  0  0  0  0
  -28.0542   -4.3767   -4.7277 N   0  0  0  0  0  0  0  0  0  0  0  0
  -28.3575   -5.6874   -5.1412 C   0  0  0  0  0  0  0  0  0  0  0  0
  -28.1612   -6.9583   -4.4216 C   0  0  0  0  0  0  0  0  0  0  0  0
  -28.6423   -1.8684   -5.3586 C   0  0  0  0  0  0  0  0  0  0  0  0
  -27.6944   -0.8499   -5.0971 C   0  0  0  0  0  0  0  0  0  0  0  0
  -28.2483    0.3547   -5.1368 N   0  0  0  0  0  0  0  0  0  0  0  0
  -29.5300    0.1852   -5.4052 N   0  0  0  0  0  0  0  0  0  0  0  0
  -30.3808    1.3377   -5.6420 C   0  0  0  0  0  0  0  0  0  0  0  0
  -29.8334   -1.1497   -5.5157 C   0  0  0  0  0  0  0  0  0  0  0  0
  -24.5127  -10.0965   -4.8629 C   0  0  0  0  0  0  0  0  0  0  0  0
  -24.3559  -10.8809   -3.7014 C   0  0  0  0  0  0  0  0  0  0  0  0
  -25.4561  -11.2841   -2.9554 C   0  0  0  0  0  0  0  0  0  0  0  0
  -26.7390  -10.8859   -3.3593 C   0  0  0  0  0  0  0  0  0  0  0  0
  -26.9564  -10.1107   -4.5253 C   0  0  0  0  0  0  0  0  0  0  0  0
  -25.8238   -9.7340   -5.2815 C   0  0  0  0  0  0  0  0  0  0  0  0
  -22.6113  -10.4178   -6.3575 C   0  0  0  0  0  0  0  0  0  0  0  0
  -23.4367   -9.6426   -5.5563 O   0  0  0  0  0  0  0  0  0  0  0  0
  -25.2370  -12.0321   -1.8388 O   0  0  0  0  0  0  0  0  0  0  0  0
  -24.0102  -12.2760   -1.2540 C   0  0  0  0  0  0  0  0  0  0  0  0
  -29.3520  -10.5820   -5.1463 C   0  0  0  0  0  0  0  0  0  0  0  0
  -29.0554  -11.6368   -6.2556 C   0  0  0  0  0  0  0  0  0  0  0  0
  -29.7771  -11.6092   -7.6408 C   0  0  0  0  0  0  0  0  0  0  0  0
  -29.0041  -10.7877   -8.6284 N   0  0  0  0  0  0  0  0  0  0  0  0
  -27.5390  -10.9209   -8.3897 C   0  0  0  0  0  0  0  0  0  0  0  0
  -26.6499  -10.6017   -9.5638 C   0  0  0  0  0  0  0  0  0  0  0  0
  -27.1224  -10.2794  -10.7684 C   0  0  0  0  0  0  0  0  0  0  0  0
  -28.5936  -10.2204  -11.0259 C   0  0  0  0  0  0  0  0  0  0  0  0
  -29.3692  -11.1043  -10.0262 C   0  0  0  0  0  0  0  0  0  0  0  0
 24 25  1  0  0  0
 25 18  1  0  0  0
 18 19  1  0  0  0
 18 23  2  0  0  0
 19 20  2  0  0  0
 20 26  1  0  0  0
 20 21  1  0  0  0
 26 27  1  0  0  0
 21 22  2  0  0  0
 22  1  1  0  0  0
 22 23  1  0  0  0
  1 28  1  0  0  0
  1  2  1  0  0  0
 28 29  1  0  0  0
 29 30  1  0  0  0
 30 31  1  0  0  0
 31 32  1  0  0  0
 31 36  1  0  0  0
 32 33  1  0  0  0
 33 34  2  0  0  0
 34 35  1  0  0  0
 35 36  1  0  0  0
  2  3  1  0  0  0
  2 11  2  0  0  0
  3  4  2  0  0  0
  4  5  1  0  0  0
  5  6  1  0  0  0
  5 10  2  0  0  0
  6  7  2  0  0  0
  7  8  1  0  0  0
  8 12  1  0  0  0
  8  9  2  0  0  0
 12 13  1  0  0  0
 12 17  2  0  0  0
 13 14  2  0  0  0
 14 15  1  0  0  0
 15 16  1  0  0  0
 15 17  1  0  0  0
  9 10  1  0  0  0
 10 11  1  0  0  0
M  END
> <minimizedAffinity>
-7.94939

$$$$
