CHEMBL3905276


 37 40  0  0  0  0  0  0  0  0999 V2000
  -13.0954   -4.1047  -12.9157 N   0  0  0  0  0  0  0  0  0  0  0  0
  -12.9689   -2.8164  -13.5592 C   0  0  0  0  0  0  0  0  0  0  0  0
  -11.7199   -2.2009  -13.3856 C   0  0  0  0  0  0  0  0  0  0  0  0
  -11.6473   -0.8248  -13.3501 C   0  0  0  0  0  0  0  0  0  0  0  0
  -12.6916   -0.0182  -13.7117 C   0  0  0  0  0  0  0  0  0  0  0  0
  -12.4800    1.2815  -13.4547 N   0  0  0  0  0  0  0  0  0  0  0  0
  -13.3121    2.1561  -14.0238 C   0  0  0  0  0  0  0  0  0  0  0  0
  -14.2858    1.7638  -14.9205 C   0  0  0  0  0  0  0  0  0  0  0  0
  -14.6277    0.4177  -15.0264 N   0  0  0  0  0  0  0  0  0  0  0  0
  -13.8423   -0.5402  -14.3392 C   0  0  0  0  0  0  0  0  0  0  0  0
  -13.9904   -1.9949  -14.1371 C   0  0  0  0  0  0  0  0  0  0  0  0
  -14.6313    2.8048  -15.9222 C   0  0  0  0  0  0  0  0  0  0  0  0
  -15.8438    3.4192  -16.3061 C   0  0  0  0  0  0  0  0  0  0  0  0
  -15.6665    4.4932  -17.0915 N   0  0  0  0  0  0  0  0  0  0  0  0
  -14.3272    4.6022  -17.2094 N   0  0  0  0  0  0  0  0  0  0  0  0
  -13.6728    3.6641  -16.4506 C   0  0  0  0  0  0  0  0  0  0  0  0
  -13.7083    5.5035  -18.1890 C   0  0  0  0  0  0  0  0  0  0  0  0
  -13.2207    4.7034  -19.3995 C   0  0  0  0  0  0  0  0  0  0  0  0
  -14.5704    6.6836  -18.6606 C   0  0  0  0  0  0  0  0  0  0  0  0
  -13.7403   -6.9554  -15.2870 C   0  0  0  0  0  0  0  0  0  0  0  0
  -12.9861   -7.9727  -14.7003 C   0  0  0  0  0  0  0  0  0  0  0  0
  -12.3013   -7.7308  -13.5157 C   0  0  0  0  0  0  0  0  0  0  0  0
  -12.3898   -6.4711  -12.9093 C   0  0  0  0  0  0  0  0  0  0  0  0
  -13.1514   -5.4208  -13.4505 C   0  0  0  0  0  0  0  0  0  0  0  0
  -13.8302   -5.6936  -14.6545 C   0  0  0  0  0  0  0  0  0  0  0  0
  -13.6712   -6.7085  -17.6690 C   0  0  0  0  0  0  0  0  0  0  0  0
  -14.3920   -7.0836  -16.4923 O   0  0  0  0  0  0  0  0  0  0  0  0
  -11.4889   -8.6234  -12.8672 O   0  0  0  0  0  0  0  0  0  0  0  0
  -12.0962   -9.8129  -12.3735 C   0  0  0  0  0  0  0  0  0  0  0  0
  -13.6907   -3.9393  -11.5201 C   0  0  0  0  0  0  0  0  0  0  0  0
  -14.8458   -4.8988  -11.1329 C   0  0  0  0  0  0  0  0  0  0  0  0
  -14.8201   -5.1804   -9.7109 O   0  0  0  0  0  0  0  0  0  0  0  0
  -15.1960   -4.4139   -9.2396 H   0  0  0  0  0  0  0  0  0  0  0  0
  -16.1924   -4.2673  -11.5729 C   0  0  0  0  0  0  0  0  0  0  0  0
  -16.4989   -3.1531  -10.8699 F   0  0  0  0  0  0  0  0  0  0  0  0
  -16.1854   -3.9281  -12.8806 F   0  0  0  0  0  0  0  0  0  0  0  0
  -17.2204   -5.1330  -11.3850 F   0  0  0  0  0  0  0  0  0  0  0  0
 26 27  1  0  0  0
 27 20  1  0  0  0
 20 21  1  0  0  0
 20 25  2  0  0  0
 21 22  2  0  0  0
 22 28  1  0  0  0
 22 23  1  0  0  0
 28 29  1  0  0  0
 23 24  2  0  0  0
 24  1  1  0  0  0
 24 25  1  0  0  0
  1 30  1  0  0  0
  1  2  1  0  0  0
 30 31  1  0  0  0
 31 32  1  0  0  0
 31 34  1  0  0  0
 32 33  1  0  0  0
 34 35  1  0  0  0
 34 36  1  0  0  0
 34 37  1  0  0  0
  2  3  1  0  0  0
  2 11  2  0  0  0
  3  4  2  0  0  0
  4  5  1  0  0  0
  5  6  1  0  0  0
  5 10  2  0  0  0
  6  7  2  0  0  0
  7  8  1  0  0  0
  8 12  1  0  0  0
  8  9  2  0  0  0
 12 13  1  0  0  0
 12 16  2  0  0  0
 13 14  2  0  0  0
 14 15  1  0  0  0
 15 17  1  0  0  0
 15 16  1  0  0  0
 17 18  1  0  0  0
 17 19  1  0  0  0
  9 10  1  0  0  0
 10 11  1  0  0  0
M  END
> <minimizedAffinity>
-7.15230

$$$$
