CHEMBL425825


 36 40  0  0  0  0  0  0  0  0999 V2000
  -29.8188   -4.7767   -6.4677 C   0  0  0  0  0  0  0  0  0  0  0  0
  -29.8303   -3.6690   -5.6009 C   0  0  0  0  0  0  0  0  0  0  0  0
  -29.2071   -2.4624   -5.9390 C   0  0  0  0  0  0  0  0  0  0  0  0
  -28.5304   -2.4617   -7.1490 C   0  0  0  0  0  0  0  0  0  0  0  0
  -27.8458   -1.4266   -7.7146 O   0  0  0  0  0  0  0  0  0  0  0  0
  -27.3107   -1.9654   -8.8580 C   0  0  0  0  0  0  0  0  0  0  0  0
  -27.6452   -3.2237   -9.0686 N   0  0  0  0  0  0  0  0  0  0  0  0
  -28.4282   -3.5509   -7.9955 C   0  0  0  0  0  0  0  0  0  0  0  0
  -29.0813   -4.7453   -7.6597 C   0  0  0  0  0  0  0  0  0  0  0  0
  -26.5220   -1.1340   -9.5617 N   0  0  0  0  0  0  0  0  0  0  0  0
  -25.8378   -0.6117   -9.0277 H   0  0  0  0  0  0  0  0  0  0  0  0
  -26.2037   -1.2492  -10.9304 C   0  0  0  0  0  0  0  0  0  0  0  0
  -27.1594   -1.4919  -11.9223 C   0  0  0  0  0  0  0  0  0  0  0  0
  -26.8005   -1.6026  -13.2666 C   0  0  0  0  0  0  0  0  0  0  0  0
  -25.4728   -1.4453  -13.6575 C   0  0  0  0  0  0  0  0  0  0  0  0
  -25.1185   -1.6447  -15.3361 Cl  0  0  0  0  0  0  0  0  0  0  0  0
  -24.4877   -1.1578  -12.7036 C   0  0  0  0  0  0  0  0  0  0  0  0
  -24.8762   -1.0531  -11.3462 C   0  0  0  0  0  0  0  0  0  0  0  0
  -23.0270   -0.9670  -13.0640 C   0  0  0  0  0  0  0  0  0  0  0  0
  -22.7954    0.1985  -13.9317 N   0  0  0  0  0  0  0  0  0  0  0  0
  -23.0264    1.4770  -13.2281 C   0  0  0  0  0  0  0  0  0  0  0  0
  -22.7767    2.6824  -14.1642 C   0  0  0  0  0  0  0  0  0  0  0  0
  -21.4352    2.7219  -14.7797 N   0  0  0  0  0  0  0  0  0  0  0  0
  -20.4155    3.1204  -13.8131 C   0  0  0  0  0  0  0  0  0  0  0  0
  -21.1376    1.4044  -15.3779 C   0  0  0  0  0  0  0  0  0  0  0  0
  -21.4173    0.1862  -14.4638 C   0  0  0  0  0  0  0  0  0  0  0  0
  -30.4780   -5.9566   -6.1711 O   0  0  0  0  0  0  0  0  0  0  0  0
  -27.8103   -8.0154   -4.8794 C   0  0  0  0  0  0  0  0  0  0  0  0
  -28.5450   -6.8839   -5.1772 C   0  0  0  0  0  0  0  0  0  0  0  0
  -29.6950   -7.0794   -5.9074 C   0  0  0  0  0  0  0  0  0  0  0  0
  -30.0873   -8.2800   -6.3689 N   0  0  0  0  0  0  0  0  0  0  0  0
  -29.3301   -9.3098   -5.9954 C   0  0  0  0  0  0  0  0  0  0  0  0
  -28.2163   -9.2381   -5.2591 N   0  0  0  0  0  0  0  0  0  0  0  0
  -25.8086   -9.0754   -4.0803 C   0  0  0  0  0  0  0  0  0  0  0  0
  -26.6293   -7.8725   -4.1267 N   0  0  0  0  0  0  0  0  0  0  0  0
  -26.1071   -7.0742   -4.4773 H   0  0  0  0  0  0  0  0  0  0  0  0
 34 35  1  0  0  0
 35 28  1  0  0  0
 35 36  1  0  0  0
 28 29  1  0  0  0
 28 33  2  0  0  0
 29 30  2  0  0  0
 30 27  1  0  0  0
 30 31  1  0  0  0
 27  1  1  0  0  0
  1  2  1  0  0  0
  1  9  2  0  0  0
  2  3  2  0  0  0
  3  4  1  0  0  0
  4  5  1  0  0  0
  4  8  2  0  0  0
  5  6  1  0  0  0
  6 10  1  0  0  0
  6  7  2  0  0  0
 10 12  1  0  0  0
 10 11  1  0  0  0
 12 13  1  0  0  0
 12 18  2  0  0  0
 13 14  2  0  0  0
 14 15  1  0  0  0
 15 16  1  0  0  0
 15 17  2  0  0  0
 17 19  1  0  0  0
 17 18  1  0  0  0
 19 20  1  0  0  0
 20 21  1  0  0  0
 20 26  1  0  0  0
 21 22  1  0  0  0
 22 23  1  0  0  0
 23 24  1  0  0  0
 23 25  1  0  0  0
 25 26  1  0  0  0
  7  8  1  0  0  0
  8  9  1  0  0  0
 31 32  2  0  0  0
 32 33  1  0  0  0
M  END
> <minimizedAffinity>
-8.75288

$$$$
