CHEMBL3741965


 35 38  0  0  0  0  0  0  0  0999 V2000
  -28.3971   -7.6475   -4.9723 C   0  0  0  0  0  0  0  0  0  0  0  0
  -28.7766   -8.3798   -6.0258 N   0  0  0  0  0  0  0  0  0  0  0  0
  -29.9935   -8.1092   -6.5452 C   0  0  0  0  0  0  0  0  0  0  0  0
  -30.8183   -7.1055   -6.0956 C   0  0  0  0  0  0  0  0  0  0  0  0
  -30.3248   -6.3900   -5.0389 C   0  0  0  0  0  0  0  0  0  0  0  0
  -29.1653   -6.6993   -4.4323 N   0  0  0  0  0  0  0  0  0  0  0  0
  -27.1035   -7.8442   -4.4750 N   0  0  0  0  0  0  0  0  0  0  0  0
  -26.4868   -7.2254   -4.9866 H   0  0  0  0  0  0  0  0  0  0  0  0
  -24.5528  -10.5572   -4.0933 C   0  0  0  0  0  0  0  0  0  0  0  0
  -25.3031  -11.5007   -3.3803 C   0  0  0  0  0  0  0  0  0  0  0  0
  -26.6447  -11.2549   -3.0841 C   0  0  0  0  0  0  0  0  0  0  0  0
  -27.2381  -10.0477   -3.4648 C   0  0  0  0  0  0  0  0  0  0  0  0
  -26.5104   -9.0877   -4.1761 C   0  0  0  0  0  0  0  0  0  0  0  0
  -25.1718   -9.3616   -4.4868 C   0  0  0  0  0  0  0  0  0  0  0  0
  -23.0956  -10.7704   -4.3980 C   0  0  0  0  0  0  0  0  0  0  0  0
  -21.3095  -11.8463   -6.2993 C   0  0  0  0  0  0  0  0  0  0  0  0
  -22.7872  -10.8775   -6.1584 S   0  0  0  0  0  0  0  0  0  0  0  0
  -22.4444   -9.5335   -6.6033 O   0  0  0  0  0  0  0  0  0  0  0  0
  -23.8500  -11.5932   -6.8257 O   0  0  0  0  0  0  0  0  0  0  0  0
  -31.0398   -5.2602   -4.6281 O   0  0  0  0  0  0  0  0  0  0  0  0
  -30.4000   -4.0362   -4.7140 C   0  0  0  0  0  0  0  0  0  0  0  0
  -29.9492   -3.3401   -3.5886 C   0  0  0  0  0  0  0  0  0  0  0  0
  -29.5783   -2.0080   -3.6948 C   0  0  0  0  0  0  0  0  0  0  0  0
  -29.4449   -1.4382   -4.9552 C   0  0  0  0  0  0  0  0  0  0  0  0
  -28.9838   -0.1385   -5.1094 C   0  0  0  0  0  0  0  0  0  0  0  0
  -27.7185   -0.1128   -5.6627 C   0  0  0  0  0  0  0  0  0  0  0  0
  -27.4885   -0.9795   -6.7299 C   0  0  0  0  0  0  0  0  0  0  0  0
  -28.4346   -1.9874   -7.0277 C   0  0  0  0  0  0  0  0  0  0  0  0
  -29.3918   -2.3069   -6.0506 C   0  0  0  0  0  0  0  0  0  0  0  0
  -30.0802   -3.5335   -5.9766 C   0  0  0  0  0  0  0  0  0  0  0  0
  -29.8630    0.8146   -5.9276 C   0  0  0  0  0  0  0  0  0  0  0  0
  -29.2819    1.6852   -6.8118 N   0  0  0  0  0  0  0  0  0  0  0  0
  -31.0789    0.8720   -5.7464 O   0  0  0  0  0  0  0  0  0  0  0  0
  -28.2740    1.8154   -6.8918 H   0  0  0  0  0  0  0  0  0  0  0  0
  -29.8516    2.4824   -7.0821 H   0  0  0  0  0  0  0  0  0  0  0  0
 16 17  1  0  0  0
 17 18  2  0  0  0
 17 19  2  0  0  0
 17 15  1  0  0  0
 15  9  1  0  0  0
  9 10  1  0  0  0
  9 14  2  0  0  0
 10 11  2  0  0  0
 11 12  1  0  0  0
 12 13  2  0  0  0
 13  7  1  0  0  0
 13 14  1  0  0  0
  7  1  1  0  0  0
  7  8  1  0  0  0
  1  2  1  0  0  0
  1  6  2  0  0  0
  2  3  2  0  0  0
  3  4  1  0  0  0
  4  5  2  0  0  0
  5 20  1  0  0  0
  5  6  1  0  0  0
 20 21  1  0  0  0
 21 22  1  0  0  0
 21 30  2  0  0  0
 22 23  2  0  0  0
 23 24  1  0  0  0
 24 25  1  0  0  0
 24 29  2  0  0  0
 25 31  1  0  0  0
 25 26  2  0  0  0
 31 32  1  0  0  0
 31 33  2  0  0  0
 32 34  1  0  0  0
 32 35  1  0  0  0
 26 27  1  0  0  0
 27 28  2  0  0  0
 28 29  1  0  0  0
 29 30  1  0  0  0
M  END
> <minimizedAffinity>
-9.56766

$$$$
