CHEMBL3287221


 26 29  0  0  0  0  0  0  0  0999 V2000
  -13.3171    0.2640  -17.8614 C   0  0  0  0  0  0  0  0  0  0  0  0
  -14.0792    0.2151  -16.5770 C   0  0  0  0  0  0  0  0  0  0  0  0
  -13.6520   -0.6603  -15.6303 N   0  0  0  0  0  0  0  0  0  0  0  0
  -14.2452   -0.8196  -14.4178 C   0  0  0  0  0  0  0  0  0  0  0  0
  -15.3710   -0.0086  -14.1664 C   0  0  0  0  0  0  0  0  0  0  0  0
  -16.1866    0.0469  -13.0943 N   0  0  0  0  0  0  0  0  0  0  0  0
  -17.1277    0.9761  -13.3727 C   0  0  0  0  0  0  0  0  0  0  0  0
  -16.9324    1.5129  -14.6387 C   0  0  0  0  0  0  0  0  0  0  0  0
  -15.8032    0.8723  -15.1357 C   0  0  0  0  0  0  0  0  0  0  0  0
  -15.1753    1.0045  -16.3366 N   0  0  0  0  0  0  0  0  0  0  0  0
  -16.1482   -0.5077  -12.2145 H   0  0  0  0  0  0  0  0  0  0  0  0
  -13.6760   -1.7958  -13.5266 N   0  0  0  0  0  0  0  0  0  0  0  0
  -12.2396   -1.8929  -13.3123 C   0  0  0  0  0  0  0  0  0  0  0  0
  -14.5663   -2.7591  -12.9184 C   0  0  0  0  0  0  0  0  0  0  0  0
  -15.3272   -3.6710  -13.6853 C   0  0  0  0  0  0  0  0  0  0  0  0
  -16.1957   -4.5747  -13.0610 C   0  0  0  0  0  0  0  0  0  0  0  0
  -16.3077   -4.6028  -11.6704 C   0  0  0  0  0  0  0  0  0  0  0  0
  -15.5521   -3.7275  -10.8935 C   0  0  0  0  0  0  0  0  0  0  0  0
  -14.6952   -2.8157  -11.5083 C   0  0  0  0  0  0  0  0  0  0  0  0
  -17.8192    2.5721  -15.2509 C   0  0  0  0  0  0  0  0  0  0  0  0
  -19.2898    2.3982  -14.9553 C   0  0  0  0  0  0  0  0  0  0  0  0
  -19.9045    1.1373  -15.0710 C   0  0  0  0  0  0  0  0  0  0  0  0
  -21.2593    0.9799  -14.7537 C   0  0  0  0  0  0  0  0  0  0  0  0
  -22.0067    2.0735  -14.3084 C   0  0  0  0  0  0  0  0  0  0  0  0
  -21.4028    3.3266  -14.1826 C   0  0  0  0  0  0  0  0  0  0  0  0
  -20.0522    3.4910  -14.5067 C   0  0  0  0  0  0  0  0  0  0  0  0
  1  2  1  0  0  0
  2  3  1  0  0  0
  2 10  2  0  0  0
  3  4  2  0  0  0
  4 12  1  0  0  0
  4  5  1  0  0  0
 12 13  1  0  0  0
 12 14  1  0  0  0
 14 15  1  0  0  0
 14 19  2  0  0  0
 15 16  2  0  0  0
 16 17  1  0  0  0
 17 18  2  0  0  0
 18 19  1  0  0  0
  5  6  1  0  0  0
  5  9  2  0  0  0
  6  7  1  0  0  0
  6 11  1  0  0  0
  7  8  2  0  0  0
  8 20  1  0  0  0
  8  9  1  0  0  0
 20 21  1  0  0  0
 21 22  1  0  0  0
 21 26  2  0  0  0
 22 23  2  0  0  0
 23 24  1  0  0  0
 24 25  2  0  0  0
 25 26  1  0  0  0
  9 10  1  0  0  0
M  END
> <minimizedAffinity>
-8.22083

$$$$
