CHEMBL360032


 31 34  0  0  0  0  0  0  0  0999 V2000
  -14.7819   -2.1877  -13.1110 C   0  0  0  0  0  0  0  0  0  0  0  0
  -13.4188   -1.9684  -13.3295 C   0  0  0  0  0  0  0  0  0  0  0  0
  -12.4570   -2.5113  -12.4668 C   0  0  0  0  0  0  0  0  0  0  0  0
  -12.8321   -3.3448  -11.4061 C   0  0  0  0  0  0  0  0  0  0  0  0
  -14.2148   -3.4908  -11.1618 C   0  0  0  0  0  0  0  0  0  0  0  0
  -15.1833   -2.8911  -11.9812 C   0  0  0  0  0  0  0  0  0  0  0  0
  -11.8685   -4.2252  -10.7028 C   0  0  0  0  0  0  0  0  0  0  0  0
  -11.7240   -4.1844   -9.2940 C   0  0  0  0  0  0  0  0  0  0  0  0
  -11.1588   -5.2518   -8.5615 C   0  0  0  0  0  0  0  0  0  0  0  0
  -10.8077   -6.4284   -9.2086 C   0  0  0  0  0  0  0  0  0  0  0  0
  -10.9239   -6.4404  -10.5854 C   0  0  0  0  0  0  0  0  0  0  0  0
  -11.3132   -5.3307  -11.3409 C   0  0  0  0  0  0  0  0  0  0  0  0
  -11.2276   -5.7252  -12.7735 C   0  0  0  0  0  0  0  0  0  0  0  0
  -11.4367   -7.1502  -12.7126 N   0  0  0  0  0  0  0  0  0  0  0  0
  -11.1233   -7.6090  -11.4494 C   0  0  0  0  0  0  0  0  0  0  0  0
  -11.2206   -8.7654  -11.0523 O   0  0  0  0  0  0  0  0  0  0  0  0
  -12.3264   -7.5072  -13.0548 H   0  0  0  0  0  0  0  0  0  0  0  0
  -17.2645   -0.2567  -14.9162 N   0  0  0  0  0  0  0  0  0  0  0  0
  -16.3073   -0.4996  -13.9440 C   0  0  0  0  0  0  0  0  0  0  0  0
  -15.9699    0.3059  -13.0810 O   0  0  0  0  0  0  0  0  0  0  0  0
  -15.7525   -1.7704  -14.0561 N   0  0  0  0  0  0  0  0  0  0  0  0
  -17.7520   -1.0726  -15.2604 H   0  0  0  0  0  0  0  0  0  0  0  0
  -15.5987   -2.0577  -15.0141 H   0  0  0  0  0  0  0  0  0  0  0  0
  -19.9004    2.3691  -14.7955 C   0  0  0  0  0  0  0  0  0  0  0  0
  -19.2043    3.4839  -15.2643 C   0  0  0  0  0  0  0  0  0  0  0  0
  -17.8794    3.3543  -15.6720 C   0  0  0  0  0  0  0  0  0  0  0  0
  -17.2400    2.1178  -15.5920 C   0  0  0  0  0  0  0  0  0  0  0  0
  -17.9078    0.9966  -15.0882 C   0  0  0  0  0  0  0  0  0  0  0  0
  -19.2548    1.1241  -14.7300 C   0  0  0  0  0  0  0  0  0  0  0  0
  -21.7715    1.1085  -14.0450 C   0  0  0  0  0  0  0  0  0  0  0  0
  -21.1982    2.3752  -14.3558 O   0  0  0  0  0  0  0  0  0  0  0  0
 30 31  1  0  0  0
 31 24  1  0  0  0
 24 25  1  0  0  0
 24 29  2  0  0  0
 25 26  2  0  0  0
 26 27  1  0  0  0
 27 28  2  0  0  0
 28 18  1  0  0  0
 28 29  1  0  0  0
 18 19  1  0  0  0
 18 22  1  0  0  0
 19 20  2  0  0  0
 19 21  1  0  0  0
 21  1  1  0  0  0
 21 23  1  0  0  0
  1  2  1  0  0  0
  1  6  2  0  0  0
  2  3  2  0  0  0
  3  4  1  0  0  0
  4  7  1  0  0  0
  4  5  2  0  0  0
  7  8  1  0  0  0
  7 12  2  0  0  0
  8  9  2  0  0  0
  9 10  1  0  0  0
 10 11  2  0  0  0
 11 12  1  0  0  0
 11 15  1  0  0  0
 12 13  1  0  0  0
 13 14  1  0  0  0
 14 15  1  0  0  0
 14 17  1  0  0  0
 15 16  2  0  0  0
  5  6  1  0  0  0
M  END
> <minimizedAffinity>
-7.95596

$$$$
