CHEMBL1230609


 48 53  0  0  0  0  0  0  0  0999 V2000
  -22.3501   -0.1476  -13.7273 C   0  0  0  0  0  0  0  0  0  0  0  0
  -22.4100   -0.0942  -12.3360 C   0  0  0  0  0  0  0  0  0  0  0  0
  -23.6036   -0.3390  -11.6673 C   0  0  0  0  0  0  0  0  0  0  0  0
  -24.7980   -0.5082  -12.3625 C   0  0  0  0  0  0  0  0  0  0  0  0
  -24.7586   -0.5720  -13.7582 C   0  0  0  0  0  0  0  0  0  0  0  0
  -23.5391   -0.3874  -14.4272 C   0  0  0  0  0  0  0  0  0  0  0  0
  -23.5265   -0.4535  -15.7671 F   0  0  0  0  0  0  0  0  0  0  0  0
  -26.0328   -0.5608  -11.6860 N   0  0  0  0  0  0  0  0  0  0  0  0
  -26.5014   -1.6689  -10.9879 C   0  0  0  0  0  0  0  0  0  0  0  0
  -26.0076   -2.7861  -10.9221 O   0  0  0  0  0  0  0  0  0  0  0  0
  -26.5386    0.3113  -11.5641 H   0  0  0  0  0  0  0  0  0  0  0  0
  -27.7408   -1.4184  -10.2025 C   0  0  0  0  0  0  0  0  0  0  0  0
  -28.9977   -1.1538  -11.0358 C   0  0  0  0  0  0  0  0  0  0  0  0
  -28.4065   -0.0457  -10.2259 C   0  0  0  0  0  0  0  0  0  0  0  0
  -27.8321   -2.1954   -8.9333 C   0  0  0  0  0  0  0  0  0  0  0  0
  -27.1323   -1.8335   -8.0076 O   0  0  0  0  0  0  0  0  0  0  0  0
  -28.7247   -3.2618   -8.9469 N   0  0  0  0  0  0  0  0  0  0  0  0
  -29.1296   -3.5268   -9.8408 H   0  0  0  0  0  0  0  0  0  0  0  0
  -29.0254   -4.0715   -7.8264 C   0  0  0  0  0  0  0  0  0  0  0  0
  -29.7906   -3.5932   -6.7577 C   0  0  0  0  0  0  0  0  0  0  0  0
  -29.9946   -4.3633   -5.6127 C   0  0  0  0  0  0  0  0  0  0  0  0
  -29.4455   -5.6322   -5.5406 C   0  0  0  0  0  0  0  0  0  0  0  0
  -29.5972   -6.3530   -4.4230 F   0  0  0  0  0  0  0  0  0  0  0  0
  -28.7386   -6.1633   -6.6162 C   0  0  0  0  0  0  0  0  0  0  0  0
  -28.5464   -5.3891   -7.7728 C   0  0  0  0  0  0  0  0  0  0  0  0
  -21.1847   -0.0304  -14.4651 O   0  0  0  0  0  0  0  0  0  0  0  0
  -16.9685    0.7711  -14.9409 C   0  0  0  0  0  0  0  0  0  0  0  0
  -18.3242    0.4769  -14.9931 C   0  0  0  0  0  0  0  0  0  0  0  0
  -19.3067    1.4877  -14.9658 C   0  0  0  0  0  0  0  0  0  0  0  0
  -20.6764    1.2295  -14.7389 C   0  0  0  0  0  0  0  0  0  0  0  0
  -21.6000    2.2646  -14.7818 C   0  0  0  0  0  0  0  0  0  0  0  0
  -21.1183    3.5392  -14.9993 C   0  0  0  0  0  0  0  0  0  0  0  0
  -19.8068    3.8364  -15.1403 N   0  0  0  0  0  0  0  0  0  0  0  0
  -18.9143    2.8302  -15.1073 C   0  0  0  0  0  0  0  0  0  0  0  0
  -17.5570    3.1093  -15.2081 C   0  0  0  0  0  0  0  0  0  0  0  0
  -16.5803    2.1033  -15.1348 C   0  0  0  0  0  0  0  0  0  0  0  0
  -15.8167   -0.7094  -13.4223 C   0  0  0  0  0  0  0  0  0  0  0  0
  -16.0159   -0.1867  -14.7350 O   0  0  0  0  0  0  0  0  0  0  0  0
  -15.2900    2.5631  -15.2668 O   0  0  0  0  0  0  0  0  0  0  0  0
  -15.0408    3.2920  -16.4683 C   0  0  0  0  0  0  0  0  0  0  0  0
  -13.6850    3.9875  -16.4231 C   0  0  0  0  0  0  0  0  0  0  0  0
  -13.1566    4.1709  -14.9982 C   0  0  0  0  0  0  0  0  0  0  0  0
  -11.8454    3.5249  -14.7797 N   0  0  0  0  0  0  0  0  0  0  0  0
  -11.8395    2.0660  -15.0377 C   0  0  0  0  0  0  0  0  0  0  0  0
  -12.6515    1.2616  -14.0121 C   0  0  0  0  0  0  0  0  0  0  0  0
  -12.1470    1.4715  -12.6875 O   0  0  0  0  0  0  0  0  0  0  0  0
  -12.1580    2.8652  -12.3488 C   0  0  0  0  0  0  0  0  0  0  0  0
  -11.3915    3.7180  -13.3800 C   0  0  0  0  0  0  0  0  0  0  0  0
 37 38  1  0  0  0
 38 27  1  0  0  0
 27 28  1  0  0  0
 27 36  2  0  0  0
 28 29  2  0  0  0
 29 30  1  0  0  0
 29 34  1  0  0  0
 30 26  1  0  0  0
 30 31  2  0  0  0
 26  1  1  0  0  0
  1  2  1  0  0  0
  1  6  2  0  0  0
  2  3  2  0  0  0
  3  4  1  0  0  0
  4  8  1  0  0  0
  4  5  2  0  0  0
  8  9  1  0  0  0
  8 11  1  0  0  0
  9 10  2  0  0  0
  9 12  1  0  0  0
 12 15  1  0  0  0
 12 13  1  0  0  0
 12 14  1  0  0  0
 15 16  2  0  0  0
 15 17  1  0  0  0
 17 19  1  0  0  0
 17 18  1  0  0  0
 19 20  1  0  0  0
 19 25  2  0  0  0
 20 21  2  0  0  0
 21 22  1  0  0  0
 22 23  1  0  0  0
 22 24  2  0  0  0
 24 25  1  0  0  0
 13 14  1  0  0  0
  5  6  1  0  0  0
  6  7  1  0  0  0
 31 32  1  0  0  0
 32 33  2  0  0  0
 33 34  1  0  0  0
 34 35  2  0  0  0
 35 36  1  0  0  0
 36 39  1  0  0  0
 39 40  1  0  0  0
 40 41  1  0  0  0
 41 42  1  0  0  0
 42 43  1  0  0  0
 43 44  1  0  0  0
 43 48  1  0  0  0
 44 45  1  0  0  0
 45 46  1  0  0  0
 46 47  1  0  0  0
 47 48  1  0  0  0
M  END
> <minimizedAffinity>
-8.11583

$$$$
