CHEMBL3681317


 35 39  0  0  0  0  0  0  0  0999 V2000
  -14.5583   -1.9478  -12.8389 N   0  0  0  0  0  0  0  0  0  0  0  0
  -15.3938   -1.4122  -11.9017 N   0  0  0  0  0  0  0  0  0  0  0  0
  -15.8345   -0.2818  -12.4484 C   0  0  0  0  0  0  0  0  0  0  0  0
  -15.3465   -0.0798  -13.7525 C   0  0  0  0  0  0  0  0  0  0  0  0
  -14.5290   -1.1670  -13.9957 C   0  0  0  0  0  0  0  0  0  0  0  0
  -13.9028   -1.4996  -15.1604 N   0  0  0  0  0  0  0  0  0  0  0  0
  -14.2181   -1.0126  -16.0083 H   0  0  0  0  0  0  0  0  0  0  0  0
  -13.6995   -2.4753  -15.3735 H   0  0  0  0  0  0  0  0  0  0  0  0
  -13.4804   -9.0882  -11.8568 C   0  0  0  0  0  0  0  0  0  0  0  0
  -13.4748   -7.6103  -11.9889 C   0  0  0  0  0  0  0  0  0  0  0  0
  -14.4685   -6.8548  -12.3761 N   0  0  0  0  0  0  0  0  0  0  0  0
  -13.9863   -5.5703  -12.3741 C   0  0  0  0  0  0  0  0  0  0  0  0
  -14.6389   -4.3819  -12.6985 C   0  0  0  0  0  0  0  0  0  0  0  0
  -13.9135   -3.1815  -12.6007 C   0  0  0  0  0  0  0  0  0  0  0  0
  -12.5656   -3.1845  -12.2259 C   0  0  0  0  0  0  0  0  0  0  0  0
  -11.8926   -4.3691  -11.8880 C   0  0  0  0  0  0  0  0  0  0  0  0
  -12.6652   -5.5465  -11.9636 C   0  0  0  0  0  0  0  0  0  0  0  0
  -12.3618   -6.8671  -11.7139 N   0  0  0  0  0  0  0  0  0  0  0  0
  -11.4675   -7.2098  -11.3940 H   0  0  0  0  0  0  0  0  0  0  0  0
  -15.7030    0.9000  -14.7505 C   0  0  0  0  0  0  0  0  0  0  0  0
  -14.8313    1.4957  -15.3807 O   0  0  0  0  0  0  0  0  0  0  0  0
  -17.1016    1.0749  -15.0401 C   0  0  0  0  0  0  0  0  0  0  0  0
  -17.7780    2.2421  -14.7638 C   0  0  0  0  0  0  0  0  0  0  0  0
  -19.1160    2.0533  -15.1231 C   0  0  0  0  0  0  0  0  0  0  0  0
  -20.2272    2.8906  -15.0431 C   0  0  0  0  0  0  0  0  0  0  0  0
  -21.0643    2.3142  -14.1159 C   0  0  0  0  0  0  0  0  0  0  0  0
  -21.4717    0.9960  -14.3675 C   0  0  0  0  0  0  0  0  0  0  0  0
  -20.6077    0.1077  -15.0476 C   0  0  0  0  0  0  0  0  0  0  0  0
  -19.3128    0.6750  -15.2541 C   0  0  0  0  0  0  0  0  0  0  0  0
  -18.0439    0.1575  -15.5109 N   0  0  0  0  0  0  0  0  0  0  0  0
  -17.8385   -0.8032  -15.7513 H   0  0  0  0  0  0  0  0  0  0  0  0
  -23.0745    0.7039  -13.6804 S   0  0  0  0  0  0  0  0  0  0  0  0
  -22.9637   -0.2160  -12.1910 C   0  0  0  0  0  0  0  0  0  0  0  0
  -23.6041    2.0122  -13.3395 O   0  0  0  0  0  0  0  0  0  0  0  0
  -23.7595   -0.1487  -14.6338 O   0  0  0  0  0  0  0  0  0  0  0  0
  9 10  1  0  0  0
 10 11  2  0  0  0
 10 18  1  0  0  0
 11 12  1  0  0  0
 12 13  1  0  0  0
 12 17  2  0  0  0
 13 14  2  0  0  0
 14  1  1  0  0  0
 14 15  1  0  0  0
  1  2  1  0  0  0
  1  5  1  0  0  0
  2  3  2  0  0  0
  3  4  1  0  0  0
  4 20  1  0  0  0
  4  5  2  0  0  0
 20 21  2  0  0  0
 20 22  1  0  0  0
 22 23  2  0  0  0
 22 30  1  0  0  0
 23 24  1  0  0  0
 24 25  1  0  0  0
 24 29  2  0  0  0
 25 26  2  0  0  0
 26 27  1  0  0  0
 27 32  1  0  0  0
 27 28  2  0  0  0
 32 33  1  0  0  0
 32 34  2  0  0  0
 32 35  2  0  0  0
 28 29  1  0  0  0
 29 30  1  0  0  0
 30 31  1  0  0  0
  5  6  1  0  0  0
  6  7  1  0  0  0
  6  8  1  0  0  0
 15 16  2  0  0  0
 16 17  1  0  0  0
 17 18  1  0  0  0
 18 19  1  0  0  0
M  END
> <minimizedAffinity>
-9.33047

$$$$
