CHEMBL1269634


 21 23  0  0  0  0  0  0  0  0999 V2000
  -15.0600    0.4579  -12.5111 O   0  0  0  0  0  0  0  0  0  0  0  0
  -15.3985   -0.3928  -13.3317 C   0  0  0  0  0  0  0  0  0  0  0  0
  -15.9278   -0.1252  -14.5775 N   0  0  0  0  0  0  0  0  0  0  0  0
  -16.3124   -0.8870  -15.1351 H   0  0  0  0  0  0  0  0  0  0  0  0
  -16.2178    1.1658  -15.1054 C   0  0  0  0  0  0  0  0  0  0  0  0
  -15.2128    2.0400  -15.5394 C   0  0  0  0  0  0  0  0  0  0  0  0
  -15.5239    3.3218  -15.9802 C   0  0  0  0  0  0  0  0  0  0  0  0
  -16.8484    3.7405  -15.9973 C   0  0  0  0  0  0  0  0  0  0  0  0
  -17.8669    2.8673  -15.5944 C   0  0  0  0  0  0  0  0  0  0  0  0
  -19.2021    3.2874  -15.6031 C   0  0  0  0  0  0  0  0  0  0  0  0
  -20.2042    2.4169  -15.1980 C   0  0  0  0  0  0  0  0  0  0  0  0
  -19.8332    1.1483  -14.7987 C   0  0  0  0  0  0  0  0  0  0  0  0
  -18.5544    0.7049  -14.7687 N   0  0  0  0  0  0  0  0  0  0  0  0
  -17.5703    1.5539  -15.1557 C   0  0  0  0  0  0  0  0  0  0  0  0
  -15.2192   -1.8138  -12.9191 C   0  0  0  0  0  0  0  0  0  0  0  0
  -15.9714   -2.2102  -11.7923 C   0  0  0  0  0  0  0  0  0  0  0  0
  -15.9959   -3.5373  -11.3638 C   0  0  0  0  0  0  0  0  0  0  0  0
  -15.2653   -4.4939  -12.0559 C   0  0  0  0  0  0  0  0  0  0  0  0
  -14.4972   -4.1164  -13.1592 C   0  0  0  0  0  0  0  0  0  0  0  0
  -14.4669   -2.7816  -13.5946 C   0  0  0  0  0  0  0  0  0  0  0  0
  -13.5164   -2.4575  -14.9992 Cl  0  0  0  0  0  0  0  0  0  0  0  0
  1  2  2  0  0  0
  2  3  1  0  0  0
  2 15  1  0  0  0
  3  5  1  0  0  0
  3  4  1  0  0  0
  5  6  1  0  0  0
  5 14  2  0  0  0
  6  7  2  0  0  0
  7  8  1  0  0  0
  8  9  2  0  0  0
  9 10  1  0  0  0
  9 14  1  0  0  0
 10 11  2  0  0  0
 11 12  1  0  0  0
 12 13  2  0  0  0
 13 14  1  0  0  0
 15 16  1  0  0  0
 15 20  2  0  0  0
 16 17  2  0  0  0
 17 18  1  0  0  0
 18 19  2  0  0  0
 19 20  1  0  0  0
 20 21  1  0  0  0
M  END
> <minimizedAffinity>
-7.87290

$$$$
