CHEMBL1762535


 36 40  0  0  0  0  0  0  0  0999 V2000
  -15.4710   -0.1253  -13.2513 N   0  0  0  0  0  0  0  0  0  0  0  0
  -15.7276   -0.0498  -12.2785 H   0  0  0  0  0  0  0  0  0  0  0  0
  -14.8588   -3.6555  -13.0656 C   0  0  0  0  0  0  0  0  0  0  0  0
  -13.9107   -3.8173  -14.0635 C   0  0  0  0  0  0  0  0  0  0  0  0
  -13.5290   -2.7020  -14.7563 C   0  0  0  0  0  0  0  0  0  0  0  0
  -14.0440   -1.4964  -14.5212 N   0  0  0  0  0  0  0  0  0  0  0  0
  -14.9701   -1.3928  -13.5562 C   0  0  0  0  0  0  0  0  0  0  0  0
  -15.3965   -2.4383  -12.8209 N   0  0  0  0  0  0  0  0  0  0  0  0
  -15.2509   -4.7744  -12.2764 N   0  0  0  0  0  0  0  0  0  0  0  0
  -16.5472   -4.6099  -11.6129 C   0  0  0  0  0  0  0  0  0  0  0  0
  -12.8571   -7.6360  -11.8883 C   0  0  0  0  0  0  0  0  0  0  0  0
  -13.5321   -8.5625  -12.6717 C   0  0  0  0  0  0  0  0  0  0  0  0
  -14.7304   -8.3328  -13.2521 N   0  0  0  0  0  0  0  0  0  0  0  0
  -15.2709   -7.1030  -13.0562 C   0  0  0  0  0  0  0  0  0  0  0  0
  -14.6791   -6.0640  -12.3271 C   0  0  0  0  0  0  0  0  0  0  0  0
  -13.4577   -6.3869  -11.7143 C   0  0  0  0  0  0  0  0  0  0  0  0
  -11.0330   -7.1363  -10.4532 C   0  0  0  0  0  0  0  0  0  0  0  0
  -11.6599   -8.0320  -11.3662 O   0  0  0  0  0  0  0  0  0  0  0  0
  -16.0211    0.8232  -14.1313 C   0  0  0  0  0  0  0  0  0  0  0  0
  -15.2211    1.7543  -14.8083 C   0  0  0  0  0  0  0  0  0  0  0  0
  -15.7566    2.7314  -15.6503 C   0  0  0  0  0  0  0  0  0  0  0  0
  -17.1533    2.7743  -15.7630 C   0  0  0  0  0  0  0  0  0  0  0  0
  -18.0113    1.8542  -15.1296 C   0  0  0  0  0  0  0  0  0  0  0  0
  -17.4100    0.8827  -14.3147 C   0  0  0  0  0  0  0  0  0  0  0  0
  -14.9619    3.5944  -16.3786 N   0  0  0  0  0  0  0  0  0  0  0  0
  -15.3303    4.0389  -17.7290 C   0  0  0  0  0  0  0  0  0  0  0  0
  -14.3150    3.5323  -18.7589 C   0  0  0  0  0  0  0  0  0  0  0  0
  -12.9764    3.9222  -18.4060 O   0  0  0  0  0  0  0  0  0  0  0  0
  -12.6218    3.3676  -17.1263 C   0  0  0  0  0  0  0  0  0  0  0  0
  -13.5634    3.8451  -16.0038 C   0  0  0  0  0  0  0  0  0  0  0  0
  -19.3795    1.9302  -15.3162 N   0  0  0  0  0  0  0  0  0  0  0  0
  -20.1228    3.1943  -15.3973 C   0  0  0  0  0  0  0  0  0  0  0  0
  -21.1272    3.2972  -14.2410 C   0  0  0  0  0  0  0  0  0  0  0  0
  -22.0049    2.1583  -14.2045 O   0  0  0  0  0  0  0  0  0  0  0  0
  -21.2421    0.9537  -14.0248 C   0  0  0  0  0  0  0  0  0  0  0  0
  -20.2308    0.7367  -15.1643 C   0  0  0  0  0  0  0  0  0  0  0  0
 17 18  1  0  0  0
 18 11  1  0  0  0
 11 12  1  0  0  0
 11 16  2  0  0  0
 12 13  2  0  0  0
 13 14  1  0  0  0
 14 15  2  0  0  0
 15  9  1  0  0  0
 15 16  1  0  0  0
  9 10  1  0  0  0
  9  3  1  0  0  0
  3  4  1  0  0  0
  3  8  2  0  0  0
  4  5  2  0  0  0
  5  6  1  0  0  0
  6  7  2  0  0  0
  7  1  1  0  0  0
  7  8  1  0  0  0
  1 19  1  0  0  0
  1  2  1  0  0  0
 19 20  1  0  0  0
 19 24  2  0  0  0
 20 21  2  0  0  0
 21 25  1  0  0  0
 21 22  1  0  0  0
 25 26  1  0  0  0
 25 30  1  0  0  0
 26 27  1  0  0  0
 27 28  1  0  0  0
 28 29  1  0  0  0
 29 30  1  0  0  0
 22 23  2  0  0  0
 23 31  1  0  0  0
 23 24  1  0  0  0
 31 32  1  0  0  0
 31 36  1  0  0  0
 32 33  1  0  0  0
 33 34  1  0  0  0
 34 35  1  0  0  0
 35 36  1  0  0  0
M  END
> <minimizedAffinity>
-8.31103

$$$$
