CHEMBL498551


 32 36  0  0  0  0  0  0  0  0999 V2000
  -29.6367   -4.6450   -5.4983 C   0  0  0  0  0  0  0  0  0  0  0  0
  -30.1772   -4.5770   -4.1843 C   0  0  0  0  0  0  0  0  0  0  0  0
  -30.2547   -3.3978   -3.4444 C   0  0  0  0  0  0  0  0  0  0  0  0
  -29.7327   -2.2396   -3.9720 C   0  0  0  0  0  0  0  0  0  0  0  0
  -29.2198   -2.2564   -5.2680 C   0  0  0  0  0  0  0  0  0  0  0  0
  -28.6226   -1.0798   -5.6996 N   0  0  0  0  0  0  0  0  0  0  0  0
  -28.0063   -0.9448   -6.8949 C   0  0  0  0  0  0  0  0  0  0  0  0
  -27.3949    0.1002   -7.1265 O   0  0  0  0  0  0  0  0  0  0  0  0
  -28.1798   -2.0427   -7.9119 C   0  0  0  0  0  0  0  0  0  0  0  0
  -28.8578   -3.1633   -7.5489 C   0  0  0  0  0  0  0  0  0  0  0  0
  -29.3401   -4.0764   -8.4690 N   0  0  0  0  0  0  0  0  0  0  0  0
  -29.2325   -3.4057   -6.0958 C   0  0  0  0  0  0  0  0  0  0  0  0
  -28.5331   -0.2898   -5.0758 H   0  0  0  0  0  0  0  0  0  0  0  0
  -28.7667   -4.1786   -9.3096 H   0  0  0  0  0  0  0  0  0  0  0  0
  -29.7482   -4.9194   -8.0742 H   0  0  0  0  0  0  0  0  0  0  0  0
  -27.6853   -1.8147   -9.2483 C   0  0  0  0  0  0  0  0  0  0  0  0
  -28.2533   -1.7743  -10.4538 N   0  0  0  0  0  0  0  0  0  0  0  0
  -27.2094   -1.6837  -11.3682 C   0  0  0  0  0  0  0  0  0  0  0  0
  -27.1965   -1.6364  -12.7756 C   0  0  0  0  0  0  0  0  0  0  0  0
  -25.9573   -1.6354  -13.4473 C   0  0  0  0  0  0  0  0  0  0  0  0
  -24.7538   -1.6758  -12.7390 C   0  0  0  0  0  0  0  0  0  0  0  0
  -24.7442   -1.6711  -11.3432 C   0  0  0  0  0  0  0  0  0  0  0  0
  -25.9883   -1.6665  -10.7137 C   0  0  0  0  0  0  0  0  0  0  0  0
  -26.3242   -1.6483   -9.3973 N   0  0  0  0  0  0  0  0  0  0  0  0
  -25.6641   -1.6222   -8.6285 H   0  0  0  0  0  0  0  0  0  0  0  0
  -29.9288  -10.2090   -6.2599 C   0  0  0  0  0  0  0  0  0  0  0  0
  -29.6328   -8.8006   -6.4818 N   0  0  0  0  0  0  0  0  0  0  0  0
  -30.8516   -7.9749   -6.5388 C   0  0  0  0  0  0  0  0  0  0  0  0
  -30.5173   -6.5174   -6.9389 C   0  0  0  0  0  0  0  0  0  0  0  0
  -29.4815   -5.9136   -6.0690 N   0  0  0  0  0  0  0  0  0  0  0  0
  -28.3483   -6.7969   -5.7027 C   0  0  0  0  0  0  0  0  0  0  0  0
  -28.7702   -8.2552   -5.4157 C   0  0  0  0  0  0  0  0  0  0  0  0
 26 27  1  0  0  0
 27 28  1  0  0  0
 27 32  1  0  0  0
 28 29  1  0  0  0
 29 30  1  0  0  0
 30  1  1  0  0  0
 30 31  1  0  0  0
  1  2  1  0  0  0
  1 12  2  0  0  0
  2  3  2  0  0  0
  3  4  1  0  0  0
  4  5  2  0  0  0
  5  6  1  0  0  0
  5 12  1  0  0  0
  6  7  1  0  0  0
  6 13  1  0  0  0
  7  8  2  0  0  0
  7  9  1  0  0  0
  9 16  1  0  0  0
  9 10  2  0  0  0
 16 17  2  0  0  0
 16 24  1  0  0  0
 17 18  1  0  0  0
 18 19  1  0  0  0
 18 23  2  0  0  0
 19 20  2  0  0  0
 20 21  1  0  0  0
 21 22  2  0  0  0
 22 23  1  0  0  0
 23 24  1  0  0  0
 24 25  1  0  0  0
 10 11  1  0  0  0
 10 12  1  0  0  0
 11 14  1  0  0  0
 11 15  1  0  0  0
 31 32  1  0  0  0
M  END
> <minimizedAffinity>
-9.47422

$$$$
