CHEMBL2018756


 30 32  0  0  0  0  0  0  0  0999 V2000
  -15.9618   -1.4226  -13.1196 N   0  0  0  0  0  0  0  0  0  0  0  0
  -16.6093   -1.0604  -12.4311 H   0  0  0  0  0  0  0  0  0  0  0  0
  -15.0288   -0.4309  -13.4954 C   0  0  0  0  0  0  0  0  0  0  0  0
  -13.7359   -0.6227  -13.1777 N   0  0  0  0  0  0  0  0  0  0  0  0
  -12.8774    0.3034  -13.6018 C   0  0  0  0  0  0  0  0  0  0  0  0
  -13.1731    1.3835  -14.3360 N   0  0  0  0  0  0  0  0  0  0  0  0
  -14.4637    1.5569  -14.6610 C   0  0  0  0  0  0  0  0  0  0  0  0
  -14.8317    2.5923  -15.5210 C   0  0  0  0  0  0  0  0  0  0  0  0
  -16.1616    2.8168  -15.9534 C   0  0  0  0  0  0  0  0  0  0  0  0
  -17.1733    2.0001  -15.4524 C   0  0  0  0  0  0  0  0  0  0  0  0
  -16.8020    0.9511  -14.5896 C   0  0  0  0  0  0  0  0  0  0  0  0
  -15.4636    0.6947  -14.2195 C   0  0  0  0  0  0  0  0  0  0  0  0
  -16.2334    3.6711  -17.0235 O   0  0  0  0  0  0  0  0  0  0  0  0
  -15.1918    4.6175  -17.1993 C   0  0  0  0  0  0  0  0  0  0  0  0
  -18.5140    1.9299  -15.6633 O   0  0  0  0  0  0  0  0  0  0  0  0
  -19.4011    1.2141  -14.8410 C   0  0  0  0  0  0  0  0  0  0  0  0
  -15.3325   -5.6071  -12.8140 C   0  0  0  0  0  0  0  0  0  0  0  0
  -15.9839   -4.8820  -11.8058 C   0  0  0  0  0  0  0  0  0  0  0  0
  -16.1899   -3.5059  -11.9067 C   0  0  0  0  0  0  0  0  0  0  0  0
  -15.6997   -2.8012  -12.9987 C   0  0  0  0  0  0  0  0  0  0  0  0
  -15.0449   -3.5219  -14.0089 C   0  0  0  0  0  0  0  0  0  0  0  0
  -14.8589   -4.9175  -13.9421 C   0  0  0  0  0  0  0  0  0  0  0  0
  -14.1891   -5.6004  -15.1024 C   0  0  0  0  0  0  0  0  0  0  0  0
  -14.0839   -7.6016  -12.0429 C   0  0  0  0  0  0  0  0  0  0  0  0
  -13.2645   -7.0694  -11.3103 O   0  0  0  0  0  0  0  0  0  0  0  0
  -15.1276   -6.9981  -12.6965 N   0  0  0  0  0  0  0  0  0  0  0  0
  -15.7735   -7.6299  -13.1450 H   0  0  0  0  0  0  0  0  0  0  0  0
  -14.0522   -8.9244  -12.3616 O   0  0  0  0  0  0  0  0  0  0  0  0
  -11.9792  -10.1306  -12.2792 C   0  0  0  0  0  0  0  0  0  0  0  0
  -12.9061   -9.2957  -13.1467 C   0  0  0  0  0  0  0  0  0  0  0  0
 29 30  1  0  0  0
 30 28  1  0  0  0
 28 24  1  0  0  0
 24 25  2  0  0  0
 24 26  1  0  0  0
 26 17  1  0  0  0
 26 27  1  0  0  0
 17 18  1  0  0  0
 17 22  2  0  0  0
 18 19  2  0  0  0
 19 20  1  0  0  0
 20  1  1  0  0  0
 20 21  2  0  0  0
  1  3  1  0  0  0
  1  2  1  0  0  0
  3  4  1  0  0  0
  3 12  2  0  0  0
  4  5  2  0  0  0
  5  6  1  0  0  0
  6  7  2  0  0  0
  7  8  1  0  0  0
  7 12  1  0  0  0
  8  9  2  0  0  0
  9 13  1  0  0  0
  9 10  1  0  0  0
 13 14  1  0  0  0
 10 15  1  0  0  0
 10 11  2  0  0  0
 15 16  1  0  0  0
 11 12  1  0  0  0
 21 22  1  0  0  0
 22 23  1  0  0  0
M  END
> <minimizedAffinity>
-7.21686

$$$$
