CHEMBL3676381


 36 38  0  0  0  0  0  0  0  0999 V2000
  -26.7424   -9.0748   -5.0563 C   0  0  0  0  0  0  0  0  0  0  0  0
  -27.5756   -8.0421   -4.6197 C   0  0  0  0  0  0  0  0  0  0  0  0
  -28.8426   -7.8440   -5.2127 C   0  0  0  0  0  0  0  0  0  0  0  0
  -29.7012   -6.7705   -4.9364 C   0  0  0  0  0  0  0  0  0  0  0  0
  -30.8947   -6.6433   -5.5481 N   0  0  0  0  0  0  0  0  0  0  0  0
  -31.2223   -7.5705   -6.4475 C   0  0  0  0  0  0  0  0  0  0  0  0
  -30.4610   -8.6009   -6.8182 N   0  0  0  0  0  0  0  0  0  0  0  0
  -29.2793   -8.7302   -6.2099 C   0  0  0  0  0  0  0  0  0  0  0  0
  -28.4465   -9.7698   -6.6031 C   0  0  0  0  0  0  0  0  0  0  0  0
  -27.1914   -9.9790   -6.0252 C   0  0  0  0  0  0  0  0  0  0  0  0
  -24.9074  -10.0448   -3.7606 C   0  0  0  0  0  0  0  0  0  0  0  0
  -23.6991  -10.2424   -3.6900 O   0  0  0  0  0  0  0  0  0  0  0  0
  -25.4091   -9.0875   -4.6092 N   0  0  0  0  0  0  0  0  0  0  0  0
  -24.7024   -8.8402   -5.2948 H   0  0  0  0  0  0  0  0  0  0  0  0
  -25.9557  -12.1625   -3.1690 C   0  0  0  0  0  0  0  0  0  0  0  0
  -25.8892  -10.8399   -2.9777 C   0  0  0  0  0  0  0  0  0  0  0  0
  -29.2914   -5.7314   -4.0569 N   0  0  0  0  0  0  0  0  0  0  0  0
  -29.6704   -5.8794   -3.1240 H   0  0  0  0  0  0  0  0  0  0  0  0
  -29.2910   -4.3598   -4.4178 C   0  0  0  0  0  0  0  0  0  0  0  0
  -29.8157   -3.3912   -3.5516 C   0  0  0  0  0  0  0  0  0  0  0  0
  -29.7213   -2.0328   -3.8527 C   0  0  0  0  0  0  0  0  0  0  0  0
  -29.1186   -1.6214   -5.0438 C   0  0  0  0  0  0  0  0  0  0  0  0
  -28.9667    0.2498   -5.3327 Br  0  0  0  0  0  0  0  0  0  0  0  0
  -28.6443   -2.5743   -5.9529 C   0  0  0  0  0  0  0  0  0  0  0  0
  -27.9117   -2.1300   -7.4549 Cl  0  0  0  0  0  0  0  0  0  0  0  0
  -28.7445   -3.9338   -5.6347 C   0  0  0  0  0  0  0  0  0  0  0  0
  -28.2794   -4.8651   -6.4863 F   0  0  0  0  0  0  0  0  0  0  0  0
  -26.4983  -11.0493   -6.5340 O   0  0  0  0  0  0  0  0  0  0  0  0
  -25.5647  -10.7356   -7.5723 C   0  0  0  0  0  0  0  0  0  0  0  0
  -25.6550  -11.7623   -8.7024 C   0  0  0  0  0  0  0  0  0  0  0  0
  -26.9719  -11.7742   -9.3094 N   0  0  0  0  0  0  0  0  0  0  0  0
  -27.3180  -10.9017  -10.2979 C   0  0  0  0  0  0  0  0  0  0  0  0
  -26.5577  -10.1076  -10.8304 O   0  0  0  0  0  0  0  0  0  0  0  0
  -27.7321  -12.2885   -8.8854 H   0  0  0  0  0  0  0  0  0  0  0  0
  -28.6378  -11.0314  -10.5730 O   0  0  0  0  0  0  0  0  0  0  0  0
  -29.4309   -9.9329  -10.1181 C   0  0  0  0  0  0  0  0  0  0  0  0
 15 16  2  0  0  0
 16 11  1  0  0  0
 11 12  2  0  0  0
 11 13  1  0  0  0
 13  1  1  0  0  0
 13 14  1  0  0  0
  1  2  1  0  0  0
  1 10  2  0  0  0
  2  3  2  0  0  0
  3  4  1  0  0  0
  3  8  1  0  0  0
  4 17  1  0  0  0
  4  5  2  0  0  0
 17 19  1  0  0  0
 17 18  1  0  0  0
 19 20  1  0  0  0
 19 26  2  0  0  0
 20 21  2  0  0  0
 21 22  1  0  0  0
 22 23  1  0  0  0
 22 24  2  0  0  0
 24 25  1  0  0  0
 24 26  1  0  0  0
 26 27  1  0  0  0
  5  6  1  0  0  0
  6  7  2  0  0  0
  7  8  1  0  0  0
  8  9  2  0  0  0
  9 10  1  0  0  0
 10 28  1  0  0  0
 28 29  1  0  0  0
 29 30  1  0  0  0
 30 31  1  0  0  0
 31 32  1  0  0  0
 31 34  1  0  0  0
 32 33  2  0  0  0
 32 35  1  0  0  0
 35 36  1  0  0  0
M  END
> <minimizedAffinity>
-7.65414

$$$$
