CHEMBL205509


 22 24  0  0  0  0  0  0  0  0999 V2000
  -16.4719   -0.1219  -14.1665 C   0  0  0  0  0  0  0  0  0  0  0  0
  -15.2173   -0.2761  -13.7159 C   0  0  0  0  0  0  0  0  0  0  0  0
  -14.0518    0.6469  -13.7420 C   0  0  0  0  0  0  0  0  0  0  0  0
  -13.9966    1.8047  -14.1046 O   0  0  0  0  0  0  0  0  0  0  0  0
  -13.0090   -0.1360  -13.2800 N   0  0  0  0  0  0  0  0  0  0  0  0
  -13.3512   -1.4111  -12.9104 N   0  0  0  0  0  0  0  0  0  0  0  0
  -14.6415   -1.5246  -13.1232 C   0  0  0  0  0  0  0  0  0  0  0  0
  -12.0549    0.1907  -13.1924 H   0  0  0  0  0  0  0  0  0  0  0  0
  -19.8050    3.4791  -14.4226 C   0  0  0  0  0  0  0  0  0  0  0  0
  -18.6278    2.6885  -14.8548 C   0  0  0  0  0  0  0  0  0  0  0  0
  -17.7743    2.8253  -15.9223 C   0  0  0  0  0  0  0  0  0  0  0  0
  -16.8120    1.7786  -15.8466 C   0  0  0  0  0  0  0  0  0  0  0  0
  -15.7045    1.5554  -16.8169 C   0  0  0  0  0  0  0  0  0  0  0  0
  -17.1096    1.0267  -14.7126 C   0  0  0  0  0  0  0  0  0  0  0  0
  -18.2161    1.5966  -14.1350 N   0  0  0  0  0  0  0  0  0  0  0  0
  -18.6790    1.2672  -13.2933 H   0  0  0  0  0  0  0  0  0  0  0  0
  -15.3870   -2.7577  -12.8055 C   0  0  0  0  0  0  0  0  0  0  0  0
  -15.8221   -3.6504  -13.7908 C   0  0  0  0  0  0  0  0  0  0  0  0
  -16.4764   -4.8305  -13.4326 C   0  0  0  0  0  0  0  0  0  0  0  0
  -16.7571   -5.0936  -12.0940 C   0  0  0  0  0  0  0  0  0  0  0  0
  -16.3915   -4.1747  -11.1117 C   0  0  0  0  0  0  0  0  0  0  0  0
  -15.7063   -3.0102  -11.4647 C   0  0  0  0  0  0  0  0  0  0  0  0
  9 10  1  0  0  0
 10 11  2  0  0  0
 10 15  1  0  0  0
 11 12  1  0  0  0
 12 13  1  0  0  0
 12 14  2  0  0  0
 14  1  1  0  0  0
 14 15  1  0  0  0
  1  2  2  0  0  0
  2  3  1  0  0  0
  2  7  1  0  0  0
  3  4  2  0  0  0
  3  5  1  0  0  0
  5  6  1  0  0  0
  5  8  1  0  0  0
  6  7  2  0  0  0
  7 17  1  0  0  0
 17 18  1  0  0  0
 17 22  2  0  0  0
 18 19  2  0  0  0
 19 20  1  0  0  0
 20 21  2  0  0  0
 21 22  1  0  0  0
 15 16  1  0  0  0
M  END
> <minimizedAffinity>
-7.85364

$$$$
