CHEMBL216891


 41 47  0  0  0  0  0  0  0  0999 V2000
  -29.3104   -8.5592   -5.0001 N   0  0  0  0  0  0  0  0  0  0  0  0
  -29.2103   -9.1172   -6.2985 C   0  0  0  0  0  0  0  0  0  0  0  0
  -28.7691  -10.3732   -6.7398 C   0  0  0  0  0  0  0  0  0  0  0  0
  -28.6857  -10.6117   -8.1233 C   0  0  0  0  0  0  0  0  0  0  0  0
  -29.0775   -9.6640   -9.0684 C   0  0  0  0  0  0  0  0  0  0  0  0
  -29.5168   -8.4200   -8.6158 C   0  0  0  0  0  0  0  0  0  0  0  0
  -29.5466   -8.1298   -7.2375 C   0  0  0  0  0  0  0  0  0  0  0  0
  -29.7512   -7.0286   -6.4294 C   0  0  0  0  0  0  0  0  0  0  0  0
  -29.6916   -5.7163   -6.9195 C   0  0  0  0  0  0  0  0  0  0  0  0
  -29.4036   -4.7236   -5.9609 C   0  0  0  0  0  0  0  0  0  0  0  0
  -29.3036   -4.9778   -4.5811 C   0  0  0  0  0  0  0  0  0  0  0  0
  -29.9976   -6.1663   -4.1846 C   0  0  0  0  0  0  0  0  0  0  0  0
  -29.7881   -7.2467   -5.0780 C   0  0  0  0  0  0  0  0  0  0  0  0
  -31.4272   -5.8069   -3.5649 C   0  0  0  0  0  0  0  0  0  0  0  0
  -31.8404   -4.2740   -3.6787 C   0  0  0  0  0  0  0  0  0  0  0  0
  -30.6734   -3.4844   -3.2013 C   0  0  0  0  0  0  0  0  0  0  0  0
  -30.6123   -2.6679   -2.1500 N   0  0  0  0  0  0  0  0  0  0  0  0
  -29.2780   -2.6066   -1.9052 N   0  0  0  0  0  0  0  0  0  0  0  0
  -28.7923   -1.9167   -0.7349 C   0  0  0  0  0  0  0  0  0  0  0  0
  -28.5330   -3.4316   -2.7126 C   0  0  0  0  0  0  0  0  0  0  0  0
  -29.4068   -3.8629   -3.6746 C   0  0  0  0  0  0  0  0  0  0  0  0
  -29.4081   -3.4557   -6.6535 C   0  0  0  0  0  0  0  0  0  0  0  0
  -29.2801   -2.2932   -6.2835 O   0  0  0  0  0  0  0  0  0  0  0  0
  -29.6690   -3.7817   -7.9752 N   0  0  0  0  0  0  0  0  0  0  0  0
  -29.8195   -5.1873   -8.2702 C   0  0  0  0  0  0  0  0  0  0  0  0
  -29.8168   -3.0415   -8.6440 H   0  0  0  0  0  0  0  0  0  0  0  0
  -29.0437   -9.8622  -10.4729 N   0  0  0  0  0  0  0  0  0  0  0  0
  -28.0695   -9.3989  -11.3394 C   0  0  0  0  0  0  0  0  0  0  0  0
  -27.1202   -8.7080  -10.9824 O   0  0  0  0  0  0  0  0  0  0  0  0
  -28.3028   -9.7797  -12.6513 N   0  0  0  0  0  0  0  0  0  0  0  0
  -29.7851  -10.4064  -10.8775 H   0  0  0  0  0  0  0  0  0  0  0  0
  -29.2536   -9.9960  -12.9086 H   0  0  0  0  0  0  0  0  0  0  0  0
  -27.4073   -9.5026  -13.7160 C   0  0  0  0  0  0  0  0  0  0  0  0
  -26.1393   -8.9400  -13.5140 C   0  0  0  0  0  0  0  0  0  0  0  0
  -25.3160   -8.5672  -14.5779 C   0  0  0  0  0  0  0  0  0  0  0  0
  -25.7538   -8.7866  -15.8815 C   0  0  0  0  0  0  0  0  0  0  0  0
  -26.9846   -9.4061  -16.1031 C   0  0  0  0  0  0  0  0  0  0  0  0
  -27.8050   -9.7720  -15.0304 C   0  0  0  0  0  0  0  0  0  0  0  0
  -28.8402   -9.2364   -3.7968 C   0  0  0  0  0  0  0  0  0  0  0  0
  -26.4395   -8.3821   -4.2089 C   0  0  0  0  0  0  0  0  0  0  0  0
  -27.3244   -9.5118   -3.7077 C   0  0  0  0  0  0  0  0  0  0  0  0
 40 41  1  0  0  0
 41 39  1  0  0  0
 39  1  1  0  0  0
  1  2  1  0  0  0
  1 13  1  0  0  0
  2  3  1  0  0  0
  2  7  2  0  0  0
  3  4  2  0  0  0
  4  5  1  0  0  0
  5 27  1  0  0  0
  5  6  2  0  0  0
 27 28  1  0  0  0
 27 31  1  0  0  0
 28 29  2  0  0  0
 28 30  1  0  0  0
 30 33  1  0  0  0
 30 32  1  0  0  0
 33 34  1  0  0  0
 33 38  2  0  0  0
 34 35  2  0  0  0
 35 36  1  0  0  0
 36 37  2  0  0  0
 37 38  1  0  0  0
  6  7  1  0  0  0
  7  8  1  0  0  0
  8  9  1  0  0  0
  8 13  2  0  0  0
  9 10  2  0  0  0
  9 25  1  0  0  0
 10 11  1  0  0  0
 10 22  1  0  0  0
 11 12  2  0  0  0
 11 21  1  0  0  0
 12 13  1  0  0  0
 12 14  1  0  0  0
 14 15  1  0  0  0
 15 16  1  0  0  0
 16 17  2  0  0  0
 16 21  1  0  0  0
 17 18  1  0  0  0
 18 19  1  0  0  0
 18 20  1  0  0  0
 20 21  2  0  0  0
 22 23  2  0  0  0
 22 24  1  0  0  0
 24 25  1  0  0  0
 24 26  1  0  0  0
M  END
> <minimizedAffinity>
-4.40389

$$$$
