CHEMBL3980266


 34 36  0  0  0  0  0  0  0  0999 V2000
  -14.5583    3.8496  -16.6303 C   0  0  0  0  0  0  0  0  0  0  0  0
  -13.8530    2.6926  -16.9976 C   0  0  0  0  0  0  0  0  0  0  0  0
  -14.4365    1.4289  -16.9372 C   0  0  0  0  0  0  0  0  0  0  0  0
  -15.7303    1.2912  -16.4614 C   0  0  0  0  0  0  0  0  0  0  0  0
  -16.4351    2.4140  -16.0140 C   0  0  0  0  0  0  0  0  0  0  0  0
  -15.8461    3.6942  -16.0854 C   0  0  0  0  0  0  0  0  0  0  0  0
  -13.6519    7.1605  -17.9828 N   0  0  0  0  0  0  0  0  0  0  0  0
  -14.3236    5.9458  -17.9330 C   0  0  0  0  0  0  0  0  0  0  0  0
  -15.1454    5.5941  -18.7704 O   0  0  0  0  0  0  0  0  0  0  0  0
  -14.0029    5.1558  -16.8271 N   0  0  0  0  0  0  0  0  0  0  0  0
  -12.9917    7.3773  -17.2505 H   0  0  0  0  0  0  0  0  0  0  0  0
  -13.6330    5.6263  -16.0143 H   0  0  0  0  0  0  0  0  0  0  0  0
  -16.6071   10.4881  -20.2599 C   0  0  0  0  0  0  0  0  0  0  0  0
  -15.2887    9.7770  -20.1282 C   0  0  0  0  0  0  0  0  0  0  0  0
  -14.2693   10.0706  -21.0384 C   0  0  0  0  0  0  0  0  0  0  0  0
  -13.0460    9.4283  -20.9354 C   0  0  0  0  0  0  0  0  0  0  0  0
  -12.8346    8.4837  -19.9274 C   0  0  0  0  0  0  0  0  0  0  0  0
  -13.8334    8.1512  -19.0031 C   0  0  0  0  0  0  0  0  0  0  0  0
  -15.0630    8.8217  -19.1091 C   0  0  0  0  0  0  0  0  0  0  0  0
  -17.7564    2.1855  -15.4932 C   0  0  0  0  0  0  0  0  0  0  0  0
  -18.8936    2.1389  -15.1014 C   0  0  0  0  0  0  0  0  0  0  0  0
  -20.2784    2.1043  -14.7234 C   0  0  0  0  0  0  0  0  0  0  0  0
  -21.0169    3.2806  -14.6795 C   0  0  0  0  0  0  0  0  0  0  0  0
  -22.2884    3.3617  -14.2182 N   0  0  0  0  0  0  0  0  0  0  0  0
  -22.8617    2.2030  -13.8047 C   0  0  0  0  0  0  0  0  0  0  0  0
  -22.2357    0.9632  -13.8595 C   0  0  0  0  0  0  0  0  0  0  0  0
  -20.9110    0.9190  -14.3243 C   0  0  0  0  0  0  0  0  0  0  0  0
  -22.9903   -0.2533  -13.4146 C   0  0  0  0  0  0  0  0  0  0  0  0
  -22.5062   -1.3444  -13.6995 O   0  0  0  0  0  0  0  0  0  0  0  0
  -24.2459   -0.1278  -12.8012 N   0  0  0  0  0  0  0  0  0  0  0  0
  -25.1760   -1.3447  -12.6179 S   0  0  0  0  0  0  0  0  0  0  0  0
  -25.9995   -1.7087  -14.1578 C   0  0  0  0  0  0  0  0  0  0  0  0
  -26.5370   -0.7647  -11.6298 C   0  0  0  0  0  0  0  0  0  0  0  0
  -24.7667   -2.6038  -12.0409 O   0  0  0  0  0  0  0  0  0  0  0  0
 13 14  1  0  0  0
 14 15  1  0  0  0
 14 19  2  0  0  0
 15 16  2  0  0  0
 16 17  1  0  0  0
 17 18  2  0  0  0
 18  7  1  0  0  0
 18 19  1  0  0  0
  7  8  1  0  0  0
  7 11  1  0  0  0
  8  9  2  0  0  0
  8 10  1  0  0  0
 10  1  1  0  0  0
 10 12  1  0  0  0
  1  2  1  0  0  0
  1  6  2  0  0  0
  2  3  2  0  0  0
  3  4  1  0  0  0
  4  5  2  0  0  0
  5 20  1  0  0  0
  5  6  1  0  0  0
 20 21  3  0  0  0
 21 22  1  0  0  0
 22 23  1  0  0  0
 22 27  2  0  0  0
 23 24  2  0  0  0
 24 25  1  0  0  0
 25 26  2  0  0  0
 26 28  1  0  0  0
 26 27  1  0  0  0
 28 29  2  0  0  0
 28 30  1  0  0  0
 30 31  2  0  0  0
 31 32  1  0  0  0
 31 33  1  0  0  0
 31 34  2  0  0  0
M  END
> <minimizedAffinity>
-8.68369

$$$$
