CHEMBL388936


 19 22  0  0  0  0  0  0  0  0999 V2000
  -21.0670    0.6603  -14.3191 C   0  0  0  0  0  0  0  0  0  0  0  0
  -22.3430    0.1404  -13.7722 C   0  0  0  0  0  0  0  0  0  0  0  0
  -23.4696   -0.2927  -14.4348 C   0  0  0  0  0  0  0  0  0  0  0  0
  -24.4263   -0.6941  -13.4666 C   0  0  0  0  0  0  0  0  0  0  0  0
  -23.8465   -0.4922  -12.2022 C   0  0  0  0  0  0  0  0  0  0  0  0
  -24.5244   -0.7880  -11.0043 C   0  0  0  0  0  0  0  0  0  0  0  0
  -25.8166   -1.2978  -11.0987 C   0  0  0  0  0  0  0  0  0  0  0  0
  -26.3562   -1.4841  -12.3548 C   0  0  0  0  0  0  0  0  0  0  0  0
  -27.6273   -1.9905  -12.2310 C   0  0  0  0  0  0  0  0  0  0  0  0
  -28.4032   -2.2742  -13.3416 C   0  0  0  0  0  0  0  0  0  0  0  0
  -27.8050   -2.0104  -14.5942 C   0  0  0  0  0  0  0  0  0  0  0  0
  -26.4984   -1.4899  -14.7093 C   0  0  0  0  0  0  0  0  0  0  0  0
  -25.7479   -1.2168  -13.5501 C   0  0  0  0  0  0  0  0  0  0  0  0
  -27.8769   -2.1194  -10.8753 N   0  0  0  0  0  0  0  0  0  0  0  0
  -26.7825   -1.7024  -10.0976 C   0  0  0  0  0  0  0  0  0  0  0  0
  -26.7543   -1.7183   -8.8730 O   0  0  0  0  0  0  0  0  0  0  0  0
  -22.5822    0.0147  -12.4231 N   0  0  0  0  0  0  0  0  0  0  0  0
  -28.7301   -2.4658  -10.4649 H   0  0  0  0  0  0  0  0  0  0  0  0
  -21.9286    0.2583  -11.6912 H   0  0  0  0  0  0  0  0  0  0  0  0
  1  2  1  0  0  0
  2  3  2  0  0  0
  2 17  1  0  0  0
  3  4  1  0  0  0
  4  5  1  0  0  0
  4 13  2  0  0  0
  5  6  2  0  0  0
  5 17  1  0  0  0
  6  7  1  0  0  0
  7  8  2  0  0  0
  7 15  1  0  0  0
  8  9  1  0  0  0
  8 13  1  0  0  0
  9 10  2  0  0  0
  9 14  1  0  0  0
 10 11  1  0  0  0
 11 12  2  0  0  0
 12 13  1  0  0  0
 14 15  1  0  0  0
 14 18  1  0  0  0
 15 16  2  0  0  0
 17 19  1  0  0  0
M  END
> <minimizedAffinity>
-8.35761

$$$$
