CHEMBL404322


 32 37  0  0  0  0  0  0  0  0999 V2000
  -15.0772   -1.9784  -12.7766 C   0  0  0  0  0  0  0  0  0  0  0  0
  -13.8236   -2.1164  -13.3537 C   0  0  0  0  0  0  0  0  0  0  0  0
  -13.3867   -1.2363  -14.3554 C   0  0  0  0  0  0  0  0  0  0  0  0
  -14.2655   -0.2106  -14.7745 C   0  0  0  0  0  0  0  0  0  0  0  0
  -14.1311    0.8031  -15.7145 N   0  0  0  0  0  0  0  0  0  0  0  0
  -15.2885    1.5486  -15.7862 C   0  0  0  0  0  0  0  0  0  0  0  0
  -15.8600    2.7039  -16.4205 C   0  0  0  0  0  0  0  0  0  0  0  0
  -16.4901    4.0622  -17.1749 C   0  0  0  0  0  0  0  0  0  0  0  0
  -17.5192    3.1444  -15.8709 C   0  0  0  0  0  0  0  0  0  0  0  0
  -17.2750    1.7631  -14.7380 C   0  0  0  0  0  0  0  0  0  0  0  0
  -16.0708    1.0577  -14.8513 C   0  0  0  0  0  0  0  0  0  0  0  0
  -15.5517   -0.0580  -14.2100 C   0  0  0  0  0  0  0  0  0  0  0  0
  -15.9393   -0.9676  -13.2088 C   0  0  0  0  0  0  0  0  0  0  0  0
  -18.3375    1.1342  -13.7112 C   0  0  0  0  0  0  0  0  0  0  0  0
  -19.4788    1.7894  -14.2223 N   0  0  0  0  0  0  0  0  0  0  0  0
  -19.1145    3.1019  -15.0740 C   0  0  0  0  0  0  0  0  0  0  0  0
  -20.0053    3.9471  -14.9097 O   0  0  0  0  0  0  0  0  0  0  0  0
  -14.9766    4.7604  -18.4519 C   0  0  0  0  0  0  0  0  0  0  0  0
  -13.5249    5.1272  -19.4163 C   0  0  0  0  0  0  0  0  0  0  0  0
  -12.0975    4.2306  -19.7549 N   0  0  0  0  0  0  0  0  0  0  0  0
  -10.6968    4.1334  -20.5548 C   0  0  0  0  0  0  0  0  0  0  0  0
  -12.3961    3.2434  -19.0019 N   0  0  0  0  0  0  0  0  0  0  0  0
  -13.5797    3.5845  -18.4895 C   0  0  0  0  0  0  0  0  0  0  0  0
  -13.7331    2.6439  -17.5024 C   0  0  0  0  0  0  0  0  0  0  0  0
  -14.9527    3.2014  -17.2553 C   0  0  0  0  0  0  0  0  0  0  0  0
  -13.3012    0.9779  -16.2673 H   0  0  0  0  0  0  0  0  0  0  0  0
  -20.3945    1.5120  -13.7827 H   0  0  0  0  0  0  0  0  0  0  0  0
  -16.3932   -4.0406  -12.0463 C   0  0  0  0  0  0  0  0  0  0  0  0
  -15.4899   -2.8810  -11.6643 C   0  0  0  0  0  0  0  0  0  0  0  0
  -15.0513   -2.6569  -10.4562 N   0  0  0  0  0  0  0  0  0  0  0  0
  -15.5484   -3.6007   -9.5444 O   0  0  0  0  0  0  0  0  0  0  0  0
  -15.1751   -3.3180   -8.6890 H   0  0  0  0  0  0  0  0  0  0  0  0
 28 29  1  0  0  0
 29 30  2  0  0  0
 29  1  1  0  0  0
 30 31  1  0  0  0
 31 32  1  0  0  0
  1  2  1  0  0  0
  1 13  2  0  0  0
  2  3  2  0  0  0
  3  4  1  0  0  0
  4  5  1  0  0  0
  4 12  2  0  0  0
  5  6  1  0  0  0
  5 26  1  0  0  0
  6  7  1  0  0  0
  6 11  2  0  0  0
  7  8  2  0  0  0
  7 25  1  0  0  0
  8  9  1  0  0  0
  8 18  1  0  0  0
  9 10  2  0  0  0
  9 16  1  0  0  0
 10 11  1  0  0  0
 10 14  1  0  0  0
 11 12  1  0  0  0
 12 13  1  0  0  0
 14 15  1  0  0  0
 15 16  1  0  0  0
 15 27  1  0  0  0
 16 17  2  0  0  0
 18 19  2  0  0  0
 18 23  1  0  0  0
 19 20  1  0  0  0
 20 21  1  0  0  0
 20 22  1  0  0  0
 22 23  2  0  0  0
 23 24  1  0  0  0
 24 25  1  0  0  0
M  END
> <minimizedAffinity>
-8.53318

$$$$
