CHEMBL181122


 27 29  0  0  0  0  0  0  0  0999 V2000
  -21.5454    1.1518  -14.3419 C   0  0  0  0  0  0  0  0  0  0  0  0
  -22.3704    2.0949  -13.9948 N   0  0  0  0  0  0  0  0  0  0  0  0
  -21.9851    3.4046  -14.0165 C   0  0  0  0  0  0  0  0  0  0  0  0
  -20.8274    3.8602  -14.3500 N   0  0  0  0  0  0  0  0  0  0  0  0
  -19.9608    2.9054  -14.7115 N   0  0  0  0  0  0  0  0  0  0  0  0
  -18.6848    3.1395  -15.1091 C   0  0  0  0  0  0  0  0  0  0  0  0
  -18.0769    1.9370  -15.4246 C   0  0  0  0  0  0  0  0  0  0  0  0
  -19.0696    0.9106  -15.1848 C   0  0  0  0  0  0  0  0  0  0  0  0
  -18.8933   -0.5576  -15.3740 C   0  0  0  0  0  0  0  0  0  0  0  0
  -20.2215    1.5665  -14.7471 C   0  0  0  0  0  0  0  0  0  0  0  0
  -21.9468   -0.1704  -14.3398 N   0  0  0  0  0  0  0  0  0  0  0  0
  -21.4483   -0.8045  -14.9452 H   0  0  0  0  0  0  0  0  0  0  0  0
  -25.5526   -1.6886  -12.6788 C   0  0  0  0  0  0  0  0  0  0  0  0
  -25.4690   -1.3024  -14.0243 C   0  0  0  0  0  0  0  0  0  0  0  0
  -24.2693   -0.8262  -14.5643 C   0  0  0  0  0  0  0  0  0  0  0  0
  -23.1206   -0.7086  -13.7729 C   0  0  0  0  0  0  0  0  0  0  0  0
  -23.2137   -1.0901  -12.4280 C   0  0  0  0  0  0  0  0  0  0  0  0
  -24.4111   -1.5626  -11.8887 C   0  0  0  0  0  0  0  0  0  0  0  0
  -24.4653   -1.9093  -10.5673 O   0  0  0  0  0  0  0  0  0  0  0  0
  -23.5995   -1.7319  -10.1637 H   0  0  0  0  0  0  0  0  0  0  0  0
  -26.8463   -2.2358  -12.1261 C   0  0  0  0  0  0  0  0  0  0  0  0
  -27.8588   -1.5729   -9.9149 C   0  0  0  0  0  0  0  0  0  0  0  0
  -27.6279   -1.1659  -11.3592 C   0  0  0  0  0  0  0  0  0  0  0  0
  -16.6972    1.8290  -15.9041 C   0  0  0  0  0  0  0  0  0  0  0  0
  -16.0217    0.8111  -15.8266 O   0  0  0  0  0  0  0  0  0  0  0  0
  -16.2585    2.9999  -16.4565 O   0  0  0  0  0  0  0  0  0  0  0  0
  -14.9382    3.3881  -16.0840 C   0  0  0  0  0  0  0  0  0  0  0  0
 22 23  1  0  0  0
 23 21  1  0  0  0
 21 13  1  0  0  0
 13 14  1  0  0  0
 13 18  2  0  0  0
 14 15  2  0  0  0
 15 16  1  0  0  0
 16 11  1  0  0  0
 16 17  2  0  0  0
 11  1  1  0  0  0
 11 12  1  0  0  0
  1  2  2  0  0  0
  1 10  1  0  0  0
  2  3  1  0  0  0
  3  4  2  0  0  0
  4  5  1  0  0  0
  5  6  1  0  0  0
  5 10  1  0  0  0
  6  7  2  0  0  0
  7 24  1  0  0  0
  7  8  1  0  0  0
 24 25  2  0  0  0
 24 26  1  0  0  0
 26 27  1  0  0  0
  8  9  1  0  0  0
  8 10  2  0  0  0
 17 18  1  0  0  0
 18 19  1  0  0  0
 19 20  1  0  0  0
M  END
> <minimizedAffinity>
-8.31009

$$$$
