CHEMBL270489


 39 43  0  0  0  0  0  0  0  0999 V2000
  -24.2810   11.2207  -16.1464 C   0  0  0  0  0  0  0  0  0  0  0  0
  -24.0268   10.2932  -17.1553 C   0  0  0  0  0  0  0  0  0  0  0  0
  -23.0038   10.5182  -18.0751 C   0  0  0  0  0  0  0  0  0  0  0  0
  -22.2211   11.6859  -18.0388 C   0  0  0  0  0  0  0  0  0  0  0  0
  -22.5533   12.6453  -17.0640 C   0  0  0  0  0  0  0  0  0  0  0  0
  -23.5769   12.4212  -16.1266 C   0  0  0  0  0  0  0  0  0  0  0  0
  -21.1454   11.8747  -19.0351 C   0  0  0  0  0  0  0  0  0  0  0  0
  -19.7918   11.7773  -18.6340 C   0  0  0  0  0  0  0  0  0  0  0  0
  -18.7278   11.9612  -19.5155 C   0  0  0  0  0  0  0  0  0  0  0  0
  -18.9325   12.2154  -20.8791 C   0  0  0  0  0  0  0  0  0  0  0  0
  -20.2800   12.2702  -21.2624 C   0  0  0  0  0  0  0  0  0  0  0  0
  -20.7199   12.4513  -22.5374 O   0  0  0  0  0  0  0  0  0  0  0  0
  -22.0937   12.5663  -22.5451 N   0  0  0  0  0  0  0  0  0  0  0  0
  -22.4762   12.4567  -21.2716 C   0  0  0  0  0  0  0  0  0  0  0  0
  -23.7493   12.6572  -20.8685 N   0  0  0  0  0  0  0  0  0  0  0  0
  -21.3757   12.1628  -20.4072 C   0  0  0  0  0  0  0  0  0  0  0  0
  -24.3596   13.1065  -21.5445 H   0  0  0  0  0  0  0  0  0  0  0  0
  -23.9024   13.0130  -19.9281 H   0  0  0  0  0  0  0  0  0  0  0  0
  -17.7518   12.3496  -21.8076 C   0  0  0  0  0  0  0  0  0  0  0  0
  -17.1040   11.1409  -22.3187 N   0  0  0  0  0  0  0  0  0  0  0  0
  -17.9473    9.9795  -22.6219 C   0  0  0  0  0  0  0  0  0  0  0  0
  -18.1180    8.9880  -21.4564 C   0  0  0  0  0  0  0  0  0  0  0  0
  -16.8559    8.5947  -20.9032 O   0  0  0  0  0  0  0  0  0  0  0  0
  -16.1029    9.7361  -20.4750 C   0  0  0  0  0  0  0  0  0  0  0  0
  -15.8797   10.7255  -21.6260 C   0  0  0  0  0  0  0  0  0  0  0  0
  -27.2764   11.0282  -14.1296 N   0  0  0  0  0  0  0  0  0  0  0  0
  -26.5106   11.3254  -15.2423 C   0  0  0  0  0  0  0  0  0  0  0  0
  -26.9265   11.8350  -16.2710 O   0  0  0  0  0  0  0  0  0  0  0  0
  -25.1871   10.9053  -15.1046 N   0  0  0  0  0  0  0  0  0  0  0  0
  -26.8462   10.4513  -13.4255 H   0  0  0  0  0  0  0  0  0  0  0  0
  -25.0890    9.9888  -14.6949 H   0  0  0  0  0  0  0  0  0  0  0  0
  -30.9168   12.5957  -11.2052 C   0  0  0  0  0  0  0  0  0  0  0  0
  -30.4690   12.0465  -12.5271 C   0  0  0  0  0  0  0  0  0  0  0  0
  -31.4055   11.7451  -13.5167 C   0  0  0  0  0  0  0  0  0  0  0  0
  -30.9845   11.2628  -14.7526 C   0  0  0  0  0  0  0  0  0  0  0  0
  -29.6288   11.0583  -14.9961 C   0  0  0  0  0  0  0  0  0  0  0  0
  -29.3030   10.7175  -16.2490 F   0  0  0  0  0  0  0  0  0  0  0  0
  -28.6651   11.2885  -14.0002 C   0  0  0  0  0  0  0  0  0  0  0  0
  -29.1010   11.8161  -12.7750 C   0  0  0  0  0  0  0  0  0  0  0  0
 32 33  1  0  0  0
 33 34  1  0  0  0
 33 39  2  0  0  0
 34 35  2  0  0  0
 35 36  1  0  0  0
 36 37  1  0  0  0
 36 38  2  0  0  0
 38 26  1  0  0  0
 38 39  1  0  0  0
 26 27  1  0  0  0
 26 30  1  0  0  0
 27 28  2  0  0  0
 27 29  1  0  0  0
 29  1  1  0  0  0
 29 31  1  0  0  0
  1  2  1  0  0  0
  1  6  2  0  0  0
  2  3  2  0  0  0
  3  4  1  0  0  0
  4  7  1  0  0  0
  4  5  2  0  0  0
  7  8  1  0  0  0
  7 16  2  0  0  0
  8  9  2  0  0  0
  9 10  1  0  0  0
 10 19  1  0  0  0
 10 11  2  0  0  0
 19 20  1  0  0  0
 20 21  1  0  0  0
 20 25  1  0  0  0
 21 22  1  0  0  0
 22 23  1  0  0  0
 23 24  1  0  0  0
 24 25  1  0  0  0
 11 12  1  0  0  0
 11 16  1  0  0  0
 12 13  1  0  0  0
 13 14  2  0  0  0
 14 15  1  0  0  0
 14 16  1  0  0  0
 15 17  1  0  0  0
 15 18  1  0  0  0
  5  6  1  0  0  0
M  END
> <minimizedAffinity>
-7.04953

$$$$
