CHEMBL206348


 28 31  0  0  0  0  0  0  0  0999 V2000
  -14.9072   -0.5057  -14.1251 C   0  0  0  0  0  0  0  0  0  0  0  0
  -14.0554   -0.0428  -15.1478 C   0  0  0  0  0  0  0  0  0  0  0  0
  -12.7543   -0.5278  -15.2701 C   0  0  0  0  0  0  0  0  0  0  0  0
  -12.2770   -1.4609  -14.3606 C   0  0  0  0  0  0  0  0  0  0  0  0
  -13.1253   -1.9722  -13.3791 C   0  0  0  0  0  0  0  0  0  0  0  0
  -14.4635   -1.5383  -13.2586 C   0  0  0  0  0  0  0  0  0  0  0  0
  -17.0074    0.5137  -14.9270 N   0  0  0  0  0  0  0  0  0  0  0  0
  -16.1605    0.2688  -13.8576 C   0  0  0  0  0  0  0  0  0  0  0  0
  -16.3338    0.6836  -12.7131 O   0  0  0  0  0  0  0  0  0  0  0  0
  -16.8088    0.0846  -15.8253 H   0  0  0  0  0  0  0  0  0  0  0  0
  -22.0317    3.2287  -14.3678 C   0  0  0  0  0  0  0  0  0  0  0  0
  -20.7131    2.5597  -14.6181 C   0  0  0  0  0  0  0  0  0  0  0  0
  -19.5175    3.2517  -14.4060 C   0  0  0  0  0  0  0  0  0  0  0  0
  -18.2820    2.6124  -14.5557 C   0  0  0  0  0  0  0  0  0  0  0  0
  -18.2145    1.2606  -14.8929 C   0  0  0  0  0  0  0  0  0  0  0  0
  -19.4148    0.5950  -15.1737 C   0  0  0  0  0  0  0  0  0  0  0  0
  -19.3843   -0.6914  -15.5595 F   0  0  0  0  0  0  0  0  0  0  0  0
  -20.6531    1.2278  -15.0408 C   0  0  0  0  0  0  0  0  0  0  0  0
  -15.3084   -2.2145  -12.1933 C   0  0  0  0  0  0  0  0  0  0  0  0
  -15.5861   -3.6308  -12.4740 N   0  0  0  0  0  0  0  0  0  0  0  0
  -16.4234   -4.0668  -13.4809 C   0  0  0  0  0  0  0  0  0  0  0  0
  -16.2813   -5.4334  -13.6067 C   0  0  0  0  0  0  0  0  0  0  0  0
  -15.3060   -5.8482  -12.6620 C   0  0  0  0  0  0  0  0  0  0  0  0
  -14.7176   -7.0865  -12.3604 C   0  0  0  0  0  0  0  0  0  0  0  0
  -13.7620   -7.1819  -11.4025 N   0  0  0  0  0  0  0  0  0  0  0  0
  -13.3954   -6.0644  -10.7411 C   0  0  0  0  0  0  0  0  0  0  0  0
  -13.9249   -4.8012  -10.9559 C   0  0  0  0  0  0  0  0  0  0  0  0
  -14.8985   -4.7105  -11.9525 C   0  0  0  0  0  0  0  0  0  0  0  0
 11 12  1  0  0  0
 12 13  1  0  0  0
 12 18  2  0  0  0
 13 14  2  0  0  0
 14 15  1  0  0  0
 15  7  1  0  0  0
 15 16  2  0  0  0
  7  8  1  0  0  0
  7 10  1  0  0  0
  8  9  2  0  0  0
  8  1  1  0  0  0
  1  2  1  0  0  0
  1  6  2  0  0  0
  2  3  2  0  0  0
  3  4  1  0  0  0
  4  5  2  0  0  0
  5  6  1  0  0  0
  6 19  1  0  0  0
 19 20  1  0  0  0
 20 21  1  0  0  0
 20 28  1  0  0  0
 21 22  2  0  0  0
 22 23  1  0  0  0
 23 24  1  0  0  0
 23 28  2  0  0  0
 24 25  2  0  0  0
 25 26  1  0  0  0
 26 27  2  0  0  0
 27 28  1  0  0  0
 16 17  1  0  0  0
 16 18  1  0  0  0
M  END
> <minimizedAffinity>
-8.48489

$$$$
