CHEMBL453336


 37 41  0  0  0  0  0  0  0  0999 V2000
  -13.4924   -1.8305  -14.9540 C   0  0  0  0  0  0  0  0  0  0  0  0
  -13.4822   -0.5616  -15.3957 C   0  0  0  0  0  0  0  0  0  0  0  0
  -13.2475   -0.4356  -16.8767 C   0  0  0  0  0  0  0  0  0  0  0  0
  -13.2156   -1.7905  -17.2722 N   0  0  0  0  0  0  0  0  0  0  0  0
  -13.3329   -2.6407  -16.2075 C   0  0  0  0  0  0  0  0  0  0  0  0
  -13.3527   -3.8567  -16.3118 O   0  0  0  0  0  0  0  0  0  0  0  0
  -13.2150   -2.1300  -18.2234 H   0  0  0  0  0  0  0  0  0  0  0  0
  -13.8824    0.6845  -14.8373 C   0  0  0  0  0  0  0  0  0  0  0  0
  -15.1324    1.1764  -15.1457 C   0  0  0  0  0  0  0  0  0  0  0  0
  -14.9439    2.4972  -15.4833 N   0  0  0  0  0  0  0  0  0  0  0  0
  -13.6866    2.9148  -15.0865 C   0  0  0  0  0  0  0  0  0  0  0  0
  -13.0321    4.1478  -15.2369 C   0  0  0  0  0  0  0  0  0  0  0  0
  -11.7397    4.2744  -14.7238 C   0  0  0  0  0  0  0  0  0  0  0  0
  -11.1213    3.2106  -14.0747 C   0  0  0  0  0  0  0  0  0  0  0  0
  -11.7483    1.9605  -13.9995 C   0  0  0  0  0  0  0  0  0  0  0  0
  -13.0467    1.7997  -14.5269 C   0  0  0  0  0  0  0  0  0  0  0  0
  -15.8814    3.2496  -16.2990 C   0  0  0  0  0  0  0  0  0  0  0  0
  -17.1797    2.6667  -16.2204 O   0  0  0  0  0  0  0  0  0  0  0  0
  -18.0748    3.4899  -15.4764 C   0  0  0  0  0  0  0  0  0  0  0  0
  -19.3108    2.7179  -15.1185 C   0  0  0  0  0  0  0  0  0  0  0  0
  -19.3176    1.3314  -15.2814 C   0  0  0  0  0  0  0  0  0  0  0  0
  -20.4341    0.5779  -14.9084 C   0  0  0  0  0  0  0  0  0  0  0  0
  -21.5491    1.2091  -14.3748 C   0  0  0  0  0  0  0  0  0  0  0  0
  -21.5544    2.5965  -14.1982 C   0  0  0  0  0  0  0  0  0  0  0  0
  -20.4371    3.3466  -14.5694 C   0  0  0  0  0  0  0  0  0  0  0  0
  -15.2254   -3.6164  -12.0887 C   0  0  0  0  0  0  0  0  0  0  0  0
  -14.9777   -2.9591  -13.3023 C   0  0  0  0  0  0  0  0  0  0  0  0
  -13.7297   -2.4008  -13.6193 C   0  0  0  0  0  0  0  0  0  0  0  0
  -12.7200   -2.4726  -12.6562 C   0  0  0  0  0  0  0  0  0  0  0  0
  -12.9542   -3.0821  -11.4138 C   0  0  0  0  0  0  0  0  0  0  0  0
  -14.1959   -3.6935  -11.1366 C   0  0  0  0  0  0  0  0  0  0  0  0
  -16.7789   -5.4212  -12.2571 C   0  0  0  0  0  0  0  0  0  0  0  0
  -16.4617   -4.1195  -11.7708 O   0  0  0  0  0  0  0  0  0  0  0  0
  -11.9811   -3.1708  -10.4426 O   0  0  0  0  0  0  0  0  0  0  0  0
  -10.6968   -3.5709  -10.9107 C   0  0  0  0  0  0  0  0  0  0  0  0
  -14.3050   -4.2772   -9.8946 O   0  0  0  0  0  0  0  0  0  0  0  0
  -13.8818   -5.6322   -9.7861 C   0  0  0  0  0  0  0  0  0  0  0  0
 32 33  1  0  0  0
 33 26  1  0  0  0
 26 27  1  0  0  0
 26 31  2  0  0  0
 27 28  2  0  0  0
 28  1  1  0  0  0
 28 29  1  0  0  0
  1  2  2  0  0  0
  1  5  1  0  0  0
  2  8  1  0  0  0
  2  3  1  0  0  0
  8  9  2  0  0  0
  8 16  1  0  0  0
  9 10  1  0  0  0
 10 17  1  0  0  0
 10 11  1  0  0  0
 17 18  1  0  0  0
 18 19  1  0  0  0
 19 20  1  0  0  0
 20 21  1  0  0  0
 20 25  2  0  0  0
 21 22  2  0  0  0
 22 23  1  0  0  0
 23 24  2  0  0  0
 24 25  1  0  0  0
 11 12  1  0  0  0
 11 16  2  0  0  0
 12 13  2  0  0  0
 13 14  1  0  0  0
 14 15  2  0  0  0
 15 16  1  0  0  0
  3  4  1  0  0  0
  4  5  1  0  0  0
  4  7  1  0  0  0
  5  6  2  0  0  0
 29 30  2  0  0  0
 30 34  1  0  0  0
 30 31  1  0  0  0
 34 35  1  0  0  0
 31 36  1  0  0  0
 36 37  1  0  0  0
M  END
> <minimizedAffinity>
-7.69273

$$$$
