CHEMBL1241944


 25 27  0  0  0  0  0  0  0  0999 V2000
  -28.7103   -9.2089   -9.1938 N   0  0  0  0  0  0  0  0  0  0  0  0
  -28.3667   -8.0072   -8.6813 N   0  0  0  0  0  0  0  0  0  0  0  0
  -29.3760   -7.6942   -7.8457 C   0  0  0  0  0  0  0  0  0  0  0  0
  -30.3992   -8.6968   -7.8683 C   0  0  0  0  0  0  0  0  0  0  0  0
  -31.6584   -8.9459   -7.2950 C   0  0  0  0  0  0  0  0  0  0  0  0
  -32.3422   -8.0958   -6.4356 N   0  0  0  0  0  0  0  0  0  0  0  0
  -32.2849  -10.1035   -7.5866 N   0  0  0  0  0  0  0  0  0  0  0  0
  -31.6850  -10.9710   -8.4211 C   0  0  0  0  0  0  0  0  0  0  0  0
  -30.5053  -10.8342   -9.0452 N   0  0  0  0  0  0  0  0  0  0  0  0
  -29.9113   -9.6707   -8.7262 C   0  0  0  0  0  0  0  0  0  0  0  0
  -32.1996   -7.1061   -6.5881 H   0  0  0  0  0  0  0  0  0  0  0  0
  -33.3077   -8.3873   -6.3245 H   0  0  0  0  0  0  0  0  0  0  0  0
  -29.3191   -6.4565   -7.0576 C   0  0  0  0  0  0  0  0  0  0  0  0
  -30.0197   -5.3136   -7.4651 C   0  0  0  0  0  0  0  0  0  0  0  0
  -29.9287   -4.1196   -6.7489 C   0  0  0  0  0  0  0  0  0  0  0  0
  -29.1989   -4.0745   -5.5587 C   0  0  0  0  0  0  0  0  0  0  0  0
  -28.5416   -5.2251   -5.1125 C   0  0  0  0  0  0  0  0  0  0  0  0
  -27.8311   -5.2859   -3.9446 O   0  0  0  0  0  0  0  0  0  0  0  0
  -28.5866   -6.4020   -5.8643 C   0  0  0  0  0  0  0  0  0  0  0  0
  -27.9115   -4.4564   -3.4392 H   0  0  0  0  0  0  0  0  0  0  0  0
  -29.1684   -2.8524   -4.8161 C   0  0  0  0  0  0  0  0  0  0  0  0
  -29.1665   -1.8787   -4.1946 N   0  0  0  0  0  0  0  0  0  0  0  0
  -27.1416  -11.0763   -9.5986 C   0  0  0  0  0  0  0  0  0  0  0  0
  -27.8602   -9.8612  -10.1865 C   0  0  0  0  0  0  0  0  0  0  0  0
  -28.6265  -10.2468  -11.4526 C   0  0  0  0  0  0  0  0  0  0  0  0
 23 24  1  0  0  0
 24 25  1  0  0  0
 24  1  1  0  0  0
  1  2  1  0  0  0
  1 10  1  0  0  0
  2  3  2  0  0  0
  3 13  1  0  0  0
  3  4  1  0  0  0
 13 14  1  0  0  0
 13 19  2  0  0  0
 14 15  2  0  0  0
 15 16  1  0  0  0
 16 21  1  0  0  0
 16 17  2  0  0  0
 21 22  3  0  0  0
 17 18  1  0  0  0
 17 19  1  0  0  0
 18 20  1  0  0  0
  4  5  1  0  0  0
  4 10  2  0  0  0
  5  6  1  0  0  0
  5  7  2  0  0  0
  6 11  1  0  0  0
  6 12  1  0  0  0
  7  8  1  0  0  0
  8  9  2  0  0  0
  9 10  1  0  0  0
M  END
> <minimizedAffinity>
-7.63628

$$$$
