CHEMBL3897675


 33 36  0  0  0  0  0  0  0  0999 V2000
  -28.9508   11.5723  -13.4308 C   0  0  0  0  0  0  0  0  0  0  0  0
  -29.0670   10.3238  -14.0507 C   0  0  0  0  0  0  0  0  0  0  0  0
  -28.1985    9.9262  -15.0638 C   0  0  0  0  0  0  0  0  0  0  0  0
  -27.1950   10.7717  -15.5358 C   0  0  0  0  0  0  0  0  0  0  0  0
  -27.0478   12.0156  -14.9277 C   0  0  0  0  0  0  0  0  0  0  0  0
  -27.8978   12.3943  -13.8720 C   0  0  0  0  0  0  0  0  0  0  0  0
  -33.7458   11.7784  -13.0971 C   0  0  0  0  0  0  0  0  0  0  0  0
  -33.5319   12.2122  -11.8068 C   0  0  0  0  0  0  0  0  0  0  0  0
  -32.1512   12.2644  -11.4591 C   0  0  0  0  0  0  0  0  0  0  0  0
  -31.6954   12.6451  -10.2376 N   0  0  0  0  0  0  0  0  0  0  0  0
  -30.3641   12.6574  -10.0940 C   0  0  0  0  0  0  0  0  0  0  0  0
  -29.4605   12.3508  -11.0926 C   0  0  0  0  0  0  0  0  0  0  0  0
  -29.9070   11.9536  -12.3690 C   0  0  0  0  0  0  0  0  0  0  0  0
  -31.3141   11.8967  -12.5177 C   0  0  0  0  0  0  0  0  0  0  0  0
  -32.2769   11.3747  -13.8557 S   0  0  0  0  0  0  0  0  0  0  0  0
  -34.9754   11.6223  -13.8334 C   0  0  0  0  0  0  0  0  0  0  0  0
  -35.2906   12.1848  -14.8688 O   0  0  0  0  0  0  0  0  0  0  0  0
  -35.7562    9.4084  -13.7360 C   0  0  0  0  0  0  0  0  0  0  0  0
  -35.7859   10.7253  -13.1830 O   0  0  0  0  0  0  0  0  0  0  0  0
  -26.3222   10.4240  -16.5975 N   0  0  0  0  0  0  0  0  0  0  0  0
  -25.1062   11.0219  -16.8393 C   0  0  0  0  0  0  0  0  0  0  0  0
  -24.6032   11.8920  -16.1359 O   0  0  0  0  0  0  0  0  0  0  0  0
  -24.4877   10.5552  -17.9875 N   0  0  0  0  0  0  0  0  0  0  0  0
  -26.5463    9.6031  -17.1411 H   0  0  0  0  0  0  0  0  0  0  0  0
  -25.1223   10.4390  -18.7700 H   0  0  0  0  0  0  0  0  0  0  0  0
  -23.2366   11.1456  -18.3243 C   0  0  0  0  0  0  0  0  0  0  0  0
  -23.0516   11.7513  -19.5750 C   0  0  0  0  0  0  0  0  0  0  0  0
  -21.7725   12.1061  -20.0125 C   0  0  0  0  0  0  0  0  0  0  0  0
  -21.5701   12.6578  -21.3955 C   0  0  0  0  0  0  0  0  0  0  0  0
  -20.6780   11.8715  -19.1704 C   0  0  0  0  0  0  0  0  0  0  0  0
  -20.8689   11.3252  -17.8943 C   0  0  0  0  0  0  0  0  0  0  0  0
  -22.1489   10.9843  -17.4712 C   0  0  0  0  0  0  0  0  0  0  0  0
  -22.3178   10.4010  -16.2744 F   0  0  0  0  0  0  0  0  0  0  0  0
 18 19  1  0  0  0
 19 16  1  0  0  0
 16 17  2  0  0  0
 16  7  1  0  0  0
  7  8  2  0  0  0
  7 15  1  0  0  0
  8  9  1  0  0  0
  9 10  1  0  0  0
  9 14  2  0  0  0
 10 11  2  0  0  0
 11 12  1  0  0  0
 12 13  2  0  0  0
 13  1  1  0  0  0
 13 14  1  0  0  0
  1  2  1  0  0  0
  1  6  2  0  0  0
  2  3  2  0  0  0
  3  4  1  0  0  0
  4 20  1  0  0  0
  4  5  2  0  0  0
 20 21  1  0  0  0
 20 24  1  0  0  0
 21 22  2  0  0  0
 21 23  1  0  0  0
 23 26  1  0  0  0
 23 25  1  0  0  0
 26 27  1  0  0  0
 26 32  2  0  0  0
 27 28  2  0  0  0
 28 29  1  0  0  0
 28 30  1  0  0  0
 30 31  2  0  0  0
 31 32  1  0  0  0
 32 33  1  0  0  0
  5  6  1  0  0  0
 14 15  1  0  0  0
M  END
> <minimizedAffinity>
-5.65167

$$$$
