CHEMBL372474


 33 36  0  0  0  0  0  0  0  0999 V2000
  -27.1247   -2.6963   -9.6023 C   0  0  0  0  0  0  0  0  0  0  0  0
  -26.8036   -1.5606   -9.0202 N   0  0  0  0  0  0  0  0  0  0  0  0
  -26.2155   -0.8240  -10.0043 C   0  0  0  0  0  0  0  0  0  0  0  0
  -26.1847   -1.5450  -11.1760 C   0  0  0  0  0  0  0  0  0  0  0  0
  -26.7904   -2.7516  -10.9272 O   0  0  0  0  0  0  0  0  0  0  0  0
  -25.6673   -1.3006  -12.5108 C   0  0  0  0  0  0  0  0  0  0  0  0
  -26.3582   -1.7231  -13.6488 C   0  0  0  0  0  0  0  0  0  0  0  0
  -25.8336   -1.4862  -14.9158 C   0  0  0  0  0  0  0  0  0  0  0  0
  -24.6212   -0.8079  -15.0567 C   0  0  0  0  0  0  0  0  0  0  0  0
  -23.9111   -0.3278  -13.9414 C   0  0  0  0  0  0  0  0  0  0  0  0
  -24.4494   -0.6136  -12.6742 C   0  0  0  0  0  0  0  0  0  0  0  0
  -22.7017    0.5179  -14.0958 C   0  0  0  0  0  0  0  0  0  0  0  0
  -21.5215   -0.0289  -14.6401 C   0  0  0  0  0  0  0  0  0  0  0  0
  -20.3846    0.7518  -14.8711 C   0  0  0  0  0  0  0  0  0  0  0  0
  -20.3981    2.1094  -14.5723 C   0  0  0  0  0  0  0  0  0  0  0  0
  -21.5436    2.6789  -14.0251 C   0  0  0  0  0  0  0  0  0  0  0  0
  -22.6715    1.8893  -13.7854 C   0  0  0  0  0  0  0  0  0  0  0  0
  -23.7436    2.4945  -13.2488 F   0  0  0  0  0  0  0  0  0  0  0  0
  -27.6803   -3.8079   -9.0891 N   0  0  0  0  0  0  0  0  0  0  0  0
  -27.4363   -4.7015   -9.5045 H   0  0  0  0  0  0  0  0  0  0  0  0
  -28.8781   -3.0161   -5.6429 C   0  0  0  0  0  0  0  0  0  0  0  0
  -29.2590   -4.2771   -5.1883 C   0  0  0  0  0  0  0  0  0  0  0  0
  -29.1520   -5.3757   -6.0469 C   0  0  0  0  0  0  0  0  0  0  0  0
  -28.6402   -5.2183   -7.3422 C   0  0  0  0  0  0  0  0  0  0  0  0
  -28.2368   -3.9405   -7.7951 C   0  0  0  0  0  0  0  0  0  0  0  0
  -28.4105   -2.8443   -6.9390 C   0  0  0  0  0  0  0  0  0  0  0  0
  -28.9503   -1.6024   -4.5695 S   0  0  0  0  0  0  0  0  0  0  0  0
  -27.5827   -1.1782   -4.3344 O   0  0  0  0  0  0  0  0  0  0  0  0
  -29.8220   -1.9558   -3.4671 O   0  0  0  0  0  0  0  0  0  0  0  0
  -28.8275    0.8405   -5.7989 C   0  0  0  0  0  0  0  0  0  0  0  0
  -29.7481   -0.3421   -5.5588 C   0  0  0  0  0  0  0  0  0  0  0  0
  -28.4448   -6.2487   -8.2340 O   0  0  0  0  0  0  0  0  0  0  0  0
  -29.1243   -7.4695   -7.9572 C   0  0  0  0  0  0  0  0  0  0  0  0
 30 31  1  0  0  0
 31 27  1  0  0  0
 27 28  2  0  0  0
 27 29  2  0  0  0
 27 21  1  0  0  0
 21 22  1  0  0  0
 21 26  2  0  0  0
 22 23  2  0  0  0
 23 24  1  0  0  0
 24 32  1  0  0  0
 24 25  2  0  0  0
 32 33  1  0  0  0
 25 19  1  0  0  0
 25 26  1  0  0  0
 19  1  1  0  0  0
 19 20  1  0  0  0
  1  2  2  0  0  0
  1  5  1  0  0  0
  2  3  1  0  0  0
  3  4  2  0  0  0
  4  6  1  0  0  0
  4  5  1  0  0  0
  6  7  1  0  0  0
  6 11  2  0  0  0
  7  8  2  0  0  0
  8  9  1  0  0  0
  9 10  2  0  0  0
 10 12  1  0  0  0
 10 11  1  0  0  0
 12 13  1  0  0  0
 12 17  2  0  0  0
 13 14  2  0  0  0
 14 15  1  0  0  0
 15 16  2  0  0  0
 16 17  1  0  0  0
 17 18  1  0  0  0
M  END
> <minimizedAffinity>
-9.85736

$$$$
