CHEMBL3913168


 38 41  0  0  0  0  0  0  0  0999 V2000
  -16.9257    1.9308  -15.8862 C   0  0  0  0  0  0  0  0  0  0  0  0
  -16.5203    3.2641  -15.8474 C   0  0  0  0  0  0  0  0  0  0  0  0
  -15.1643    3.5797  -15.9151 C   0  0  0  0  0  0  0  0  0  0  0  0
  -14.7889    4.8657  -15.8769 F   0  0  0  0  0  0  0  0  0  0  0  0
  -14.1937    2.5915  -16.0295 C   0  0  0  0  0  0  0  0  0  0  0  0
  -14.5880    1.2574  -16.0604 C   0  0  0  0  0  0  0  0  0  0  0  0
  -15.9461    0.9315  -15.9396 C   0  0  0  0  0  0  0  0  0  0  0  0
  -18.7820    1.6401  -13.6561 O   0  0  0  0  0  0  0  0  0  0  0  0
  -19.1195    1.4046  -14.8104 C   0  0  0  0  0  0  0  0  0  0  0  0
  -18.2755    1.5053  -15.9053 N   0  0  0  0  0  0  0  0  0  0  0  0
  -20.3993    1.0255  -15.1967 N   0  0  0  0  0  0  0  0  0  0  0  0
  -18.7140    1.4751  -16.8130 H   0  0  0  0  0  0  0  0  0  0  0  0
  -20.5048    0.6990  -16.1460 H   0  0  0  0  0  0  0  0  0  0  0  0
  -21.5413    0.9414  -14.3688 C   0  0  0  0  0  0  0  0  0  0  0  0
  -22.3362    2.0403  -14.0326 C   0  0  0  0  0  0  0  0  0  0  0  0
  -23.4448    1.8908  -13.1983 C   0  0  0  0  0  0  0  0  0  0  0  0
  -23.7732    0.6378  -12.6993 C   0  0  0  0  0  0  0  0  0  0  0  0
  -24.8407    0.5310  -11.8985 F   0  0  0  0  0  0  0  0  0  0  0  0
  -23.0143   -0.4815  -13.0234 C   0  0  0  0  0  0  0  0  0  0  0  0
  -21.8944   -0.3194  -13.8681 C   0  0  0  0  0  0  0  0  0  0  0  0
  -23.3808   -1.8388  -12.4994 C   0  0  0  0  0  0  0  0  0  0  0  0
  -22.7802   -2.8859  -13.1248 F   0  0  0  0  0  0  0  0  0  0  0  0
  -23.0790   -1.9726  -11.1770 F   0  0  0  0  0  0  0  0  0  0  0  0
  -24.7204   -2.0730  -12.5921 F   0  0  0  0  0  0  0  0  0  0  0  0
  -13.5933    0.3040  -16.1455 O   0  0  0  0  0  0  0  0  0  0  0  0
  -13.1269   -0.2615  -14.9586 C   0  0  0  0  0  0  0  0  0  0  0  0
  -13.8476   -1.3238  -14.4493 C   0  0  0  0  0  0  0  0  0  0  0  0
  -13.3701   -1.8617  -13.2726 C   0  0  0  0  0  0  0  0  0  0  0  0
  -12.2627   -1.3921  -12.6843 N   0  0  0  0  0  0  0  0  0  0  0  0
  -11.6527   -0.3491  -13.2454 C   0  0  0  0  0  0  0  0  0  0  0  0
  -12.0394    0.2588  -14.3646 N   0  0  0  0  0  0  0  0  0  0  0  0
  -14.0775   -2.9172  -12.6670 N   0  0  0  0  0  0  0  0  0  0  0  0
  -15.1777   -2.7300  -11.8503 C   0  0  0  0  0  0  0  0  0  0  0  0
  -15.6639   -1.6625  -11.5049 O   0  0  0  0  0  0  0  0  0  0  0  0
  -13.8030   -3.8591  -12.8936 H   0  0  0  0  0  0  0  0  0  0  0  0
  -15.8655   -3.9601  -11.3548 C   0  0  0  0  0  0  0  0  0  0  0  0
  -15.4914   -5.3918  -11.6278 C   0  0  0  0  0  0  0  0  0  0  0  0
  -16.6810   -4.7910  -12.3195 C   0  0  0  0  0  0  0  0  0  0  0  0
  8  9  2  0  0  0
  9 10  1  0  0  0
  9 11  1  0  0  0
 10  1  1  0  0  0
 10 12  1  0  0  0
  1  2  1  0  0  0
  1  7  2  0  0  0
  2  3  2  0  0  0
  3  4  1  0  0  0
  3  5  1  0  0  0
  5  6  2  0  0  0
  6 25  1  0  0  0
  6  7  1  0  0  0
 25 26  1  0  0  0
 26 27  1  0  0  0
 26 31  2  0  0  0
 27 28  2  0  0  0
 28 32  1  0  0  0
 28 29  1  0  0  0
 32 33  1  0  0  0
 32 35  1  0  0  0
 33 34  2  0  0  0
 33 36  1  0  0  0
 36 37  1  0  0  0
 36 38  1  0  0  0
 37 38  1  0  0  0
 29 30  2  0  0  0
 30 31  1  0  0  0
 11 14  1  0  0  0
 11 13  1  0  0  0
 14 15  1  0  0  0
 14 20  2  0  0  0
 15 16  2  0  0  0
 16 17  1  0  0  0
 17 18  1  0  0  0
 17 19  2  0  0  0
 19 21  1  0  0  0
 19 20  1  0  0  0
 21 22  1  0  0  0
 21 23  1  0  0  0
 21 24  1  0  0  0
M  END
> <minimizedAffinity>
-9.70170

$$$$
