CHEMBL1081090


 39 43  0  0  0  0  0  0  0  0999 V2000
  -29.1718   -4.9654   -7.9642 N   0  0  0  0  0  0  0  0  0  0  0  0
  -29.4462   -5.2072   -8.9137 H   0  0  0  0  0  0  0  0  0  0  0  0
  -28.7826   -6.1244   -7.3359 C   0  0  0  0  0  0  0  0  0  0  0  0
  -28.0628   -6.9781   -8.0477 N   0  0  0  0  0  0  0  0  0  0  0  0
  -28.9655   -7.9759   -8.3101 C   0  0  0  0  0  0  0  0  0  0  0  0
  -28.9545   -8.9391   -9.3268 C   0  0  0  0  0  0  0  0  0  0  0  0
  -30.0693   -9.7726   -9.4632 C   0  0  0  0  0  0  0  0  0  0  0  0
  -31.1381   -9.6941   -8.5661 C   0  0  0  0  0  0  0  0  0  0  0  0
  -31.1346   -8.7827   -7.5039 C   0  0  0  0  0  0  0  0  0  0  0  0
  -30.0464   -7.9076   -7.4291 C   0  0  0  0  0  0  0  0  0  0  0  0
  -29.6563   -6.8982   -6.5526 N   0  0  0  0  0  0  0  0  0  0  0  0
  -29.9325   -6.8621   -5.1528 C   0  0  0  0  0  0  0  0  0  0  0  0
  -30.9408   -6.0591   -4.6435 C   0  0  0  0  0  0  0  0  0  0  0  0
  -31.1132   -6.0754   -3.2699 C   0  0  0  0  0  0  0  0  0  0  0  0
  -32.1582   -5.3903   -2.6676 N   0  0  0  0  0  0  0  0  0  0  0  0
  -30.3531   -6.8052   -2.4525 N   0  0  0  0  0  0  0  0  0  0  0  0
  -29.3834   -7.5196   -3.0304 C   0  0  0  0  0  0  0  0  0  0  0  0
  -29.1215   -7.5801   -4.3408 N   0  0  0  0  0  0  0  0  0  0  0  0
  -32.2942   -4.4410   -2.9828 H   0  0  0  0  0  0  0  0  0  0  0  0
  -32.1127   -5.5021   -1.6615 H   0  0  0  0  0  0  0  0  0  0  0  0
  -27.4575   -1.8608   -9.1164 C   0  0  0  0  0  0  0  0  0  0  0  0
  -27.6726   -1.0022   -8.0498 C   0  0  0  0  0  0  0  0  0  0  0  0
  -28.2547   -1.5125   -6.8865 C   0  0  0  0  0  0  0  0  0  0  0  0
  -28.7070   -2.8475   -6.8216 C   0  0  0  0  0  0  0  0  0  0  0  0
  -29.2679   -3.3530   -5.5152 C   0  0  0  0  0  0  0  0  0  0  0  0
  -28.5976   -3.6812   -7.9575 C   0  0  0  0  0  0  0  0  0  0  0  0
  -27.8557   -3.2000   -9.0217 C   0  0  0  0  0  0  0  0  0  0  0  0
  -25.6372   -1.5198  -10.7372 N   0  0  0  0  0  0  0  0  0  0  0  0
  -26.9856   -1.4335  -10.4541 C   0  0  0  0  0  0  0  0  0  0  0  0
  -27.8584   -1.0410  -11.2197 O   0  0  0  0  0  0  0  0  0  0  0  0
  -25.0362   -1.9737  -10.0598 H   0  0  0  0  0  0  0  0  0  0  0  0
  -23.2088   -0.1927  -13.2131 C   0  0  0  0  0  0  0  0  0  0  0  0
  -23.7659   -0.6157  -14.4197 C   0  0  0  0  0  0  0  0  0  0  0  0
  -24.9732   -1.3088  -14.4183 C   0  0  0  0  0  0  0  0  0  0  0  0
  -25.6147   -1.5907  -13.2153 C   0  0  0  0  0  0  0  0  0  0  0  0
  -25.0616   -1.1969  -11.9900 C   0  0  0  0  0  0  0  0  0  0  0  0
  -23.8644   -0.4685  -12.0082 C   0  0  0  0  0  0  0  0  0  0  0  0
  -21.3760    0.8671  -14.2909 C   0  0  0  0  0  0  0  0  0  0  0  0
  -22.0217    0.4790  -13.0829 O   0  0  0  0  0  0  0  0  0  0  0  0
 38 39  1  0  0  0
 39 32  1  0  0  0
 32 33  1  0  0  0
 32 37  2  0  0  0
 33 34  2  0  0  0
 34 35  1  0  0  0
 35 36  2  0  0  0
 36 28  1  0  0  0
 36 37  1  0  0  0
 28 29  1  0  0  0
 28 31  1  0  0  0
 29 30  2  0  0  0
 29 21  1  0  0  0
 21 22  1  0  0  0
 21 27  2  0  0  0
 22 23  2  0  0  0
 23 24  1  0  0  0
 24 25  1  0  0  0
 24 26  2  0  0  0
 26  1  1  0  0  0
 26 27  1  0  0  0
  1  3  1  0  0  0
  1  2  1  0  0  0
  3  4  2  0  0  0
  3 11  1  0  0  0
  4  5  1  0  0  0
  5  6  1  0  0  0
  5 10  2  0  0  0
  6  7  2  0  0  0
  7  8  1  0  0  0
  8  9  2  0  0  0
  9 10  1  0  0  0
 10 11  1  0  0  0
 11 12  1  0  0  0
 12 13  1  0  0  0
 12 18  2  0  0  0
 13 14  2  0  0  0
 14 15  1  0  0  0
 14 16  1  0  0  0
 15 19  1  0  0  0
 15 20  1  0  0  0
 16 17  2  0  0  0
 17 18  1  0  0  0
M  END
> <minimizedAffinity>
-10.71761

$$$$
