CHEMBL4449692


 28 31  0  0  0  0  0  0  0  0999 V2000
  -22.2487   -0.0198  -13.9528 C   0  0  0  0  0  0  0  0  0  0  0  0
  -22.8529    1.1698  -13.5659 C   0  0  0  0  0  0  0  0  0  0  0  0
  -22.2914    2.3677  -13.9221 C   0  0  0  0  0  0  0  0  0  0  0  0
  -21.0757    2.4346  -14.5629 C   0  0  0  0  0  0  0  0  0  0  0  0
  -20.7229    3.6471  -14.9962 N   0  0  0  0  0  0  0  0  0  0  0  0
  -19.4805    3.7560  -15.4858 C   0  0  0  0  0  0  0  0  0  0  0  0
  -18.5792    2.7096  -15.4659 C   0  0  0  0  0  0  0  0  0  0  0  0
  -18.9656    1.4421  -15.1253 N   0  0  0  0  0  0  0  0  0  0  0  0
  -20.2746    1.2765  -14.7228 C   0  0  0  0  0  0  0  0  0  0  0  0
  -20.9252    0.0384  -14.4539 C   0  0  0  0  0  0  0  0  0  0  0  0
  -17.1815    3.0513  -15.6484 C   0  0  0  0  0  0  0  0  0  0  0  0
  -16.6066    4.2977  -15.9748 C   0  0  0  0  0  0  0  0  0  0  0  0
  -15.3155    4.1909  -16.3085 N   0  0  0  0  0  0  0  0  0  0  0  0
  -15.0722    2.8741  -16.1881 N   0  0  0  0  0  0  0  0  0  0  0  0
  -13.7181    2.3771  -16.1809 C   0  0  0  0  0  0  0  0  0  0  0  0
  -16.1975    2.1363  -15.9562 C   0  0  0  0  0  0  0  0  0  0  0  0
  -23.0248   -1.1989  -13.8042 N   0  0  0  0  0  0  0  0  0  0  0  0
  -22.4379   -1.9460  -13.4234 H   0  0  0  0  0  0  0  0  0  0  0  0
  -26.6929   -1.7000  -13.4375 C   0  0  0  0  0  0  0  0  0  0  0  0
  -25.4186   -1.5564  -13.9872 C   0  0  0  0  0  0  0  0  0  0  0  0
  -24.2884   -1.3628  -13.1651 C   0  0  0  0  0  0  0  0  0  0  0  0
  -24.4527   -1.3774  -11.7760 C   0  0  0  0  0  0  0  0  0  0  0  0
  -25.7250   -1.5220  -11.2153 C   0  0  0  0  0  0  0  0  0  0  0  0
  -26.8352   -1.6691  -12.0517 C   0  0  0  0  0  0  0  0  0  0  0  0
  -28.8189   -2.7686  -13.5894 C   0  0  0  0  0  0  0  0  0  0  0  0
  -27.8614   -1.8665  -14.1282 O   0  0  0  0  0  0  0  0  0  0  0  0
  -26.0208   -1.5296   -9.8792 O   0  0  0  0  0  0  0  0  0  0  0  0
  -27.3427   -1.8967   -9.5082 C   0  0  0  0  0  0  0  0  0  0  0  0
 25 26  1  0  0  0
 26 19  1  0  0  0
 19 20  1  0  0  0
 19 24  2  0  0  0
 20 21  2  0  0  0
 21 17  1  0  0  0
 21 22  1  0  0  0
 17  1  1  0  0  0
 17 18  1  0  0  0
  1  2  1  0  0  0
  1 10  2  0  0  0
  2  3  2  0  0  0
  3  4  1  0  0  0
  4  5  1  0  0  0
  4  9  2  0  0  0
  5  6  2  0  0  0
  6  7  1  0  0  0
  7 11  1  0  0  0
  7  8  2  0  0  0
 11 12  1  0  0  0
 11 16  2  0  0  0
 12 13  2  0  0  0
 13 14  1  0  0  0
 14 15  1  0  0  0
 14 16  1  0  0  0
  8  9  1  0  0  0
  9 10  1  0  0  0
 22 23  2  0  0  0
 23 27  1  0  0  0
 23 24  1  0  0  0
 27 28  1  0  0  0
M  END
> <minimizedAffinity>
-9.00276

$$$$
