CHEMBL407265


 22 24  0  0  0  0  0  0  0  0999 V2000
  -27.7495   -6.4082   -8.7811 N   0  0  0  0  0  0  0  0  0  0  0  0
  -28.7508   -7.0959   -8.0735 C   0  0  0  0  0  0  0  0  0  0  0  0
  -28.9443   -8.3767   -8.4201 N   0  0  0  0  0  0  0  0  0  0  0  0
  -29.8602   -9.0347   -7.7003 C   0  0  0  0  0  0  0  0  0  0  0  0
  -30.5788   -8.5456   -6.6782 N   0  0  0  0  0  0  0  0  0  0  0  0
  -30.3514   -7.2611   -6.3457 C   0  0  0  0  0  0  0  0  0  0  0  0
  -29.4238   -6.4612   -7.0236 C   0  0  0  0  0  0  0  0  0  0  0  0
  -29.1923   -5.0800   -6.7870 N   0  0  0  0  0  0  0  0  0  0  0  0
  -29.0757   -4.6510   -5.5657 C   0  0  0  0  0  0  0  0  0  0  0  0
  -29.1530   -5.5719   -4.3659 C   0  0  0  0  0  0  0  0  0  0  0  0
  -30.5774   -6.0691   -4.1854 C   0  0  0  0  0  0  0  0  0  0  0  0
  -31.1545   -6.8023   -5.3062 N   0  0  0  0  0  0  0  0  0  0  0  0
  -27.4986   -6.9476   -9.6011 H   0  0  0  0  0  0  0  0  0  0  0  0
  -28.0595   -5.4591   -8.9682 H   0  0  0  0  0  0  0  0  0  0  0  0
  -31.7175   -7.5991   -5.0139 H   0  0  0  0  0  0  0  0  0  0  0  0
  -28.8224   -3.1973   -5.3440 C   0  0  0  0  0  0  0  0  0  0  0  0
  -27.5555   -2.7226   -4.9890 C   0  0  0  0  0  0  0  0  0  0  0  0
  -27.3505   -1.3533   -4.8008 C   0  0  0  0  0  0  0  0  0  0  0  0
  -28.4110   -0.4622   -4.9561 C   0  0  0  0  0  0  0  0  0  0  0  0
  -28.1485    1.2224   -4.7264 Cl  0  0  0  0  0  0  0  0  0  0  0  0
  -29.6799   -0.9273   -5.2939 C   0  0  0  0  0  0  0  0  0  0  0  0
  -29.8871   -2.2957   -5.4847 C   0  0  0  0  0  0  0  0  0  0  0  0
  1  2  1  0  0  0
  1 13  1  0  0  0
  1 14  1  0  0  0
  2  3  1  0  0  0
  2  7  2  0  0  0
  3  4  2  0  0  0
  4  5  1  0  0  0
  5  6  2  0  0  0
  6  7  1  0  0  0
  6 12  1  0  0  0
  7  8  1  0  0  0
  8  9  2  0  0  0
  9 16  1  0  0  0
  9 10  1  0  0  0
 16 17  1  0  0  0
 16 22  2  0  0  0
 17 18  2  0  0  0
 18 19  1  0  0  0
 19 20  1  0  0  0
 19 21  2  0  0  0
 21 22  1  0  0  0
 10 11  1  0  0  0
 11 12  1  0  0  0
 12 15  1  0  0  0
M  END
> <minimizedAffinity>
-8.07989

$$$$
