CHEMBL2088112


 31 34  0  0  0  0  0  0  0  0999 V2000
  -24.8421   12.0512  -16.1672 C   0  0  0  0  0  0  0  0  0  0  0  0
  -24.5770   12.1369  -17.4895 N   0  0  0  0  0  0  0  0  0  0  0  0
  -23.3819   11.7596  -17.9484 C   0  0  0  0  0  0  0  0  0  0  0  0
  -22.3932   11.3262  -17.1643 N   0  0  0  0  0  0  0  0  0  0  0  0
  -22.6643   11.2446  -15.8457 C   0  0  0  0  0  0  0  0  0  0  0  0
  -23.8737   11.5933  -15.2888 C   0  0  0  0  0  0  0  0  0  0  0  0
  -24.1634   11.3828  -13.4354 Br  0  0  0  0  0  0  0  0  0  0  0  0
  -26.1243   12.3992  -15.6932 N   0  0  0  0  0  0  0  0  0  0  0  0
  -26.1867   13.3536  -15.3593 H   0  0  0  0  0  0  0  0  0  0  0  0
  -28.9051   10.7324  -14.2796 C   0  0  0  0  0  0  0  0  0  0  0  0
  -27.9245   11.6895  -14.1658 C   0  0  0  0  0  0  0  0  0  0  0  0
  -27.1560   11.6007  -15.3433 C   0  0  0  0  0  0  0  0  0  0  0  0
  -27.5917   10.6053  -16.1254 N   0  0  0  0  0  0  0  0  0  0  0  0
  -28.6621   10.1144  -15.4707 N   0  0  0  0  0  0  0  0  0  0  0  0
  -29.1835    9.3618  -15.9046 H   0  0  0  0  0  0  0  0  0  0  0  0
  -31.3268   11.0431  -13.8011 C   0  0  0  0  0  0  0  0  0  0  0  0
  -30.0254   10.3848  -13.3680 C   0  0  0  0  0  0  0  0  0  0  0  0
  -23.2459   11.7933  -19.3215 N   0  0  0  0  0  0  0  0  0  0  0  0
  -24.1683   11.9453  -19.7131 H   0  0  0  0  0  0  0  0  0  0  0  0
  -22.2083   12.6540  -19.8572 C   0  0  0  0  0  0  0  0  0  0  0  0
  -21.0070   11.9645  -20.3990 C   0  0  0  0  0  0  0  0  0  0  0  0
  -20.0210   11.1693  -19.8696 C   0  0  0  0  0  0  0  0  0  0  0  0
  -19.1983   10.8149  -20.9740 C   0  0  0  0  0  0  0  0  0  0  0  0
  -19.6579   11.3972  -22.0960 N   0  0  0  0  0  0  0  0  0  0  0  0
  -20.7864   12.1046  -21.7334 O   0  0  0  0  0  0  0  0  0  0  0  0
  -18.0311    9.9301  -20.9564 C   0  0  0  0  0  0  0  0  0  0  0  0
  -17.9677    8.7869  -21.7503 C   0  0  0  0  0  0  0  0  0  0  0  0
  -16.8517    7.9589  -21.6475 C   0  0  0  0  0  0  0  0  0  0  0  0
  -15.8337    8.2943  -20.7634 C   0  0  0  0  0  0  0  0  0  0  0  0
  -15.9679    9.4549  -20.0210 C   0  0  0  0  0  0  0  0  0  0  0  0
  -17.0367   10.2775  -20.0969 N   0  0  0  0  0  0  0  0  0  0  0  0
 16 17  1  0  0  0
 17 10  1  0  0  0
 10 11  2  0  0  0
 10 14  1  0  0  0
 11 12  1  0  0  0
 12  8  1  0  0  0
 12 13  2  0  0  0
  8  1  1  0  0  0
  8  9  1  0  0  0
  1  2  1  0  0  0
  1  6  2  0  0  0
  2  3  2  0  0  0
  3 18  1  0  0  0
  3  4  1  0  0  0
 18 20  1  0  0  0
 18 19  1  0  0  0
 20 21  1  0  0  0
 21 22  2  0  0  0
 21 25  1  0  0  0
 22 23  1  0  0  0
 23 26  1  0  0  0
 23 24  2  0  0  0
 26 27  1  0  0  0
 26 31  2  0  0  0
 27 28  2  0  0  0
 28 29  1  0  0  0
 29 30  2  0  0  0
 30 31  1  0  0  0
 24 25  1  0  0  0
  4  5  2  0  0  0
  5  6  1  0  0  0
  6  7  1  0  0  0
 13 14  1  0  0  0
 14 15  1  0  0  0
M  END
> <minimizedAffinity>
-5.99330

$$$$
