CHEMBL398196


 39 43  0  0  0  0  0  0  0  0999 V2000
  -13.7807    1.5827  -16.0588 C   0  0  0  0  0  0  0  0  0  0  0  0
  -12.8134    0.6362  -15.7910 C   0  0  0  0  0  0  0  0  0  0  0  0
  -13.2929   -0.5029  -14.6466 S   0  0  0  0  0  0  0  0  0  0  0  0
  -14.9015    0.1344  -14.5357 C   0  0  0  0  0  0  0  0  0  0  0  0
  -15.9750   -0.3929  -13.7646 C   0  0  0  0  0  0  0  0  0  0  0  0
  -17.1167    0.4005  -13.7946 C   0  0  0  0  0  0  0  0  0  0  0  0
  -17.2733    1.5367  -14.4946 N   0  0  0  0  0  0  0  0  0  0  0  0
  -16.2739    1.9856  -15.2744 C   0  0  0  0  0  0  0  0  0  0  0  0
  -16.6122    3.1142  -16.0123 N   0  0  0  0  0  0  0  0  0  0  0  0
  -15.0224    1.3084  -15.3154 C   0  0  0  0  0  0  0  0  0  0  0  0
  -17.6146    3.2555  -15.9347 H   0  0  0  0  0  0  0  0  0  0  0  0
  -16.2655    3.0823  -16.9634 H   0  0  0  0  0  0  0  0  0  0  0  0
  -15.9311   -1.6592  -12.9957 C   0  0  0  0  0  0  0  0  0  0  0  0
  -16.0338   -2.9100  -13.6398 C   0  0  0  0  0  0  0  0  0  0  0  0
  -15.9626   -4.1153  -12.9273 C   0  0  0  0  0  0  0  0  0  0  0  0
  -15.8090   -4.0904  -11.5490 C   0  0  0  0  0  0  0  0  0  0  0  0
  -15.7437   -5.2293  -10.8107 O   0  0  0  0  0  0  0  0  0  0  0  0
  -15.7019   -2.8791  -10.8805 C   0  0  0  0  0  0  0  0  0  0  0  0
  -15.7336   -1.6818  -11.6022 C   0  0  0  0  0  0  0  0  0  0  0  0
  -15.8268   -5.9897  -11.4068 H   0  0  0  0  0  0  0  0  0  0  0  0
  -13.0255    4.7823  -18.8153 C   0  0  0  0  0  0  0  0  0  0  0  0
  -13.6794    3.6221  -19.2340 C   0  0  0  0  0  0  0  0  0  0  0  0
  -13.9140    2.5795  -18.3381 C   0  0  0  0  0  0  0  0  0  0  0  0
  -13.4582    2.6553  -17.0135 C   0  0  0  0  0  0  0  0  0  0  0  0
  -12.6887    3.7660  -16.6452 C   0  0  0  0  0  0  0  0  0  0  0  0
  -12.4830    4.8329  -17.5335 C   0  0  0  0  0  0  0  0  0  0  0  0
  -13.7181    7.9860  -20.3679 N   0  0  0  0  0  0  0  0  0  0  0  0
  -13.9195    6.9336  -19.4925 C   0  0  0  0  0  0  0  0  0  0  0  0
  -14.7991    6.8954  -18.6369 O   0  0  0  0  0  0  0  0  0  0  0  0
  -12.9691    5.9272  -19.6460 N   0  0  0  0  0  0  0  0  0  0  0  0
  -13.1099    7.8069  -21.1592 H   0  0  0  0  0  0  0  0  0  0  0  0
  -12.0492    6.2499  -19.9077 H   0  0  0  0  0  0  0  0  0  0  0  0
  -18.0481   10.3483  -20.7628 C   0  0  0  0  0  0  0  0  0  0  0  0
  -16.5641   10.3794  -20.5650 C   0  0  0  0  0  0  0  0  0  0  0  0
  -15.9094   11.6052  -20.3990 C   0  0  0  0  0  0  0  0  0  0  0  0
  -14.5334   11.6401  -20.2255 C   0  0  0  0  0  0  0  0  0  0  0  0
  -13.8003   10.4532  -20.2163 C   0  0  0  0  0  0  0  0  0  0  0  0
  -14.4267    9.2128  -20.3652 C   0  0  0  0  0  0  0  0  0  0  0  0
  -15.8157    9.1861  -20.5447 C   0  0  0  0  0  0  0  0  0  0  0  0
 33 34  1  0  0  0
 34 35  1  0  0  0
 34 39  2  0  0  0
 35 36  2  0  0  0
 36 37  1  0  0  0
 37 38  2  0  0  0
 38 27  1  0  0  0
 38 39  1  0  0  0
 27 28  1  0  0  0
 27 31  1  0  0  0
 28 29  2  0  0  0
 28 30  1  0  0  0
 30 21  1  0  0  0
 30 32  1  0  0  0
 21 22  1  0  0  0
 21 26  2  0  0  0
 22 23  2  0  0  0
 23 24  1  0  0  0
 24  1  1  0  0  0
 24 25  2  0  0  0
  1  2  2  0  0  0
  1 10  1  0  0  0
  2  3  1  0  0  0
  3  4  1  0  0  0
  4  5  1  0  0  0
  4 10  2  0  0  0
  5 13  1  0  0  0
  5  6  2  0  0  0
 13 14  1  0  0  0
 13 19  2  0  0  0
 14 15  2  0  0  0
 15 16  1  0  0  0
 16 17  1  0  0  0
 16 18  2  0  0  0
 17 20  1  0  0  0
 18 19  1  0  0  0
  6  7  1  0  0  0
  7  8  2  0  0  0
  8  9  1  0  0  0
  8 10  1  0  0  0
  9 11  1  0  0  0
  9 12  1  0  0  0
 25 26  1  0  0  0
M  END
> <minimizedAffinity>
-7.62454

$$$$
