CHEMBL260620


 25 27  0  0  0  0  0  0  0  0999 V2000
  -27.5276    0.2883   -5.6019 N   0  0  0  0  0  0  0  0  0  0  0  0
  -27.8305   -0.9815   -6.0498 C   0  0  0  0  0  0  0  0  0  0  0  0
  -27.8678   -1.1707   -7.3671 N   0  0  0  0  0  0  0  0  0  0  0  0
  -28.1427   -2.4166   -7.7793 C   0  0  0  0  0  0  0  0  0  0  0  0
  -28.2125   -2.6012   -9.1724 N   0  0  0  0  0  0  0  0  0  0  0  0
  -28.4196   -3.4809   -6.9178 C   0  0  0  0  0  0  0  0  0  0  0  0
  -28.3886   -3.1506   -5.5606 C   0  0  0  0  0  0  0  0  0  0  0  0
  -28.1012   -1.9081   -5.1273 N   0  0  0  0  0  0  0  0  0  0  0  0
  -28.5955   -4.0559   -4.5284 N   0  0  0  0  0  0  0  0  0  0  0  0
  -29.6612   -5.0463   -4.5577 C   0  0  0  0  0  0  0  0  0  0  0  0
  -30.4467   -5.1377   -5.8531 C   0  0  0  0  0  0  0  0  0  0  0  0
  -29.5150   -5.5652   -6.9675 C   0  0  0  0  0  0  0  0  0  0  0  0
  -28.6024   -4.7830   -7.4563 N   0  0  0  0  0  0  0  0  0  0  0  0
  -27.7403    0.9647   -6.3213 H   0  0  0  0  0  0  0  0  0  0  0  0
  -27.9254    0.4364   -4.6860 H   0  0  0  0  0  0  0  0  0  0  0  0
  -27.8250   -1.7804   -9.6242 H   0  0  0  0  0  0  0  0  0  0  0  0
  -27.7565   -3.4753   -9.4177 H   0  0  0  0  0  0  0  0  0  0  0  0
  -28.5380   -3.5315   -3.6581 H   0  0  0  0  0  0  0  0  0  0  0  0
  -29.6527   -6.9416   -7.5318 C   0  0  0  0  0  0  0  0  0  0  0  0
  -30.8633   -7.6270   -7.3622 C   0  0  0  0  0  0  0  0  0  0  0  0
  -31.0267   -8.9098   -7.8927 C   0  0  0  0  0  0  0  0  0  0  0  0
  -29.9834   -9.5038   -8.6004 C   0  0  0  0  0  0  0  0  0  0  0  0
  -30.1807  -11.0814   -9.2564 Cl  0  0  0  0  0  0  0  0  0  0  0  0
  -28.7801   -8.8247   -8.7860 C   0  0  0  0  0  0  0  0  0  0  0  0
  -28.6144   -7.5420   -8.2545 C   0  0  0  0  0  0  0  0  0  0  0  0
  1  2  1  0  0  0
  1 14  1  0  0  0
  1 15  1  0  0  0
  2  3  1  0  0  0
  2  8  2  0  0  0
  3  4  2  0  0  0
  4  5  1  0  0  0
  4  6  1  0  0  0
  5 16  1  0  0  0
  5 17  1  0  0  0
  6  7  2  0  0  0
  6 13  1  0  0  0
  7  8  1  0  0  0
  7  9  1  0  0  0
  9 10  1  0  0  0
  9 18  1  0  0  0
 10 11  1  0  0  0
 11 12  1  0  0  0
 12 19  1  0  0  0
 12 13  2  0  0  0
 19 20  1  0  0  0
 19 25  2  0  0  0
 20 21  2  0  0  0
 21 22  1  0  0  0
 22 23  1  0  0  0
 22 24  2  0  0  0
 24 25  1  0  0  0
M  END
> <minimizedAffinity>
-7.77952

$$$$
