CHEMBL206545


 33 36  0  0  0  0  0  0  0  0999 V2000
  -15.6450    1.8045  -15.2691 C   0  0  0  0  0  0  0  0  0  0  0  0
  -15.3661    0.8895  -14.4047 N   0  0  0  0  0  0  0  0  0  0  0  0
  -14.1568    0.9971  -13.7647 C   0  0  0  0  0  0  0  0  0  0  0  0
  -13.2815    1.9441  -13.9054 N   0  0  0  0  0  0  0  0  0  0  0  0
  -13.6178    2.8795  -14.8087 N   0  0  0  0  0  0  0  0  0  0  0  0
  -12.8691    3.9684  -15.1368 C   0  0  0  0  0  0  0  0  0  0  0  0
  -13.5093    4.6282  -16.1639 C   0  0  0  0  0  0  0  0  0  0  0  0
  -14.7548    3.9721  -16.3960 C   0  0  0  0  0  0  0  0  0  0  0  0
  -15.8211    4.3526  -17.3610 C   0  0  0  0  0  0  0  0  0  0  0  0
  -14.7572    2.8740  -15.5472 C   0  0  0  0  0  0  0  0  0  0  0  0
  -16.8092    1.8745  -16.0062 O   0  0  0  0  0  0  0  0  0  0  0  0
  -23.7279    0.3985  -14.0594 C   0  0  0  0  0  0  0  0  0  0  0  0
  -22.3215    0.8519  -14.1779 C   0  0  0  0  0  0  0  0  0  0  0  0
  -21.1505    0.1374  -14.3242 C   0  0  0  0  0  0  0  0  0  0  0  0
  -20.1137    1.0626  -14.6273 C   0  0  0  0  0  0  0  0  0  0  0  0
  -18.7709    0.9360  -15.0220 C   0  0  0  0  0  0  0  0  0  0  0  0
  -18.2119   -0.2773  -15.1516 F   0  0  0  0  0  0  0  0  0  0  0  0
  -18.0529    2.0822  -15.3733 C   0  0  0  0  0  0  0  0  0  0  0  0
  -18.6293    3.3502  -15.2932 C   0  0  0  0  0  0  0  0  0  0  0  0
  -19.9463    3.5029  -14.8494 C   0  0  0  0  0  0  0  0  0  0  0  0
  -20.6708    2.3408  -14.5559 C   0  0  0  0  0  0  0  0  0  0  0  0
  -21.9930    2.1852  -14.2062 N   0  0  0  0  0  0  0  0  0  0  0  0
  -22.6479    2.9477  -14.0992 H   0  0  0  0  0  0  0  0  0  0  0  0
  -13.0422    5.7114  -16.8366 O   0  0  0  0  0  0  0  0  0  0  0  0
  -11.7553    5.4871  -17.4269 C   0  0  0  0  0  0  0  0  0  0  0  0
  -11.8707    4.6850  -18.7180 C   0  0  0  0  0  0  0  0  0  0  0  0
  -12.3703    5.4948  -19.9065 C   0  0  0  0  0  0  0  0  0  0  0  0
  -13.8359    5.6272  -19.8523 N   0  0  0  0  0  0  0  0  0  0  0  0
  -14.2967    5.1623  -19.0679 H   0  0  0  0  0  0  0  0  0  0  0  0
  -14.4791    7.1696  -20.0338 S   0  0  0  0  0  0  0  0  0  0  0  0
  -13.0531    8.1448  -20.4540 C   0  0  0  0  0  0  0  0  0  0  0  0
  -15.3555    7.1029  -21.1816 O   0  0  0  0  0  0  0  0  0  0  0  0
  -14.9735    7.5874  -18.7377 O   0  0  0  0  0  0  0  0  0  0  0  0
 12 13  1  0  0  0
 13 14  2  0  0  0
 13 22  1  0  0  0
 14 15  1  0  0  0
 15 16  1  0  0  0
 15 21  2  0  0  0
 16 17  1  0  0  0
 16 18  2  0  0  0
 18 11  1  0  0  0
 18 19  1  0  0  0
 11  1  1  0  0  0
  1  2  2  0  0  0
  1 10  1  0  0  0
  2  3  1  0  0  0
  3  4  2  0  0  0
  4  5  1  0  0  0
  5  6  1  0  0  0
  5 10  1  0  0  0
  6  7  2  0  0  0
  7 24  1  0  0  0
  7  8  1  0  0  0
 24 25  1  0  0  0
 25 26  1  0  0  0
 26 27  1  0  0  0
 27 28  1  0  0  0
 28 30  1  0  0  0
 28 29  1  0  0  0
 30 31  1  0  0  0
 30 32  2  0  0  0
 30 33  2  0  0  0
  8  9  1  0  0  0
  8 10  2  0  0  0
 19 20  2  0  0  0
 20 21  1  0  0  0
 21 22  1  0  0  0
 22 23  1  0  0  0
M  END
> <minimizedAffinity>
-7.06762

$$$$
