CHEMBL240456


 30 32  0  0  0  0  0  0  0  0999 V2000
  -28.6554   -2.4837  -13.5170 C   0  0  0  0  0  0  0  0  0  0  0  0
  -27.2977   -1.9931  -13.3900 N   0  0  0  0  0  0  0  0  0  0  0  0
  -26.5125   -1.9878  -14.4822 N   0  0  0  0  0  0  0  0  0  0  0  0
  -25.3562   -1.5092  -14.0294 C   0  0  0  0  0  0  0  0  0  0  0  0
  -25.3929   -1.1931  -12.6513 C   0  0  0  0  0  0  0  0  0  0  0  0
  -26.6972   -1.4670  -12.2560 C   0  0  0  0  0  0  0  0  0  0  0  0
  -27.4332   -1.3619  -11.0103 C   0  0  0  0  0  0  0  0  0  0  0  0
  -28.2669   -0.4737  -10.8635 O   0  0  0  0  0  0  0  0  0  0  0  0
  -27.1373   -2.3073  -10.0382 N   0  0  0  0  0  0  0  0  0  0  0  0
  -26.4829   -3.0361  -10.2873 H   0  0  0  0  0  0  0  0  0  0  0  0
  -27.7458   -2.3829   -8.7548 C   0  0  0  0  0  0  0  0  0  0  0  0
  -28.5925   -3.4303   -8.3869 C   0  0  0  0  0  0  0  0  0  0  0  0
  -29.2035   -3.4550   -7.1342 C   0  0  0  0  0  0  0  0  0  0  0  0
  -28.9518   -2.4472   -6.2090 C   0  0  0  0  0  0  0  0  0  0  0  0
  -28.0479   -1.4343   -6.5197 C   0  0  0  0  0  0  0  0  0  0  0  0
  -27.4967   -1.3740   -7.8177 C   0  0  0  0  0  0  0  0  0  0  0  0
  -27.6384   -0.4543   -5.6629 O   0  0  0  0  0  0  0  0  0  0  0  0
  -28.4471    0.7066   -5.4772 C   0  0  0  0  0  0  0  0  0  0  0  0
  -29.7377    0.4436   -5.1791 F   0  0  0  0  0  0  0  0  0  0  0  0
  -27.9352    1.4223   -4.4516 F   0  0  0  0  0  0  0  0  0  0  0  0
  -28.4026    1.4732   -6.5886 F   0  0  0  0  0  0  0  0  0  0  0  0
  -24.3179   -0.7407  -11.9553 N   0  0  0  0  0  0  0  0  0  0  0  0
  -24.4537    0.0107  -11.2776 H   0  0  0  0  0  0  0  0  0  0  0  0
  -22.9459   -0.8320  -12.4254 C   0  0  0  0  0  0  0  0  0  0  0  0
  -22.5101    0.3188  -13.2947 C   0  0  0  0  0  0  0  0  0  0  0  0
  -23.1809    1.5424  -13.1640 C   0  0  0  0  0  0  0  0  0  0  0  0
  -22.7059    2.6460  -13.8533 C   0  0  0  0  0  0  0  0  0  0  0  0
  -21.6253    2.6140  -14.6571 N   0  0  0  0  0  0  0  0  0  0  0  0
  -20.9837    1.4301  -14.7657 C   0  0  0  0  0  0  0  0  0  0  0  0
  -21.3773    0.2714  -14.1112 C   0  0  0  0  0  0  0  0  0  0  0  0
  1  2  1  0  0  0
  2  3  1  0  0  0
  2  6  1  0  0  0
  3  4  2  0  0  0
  4  5  1  0  0  0
  5 22  1  0  0  0
  5  6  2  0  0  0
 22 24  1  0  0  0
 22 23  1  0  0  0
 24 25  1  0  0  0
 25 26  1  0  0  0
 25 30  2  0  0  0
 26 27  2  0  0  0
 27 28  1  0  0  0
 28 29  2  0  0  0
 29 30  1  0  0  0
  6  7  1  0  0  0
  7  8  2  0  0  0
  7  9  1  0  0  0
  9 11  1  0  0  0
  9 10  1  0  0  0
 11 12  1  0  0  0
 11 16  2  0  0  0
 12 13  2  0  0  0
 13 14  1  0  0  0
 14 15  2  0  0  0
 15 17  1  0  0  0
 15 16  1  0  0  0
 17 18  1  0  0  0
 18 19  1  0  0  0
 18 20  1  0  0  0
 18 21  1  0  0  0
M  END
> <minimizedAffinity>
-9.13049

$$$$
