CHEMBL218816


 44 50  0  0  0  0  0  0  0  0999 V2000
  -28.6728   -3.3242   -7.5621 C   0  0  0  0  0  0  0  0  0  0  0  0
  -29.9557   -3.0215   -7.1061 C   0  0  0  0  0  0  0  0  0  0  0  0
  -30.6961   -3.9421   -6.3492 C   0  0  0  0  0  0  0  0  0  0  0  0
  -30.1022   -5.1838   -6.0516 C   0  0  0  0  0  0  0  0  0  0  0  0
  -28.9190   -5.5312   -6.6511 C   0  0  0  0  0  0  0  0  0  0  0  0
  -28.1793   -4.6217   -7.4276 C   0  0  0  0  0  0  0  0  0  0  0  0
  -28.7604   -6.8185   -6.1983 C   0  0  0  0  0  0  0  0  0  0  0  0
  -28.9086   -7.7732   -7.2647 C   0  0  0  0  0  0  0  0  0  0  0  0
  -28.1844   -8.9538   -6.9951 C   0  0  0  0  0  0  0  0  0  0  0  0
  -27.3924   -9.0045   -5.8319 C   0  0  0  0  0  0  0  0  0  0  0  0
  -28.3415   -8.3150   -4.7703 C   0  0  0  0  0  0  0  0  0  0  0  0
  -29.4500   -7.2733   -4.9752 C   0  0  0  0  0  0  0  0  0  0  0  0
  -30.4727   -6.2712   -5.2247 N   0  0  0  0  0  0  0  0  0  0  0  0
  -28.1503   -9.1074   -3.4356 C   0  0  0  0  0  0  0  0  0  0  0  0
  -28.2992  -10.6463   -3.7009 C   0  0  0  0  0  0  0  0  0  0  0  0
  -27.0817  -11.0619   -4.4382 C   0  0  0  0  0  0  0  0  0  0  0  0
  -26.2438  -12.0068   -4.0149 N   0  0  0  0  0  0  0  0  0  0  0  0
  -25.0829  -11.6768   -4.6137 N   0  0  0  0  0  0  0  0  0  0  0  0
  -23.9164  -12.4519   -4.2188 C   0  0  0  0  0  0  0  0  0  0  0  0
  -25.2068  -10.4931   -5.3503 C   0  0  0  0  0  0  0  0  0  0  0  0
  -26.5765  -10.2039   -5.4337 C   0  0  0  0  0  0  0  0  0  0  0  0
  -28.9017  -10.0475   -7.6287 C   0  0  0  0  0  0  0  0  0  0  0  0
  -28.7749  -11.2647   -7.6035 O   0  0  0  0  0  0  0  0  0  0  0  0
  -30.0217   -9.4502   -8.2228 N   0  0  0  0  0  0  0  0  0  0  0  0
  -30.1772   -8.0371   -7.9828 C   0  0  0  0  0  0  0  0  0  0  0  0
  -30.8107  -10.0444   -8.4412 H   0  0  0  0  0  0  0  0  0  0  0  0
  -26.4219   -1.4300   -9.6774 N   0  0  0  0  0  0  0  0  0  0  0  0
  -27.1959   -2.5109   -9.2882 C   0  0  0  0  0  0  0  0  0  0  0  0
  -27.3625   -3.5338   -9.9478 O   0  0  0  0  0  0  0  0  0  0  0  0
  -27.8163   -2.3034   -8.0551 N   0  0  0  0  0  0  0  0  0  0  0  0
  -26.2716   -0.7030   -8.9928 H   0  0  0  0  0  0  0  0  0  0  0  0
  -28.1451   -1.3577   -7.9294 H   0  0  0  0  0  0  0  0  0  0  0  0
  -24.3303   -0.9901  -13.3489 C   0  0  0  0  0  0  0  0  0  0  0  0
  -25.7181   -1.0324  -13.3398 C   0  0  0  0  0  0  0  0  0  0  0  0
  -26.4135   -1.1866  -12.1391 C   0  0  0  0  0  0  0  0  0  0  0  0
  -25.7457   -1.3025  -10.9168 C   0  0  0  0  0  0  0  0  0  0  0  0
  -24.3477   -1.2740  -10.9283 C   0  0  0  0  0  0  0  0  0  0  0  0
  -23.6473   -1.1156  -12.1367 C   0  0  0  0  0  0  0  0  0  0  0  0
  -22.3755   -0.0518  -14.3015 C   0  0  0  0  0  0  0  0  0  0  0  0
  -23.5581   -0.8324  -14.4673 O   0  0  0  0  0  0  0  0  0  0  0  0
  -31.7735   -6.0926   -4.4814 C   0  0  0  0  0  0  0  0  0  0  0  0
  -31.9683   -4.9995   -3.3076 C   0  0  0  0  0  0  0  0  0  0  0  0
  -32.3552   -5.5695   -1.9448 C   0  0  0  0  0  0  0  0  0  0  0  0
  -30.6836   -4.1543   -3.0602 C   0  0  0  0  0  0  0  0  0  0  0  0
 39 40  1  0  0  0
 40 33  1  0  0  0
 33 34  1  0  0  0
 33 38  2  0  0  0
 34 35  2  0  0  0
 35 36  1  0  0  0
 36 27  1  0  0  0
 36 37  2  0  0  0
 27 28  1  0  0  0
 27 31  1  0  0  0
 28 29  2  0  0  0
 28 30  1  0  0  0
 30  1  1  0  0  0
 30 32  1  0  0  0
  1  2  1  0  0  0
  1  6  2  0  0  0
  2  3  2  0  0  0
  3  4  1  0  0  0
  4  5  2  0  0  0
  4 13  1  0  0  0
  5  6  1  0  0  0
  5  7  1  0  0  0
  7  8  1  0  0  0
  7 12  2  0  0  0
  8  9  2  0  0  0
  8 25  1  0  0  0
  9 10  1  0  0  0
  9 22  1  0  0  0
 10 11  2  0  0  0
 10 21  1  0  0  0
 11 12  1  0  0  0
 11 14  1  0  0  0
 12 13  1  0  0  0
 13 41  1  0  0  0
 41 42  1  0  0  0
 42 43  1  0  0  0
 42 44  1  0  0  0
 14 15  1  0  0  0
 15 16  1  0  0  0
 16 17  2  0  0  0
 16 21  1  0  0  0
 17 18  1  0  0  0
 18 19  1  0  0  0
 18 20  1  0  0  0
 20 21  2  0  0  0
 22 23  2  0  0  0
 22 24  1  0  0  0
 24 25  1  0  0  0
 24 26  1  0  0  0
 37 38  1  0  0  0
M  END
> <minimizedAffinity>
-8.66116

$$$$
