CHEMBL445062


 27 30  0  0  0  0  0  0  0  0999 V2000
  -22.3238    0.5592  -14.1032 C   0  0  0  0  0  0  0  0  0  0  0  0
  -21.1253   -0.1852  -14.5961 C   0  0  0  0  0  0  0  0  0  0  0  0
  -20.0040    0.3386  -14.9942 N   0  0  0  0  0  0  0  0  0  0  0  0
  -19.9293    1.7090  -14.9501 C   0  0  0  0  0  0  0  0  0  0  0  0
  -18.9269    2.6056  -15.2718 C   0  0  0  0  0  0  0  0  0  0  0  0
  -19.4768    3.8721  -14.9981 C   0  0  0  0  0  0  0  0  0  0  0  0
  -20.7275    3.8137  -14.5419 N   0  0  0  0  0  0  0  0  0  0  0  0
  -21.0081    2.4880  -14.5066 N   0  0  0  0  0  0  0  0  0  0  0  0
  -22.1923    1.8943  -14.0891 C   0  0  0  0  0  0  0  0  0  0  0  0
  -25.8580   -1.4367  -12.8016 C   0  0  0  0  0  0  0  0  0  0  0  0
  -25.4298   -1.5629  -14.1230 C   0  0  0  0  0  0  0  0  0  0  0  0
  -24.2714   -0.9069  -14.5510 C   0  0  0  0  0  0  0  0  0  0  0  0
  -23.5317   -0.1254  -13.6579 C   0  0  0  0  0  0  0  0  0  0  0  0
  -23.9675    0.0075  -12.3357 C   0  0  0  0  0  0  0  0  0  0  0  0
  -25.1301   -0.6414  -11.9150 C   0  0  0  0  0  0  0  0  0  0  0  0
  -26.9962   -1.9929  -12.2873 O   0  0  0  0  0  0  0  0  0  0  0  0
  -27.6131   -1.2734  -11.2142 C   0  0  0  0  0  0  0  0  0  0  0  0
  -27.5305   -2.1515   -9.9690 C   0  0  0  0  0  0  0  0  0  0  0  0
  -27.6235   -1.3482   -8.6691 C   0  0  0  0  0  0  0  0  0  0  0  0
  -27.8490   -1.3803   -6.2438 C   0  0  0  0  0  0  0  0  0  0  0  0
  -27.5638   -2.1672   -7.4464 N   0  0  0  0  0  0  0  0  0  0  0  0
  -28.5121   -3.2808   -7.5413 C   0  0  0  0  0  0  0  0  0  0  0  0
  -17.5770    2.3418  -15.7828 C   0  0  0  0  0  0  0  0  0  0  0  0
  -16.7627    3.3370  -16.4097 C   0  0  0  0  0  0  0  0  0  0  0  0
  -15.5374    2.8422  -16.8033 C   0  0  0  0  0  0  0  0  0  0  0  0
  -15.3617    1.1858  -16.4231 S   0  0  0  0  0  0  0  0  0  0  0  0
  -16.9253    1.1264  -15.7296 C   0  0  0  0  0  0  0  0  0  0  0  0
 20 21  1  0  0  0
 21 22  1  0  0  0
 21 19  1  0  0  0
 19 18  1  0  0  0
 18 17  1  0  0  0
 17 16  1  0  0  0
 16 10  1  0  0  0
 10 11  1  0  0  0
 10 15  2  0  0  0
 11 12  2  0  0  0
 12 13  1  0  0  0
 13  1  1  0  0  0
 13 14  2  0  0  0
  1  2  1  0  0  0
  1  9  2  0  0  0
  2  3  2  0  0  0
  3  4  1  0  0  0
  4  5  2  0  0  0
  4  8  1  0  0  0
  5 23  1  0  0  0
  5  6  1  0  0  0
 23 24  1  0  0  0
 23 27  2  0  0  0
 24 25  2  0  0  0
 25 26  1  0  0  0
 26 27  1  0  0  0
  6  7  2  0  0  0
  7  8  1  0  0  0
  8  9  1  0  0  0
 14 15  1  0  0  0
M  END
> <minimizedAffinity>
-8.87715

$$$$
