CHEMBL503016


 51 57  0  0  0  0  0  0  0  0999 V2000
  -16.6667    2.9934  -15.8876 C   0  0  0  0  0  0  0  0  0  0  0  0
  -16.0693    4.2405  -15.8974 C   0  0  0  0  0  0  0  0  0  0  0  0
  -14.7495    4.2209  -16.4288 C   0  0  0  0  0  0  0  0  0  0  0  0
  -13.9321    5.3018  -16.5433 N   0  0  0  0  0  0  0  0  0  0  0  0
  -12.7353    5.0640  -17.1111 C   0  0  0  0  0  0  0  0  0  0  0  0
  -12.2953    3.8330  -17.5623 C   0  0  0  0  0  0  0  0  0  0  0  0
  -13.1122    2.7171  -17.3811 C   0  0  0  0  0  0  0  0  0  0  0  0
  -14.3762    2.9440  -16.8304 C   0  0  0  0  0  0  0  0  0  0  0  0
  -15.6251    1.8117  -16.5539 S   0  0  0  0  0  0  0  0  0  0  0  0
  -20.5619    1.8446  -14.5162 C   0  0  0  0  0  0  0  0  0  0  0  0
  -19.5719    0.8858  -14.7764 C   0  0  0  0  0  0  0  0  0  0  0  0
  -18.3058    1.2655  -15.2140 C   0  0  0  0  0  0  0  0  0  0  0  0
  -18.0121    2.6117  -15.4478 C   0  0  0  0  0  0  0  0  0  0  0  0
  -19.0217    3.5647  -15.2356 C   0  0  0  0  0  0  0  0  0  0  0  0
  -20.2742    3.1893  -14.7546 C   0  0  0  0  0  0  0  0  0  0  0  0
  -21.9134    1.4328  -13.9810 C   0  0  0  0  0  0  0  0  0  0  0  0
  -27.9471   -2.4014  -13.2514 C   0  0  0  0  0  0  0  0  0  0  0  0
  -26.7096   -1.7384  -13.5808 N   0  0  0  0  0  0  0  0  0  0  0  0
  -26.0692   -0.9824  -12.6330 C   0  0  0  0  0  0  0  0  0  0  0  0
  -26.5353   -0.8108  -11.5120 O   0  0  0  0  0  0  0  0  0  0  0  0
  -24.8497   -0.4715  -13.0236 N   0  0  0  0  0  0  0  0  0  0  0  0
  -24.3477   -0.4161  -14.3955 C   0  0  0  0  0  0  0  0  0  0  0  0
  -22.8616   -0.8109  -14.4295 C   0  0  0  0  0  0  0  0  0  0  0  0
  -22.0025    0.0223  -13.5569 N   0  0  0  0  0  0  0  0  0  0  0  0
  -22.5480   -0.0552  -12.1756 C   0  0  0  0  0  0  0  0  0  0  0  0
  -24.0515    0.2880  -12.0556 C   0  0  0  0  0  0  0  0  0  0  0  0
  -26.1050   -2.2509  -14.1971 H   0  0  0  0  0  0  0  0  0  0  0  0
  -12.7928    1.4343  -17.7610 O   0  0  0  0  0  0  0  0  0  0  0  0
  -12.7143    0.4513  -16.8107 C   0  0  0  0  0  0  0  0  0  0  0  0
  -13.3069   -0.8006  -16.9431 C   0  0  0  0  0  0  0  0  0  0  0  0
  -13.3166   -1.6758  -15.8624 C   0  0  0  0  0  0  0  0  0  0  0  0
  -12.6837   -1.3386  -14.6638 C   0  0  0  0  0  0  0  0  0  0  0  0
  -11.9644   -0.1436  -14.5862 C   0  0  0  0  0  0  0  0  0  0  0  0
  -11.9832    0.7402  -15.6607 C   0  0  0  0  0  0  0  0  0  0  0  0
  -11.3087    1.8956  -15.5625 F   0  0  0  0  0  0  0  0  0  0  0  0
  -12.7518   -2.1416  -13.5142 N   0  0  0  0  0  0  0  0  0  0  0  0
  -13.8902   -2.5782  -12.8745 C   0  0  0  0  0  0  0  0  0  0  0  0
  -15.0468   -2.3309  -13.2105 O   0  0  0  0  0  0  0  0  0  0  0  0
  -13.6464   -3.3679  -11.7686 N   0  0  0  0  0  0  0  0  0  0  0  0
  -14.7446   -3.9980  -11.0787 C   0  0  0  0  0  0  0  0  0  0  0  0
  -14.0546   -4.8565  -10.0453 C   0  0  0  0  0  0  0  0  0  0  0  0
  -12.8368   -4.1241   -9.7882 N   0  0  0  0  0  0  0  0  0  0  0  0
  -12.5295   -3.3086  -10.9012 C   0  0  0  0  0  0  0  0  0  0  0  0
  -11.4933   -2.7059  -11.1418 O   0  0  0  0  0  0  0  0  0  0  0  0
  -11.8757   -2.3561  -13.0410 H   0  0  0  0  0  0  0  0  0  0  0  0
  -12.0789   -4.2692   -8.6096 C   0  0  0  0  0  0  0  0  0  0  0  0
  -11.9344   -3.2055   -7.7127 C   0  0  0  0  0  0  0  0  0  0  0  0
  -11.2591   -3.3794   -6.5019 C   0  0  0  0  0  0  0  0  0  0  0  0
  -10.6974   -4.6132   -6.1855 C   0  0  0  0  0  0  0  0  0  0  0  0
  -10.8141   -5.6756   -7.0765 C   0  0  0  0  0  0  0  0  0  0  0  0
  -11.5094   -5.5073   -8.2768 C   0  0  0  0  0  0  0  0  0  0  0  0
 17 18  1  0  0  0
 18 19  1  0  0  0
 18 27  1  0  0  0
 19 20  2  0  0  0
 19 21  1  0  0  0
 21 22  1  0  0  0
 21 26  1  0  0  0
 22 23  1  0  0  0
 23 24  1  0  0  0
 24 16  1  0  0  0
 24 25  1  0  0  0
 16 10  1  0  0  0
 10 11  1  0  0  0
 10 15  2  0  0  0
 11 12  2  0  0  0
 12 13  1  0  0  0
 13  1  1  0  0  0
 13 14  2  0  0  0
  1  2  2  0  0  0
  1  9  1  0  0  0
  2  3  1  0  0  0
  3  4  1  0  0  0
  3  8  2  0  0  0
  4  5  2  0  0  0
  5  6  1  0  0  0
  6  7  2  0  0  0
  7 28  1  0  0  0
  7  8  1  0  0  0
 28 29  1  0  0  0
 29 30  1  0  0  0
 29 34  2  0  0  0
 30 31  2  0  0  0
 31 32  1  0  0  0
 32 36  1  0  0  0
 32 33  2  0  0  0
 36 37  1  0  0  0
 36 45  1  0  0  0
 37 38  2  0  0  0
 37 39  1  0  0  0
 39 40  1  0  0  0
 39 43  1  0  0  0
 40 41  1  0  0  0
 41 42  1  0  0  0
 42 46  1  0  0  0
 42 43  1  0  0  0
 46 47  1  0  0  0
 46 51  2  0  0  0
 47 48  2  0  0  0
 48 49  1  0  0  0
 49 50  2  0  0  0
 50 51  1  0  0  0
 43 44  2  0  0  0
 33 34  1  0  0  0
 34 35  1  0  0  0
  8  9  1  0  0  0
 14 15  1  0  0  0
 25 26  1  0  0  0
M  END
> <minimizedAffinity>
-10.79877

$$$$
