CHEMBL241313


 33 35  0  0  0  0  0  0  0  0999 V2000
  -14.7736   -0.3764  -13.4293 C   0  0  0  0  0  0  0  0  0  0  0  0
  -14.9666    0.4634  -12.5527 O   0  0  0  0  0  0  0  0  0  0  0  0
  -15.4260   -0.3311  -14.6494 N   0  0  0  0  0  0  0  0  0  0  0  0
  -15.4692   -1.2072  -15.1601 H   0  0  0  0  0  0  0  0  0  0  0  0
  -11.7500   -0.3717  -14.0709 C   0  0  0  0  0  0  0  0  0  0  0  0
  -12.5317   -1.4718  -13.5428 N   0  0  0  0  0  0  0  0  0  0  0  0
  -11.8785   -2.6182  -13.2654 N   0  0  0  0  0  0  0  0  0  0  0  0
  -12.8252   -3.4109  -12.7792 C   0  0  0  0  0  0  0  0  0  0  0  0
  -14.0881   -2.7714  -12.7280 C   0  0  0  0  0  0  0  0  0  0  0  0
  -13.8783   -1.4937  -13.2154 C   0  0  0  0  0  0  0  0  0  0  0  0
  -15.2102   -3.3826  -12.2648 N   0  0  0  0  0  0  0  0  0  0  0  0
  -16.0797   -2.8514  -12.2738 H   0  0  0  0  0  0  0  0  0  0  0  0
  -15.2241   -4.4041  -11.2310 C   0  0  0  0  0  0  0  0  0  0  0  0
  -14.9967   -5.7734  -11.8319 C   0  0  0  0  0  0  0  0  0  0  0  0
  -15.7098   -6.2249  -12.9535 C   0  0  0  0  0  0  0  0  0  0  0  0
  -15.4167   -7.4700  -13.4900 C   0  0  0  0  0  0  0  0  0  0  0  0
  -14.4842   -8.2912  -12.9818 N   0  0  0  0  0  0  0  0  0  0  0  0
  -13.8096   -7.8584  -11.8967 C   0  0  0  0  0  0  0  0  0  0  0  0
  -14.0284   -6.6258  -11.2956 C   0  0  0  0  0  0  0  0  0  0  0  0
  -16.3163    0.6996  -15.0121 C   0  0  0  0  0  0  0  0  0  0  0  0
  -17.7010    0.5628  -14.8553 C   0  0  0  0  0  0  0  0  0  0  0  0
  -18.5753    1.5940  -15.2492 C   0  0  0  0  0  0  0  0  0  0  0  0
  -18.0365    2.7517  -15.8337 C   0  0  0  0  0  0  0  0  0  0  0  0
  -16.6464    2.9188  -15.9521 C   0  0  0  0  0  0  0  0  0  0  0  0
  -15.7944    1.8913  -15.5094 C   0  0  0  0  0  0  0  0  0  0  0  0
  -20.0683    1.4832  -15.0397 C   0  0  0  0  0  0  0  0  0  0  0  0
  -20.7826    2.4652  -15.6556 F   0  0  0  0  0  0  0  0  0  0  0  0
  -20.5660    0.3095  -15.5210 F   0  0  0  0  0  0  0  0  0  0  0  0
  -20.4204    1.5251  -13.7258 F   0  0  0  0  0  0  0  0  0  0  0  0
  -16.0592    4.1791  -16.5414 C   0  0  0  0  0  0  0  0  0  0  0  0
  -16.0245    4.1777  -17.9026 F   0  0  0  0  0  0  0  0  0  0  0  0
  -16.7614    5.2891  -16.1857 F   0  0  0  0  0  0  0  0  0  0  0  0
  -14.7790    4.3994  -16.1347 F   0  0  0  0  0  0  0  0  0  0  0  0
  5  6  1  0  0  0
  6  7  1  0  0  0
  6 10  1  0  0  0
  7  8  2  0  0  0
  8  9  1  0  0  0
  9 11  1  0  0  0
  9 10  2  0  0  0
 11 13  1  0  0  0
 11 12  1  0  0  0
 13 14  1  0  0  0
 14 15  1  0  0  0
 14 19  2  0  0  0
 15 16  2  0  0  0
 16 17  1  0  0  0
 17 18  2  0  0  0
 18 19  1  0  0  0
 10  1  1  0  0  0
  1  2  2  0  0  0
  1  3  1  0  0  0
  3 20  1  0  0  0
  3  4  1  0  0  0
 20 21  1  0  0  0
 20 25  2  0  0  0
 21 22  2  0  0  0
 22 26  1  0  0  0
 22 23  1  0  0  0
 26 27  1  0  0  0
 26 28  1  0  0  0
 26 29  1  0  0  0
 23 24  2  0  0  0
 24 30  1  0  0  0
 24 25  1  0  0  0
 30 31  1  0  0  0
 30 32  1  0  0  0
 30 33  1  0  0  0
M  END
> <minimizedAffinity>
-8.92721

$$$$
