CHEMBL3810135


 33 37  0  0  0  0  0  0  0  0999 V2000
  -27.5071   -1.8085  -10.2568 N   0  0  0  0  0  0  0  0  0  0  0  0
  -26.1754   -1.9232  -10.5826 C   0  0  0  0  0  0  0  0  0  0  0  0
  -25.1971   -2.0956   -9.8716 O   0  0  0  0  0  0  0  0  0  0  0  0
  -25.9869   -1.6717  -11.9620 N   0  0  0  0  0  0  0  0  0  0  0  0
  -26.9750   -1.9403  -12.8697 N   0  0  0  0  0  0  0  0  0  0  0  0
  -26.3927   -1.6853  -14.0505 C   0  0  0  0  0  0  0  0  0  0  0  0
  -25.1365   -1.0581  -13.9146 C   0  0  0  0  0  0  0  0  0  0  0  0
  -24.2080   -0.4523  -14.7854 C   0  0  0  0  0  0  0  0  0  0  0  0
  -23.0965    0.2041  -14.2343 C   0  0  0  0  0  0  0  0  0  0  0  0
  -22.8439    0.1252  -12.8611 C   0  0  0  0  0  0  0  0  0  0  0  0
  -23.7290   -0.5144  -11.9935 C   0  0  0  0  0  0  0  0  0  0  0  0
  -24.8808   -1.0779  -12.5530 C   0  0  0  0  0  0  0  0  0  0  0  0
  -28.1537   -1.5331  -10.9889 H   0  0  0  0  0  0  0  0  0  0  0  0
  -28.5259   -1.3478   -6.8814 C   0  0  0  0  0  0  0  0  0  0  0  0
  -27.9110   -0.8414   -8.0131 C   0  0  0  0  0  0  0  0  0  0  0  0
  -27.9593   -1.8963   -8.9559 C   0  0  0  0  0  0  0  0  0  0  0  0
  -28.5130   -2.9800   -8.4072 N   0  0  0  0  0  0  0  0  0  0  0  0
  -28.8739   -2.6379   -7.1260 O   0  0  0  0  0  0  0  0  0  0  0  0
  -27.6005   -0.2063   -4.9029 C   0  0  0  0  0  0  0  0  0  0  0  0
  -28.8834   -0.7609   -5.5475 C   0  0  0  0  0  0  0  0  0  0  0  0
  -29.4893   -1.8486   -4.6463 C   0  0  0  0  0  0  0  0  0  0  0  0
  -29.9014    0.3894   -5.6743 C   0  0  0  0  0  0  0  0  0  0  0  0
  -22.3070    0.9021  -15.1338 O   0  0  0  0  0  0  0  0  0  0  0  0
  -20.9352    0.7918  -14.9723 C   0  0  0  0  0  0  0  0  0  0  0  0
  -20.3216   -0.3601  -15.3260 N   0  0  0  0  0  0  0  0  0  0  0  0
  -18.9790   -0.3042  -15.4362 C   0  0  0  0  0  0  0  0  0  0  0  0
  -18.2075    0.7811  -15.2520 N   0  0  0  0  0  0  0  0  0  0  0  0
  -18.8852    1.8649  -14.8532 C   0  0  0  0  0  0  0  0  0  0  0  0
  -20.2414    1.9131  -14.6416 C   0  0  0  0  0  0  0  0  0  0  0  0
  -20.6446    3.2819  -14.2591 C   0  0  0  0  0  0  0  0  0  0  0  0
  -19.5896    4.1410  -14.8591 N   0  0  0  0  0  0  0  0  0  0  0  0
  -18.3632    3.2804  -14.8151 C   0  0  0  0  0  0  0  0  0  0  0  0
  -19.8370    4.2325  -15.8487 H   0  0  0  0  0  0  0  0  0  0  0  0
 19 20  1  0  0  0
 20 21  1  0  0  0
 20 22  1  0  0  0
 20 14  1  0  0  0
 14 15  2  0  0  0
 14 18  1  0  0  0
 15 16  1  0  0  0
 16  1  1  0  0  0
 16 17  2  0  0  0
  1  2  1  0  0  0
  1 13  1  0  0  0
  2  3  2  0  0  0
  2  4  1  0  0  0
  4  5  1  0  0  0
  4 12  1  0  0  0
  5  6  2  0  0  0
  6  7  1  0  0  0
  7  8  1  0  0  0
  7 12  2  0  0  0
  8  9  2  0  0  0
  9 23  1  0  0  0
  9 10  1  0  0  0
 23 24  1  0  0  0
 24 25  1  0  0  0
 24 29  2  0  0  0
 25 26  2  0  0  0
 26 27  1  0  0  0
 27 28  2  0  0  0
 28 29  1  0  0  0
 28 32  1  0  0  0
 29 30  1  0  0  0
 30 31  1  0  0  0
 31 32  1  0  0  0
 31 33  1  0  0  0
 10 11  2  0  0  0
 11 12  1  0  0  0
 17 18  1  0  0  0
M  END
> <minimizedAffinity>
-9.02700

$$$$
