CHEMBL3702661


 34 37  0  0  0  0  0  0  0  0999 V2000
  -29.4631   -4.9209   -4.4921 C   0  0  0  0  0  0  0  0  0  0  0  0
  -29.0315   -4.1832   -5.7367 C   0  0  0  0  0  0  0  0  0  0  0  0
  -28.5576   -2.8601   -5.5879 C   0  0  0  0  0  0  0  0  0  0  0  0
  -28.0863   -2.1239   -6.6791 C   0  0  0  0  0  0  0  0  0  0  0  0
  -28.1022   -2.7044   -7.9417 C   0  0  0  0  0  0  0  0  0  0  0  0
  -28.5871   -4.0137   -8.0961 C   0  0  0  0  0  0  0  0  0  0  0  0
  -29.0426   -4.7857   -7.0160 C   0  0  0  0  0  0  0  0  0  0  0  0
  -29.4341   -6.1175   -7.1959 N   0  0  0  0  0  0  0  0  0  0  0  0
  -28.5683   -6.9962   -8.0095 C   0  0  0  0  0  0  0  0  0  0  0  0
  -28.7658   -8.4339   -7.5326 C   0  0  0  0  0  0  0  0  0  0  0  0
  -30.2253   -8.7799   -7.3862 C   0  0  0  0  0  0  0  0  0  0  0  0
  -30.5268  -10.0910   -7.2500 N   0  0  0  0  0  0  0  0  0  0  0  0
  -31.8156  -10.4029   -7.0878 C   0  0  0  0  0  0  0  0  0  0  0  0
  -32.1378  -11.7356   -6.9431 N   0  0  0  0  0  0  0  0  0  0  0  0
  -32.8139   -9.5192   -7.0131 N   0  0  0  0  0  0  0  0  0  0  0  0
  -32.4779   -8.2230   -7.1475 C   0  0  0  0  0  0  0  0  0  0  0  0
  -31.1864   -7.7829   -7.3309 C   0  0  0  0  0  0  0  0  0  0  0  0
  -30.8571   -6.3302   -7.5086 C   0  0  0  0  0  0  0  0  0  0  0  0
  -31.3408  -12.2376   -6.5787 H   0  0  0  0  0  0  0  0  0  0  0  0
  -33.0093  -11.8147   -6.4388 H   0  0  0  0  0  0  0  0  0  0  0  0
  -27.6978   -1.9958   -9.1835 C   0  0  0  0  0  0  0  0  0  0  0  0
  -28.2367   -0.9095   -9.3941 O   0  0  0  0  0  0  0  0  0  0  0  0
  -26.8123   -2.6400  -10.0366 N   0  0  0  0  0  0  0  0  0  0  0  0
  -26.5975   -3.6102   -9.8458 H   0  0  0  0  0  0  0  0  0  0  0  0
  -26.3890   -2.1217  -11.2845 C   0  0  0  0  0  0  0  0  0  0  0  0
  -27.1870   -2.1634  -12.4361 C   0  0  0  0  0  0  0  0  0  0  0  0
  -26.7141   -1.7058  -13.6657 C   0  0  0  0  0  0  0  0  0  0  0  0
  -25.4268   -1.1946  -13.7660 C   0  0  0  0  0  0  0  0  0  0  0  0
  -24.6080   -1.1205  -12.6301 C   0  0  0  0  0  0  0  0  0  0  0  0
  -25.1082   -1.5633  -11.3856 C   0  0  0  0  0  0  0  0  0  0  0  0
  -23.1954   -0.6023  -12.7503 C   0  0  0  0  0  0  0  0  0  0  0  0
  -22.4063   -0.9078  -11.6820 F   0  0  0  0  0  0  0  0  0  0  0  0
  -22.5483   -1.0937  -13.8429 F   0  0  0  0  0  0  0  0  0  0  0  0
  -23.1496    0.7541  -12.8671 F   0  0  0  0  0  0  0  0  0  0  0  0
  1  2  1  0  0  0
  2  3  1  0  0  0
  2  7  2  0  0  0
  3  4  2  0  0  0
  4  5  1  0  0  0
  5 21  1  0  0  0
  5  6  2  0  0  0
 21 22  2  0  0  0
 21 23  1  0  0  0
 23 25  1  0  0  0
 23 24  1  0  0  0
 25 26  1  0  0  0
 25 30  2  0  0  0
 26 27  2  0  0  0
 27 28  1  0  0  0
 28 29  2  0  0  0
 29 31  1  0  0  0
 29 30  1  0  0  0
 31 32  1  0  0  0
 31 33  1  0  0  0
 31 34  1  0  0  0
  6  7  1  0  0  0
  7  8  1  0  0  0
  8  9  1  0  0  0
  8 18  1  0  0  0
  9 10  1  0  0  0
 10 11  1  0  0  0
 11 12  1  0  0  0
 11 17  2  0  0  0
 12 13  2  0  0  0
 13 14  1  0  0  0
 13 15  1  0  0  0
 14 19  1  0  0  0
 14 20  1  0  0  0
 15 16  2  0  0  0
 16 17  1  0  0  0
 17 18  1  0  0  0
M  END
> <minimizedAffinity>
-11.04543

$$$$
