CHEMBL362030


 24 27  0  0  0  0  0  0  0  0999 V2000
  -27.5162   -1.9903   -9.0417 C   0  0  0  0  0  0  0  0  0  0  0  0
  -28.3454   -2.9381   -8.4709 C   0  0  0  0  0  0  0  0  0  0  0  0
  -28.5414   -2.5523   -7.1174 C   0  0  0  0  0  0  0  0  0  0  0  0
  -29.2403   -3.0201   -6.0009 C   0  0  0  0  0  0  0  0  0  0  0  0
  -29.1839   -2.3037   -4.8621 N   0  0  0  0  0  0  0  0  0  0  0  0
  -28.4428   -1.1797   -4.8353 C   0  0  0  0  0  0  0  0  0  0  0  0
  -27.7182   -0.6520   -5.8266 N   0  0  0  0  0  0  0  0  0  0  0  0
  -27.8132   -1.3853   -6.9429 C   0  0  0  0  0  0  0  0  0  0  0  0
  -27.1825   -1.0550   -8.1024 O   0  0  0  0  0  0  0  0  0  0  0  0
  -25.9250   -1.5463  -12.9974 C   0  0  0  0  0  0  0  0  0  0  0  0
  -25.1069   -1.3741  -11.8833 C   0  0  0  0  0  0  0  0  0  0  0  0
  -25.6411   -1.4827  -10.5926 C   0  0  0  0  0  0  0  0  0  0  0  0
  -26.9981   -1.7743  -10.3904 C   0  0  0  0  0  0  0  0  0  0  0  0
  -27.8184   -1.9027  -11.5184 C   0  0  0  0  0  0  0  0  0  0  0  0
  -27.2847   -1.7941  -12.8074 C   0  0  0  0  0  0  0  0  0  0  0  0
  -24.3375   -0.7731  -14.5854 C   0  0  0  0  0  0  0  0  0  0  0  0
  -25.5241   -1.5034  -14.3032 O   0  0  0  0  0  0  0  0  0  0  0  0
  -29.9635   -4.2151   -6.0939 N   0  0  0  0  0  0  0  0  0  0  0  0
  -29.4579   -5.4728   -5.8672 C   0  0  0  0  0  0  0  0  0  0  0  0
  -28.3207   -5.7803   -5.5474 O   0  0  0  0  0  0  0  0  0  0  0  0
  -30.9241   -4.1414   -6.3883 H   0  0  0  0  0  0  0  0  0  0  0  0
  -30.4854   -6.5437   -6.0858 C   0  0  0  0  0  0  0  0  0  0  0  0
  -30.0649   -7.9747   -6.3247 C   0  0  0  0  0  0  0  0  0  0  0  0
  -30.6409   -7.1678   -7.4535 C   0  0  0  0  0  0  0  0  0  0  0  0
 16 17  1  0  0  0
 17 10  1  0  0  0
 10 11  1  0  0  0
 10 15  2  0  0  0
 11 12  2  0  0  0
 12 13  1  0  0  0
 13  1  1  0  0  0
 13 14  2  0  0  0
  1  2  2  0  0  0
  1  9  1  0  0  0
  2  3  1  0  0  0
  3  4  1  0  0  0
  3  8  2  0  0  0
  4 18  1  0  0  0
  4  5  2  0  0  0
 18 19  1  0  0  0
 18 21  1  0  0  0
 19 20  2  0  0  0
 19 22  1  0  0  0
 22 23  1  0  0  0
 22 24  1  0  0  0
 23 24  1  0  0  0
  5  6  1  0  0  0
  6  7  2  0  0  0
  7  8  1  0  0  0
  8  9  1  0  0  0
 14 15  1  0  0  0
M  END
> <minimizedAffinity>
-8.27748

$$$$
