CHEMBL478442


 25 27  0  0  0  0  0  0  0  0999 V2000
  -29.2437  -10.2748   -9.5060 C   0  0  0  0  0  0  0  0  0  0  0  0
  -30.6189  -10.1934   -9.2233 C   0  0  0  0  0  0  0  0  0  0  0  0
  -31.1303   -9.3739   -8.2291 C   0  0  0  0  0  0  0  0  0  0  0  0
  -32.4564   -9.2749   -8.1042 N   0  0  0  0  0  0  0  0  0  0  0  0
  -32.9044   -8.4248   -7.1775 C   0  0  0  0  0  0  0  0  0  0  0  0
  -32.1508   -7.6845   -6.3641 N   0  0  0  0  0  0  0  0  0  0  0  0
  -30.8156   -7.8013   -6.4806 C   0  0  0  0  0  0  0  0  0  0  0  0
  -30.2369   -8.6629   -7.4267 C   0  0  0  0  0  0  0  0  0  0  0  0
  -28.8490   -8.8383   -7.6178 C   0  0  0  0  0  0  0  0  0  0  0  0
  -28.3429   -9.6158   -8.6626 C   0  0  0  0  0  0  0  0  0  0  0  0
  -28.8635  -10.3479  -11.8417 C   0  0  0  0  0  0  0  0  0  0  0  0
  -28.7840  -10.9972  -10.5734 O   0  0  0  0  0  0  0  0  0  0  0  0
  -29.9632   -7.0273   -5.6447 N   0  0  0  0  0  0  0  0  0  0  0  0
  -29.0258   -7.4118   -5.6707 H   0  0  0  0  0  0  0  0  0  0  0  0
  -29.9250   -5.6192   -5.5224 C   0  0  0  0  0  0  0  0  0  0  0  0
  -29.8740   -4.7677   -6.6296 C   0  0  0  0  0  0  0  0  0  0  0  0
  -29.8040   -3.3807   -6.4694 C   0  0  0  0  0  0  0  0  0  0  0  0
  -29.8278   -2.8039   -5.1944 C   0  0  0  0  0  0  0  0  0  0  0  0
  -29.6875   -1.3166   -5.0673 C   0  0  0  0  0  0  0  0  0  0  0  0
  -29.9838   -3.6490   -4.0937 C   0  0  0  0  0  0  0  0  0  0  0  0
  -30.0737   -3.1856   -2.8111 O   0  0  0  0  0  0  0  0  0  0  0  0
  -30.0439   -5.0363   -4.2520 C   0  0  0  0  0  0  0  0  0  0  0  0
  -30.0409   -2.2167   -2.8210 H   0  0  0  0  0  0  0  0  0  0  0  0
  -26.9788   -9.5657   -8.6988 O   0  0  0  0  0  0  0  0  0  0  0  0
  -26.2092  -10.5880   -8.0911 C   0  0  0  0  0  0  0  0  0  0  0  0
 11 12  1  0  0  0
 12  1  1  0  0  0
  1  2  1  0  0  0
  1 10  2  0  0  0
  2  3  2  0  0  0
  3  4  1  0  0  0
  3  8  1  0  0  0
  4  5  2  0  0  0
  5  6  1  0  0  0
  6  7  2  0  0  0
  7 13  1  0  0  0
  7  8  1  0  0  0
 13 15  1  0  0  0
 13 14  1  0  0  0
 15 16  1  0  0  0
 15 22  2  0  0  0
 16 17  2  0  0  0
 17 18  1  0  0  0
 18 19  1  0  0  0
 18 20  2  0  0  0
 20 21  1  0  0  0
 20 22  1  0  0  0
 21 23  1  0  0  0
  8  9  2  0  0  0
  9 10  1  0  0  0
 10 24  1  0  0  0
 24 25  1  0  0  0
M  END
> <minimizedAffinity>
-7.26618

$$$$
