CHEMBL198701


 37 40  0  0  0  0  0  0  0  0999 V2000
  -27.2842   -9.5954   -5.7174 C   0  0  0  0  0  0  0  0  0  0  0  0
  -26.6447  -10.0862   -4.6346 N   0  0  0  0  0  0  0  0  0  0  0  0
  -27.1151   -9.7321   -3.4404 C   0  0  0  0  0  0  0  0  0  0  0  0
  -28.1357   -8.9050   -3.2207 N   0  0  0  0  0  0  0  0  0  0  0  0
  -28.7537   -8.4169   -4.2965 C   0  0  0  0  0  0  0  0  0  0  0  0
  -29.8016   -7.5516   -4.0636 C   0  0  0  0  0  0  0  0  0  0  0  0
  -30.5514   -7.0138   -5.1013 C   0  0  0  0  0  0  0  0  0  0  0  0
  -30.2357   -7.3263   -6.4148 C   0  0  0  0  0  0  0  0  0  0  0  0
  -29.1534   -8.1604   -6.6916 C   0  0  0  0  0  0  0  0  0  0  0  0
  -28.3962   -8.7293   -5.6181 C   0  0  0  0  0  0  0  0  0  0  0  0
  -26.8021   -9.9699   -6.9922 N   0  0  0  0  0  0  0  0  0  0  0  0
  -26.8238   -9.1602   -7.6041 H   0  0  0  0  0  0  0  0  0  0  0  0
  -23.3459  -10.8179   -6.8833 C   0  0  0  0  0  0  0  0  0  0  0  0
  -23.2273  -11.9693   -7.6442 C   0  0  0  0  0  0  0  0  0  0  0  0
  -24.3652  -12.4659   -8.2684 C   0  0  0  0  0  0  0  0  0  0  0  0
  -25.5836  -11.8131   -8.0913 C   0  0  0  0  0  0  0  0  0  0  0  0
  -26.9301  -12.3774   -9.0191 Cl  0  0  0  0  0  0  0  0  0  0  0  0
  -25.6300  -10.6849   -7.2555 C   0  0  0  0  0  0  0  0  0  0  0  0
  -24.5130  -10.1684   -6.6837 N   0  0  0  0  0  0  0  0  0  0  0  0
  -21.0850  -10.3437   -7.2252 C   0  0  0  0  0  0  0  0  0  0  0  0
  -22.1836  -10.3403   -6.3193 O   0  0  0  0  0  0  0  0  0  0  0  0
  -31.5467   -6.1742   -4.7044 O   0  0  0  0  0  0  0  0  0  0  0  0
  -31.2841   -5.3434   -3.5755 C   0  0  0  0  0  0  0  0  0  0  0  0
  -30.8873   -3.9707   -4.1171 C   0  0  0  0  0  0  0  0  0  0  0  0
  -29.4426   -3.7102   -4.0269 N   0  0  0  0  0  0  0  0  0  0  0  0
  -29.1280   -2.2870   -3.7687 C   0  0  0  0  0  0  0  0  0  0  0  0
  -29.4662   -1.3469   -4.9373 C   0  0  0  0  0  0  0  0  0  0  0  0
  -28.8303   -1.8040   -6.1778 N   0  0  0  0  0  0  0  0  0  0  0  0
  -28.2123   -0.8665   -6.9806 C   0  0  0  0  0  0  0  0  0  0  0  0
  -27.5266   -1.3017   -8.2491 C   0  0  0  0  0  0  0  0  0  0  0  0
  -28.1671    0.3274   -6.6688 O   0  0  0  0  0  0  0  0  0  0  0  0
  -29.0580   -3.2212   -6.4905 C   0  0  0  0  0  0  0  0  0  0  0  0
  -28.7671   -4.1257   -5.2748 C   0  0  0  0  0  0  0  0  0  0  0  0
  -28.7750   -8.4745   -7.9756 O   0  0  0  0  0  0  0  0  0  0  0  0
  -29.7026   -9.1484   -8.8382 C   0  0  0  0  0  0  0  0  0  0  0  0
  -29.0032   -9.6179  -10.1134 C   0  0  0  0  0  0  0  0  0  0  0  0
  -30.2297  -10.3622   -8.0727 C   0  0  0  0  0  0  0  0  0  0  0  0
 20 21  1  0  0  0
 21 13  1  0  0  0
 13 14  1  0  0  0
 13 19  2  0  0  0
 14 15  2  0  0  0
 15 16  1  0  0  0
 16 17  1  0  0  0
 16 18  2  0  0  0
 18 11  1  0  0  0
 18 19  1  0  0  0
 11  1  1  0  0  0
 11 12  1  0  0  0
  1  2  1  0  0  0
  1 10  2  0  0  0
  2  3  2  0  0  0
  3  4  1  0  0  0
  4  5  2  0  0  0
  5  6  1  0  0  0
  5 10  1  0  0  0
  6  7  2  0  0  0
  7 22  1  0  0  0
  7  8  1  0  0  0
 22 23  1  0  0  0
 23 24  1  0  0  0
 24 25  1  0  0  0
 25 26  1  0  0  0
 25 33  1  0  0  0
 26 27  1  0  0  0
 27 28  1  0  0  0
 28 29  1  0  0  0
 28 32  1  0  0  0
 29 30  1  0  0  0
 29 31  2  0  0  0
 32 33  1  0  0  0
  8  9  2  0  0  0
  9 34  1  0  0  0
  9 10  1  0  0  0
 34 35  1  0  0  0
 35 36  1  0  0  0
 35 37  1  0  0  0
M  END
> <minimizedAffinity>
-7.89842

$$$$
