CHEMBL3952023


 35 39  0  0  0  0  0  0  0  0999 V2000
  -13.3503   -1.8367  -14.3081 C   0  0  0  0  0  0  0  0  0  0  0  0
  -13.0594   -2.7781  -13.3251 C   0  0  0  0  0  0  0  0  0  0  0  0
  -13.8504   -2.8758  -12.1621 C   0  0  0  0  0  0  0  0  0  0  0  0
  -13.5590   -3.7006  -11.0721 C   0  0  0  0  0  0  0  0  0  0  0  0
  -14.3628   -3.7797   -9.9931 N   0  0  0  0  0  0  0  0  0  0  0  0
  -15.4625   -3.0240  -10.0015 C   0  0  0  0  0  0  0  0  0  0  0  0
  -15.8344   -2.1966  -10.9787 N   0  0  0  0  0  0  0  0  0  0  0  0
  -15.0184   -2.1349  -12.0387 C   0  0  0  0  0  0  0  0  0  0  0  0
  -15.3551   -1.2723  -13.0627 C   0  0  0  0  0  0  0  0  0  0  0  0
  -14.5198   -1.0745  -14.1740 C   0  0  0  0  0  0  0  0  0  0  0  0
  -12.7050   -2.4369  -16.5349 C   0  0  0  0  0  0  0  0  0  0  0  0
  -12.5436   -1.6014  -15.3885 O   0  0  0  0  0  0  0  0  0  0  0  0
  -12.3520   -4.4536  -11.0820 N   0  0  0  0  0  0  0  0  0  0  0  0
  -11.7650   -4.1612  -10.3069 H   0  0  0  0  0  0  0  0  0  0  0  0
  -12.3117   -5.8371  -11.3312 C   0  0  0  0  0  0  0  0  0  0  0  0
  -11.3110   -6.6223  -10.7489 C   0  0  0  0  0  0  0  0  0  0  0  0
  -11.2007   -7.9788  -11.0476 C   0  0  0  0  0  0  0  0  0  0  0  0
  -12.1019   -8.5704  -11.9282 C   0  0  0  0  0  0  0  0  0  0  0  0
  -11.8804  -10.2402  -12.2964 Cl  0  0  0  0  0  0  0  0  0  0  0  0
  -13.1314   -7.8017  -12.4862 C   0  0  0  0  0  0  0  0  0  0  0  0
  -14.2910   -8.4698  -13.5799 Cl  0  0  0  0  0  0  0  0  0  0  0  0
  -13.2424   -6.4414  -12.1804 C   0  0  0  0  0  0  0  0  0  0  0  0
  -14.7954   -0.1448  -15.1511 O   0  0  0  0  0  0  0  0  0  0  0  0
  -14.7109    1.2148  -14.7131 C   0  0  0  0  0  0  0  0  0  0  0  0
  -15.9632    1.9054  -15.0574 C   0  0  0  0  0  0  0  0  0  0  0  0
  -17.1796    1.4262  -14.9976 N   0  0  0  0  0  0  0  0  0  0  0  0
  -17.9230    2.4612  -15.5001 C   0  0  0  0  0  0  0  0  0  0  0  0
  -17.2136    3.5362  -15.8766 N   0  0  0  0  0  0  0  0  0  0  0  0
  -15.8930    3.1609  -15.5839 O   0  0  0  0  0  0  0  0  0  0  0  0
  -19.4092    2.3840  -15.5590 C   0  0  0  0  0  0  0  0  0  0  0  0
  -20.0620    3.4534  -14.6940 C   0  0  0  0  0  0  0  0  0  0  0  0
  -21.4253    2.8704  -14.3898 C   0  0  0  0  0  0  0  0  0  0  0  0
  -21.2176    1.3639  -14.4081 C   0  0  0  0  0  0  0  0  0  0  0  0
  -19.8865    1.1262  -14.9541 N   0  0  0  0  0  0  0  0  0  0  0  0
  -19.8752    0.3713  -15.6355 H   0  0  0  0  0  0  0  0  0  0  0  0
 11 12  1  0  0  0
 12  1  1  0  0  0
  1  2  1  0  0  0
  1 10  2  0  0  0
  2  3  2  0  0  0
  3  4  1  0  0  0
  3  8  1  0  0  0
  4 13  1  0  0  0
  4  5  2  0  0  0
 13 15  1  0  0  0
 13 14  1  0  0  0
 15 16  1  0  0  0
 15 22  2  0  0  0
 16 17  2  0  0  0
 17 18  1  0  0  0
 18 19  1  0  0  0
 18 20  2  0  0  0
 20 21  1  0  0  0
 20 22  1  0  0  0
  5  6  1  0  0  0
  6  7  2  0  0  0
  7  8  1  0  0  0
  8  9  2  0  0  0
  9 10  1  0  0  0
 10 23  1  0  0  0
 23 24  1  0  0  0
 24 25  1  0  0  0
 25 26  2  0  0  0
 25 29  1  0  0  0
 26 27  1  0  0  0
 27 30  1  0  0  0
 27 28  2  0  0  0
 30 31  1  0  0  0
 30 34  1  0  0  0
 31 32  1  0  0  0
 32 33  1  0  0  0
 33 34  1  0  0  0
 34 35  1  0  0  0
 28 29  1  0  0  0
M  END
> <minimizedAffinity>
-7.81199

$$$$
