CHEMBL2403368


 32 36  0  0  0  0  0  0  0  0999 V2000
  -19.8079    1.9920  -15.1989 C   0  0  0  0  0  0  0  0  0  0  0  0
  -20.1344    0.6500  -15.1418 C   0  0  0  0  0  0  0  0  0  0  0  0
  -21.3644    0.5339  -14.4414 C   0  0  0  0  0  0  0  0  0  0  0  0
  -21.7076    1.8016  -14.0502 C   0  0  0  0  0  0  0  0  0  0  0  0
  -20.7722    2.6870  -14.5092 N   0  0  0  0  0  0  0  0  0  0  0  0
  -22.9345    2.1696  -13.3348 C   0  0  0  0  0  0  0  0  0  0  0  0
  -23.7331    0.9264  -12.9104 C   0  0  0  0  0  0  0  0  0  0  0  0
  -23.4646   -0.3926  -13.5102 N   0  0  0  0  0  0  0  0  0  0  0  0
  -24.1742   -1.5563  -13.1433 C   0  0  0  0  0  0  0  0  0  0  0  0
  -23.8583   -2.6490  -13.6190 O   0  0  0  0  0  0  0  0  0  0  0  0
  -22.1781   -0.6791  -14.1744 C   0  0  0  0  0  0  0  0  0  0  0  0
  -20.8207    3.6926  -14.4202 H   0  0  0  0  0  0  0  0  0  0  0  0
  -14.8868    4.7773  -17.1618 C   0  0  0  0  0  0  0  0  0  0  0  0
  -13.7644    4.1360  -16.5974 C   0  0  0  0  0  0  0  0  0  0  0  0
  -13.9035    3.0227  -15.7688 C   0  0  0  0  0  0  0  0  0  0  0  0
  -15.1846    2.5756  -15.5325 C   0  0  0  0  0  0  0  0  0  0  0  0
  -16.3139    3.1876  -16.0863 C   0  0  0  0  0  0  0  0  0  0  0  0
  -16.1799    4.3005  -16.9036 C   0  0  0  0  0  0  0  0  0  0  0  0
  -17.4697    2.4257  -15.5868 C   0  0  0  0  0  0  0  0  0  0  0  0
  -18.7613    2.6979  -15.8311 C   0  0  0  0  0  0  0  0  0  0  0  0
  -16.9183    1.3098  -14.7248 C   0  0  0  0  0  0  0  0  0  0  0  0
  -17.5061    0.4065  -14.1638 O   0  0  0  0  0  0  0  0  0  0  0  0
  -15.5458    1.4936  -14.7414 N   0  0  0  0  0  0  0  0  0  0  0  0
  -14.9153    0.8860  -14.2419 H   0  0  0  0  0  0  0  0  0  0  0  0
  -14.7302    5.7163  -19.3447 C   0  0  0  0  0  0  0  0  0  0  0  0
  -14.5693    5.8582  -17.9400 O   0  0  0  0  0  0  0  0  0  0  0  0
  -25.2147   -1.5032  -12.1193 C   0  0  0  0  0  0  0  0  0  0  0  0
  -25.2106   -1.2866  -10.7222 C   0  0  0  0  0  0  0  0  0  0  0  0
  -26.4210   -1.3896  -10.1703 N   0  0  0  0  0  0  0  0  0  0  0  0
  -27.2781   -1.6158  -11.2264 O   0  0  0  0  0  0  0  0  0  0  0  0
  -26.5671   -1.6543  -12.3839 C   0  0  0  0  0  0  0  0  0  0  0  0
  -27.3593   -1.8599  -13.6131 C   0  0  0  0  0  0  0  0  0  0  0  0
 25 26  1  0  0  0
 26 13  1  0  0  0
 13 14  1  0  0  0
 13 18  2  0  0  0
 14 15  2  0  0  0
 15 16  1  0  0  0
 16 17  2  0  0  0
 16 23  1  0  0  0
 17 18  1  0  0  0
 17 19  1  0  0  0
 19 20  2  0  0  0
 19 21  1  0  0  0
 20  1  1  0  0  0
  1  2  2  0  0  0
  1  5  1  0  0  0
  2  3  1  0  0  0
  3  4  2  0  0  0
  3 11  1  0  0  0
  4  5  1  0  0  0
  4  6  1  0  0  0
  5 12  1  0  0  0
  6  7  1  0  0  0
  7  8  1  0  0  0
  8  9  1  0  0  0
  8 11  1  0  0  0
  9 10  2  0  0  0
  9 27  1  0  0  0
 27 28  1  0  0  0
 27 31  2  0  0  0
 28 29  2  0  0  0
 29 30  1  0  0  0
 30 31  1  0  0  0
 31 32  1  0  0  0
 21 22  2  0  0  0
 21 23  1  0  0  0
 23 24  1  0  0  0
M  END
> <minimizedAffinity>
-9.34238

$$$$
