CHEMBL1085564


 42 47  0  0  0  0  0  0  0  0999 V2000
  -28.1827  -10.3359   -4.9078 C   0  0  0  0  0  0  0  0  0  0  0  0
  -29.3815  -10.7776   -5.5043 C   0  0  0  0  0  0  0  0  0  0  0  0
  -30.2025   -9.7837   -5.8442 N   0  0  0  0  0  0  0  0  0  0  0  0
  -29.5435   -8.6561   -5.4417 N   0  0  0  0  0  0  0  0  0  0  0  0
  -29.9967   -7.3156   -5.5818 C   0  0  0  0  0  0  0  0  0  0  0  0
  -31.2678   -7.1314   -6.1270 N   0  0  0  0  0  0  0  0  0  0  0  0
  -29.1655   -6.3224   -5.1965 C   0  0  0  0  0  0  0  0  0  0  0  0
  -27.8622   -6.7564   -4.6076 C   0  0  0  0  0  0  0  0  0  0  0  0
  -27.4420   -7.9734   -4.4592 N   0  0  0  0  0  0  0  0  0  0  0  0
  -28.2917   -8.9564   -4.8909 C   0  0  0  0  0  0  0  0  0  0  0  0
  -31.5821   -7.9647   -6.6314 H   0  0  0  0  0  0  0  0  0  0  0  0
  -31.3841   -6.2648   -6.6428 H   0  0  0  0  0  0  0  0  0  0  0  0
  -24.7350  -11.8812   -4.6574 C   0  0  0  0  0  0  0  0  0  0  0  0
  -24.8392  -12.4625   -3.3869 C   0  0  0  0  0  0  0  0  0  0  0  0
  -26.0110  -12.3704   -2.6287 C   0  0  0  0  0  0  0  0  0  0  0  0
  -27.1146  -11.6831   -3.1279 C   0  0  0  0  0  0  0  0  0  0  0  0
  -27.0572  -11.1011   -4.3960 C   0  0  0  0  0  0  0  0  0  0  0  0
  -25.8720  -11.2175   -5.1419 C   0  0  0  0  0  0  0  0  0  0  0  0
  -20.3174  -10.2403   -7.5853 C   0  0  0  0  0  0  0  0  0  0  0  0
  -21.1931  -11.2020   -6.9219 N   0  0  0  0  0  0  0  0  0  0  0  0
  -21.3100  -10.8894   -5.4791 C   0  0  0  0  0  0  0  0  0  0  0  0
  -22.2448  -11.8682   -4.7287 C   0  0  0  0  0  0  0  0  0  0  0  0
  -23.5596  -11.8879   -5.3788 N   0  0  0  0  0  0  0  0  0  0  0  0
  -23.5234  -12.1609   -6.8254 C   0  0  0  0  0  0  0  0  0  0  0  0
  -22.5471  -11.1862   -7.5261 C   0  0  0  0  0  0  0  0  0  0  0  0
  -29.4638   -4.8936   -5.2967 C   0  0  0  0  0  0  0  0  0  0  0  0
  -29.9555   -4.1989   -4.1903 C   0  0  0  0  0  0  0  0  0  0  0  0
  -30.1688   -2.8193   -4.2616 C   0  0  0  0  0  0  0  0  0  0  0  0
  -29.8963   -2.1181   -5.4379 C   0  0  0  0  0  0  0  0  0  0  0  0
  -29.4314   -2.8226   -6.5550 C   0  0  0  0  0  0  0  0  0  0  0  0
  -29.2137   -4.2025   -6.4859 C   0  0  0  0  0  0  0  0  0  0  0  0
  -30.0805   -0.7327   -5.5770 N   0  0  0  0  0  0  0  0  0  0  0  0
  -29.1427    0.2577   -5.4273 C   0  0  0  0  0  0  0  0  0  0  0  0
  -27.9372    0.1320   -5.2645 O   0  0  0  0  0  0  0  0  0  0  0  0
  -31.0222   -0.3877   -5.6998 H   0  0  0  0  0  0  0  0  0  0  0  0
  -29.7976    1.4801   -5.4240 O   0  0  0  0  0  0  0  0  0  0  0  0
  -30.5758    1.6760   -6.5715 C   0  0  0  0  0  0  0  0  0  0  0  0
  -31.8583    2.1981   -6.4161 C   0  0  0  0  0  0  0  0  0  0  0  0
  -32.6115    2.5098   -7.5523 C   0  0  0  0  0  0  0  0  0  0  0  0
  -32.0705    2.3129   -8.8276 C   0  0  0  0  0  0  0  0  0  0  0  0
  -30.7839    1.7950   -8.9737 C   0  0  0  0  0  0  0  0  0  0  0  0
  -30.0294    1.4877   -7.8472 C   0  0  0  0  0  0  0  0  0  0  0  0
 19 20  1  0  0  0
 20 21  1  0  0  0
 20 25  1  0  0  0
 21 22  1  0  0  0
 22 23  1  0  0  0
 23 13  1  0  0  0
 23 24  1  0  0  0
 13 14  1  0  0  0
 13 18  2  0  0  0
 14 15  2  0  0  0
 15 16  1  0  0  0
 16 17  2  0  0  0
 17  1  1  0  0  0
 17 18  1  0  0  0
  1  2  1  0  0  0
  1 10  2  0  0  0
  2  3  2  0  0  0
  3  4  1  0  0  0
  4  5  1  0  0  0
  4 10  1  0  0  0
  5  6  1  0  0  0
  5  7  2  0  0  0
  6 11  1  0  0  0
  6 12  1  0  0  0
  7 26  1  0  0  0
  7  8  1  0  0  0
 26 27  1  0  0  0
 26 31  2  0  0  0
 27 28  2  0  0  0
 28 29  1  0  0  0
 29 32  1  0  0  0
 29 30  2  0  0  0
 32 33  1  0  0  0
 32 35  1  0  0  0
 33 34  2  0  0  0
 33 36  1  0  0  0
 36 37  1  0  0  0
 37 38  1  0  0  0
 37 42  2  0  0  0
 38 39  2  0  0  0
 39 40  1  0  0  0
 40 41  2  0  0  0
 41 42  1  0  0  0
 30 31  1  0  0  0
  8  9  2  0  0  0
  9 10  1  0  0  0
 24 25  1  0  0  0
M  END
> <minimizedAffinity>
-5.68463

$$$$
