CHEMBL352308


 40 43  0  0  0  0  0  0  0  0999 V2000
  -27.3915  -11.1072   -5.7188 C   0  0  0  0  0  0  0  0  0  0  0  0
  -28.2685  -10.5956   -6.6844 C   0  0  0  0  0  0  0  0  0  0  0  0
  -27.9053  -10.4947   -8.0400 C   0  0  0  0  0  0  0  0  0  0  0  0
  -28.6959   -9.8621   -9.0332 C   0  0  0  0  0  0  0  0  0  0  0  0
  -28.1965   -9.7670  -10.3265 C   0  0  0  0  0  0  0  0  0  0  0  0
  -27.0192  -10.4084  -10.6342 C   0  0  0  0  0  0  0  0  0  0  0  0
  -26.2532  -11.0315   -9.7192 N   0  0  0  0  0  0  0  0  0  0  0  0
  -26.6681  -11.0402   -8.4477 C   0  0  0  0  0  0  0  0  0  0  0  0
  -25.8507  -11.6493   -7.5004 C   0  0  0  0  0  0  0  0  0  0  0  0
  -26.1966  -11.7093   -6.1489 C   0  0  0  0  0  0  0  0  0  0  0  0
  -27.0992   -9.9430   -3.6405 C   0  0  0  0  0  0  0  0  0  0  0  0
  -27.6601  -11.0327   -4.3773 O   0  0  0  0  0  0  0  0  0  0  0  0
  -29.9416   -9.3287   -8.6897 O   0  0  0  0  0  0  0  0  0  0  0  0
  -29.9488   -8.2210   -7.8587 C   0  0  0  0  0  0  0  0  0  0  0  0
  -28.9783   -7.2286   -7.9596 C   0  0  0  0  0  0  0  0  0  0  0  0
  -28.8246   -6.2742   -6.9543 C   0  0  0  0  0  0  0  0  0  0  0  0
  -29.7178   -6.2182   -5.8704 C   0  0  0  0  0  0  0  0  0  0  0  0
  -30.7917   -7.1083   -5.8723 C   0  0  0  0  0  0  0  0  0  0  0  0
  -30.9082   -8.1181   -6.8467 C   0  0  0  0  0  0  0  0  0  0  0  0
  -29.5780   -5.2686   -4.8376 N   0  0  0  0  0  0  0  0  0  0  0  0
  -29.4136   -5.6522   -3.9140 H   0  0  0  0  0  0  0  0  0  0  0  0
  -29.4837   -3.8670   -4.9202 C   0  0  0  0  0  0  0  0  0  0  0  0
  -30.4143   -3.1384   -5.6557 C   0  0  0  0  0  0  0  0  0  0  0  0
  -30.2748   -1.7647   -5.8512 C   0  0  0  0  0  0  0  0  0  0  0  0
  -29.1874   -1.0557   -5.3224 C   0  0  0  0  0  0  0  0  0  0  0  0
  -28.2667   -1.7860   -4.5486 C   0  0  0  0  0  0  0  0  0  0  0  0
  -28.4125   -3.1731   -4.3551 C   0  0  0  0  0  0  0  0  0  0  0  0
  -29.0046    0.4494   -5.5825 C   0  0  0  0  0  0  0  0  0  0  0  0
  -28.1193    1.1278   -4.5093 C   0  0  0  0  0  0  0  0  0  0  0  0
  -28.3424    0.6731   -6.9574 C   0  0  0  0  0  0  0  0  0  0  0  0
  -30.3644    1.1794   -5.5722 C   0  0  0  0  0  0  0  0  0  0  0  0
  -25.2703  -12.3906   -5.3928 O   0  0  0  0  0  0  0  0  0  0  0  0
  -23.9095  -11.9911   -5.5669 C   0  0  0  0  0  0  0  0  0  0  0  0
  -23.5612  -10.7169   -4.7682 C   0  0  0  0  0  0  0  0  0  0  0  0
  -22.9997   -9.6501   -5.6098 N   0  0  0  0  0  0  0  0  0  0  0  0
  -22.2011   -9.2535   -5.1190 H   0  0  0  0  0  0  0  0  0  0  0  0
  -22.5659  -10.1749   -6.9142 C   0  0  0  0  0  0  0  0  0  0  0  0
  -21.0403  -10.3290   -6.9564 C   0  0  0  0  0  0  0  0  0  0  0  0
  -20.4234   -9.0860   -7.2849 O   0  0  0  0  0  0  0  0  0  0  0  0
  -20.7154   -8.8780   -8.1886 H   0  0  0  0  0  0  0  0  0  0  0  0
 11 12  1  0  0  0
 12  1  1  0  0  0
  1  2  1  0  0  0
  1 10  2  0  0  0
  2  3  2  0  0  0
  3  4  1  0  0  0
  3  8  1  0  0  0
  4 13  1  0  0  0
  4  5  2  0  0  0
 13 14  1  0  0  0
 14 15  1  0  0  0
 14 19  2  0  0  0
 15 16  2  0  0  0
 16 17  1  0  0  0
 17 20  1  0  0  0
 17 18  2  0  0  0
 20 22  1  0  0  0
 20 21  1  0  0  0
 22 23  1  0  0  0
 22 27  2  0  0  0
 23 24  2  0  0  0
 24 25  1  0  0  0
 25 28  1  0  0  0
 25 26  2  0  0  0
 28 29  1  0  0  0
 28 30  1  0  0  0
 28 31  1  0  0  0
 26 27  1  0  0  0
 18 19  1  0  0  0
  5  6  1  0  0  0
  6  7  2  0  0  0
  7  8  1  0  0  0
  8  9  2  0  0  0
  9 10  1  0  0  0
 10 32  1  0  0  0
 32 33  1  0  0  0
 33 34  1  0  0  0
 34 35  1  0  0  0
 35 37  1  0  0  0
 35 36  1  0  0  0
 37 38  1  0  0  0
 38 39  1  0  0  0
 39 40  1  0  0  0
M  END
> <minimizedAffinity>
-8.51925

$$$$
