CHEMBL418301


 29 33  0  0  0  0  0  0  0  0999 V2000
  -23.2455    2.4425  -13.4939 O   0  0  0  0  0  0  0  0  0  0  0  0
  -22.1265    2.1930  -13.8977 C   0  0  0  0  0  0  0  0  0  0  0  0
  -21.1837    3.1235  -14.2954 N   0  0  0  0  0  0  0  0  0  0  0  0
  -20.0226    2.5124  -14.7500 C   0  0  0  0  0  0  0  0  0  0  0  0
  -18.8983    3.1546  -15.2279 C   0  0  0  0  0  0  0  0  0  0  0  0
  -17.8177    2.3816  -15.6907 C   0  0  0  0  0  0  0  0  0  0  0  0
  -17.9350    0.9671  -15.6107 C   0  0  0  0  0  0  0  0  0  0  0  0
  -19.0834    0.3312  -15.1024 C   0  0  0  0  0  0  0  0  0  0  0  0
  -20.1328    1.1226  -14.6796 C   0  0  0  0  0  0  0  0  0  0  0  0
  -21.4608    0.8522  -14.1120 C   0  0  0  0  0  0  0  0  0  0  0  0
  -21.9664   -0.3531  -13.8096 C   0  0  0  0  0  0  0  0  0  0  0  0
  -21.3626    4.1149  -14.2735 H   0  0  0  0  0  0  0  0  0  0  0  0
  -23.2111   -0.4957  -13.1585 C   0  0  0  0  0  0  0  0  0  0  0  0
  -23.2823   -0.3442  -11.7918 N   0  0  0  0  0  0  0  0  0  0  0  0
  -24.5699   -0.5682  -11.3654 C   0  0  0  0  0  0  0  0  0  0  0  0
  -25.3351   -0.8770  -12.4700 C   0  0  0  0  0  0  0  0  0  0  0  0
  -24.4764   -0.8178  -13.5987 C   0  0  0  0  0  0  0  0  0  0  0  0
  -25.0044   -1.1201  -14.9488 C   0  0  0  0  0  0  0  0  0  0  0  0
  -26.2527   -1.9997  -14.8001 C   0  0  0  0  0  0  0  0  0  0  0  0
  -27.2012   -1.5166  -13.8134 O   0  0  0  0  0  0  0  0  0  0  0  0
  -26.7500   -1.2090  -12.5484 C   0  0  0  0  0  0  0  0  0  0  0  0
  -27.5088   -1.1696  -11.5872 O   0  0  0  0  0  0  0  0  0  0  0  0
  -22.4995   -0.1420  -11.1839 H   0  0  0  0  0  0  0  0  0  0  0  0
  -16.6162    3.0339  -16.2683 C   0  0  0  0  0  0  0  0  0  0  0  0
  -16.4741    4.4321  -16.3096 C   0  0  0  0  0  0  0  0  0  0  0  0
  -15.3227    5.0331  -16.8332 C   0  0  0  0  0  0  0  0  0  0  0  0
  -14.2917    4.2487  -17.3414 C   0  0  0  0  0  0  0  0  0  0  0  0
  -14.4112    2.8644  -17.3284 C   0  0  0  0  0  0  0  0  0  0  0  0
  -15.5566    2.2674  -16.7934 C   0  0  0  0  0  0  0  0  0  0  0  0
  1  2  2  0  0  0
  2  3  1  0  0  0
  2 10  1  0  0  0
  3  4  1  0  0  0
  3 12  1  0  0  0
  4  5  1  0  0  0
  4  9  2  0  0  0
  5  6  2  0  0  0
  6 24  1  0  0  0
  6  7  1  0  0  0
 24 25  1  0  0  0
 24 29  2  0  0  0
 25 26  2  0  0  0
 26 27  1  0  0  0
 27 28  2  0  0  0
 28 29  1  0  0  0
  7  8  2  0  0  0
  8  9  1  0  0  0
  9 10  1  0  0  0
 10 11  2  0  0  0
 11 13  1  0  0  0
 13 14  1  0  0  0
 13 17  2  0  0  0
 14 15  1  0  0  0
 14 23  1  0  0  0
 15 16  2  0  0  0
 16 17  1  0  0  0
 16 21  1  0  0  0
 17 18  1  0  0  0
 18 19  1  0  0  0
 19 20  1  0  0  0
 20 21  1  0  0  0
 21 22  2  0  0  0
M  END
> <minimizedAffinity>
-10.09295

$$$$
