CHEMBL261720


 34 36  0  0  0  0  0  0  0  0999 V2000
  -13.1710    2.0059  -16.3186 N   0  0  0  0  0  0  0  0  0  0  0  0
  -14.4266    1.8569  -15.8673 C   0  0  0  0  0  0  0  0  0  0  0  0
  -15.4141    2.6615  -16.1543 N   0  0  0  0  0  0  0  0  0  0  0  0
  -16.4878    2.1297  -15.5052 C   0  0  0  0  0  0  0  0  0  0  0  0
  -16.2511    0.9679  -14.8933 N   0  0  0  0  0  0  0  0  0  0  0  0
  -14.8994    0.8122  -15.0754 N   0  0  0  0  0  0  0  0  0  0  0  0
  -12.9717    2.7716  -16.9554 H   0  0  0  0  0  0  0  0  0  0  0  0
  -12.4396    1.3089  -16.2148 H   0  0  0  0  0  0  0  0  0  0  0  0
  -17.6454    2.8173  -15.4693 N   0  0  0  0  0  0  0  0  0  0  0  0
  -17.5957    3.8150  -15.6232 H   0  0  0  0  0  0  0  0  0  0  0  0
  -18.9226    2.3502  -15.1004 C   0  0  0  0  0  0  0  0  0  0  0  0
  -19.8632    3.1971  -14.4933 C   0  0  0  0  0  0  0  0  0  0  0  0
  -21.1132    2.7247  -14.0916 C   0  0  0  0  0  0  0  0  0  0  0  0
  -21.4248    1.3785  -14.2697 C   0  0  0  0  0  0  0  0  0  0  0  0
  -20.4929    0.5046  -14.8361 C   0  0  0  0  0  0  0  0  0  0  0  0
  -19.2498    0.9954  -15.2576 C   0  0  0  0  0  0  0  0  0  0  0  0
  -22.9840    0.7705  -13.7021 S   0  0  0  0  0  0  0  0  0  0  0  0
  -22.5240   -0.2478  -12.4481 N   0  0  0  0  0  0  0  0  0  0  0  0
  -23.7185    1.8486  -13.0822 O   0  0  0  0  0  0  0  0  0  0  0  0
  -23.5684   -0.0799  -14.7082 O   0  0  0  0  0  0  0  0  0  0  0  0
  -22.9085    0.0957  -11.5677 H   0  0  0  0  0  0  0  0  0  0  0  0
  -22.7920   -1.2073  -12.6682 H   0  0  0  0  0  0  0  0  0  0  0  0
  -14.2178   -0.2569  -14.4382 C   0  0  0  0  0  0  0  0  0  0  0  0
  -12.6042   -0.2586  -13.9502 S   0  0  0  0  0  0  0  0  0  0  0  0
  -15.0593   -1.3727  -14.4038 N   0  0  0  0  0  0  0  0  0  0  0  0
  -15.5230   -1.6208  -15.2778 H   0  0  0  0  0  0  0  0  0  0  0  0
  -15.2998   -2.2483  -13.3167 C   0  0  0  0  0  0  0  0  0  0  0  0
  -15.7094   -1.8001  -12.0574 C   0  0  0  0  0  0  0  0  0  0  0  0
  -15.9474   -0.4984  -11.8391 F   0  0  0  0  0  0  0  0  0  0  0  0
  -16.0066   -2.6961  -11.0293 C   0  0  0  0  0  0  0  0  0  0  0  0
  -15.8936   -4.0683  -11.2466 C   0  0  0  0  0  0  0  0  0  0  0  0
  -15.5117   -4.5360  -12.5038 C   0  0  0  0  0  0  0  0  0  0  0  0
  -15.2417   -3.6282  -13.5299 C   0  0  0  0  0  0  0  0  0  0  0  0
  -14.8878   -4.1033  -14.7344 F   0  0  0  0  0  0  0  0  0  0  0  0
  1  2  1  0  0  0
  1  7  1  0  0  0
  1  8  1  0  0  0
  2  3  2  0  0  0
  2  6  1  0  0  0
  3  4  1  0  0  0
  4  9  1  0  0  0
  4  5  2  0  0  0
  9 11  1  0  0  0
  9 10  1  0  0  0
 11 12  1  0  0  0
 11 16  2  0  0  0
 12 13  2  0  0  0
 13 14  1  0  0  0
 14 17  1  0  0  0
 14 15  2  0  0  0
 17 18  1  0  0  0
 17 19  2  0  0  0
 17 20  2  0  0  0
 18 21  1  0  0  0
 18 22  1  0  0  0
 15 16  1  0  0  0
  5  6  1  0  0  0
  6 23  1  0  0  0
 23 24  2  0  0  0
 23 25  1  0  0  0
 25 27  1  0  0  0
 25 26  1  0  0  0
 27 28  1  0  0  0
 27 33  2  0  0  0
 28 29  1  0  0  0
 28 30  2  0  0  0
 30 31  1  0  0  0
 31 32  2  0  0  0
 32 33  1  0  0  0
 33 34  1  0  0  0
M  END
> <minimizedAffinity>
-8.28794

$$$$
