CHEMBL496763


 33 37  0  0  0  0  0  0  0  0999 V2000
  -18.4001    2.3976  -15.6069 C   0  0  0  0  0  0  0  0  0  0  0  0
  -19.1681    3.5334  -15.2879 C   0  0  0  0  0  0  0  0  0  0  0  0
  -20.4530    3.4654  -14.7382 C   0  0  0  0  0  0  0  0  0  0  0  0
  -20.9426    2.1885  -14.4983 C   0  0  0  0  0  0  0  0  0  0  0  0
  -22.1364    1.7441  -14.0021 N   0  0  0  0  0  0  0  0  0  0  0  0
  -22.0973    0.3736  -13.9274 C   0  0  0  0  0  0  0  0  0  0  0  0
  -20.9342   -0.0791  -14.3774 N   0  0  0  0  0  0  0  0  0  0  0  0
  -20.2226    1.0338  -14.7582 C   0  0  0  0  0  0  0  0  0  0  0  0
  -18.9436    1.1322  -15.3281 C   0  0  0  0  0  0  0  0  0  0  0  0
  -22.9379    2.3161  -13.7630 H   0  0  0  0  0  0  0  0  0  0  0  0
  -23.2229   -0.3390  -13.4146 C   0  0  0  0  0  0  0  0  0  0  0  0
  -24.2484   -0.6590  -14.2408 C   0  0  0  0  0  0  0  0  0  0  0  0
  -24.2417   -0.4451  -15.6209 N   0  0  0  0  0  0  0  0  0  0  0  0
  -25.4792   -1.2598  -13.6584 C   0  0  0  0  0  0  0  0  0  0  0  0
  -26.6078   -1.5783  -14.4279 C   0  0  0  0  0  0  0  0  0  0  0  0
  -27.7652   -2.0526  -13.8172 C   0  0  0  0  0  0  0  0  0  0  0  0
  -28.8468   -2.3051  -14.5651 F   0  0  0  0  0  0  0  0  0  0  0  0
  -27.8252   -2.2520  -12.4432 C   0  0  0  0  0  0  0  0  0  0  0  0
  -26.7036   -1.9836  -11.6658 C   0  0  0  0  0  0  0  0  0  0  0  0
  -25.5458   -1.4848  -12.2731 C   0  0  0  0  0  0  0  0  0  0  0  0
  -24.4380   -1.2074  -11.4729 N   0  0  0  0  0  0  0  0  0  0  0  0
  -23.2715   -0.6886  -11.9536 C   0  0  0  0  0  0  0  0  0  0  0  0
  -22.3080   -0.5314  -11.2074 O   0  0  0  0  0  0  0  0  0  0  0  0
  -23.4640    0.1773  -15.8876 H   0  0  0  0  0  0  0  0  0  0  0  0
  -25.1090   -0.0529  -15.9731 H   0  0  0  0  0  0  0  0  0  0  0  0
  -24.4563   -1.4077  -10.4816 H   0  0  0  0  0  0  0  0  0  0  0  0
  -13.6355    2.8088  -18.4814 C   0  0  0  0  0  0  0  0  0  0  0  0
  -14.4862    2.8295  -17.2942 N   0  0  0  0  0  0  0  0  0  0  0  0
  -15.5231    3.8831  -17.4205 C   0  0  0  0  0  0  0  0  0  0  0  0
  -16.5123    3.9026  -16.2293 C   0  0  0  0  0  0  0  0  0  0  0  0
  -17.1220    2.5721  -16.1097 N   0  0  0  0  0  0  0  0  0  0  0  0
  -16.1315    1.4977  -15.9207 C   0  0  0  0  0  0  0  0  0  0  0  0
  -15.1406    1.5119  -17.1071 C   0  0  0  0  0  0  0  0  0  0  0  0
 27 28  1  0  0  0
 28 29  1  0  0  0
 28 33  1  0  0  0
 29 30  1  0  0  0
 30 31  1  0  0  0
 31  1  1  0  0  0
 31 32  1  0  0  0
  1  2  1  0  0  0
  1  9  2  0  0  0
  2  3  2  0  0  0
  3  4  1  0  0  0
  4  5  1  0  0  0
  4  8  2  0  0  0
  5  6  1  0  0  0
  5 10  1  0  0  0
  6 11  1  0  0  0
  6  7  2  0  0  0
 11 12  2  0  0  0
 11 22  1  0  0  0
 12 13  1  0  0  0
 12 14  1  0  0  0
 13 24  1  0  0  0
 13 25  1  0  0  0
 14 15  1  0  0  0
 14 20  2  0  0  0
 15 16  2  0  0  0
 16 17  1  0  0  0
 16 18  1  0  0  0
 18 19  2  0  0  0
 19 20  1  0  0  0
 20 21  1  0  0  0
 21 22  1  0  0  0
 21 26  1  0  0  0
 22 23  2  0  0  0
  7  8  1  0  0  0
  8  9  1  0  0  0
 32 33  1  0  0  0
M  END
> <minimizedAffinity>
-9.02537

$$$$
