CHEMBL196668


 33 36  0  0  0  0  0  0  0  0999 V2000
  -13.9362   -2.5491  -13.7849 C   0  0  0  0  0  0  0  0  0  0  0  0
  -12.9997   -2.9655  -14.6618 N   0  0  0  0  0  0  0  0  0  0  0  0
  -12.8766   -4.2797  -14.9997 N   0  0  0  0  0  0  0  0  0  0  0  0
  -13.6919   -5.2094  -14.4582 C   0  0  0  0  0  0  0  0  0  0  0  0
  -14.6384   -4.8555  -13.4673 C   0  0  0  0  0  0  0  0  0  0  0  0
  -15.4885   -5.7809  -12.8045 C   0  0  0  0  0  0  0  0  0  0  0  0
  -16.4547   -5.3786  -11.8837 C   0  0  0  0  0  0  0  0  0  0  0  0
  -16.5705   -4.0377  -11.5510 C   0  0  0  0  0  0  0  0  0  0  0  0
  -15.7259   -3.1055  -12.1543 C   0  0  0  0  0  0  0  0  0  0  0  0
  -14.7568   -3.4820  -13.1199 C   0  0  0  0  0  0  0  0  0  0  0  0
  -13.4973   -6.5550  -15.0550 C   0  0  0  0  0  0  0  0  0  0  0  0
  -13.6257   -6.7468  -16.4457 C   0  0  0  0  0  0  0  0  0  0  0  0
  -13.4985   -8.0152  -17.0273 C   0  0  0  0  0  0  0  0  0  0  0  0
  -13.2105   -9.1260  -16.2300 C   0  0  0  0  0  0  0  0  0  0  0  0
  -13.0972   -8.9658  -14.8480 C   0  0  0  0  0  0  0  0  0  0  0  0
  -13.2705   -7.7014  -14.2720 C   0  0  0  0  0  0  0  0  0  0  0  0
  -13.0973  -10.4590  -16.8744 C   0  0  0  0  0  0  0  0  0  0  0  0
  -14.2604  -11.0883  -17.2214 N   0  0  0  0  0  0  0  0  0  0  0  0
  -12.0114  -10.9925  -17.0657 O   0  0  0  0  0  0  0  0  0  0  0  0
  -15.1626  -10.8035  -16.8704 H   0  0  0  0  0  0  0  0  0  0  0  0
  -14.1690  -12.0290  -17.5831 H   0  0  0  0  0  0  0  0  0  0  0  0
  -14.1065   -1.1527  -13.5785 N   0  0  0  0  0  0  0  0  0  0  0  0
  -13.2977   -0.7656  -13.1099 H   0  0  0  0  0  0  0  0  0  0  0  0
  -16.6364    1.0698  -15.2562 C   0  0  0  0  0  0  0  0  0  0  0  0
  -15.8979    1.4425  -16.3918 C   0  0  0  0  0  0  0  0  0  0  0  0
  -14.6173    0.9435  -16.6159 C   0  0  0  0  0  0  0  0  0  0  0  0
  -14.0379    0.0823  -15.6947 C   0  0  0  0  0  0  0  0  0  0  0  0
  -14.7016   -0.2692  -14.5128 C   0  0  0  0  0  0  0  0  0  0  0  0
  -16.0140    0.1955  -14.3313 C   0  0  0  0  0  0  0  0  0  0  0  0
  -19.1593    0.5237  -15.3426 C   0  0  0  0  0  0  0  0  0  0  0  0
  -18.0716    1.5765  -15.0240 C   0  0  0  0  0  0  0  0  0  0  0  0
  -18.3579    2.8029  -15.9155 C   0  0  0  0  0  0  0  0  0  0  0  0
  -18.2387    1.9753  -13.5435 C   0  0  0  0  0  0  0  0  0  0  0  0
 30 31  1  0  0  0
 31 32  1  0  0  0
 31 33  1  0  0  0
 31 24  1  0  0  0
 24 25  1  0  0  0
 24 29  2  0  0  0
 25 26  2  0  0  0
 26 27  1  0  0  0
 27 28  2  0  0  0
 28 22  1  0  0  0
 28 29  1  0  0  0
 22  1  1  0  0  0
 22 23  1  0  0  0
  1  2  1  0  0  0
  1 10  2  0  0  0
  2  3  2  0  0  0
  3  4  1  0  0  0
  4 11  1  0  0  0
  4  5  2  0  0  0
 11 12  1  0  0  0
 11 16  2  0  0  0
 12 13  2  0  0  0
 13 14  1  0  0  0
 14 17  1  0  0  0
 14 15  2  0  0  0
 17 18  1  0  0  0
 17 19  2  0  0  0
 18 20  1  0  0  0
 18 21  1  0  0  0
 15 16  1  0  0  0
  5  6  1  0  0  0
  5 10  1  0  0  0
  6  7  2  0  0  0
  7  8  1  0  0  0
  8  9  2  0  0  0
  9 10  1  0  0  0
M  END
> <minimizedAffinity>
-8.30832

$$$$
