CHEMBL3671573


 41 44  0  0  0  0  0  0  0  0999 V2000
  -28.9253   -8.7094   -5.3308 C   0  0  0  0  0  0  0  0  0  0  0  0
  -28.3067   -9.9192   -5.6612 C   0  0  0  0  0  0  0  0  0  0  0  0
  -26.9544  -10.1559   -5.3469 C   0  0  0  0  0  0  0  0  0  0  0  0
  -26.2242  -11.2693   -5.7821 C   0  0  0  0  0  0  0  0  0  0  0  0
  -24.9329  -11.4369   -5.4442 N   0  0  0  0  0  0  0  0  0  0  0  0
  -24.3674  -10.4864   -4.7016 C   0  0  0  0  0  0  0  0  0  0  0  0
  -24.9557   -9.3631   -4.2840 N   0  0  0  0  0  0  0  0  0  0  0  0
  -26.2366   -9.1961   -4.6238 C   0  0  0  0  0  0  0  0  0  0  0  0
  -26.8758   -8.0107   -4.2699 C   0  0  0  0  0  0  0  0  0  0  0  0
  -28.2099   -7.7466   -4.6101 C   0  0  0  0  0  0  0  0  0  0  0  0
  -30.4148   -7.6605   -6.9526 C   0  0  0  0  0  0  0  0  0  0  0  0
  -29.5303   -7.2366   -7.6885 O   0  0  0  0  0  0  0  0  0  0  0  0
  -30.2104   -8.4698   -5.8559 N   0  0  0  0  0  0  0  0  0  0  0  0
  -30.9695   -9.0408   -5.5085 H   0  0  0  0  0  0  0  0  0  0  0  0
  -32.7430   -8.3711   -7.1228 C   0  0  0  0  0  0  0  0  0  0  0  0
  -31.8498   -7.3759   -7.2062 C   0  0  0  0  0  0  0  0  0  0  0  0
  -26.8147  -12.2042   -6.6723 N   0  0  0  0  0  0  0  0  0  0  0  0
  -26.3404  -13.1033   -6.6307 H   0  0  0  0  0  0  0  0  0  0  0  0
  -27.2448  -11.8702   -7.9761 C   0  0  0  0  0  0  0  0  0  0  0  0
  -28.5887  -12.0253   -8.3454 C   0  0  0  0  0  0  0  0  0  0  0  0
  -29.0502  -11.5617   -9.5784 C   0  0  0  0  0  0  0  0  0  0  0  0
  -28.1566  -10.9579  -10.4576 C   0  0  0  0  0  0  0  0  0  0  0  0
  -28.8098  -10.2173  -12.0722 Br  0  0  0  0  0  0  0  0  0  0  0  0
  -26.8029  -10.8748  -10.1572 C   0  0  0  0  0  0  0  0  0  0  0  0
  -26.3579  -11.3383   -8.9183 C   0  0  0  0  0  0  0  0  0  0  0  0
  -25.0549  -11.2318   -8.6135 F   0  0  0  0  0  0  0  0  0  0  0  0
  -28.6873   -6.5464   -4.1406 O   0  0  0  0  0  0  0  0  0  0  0  0
  -28.0895   -5.3813   -4.7121 C   0  0  0  0  0  0  0  0  0  0  0  0
  -29.1416   -4.4016   -5.2261 C   0  0  0  0  0  0  0  0  0  0  0  0
  -29.0365   -4.2492   -6.6704 N   0  0  0  0  0  0  0  0  0  0  0  0
  -28.5694   -3.0783   -7.2239 C   0  0  0  0  0  0  0  0  0  0  0  0
  -28.3186   -2.0794   -6.5552 O   0  0  0  0  0  0  0  0  0  0  0  0
  -29.0724   -5.0849   -7.2421 H   0  0  0  0  0  0  0  0  0  0  0  0
  -28.3572   -3.1119   -8.7207 C   0  0  0  0  0  0  0  0  0  0  0  0
  -27.4700   -1.9494   -9.1762 C   0  0  0  0  0  0  0  0  0  0  0  0
  -26.8626   -2.1412  -10.5091 N   0  0  0  0  0  0  0  0  0  0  0  0
  -27.7237   -1.6269  -11.5884 C   0  0  0  0  0  0  0  0  0  0  0  0
  -27.0952   -1.8459  -12.9651 C   0  0  0  0  0  0  0  0  0  0  0  0
  -25.7136   -1.2148  -13.0521 C   0  0  0  0  0  0  0  0  0  0  0  0
  -24.8433   -1.6922  -11.8971 C   0  0  0  0  0  0  0  0  0  0  0  0
  -25.5403   -1.4858  -10.5510 C   0  0  0  0  0  0  0  0  0  0  0  0
 15 16  2  0  0  0
 16 11  1  0  0  0
 11 12  2  0  0  0
 11 13  1  0  0  0
 13  1  1  0  0  0
 13 14  1  0  0  0
  1  2  1  0  0  0
  1 10  2  0  0  0
  2  3  2  0  0  0
  3  4  1  0  0  0
  3  8  1  0  0  0
  4 17  1  0  0  0
  4  5  2  0  0  0
 17 19  1  0  0  0
 17 18  1  0  0  0
 19 20  1  0  0  0
 19 25  2  0  0  0
 20 21  2  0  0  0
 21 22  1  0  0  0
 22 23  1  0  0  0
 22 24  2  0  0  0
 24 25  1  0  0  0
 25 26  1  0  0  0
  5  6  1  0  0  0
  6  7  2  0  0  0
  7  8  1  0  0  0
  8  9  2  0  0  0
  9 10  1  0  0  0
 10 27  1  0  0  0
 27 28  1  0  0  0
 28 29  1  0  0  0
 29 30  1  0  0  0
 30 31  1  0  0  0
 30 33  1  0  0  0
 31 32  2  0  0  0
 31 34  1  0  0  0
 34 35  1  0  0  0
 35 36  1  0  0  0
 36 37  1  0  0  0
 36 41  1  0  0  0
 37 38  1  0  0  0
 38 39  1  0  0  0
 39 40  1  0  0  0
 40 41  1  0  0  0
M  END
> <minimizedAffinity>
-8.00269

$$$$
