CHEMBL4788376


 35 37  0  0  0  0  0  0  0  0999 V2000
  -29.4273   -7.2589   -5.3864 C   0  0  0  0  0  0  0  0  0  0  0  0
  -29.6011   -6.8966   -4.0520 C   0  0  0  0  0  0  0  0  0  0  0  0
  -29.4089   -7.6359   -2.7732 C   0  0  0  0  0  0  0  0  0  0  0  0
  -29.9276   -5.5551   -4.0183 N   0  0  0  0  0  0  0  0  0  0  0  0
  -29.9300   -5.0190   -5.2813 C   0  0  0  0  0  0  0  0  0  0  0  0
  -29.6441   -6.0512   -6.1621 C   0  0  0  0  0  0  0  0  0  0  0  0
  -29.5234   -5.9396   -7.6446 C   0  0  0  0  0  0  0  0  0  0  0  0
  -30.0621   -5.0236   -3.1695 H   0  0  0  0  0  0  0  0  0  0  0  0
  -30.1820   -3.6262   -5.4444 C   0  0  0  0  0  0  0  0  0  0  0  0
  -29.2488   -2.6793   -5.2352 C   0  0  0  0  0  0  0  0  0  0  0  0
  -27.8366   -2.9250   -4.7464 C   0  0  0  0  0  0  0  0  0  0  0  0
  -27.3266   -3.9510   -4.3401 O   0  0  0  0  0  0  0  0  0  0  0  0
  -27.2184   -1.6881   -4.7978 N   0  0  0  0  0  0  0  0  0  0  0  0
  -28.0965   -0.6907   -5.1972 C   0  0  0  0  0  0  0  0  0  0  0  0
  -27.7953    0.6520   -5.2917 C   0  0  0  0  0  0  0  0  0  0  0  0
  -28.8254    1.5162   -5.6596 C   0  0  0  0  0  0  0  0  0  0  0  0
  -30.1262    1.0354   -5.9226 C   0  0  0  0  0  0  0  0  0  0  0  0
  -30.3943   -0.3548   -5.8398 C   0  0  0  0  0  0  0  0  0  0  0  0
  -29.3659   -1.2177   -5.4686 C   0  0  0  0  0  0  0  0  0  0  0  0
  -26.2591   -1.5572   -4.5159 H   0  0  0  0  0  0  0  0  0  0  0  0
  -31.2148    2.0391   -6.2553 C   0  0  0  0  0  0  0  0  0  0  0  0
  -32.2185    1.5290   -7.2892 C   0  0  0  0  0  0  0  0  0  0  0  0
  -32.4591    2.5481   -8.3361 C   0  0  0  0  0  0  0  0  0  0  0  0
  -32.6432    3.3462   -9.1550 N   0  0  0  0  0  0  0  0  0  0  0  0
  -27.7219   -8.6288   -6.4526 N   0  0  0  0  0  0  0  0  0  0  0  0
  -28.9997   -8.5625   -5.9265 C   0  0  0  0  0  0  0  0  0  0  0  0
  -29.7265   -9.5536   -5.8879 O   0  0  0  0  0  0  0  0  0  0  0  0
  -27.0568   -7.9105   -6.2000 H   0  0  0  0  0  0  0  0  0  0  0  0
  -27.2199   -9.8804   -6.9857 C   0  0  0  0  0  0  0  0  0  0  0  0
  -26.2091  -10.6131   -6.0726 C   0  0  0  0  0  0  0  0  0  0  0  0
  -25.2619   -9.7447   -5.3292 N   0  0  0  0  0  0  0  0  0  0  0  0
  -26.7659  -10.5956   -3.4703 C   0  0  0  0  0  0  0  0  0  0  0  0
  -25.5371   -9.7923   -3.8811 C   0  0  0  0  0  0  0  0  0  0  0  0
  -23.8590  -10.0664   -5.6686 C   0  0  0  0  0  0  0  0  0  0  0  0
  -23.0860  -10.9429   -4.6814 C   0  0  0  0  0  0  0  0  0  0  0  0
 32 33  1  0  0  0
 33 31  1  0  0  0
 31 34  1  0  0  0
 31 30  1  0  0  0
 34 35  1  0  0  0
 30 29  1  0  0  0
 29 25  1  0  0  0
 25 26  1  0  0  0
 25 28  1  0  0  0
 26 27  2  0  0  0
 26  1  1  0  0  0
  1  2  2  0  0  0
  1  6  1  0  0  0
  2  3  1  0  0  0
  2  4  1  0  0  0
  4  5  1  0  0  0
  4  8  1  0  0  0
  5  9  1  0  0  0
  5  6  2  0  0  0
  9 10  2  0  0  0
 10 11  1  0  0  0
 10 19  1  0  0  0
 11 12  2  0  0  0
 11 13  1  0  0  0
 13 14  1  0  0  0
 13 20  1  0  0  0
 14 15  1  0  0  0
 14 19  2  0  0  0
 15 16  2  0  0  0
 16 17  1  0  0  0
 17 21  1  0  0  0
 17 18  2  0  0  0
 21 22  1  0  0  0
 22 23  1  0  0  0
 23 24  3  0  0  0
 18 19  1  0  0  0
  6  7  1  0  0  0
M  END
> <minimizedAffinity>
-7.54108

$$$$
