CHEMBL3109274


 38 42  0  0  0  0  0  0  0  0999 V2000
  -28.9057   -7.5067   -4.0555 C   0  0  0  0  0  0  0  0  0  0  0  0
  -29.0095   -8.4775   -3.1693 N   0  0  0  0  0  0  0  0  0  0  0  0
  -28.3306   -9.5261   -3.7369 C   0  0  0  0  0  0  0  0  0  0  0  0
  -27.8615   -9.1711   -4.9771 C   0  0  0  0  0  0  0  0  0  0  0  0
  -28.2264   -7.8611   -5.1881 O   0  0  0  0  0  0  0  0  0  0  0  0
  -27.1133   -9.8338   -6.0313 C   0  0  0  0  0  0  0  0  0  0  0  0
  -27.6162   -9.8224   -7.3332 C   0  0  0  0  0  0  0  0  0  0  0  0
  -26.9189  -10.3921   -8.4084 C   0  0  0  0  0  0  0  0  0  0  0  0
  -25.7073  -11.0320   -8.1292 C   0  0  0  0  0  0  0  0  0  0  0  0
  -25.1356  -11.0284   -6.8424 C   0  0  0  0  0  0  0  0  0  0  0  0
  -25.8784  -10.4506   -5.7932 C   0  0  0  0  0  0  0  0  0  0  0  0
  -27.3968  -10.2212   -9.7921 C   0  0  0  0  0  0  0  0  0  0  0  0
  -28.6475  -10.7023  -10.1827 C   0  0  0  0  0  0  0  0  0  0  0  0
  -29.0857  -10.4942  -11.4834 C   0  0  0  0  0  0  0  0  0  0  0  0
  -28.2677   -9.8028  -12.3653 C   0  0  0  0  0  0  0  0  0  0  0  0
  -27.0438   -9.3439  -11.8989 C   0  0  0  0  0  0  0  0  0  0  0  0
  -26.5991   -9.5291  -10.6401 N   0  0  0  0  0  0  0  0  0  0  0  0
  -23.7521  -11.5049   -6.6337 C   0  0  0  0  0  0  0  0  0  0  0  0
  -22.9449  -11.8834   -7.7129 C   0  0  0  0  0  0  0  0  0  0  0  0
  -21.6227  -12.2520   -7.4902 C   0  0  0  0  0  0  0  0  0  0  0  0
  -21.1327  -12.2378   -6.1959 C   0  0  0  0  0  0  0  0  0  0  0  0
  -21.9876  -11.8540   -5.1770 C   0  0  0  0  0  0  0  0  0  0  0  0
  -23.2760  -11.4805   -5.3659 N   0  0  0  0  0  0  0  0  0  0  0  0
  -29.3780   -6.2415   -4.0067 N   0  0  0  0  0  0  0  0  0  0  0  0
  -29.1903   -5.7134   -3.1641 H   0  0  0  0  0  0  0  0  0  0  0  0
  -28.7325   -3.3779   -6.2868 C   0  0  0  0  0  0  0  0  0  0  0  0
  -29.4735   -3.7271   -7.4094 C   0  0  0  0  0  0  0  0  0  0  0  0
  -30.2191   -4.9127   -7.4062 C   0  0  0  0  0  0  0  0  0  0  0  0
  -30.2222   -5.7500   -6.2785 C   0  0  0  0  0  0  0  0  0  0  0  0
  -29.4342   -5.4113   -5.1527 C   0  0  0  0  0  0  0  0  0  0  0  0
  -28.7264   -4.1935   -5.1595 C   0  0  0  0  0  0  0  0  0  0  0  0
  -27.8032   -1.8641   -6.2573 S   0  0  0  0  0  0  0  0  0  0  0  0
  -27.3896   -1.5860   -7.6190 O   0  0  0  0  0  0  0  0  0  0  0  0
  -26.8179   -1.9847   -5.1944 O   0  0  0  0  0  0  0  0  0  0  0  0
  -28.3830    0.4831   -4.9955 C   0  0  0  0  0  0  0  0  0  0  0  0
  -29.0202   -0.6587   -5.7609 C   0  0  0  0  0  0  0  0  0  0  0  0
  -30.9832   -6.8904   -6.1804 O   0  0  0  0  0  0  0  0  0  0  0  0
  -31.1692   -7.6518   -7.3725 C   0  0  0  0  0  0  0  0  0  0  0  0
 35 36  1  0  0  0
 36 32  1  0  0  0
 32 33  2  0  0  0
 32 34  2  0  0  0
 32 26  1  0  0  0
 26 27  1  0  0  0
 26 31  2  0  0  0
 27 28  2  0  0  0
 28 29  1  0  0  0
 29 37  1  0  0  0
 29 30  2  0  0  0
 37 38  1  0  0  0
 30 24  1  0  0  0
 30 31  1  0  0  0
 24  1  1  0  0  0
 24 25  1  0  0  0
  1  2  2  0  0  0
  1  5  1  0  0  0
  2  3  1  0  0  0
  3  4  2  0  0  0
  4  6  1  0  0  0
  4  5  1  0  0  0
  6  7  1  0  0  0
  6 11  2  0  0  0
  7  8  2  0  0  0
  8 12  1  0  0  0
  8  9  1  0  0  0
 12 13  1  0  0  0
 12 17  2  0  0  0
 13 14  2  0  0  0
 14 15  1  0  0  0
 15 16  2  0  0  0
 16 17  1  0  0  0
  9 10  2  0  0  0
 10 18  1  0  0  0
 10 11  1  0  0  0
 18 19  1  0  0  0
 18 23  2  0  0  0
 19 20  2  0  0  0
 20 21  1  0  0  0
 21 22  2  0  0  0
 22 23  1  0  0  0
M  END
> <minimizedAffinity>
-9.68820

$$$$
