CHEMBL3660306


 32 35  0  0  0  0  0  0  0  0999 V2000
  -24.7476   -1.6779  -12.1456 C   0  0  0  0  0  0  0  0  0  0  0  0
  -23.5268   -1.3764  -11.5438 C   0  0  0  0  0  0  0  0  0  0  0  0
  -22.6329   -0.4887  -12.1521 C   0  0  0  0  0  0  0  0  0  0  0  0
  -22.9428    0.1573  -13.3626 C   0  0  0  0  0  0  0  0  0  0  0  0
  -24.1629   -0.1980  -13.9711 C   0  0  0  0  0  0  0  0  0  0  0  0
  -25.0432   -1.1277  -13.3904 C   0  0  0  0  0  0  0  0  0  0  0  0
  -27.1272   -2.9205   -9.7076 N   0  0  0  0  0  0  0  0  0  0  0  0
  -26.2188   -2.0331  -10.2574 C   0  0  0  0  0  0  0  0  0  0  0  0
  -25.9201   -0.9393   -9.7930 O   0  0  0  0  0  0  0  0  0  0  0  0
  -25.7129   -2.4783  -11.4798 N   0  0  0  0  0  0  0  0  0  0  0  0
  -27.3640   -3.7282  -10.2587 H   0  0  0  0  0  0  0  0  0  0  0  0
  -26.4050   -2.9095  -12.0720 H   0  0  0  0  0  0  0  0  0  0  0  0
  -28.4427    0.2240   -6.1166 C   0  0  0  0  0  0  0  0  0  0  0  0
  -28.4859   -1.1516   -6.7180 C   0  0  0  0  0  0  0  0  0  0  0  0
  -29.1681   -2.1756   -6.0553 C   0  0  0  0  0  0  0  0  0  0  0  0
  -29.2372   -3.4411   -6.6214 C   0  0  0  0  0  0  0  0  0  0  0  0
  -28.6126   -3.6985   -7.8413 C   0  0  0  0  0  0  0  0  0  0  0  0
  -28.8480   -4.9055   -8.3683 F   0  0  0  0  0  0  0  0  0  0  0  0
  -27.8662   -2.7139   -8.5071 C   0  0  0  0  0  0  0  0  0  0  0  0
  -27.8390   -1.4267   -7.9418 C   0  0  0  0  0  0  0  0  0  0  0  0
  -22.0344    1.1825  -13.9440 C   0  0  0  0  0  0  0  0  0  0  0  0
  -22.4541    2.4931  -14.1985 C   0  0  0  0  0  0  0  0  0  0  0  0
  -21.5598    3.4033  -14.7443 C   0  0  0  0  0  0  0  0  0  0  0  0
  -20.2861    3.1091  -15.0717 N   0  0  0  0  0  0  0  0  0  0  0  0
  -19.8666    1.8450  -14.8330 C   0  0  0  0  0  0  0  0  0  0  0  0
  -20.6979    0.8802  -14.2649 C   0  0  0  0  0  0  0  0  0  0  0  0
  -18.4938    1.5227  -15.2234 C   0  0  0  0  0  0  0  0  0  0  0  0
  -17.5227    2.3011  -15.9225 C   0  0  0  0  0  0  0  0  0  0  0  0
  -16.3676    1.5567  -16.0222 C   0  0  0  0  0  0  0  0  0  0  0  0
  -16.5929    0.3519  -15.4138 N   0  0  0  0  0  0  0  0  0  0  0  0
  -17.8724    0.3217  -14.9264 C   0  0  0  0  0  0  0  0  0  0  0  0
  -15.9197   -0.3987  -15.3310 H   0  0  0  0  0  0  0  0  0  0  0  0
 13 14  1  0  0  0
 14 15  1  0  0  0
 14 20  2  0  0  0
 15 16  2  0  0  0
 16 17  1  0  0  0
 17 18  1  0  0  0
 17 19  2  0  0  0
 19  7  1  0  0  0
 19 20  1  0  0  0
  7  8  1  0  0  0
  7 11  1  0  0  0
  8  9  2  0  0  0
  8 10  1  0  0  0
 10  1  1  0  0  0
 10 12  1  0  0  0
  1  2  1  0  0  0
  1  6  2  0  0  0
  2  3  2  0  0  0
  3  4  1  0  0  0
  4 21  1  0  0  0
  4  5  2  0  0  0
 21 22  1  0  0  0
 21 26  2  0  0  0
 22 23  2  0  0  0
 23 24  1  0  0  0
 24 25  2  0  0  0
 25 27  1  0  0  0
 25 26  1  0  0  0
 27 28  1  0  0  0
 27 31  2  0  0  0
 28 29  2  0  0  0
 29 30  1  0  0  0
 30 31  1  0  0  0
 30 32  1  0  0  0
  5  6  1  0  0  0
M  END
> <minimizedAffinity>
-11.54453

$$$$
