CHEMBL4285792


 48 53  0  0  0  0  0  0  0  0999 V2000
  -13.7346   -1.1805  -14.1922 C   0  0  0  0  0  0  0  0  0  0  0  0
  -12.9841   -1.6706  -15.2628 C   0  0  0  0  0  0  0  0  0  0  0  0
  -12.7778   -3.0351  -15.3935 C   0  0  0  0  0  0  0  0  0  0  0  0
  -13.2453   -3.9162  -14.4190 C   0  0  0  0  0  0  0  0  0  0  0  0
  -13.9945   -3.4258  -13.3435 C   0  0  0  0  0  0  0  0  0  0  0  0
  -14.2208   -2.0551  -13.2274 C   0  0  0  0  0  0  0  0  0  0  0  0
  -14.8904   -1.5905  -12.1636 F   0  0  0  0  0  0  0  0  0  0  0  0
  -12.9599   -5.2884  -14.4707 N   0  0  0  0  0  0  0  0  0  0  0  0
  -13.7919   -6.2530  -15.0066 C   0  0  0  0  0  0  0  0  0  0  0  0
  -14.8879   -6.0974  -15.5250 O   0  0  0  0  0  0  0  0  0  0  0  0
  -12.0413   -5.5854  -14.1631 H   0  0  0  0  0  0  0  0  0  0  0  0
  -13.2421   -7.6370  -14.9260 C   0  0  0  0  0  0  0  0  0  0  0  0
  -13.8461   -8.6251  -13.9237 C   0  0  0  0  0  0  0  0  0  0  0  0
  -12.5083   -8.0128  -13.6458 C   0  0  0  0  0  0  0  0  0  0  0  0
  -12.8932   -8.1819  -16.2623 C   0  0  0  0  0  0  0  0  0  0  0  0
  -11.7172   -8.4511  -16.4734 O   0  0  0  0  0  0  0  0  0  0  0  0
  -13.9443   -8.3833  -17.1498 N   0  0  0  0  0  0  0  0  0  0  0  0
  -14.7626   -7.8121  -17.0554 H   0  0  0  0  0  0  0  0  0  0  0  0
  -13.7691   -9.1629  -18.3078 C   0  0  0  0  0  0  0  0  0  0  0  0
  -13.4882   -8.5626  -19.5420 C   0  0  0  0  0  0  0  0  0  0  0  0
  -13.4361   -9.3255  -20.7043 C   0  0  0  0  0  0  0  0  0  0  0  0
  -13.6645  -10.6904  -20.6255 C   0  0  0  0  0  0  0  0  0  0  0  0
  -13.6912  -11.4178  -21.7495 F   0  0  0  0  0  0  0  0  0  0  0  0
  -13.8763  -11.3127  -19.3972 C   0  0  0  0  0  0  0  0  0  0  0  0
  -13.8948  -10.5530  -18.2228 C   0  0  0  0  0  0  0  0  0  0  0  0
  -13.9569    0.1967  -14.0384 O   0  0  0  0  0  0  0  0  0  0  0  0
  -16.7711    0.6509  -12.9431 C   0  0  0  0  0  0  0  0  0  0  0  0
  -16.7114    1.3868  -14.2352 C   0  0  0  0  0  0  0  0  0  0  0  0
  -17.7130    2.2294  -14.8172 C   0  0  0  0  0  0  0  0  0  0  0  0
  -17.2168    2.7003  -16.0123 C   0  0  0  0  0  0  0  0  0  0  0  0
  -15.9797    2.1726  -16.1998 N   0  0  0  0  0  0  0  0  0  0  0  0
  -15.2022    2.3990  -17.2706 N   0  0  0  0  0  0  0  0  0  0  0  0
  -14.0650    1.7794  -17.2448 C   0  0  0  0  0  0  0  0  0  0  0  0
  -13.6025    0.9772  -16.2421 N   0  0  0  0  0  0  0  0  0  0  0  0
  -14.3547    0.8266  -15.2025 C   0  0  0  0  0  0  0  0  0  0  0  0
  -15.6513    1.3932  -15.1358 C   0  0  0  0  0  0  0  0  0  0  0  0
  -18.9350    2.5161  -14.2928 O   0  0  0  0  0  0  0  0  0  0  0  0
  -19.9976    2.3941  -15.2599 C   0  0  0  0  0  0  0  0  0  0  0  0
  -20.8377    1.1249  -15.0402 C   0  0  0  0  0  0  0  0  0  0  0  0
  -20.0800   -0.0371  -15.3888 O   0  0  0  0  0  0  0  0  0  0  0  0
  -19.1915    0.0950  -15.0103 H   0  0  0  0  0  0  0  0  0  0  0  0
  -21.3671    1.0069  -13.5939 C   0  0  0  0  0  0  0  0  0  0  0  0
  -22.3393   -0.0739  -13.4811 N   0  0  0  0  0  0  0  0  0  0  0  0
  -22.6712   -0.4858  -12.1085 C   0  0  0  0  0  0  0  0  0  0  0  0
  -23.4211   -1.8247  -12.1825 C   0  0  0  0  0  0  0  0  0  0  0  0
  -24.6279   -1.6976  -12.9490 O   0  0  0  0  0  0  0  0  0  0  0  0
  -24.3363   -1.2191  -14.2729 C   0  0  0  0  0  0  0  0  0  0  0  0
  -23.5793    0.1216  -14.2395 C   0  0  0  0  0  0  0  0  0  0  0  0
 27 28  1  0  0  0
 28 29  1  0  0  0
 28 36  2  0  0  0
 29 37  1  0  0  0
 29 30  2  0  0  0
 37 38  1  0  0  0
 38 39  1  0  0  0
 39 40  1  0  0  0
 39 42  1  0  0  0
 40 41  1  0  0  0
 42 43  1  0  0  0
 43 44  1  0  0  0
 43 48  1  0  0  0
 44 45  1  0  0  0
 45 46  1  0  0  0
 46 47  1  0  0  0
 47 48  1  0  0  0
 30 31  1  0  0  0
 31 32  1  0  0  0
 31 36  1  0  0  0
 32 33  2  0  0  0
 33 34  1  0  0  0
 34 35  2  0  0  0
 35 26  1  0  0  0
 35 36  1  0  0  0
 26  1  1  0  0  0
  1  2  1  0  0  0
  1  6  2  0  0  0
  2  3  2  0  0  0
  3  4  1  0  0  0
  4  8  1  0  0  0
  4  5  2  0  0  0
  8  9  1  0  0  0
  8 11  1  0  0  0
  9 10  2  0  0  0
  9 12  1  0  0  0
 12 15  1  0  0  0
 12 13  1  0  0  0
 12 14  1  0  0  0
 15 16  2  0  0  0
 15 17  1  0  0  0
 17 19  1  0  0  0
 17 18  1  0  0  0
 19 20  1  0  0  0
 19 25  2  0  0  0
 20 21  2  0  0  0
 21 22  1  0  0  0
 22 23  1  0  0  0
 22 24  2  0  0  0
 24 25  1  0  0  0
 13 14  1  0  0  0
  5  6  1  0  0  0
  6  7  1  0  0  0
M  END
> <minimizedAffinity>
-8.08092

$$$$
