CHEMBL3910393


 30 34  0  0  0  0  0  0  0  0999 V2000
  -29.1870   -5.0803   -5.5174 C   0  0  0  0  0  0  0  0  0  0  0  0
  -29.5854   -5.5707   -6.7652 C   0  0  0  0  0  0  0  0  0  0  0  0
  -29.3191   -6.8848   -7.1512 C   0  0  0  0  0  0  0  0  0  0  0  0
  -28.5492   -7.7161   -6.3638 C   0  0  0  0  0  0  0  0  0  0  0  0
  -28.2869   -8.9567   -6.8046 N   0  0  0  0  0  0  0  0  0  0  0  0
  -27.4539   -9.6949   -6.0380 C   0  0  0  0  0  0  0  0  0  0  0  0
  -26.8927   -9.2230   -4.8611 C   0  0  0  0  0  0  0  0  0  0  0  0
  -27.1980   -7.9863   -4.3893 N   0  0  0  0  0  0  0  0  0  0  0  0
  -28.0302   -7.2300   -5.1430 C   0  0  0  0  0  0  0  0  0  0  0  0
  -28.3886   -5.9402   -4.7340 C   0  0  0  0  0  0  0  0  0  0  0  0
  -25.9259  -10.0164   -4.1228 C   0  0  0  0  0  0  0  0  0  0  0  0
  -26.1039  -11.0608   -3.1849 C   0  0  0  0  0  0  0  0  0  0  0  0
  -24.9565  -11.5734   -2.7493 N   0  0  0  0  0  0  0  0  0  0  0  0
  -24.0250  -10.8615   -3.4097 N   0  0  0  0  0  0  0  0  0  0  0  0
  -22.6244  -11.1444   -3.2052 C   0  0  0  0  0  0  0  0  0  0  0  0
  -24.5542   -9.9213   -4.2434 C   0  0  0  0  0  0  0  0  0  0  0  0
  -29.5544   -3.7698   -5.0665 N   0  0  0  0  0  0  0  0  0  0  0  0
  -27.8440   -1.2091   -7.2804 C   0  0  0  0  0  0  0  0  0  0  0  0
  -28.1204   -0.0258   -6.6219 C   0  0  0  0  0  0  0  0  0  0  0  0
  -28.9505   -0.0719   -5.5135 C   0  0  0  0  0  0  0  0  0  0  0  0
  -29.2993    1.0756   -4.9148 F   0  0  0  0  0  0  0  0  0  0  0  0
  -29.4379   -1.2799   -5.0011 C   0  0  0  0  0  0  0  0  0  0  0  0
  -29.1216   -2.5137   -5.5905 C   0  0  0  0  0  0  0  0  0  0  0  0
  -28.3917   -2.4102   -6.7949 C   0  0  0  0  0  0  0  0  0  0  0  0
  -27.5092   -2.2748   -9.3831 C   0  0  0  0  0  0  0  0  0  0  0  0
  -27.0651   -1.3524   -8.3962 O   0  0  0  0  0  0  0  0  0  0  0  0
  -30.2367   -3.7951   -3.7421 C   0  0  0  0  0  0  0  0  0  0  0  0
  -31.6472   -4.3387   -3.8270 C   0  0  0  0  0  0  0  0  0  0  0  0
  -32.1732   -5.1490   -2.6634 C   0  0  0  0  0  0  0  0  0  0  0  0
  -31.9399   -5.8123   -3.9893 C   0  0  0  0  0  0  0  0  0  0  0  0
 25 26  1  0  0  0
 26 18  1  0  0  0
 18 19  1  0  0  0
 18 24  2  0  0  0
 19 20  2  0  0  0
 20 21  1  0  0  0
 20 22  1  0  0  0
 22 23  2  0  0  0
 23 17  1  0  0  0
 23 24  1  0  0  0
 17 27  1  0  0  0
 17  1  1  0  0  0
 27 28  1  0  0  0
 28 29  1  0  0  0
 28 30  1  0  0  0
 29 30  1  0  0  0
  1  2  1  0  0  0
  1 10  2  0  0  0
  2  3  2  0  0  0
  3  4  1  0  0  0
  4  5  1  0  0  0
  4  9  2  0  0  0
  5  6  2  0  0  0
  6  7  1  0  0  0
  7 11  1  0  0  0
  7  8  2  0  0  0
 11 12  1  0  0  0
 11 16  2  0  0  0
 12 13  2  0  0  0
 13 14  1  0  0  0
 14 15  1  0  0  0
 14 16  1  0  0  0
  8  9  1  0  0  0
  9 10  1  0  0  0
M  END
> <minimizedAffinity>
-9.03486

$$$$
