CHEMBL2349002


 33 37  0  0  0  0  0  0  0  0999 V2000
  -23.1250   -1.5595  -13.5698 O   0  0  0  0  0  0  0  0  0  0  0  0
  -22.4982   -0.3425  -13.8359 C   0  0  0  0  0  0  0  0  0  0  0  0
  -23.4021    0.7545  -13.4145 C   0  0  0  0  0  0  0  0  0  0  0  0
  -22.9425    2.0035  -13.5758 C   0  0  0  0  0  0  0  0  0  0  0  0
  -21.6622    2.2012  -14.1410 C   0  0  0  0  0  0  0  0  0  0  0  0
  -20.9924    3.2985  -14.4139 N   0  0  0  0  0  0  0  0  0  0  0  0
  -19.8015    2.8825  -14.9354 C   0  0  0  0  0  0  0  0  0  0  0  0
  -19.7375    1.5086  -14.9787 C   0  0  0  0  0  0  0  0  0  0  0  0
  -20.9384    1.0732  -14.4852 N   0  0  0  0  0  0  0  0  0  0  0  0
  -21.3176   -0.2292  -14.3558 N   0  0  0  0  0  0  0  0  0  0  0  0
  -18.7996    3.7239  -15.3596 N   0  0  0  0  0  0  0  0  0  0  0  0
  -17.5645    3.3026  -15.8002 C   0  0  0  0  0  0  0  0  0  0  0  0
  -17.1630    2.1532  -15.8956 O   0  0  0  0  0  0  0  0  0  0  0  0
  -19.0084    4.7074  -15.3467 H   0  0  0  0  0  0  0  0  0  0  0  0
  -16.6185    4.3892  -16.2137 C   0  0  0  0  0  0  0  0  0  0  0  0
  -15.5929    4.3151  -17.3182 C   0  0  0  0  0  0  0  0  0  0  0  0
  -15.1480    4.2624  -15.8852 C   0  0  0  0  0  0  0  0  0  0  0  0
  -26.2944   -2.0774  -11.7176 C   0  0  0  0  0  0  0  0  0  0  0  0
  -27.2145   -1.9107  -12.7604 C   0  0  0  0  0  0  0  0  0  0  0  0
  -26.7945   -1.6453  -14.0635 C   0  0  0  0  0  0  0  0  0  0  0  0
  -25.4415   -1.5244  -14.3435 C   0  0  0  0  0  0  0  0  0  0  0  0
  -24.5165   -1.6102  -13.3036 C   0  0  0  0  0  0  0  0  0  0  0  0
  -24.9300   -1.8911  -11.9906 C   0  0  0  0  0  0  0  0  0  0  0  0
  -28.2574   -0.7427  -10.0086 O   0  0  0  0  0  0  0  0  0  0  0  0
  -27.6269   -1.7307   -9.6468 C   0  0  0  0  0  0  0  0  0  0  0  0
  -26.7039   -2.4417  -10.4063 N   0  0  0  0  0  0  0  0  0  0  0  0
  -26.4331   -3.3618  -10.0825 H   0  0  0  0  0  0  0  0  0  0  0  0
  -27.9318   -2.2442   -8.2890 C   0  0  0  0  0  0  0  0  0  0  0  0
  -28.4231   -3.5496   -8.1874 C   0  0  0  0  0  0  0  0  0  0  0  0
  -28.7946   -4.0148   -6.9421 C   0  0  0  0  0  0  0  0  0  0  0  0
  -28.7120   -3.2716   -5.8194 N   0  0  0  0  0  0  0  0  0  0  0  0
  -28.2527   -2.0069   -5.9491 C   0  0  0  0  0  0  0  0  0  0  0  0
  -27.8474   -1.4474   -7.1505 C   0  0  0  0  0  0  0  0  0  0  0  0
 24 25  2  0  0  0
 25 26  1  0  0  0
 25 28  1  0  0  0
 26 18  1  0  0  0
 26 27  1  0  0  0
 18 19  1  0  0  0
 18 23  2  0  0  0
 19 20  2  0  0  0
 20 21  1  0  0  0
 21 22  2  0  0  0
 22  1  1  0  0  0
 22 23  1  0  0  0
  1  2  1  0  0  0
  2  3  1  0  0  0
  2 10  2  0  0  0
  3  4  2  0  0  0
  4  5  1  0  0  0
  5  6  2  0  0  0
  5  9  1  0  0  0
  6  7  1  0  0  0
  7 11  1  0  0  0
  7  8  2  0  0  0
 11 12  1  0  0  0
 11 14  1  0  0  0
 12 13  2  0  0  0
 12 15  1  0  0  0
 15 16  1  0  0  0
 15 17  1  0  0  0
 16 17  1  0  0  0
  8  9  1  0  0  0
  9 10  1  0  0  0
 28 29  1  0  0  0
 28 33  2  0  0  0
 29 30  2  0  0  0
 30 31  1  0  0  0
 31 32  2  0  0  0
 32 33  1  0  0  0
M  END
> <minimizedAffinity>
-10.81562

$$$$
