CHEMBL3671555


 39 41  0  0  0  0  0  0  0  0999 V2000
  -17.8930    1.0883  -14.9677 C   0  0  0  0  0  0  0  0  0  0  0  0
  -19.1843    0.5845  -14.7853 C   0  0  0  0  0  0  0  0  0  0  0  0
  -20.2795    1.4567  -14.6382 C   0  0  0  0  0  0  0  0  0  0  0  0
  -21.5830    1.0517  -14.3105 C   0  0  0  0  0  0  0  0  0  0  0  0
  -22.5934    1.9316  -14.1869 N   0  0  0  0  0  0  0  0  0  0  0  0
  -22.2984    3.2192  -14.3659 C   0  0  0  0  0  0  0  0  0  0  0  0
  -21.0872    3.7191  -14.6292 N   0  0  0  0  0  0  0  0  0  0  0  0
  -20.0833    2.8422  -14.7469 C   0  0  0  0  0  0  0  0  0  0  0  0
  -18.7906    3.3184  -14.9616 C   0  0  0  0  0  0  0  0  0  0  0  0
  -17.6820    2.4671  -15.0872 C   0  0  0  0  0  0  0  0  0  0  0  0
  -16.0716    0.0209  -13.8168 C   0  0  0  0  0  0  0  0  0  0  0  0
  -16.2275    0.6222  -12.7643 O   0  0  0  0  0  0  0  0  0  0  0  0
  -16.8377    0.1595  -14.9599 N   0  0  0  0  0  0  0  0  0  0  0  0
  -17.0302   -0.7301  -15.4043 H   0  0  0  0  0  0  0  0  0  0  0  0
  -15.2164   -2.2778  -13.6277 C   0  0  0  0  0  0  0  0  0  0  0  0
  -15.0159   -1.0092  -14.0001 C   0  0  0  0  0  0  0  0  0  0  0  0
  -21.8506   -0.3183  -14.0348 N   0  0  0  0  0  0  0  0  0  0  0  0
  -21.6554   -0.8981  -14.8469 H   0  0  0  0  0  0  0  0  0  0  0  0
  -22.9831   -0.7746  -13.3179 C   0  0  0  0  0  0  0  0  0  0  0  0
  -22.8935   -1.0962  -11.9561 C   0  0  0  0  0  0  0  0  0  0  0  0
  -24.0305   -1.4458  -11.2253 C   0  0  0  0  0  0  0  0  0  0  0  0
  -25.2680   -1.4994  -11.8622 C   0  0  0  0  0  0  0  0  0  0  0  0
  -26.8177   -1.8866  -10.8521 Br  0  0  0  0  0  0  0  0  0  0  0  0
  -25.3721   -1.2522  -13.2286 C   0  0  0  0  0  0  0  0  0  0  0  0
  -24.2288   -0.9038  -13.9442 C   0  0  0  0  0  0  0  0  0  0  0  0
  -24.3354   -0.6502  -15.2585 F   0  0  0  0  0  0  0  0  0  0  0  0
  -16.4800    3.0989  -15.2868 O   0  0  0  0  0  0  0  0  0  0  0  0
  -16.4559    4.0556  -16.3537 C   0  0  0  0  0  0  0  0  0  0  0  0
  -15.0275    4.2894  -16.8925 C   0  0  0  0  0  0  0  0  0  0  0  0
  -15.0383    5.2318  -18.0964 C   0  0  0  0  0  0  0  0  0  0  0  0
  -14.1629    4.8553  -15.8452 N   0  0  0  0  0  0  0  0  0  0  0  0
  -13.0519    4.1801  -15.4095 C   0  0  0  0  0  0  0  0  0  0  0  0
  -12.6551    3.1309  -15.8949 O   0  0  0  0  0  0  0  0  0  0  0  0
  -12.4439    4.8276  -14.3574 N   0  0  0  0  0  0  0  0  0  0  0  0
  -14.6028    5.4464  -15.1552 H   0  0  0  0  0  0  0  0  0  0  0  0
  -12.5493    5.8314  -14.3737 H   0  0  0  0  0  0  0  0  0  0  0  0
  -11.1745    4.3140  -13.8741 C   0  0  0  0  0  0  0  0  0  0  0  0
  -11.2518    3.7060  -12.4766 C   0  0  0  0  0  0  0  0  0  0  0  0
  -12.2564    2.5690  -12.3694 C   0  0  0  0  0  0  0  0  0  0  0  0
 15 16  2  0  0  0
 16 11  1  0  0  0
 11 12  2  0  0  0
 11 13  1  0  0  0
 13  1  1  0  0  0
 13 14  1  0  0  0
  1  2  1  0  0  0
  1 10  2  0  0  0
  2  3  2  0  0  0
  3  4  1  0  0  0
  3  8  1  0  0  0
  4 17  1  0  0  0
  4  5  2  0  0  0
 17 19  1  0  0  0
 17 18  1  0  0  0
 19 20  1  0  0  0
 19 25  2  0  0  0
 20 21  2  0  0  0
 21 22  1  0  0  0
 22 23  1  0  0  0
 22 24  2  0  0  0
 24 25  1  0  0  0
 25 26  1  0  0  0
  5  6  1  0  0  0
  6  7  2  0  0  0
  7  8  1  0  0  0
  8  9  2  0  0  0
  9 10  1  0  0  0
 10 27  1  0  0  0
 27 28  1  0  0  0
 28 29  1  0  0  0
 29 30  1  0  0  0
 29 31  1  0  0  0
 31 32  1  0  0  0
 31 35  1  0  0  0
 32 33  2  0  0  0
 32 34  1  0  0  0
 34 37  1  0  0  0
 34 36  1  0  0  0
 37 38  1  0  0  0
 38 39  1  0  0  0
M  END
> <minimizedAffinity>
-9.46950

$$$$
