CHEMBL1084062


 35 41  0  0  0  0  0  0  0  0999 V2000
  -12.8013   -0.7740  -15.9356 N   0  0  0  0  0  0  0  0  0  0  0  0
  -13.3615   -1.8089  -15.1333 C   0  0  0  0  0  0  0  0  0  0  0  0
  -13.1267   -3.2005  -15.0819 C   0  0  0  0  0  0  0  0  0  0  0  0
  -13.9026   -3.9965  -14.2083 C   0  0  0  0  0  0  0  0  0  0  0  0
  -14.8919   -3.4530  -13.3824 C   0  0  0  0  0  0  0  0  0  0  0  0
  -15.1167   -2.0728  -13.4664 C   0  0  0  0  0  0  0  0  0  0  0  0
  -14.3889   -1.2597  -14.3523 C   0  0  0  0  0  0  0  0  0  0  0  0
  -14.4474    0.0290  -14.8188 C   0  0  0  0  0  0  0  0  0  0  0  0
  -15.6135    0.8045  -14.6722 C   0  0  0  0  0  0  0  0  0  0  0  0
  -15.7875    1.7967  -15.6443 C   0  0  0  0  0  0  0  0  0  0  0  0
  -14.8113    2.1611  -16.5902 C   0  0  0  0  0  0  0  0  0  0  0  0
  -13.4911    1.7421  -16.2092 C   0  0  0  0  0  0  0  0  0  0  0  0
  -13.4624    0.4341  -15.6736 C   0  0  0  0  0  0  0  0  0  0  0  0
  -12.6604    2.9376  -15.5689 C   0  0  0  0  0  0  0  0  0  0  0  0
  -13.4985    4.2543  -15.2958 C   0  0  0  0  0  0  0  0  0  0  0  0
  -14.2523    4.5454  -16.5440 C   0  0  0  0  0  0  0  0  0  0  0  0
  -14.1815    5.6289  -17.3155 N   0  0  0  0  0  0  0  0  0  0  0  0
  -14.7435    5.1991  -18.4752 N   0  0  0  0  0  0  0  0  0  0  0  0
  -14.7421    6.0594  -19.6327 C   0  0  0  0  0  0  0  0  0  0  0  0
  -15.0770    3.8666  -18.4695 C   0  0  0  0  0  0  0  0  0  0  0  0
  -14.9008    3.4726  -17.1717 C   0  0  0  0  0  0  0  0  0  0  0  0
  -17.0479    2.4441  -15.3521 C   0  0  0  0  0  0  0  0  0  0  0  0
  -17.6658    3.3567  -15.8849 O   0  0  0  0  0  0  0  0  0  0  0  0
  -17.4967    1.8337  -14.1969 N   0  0  0  0  0  0  0  0  0  0  0  0
  -16.7177    0.7208  -13.7246 C   0  0  0  0  0  0  0  0  0  0  0  0
  -18.3343    2.1781  -13.7531 H   0  0  0  0  0  0  0  0  0  0  0  0
  -15.6884   -4.2228  -12.3335 C   0  0  0  0  0  0  0  0  0  0  0  0
  -16.2278   -3.4602  -11.1223 C   0  0  0  0  0  0  0  0  0  0  0  0
  -15.1488   -3.2069  -10.0785 C   0  0  0  0  0  0  0  0  0  0  0  0
  -14.4540   -4.5093   -9.7125 C   0  0  0  0  0  0  0  0  0  0  0  0
  -13.9831   -5.2496  -10.9567 C   0  0  0  0  0  0  0  0  0  0  0  0
  -15.0277   -5.4308  -11.9111 O   0  0  0  0  0  0  0  0  0  0  0  0
  -12.7111   -1.1335  -18.3887 C   0  0  0  0  0  0  0  0  0  0  0  0
  -11.9216   -1.0641  -17.0769 C   0  0  0  0  0  0  0  0  0  0  0  0
  -10.6975   -0.1606  -17.2212 C   0  0  0  0  0  0  0  0  0  0  0  0
 33 34  1  0  0  0
 34 35  1  0  0  0
 34  1  1  0  0  0
  1  2  1  0  0  0
  1 13  1  0  0  0
  2  3  1  0  0  0
  2  7  2  0  0  0
  3  4  2  0  0  0
  4  5  1  0  0  0
  5 27  1  0  0  0
  5  6  2  0  0  0
 27 28  1  0  0  0
 27 32  1  0  0  0
 28 29  1  0  0  0
 29 30  1  0  0  0
 30 31  1  0  0  0
 31 32  1  0  0  0
  6  7  1  0  0  0
  7  8  1  0  0  0
  8  9  1  0  0  0
  8 13  2  0  0  0
  9 10  2  0  0  0
  9 25  1  0  0  0
 10 11  1  0  0  0
 10 22  1  0  0  0
 11 12  2  0  0  0
 11 21  1  0  0  0
 12 13  1  0  0  0
 12 14  1  0  0  0
 14 15  1  0  0  0
 15 16  1  0  0  0
 16 17  2  0  0  0
 16 21  1  0  0  0
 17 18  1  0  0  0
 18 19  1  0  0  0
 18 20  1  0  0  0
 20 21  2  0  0  0
 22 23  2  0  0  0
 22 24  1  0  0  0
 24 25  1  0  0  0
 24 26  1  0  0  0
M  END
> <minimizedAffinity>
-7.97974

$$$$
