CHEMBL4465126


 28 30  0  0  0  0  0  0  0  0999 V2000
  -26.9162   -1.4294  -10.0033 C   0  0  0  0  0  0  0  0  0  0  0  0
  -27.9157   -1.4777  -10.9541 C   0  0  0  0  0  0  0  0  0  0  0  0
  -27.5103   -1.6327  -12.2591 C   0  0  0  0  0  0  0  0  0  0  0  0
  -26.2262   -1.7618  -12.6264 N   0  0  0  0  0  0  0  0  0  0  0  0
  -25.3275   -1.7584  -11.6337 C   0  0  0  0  0  0  0  0  0  0  0  0
  -25.6215   -1.5745  -10.3384 N   0  0  0  0  0  0  0  0  0  0  0  0
  -27.2623   -1.3276   -8.6318 N   0  0  0  0  0  0  0  0  0  0  0  0
  -26.4358   -1.1334   -8.0715 H   0  0  0  0  0  0  0  0  0  0  0  0
  -29.4546   -4.2505   -6.4935 C   0  0  0  0  0  0  0  0  0  0  0  0
  -28.8153   -4.5935   -7.6885 C   0  0  0  0  0  0  0  0  0  0  0  0
  -28.1068   -3.6249   -8.4009 C   0  0  0  0  0  0  0  0  0  0  0  0
  -28.0387   -2.2999   -7.9533 C   0  0  0  0  0  0  0  0  0  0  0  0
  -28.6402   -1.9718   -6.7352 C   0  0  0  0  0  0  0  0  0  0  0  0
  -29.3592   -2.9362   -6.0172 C   0  0  0  0  0  0  0  0  0  0  0  0
  -30.7791   -4.8477   -4.3624 C   0  0  0  0  0  0  0  0  0  0  0  0
  -30.2306   -5.2530   -5.7079 C   0  0  0  0  0  0  0  0  0  0  0  0
  -30.4078   -6.3795   -6.1592 O   0  0  0  0  0  0  0  0  0  0  0  0
  -23.6211   -1.9739  -12.0701 S   0  0  0  0  0  0  0  0  0  0  0  0
  -23.5776   -0.9751  -13.5953 C   0  0  0  0  0  0  0  0  0  0  0  0
  -23.3246    0.4991  -13.3118 C   0  0  0  0  0  0  0  0  0  0  0  0
  -23.9832    1.1453  -12.4953 O   0  0  0  0  0  0  0  0  0  0  0  0
  -22.1558    1.1768  -13.9535 C   0  0  0  0  0  0  0  0  0  0  0  0
  -22.0269    2.5678  -14.0308 C   0  0  0  0  0  0  0  0  0  0  0  0
  -20.8956    3.1385  -14.6281 C   0  0  0  0  0  0  0  0  0  0  0  0
  -19.8909    2.3236  -15.1449 C   0  0  0  0  0  0  0  0  0  0  0  0
  -18.4954    3.0328  -15.8566 Cl  0  0  0  0  0  0  0  0  0  0  0  0
  -20.0066    0.9384  -15.0752 C   0  0  0  0  0  0  0  0  0  0  0  0
  -21.1346    0.3675  -14.4785 C   0  0  0  0  0  0  0  0  0  0  0  0
 15 16  1  0  0  0
 16 17  2  0  0  0
 16  9  1  0  0  0
  9 10  1  0  0  0
  9 14  2  0  0  0
 10 11  2  0  0  0
 11 12  1  0  0  0
 12  7  1  0  0  0
 12 13  2  0  0  0
  7  1  1  0  0  0
  7  8  1  0  0  0
  1  2  1  0  0  0
  1  6  2  0  0  0
  2  3  2  0  0  0
  3  4  1  0  0  0
  4  5  2  0  0  0
  5 18  1  0  0  0
  5  6  1  0  0  0
 18 19  1  0  0  0
 19 20  1  0  0  0
 20 21  2  0  0  0
 20 22  1  0  0  0
 22 23  1  0  0  0
 22 28  2  0  0  0
 23 24  2  0  0  0
 24 25  1  0  0  0
 25 26  1  0  0  0
 25 27  2  0  0  0
 27 28  1  0  0  0
 13 14  1  0  0  0
M  END
> <minimizedAffinity>
-9.40924

$$$$
