CHEMBL3930298


 33 37  0  0  0  0  0  0  0  0999 V2000
  -30.2347   -9.4745   -7.7190 N   0  0  0  0  0  0  0  0  0  0  0  0
  -29.9788   -8.3830   -6.8101 C   0  0  0  0  0  0  0  0  0  0  0  0
  -30.1502   -7.1905   -7.4462 C   0  0  0  0  0  0  0  0  0  0  0  0
  -29.9298   -6.0584   -6.7759 C   0  0  0  0  0  0  0  0  0  0  0  0
  -29.4286   -6.0067   -5.5188 C   0  0  0  0  0  0  0  0  0  0  0  0
  -28.6352   -5.0384   -5.6813 N   0  0  0  0  0  0  0  0  0  0  0  0
  -29.1863   -3.9377   -5.4203 C   0  0  0  0  0  0  0  0  0  0  0  0
  -28.8848   -3.6614   -4.2260 C   0  0  0  0  0  0  0  0  0  0  0  0
  -28.8152   -5.2355   -3.6158 N   0  0  0  0  0  0  0  0  0  0  0  0
  -29.1659   -6.7367   -4.4820 C   0  0  0  0  0  0  0  0  0  0  0  0
  -29.5295   -8.2420   -5.3763 C   0  0  0  0  0  0  0  0  0  0  0  0
  -28.5950   -1.8632   -4.6160 C   0  0  0  0  0  0  0  0  0  0  0  0
  -27.5603   -0.7125   -5.1210 C   0  0  0  0  0  0  0  0  0  0  0  0
  -28.0240    0.5009   -5.6100 N   0  0  0  0  0  0  0  0  0  0  0  0
  -29.3597    0.3992   -5.6461 N   0  0  0  0  0  0  0  0  0  0  0  0
  -30.2192    1.5220   -6.2198 C   0  0  0  0  0  0  0  0  0  0  0  0
  -29.7021   -0.9458   -5.1205 C   0  0  0  0  0  0  0  0  0  0  0  0
  -28.7249  -10.5129  -11.1670 C   0  0  0  0  0  0  0  0  0  0  0  0
  -27.7082  -11.2356  -10.6916 C   0  0  0  0  0  0  0  0  0  0  0  0
  -27.4526  -11.3702   -9.3148 C   0  0  0  0  0  0  0  0  0  0  0  0
  -28.3001  -10.8434   -8.3488 C   0  0  0  0  0  0  0  0  0  0  0  0
  -29.2539   -9.9273   -8.7386 C   0  0  0  0  0  0  0  0  0  0  0  0
  -29.3602   -9.8223  -10.1805 C   0  0  0  0  0  0  0  0  0  0  0  0
  -28.1597   -9.7708  -13.3119 C   0  0  0  0  0  0  0  0  0  0  0  0
  -29.1420  -10.3189  -12.4479 O   0  0  0  0  0  0  0  0  0  0  0  0
  -26.3150  -11.9533   -8.8411 O   0  0  0  0  0  0  0  0  0  0  0  0
  -25.5974  -11.1378   -7.9225 C   0  0  0  0  0  0  0  0  0  0  0  0
  -31.6872   -9.8020   -7.8984 C   0  0  0  0  0  0  0  0  0  0  0  0
  -32.0204  -11.1720   -7.3556 C   0  0  0  0  0  0  0  0  0  0  0  0
  -31.7311  -12.1929   -8.5518 C   0  0  0  0  0  0  0  0  0  0  0  0
  -33.3327  -11.0609   -6.3352 C   0  0  0  0  0  0  0  0  0  0  0  0
  -32.6850  -12.0429   -5.4905 O   0  0  0  0  0  0  0  0  0  0  0  0
  -31.3917  -11.7267   -6.0847 C   0  0  0  0  0  0  0  0  0  0  0  0
 24 25  1  0  0  0
 25 18  1  0  0  0
 18 19  1  0  0  0
 18 23  2  0  0  0
 19 20  2  0  0  0
 20 26  1  0  0  0
 20 21  1  0  0  0
 26 27  1  0  0  0
 21 22  2  0  0  0
 22  1  1  0  0  0
 22 23  1  0  0  0
  1 28  1  0  0  0
  1  2  1  0  0  0
 28 29  1  0  0  0
 29 30  1  0  0  0
 29 31  1  0  0  0
 29 33  1  0  0  0
 31 32  1  0  0  0
 32 33  1  0  0  0
  2  3  1  0  0  0
  2 11  2  0  0  0
  3  4  2  0  0  0
  4  5  1  0  0  0
  5  6  1  0  0  0
  5 10  2  0  0  0
  6  7  2  0  0  0
  7  8  1  0  0  0
  8 12  1  0  0  0
  8  9  2  0  0  0
 12 13  1  0  0  0
 12 17  2  0  0  0
 13 14  2  0  0  0
 14 15  1  0  0  0
 15 16  1  0  0  0
 15 17  1  0  0  0
  9 10  1  0  0  0
 10 11  1  0  0  0
M  END
> <minimizedAffinity>
-8.53281

$$$$
