CHEMBL374044


 33 36  0  0  0  0  0  0  0  0999 V2000
  -30.2003   -6.7045   -5.7101 C   0  0  0  0  0  0  0  0  0  0  0  0
  -29.2161   -7.5950   -5.2722 C   0  0  0  0  0  0  0  0  0  0  0  0
  -28.8476   -8.6920   -6.0552 C   0  0  0  0  0  0  0  0  0  0  0  0
  -29.4754   -8.9525   -7.2821 C   0  0  0  0  0  0  0  0  0  0  0  0
  -30.5426   -8.1042   -7.6411 C   0  0  0  0  0  0  0  0  0  0  0  0
  -30.8975   -6.9853   -6.8767 C   0  0  0  0  0  0  0  0  0  0  0  0
  -29.0646  -10.0919   -8.1330 C   0  0  0  0  0  0  0  0  0  0  0  0
  -29.5735  -11.3962   -7.9105 C   0  0  0  0  0  0  0  0  0  0  0  0
  -29.2952  -12.4650   -8.7631 C   0  0  0  0  0  0  0  0  0  0  0  0
  -28.5362  -12.2770   -9.9136 C   0  0  0  0  0  0  0  0  0  0  0  0
  -28.0012  -11.0039  -10.1178 C   0  0  0  0  0  0  0  0  0  0  0  0
  -27.2481  -10.5085  -11.1475 N   0  0  0  0  0  0  0  0  0  0  0  0
  -26.7790   -9.2727  -10.9427 N   0  0  0  0  0  0  0  0  0  0  0  0
  -27.3112   -8.9259   -9.7749 C   0  0  0  0  0  0  0  0  0  0  0  0
  -26.9933   -7.7635   -9.1811 N   0  0  0  0  0  0  0  0  0  0  0  0
  -28.1810   -9.9321   -9.2405 C   0  0  0  0  0  0  0  0  0  0  0  0
  -27.0016  -10.9773  -12.0109 H   0  0  0  0  0  0  0  0  0  0  0  0
  -26.1820   -7.2867   -9.5582 H   0  0  0  0  0  0  0  0  0  0  0  0
  -27.0552   -7.6994   -8.1695 H   0  0  0  0  0  0  0  0  0  0  0  0
  -30.0231   -3.2660   -4.5984 N   0  0  0  0  0  0  0  0  0  0  0  0
  -29.6566   -4.3816   -5.3206 C   0  0  0  0  0  0  0  0  0  0  0  0
  -28.7620   -4.4101   -6.1596 O   0  0  0  0  0  0  0  0  0  0  0  0
  -30.4456   -5.4876   -5.0299 N   0  0  0  0  0  0  0  0  0  0  0  0
  -30.6141   -3.4256   -3.7907 H   0  0  0  0  0  0  0  0  0  0  0  0
  -31.4113   -5.2749   -4.8264 H   0  0  0  0  0  0  0  0  0  0  0  0
  -30.4996    1.4594   -6.1176 C   0  0  0  0  0  0  0  0  0  0  0  0
  -29.6817    0.3714   -5.4979 C   0  0  0  0  0  0  0  0  0  0  0  0
  -30.2310   -0.9077   -5.3260 C   0  0  0  0  0  0  0  0  0  0  0  0
  -29.4887   -1.9654   -4.7715 C   0  0  0  0  0  0  0  0  0  0  0  0
  -28.1775   -1.7151   -4.3601 C   0  0  0  0  0  0  0  0  0  0  0  0
  -27.6230   -0.4406   -4.5144 C   0  0  0  0  0  0  0  0  0  0  0  0
  -28.3737    0.5836   -5.0822 C   0  0  0  0  0  0  0  0  0  0  0  0
  -27.8186    1.7979   -5.2236 F   0  0  0  0  0  0  0  0  0  0  0  0
 26 27  1  0  0  0
 27 28  1  0  0  0
 27 32  2  0  0  0
 28 29  2  0  0  0
 29 20  1  0  0  0
 29 30  1  0  0  0
 20 21  1  0  0  0
 20 24  1  0  0  0
 21 22  2  0  0  0
 21 23  1  0  0  0
 23  1  1  0  0  0
 23 25  1  0  0  0
  1  2  1  0  0  0
  1  6  2  0  0  0
  2  3  2  0  0  0
  3  4  1  0  0  0
  4  7  1  0  0  0
  4  5  2  0  0  0
  7  8  1  0  0  0
  7 16  2  0  0  0
  8  9  2  0  0  0
  9 10  1  0  0  0
 10 11  2  0  0  0
 11 12  1  0  0  0
 11 16  1  0  0  0
 12 13  1  0  0  0
 12 17  1  0  0  0
 13 14  2  0  0  0
 14 15  1  0  0  0
 14 16  1  0  0  0
 15 18  1  0  0  0
 15 19  1  0  0  0
  5  6  1  0  0  0
 30 31  2  0  0  0
 31 32  1  0  0  0
 32 33  1  0  0  0
M  END
> <minimizedAffinity>
-9.48030

$$$$
