CHEMBL2002446


 34 39  0  0  0  0  0  0  0  0999 V2000
  -29.3259   -6.5128   -5.3799 C   0  0  0  0  0  0  0  0  0  0  0  0
  -29.4428   -5.4315   -4.4648 C   0  0  0  0  0  0  0  0  0  0  0  0
  -29.1899   -4.1105   -4.8380 C   0  0  0  0  0  0  0  0  0  0  0  0
  -28.7599   -3.9025   -6.1238 C   0  0  0  0  0  0  0  0  0  0  0  0
  -28.5728   -4.9629   -7.0510 C   0  0  0  0  0  0  0  0  0  0  0  0
  -28.8775   -6.2684   -6.6899 C   0  0  0  0  0  0  0  0  0  0  0  0
  -28.0030   -4.4852   -8.4002 C   0  0  0  0  0  0  0  0  0  0  0  0
  -27.9532   -3.0295   -8.0824 C   0  0  0  0  0  0  0  0  0  0  0  0
  -27.6183   -1.7939   -8.6443 C   0  0  0  0  0  0  0  0  0  0  0  0
  -27.8752   -0.7784   -7.7880 N   0  0  0  0  0  0  0  0  0  0  0  0
  -28.3404   -1.3917   -6.6697 N   0  0  0  0  0  0  0  0  0  0  0  0
  -28.3836   -2.7298   -6.8207 C   0  0  0  0  0  0  0  0  0  0  0  0
  -28.6108   -0.8231   -5.8751 H   0  0  0  0  0  0  0  0  0  0  0  0
  -27.0901   -1.5959   -9.9887 C   0  0  0  0  0  0  0  0  0  0  0  0
  -27.7509   -1.9328  -11.1523 C   0  0  0  0  0  0  0  0  0  0  0  0
  -26.8158   -1.5898  -12.5423 S   0  0  0  0  0  0  0  0  0  0  0  0
  -25.5356   -0.9682  -11.6005 C   0  0  0  0  0  0  0  0  0  0  0  0
  -25.8168   -1.0114  -10.2536 C   0  0  0  0  0  0  0  0  0  0  0  0
  -24.3271   -0.4648  -12.1546 C   0  0  0  0  0  0  0  0  0  0  0  0
  -23.2436    0.0533  -12.6623 C   0  0  0  0  0  0  0  0  0  0  0  0
  -21.9805    0.6572  -13.2542 C   0  0  0  0  0  0  0  0  0  0  0  0
  -21.8559    0.2905  -14.6251 O   0  0  0  0  0  0  0  0  0  0  0  0
  -20.5756    0.6604  -15.1405 C   0  0  0  0  0  0  0  0  0  0  0  0
  -20.1356    1.9298  -14.4811 C   0  0  0  0  0  0  0  0  0  0  0  0
  -20.4335    3.2578  -15.1293 C   0  0  0  0  0  0  0  0  0  0  0  0
  -19.0146    2.7703  -15.0481 C   0  0  0  0  0  0  0  0  0  0  0  0
  -29.6765   -7.9236   -4.9309 C   0  0  0  0  0  0  0  0  0  0  0  0
  -27.4328  -11.7923   -6.6975 C   0  0  0  0  0  0  0  0  0  0  0  0
  -27.5403  -10.9243   -5.5298 N   0  0  0  0  0  0  0  0  0  0  0  0
  -27.1867   -9.5359   -5.8663 C   0  0  0  0  0  0  0  0  0  0  0  0
  -27.3153   -8.6206   -4.6278 C   0  0  0  0  0  0  0  0  0  0  0  0
  -28.6786   -8.5689   -4.0555 N   0  0  0  0  0  0  0  0  0  0  0  0
  -29.0726   -9.9712   -3.7600 C   0  0  0  0  0  0  0  0  0  0  0  0
  -28.8903  -10.9741   -4.9356 C   0  0  0  0  0  0  0  0  0  0  0  0
 28 29  1  0  0  0
 29 30  1  0  0  0
 29 34  1  0  0  0
 30 31  1  0  0  0
 31 32  1  0  0  0
 32 27  1  0  0  0
 32 33  1  0  0  0
 27  1  1  0  0  0
  1  2  1  0  0  0
  1  6  2  0  0  0
  2  3  2  0  0  0
  3  4  1  0  0  0
  4  5  2  0  0  0
  4 12  1  0  0  0
  5  6  1  0  0  0
  5  7  1  0  0  0
  7  8  1  0  0  0
  8  9  1  0  0  0
  8 12  2  0  0  0
  9 14  1  0  0  0
  9 10  2  0  0  0
 14 15  2  0  0  0
 14 18  1  0  0  0
 15 16  1  0  0  0
 16 17  1  0  0  0
 17 19  1  0  0  0
 17 18  2  0  0  0
 19 20  3  0  0  0
 20 21  1  0  0  0
 21 22  1  0  0  0
 22 23  1  0  0  0
 23 24  1  0  0  0
 24 25  1  0  0  0
 24 26  1  0  0  0
 25 26  1  0  0  0
 10 11  1  0  0  0
 11 12  1  0  0  0
 11 13  1  0  0  0
 33 34  1  0  0  0
M  END
> <minimizedAffinity>
-8.35079

$$$$
