CHEMBL3974328


 34 38  0  0  0  0  0  0  0  0999 V2000
  -13.0788   -2.5495  -14.3632 C   0  0  0  0  0  0  0  0  0  0  0  0
  -12.7574   -2.1366  -15.6661 C   0  0  0  0  0  0  0  0  0  0  0  0
  -13.2194   -0.9468  -16.2170 C   0  0  0  0  0  0  0  0  0  0  0  0
  -12.8693   -0.6482  -17.4710 N   0  0  0  0  0  0  0  0  0  0  0  0
  -13.3590    0.4836  -17.9827 C   0  0  0  0  0  0  0  0  0  0  0  0
  -14.1477    1.3541  -17.3517 N   0  0  0  0  0  0  0  0  0  0  0  0
  -14.4825    1.0592  -16.0842 C   0  0  0  0  0  0  0  0  0  0  0  0
  -14.0396   -0.1205  -15.4465 C   0  0  0  0  0  0  0  0  0  0  0  0
  -14.3723   -0.5232  -14.1289 C   0  0  0  0  0  0  0  0  0  0  0  0
  -13.8704   -1.7068  -13.5734 C   0  0  0  0  0  0  0  0  0  0  0  0
  -15.3225    1.9509  -15.3715 N   0  0  0  0  0  0  0  0  0  0  0  0
  -14.7940    2.7558  -15.0527 H   0  0  0  0  0  0  0  0  0  0  0  0
  -16.7064    2.1796  -15.4827 C   0  0  0  0  0  0  0  0  0  0  0  0
  -17.1715    3.5035  -15.5054 C   0  0  0  0  0  0  0  0  0  0  0  0
  -18.5362    3.7944  -15.3982 C   0  0  0  0  0  0  0  0  0  0  0  0
  -19.4639    2.7608  -15.2596 C   0  0  0  0  0  0  0  0  0  0  0  0
  -21.2821    3.2409  -14.9985 Br  0  0  0  0  0  0  0  0  0  0  0  0
  -19.0250    1.4356  -15.2722 C   0  0  0  0  0  0  0  0  0  0  0  0
  -20.1053    0.0942  -15.1193 Cl  0  0  0  0  0  0  0  0  0  0  0  0
  -17.6565    1.1555  -15.3771 C   0  0  0  0  0  0  0  0  0  0  0  0
  -14.2871   -1.9107  -12.2841 O   0  0  0  0  0  0  0  0  0  0  0  0
  -15.5619   -2.5113  -12.0957 C   0  0  0  0  0  0  0  0  0  0  0  0
  -12.6605   -3.7438  -13.8314 O   0  0  0  0  0  0  0  0  0  0  0  0
  -14.1132   -8.3110  -13.5580 C   0  0  0  0  0  0  0  0  0  0  0  0
  -15.3488   -7.4077  -13.6437 C   0  0  0  0  0  0  0  0  0  0  0  0
  -14.9922   -6.1265  -13.1071 O   0  0  0  0  0  0  0  0  0  0  0  0
  -13.5660   -5.9724  -13.2335 C   0  0  0  0  0  0  0  0  0  0  0  0
  -13.2514   -4.9486  -14.3256 C   0  0  0  0  0  0  0  0  0  0  0  0
  -12.2482   -5.7002  -15.1912 C   0  0  0  0  0  0  0  0  0  0  0  0
  -12.6655   -7.0733  -15.1363 O   0  0  0  0  0  0  0  0  0  0  0  0
  -12.9994   -7.2877  -13.7525 C   0  0  0  0  0  0  0  0  0  0  0  0
  -12.5644   -9.4675  -12.0458 C   0  0  0  0  0  0  0  0  0  0  0  0
  -13.9232   -8.9849  -12.2535 N   0  0  0  0  0  0  0  0  0  0  0  0
  -14.1430   -8.3186  -11.5114 H   0  0  0  0  0  0  0  0  0  0  0  0
 32 33  1  0  0  0
 33 34  1  0  0  0
 24 25  1  0  0  0
 24 31  1  0  0  0
 24 33  1  0  0  0
 25 26  1  0  0  0
 26 27  1  0  0  0
 27 28  1  0  0  0
 27 31  1  0  0  0
 28 23  1  0  0  0
 28 29  1  0  0  0
 23  1  1  0  0  0
  1  2  1  0  0  0
  1 10  2  0  0  0
  2  3  2  0  0  0
  3  4  1  0  0  0
  3  8  1  0  0  0
  4  5  2  0  0  0
  5  6  1  0  0  0
  6  7  2  0  0  0
  7 11  1  0  0  0
  7  8  1  0  0  0
 11 13  1  0  0  0
 11 12  1  0  0  0
 13 14  1  0  0  0
 13 20  2  0  0  0
 14 15  2  0  0  0
 15 16  1  0  0  0
 16 17  1  0  0  0
 16 18  2  0  0  0
 18 19  1  0  0  0
 18 20  1  0  0  0
  8  9  2  0  0  0
  9 10  1  0  0  0
 10 21  1  0  0  0
 21 22  1  0  0  0
 29 30  1  0  0  0
 30 31  1  0  0  0
M  END
> <minimizedAffinity>
-7.25121

$$$$
