CHEMBL462231


 40 45  0  0  0  0  0  0  0  0999 V2000
  -25.3482  -10.5988   -3.7100 C   0  0  0  0  0  0  0  0  0  0  0  0
  -24.7992   -9.3190   -3.7542 C   0  0  0  0  0  0  0  0  0  0  0  0
  -25.6323   -8.2103   -3.8606 C   0  0  0  0  0  0  0  0  0  0  0  0
  -27.0218   -8.3515   -3.8492 C   0  0  0  0  0  0  0  0  0  0  0  0
  -27.5711   -9.6153   -3.6252 C   0  0  0  0  0  0  0  0  0  0  0  0
  -26.7307  -10.7306   -3.5746 C   0  0  0  0  0  0  0  0  0  0  0  0
  -27.2798  -11.9461   -3.4273 F   0  0  0  0  0  0  0  0  0  0  0  0
  -27.8802   -7.2511   -4.0434 N   0  0  0  0  0  0  0  0  0  0  0  0
  -28.5405   -6.9613   -5.2243 C   0  0  0  0  0  0  0  0  0  0  0  0
  -28.6215   -7.7325   -6.1834 O   0  0  0  0  0  0  0  0  0  0  0  0
  -28.0478   -6.6387   -3.2436 H   0  0  0  0  0  0  0  0  0  0  0  0
  -29.3026   -5.6518   -5.2693 C   0  0  0  0  0  0  0  0  0  0  0  0
  -30.4819   -5.6974   -4.2884 C   0  0  0  0  0  0  0  0  0  0  0  0
  -29.7767   -5.3890   -6.7050 C   0  0  0  0  0  0  0  0  0  0  0  0
  -29.6961   -3.8890   -6.8901 C   0  0  0  0  0  0  0  0  0  0  0  0
  -28.9240   -3.3887   -5.7768 N   0  0  0  0  0  0  0  0  0  0  0  0
  -28.5007   -4.4201   -4.9353 C   0  0  0  0  0  0  0  0  0  0  0  0
  -27.7175   -4.3759   -3.9941 O   0  0  0  0  0  0  0  0  0  0  0  0
  -28.8435   -2.0001   -5.4864 C   0  0  0  0  0  0  0  0  0  0  0  0
  -29.9920   -1.1967   -5.4309 C   0  0  0  0  0  0  0  0  0  0  0  0
  -29.8956    0.1894   -5.2762 C   0  0  0  0  0  0  0  0  0  0  0  0
  -28.6510    0.7964   -5.1657 C   0  0  0  0  0  0  0  0  0  0  0  0
  -27.5013    0.0151   -5.1904 C   0  0  0  0  0  0  0  0  0  0  0  0
  -27.5973   -1.3719   -5.3419 C   0  0  0  0  0  0  0  0  0  0  0  0
  -24.5969  -11.7505   -3.7919 O   0  0  0  0  0  0  0  0  0  0  0  0
  -25.7215  -11.6794   -8.2689 C   0  0  0  0  0  0  0  0  0  0  0  0
  -24.4253  -12.0703   -8.5179 C   0  0  0  0  0  0  0  0  0  0  0  0
  -23.6474  -12.1467   -7.3253 C   0  0  0  0  0  0  0  0  0  0  0  0
  -22.3249  -12.4656   -7.2692 N   0  0  0  0  0  0  0  0  0  0  0  0
  -21.7721  -12.4544   -6.0426 C   0  0  0  0  0  0  0  0  0  0  0  0
  -22.4449  -12.1836   -4.8668 C   0  0  0  0  0  0  0  0  0  0  0  0
  -23.8186  -11.9411   -4.9184 C   0  0  0  0  0  0  0  0  0  0  0  0
  -24.4059  -11.8663   -6.1883 C   0  0  0  0  0  0  0  0  0  0  0  0
  -26.0203  -11.4676   -6.6059 S   0  0  0  0  0  0  0  0  0  0  0  0
  -28.1945   -9.8238  -12.1578 C   0  0  0  0  0  0  0  0  0  0  0  0
  -27.8249  -10.6268  -11.0210 N   0  0  0  0  0  0  0  0  0  0  0  0
  -28.4247  -11.7779  -10.6048 C   0  0  0  0  0  0  0  0  0  0  0  0
  -27.7778  -12.3162   -9.5934 N   0  0  0  0  0  0  0  0  0  0  0  0
  -26.7400  -11.4547   -9.3292 C   0  0  0  0  0  0  0  0  0  0  0  0
  -26.7669  -10.3833  -10.1948 C   0  0  0  0  0  0  0  0  0  0  0  0
 35 36  1  0  0  0
 36 37  1  0  0  0
 36 40  1  0  0  0
 37 38  2  0  0  0
 38 39  1  0  0  0
 39 26  1  0  0  0
 39 40  2  0  0  0
 26 27  2  0  0  0
 26 34  1  0  0  0
 27 28  1  0  0  0
 28 29  1  0  0  0
 28 33  2  0  0  0
 29 30  2  0  0  0
 30 31  1  0  0  0
 31 32  2  0  0  0
 32 25  1  0  0  0
 32 33  1  0  0  0
 25  1  1  0  0  0
  1  2  1  0  0  0
  1  6  2  0  0  0
  2  3  2  0  0  0
  3  4  1  0  0  0
  4  8  1  0  0  0
  4  5  2  0  0  0
  8  9  1  0  0  0
  8 11  1  0  0  0
  9 10  2  0  0  0
  9 12  1  0  0  0
 12 13  1  0  0  0
 12 14  1  0  0  0
 12 17  1  0  0  0
 14 15  1  0  0  0
 15 16  1  0  0  0
 16 19  1  0  0  0
 16 17  1  0  0  0
 19 20  1  0  0  0
 19 24  2  0  0  0
 20 21  2  0  0  0
 21 22  1  0  0  0
 22 23  2  0  0  0
 23 24  1  0  0  0
 17 18  2  0  0  0
  5  6  1  0  0  0
  6  7  1  0  0  0
 33 34  1  0  0  0
M  END
> <minimizedAffinity>
-9.62907

$$$$
