CHEMBL272902


 34 36  0  0  0  0  0  0  0  0999 V2000
  -27.9095   -0.3601   -6.7685 C   0  0  0  0  0  0  0  0  0  0  0  0
  -28.2068   -1.8218   -6.9574 C   0  0  0  0  0  0  0  0  0  0  0  0
  -28.6743   -2.5414   -5.8397 C   0  0  0  0  0  0  0  0  0  0  0  0
  -29.0224   -3.8901   -5.9393 C   0  0  0  0  0  0  0  0  0  0  0  0
  -28.8902   -4.5616   -7.1558 C   0  0  0  0  0  0  0  0  0  0  0  0
  -28.4312   -3.8644   -8.2756 C   0  0  0  0  0  0  0  0  0  0  0  0
  -28.0806   -2.5008   -8.1870 C   0  0  0  0  0  0  0  0  0  0  0  0
  -29.2950   -5.9933   -7.2315 C   0  0  0  0  0  0  0  0  0  0  0  0
  -30.4389   -6.2835   -6.9005 O   0  0  0  0  0  0  0  0  0  0  0  0
  -28.2942   -6.8758   -7.6061 N   0  0  0  0  0  0  0  0  0  0  0  0
  -27.3501   -6.5152   -7.6498 H   0  0  0  0  0  0  0  0  0  0  0  0
  -28.4288   -8.2752   -7.7413 C   0  0  0  0  0  0  0  0  0  0  0  0
  -28.6346   -9.1340   -6.6606 C   0  0  0  0  0  0  0  0  0  0  0  0
  -28.7148  -10.5147   -6.8535 C   0  0  0  0  0  0  0  0  0  0  0  0
  -28.5803  -11.0531   -8.1308 C   0  0  0  0  0  0  0  0  0  0  0  0
  -28.3875  -10.2111   -9.2337 C   0  0  0  0  0  0  0  0  0  0  0  0
  -28.3396   -8.8187   -9.0296 C   0  0  0  0  0  0  0  0  0  0  0  0
  -28.2030  -10.7785  -10.6189 C   0  0  0  0  0  0  0  0  0  0  0  0
  -29.2219  -10.4834  -11.4732 F   0  0  0  0  0  0  0  0  0  0  0  0
  -27.0673  -10.3287  -11.2204 F   0  0  0  0  0  0  0  0  0  0  0  0
  -28.1063  -12.1377  -10.6117 F   0  0  0  0  0  0  0  0  0  0  0  0
  -27.6805   -1.8774   -9.4820 C   0  0  0  0  0  0  0  0  0  0  0  0
  -28.3005   -0.8833   -9.8496 O   0  0  0  0  0  0  0  0  0  0  0  0
  -26.7059   -2.5185  -10.2252 N   0  0  0  0  0  0  0  0  0  0  0  0
  -26.3752   -3.4153   -9.8956 H   0  0  0  0  0  0  0  0  0  0  0  0
  -26.2429   -2.0966  -11.4960 C   0  0  0  0  0  0  0  0  0  0  0  0
  -26.9869   -2.0407  -12.6583 C   0  0  0  0  0  0  0  0  0  0  0  0
  -26.4911   -1.6495  -13.8578 N   0  0  0  0  0  0  0  0  0  0  0  0
  -25.2068   -1.2899  -13.8905 C   0  0  0  0  0  0  0  0  0  0  0  0
  -24.6775   -0.9329  -15.1117 N   0  0  0  0  0  0  0  0  0  0  0  0
  -24.3863   -1.3037  -12.8393 N   0  0  0  0  0  0  0  0  0  0  0  0
  -24.9314   -1.6970  -11.6618 C   0  0  0  0  0  0  0  0  0  0  0  0
  -25.2388   -1.3386  -15.8496 H   0  0  0  0  0  0  0  0  0  0  0  0
  -23.6862   -1.1252  -15.1250 H   0  0  0  0  0  0  0  0  0  0  0  0
  1  2  1  0  0  0
  2  3  1  0  0  0
  2  7  2  0  0  0
  3  4  2  0  0  0
  4  5  1  0  0  0
  5  8  1  0  0  0
  5  6  2  0  0  0
  8  9  2  0  0  0
  8 10  1  0  0  0
 10 12  1  0  0  0
 10 11  1  0  0  0
 12 13  1  0  0  0
 12 17  2  0  0  0
 13 14  2  0  0  0
 14 15  1  0  0  0
 15 16  2  0  0  0
 16 18  1  0  0  0
 16 17  1  0  0  0
 18 19  1  0  0  0
 18 20  1  0  0  0
 18 21  1  0  0  0
  6  7  1  0  0  0
  7 22  1  0  0  0
 22 23  2  0  0  0
 22 24  1  0  0  0
 24 26  1  0  0  0
 24 25  1  0  0  0
 26 27  1  0  0  0
 26 32  2  0  0  0
 27 28  2  0  0  0
 28 29  1  0  0  0
 29 30  1  0  0  0
 29 31  2  0  0  0
 30 33  1  0  0  0
 30 34  1  0  0  0
 31 32  1  0  0  0
M  END
> <minimizedAffinity>
-9.59862

$$$$
