CHEMBL3355009


 35 37  0  0  0  0  0  0  0  0999 V2000
  -14.0414   -5.3705  -12.2944 C   0  0  0  0  0  0  0  0  0  0  0  0
  -13.3197   -4.2905  -12.8292 C   0  0  0  0  0  0  0  0  0  0  0  0
  -13.8485   -2.9886  -12.7861 C   0  0  0  0  0  0  0  0  0  0  0  0
  -15.0973   -2.7456  -12.1942 C   0  0  0  0  0  0  0  0  0  0  0  0
  -15.7829   -3.8267  -11.6381 C   0  0  0  0  0  0  0  0  0  0  0  0
  -16.9703   -3.6279  -11.0481 F   0  0  0  0  0  0  0  0  0  0  0  0
  -15.2776   -5.1222  -11.6870 C   0  0  0  0  0  0  0  0  0  0  0  0
  -13.7482   -7.6572  -13.4973 C   0  0  0  0  0  0  0  0  0  0  0  0
  -13.1735   -8.8761  -13.5190 C   0  0  0  0  0  0  0  0  0  0  0  0
  -12.3262   -9.3209  -12.3885 C   0  0  0  0  0  0  0  0  0  0  0  0
  -11.7824  -10.4207  -12.4010 O   0  0  0  0  0  0  0  0  0  0  0  0
  -12.1889   -8.4305  -11.3560 N   0  0  0  0  0  0  0  0  0  0  0  0
  -12.7736   -7.1892  -11.3337 C   0  0  0  0  0  0  0  0  0  0  0  0
  -13.5461   -6.7630  -12.3497 C   0  0  0  0  0  0  0  0  0  0  0  0
  -11.5891   -8.7315  -10.5993 H   0  0  0  0  0  0  0  0  0  0  0  0
  -14.5320   -7.1192  -14.4960 O   0  0  0  0  0  0  0  0  0  0  0  0
  -13.6222   -5.6750  -16.1746 C   0  0  0  0  0  0  0  0  0  0  0  0
  -13.9795   -7.1028  -15.8134 C   0  0  0  0  0  0  0  0  0  0  0  0
  -15.7488   -1.3870  -12.2335 C   0  0  0  0  0  0  0  0  0  0  0  0
  -15.0659   -0.3738  -13.1146 C   0  0  0  0  0  0  0  0  0  0  0  0
  -14.3245    0.4846  -12.6143 O   0  0  0  0  0  0  0  0  0  0  0  0
  -15.3317   -0.4834  -14.4624 N   0  0  0  0  0  0  0  0  0  0  0  0
  -16.2527   -0.7950  -14.7432 H   0  0  0  0  0  0  0  0  0  0  0  0
  -14.7158    0.4000  -15.3300 C   0  0  0  0  0  0  0  0  0  0  0  0
  -15.0598    1.7567  -15.5187 C   0  0  0  0  0  0  0  0  0  0  0  0
  -14.2929    2.1712  -16.5802 C   0  0  0  0  0  0  0  0  0  0  0  0
  -13.4689    1.1437  -16.9412 O   0  0  0  0  0  0  0  0  0  0  0  0
  -13.6947    0.0508  -16.1127 N   0  0  0  0  0  0  0  0  0  0  0  0
  -14.1667    3.4728  -17.3301 C   0  0  0  0  0  0  0  0  0  0  0  0
  -12.8410    4.1760  -16.9684 C   0  0  0  0  0  0  0  0  0  0  0  0
  -14.1299    3.1928  -18.8523 C   0  0  0  0  0  0  0  0  0  0  0  0
  -15.3653    4.3962  -17.0039 C   0  0  0  0  0  0  0  0  0  0  0  0
  -15.3951    4.7836  -15.7079 F   0  0  0  0  0  0  0  0  0  0  0  0
  -15.3568    5.5265  -17.7496 F   0  0  0  0  0  0  0  0  0  0  0  0
  -16.5507    3.7832  -17.2455 F   0  0  0  0  0  0  0  0  0  0  0  0
 17 18  1  0  0  0
 18 16  1  0  0  0
 16  8  1  0  0  0
  8  9  2  0  0  0
  8 14  1  0  0  0
  9 10  1  0  0  0
 10 11  2  0  0  0
 10 12  1  0  0  0
 12 13  1  0  0  0
 12 15  1  0  0  0
 13 14  2  0  0  0
 14  1  1  0  0  0
  1  2  1  0  0  0
  1  7  2  0  0  0
  2  3  2  0  0  0
  3  4  1  0  0  0
  4 19  1  0  0  0
  4  5  2  0  0  0
 19 20  1  0  0  0
 20 21  2  0  0  0
 20 22  1  0  0  0
 22 24  1  0  0  0
 22 23  1  0  0  0
 24 25  1  0  0  0
 24 28  2  0  0  0
 25 26  2  0  0  0
 26 29  1  0  0  0
 26 27  1  0  0  0
 29 30  1  0  0  0
 29 31  1  0  0  0
 29 32  1  0  0  0
 32 33  1  0  0  0
 32 34  1  0  0  0
 32 35  1  0  0  0
 27 28  1  0  0  0
  5  6  1  0  0  0
  5  7  1  0  0  0
M  END
> <minimizedAffinity>
-7.39701

$$$$
