CHEMBL298566


 38 42  0  0  0  0  0  0  0  0999 V2000
  -29.2630   -3.6206   -6.7380 C   0  0  0  0  0  0  0  0  0  0  0  0
  -29.8066   -2.9535   -5.6671 N   0  0  0  0  0  0  0  0  0  0  0  0
  -29.3855   -1.6587   -5.6739 C   0  0  0  0  0  0  0  0  0  0  0  0
  -28.5260   -1.4770   -6.7389 C   0  0  0  0  0  0  0  0  0  0  0  0
  -28.4445   -2.7267   -7.4404 C   0  0  0  0  0  0  0  0  0  0  0  0
  -27.8999   -0.1472   -7.0245 C   0  0  0  0  0  0  0  0  0  0  0  0
  -28.0850    0.8410   -5.8486 C   0  0  0  0  0  0  0  0  0  0  0  0
  -29.4893    0.7624   -5.2218 C   0  0  0  0  0  0  0  0  0  0  0  0
  -29.7810   -0.6403   -4.6674 C   0  0  0  0  0  0  0  0  0  0  0  0
  -30.4279   -3.3614   -4.9833 H   0  0  0  0  0  0  0  0  0  0  0  0
  -30.3495   -9.5693   -7.0305 C   0  0  0  0  0  0  0  0  0  0  0  0
  -29.7125  -10.1917   -5.9371 C   0  0  0  0  0  0  0  0  0  0  0  0
  -28.9500   -9.4363   -5.0480 C   0  0  0  0  0  0  0  0  0  0  0  0
  -28.8686   -8.0739   -5.2748 C   0  0  0  0  0  0  0  0  0  0  0  0
  -29.5232   -7.4289   -6.3296 C   0  0  0  0  0  0  0  0  0  0  0  0
  -30.2696   -8.1749   -7.2335 C   0  0  0  0  0  0  0  0  0  0  0  0
  -29.2022   -5.9928   -6.1729 C   0  0  0  0  0  0  0  0  0  0  0  0
  -29.6656   -4.9740   -6.9162 C   0  0  0  0  0  0  0  0  0  0  0  0
  -28.2605   -5.8784   -4.9953 C   0  0  0  0  0  0  0  0  0  0  0  0
  -27.7120   -4.9003   -4.5323 O   0  0  0  0  0  0  0  0  0  0  0  0
  -28.1403   -7.1702   -4.5119 N   0  0  0  0  0  0  0  0  0  0  0  0
  -27.5746   -7.3871   -3.7074 H   0  0  0  0  0  0  0  0  0  0  0  0
  -31.3754  -10.5827   -8.0926 S   0  0  0  0  0  0  0  0  0  0  0  0
  -30.4966  -11.1782   -9.0732 O   0  0  0  0  0  0  0  0  0  0  0  0
  -32.5031   -9.7639   -8.4979 O   0  0  0  0  0  0  0  0  0  0  0  0
  -33.2991  -11.5139   -6.3599 C   0  0  0  0  0  0  0  0  0  0  0  0
  -31.9812  -11.8692   -7.0198 C   0  0  0  0  0  0  0  0  0  0  0  0
  -27.6297   -2.9937   -8.6945 C   0  0  0  0  0  0  0  0  0  0  0  0
  -27.3213   -1.7012   -9.4498 C   0  0  0  0  0  0  0  0  0  0  0  0
  -27.5784   -1.6609  -10.9538 C   0  0  0  0  0  0  0  0  0  0  0  0
  -26.3141   -1.9242  -11.6889 N   0  0  0  0  0  0  0  0  0  0  0  0
  -25.1370   -1.3808  -10.9976 C   0  0  0  0  0  0  0  0  0  0  0  0
  -23.8427   -1.7352  -11.7129 C   0  0  0  0  0  0  0  0  0  0  0  0
  -23.8477   -1.3236  -13.1710 C   0  0  0  0  0  0  0  0  0  0  0  0
  -23.6860    0.0910  -13.2718 O   0  0  0  0  0  0  0  0  0  0  0  0
  -25.1253   -1.7857  -13.8622 C   0  0  0  0  0  0  0  0  0  0  0  0
  -26.3860   -1.4211  -13.0692 C   0  0  0  0  0  0  0  0  0  0  0  0
  -24.4625    0.5205  -12.8768 H   0  0  0  0  0  0  0  0  0  0  0  0
 26 27  1  0  0  0
 27 23  1  0  0  0
 23 24  2  0  0  0
 23 25  2  0  0  0
 23 11  1  0  0  0
 11 12  1  0  0  0
 11 16  2  0  0  0
 12 13  2  0  0  0
 13 14  1  0  0  0
 14 15  2  0  0  0
 14 21  1  0  0  0
 15 16  1  0  0  0
 15 17  1  0  0  0
 17 18  2  0  0  0
 17 19  1  0  0  0
 18  1  1  0  0  0
  1  2  1  0  0  0
  1  5  2  0  0  0
  2  3  1  0  0  0
  2 10  1  0  0  0
  3  4  2  0  0  0
  3  9  1  0  0  0
  4  5  1  0  0  0
  4  6  1  0  0  0
  5 28  1  0  0  0
 28 29  1  0  0  0
 29 30  1  0  0  0
 30 31  1  0  0  0
 31 32  1  0  0  0
 31 37  1  0  0  0
 32 33  1  0  0  0
 33 34  1  0  0  0
 34 35  1  0  0  0
 34 36  1  0  0  0
 35 38  1  0  0  0
 36 37  1  0  0  0
  6  7  1  0  0  0
  7  8  1  0  0  0
  8  9  1  0  0  0
 19 20  2  0  0  0
 19 21  1  0  0  0
 21 22  1  0  0  0
M  END
> <minimizedAffinity>
-10.66827

$$$$
