CHEMBL3919644


 35 38  0  0  0  0  0  0  0  0999 V2000
  -30.3047   -9.3013   -7.6551 C   0  0  0  0  0  0  0  0  0  0  0  0
  -30.7659   -8.1959   -7.0454 C   0  0  0  0  0  0  0  0  0  0  0  0
  -32.2570   -8.2625   -7.0395 C   0  0  0  0  0  0  0  0  0  0  0  0
  -33.0278   -7.5170   -6.4675 O   0  0  0  0  0  0  0  0  0  0  0  0
  -32.6066   -9.3746   -7.7074 N   0  0  0  0  0  0  0  0  0  0  0  0
  -31.5192  -10.0957   -8.0128 C   0  0  0  0  0  0  0  0  0  0  0  0
  -31.5424  -11.2339   -8.4416 O   0  0  0  0  0  0  0  0  0  0  0  0
  -33.5476   -9.7241   -7.7262 H   0  0  0  0  0  0  0  0  0  0  0  0
  -30.1610   -7.1825   -6.2549 C   0  0  0  0  0  0  0  0  0  0  0  0
  -30.7058   -6.8683   -5.0278 C   0  0  0  0  0  0  0  0  0  0  0  0
  -30.7875   -5.4941   -5.0110 N   0  0  0  0  0  0  0  0  0  0  0  0
  -29.9990   -4.9562   -6.0109 C   0  0  0  0  0  0  0  0  0  0  0  0
  -29.8002   -3.6288   -6.4241 C   0  0  0  0  0  0  0  0  0  0  0  0
  -28.9490   -3.3930   -7.5067 C   0  0  0  0  0  0  0  0  0  0  0  0
  -28.3042   -4.4428   -8.1513 C   0  0  0  0  0  0  0  0  0  0  0  0
  -28.5743   -5.7690   -7.7924 C   0  0  0  0  0  0  0  0  0  0  0  0
  -29.4558   -6.0355   -6.7223 C   0  0  0  0  0  0  0  0  0  0  0  0
  -31.8010   -4.7820   -4.2513 C   0  0  0  0  0  0  0  0  0  0  0  0
  -31.3335   -4.2830   -2.8839 C   0  0  0  0  0  0  0  0  0  0  0  0
  -30.5992   -2.9477   -2.9797 C   0  0  0  0  0  0  0  0  0  0  0  0
  -29.1776   -3.1539   -2.7355 N   0  0  0  0  0  0  0  0  0  0  0  0
  -29.0373   -3.4929   -1.7865 H   0  0  0  0  0  0  0  0  0  0  0  0
  -28.6979   -2.2628   -2.8009 H   0  0  0  0  0  0  0  0  0  0  0  0
  -26.9890  -10.2135   -9.2702 C   0  0  0  0  0  0  0  0  0  0  0  0
  -28.3233   -9.8153   -9.0864 C   0  0  0  0  0  0  0  0  0  0  0  0
  -28.9243   -9.7734   -7.8185 C   0  0  0  0  0  0  0  0  0  0  0  0
  -28.1597  -10.1650   -6.7177 C   0  0  0  0  0  0  0  0  0  0  0  0
  -26.8415  -10.6137   -6.8782 C   0  0  0  0  0  0  0  0  0  0  0  0
  -26.2359  -10.6098   -8.1521 C   0  0  0  0  0  0  0  0  0  0  0  0
  -27.1020   -9.6881  -11.5984 C   0  0  0  0  0  0  0  0  0  0  0  0
  -26.4205  -10.3128  -10.5146 O   0  0  0  0  0  0  0  0  0  0  0  0
  -26.0683  -11.0167   -5.8135 O   0  0  0  0  0  0  0  0  0  0  0  0
  -25.8905  -10.0413   -4.7897 C   0  0  0  0  0  0  0  0  0  0  0  0
  -24.9431  -11.0788   -8.1883 O   0  0  0  0  0  0  0  0  0  0  0  0
  -24.7714  -12.4627   -8.4666 C   0  0  0  0  0  0  0  0  0  0  0  0
 30 31  1  0  0  0
 31 24  1  0  0  0
 24 25  1  0  0  0
 24 29  2  0  0  0
 25 26  2  0  0  0
 26  1  1  0  0  0
 26 27  1  0  0  0
  1  2  2  0  0  0
  1  6  1  0  0  0
  2  9  1  0  0  0
  2  3  1  0  0  0
  9 10  2  0  0  0
  9 17  1  0  0  0
 10 11  1  0  0  0
 11 18  1  0  0  0
 11 12  1  0  0  0
 18 19  1  0  0  0
 19 20  1  0  0  0
 20 21  1  0  0  0
 21 22  1  0  0  0
 21 23  1  0  0  0
 12 13  1  0  0  0
 12 17  2  0  0  0
 13 14  2  0  0  0
 14 15  1  0  0  0
 15 16  2  0  0  0
 16 17  1  0  0  0
  3  4  2  0  0  0
  3  5  1  0  0  0
  5  6  1  0  0  0
  5  8  1  0  0  0
  6  7  2  0  0  0
 27 28  2  0  0  0
 28 32  1  0  0  0
 28 29  1  0  0  0
 32 33  1  0  0  0
 29 34  1  0  0  0
 34 35  1  0  0  0
M  END
> <minimizedAffinity>
-7.16858

$$$$
