CHEMBL4790527


 46 51  0  0  0  0  0  0  0  0999 V2000
  -28.5400   -3.5376   -4.0900 C   0  0  0  0  0  0  0  0  0  0  0  0
  -27.6334   -4.5954   -4.2174 C   0  0  0  0  0  0  0  0  0  0  0  0
  -28.0906   -5.9142   -4.4088 C   0  0  0  0  0  0  0  0  0  0  0  0
  -29.4622   -6.2040   -4.4681 C   0  0  0  0  0  0  0  0  0  0  0  0
  -30.3504   -5.1248   -4.4073 C   0  0  0  0  0  0  0  0  0  0  0  0
  -29.9018   -3.8220   -4.1872 C   0  0  0  0  0  0  0  0  0  0  0  0
  -30.8290   -2.8688   -4.0081 F   0  0  0  0  0  0  0  0  0  0  0  0
  -29.9100   -7.5458   -4.5107 N   0  0  0  0  0  0  0  0  0  0  0  0
  -30.7226   -7.7483   -3.9255 H   0  0  0  0  0  0  0  0  0  0  0  0
  -29.8154   -8.4525   -5.5981 C   0  0  0  0  0  0  0  0  0  0  0  0
  -30.6798   -8.3043   -6.6348 N   0  0  0  0  0  0  0  0  0  0  0  0
  -30.5817   -9.1048   -7.7144 C   0  0  0  0  0  0  0  0  0  0  0  0
  -29.6432  -10.1047   -7.8347 C   0  0  0  0  0  0  0  0  0  0  0  0
  -28.7614  -10.2981   -6.7790 C   0  0  0  0  0  0  0  0  0  0  0  0
  -27.7624  -11.2794   -6.8761 N   0  0  0  0  0  0  0  0  0  0  0  0
  -26.9079  -11.5134   -5.8338 C   0  0  0  0  0  0  0  0  0  0  0  0
  -26.8876  -10.8174   -4.6898 C   0  0  0  0  0  0  0  0  0  0  0  0
  -27.9025   -9.7219   -4.5209 C   0  0  0  0  0  0  0  0  0  0  0  0
  -28.0023   -9.1004   -3.4688 O   0  0  0  0  0  0  0  0  0  0  0  0
  -28.8341   -9.4551   -5.6515 C   0  0  0  0  0  0  0  0  0  0  0  0
  -27.8444  -11.9896   -7.5955 H   0  0  0  0  0  0  0  0  0  0  0  0
  -25.9601  -11.1923   -3.6178 C   0  0  0  0  0  0  0  0  0  0  0  0
  -24.6462  -10.6993   -3.5950 C   0  0  0  0  0  0  0  0  0  0  0  0
  -23.7679  -11.0862   -2.5783 C   0  0  0  0  0  0  0  0  0  0  0  0
  -24.2038  -11.9622   -1.5918 C   0  0  0  0  0  0  0  0  0  0  0  0
  -23.3619  -12.3310   -0.6197 F   0  0  0  0  0  0  0  0  0  0  0  0
  -25.4972  -12.4655   -1.6007 C   0  0  0  0  0  0  0  0  0  0  0  0
  -26.3787  -12.0807   -2.6148 C   0  0  0  0  0  0  0  0  0  0  0  0
  -28.0124   -2.3013   -3.7659 O   0  0  0  0  0  0  0  0  0  0  0  0
  -27.8915   -1.9844   -8.8719 C   0  0  0  0  0  0  0  0  0  0  0  0
  -28.0415   -0.7093   -8.2874 C   0  0  0  0  0  0  0  0  0  0  0  0
  -28.1348   -0.4914   -6.9148 C   0  0  0  0  0  0  0  0  0  0  0  0
  -28.3365    0.7565   -6.4669 N   0  0  0  0  0  0  0  0  0  0  0  0
  -28.4617    0.9196   -5.1394 C   0  0  0  0  0  0  0  0  0  0  0  0
  -28.4015   -0.0414   -4.2175 N   0  0  0  0  0  0  0  0  0  0  0  0
  -28.1373   -1.2740   -4.6964 C   0  0  0  0  0  0  0  0  0  0  0  0
  -28.0353   -1.5899   -6.0632 C   0  0  0  0  0  0  0  0  0  0  0  0
  -27.8543   -2.8817   -6.6262 C   0  0  0  0  0  0  0  0  0  0  0  0
  -27.7718   -3.0886   -8.0191 C   0  0  0  0  0  0  0  0  0  0  0  0
  -27.7279   -4.4133   -8.3575 O   0  0  0  0  0  0  0  0  0  0  0  0
  -28.7585   -5.2591   -7.8583 C   0  0  0  0  0  0  0  0  0  0  0  0
  -27.9305   -1.9087  -10.2443 O   0  0  0  0  0  0  0  0  0  0  0  0
  -26.7113   -1.7273  -10.9442 C   0  0  0  0  0  0  0  0  0  0  0  0
  -26.8614   -1.8168  -12.4599 C   0  0  0  0  0  0  0  0  0  0  0  0
  -24.9588   -0.4511  -12.0351 C   0  0  0  0  0  0  0  0  0  0  0  0
  -25.7182   -1.1488  -13.0046 O   0  0  0  0  0  0  0  0  0  0  0  0
 45 46  1  0  0  0
 46 44  1  0  0  0
 44 43  1  0  0  0
 43 42  1  0  0  0
 42 30  1  0  0  0
 30 31  1  0  0  0
 30 39  2  0  0  0
 31 32  2  0  0  0
 32 33  1  0  0  0
 32 37  1  0  0  0
 33 34  2  0  0  0
 34 35  1  0  0  0
 35 36  2  0  0  0
 36 29  1  0  0  0
 36 37  1  0  0  0
 29  1  1  0  0  0
  1  2  1  0  0  0
  1  6  2  0  0  0
  2  3  2  0  0  0
  3  4  1  0  0  0
  4  8  1  0  0  0
  4  5  2  0  0  0
  8 10  1  0  0  0
  8  9  1  0  0  0
 10 11  1  0  0  0
 10 20  2  0  0  0
 11 12  2  0  0  0
 12 13  1  0  0  0
 13 14  2  0  0  0
 14 15  1  0  0  0
 14 20  1  0  0  0
 15 16  1  0  0  0
 15 21  1  0  0  0
 16 17  2  0  0  0
 17 22  1  0  0  0
 17 18  1  0  0  0
 22 23  1  0  0  0
 22 28  2  0  0  0
 23 24  2  0  0  0
 24 25  1  0  0  0
 25 26  1  0  0  0
 25 27  2  0  0  0
 27 28  1  0  0  0
 18 19  2  0  0  0
 18 20  1  0  0  0
  5  6  1  0  0  0
  6  7  1  0  0  0
 37 38  2  0  0  0
 38 39  1  0  0  0
 39 40  1  0  0  0
 40 41  1  0  0  0
M  END
> <minimizedAffinity>
-9.23774

$$$$
