CHEMBL3628536


 22 25  0  0  0  0  0  0  0  0999 V2000
  -16.0686    0.7359  -14.9317 C   0  0  0  0  0  0  0  0  0  0  0  0
  -14.8781    0.9169  -15.5312 N   0  0  0  0  0  0  0  0  0  0  0  0
  -13.8926    0.0573  -15.2286 C   0  0  0  0  0  0  0  0  0  0  0  0
  -14.0705   -0.9964  -14.3760 C   0  0  0  0  0  0  0  0  0  0  0  0
  -15.2694   -1.0239  -13.6854 C   0  0  0  0  0  0  0  0  0  0  0  0
  -16.2723   -0.1536  -13.9402 N   0  0  0  0  0  0  0  0  0  0  0  0
  -15.5568   -2.2057  -12.8474 C   0  0  0  0  0  0  0  0  0  0  0  0
  -15.8308   -2.1365  -11.4774 C   0  0  0  0  0  0  0  0  0  0  0  0
  -16.0091   -3.3125  -10.7341 C   0  0  0  0  0  0  0  0  0  0  0  0
  -16.0322   -4.5573  -11.3685 C   0  0  0  0  0  0  0  0  0  0  0  0
  -15.7157   -4.6516  -12.7184 C   0  0  0  0  0  0  0  0  0  0  0  0
  -15.3540   -3.4920  -13.4025 C   0  0  0  0  0  0  0  0  0  0  0  0
  -14.1926   -3.6579  -14.7868 S   0  0  0  0  0  0  0  0  0  0  0  0
  -13.1696   -2.1875  -14.3137 C   0  0  0  0  0  0  0  0  0  0  0  0
  -17.1143    1.4378  -15.5351 N   0  0  0  0  0  0  0  0  0  0  0  0
  -16.7904    1.8405  -16.4030 H   0  0  0  0  0  0  0  0  0  0  0  0
  -21.0586    2.3041  -14.3528 C   0  0  0  0  0  0  0  0  0  0  0  0
  -20.7297    1.0240  -14.7844 C   0  0  0  0  0  0  0  0  0  0  0  0
  -19.4357    0.7355  -15.1938 C   0  0  0  0  0  0  0  0  0  0  0  0
  -18.4296    1.7060  -15.1536 C   0  0  0  0  0  0  0  0  0  0  0  0
  -18.7885    3.0090  -14.7608 C   0  0  0  0  0  0  0  0  0  0  0  0
  -20.0938    3.3076  -14.3610 C   0  0  0  0  0  0  0  0  0  0  0  0
 17 18  1  0  0  0
 17 22  2  0  0  0
 18 19  2  0  0  0
 19 20  1  0  0  0
 20 15  1  0  0  0
 20 21  2  0  0  0
 15  1  1  0  0  0
 15 16  1  0  0  0
  1  2  1  0  0  0
  1  6  2  0  0  0
  2  3  2  0  0  0
  3  4  1  0  0  0
  4  5  2  0  0  0
  4 14  1  0  0  0
  5  6  1  0  0  0
  5  7  1  0  0  0
  7  8  1  0  0  0
  7 12  2  0  0  0
  8  9  2  0  0  0
  9 10  1  0  0  0
 10 11  2  0  0  0
 11 12  1  0  0  0
 12 13  1  0  0  0
 13 14  1  0  0  0
 21 22  1  0  0  0
M  END
> <minimizedAffinity>
-8.37019

$$$$
