CHEMBL3690538


 34 37  0  0  0  0  0  0  0  0999 V2000
  -15.6224   -2.6667  -12.4922 C   0  0  0  0  0  0  0  0  0  0  0  0
  -15.8666   -2.3365  -11.1601 C   0  0  0  0  0  0  0  0  0  0  0  0
  -15.4557   -3.1825  -10.1350 C   0  0  0  0  0  0  0  0  0  0  0  0
  -14.8216   -4.3818  -10.4395 C   0  0  0  0  0  0  0  0  0  0  0  0
  -14.6667   -4.7995  -11.7647 C   0  0  0  0  0  0  0  0  0  0  0  0
  -15.0363   -3.9093  -12.7896 C   0  0  0  0  0  0  0  0  0  0  0  0
  -14.1711   -6.1467  -12.0892 C   0  0  0  0  0  0  0  0  0  0  0  0
  -13.7251   -7.1590  -11.2537 C   0  0  0  0  0  0  0  0  0  0  0  0
  -13.2777   -8.2500  -11.9487 N   0  0  0  0  0  0  0  0  0  0  0  0
  -13.4274   -7.9344  -13.2167 C   0  0  0  0  0  0  0  0  0  0  0  0
  -13.1040   -8.6647  -14.3993 C   0  0  0  0  0  0  0  0  0  0  0  0
  -13.3165   -8.1403  -15.6327 C   0  0  0  0  0  0  0  0  0  0  0  0
  -13.9444   -6.8211  -15.7354 C   0  0  0  0  0  0  0  0  0  0  0  0
  -14.2152   -6.1141  -14.6307 C   0  0  0  0  0  0  0  0  0  0  0  0
  -13.9712   -6.6621  -13.3703 N   0  0  0  0  0  0  0  0  0  0  0  0
  -12.9599   -8.9404  -16.7977 C   0  0  0  0  0  0  0  0  0  0  0  0
  -13.1868  -10.2602  -16.9208 C   0  0  0  0  0  0  0  0  0  0  0  0
  -12.8333  -11.0260  -18.1237 C   0  0  0  0  0  0  0  0  0  0  0  0
  -11.5631  -11.5834  -18.2593 C   0  0  0  0  0  0  0  0  0  0  0  0
  -11.2739  -12.3134  -19.4110 C   0  0  0  0  0  0  0  0  0  0  0  0
  -12.2489  -12.4659  -20.3862 C   0  0  0  0  0  0  0  0  0  0  0  0
  -13.4859  -11.8808  -20.1684 C   0  0  0  0  0  0  0  0  0  0  0  0
  -13.7928  -11.1633  -19.0671 N   0  0  0  0  0  0  0  0  0  0  0  0
  -15.6581    0.3052  -12.6367 O   0  0  0  0  0  0  0  0  0  0  0  0
  -15.9471   -0.4375  -13.5673 C   0  0  0  0  0  0  0  0  0  0  0  0
  -16.3120    0.0697  -14.7962 N   0  0  0  0  0  0  0  0  0  0  0  0
  -15.9490   -1.8129  -13.5688 N   0  0  0  0  0  0  0  0  0  0  0  0
  -16.9471   -0.5070  -15.3292 H   0  0  0  0  0  0  0  0  0  0  0  0
  -16.1131   -2.2585  -14.4594 H   0  0  0  0  0  0  0  0  0  0  0  0
  -16.4982    1.5187  -14.9314 C   0  0  0  0  0  0  0  0  0  0  0  0
  -17.9519    1.9635  -15.1435 C   0  0  0  0  0  0  0  0  0  0  0  0
  -18.0870    2.7308  -16.2514 F   0  0  0  0  0  0  0  0  0  0  0  0
  -18.8008    0.9223  -15.2480 F   0  0  0  0  0  0  0  0  0  0  0  0
  -18.3623    2.7207  -14.0951 F   0  0  0  0  0  0  0  0  0  0  0  0
 24 25  2  0  0  0
 25 26  1  0  0  0
 25 27  1  0  0  0
 26 30  1  0  0  0
 26 28  1  0  0  0
 30 31  1  0  0  0
 31 32  1  0  0  0
 31 33  1  0  0  0
 31 34  1  0  0  0
 27  1  1  0  0  0
 27 29  1  0  0  0
  1  2  1  0  0  0
  1  6  2  0  0  0
  2  3  2  0  0  0
  3  4  1  0  0  0
  4  5  2  0  0  0
  5  7  1  0  0  0
  5  6  1  0  0  0
  7  8  2  0  0  0
  7 15  1  0  0  0
  8  9  1  0  0  0
  9 10  2  0  0  0
 10 11  1  0  0  0
 10 15  1  0  0  0
 11 12  2  0  0  0
 12 16  1  0  0  0
 12 13  1  0  0  0
 16 17  2  0  0  0
 17 18  1  0  0  0
 18 19  1  0  0  0
 18 23  2  0  0  0
 19 20  2  0  0  0
 20 21  1  0  0  0
 21 22  2  0  0  0
 22 23  1  0  0  0
 13 14  2  0  0  0
 14 15  1  0  0  0
M  END
> <minimizedAffinity>
-8.21363

$$$$
