CHEMBL377995


 30 33  0  0  0  0  0  0  0  0999 V2000
  -27.2578   12.0160  -13.6333 C   0  0  0  0  0  0  0  0  0  0  0  0
  -26.2623   12.4686  -12.8983 N   0  0  0  0  0  0  0  0  0  0  0  0
  -26.7530   12.6452  -11.6251 N   0  0  0  0  0  0  0  0  0  0  0  0
  -28.0255   12.3093  -11.6591 C   0  0  0  0  0  0  0  0  0  0  0  0
  -28.4075   11.8785  -12.9070 O   0  0  0  0  0  0  0  0  0  0  0  0
  -29.0449   12.3023  -10.6138 C   0  0  0  0  0  0  0  0  0  0  0  0
  -28.6675   12.5905   -9.2864 C   0  0  0  0  0  0  0  0  0  0  0  0
  -29.6113   12.6589   -8.2668 C   0  0  0  0  0  0  0  0  0  0  0  0
  -30.9290   12.4302   -8.5964 C   0  0  0  0  0  0  0  0  0  0  0  0
  -31.3389   12.1295   -9.8428 N   0  0  0  0  0  0  0  0  0  0  0  0
  -30.4090   12.0575  -10.8450 C   0  0  0  0  0  0  0  0  0  0  0  0
  -31.0215   11.7445  -12.1931 C   0  0  0  0  0  0  0  0  0  0  0  0
  -32.5139   12.0537  -12.3902 C   0  0  0  0  0  0  0  0  0  0  0  0
  -33.4395   10.9070  -12.7114 C   0  0  0  0  0  0  0  0  0  0  0  0
  -34.4387   10.9895  -13.6831 C   0  0  0  0  0  0  0  0  0  0  0  0
  -35.2181    9.8681  -13.9247 C   0  0  0  0  0  0  0  0  0  0  0  0
  -35.0682    8.6891  -13.2926 N   0  0  0  0  0  0  0  0  0  0  0  0
  -34.0827    8.6189  -12.3705 C   0  0  0  0  0  0  0  0  0  0  0  0
  -33.2558    9.6826  -12.0580 C   0  0  0  0  0  0  0  0  0  0  0  0
  -27.2133   11.6364  -14.9210 N   0  0  0  0  0  0  0  0  0  0  0  0
  -28.0092   11.0857  -15.2196 H   0  0  0  0  0  0  0  0  0  0  0  0
  -23.9578   11.2193  -17.6176 C   0  0  0  0  0  0  0  0  0  0  0  0
  -24.3467   12.4932  -17.1861 C   0  0  0  0  0  0  0  0  0  0  0  0
  -25.4263   12.6590  -16.3065 C   0  0  0  0  0  0  0  0  0  0  0  0
  -26.1287   11.5583  -15.8111 C   0  0  0  0  0  0  0  0  0  0  0  0
  -25.7597   10.2880  -16.2810 C   0  0  0  0  0  0  0  0  0  0  0  0
  -24.6862   10.1167  -17.1603 C   0  0  0  0  0  0  0  0  0  0  0  0
  -22.7451   12.1852  -19.6141 C   0  0  0  0  0  0  0  0  0  0  0  0
  -22.7918   11.0601  -18.5762 C   0  0  0  0  0  0  0  0  0  0  0  0
  -21.4679   10.9663  -17.8142 C   0  0  0  0  0  0  0  0  0  0  0  0
 28 29  1  0  0  0
 29 30  1  0  0  0
 29 22  1  0  0  0
 22 23  1  0  0  0
 22 27  2  0  0  0
 23 24  2  0  0  0
 24 25  1  0  0  0
 25 20  1  0  0  0
 25 26  2  0  0  0
 20  1  1  0  0  0
 20 21  1  0  0  0
  1  2  2  0  0  0
  1  5  1  0  0  0
  2  3  1  0  0  0
  3  4  2  0  0  0
  4  6  1  0  0  0
  4  5  1  0  0  0
  6  7  1  0  0  0
  6 11  2  0  0  0
  7  8  2  0  0  0
  8  9  1  0  0  0
  9 10  2  0  0  0
 10 11  1  0  0  0
 11 12  1  0  0  0
 12 13  1  0  0  0
 13 14  1  0  0  0
 14 15  1  0  0  0
 14 19  2  0  0  0
 15 16  2  0  0  0
 16 17  1  0  0  0
 17 18  2  0  0  0
 18 19  1  0  0  0
 26 27  1  0  0  0
M  END
> <minimizedAffinity>
-5.67242

$$$$
