CHEMBL188149


 37 39  0  0  0  0  0  0  0  0999 V2000
  -28.5903   -9.5200   -9.0164 C   0  0  0  0  0  0  0  0  0  0  0  0
  -28.6869   -9.7420  -10.3806 C   0  0  0  0  0  0  0  0  0  0  0  0
  -27.6768  -10.4471  -10.9706 C   0  0  0  0  0  0  0  0  0  0  0  0
  -26.6099  -10.8846  -10.2990 N   0  0  0  0  0  0  0  0  0  0  0  0
  -26.5747  -10.6537   -8.9751 C   0  0  0  0  0  0  0  0  0  0  0  0
  -27.5432  -10.0067   -8.3084 N   0  0  0  0  0  0  0  0  0  0  0  0
  -29.6417   -8.8245   -8.3518 N   0  0  0  0  0  0  0  0  0  0  0  0
  -30.9348   -9.4789   -8.5260 C   0  0  0  0  0  0  0  0  0  0  0  0
  -29.3989   -5.0564   -6.3858 C   0  0  0  0  0  0  0  0  0  0  0  0
  -30.4093   -5.9670   -6.1058 C   0  0  0  0  0  0  0  0  0  0  0  0
  -30.4892   -7.1879   -6.7799 C   0  0  0  0  0  0  0  0  0  0  0  0
  -29.5659   -7.5459   -7.7719 C   0  0  0  0  0  0  0  0  0  0  0  0
  -28.5873   -6.5940   -8.0964 C   0  0  0  0  0  0  0  0  0  0  0  0
  -28.5028   -5.3587   -7.4134 C   0  0  0  0  0  0  0  0  0  0  0  0
  -28.4728   -1.7259   -5.2035 N   0  0  0  0  0  0  0  0  0  0  0  0
  -28.5751   -2.7384   -6.1301 C   0  0  0  0  0  0  0  0  0  0  0  0
  -28.0844   -2.6142   -7.2474 O   0  0  0  0  0  0  0  0  0  0  0  0
  -29.2647   -3.8393   -5.6638 N   0  0  0  0  0  0  0  0  0  0  0  0
  -28.8548   -1.8332   -4.2781 H   0  0  0  0  0  0  0  0  0  0  0  0
  -29.8639   -3.7021   -4.8671 H   0  0  0  0  0  0  0  0  0  0  0  0
  -27.7773   -0.4961   -5.5494 C   0  0  0  0  0  0  0  0  0  0  0  0
  -28.5586    0.7539   -5.1389 C   0  0  0  0  0  0  0  0  0  0  0  0
  -30.5268    1.5953   -6.4744 C   0  0  0  0  0  0  0  0  0  0  0  0
  -30.0546    0.6107   -5.4176 C   0  0  0  0  0  0  0  0  0  0  0  0
  -25.5016  -11.1560   -8.2390 N   0  0  0  0  0  0  0  0  0  0  0  0
  -25.1844  -12.0495   -8.5824 H   0  0  0  0  0  0  0  0  0  0  0  0
  -25.0994  -10.7841   -6.9499 C   0  0  0  0  0  0  0  0  0  0  0  0
  -23.7760  -10.4169   -6.6988 C   0  0  0  0  0  0  0  0  0  0  0  0
  -23.3933   -9.9612   -5.4328 C   0  0  0  0  0  0  0  0  0  0  0  0
  -24.3334   -9.8600   -4.4040 C   0  0  0  0  0  0  0  0  0  0  0  0
  -25.6646  -10.2199   -4.6286 C   0  0  0  0  0  0  0  0  0  0  0  0
  -26.0218  -10.6961   -5.8979 C   0  0  0  0  0  0  0  0  0  0  0  0
  -26.7104  -10.1094   -3.5541 C   0  0  0  0  0  0  0  0  0  0  0  0
  -28.0672   -9.0586   -4.0553 S   0  0  0  0  0  0  0  0  0  0  0  0
  -29.2097  -10.1104   -4.9312 C   0  0  0  0  0  0  0  0  0  0  0  0
  -28.7441   -8.6378   -2.8390 O   0  0  0  0  0  0  0  0  0  0  0  0
  -27.5786   -8.0507   -4.9832 O   0  0  0  0  0  0  0  0  0  0  0  0
 23 24  1  0  0  0
 24 22  1  0  0  0
 22 21  1  0  0  0
 21 15  1  0  0  0
 15 16  1  0  0  0
 15 19  1  0  0  0
 16 17  2  0  0  0
 16 18  1  0  0  0
 18  9  1  0  0  0
 18 20  1  0  0  0
  9 10  1  0  0  0
  9 14  2  0  0  0
 10 11  2  0  0  0
 11 12  1  0  0  0
 12  7  1  0  0  0
 12 13  2  0  0  0
  7  8  1  0  0  0
  7  1  1  0  0  0
  1  2  1  0  0  0
  1  6  2  0  0  0
  2  3  2  0  0  0
  3  4  1  0  0  0
  4  5  2  0  0  0
  5 25  1  0  0  0
  5  6  1  0  0  0
 25 27  1  0  0  0
 25 26  1  0  0  0
 27 28  1  0  0  0
 27 32  2  0  0  0
 28 29  2  0  0  0
 29 30  1  0  0  0
 30 31  2  0  0  0
 31 33  1  0  0  0
 31 32  1  0  0  0
 33 34  1  0  0  0
 34 35  1  0  0  0
 34 36  2  0  0  0
 34 37  2  0  0  0
 13 14  1  0  0  0
M  END
> <minimizedAffinity>
-8.08003

$$$$
