CHEMBL3939860


 38 43  0  0  0  0  0  0  0  0999 V2000
  -14.3713    1.5366  -15.5690 N   0  0  0  0  0  0  0  0  0  0  0  0
  -14.4273    0.3469  -14.6895 C   0  0  0  0  0  0  0  0  0  0  0  0
  -13.8140   -0.7514  -15.1978 C   0  0  0  0  0  0  0  0  0  0  0  0
  -13.9561   -1.9019  -14.5414 C   0  0  0  0  0  0  0  0  0  0  0  0
  -14.7882   -2.0772  -13.4761 C   0  0  0  0  0  0  0  0  0  0  0  0
  -15.3463   -3.1787  -13.7898 N   0  0  0  0  0  0  0  0  0  0  0  0
  -14.7379   -4.1128  -13.1689 C   0  0  0  0  0  0  0  0  0  0  0  0
  -15.0681   -4.3267  -11.9381 C   0  0  0  0  0  0  0  0  0  0  0  0
  -15.6018   -2.8788  -11.5231 N   0  0  0  0  0  0  0  0  0  0  0  0
  -15.3695   -1.3923  -12.4688 C   0  0  0  0  0  0  0  0  0  0  0  0
  -15.1611    0.0941  -13.3672 C   0  0  0  0  0  0  0  0  0  0  0  0
  -14.9348   -6.1039  -12.0832 C   0  0  0  0  0  0  0  0  0  0  0  0
  -15.2810   -7.2350  -13.0176 C   0  0  0  0  0  0  0  0  0  0  0  0
  -14.5308   -8.3838  -12.9591 N   0  0  0  0  0  0  0  0  0  0  0  0
  -13.5545   -8.1439  -12.0749 N   0  0  0  0  0  0  0  0  0  0  0  0
  -12.4732   -9.1524  -11.8314 C   0  0  0  0  0  0  0  0  0  0  0  0
  -13.7677   -6.8388  -11.5315 C   0  0  0  0  0  0  0  0  0  0  0  0
  -11.8217    3.8585  -13.8944 C   0  0  0  0  0  0  0  0  0  0  0  0
  -11.8396    4.9281  -14.7153 C   0  0  0  0  0  0  0  0  0  0  0  0
  -12.7872    4.9698  -15.7298 C   0  0  0  0  0  0  0  0  0  0  0  0
  -13.6458    3.8827  -15.9792 C   0  0  0  0  0  0  0  0  0  0  0  0
  -13.5885    2.7145  -15.2332 C   0  0  0  0  0  0  0  0  0  0  0  0
  -12.8002    2.8847  -14.0888 C   0  0  0  0  0  0  0  0  0  0  0  0
  -10.9743    4.1710  -11.6990 C   0  0  0  0  0  0  0  0  0  0  0  0
  -10.8200    3.6432  -13.0059 O   0  0  0  0  0  0  0  0  0  0  0  0
  -12.9259    6.0459  -16.5590 O   0  0  0  0  0  0  0  0  0  0  0  0
  -11.6860    6.5345  -17.0585 C   0  0  0  0  0  0  0  0  0  0  0  0
  -15.7079    1.7870  -16.2808 C   0  0  0  0  0  0  0  0  0  0  0  0
  -17.0502    1.7957  -15.5277 C   0  0  0  0  0  0  0  0  0  0  0  0
  -17.9683    0.7611  -15.3974 C   0  0  0  0  0  0  0  0  0  0  0  0
  -19.2093    1.3071  -14.9754 C   0  0  0  0  0  0  0  0  0  0  0  0
  -20.4060    0.6883  -14.8375 N   0  0  0  0  0  0  0  0  0  0  0  0
  -21.4294    1.4995  -14.4881 C   0  0  0  0  0  0  0  0  0  0  0  0
  -21.3710    2.8773  -14.3614 C   0  0  0  0  0  0  0  0  0  0  0  0
  -20.1414    3.5068  -14.5300 C   0  0  0  0  0  0  0  0  0  0  0  0
  -19.0369    2.6747  -14.7875 C   0  0  0  0  0  0  0  0  0  0  0  0
  -17.6933    2.9495  -15.0475 N   0  0  0  0  0  0  0  0  0  0  0  0
  -17.3891    3.8869  -15.2853 H   0  0  0  0  0  0  0  0  0  0  0  0
 24 25  1  0  0  0
 25 18  1  0  0  0
 18 19  1  0  0  0
 18 23  2  0  0  0
 19 20  2  0  0  0
 20 26  1  0  0  0
 20 21  1  0  0  0
 26 27  1  0  0  0
 21 22  2  0  0  0
 22  1  1  0  0  0
 22 23  1  0  0  0
  1 28  1  0  0  0
  1  2  1  0  0  0
 28 29  1  0  0  0
 29 30  2  0  0  0
 29 37  1  0  0  0
 30 31  1  0  0  0
 31 32  1  0  0  0
 31 36  2  0  0  0
 32 33  2  0  0  0
 33 34  1  0  0  0
 34 35  2  0  0  0
 35 36  1  0  0  0
 36 37  1  0  0  0
 37 38  1  0  0  0
  2  3  1  0  0  0
  2 11  2  0  0  0
  3  4  2  0  0  0
  4  5  1  0  0  0
  5  6  1  0  0  0
  5 10  2  0  0  0
  6  7  2  0  0  0
  7  8  1  0  0  0
  8 12  1  0  0  0
  8  9  2  0  0  0
 12 13  1  0  0  0
 12 17  2  0  0  0
 13 14  2  0  0  0
 14 15  1  0  0  0
 15 16  1  0  0  0
 15 17  1  0  0  0
  9 10  1  0  0  0
 10 11  1  0  0  0
M  END
> <minimizedAffinity>
-9.09736

$$$$
