CHEMBL1945172


 33 36  0  0  0  0  0  0  0  0999 V2000
  -16.5132    0.3288  -14.4222 C   0  0  0  0  0  0  0  0  0  0  0  0
  -15.5155    1.1181  -13.9918 N   0  0  0  0  0  0  0  0  0  0  0  0
  -14.4309    0.5151  -13.4924 C   0  0  0  0  0  0  0  0  0  0  0  0
  -14.3324   -0.8497  -13.4241 C   0  0  0  0  0  0  0  0  0  0  0  0
  -15.4883   -1.5633  -13.6224 C   0  0  0  0  0  0  0  0  0  0  0  0
  -16.5978   -0.9812  -14.1229 N   0  0  0  0  0  0  0  0  0  0  0  0
  -15.4614   -3.0316  -13.4699 C   0  0  0  0  0  0  0  0  0  0  0  0
  -16.0808   -3.6698  -12.3811 C   0  0  0  0  0  0  0  0  0  0  0  0
  -15.9709   -5.0566  -12.2127 C   0  0  0  0  0  0  0  0  0  0  0  0
  -15.3253   -5.8261  -13.1799 C   0  0  0  0  0  0  0  0  0  0  0  0
  -15.1830   -7.5282  -12.9657 Cl  0  0  0  0  0  0  0  0  0  0  0  0
  -14.7165   -5.2211  -14.2740 C   0  0  0  0  0  0  0  0  0  0  0  0
  -14.6884   -3.8265  -14.3456 C   0  0  0  0  0  0  0  0  0  0  0  0
  -13.7528   -3.2543  -15.2346 N   0  0  0  0  0  0  0  0  0  0  0  0
  -12.9377   -2.1862  -14.9258 C   0  0  0  0  0  0  0  0  0  0  0  0
  -11.8755   -1.6072  -16.0812 S   0  0  0  0  0  0  0  0  0  0  0  0
  -13.0154   -1.5639  -13.5190 C   0  0  0  0  0  0  0  0  0  0  0  0
  -13.5122   -3.7617  -16.0819 H   0  0  0  0  0  0  0  0  0  0  0  0
  -17.3552    0.9629  -15.3363 N   0  0  0  0  0  0  0  0  0  0  0  0
  -17.0681    0.7049  -16.2743 H   0  0  0  0  0  0  0  0  0  0  0  0
  -21.0306    1.2643  -14.7674 C   0  0  0  0  0  0  0  0  0  0  0  0
  -21.1826    2.6521  -14.7300 C   0  0  0  0  0  0  0  0  0  0  0  0
  -20.0887    3.4770  -14.9810 C   0  0  0  0  0  0  0  0  0  0  0  0
  -18.8356    2.9100  -15.2346 C   0  0  0  0  0  0  0  0  0  0  0  0
  -17.5061    3.9846  -15.5233 Cl  0  0  0  0  0  0  0  0  0  0  0  0
  -18.6451    1.5110  -15.2498 C   0  0  0  0  0  0  0  0  0  0  0  0
  -19.7718    0.7132  -15.0480 C   0  0  0  0  0  0  0  0  0  0  0  0
  -22.1528    0.3360  -14.3824 C   0  0  0  0  0  0  0  0  0  0  0  0
  -22.3472    0.2796  -12.8637 C   0  0  0  0  0  0  0  0  0  0  0  0
  -23.8160    0.3776  -12.4127 C   0  0  0  0  0  0  0  0  0  0  0  0
  -25.2537   -1.4960  -12.9912 C   0  0  0  0  0  0  0  0  0  0  0  0
  -24.3882   -0.9039  -11.9724 N   0  0  0  0  0  0  0  0  0  0  0  0
  -23.3137   -1.8347  -11.6194 C   0  0  0  0  0  0  0  0  0  0  0  0
 31 32  1  0  0  0
 32 33  1  0  0  0
 32 30  1  0  0  0
 30 29  1  0  0  0
 29 28  1  0  0  0
 28 21  1  0  0  0
 21 22  1  0  0  0
 21 27  2  0  0  0
 22 23  2  0  0  0
 23 24  1  0  0  0
 24 25  1  0  0  0
 24 26  2  0  0  0
 26 19  1  0  0  0
 26 27  1  0  0  0
 19  1  1  0  0  0
 19 20  1  0  0  0
  1  2  1  0  0  0
  1  6  2  0  0  0
  2  3  2  0  0  0
  3  4  1  0  0  0
  4  5  2  0  0  0
  4 17  1  0  0  0
  5  6  1  0  0  0
  5  7  1  0  0  0
  7  8  1  0  0  0
  7 13  2  0  0  0
  8  9  2  0  0  0
  9 10  1  0  0  0
 10 11  1  0  0  0
 10 12  2  0  0  0
 12 13  1  0  0  0
 13 14  1  0  0  0
 14 15  1  0  0  0
 14 18  1  0  0  0
 15 16  2  0  0  0
 15 17  1  0  0  0
M  END
> <minimizedAffinity>
-9.49380

$$$$
