CHEMBL4099089


 29 32  0  0  0  0  0  0  0  0999 V2000
  -30.3883   -5.5014   -5.6815 C   0  0  0  0  0  0  0  0  0  0  0  0
  -31.1572   -5.8204   -4.6091 N   0  0  0  0  0  0  0  0  0  0  0  0
  -31.3227   -4.9341   -3.6163 C   0  0  0  0  0  0  0  0  0  0  0  0
  -32.0906   -5.3456   -2.5412 N   0  0  0  0  0  0  0  0  0  0  0  0
  -30.7799   -3.7164   -3.5349 N   0  0  0  0  0  0  0  0  0  0  0  0
  -30.0583   -3.4115   -4.6207 C   0  0  0  0  0  0  0  0  0  0  0  0
  -29.4305   -2.2159   -4.8160 N   0  0  0  0  0  0  0  0  0  0  0  0
  -28.8231   -2.1890   -6.0500 C   0  0  0  0  0  0  0  0  0  0  0  0
  -28.1135   -1.1609   -6.6835 C   0  0  0  0  0  0  0  0  0  0  0  0
  -27.6250   -1.4036   -7.9711 C   0  0  0  0  0  0  0  0  0  0  0  0
  -27.8417   -2.6308   -8.5834 C   0  0  0  0  0  0  0  0  0  0  0  0
  -27.3860   -2.8845   -9.8453 O   0  0  0  0  0  0  0  0  0  0  0  0
  -28.5407   -3.6532   -7.9429 C   0  0  0  0  0  0  0  0  0  0  0  0
  -29.0467   -3.4368   -6.6434 C   0  0  0  0  0  0  0  0  0  0  0  0
  -29.8212   -4.2156   -5.7200 C   0  0  0  0  0  0  0  0  0  0  0  0
  -32.0757   -6.3550   -2.4982 H   0  0  0  0  0  0  0  0  0  0  0  0
  -31.7996   -4.8445   -1.7137 H   0  0  0  0  0  0  0  0  0  0  0  0
  -29.4525   -1.4567   -4.1526 H   0  0  0  0  0  0  0  0  0  0  0  0
  -26.9317   -2.0923  -10.1765 H   0  0  0  0  0  0  0  0  0  0  0  0
  -30.1537   -6.4356   -6.6658 N   0  0  0  0  0  0  0  0  0  0  0  0
  -30.9460   -6.8978   -7.0796 H   0  0  0  0  0  0  0  0  0  0  0  0
  -28.4255   -7.6339   -5.4635 C   0  0  0  0  0  0  0  0  0  0  0  0
  -28.8588   -7.0684   -6.8221 C   0  0  0  0  0  0  0  0  0  0  0  0
  -28.9829   -8.1095   -7.9216 C   0  0  0  0  0  0  0  0  0  0  0  0
  -30.1868   -8.8267   -8.0326 C   0  0  0  0  0  0  0  0  0  0  0  0
  -30.3399   -9.8301   -8.9898 C   0  0  0  0  0  0  0  0  0  0  0  0
  -29.2871  -10.1403   -9.8460 C   0  0  0  0  0  0  0  0  0  0  0  0
  -28.0828   -9.4484   -9.7432 C   0  0  0  0  0  0  0  0  0  0  0  0
  -27.9283   -8.4431   -8.7845 C   0  0  0  0  0  0  0  0  0  0  0  0
 23 24  1  0  0  0
 23 20  1  0  0  0
 23 22  1  0  0  0
 20  1  1  0  0  0
 20 21  1  0  0  0
  1  2  1  0  0  0
  1 15  2  0  0  0
  2  3  2  0  0  0
  3  4  1  0  0  0
  3  5  1  0  0  0
  4 16  1  0  0  0
  4 17  1  0  0  0
  5  6  2  0  0  0
  6  7  1  0  0  0
  6 15  1  0  0  0
  7  8  1  0  0  0
  7 18  1  0  0  0
  8  9  1  0  0  0
  8 14  2  0  0  0
  9 10  2  0  0  0
 10 11  1  0  0  0
 11 12  1  0  0  0
 11 13  2  0  0  0
 12 19  1  0  0  0
 13 14  1  0  0  0
 14 15  1  0  0  0
 24 25  1  0  0  0
 24 29  2  0  0  0
 25 26  2  0  0  0
 26 27  1  0  0  0
 27 28  2  0  0  0
 28 29  1  0  0  0
M  END
> <minimizedAffinity>
-8.97120

$$$$
