CHEMBL464211


 41 46  0  0  0  0  0  0  0  0999 V2000
  -24.1232   -0.6188  -13.0404 C   0  0  0  0  0  0  0  0  0  0  0  0
  -25.1974   -1.3790  -13.4981 C   0  0  0  0  0  0  0  0  0  0  0  0
  -26.0754   -1.9907  -12.5967 C   0  0  0  0  0  0  0  0  0  0  0  0
  -25.8950   -1.8720  -11.2160 C   0  0  0  0  0  0  0  0  0  0  0  0
  -24.8897   -1.0014  -10.7616 C   0  0  0  0  0  0  0  0  0  0  0  0
  -24.0045   -0.3894  -11.6730 C   0  0  0  0  0  0  0  0  0  0  0  0
  -22.9848    0.3371  -11.1922 F   0  0  0  0  0  0  0  0  0  0  0  0
  -26.6377   -2.6407  -10.2763 N   0  0  0  0  0  0  0  0  0  0  0  0
  -27.2684   -2.1565   -9.1400 C   0  0  0  0  0  0  0  0  0  0  0  0
  -27.2102   -0.9940   -8.7298 O   0  0  0  0  0  0  0  0  0  0  0  0
  -28.0352   -3.0849   -8.4402 N   0  0  0  0  0  0  0  0  0  0  0  0
  -28.7902   -2.6531   -7.2774 C   0  0  0  0  0  0  0  0  0  0  0  0
  -29.5546   -3.8876   -6.8545 C   0  0  0  0  0  0  0  0  0  0  0  0
  -28.7325   -4.9696   -7.3482 N   0  0  0  0  0  0  0  0  0  0  0  0
  -27.9099   -4.4922   -8.4044 C   0  0  0  0  0  0  0  0  0  0  0  0
  -27.2579   -5.1390   -9.2109 O   0  0  0  0  0  0  0  0  0  0  0  0
  -26.8361   -3.6122  -10.5094 H   0  0  0  0  0  0  0  0  0  0  0  0
  -28.8603   -6.3127   -6.9221 C   0  0  0  0  0  0  0  0  0  0  0  0
  -29.3090   -7.3005   -7.8089 C   0  0  0  0  0  0  0  0  0  0  0  0
  -29.4633   -8.6258   -7.3937 C   0  0  0  0  0  0  0  0  0  0  0  0
  -29.1673   -8.9717   -6.0846 C   0  0  0  0  0  0  0  0  0  0  0  0
  -29.3445  -10.2349   -5.6773 F   0  0  0  0  0  0  0  0  0  0  0  0
  -28.6888   -8.0223   -5.1928 C   0  0  0  0  0  0  0  0  0  0  0  0
  -28.5212   -6.6973   -5.6140 C   0  0  0  0  0  0  0  0  0  0  0  0
  -23.1137   -0.4613  -13.9544 O   0  0  0  0  0  0  0  0  0  0  0  0
  -18.7794    1.1893  -15.0188 C   0  0  0  0  0  0  0  0  0  0  0  0
  -19.3505    2.4300  -14.8809 C   0  0  0  0  0  0  0  0  0  0  0  0
  -20.7484    2.3373  -14.6371 C   0  0  0  0  0  0  0  0  0  0  0  0
  -21.5193    3.4063  -14.2976 N   0  0  0  0  0  0  0  0  0  0  0  0
  -22.7695    3.1229  -13.9109 C   0  0  0  0  0  0  0  0  0  0  0  0
  -23.3118    1.8559  -13.8754 C   0  0  0  0  0  0  0  0  0  0  0  0
  -22.5448    0.7609  -14.2858 C   0  0  0  0  0  0  0  0  0  0  0  0
  -21.2165    1.0152  -14.6648 C   0  0  0  0  0  0  0  0  0  0  0  0
  -19.9417   -0.0506  -15.1030 S   0  0  0  0  0  0  0  0  0  0  0  0
  -15.2473    0.7572  -15.6112 N   0  0  0  0  0  0  0  0  0  0  0  0
  -15.4362    0.1250  -14.4171 C   0  0  0  0  0  0  0  0  0  0  0  0
  -16.6763    0.2525  -14.0021 N   0  0  0  0  0  0  0  0  0  0  0  0
  -17.3107    0.9785  -14.9829 C   0  0  0  0  0  0  0  0  0  0  0  0
  -16.4250    1.3476  -15.9678 C   0  0  0  0  0  0  0  0  0  0  0  0
  -14.3469    0.5551  -17.8818 C   0  0  0  0  0  0  0  0  0  0  0  0
  -14.0420    0.7329  -16.4083 C   0  0  0  0  0  0  0  0  0  0  0  0
 40 41  1  0  0  0
 41 35  1  0  0  0
 35 36  1  0  0  0
 35 39  1  0  0  0
 36 37  2  0  0  0
 37 38  1  0  0  0
 38 26  1  0  0  0
 38 39  2  0  0  0
 26 27  2  0  0  0
 26 34  1  0  0  0
 27 28  1  0  0  0
 28 29  1  0  0  0
 28 33  2  0  0  0
 29 30  2  0  0  0
 30 31  1  0  0  0
 31 32  2  0  0  0
 32 25  1  0  0  0
 32 33  1  0  0  0
 25  1  1  0  0  0
  1  2  1  0  0  0
  1  6  2  0  0  0
  2  3  2  0  0  0
  3  4  1  0  0  0
  4  8  1  0  0  0
  4  5  2  0  0  0
  8  9  1  0  0  0
  8 17  1  0  0  0
  9 10  2  0  0  0
  9 11  1  0  0  0
 11 12  1  0  0  0
 11 15  1  0  0  0
 12 13  1  0  0  0
 13 14  1  0  0  0
 14 18  1  0  0  0
 14 15  1  0  0  0
 18 19  1  0  0  0
 18 24  2  0  0  0
 19 20  2  0  0  0
 20 21  1  0  0  0
 21 22  1  0  0  0
 21 23  2  0  0  0
 23 24  1  0  0  0
 15 16  2  0  0  0
  5  6  1  0  0  0
  6  7  1  0  0  0
 33 34  1  0  0  0
M  END
> <minimizedAffinity>
-9.06135

$$$$
