CHEMBL3978349


 36 39  0  0  0  0  0  0  0  0999 V2000
  -13.8481    0.0424  -13.5521 C   0  0  0  0  0  0  0  0  0  0  0  0
  -12.6177   -0.5210  -13.8692 C   0  0  0  0  0  0  0  0  0  0  0  0
  -12.5840   -1.8390  -14.2569 C   0  0  0  0  0  0  0  0  0  0  0  0
  -13.6793   -2.6437  -14.1272 C   0  0  0  0  0  0  0  0  0  0  0  0
  -13.6186   -3.7437  -14.8780 N   0  0  0  0  0  0  0  0  0  0  0  0
  -14.4688   -4.7121  -14.5651 C   0  0  0  0  0  0  0  0  0  0  0  0
  -15.1968   -4.6785  -13.3931 C   0  0  0  0  0  0  0  0  0  0  0  0
  -15.4257   -3.4618  -12.7646 N   0  0  0  0  0  0  0  0  0  0  0  0
  -14.7158   -2.3307  -13.2591 C   0  0  0  0  0  0  0  0  0  0  0  0
  -14.8510   -0.8746  -13.0927 C   0  0  0  0  0  0  0  0  0  0  0  0
  -15.2085   -6.0299  -12.7633 C   0  0  0  0  0  0  0  0  0  0  0  0
  -15.5602   -7.2399  -13.4533 C   0  0  0  0  0  0  0  0  0  0  0  0
  -14.8124   -8.2913  -13.1151 N   0  0  0  0  0  0  0  0  0  0  0  0
  -13.9295   -7.7853  -12.2411 N   0  0  0  0  0  0  0  0  0  0  0  0
  -12.7420   -8.5599  -11.9285 C   0  0  0  0  0  0  0  0  0  0  0  0
  -14.2048   -6.4752  -11.8921 C   0  0  0  0  0  0  0  0  0  0  0  0
  -13.4284   -5.7576  -10.8403 C   0  0  0  0  0  0  0  0  0  0  0  0
  -14.3425   -5.2365   -9.7285 C   0  0  0  0  0  0  0  0  0  0  0  0
  -14.2560   -3.7256   -9.5165 C   0  0  0  0  0  0  0  0  0  0  0  0
  -15.5542   -3.1473   -9.6012 O   0  0  0  0  0  0  0  0  0  0  0  0
  -15.9329   -3.3914  -10.4623 H   0  0  0  0  0  0  0  0  0  0  0  0
  -14.0029    1.4052  -14.0185 N   0  0  0  0  0  0  0  0  0  0  0  0
  -17.2467    2.2037  -15.7452 C   0  0  0  0  0  0  0  0  0  0  0  0
  -16.8757    3.3059  -16.5163 C   0  0  0  0  0  0  0  0  0  0  0  0
  -15.5578    3.7489  -16.5056 C   0  0  0  0  0  0  0  0  0  0  0  0
  -14.6076    3.0828  -15.7237 C   0  0  0  0  0  0  0  0  0  0  0  0
  -14.9284    1.9647  -14.9372 C   0  0  0  0  0  0  0  0  0  0  0  0
  -16.2718    1.5354  -14.9696 C   0  0  0  0  0  0  0  0  0  0  0  0
  -19.1379    1.7093  -14.3638 C   0  0  0  0  0  0  0  0  0  0  0  0
  -18.5337    1.7258  -15.6610 O   0  0  0  0  0  0  0  0  0  0  0  0
  -15.0735    4.8317  -17.1896 O   0  0  0  0  0  0  0  0  0  0  0  0
  -15.0713    4.7462  -18.6096 C   0  0  0  0  0  0  0  0  0  0  0  0
  -12.6247    2.0557  -13.9919 C   0  0  0  0  0  0  0  0  0  0  0  0
  -12.3125    3.0072  -12.8203 C   0  0  0  0  0  0  0  0  0  0  0  0
  -12.6842    2.4499  -11.5602 O   0  0  0  0  0  0  0  0  0  0  0  0
  -13.1790    3.1374  -11.0808 H   0  0  0  0  0  0  0  0  0  0  0  0
 29 30  1  0  0  0
 30 23  1  0  0  0
 23 24  1  0  0  0
 23 28  2  0  0  0
 24 25  2  0  0  0
 25 31  1  0  0  0
 25 26  1  0  0  0
 31 32  1  0  0  0
 26 27  2  0  0  0
 27 22  1  0  0  0
 27 28  1  0  0  0
 22 33  1  0  0  0
 22  1  1  0  0  0
 33 34  1  0  0  0
 34 35  1  0  0  0
 35 36  1  0  0  0
  1  2  1  0  0  0
  1 10  2  0  0  0
  2  3  2  0  0  0
  3  4  1  0  0  0
  4  5  1  0  0  0
  4  9  2  0  0  0
  5  6  2  0  0  0
  6  7  1  0  0  0
  7 11  1  0  0  0
  7  8  2  0  0  0
 11 12  1  0  0  0
 11 16  2  0  0  0
 12 13  2  0  0  0
 13 14  1  0  0  0
 14 15  1  0  0  0
 14 16  1  0  0  0
 16 17  1  0  0  0
 17 18  1  0  0  0
 18 19  1  0  0  0
 19 20  1  0  0  0
 20 21  1  0  0  0
  8  9  1  0  0  0
  9 10  1  0  0  0
M  END
> <minimizedAffinity>
-7.45092

$$$$
