CHEMBL1934330


 41 45  0  0  0  0  0  0  0  0999 V2000
  -30.5636   -4.1645   -5.5076 N   0  0  0  0  0  0  0  0  0  0  0  0
  -31.2131   -4.2110   -6.2815 H   0  0  0  0  0  0  0  0  0  0  0  0
  -27.2779   -1.9200   -8.7472 C   0  0  0  0  0  0  0  0  0  0  0  0
  -27.9221   -3.1489   -8.8101 C   0  0  0  0  0  0  0  0  0  0  0  0
  -28.7961   -3.5221   -7.7884 C   0  0  0  0  0  0  0  0  0  0  0  0
  -29.0113   -2.6697   -6.6746 C   0  0  0  0  0  0  0  0  0  0  0  0
  -29.8045   -2.9583   -5.5497 C   0  0  0  0  0  0  0  0  0  0  0  0
  -29.8986   -2.0891   -4.5225 N   0  0  0  0  0  0  0  0  0  0  0  0
  -29.2655   -0.9215   -4.6263 C   0  0  0  0  0  0  0  0  0  0  0  0
  -28.5159   -0.5366   -5.6549 N   0  0  0  0  0  0  0  0  0  0  0  0
  -28.3883   -1.4129   -6.6505 C   0  0  0  0  0  0  0  0  0  0  0  0
  -27.5689   -1.0459   -7.6991 C   0  0  0  0  0  0  0  0  0  0  0  0
  -26.3646   -1.6565   -9.7354 O   0  0  0  0  0  0  0  0  0  0  0  0
  -26.6795   -2.2676  -10.9929 C   0  0  0  0  0  0  0  0  0  0  0  0
  -22.8153   -1.0281  -13.4250 C   0  0  0  0  0  0  0  0  0  0  0  0
  -24.2479   -0.7495  -13.3064 N   0  0  0  0  0  0  0  0  0  0  0  0
  -25.0235   -1.9559  -13.6256 C   0  0  0  0  0  0  0  0  0  0  0  0
  -26.5278   -1.7155  -13.4794 C   0  0  0  0  0  0  0  0  0  0  0  0
  -26.8944   -1.2052  -12.0794 C   0  0  0  0  0  0  0  0  0  0  0  0
  -26.0502    0.0412  -11.7770 C   0  0  0  0  0  0  0  0  0  0  0  0
  -24.5490   -0.2107  -11.9738 C   0  0  0  0  0  0  0  0  0  0  0  0
  -30.0982   -5.4393   -5.1128 C   0  0  0  0  0  0  0  0  0  0  0  0
  -29.9432   -5.7760   -3.7699 C   0  0  0  0  0  0  0  0  0  0  0  0
  -29.4476   -7.0150   -3.3776 C   0  0  0  0  0  0  0  0  0  0  0  0
  -29.1445   -7.9984   -4.3133 C   0  0  0  0  0  0  0  0  0  0  0  0
  -29.3792   -7.7136   -5.6634 C   0  0  0  0  0  0  0  0  0  0  0  0
  -29.8579   -6.4477   -6.0568 C   0  0  0  0  0  0  0  0  0  0  0  0
  -28.5924   -9.2506   -3.9477 N   0  0  0  0  0  0  0  0  0  0  0  0
  -27.2421   -9.5487   -3.9201 C   0  0  0  0  0  0  0  0  0  0  0  0
  -26.3320   -8.7473   -4.1013 O   0  0  0  0  0  0  0  0  0  0  0  0
  -27.0013  -10.8982   -3.7062 N   0  0  0  0  0  0  0  0  0  0  0  0
  -29.2264   -9.9583   -3.6098 H   0  0  0  0  0  0  0  0  0  0  0  0
  -27.6498  -11.5137   -4.1797 H   0  0  0  0  0  0  0  0  0  0  0  0
  -25.6565  -11.3542   -3.6834 C   0  0  0  0  0  0  0  0  0  0  0  0
  -24.9130  -11.3914   -2.4981 C   0  0  0  0  0  0  0  0  0  0  0  0
  -23.5607  -11.7400   -2.5267 C   0  0  0  0  0  0  0  0  0  0  0  0
  -22.9521  -12.0519   -3.7416 C   0  0  0  0  0  0  0  0  0  0  0  0
  -21.1092  -12.4654   -3.7832 Br  0  0  0  0  0  0  0  0  0  0  0  0
  -23.6885  -12.0457   -4.9251 C   0  0  0  0  0  0  0  0  0  0  0  0
  -25.0400  -11.7158   -4.8818 C   0  0  0  0  0  0  0  0  0  0  0  0
  -25.7411  -11.6759   -6.0256 F   0  0  0  0  0  0  0  0  0  0  0  0
 15 16  1  0  0  0
 16 17  1  0  0  0
 16 21  1  0  0  0
 17 18  1  0  0  0
 18 19  1  0  0  0
 19 14  1  0  0  0
 19 20  1  0  0  0
 14 13  1  0  0  0
 13  3  1  0  0  0
  3  4  1  0  0  0
  3 12  2  0  0  0
  4  5  2  0  0  0
  5  6  1  0  0  0
  6  7  1  0  0  0
  6 11  2  0  0  0
  7  1  1  0  0  0
  7  8  2  0  0  0
  1 22  1  0  0  0
  1  2  1  0  0  0
 22 23  1  0  0  0
 22 27  2  0  0  0
 23 24  2  0  0  0
 24 25  1  0  0  0
 25 28  1  0  0  0
 25 26  2  0  0  0
 28 29  1  0  0  0
 28 32  1  0  0  0
 29 30  2  0  0  0
 29 31  1  0  0  0
 31 34  1  0  0  0
 31 33  1  0  0  0
 34 35  1  0  0  0
 34 40  2  0  0  0
 35 36  2  0  0  0
 36 37  1  0  0  0
 37 38  1  0  0  0
 37 39  2  0  0  0
 39 40  1  0  0  0
 40 41  1  0  0  0
 26 27  1  0  0  0
  8  9  1  0  0  0
  9 10  2  0  0  0
 10 11  1  0  0  0
 11 12  1  0  0  0
 20 21  1  0  0  0
M  END
> <minimizedAffinity>
-9.82149

$$$$
