CHEMBL524647


 40 44  0  0  0  0  0  0  0  0999 V2000
  -25.2122  -11.1476   -4.8690 C   0  0  0  0  0  0  0  0  0  0  0  0
  -26.3019  -11.8166   -5.4718 C   0  0  0  0  0  0  0  0  0  0  0  0
  -27.4180  -11.1038   -5.9537 C   0  0  0  0  0  0  0  0  0  0  0  0
  -27.4480   -9.7280   -5.7979 C   0  0  0  0  0  0  0  0  0  0  0  0
  -26.3333   -9.0879   -5.2365 C   0  0  0  0  0  0  0  0  0  0  0  0
  -25.2156   -9.7547   -4.7812 C   0  0  0  0  0  0  0  0  0  0  0  0
  -26.5451   -7.7244   -5.1186 N   0  0  0  0  0  0  0  0  0  0  0  0
  -27.8328   -7.3823   -5.4968 C   0  0  0  0  0  0  0  0  0  0  0  0
  -28.3524   -6.3106   -5.2618 O   0  0  0  0  0  0  0  0  0  0  0  0
  -28.4323   -8.6553   -6.0749 C   0  0  0  0  0  0  0  0  0  0  0  0
  -29.6443   -8.6622   -6.6787 C   0  0  0  0  0  0  0  0  0  0  0  0
  -25.9379   -7.0699   -4.6509 H   0  0  0  0  0  0  0  0  0  0  0  0
  -30.3541   -9.9263   -6.9538 C   0  0  0  0  0  0  0  0  0  0  0  0
  -30.8782  -10.6634   -5.8831 C   0  0  0  0  0  0  0  0  0  0  0  0
  -31.6318  -11.8140   -6.1209 C   0  0  0  0  0  0  0  0  0  0  0  0
  -31.8637  -12.2332   -7.4295 C   0  0  0  0  0  0  0  0  0  0  0  0
  -31.3456  -11.5051   -8.5019 C   0  0  0  0  0  0  0  0  0  0  0  0
  -30.5966  -10.3504   -8.2676 C   0  0  0  0  0  0  0  0  0  0  0  0
  -24.0538  -11.8073   -2.8160 N   0  0  0  0  0  0  0  0  0  0  0  0
  -24.0964  -11.8666   -4.1869 C   0  0  0  0  0  0  0  0  0  0  0  0
  -23.2608  -12.4618   -4.8624 O   0  0  0  0  0  0  0  0  0  0  0  0
  -24.8802  -11.5281   -2.3030 H   0  0  0  0  0  0  0  0  0  0  0  0
  -21.6306  -11.9194   -2.5358 C   0  0  0  0  0  0  0  0  0  0  0  0
  -22.9792  -12.4559   -2.0696 C   0  0  0  0  0  0  0  0  0  0  0  0
  -23.1624  -12.2580   -0.5674 C   0  0  0  0  0  0  0  0  0  0  0  0
  -30.3848   -7.5506   -7.0552 N   0  0  0  0  0  0  0  0  0  0  0  0
  -30.4131   -7.3534   -8.0515 H   0  0  0  0  0  0  0  0  0  0  0  0
  -30.7022   -6.4438   -6.2343 C   0  0  0  0  0  0  0  0  0  0  0  0
  -30.5164   -5.1202   -6.6515 C   0  0  0  0  0  0  0  0  0  0  0  0
  -30.5433   -4.0635   -5.7416 C   0  0  0  0  0  0  0  0  0  0  0  0
  -30.7875   -4.3069   -4.3889 C   0  0  0  0  0  0  0  0  0  0  0  0
  -31.0989   -5.6119   -3.9833 C   0  0  0  0  0  0  0  0  0  0  0  0
  -31.0497   -6.6708   -4.8974 C   0  0  0  0  0  0  0  0  0  0  0  0
  -30.5625   -3.2139   -3.3697 C   0  0  0  0  0  0  0  0  0  0  0  0
  -29.4402   -2.2950   -3.6618 N   0  0  0  0  0  0  0  0  0  0  0  0
  -28.3238   -3.0388   -4.2668 C   0  0  0  0  0  0  0  0  0  0  0  0
  -27.2173   -2.1317   -4.8042 C   0  0  0  0  0  0  0  0  0  0  0  0
  -27.7806   -1.1210   -5.7910 C   0  0  0  0  0  0  0  0  0  0  0  0
  -28.8643   -0.3060   -5.1038 C   0  0  0  0  0  0  0  0  0  0  0  0
  -29.9489   -1.2131   -4.5244 C   0  0  0  0  0  0  0  0  0  0  0  0
 23 24  1  0  0  0
 24 25  1  0  0  0
 24 19  1  0  0  0
 19 20  1  0  0  0
 19 22  1  0  0  0
 20 21  2  0  0  0
 20  1  1  0  0  0
  1  2  1  0  0  0
  1  6  2  0  0  0
  2  3  2  0  0  0
  3  4  1  0  0  0
  4  5  2  0  0  0
  4 10  1  0  0  0
  5  6  1  0  0  0
  5  7  1  0  0  0
  7  8  1  0  0  0
  7 12  1  0  0  0
  8  9  2  0  0  0
  8 10  1  0  0  0
 10 11  2  0  0  0
 11 26  1  0  0  0
 11 13  1  0  0  0
 26 28  1  0  0  0
 26 27  1  0  0  0
 28 29  1  0  0  0
 28 33  2  0  0  0
 29 30  2  0  0  0
 30 31  1  0  0  0
 31 34  1  0  0  0
 31 32  2  0  0  0
 34 35  1  0  0  0
 35 36  1  0  0  0
 35 40  1  0  0  0
 36 37  1  0  0  0
 37 38  1  0  0  0
 38 39  1  0  0  0
 39 40  1  0  0  0
 32 33  1  0  0  0
 13 14  1  0  0  0
 13 18  2  0  0  0
 14 15  2  0  0  0
 15 16  1  0  0  0
 16 17  2  0  0  0
 17 18  1  0  0  0
M  END
> <minimizedAffinity>
-4.15820

$$$$
