CHEMBL1994241


 25 27  0  0  0  0  0  0  0  0999 V2000
  -30.2349   -6.0836   -7.0120 C   0  0  0  0  0  0  0  0  0  0  0  0
  -29.8415   -5.7134   -5.7716 C   0  0  0  0  0  0  0  0  0  0  0  0
  -29.5815   -4.3210   -5.5494 C   0  0  0  0  0  0  0  0  0  0  0  0
  -30.4027   -3.2842   -5.5576 N   0  0  0  0  0  0  0  0  0  0  0  0
  -29.6218   -2.1675   -5.3823 C   0  0  0  0  0  0  0  0  0  0  0  0
  -29.9831   -0.8134   -5.3466 C   0  0  0  0  0  0  0  0  0  0  0  0
  -28.9748    0.1459   -5.1852 C   0  0  0  0  0  0  0  0  0  0  0  0
  -27.6386   -0.2365   -5.0507 C   0  0  0  0  0  0  0  0  0  0  0  0
  -27.2590   -1.5860   -5.0723 C   0  0  0  0  0  0  0  0  0  0  0  0
  -28.2866   -2.5179   -5.2426 C   0  0  0  0  0  0  0  0  0  0  0  0
  -28.2861   -3.8877   -5.3229 N   0  0  0  0  0  0  0  0  0  0  0  0
  -27.4583   -4.4687   -5.2700 H   0  0  0  0  0  0  0  0  0  0  0  0
  -31.9886   -9.3896   -7.7586 C   0  0  0  0  0  0  0  0  0  0  0  0
  -31.7260   -8.0815   -7.3202 C   0  0  0  0  0  0  0  0  0  0  0  0
  -30.5045   -7.4335   -7.5715 C   0  0  0  0  0  0  0  0  0  0  0  0
  -29.5237   -8.1656   -8.2693 C   0  0  0  0  0  0  0  0  0  0  0  0
  -27.8099   -7.4477   -8.6960 Br  0  0  0  0  0  0  0  0  0  0  0  0
  -29.7689   -9.4779   -8.7032 C   0  0  0  0  0  0  0  0  0  0  0  0
  -30.9995  -10.0849   -8.4530 C   0  0  0  0  0  0  0  0  0  0  0  0
  -31.2140  -11.3523   -8.9137 O   0  0  0  0  0  0  0  0  0  0  0  0
  -30.4443  -11.6510   -9.4251 H   0  0  0  0  0  0  0  0  0  0  0  0
  -33.3946  -10.8563   -6.5203 C   0  0  0  0  0  0  0  0  0  0  0  0
  -33.2592   -9.8097   -7.4714 O   0  0  0  0  0  0  0  0  0  0  0  0
  -29.6450   -6.6465   -4.7094 C   0  0  0  0  0  0  0  0  0  0  0  0
  -29.4180   -7.3361   -3.8041 N   0  0  0  0  0  0  0  0  0  0  0  0
 22 23  1  0  0  0
 23 13  1  0  0  0
 13 14  1  0  0  0
 13 19  2  0  0  0
 14 15  2  0  0  0
 15  1  1  0  0  0
 15 16  1  0  0  0
  1  2  2  0  0  0
  2 24  1  0  0  0
  2  3  1  0  0  0
 24 25  3  0  0  0
  3  4  2  0  0  0
  3 11  1  0  0  0
  4  5  1  0  0  0
  5  6  1  0  0  0
  5 10  2  0  0  0
  6  7  2  0  0  0
  7  8  1  0  0  0
  8  9  2  0  0  0
  9 10  1  0  0  0
 10 11  1  0  0  0
 11 12  1  0  0  0
 16 17  1  0  0  0
 16 18  2  0  0  0
 18 19  1  0  0  0
 19 20  1  0  0  0
 20 21  1  0  0  0
M  END
> <minimizedAffinity>
-8.00234

$$$$
