CHEMBL202998


 29 33  0  0  0  0  0  0  0  0999 V2000
  -15.4008    1.0871  -14.6046 C   0  0  0  0  0  0  0  0  0  0  0  0
  -15.5618    0.7665  -13.3074 N   0  0  0  0  0  0  0  0  0  0  0  0
  -14.9089   -0.3037  -12.7657 N   0  0  0  0  0  0  0  0  0  0  0  0
  -14.1812   -1.1442  -13.5292 C   0  0  0  0  0  0  0  0  0  0  0  0
  -13.9728   -0.8555  -14.9059 C   0  0  0  0  0  0  0  0  0  0  0  0
  -13.2583   -1.6811  -15.8204 C   0  0  0  0  0  0  0  0  0  0  0  0
  -12.9683   -1.2862  -17.1261 C   0  0  0  0  0  0  0  0  0  0  0  0
  -13.4450   -0.0754  -17.5950 C   0  0  0  0  0  0  0  0  0  0  0  0
  -14.2503    0.7077  -16.7712 C   0  0  0  0  0  0  0  0  0  0  0  0
  -14.5358    0.3386  -15.4257 C   0  0  0  0  0  0  0  0  0  0  0  0
  -13.6216   -2.3162  -12.7787 C   0  0  0  0  0  0  0  0  0  0  0  0
  -12.2400   -2.3430  -12.4764 C   0  0  0  0  0  0  0  0  0  0  0  0
  -11.6213   -3.4504  -11.9039 C   0  0  0  0  0  0  0  0  0  0  0  0
  -12.3872   -4.5372  -11.5188 C   0  0  0  0  0  0  0  0  0  0  0  0
  -13.7781   -4.5136  -11.6751 C   0  0  0  0  0  0  0  0  0  0  0  0
  -14.5508   -5.5740  -11.1922 C   0  0  0  0  0  0  0  0  0  0  0  0
  -15.8958   -5.6479  -11.2593 N   0  0  0  0  0  0  0  0  0  0  0  0
  -16.5084   -4.6151  -11.8597 C   0  0  0  0  0  0  0  0  0  0  0  0
  -15.8367   -3.5276  -12.4039 C   0  0  0  0  0  0  0  0  0  0  0  0
  -14.4255   -3.4206  -12.3088 C   0  0  0  0  0  0  0  0  0  0  0  0
  -16.1259    2.1846  -15.1332 N   0  0  0  0  0  0  0  0  0  0  0  0
  -15.6704    3.0517  -14.8779 H   0  0  0  0  0  0  0  0  0  0  0  0
  -20.5488   -0.0539  -15.1322 C   0  0  0  0  0  0  0  0  0  0  0  0
  -19.7295    1.2034  -15.1486 C   0  0  0  0  0  0  0  0  0  0  0  0
  -20.3486    2.4562  -15.1486 C   0  0  0  0  0  0  0  0  0  0  0  0
  -19.5785    3.6153  -15.1627 C   0  0  0  0  0  0  0  0  0  0  0  0
  -18.1852    3.5289  -15.1851 C   0  0  0  0  0  0  0  0  0  0  0  0
  -17.5348    2.2857  -15.2084 C   0  0  0  0  0  0  0  0  0  0  0  0
  -18.3260    1.1291  -15.1621 C   0  0  0  0  0  0  0  0  0  0  0  0
 23 24  1  0  0  0
 24 25  1  0  0  0
 24 29  2  0  0  0
 25 26  2  0  0  0
 26 27  1  0  0  0
 27 28  2  0  0  0
 28 21  1  0  0  0
 28 29  1  0  0  0
 21  1  1  0  0  0
 21 22  1  0  0  0
  1  2  1  0  0  0
  1 10  2  0  0  0
  2  3  2  0  0  0
  3  4  1  0  0  0
  4 11  1  0  0  0
  4  5  2  0  0  0
 11 12  1  0  0  0
 11 20  2  0  0  0
 12 13  2  0  0  0
 13 14  1  0  0  0
 14 15  2  0  0  0
 15 16  1  0  0  0
 15 20  1  0  0  0
 16 17  2  0  0  0
 17 18  1  0  0  0
 18 19  2  0  0  0
 19 20  1  0  0  0
  5  6  1  0  0  0
  5 10  1  0  0  0
  6  7  2  0  0  0
  7  8  1  0  0  0
  8  9  2  0  0  0
  9 10  1  0  0  0
M  END
> <minimizedAffinity>
-8.30111

$$$$
