CHEMBL250610


 27 30  0  0  0  0  0  0  0  0999 V2000
  -29.8499   -3.1419   -4.9825 C   0  0  0  0  0  0  0  0  0  0  0  0
  -29.7137   -1.9340   -4.2802 C   0  0  0  0  0  0  0  0  0  0  0  0
  -29.0449   -0.8569   -4.8435 C   0  0  0  0  0  0  0  0  0  0  0  0
  -28.4520   -0.9494   -6.1123 C   0  0  0  0  0  0  0  0  0  0  0  0
  -28.5261   -2.1798   -6.8042 C   0  0  0  0  0  0  0  0  0  0  0  0
  -29.2143   -3.2898   -6.2492 C   0  0  0  0  0  0  0  0  0  0  0  0
  -29.1291   -4.3669   -7.2018 C   0  0  0  0  0  0  0  0  0  0  0  0
  -28.5057   -3.8642   -8.3117 C   0  0  0  0  0  0  0  0  0  0  0  0
  -28.0691   -2.5990   -8.0432 N   0  0  0  0  0  0  0  0  0  0  0  0
  -27.2209   -1.8947   -8.9687 C   0  0  0  0  0  0  0  0  0  0  0  0
  -29.6791   -5.6859   -7.1176 C   0  0  0  0  0  0  0  0  0  0  0  0
  -29.3088   -6.6910   -6.3024 C   0  0  0  0  0  0  0  0  0  0  0  0
  -28.2585   -6.7373   -5.2502 C   0  0  0  0  0  0  0  0  0  0  0  0
  -27.7007   -5.8398   -4.6521 O   0  0  0  0  0  0  0  0  0  0  0  0
  -28.0838   -8.0938   -5.0479 N   0  0  0  0  0  0  0  0  0  0  0  0
  -29.0107   -8.8977   -5.6646 N   0  0  0  0  0  0  0  0  0  0  0  0
  -29.7826   -8.1027   -6.3692 C   0  0  0  0  0  0  0  0  0  0  0  0
  -27.4574   -8.4722   -4.3464 H   0  0  0  0  0  0  0  0  0  0  0  0
  -30.9531   -8.5814   -7.0338 C   0  0  0  0  0  0  0  0  0  0  0  0
  -32.2941   -8.2890   -6.8640 C   0  0  0  0  0  0  0  0  0  0  0  0
  -33.1663   -9.0134   -7.6593 N   0  0  0  0  0  0  0  0  0  0  0  0
  -32.5217   -9.8694   -8.4336 N   0  0  0  0  0  0  0  0  0  0  0  0
  -30.8645   -9.8226   -8.2159 S   0  0  0  0  0  0  0  0  0  0  0  0
  -31.3036   -3.8820   -3.2725 C   0  0  0  0  0  0  0  0  0  0  0  0
  -30.5922   -4.1875   -4.4765 O   0  0  0  0  0  0  0  0  0  0  0  0
  -28.0834    0.2633   -6.6649 O   0  0  0  0  0  0  0  0  0  0  0  0
  -29.0335    1.3112   -6.5343 C   0  0  0  0  0  0  0  0  0  0  0  0
 24 25  1  0  0  0
 25  1  1  0  0  0
  1  2  1  0  0  0
  1  6  2  0  0  0
  2  3  2  0  0  0
  3  4  1  0  0  0
  4 26  1  0  0  0
  4  5  2  0  0  0
 26 27  1  0  0  0
  5  6  1  0  0  0
  5  9  1  0  0  0
  6  7  1  0  0  0
  7 11  1  0  0  0
  7  8  2  0  0  0
 11 12  2  0  0  0
 12 13  1  0  0  0
 12 17  1  0  0  0
 13 14  2  0  0  0
 13 15  1  0  0  0
 15 16  1  0  0  0
 15 18  1  0  0  0
 16 17  2  0  0  0
 17 19  1  0  0  0
 19 20  2  0  0  0
 19 23  1  0  0  0
 20 21  1  0  0  0
 21 22  2  0  0  0
 22 23  1  0  0  0
  8  9  1  0  0  0
  9 10  1  0  0  0
M  END
> <minimizedAffinity>
-8.84703

$$$$
