CHEMBL4515912


 32 34  0  0  0  0  0  0  0  0999 V2000
  -30.1980   -4.8051   -5.5122 C   0  0  0  0  0  0  0  0  0  0  0  0
  -30.3013   -5.1734   -4.1807 C   0  0  0  0  0  0  0  0  0  0  0  0
  -29.9671   -6.4715   -3.7820 C   0  0  0  0  0  0  0  0  0  0  0  0
  -30.4745   -6.8392   -2.5558 O   0  0  0  0  0  0  0  0  0  0  0  0
  -29.4589   -7.4402   -4.6608 C   0  0  0  0  0  0  0  0  0  0  0  0
  -29.9138   -7.1797   -5.9847 C   0  0  0  0  0  0  0  0  0  0  0  0
  -30.1104   -5.8482   -6.4271 C   0  0  0  0  0  0  0  0  0  0  0  0
  -30.5064   -8.1810   -6.8869 C   0  0  0  0  0  0  0  0  0  0  0  0
  -31.8591   -8.3412   -7.2134 C   0  0  0  0  0  0  0  0  0  0  0  0
  -32.2799   -9.4184   -8.0212 C   0  0  0  0  0  0  0  0  0  0  0  0
  -31.3628  -10.4067   -8.3878 C   0  0  0  0  0  0  0  0  0  0  0  0
  -30.0173  -10.2289   -8.0723 C   0  0  0  0  0  0  0  0  0  0  0  0
  -29.6317   -8.9941   -7.5209 C   0  0  0  0  0  0  0  0  0  0  0  0
  -29.0052  -11.3924   -8.0168 C   0  0  0  0  0  0  0  0  0  0  0  0
  -29.5875  -12.3876   -7.1555 O   0  0  0  0  0  0  0  0  0  0  0  0
  -27.7433  -10.8655   -7.3436 C   0  0  0  0  0  0  0  0  0  0  0  0
  -28.0224  -10.6552   -5.9488 O   0  0  0  0  0  0  0  0  0  0  0  0
  -26.3237  -11.3453   -7.3894 C   0  0  0  0  0  0  0  0  0  0  0  0
  -25.9982  -12.4659   -7.7312 O   0  0  0  0  0  0  0  0  0  0  0  0
  -25.3396  -10.2178   -7.0030 C   0  0  0  0  0  0  0  0  0  0  0  0
  -24.5448  -10.5483   -5.7677 C   0  0  0  0  0  0  0  0  0  0  0  0
  -24.7102   -9.4835   -4.6505 C   0  0  0  0  0  0  0  0  0  0  0  0
  -26.0495   -9.4712   -3.8011 C   0  0  0  0  0  0  0  0  0  0  0  0
  -26.2059  -10.9078   -3.2339 C   0  0  0  0  0  0  0  0  0  0  0  0
  -27.2042   -8.7136   -4.4971 O   0  0  0  0  0  0  0  0  0  0  0  0
  -28.5441   -8.6236   -4.0527 C   0  0  0  0  0  0  0  0  0  0  0  0
  -28.9405   -9.3052   -3.1119 O   0  0  0  0  0  0  0  0  0  0  0  0
  -31.4431   -6.6334   -2.5679 H   0  0  0  0  0  0  0  0  0  0  0  0
  -30.0964  -11.9004   -6.4687 H   0  0  0  0  0  0  0  0  0  0  0  0
  -28.1630  -11.5326   -5.5476 H   0  0  0  0  0  0  0  0  0  0  0  0
  -29.6576   -2.5358   -5.2881 C   0  0  0  0  0  0  0  0  0  0  0  0
  -30.3489   -3.5544   -6.0164 O   0  0  0  0  0  0  0  0  0  0  0  0
 31 32  1  0  0  0
 32  1  1  0  0  0
  1  2  1  0  0  0
  1  7  2  0  0  0
  2  3  2  0  0  0
  3  4  1  0  0  0
  3  5  1  0  0  0
  4 28  1  0  0  0
  5  6  2  0  0  0
  5 26  1  0  0  0
  6  7  1  0  0  0
  6  8  1  0  0  0
  8  9  1  0  0  0
  8 13  2  0  0  0
  9 10  2  0  0  0
 10 11  1  0  0  0
 11 12  2  0  0  0
 12 13  1  0  0  0
 12 14  1  0  0  0
 14 16  1  0  0  0
 14 15  1  0  0  0
 15 29  1  0  0  0
 16 17  1  0  0  0
 16 18  1  0  0  0
 17 30  1  0  0  0
 18 19  2  0  0  0
 18 20  1  0  0  0
 20 21  1  0  0  0
 21 22  1  0  0  0
 22 23  1  0  0  0
 23 25  1  0  0  0
 23 24  1  0  0  0
 25 26  1  0  0  0
 26 27  2  0  0  0
M  END
> <minimizedAffinity>
-9.35577

$$$$
