CHEMBL3975598


 40 43  0  0  0  0  0  0  0  0999 V2000
  -13.9346    1.7800  -14.8556 C   0  0  0  0  0  0  0  0  0  0  0  0
  -12.6618    2.7755  -14.4542 N   0  0  0  0  0  0  0  0  0  0  0  0
  -11.5303    2.4301  -13.8026 C   0  0  0  0  0  0  0  0  0  0  0  0
  -12.0920    1.3426  -13.8728 N   0  0  0  0  0  0  0  0  0  0  0  0
  -12.6520    0.2042  -13.9331 C   0  0  0  0  0  0  0  0  0  0  0  0
  -11.9261   -0.8073  -13.5582 C   0  0  0  0  0  0  0  0  0  0  0  0
  -12.5829   -1.9678  -13.6333 C   0  0  0  0  0  0  0  0  0  0  0  0
  -13.9007   -2.0331  -14.1595 C   0  0  0  0  0  0  0  0  0  0  0  0
  -14.5755   -0.8534  -14.5336 C   0  0  0  0  0  0  0  0  0  0  0  0
  -13.8520    0.3649  -14.4791 C   0  0  0  0  0  0  0  0  0  0  0  0
  -15.3517    1.8567  -15.6316 N   0  0  0  0  0  0  0  0  0  0  0  0
  -15.1815    2.3292  -16.5162 H   0  0  0  0  0  0  0  0  0  0  0  0
  -19.6165    2.1278  -14.9474 C   0  0  0  0  0  0  0  0  0  0  0  0
  -18.7510    3.1942  -15.1484 C   0  0  0  0  0  0  0  0  0  0  0  0
  -17.3835    3.0232  -15.3688 C   0  0  0  0  0  0  0  0  0  0  0  0
  -16.7645    1.8071  -15.4119 C   0  0  0  0  0  0  0  0  0  0  0  0
  -17.6294    0.6733  -15.1482 C   0  0  0  0  0  0  0  0  0  0  0  0
  -19.0617    0.8390  -14.9783 C   0  0  0  0  0  0  0  0  0  0  0  0
  -21.8120    1.3787  -14.0538 N   0  0  0  0  0  0  0  0  0  0  0  0
  -21.0446    2.4274  -14.5500 C   0  0  0  0  0  0  0  0  0  0  0  0
  -21.5076    3.5493  -14.7178 O   0  0  0  0  0  0  0  0  0  0  0  0
  -21.3916    0.4707  -13.8791 H   0  0  0  0  0  0  0  0  0  0  0  0
  -23.2440    1.5282  -13.6906 C   0  0  0  0  0  0  0  0  0  0  0  0
  -23.7556    0.3358  -12.8547 C   0  0  0  0  0  0  0  0  0  0  0  0
  -24.2686    0.5012  -11.7519 O   0  0  0  0  0  0  0  0  0  0  0  0
  -24.8255   -1.5781  -13.7229 C   0  0  0  0  0  0  0  0  0  0  0  0
  -23.5905   -0.8822  -13.4416 O   0  0  0  0  0  0  0  0  0  0  0  0
  -14.6044   -3.1968  -14.3177 O   0  0  0  0  0  0  0  0  0  0  0  0
  -15.8763   -3.1844  -13.6686 C   0  0  0  0  0  0  0  0  0  0  0  0
  -11.9217   -3.0201  -13.1155 O   0  0  0  0  0  0  0  0  0  0  0  0
  -11.9599   -3.1248  -11.6926 C   0  0  0  0  0  0  0  0  0  0  0  0
  -13.0217   -4.1288  -11.4470 C   0  0  0  0  0  0  0  0  0  0  0  0
  -12.3953   -5.4177  -10.9734 C   0  0  0  0  0  0  0  0  0  0  0  0
  -13.2653   -6.5147  -11.3617 N   0  0  0  0  0  0  0  0  0  0  0  0
  -14.0004   -6.2086  -12.6030 C   0  0  0  0  0  0  0  0  0  0  0  0
  -14.9777   -7.3391  -12.9294 C   0  0  0  0  0  0  0  0  0  0  0  0
  -14.3239   -8.6508  -13.0893 N   0  0  0  0  0  0  0  0  0  0  0  0
  -13.5512   -8.6535  -14.3296 C   0  0  0  0  0  0  0  0  0  0  0  0
  -13.4241   -8.9089  -11.9409 C   0  0  0  0  0  0  0  0  0  0  0  0
  -12.4870   -7.7377  -11.5830 C   0  0  0  0  0  0  0  0  0  0  0  0
 26 27  1  0  0  0
 27 24  1  0  0  0
 24 25  2  0  0  0
 24 23  1  0  0  0
 23 19  1  0  0  0
 19 20  1  0  0  0
 19 22  1  0  0  0
 20 21  2  0  0  0
 20 13  1  0  0  0
 13 14  1  0  0  0
 13 18  2  0  0  0
 14 15  2  0  0  0
 15 16  1  0  0  0
 16 11  1  0  0  0
 16 17  2  0  0  0
 11  1  1  0  0  0
 11 12  1  0  0  0
  1  2  1  0  0  0
  1 10  2  0  0  0
  2  3  2  0  0  0
  3  4  1  0  0  0
  4  5  2  0  0  0
  5  6  1  0  0  0
  5 10  1  0  0  0
  6  7  2  0  0  0
  7 30  1  0  0  0
  7  8  1  0  0  0
 30 31  1  0  0  0
 31 32  1  0  0  0
 32 33  1  0  0  0
 33 34  1  0  0  0
 34 35  1  0  0  0
 34 40  1  0  0  0
 35 36  1  0  0  0
 36 37  1  0  0  0
 37 38  1  0  0  0
 37 39  1  0  0  0
 39 40  1  0  0  0
  8 28  1  0  0  0
  8  9  2  0  0  0
 28 29  1  0  0  0
  9 10  1  0  0  0
 17 18  1  0  0  0
M  END
> <minimizedAffinity>
-7.91968

$$$$
