CHEMBL3919493


 35 38  0  0  0  0  0  0  0  0999 V2000
  -28.7918   -5.3142   -5.7967 C   0  0  0  0  0  0  0  0  0  0  0  0
  -28.5324   -4.0196   -5.3011 C   0  0  0  0  0  0  0  0  0  0  0  0
  -28.2736   -2.9340   -6.1213 C   0  0  0  0  0  0  0  0  0  0  0  0
  -27.9675   -1.7468   -5.5812 N   0  0  0  0  0  0  0  0  0  0  0  0
  -27.7022   -0.7492   -6.4285 C   0  0  0  0  0  0  0  0  0  0  0  0
  -27.7549   -0.8188   -7.7620 N   0  0  0  0  0  0  0  0  0  0  0  0
  -28.0722   -2.0113   -8.2985 C   0  0  0  0  0  0  0  0  0  0  0  0
  -28.3200   -3.1435   -7.5011 C   0  0  0  0  0  0  0  0  0  0  0  0
  -28.5690   -4.4506   -8.0056 C   0  0  0  0  0  0  0  0  0  0  0  0
  -28.8222   -5.5338   -7.1716 C   0  0  0  0  0  0  0  0  0  0  0  0
  -28.1559   -2.1562   -9.7110 N   0  0  0  0  0  0  0  0  0  0  0  0
  -29.1004   -1.9403  -10.0137 H   0  0  0  0  0  0  0  0  0  0  0  0
  -27.1974   -1.8312  -10.6899 C   0  0  0  0  0  0  0  0  0  0  0  0
  -25.8608   -1.5674  -10.3756 C   0  0  0  0  0  0  0  0  0  0  0  0
  -24.9323   -1.2521  -11.3692 C   0  0  0  0  0  0  0  0  0  0  0  0
  -25.3192   -1.2385  -12.7074 C   0  0  0  0  0  0  0  0  0  0  0  0
  -24.1319   -0.8065  -13.8843 Cl  0  0  0  0  0  0  0  0  0  0  0  0
  -26.6317   -1.5742  -13.0483 C   0  0  0  0  0  0  0  0  0  0  0  0
  -27.1788   -1.6234  -14.6876 Cl  0  0  0  0  0  0  0  0  0  0  0  0
  -27.5583   -1.8822  -12.0446 C   0  0  0  0  0  0  0  0  0  0  0  0
  -28.8299   -6.7479   -7.8057 O   0  0  0  0  0  0  0  0  0  0  0  0
  -30.0726   -7.4428   -7.8729 C   0  0  0  0  0  0  0  0  0  0  0  0
  -28.9341   -6.2088   -4.7787 O   0  0  0  0  0  0  0  0  0  0  0  0
  -28.0271   -7.2960   -4.6598 C   0  0  0  0  0  0  0  0  0  0  0  0
  -26.5419  -10.0256   -4.0065 N   0  0  0  0  0  0  0  0  0  0  0  0
  -26.9339  -10.6029   -5.3124 C   0  0  0  0  0  0  0  0  0  0  0  0
  -28.0198   -9.8686   -6.1326 C   0  0  0  0  0  0  0  0  0  0  0  0
  -29.1095   -9.4005   -5.3364 O   0  0  0  0  0  0  0  0  0  0  0  0
  -28.6610   -8.6243   -4.2084 C   0  0  0  0  0  0  0  0  0  0  0  0
  -27.7323   -9.4890   -3.3320 C   0  0  0  0  0  0  0  0  0  0  0  0
  -25.3757   -9.1410   -4.0694 C   0  0  0  0  0  0  0  0  0  0  0  0
  -23.3850   -9.9636   -5.6846 C   0  0  0  0  0  0  0  0  0  0  0  0
  -24.3011   -9.6258   -4.9618 C   0  0  0  0  0  0  0  0  0  0  0  0
  -21.5338  -11.5593   -6.0416 C   0  0  0  0  0  0  0  0  0  0  0  0
  -22.2740  -10.3407   -6.5684 C   0  0  0  0  0  0  0  0  0  0  0  0
 34 35  1  0  0  0
 35 32  1  0  0  0
 32 33  3  0  0  0
 33 31  1  0  0  0
 31 25  1  0  0  0
 25 26  1  0  0  0
 25 30  1  0  0  0
 26 27  1  0  0  0
 27 28  1  0  0  0
 28 29  1  0  0  0
 29 24  1  0  0  0
 29 30  1  0  0  0
 24 23  1  0  0  0
 23  1  1  0  0  0
  1  2  1  0  0  0
  1 10  2  0  0  0
  2  3  2  0  0  0
  3  4  1  0  0  0
  3  8  1  0  0  0
  4  5  2  0  0  0
  5  6  1  0  0  0
  6  7  2  0  0  0
  7 11  1  0  0  0
  7  8  1  0  0  0
 11 13  1  0  0  0
 11 12  1  0  0  0
 13 14  1  0  0  0
 13 20  2  0  0  0
 14 15  2  0  0  0
 15 16  1  0  0  0
 16 17  1  0  0  0
 16 18  2  0  0  0
 18 19  1  0  0  0
 18 20  1  0  0  0
  8  9  2  0  0  0
  9 10  1  0  0  0
 10 21  1  0  0  0
 21 22  1  0  0  0
M  END
> <minimizedAffinity>
-8.83166

$$$$
