CHEMBL2016909


 32 36  0  0  0  0  0  0  0  0999 V2000
  -30.9238   -3.8413   -4.7850 O   0  0  0  0  0  0  0  0  0  0  0  0
  -30.1926   -4.3908   -5.6243 C   0  0  0  0  0  0  0  0  0  0  0  0
  -29.2057   -3.6733   -6.3077 N   0  0  0  0  0  0  0  0  0  0  0  0
  -29.1282   -2.2640   -5.8730 C   0  0  0  0  0  0  0  0  0  0  0  0
  -28.1154   -1.3324   -6.5413 C   0  0  0  0  0  0  0  0  0  0  0  0
  -27.7133   -1.8432   -7.8499 C   0  0  0  0  0  0  0  0  0  0  0  0
  -26.8879   -1.1878   -8.7059 N   0  0  0  0  0  0  0  0  0  0  0  0
  -26.8397   -1.9418   -9.7946 C   0  0  0  0  0  0  0  0  0  0  0  0
  -27.6308   -3.0646   -9.6361 N   0  0  0  0  0  0  0  0  0  0  0  0
  -28.1270   -3.0453   -8.3686 C   0  0  0  0  0  0  0  0  0  0  0  0
  -28.9786   -4.0414   -7.7118 C   0  0  0  0  0  0  0  0  0  0  0  0
  -27.7914   -3.7634  -10.3624 H   0  0  0  0  0  0  0  0  0  0  0  0
  -26.1545   -1.7070  -11.0094 C   0  0  0  0  0  0  0  0  0  0  0  0
  -24.8898   -1.2398  -10.9416 C   0  0  0  0  0  0  0  0  0  0  0  0
  -24.1819   -0.8343  -12.1474 C   0  0  0  0  0  0  0  0  0  0  0  0
  -22.8877   -0.3147  -12.0826 C   0  0  0  0  0  0  0  0  0  0  0  0
  -22.2909    0.1648  -13.2418 C   0  0  0  0  0  0  0  0  0  0  0  0
  -21.0638    0.6969  -13.1767 F   0  0  0  0  0  0  0  0  0  0  0  0
  -22.9536    0.1224  -14.4661 C   0  0  0  0  0  0  0  0  0  0  0  0
  -24.2336   -0.4296  -14.5426 C   0  0  0  0  0  0  0  0  0  0  0  0
  -24.8435   -0.9022  -13.3813 C   0  0  0  0  0  0  0  0  0  0  0  0
  -26.1361   -1.4431  -13.4368 N   0  0  0  0  0  0  0  0  0  0  0  0
  -26.8120   -1.8920  -12.3379 C   0  0  0  0  0  0  0  0  0  0  0  0
  -27.9371   -2.3995  -12.4427 O   0  0  0  0  0  0  0  0  0  0  0  0
  -26.6195   -1.5212  -14.3219 H   0  0  0  0  0  0  0  0  0  0  0  0
  -30.2877   -5.9108   -5.8603 C   0  0  0  0  0  0  0  0  0  0  0  0
  -28.9571   -6.5117   -5.6693 N   0  0  0  0  0  0  0  0  0  0  0  0
  -28.6745   -7.6243   -6.5898 C   0  0  0  0  0  0  0  0  0  0  0  0
  -29.1667   -8.9941   -6.1053 C   0  0  0  0  0  0  0  0  0  0  0  0
  -28.6350   -9.3025   -4.8142 O   0  0  0  0  0  0  0  0  0  0  0  0
  -29.0509   -8.3197   -3.8591 C   0  0  0  0  0  0  0  0  0  0  0  0
  -28.6350   -6.9016   -4.2815 C   0  0  0  0  0  0  0  0  0  0  0  0
  1  2  2  0  0  0
  2 26  1  0  0  0
  2  3  1  0  0  0
 26 27  1  0  0  0
 27 28  1  0  0  0
 27 32  1  0  0  0
 28 29  1  0  0  0
 29 30  1  0  0  0
 30 31  1  0  0  0
 31 32  1  0  0  0
  3  4  1  0  0  0
  3 11  1  0  0  0
  4  5  1  0  0  0
  5  6  1  0  0  0
  6  7  1  0  0  0
  6 10  2  0  0  0
  7  8  2  0  0  0
  8 13  1  0  0  0
  8  9  1  0  0  0
 13 14  2  0  0  0
 13 23  1  0  0  0
 14 15  1  0  0  0
 15 16  1  0  0  0
 15 21  2  0  0  0
 16 17  2  0  0  0
 17 18  1  0  0  0
 17 19  1  0  0  0
 19 20  2  0  0  0
 20 21  1  0  0  0
 21 22  1  0  0  0
 22 23  1  0  0  0
 22 25  1  0  0  0
 23 24  2  0  0  0
  9 10  1  0  0  0
  9 12  1  0  0  0
 10 11  1  0  0  0
M  END
> <minimizedAffinity>
-10.27677

$$$$
