CHEMBL4798001


 43 48  0  0  0  0  0  0  0  0999 V2000
  -13.3164   -3.2446  -14.6379 C   0  0  0  0  0  0  0  0  0  0  0  0
  -13.9515   -3.5076  -13.4861 N   0  0  0  0  0  0  0  0  0  0  0  0
  -14.5794   -2.4551  -12.9297 C   0  0  0  0  0  0  0  0  0  0  0  0
  -14.5793   -1.1885  -13.4634 C   0  0  0  0  0  0  0  0  0  0  0  0
  -13.9662   -1.0225  -14.6733 C   0  0  0  0  0  0  0  0  0  0  0  0
  -13.3371   -2.0467  -15.2383 N   0  0  0  0  0  0  0  0  0  0  0  0
  -12.3261   -6.3216  -16.2992 N   0  0  0  0  0  0  0  0  0  0  0  0
  -13.1803   -5.4177  -15.6896 C   0  0  0  0  0  0  0  0  0  0  0  0
  -14.4035   -5.6082  -15.6287 O   0  0  0  0  0  0  0  0  0  0  0  0
  -12.5755   -4.2925  -15.1996 N   0  0  0  0  0  0  0  0  0  0  0  0
  -11.3344   -6.2167  -16.1279 H   0  0  0  0  0  0  0  0  0  0  0  0
  -11.6104   -4.0759  -15.3783 H   0  0  0  0  0  0  0  0  0  0  0  0
  -13.6338   -9.7215  -18.5217 C   0  0  0  0  0  0  0  0  0  0  0  0
  -13.3006   -9.8493  -17.1829 C   0  0  0  0  0  0  0  0  0  0  0  0
  -12.8654   -8.7391  -16.4581 C   0  0  0  0  0  0  0  0  0  0  0  0
  -12.7518   -7.4675  -17.0391 C   0  0  0  0  0  0  0  0  0  0  0  0
  -13.0825   -7.3422  -18.3856 C   0  0  0  0  0  0  0  0  0  0  0  0
  -13.5203   -8.4625  -19.1199 C   0  0  0  0  0  0  0  0  0  0  0  0
  -14.7858  -11.7902  -18.6641 C   0  0  0  0  0  0  0  0  0  0  0  0
  -14.0728  -10.7413  -19.3197 O   0  0  0  0  0  0  0  0  0  0  0  0
  -13.9332    0.2228  -15.2560 N   0  0  0  0  0  0  0  0  0  0  0  0
  -12.8315    0.5730  -16.1615 C   0  0  0  0  0  0  0  0  0  0  0  0
  -12.5776    2.0982  -16.0194 C   0  0  0  0  0  0  0  0  0  0  0  0
  -13.8231    2.8715  -16.1854 N   0  0  0  0  0  0  0  0  0  0  0  0
  -15.0157    2.3944  -15.4640 C   0  0  0  0  0  0  0  0  0  0  0  0
  -15.1955    0.8757  -15.6325 C   0  0  0  0  0  0  0  0  0  0  0  0
  -13.9331    3.9668  -17.0055 C   0  0  0  0  0  0  0  0  0  0  0  0
  -14.8936    4.0407  -18.0122 C   0  0  0  0  0  0  0  0  0  0  0  0
  -14.9828    5.1754  -18.8165 C   0  0  0  0  0  0  0  0  0  0  0  0
  -14.1114    6.2270  -18.5973 C   0  0  0  0  0  0  0  0  0  0  0  0
  -13.1788    6.0890  -17.5915 C   0  0  0  0  0  0  0  0  0  0  0  0
  -13.0718    4.9887  -16.8131 N   0  0  0  0  0  0  0  0  0  0  0  0
  -15.5763   -2.7049  -11.4603 S   0  0  0  0  0  0  0  0  0  0  0  0
  -14.8748   -4.2349  -10.9681 C   0  0  0  0  0  0  0  0  0  0  0  0
  -13.8515   -4.3387  -10.0551 C   0  0  0  0  0  0  0  0  0  0  0  0
  -13.5955   -5.6723   -9.9180 N   0  0  0  0  0  0  0  0  0  0  0  0
  -14.0403   -6.3215  -11.0465 C   0  0  0  0  0  0  0  0  0  0  0  0
  -13.6462   -7.5323  -11.6231 C   0  0  0  0  0  0  0  0  0  0  0  0
  -14.3715   -7.9751  -12.7317 C   0  0  0  0  0  0  0  0  0  0  0  0
  -15.5114   -7.2944  -13.1576 C   0  0  0  0  0  0  0  0  0  0  0  0
  -15.8777   -6.0705  -12.5777 C   0  0  0  0  0  0  0  0  0  0  0  0
  -15.0566   -5.5192  -11.5712 C   0  0  0  0  0  0  0  0  0  0  0  0
  -13.0939   -6.1027   -9.1537 H   0  0  0  0  0  0  0  0  0  0  0  0
 19 20  1  0  0  0
 20 13  1  0  0  0
 13 14  1  0  0  0
 13 18  2  0  0  0
 14 15  2  0  0  0
 15 16  1  0  0  0
 16  7  1  0  0  0
 16 17  2  0  0  0
  7  8  1  0  0  0
  7 11  1  0  0  0
  8  9  2  0  0  0
  8 10  1  0  0  0
 10  1  1  0  0  0
 10 12  1  0  0  0
  1  2  1  0  0  0
  1  6  2  0  0  0
  2  3  2  0  0  0
  3 33  1  0  0  0
  3  4  1  0  0  0
 33 34  1  0  0  0
 34 35  2  0  0  0
 34 42  1  0  0  0
 35 36  1  0  0  0
 36 37  1  0  0  0
 36 43  1  0  0  0
 37 38  1  0  0  0
 37 42  2  0  0  0
 38 39  2  0  0  0
 39 40  1  0  0  0
 40 41  2  0  0  0
 41 42  1  0  0  0
  4  5  2  0  0  0
  5 21  1  0  0  0
  5  6  1  0  0  0
 21 22  1  0  0  0
 21 26  1  0  0  0
 22 23  1  0  0  0
 23 24  1  0  0  0
 24 27  1  0  0  0
 24 25  1  0  0  0
 27 28  1  0  0  0
 27 32  2  0  0  0
 28 29  2  0  0  0
 29 30  1  0  0  0
 30 31  2  0  0  0
 31 32  1  0  0  0
 25 26  1  0  0  0
 17 18  1  0  0  0
M  END
> <minimizedAffinity>
-7.71772

$$$$
