CHEMBL2011295


 30 33  0  0  0  0  0  0  0  0999 V2000
  -30.4408   -4.8739   -8.0238 N   0  0  0  0  0  0  0  0  0  0  0  0
  -29.7631   -5.4269   -6.9751 C   0  0  0  0  0  0  0  0  0  0  0  0
  -29.6247   -6.7549   -6.6094 C   0  0  0  0  0  0  0  0  0  0  0  0
  -28.7198   -6.7462   -5.4904 C   0  0  0  0  0  0  0  0  0  0  0  0
  -28.2446   -5.5092   -5.2705 N   0  0  0  0  0  0  0  0  0  0  0  0
  -28.9724   -4.6953   -6.0791 N   0  0  0  0  0  0  0  0  0  0  0  0
  -30.7583   -5.4911   -8.7702 H   0  0  0  0  0  0  0  0  0  0  0  0
  -30.1393   -3.9779   -8.4041 H   0  0  0  0  0  0  0  0  0  0  0  0
  -30.2652   -7.8788   -7.2983 C   0  0  0  0  0  0  0  0  0  0  0  0
  -29.5116   -8.7231   -8.1343 C   0  0  0  0  0  0  0  0  0  0  0  0
  -30.0491   -9.9198   -8.6135 C   0  0  0  0  0  0  0  0  0  0  0  0
  -31.3734  -10.2283   -8.3402 C   0  0  0  0  0  0  0  0  0  0  0  0
  -31.8873  -11.3825   -8.7831 F   0  0  0  0  0  0  0  0  0  0  0  0
  -32.1686   -9.3625   -7.6001 C   0  0  0  0  0  0  0  0  0  0  0  0
  -31.6103   -8.1999   -7.0614 C   0  0  0  0  0  0  0  0  0  0  0  0
  -28.2464   -7.8972   -4.6987 C   0  0  0  0  0  0  0  0  0  0  0  0
  -26.8821   -8.1562   -4.5584 C   0  0  0  0  0  0  0  0  0  0  0  0
  -26.4940   -9.3585   -3.9853 C   0  0  0  0  0  0  0  0  0  0  0  0
  -27.3555  -10.3068   -3.5594 N   0  0  0  0  0  0  0  0  0  0  0  0
  -28.6657  -10.0107   -3.6440 C   0  0  0  0  0  0  0  0  0  0  0  0
  -29.1481   -8.8149   -4.1474 C   0  0  0  0  0  0  0  0  0  0  0  0
  -28.8408   -3.2751   -5.9761 C   0  0  0  0  0  0  0  0  0  0  0  0
  -29.5572   -2.5795   -4.9853 C   0  0  0  0  0  0  0  0  0  0  0  0
  -29.3972   -1.1948   -4.8360 C   0  0  0  0  0  0  0  0  0  0  0  0
  -28.5408   -0.4989   -5.7063 C   0  0  0  0  0  0  0  0  0  0  0  0
  -27.8546   -1.1721   -6.7174 C   0  0  0  0  0  0  0  0  0  0  0  0
  -28.0100   -2.5628   -6.8517 C   0  0  0  0  0  0  0  0  0  0  0  0
  -28.3620    0.9510   -5.5600 N   0  0  0  0  0  0  0  0  0  0  0  0
  -27.9970    1.3776   -4.4543 O   0  0  0  0  0  0  0  0  0  0  0  0
  -28.5794    1.6614   -6.5512 O   0  0  0  0  0  0  0  0  0  0  0  0
  1  2  1  0  0  0
  1  7  1  0  0  0
  1  8  1  0  0  0
  2  3  2  0  0  0
  2  6  1  0  0  0
  3  9  1  0  0  0
  3  4  1  0  0  0
  9 10  1  0  0  0
  9 15  2  0  0  0
 10 11  2  0  0  0
 11 12  1  0  0  0
 12 13  1  0  0  0
 12 14  2  0  0  0
 14 15  1  0  0  0
  4 16  1  0  0  0
  4  5  2  0  0  0
 16 17  1  0  0  0
 16 21  2  0  0  0
 17 18  2  0  0  0
 18 19  1  0  0  0
 19 20  2  0  0  0
 20 21  1  0  0  0
  5  6  1  0  0  0
  6 22  1  0  0  0
 22 23  1  0  0  0
 22 27  2  0  0  0
 23 24  2  0  0  0
 24 25  1  0  0  0
 25 28  1  0  0  0
 25 26  2  0  0  0
 28 29  2  0  0  0
 28 30  1  0  0  0
 26 27  1  0  0  0
M  CHG 1  28   1
M  CHG 1  30  -1
M  END
> <minimizedAffinity>
-8.56879

$$$$
