CHEMBL1084633


 36 39  0  0  0  0  0  0  0  0999 V2000
  -28.4707   -3.4829   -6.2860 C   0  0  0  0  0  0  0  0  0  0  0  0
  -28.6642   -3.9914   -7.5674 C   0  0  0  0  0  0  0  0  0  0  0  0
  -28.4320   -3.1962   -8.6804 C   0  0  0  0  0  0  0  0  0  0  0  0
  -28.0282   -1.8636   -8.5586 C   0  0  0  0  0  0  0  0  0  0  0  0
  -28.0818   -1.2547   -7.2674 C   0  0  0  0  0  0  0  0  0  0  0  0
  -27.9389    0.1398   -7.0455 C   0  0  0  0  0  0  0  0  0  0  0  0
  -28.0079    0.6974   -5.7645 C   0  0  0  0  0  0  0  0  0  0  0  0
  -28.1904   -0.1218   -4.6605 C   0  0  0  0  0  0  0  0  0  0  0  0
  -28.3150   -1.5002   -4.8344 C   0  0  0  0  0  0  0  0  0  0  0  0
  -28.2881   -2.0897   -6.1165 C   0  0  0  0  0  0  0  0  0  0  0  0
  -27.5462   -1.1616   -9.7143 N   0  0  0  0  0  0  0  0  0  0  0  0
  -26.5291   -1.6403  -10.5342 C   0  0  0  0  0  0  0  0  0  0  0  0
  -25.9633   -2.7145  -10.4054 O   0  0  0  0  0  0  0  0  0  0  0  0
  -26.1887   -0.7764  -11.5596 N   0  0  0  0  0  0  0  0  0  0  0  0
  -27.7453   -0.1779   -9.7762 H   0  0  0  0  0  0  0  0  0  0  0  0
  -26.4265    0.1979  -11.4382 H   0  0  0  0  0  0  0  0  0  0  0  0
  -25.0949   -1.0909  -12.5094 C   0  0  0  0  0  0  0  0  0  0  0  0
  -25.6464   -1.6584  -13.8349 C   0  0  0  0  0  0  0  0  0  0  0  0
  -24.3249    0.2003  -12.8486 C   0  0  0  0  0  0  0  0  0  0  0  0
  -24.0918   -2.0870  -11.8970 C   0  0  0  0  0  0  0  0  0  0  0  0
  -28.5169   -4.3274   -5.1766 O   0  0  0  0  0  0  0  0  0  0  0  0
  -30.4097   -5.8424   -4.9545 C   0  0  0  0  0  0  0  0  0  0  0  0
  -31.6261   -6.0814   -4.2699 C   0  0  0  0  0  0  0  0  0  0  0  0
  -32.1606   -5.1658   -3.3694 C   0  0  0  0  0  0  0  0  0  0  0  0
  -31.4856   -3.9831   -3.1885 C   0  0  0  0  0  0  0  0  0  0  0  0
  -30.3336   -3.6902   -3.8191 N   0  0  0  0  0  0  0  0  0  0  0  0
  -29.7799   -4.6254   -4.6442 C   0  0  0  0  0  0  0  0  0  0  0  0
  -28.2771   -8.4824   -6.2630 C   0  0  0  0  0  0  0  0  0  0  0  0
  -28.7165   -8.7377   -7.4966 N   0  0  0  0  0  0  0  0  0  0  0  0
  -29.7917   -8.0461   -7.9119 C   0  0  0  0  0  0  0  0  0  0  0  0
  -30.4332   -7.0956   -7.1535 C   0  0  0  0  0  0  0  0  0  0  0  0
  -29.9251   -6.8812   -5.8923 C   0  0  0  0  0  0  0  0  0  0  0  0
  -28.8468   -7.5858   -5.4488 N   0  0  0  0  0  0  0  0  0  0  0  0
  -26.7104   -9.0324   -4.5171 C   0  0  0  0  0  0  0  0  0  0  0  0
  -27.1397   -9.1783   -5.8869 N   0  0  0  0  0  0  0  0  0  0  0  0
  -26.4429   -8.9897   -6.5980 H   0  0  0  0  0  0  0  0  0  0  0  0
 34 35  1  0  0  0
 35 28  1  0  0  0
 35 36  1  0  0  0
 28 29  1  0  0  0
 28 33  2  0  0  0
 29 30  2  0  0  0
 30 31  1  0  0  0
 31 32  2  0  0  0
 32 22  1  0  0  0
 32 33  1  0  0  0
 22 23  1  0  0  0
 22 27  2  0  0  0
 23 24  2  0  0  0
 24 25  1  0  0  0
 25 26  2  0  0  0
 26 27  1  0  0  0
 27 21  1  0  0  0
 21  1  1  0  0  0
  1  2  1  0  0  0
  1 10  2  0  0  0
  2  3  2  0  0  0
  3  4  1  0  0  0
  4 11  1  0  0  0
  4  5  2  0  0  0
 11 12  1  0  0  0
 11 15  1  0  0  0
 12 13  2  0  0  0
 12 14  1  0  0  0
 14 17  1  0  0  0
 14 16  1  0  0  0
 17 18  1  0  0  0
 17 19  1  0  0  0
 17 20  1  0  0  0
  5  6  1  0  0  0
  5 10  1  0  0  0
  6  7  2  0  0  0
  7  8  1  0  0  0
  8  9  2  0  0  0
  9 10  1  0  0  0
M  END
> <minimizedAffinity>
-9.88560

$$$$
