CHEMBL271760


 42 46  0  0  0  0  0  0  0  0999 V2000
  -23.8253   -0.2330  -12.6591 C   0  0  0  0  0  0  0  0  0  0  0  0
  -23.0181   -0.4596  -11.7625 O   0  0  0  0  0  0  0  0  0  0  0  0
  -23.5909    0.5845  -13.7500 N   0  0  0  0  0  0  0  0  0  0  0  0
  -24.3570    0.7611  -14.3831 H   0  0  0  0  0  0  0  0  0  0  0  0
  -25.3530   -1.7268  -14.9515 C   0  0  0  0  0  0  0  0  0  0  0  0
  -25.8981   -1.4712  -13.5740 C   0  0  0  0  0  0  0  0  0  0  0  0
  -27.1931   -1.9441  -13.3006 C   0  0  0  0  0  0  0  0  0  0  0  0
  -27.7613   -1.8347  -12.0271 C   0  0  0  0  0  0  0  0  0  0  0  0
  -27.0537   -1.2545  -10.9800 C   0  0  0  0  0  0  0  0  0  0  0  0
  -25.7727   -0.7544  -11.2442 C   0  0  0  0  0  0  0  0  0  0  0  0
  -25.1958   -0.8277  -12.5359 C   0  0  0  0  0  0  0  0  0  0  0  0
  -27.5524   -1.1639   -9.6573 N   0  0  0  0  0  0  0  0  0  0  0  0
  -27.5763   -2.1853   -8.7162 C   0  0  0  0  0  0  0  0  0  0  0  0
  -27.2411   -3.3500   -8.9101 O   0  0  0  0  0  0  0  0  0  0  0  0
  -28.0203   -0.2996   -9.4152 H   0  0  0  0  0  0  0  0  0  0  0  0
  -28.1336   -1.8344   -7.3777 C   0  0  0  0  0  0  0  0  0  0  0  0
  -27.9176   -0.5368   -6.8892 C   0  0  0  0  0  0  0  0  0  0  0  0
  -28.4088   -0.1602   -5.6377 C   0  0  0  0  0  0  0  0  0  0  0  0
  -29.1362   -1.0710   -4.8745 C   0  0  0  0  0  0  0  0  0  0  0  0
  -29.3845   -2.3530   -5.3669 C   0  0  0  0  0  0  0  0  0  0  0  0
  -28.8874   -2.7373   -6.6178 C   0  0  0  0  0  0  0  0  0  0  0  0
  -22.3906    1.2849  -14.0232 C   0  0  0  0  0  0  0  0  0  0  0  0
  -21.1907    0.7196  -14.3913 C   0  0  0  0  0  0  0  0  0  0  0  0
  -20.0668    1.4349  -14.6090 N   0  0  0  0  0  0  0  0  0  0  0  0
  -20.1184    2.7684  -14.4541 C   0  0  0  0  0  0  0  0  0  0  0  0
  -21.2345    3.4213  -14.0984 N   0  0  0  0  0  0  0  0  0  0  0  0
  -22.3410    2.6618  -13.9076 C   0  0  0  0  0  0  0  0  0  0  0  0
  -18.9584    3.5217  -14.6396 N   0  0  0  0  0  0  0  0  0  0  0  0
  -19.1604    4.5067  -14.7143 H   0  0  0  0  0  0  0  0  0  0  0  0
  -17.7698    3.0838  -15.2411 C   0  0  0  0  0  0  0  0  0  0  0  0
  -16.9408    3.9607  -15.9437 C   0  0  0  0  0  0  0  0  0  0  0  0
  -15.8219    3.4940  -16.6254 C   0  0  0  0  0  0  0  0  0  0  0  0
  -15.4843    2.1402  -16.6503 C   0  0  0  0  0  0  0  0  0  0  0  0
  -16.2819    1.2696  -15.8942 C   0  0  0  0  0  0  0  0  0  0  0  0
  -17.4082    1.7371  -15.1949 C   0  0  0  0  0  0  0  0  0  0  0  0
  -14.3720    1.7331  -17.3617 N   0  0  0  0  0  0  0  0  0  0  0  0
  -13.4972    2.6743  -18.0665 C   0  0  0  0  0  0  0  0  0  0  0  0
  -12.8879    1.9541  -19.2964 C   0  0  0  0  0  0  0  0  0  0  0  0
  -12.1591    0.7116  -18.9356 N   0  0  0  0  0  0  0  0  0  0  0  0
  -11.6580    0.0445  -20.1319 C   0  0  0  0  0  0  0  0  0  0  0  0
  -13.0718   -0.1871  -18.1868 C   0  0  0  0  0  0  0  0  0  0  0  0
  -13.6832    0.4952  -16.9436 C   0  0  0  0  0  0  0  0  0  0  0  0
  5  6  1  0  0  0
  6  7  1  0  0  0
  6 11  2  0  0  0
  7  8  2  0  0  0
  8  9  1  0  0  0
  9 12  1  0  0  0
  9 10  2  0  0  0
 12 13  1  0  0  0
 12 15  1  0  0  0
 13 14  2  0  0  0
 13 16  1  0  0  0
 16 17  1  0  0  0
 16 21  2  0  0  0
 17 18  2  0  0  0
 18 19  1  0  0  0
 19 20  2  0  0  0
 20 21  1  0  0  0
 10 11  1  0  0  0
 11  1  1  0  0  0
  1  2  2  0  0  0
  1  3  1  0  0  0
  3 22  1  0  0  0
  3  4  1  0  0  0
 22 23  1  0  0  0
 22 27  2  0  0  0
 23 24  2  0  0  0
 24 25  1  0  0  0
 25 28  1  0  0  0
 25 26  2  0  0  0
 28 30  1  0  0  0
 28 29  1  0  0  0
 30 31  1  0  0  0
 30 35  2  0  0  0
 31 32  2  0  0  0
 32 33  1  0  0  0
 33 36  1  0  0  0
 33 34  2  0  0  0
 36 37  1  0  0  0
 36 42  1  0  0  0
 37 38  1  0  0  0
 38 39  1  0  0  0
 39 40  1  0  0  0
 39 41  1  0  0  0
 41 42  1  0  0  0
 34 35  1  0  0  0
 26 27  1  0  0  0
M  END
> <minimizedAffinity>
-11.45214

$$$$
