CHEMBL4644658


 43 46  0  0  0  0  0  0  0  0999 V2000
  -29.3479   -4.4696   -7.6796 N   0  0  0  0  0  0  0  0  0  0  0  0
  -30.3319   -4.3614   -7.8842 H   0  0  0  0  0  0  0  0  0  0  0  0
  -27.2507   -1.9591   -8.9687 C   0  0  0  0  0  0  0  0  0  0  0  0
  -27.3215   -0.9877   -8.0664 N   0  0  0  0  0  0  0  0  0  0  0  0
  -28.1286   -1.2576   -7.0465 C   0  0  0  0  0  0  0  0  0  0  0  0
  -28.8522   -2.3598   -6.8830 N   0  0  0  0  0  0  0  0  0  0  0  0
  -28.7211   -3.2446   -7.8637 C   0  0  0  0  0  0  0  0  0  0  0  0
  -27.9879   -3.0476   -8.9483 N   0  0  0  0  0  0  0  0  0  0  0  0
  -26.2931   -1.9477   -9.9772 N   0  0  0  0  0  0  0  0  0  0  0  0
  -25.4894   -1.4388   -9.6296 H   0  0  0  0  0  0  0  0  0  0  0  0
  -25.4764   -1.7349  -12.3482 C   0  0  0  0  0  0  0  0  0  0  0  0
  -25.8556   -1.5642  -13.6960 C   0  0  0  0  0  0  0  0  0  0  0  0
  -27.1844   -1.6946  -14.0892 C   0  0  0  0  0  0  0  0  0  0  0  0
  -28.1485   -2.0024  -13.1428 C   0  0  0  0  0  0  0  0  0  0  0  0
  -27.7850   -2.1093  -11.7986 C   0  0  0  0  0  0  0  0  0  0  0  0
  -26.4576   -1.9189  -11.3593 C   0  0  0  0  0  0  0  0  0  0  0  0
  -23.7081   -1.8477  -12.0943 S   0  0  0  0  0  0  0  0  0  0  0  0
  -23.0817   -2.7944  -12.9895 O   0  0  0  0  0  0  0  0  0  0  0  0
  -23.4906   -1.8747  -10.6658 O   0  0  0  0  0  0  0  0  0  0  0  0
  -23.2036   -0.3022  -12.6469 N   0  0  0  0  0  0  0  0  0  0  0  0
  -23.9919    0.3424  -12.6794 H   0  0  0  0  0  0  0  0  0  0  0  0
  -21.5589    0.8799  -14.0229 C   0  0  0  0  0  0  0  0  0  0  0  0
  -22.4684   -0.3302  -13.9343 C   0  0  0  0  0  0  0  0  0  0  0  0
  -29.0017   -5.4961   -6.7932 C   0  0  0  0  0  0  0  0  0  0  0  0
  -28.6009   -5.3194   -5.4801 C   0  0  0  0  0  0  0  0  0  0  0  0
  -28.1912   -6.4067   -4.7040 C   0  0  0  0  0  0  0  0  0  0  0  0
  -28.1764   -7.7299   -5.1873 C   0  0  0  0  0  0  0  0  0  0  0  0
  -28.7571   -7.9175   -6.4604 C   0  0  0  0  0  0  0  0  0  0  0  0
  -29.0696   -6.7977   -7.2586 C   0  0  0  0  0  0  0  0  0  0  0  0
  -27.5308   -8.7049   -4.4411 N   0  0  0  0  0  0  0  0  0  0  0  0
  -26.0630   -8.6373   -4.2403 C   0  0  0  0  0  0  0  0  0  0  0  0
  -25.4390  -10.0492   -4.2029 C   0  0  0  0  0  0  0  0  0  0  0  0
  -26.0985  -10.9032   -3.1976 N   0  0  0  0  0  0  0  0  0  0  0  0
  -25.4631  -12.2088   -3.1022 C   0  0  0  0  0  0  0  0  0  0  0  0
  -27.5286  -11.0246   -3.5656 C   0  0  0  0  0  0  0  0  0  0  0  0
  -28.2342   -9.6473   -3.5600 C   0  0  0  0  0  0  0  0  0  0  0  0
  -29.0055   -9.1786   -6.9764 O   0  0  0  0  0  0  0  0  0  0  0  0
  -28.1265   -9.4960   -8.0596 C   0  0  0  0  0  0  0  0  0  0  0  0
  -28.7399   -9.9247   -9.3645 C   0  0  0  0  0  0  0  0  0  0  0  0
  -28.2060   -9.8744  -10.4703 O   0  0  0  0  0  0  0  0  0  0  0  0
  -30.0371  -10.2929   -9.1281 O   0  0  0  0  0  0  0  0  0  0  0  0
  -30.2369  -11.6824   -8.8651 C   0  0  0  0  0  0  0  0  0  0  0  0
  -31.6821  -11.8645   -8.4433 C   0  0  0  0  0  0  0  0  0  0  0  0
 22 23  1  0  0  0
 23 20  1  0  0  0
 20 17  1  0  0  0
 20 21  1  0  0  0
 17 18  2  0  0  0
 17 19  2  0  0  0
 17 11  1  0  0  0
 11 12  1  0  0  0
 11 16  2  0  0  0
 12 13  2  0  0  0
 13 14  1  0  0  0
 14 15  2  0  0  0
 15 16  1  0  0  0
 16  9  1  0  0  0
  9  3  1  0  0  0
  9 10  1  0  0  0
  3  4  1  0  0  0
  3  8  2  0  0  0
  4  5  2  0  0  0
  5  6  1  0  0  0
  6  7  2  0  0  0
  7  1  1  0  0  0
  7  8  1  0  0  0
  1 24  1  0  0  0
  1  2  1  0  0  0
 24 25  1  0  0  0
 24 29  2  0  0  0
 25 26  2  0  0  0
 26 27  1  0  0  0
 27 30  1  0  0  0
 27 28  2  0  0  0
 30 31  1  0  0  0
 30 36  1  0  0  0
 31 32  1  0  0  0
 32 33  1  0  0  0
 33 34  1  0  0  0
 33 35  1  0  0  0
 35 36  1  0  0  0
 28 37  1  0  0  0
 28 29  1  0  0  0
 37 38  1  0  0  0
 38 39  1  0  0  0
 39 40  2  0  0  0
 39 41  1  0  0  0
 41 42  1  0  0  0
 42 43  1  0  0  0
M  END
> <minimizedAffinity>
-8.38922

$$$$
