CHEMBL24026


 33 36  0  0  0  0  0  0  0  0999 V2000
  -30.8409   -7.8049   -6.4753 C   0  0  0  0  0  0  0  0  0  0  0  0
  -30.0178   -8.8601   -6.8781 C   0  0  0  0  0  0  0  0  0  0  0  0
  -28.7810   -9.0983   -6.2389 C   0  0  0  0  0  0  0  0  0  0  0  0
  -27.9220  -10.1675   -6.5186 C   0  0  0  0  0  0  0  0  0  0  0  0
  -26.7898  -10.3792   -5.8172 N   0  0  0  0  0  0  0  0  0  0  0  0
  -26.5089   -9.5105   -4.8464 C   0  0  0  0  0  0  0  0  0  0  0  0
  -27.2454   -8.4514   -4.5105 N   0  0  0  0  0  0  0  0  0  0  0  0
  -28.3677   -8.2620   -5.2026 C   0  0  0  0  0  0  0  0  0  0  0  0
  -29.1508   -7.1785   -4.8684 C   0  0  0  0  0  0  0  0  0  0  0  0
  -30.3527   -6.8911   -5.5289 C   0  0  0  0  0  0  0  0  0  0  0  0
  -32.8182   -8.8357   -7.2828 C   0  0  0  0  0  0  0  0  0  0  0  0
  -32.1028   -7.6301   -6.9835 O   0  0  0  0  0  0  0  0  0  0  0  0
  -28.2546  -11.0716   -7.5606 N   0  0  0  0  0  0  0  0  0  0  0  0
  -29.1674  -11.4838   -7.3740 H   0  0  0  0  0  0  0  0  0  0  0  0
  -28.0904  -10.7621   -8.9279 C   0  0  0  0  0  0  0  0  0  0  0  0
  -26.8618  -10.2865   -9.4057 C   0  0  0  0  0  0  0  0  0  0  0  0
  -26.7158   -9.9082  -10.7397 C   0  0  0  0  0  0  0  0  0  0  0  0
  -27.8004  -10.0135  -11.6160 C   0  0  0  0  0  0  0  0  0  0  0  0
  -29.0182  -10.5273  -11.1641 C   0  0  0  0  0  0  0  0  0  0  0  0
  -29.1488  -10.9029   -9.8307 C   0  0  0  0  0  0  0  0  0  0  0  0
  -30.3273  -11.3785   -9.3987 F   0  0  0  0  0  0  0  0  0  0  0  0
  -27.6605   -9.5788  -12.9709 C   0  0  0  0  0  0  0  0  0  0  0  0
  -27.5424   -9.2329  -14.0722 N   0  0  0  0  0  0  0  0  0  0  0  0
  -31.0681   -5.7433   -5.2644 O   0  0  0  0  0  0  0  0  0  0  0  0
  -31.0620   -5.3615   -3.8781 C   0  0  0  0  0  0  0  0  0  0  0  0
  -30.6182   -3.9489   -3.6563 C   0  0  0  0  0  0  0  0  0  0  0  0
  -29.9128   -3.2059   -4.5193 C   0  0  0  0  0  0  0  0  0  0  0  0
  -29.4443   -1.8036   -4.2627 C   0  0  0  0  0  0  0  0  0  0  0  0
  -28.1757   -1.4300   -4.8900 N   0  0  0  0  0  0  0  0  0  0  0  0
  -27.9448    0.0124   -4.9953 C   0  0  0  0  0  0  0  0  0  0  0  0
  -28.2617    0.3794   -6.4333 C   0  0  0  0  0  0  0  0  0  0  0  0
  -27.8689   -0.8584   -7.2133 C   0  0  0  0  0  0  0  0  0  0  0  0
  -27.9737   -2.0109   -6.2216 C   0  0  0  0  0  0  0  0  0  0  0  0
 11 12  1  0  0  0
 12  1  1  0  0  0
  1  2  1  0  0  0
  1 10  2  0  0  0
  2  3  2  0  0  0
  3  4  1  0  0  0
  3  8  1  0  0  0
  4 13  1  0  0  0
  4  5  2  0  0  0
 13 15  1  0  0  0
 13 14  1  0  0  0
 15 16  1  0  0  0
 15 20  2  0  0  0
 16 17  2  0  0  0
 17 18  1  0  0  0
 18 22  1  0  0  0
 18 19  2  0  0  0
 22 23  3  0  0  0
 19 20  1  0  0  0
 20 21  1  0  0  0
  5  6  1  0  0  0
  6  7  2  0  0  0
  7  8  1  0  0  0
  8  9  2  0  0  0
  9 10  1  0  0  0
 10 24  1  0  0  0
 24 25  1  0  0  0
 25 26  1  0  0  0
 26 27  2  0  0  0
 27 28  1  0  0  0
 28 29  1  0  0  0
 29 30  1  0  0  0
 29 33  1  0  0  0
 30 31  1  0  0  0
 31 32  1  0  0  0
 32 33  1  0  0  0
M  END
> <minimizedAffinity>
-7.64781

$$$$
