CHEMBL3904259


 29 32  0  0  0  0  0  0  0  0999 V2000
  -28.4709   -7.5658   -5.6967 C   0  0  0  0  0  0  0  0  0  0  0  0
  -29.2939   -7.6378   -6.7971 C   0  0  0  0  0  0  0  0  0  0  0  0
  -29.8911   -6.1184   -7.2763 S   0  0  0  0  0  0  0  0  0  0  0  0
  -29.0133   -5.2995   -6.0421 C   0  0  0  0  0  0  0  0  0  0  0  0
  -28.3479   -6.2098   -5.2383 C   0  0  0  0  0  0  0  0  0  0  0  0
  -28.9982   -3.8527   -6.0171 C   0  0  0  0  0  0  0  0  0  0  0  0
  -28.3420   -3.0523   -6.9405 C   0  0  0  0  0  0  0  0  0  0  0  0
  -28.4686   -1.7023   -6.5588 C   0  0  0  0  0  0  0  0  0  0  0  0
  -28.0265   -0.4942   -7.1308 C   0  0  0  0  0  0  0  0  0  0  0  0
  -28.3471    0.7164   -6.5120 C   0  0  0  0  0  0  0  0  0  0  0  0
  -29.0860    0.7285   -5.3345 C   0  0  0  0  0  0  0  0  0  0  0  0
  -29.5140   -0.4638   -4.7397 C   0  0  0  0  0  0  0  0  0  0  0  0
  -29.1873   -1.6824   -5.3661 C   0  0  0  0  0  0  0  0  0  0  0  0
  -29.5111   -3.0050   -5.0272 N   0  0  0  0  0  0  0  0  0  0  0  0
  -30.2398   -3.3464   -3.8691 C   0  0  0  0  0  0  0  0  0  0  0  0
  -31.2461   -4.2397   -4.0997 N   0  0  0  0  0  0  0  0  0  0  0  0
  -30.0226   -2.8013   -2.7983 O   0  0  0  0  0  0  0  0  0  0  0  0
  -31.5463   -4.4931   -5.0320 H   0  0  0  0  0  0  0  0  0  0  0  0
  -31.9003   -4.3835   -3.3402 H   0  0  0  0  0  0  0  0  0  0  0  0
  -28.1285   -9.2119   -3.8742 C   0  0  0  0  0  0  0  0  0  0  0  0
  -29.0226   -8.8289   -3.1245 O   0  0  0  0  0  0  0  0  0  0  0  0
  -27.8121   -8.6346   -5.0989 N   0  0  0  0  0  0  0  0  0  0  0  0
  -27.0596   -9.0731   -5.6166 H   0  0  0  0  0  0  0  0  0  0  0  0
  -24.8810   -9.4111   -3.5203 C   0  0  0  0  0  0  0  0  0  0  0  0
  -25.9086  -10.4758   -3.3953 C   0  0  0  0  0  0  0  0  0  0  0  0
  -25.6762  -11.8440   -3.0827 C   0  0  0  0  0  0  0  0  0  0  0  0
  -26.8969  -12.4619   -3.0605 C   0  0  0  0  0  0  0  0  0  0  0  0
  -27.8850  -11.5715   -3.3423 O   0  0  0  0  0  0  0  0  0  0  0  0
  -27.2834  -10.3522   -3.5502 C   0  0  0  0  0  0  0  0  0  0  0  0
 24 25  1  0  0  0
 25 26  1  0  0  0
 25 29  2  0  0  0
 26 27  2  0  0  0
 27 28  1  0  0  0
 28 29  1  0  0  0
 29 20  1  0  0  0
 20 21  2  0  0  0
 20 22  1  0  0  0
 22  1  1  0  0  0
 22 23  1  0  0  0
  1  2  2  0  0  0
  1  5  1  0  0  0
  2  3  1  0  0  0
  3  4  1  0  0  0
  4  6  1  0  0  0
  4  5  2  0  0  0
  6  7  2  0  0  0
  6 14  1  0  0  0
  7  8  1  0  0  0
  8  9  1  0  0  0
  8 13  2  0  0  0
  9 10  2  0  0  0
 10 11  1  0  0  0
 11 12  2  0  0  0
 12 13  1  0  0  0
 13 14  1  0  0  0
 14 15  1  0  0  0
 15 16  1  0  0  0
 15 17  2  0  0  0
 16 18  1  0  0  0
 16 19  1  0  0  0
M  END
> <minimizedAffinity>
-8.70750

$$$$
