CHEMBL3950292


 36 40  0  0  0  0  0  0  0  0999 V2000
  -28.4433   -9.5661   -5.4232 N   0  0  0  0  0  0  0  0  0  0  0  0
  -28.4922   -8.2165   -4.9199 C   0  0  0  0  0  0  0  0  0  0  0  0
  -29.1180   -8.0748   -3.6907 C   0  0  0  0  0  0  0  0  0  0  0  0
  -29.7122   -6.8706   -3.3363 C   0  0  0  0  0  0  0  0  0  0  0  0
  -29.5823   -5.7491   -4.1049 C   0  0  0  0  0  0  0  0  0  0  0  0
  -30.3829   -4.7373   -3.7374 N   0  0  0  0  0  0  0  0  0  0  0  0
  -30.1627   -3.5560   -4.3245 C   0  0  0  0  0  0  0  0  0  0  0  0
  -29.1148   -3.3456   -5.1885 C   0  0  0  0  0  0  0  0  0  0  0  0
  -28.3761   -4.4138   -5.6714 N   0  0  0  0  0  0  0  0  0  0  0  0
  -28.6569   -5.6912   -5.1712 C   0  0  0  0  0  0  0  0  0  0  0  0
  -28.1643   -7.0037   -5.6058 C   0  0  0  0  0  0  0  0  0  0  0  0
  -28.7320   -1.9503   -5.4137 C   0  0  0  0  0  0  0  0  0  0  0  0
  -27.6701   -1.2089   -4.8246 C   0  0  0  0  0  0  0  0  0  0  0  0
  -27.7693    0.1094   -5.0407 N   0  0  0  0  0  0  0  0  0  0  0  0
  -28.9018    0.2239   -5.7541 N   0  0  0  0  0  0  0  0  0  0  0  0
  -29.2267    1.4662   -6.4171 C   0  0  0  0  0  0  0  0  0  0  0  0
  -29.5941   -0.9542   -5.8475 C   0  0  0  0  0  0  0  0  0  0  0  0
  -30.9880  -10.2046   -8.0732 C   0  0  0  0  0  0  0  0  0  0  0  0
  -30.2023  -10.7576   -9.0834 C   0  0  0  0  0  0  0  0  0  0  0  0
  -28.8552  -11.0246   -8.8485 C   0  0  0  0  0  0  0  0  0  0  0  0
  -28.2877  -10.6956   -7.6115 C   0  0  0  0  0  0  0  0  0  0  0  0
  -29.0452  -10.1377   -6.5712 C   0  0  0  0  0  0  0  0  0  0  0  0
  -30.4204   -9.9424   -6.8107 C   0  0  0  0  0  0  0  0  0  0  0  0
  -32.8174   -8.8579   -7.3319 C   0  0  0  0  0  0  0  0  0  0  0  0
  -32.3070   -9.8488   -8.2261 O   0  0  0  0  0  0  0  0  0  0  0  0
  -27.9830  -11.5621   -9.7588 O   0  0  0  0  0  0  0  0  0  0  0  0
  -26.9811  -10.6939  -10.2766 C   0  0  0  0  0  0  0  0  0  0  0  0
  -28.2155  -10.5313   -4.2814 C   0  0  0  0  0  0  0  0  0  0  0  0
  -26.7963  -10.8556   -3.9268 C   0  0  0  0  0  0  0  0  0  0  0  0
  -25.6097  -11.0109   -3.7782 C   0  0  0  0  0  0  0  0  0  0  0  0
  -24.1861  -11.1699   -3.6517 C   0  0  0  0  0  0  0  0  0  0  0  0
  -23.3383  -11.1373   -4.7574 C   0  0  0  0  0  0  0  0  0  0  0  0
  -21.9944  -11.3465   -4.6692 N   0  0  0  0  0  0  0  0  0  0  0  0
  -21.5314  -11.5820   -3.4215 C   0  0  0  0  0  0  0  0  0  0  0  0
  -22.3616  -11.5846   -2.3114 C   0  0  0  0  0  0  0  0  0  0  0  0
  -23.7019  -11.3818   -2.4000 N   0  0  0  0  0  0  0  0  0  0  0  0
 24 25  1  0  0  0
 25 18  1  0  0  0
 18 19  1  0  0  0
 18 23  2  0  0  0
 19 20  2  0  0  0
 20 26  1  0  0  0
 20 21  1  0  0  0
 26 27  1  0  0  0
 21 22  2  0  0  0
 22  1  1  0  0  0
 22 23  1  0  0  0
  1 28  1  0  0  0
  1  2  1  0  0  0
 28 29  1  0  0  0
 29 30  3  0  0  0
 30 31  1  0  0  0
 31 32  1  0  0  0
 31 36  2  0  0  0
 32 33  2  0  0  0
 33 34  1  0  0  0
 34 35  2  0  0  0
 35 36  1  0  0  0
  2  3  1  0  0  0
  2 11  2  0  0  0
  3  4  2  0  0  0
  4  5  1  0  0  0
  5  6  1  0  0  0
  5 10  2  0  0  0
  6  7  2  0  0  0
  7  8  1  0  0  0
  8 12  1  0  0  0
  8  9  2  0  0  0
 12 13  1  0  0  0
 12 17  2  0  0  0
 13 14  2  0  0  0
 14 15  1  0  0  0
 15 16  1  0  0  0
 15 17  1  0  0  0
  9 10  1  0  0  0
 10 11  1  0  0  0
M  END
> <minimizedAffinity>
-8.34790

$$$$
