CHEMBL3660299


 38 41  0  0  0  0  0  0  0  0999 V2000
  -13.5257   -3.6436  -11.4278 C   0  0  0  0  0  0  0  0  0  0  0  0
  -14.8929   -3.4740  -11.2460 C   0  0  0  0  0  0  0  0  0  0  0  0
  -15.6204   -2.6766  -12.1304 C   0  0  0  0  0  0  0  0  0  0  0  0
  -14.9961   -2.0345  -13.2128 C   0  0  0  0  0  0  0  0  0  0  0  0
  -13.6100   -2.1671  -13.3515 C   0  0  0  0  0  0  0  0  0  0  0  0
  -12.8744   -2.9443  -12.4480 C   0  0  0  0  0  0  0  0  0  0  0  0
  -15.6899   -1.2908  -14.1901 N   0  0  0  0  0  0  0  0  0  0  0  0
  -16.4619   -0.1712  -13.9601 C   0  0  0  0  0  0  0  0  0  0  0  0
  -16.5555    0.4111  -12.8870 O   0  0  0  0  0  0  0  0  0  0  0  0
  -17.1624    0.2176  -15.0954 N   0  0  0  0  0  0  0  0  0  0  0  0
  -15.5231   -1.5268  -15.1563 H   0  0  0  0  0  0  0  0  0  0  0  0
  -17.5147   -0.5498  -15.6538 H   0  0  0  0  0  0  0  0  0  0  0  0
  -18.0093    1.3543  -15.0470 C   0  0  0  0  0  0  0  0  0  0  0  0
  -19.3542    1.2532  -14.6731 C   0  0  0  0  0  0  0  0  0  0  0  0
  -20.1935    2.3753  -14.7144 C   0  0  0  0  0  0  0  0  0  0  0  0
  -21.6348    2.2664  -14.3097 C   0  0  0  0  0  0  0  0  0  0  0  0
  -19.6725    3.6024  -15.1464 C   0  0  0  0  0  0  0  0  0  0  0  0
  -18.3248    3.7137  -15.4958 C   0  0  0  0  0  0  0  0  0  0  0  0
  -17.4987    2.5968  -15.4198 C   0  0  0  0  0  0  0  0  0  0  0  0
  -16.2100    2.7067  -15.7787 F   0  0  0  0  0  0  0  0  0  0  0  0
  -12.8933   -4.4938  -10.5454 O   0  0  0  0  0  0  0  0  0  0  0  0
  -12.5005   -7.5545  -12.5457 C   0  0  0  0  0  0  0  0  0  0  0  0
  -13.0559   -6.3597  -12.1115 C   0  0  0  0  0  0  0  0  0  0  0  0
  -12.5082   -5.7388  -10.9919 C   0  0  0  0  0  0  0  0  0  0  0  0
  -11.5262   -6.3886  -10.2586 C   0  0  0  0  0  0  0  0  0  0  0  0
  -11.0615   -7.5997  -10.7375 C   0  0  0  0  0  0  0  0  0  0  0  0
  -11.5002   -8.1793  -11.8781 N   0  0  0  0  0  0  0  0  0  0  0  0
  -13.0813   -9.5333  -15.6257 C   0  0  0  0  0  0  0  0  0  0  0  0
  -12.5637   -9.4311  -14.3433 C   0  0  0  0  0  0  0  0  0  0  0  0
  -12.8945   -8.1471  -13.8184 C   0  0  0  0  0  0  0  0  0  0  0  0
  -13.6391   -7.5112  -14.7933 C   0  0  0  0  0  0  0  0  0  0  0  0
  -13.7451   -8.3506  -15.8690 N   0  0  0  0  0  0  0  0  0  0  0  0
  -14.2234   -8.1488  -16.7391 H   0  0  0  0  0  0  0  0  0  0  0  0
  -14.3288  -12.0468  -18.0872 C   0  0  0  0  0  0  0  0  0  0  0  0
  -14.2356  -10.9997  -17.1076 N   0  0  0  0  0  0  0  0  0  0  0  0
  -13.0210  -10.5744  -16.6288 C   0  0  0  0  0  0  0  0  0  0  0  0
  -11.9551  -11.0450  -17.0172 O   0  0  0  0  0  0  0  0  0  0  0  0
  -15.0826  -10.5866  -16.7455 H   0  0  0  0  0  0  0  0  0  0  0  0
 34 35  1  0  0  0
 35 36  1  0  0  0
 35 38  1  0  0  0
 36 37  2  0  0  0
 36 28  1  0  0  0
 28 29  2  0  0  0
 28 32  1  0  0  0
 29 30  1  0  0  0
 30 22  1  0  0  0
 30 31  2  0  0  0
 22 23  1  0  0  0
 22 27  2  0  0  0
 23 24  2  0  0  0
 24 21  1  0  0  0
 24 25  1  0  0  0
 21  1  1  0  0  0
  1  2  1  0  0  0
  1  6  2  0  0  0
  2  3  2  0  0  0
  3  4  1  0  0  0
  4  7  1  0  0  0
  4  5  2  0  0  0
  7  8  1  0  0  0
  7 11  1  0  0  0
  8  9  2  0  0  0
  8 10  1  0  0  0
 10 13  1  0  0  0
 10 12  1  0  0  0
 13 14  1  0  0  0
 13 19  2  0  0  0
 14 15  2  0  0  0
 15 16  1  0  0  0
 15 17  1  0  0  0
 17 18  2  0  0  0
 18 19  1  0  0  0
 19 20  1  0  0  0
  5  6  1  0  0  0
 25 26  2  0  0  0
 26 27  1  0  0  0
 31 32  1  0  0  0
 32 33  1  0  0  0
M  END
> <minimizedAffinity>
-9.11959

$$$$
