CHEMBL3969348


 37 41  0  0  0  0  0  0  0  0999 V2000
  -28.5624   -8.3481   -4.9176 C   0  0  0  0  0  0  0  0  0  0  0  0
  -29.0485   -7.3195   -4.1014 C   0  0  0  0  0  0  0  0  0  0  0  0
  -29.6061   -6.1658   -4.6582 C   0  0  0  0  0  0  0  0  0  0  0  0
  -29.6973   -6.0252   -6.0422 C   0  0  0  0  0  0  0  0  0  0  0  0
  -29.2894   -7.0772   -6.8659 C   0  0  0  0  0  0  0  0  0  0  0  0
  -28.7197   -8.2178   -6.2997 C   0  0  0  0  0  0  0  0  0  0  0  0
  -28.2721   -9.1888   -7.1125 F   0  0  0  0  0  0  0  0  0  0  0  0
  -25.7454   -8.6986   -4.5212 O   0  0  0  0  0  0  0  0  0  0  0  0
  -26.5268   -9.6106   -4.2681 C   0  0  0  0  0  0  0  0  0  0  0  0
  -26.1355  -10.8766   -3.8658 N   0  0  0  0  0  0  0  0  0  0  0  0
  -27.9003   -9.4986   -4.4173 N   0  0  0  0  0  0  0  0  0  0  0  0
  -26.8260  -11.6081   -3.9000 H   0  0  0  0  0  0  0  0  0  0  0  0
  -28.4599  -10.3400   -4.3689 H   0  0  0  0  0  0  0  0  0  0  0  0
  -24.7860  -11.2799   -3.6973 C   0  0  0  0  0  0  0  0  0  0  0  0
  -24.1764  -11.3946   -2.4433 C   0  0  0  0  0  0  0  0  0  0  0  0
  -22.8302  -11.7366   -2.3356 C   0  0  0  0  0  0  0  0  0  0  0  0
  -22.0899  -11.9647   -3.4846 C   0  0  0  0  0  0  0  0  0  0  0  0
  -20.7931  -12.2881   -3.3515 F   0  0  0  0  0  0  0  0  0  0  0  0
  -22.6528  -11.8705   -4.7672 C   0  0  0  0  0  0  0  0  0  0  0  0
  -24.0263  -11.5566   -4.8446 C   0  0  0  0  0  0  0  0  0  0  0  0
  -21.8186  -12.1095   -6.0051 C   0  0  0  0  0  0  0  0  0  0  0  0
  -21.1779  -10.9314   -6.7084 C   0  0  0  0  0  0  0  0  0  0  0  0
  -22.3044  -11.6661   -7.3665 C   0  0  0  0  0  0  0  0  0  0  0  0
  -30.2553   -4.8509   -6.5016 O   0  0  0  0  0  0  0  0  0  0  0  0
  -29.4386   -3.7661   -6.7479 C   0  0  0  0  0  0  0  0  0  0  0  0
  -29.3825   -2.6482   -5.9257 C   0  0  0  0  0  0  0  0  0  0  0  0
  -28.4925   -1.6542   -6.2631 C   0  0  0  0  0  0  0  0  0  0  0  0
  -27.7287   -1.6961   -7.3628 N   0  0  0  0  0  0  0  0  0  0  0  0
  -27.8294   -2.7422   -8.2016 C   0  0  0  0  0  0  0  0  0  0  0  0
  -28.6847   -3.8051   -7.9286 C   0  0  0  0  0  0  0  0  0  0  0  0
  -27.0578   -2.7561   -9.3777 N   0  0  0  0  0  0  0  0  0  0  0  0
  -27.2942   -1.9100  -10.4459 C   0  0  0  0  0  0  0  0  0  0  0  0
  -28.1597   -1.0546  -10.5397 O   0  0  0  0  0  0  0  0  0  0  0  0
  -26.3129   -3.4269   -9.4448 H   0  0  0  0  0  0  0  0  0  0  0  0
  -26.4059   -2.0564  -11.6371 C   0  0  0  0  0  0  0  0  0  0  0  0
  -25.6980   -0.8417  -12.1893 C   0  0  0  0  0  0  0  0  0  0  0  0
  -26.6767   -1.5974  -13.0426 C   0  0  0  0  0  0  0  0  0  0  0  0
  8  9  2  0  0  0
  9 10  1  0  0  0
  9 11  1  0  0  0
 10 14  1  0  0  0
 10 12  1  0  0  0
 14 15  1  0  0  0
 14 20  2  0  0  0
 15 16  2  0  0  0
 16 17  1  0  0  0
 17 18  1  0  0  0
 17 19  2  0  0  0
 19 21  1  0  0  0
 19 20  1  0  0  0
 21 22  1  0  0  0
 21 23  1  0  0  0
 22 23  1  0  0  0
 11  1  1  0  0  0
 11 13  1  0  0  0
  1  2  1  0  0  0
  1  6  2  0  0  0
  2  3  2  0  0  0
  3  4  1  0  0  0
  4 24  1  0  0  0
  4  5  2  0  0  0
 24 25  1  0  0  0
 25 26  1  0  0  0
 25 30  2  0  0  0
 26 27  2  0  0  0
 27 28  1  0  0  0
 28 29  2  0  0  0
 29 31  1  0  0  0
 29 30  1  0  0  0
 31 32  1  0  0  0
 31 34  1  0  0  0
 32 33  2  0  0  0
 32 35  1  0  0  0
 35 36  1  0  0  0
 35 37  1  0  0  0
 36 37  1  0  0  0
  5  6  1  0  0  0
  6  7  1  0  0  0
M  END
> <minimizedAffinity>
-9.67228

$$$$
