CHEMBL3694684


 35 38  0  0  0  0  0  0  0  0999 V2000
  -29.3159   -4.9265   -7.0679 C   0  0  0  0  0  0  0  0  0  0  0  0
  -28.3174   -5.5607   -7.9409 C   0  0  0  0  0  0  0  0  0  0  0  0
  -28.4474   -6.8484   -8.2987 C   0  0  0  0  0  0  0  0  0  0  0  0
  -29.5194   -7.6037   -7.8155 N   0  0  0  0  0  0  0  0  0  0  0  0
  -29.8298   -8.9604   -7.9466 C   0  0  0  0  0  0  0  0  0  0  0  0
  -31.0572   -9.0758   -7.3104 C   0  0  0  0  0  0  0  0  0  0  0  0
  -31.4723   -7.8948   -6.7562 N   0  0  0  0  0  0  0  0  0  0  0  0
  -30.5216   -7.0315   -7.0344 C   0  0  0  0  0  0  0  0  0  0  0  0
  -30.3804   -5.6615   -6.6620 C   0  0  0  0  0  0  0  0  0  0  0  0
  -29.0060   -0.9102   -5.8294 C   0  0  0  0  0  0  0  0  0  0  0  0
  -28.2656   -1.4178   -6.8725 C   0  0  0  0  0  0  0  0  0  0  0  0
  -28.3350   -2.7012   -7.2875 N   0  0  0  0  0  0  0  0  0  0  0  0
  -29.1890   -3.5102   -6.6264 C   0  0  0  0  0  0  0  0  0  0  0  0
  -29.9536   -3.1105   -5.5908 N   0  0  0  0  0  0  0  0  0  0  0  0
  -29.8445   -1.8148   -5.2146 C   0  0  0  0  0  0  0  0  0  0  0  0
  -30.0935    1.4117   -5.7005 C   0  0  0  0  0  0  0  0  0  0  0  0
  -28.9458    0.4927   -5.3750 C   0  0  0  0  0  0  0  0  0  0  0  0
  -27.9714    0.8764   -4.7335 O   0  0  0  0  0  0  0  0  0  0  0  0
  -28.9894  -10.0088   -8.5535 C   0  0  0  0  0  0  0  0  0  0  0  0
  -29.1115  -10.3071   -9.9159 C   0  0  0  0  0  0  0  0  0  0  0  0
  -28.3491  -11.3077  -10.5034 C   0  0  0  0  0  0  0  0  0  0  0  0
  -27.3856  -11.9729   -9.7566 C   0  0  0  0  0  0  0  0  0  0  0  0
  -27.1584  -11.6455   -8.4189 C   0  0  0  0  0  0  0  0  0  0  0  0
  -27.9918  -10.6831   -7.8129 C   0  0  0  0  0  0  0  0  0  0  0  0
  -26.1119  -12.2362   -7.6619 N   0  0  0  0  0  0  0  0  0  0  0  0
  -25.0565  -11.5603   -7.0794 C   0  0  0  0  0  0  0  0  0  0  0  0
  -24.8396  -10.3575   -7.1116 O   0  0  0  0  0  0  0  0  0  0  0  0
  -24.1673  -12.3996   -6.4438 N   0  0  0  0  0  0  0  0  0  0  0  0
  -26.1689  -13.2292   -7.4995 H   0  0  0  0  0  0  0  0  0  0  0  0
  -24.5397  -13.2456   -6.0378 H   0  0  0  0  0  0  0  0  0  0  0  0
  -23.0061  -11.7888   -5.7753 C   0  0  0  0  0  0  0  0  0  0  0  0
  -21.6818  -11.8006   -6.5567 C   0  0  0  0  0  0  0  0  0  0  0  0
  -21.8188  -12.3466   -7.7866 F   0  0  0  0  0  0  0  0  0  0  0  0
  -21.2488  -10.5270   -6.7424 F   0  0  0  0  0  0  0  0  0  0  0  0
  -20.7023  -12.4618   -5.9063 F   0  0  0  0  0  0  0  0  0  0  0  0
 16 17  1  0  0  0
 17 18  2  0  0  0
 17 10  1  0  0  0
 10 11  1  0  0  0
 10 15  2  0  0  0
 11 12  2  0  0  0
 12 13  1  0  0  0
 13  1  1  0  0  0
 13 14  2  0  0  0
  1  2  1  0  0  0
  1  9  2  0  0  0
  2  3  2  0  0  0
  3  4  1  0  0  0
  4  5  1  0  0  0
  4  8  1  0  0  0
  5 19  1  0  0  0
  5  6  2  0  0  0
 19 20  1  0  0  0
 19 24  2  0  0  0
 20 21  2  0  0  0
 21 22  1  0  0  0
 22 23  2  0  0  0
 23 25  1  0  0  0
 23 24  1  0  0  0
 25 26  1  0  0  0
 25 29  1  0  0  0
 26 27  2  0  0  0
 26 28  1  0  0  0
 28 31  1  0  0  0
 28 30  1  0  0  0
 31 32  1  0  0  0
 32 33  1  0  0  0
 32 34  1  0  0  0
 32 35  1  0  0  0
  6  7  1  0  0  0
  7  8  2  0  0  0
  8  9  1  0  0  0
 14 15  1  0  0  0
M  END
> <minimizedAffinity>
-8.89262

$$$$
