CHEMBL3753051


 43 48  0  0  0  0  0  0  0  0999 V2000
  -27.1161  -10.5970   -3.2120 N   0  0  0  0  0  0  0  0  0  0  0  0
  -28.4419  -10.0389   -3.6047 C   0  0  0  0  0  0  0  0  0  0  0  0
  -28.4305   -9.0095   -4.7685 C   0  0  0  0  0  0  0  0  0  0  0  0
  -27.4071   -7.9680   -4.5827 N   0  0  0  0  0  0  0  0  0  0  0  0
  -26.1132   -8.3913   -4.0466 C   0  0  0  0  0  0  0  0  0  0  0  0
  -26.2457   -9.4325   -2.9205 C   0  0  0  0  0  0  0  0  0  0  0  0
  -27.7493   -6.6364   -4.7827 C   0  0  0  0  0  0  0  0  0  0  0  0
  -27.0909   -5.7141   -4.0490 N   0  0  0  0  0  0  0  0  0  0  0  0
  -27.3178   -4.3605   -4.1900 N   0  0  0  0  0  0  0  0  0  0  0  0
  -28.1813   -3.8940   -5.1156 C   0  0  0  0  0  0  0  0  0  0  0  0
  -28.8581   -4.7921   -5.9687 C   0  0  0  0  0  0  0  0  0  0  0  0
  -29.6958   -4.3840   -7.0478 C   0  0  0  0  0  0  0  0  0  0  0  0
  -30.4780   -5.2756   -7.7785 C   0  0  0  0  0  0  0  0  0  0  0  0
  -30.4417   -6.6154   -7.4618 C   0  0  0  0  0  0  0  0  0  0  0  0
  -29.5813   -7.0538   -6.4562 C   0  0  0  0  0  0  0  0  0  0  0  0
  -28.7090   -6.1886   -5.7342 C   0  0  0  0  0  0  0  0  0  0  0  0
  -28.3798   -2.4174   -5.0658 C   0  0  0  0  0  0  0  0  0  0  0  0
  -27.2825   -1.5355   -5.0183 C   0  0  0  0  0  0  0  0  0  0  0  0
  -27.4570   -0.1454   -4.9765 C   0  0  0  0  0  0  0  0  0  0  0  0
  -28.7363    0.4014   -4.9984 C   0  0  0  0  0  0  0  0  0  0  0  0
  -29.8401   -0.4411   -5.0107 C   0  0  0  0  0  0  0  0  0  0  0  0
  -29.6595   -1.8279   -5.0048 C   0  0  0  0  0  0  0  0  0  0  0  0
  -26.5896  -11.4534   -4.3042 C   0  0  0  0  0  0  0  0  0  0  0  0
  -26.9926  -10.7894   -6.6181 N   0  0  0  0  0  0  0  0  0  0  0  0
  -27.4922  -11.4870   -5.5418 C   0  0  0  0  0  0  0  0  0  0  0  0
  -28.5330  -12.1413   -5.5124 O   0  0  0  0  0  0  0  0  0  0  0  0
  -26.0611  -10.3974   -6.5413 H   0  0  0  0  0  0  0  0  0  0  0  0
  -30.6644   -9.5966   -9.4839 C   0  0  0  0  0  0  0  0  0  0  0  0
  -29.2742  -10.0511   -9.2041 C   0  0  0  0  0  0  0  0  0  0  0  0
  -28.9054  -10.2597   -7.8762 N   0  0  0  0  0  0  0  0  0  0  0  0
  -27.6336  -10.5670   -7.8084 C   0  0  0  0  0  0  0  0  0  0  0  0
  -26.8445  -10.7551   -9.3015 S   0  0  0  0  0  0  0  0  0  0  0  0
  -28.2722  -10.2933  -10.1333 C   0  0  0  0  0  0  0  0  0  0  0  0
  -28.3103  -10.1768  -11.5865 C   0  0  0  0  0  0  0  0  0  0  0  0
  -29.2617  -10.5916  -12.2372 O   0  0  0  0  0  0  0  0  0  0  0  0
  -27.1684   -9.6126  -12.1438 N   0  0  0  0  0  0  0  0  0  0  0  0
  -26.4204   -9.4093  -11.4921 H   0  0  0  0  0  0  0  0  0  0  0  0
  -26.9017   -9.3379  -13.4998 C   0  0  0  0  0  0  0  0  0  0  0  0
  -27.7998   -9.5900  -14.5338 C   0  0  0  0  0  0  0  0  0  0  0  0
  -27.4527   -9.3001  -15.8579 C   0  0  0  0  0  0  0  0  0  0  0  0
  -26.2033   -8.7599  -16.1555 C   0  0  0  0  0  0  0  0  0  0  0  0
  -25.3035   -8.4923  -15.1278 C   0  0  0  0  0  0  0  0  0  0  0  0
  -25.6531   -8.7684  -13.8061 C   0  0  0  0  0  0  0  0  0  0  0  0
 28 29  1  0  0  0
 29 30  1  0  0  0
 29 33  2  0  0  0
 30 31  2  0  0  0
 31 24  1  0  0  0
 31 32  1  0  0  0
 24 25  1  0  0  0
 24 27  1  0  0  0
 25 26  2  0  0  0
 25 23  1  0  0  0
 23  1  1  0  0  0
  1  2  1  0  0  0
  1  6  1  0  0  0
  2  3  1  0  0  0
  3  4  1  0  0  0
  4  7  1  0  0  0
  4  5  1  0  0  0
  7  8  1  0  0  0
  7 16  2  0  0  0
  8  9  2  0  0  0
  9 10  1  0  0  0
 10 17  1  0  0  0
 10 11  2  0  0  0
 17 18  1  0  0  0
 17 22  2  0  0  0
 18 19  2  0  0  0
 19 20  1  0  0  0
 20 21  2  0  0  0
 21 22  1  0  0  0
 11 12  1  0  0  0
 11 16  1  0  0  0
 12 13  2  0  0  0
 13 14  1  0  0  0
 14 15  2  0  0  0
 15 16  1  0  0  0
  5  6  1  0  0  0
 32 33  1  0  0  0
 33 34  1  0  0  0
 34 35  2  0  0  0
 34 36  1  0  0  0
 36 38  1  0  0  0
 36 37  1  0  0  0
 38 39  1  0  0  0
 38 43  2  0  0  0
 39 40  2  0  0  0
 40 41  1  0  0  0
 41 42  2  0  0  0
 42 43  1  0  0  0
M  END
> <minimizedAffinity>
-6.62339

$$$$
