CHEMBL3937633


 33 36  0  0  0  0  0  0  0  0999 V2000
  -29.6796   -4.1198   -5.4520 N   0  0  0  0  0  0  0  0  0  0  0  0
  -29.1077   -5.4495   -5.5927 C   0  0  0  0  0  0  0  0  0  0  0  0
  -29.8498   -6.3084   -6.3956 C   0  0  0  0  0  0  0  0  0  0  0  0
  -29.8086   -7.6722   -6.1771 C   0  0  0  0  0  0  0  0  0  0  0  0
  -28.9232   -8.2285   -5.2885 C   0  0  0  0  0  0  0  0  0  0  0  0
  -29.1293   -9.5290   -5.0593 N   0  0  0  0  0  0  0  0  0  0  0  0
  -28.1932  -10.1612   -4.3482 C   0  0  0  0  0  0  0  0  0  0  0  0
  -27.0296   -9.5322   -3.9574 C   0  0  0  0  0  0  0  0  0  0  0  0
  -26.8573   -8.1690   -4.1009 N   0  0  0  0  0  0  0  0  0  0  0  0
  -27.8749   -7.4630   -4.7239 C   0  0  0  0  0  0  0  0  0  0  0  0
  -28.0438   -6.0231   -4.8477 C   0  0  0  0  0  0  0  0  0  0  0  0
  -25.9287  -10.4214   -3.5895 C   0  0  0  0  0  0  0  0  0  0  0  0
  -25.9830  -11.6672   -2.9102 C   0  0  0  0  0  0  0  0  0  0  0  0
  -24.7803  -12.0934   -2.5051 N   0  0  0  0  0  0  0  0  0  0  0  0
  -23.9515  -11.1218   -2.9219 N   0  0  0  0  0  0  0  0  0  0  0  0
  -22.5242  -11.3389   -2.9421 C   0  0  0  0  0  0  0  0  0  0  0  0
  -24.6125  -10.0289   -3.4146 C   0  0  0  0  0  0  0  0  0  0  0  0
  -29.0136   -0.4589   -5.9112 C   0  0  0  0  0  0  0  0  0  0  0  0
  -28.1152   -0.4677   -6.9791 C   0  0  0  0  0  0  0  0  0  0  0  0
  -27.7977   -1.6698   -7.6045 C   0  0  0  0  0  0  0  0  0  0  0  0
  -28.3701   -2.8657   -7.1460 C   0  0  0  0  0  0  0  0  0  0  0  0
  -29.2539   -2.9068   -6.0550 C   0  0  0  0  0  0  0  0  0  0  0  0
  -29.5750   -1.6715   -5.4581 C   0  0  0  0  0  0  0  0  0  0  0  0
  -30.5189    1.3708   -5.6363 C   0  0  0  0  0  0  0  0  0  0  0  0
  -29.3541    0.6673   -5.2014 O   0  0  0  0  0  0  0  0  0  0  0  0
  -26.9209   -1.8189   -8.6472 O   0  0  0  0  0  0  0  0  0  0  0  0
  -27.4754   -1.9133   -9.9547 C   0  0  0  0  0  0  0  0  0  0  0  0
  -30.1931   -4.0136   -4.0314 C   0  0  0  0  0  0  0  0  0  0  0  0
  -31.6781   -4.3262   -3.7746 C   0  0  0  0  0  0  0  0  0  0  0  0
  -32.0385   -5.6455   -3.0845 C   0  0  0  0  0  0  0  0  0  0  0  0
  -30.8812   -6.4587   -2.7183 N   0  0  0  0  0  0  0  0  0  0  0  0
  -30.4892   -6.8952   -3.5474 H   0  0  0  0  0  0  0  0  0  0  0  0
  -31.1978   -7.2338   -2.1288 H   0  0  0  0  0  0  0  0  0  0  0  0
 24 25  1  0  0  0
 25 18  1  0  0  0
 18 19  1  0  0  0
 18 23  2  0  0  0
 19 20  2  0  0  0
 20 26  1  0  0  0
 20 21  1  0  0  0
 26 27  1  0  0  0
 21 22  2  0  0  0
 22  1  1  0  0  0
 22 23  1  0  0  0
  1 28  1  0  0  0
  1  2  1  0  0  0
 28 29  1  0  0  0
 29 30  1  0  0  0
 30 31  1  0  0  0
 31 32  1  0  0  0
 31 33  1  0  0  0
  2  3  1  0  0  0
  2 11  2  0  0  0
  3  4  2  0  0  0
  4  5  1  0  0  0
  5  6  1  0  0  0
  5 10  2  0  0  0
  6  7  2  0  0  0
  7  8  1  0  0  0
  8 12  1  0  0  0
  8  9  2  0  0  0
 12 13  1  0  0  0
 12 17  2  0  0  0
 13 14  2  0  0  0
 14 15  1  0  0  0
 15 16  1  0  0  0
 15 17  1  0  0  0
  9 10  1  0  0  0
 10 11  1  0  0  0
M  END
> <minimizedAffinity>
-8.39444

$$$$
