CHEMBL398458


 26 29  0  0  0  0  0  0  0  0999 V2000
  -16.5749    1.8795  -15.4159 C   0  0  0  0  0  0  0  0  0  0  0  0
  -16.9896    2.9608  -16.2166 C   0  0  0  0  0  0  0  0  0  0  0  0
  -16.1550    4.0385  -16.4655 C   0  0  0  0  0  0  0  0  0  0  0  0
  -14.8738    4.0627  -15.9317 C   0  0  0  0  0  0  0  0  0  0  0  0
  -14.4316    2.9646  -15.1786 C   0  0  0  0  0  0  0  0  0  0  0  0
  -15.2365    1.8310  -14.9088 C   0  0  0  0  0  0  0  0  0  0  0  0
  -14.3963    0.9149  -14.1620 C   0  0  0  0  0  0  0  0  0  0  0  0
  -13.1618    1.5067  -14.0194 C   0  0  0  0  0  0  0  0  0  0  0  0
  -13.2108    2.7527  -14.5737 N   0  0  0  0  0  0  0  0  0  0  0  0
  -12.1257    3.7081  -14.5442 C   0  0  0  0  0  0  0  0  0  0  0  0
  -14.7239   -0.3993  -13.6826 C   0  0  0  0  0  0  0  0  0  0  0  0
  -14.3532   -1.6097  -14.1319 C   0  0  0  0  0  0  0  0  0  0  0  0
  -13.5906   -1.9703  -15.3544 C   0  0  0  0  0  0  0  0  0  0  0  0
  -12.9379   -1.2815  -16.1138 O   0  0  0  0  0  0  0  0  0  0  0  0
  -13.7649   -3.3402  -15.4432 N   0  0  0  0  0  0  0  0  0  0  0  0
  -14.3111   -3.9239  -14.3328 N   0  0  0  0  0  0  0  0  0  0  0  0
  -14.6325   -2.9486  -13.5129 C   0  0  0  0  0  0  0  0  0  0  0  0
  -13.3347   -3.9095  -16.1640 H   0  0  0  0  0  0  0  0  0  0  0  0
  -15.0286   -3.2340  -12.1625 C   0  0  0  0  0  0  0  0  0  0  0  0
  -15.7464   -2.5623  -11.1918 C   0  0  0  0  0  0  0  0  0  0  0  0
  -15.7907   -3.1686   -9.9442 N   0  0  0  0  0  0  0  0  0  0  0  0
  -15.1562   -4.3262   -9.9414 N   0  0  0  0  0  0  0  0  0  0  0  0
  -14.5092   -4.7119  -11.4297 S   0  0  0  0  0  0  0  0  0  0  0  0
  -17.5639    0.9085  -15.2991 O   0  0  0  0  0  0  0  0  0  0  0  0
  -19.9726    0.6216  -15.2283 C   0  0  0  0  0  0  0  0  0  0  0  0
  -18.7584    1.3115  -14.6502 C   0  0  0  0  0  0  0  0  0  0  0  0
 25 26  1  0  0  0
 26 24  1  0  0  0
 24  1  1  0  0  0
  1  2  1  0  0  0
  1  6  2  0  0  0
  2  3  2  0  0  0
  3  4  1  0  0  0
  4  5  2  0  0  0
  5  6  1  0  0  0
  5  9  1  0  0  0
  6  7  1  0  0  0
  7 11  1  0  0  0
  7  8  2  0  0  0
 11 12  2  0  0  0
 12 13  1  0  0  0
 12 17  1  0  0  0
 13 14  2  0  0  0
 13 15  1  0  0  0
 15 16  1  0  0  0
 15 18  1  0  0  0
 16 17  2  0  0  0
 17 19  1  0  0  0
 19 20  2  0  0  0
 19 23  1  0  0  0
 20 21  1  0  0  0
 21 22  2  0  0  0
 22 23  1  0  0  0
  8  9  1  0  0  0
  9 10  1  0  0  0
M  END
> <minimizedAffinity>
-6.91264

$$$$
