CHEMBL436117


 40 43  0  0  0  0  0  0  0  0999 V2000
  -24.5255   -1.0536  -14.5709 C   0  0  0  0  0  0  0  0  0  0  0  0
  -25.1483   -0.7957  -15.6897 N   0  0  0  0  0  0  0  0  0  0  0  0
  -26.5089   -0.8814  -15.7615 C   0  0  0  0  0  0  0  0  0  0  0  0
  -27.3071   -1.2043  -14.8017 N   0  0  0  0  0  0  0  0  0  0  0  0
  -26.6861   -1.4928  -13.6523 N   0  0  0  0  0  0  0  0  0  0  0  0
  -27.3288   -1.8811  -12.5247 C   0  0  0  0  0  0  0  0  0  0  0  0
  -26.4085   -2.1391  -11.5407 C   0  0  0  0  0  0  0  0  0  0  0  0
  -25.0980   -1.8970  -12.1186 C   0  0  0  0  0  0  0  0  0  0  0  0
  -25.3337   -1.4553  -13.4364 C   0  0  0  0  0  0  0  0  0  0  0  0
  -26.7462   -2.5502  -10.2543 N   0  0  0  0  0  0  0  0  0  0  0  0
  -27.5735   -1.8611   -9.3900 C   0  0  0  0  0  0  0  0  0  0  0  0
  -28.2081   -0.8433   -9.6251 O   0  0  0  0  0  0  0  0  0  0  0  0
  -26.3047   -3.3634   -9.8627 H   0  0  0  0  0  0  0  0  0  0  0  0
  -27.5443   -2.4459   -8.1584 O   0  0  0  0  0  0  0  0  0  0  0  0
  -27.8357   -1.5425   -7.0772 C   0  0  0  0  0  0  0  0  0  0  0  0
  -28.7254   -2.1008   -5.9912 C   0  0  0  0  0  0  0  0  0  0  0  0
  -29.7006   -3.0609   -6.3127 C   0  0  0  0  0  0  0  0  0  0  0  0
  -30.4314   -3.7058   -5.3098 C   0  0  0  0  0  0  0  0  0  0  0  0
  -30.1999   -3.3972   -3.9725 C   0  0  0  0  0  0  0  0  0  0  0  0
  -29.2440   -2.4393   -3.6379 C   0  0  0  0  0  0  0  0  0  0  0  0
  -28.5099   -1.7934   -4.6413 C   0  0  0  0  0  0  0  0  0  0  0  0
  -23.7361   -2.0872  -11.4727 C   0  0  0  0  0  0  0  0  0  0  0  0
  -22.8570   -3.0534  -12.2701 C   0  0  0  0  0  0  0  0  0  0  0  0
  -22.9641   -0.7891  -11.2054 C   0  0  0  0  0  0  0  0  0  0  0  0
  -23.1518   -0.9044  -14.5380 N   0  0  0  0  0  0  0  0  0  0  0  0
  -22.5868   -1.7363  -14.4288 H   0  0  0  0  0  0  0  0  0  0  0  0
  -20.4711    1.7048  -14.7869 C   0  0  0  0  0  0  0  0  0  0  0  0
  -21.1646    0.4906  -14.9297 C   0  0  0  0  0  0  0  0  0  0  0  0
  -22.4598    0.3214  -14.4173 C   0  0  0  0  0  0  0  0  0  0  0  0
  -23.0598    1.4315  -13.8038 C   0  0  0  0  0  0  0  0  0  0  0  0
  -24.3043    1.3218  -13.3149 F   0  0  0  0  0  0  0  0  0  0  0  0
  -22.3992    2.6555  -13.6822 C   0  0  0  0  0  0  0  0  0  0  0  0
  -21.1032    2.7817  -14.1721 C   0  0  0  0  0  0  0  0  0  0  0  0
  -20.4712    3.9564  -14.0234 F   0  0  0  0  0  0  0  0  0  0  0  0
  -18.2302    0.7480  -14.8234 N   0  0  0  0  0  0  0  0  0  0  0  0
  -19.0636    1.7600  -15.2500 C   0  0  0  0  0  0  0  0  0  0  0  0
  -18.7154    2.7006  -15.9586 O   0  0  0  0  0  0  0  0  0  0  0  0
  -18.6063   -0.1528  -14.5435 H   0  0  0  0  0  0  0  0  0  0  0  0
  -15.9505    0.8867  -14.5130 C   0  0  0  0  0  0  0  0  0  0  0  0
  -16.9778    0.6951  -15.4837 O   0  0  0  0  0  0  0  0  0  0  0  0
 39 40  1  0  0  0
 40 35  1  0  0  0
 35 36  1  0  0  0
 35 38  1  0  0  0
 36 37  2  0  0  0
 36 27  1  0  0  0
 27 28  1  0  0  0
 27 33  2  0  0  0
 28 29  2  0  0  0
 29 25  1  0  0  0
 29 30  1  0  0  0
 25  1  1  0  0  0
 25 26  1  0  0  0
  1  2  2  0  0  0
  1  9  1  0  0  0
  2  3  1  0  0  0
  3  4  2  0  0  0
  4  5  1  0  0  0
  5  6  1  0  0  0
  5  9  1  0  0  0
  6  7  2  0  0  0
  7 10  1  0  0  0
  7  8  1  0  0  0
 10 11  1  0  0  0
 10 13  1  0  0  0
 11 12  2  0  0  0
 11 14  1  0  0  0
 14 15  1  0  0  0
 15 16  1  0  0  0
 16 17  1  0  0  0
 16 21  2  0  0  0
 17 18  2  0  0  0
 18 19  1  0  0  0
 19 20  2  0  0  0
 20 21  1  0  0  0
  8 22  1  0  0  0
  8  9  2  0  0  0
 22 23  1  0  0  0
 22 24  1  0  0  0
 30 31  1  0  0  0
 30 32  2  0  0  0
 32 33  1  0  0  0
 33 34  1  0  0  0
M  END
> <minimizedAffinity>
-7.88160

$$$$
