CHEMBL399606


 29 32  0  0  0  0  0  0  0  0999 V2000
  -17.6309    1.7733  -13.7497 O   0  0  0  0  0  0  0  0  0  0  0  0
  -17.8313    2.3849  -14.7942 C   0  0  0  0  0  0  0  0  0  0  0  0
  -19.0727    2.5783  -15.3747 N   0  0  0  0  0  0  0  0  0  0  0  0
  -19.1032    3.1821  -16.1846 H   0  0  0  0  0  0  0  0  0  0  0  0
  -20.3041    1.9983  -15.0053 C   0  0  0  0  0  0  0  0  0  0  0  0
  -21.3601    2.6987  -14.4318 C   0  0  0  0  0  0  0  0  0  0  0  0
  -22.4991    2.0214  -13.9658 C   0  0  0  0  0  0  0  0  0  0  0  0
  -22.6229    0.6261  -14.0647 C   0  0  0  0  0  0  0  0  0  0  0  0
  -21.5876   -0.0494  -14.7335 C   0  0  0  0  0  0  0  0  0  0  0  0
  -20.4417    0.6198  -15.1840 C   0  0  0  0  0  0  0  0  0  0  0  0
  -23.7452   -0.1108  -13.4267 C   0  0  0  0  0  0  0  0  0  0  0  0
  -24.5423   -1.0326  -14.1302 C   0  0  0  0  0  0  0  0  0  0  0  0
  -25.6390   -1.6608  -13.5273 C   0  0  0  0  0  0  0  0  0  0  0  0
  -25.9574   -1.3972  -12.2005 C   0  0  0  0  0  0  0  0  0  0  0  0
  -25.1832   -0.5004  -11.4751 C   0  0  0  0  0  0  0  0  0  0  0  0
  -24.0993    0.1372  -12.0839 C   0  0  0  0  0  0  0  0  0  0  0  0
  -16.7435    2.9906  -15.5408 C   0  0  0  0  0  0  0  0  0  0  0  0
  -16.6247    4.2746  -16.0558 C   0  0  0  0  0  0  0  0  0  0  0  0
  -15.3932    4.3068  -16.7220 C   0  0  0  0  0  0  0  0  0  0  0  0
  -14.7619    3.1400  -16.6568 N   0  0  0  0  0  0  0  0  0  0  0  0
  -15.5933    2.3415  -15.9483 N   0  0  0  0  0  0  0  0  0  0  0  0
  -15.2171    0.9420  -15.7458 C   0  0  0  0  0  0  0  0  0  0  0  0
  -14.2386    0.7499  -14.5765 C   0  0  0  0  0  0  0  0  0  0  0  0
  -14.3318   -0.5216  -13.7636 C   0  0  0  0  0  0  0  0  0  0  0  0
  -13.2949   -1.4494  -13.6523 C   0  0  0  0  0  0  0  0  0  0  0  0
  -13.4416   -2.5126  -12.7686 C   0  0  0  0  0  0  0  0  0  0  0  0
  -14.5319   -2.7139  -11.9981 N   0  0  0  0  0  0  0  0  0  0  0  0
  -15.5230   -1.8087  -12.1146 C   0  0  0  0  0  0  0  0  0  0  0  0
  -15.4698   -0.7167  -12.9675 C   0  0  0  0  0  0  0  0  0  0  0  0
  1  2  2  0  0  0
  2  3  1  0  0  0
  2 17  1  0  0  0
  3  5  1  0  0  0
  3  4  1  0  0  0
  5  6  1  0  0  0
  5 10  2  0  0  0
  6  7  2  0  0  0
  7  8  1  0  0  0
  8 11  1  0  0  0
  8  9  2  0  0  0
 11 12  1  0  0  0
 11 16  2  0  0  0
 12 13  2  0  0  0
 13 14  1  0  0  0
 14 15  2  0  0  0
 15 16  1  0  0  0
  9 10  1  0  0  0
 17 18  2  0  0  0
 17 21  1  0  0  0
 18 19  1  0  0  0
 19 20  2  0  0  0
 20 21  1  0  0  0
 21 22  1  0  0  0
 22 23  1  0  0  0
 23 24  1  0  0  0
 24 25  1  0  0  0
 24 29  2  0  0  0
 25 26  2  0  0  0
 26 27  1  0  0  0
 27 28  2  0  0  0
 28 29  1  0  0  0
M  END
> <minimizedAffinity>
-9.22307

$$$$
