CHEMBL4099365


 39 43  0  0  0  0  0  0  0  0999 V2000
  -28.2452   -3.1630   -5.8712 C   0  0  0  0  0  0  0  0  0  0  0  0
  -28.3969   -4.0141   -6.9565 C   0  0  0  0  0  0  0  0  0  0  0  0
  -28.3406   -3.5132   -8.2465 C   0  0  0  0  0  0  0  0  0  0  0  0
  -28.2022   -2.1431   -8.5116 C   0  0  0  0  0  0  0  0  0  0  0  0
  -28.2275   -1.2362   -7.4018 C   0  0  0  0  0  0  0  0  0  0  0  0
  -28.2370    0.1763   -7.5338 C   0  0  0  0  0  0  0  0  0  0  0  0
  -28.2859    1.0304   -6.4262 C   0  0  0  0  0  0  0  0  0  0  0  0
  -28.3071    0.5026   -5.1454 C   0  0  0  0  0  0  0  0  0  0  0  0
  -28.2771   -0.8785   -4.9673 C   0  0  0  0  0  0  0  0  0  0  0  0
  -28.2483   -1.7638   -6.0663 C   0  0  0  0  0  0  0  0  0  0  0  0
  -28.0086   -1.6873   -9.8524 N   0  0  0  0  0  0  0  0  0  0  0  0
  -26.7854   -1.5692  -10.5019 C   0  0  0  0  0  0  0  0  0  0  0  0
  -25.7158   -1.9489  -10.0386 O   0  0  0  0  0  0  0  0  0  0  0  0
  -26.8669   -0.9493  -11.7414 N   0  0  0  0  0  0  0  0  0  0  0  0
  -28.8264   -1.4069  -10.3716 H   0  0  0  0  0  0  0  0  0  0  0  0
  -27.6965   -0.4401  -12.0016 H   0  0  0  0  0  0  0  0  0  0  0  0
  -25.7193   -0.7534  -12.5100 C   0  0  0  0  0  0  0  0  0  0  0  0
  -25.1994   -1.5303  -13.5758 C   0  0  0  0  0  0  0  0  0  0  0  0
  -24.0427   -1.0609  -14.0394 N   0  0  0  0  0  0  0  0  0  0  0  0
  -23.7936   -0.0014  -13.2518 N   0  0  0  0  0  0  0  0  0  0  0  0
  -24.8078    0.2675  -12.3651 C   0  0  0  0  0  0  0  0  0  0  0  0
  -22.5087    0.6803  -13.3786 C   0  0  0  0  0  0  0  0  0  0  0  0
  -21.6347    0.0141  -14.4462 C   0  0  0  0  0  0  0  0  0  0  0  0
  -22.6955    2.1671  -13.6827 C   0  0  0  0  0  0  0  0  0  0  0  0
  -28.1248   -3.6995   -4.5960 O   0  0  0  0  0  0  0  0  0  0  0  0
  -28.7436   -8.7099   -3.9773 C   0  0  0  0  0  0  0  0  0  0  0  0
  -29.8855   -8.0276   -3.5230 C   0  0  0  0  0  0  0  0  0  0  0  0
  -30.0088   -6.6508   -3.5948 C   0  0  0  0  0  0  0  0  0  0  0  0
  -31.1817   -6.1088   -3.2528 N   0  0  0  0  0  0  0  0  0  0  0  0
  -31.3111   -4.7925   -3.4332 C   0  0  0  0  0  0  0  0  0  0  0  0
  -30.3700   -3.9718   -3.9081 N   0  0  0  0  0  0  0  0  0  0  0  0
  -29.1686   -4.5330   -4.1652 C   0  0  0  0  0  0  0  0  0  0  0  0
  -28.9230   -5.9020   -4.0544 C   0  0  0  0  0  0  0  0  0  0  0  0
  -27.7167   -6.5620   -4.3748 C   0  0  0  0  0  0  0  0  0  0  0  0
  -27.6257   -7.9624   -4.3698 C   0  0  0  0  0  0  0  0  0  0  0  0
  -29.1528  -10.6676   -5.2586 C   0  0  0  0  0  0  0  0  0  0  0  0
  -28.7136  -10.0798   -4.0274 O   0  0  0  0  0  0  0  0  0  0  0  0
  -26.3996   -8.3851   -4.7973 O   0  0  0  0  0  0  0  0  0  0  0  0
  -25.4692   -8.9256   -3.8752 C   0  0  0  0  0  0  0  0  0  0  0  0
 36 37  1  0  0  0
 37 26  1  0  0  0
 26 27  1  0  0  0
 26 35  2  0  0  0
 27 28  2  0  0  0
 28 29  1  0  0  0
 28 33  1  0  0  0
 29 30  2  0  0  0
 30 31  1  0  0  0
 31 32  2  0  0  0
 32 25  1  0  0  0
 32 33  1  0  0  0
 25  1  1  0  0  0
  1  2  1  0  0  0
  1 10  2  0  0  0
  2  3  2  0  0  0
  3  4  1  0  0  0
  4 11  1  0  0  0
  4  5  2  0  0  0
 11 12  1  0  0  0
 11 15  1  0  0  0
 12 13  2  0  0  0
 12 14  1  0  0  0
 14 17  1  0  0  0
 14 16  1  0  0  0
 17 18  1  0  0  0
 17 21  2  0  0  0
 18 19  2  0  0  0
 19 20  1  0  0  0
 20 22  1  0  0  0
 20 21  1  0  0  0
 22 23  1  0  0  0
 22 24  1  0  0  0
  5  6  1  0  0  0
  5 10  1  0  0  0
  6  7  2  0  0  0
  7  8  1  0  0  0
  8  9  2  0  0  0
  9 10  1  0  0  0
 33 34  2  0  0  0
 34 35  1  0  0  0
 35 38  1  0  0  0
 38 39  1  0  0  0
M  END
> <minimizedAffinity>
-9.09883

$$$$
