CHEMBL1076475


 48 53  0  0  0  0  0  0  0  0999 V2000
  -29.8846   -4.4182   -6.1768 C   0  0  0  0  0  0  0  0  0  0  0  0
  -31.0159   -3.8390   -5.7877 N   0  0  0  0  0  0  0  0  0  0  0  0
  -31.3202   -4.5365   -4.6441 C   0  0  0  0  0  0  0  0  0  0  0  0
  -32.0740   -4.1552   -3.5289 C   0  0  0  0  0  0  0  0  0  0  0  0
  -32.0476   -4.9852   -2.4004 C   0  0  0  0  0  0  0  0  0  0  0  0
  -31.3499   -6.1984   -2.4095 C   0  0  0  0  0  0  0  0  0  0  0  0
  -30.6732   -6.6452   -3.5518 C   0  0  0  0  0  0  0  0  0  0  0  0
  -30.6623   -5.7613   -4.6411 C   0  0  0  0  0  0  0  0  0  0  0  0
  -30.0456   -5.7800   -5.8867 N   0  0  0  0  0  0  0  0  0  0  0  0
  -29.9021   -6.8936   -6.7622 C   0  0  0  0  0  0  0  0  0  0  0  0
  -28.6289   -7.2106   -7.2352 C   0  0  0  0  0  0  0  0  0  0  0  0
  -28.5004   -8.3086   -8.0734 C   0  0  0  0  0  0  0  0  0  0  0  0
  -29.5774   -9.0192   -8.4326 N   0  0  0  0  0  0  0  0  0  0  0  0
  -30.7593   -8.6521   -7.9063 C   0  0  0  0  0  0  0  0  0  0  0  0
  -30.9788   -7.6441   -7.0498 N   0  0  0  0  0  0  0  0  0  0  0  0
  -27.2143   -8.7641   -8.4323 N   0  0  0  0  0  0  0  0  0  0  0  0
  -26.9793   -8.5208   -9.3888 H   0  0  0  0  0  0  0  0  0  0  0  0
  -26.9825  -10.1954   -8.1521 C   0  0  0  0  0  0  0  0  0  0  0  0
  -26.4546  -10.9119   -9.4024 C   0  0  0  0  0  0  0  0  0  0  0  0
  -27.1671  -10.4763  -10.6642 C   0  0  0  0  0  0  0  0  0  0  0  0
  -28.3897  -11.0332  -11.0194 C   0  0  0  0  0  0  0  0  0  0  0  0
  -28.9997  -10.6279  -12.2071 C   0  0  0  0  0  0  0  0  0  0  0  0
  -28.3753   -9.6799  -13.0039 C   0  0  0  0  0  0  0  0  0  0  0  0
  -27.1638   -9.1649  -12.5716 C   0  0  0  0  0  0  0  0  0  0  0  0
  -26.5503   -9.5353  -11.4246 N   0  0  0  0  0  0  0  0  0  0  0  0
  -28.7223   -3.7454   -5.9285 N   0  0  0  0  0  0  0  0  0  0  0  0
  -28.6437   -3.6199   -4.9202 H   0  0  0  0  0  0  0  0  0  0  0  0
  -29.1493   -1.3268   -4.4622 C   0  0  0  0  0  0  0  0  0  0  0  0
  -28.5303   -1.3432   -5.8374 C   0  0  0  0  0  0  0  0  0  0  0  0
  -28.2790   -0.1281   -6.4768 C   0  0  0  0  0  0  0  0  0  0  0  0
  -27.7079   -0.1044   -7.7479 C   0  0  0  0  0  0  0  0  0  0  0  0
  -27.3591   -1.2883   -8.4011 C   0  0  0  0  0  0  0  0  0  0  0  0
  -27.6216   -2.5139   -7.7676 C   0  0  0  0  0  0  0  0  0  0  0  0
  -28.2120   -2.5552   -6.4963 C   0  0  0  0  0  0  0  0  0  0  0  0
  -26.7730   -1.3224   -9.6894 N   0  0  0  0  0  0  0  0  0  0  0  0
  -27.4369   -1.2254  -10.8959 C   0  0  0  0  0  0  0  0  0  0  0  0
  -28.6521   -1.1163  -11.0622 O   0  0  0  0  0  0  0  0  0  0  0  0
  -25.7753   -1.4820   -9.7092 H   0  0  0  0  0  0  0  0  0  0  0  0
  -26.5995   -1.2653  -12.1304 C   0  0  0  0  0  0  0  0  0  0  0  0
  -27.0645   -1.7870  -13.3414 C   0  0  0  0  0  0  0  0  0  0  0  0
  -26.2101   -1.8444  -14.4470 C   0  0  0  0  0  0  0  0  0  0  0  0
  -24.8969   -1.3770  -14.3501 C   0  0  0  0  0  0  0  0  0  0  0  0
  -24.4165   -0.8396  -13.1484 C   0  0  0  0  0  0  0  0  0  0  0  0
  -25.2750   -0.8030  -12.0382 C   0  0  0  0  0  0  0  0  0  0  0  0
  -23.0116   -0.2967  -13.0356 C   0  0  0  0  0  0  0  0  0  0  0  0
  -22.4047   -0.6086  -11.8557 F   0  0  0  0  0  0  0  0  0  0  0  0
  -22.1918   -0.7799  -14.0105 F   0  0  0  0  0  0  0  0  0  0  0  0
  -22.9576    1.0585  -13.1355 F   0  0  0  0  0  0  0  0  0  0  0  0
 28 29  1  0  0  0
 29 30  1  0  0  0
 29 34  2  0  0  0
 30 31  2  0  0  0
 31 32  1  0  0  0
 32 35  1  0  0  0
 32 33  2  0  0  0
 35 36  1  0  0  0
 35 38  1  0  0  0
 36 37  2  0  0  0
 36 39  1  0  0  0
 39 40  1  0  0  0
 39 44  2  0  0  0
 40 41  2  0  0  0
 41 42  1  0  0  0
 42 43  2  0  0  0
 43 45  1  0  0  0
 43 44  1  0  0  0
 45 46  1  0  0  0
 45 47  1  0  0  0
 45 48  1  0  0  0
 33 34  1  0  0  0
 34 26  1  0  0  0
 26  1  1  0  0  0
 26 27  1  0  0  0
  1  2  2  0  0  0
  1  9  1  0  0  0
  2  3  1  0  0  0
  3  4  1  0  0  0
  3  8  2  0  0  0
  4  5  2  0  0  0
  5  6  1  0  0  0
  6  7  2  0  0  0
  7  8  1  0  0  0
  8  9  1  0  0  0
  9 10  1  0  0  0
 10 11  1  0  0  0
 10 15  2  0  0  0
 11 12  2  0  0  0
 12 16  1  0  0  0
 12 13  1  0  0  0
 16 18  1  0  0  0
 16 17  1  0  0  0
 18 19  1  0  0  0
 19 20  1  0  0  0
 20 21  1  0  0  0
 20 25  2  0  0  0
 21 22  2  0  0  0
 22 23  1  0  0  0
 23 24  2  0  0  0
 24 25  1  0  0  0
 13 14  2  0  0  0
 14 15  1  0  0  0
M  END
> <minimizedAffinity>
-10.46850

$$$$
