CHEMBL3660268


 39 42  0  0  0  0  0  0  0  0999 V2000
  -25.9197   -1.0042  -12.3064 C   0  0  0  0  0  0  0  0  0  0  0  0
  -25.7253   -1.5639  -13.5741 C   0  0  0  0  0  0  0  0  0  0  0  0
  -24.5045   -1.4218  -14.2343 C   0  0  0  0  0  0  0  0  0  0  0  0
  -23.4831   -0.6620  -13.6621 C   0  0  0  0  0  0  0  0  0  0  0  0
  -23.6709   -0.1081  -12.3916 C   0  0  0  0  0  0  0  0  0  0  0  0
  -24.8959   -0.2561  -11.7224 C   0  0  0  0  0  0  0  0  0  0  0  0
  -28.2305   -2.0440   -9.7093 N   0  0  0  0  0  0  0  0  0  0  0  0
  -27.0044   -1.7437  -10.2865 C   0  0  0  0  0  0  0  0  0  0  0  0
  -25.9250   -1.8180   -9.7204 O   0  0  0  0  0  0  0  0  0  0  0  0
  -27.1206   -1.2642  -11.5915 N   0  0  0  0  0  0  0  0  0  0  0  0
  -29.0576   -1.7713  -10.2164 H   0  0  0  0  0  0  0  0  0  0  0  0
  -27.8619   -0.5918  -11.7154 H   0  0  0  0  0  0  0  0  0  0  0  0
  -29.6948   -5.7550   -6.7551 C   0  0  0  0  0  0  0  0  0  0  0  0
  -29.1541   -4.3641   -6.9293 C   0  0  0  0  0  0  0  0  0  0  0  0
  -28.9069   -3.5774   -5.8001 C   0  0  0  0  0  0  0  0  0  0  0  0
  -28.3832   -2.3001   -5.9469 C   0  0  0  0  0  0  0  0  0  0  0  0
  -28.1171   -1.7944   -7.2172 C   0  0  0  0  0  0  0  0  0  0  0  0
  -27.4847   -0.6151   -7.2529 F   0  0  0  0  0  0  0  0  0  0  0  0
  -28.4051   -2.5296   -8.3789 C   0  0  0  0  0  0  0  0  0  0  0  0
  -28.8992   -3.8366   -8.2140 C   0  0  0  0  0  0  0  0  0  0  0  0
  -22.2522   -0.4594  -14.2517 O   0  0  0  0  0  0  0  0  0  0  0  0
  -21.7534    0.8226  -14.3519 C   0  0  0  0  0  0  0  0  0  0  0  0
  -22.4721    1.9658  -14.0191 C   0  0  0  0  0  0  0  0  0  0  0  0
  -21.8715    3.1957  -14.2185 C   0  0  0  0  0  0  0  0  0  0  0  0
  -20.6084    3.3553  -14.6701 N   0  0  0  0  0  0  0  0  0  0  0  0
  -19.9067    2.2260  -14.9262 C   0  0  0  0  0  0  0  0  0  0  0  0
  -20.4340    0.9488  -14.7728 C   0  0  0  0  0  0  0  0  0  0  0  0
  -18.5423    2.4526  -15.3918 C   0  0  0  0  0  0  0  0  0  0  0  0
  -17.9085    3.6007  -15.8334 C   0  0  0  0  0  0  0  0  0  0  0  0
  -16.5647    3.2865  -16.1932 C   0  0  0  0  0  0  0  0  0  0  0  0
  -16.4184    1.9335  -15.9387 C   0  0  0  0  0  0  0  0  0  0  0  0
  -17.6041    1.4460  -15.4537 N   0  0  0  0  0  0  0  0  0  0  0  0
  -17.7944    0.4899  -15.1768 H   0  0  0  0  0  0  0  0  0  0  0  0
  -15.5227    4.1608  -16.7224 C   0  0  0  0  0  0  0  0  0  0  0  0
  -15.3618    4.3808  -17.9219 O   0  0  0  0  0  0  0  0  0  0  0  0
  -14.7163    4.7419  -15.7725 N   0  0  0  0  0  0  0  0  0  0  0  0
  -13.7006    5.6154  -16.2187 O   0  0  0  0  0  0  0  0  0  0  0  0
  -14.8104    4.6166  -14.7742 H   0  0  0  0  0  0  0  0  0  0  0  0
  -13.8233    5.5921  -17.1925 H   0  0  0  0  0  0  0  0  0  0  0  0
 13 14  1  0  0  0
 14 15  1  0  0  0
 14 20  2  0  0  0
 15 16  2  0  0  0
 16 17  1  0  0  0
 17 18  1  0  0  0
 17 19  2  0  0  0
 19  7  1  0  0  0
 19 20  1  0  0  0
  7  8  1  0  0  0
  7 11  1  0  0  0
  8  9  2  0  0  0
  8 10  1  0  0  0
 10  1  1  0  0  0
 10 12  1  0  0  0
  1  2  1  0  0  0
  1  6  2  0  0  0
  2  3  2  0  0  0
  3  4  1  0  0  0
  4 21  1  0  0  0
  4  5  2  0  0  0
 21 22  1  0  0  0
 22 23  1  0  0  0
 22 27  2  0  0  0
 23 24  2  0  0  0
 24 25  1  0  0  0
 25 26  2  0  0  0
 26 28  1  0  0  0
 26 27  1  0  0  0
 28 29  2  0  0  0
 28 32  1  0  0  0
 29 30  1  0  0  0
 30 34  1  0  0  0
 30 31  2  0  0  0
 34 35  2  0  0  0
 34 36  1  0  0  0
 36 37  1  0  0  0
 36 38  1  0  0  0
 37 39  1  0  0  0
 31 32  1  0  0  0
 32 33  1  0  0  0
  5  6  1  0  0  0
M  END
> <minimizedAffinity>
-12.33509

$$$$
