CHEMBL1095034


 42 47  0  0  0  0  0  0  0  0999 V2000
  -15.6166    2.3887  -15.6896 C   0  0  0  0  0  0  0  0  0  0  0  0
  -14.5461    1.4981  -15.7584 C   0  0  0  0  0  0  0  0  0  0  0  0
  -14.6579    0.2320  -15.1915 C   0  0  0  0  0  0  0  0  0  0  0  0
  -15.8605   -0.1890  -14.6195 C   0  0  0  0  0  0  0  0  0  0  0  0
  -16.9803    0.6407  -14.6975 C   0  0  0  0  0  0  0  0  0  0  0  0
  -16.8436    1.9306  -15.2111 C   0  0  0  0  0  0  0  0  0  0  0  0
  -17.9138    2.7401  -15.2092 F   0  0  0  0  0  0  0  0  0  0  0  0
  -15.9858   -1.4385  -13.9889 N   0  0  0  0  0  0  0  0  0  0  0  0
  -15.6259   -1.7011  -12.6804 C   0  0  0  0  0  0  0  0  0  0  0  0
  -15.3308   -0.8695  -11.8303 O   0  0  0  0  0  0  0  0  0  0  0  0
  -16.4076   -2.1821  -14.5304 H   0  0  0  0  0  0  0  0  0  0  0  0
  -15.6070   -3.1092  -12.3460 C   0  0  0  0  0  0  0  0  0  0  0  0
  -16.4388   -3.8364  -11.4858 C   0  0  0  0  0  0  0  0  0  0  0  0
  -16.1849   -5.1392  -11.5199 N   0  0  0  0  0  0  0  0  0  0  0  0
  -15.0743   -5.2640  -12.3015 N   0  0  0  0  0  0  0  0  0  0  0  0
  -14.7426   -4.0577  -12.8840 C   0  0  0  0  0  0  0  0  0  0  0  0
  -14.4746   -6.5478  -12.4177 C   0  0  0  0  0  0  0  0  0  0  0  0
  -13.4864   -6.9085  -11.4884 C   0  0  0  0  0  0  0  0  0  0  0  0
  -12.8854   -8.1653  -11.5524 C   0  0  0  0  0  0  0  0  0  0  0  0
  -13.2437   -9.0575  -12.5598 C   0  0  0  0  0  0  0  0  0  0  0  0
  -14.1971   -8.6911  -13.5080 C   0  0  0  0  0  0  0  0  0  0  0  0
  -14.8122   -7.4382  -13.4417 C   0  0  0  0  0  0  0  0  0  0  0  0
  -13.7636   -3.9277  -13.9792 C   0  0  0  0  0  0  0  0  0  0  0  0
  -12.6832   -4.7332  -13.8224 F   0  0  0  0  0  0  0  0  0  0  0  0
  -14.2946   -4.2244  -15.1895 F   0  0  0  0  0  0  0  0  0  0  0  0
  -13.2607   -2.6692  -14.0568 F   0  0  0  0  0  0  0  0  0  0  0  0
  -15.5380    3.7029  -16.0867 O   0  0  0  0  0  0  0  0  0  0  0  0
  -13.5557    6.5781  -19.1396 C   0  0  0  0  0  0  0  0  0  0  0  0
  -12.4843    6.5890  -18.2713 C   0  0  0  0  0  0  0  0  0  0  0  0
  -12.6850    5.7684  -17.1270 C   0  0  0  0  0  0  0  0  0  0  0  0
  -11.7785    5.6071  -16.1263 N   0  0  0  0  0  0  0  0  0  0  0  0
  -12.1816    4.8477  -15.0932 C   0  0  0  0  0  0  0  0  0  0  0  0
  -13.4131    4.2300  -14.9944 C   0  0  0  0  0  0  0  0  0  0  0  0
  -14.3072    4.3276  -16.0643 C   0  0  0  0  0  0  0  0  0  0  0  0
  -13.9322    5.1500  -17.1362 C   0  0  0  0  0  0  0  0  0  0  0  0
  -14.8009    5.5502  -18.5615 S   0  0  0  0  0  0  0  0  0  0  0  0
  -15.4549    9.0075  -19.6273 C   0  0  0  0  0  0  0  0  0  0  0  0
  -14.5980    8.3560  -20.5871 N   0  0  0  0  0  0  0  0  0  0  0  0
  -14.4766    8.7333  -21.8989 C   0  0  0  0  0  0  0  0  0  0  0  0
  -13.5078    7.9133  -22.4198 C   0  0  0  0  0  0  0  0  0  0  0  0
  -13.0473    7.0479  -21.4664 N   0  0  0  0  0  0  0  0  0  0  0  0
  -13.7274    7.3113  -20.3648 C   0  0  0  0  0  0  0  0  0  0  0  0
 37 38  1  0  0  0
 38 39  1  0  0  0
 38 42  1  0  0  0
 39 40  2  0  0  0
 40 41  1  0  0  0
 41 42  2  0  0  0
 42 28  1  0  0  0
 28 29  2  0  0  0
 28 36  1  0  0  0
 29 30  1  0  0  0
 30 31  1  0  0  0
 30 35  2  0  0  0
 31 32  2  0  0  0
 32 33  1  0  0  0
 33 34  2  0  0  0
 34 27  1  0  0  0
 34 35  1  0  0  0
 27  1  1  0  0  0
  1  2  1  0  0  0
  1  6  2  0  0  0
  2  3  2  0  0  0
  3  4  1  0  0  0
  4  8  1  0  0  0
  4  5  2  0  0  0
  8  9  1  0  0  0
  8 11  1  0  0  0
  9 10  2  0  0  0
  9 12  1  0  0  0
 12 13  1  0  0  0
 12 16  2  0  0  0
 13 14  2  0  0  0
 14 15  1  0  0  0
 15 17  1  0  0  0
 15 16  1  0  0  0
 17 18  1  0  0  0
 17 22  2  0  0  0
 18 19  2  0  0  0
 19 20  1  0  0  0
 20 21  2  0  0  0
 21 22  1  0  0  0
 16 23  1  0  0  0
 23 24  1  0  0  0
 23 25  1  0  0  0
 23 26  1  0  0  0
  5  6  1  0  0  0
  6  7  1  0  0  0
 35 36  1  0  0  0
M  END
> <minimizedAffinity>
-8.25621

$$$$
