CHEMBL245746


 36 39  0  0  0  0  0  0  0  0999 V2000
  -24.0633   -1.0236  -13.3970 C   0  0  0  0  0  0  0  0  0  0  0  0
  -24.5137   -1.4507  -12.1337 C   0  0  0  0  0  0  0  0  0  0  0  0
  -25.8384   -1.8138  -11.9105 C   0  0  0  0  0  0  0  0  0  0  0  0
  -26.7139   -1.8263  -12.9978 C   0  0  0  0  0  0  0  0  0  0  0  0
  -26.2442   -1.5363  -14.2875 C   0  0  0  0  0  0  0  0  0  0  0  0
  -24.9107   -1.1418  -14.5061 C   0  0  0  0  0  0  0  0  0  0  0  0
  -24.4351   -0.8901  -15.9047 C   0  0  0  0  0  0  0  0  0  0  0  0
  -26.3429   -2.1426  -10.6286 N   0  0  0  0  0  0  0  0  0  0  0  0
  -27.5222   -1.6683  -10.0742 C   0  0  0  0  0  0  0  0  0  0  0  0
  -28.3047   -0.8693  -10.5777 O   0  0  0  0  0  0  0  0  0  0  0  0
  -25.7347   -2.6932  -10.0382 H   0  0  0  0  0  0  0  0  0  0  0  0
  -27.8150   -2.1193   -8.6880 C   0  0  0  0  0  0  0  0  0  0  0  0
  -28.1979   -3.4545   -8.5108 C   0  0  0  0  0  0  0  0  0  0  0  0
  -28.5111   -3.9307   -7.2416 C   0  0  0  0  0  0  0  0  0  0  0  0
  -28.4050   -3.0852   -6.1379 C   0  0  0  0  0  0  0  0  0  0  0  0
  -27.9598   -1.7606   -6.2837 C   0  0  0  0  0  0  0  0  0  0  0  0
  -27.6824   -1.2773   -7.5761 C   0  0  0  0  0  0  0  0  0  0  0  0
  -27.7435   -0.9097   -5.0436 C   0  0  0  0  0  0  0  0  0  0  0  0
  -28.2491    0.5202   -5.2572 C   0  0  0  0  0  0  0  0  0  0  0  0
  -28.3761   -1.5323   -3.7993 C   0  0  0  0  0  0  0  0  0  0  0  0
  -22.7920   -0.4690  -13.5392 O   0  0  0  0  0  0  0  0  0  0  0  0
  -21.6122    1.5770  -14.1470 C   0  0  0  0  0  0  0  0  0  0  0  0
  -21.6338    2.9894  -14.0400 C   0  0  0  0  0  0  0  0  0  0  0  0
  -22.7220    3.6741  -13.5098 C   0  0  0  0  0  0  0  0  0  0  0  0
  -23.8220    2.9363  -13.1479 C   0  0  0  0  0  0  0  0  0  0  0  0
  -23.8767    1.5979  -13.2645 N   0  0  0  0  0  0  0  0  0  0  0  0
  -22.7557    0.9264  -13.6767 C   0  0  0  0  0  0  0  0  0  0  0  0
  -18.1468    1.0171  -14.9349 C   0  0  0  0  0  0  0  0  0  0  0  0
  -18.1144   -0.1878  -15.4765 N   0  0  0  0  0  0  0  0  0  0  0  0
  -19.3027   -0.7786  -15.6015 C   0  0  0  0  0  0  0  0  0  0  0  0
  -20.4825   -0.2744  -15.2442 N   0  0  0  0  0  0  0  0  0  0  0  0
  -20.4095    0.9366  -14.7114 C   0  0  0  0  0  0  0  0  0  0  0  0
  -19.2619    1.6246  -14.5599 N   0  0  0  0  0  0  0  0  0  0  0  0
  -16.7135    2.8812  -15.4831 C   0  0  0  0  0  0  0  0  0  0  0  0
  -16.9766    1.7182  -14.6748 N   0  0  0  0  0  0  0  0  0  0  0  0
  -16.8922    1.8318  -13.6712 H   0  0  0  0  0  0  0  0  0  0  0  0
 34 35  1  0  0  0
 35 28  1  0  0  0
 35 36  1  0  0  0
 28 29  1  0  0  0
 28 33  2  0  0  0
 29 30  2  0  0  0
 30 31  1  0  0  0
 31 32  2  0  0  0
 32 22  1  0  0  0
 32 33  1  0  0  0
 22 23  1  0  0  0
 22 27  2  0  0  0
 23 24  2  0  0  0
 24 25  1  0  0  0
 25 26  2  0  0  0
 26 27  1  0  0  0
 27 21  1  0  0  0
 21  1  1  0  0  0
  1  2  1  0  0  0
  1  6  2  0  0  0
  2  3  2  0  0  0
  3  8  1  0  0  0
  3  4  1  0  0  0
  8  9  1  0  0  0
  8 11  1  0  0  0
  9 10  2  0  0  0
  9 12  1  0  0  0
 12 13  1  0  0  0
 12 17  2  0  0  0
 13 14  2  0  0  0
 14 15  1  0  0  0
 15 16  2  0  0  0
 16 18  1  0  0  0
 16 17  1  0  0  0
 18 19  1  0  0  0
 18 20  1  0  0  0
  4  5  2  0  0  0
  5  6  1  0  0  0
  6  7  1  0  0  0
M  END
> <minimizedAffinity>
-6.56452

$$$$
