CHEMBL179307


 35 38  0  0  0  0  0  0  0  0999 V2000
  -23.3309   -1.1764  -13.6082 C   0  0  0  0  0  0  0  0  0  0  0  0
  -24.5342   -1.1987  -14.3017 C   0  0  0  0  0  0  0  0  0  0  0  0
  -25.7177   -1.4921  -13.6153 C   0  0  0  0  0  0  0  0  0  0  0  0
  -25.7045   -1.8543  -12.2638 C   0  0  0  0  0  0  0  0  0  0  0  0
  -24.4648   -1.9974  -11.6306 C   0  0  0  0  0  0  0  0  0  0  0  0
  -23.2816   -1.6547  -12.3015 C   0  0  0  0  0  0  0  0  0  0  0  0
  -26.8807   -2.0285  -11.4900 N   0  0  0  0  0  0  0  0  0  0  0  0
  -26.9600   -1.9813  -10.1111 C   0  0  0  0  0  0  0  0  0  0  0  0
  -26.0417   -1.6784   -9.3570 O   0  0  0  0  0  0  0  0  0  0  0  0
  -28.2004   -2.4065   -9.6436 N   0  0  0  0  0  0  0  0  0  0  0  0
  -27.7396   -2.2009  -11.9905 H   0  0  0  0  0  0  0  0  0  0  0  0
  -28.5752   -3.2066  -10.1389 H   0  0  0  0  0  0  0  0  0  0  0  0
  -28.4276   -2.4175   -8.2373 C   0  0  0  0  0  0  0  0  0  0  0  0
  -28.4136   -1.2509   -7.4634 C   0  0  0  0  0  0  0  0  0  0  0  0
  -28.3561   -0.0433   -8.0455 F   0  0  0  0  0  0  0  0  0  0  0  0
  -28.4958   -1.3068   -6.0728 C   0  0  0  0  0  0  0  0  0  0  0  0
  -28.6106   -2.5405   -5.4334 C   0  0  0  0  0  0  0  0  0  0  0  0
  -28.6804   -3.7090   -6.1941 C   0  0  0  0  0  0  0  0  0  0  0  0
  -28.6062   -3.6377   -7.5857 C   0  0  0  0  0  0  0  0  0  0  0  0
  -28.6402   -4.7743   -8.2991 F   0  0  0  0  0  0  0  0  0  0  0  0
  -22.1522   -0.6522  -14.1075 O   0  0  0  0  0  0  0  0  0  0  0  0
  -18.3498    2.8511  -14.8791 C   0  0  0  0  0  0  0  0  0  0  0  0
  -19.5724    3.4965  -14.6262 C   0  0  0  0  0  0  0  0  0  0  0  0
  -20.7593    2.8007  -14.4244 C   0  0  0  0  0  0  0  0  0  0  0  0
  -21.8456    3.5044  -14.0667 N   0  0  0  0  0  0  0  0  0  0  0  0
  -22.9762    2.8324  -13.7734 C   0  0  0  0  0  0  0  0  0  0  0  0
  -23.0724    1.4571  -13.7896 C   0  0  0  0  0  0  0  0  0  0  0  0
  -21.9504    0.7208  -14.1635 C   0  0  0  0  0  0  0  0  0  0  0  0
  -20.7657    1.4021  -14.5615 C   0  0  0  0  0  0  0  0  0  0  0  0
  -19.5855    0.8016  -15.0557 C   0  0  0  0  0  0  0  0  0  0  0  0
  -18.3668    1.4832  -15.1391 C   0  0  0  0  0  0  0  0  0  0  0  0
  -16.6638    3.8690  -16.2041 C   0  0  0  0  0  0  0  0  0  0  0  0
  -17.1638    3.5351  -14.9070 O   0  0  0  0  0  0  0  0  0  0  0  0
  -17.3447    0.6318  -15.4463 O   0  0  0  0  0  0  0  0  0  0  0  0
  -16.4260    0.2337  -14.4451 C   0  0  0  0  0  0  0  0  0  0  0  0
 32 33  1  0  0  0
 33 22  1  0  0  0
 22 23  1  0  0  0
 22 31  2  0  0  0
 23 24  2  0  0  0
 24 25  1  0  0  0
 24 29  1  0  0  0
 25 26  2  0  0  0
 26 27  1  0  0  0
 27 28  2  0  0  0
 28 21  1  0  0  0
 28 29  1  0  0  0
 21  1  1  0  0  0
  1  2  1  0  0  0
  1  6  2  0  0  0
  2  3  2  0  0  0
  3  4  1  0  0  0
  4  7  1  0  0  0
  4  5  2  0  0  0
  7  8  1  0  0  0
  7 11  1  0  0  0
  8  9  2  0  0  0
  8 10  1  0  0  0
 10 13  1  0  0  0
 10 12  1  0  0  0
 13 14  1  0  0  0
 13 19  2  0  0  0
 14 15  1  0  0  0
 14 16  2  0  0  0
 16 17  1  0  0  0
 17 18  2  0  0  0
 18 19  1  0  0  0
 19 20  1  0  0  0
  5  6  1  0  0  0
 29 30  2  0  0  0
 30 31  1  0  0  0
 31 34  1  0  0  0
 34 35  1  0  0  0
M  END
> <minimizedAffinity>
-10.78806

$$$$
