CHEMBL402036


 37 40  0  0  0  0  0  0  0  0999 V2000
  -29.2496   -5.9695   -6.4351 C   0  0  0  0  0  0  0  0  0  0  0  0
  -28.3472   -5.7882   -5.3814 C   0  0  0  0  0  0  0  0  0  0  0  0
  -27.8176   -6.8866   -4.7149 C   0  0  0  0  0  0  0  0  0  0  0  0
  -28.0994   -8.1855   -5.1555 C   0  0  0  0  0  0  0  0  0  0  0  0
  -28.9573   -8.3637   -6.2405 C   0  0  0  0  0  0  0  0  0  0  0  0
  -29.5028   -7.2569   -6.8875 C   0  0  0  0  0  0  0  0  0  0  0  0
  -30.2996   -7.4643   -7.9466 F   0  0  0  0  0  0  0  0  0  0  0  0
  -27.5128   -9.2480   -4.4544 N   0  0  0  0  0  0  0  0  0  0  0  0
  -28.0457   -9.5567   -3.6315 H   0  0  0  0  0  0  0  0  0  0  0  0
  -26.2805   -9.8593   -4.5685 C   0  0  0  0  0  0  0  0  0  0  0  0
  -24.9955   -9.8262   -3.5010 S   0  0  0  0  0  0  0  0  0  0  0  0
  -26.1332  -10.6604   -5.6917 N   0  0  0  0  0  0  0  0  0  0  0  0
  -25.1220  -10.5887   -6.6377 C   0  0  0  0  0  0  0  0  0  0  0  0
  -24.1366   -9.8400   -6.5039 O   0  0  0  0  0  0  0  0  0  0  0  0
  -26.8913  -11.3116   -5.8410 H   0  0  0  0  0  0  0  0  0  0  0  0
  -25.2700  -11.4293   -7.8750 C   0  0  0  0  0  0  0  0  0  0  0  0
  -26.5019  -11.1240   -8.6840 C   0  0  0  0  0  0  0  0  0  0  0  0
  -26.8746   -9.7959   -8.9242 C   0  0  0  0  0  0  0  0  0  0  0  0
  -27.9482   -9.5053   -9.7671 C   0  0  0  0  0  0  0  0  0  0  0  0
  -28.6677  -10.5373  -10.3662 C   0  0  0  0  0  0  0  0  0  0  0  0
  -28.3188  -11.8631  -10.1194 C   0  0  0  0  0  0  0  0  0  0  0  0
  -27.2394  -12.1565   -9.2844 C   0  0  0  0  0  0  0  0  0  0  0  0
  -29.9182   -4.9322   -7.0352 O   0  0  0  0  0  0  0  0  0  0  0  0
  -27.1962   -1.9360   -9.1980 C   0  0  0  0  0  0  0  0  0  0  0  0
  -27.4445   -1.0677   -8.1446 C   0  0  0  0  0  0  0  0  0  0  0  0
  -28.3216   -1.6262   -7.1680 C   0  0  0  0  0  0  0  0  0  0  0  0
  -28.7946   -0.9795   -6.0688 N   0  0  0  0  0  0  0  0  0  0  0  0
  -29.6686   -1.6756   -5.3189 C   0  0  0  0  0  0  0  0  0  0  0  0
  -30.1163   -2.9539   -5.5929 C   0  0  0  0  0  0  0  0  0  0  0  0
  -29.5805   -3.6418   -6.6780 C   0  0  0  0  0  0  0  0  0  0  0  0
  -28.6668   -2.9376   -7.4753 C   0  0  0  0  0  0  0  0  0  0  0  0
  -27.7891   -3.4934   -8.8272 S   0  0  0  0  0  0  0  0  0  0  0  0
  -26.2104   -1.3016  -12.8014 C   0  0  0  0  0  0  0  0  0  0  0  0
  -27.0550   -1.5419  -11.6468 N   0  0  0  0  0  0  0  0  0  0  0  0
  -28.4938   -1.5836  -11.8756 C   0  0  0  0  0  0  0  0  0  0  0  0
  -26.4150   -1.6548  -10.3969 C   0  0  0  0  0  0  0  0  0  0  0  0
  -25.1967   -1.4723  -10.3165 O   0  0  0  0  0  0  0  0  0  0  0  0
 33 34  1  0  0  0
 34 35  1  0  0  0
 34 36  1  0  0  0
 36 37  2  0  0  0
 36 24  1  0  0  0
 24 25  2  0  0  0
 24 32  1  0  0  0
 25 26  1  0  0  0
 26 27  1  0  0  0
 26 31  2  0  0  0
 27 28  2  0  0  0
 28 29  1  0  0  0
 29 30  2  0  0  0
 30 23  1  0  0  0
 30 31  1  0  0  0
 23  1  1  0  0  0
  1  2  1  0  0  0
  1  6  2  0  0  0
  2  3  2  0  0  0
  3  4  1  0  0  0
  4  8  1  0  0  0
  4  5  2  0  0  0
  8 10  1  0  0  0
  8  9  1  0  0  0
 10 11  2  0  0  0
 10 12  1  0  0  0
 12 13  1  0  0  0
 12 15  1  0  0  0
 13 14  2  0  0  0
 13 16  1  0  0  0
 16 17  1  0  0  0
 17 18  1  0  0  0
 17 22  2  0  0  0
 18 19  2  0  0  0
 19 20  1  0  0  0
 20 21  2  0  0  0
 21 22  1  0  0  0
  5  6  1  0  0  0
  6  7  1  0  0  0
 31 32  1  0  0  0
M  END
> <minimizedAffinity>
-6.92801

$$$$
