CHEMBL263902


 22 24  0  0  0  0  0  0  0  0999 V2000
  -18.1695    2.0480  -14.6850 C   0  0  0  0  0  0  0  0  0  0  0  0
  -17.6534    2.7472  -15.6488 N   0  0  0  0  0  0  0  0  0  0  0  0
  -16.2476    2.7382  -15.8528 C   0  0  0  0  0  0  0  0  0  0  0  0
  -15.6084    3.9427  -16.1733 C   0  0  0  0  0  0  0  0  0  0  0  0
  -16.3316    5.1487  -16.1378 N   0  0  0  0  0  0  0  0  0  0  0  0
  -14.3001    4.0466  -16.4475 N   0  0  0  0  0  0  0  0  0  0  0  0
  -13.6159    2.8972  -16.4159 C   0  0  0  0  0  0  0  0  0  0  0  0
  -14.1052    1.6815  -16.1311 N   0  0  0  0  0  0  0  0  0  0  0  0
  -15.4204    1.6121  -15.8479 C   0  0  0  0  0  0  0  0  0  0  0  0
  -15.8613    0.3186  -15.6019 N   0  0  0  0  0  0  0  0  0  0  0  0
  -16.7737    0.0112  -14.5086 C   0  0  0  0  0  0  0  0  0  0  0  0
  -17.3319    1.2018  -13.7488 C   0  0  0  0  0  0  0  0  0  0  0  0
  -17.2517    5.0005  -16.5433 H   0  0  0  0  0  0  0  0  0  0  0  0
  -15.7787    5.8782  -16.5707 H   0  0  0  0  0  0  0  0  0  0  0  0
  -15.0410   -0.2825  -15.6363 H   0  0  0  0  0  0  0  0  0  0  0  0
  -22.4791   -0.3771  -13.9320 C   0  0  0  0  0  0  0  0  0  0  0  0
  -21.7398    0.9146  -14.1190 C   0  0  0  0  0  0  0  0  0  0  0  0
  -22.4167    2.1393  -14.1149 C   0  0  0  0  0  0  0  0  0  0  0  0
  -21.7165    3.3356  -14.2751 C   0  0  0  0  0  0  0  0  0  0  0  0
  -20.3327    3.3213  -14.4473 C   0  0  0  0  0  0  0  0  0  0  0  0
  -19.6458    2.1044  -14.4740 C   0  0  0  0  0  0  0  0  0  0  0  0
  -20.3498    0.9056  -14.2954 C   0  0  0  0  0  0  0  0  0  0  0  0
 16 17  1  0  0  0
 17 18  1  0  0  0
 17 22  2  0  0  0
 18 19  2  0  0  0
 19 20  1  0  0  0
 20 21  2  0  0  0
 21  1  1  0  0  0
 21 22  1  0  0  0
  1  2  2  0  0  0
  1 12  1  0  0  0
  2  3  1  0  0  0
  3  4  1  0  0  0
  3  9  2  0  0  0
  4  5  1  0  0  0
  4  6  2  0  0  0
  5 13  1  0  0  0
  5 14  1  0  0  0
  6  7  1  0  0  0
  7  8  2  0  0  0
  8  9  1  0  0  0
  9 10  1  0  0  0
 10 11  1  0  0  0
 10 15  1  0  0  0
 11 12  1  0  0  0
M  END
> <minimizedAffinity>
-8.21221

$$$$
