CHEMBL2086750


 40 45  0  0  0  0  0  0  0  0999 V2000
  -13.5376   -7.4844  -14.8327 C   0  0  0  0  0  0  0  0  0  0  0  0
  -13.6780   -8.3767  -15.9123 C   0  0  0  0  0  0  0  0  0  0  0  0
  -13.6457   -7.9306  -17.2301 C   0  0  0  0  0  0  0  0  0  0  0  0
  -13.4313   -6.5839  -17.4463 C   0  0  0  0  0  0  0  0  0  0  0  0
  -13.2128   -5.6592  -16.4203 C   0  0  0  0  0  0  0  0  0  0  0  0
  -13.2504   -6.1219  -15.1037 C   0  0  0  0  0  0  0  0  0  0  0  0
  -13.0011   -4.3391  -17.1006 C   0  0  0  0  0  0  0  0  0  0  0  0
  -12.7241   -3.1026  -16.6127 C   0  0  0  0  0  0  0  0  0  0  0  0
  -13.0974   -4.6292  -18.5915 C   0  0  0  0  0  0  0  0  0  0  0  0
  -12.8944   -3.8873  -19.5348 O   0  0  0  0  0  0  0  0  0  0  0  0
  -13.3708   -5.9787  -18.6908 N   0  0  0  0  0  0  0  0  0  0  0  0
  -13.4725   -6.4417  -19.5815 H   0  0  0  0  0  0  0  0  0  0  0  0
  -12.5014   -1.9783  -17.4891 C   0  0  0  0  0  0  0  0  0  0  0  0
  -11.4211   -1.4436  -18.0450 N   0  0  0  0  0  0  0  0  0  0  0  0
  -11.8702   -0.3796  -18.8244 C   0  0  0  0  0  0  0  0  0  0  0  0
  -11.1743    0.5783  -19.6067 C   0  0  0  0  0  0  0  0  0  0  0  0
  -11.9150    1.5763  -20.2678 C   0  0  0  0  0  0  0  0  0  0  0  0
  -13.3112    1.5964  -20.1736 C   0  0  0  0  0  0  0  0  0  0  0  0
  -14.0166    0.6456  -19.4382 C   0  0  0  0  0  0  0  0  0  0  0  0
  -13.2568   -0.3122  -18.7737 C   0  0  0  0  0  0  0  0  0  0  0  0
  -13.6255   -1.3450  -17.9585 N   0  0  0  0  0  0  0  0  0  0  0  0
  -14.5739   -1.5935  -17.7271 H   0  0  0  0  0  0  0  0  0  0  0  0
  -11.4367    2.6016  -21.0392 O   0  0  0  0  0  0  0  0  0  0  0  0
  -11.3534    2.4258  -22.4426 C   0  0  0  0  0  0  0  0  0  0  0  0
  -12.4898   -2.9351  -15.1620 C   0  0  0  0  0  0  0  0  0  0  0  0
  -13.5636   -2.6210  -14.3125 C   0  0  0  0  0  0  0  0  0  0  0  0
  -13.3610   -2.4960  -12.9387 C   0  0  0  0  0  0  0  0  0  0  0  0
  -12.0856   -2.6745  -12.4068 C   0  0  0  0  0  0  0  0  0  0  0  0
  -11.0131   -2.9793  -13.2463 C   0  0  0  0  0  0  0  0  0  0  0  0
  -11.2133   -3.1146  -14.6214 C   0  0  0  0  0  0  0  0  0  0  0  0
  -13.5759   -7.9191  -13.4874 N   0  0  0  0  0  0  0  0  0  0  0  0
  -13.6116   -8.9393  -13.4793 H   0  0  0  0  0  0  0  0  0  0  0  0
  -14.9524   -5.6185  -10.7333 N   0  0  0  0  0  0  0  0  0  0  0  0
  -15.8616   -4.8617  -11.6059 C   0  0  0  0  0  0  0  0  0  0  0  0
  -16.6209   -5.8031  -12.5323 C   0  0  0  0  0  0  0  0  0  0  0  0
  -15.6715   -6.6010  -13.4111 C   0  0  0  0  0  0  0  0  0  0  0  0
  -14.6134   -7.3472  -12.5824 C   0  0  0  0  0  0  0  0  0  0  0  0
  -13.9649   -6.3672  -11.5539 C   0  0  0  0  0  0  0  0  0  0  0  0
  -14.8439   -3.3289   -9.6761 C   0  0  0  0  0  0  0  0  0  0  0  0
  -14.2587   -4.7390   -9.7725 C   0  0  0  0  0  0  0  0  0  0  0  0
 39 40  1  0  0  0
 40 33  1  0  0  0
 33 34  1  0  0  0
 33 38  1  0  0  0
 34 35  1  0  0  0
 35 36  1  0  0  0
 36 37  1  0  0  0
 37 31  1  0  0  0
 37 38  1  0  0  0
 31  1  1  0  0  0
 31 32  1  0  0  0
  1  2  1  0  0  0
  1  6  2  0  0  0
  2  3  2  0  0  0
  3  4  1  0  0  0
  4  5  2  0  0  0
  4 11  1  0  0  0
  5  6  1  0  0  0
  5  7  1  0  0  0
  7  8  2  0  0  0
  7  9  1  0  0  0
  8 25  1  0  0  0
  8 13  1  0  0  0
 25 26  1  0  0  0
 25 30  2  0  0  0
 26 27  2  0  0  0
 27 28  1  0  0  0
 28 29  2  0  0  0
 29 30  1  0  0  0
 13 14  2  0  0  0
 13 21  1  0  0  0
 14 15  1  0  0  0
 15 16  1  0  0  0
 15 20  2  0  0  0
 16 17  2  0  0  0
 17 23  1  0  0  0
 17 18  1  0  0  0
 23 24  1  0  0  0
 18 19  2  0  0  0
 19 20  1  0  0  0
 20 21  1  0  0  0
 21 22  1  0  0  0
  9 10  2  0  0  0
  9 11  1  0  0  0
 11 12  1  0  0  0
M  END
> <minimizedAffinity>
-6.31198

$$$$
