CHEMBL1688249


 30 34  0  0  0  0  0  0  0  0999 V2000
  -29.4803   -1.2992   -5.3495 C   0  0  0  0  0  0  0  0  0  0  0  0
  -28.6793   -0.4179   -6.0411 C   0  0  0  0  0  0  0  0  0  0  0  0
  -27.9830   -0.7481   -7.1521 N   0  0  0  0  0  0  0  0  0  0  0  0
  -28.0572   -2.0171   -7.6206 C   0  0  0  0  0  0  0  0  0  0  0  0
  -28.7937   -3.0001   -6.9310 C   0  0  0  0  0  0  0  0  0  0  0  0
  -29.5361   -2.6068   -5.8060 C   0  0  0  0  0  0  0  0  0  0  0  0
  -28.8475   -4.4066   -7.3082 C   0  0  0  0  0  0  0  0  0  0  0  0
  -27.9477   -5.0759   -7.9959 N   0  0  0  0  0  0  0  0  0  0  0  0
  -28.4298   -6.3418   -8.2155 N   0  0  0  0  0  0  0  0  0  0  0  0
  -29.6332   -6.4343   -7.6813 C   0  0  0  0  0  0  0  0  0  0  0  0
  -29.9154   -5.2342   -7.0872 N   0  0  0  0  0  0  0  0  0  0  0  0
  -30.7600   -4.9715   -6.5983 H   0  0  0  0  0  0  0  0  0  0  0  0
  -30.5053   -7.6077   -7.6983 C   0  0  0  0  0  0  0  0  0  0  0  0
  -31.7887   -7.6024   -7.1022 C   0  0  0  0  0  0  0  0  0  0  0  0
  -32.5877   -8.7524   -7.0947 C   0  0  0  0  0  0  0  0  0  0  0  0
  -32.0822   -9.8895   -7.6827 C   0  0  0  0  0  0  0  0  0  0  0  0
  -30.8458   -9.9052   -8.2799 C   0  0  0  0  0  0  0  0  0  0  0  0
  -30.0426   -8.7855   -8.3122 C   0  0  0  0  0  0  0  0  0  0  0  0
  -30.5354  -11.1236   -8.7970 O   0  0  0  0  0  0  0  0  0  0  0  0
  -31.6893  -11.8893   -8.3957 C   0  0  0  0  0  0  0  0  0  0  0  0
  -32.7025  -11.0948   -7.7438 O   0  0  0  0  0  0  0  0  0  0  0  0
  -27.3220   -2.3421   -8.7971 N   0  0  0  0  0  0  0  0  0  0  0  0
  -27.3830   -3.3479   -8.9426 H   0  0  0  0  0  0  0  0  0  0  0  0
  -27.9058   -1.6815   -9.9749 C   0  0  0  0  0  0  0  0  0  0  0  0
  -26.9184   -1.6602  -11.1173 C   0  0  0  0  0  0  0  0  0  0  0  0
  -27.3368   -1.8114  -12.4447 C   0  0  0  0  0  0  0  0  0  0  0  0
  -26.3940   -1.6961  -13.4558 C   0  0  0  0  0  0  0  0  0  0  0  0
  -25.0843   -1.4521  -13.2388 N   0  0  0  0  0  0  0  0  0  0  0  0
  -24.6992   -1.3143  -11.9528 C   0  0  0  0  0  0  0  0  0  0  0  0
  -25.5635   -1.4125  -10.8739 C   0  0  0  0  0  0  0  0  0  0  0  0
  1  2  1  0  0  0
  1  6  2  0  0  0
  2  3  2  0  0  0
  3  4  1  0  0  0
  4 22  1  0  0  0
  4  5  2  0  0  0
 22 24  1  0  0  0
 22 23  1  0  0  0
 24 25  1  0  0  0
 25 26  1  0  0  0
 25 30  2  0  0  0
 26 27  2  0  0  0
 27 28  1  0  0  0
 28 29  2  0  0  0
 29 30  1  0  0  0
  5  7  1  0  0  0
  5  6  1  0  0  0
  7  8  2  0  0  0
  7 11  1  0  0  0
  8  9  1  0  0  0
  9 10  2  0  0  0
 10 13  1  0  0  0
 10 11  1  0  0  0
 13 14  1  0  0  0
 13 18  2  0  0  0
 14 15  2  0  0  0
 15 16  1  0  0  0
 16 17  2  0  0  0
 16 21  1  0  0  0
 17 18  1  0  0  0
 17 19  1  0  0  0
 19 20  1  0  0  0
 20 21  1  0  0  0
 11 12  1  0  0  0
M  END
> <minimizedAffinity>
-9.32726

$$$$
