CHEMBL2403378


 28 31  0  0  0  0  0  0  0  0999 V2000
  -28.6254   -6.3210   -7.8353 C   0  0  0  0  0  0  0  0  0  0  0  0
  -29.6044   -7.1755   -7.5001 C   0  0  0  0  0  0  0  0  0  0  0  0
  -30.7083   -6.9424   -6.4904 C   0  0  0  0  0  0  0  0  0  0  0  0
  -30.8662   -6.0192   -5.7175 O   0  0  0  0  0  0  0  0  0  0  0  0
  -31.5194   -8.0637   -6.5861 N   0  0  0  0  0  0  0  0  0  0  0  0
  -31.0246   -8.9777   -7.5027 C   0  0  0  0  0  0  0  0  0  0  0  0
  -31.5843  -10.2010   -7.8166 C   0  0  0  0  0  0  0  0  0  0  0  0
  -30.9184  -10.9909   -8.7533 C   0  0  0  0  0  0  0  0  0  0  0  0
  -29.7167  -10.5336   -9.3446 C   0  0  0  0  0  0  0  0  0  0  0  0
  -29.1656   -9.2791   -9.0176 C   0  0  0  0  0  0  0  0  0  0  0  0
  -29.8409   -8.5044   -8.0863 C   0  0  0  0  0  0  0  0  0  0  0  0
  -32.3438   -8.1757   -6.0152 H   0  0  0  0  0  0  0  0  0  0  0  0
  -28.1550    1.4846   -4.3986 C   0  0  0  0  0  0  0  0  0  0  0  0
  -28.3672    0.7369   -5.6937 C   0  0  0  0  0  0  0  0  0  0  0  0
  -28.5822    1.3594   -6.7347 O   0  0  0  0  0  0  0  0  0  0  0  0
  -28.3118   -0.6580   -5.6443 N   0  0  0  0  0  0  0  0  0  0  0  0
  -28.2816   -1.3763   -4.3528 C   0  0  0  0  0  0  0  0  0  0  0  0
  -28.1954   -2.9172   -4.3268 C   0  0  0  0  0  0  0  0  0  0  0  0
  -28.3473   -3.5051   -5.6701 C   0  0  0  0  0  0  0  0  0  0  0  0
  -28.3364   -4.8439   -5.9557 N   0  0  0  0  0  0  0  0  0  0  0  0
  -28.5446   -5.0140   -7.3050 C   0  0  0  0  0  0  0  0  0  0  0  0
  -28.6587   -3.7583   -7.8724 C   0  0  0  0  0  0  0  0  0  0  0  0
  -28.5629   -2.8006   -6.8279 C   0  0  0  0  0  0  0  0  0  0  0  0
  -28.7197   -1.3266   -6.8902 C   0  0  0  0  0  0  0  0  0  0  0  0
  -28.2439   -5.5884   -5.2786 H   0  0  0  0  0  0  0  0  0  0  0  0
  -29.0306  -11.3965  -10.3174 N   0  0  0  0  0  0  0  0  0  0  0  0
  -28.5473  -12.4604   -9.9084 O   0  0  0  0  0  0  0  0  0  0  0  0
  -28.9745  -11.0035  -11.4900 O   0  0  0  0  0  0  0  0  0  0  0  0
 13 14  1  0  0  0
 14 15  2  0  0  0
 14 16  1  0  0  0
 16 17  1  0  0  0
 16 24  1  0  0  0
 17 18  1  0  0  0
 18 19  1  0  0  0
 19 20  1  0  0  0
 19 23  2  0  0  0
 20 21  1  0  0  0
 20 25  1  0  0  0
 21  1  1  0  0  0
 21 22  2  0  0  0
  1  2  2  0  0  0
  2  3  1  0  0  0
  2 11  1  0  0  0
  3  4  2  0  0  0
  3  5  1  0  0  0
  5  6  1  0  0  0
  5 12  1  0  0  0
  6  7  1  0  0  0
  6 11  2  0  0  0
  7  8  2  0  0  0
  8  9  1  0  0  0
  9 26  1  0  0  0
  9 10  2  0  0  0
 26 27  2  0  0  0
 26 28  1  0  0  0
 10 11  1  0  0  0
 22 23  1  0  0  0
 23 24  1  0  0  0
M  CHG 1  26   1
M  CHG 1  28  -1
M  END
> <minimizedAffinity>
-8.56229

$$$$
