CHEMBL4075561


 48 53  0  0  0  0  0  0  0  0999 V2000
  -29.4608   -5.1002   -5.8722 C   0  0  0  0  0  0  0  0  0  0  0  0
  -29.7120   -5.2167   -7.2358 C   0  0  0  0  0  0  0  0  0  0  0  0
  -29.3130   -4.2201   -8.1153 C   0  0  0  0  0  0  0  0  0  0  0  0
  -28.7131   -3.0410   -7.6681 C   0  0  0  0  0  0  0  0  0  0  0  0
  -28.6036   -2.8262   -6.2507 C   0  0  0  0  0  0  0  0  0  0  0  0
  -28.1503   -1.6151   -5.6601 C   0  0  0  0  0  0  0  0  0  0  0  0
  -28.0822   -1.4359   -4.2749 C   0  0  0  0  0  0  0  0  0  0  0  0
  -28.4458   -2.4643   -3.4160 C   0  0  0  0  0  0  0  0  0  0  0  0
  -28.8727   -3.6780   -3.9497 C   0  0  0  0  0  0  0  0  0  0  0  0
  -28.9769   -3.8791   -5.3471 C   0  0  0  0  0  0  0  0  0  0  0  0
  -28.1916   -2.0946   -8.6129 N   0  0  0  0  0  0  0  0  0  0  0  0
  -27.2599   -2.3339   -9.6288 C   0  0  0  0  0  0  0  0  0  0  0  0
  -26.8475   -3.4293   -9.9889 O   0  0  0  0  0  0  0  0  0  0  0  0
  -26.7859   -1.1411  -10.1698 N   0  0  0  0  0  0  0  0  0  0  0  0
  -28.5342   -1.1532   -8.5377 H   0  0  0  0  0  0  0  0  0  0  0  0
  -26.8314   -0.3531   -9.5417 H   0  0  0  0  0  0  0  0  0  0  0  0
  -25.7724   -1.0693  -11.1642 C   0  0  0  0  0  0  0  0  0  0  0  0
  -24.4746   -0.8108  -10.7367 C   0  0  0  0  0  0  0  0  0  0  0  0
  -23.4278   -0.7001  -11.6578 C   0  0  0  0  0  0  0  0  0  0  0  0
  -23.6364   -0.7839  -13.0509 C   0  0  0  0  0  0  0  0  0  0  0  0
  -24.9443   -1.0915  -13.4982 C   0  0  0  0  0  0  0  0  0  0  0  0
  -25.9959   -1.2288  -12.5370 C   0  0  0  0  0  0  0  0  0  0  0  0
  -25.3255   -1.3201  -14.9505 C   0  0  0  0  0  0  0  0  0  0  0  0
  -24.7935   -0.4425  -15.8430 F   0  0  0  0  0  0  0  0  0  0  0  0
  -24.9518   -2.5518  -15.3985 F   0  0  0  0  0  0  0  0  0  0  0  0
  -26.6732   -1.2471  -15.1469 F   0  0  0  0  0  0  0  0  0  0  0  0
  -22.4107   -0.5977  -13.9393 C   0  0  0  0  0  0  0  0  0  0  0  0
  -22.2707    0.6239  -14.7365 N   0  0  0  0  0  0  0  0  0  0  0  0
  -20.9499    0.9466  -15.2835 C   0  0  0  0  0  0  0  0  0  0  0  0
  -20.0871    1.8262  -14.3627 C   0  0  0  0  0  0  0  0  0  0  0  0
  -20.7810    3.0109  -13.9521 O   0  0  0  0  0  0  0  0  0  0  0  0
  -22.0336    2.6965  -13.3285 C   0  0  0  0  0  0  0  0  0  0  0  0
  -22.9215    1.8396  -14.2408 C   0  0  0  0  0  0  0  0  0  0  0  0
  -29.7378   -6.1699   -5.0283 O   0  0  0  0  0  0  0  0  0  0  0  0
  -29.8247  -10.9109   -6.8987 C   0  0  0  0  0  0  0  0  0  0  0  0
  -28.5711  -10.6404   -6.3279 C   0  0  0  0  0  0  0  0  0  0  0  0
  -28.2700   -9.4305   -5.7280 C   0  0  0  0  0  0  0  0  0  0  0  0
  -27.0822   -9.3162   -5.1277 N   0  0  0  0  0  0  0  0  0  0  0  0
  -26.8476   -8.1789   -4.4696 C   0  0  0  0  0  0  0  0  0  0  0  0
  -27.6858   -7.1486   -4.3733 N   0  0  0  0  0  0  0  0  0  0  0  0
  -28.8469   -7.2551   -5.0541 C   0  0  0  0  0  0  0  0  0  0  0  0
  -29.2227   -8.4097   -5.7514 C   0  0  0  0  0  0  0  0  0  0  0  0
  -30.4433   -8.6243   -6.4338 C   0  0  0  0  0  0  0  0  0  0  0  0
  -30.7630   -9.8755   -6.9860 C   0  0  0  0  0  0  0  0  0  0  0  0
  -29.5982  -12.4205   -8.6990 C   0  0  0  0  0  0  0  0  0  0  0  0
  -30.1160  -12.1593   -7.3898 O   0  0  0  0  0  0  0  0  0  0  0  0
  -32.0139   -9.8900   -7.5376 O   0  0  0  0  0  0  0  0  0  0  0  0
  -32.8736   -8.7782   -7.3406 C   0  0  0  0  0  0  0  0  0  0  0  0
 45 46  1  0  0  0
 46 35  1  0  0  0
 35 36  1  0  0  0
 35 44  2  0  0  0
 36 37  2  0  0  0
 37 38  1  0  0  0
 37 42  1  0  0  0
 38 39  2  0  0  0
 39 40  1  0  0  0
 40 41  2  0  0  0
 41 34  1  0  0  0
 41 42  1  0  0  0
 34  1  1  0  0  0
  1  2  1  0  0  0
  1 10  2  0  0  0
  2  3  2  0  0  0
  3  4  1  0  0  0
  4 11  1  0  0  0
  4  5  2  0  0  0
 11 12  1  0  0  0
 11 15  1  0  0  0
 12 13  2  0  0  0
 12 14  1  0  0  0
 14 17  1  0  0  0
 14 16  1  0  0  0
 17 18  1  0  0  0
 17 22  2  0  0  0
 18 19  2  0  0  0
 19 20  1  0  0  0
 20 27  1  0  0  0
 20 21  2  0  0  0
 27 28  1  0  0  0
 28 29  1  0  0  0
 28 33  1  0  0  0
 29 30  1  0  0  0
 30 31  1  0  0  0
 31 32  1  0  0  0
 32 33  1  0  0  0
 21 23  1  0  0  0
 21 22  1  0  0  0
 23 24  1  0  0  0
 23 25  1  0  0  0
 23 26  1  0  0  0
  5  6  1  0  0  0
  5 10  1  0  0  0
  6  7  2  0  0  0
  7  8  1  0  0  0
  8  9  2  0  0  0
  9 10  1  0  0  0
 42 43  2  0  0  0
 43 44  1  0  0  0
 44 47  1  0  0  0
 47 48  1  0  0  0
M  END
> <minimizedAffinity>
-8.77475

$$$$
