CHEMBL428961


 33 37  0  0  0  0  0  0  0  0999 V2000
  -30.3852   -7.5245   -7.1628 C   0  0  0  0  0  0  0  0  0  0  0  0
  -29.7274   -6.4704   -7.7822 C   0  0  0  0  0  0  0  0  0  0  0  0
  -29.5371   -5.2798   -7.0715 C   0  0  0  0  0  0  0  0  0  0  0  0
  -30.1500   -5.0311   -5.8141 C   0  0  0  0  0  0  0  0  0  0  0  0
  -29.9522   -3.8824   -4.9893 C   0  0  0  0  0  0  0  0  0  0  0  0
  -30.6503   -3.7486   -3.7735 C   0  0  0  0  0  0  0  0  0  0  0  0
  -31.5281   -4.7351   -3.3443 C   0  0  0  0  0  0  0  0  0  0  0  0
  -31.6886   -5.8881   -4.1037 C   0  0  0  0  0  0  0  0  0  0  0  0
  -30.9960   -6.0606   -5.3145 C   0  0  0  0  0  0  0  0  0  0  0  0
  -31.0901   -7.2922   -5.9828 C   0  0  0  0  0  0  0  0  0  0  0  0
  -28.9741   -2.7869   -5.2669 C   0  0  0  0  0  0  0  0  0  0  0  0
  -27.7887   -2.9653   -4.9959 O   0  0  0  0  0  0  0  0  0  0  0  0
  -29.4693   -1.6016   -5.7742 N   0  0  0  0  0  0  0  0  0  0  0  0
  -30.4695   -1.4513   -5.7360 H   0  0  0  0  0  0  0  0  0  0  0  0
  -28.6417   -0.4431   -5.9986 C   0  0  0  0  0  0  0  0  0  0  0  0
  -27.6527   -0.6198   -7.1209 C   0  0  0  0  0  0  0  0  0  0  0  0
  -28.1877    0.3714   -4.8039 C   0  0  0  0  0  0  0  0  0  0  0  0
  -29.2003    0.9426   -5.7468 C   0  0  0  0  0  0  0  0  0  0  0  0
  -30.3264   -8.8317   -7.5859 O   0  0  0  0  0  0  0  0  0  0  0  0
  -25.5478  -10.1154   -5.9111 C   0  0  0  0  0  0  0  0  0  0  0  0
  -25.6712  -10.3592   -7.2888 C   0  0  0  0  0  0  0  0  0  0  0  0
  -26.8575  -10.1573   -7.9828 C   0  0  0  0  0  0  0  0  0  0  0  0
  -26.8272  -10.2694   -9.3209 N   0  0  0  0  0  0  0  0  0  0  0  0
  -27.9383   -9.9562  -10.0153 C   0  0  0  0  0  0  0  0  0  0  0  0
  -29.0966   -9.4943   -9.4308 C   0  0  0  0  0  0  0  0  0  0  0  0
  -29.1358   -9.3809   -8.0424 C   0  0  0  0  0  0  0  0  0  0  0  0
  -28.0117   -9.7929   -7.2697 C   0  0  0  0  0  0  0  0  0  0  0  0
  -27.9270   -9.8255   -5.8573 C   0  0  0  0  0  0  0  0  0  0  0  0
  -26.7054   -9.8697   -5.1782 C   0  0  0  0  0  0  0  0  0  0  0  0
  -23.1977   -9.8242   -6.0663 C   0  0  0  0  0  0  0  0  0  0  0  0
  -24.3390  -10.1424   -5.2692 O   0  0  0  0  0  0  0  0  0  0  0  0
  -26.8583   -9.6099   -3.8457 O   0  0  0  0  0  0  0  0  0  0  0  0
  -28.1131   -9.1660   -3.3554 C   0  0  0  0  0  0  0  0  0  0  0  0
 30 31  1  0  0  0
 31 20  1  0  0  0
 20 21  1  0  0  0
 20 29  2  0  0  0
 21 22  2  0  0  0
 22 23  1  0  0  0
 22 27  1  0  0  0
 23 24  2  0  0  0
 24 25  1  0  0  0
 25 26  2  0  0  0
 26 19  1  0  0  0
 26 27  1  0  0  0
 19  1  1  0  0  0
  1  2  1  0  0  0
  1 10  2  0  0  0
  2  3  2  0  0  0
  3  4  1  0  0  0
  4  5  1  0  0  0
  4  9  2  0  0  0
  5 11  1  0  0  0
  5  6  2  0  0  0
 11 12  2  0  0  0
 11 13  1  0  0  0
 13 15  1  0  0  0
 13 14  1  0  0  0
 15 16  1  0  0  0
 15 17  1  0  0  0
 15 18  1  0  0  0
 17 18  1  0  0  0
  6  7  1  0  0  0
  7  8  2  0  0  0
  8  9  1  0  0  0
  9 10  1  0  0  0
 27 28  2  0  0  0
 28 29  1  0  0  0
 29 32  1  0  0  0
 32 33  1  0  0  0
M  END
> <minimizedAffinity>
-9.05373

$$$$
