CHEMBL3690566


 39 43  0  0  0  0  0  0  0  0999 V2000
  -14.2934   -4.7121  -11.2800 C   0  0  0  0  0  0  0  0  0  0  0  0
  -14.9714   -4.3807  -10.1151 C   0  0  0  0  0  0  0  0  0  0  0  0
  -15.5765   -3.1572  -10.1959 N   0  0  0  0  0  0  0  0  0  0  0  0
  -15.3039   -2.7217  -11.4045 C   0  0  0  0  0  0  0  0  0  0  0  0
  -15.6753   -1.5080  -12.0517 C   0  0  0  0  0  0  0  0  0  0  0  0
  -15.3115   -1.2542  -13.3320 C   0  0  0  0  0  0  0  0  0  0  0  0
  -14.5092   -2.2586  -14.0469 C   0  0  0  0  0  0  0  0  0  0  0  0
  -14.1798   -3.4130  -13.4535 C   0  0  0  0  0  0  0  0  0  0  0  0
  -14.5499   -3.6411  -12.1279 N   0  0  0  0  0  0  0  0  0  0  0  0
  -13.0703   -7.9119  -12.9326 C   0  0  0  0  0  0  0  0  0  0  0  0
  -11.9337   -8.1675  -12.1781 C   0  0  0  0  0  0  0  0  0  0  0  0
  -11.5781   -7.3119  -11.1351 C   0  0  0  0  0  0  0  0  0  0  0  0
  -12.3643   -6.2043  -10.8272 C   0  0  0  0  0  0  0  0  0  0  0  0
  -13.5020   -5.9094  -11.5847 C   0  0  0  0  0  0  0  0  0  0  0  0
  -13.8243   -6.7623  -12.6553 C   0  0  0  0  0  0  0  0  0  0  0  0
  -12.1144   -8.1889  -15.7349 O   0  0  0  0  0  0  0  0  0  0  0  0
  -13.0490   -8.8227  -15.2581 C   0  0  0  0  0  0  0  0  0  0  0  0
  -13.7357   -9.7674  -15.9972 N   0  0  0  0  0  0  0  0  0  0  0  0
  -13.5424   -8.7449  -13.9737 N   0  0  0  0  0  0  0  0  0  0  0  0
  -14.7045   -9.9046  -15.7393 H   0  0  0  0  0  0  0  0  0  0  0  0
  -14.2732   -9.3927  -13.7392 H   0  0  0  0  0  0  0  0  0  0  0  0
  -13.4426   -9.8696  -17.4315 C   0  0  0  0  0  0  0  0  0  0  0  0
  -13.9652  -11.1456  -18.1057 C   0  0  0  0  0  0  0  0  0  0  0  0
  -14.9217  -11.7497  -17.3630 F   0  0  0  0  0  0  0  0  0  0  0  0
  -14.4692  -10.9138  -19.3340 F   0  0  0  0  0  0  0  0  0  0  0  0
  -12.9557  -12.0411  -18.2411 F   0  0  0  0  0  0  0  0  0  0  0  0
  -15.6893   -0.0542  -14.0127 C   0  0  0  0  0  0  0  0  0  0  0  0
  -16.9541    0.5703  -14.1023 C   0  0  0  0  0  0  0  0  0  0  0  0
  -16.9058    1.7124  -14.7888 N   0  0  0  0  0  0  0  0  0  0  0  0
  -15.6127    1.8230  -15.1537 N   0  0  0  0  0  0  0  0  0  0  0  0
  -14.8558    0.7583  -14.7453 C   0  0  0  0  0  0  0  0  0  0  0  0
  -15.1590    2.9901  -15.8575 C   0  0  0  0  0  0  0  0  0  0  0  0
  -16.3055    3.8673  -16.3985 C   0  0  0  0  0  0  0  0  0  0  0  0
  -15.5966    3.9850  -17.7008 N   0  0  0  0  0  0  0  0  0  0  0  0
  -14.8257    2.7659  -17.3530 C   0  0  0  0  0  0  0  0  0  0  0  0
  -14.7179    5.1777  -17.7048 C   0  0  0  0  0  0  0  0  0  0  0  0
  -14.5732    5.7423  -19.1257 C   0  0  0  0  0  0  0  0  0  0  0  0
  -15.6330    5.2884  -19.9622 O   0  0  0  0  0  0  0  0  0  0  0  0
  -15.6737    4.3220  -19.8257 H   0  0  0  0  0  0  0  0  0  0  0  0
 16 17  2  0  0  0
 17 18  1  0  0  0
 17 19  1  0  0  0
 18 22  1  0  0  0
 18 20  1  0  0  0
 22 23  1  0  0  0
 23 24  1  0  0  0
 23 25  1  0  0  0
 23 26  1  0  0  0
 19 10  1  0  0  0
 19 21  1  0  0  0
 10 11  1  0  0  0
 10 15  2  0  0  0
 11 12  2  0  0  0
 12 13  1  0  0  0
 13 14  2  0  0  0
 14  1  1  0  0  0
 14 15  1  0  0  0
  1  2  2  0  0  0
  1  9  1  0  0  0
  2  3  1  0  0  0
  3  4  2  0  0  0
  4  5  1  0  0  0
  4  9  1  0  0  0
  5  6  2  0  0  0
  6 27  1  0  0  0
  6  7  1  0  0  0
 27 28  1  0  0  0
 27 31  2  0  0  0
 28 29  2  0  0  0
 29 30  1  0  0  0
 30 32  1  0  0  0
 30 31  1  0  0  0
 32 33  1  0  0  0
 32 35  1  0  0  0
 33 34  1  0  0  0
 34 36  1  0  0  0
 34 35  1  0  0  0
 36 37  1  0  0  0
 37 38  1  0  0  0
 38 39  1  0  0  0
  7  8  2  0  0  0
  8  9  1  0  0  0
M  END
> <minimizedAffinity>
-7.58258

$$$$
