CHEMBL4165455


 42 47  0  0  0  0  0  0  0  0999 V2000
  -13.4583   -5.5533  -17.3916 C   0  0  0  0  0  0  0  0  0  0  0  0
  -14.1744   -5.4906  -16.1750 C   0  0  0  0  0  0  0  0  0  0  0  0
  -13.9879   -4.4244  -15.2772 C   0  0  0  0  0  0  0  0  0  0  0  0
  -13.0733   -3.4369  -15.6011 C   0  0  0  0  0  0  0  0  0  0  0  0
  -12.3860   -3.5091  -16.8203 C   0  0  0  0  0  0  0  0  0  0  0  0
  -12.5633   -4.5317  -17.7295 C   0  0  0  0  0  0  0  0  0  0  0  0
  -11.5051   -2.4425  -16.9602 N   0  0  0  0  0  0  0  0  0  0  0  0
  -11.5471   -1.6133  -15.8568 C   0  0  0  0  0  0  0  0  0  0  0  0
  -10.8195   -0.6666  -15.6177 O   0  0  0  0  0  0  0  0  0  0  0  0
  -12.6202   -2.1872  -14.9677 C   0  0  0  0  0  0  0  0  0  0  0  0
  -13.0135   -1.5170  -13.8645 C   0  0  0  0  0  0  0  0  0  0  0  0
  -10.8581   -2.3061  -17.7217 H   0  0  0  0  0  0  0  0  0  0  0  0
  -13.8541   -2.1727  -12.8384 C   0  0  0  0  0  0  0  0  0  0  0  0
  -13.2376   -3.0794  -11.9596 C   0  0  0  0  0  0  0  0  0  0  0  0
  -13.9687   -3.6968  -10.9449 C   0  0  0  0  0  0  0  0  0  0  0  0
  -15.3242   -3.4135  -10.7994 C   0  0  0  0  0  0  0  0  0  0  0  0
  -15.9465   -2.5135  -11.6659 C   0  0  0  0  0  0  0  0  0  0  0  0
  -15.2149   -1.8910  -12.6822 C   0  0  0  0  0  0  0  0  0  0  0  0
  -13.5717   -6.6966  -18.3373 C   0  0  0  0  0  0  0  0  0  0  0  0
  -13.1078   -6.6764  -19.4664 O   0  0  0  0  0  0  0  0  0  0  0  0
  -13.7061   -9.0185  -18.1748 C   0  0  0  0  0  0  0  0  0  0  0  0
  -14.2084   -7.7442  -17.7599 O   0  0  0  0  0  0  0  0  0  0  0  0
  -12.6087   -0.2223  -13.5088 N   0  0  0  0  0  0  0  0  0  0  0  0
  -11.5879   -0.1368  -13.6149 H   0  0  0  0  0  0  0  0  0  0  0  0
  -13.1574    0.9068  -14.2074 C   0  0  0  0  0  0  0  0  0  0  0  0
  -12.2626    1.9033  -14.6407 C   0  0  0  0  0  0  0  0  0  0  0  0
  -12.7246    3.0530  -15.2796 C   0  0  0  0  0  0  0  0  0  0  0  0
  -14.0841    3.1854  -15.5022 C   0  0  0  0  0  0  0  0  0  0  0  0
  -14.9798    2.1672  -15.1683 C   0  0  0  0  0  0  0  0  0  0  0  0
  -14.5240    1.0135  -14.5445 C   0  0  0  0  0  0  0  0  0  0  0  0
  -16.2915    2.5434  -15.5304 N   0  0  0  0  0  0  0  0  0  0  0  0
  -17.4317    1.7609  -15.4238 C   0  0  0  0  0  0  0  0  0  0  0  0
  -17.4377    0.5736  -15.0876 O   0  0  0  0  0  0  0  0  0  0  0  0
  -16.2571    3.9410  -15.9929 C   0  0  0  0  0  0  0  0  0  0  0  0
  -14.7889    4.3514  -16.1209 C   0  0  0  0  0  0  0  0  0  0  0  0
  -18.7550    2.4323  -15.8350 C   0  0  0  0  0  0  0  0  0  0  0  0
  -19.9151    1.8222  -15.1974 N   0  0  0  0  0  0  0  0  0  0  0  0
  -20.1342    0.3971  -15.2082 C   0  0  0  0  0  0  0  0  0  0  0  0
  -21.5102    0.2506  -14.5855 C   0  0  0  0  0  0  0  0  0  0  0  0
  -21.6057    1.4309  -13.6265 C   0  0  0  0  0  0  0  0  0  0  0  0
  -20.7268    2.4698  -14.2793 C   0  0  0  0  0  0  0  0  0  0  0  0
  -20.7023    3.6573  -14.0008 O   0  0  0  0  0  0  0  0  0  0  0  0
 21 22  1  0  0  0
 22 19  1  0  0  0
 19 20  2  0  0  0
 19  1  1  0  0  0
  1  2  1  0  0  0
  1  6  2  0  0  0
  2  3  2  0  0  0
  3  4  1  0  0  0
  4  5  2  0  0  0
  4 10  1  0  0  0
  5  6  1  0  0  0
  5  7  1  0  0  0
  7  8  1  0  0  0
  7 12  1  0  0  0
  8  9  2  0  0  0
  8 10  1  0  0  0
 10 11  2  0  0  0
 11 23  1  0  0  0
 11 13  1  0  0  0
 23 25  1  0  0  0
 23 24  1  0  0  0
 25 26  1  0  0  0
 25 30  2  0  0  0
 26 27  2  0  0  0
 27 28  1  0  0  0
 28 29  2  0  0  0
 28 35  1  0  0  0
 29 30  1  0  0  0
 29 31  1  0  0  0
 31 32  1  0  0  0
 31 34  1  0  0  0
 32 33  2  0  0  0
 32 36  1  0  0  0
 36 37  1  0  0  0
 37 38  1  0  0  0
 37 41  1  0  0  0
 38 39  1  0  0  0
 39 40  1  0  0  0
 40 41  1  0  0  0
 41 42  2  0  0  0
 34 35  1  0  0  0
 13 14  1  0  0  0
 13 18  2  0  0  0
 14 15  2  0  0  0
 15 16  1  0  0  0
 16 17  2  0  0  0
 17 18  1  0  0  0
M  END
> <minimizedAffinity>
-8.16448

$$$$
