CHEMBL2385590


 28 32  0  0  0  0  0  0  0  0999 V2000
  -22.0799    1.3992  -13.9452 C   0  0  0  0  0  0  0  0  0  0  0  0
  -22.4990    2.7422  -13.8962 C   0  0  0  0  0  0  0  0  0  0  0  0
  -21.5723    3.6022  -14.3248 N   0  0  0  0  0  0  0  0  0  0  0  0
  -20.5206    2.8171  -14.6570 N   0  0  0  0  0  0  0  0  0  0  0  0
  -19.2896    3.2373  -15.1464 C   0  0  0  0  0  0  0  0  0  0  0  0
  -18.3273    2.3547  -15.4454 C   0  0  0  0  0  0  0  0  0  0  0  0
  -18.7113    0.9264  -15.2124 C   0  0  0  0  0  0  0  0  0  0  0  0
  -19.8501    0.4963  -14.7462 N   0  0  0  0  0  0  0  0  0  0  0  0
  -20.7886    1.4551  -14.4564 C   0  0  0  0  0  0  0  0  0  0  0  0
  -24.2743   -1.9996  -12.6293 C   0  0  0  0  0  0  0  0  0  0  0  0
  -23.2557   -1.4811  -11.8313 C   0  0  0  0  0  0  0  0  0  0  0  0
  -22.5081   -0.3899  -12.2734 C   0  0  0  0  0  0  0  0  0  0  0  0
  -22.7805    0.2029  -13.5103 C   0  0  0  0  0  0  0  0  0  0  0  0
  -23.7789   -0.3549  -14.3254 C   0  0  0  0  0  0  0  0  0  0  0  0
  -24.5293   -1.4448  -13.8812 C   0  0  0  0  0  0  0  0  0  0  0  0
  -17.0185    2.7505  -15.9726 C   0  0  0  0  0  0  0  0  0  0  0  0
  -16.0507    1.7951  -16.2948 C   0  0  0  0  0  0  0  0  0  0  0  0
  -14.8112    2.1872  -16.8280 C   0  0  0  0  0  0  0  0  0  0  0  0
  -14.4926    3.5353  -17.0313 C   0  0  0  0  0  0  0  0  0  0  0  0
  -15.4710    4.4771  -16.6824 C   0  0  0  0  0  0  0  0  0  0  0  0
  -16.7171    4.0985  -16.1622 C   0  0  0  0  0  0  0  0  0  0  0  0
  -13.2842    3.9477  -17.5543 N   0  0  0  0  0  0  0  0  0  0  0  0
  -12.3347    4.7871  -16.8141 C   0  0  0  0  0  0  0  0  0  0  0  0
  -12.0639    6.1157  -17.5524 C   0  0  0  0  0  0  0  0  0  0  0  0
  -11.6896    5.9450  -18.9734 N   0  0  0  0  0  0  0  0  0  0  0  0
  -12.7474    5.1630  -19.6471 C   0  0  0  0  0  0  0  0  0  0  0  0
  -13.0181    3.7892  -18.9920 C   0  0  0  0  0  0  0  0  0  0  0  0
  -10.8279    5.4001  -19.0086 H   0  0  0  0  0  0  0  0  0  0  0  0
 10 11  1  0  0  0
 10 15  2  0  0  0
 11 12  2  0  0  0
 12 13  1  0  0  0
 13  1  1  0  0  0
 13 14  2  0  0  0
  1  2  1  0  0  0
  1  9  2  0  0  0
  2  3  2  0  0  0
  3  4  1  0  0  0
  4  5  1  0  0  0
  4  9  1  0  0  0
  5  6  2  0  0  0
  6 16  1  0  0  0
  6  7  1  0  0  0
 16 17  1  0  0  0
 16 21  2  0  0  0
 17 18  2  0  0  0
 18 19  1  0  0  0
 19 22  1  0  0  0
 19 20  2  0  0  0
 22 23  1  0  0  0
 22 27  1  0  0  0
 23 24  1  0  0  0
 24 25  1  0  0  0
 25 26  1  0  0  0
 25 28  1  0  0  0
 26 27  1  0  0  0
 20 21  1  0  0  0
  7  8  2  0  0  0
  8  9  1  0  0  0
 14 15  1  0  0  0
M  END
> <minimizedAffinity>
-10.14217

$$$$
