CHEMBL3915450


 38 42  0  0  0  0  0  0  0  0999 V2000
  -12.6642   -4.0730  -13.5692 N   0  0  0  0  0  0  0  0  0  0  0  0
  -12.5471   -5.1553  -14.5025 C   0  0  0  0  0  0  0  0  0  0  0  0
  -12.5199   -4.8180  -15.8403 C   0  0  0  0  0  0  0  0  0  0  0  0
  -12.6991   -5.8700  -16.7194 C   0  0  0  0  0  0  0  0  0  0  0  0
  -13.0628   -7.0934  -16.3644 C   0  0  0  0  0  0  0  0  0  0  0  0
  -14.1018   -7.3722  -17.0639 N   0  0  0  0  0  0  0  0  0  0  0  0
  -13.7903   -8.2478  -17.9885 C   0  0  0  0  0  0  0  0  0  0  0  0
  -13.3017   -9.4556  -17.6626 C   0  0  0  0  0  0  0  0  0  0  0  0
  -12.7753   -9.3651  -16.2437 N   0  0  0  0  0  0  0  0  0  0  0  0
  -12.6934   -7.9300  -15.3696 C   0  0  0  0  0  0  0  0  0  0  0  0
  -12.5310   -6.6373  -14.2426 C   0  0  0  0  0  0  0  0  0  0  0  0
  -13.6314  -10.4444  -18.9859 C   0  0  0  0  0  0  0  0  0  0  0  0
  -14.1018  -11.8017  -19.2236 C   0  0  0  0  0  0  0  0  0  0  0  0
  -13.9332  -12.3011  -20.4768 N   0  0  0  0  0  0  0  0  0  0  0  0
  -13.3245  -11.3250  -21.1668 N   0  0  0  0  0  0  0  0  0  0  0  0
  -13.1291  -11.4672  -22.6264 C   0  0  0  0  0  0  0  0  0  0  0  0
  -13.0247  -10.2611  -20.2911 C   0  0  0  0  0  0  0  0  0  0  0  0
  -13.3128   -3.5543   -9.8751 C   0  0  0  0  0  0  0  0  0  0  0  0
  -14.6641   -3.8639   -9.8013 C   0  0  0  0  0  0  0  0  0  0  0  0
  -15.3412   -4.2747  -10.9373 C   0  0  0  0  0  0  0  0  0  0  0  0
  -14.6686   -4.3132  -12.1602 C   0  0  0  0  0  0  0  0  0  0  0  0
  -13.2908   -4.0439  -12.2833 C   0  0  0  0  0  0  0  0  0  0  0  0
  -12.6147   -3.7376  -11.0901 C   0  0  0  0  0  0  0  0  0  0  0  0
  -11.2199   -3.4505   -8.7189 C   0  0  0  0  0  0  0  0  0  0  0  0
  -12.5907   -3.0542   -8.8191 O   0  0  0  0  0  0  0  0  0  0  0  0
  -16.6501   -4.6762  -10.9659 O   0  0  0  0  0  0  0  0  0  0  0  0
  -17.0146   -5.4569  -12.1005 C   0  0  0  0  0  0  0  0  0  0  0  0
  -11.8981   -2.7777  -13.8841 C   0  0  0  0  0  0  0  0  0  0  0  0
  -12.7857   -1.7082  -14.4588 C   0  0  0  0  0  0  0  0  0  0  0  0
  -13.6616   -0.9174  -13.8174 C   0  0  0  0  0  0  0  0  0  0  0  0
  -14.6145   -0.0845  -14.5506 C   0  0  0  0  0  0  0  0  0  0  0  0
  -14.2571    0.3352  -15.7708 N   0  0  0  0  0  0  0  0  0  0  0  0
  -15.1503    1.1228  -16.3998 C   0  0  0  0  0  0  0  0  0  0  0  0
  -16.3638    1.4909  -15.8637 C   0  0  0  0  0  0  0  0  0  0  0  0
  -16.6165    1.0161  -14.5999 C   0  0  0  0  0  0  0  0  0  0  0  0
  -15.7605    0.2397  -13.9244 N   0  0  0  0  0  0  0  0  0  0  0  0
  -17.8244    1.3537  -14.0183 O   0  0  0  0  0  0  0  0  0  0  0  0
  -18.9119    1.3625  -14.9462 C   0  0  0  0  0  0  0  0  0  0  0  0
 24 25  1  0  0  0
 25 18  1  0  0  0
 18 19  1  0  0  0
 18 23  2  0  0  0
 19 20  2  0  0  0
 20 26  1  0  0  0
 20 21  1  0  0  0
 26 27  1  0  0  0
 21 22  2  0  0  0
 22  1  1  0  0  0
 22 23  1  0  0  0
  1 28  1  0  0  0
  1  2  1  0  0  0
 28 29  1  0  0  0
 29 30  2  0  0  0
 30 31  1  0  0  0
 31 32  1  0  0  0
 31 36  2  0  0  0
 32 33  2  0  0  0
 33 34  1  0  0  0
 34 35  2  0  0  0
 35 37  1  0  0  0
 35 36  1  0  0  0
 37 38  1  0  0  0
  2  3  1  0  0  0
  2 11  2  0  0  0
  3  4  2  0  0  0
  4  5  1  0  0  0
  5  6  1  0  0  0
  5 10  2  0  0  0
  6  7  2  0  0  0
  7  8  1  0  0  0
  8 12  1  0  0  0
  8  9  2  0  0  0
 12 13  1  0  0  0
 12 17  2  0  0  0
 13 14  2  0  0  0
 14 15  1  0  0  0
 15 16  1  0  0  0
 15 17  1  0  0  0
  9 10  1  0  0  0
 10 11  1  0  0  0
M  END
> <minimizedAffinity>
-7.13007

$$$$
