CHEMBL248891


 33 38  0  0  0  0  0  0  0  0999 V2000
  -27.7604   -2.0468   -8.1623 C   0  0  0  0  0  0  0  0  0  0  0  0
  -27.5523   -1.0552   -7.2807 N   0  0  0  0  0  0  0  0  0  0  0  0
  -28.0935   -1.5554   -6.1445 N   0  0  0  0  0  0  0  0  0  0  0  0
  -28.5819   -2.8146   -6.2679 C   0  0  0  0  0  0  0  0  0  0  0  0
  -29.0965   -3.5578   -5.2820 N   0  0  0  0  0  0  0  0  0  0  0  0
  -29.4514   -4.7984   -5.7175 C   0  0  0  0  0  0  0  0  0  0  0  0
  -29.4251   -5.2947   -7.0302 C   0  0  0  0  0  0  0  0  0  0  0  0
  -28.8633   -4.4414   -7.9957 C   0  0  0  0  0  0  0  0  0  0  0  0
  -28.4102   -3.1665   -7.5913 C   0  0  0  0  0  0  0  0  0  0  0  0
  -28.0739   -0.9942   -5.2986 H   0  0  0  0  0  0  0  0  0  0  0  0
  -25.0925   -1.5397  -12.2795 C   0  0  0  0  0  0  0  0  0  0  0  0
  -25.4434   -1.5756  -13.6459 C   0  0  0  0  0  0  0  0  0  0  0  0
  -26.7672   -1.7628  -14.0619 C   0  0  0  0  0  0  0  0  0  0  0  0
  -27.8019   -1.9398  -13.1393 C   0  0  0  0  0  0  0  0  0  0  0  0
  -27.4419   -1.9069  -11.7935 C   0  0  0  0  0  0  0  0  0  0  0  0
  -28.1671   -2.0631  -10.6424 N   0  0  0  0  0  0  0  0  0  0  0  0
  -27.3160   -1.9359   -9.5778 C   0  0  0  0  0  0  0  0  0  0  0  0
  -26.0823   -1.7080   -9.9770 N   0  0  0  0  0  0  0  0  0  0  0  0
  -26.1382   -1.7010  -11.3514 C   0  0  0  0  0  0  0  0  0  0  0  0
  -29.1569   -2.2432  -10.5568 H   0  0  0  0  0  0  0  0  0  0  0  0
  -23.6607   -1.3971  -11.8439 C   0  0  0  0  0  0  0  0  0  0  0  0
  -22.3624    0.1197  -13.0792 C   0  0  0  0  0  0  0  0  0  0  0  0
  -22.8073   -1.2279  -12.9758 O   0  0  0  0  0  0  0  0  0  0  0  0
  -29.9301   -6.6506   -7.3833 C   0  0  0  0  0  0  0  0  0  0  0  0
  -31.2197   -7.0395   -6.9812 C   0  0  0  0  0  0  0  0  0  0  0  0
  -31.8089   -8.2241   -7.2579 N   0  0  0  0  0  0  0  0  0  0  0  0
  -31.0895   -9.0853   -8.0010 C   0  0  0  0  0  0  0  0  0  0  0  0
  -29.8036   -8.8435   -8.4754 C   0  0  0  0  0  0  0  0  0  0  0  0
  -29.1289   -9.7962   -9.2640 C   0  0  0  0  0  0  0  0  0  0  0  0
  -27.8451   -9.5534   -9.7467 C   0  0  0  0  0  0  0  0  0  0  0  0
  -27.2039   -8.3770   -9.4132 C   0  0  0  0  0  0  0  0  0  0  0  0
  -27.8468   -7.4514   -8.5928 C   0  0  0  0  0  0  0  0  0  0  0  0
  -29.1860   -7.6125   -8.1419 C   0  0  0  0  0  0  0  0  0  0  0  0
 22 23  1  0  0  0
 23 21  1  0  0  0
 21 11  1  0  0  0
 11 12  1  0  0  0
 11 19  2  0  0  0
 12 13  2  0  0  0
 13 14  1  0  0  0
 14 15  2  0  0  0
 15 16  1  0  0  0
 15 19  1  0  0  0
 16 17  1  0  0  0
 16 20  1  0  0  0
 17  1  1  0  0  0
 17 18  2  0  0  0
  1  2  2  0  0  0
  1  9  1  0  0  0
  2  3  1  0  0  0
  3  4  1  0  0  0
  3 10  1  0  0  0
  4  5  1  0  0  0
  4  9  2  0  0  0
  5  6  2  0  0  0
  6  7  1  0  0  0
  7 24  1  0  0  0
  7  8  2  0  0  0
 24 25  1  0  0  0
 24 33  2  0  0  0
 25 26  2  0  0  0
 26 27  1  0  0  0
 27 28  2  0  0  0
 28 29  1  0  0  0
 28 33  1  0  0  0
 29 30  2  0  0  0
 30 31  1  0  0  0
 31 32  2  0  0  0
 32 33  1  0  0  0
  8  9  1  0  0  0
 18 19  1  0  0  0
M  END
> <minimizedAffinity>
-10.90108

$$$$
