CHEMBL1242209


 26 29  0  0  0  0  0  0  0  0999 V2000
  -29.5621   -7.8565   -7.4266 C   0  0  0  0  0  0  0  0  0  0  0  0
  -28.3869   -8.2203   -7.9723 N   0  0  0  0  0  0  0  0  0  0  0  0
  -28.6145   -9.4540   -8.4776 N   0  0  0  0  0  0  0  0  0  0  0  0
  -29.9095   -9.8706   -8.3195 C   0  0  0  0  0  0  0  0  0  0  0  0
  -30.4432  -11.0385   -8.7289 N   0  0  0  0  0  0  0  0  0  0  0  0
  -31.7437  -11.1222   -8.4074 C   0  0  0  0  0  0  0  0  0  0  0  0
  -32.5035  -10.2104   -7.7730 N   0  0  0  0  0  0  0  0  0  0  0  0
  -31.9309   -9.0486   -7.3827 C   0  0  0  0  0  0  0  0  0  0  0  0
  -32.7728   -8.1573   -6.7423 N   0  0  0  0  0  0  0  0  0  0  0  0
  -30.5698   -8.8500   -7.6500 C   0  0  0  0  0  0  0  0  0  0  0  0
  -33.7495   -8.4172   -6.8028 H   0  0  0  0  0  0  0  0  0  0  0  0
  -32.5619   -7.1724   -6.8196 H   0  0  0  0  0  0  0  0  0  0  0  0
  -27.9227   -0.8004   -7.1561 C   0  0  0  0  0  0  0  0  0  0  0  0
  -28.6273   -1.9465   -6.4964 C   0  0  0  0  0  0  0  0  0  0  0  0
  -29.3475   -1.7689   -5.3227 C   0  0  0  0  0  0  0  0  0  0  0  0
  -29.9806   -2.8724   -4.7557 C   0  0  0  0  0  0  0  0  0  0  0  0
  -29.8898   -4.1229   -5.3772 C   0  0  0  0  0  0  0  0  0  0  0  0
  -30.5043   -5.2730   -4.8508 C   0  0  0  0  0  0  0  0  0  0  0  0
  -30.3861   -6.4981   -5.5108 C   0  0  0  0  0  0  0  0  0  0  0  0
  -29.6731   -6.5836   -6.7104 C   0  0  0  0  0  0  0  0  0  0  0  0
  -29.0986   -5.4178   -7.2330 C   0  0  0  0  0  0  0  0  0  0  0  0
  -29.1610   -4.2019   -6.5762 C   0  0  0  0  0  0  0  0  0  0  0  0
  -28.5348   -3.1441   -7.1168 N   0  0  0  0  0  0  0  0  0  0  0  0
  -27.5314  -10.1837   -9.1312 C   0  0  0  0  0  0  0  0  0  0  0  0
  -27.0675   -9.4837  -10.4102 C   0  0  0  0  0  0  0  0  0  0  0  0
  -26.3396  -10.4164   -8.1975 C   0  0  0  0  0  0  0  0  0  0  0  0
 13 14  1  0  0  0
 14 15  1  0  0  0
 14 23  2  0  0  0
 15 16  2  0  0  0
 16 17  1  0  0  0
 17 18  1  0  0  0
 17 22  2  0  0  0
 18 19  2  0  0  0
 19 20  1  0  0  0
 20  1  1  0  0  0
 20 21  2  0  0  0
  1  2  2  0  0  0
  1 10  1  0  0  0
  2  3  1  0  0  0
  3 24  1  0  0  0
  3  4  1  0  0  0
 24 25  1  0  0  0
 24 26  1  0  0  0
  4  5  1  0  0  0
  4 10  2  0  0  0
  5  6  2  0  0  0
  6  7  1  0  0  0
  7  8  2  0  0  0
  8  9  1  0  0  0
  8 10  1  0  0  0
  9 11  1  0  0  0
  9 12  1  0  0  0
 21 22  1  0  0  0
 22 23  1  0  0  0
M  END
> <minimizedAffinity>
-8.45962

$$$$
