CHEMBL4796999


 37 41  0  0  0  0  0  0  0  0999 V2000
  -16.0539    0.6720  -13.6961 C   0  0  0  0  0  0  0  0  0  0  0  0
  -15.0116    0.9758  -14.4714 N   0  0  0  0  0  0  0  0  0  0  0  0
  -15.3225    1.5075  -15.6565 C   0  0  0  0  0  0  0  0  0  0  0  0
  -16.6194    1.6879  -16.1005 C   0  0  0  0  0  0  0  0  0  0  0  0
  -17.6250    1.4905  -15.1867 C   0  0  0  0  0  0  0  0  0  0  0  0
  -17.3297    0.9728  -13.9862 N   0  0  0  0  0  0  0  0  0  0  0  0
  -15.6638   -2.1245  -13.5665 N   0  0  0  0  0  0  0  0  0  0  0  0
  -15.6741   -1.3870  -12.4200 C   0  0  0  0  0  0  0  0  0  0  0  0
  -15.5167   -1.8372  -11.2647 O   0  0  0  0  0  0  0  0  0  0  0  0
  -15.8111   -0.0381  -12.5350 N   0  0  0  0  0  0  0  0  0  0  0  0
  -15.7875   -1.5834  -14.4231 H   0  0  0  0  0  0  0  0  0  0  0  0
  -15.6705    0.5170  -11.6951 H   0  0  0  0  0  0  0  0  0  0  0  0
  -15.3019   -6.3124  -13.9676 C   0  0  0  0  0  0  0  0  0  0  0  0
  -14.4242   -5.4672  -14.6398 C   0  0  0  0  0  0  0  0  0  0  0  0
  -14.5396   -4.0779  -14.5279 C   0  0  0  0  0  0  0  0  0  0  0  0
  -15.5281   -3.5124  -13.7338 C   0  0  0  0  0  0  0  0  0  0  0  0
  -16.4225   -4.3597  -13.0617 C   0  0  0  0  0  0  0  0  0  0  0  0
  -16.3082   -5.7518  -13.1777 C   0  0  0  0  0  0  0  0  0  0  0  0
  -14.3203   -8.3048  -13.1520 C   0  0  0  0  0  0  0  0  0  0  0  0
  -15.2658   -7.6779  -14.0176 O   0  0  0  0  0  0  0  0  0  0  0  0
  -18.9426    1.7852  -15.4170 N   0  0  0  0  0  0  0  0  0  0  0  0
  -19.4464    3.1488  -15.4435 C   0  0  0  0  0  0  0  0  0  0  0  0
  -20.3405    3.4049  -14.2348 C   0  0  0  0  0  0  0  0  0  0  0  0
  -21.4501    2.3590  -14.1441 C   0  0  0  0  0  0  0  0  0  0  0  0
  -20.8638    0.9475  -14.1314 C   0  0  0  0  0  0  0  0  0  0  0  0
  -19.9382    0.7066  -15.3322 C   0  0  0  0  0  0  0  0  0  0  0  0
  -13.9423    2.0229  -16.6707 S   0  0  0  0  0  0  0  0  0  0  0  0
  -13.6063    3.6587  -16.1160 C   0  0  0  0  0  0  0  0  0  0  0  0
  -13.6554    4.8241  -16.8521 C   0  0  0  0  0  0  0  0  0  0  0  0
  -13.4324    5.8432  -15.9544 N   0  0  0  0  0  0  0  0  0  0  0  0
  -12.5063    5.3233  -15.0748 C   0  0  0  0  0  0  0  0  0  0  0  0
  -11.4034    5.9059  -14.4592 C   0  0  0  0  0  0  0  0  0  0  0  0
  -10.6985    5.0942  -13.5735 C   0  0  0  0  0  0  0  0  0  0  0  0
  -11.1782    3.8283  -13.2207 C   0  0  0  0  0  0  0  0  0  0  0  0
  -12.2875    3.2621  -13.8690 C   0  0  0  0  0  0  0  0  0  0  0  0
  -12.8696    3.9837  -14.9263 C   0  0  0  0  0  0  0  0  0  0  0  0
  -14.2125    6.3740  -15.5873 H   0  0  0  0  0  0  0  0  0  0  0  0
 19 20  1  0  0  0
 20 13  1  0  0  0
 13 14  1  0  0  0
 13 18  2  0  0  0
 14 15  2  0  0  0
 15 16  1  0  0  0
 16  7  1  0  0  0
 16 17  2  0  0  0
  7  8  1  0  0  0
  7 11  1  0  0  0
  8  9  2  0  0  0
  8 10  1  0  0  0
 10  1  1  0  0  0
 10 12  1  0  0  0
  1  2  1  0  0  0
  1  6  2  0  0  0
  2  3  2  0  0  0
  3 27  1  0  0  0
  3  4  1  0  0  0
 27 28  1  0  0  0
 28 29  2  0  0  0
 28 36  1  0  0  0
 29 30  1  0  0  0
 30 31  1  0  0  0
 30 37  1  0  0  0
 31 32  1  0  0  0
 31 36  2  0  0  0
 32 33  2  0  0  0
 33 34  1  0  0  0
 34 35  2  0  0  0
 35 36  1  0  0  0
  4  5  2  0  0  0
  5 21  1  0  0  0
  5  6  1  0  0  0
 21 22  1  0  0  0
 21 26  1  0  0  0
 22 23  1  0  0  0
 23 24  1  0  0  0
 24 25  1  0  0  0
 25 26  1  0  0  0
 17 18  1  0  0  0
M  END
> <minimizedAffinity>
-9.51911

$$$$
