CHEMBL4476415


 38 42  0  0  0  0  0  0  0  0999 V2000
  -29.0181   -3.7880   -7.4511 C   0  0  0  0  0  0  0  0  0  0  0  0
  -29.9186   -4.1616   -6.4479 C   0  0  0  0  0  0  0  0  0  0  0  0
  -30.0449   -5.5032   -6.0710 C   0  0  0  0  0  0  0  0  0  0  0  0
  -29.2767   -6.4950   -6.6992 C   0  0  0  0  0  0  0  0  0  0  0  0
  -28.4039   -6.1206   -7.7223 C   0  0  0  0  0  0  0  0  0  0  0  0
  -28.2529   -4.7787   -8.0773 C   0  0  0  0  0  0  0  0  0  0  0  0
  -29.4129   -7.8642   -6.3149 N   0  0  0  0  0  0  0  0  0  0  0  0
  -30.3551   -8.7254   -6.8189 C   0  0  0  0  0  0  0  0  0  0  0  0
  -30.1998   -9.9660   -6.2968 C   0  0  0  0  0  0  0  0  0  0  0  0
  -29.1632   -9.9268   -5.3836 C   0  0  0  0  0  0  0  0  0  0  0  0
  -28.6936  -10.9310   -4.6205 N   0  0  0  0  0  0  0  0  0  0  0  0
  -27.6849  -10.5644   -3.8335 C   0  0  0  0  0  0  0  0  0  0  0  0
  -27.1279   -9.3491   -3.7393 N   0  0  0  0  0  0  0  0  0  0  0  0
  -27.6007   -8.3444   -4.5017 C   0  0  0  0  0  0  0  0  0  0  0  0
  -26.9881   -7.1224   -4.2806 N   0  0  0  0  0  0  0  0  0  0  0  0
  -28.6506   -8.6142   -5.3849 C   0  0  0  0  0  0  0  0  0  0  0  0
  -31.1291  -10.8919   -6.9262 C   0  0  0  0  0  0  0  0  0  0  0  0
  -31.6977  -10.1282   -8.0434 O   0  0  0  0  0  0  0  0  0  0  0  0
  -31.3701   -8.7029   -7.8796 C   0  0  0  0  0  0  0  0  0  0  0  0
  -26.4035   -7.1850   -3.4526 H   0  0  0  0  0  0  0  0  0  0  0  0
  -27.6069   -6.3247   -4.3062 H   0  0  0  0  0  0  0  0  0  0  0  0
  -28.8896   -2.3499   -7.8810 C   0  0  0  0  0  0  0  0  0  0  0  0
  -28.1108   -2.3304  -10.2399 N   0  0  0  0  0  0  0  0  0  0  0  0
  -27.8397   -2.0000   -8.9172 C   0  0  0  0  0  0  0  0  0  0  0  0
  -26.8020   -1.4625   -8.5274 O   0  0  0  0  0  0  0  0  0  0  0  0
  -28.9184   -2.9180  -10.4206 H   0  0  0  0  0  0  0  0  0  0  0  0
  -25.5296   -1.4398  -13.4813 C   0  0  0  0  0  0  0  0  0  0  0  0
  -26.8940   -1.6216  -13.6922 C   0  0  0  0  0  0  0  0  0  0  0  0
  -27.7487   -1.9292  -12.6358 C   0  0  0  0  0  0  0  0  0  0  0  0
  -27.2596   -2.0759  -11.3395 C   0  0  0  0  0  0  0  0  0  0  0  0
  -25.8822   -1.9538  -11.1262 C   0  0  0  0  0  0  0  0  0  0  0  0
  -25.0029   -1.6132  -12.1928 C   0  0  0  0  0  0  0  0  0  0  0  0
  -23.5431   -1.3896  -11.8775 C   0  0  0  0  0  0  0  0  0  0  0  0
  -23.1243   -0.0977  -11.8033 F   0  0  0  0  0  0  0  0  0  0  0  0
  -23.2023   -1.9437  -10.6742 F   0  0  0  0  0  0  0  0  0  0  0  0
  -22.7230   -1.9901  -12.7897 F   0  0  0  0  0  0  0  0  0  0  0  0
  -25.2295   -1.0079  -15.7948 C   0  0  0  0  0  0  0  0  0  0  0  0
  -24.6595   -1.1464  -14.4948 O   0  0  0  0  0  0  0  0  0  0  0  0
 37 38  1  0  0  0
 38 27  1  0  0  0
 27 28  1  0  0  0
 27 32  2  0  0  0
 28 29  2  0  0  0
 29 30  1  0  0  0
 30 23  1  0  0  0
 30 31  2  0  0  0
 23 24  1  0  0  0
 23 26  1  0  0  0
 24 25  2  0  0  0
 24 22  1  0  0  0
 22  1  1  0  0  0
  1  2  1  0  0  0
  1  6  2  0  0  0
  2  3  2  0  0  0
  3  4  1  0  0  0
  4  7  1  0  0  0
  4  5  2  0  0  0
  7  8  1  0  0  0
  7 16  1  0  0  0
  8  9  2  0  0  0
  8 19  1  0  0  0
  9 10  1  0  0  0
  9 17  1  0  0  0
 10 11  1  0  0  0
 10 16  2  0  0  0
 11 12  2  0  0  0
 12 13  1  0  0  0
 13 14  2  0  0  0
 14 15  1  0  0  0
 14 16  1  0  0  0
 15 20  1  0  0  0
 15 21  1  0  0  0
 17 18  1  0  0  0
 18 19  1  0  0  0
  5  6  1  0  0  0
 31 32  1  0  0  0
 32 33  1  0  0  0
 33 34  1  0  0  0
 33 35  1  0  0  0
 33 36  1  0  0  0
M  END
> <minimizedAffinity>
-9.87687

$$$$
