CHEMBL596087


 41 46  0  0  0  0  0  0  0  0999 V2000
  -28.6563   -5.4637   -7.5297 C   0  0  0  0  0  0  0  0  0  0  0  0
  -28.3039   -4.4116   -8.3688 C   0  0  0  0  0  0  0  0  0  0  0  0
  -28.2271   -3.0925   -7.8887 C   0  0  0  0  0  0  0  0  0  0  0  0
  -27.9674   -1.9942   -8.7181 C   0  0  0  0  0  0  0  0  0  0  0  0
  -27.8085   -0.7560   -8.2220 N   0  0  0  0  0  0  0  0  0  0  0  0
  -27.9503   -0.6158   -6.9016 C   0  0  0  0  0  0  0  0  0  0  0  0
  -28.2606   -1.5869   -6.0323 N   0  0  0  0  0  0  0  0  0  0  0  0
  -28.3981   -2.8217   -6.5292 C   0  0  0  0  0  0  0  0  0  0  0  0
  -28.7091   -3.8849   -5.6870 C   0  0  0  0  0  0  0  0  0  0  0  0
  -28.8325   -5.2022   -6.1600 C   0  0  0  0  0  0  0  0  0  0  0  0
  -30.0903   -7.3819   -7.7818 C   0  0  0  0  0  0  0  0  0  0  0  0
  -28.8468   -6.7291   -7.9968 O   0  0  0  0  0  0  0  0  0  0  0  0
  -27.9196   -2.1882  -10.1304 N   0  0  0  0  0  0  0  0  0  0  0  0
  -28.8123   -1.9194  -10.5341 H   0  0  0  0  0  0  0  0  0  0  0  0
  -26.8235   -1.8029  -10.9280 C   0  0  0  0  0  0  0  0  0  0  0  0
  -25.6705   -1.3198  -10.3217 C   0  0  0  0  0  0  0  0  0  0  0  0
  -24.6328   -0.7941  -11.0846 C   0  0  0  0  0  0  0  0  0  0  0  0
  -24.7022   -0.7551  -12.4881 C   0  0  0  0  0  0  0  0  0  0  0  0
  -25.8298   -1.3332  -13.1198 C   0  0  0  0  0  0  0  0  0  0  0  0
  -26.0269   -1.3776  -14.6136 C   0  0  0  0  0  0  0  0  0  0  0  0
  -26.8770   -1.8534  -12.3241 C   0  0  0  0  0  0  0  0  0  0  0  0
  -23.6570   -0.0211  -13.2329 C   0  0  0  0  0  0  0  0  0  0  0  0
  -23.5795    1.2916  -13.3125 N   0  0  0  0  0  0  0  0  0  0  0  0
  -22.4078    1.6707  -13.9397 C   0  0  0  0  0  0  0  0  0  0  0  0
  -21.9865    2.9972  -14.1566 C   0  0  0  0  0  0  0  0  0  0  0  0
  -20.7441    3.2339  -14.7605 C   0  0  0  0  0  0  0  0  0  0  0  0
  -19.9271    2.1734  -15.1393 C   0  0  0  0  0  0  0  0  0  0  0  0
  -20.3370    0.8498  -14.9511 C   0  0  0  0  0  0  0  0  0  0  0  0
  -21.5901    0.6228  -14.3571 C   0  0  0  0  0  0  0  0  0  0  0  0
  -22.3703   -0.8643  -14.0162 S   0  0  0  0  0  0  0  0  0  0  0  0
  -29.1614   -6.1294   -5.1891 O   0  0  0  0  0  0  0  0  0  0  0  0
  -28.0297   -6.7749   -4.5978 C   0  0  0  0  0  0  0  0  0  0  0  0
  -28.3156   -8.2376   -4.2677 C   0  0  0  0  0  0  0  0  0  0  0  0
  -27.8393   -9.1358   -5.4251 C   0  0  0  0  0  0  0  0  0  0  0  0
  -26.6958   -9.9866   -5.0616 N   0  0  0  0  0  0  0  0  0  0  0  0
  -26.0831  -10.6290   -6.2377 C   0  0  0  0  0  0  0  0  0  0  0  0
  -24.8682  -11.5005   -5.8577 C   0  0  0  0  0  0  0  0  0  0  0  0
  -23.8084  -10.7839   -5.1253 N   0  0  0  0  0  0  0  0  0  0  0  0
  -23.0913   -9.8566   -5.9972 C   0  0  0  0  0  0  0  0  0  0  0  0
  -24.4177  -10.0905   -3.9716 C   0  0  0  0  0  0  0  0  0  0  0  0
  -25.6778   -9.2424   -4.2943 C   0  0  0  0  0  0  0  0  0  0  0  0
 11 12  1  0  0  0
 12  1  1  0  0  0
  1  2  1  0  0  0
  1 10  2  0  0  0
  2  3  2  0  0  0
  3  4  1  0  0  0
  3  8  1  0  0  0
  4 13  1  0  0  0
  4  5  2  0  0  0
 13 15  1  0  0  0
 13 14  1  0  0  0
 15 16  1  0  0  0
 15 21  2  0  0  0
 16 17  2  0  0  0
 17 18  1  0  0  0
 18 22  1  0  0  0
 18 19  2  0  0  0
 22 23  2  0  0  0
 22 30  1  0  0  0
 23 24  1  0  0  0
 24 25  1  0  0  0
 24 29  2  0  0  0
 25 26  2  0  0  0
 26 27  1  0  0  0
 27 28  2  0  0  0
 28 29  1  0  0  0
 29 30  1  0  0  0
 19 20  1  0  0  0
 19 21  1  0  0  0
  5  6  1  0  0  0
  6  7  2  0  0  0
  7  8  1  0  0  0
  8  9  2  0  0  0
  9 10  1  0  0  0
 10 31  1  0  0  0
 31 32  1  0  0  0
 32 33  1  0  0  0
 33 34  1  0  0  0
 34 35  1  0  0  0
 35 36  1  0  0  0
 35 41  1  0  0  0
 36 37  1  0  0  0
 37 38  1  0  0  0
 38 39  1  0  0  0
 38 40  1  0  0  0
 40 41  1  0  0  0
M  END
> <minimizedAffinity>
-10.32398

$$$$
