CHEMBL3221547


 32 34  0  0  0  0  0  0  0  0999 V2000
  -16.9162    2.3982  -15.5695 C   0  0  0  0  0  0  0  0  0  0  0  0
  -18.0009    3.2986  -15.7049 C   0  0  0  0  0  0  0  0  0  0  0  0
  -19.2594    3.0165  -15.2107 C   0  0  0  0  0  0  0  0  0  0  0  0
  -20.2337    3.9451  -15.3469 N   0  0  0  0  0  0  0  0  0  0  0  0
  -21.4713    3.7297  -14.8530 C   0  0  0  0  0  0  0  0  0  0  0  0
  -21.7372    2.5773  -14.1942 N   0  0  0  0  0  0  0  0  0  0  0  0
  -20.8002    1.6114  -14.0025 C   0  0  0  0  0  0  0  0  0  0  0  0
  -19.5079    1.8022  -14.5425 C   0  0  0  0  0  0  0  0  0  0  0  0
  -18.4497    0.8880  -14.4057 C   0  0  0  0  0  0  0  0  0  0  0  0
  -17.1627    1.1567  -14.8971 C   0  0  0  0  0  0  0  0  0  0  0  0
  -21.1253    0.4543  -13.2159 N   0  0  0  0  0  0  0  0  0  0  0  0
  -20.4572    0.1458  -12.5006 H   0  0  0  0  0  0  0  0  0  0  0  0
  -22.4154   -0.1667  -13.1754 C   0  0  0  0  0  0  0  0  0  0  0  0
  -22.9258   -0.8303  -12.0413 C   0  0  0  0  0  0  0  0  0  0  0  0
  -24.1413   -1.4907  -12.0832 C   0  0  0  0  0  0  0  0  0  0  0  0
  -24.9112   -1.5304  -13.2598 C   0  0  0  0  0  0  0  0  0  0  0  0
  -24.4077   -0.8699  -14.4038 C   0  0  0  0  0  0  0  0  0  0  0  0
  -25.2837   -0.8626  -15.9324 Cl  0  0  0  0  0  0  0  0  0  0  0  0
  -23.1835   -0.1923  -14.3508 C   0  0  0  0  0  0  0  0  0  0  0  0
  -26.1473   -2.2522  -13.3335 N   0  0  0  0  0  0  0  0  0  0  0  0
  -27.2783   -1.9796  -12.6219 C   0  0  0  0  0  0  0  0  0  0  0  0
  -28.2621   -2.6874  -12.7813 O   0  0  0  0  0  0  0  0  0  0  0  0
  -26.2121   -3.0282  -14.0083 H   0  0  0  0  0  0  0  0  0  0  0  0
  -27.3564   -0.8963  -11.8069 O   0  0  0  0  0  0  0  0  0  0  0  0
  -27.9602   -0.8857  -10.5656 C   0  0  0  0  0  0  0  0  0  0  0  0
  -27.2194   -1.8356   -9.6276 C   0  0  0  0  0  0  0  0  0  0  0  0
  -16.2502    0.1819  -14.6264 O   0  0  0  0  0  0  0  0  0  0  0  0
  -15.9857   -0.5400  -13.4884 C   0  0  0  0  0  0  0  0  0  0  0  0
  -15.6854    2.7551  -16.0548 O   0  0  0  0  0  0  0  0  0  0  0  0
  -15.3632    4.0841  -16.3454 C   0  0  0  0  0  0  0  0  0  0  0  0
  -14.2663    3.2200  -18.4399 C   0  0  0  0  0  0  0  0  0  0  0  0
  -15.0756    4.3466  -17.8163 C   0  0  0  0  0  0  0  0  0  0  0  0
 31 32  1  0  0  0
 32 30  1  0  0  0
 30 29  1  0  0  0
 29  1  1  0  0  0
  1  2  1  0  0  0
  1 10  2  0  0  0
  2  3  2  0  0  0
  3  4  1  0  0  0
  3  8  1  0  0  0
  4  5  2  0  0  0
  5  6  1  0  0  0
  6  7  2  0  0  0
  7 11  1  0  0  0
  7  8  1  0  0  0
 11 13  1  0  0  0
 11 12  1  0  0  0
 13 14  1  0  0  0
 13 19  2  0  0  0
 14 15  2  0  0  0
 15 16  1  0  0  0
 16 20  1  0  0  0
 16 17  2  0  0  0
 20 21  1  0  0  0
 20 23  1  0  0  0
 21 22  2  0  0  0
 21 24  1  0  0  0
 24 25  1  0  0  0
 25 26  1  0  0  0
 17 18  1  0  0  0
 17 19  1  0  0  0
  8  9  2  0  0  0
  9 10  1  0  0  0
 10 27  1  0  0  0
 27 28  1  0  0  0
M  END
> <minimizedAffinity>
-7.22909

$$$$
