CHEMBL3740856


 39 43  0  0  0  0  0  0  0  0999 V2000
  -29.7808   -6.1914   -7.4874 C   0  0  0  0  0  0  0  0  0  0  0  0
  -30.6999   -7.0260   -6.8459 C   0  0  0  0  0  0  0  0  0  0  0  0
  -30.3006   -8.3099   -6.4582 C   0  0  0  0  0  0  0  0  0  0  0  0
  -29.0241   -8.7871   -6.8109 C   0  0  0  0  0  0  0  0  0  0  0  0
  -28.5399  -10.0748   -6.5003 C   0  0  0  0  0  0  0  0  0  0  0  0
  -28.4701  -10.8446   -7.6267 C   0  0  0  0  0  0  0  0  0  0  0  0
  -27.8778  -10.2551   -8.7540 C   0  0  0  0  0  0  0  0  0  0  0  0
  -27.6536   -8.8744   -8.7589 C   0  0  0  0  0  0  0  0  0  0  0  0
  -28.3523   -8.0925   -7.8224 C   0  0  0  0  0  0  0  0  0  0  0  0
  -28.6148   -6.7317   -8.0205 C   0  0  0  0  0  0  0  0  0  0  0  0
  -27.1281  -10.0434   -5.7898 C   0  0  0  0  0  0  0  0  0  0  0  0
  -26.8431   -9.1378   -5.0068 O   0  0  0  0  0  0  0  0  0  0  0  0
  -26.2629  -11.0837   -6.1544 N   0  0  0  0  0  0  0  0  0  0  0  0
  -26.6585  -11.8075   -6.7328 H   0  0  0  0  0  0  0  0  0  0  0  0
  -24.8775  -11.2477   -5.8964 C   0  0  0  0  0  0  0  0  0  0  0  0
  -24.3342  -11.5950   -4.6565 C   0  0  0  0  0  0  0  0  0  0  0  0
  -22.9355  -11.7295   -4.4967 C   0  0  0  0  0  0  0  0  0  0  0  0
  -22.0798  -11.5167   -5.5737 C   0  0  0  0  0  0  0  0  0  0  0  0
  -22.6077  -11.1535   -6.8028 C   0  0  0  0  0  0  0  0  0  0  0  0
  -23.9939  -11.0175   -6.9587 C   0  0  0  0  0  0  0  0  0  0  0  0
  -30.1494   -4.8867   -7.6996 O   0  0  0  0  0  0  0  0  0  0  0  0
  -28.0519   -2.1119   -8.2219 C   0  0  0  0  0  0  0  0  0  0  0  0
  -27.4956   -1.8541   -7.0290 N   0  0  0  0  0  0  0  0  0  0  0  0
  -27.8770   -2.6294   -5.9960 C   0  0  0  0  0  0  0  0  0  0  0  0
  -28.7759   -3.6593   -6.1078 C   0  0  0  0  0  0  0  0  0  0  0  0
  -29.2397   -3.8982   -7.3792 C   0  0  0  0  0  0  0  0  0  0  0  0
  -28.9006   -3.1278   -8.4259 N   0  0  0  0  0  0  0  0  0  0  0  0
  -27.7303   -1.2122   -9.2425 N   0  0  0  0  0  0  0  0  0  0  0  0
  -28.3723   -0.4332   -9.1931 H   0  0  0  0  0  0  0  0  0  0  0  0
  -25.7746   -1.8434  -12.9619 C   0  0  0  0  0  0  0  0  0  0  0  0
  -27.1672   -1.7557  -12.8970 C   0  0  0  0  0  0  0  0  0  0  0  0
  -27.8157   -1.5568  -11.6772 C   0  0  0  0  0  0  0  0  0  0  0  0
  -27.1087   -1.4272  -10.4822 C   0  0  0  0  0  0  0  0  0  0  0  0
  -25.7143   -1.5601  -10.5470 C   0  0  0  0  0  0  0  0  0  0  0  0
  -25.0418   -1.7412  -11.7677 C   0  0  0  0  0  0  0  0  0  0  0  0
  -25.2076   -1.1211  -15.1542 C   0  0  0  0  0  0  0  0  0  0  0  0
  -25.1064   -2.1017  -14.1228 O   0  0  0  0  0  0  0  0  0  0  0  0
  -23.6770   -1.8307  -11.6363 O   0  0  0  0  0  0  0  0  0  0  0  0
  -22.9353   -0.6707  -11.9976 C   0  0  0  0  0  0  0  0  0  0  0  0
 36 37  1  0  0  0
 37 30  1  0  0  0
 30 31  1  0  0  0
 30 35  2  0  0  0
 31 32  2  0  0  0
 32 33  1  0  0  0
 33 28  1  0  0  0
 33 34  2  0  0  0
 28 22  1  0  0  0
 28 29  1  0  0  0
 22 23  1  0  0  0
 22 27  2  0  0  0
 23 24  2  0  0  0
 24 25  1  0  0  0
 25 26  2  0  0  0
 26 21  1  0  0  0
 26 27  1  0  0  0
 21  1  1  0  0  0
  1  2  1  0  0  0
  1 10  2  0  0  0
  2  3  2  0  0  0
  3  4  1  0  0  0
  4  5  1  0  0  0
  4  9  2  0  0  0
  5 11  1  0  0  0
  5  6  2  0  0  0
 11 12  2  0  0  0
 11 13  1  0  0  0
 13 15  1  0  0  0
 13 14  1  0  0  0
 15 16  1  0  0  0
 15 20  2  0  0  0
 16 17  2  0  0  0
 17 18  1  0  0  0
 18 19  2  0  0  0
 19 20  1  0  0  0
  6  7  1  0  0  0
  7  8  2  0  0  0
  8  9  1  0  0  0
  9 10  1  0  0  0
 34 35  1  0  0  0
 35 38  1  0  0  0
 38 39  1  0  0  0
M  END
> <minimizedAffinity>
-8.95052

$$$$
