CHEMBL431930


 28 31  0  0  0  0  0  0  0  0999 V2000
  -14.0125   -0.5006  -14.0012 C   0  0  0  0  0  0  0  0  0  0  0  0
  -13.6035   -0.6673  -15.2651 N   0  0  0  0  0  0  0  0  0  0  0  0
  -12.7610   -1.6818  -15.5174 C   0  0  0  0  0  0  0  0  0  0  0  0
  -12.3056   -2.5459  -14.5538 C   0  0  0  0  0  0  0  0  0  0  0  0
  -12.7626   -2.3001  -13.2765 C   0  0  0  0  0  0  0  0  0  0  0  0
  -13.6274   -1.3004  -13.0020 N   0  0  0  0  0  0  0  0  0  0  0  0
  -12.2704   -3.0810  -12.1882 N   0  0  0  0  0  0  0  0  0  0  0  0
  -11.0409   -2.9137  -11.5778 C   0  0  0  0  0  0  0  0  0  0  0  0
  -10.9330   -3.9178  -10.6528 C   0  0  0  0  0  0  0  0  0  0  0  0
  -12.0624   -4.6794  -10.6399 N   0  0  0  0  0  0  0  0  0  0  0  0
  -12.8868   -4.1622  -11.5429 C   0  0  0  0  0  0  0  0  0  0  0  0
  -14.2462   -4.6889  -11.7702 C   0  0  0  0  0  0  0  0  0  0  0  0
  -15.3999   -4.0951  -11.2310 C   0  0  0  0  0  0  0  0  0  0  0  0
  -16.6775   -4.5498  -11.5702 C   0  0  0  0  0  0  0  0  0  0  0  0
  -16.8156   -5.6702  -12.3810 C   0  0  0  0  0  0  0  0  0  0  0  0
  -15.6775   -6.3263  -12.8332 C   0  0  0  0  0  0  0  0  0  0  0  0
  -15.8118   -7.4323  -13.5771 F   0  0  0  0  0  0  0  0  0  0  0  0
  -14.4038   -5.8480  -12.5409 C   0  0  0  0  0  0  0  0  0  0  0  0
  -14.8005    0.5936  -13.6490 N   0  0  0  0  0  0  0  0  0  0  0  0
  -15.0679    0.5037  -12.6740 H   0  0  0  0  0  0  0  0  0  0  0  0
  -19.5157    0.9468  -15.0677 C   0  0  0  0  0  0  0  0  0  0  0  0
  -18.0913    1.4093  -15.1673 C   0  0  0  0  0  0  0  0  0  0  0  0
  -17.7423    2.4781  -16.0020 C   0  0  0  0  0  0  0  0  0  0  0  0
  -16.4189    2.9228  -16.0730 C   0  0  0  0  0  0  0  0  0  0  0  0
  -16.0136    4.0585  -16.9631 C   0  0  0  0  0  0  0  0  0  0  0  0
  -15.4472    2.2938  -15.2883 C   0  0  0  0  0  0  0  0  0  0  0  0
  -15.7697    1.2291  -14.4407 C   0  0  0  0  0  0  0  0  0  0  0  0
  -17.0953    0.7795  -14.4045 C   0  0  0  0  0  0  0  0  0  0  0  0
 21 22  1  0  0  0
 22 23  1  0  0  0
 22 28  2  0  0  0
 23 24  2  0  0  0
 24 25  1  0  0  0
 24 26  1  0  0  0
 26 27  2  0  0  0
 27 19  1  0  0  0
 27 28  1  0  0  0
 19  1  1  0  0  0
 19 20  1  0  0  0
  1  2  1  0  0  0
  1  6  2  0  0  0
  2  3  2  0  0  0
  3  4  1  0  0  0
  4  5  2  0  0  0
  5  7  1  0  0  0
  5  6  1  0  0  0
  7  8  1  0  0  0
  7 11  1  0  0  0
  8  9  2  0  0  0
  9 10  1  0  0  0
 10 11  2  0  0  0
 11 12  1  0  0  0
 12 13  1  0  0  0
 12 18  2  0  0  0
 13 14  2  0  0  0
 14 15  1  0  0  0
 15 16  2  0  0  0
 16 17  1  0  0  0
 16 18  1  0  0  0
M  END
> <minimizedAffinity>
-8.13005

$$$$
