CHEMBL2113164


 36 39  0  0  0  0  0  0  0  0999 V2000
  -30.8691   -9.3299   -7.3055 C   0  0  0  0  0  0  0  0  0  0  0  0
  -30.4940   -8.0637   -6.8691 C   0  0  0  0  0  0  0  0  0  0  0  0
  -29.3969   -7.8817   -6.0007 C   0  0  0  0  0  0  0  0  0  0  0  0
  -29.0060   -6.6370   -5.4973 C   0  0  0  0  0  0  0  0  0  0  0  0
  -27.9191   -6.4846   -4.7231 N   0  0  0  0  0  0  0  0  0  0  0  0
  -27.2390   -7.5990   -4.4268 C   0  0  0  0  0  0  0  0  0  0  0  0
  -27.5427   -8.8401   -4.8277 N   0  0  0  0  0  0  0  0  0  0  0  0
  -28.6131   -8.9737   -5.6175 C   0  0  0  0  0  0  0  0  0  0  0  0
  -28.9530  -10.2262   -6.1103 C   0  0  0  0  0  0  0  0  0  0  0  0
  -30.0408  -10.4149   -6.9756 C   0  0  0  0  0  0  0  0  0  0  0  0
  -33.2359   -9.7431   -7.3518 C   0  0  0  0  0  0  0  0  0  0  0  0
  -32.0005   -9.5548   -8.0383 O   0  0  0  0  0  0  0  0  0  0  0  0
  -29.8020   -5.4983   -5.7998 N   0  0  0  0  0  0  0  0  0  0  0  0
  -30.6736   -5.5313   -5.2601 H   0  0  0  0  0  0  0  0  0  0  0  0
  -29.2773   -4.2175   -5.8256 C   0  0  0  0  0  0  0  0  0  0  0  0
  -28.5966   -3.6827   -6.8438 C   0  0  0  0  0  0  0  0  0  0  0  0
  -28.0195   -2.3316   -6.8051 C   0  0  0  0  0  0  0  0  0  0  0  0
  -27.4198   -1.8993   -7.7843 O   0  0  0  0  0  0  0  0  0  0  0  0
  -28.1823   -1.5333   -5.5494 C   0  0  0  0  0  0  0  0  0  0  0  0
  -28.9090   -2.0525   -4.5456 C   0  0  0  0  0  0  0  0  0  0  0  0
  -29.5393   -3.3817   -4.6235 C   0  0  0  0  0  0  0  0  0  0  0  0
  -30.2494   -3.7914   -3.7062 O   0  0  0  0  0  0  0  0  0  0  0  0
  -27.5535   -0.3002   -5.5323 O   0  0  0  0  0  0  0  0  0  0  0  0
  -28.2771    0.7894   -4.9562 C   0  0  0  0  0  0  0  0  0  0  0  0
  -29.2877    1.3575   -5.9365 C   0  0  0  0  0  0  0  0  0  0  0  0
  -28.9573    0.9457   -7.1899 F   0  0  0  0  0  0  0  0  0  0  0  0
  -30.5197    0.8487   -5.6818 F   0  0  0  0  0  0  0  0  0  0  0  0
  -30.1673  -11.7091   -7.4261 O   0  0  0  0  0  0  0  0  0  0  0  0
  -28.9281  -12.3633   -7.6987 C   0  0  0  0  0  0  0  0  0  0  0  0
  -28.6816  -12.4624   -9.2011 C   0  0  0  0  0  0  0  0  0  0  0  0
  -27.4984  -11.5479   -9.5479 C   0  0  0  0  0  0  0  0  0  0  0  0
  -27.8499  -10.1790   -9.9470 N   0  0  0  0  0  0  0  0  0  0  0  0
  -29.1706  -10.1649  -10.6077 C   0  0  0  0  0  0  0  0  0  0  0  0
  -28.8770  -10.3285  -12.0857 C   0  0  0  0  0  0  0  0  0  0  0  0
  -27.6170   -9.5103  -12.2631 C   0  0  0  0  0  0  0  0  0  0  0  0
  -26.9056   -9.5972  -10.9174 C   0  0  0  0  0  0  0  0  0  0  0  0
 11 12  1  0  0  0
 12  1  1  0  0  0
  1  2  1  0  0  0
  1 10  2  0  0  0
  2  3  2  0  0  0
  3  4  1  0  0  0
  3  8  1  0  0  0
  4 13  1  0  0  0
  4  5  2  0  0  0
 13 15  1  0  0  0
 13 14  1  0  0  0
 15 16  2  0  0  0
 15 21  1  0  0  0
 16 17  1  0  0  0
 17 18  2  0  0  0
 17 19  1  0  0  0
 19 23  1  0  0  0
 19 20  2  0  0  0
 23 24  1  0  0  0
 24 25  1  0  0  0
 25 26  1  0  0  0
 25 27  1  0  0  0
 20 21  1  0  0  0
 21 22  2  0  0  0
  5  6  1  0  0  0
  6  7  2  0  0  0
  7  8  1  0  0  0
  8  9  2  0  0  0
  9 10  1  0  0  0
 10 28  1  0  0  0
 28 29  1  0  0  0
 29 30  1  0  0  0
 30 31  1  0  0  0
 31 32  1  0  0  0
 32 33  1  0  0  0
 32 36  1  0  0  0
 33 34  1  0  0  0
 34 35  1  0  0  0
 35 36  1  0  0  0
M  END
> <minimizedAffinity>
-7.62163

$$$$
