CHEMBL432196


 27 30  0  0  0  0  0  0  0  0999 V2000
  -28.7292   -3.5659   -7.9313 C   0  0  0  0  0  0  0  0  0  0  0  0
  -28.7356   -4.9207   -8.0326 O   0  0  0  0  0  0  0  0  0  0  0  0
  -28.7572   -5.3724   -6.7479 C   0  0  0  0  0  0  0  0  0  0  0  0
  -28.7373   -4.4187   -5.8367 N   0  0  0  0  0  0  0  0  0  0  0  0
  -28.7131   -3.2579   -6.5830 C   0  0  0  0  0  0  0  0  0  0  0  0
  -28.8445   -6.8111   -6.5896 C   0  0  0  0  0  0  0  0  0  0  0  0
  -29.0857   -7.3684   -5.3412 C   0  0  0  0  0  0  0  0  0  0  0  0
  -29.2190   -8.6967   -5.1143 N   0  0  0  0  0  0  0  0  0  0  0  0
  -29.1030   -9.5090   -6.1929 C   0  0  0  0  0  0  0  0  0  0  0  0
  -28.8586   -9.0693   -7.4920 C   0  0  0  0  0  0  0  0  0  0  0  0
  -28.7253   -7.6895   -7.6758 C   0  0  0  0  0  0  0  0  0  0  0  0
  -28.7362   -9.9863   -8.6222 C   0  0  0  0  0  0  0  0  0  0  0  0
  -29.2160   -9.7798   -9.9596 C   0  0  0  0  0  0  0  0  0  0  0  0
  -28.9434  -10.8416  -10.7938 C   0  0  0  0  0  0  0  0  0  0  0  0
  -28.1243  -12.0997   -9.9815 S   0  0  0  0  0  0  0  0  0  0  0  0
  -28.1349  -11.2268   -8.5084 C   0  0  0  0  0  0  0  0  0  0  0  0
  -28.7023   -1.9336   -5.9940 C   0  0  0  0  0  0  0  0  0  0  0  0
  -27.5065   -1.3269   -5.5878 C   0  0  0  0  0  0  0  0  0  0  0  0
  -27.5011   -0.0056   -5.1368 C   0  0  0  0  0  0  0  0  0  0  0  0
  -28.6962    0.7046   -5.0579 C   0  0  0  0  0  0  0  0  0  0  0  0
  -29.9003    0.0877   -5.3921 C   0  0  0  0  0  0  0  0  0  0  0  0
  -29.9054   -1.2318   -5.8494 C   0  0  0  0  0  0  0  0  0  0  0  0
  -28.0409   -1.2174  -10.7144 C   0  0  0  0  0  0  0  0  0  0  0  0
  -27.7262   -2.0344   -9.4911 C   0  0  0  0  0  0  0  0  0  0  0  0
  -26.6354   -1.9283   -8.9352 O   0  0  0  0  0  0  0  0  0  0  0  0
  -28.7893   -2.8168   -9.0848 N   0  0  0  0  0  0  0  0  0  0  0  0
  -29.6708   -2.7754   -9.5783 H   0  0  0  0  0  0  0  0  0  0  0  0
 23 24  1  0  0  0
 24 25  2  0  0  0
 24 26  1  0  0  0
 26  1  1  0  0  0
 26 27  1  0  0  0
  1  2  1  0  0  0
  1  5  2  0  0  0
  2  3  1  0  0  0
  3  6  1  0  0  0
  3  4  2  0  0  0
  6  7  1  0  0  0
  6 11  2  0  0  0
  7  8  2  0  0  0
  8  9  1  0  0  0
  9 10  2  0  0  0
 10 12  1  0  0  0
 10 11  1  0  0  0
 12 13  1  0  0  0
 12 16  2  0  0  0
 13 14  2  0  0  0
 14 15  1  0  0  0
 15 16  1  0  0  0
  4  5  1  0  0  0
  5 17  1  0  0  0
 17 18  1  0  0  0
 17 22  2  0  0  0
 18 19  2  0  0  0
 19 20  1  0  0  0
 20 21  2  0  0  0
 21 22  1  0  0  0
M  END
> <minimizedAffinity>
-8.70094

$$$$
