CHEMBL190210


 46 49  0  0  0  0  0  0  0  0999 V2000
  -29.8487   -7.9334   -5.2910 C   0  0  0  0  0  0  0  0  0  0  0  0
  -30.6938   -6.7799   -5.8382 C   0  0  0  0  0  0  0  0  0  0  0  0
  -29.9500   -5.5086   -6.0547 C   0  0  0  0  0  0  0  0  0  0  0  0
  -30.6048   -4.4236   -6.6285 C   0  0  0  0  0  0  0  0  0  0  0  0
  -30.0592   -3.2041   -6.7936 N   0  0  0  0  0  0  0  0  0  0  0  0
  -28.7852   -3.0321   -6.3885 C   0  0  0  0  0  0  0  0  0  0  0  0
  -28.0522   -4.0763   -5.8106 C   0  0  0  0  0  0  0  0  0  0  0  0
  -28.6395   -5.3373   -5.6307 C   0  0  0  0  0  0  0  0  0  0  0  0
  -27.9200   -6.3530   -4.9609 N   0  0  0  0  0  0  0  0  0  0  0  0
  -28.4793   -7.5126   -4.7427 C   0  0  0  0  0  0  0  0  0  0  0  0
  -30.2458  -11.2941   -7.0803 C   0  0  0  0  0  0  0  0  0  0  0  0
  -29.6334  -11.0400   -8.3072 C   0  0  0  0  0  0  0  0  0  0  0  0
  -29.0565   -9.7917   -8.5528 C   0  0  0  0  0  0  0  0  0  0  0  0
  -29.0561   -8.8120   -7.5582 C   0  0  0  0  0  0  0  0  0  0  0  0
  -29.7135   -9.0344   -6.3405 C   0  0  0  0  0  0  0  0  0  0  0  0
  -30.3073  -10.2863   -6.1176 C   0  0  0  0  0  0  0  0  0  0  0  0
  -32.2674  -12.3761   -6.5134 C   0  0  0  0  0  0  0  0  0  0  0  0
  -30.8651  -12.4647   -6.7357 O   0  0  0  0  0  0  0  0  0  0  0  0
  -28.4549   -9.4349   -9.7306 O   0  0  0  0  0  0  0  0  0  0  0  0
  -27.0322   -9.5259   -9.7219 C   0  0  0  0  0  0  0  0  0  0  0  0
  -27.7490   -8.4268   -3.9940 N   0  0  0  0  0  0  0  0  0  0  0  0
  -26.6990   -9.1939   -4.4591 C   0  0  0  0  0  0  0  0  0  0  0  0
  -26.3822   -9.2616   -5.6434 O   0  0  0  0  0  0  0  0  0  0  0  0
  -26.0707   -9.9571   -3.4973 N   0  0  0  0  0  0  0  0  0  0  0  0
  -28.2378   -8.7868   -3.1906 H   0  0  0  0  0  0  0  0  0  0  0  0
  -26.1600   -9.6489   -2.5402 H   0  0  0  0  0  0  0  0  0  0  0  0
  -24.9291  -10.8523   -3.8265 C   0  0  0  0  0  0  0  0  0  0  0  0
  -24.2721  -11.4374   -2.5596 C   0  0  0  0  0  0  0  0  0  0  0  0
  -25.4322  -12.0340   -4.6779 C   0  0  0  0  0  0  0  0  0  0  0  0
  -23.8692  -10.1054   -4.6624 C   0  0  0  0  0  0  0  0  0  0  0  0
  -28.2431   -1.7264   -6.4707 N   0  0  0  0  0  0  0  0  0  0  0  0
  -28.0478   -0.8976   -5.3637 C   0  0  0  0  0  0  0  0  0  0  0  0
  -28.4048   -1.3619   -3.9711 C   0  0  0  0  0  0  0  0  0  0  0  0
  -27.5253    0.2192   -5.4781 O   0  0  0  0  0  0  0  0  0  0  0  0
  -27.5441   -1.2815   -7.6808 C   0  0  0  0  0  0  0  0  0  0  0  0
  -27.9365   -1.7643   -9.0841 C   0  0  0  0  0  0  0  0  0  0  0  0
  -26.8134   -1.8759  -10.1118 C   0  0  0  0  0  0  0  0  0  0  0  0
  -27.2900   -1.6765  -11.5420 C   0  0  0  0  0  0  0  0  0  0  0  0
  -26.3629   -0.8257  -12.2076 O   0  0  0  0  0  0  0  0  0  0  0  0
  -25.1281   -0.7585  -11.5010 C   0  0  0  0  0  0  0  0  0  0  0  0
  -24.0545   -0.2720  -12.4346 C   0  0  0  0  0  0  0  0  0  0  0  0
  -23.1704   -1.1808  -13.0323 C   0  0  0  0  0  0  0  0  0  0  0  0
  -22.1916   -0.7402  -13.9196 C   0  0  0  0  0  0  0  0  0  0  0  0
  -22.0840    0.6187  -14.2205 C   0  0  0  0  0  0  0  0  0  0  0  0
  -22.9533    1.5327  -13.6289 C   0  0  0  0  0  0  0  0  0  0  0  0
  -23.9352    1.0927  -12.7410 C   0  0  0  0  0  0  0  0  0  0  0  0
 17 18  1  0  0  0
 18 11  1  0  0  0
 11 12  1  0  0  0
 11 16  2  0  0  0
 12 13  2  0  0  0
 13 19  1  0  0  0
 13 14  1  0  0  0
 19 20  1  0  0  0
 14 15  2  0  0  0
 15  1  1  0  0  0
 15 16  1  0  0  0
  1  2  1  0  0  0
  1 10  1  0  0  0
  2  3  1  0  0  0
  3  4  1  0  0  0
  3  8  2  0  0  0
  4  5  2  0  0  0
  5  6  1  0  0  0
  6 31  1  0  0  0
  6  7  2  0  0  0
 31 35  1  0  0  0
 31 32  1  0  0  0
 35 36  1  0  0  0
 36 37  1  0  0  0
 37 38  1  0  0  0
 38 39  1  0  0  0
 39 40  1  0  0  0
 40 41  1  0  0  0
 41 42  1  0  0  0
 41 46  2  0  0  0
 42 43  2  0  0  0
 43 44  1  0  0  0
 44 45  2  0  0  0
 45 46  1  0  0  0
 32 33  1  0  0  0
 32 34  2  0  0  0
  7  8  1  0  0  0
  8  9  1  0  0  0
  9 10  2  0  0  0
 10 21  1  0  0  0
 21 22  1  0  0  0
 21 25  1  0  0  0
 22 23  2  0  0  0
 22 24  1  0  0  0
 24 27  1  0  0  0
 24 26  1  0  0  0
 27 28  1  0  0  0
 27 29  1  0  0  0
 27 30  1  0  0  0
M  END
> <minimizedAffinity>
-8.71907

$$$$
