CHEMBL3819461


 28 31  0  0  0  0  0  0  0  0999 V2000
  -21.7434    0.8282  -14.2820 C   0  0  0  0  0  0  0  0  0  0  0  0
  -22.4494    1.9279  -13.9944 N   0  0  0  0  0  0  0  0  0  0  0  0
  -21.8470    3.1022  -14.2357 C   0  0  0  0  0  0  0  0  0  0  0  0
  -20.5764    3.2259  -14.7480 C   0  0  0  0  0  0  0  0  0  0  0  0
  -19.9275    2.0508  -15.0477 C   0  0  0  0  0  0  0  0  0  0  0  0
  -20.5163    0.8737  -14.8160 N   0  0  0  0  0  0  0  0  0  0  0  0
  -22.3394   -0.4005  -14.0036 N   0  0  0  0  0  0  0  0  0  0  0  0
  -21.9973   -1.0895  -14.6603 H   0  0  0  0  0  0  0  0  0  0  0  0
  -26.1607   -1.2709  -12.4004 C   0  0  0  0  0  0  0  0  0  0  0  0
  -25.1695   -0.7423  -11.5842 C   0  0  0  0  0  0  0  0  0  0  0  0
  -23.9038   -0.4625  -12.1045 C   0  0  0  0  0  0  0  0  0  0  0  0
  -23.6000   -0.6753  -13.4542 C   0  0  0  0  0  0  0  0  0  0  0  0
  -24.5972   -1.2483  -14.2574 C   0  0  0  0  0  0  0  0  0  0  0  0
  -25.8630   -1.5360  -13.7390 C   0  0  0  0  0  0  0  0  0  0  0  0
  -27.6822   -1.5113  -10.6046 C   0  0  0  0  0  0  0  0  0  0  0  0
  -27.4365   -1.5651  -12.0058 O   0  0  0  0  0  0  0  0  0  0  0  0
  -18.6738    2.1045  -15.6840 N   0  0  0  0  0  0  0  0  0  0  0  0
  -18.6430    2.7375  -16.4709 H   0  0  0  0  0  0  0  0  0  0  0  0
  -17.4150    1.6572  -15.2275 C   0  0  0  0  0  0  0  0  0  0  0  0
  -16.3204    1.7046  -16.1086 C   0  0  0  0  0  0  0  0  0  0  0  0
  -15.1129    1.0390  -15.8425 C   0  0  0  0  0  0  0  0  0  0  0  0
  -15.0329    0.3345  -14.6403 C   0  0  0  0  0  0  0  0  0  0  0  0
  -14.0844   -0.5092  -14.1253 N   0  0  0  0  0  0  0  0  0  0  0  0
  -14.3344   -0.9167  -12.8669 N   0  0  0  0  0  0  0  0  0  0  0  0
  -15.5277   -0.3765  -12.6010 C   0  0  0  0  0  0  0  0  0  0  0  0
  -16.0420    0.3596  -13.6894 C   0  0  0  0  0  0  0  0  0  0  0  0
  -17.2446    1.0215  -13.9858 C   0  0  0  0  0  0  0  0  0  0  0  0
  -13.2572   -0.8658  -14.5888 H   0  0  0  0  0  0  0  0  0  0  0  0
 15 16  1  0  0  0
 16  9  1  0  0  0
  9 10  1  0  0  0
  9 14  2  0  0  0
 10 11  2  0  0  0
 11 12  1  0  0  0
 12  7  1  0  0  0
 12 13  2  0  0  0
  7  1  1  0  0  0
  7  8  1  0  0  0
  1  2  1  0  0  0
  1  6  2  0  0  0
  2  3  2  0  0  0
  3  4  1  0  0  0
  4  5  2  0  0  0
  5 17  1  0  0  0
  5  6  1  0  0  0
 17 19  1  0  0  0
 17 18  1  0  0  0
 19 20  1  0  0  0
 19 27  2  0  0  0
 20 21  2  0  0  0
 21 22  1  0  0  0
 22 23  1  0  0  0
 22 26  2  0  0  0
 23 24  1  0  0  0
 23 28  1  0  0  0
 24 25  2  0  0  0
 25 26  1  0  0  0
 26 27  1  0  0  0
 13 14  1  0  0  0
M  END
> <minimizedAffinity>
-9.08456

$$$$
