CHEMBL4225623


 40 42  0  0  0  0  0  0  0  0999 V2000
  -28.1865   -2.3550   -8.7407 C   0  0  0  0  0  0  0  0  0  0  0  0
  -27.8077   -1.4405   -7.3950 S   0  0  0  0  0  0  0  0  0  0  0  0
  -28.6149   -3.6658   -8.7429 N   0  0  0  0  0  0  0  0  0  0  0  0
  -28.6510   -4.0827   -9.6667 H   0  0  0  0  0  0  0  0  0  0  0  0
  -29.5004   -6.1564   -5.4640 C   0  0  0  0  0  0  0  0  0  0  0  0
  -28.8277   -6.6545   -6.5846 C   0  0  0  0  0  0  0  0  0  0  0  0
  -28.5683   -5.8203   -7.6769 C   0  0  0  0  0  0  0  0  0  0  0  0
  -29.0159   -4.4935   -7.6788 C   0  0  0  0  0  0  0  0  0  0  0  0
  -29.7211   -4.0110   -6.5758 C   0  0  0  0  0  0  0  0  0  0  0  0
  -29.9640   -4.8359   -5.4714 C   0  0  0  0  0  0  0  0  0  0  0  0
  -29.7135   -7.0604   -4.3032 C   0  0  0  0  0  0  0  0  0  0  0  0
  -30.4630   -6.7279   -3.3924 O   0  0  0  0  0  0  0  0  0  0  0  0
  -27.9658   -8.5786   -3.5407 C   0  0  0  0  0  0  0  0  0  0  0  0
  -29.0322   -8.3848   -4.3251 C   0  0  0  0  0  0  0  0  0  0  0  0
  -25.8946   -9.8226   -3.5894 C   0  0  0  0  0  0  0  0  0  0  0  0
  -25.1318   -8.8682   -3.6173 O   0  0  0  0  0  0  0  0  0  0  0  0
  -27.2624   -9.7561   -3.5207 N   0  0  0  0  0  0  0  0  0  0  0  0
  -27.7378  -10.6471   -3.5657 H   0  0  0  0  0  0  0  0  0  0  0  0
  -25.5225  -11.1229   -3.7217 O   0  0  0  0  0  0  0  0  0  0  0  0
  -23.2420  -11.5149   -4.3287 C   0  0  0  0  0  0  0  0  0  0  0  0
  -24.6663  -11.3939   -4.8424 C   0  0  0  0  0  0  0  0  0  0  0  0
  -28.2367   -1.7377   -9.9750 N   0  0  0  0  0  0  0  0  0  0  0  0
  -29.0957   -1.2399  -10.1856 H   0  0  0  0  0  0  0  0  0  0  0  0
  -27.1656   -1.6032  -10.8825 C   0  0  0  0  0  0  0  0  0  0  0  0
  -25.8799   -1.3589  -10.3953 C   0  0  0  0  0  0  0  0  0  0  0  0
  -24.8288   -1.1196  -11.2923 C   0  0  0  0  0  0  0  0  0  0  0  0
  -25.0608   -1.1937  -12.6729 C   0  0  0  0  0  0  0  0  0  0  0  0
  -26.3297   -1.5101  -13.1569 C   0  0  0  0  0  0  0  0  0  0  0  0
  -27.3714   -1.7213  -12.2620 C   0  0  0  0  0  0  0  0  0  0  0  0
  -23.7871   -0.7419  -13.8362 S   0  0  0  0  0  0  0  0  0  0  0  0
  -22.6536   -1.6163  -13.6148 O   0  0  0  0  0  0  0  0  0  0  0  0
  -24.4185   -0.6625  -15.1402 O   0  0  0  0  0  0  0  0  0  0  0  0
  -23.3664    0.8299  -13.4156 N   0  0  0  0  0  0  0  0  0  0  0  0
  -23.2993    0.9136  -12.4021 H   0  0  0  0  0  0  0  0  0  0  0  0
  -22.2155    1.3597  -14.0229 C   0  0  0  0  0  0  0  0  0  0  0  0
  -21.2027    0.5662  -14.5355 C   0  0  0  0  0  0  0  0  0  0  0  0
  -20.1378    1.2048  -15.1652 C   0  0  0  0  0  0  0  0  0  0  0  0
  -20.1208    2.5950  -15.2258 C   0  0  0  0  0  0  0  0  0  0  0  0
  -21.1721    3.2924  -14.6520 C   0  0  0  0  0  0  0  0  0  0  0  0
  -22.2292    2.7024  -14.0547 N   0  0  0  0  0  0  0  0  0  0  0  0
 20 21  1  0  0  0
 21 19  1  0  0  0
 19 15  1  0  0  0
 15 16  2  0  0  0
 15 17  1  0  0  0
 17 13  1  0  0  0
 17 18  1  0  0  0
 13 14  2  0  0  0
 14 11  1  0  0  0
 11 12  2  0  0  0
 11  5  1  0  0  0
  5  6  1  0  0  0
  5 10  2  0  0  0
  6  7  2  0  0  0
  7  8  1  0  0  0
  8  3  1  0  0  0
  8  9  2  0  0  0
  3  1  1  0  0  0
  3  4  1  0  0  0
  1  2  2  0  0  0
  1 22  1  0  0  0
 22 24  1  0  0  0
 22 23  1  0  0  0
 24 25  1  0  0  0
 24 29  2  0  0  0
 25 26  2  0  0  0
 26 27  1  0  0  0
 27 30  1  0  0  0
 27 28  2  0  0  0
 30 31  2  0  0  0
 30 32  2  0  0  0
 30 33  1  0  0  0
 33 35  1  0  0  0
 33 34  1  0  0  0
 35 36  1  0  0  0
 35 40  2  0  0  0
 36 37  2  0  0  0
 37 38  1  0  0  0
 38 39  2  0  0  0
 39 40  1  0  0  0
 28 29  1  0  0  0
  9 10  1  0  0  0
M  END
> <minimizedAffinity>
-9.02981

$$$$
