CHEMBL69827


 34 38  0  0  0  0  0  0  0  0999 V2000
  -16.9892    4.8076  -15.8927 N   0  0  0  0  0  0  0  0  0  0  0  0
  -15.8453    4.0196  -15.9066 C   0  0  0  0  0  0  0  0  0  0  0  0
  -14.7190    4.6468  -16.2961 N   0  0  0  0  0  0  0  0  0  0  0  0
  -13.5701    3.9526  -16.3024 C   0  0  0  0  0  0  0  0  0  0  0  0
  -13.3734    2.6754  -15.9578 N   0  0  0  0  0  0  0  0  0  0  0  0
  -14.5212    2.0810  -15.5783 C   0  0  0  0  0  0  0  0  0  0  0  0
  -15.7839    2.6609  -15.5300 C   0  0  0  0  0  0  0  0  0  0  0  0
  -16.6936    1.6328  -15.0911 C   0  0  0  0  0  0  0  0  0  0  0  0
  -15.9371    0.4914  -14.8845 C   0  0  0  0  0  0  0  0  0  0  0  0
  -14.6264    0.7743  -15.1723 N   0  0  0  0  0  0  0  0  0  0  0  0
  -16.7409    5.7851  -15.9898 H   0  0  0  0  0  0  0  0  0  0  0  0
  -17.6240    4.5937  -15.1334 H   0  0  0  0  0  0  0  0  0  0  0  0
  -13.5536   -0.1928  -15.0663 C   0  0  0  0  0  0  0  0  0  0  0  0
  -13.1601   -0.8782  -16.3812 C   0  0  0  0  0  0  0  0  0  0  0  0
  -12.7930   -2.3137  -16.0041 C   0  0  0  0  0  0  0  0  0  0  0  0
  -11.5194   -2.6545  -16.5371 O   0  0  0  0  0  0  0  0  0  0  0  0
  -12.7951   -2.3784  -14.4699 C   0  0  0  0  0  0  0  0  0  0  0  0
  -11.4821   -2.1045  -13.9676 O   0  0  0  0  0  0  0  0  0  0  0  0
  -13.7989   -1.3163  -14.0524 C   0  0  0  0  0  0  0  0  0  0  0  0
  -10.9063   -2.6917  -15.7744 H   0  0  0  0  0  0  0  0  0  0  0  0
  -11.3241   -1.1458  -13.9543 H   0  0  0  0  0  0  0  0  0  0  0  0
  -18.1420    1.6318  -14.9074 C   0  0  0  0  0  0  0  0  0  0  0  0
  -18.8983    0.5260  -15.2985 C   0  0  0  0  0  0  0  0  0  0  0  0
  -20.2842    0.5225  -15.1668 C   0  0  0  0  0  0  0  0  0  0  0  0
  -20.9228    1.5545  -14.4799 C   0  0  0  0  0  0  0  0  0  0  0  0
  -20.1889    2.6711  -14.0845 C   0  0  0  0  0  0  0  0  0  0  0  0
  -18.8090    2.7171  -14.3152 C   0  0  0  0  0  0  0  0  0  0  0  0
  -22.2619    1.5434  -14.1564 O   0  0  0  0  0  0  0  0  0  0  0  0
  -22.7960    0.4083  -13.5812 C   0  0  0  0  0  0  0  0  0  0  0  0
  -22.4346   -0.0767  -12.3180 C   0  0  0  0  0  0  0  0  0  0  0  0
  -22.9357   -1.2960  -11.8652 C   0  0  0  0  0  0  0  0  0  0  0  0
  -23.8642   -1.9918  -12.6355 C   0  0  0  0  0  0  0  0  0  0  0  0
  -24.2990   -1.4635  -13.8519 C   0  0  0  0  0  0  0  0  0  0  0  0
  -23.7634   -0.2648  -14.3264 C   0  0  0  0  0  0  0  0  0  0  0  0
  1  2  1  0  0  0
  1 11  1  0  0  0
  1 12  1  0  0  0
  2  3  1  0  0  0
  2  7  2  0  0  0
  3  4  2  0  0  0
  4  5  1  0  0  0
  5  6  2  0  0  0
  6  7  1  0  0  0
  6 10  1  0  0  0
  7  8  1  0  0  0
  8 22  1  0  0  0
  8  9  2  0  0  0
 22 23  1  0  0  0
 22 27  2  0  0  0
 23 24  2  0  0  0
 24 25  1  0  0  0
 25 28  1  0  0  0
 25 26  2  0  0  0
 28 29  1  0  0  0
 29 30  1  0  0  0
 29 34  2  0  0  0
 30 31  2  0  0  0
 31 32  1  0  0  0
 32 33  2  0  0  0
 33 34  1  0  0  0
 26 27  1  0  0  0
  9 10  1  0  0  0
 10 13  1  0  0  0
 13 14  1  0  0  0
 13 19  1  0  0  0
 14 15  1  0  0  0
 15 16  1  0  0  0
 15 17  1  0  0  0
 16 20  1  0  0  0
 17 18  1  0  0  0
 17 19  1  0  0  0
 18 21  1  0  0  0
M  END
> <minimizedAffinity>
-9.47374

$$$$
