CHEMBL3648108


 32 33  0  0  0  0  0  0  0  0999 V2000
  -29.8732   -4.0576   -5.3981 C   0  0  0  0  0  0  0  0  0  0  0  0
  -30.3287   -5.0446   -6.2013 N   0  0  0  0  0  0  0  0  0  0  0  0
  -30.5599   -6.2491   -5.6516 C   0  0  0  0  0  0  0  0  0  0  0  0
  -30.3511   -6.5149   -4.3495 N   0  0  0  0  0  0  0  0  0  0  0  0
  -29.8748   -5.5282   -3.5789 C   0  0  0  0  0  0  0  0  0  0  0  0
  -29.5894   -4.2784   -4.0564 C   0  0  0  0  0  0  0  0  0  0  0  0
  -28.9667   -2.9418   -2.8767 Br  0  0  0  0  0  0  0  0  0  0  0  0
  -29.7529   -2.7678   -5.9034 N   0  0  0  0  0  0  0  0  0  0  0  0
  -30.3755   -2.0991   -5.4517 H   0  0  0  0  0  0  0  0  0  0  0  0
  -28.2097   -2.5140   -7.7919 C   0  0  0  0  0  0  0  0  0  0  0  0
  -28.4594   -2.2129   -6.3067 C   0  0  0  0  0  0  0  0  0  0  0  0
  -28.4845   -0.6680   -6.0015 C   0  0  0  0  0  0  0  0  0  0  0  0
  -29.8443   -0.1981   -5.4707 C   0  0  0  0  0  0  0  0  0  0  0  0
  -27.3823   -0.2339   -5.0238 C   0  0  0  0  0  0  0  0  0  0  0  0
  -28.2324    0.0428   -7.2323 O   0  0  0  0  0  0  0  0  0  0  0  0
  -29.0129   -0.0640   -7.8034 H   0  0  0  0  0  0  0  0  0  0  0  0
  -31.0065   -7.2695   -6.4963 N   0  0  0  0  0  0  0  0  0  0  0  0
  -32.0087   -7.3622   -6.4707 H   0  0  0  0  0  0  0  0  0  0  0  0
  -30.2720   -8.0473   -7.4003 C   0  0  0  0  0  0  0  0  0  0  0  0
  -28.9600   -7.7073   -7.7645 C   0  0  0  0  0  0  0  0  0  0  0  0
  -28.2839   -8.3743   -8.7845 C   0  0  0  0  0  0  0  0  0  0  0  0
  -28.9237   -9.4101   -9.4603 C   0  0  0  0  0  0  0  0  0  0  0  0
  -30.2105   -9.8073   -9.0865 C   0  0  0  0  0  0  0  0  0  0  0  0
  -30.8810   -9.1223   -8.0633 C   0  0  0  0  0  0  0  0  0  0  0  0
  -28.0955  -10.2166  -10.8196 S   0  0  0  0  0  0  0  0  0  0  0  0
  -29.0693  -10.1892  -12.0127 N   0  0  0  0  0  0  0  0  0  0  0  0
  -26.7537   -9.6636  -10.8731 O   0  0  0  0  0  0  0  0  0  0  0  0
  -29.2130   -9.2338  -12.3435 H   0  0  0  0  0  0  0  0  0  0  0  0
  -27.9554  -11.8944  -10.2479 C   0  0  0  0  0  0  0  0  0  0  0  0
  -27.2416  -11.9506   -8.9128 C   0  0  0  0  0  0  0  0  0  0  0  0
  -25.8899  -11.5203   -9.0662 O   0  0  0  0  0  0  0  0  0  0  0  0
  -25.3936  -12.2442   -9.4857 H   0  0  0  0  0  0  0  0  0  0  0  0
 11 12  1  0  0  0
 11  8  1  0  0  0
 11 10  1  0  0  0
  8  1  1  0  0  0
  8  9  1  0  0  0
  1  2  1  0  0  0
  1  6  2  0  0  0
  2  3  2  0  0  0
  3 17  1  0  0  0
  3  4  1  0  0  0
 17 19  1  0  0  0
 17 18  1  0  0  0
 19 20  1  0  0  0
 19 24  2  0  0  0
 20 21  2  0  0  0
 21 22  1  0  0  0
 22 25  1  0  0  0
 22 23  2  0  0  0
 25 26  2  0  0  0
 25 27  2  0  0  0
 25 29  1  0  0  0
 26 28  1  0  0  0
 29 30  1  0  0  0
 30 31  1  0  0  0
 31 32  1  0  0  0
 23 24  1  0  0  0
  4  5  2  0  0  0
  5  6  1  0  0  0
  6  7  1  0  0  0
 12 13  1  0  0  0
 12 14  1  0  0  0
 12 15  1  0  0  0
 15 16  1  0  0  0
M  END
> <minimizedAffinity>
-7.43193

$$$$
