CHEMBL3612227


 28 31  0  0  0  0  0  0  0  0999 V2000
  -15.3028   -2.4615  -12.3605 C   0  0  0  0  0  0  0  0  0  0  0  0
  -15.8839   -2.3935  -11.0899 C   0  0  0  0  0  0  0  0  0  0  0  0
  -15.3295   -3.0846  -10.0099 C   0  0  0  0  0  0  0  0  0  0  0  0
  -14.1968   -3.8708  -10.1936 C   0  0  0  0  0  0  0  0  0  0  0  0
  -13.6262   -3.9849  -11.4625 C   0  0  0  0  0  0  0  0  0  0  0  0
  -14.1707   -3.2652  -12.5369 C   0  0  0  0  0  0  0  0  0  0  0  0
  -16.1260    0.3395  -12.6089 O   0  0  0  0  0  0  0  0  0  0  0  0
  -16.2196   -0.4511  -13.5403 C   0  0  0  0  0  0  0  0  0  0  0  0
  -16.7901   -0.1471  -14.7677 N   0  0  0  0  0  0  0  0  0  0  0  0
  -15.8041   -1.7727  -13.4914 N   0  0  0  0  0  0  0  0  0  0  0  0
  -16.9655   -0.9182  -15.3905 H   0  0  0  0  0  0  0  0  0  0  0  0
  -15.8070   -2.2847  -14.3592 H   0  0  0  0  0  0  0  0  0  0  0  0
  -17.3815    1.0876  -15.1270 C   0  0  0  0  0  0  0  0  0  0  0  0
  -16.6722    2.1594  -15.6774 C   0  0  0  0  0  0  0  0  0  0  0  0
  -17.3073    3.3748  -15.9456 C   0  0  0  0  0  0  0  0  0  0  0  0
  -18.6637    3.5282  -15.6769 C   0  0  0  0  0  0  0  0  0  0  0  0
  -19.3893    2.4585  -15.1586 C   0  0  0  0  0  0  0  0  0  0  0  0
  -18.7538    1.2410  -14.8938 C   0  0  0  0  0  0  0  0  0  0  0  0
  -12.1902   -5.0149  -11.7001 S   0  0  0  0  0  0  0  0  0  0  0  0
  -12.9327   -6.5318  -12.2631 C   0  0  0  0  0  0  0  0  0  0  0  0
  -14.2188   -6.5572  -12.8046 C   0  0  0  0  0  0  0  0  0  0  0  0
  -14.7702   -7.7683  -13.1742 C   0  0  0  0  0  0  0  0  0  0  0  0
  -14.1672   -8.9621  -13.0521 N   0  0  0  0  0  0  0  0  0  0  0  0
  -12.9158   -8.9427  -12.5207 C   0  0  0  0  0  0  0  0  0  0  0  0
  -12.1203  -10.1051  -12.3013 C   0  0  0  0  0  0  0  0  0  0  0  0
  -10.8946   -9.8084  -11.7551 C   0  0  0  0  0  0  0  0  0  0  0  0
  -10.6986   -8.1326  -11.5007 S   0  0  0  0  0  0  0  0  0  0  0  0
  -12.2704   -7.7680  -12.1213 C   0  0  0  0  0  0  0  0  0  0  0  0
  7  8  2  0  0  0
  8  9  1  0  0  0
  8 10  1  0  0  0
  9 13  1  0  0  0
  9 11  1  0  0  0
 13 14  1  0  0  0
 13 18  2  0  0  0
 14 15  2  0  0  0
 15 16  1  0  0  0
 16 17  2  0  0  0
 17 18  1  0  0  0
 10  1  1  0  0  0
 10 12  1  0  0  0
  1  2  1  0  0  0
  1  6  2  0  0  0
  2  3  2  0  0  0
  3  4  1  0  0  0
  4  5  2  0  0  0
  5 19  1  0  0  0
  5  6  1  0  0  0
 19 20  1  0  0  0
 20 21  1  0  0  0
 20 28  2  0  0  0
 21 22  2  0  0  0
 22 23  1  0  0  0
 23 24  2  0  0  0
 24 25  1  0  0  0
 24 28  1  0  0  0
 25 26  2  0  0  0
 26 27  1  0  0  0
 27 28  1  0  0  0
M  END
> <minimizedAffinity>
-9.10972

$$$$
