CHEMBL4078084


 29 32  0  0  0  0  0  0  0  0999 V2000
  -28.9837   -7.4409   -7.2055 C   0  0  0  0  0  0  0  0  0  0  0  0
  -28.4398   -7.4840   -5.9098 C   0  0  0  0  0  0  0  0  0  0  0  0
  -28.2956   -6.3302   -5.1270 C   0  0  0  0  0  0  0  0  0  0  0  0
  -28.6355   -5.0767   -5.6314 C   0  0  0  0  0  0  0  0  0  0  0  0
  -29.1967   -5.0115   -6.9043 C   0  0  0  0  0  0  0  0  0  0  0  0
  -29.4043   -6.1821   -7.6527 C   0  0  0  0  0  0  0  0  0  0  0  0
  -32.5109   -8.2290   -6.9888 C   0  0  0  0  0  0  0  0  0  0  0  0
  -31.7860   -9.2641   -7.7716 C   0  0  0  0  0  0  0  0  0  0  0  0
  -32.5175  -10.2975   -8.2217 N   0  0  0  0  0  0  0  0  0  0  0  0
  -31.6396  -11.0321   -8.9137 N   0  0  0  0  0  0  0  0  0  0  0  0
  -30.3777  -10.5302   -8.9192 C   0  0  0  0  0  0  0  0  0  0  0  0
  -29.3456  -11.0961   -9.5689 N   0  0  0  0  0  0  0  0  0  0  0  0
  -28.2008  -10.4116   -9.4237 C   0  0  0  0  0  0  0  0  0  0  0  0
  -28.0574   -9.2515   -8.6785 C   0  0  0  0  0  0  0  0  0  0  0  0
  -29.1604   -8.6760   -8.0010 C   0  0  0  0  0  0  0  0  0  0  0  0
  -30.3997   -9.3650   -8.1500 C   0  0  0  0  0  0  0  0  0  0  0  0
  -31.9536  -11.8754   -9.3739 H   0  0  0  0  0  0  0  0  0  0  0  0
  -28.4618   -3.8751   -4.9086 N   0  0  0  0  0  0  0  0  0  0  0  0
  -28.0989   -2.6664   -5.4558 C   0  0  0  0  0  0  0  0  0  0  0  0
  -27.9581   -2.4223   -6.6455 O   0  0  0  0  0  0  0  0  0  0  0  0
  -27.9459   -1.6816   -4.5006 N   0  0  0  0  0  0  0  0  0  0  0  0
  -28.8194   -3.8449   -3.9649 H   0  0  0  0  0  0  0  0  0  0  0  0
  -27.5656   -1.9731   -3.6110 H   0  0  0  0  0  0  0  0  0  0  0  0
  -27.4862   -0.4018   -4.9921 C   0  0  0  0  0  0  0  0  0  0  0  0
  -28.6129    0.4184   -5.4806 C   0  0  0  0  0  0  0  0  0  0  0  0
  -29.9198    0.5564   -5.0634 C   0  0  0  0  0  0  0  0  0  0  0  0
  -30.5545    1.3944   -6.0095 C   0  0  0  0  0  0  0  0  0  0  0  0
  -29.5913    1.7280   -6.9323 C   0  0  0  0  0  0  0  0  0  0  0  0
  -28.4071    1.1488   -6.6138 O   0  0  0  0  0  0  0  0  0  0  0  0
  7  8  1  0  0  0
  8  9  2  0  0  0
  8 16  1  0  0  0
  9 10  1  0  0  0
 10 11  1  0  0  0
 10 17  1  0  0  0
 11 12  1  0  0  0
 11 16  2  0  0  0
 12 13  2  0  0  0
 13 14  1  0  0  0
 14 15  2  0  0  0
 15  1  1  0  0  0
 15 16  1  0  0  0
  1  2  1  0  0  0
  1  6  2  0  0  0
  2  3  2  0  0  0
  3  4  1  0  0  0
  4 18  1  0  0  0
  4  5  2  0  0  0
 18 19  1  0  0  0
 18 22  1  0  0  0
 19 20  2  0  0  0
 19 21  1  0  0  0
 21 24  1  0  0  0
 21 23  1  0  0  0
 24 25  1  0  0  0
 25 26  2  0  0  0
 25 29  1  0  0  0
 26 27  1  0  0  0
 27 28  2  0  0  0
 28 29  1  0  0  0
  5  6  1  0  0  0
M  END
> <minimizedAffinity>
-8.95382

$$$$
