CHEMBL312526


 27 30  0  0  0  0  0  0  0  0999 V2000
  -29.3763   -3.6823   -6.9655 C   0  0  0  0  0  0  0  0  0  0  0  0
  -28.7709   -4.1808   -8.0630 N   0  0  0  0  0  0  0  0  0  0  0  0
  -27.8527   -3.4356   -8.7327 N   0  0  0  0  0  0  0  0  0  0  0  0
  -27.5503   -2.1781   -8.3417 C   0  0  0  0  0  0  0  0  0  0  0  0
  -28.1456   -1.6153   -7.1934 C   0  0  0  0  0  0  0  0  0  0  0  0
  -27.9105   -0.2845   -6.7685 C   0  0  0  0  0  0  0  0  0  0  0  0
  -28.5043    0.2320   -5.6168 C   0  0  0  0  0  0  0  0  0  0  0  0
  -29.3371   -0.5710   -4.8535 C   0  0  0  0  0  0  0  0  0  0  0  0
  -29.6161   -1.8712   -5.2717 C   0  0  0  0  0  0  0  0  0  0  0  0
  -29.0579   -2.4058   -6.4569 C   0  0  0  0  0  0  0  0  0  0  0  0
  -26.6071   -1.4279   -9.1008 N   0  0  0  0  0  0  0  0  0  0  0  0
  -25.7091   -1.4548   -8.6306 H   0  0  0  0  0  0  0  0  0  0  0  0
  -26.4935   -1.5284  -10.5066 C   0  0  0  0  0  0  0  0  0  0  0  0
  -25.2319   -1.4919  -11.1213 C   0  0  0  0  0  0  0  0  0  0  0  0
  -25.1074   -1.5067  -12.5102 C   0  0  0  0  0  0  0  0  0  0  0  0
  -26.2494   -1.5707  -13.2996 C   0  0  0  0  0  0  0  0  0  0  0  0
  -26.1051   -1.5352  -15.0134 Cl  0  0  0  0  0  0  0  0  0  0  0  0
  -27.5098   -1.6500  -12.7090 C   0  0  0  0  0  0  0  0  0  0  0  0
  -27.6314   -1.6387  -11.3144 C   0  0  0  0  0  0  0  0  0  0  0  0
  -30.5342   -4.5148   -6.4609 C   0  0  0  0  0  0  0  0  0  0  0  0
  -27.5154   -8.0902   -4.5707 C   0  0  0  0  0  0  0  0  0  0  0  0
  -28.6847   -7.1607   -4.4436 C   0  0  0  0  0  0  0  0  0  0  0  0
  -28.9928   -6.2566   -5.4562 C   0  0  0  0  0  0  0  0  0  0  0  0
  -30.1279   -5.4419   -5.3331 C   0  0  0  0  0  0  0  0  0  0  0  0
  -30.8896   -5.5442   -4.1691 C   0  0  0  0  0  0  0  0  0  0  0  0
  -30.5002   -6.4575   -3.2025 C   0  0  0  0  0  0  0  0  0  0  0  0
  -29.4239   -7.2644   -3.3146 N   0  0  0  0  0  0  0  0  0  0  0  0
 21 22  1  0  0  0
 22 23  1  0  0  0
 22 27  2  0  0  0
 23 24  2  0  0  0
 24 20  1  0  0  0
 24 25  1  0  0  0
 20  1  1  0  0  0
  1  2  1  0  0  0
  1 10  2  0  0  0
  2  3  2  0  0  0
  3  4  1  0  0  0
  4 11  1  0  0  0
  4  5  2  0  0  0
 11 13  1  0  0  0
 11 12  1  0  0  0
 13 14  1  0  0  0
 13 19  2  0  0  0
 14 15  2  0  0  0
 15 16  1  0  0  0
 16 17  1  0  0  0
 16 18  2  0  0  0
 18 19  1  0  0  0
  5  6  1  0  0  0
  5 10  1  0  0  0
  6  7  2  0  0  0
  7  8  1  0  0  0
  8  9  2  0  0  0
  9 10  1  0  0  0
 25 26  2  0  0  0
 26 27  1  0  0  0
M  END
> <minimizedAffinity>
-9.00631

$$$$
