CHEMBL597596


 30 33  0  0  0  0  0  0  0  0999 V2000
  -30.1350   -7.5625   -6.7989 C   0  0  0  0  0  0  0  0  0  0  0  0
  -29.1463   -7.3453   -7.7511 C   0  0  0  0  0  0  0  0  0  0  0  0
  -28.6300   -6.0559   -7.9423 C   0  0  0  0  0  0  0  0  0  0  0  0
  -29.0408   -4.9627   -7.1504 C   0  0  0  0  0  0  0  0  0  0  0  0
  -30.0126   -5.2143   -6.1574 C   0  0  0  0  0  0  0  0  0  0  0  0
  -30.5889   -6.4873   -6.0359 C   0  0  0  0  0  0  0  0  0  0  0  0
  -30.4637   -4.2611   -5.2221 N   0  0  0  0  0  0  0  0  0  0  0  0
  -29.7399   -3.2587   -4.6363 C   0  0  0  0  0  0  0  0  0  0  0  0
  -30.2672   -2.5386   -3.7854 O   0  0  0  0  0  0  0  0  0  0  0  0
  -28.2765   -3.1253   -4.9863 C   0  0  0  0  0  0  0  0  0  0  0  0
  -28.1191   -2.7490   -6.4136 C   0  0  0  0  0  0  0  0  0  0  0  0
  -27.6642   -1.5145   -6.8174 C   0  0  0  0  0  0  0  0  0  0  0  0
  -27.5725   -1.1326   -8.1034 N   0  0  0  0  0  0  0  0  0  0  0  0
  -27.9277   -2.0352   -9.0211 C   0  0  0  0  0  0  0  0  0  0  0  0
  -28.3686   -3.2721   -8.7156 N   0  0  0  0  0  0  0  0  0  0  0  0
  -28.4853   -3.6188   -7.4201 C   0  0  0  0  0  0  0  0  0  0  0  0
  -31.3583   -4.4170   -4.7714 H   0  0  0  0  0  0  0  0  0  0  0  0
  -31.6153   -9.3019   -7.4601 C   0  0  0  0  0  0  0  0  0  0  0  0
  -30.7238   -8.7578   -6.4954 O   0  0  0  0  0  0  0  0  0  0  0  0
  -27.8477   -1.6476  -10.3567 N   0  0  0  0  0  0  0  0  0  0  0  0
  -28.6134   -1.0435  -10.6097 H   0  0  0  0  0  0  0  0  0  0  0  0
  -26.7135   -1.6405  -11.1785 C   0  0  0  0  0  0  0  0  0  0  0  0
  -25.4370   -1.5838  -10.6058 C   0  0  0  0  0  0  0  0  0  0  0  0
  -24.2997   -1.4486  -11.4115 C   0  0  0  0  0  0  0  0  0  0  0  0
  -24.4358   -1.3854  -12.7986 C   0  0  0  0  0  0  0  0  0  0  0  0
  -23.3320   -1.2199  -13.5880 O   0  0  0  0  0  0  0  0  0  0  0  0
  -25.6964   -1.4809  -13.3835 C   0  0  0  0  0  0  0  0  0  0  0  0
  -25.9193   -1.4189  -15.0932 Cl  0  0  0  0  0  0  0  0  0  0  0  0
  -26.8226   -1.6073  -12.5741 C   0  0  0  0  0  0  0  0  0  0  0  0
  -22.5633   -1.0301  -13.0270 H   0  0  0  0  0  0  0  0  0  0  0  0
 18 19  1  0  0  0
 19  1  1  0  0  0
  1  2  1  0  0  0
  1  6  2  0  0  0
  2  3  2  0  0  0
  3  4  1  0  0  0
  4  5  2  0  0  0
  4 16  1  0  0  0
  5  6  1  0  0  0
  5  7  1  0  0  0
  7  8  1  0  0  0
  7 17  1  0  0  0
  8  9  2  0  0  0
  8 10  1  0  0  0
 10 11  1  0  0  0
 11 12  1  0  0  0
 11 16  2  0  0  0
 12 13  2  0  0  0
 13 14  1  0  0  0
 14 20  1  0  0  0
 14 15  2  0  0  0
 20 22  1  0  0  0
 20 21  1  0  0  0
 22 23  1  0  0  0
 22 29  2  0  0  0
 23 24  2  0  0  0
 24 25  1  0  0  0
 25 26  1  0  0  0
 25 27  2  0  0  0
 26 30  1  0  0  0
 27 28  1  0  0  0
 27 29  1  0  0  0
 15 16  1  0  0  0
M  END
> <minimizedAffinity>
-9.53748

$$$$
