CHEMBL4074518


 31 34  0  0  0  0  0  0  0  0999 V2000
  -19.7859    2.0835  -14.8196 C   0  0  0  0  0  0  0  0  0  0  0  0
  -19.0640    0.9149  -15.0634 C   0  0  0  0  0  0  0  0  0  0  0  0
  -17.7299    0.9582  -15.4677 C   0  0  0  0  0  0  0  0  0  0  0  0
  -17.0387    2.1627  -15.5616 C   0  0  0  0  0  0  0  0  0  0  0  0
  -17.8113    3.3375  -15.4662 C   0  0  0  0  0  0  0  0  0  0  0  0
  -19.1768    3.3012  -15.1226 C   0  0  0  0  0  0  0  0  0  0  0  0
  -15.5751    2.1859  -15.7461 C   0  0  0  0  0  0  0  0  0  0  0  0
  -14.9926    2.8715  -16.8322 C   0  0  0  0  0  0  0  0  0  0  0  0
  -13.6136    2.9284  -16.9697 C   0  0  0  0  0  0  0  0  0  0  0  0
  -12.7248    2.3686  -16.1299 N   0  0  0  0  0  0  0  0  0  0  0  0
  -13.3082    1.7158  -15.1104 C   0  0  0  0  0  0  0  0  0  0  0  0
  -12.6297    1.0687  -14.1268 N   0  0  0  0  0  0  0  0  0  0  0  0
  -13.4146    0.4810  -13.2151 N   0  0  0  0  0  0  0  0  0  0  0  0
  -14.6595    0.7804  -13.6220 C   0  0  0  0  0  0  0  0  0  0  0  0
  -15.7750    0.2575  -12.7858 C   0  0  0  0  0  0  0  0  0  0  0  0
  -14.6668    1.5639  -14.8350 C   0  0  0  0  0  0  0  0  0  0  0  0
  -11.6252    0.9990  -14.0297 H   0  0  0  0  0  0  0  0  0  0  0  0
  -23.0988    1.1138  -13.6163 N   0  0  0  0  0  0  0  0  0  0  0  0
  -21.8421    0.9004  -14.1620 C   0  0  0  0  0  0  0  0  0  0  0  0
  -21.4309   -0.1876  -14.5248 O   0  0  0  0  0  0  0  0  0  0  0  0
  -21.0857    2.0701  -14.2505 N   0  0  0  0  0  0  0  0  0  0  0  0
  -23.4546    2.0582  -13.6386 H   0  0  0  0  0  0  0  0  0  0  0  0
  -21.3087    2.7979  -13.5898 H   0  0  0  0  0  0  0  0  0  0  0  0
  -25.5488   -1.1021  -11.8825 C   0  0  0  0  0  0  0  0  0  0  0  0
  -26.0579   -1.8391  -12.9606 C   0  0  0  0  0  0  0  0  0  0  0  0
  -25.5335   -1.6678  -14.2328 C   0  0  0  0  0  0  0  0  0  0  0  0
  -24.5195   -0.7345  -14.4457 C   0  0  0  0  0  0  0  0  0  0  0  0
  -24.0456    0.0729  -13.4045 C   0  0  0  0  0  0  0  0  0  0  0  0
  -24.5430   -0.1427  -12.1138 C   0  0  0  0  0  0  0  0  0  0  0  0
  -27.6093   -1.5961  -10.5291 C   0  0  0  0  0  0  0  0  0  0  0  0
  -26.1128   -1.3278  -10.5038 C   0  0  0  0  0  0  0  0  0  0  0  0
 30 31  1  0  0  0
 31 24  1  0  0  0
 24 25  1  0  0  0
 24 29  2  0  0  0
 25 26  2  0  0  0
 26 27  1  0  0  0
 27 28  2  0  0  0
 28 18  1  0  0  0
 28 29  1  0  0  0
 18 19  1  0  0  0
 18 22  1  0  0  0
 19 20  2  0  0  0
 19 21  1  0  0  0
 21  1  1  0  0  0
 21 23  1  0  0  0
  1  2  1  0  0  0
  1  6  2  0  0  0
  2  3  2  0  0  0
  3  4  1  0  0  0
  4  7  1  0  0  0
  4  5  2  0  0  0
  7  8  1  0  0  0
  7 16  2  0  0  0
  8  9  2  0  0  0
  9 10  1  0  0  0
 10 11  2  0  0  0
 11 12  1  0  0  0
 11 16  1  0  0  0
 12 13  1  0  0  0
 12 17  1  0  0  0
 13 14  2  0  0  0
 14 15  1  0  0  0
 14 16  1  0  0  0
  5  6  1  0  0  0
M  END
> <minimizedAffinity>
-10.05802

$$$$
