CHEMBL3930655


 38 41  0  0  0  0  0  0  0  0999 V2000
  -30.4987   -7.0192   -5.6115 C   0  0  0  0  0  0  0  0  0  0  0  0
  -29.5780   -8.0729   -5.6334 C   0  0  0  0  0  0  0  0  0  0  0  0
  -29.8140   -9.2210   -6.3995 C   0  0  0  0  0  0  0  0  0  0  0  0
  -30.9837   -9.3388   -7.1459 C   0  0  0  0  0  0  0  0  0  0  0  0
  -31.9465   -8.3339   -7.0399 C   0  0  0  0  0  0  0  0  0  0  0  0
  -33.1267   -8.4416   -7.6672 F   0  0  0  0  0  0  0  0  0  0  0  0
  -31.7041   -7.1744   -6.2993 C   0  0  0  0  0  0  0  0  0  0  0  0
  -28.8175   -4.7964   -6.4479 O   0  0  0  0  0  0  0  0  0  0  0  0
  -29.4754   -4.7577   -5.4159 C   0  0  0  0  0  0  0  0  0  0  0  0
  -30.2704   -5.7900   -4.9473 N   0  0  0  0  0  0  0  0  0  0  0  0
  -29.5461   -3.6451   -4.5949 N   0  0  0  0  0  0  0  0  0  0  0  0
  -30.9027   -5.5546   -4.1964 H   0  0  0  0  0  0  0  0  0  0  0  0
  -29.7279   -3.7976   -3.6112 H   0  0  0  0  0  0  0  0  0  0  0  0
  -29.0821   -2.3543   -4.9442 C   0  0  0  0  0  0  0  0  0  0  0  0
  -29.9459   -1.2924   -5.2348 C   0  0  0  0  0  0  0  0  0  0  0  0
  -29.4489   -0.0146   -5.5488 C   0  0  0  0  0  0  0  0  0  0  0  0
  -28.0625    0.1907   -5.5723 C   0  0  0  0  0  0  0  0  0  0  0  0
  -27.1914   -0.8581   -5.2716 C   0  0  0  0  0  0  0  0  0  0  0  0
  -27.7057   -2.1140   -4.9533 C   0  0  0  0  0  0  0  0  0  0  0  0
  -26.8557   -3.1107   -4.6598 F   0  0  0  0  0  0  0  0  0  0  0  0
  -30.4023    1.1200   -5.8504 C   0  0  0  0  0  0  0  0  0  0  0  0
  -31.6241    0.7133   -6.2918 F   0  0  0  0  0  0  0  0  0  0  0  0
  -30.6441    1.8886   -4.7516 F   0  0  0  0  0  0  0  0  0  0  0  0
  -29.9249    1.9686   -6.8024 F   0  0  0  0  0  0  0  0  0  0  0  0
  -31.1196  -10.4973   -7.8749 O   0  0  0  0  0  0  0  0  0  0  0  0
  -30.0688  -10.9772   -8.6270 C   0  0  0  0  0  0  0  0  0  0  0  0
  -29.2629  -12.0535   -8.2750 C   0  0  0  0  0  0  0  0  0  0  0  0
  -28.2212  -12.3757   -9.1177 C   0  0  0  0  0  0  0  0  0  0  0  0
  -27.9858  -11.7471  -10.2829 N   0  0  0  0  0  0  0  0  0  0  0  0
  -28.8053  -10.7522  -10.6572 C   0  0  0  0  0  0  0  0  0  0  0  0
  -29.8614  -10.3379   -9.8537 C   0  0  0  0  0  0  0  0  0  0  0  0
  -28.6056  -10.1114  -11.8915 N   0  0  0  0  0  0  0  0  0  0  0  0
  -27.4354   -9.4697  -12.2428 C   0  0  0  0  0  0  0  0  0  0  0  0
  -26.4210   -9.3428  -11.5718 O   0  0  0  0  0  0  0  0  0  0  0  0
  -29.3670  -10.1271  -12.5499 H   0  0  0  0  0  0  0  0  0  0  0  0
  -27.4594   -8.8749  -13.6207 C   0  0  0  0  0  0  0  0  0  0  0  0
  -27.6222   -9.7919  -14.8142 C   0  0  0  0  0  0  0  0  0  0  0  0
  -26.2972   -9.1367  -14.5549 C   0  0  0  0  0  0  0  0  0  0  0  0
  8  9  2  0  0  0
  9 10  1  0  0  0
  9 11  1  0  0  0
 10  1  1  0  0  0
 10 12  1  0  0  0
  1  2  1  0  0  0
  1  7  2  0  0  0
  2  3  2  0  0  0
  3  4  1  0  0  0
  4 25  1  0  0  0
  4  5  2  0  0  0
 25 26  1  0  0  0
 26 27  1  0  0  0
 26 31  2  0  0  0
 27 28  2  0  0  0
 28 29  1  0  0  0
 29 30  2  0  0  0
 30 32  1  0  0  0
 30 31  1  0  0  0
 32 33  1  0  0  0
 32 35  1  0  0  0
 33 34  2  0  0  0
 33 36  1  0  0  0
 36 37  1  0  0  0
 36 38  1  0  0  0
 37 38  1  0  0  0
  5  6  1  0  0  0
  5  7  1  0  0  0
 11 14  1  0  0  0
 11 13  1  0  0  0
 14 15  1  0  0  0
 14 19  2  0  0  0
 15 16  2  0  0  0
 16 21  1  0  0  0
 16 17  1  0  0  0
 21 22  1  0  0  0
 21 23  1  0  0  0
 21 24  1  0  0  0
 17 18  2  0  0  0
 18 19  1  0  0  0
 19 20  1  0  0  0
M  END
> <minimizedAffinity>
-9.15584

$$$$
