CHEMBL258222


 38 43  0  0  0  0  0  0  0  0999 V2000
  -14.7308   -2.1685  -12.7303 C   0  0  0  0  0  0  0  0  0  0  0  0
  -15.7841   -1.3619  -12.3173 C   0  0  0  0  0  0  0  0  0  0  0  0
  -16.1523   -0.3014  -13.0727 C   0  0  0  0  0  0  0  0  0  0  0  0
  -15.5291   -0.0605  -14.2794 C   0  0  0  0  0  0  0  0  0  0  0  0
  -14.3894   -0.7752  -14.7395 C   0  0  0  0  0  0  0  0  0  0  0  0
  -13.9729   -1.8563  -13.8902 C   0  0  0  0  0  0  0  0  0  0  0  0
  -14.0294   -0.0865  -15.9069 C   0  0  0  0  0  0  0  0  0  0  0  0
  -12.8349   -0.1228  -16.6781 C   0  0  0  0  0  0  0  0  0  0  0  0
  -12.5754    0.9381  -17.6722 C   0  0  0  0  0  0  0  0  0  0  0  0
  -13.4497    2.0455  -17.9618 C   0  0  0  0  0  0  0  0  0  0  0  0
  -14.7045    1.8615  -17.2924 C   0  0  0  0  0  0  0  0  0  0  0  0
  -14.9155    0.8702  -16.2809 C   0  0  0  0  0  0  0  0  0  0  0  0
  -15.8219    0.9281  -15.1984 N   0  0  0  0  0  0  0  0  0  0  0  0
  -15.5668    3.1126  -17.1399 C   0  0  0  0  0  0  0  0  0  0  0  0
  -15.0639    4.5025  -16.7475 C   0  0  0  0  0  0  0  0  0  0  0  0
  -13.6258    4.6081  -17.2466 C   0  0  0  0  0  0  0  0  0  0  0  0
  -13.2886    5.8377  -17.6491 N   0  0  0  0  0  0  0  0  0  0  0  0
  -13.8925    5.7717  -18.8539 N   0  0  0  0  0  0  0  0  0  0  0  0
  -15.0150    6.7103  -19.0204 C   0  0  0  0  0  0  0  0  0  0  0  0
  -13.7269    4.4073  -19.3197 C   0  0  0  0  0  0  0  0  0  0  0  0
  -13.1633    3.6105  -18.2417 C   0  0  0  0  0  0  0  0  0  0  0  0
  -11.3390    0.4941  -18.3203 C   0  0  0  0  0  0  0  0  0  0  0  0
  -10.7101    0.9380  -19.3012 O   0  0  0  0  0  0  0  0  0  0  0  0
  -10.9125   -0.6620  -17.6606 N   0  0  0  0  0  0  0  0  0  0  0  0
  -11.7678   -1.1466  -16.5961 C   0  0  0  0  0  0  0  0  0  0  0  0
  -10.1318   -1.1980  -18.0302 H   0  0  0  0  0  0  0  0  0  0  0  0
  -15.3929   -3.5057  -10.6473 C   0  0  0  0  0  0  0  0  0  0  0  0
  -14.5473   -3.3841  -11.8827 C   0  0  0  0  0  0  0  0  0  0  0  0
  -13.6732   -4.2651  -12.2908 N   0  0  0  0  0  0  0  0  0  0  0  0
  -13.5974   -5.3763  -11.4550 O   0  0  0  0  0  0  0  0  0  0  0  0
  -13.0257   -6.4581  -12.1978 C   0  0  0  0  0  0  0  0  0  0  0  0
  -14.0179   -7.6207  -12.1640 C   0  0  0  0  0  0  0  0  0  0  0  0
  -15.1437   -7.3994  -13.1773 C   0  0  0  0  0  0  0  0  0  0  0  0
  -13.3204   -8.9541  -12.4137 C   0  0  0  0  0  0  0  0  0  0  0  0
  -16.5774    2.1290  -14.9217 C   0  0  0  0  0  0  0  0  0  0  0  0
  -18.0254    2.4145  -14.5928 C   0  0  0  0  0  0  0  0  0  0  0  0
  -18.4218    3.6643  -15.4281 C   0  0  0  0  0  0  0  0  0  0  0  0
  -18.9095    1.2490  -14.9882 C   0  0  0  0  0  0  0  0  0  0  0  0
 27 28  1  0  0  0
 28 29  2  0  0  0
 28  1  1  0  0  0
 29 30  1  0  0  0
 30 31  1  0  0  0
 31 32  1  0  0  0
 32 33  1  0  0  0
 32 34  1  0  0  0
  1  2  1  0  0  0
  1  6  2  0  0  0
  2  3  2  0  0  0
  3  4  1  0  0  0
  4  5  2  0  0  0
  4 13  1  0  0  0
  5  6  1  0  0  0
  5  7  1  0  0  0
  7  8  1  0  0  0
  7 12  2  0  0  0
  8  9  2  0  0  0
  8 25  1  0  0  0
  9 10  1  0  0  0
  9 22  1  0  0  0
 10 11  2  0  0  0
 10 21  1  0  0  0
 11 12  1  0  0  0
 11 14  1  0  0  0
 12 13  1  0  0  0
 13 35  1  0  0  0
 35 36  1  0  0  0
 36 37  1  0  0  0
 36 38  1  0  0  0
 14 15  1  0  0  0
 15 16  1  0  0  0
 16 17  2  0  0  0
 16 21  1  0  0  0
 17 18  1  0  0  0
 18 19  1  0  0  0
 18 20  1  0  0  0
 20 21  2  0  0  0
 22 23  2  0  0  0
 22 24  1  0  0  0
 24 25  1  0  0  0
 24 26  1  0  0  0
M  END
> <minimizedAffinity>
-7.15948

$$$$
