CHEMBL2348993


 35 39  0  0  0  0  0  0  0  0999 V2000
  -20.8994    1.5361  -14.6832 C   0  0  0  0  0  0  0  0  0  0  0  0
  -20.9195    2.9085  -14.3812 C   0  0  0  0  0  0  0  0  0  0  0  0
  -19.7716    3.6858  -14.4909 C   0  0  0  0  0  0  0  0  0  0  0  0
  -18.5915    3.1031  -14.9251 C   0  0  0  0  0  0  0  0  0  0  0  0
  -18.5514    1.7308  -15.2032 C   0  0  0  0  0  0  0  0  0  0  0  0
  -19.6945    0.9130  -15.0702 C   0  0  0  0  0  0  0  0  0  0  0  0
  -19.6624   -0.5260  -15.5083 C   0  0  0  0  0  0  0  0  0  0  0  0
  -22.5139    0.1811  -13.4228 C   0  0  0  0  0  0  0  0  0  0  0  0
  -21.8981    0.3030  -12.3678 O   0  0  0  0  0  0  0  0  0  0  0  0
  -22.1081    0.8037  -14.5974 N   0  0  0  0  0  0  0  0  0  0  0  0
  -22.8288    0.9893  -15.2774 H   0  0  0  0  0  0  0  0  0  0  0  0
  -27.0172   -1.8134  -14.7066 C   0  0  0  0  0  0  0  0  0  0  0  0
  -25.7338   -1.4571  -14.0563 C   0  0  0  0  0  0  0  0  0  0  0  0
  -24.7324   -0.5691  -14.5030 C   0  0  0  0  0  0  0  0  0  0  0  0
  -23.7555   -0.5624  -13.5167 C   0  0  0  0  0  0  0  0  0  0  0  0
  -24.1984   -1.4836  -12.5906 N   0  0  0  0  0  0  0  0  0  0  0  0
  -23.5746   -1.9391  -11.3688 C   0  0  0  0  0  0  0  0  0  0  0  0
  -25.4112   -1.9989  -12.8824 N   0  0  0  0  0  0  0  0  0  0  0  0
  -17.3826    1.1952  -15.8052 O   0  0  0  0  0  0  0  0  0  0  0  0
  -16.4353    0.5423  -15.0239 C   0  0  0  0  0  0  0  0  0  0  0  0
  -15.1897    1.3460  -15.0300 C   0  0  0  0  0  0  0  0  0  0  0  0
  -14.1528    0.8460  -14.3429 C   0  0  0  0  0  0  0  0  0  0  0  0
  -14.2943   -0.4005  -13.6879 C   0  0  0  0  0  0  0  0  0  0  0  0
  -13.4392   -1.1368  -13.0182 N   0  0  0  0  0  0  0  0  0  0  0  0
  -14.1410   -2.2325  -12.6052 C   0  0  0  0  0  0  0  0  0  0  0  0
  -15.4548   -2.1534  -13.0036 C   0  0  0  0  0  0  0  0  0  0  0  0
  -15.5397   -1.0036  -13.7396 N   0  0  0  0  0  0  0  0  0  0  0  0
  -16.6472   -0.5758  -14.4078 N   0  0  0  0  0  0  0  0  0  0  0  0
  -13.6166   -3.2807  -11.8880 N   0  0  0  0  0  0  0  0  0  0  0  0
  -13.9249   -3.5734  -10.5803 C   0  0  0  0  0  0  0  0  0  0  0  0
  -14.7079   -2.9976   -9.8398 O   0  0  0  0  0  0  0  0  0  0  0  0
  -12.9368   -3.8515  -12.3661 H   0  0  0  0  0  0  0  0  0  0  0  0
  -13.1763   -4.7731  -10.0739 C   0  0  0  0  0  0  0  0  0  0  0  0
  -13.0734   -5.0001   -8.5837 C   0  0  0  0  0  0  0  0  0  0  0  0
  -11.8484   -4.6241   -9.3649 C   0  0  0  0  0  0  0  0  0  0  0  0
 12 13  1  0  0  0
 13 14  1  0  0  0
 13 18  2  0  0  0
 14 15  2  0  0  0
 15  8  1  0  0  0
 15 16  1  0  0  0
  8  9  2  0  0  0
  8 10  1  0  0  0
 10  1  1  0  0  0
 10 11  1  0  0  0
  1  2  1  0  0  0
  1  6  2  0  0  0
  2  3  2  0  0  0
  3  4  1  0  0  0
  4  5  2  0  0  0
  5 19  1  0  0  0
  5  6  1  0  0  0
 19 20  1  0  0  0
 20 21  1  0  0  0
 20 28  2  0  0  0
 21 22  2  0  0  0
 22 23  1  0  0  0
 23 24  2  0  0  0
 23 27  1  0  0  0
 24 25  1  0  0  0
 25 29  1  0  0  0
 25 26  2  0  0  0
 29 30  1  0  0  0
 29 32  1  0  0  0
 30 31  2  0  0  0
 30 33  1  0  0  0
 33 34  1  0  0  0
 33 35  1  0  0  0
 34 35  1  0  0  0
 26 27  1  0  0  0
 27 28  1  0  0  0
  6  7  1  0  0  0
 16 17  1  0  0  0
 16 18  1  0  0  0
M  END
> <minimizedAffinity>
-8.22941

$$$$
