CHEMBL2006765


 32 34  0  0  0  0  0  0  0  0999 V2000
  -17.6404    3.3906  -15.5380 C   0  0  0  0  0  0  0  0  0  0  0  0
  -17.2869    2.0884  -15.4658 N   0  0  0  0  0  0  0  0  0  0  0  0
  -15.9764    1.7382  -15.5278 C   0  0  0  0  0  0  0  0  0  0  0  0
  -15.0266    2.7594  -15.6764 C   0  0  0  0  0  0  0  0  0  0  0  0
  -13.6080    2.8634  -15.7497 C   0  0  0  0  0  0  0  0  0  0  0  0
  -13.2925    4.2021  -15.8710 C   0  0  0  0  0  0  0  0  0  0  0  0
  -14.4677    4.9068  -15.9050 N   0  0  0  0  0  0  0  0  0  0  0  0
  -15.5190    4.0446  -15.7765 C   0  0  0  0  0  0  0  0  0  0  0  0
  -16.7963    4.4173  -15.7276 N   0  0  0  0  0  0  0  0  0  0  0  0
  -14.5704    5.9091  -15.9776 H   0  0  0  0  0  0  0  0  0  0  0  0
  -18.9991    3.6814  -15.3515 N   0  0  0  0  0  0  0  0  0  0  0  0
  -19.0752    4.5889  -14.9126 H   0  0  0  0  0  0  0  0  0  0  0  0
  -21.9339    0.8802  -14.1944 C   0  0  0  0  0  0  0  0  0  0  0  0
  -22.1224    2.2380  -13.9239 C   0  0  0  0  0  0  0  0  0  0  0  0
  -21.1555    3.1654  -14.3154 C   0  0  0  0  0  0  0  0  0  0  0  0
  -19.9774    2.7547  -14.9543 C   0  0  0  0  0  0  0  0  0  0  0  0
  -19.8091    1.3976  -15.2487 C   0  0  0  0  0  0  0  0  0  0  0  0
  -20.7700    0.4615  -14.8512 C   0  0  0  0  0  0  0  0  0  0  0  0
  -22.7541   -0.6619  -12.4941 N   0  0  0  0  0  0  0  0  0  0  0  0
  -22.9190   -0.1471  -13.7659 C   0  0  0  0  0  0  0  0  0  0  0  0
  -23.8253   -0.4816  -14.5170 O   0  0  0  0  0  0  0  0  0  0  0  0
  -22.0350   -0.2978  -11.8848 H   0  0  0  0  0  0  0  0  0  0  0  0
  -23.6212   -1.6986  -11.9757 C   0  0  0  0  0  0  0  0  0  0  0  0
  -26.1463   -1.4964  -12.1127 C   0  0  0  0  0  0  0  0  0  0  0  0
  -24.8879   -1.1334  -11.3365 C   0  0  0  0  0  0  0  0  0  0  0  0
  -15.6007    0.3932  -15.4327 N   0  0  0  0  0  0  0  0  0  0  0  0
  -15.6526   -0.0659  -16.3376 H   0  0  0  0  0  0  0  0  0  0  0  0
  -16.2461   -0.3495  -14.3322 C   0  0  0  0  0  0  0  0  0  0  0  0
  -15.8494    0.0673  -12.9035 C   0  0  0  0  0  0  0  0  0  0  0  0
  -14.6514    0.6946  -12.8434 F   0  0  0  0  0  0  0  0  0  0  0  0
  -16.7623    0.9335  -12.3960 F   0  0  0  0  0  0  0  0  0  0  0  0
  -15.8014   -0.9959  -12.0684 F   0  0  0  0  0  0  0  0  0  0  0  0
 24 25  1  0  0  0
 25 23  1  0  0  0
 23 19  1  0  0  0
 19 20  1  0  0  0
 19 22  1  0  0  0
 20 21  2  0  0  0
 20 13  1  0  0  0
 13 14  1  0  0  0
 13 18  2  0  0  0
 14 15  2  0  0  0
 15 16  1  0  0  0
 16 11  1  0  0  0
 16 17  2  0  0  0
 11  1  1  0  0  0
 11 12  1  0  0  0
  1  2  1  0  0  0
  1  9  2  0  0  0
  2  3  2  0  0  0
  3 26  1  0  0  0
  3  4  1  0  0  0
 26 28  1  0  0  0
 26 27  1  0  0  0
 28 29  1  0  0  0
 29 30  1  0  0  0
 29 31  1  0  0  0
 29 32  1  0  0  0
  4  5  1  0  0  0
  4  8  2  0  0  0
  5  6  2  0  0  0
  6  7  1  0  0  0
  7  8  1  0  0  0
  7 10  1  0  0  0
  8  9  1  0  0  0
 17 18  1  0  0  0
M  END
> <minimizedAffinity>
-8.88392

$$$$
