CHEMBL2011291


 30 33  0  0  0  0  0  0  0  0999 V2000
  -27.5375   -5.1053   -3.8765 N   0  0  0  0  0  0  0  0  0  0  0  0
  -28.3784   -5.5336   -4.8612 C   0  0  0  0  0  0  0  0  0  0  0  0
  -28.7591   -6.8312   -5.1773 C   0  0  0  0  0  0  0  0  0  0  0  0
  -29.8091   -6.6812   -6.1399 C   0  0  0  0  0  0  0  0  0  0  0  0
  -29.9403   -5.4007   -6.5148 N   0  0  0  0  0  0  0  0  0  0  0  0
  -29.0846   -4.6835   -5.7367 N   0  0  0  0  0  0  0  0  0  0  0  0
  -26.7968   -5.7424   -3.5839 H   0  0  0  0  0  0  0  0  0  0  0  0
  -27.1847   -4.1509   -3.8773 H   0  0  0  0  0  0  0  0  0  0  0  0
  -29.0044   -3.2587   -5.8861 C   0  0  0  0  0  0  0  0  0  0  0  0
  -29.5547   -2.3991   -4.9045 C   0  0  0  0  0  0  0  0  0  0  0  0
  -30.3083   -2.9160   -3.4300 Cl  0  0  0  0  0  0  0  0  0  0  0  0
  -29.4371   -1.0021   -5.0215 C   0  0  0  0  0  0  0  0  0  0  0  0
  -28.7601   -0.4368   -6.0914 C   0  0  0  0  0  0  0  0  0  0  0  0
  -28.5945    1.2687   -6.2117 Cl  0  0  0  0  0  0  0  0  0  0  0  0
  -28.2395   -1.2533   -7.0830 C   0  0  0  0  0  0  0  0  0  0  0  0
  -28.3909   -2.6481   -7.0024 C   0  0  0  0  0  0  0  0  0  0  0  0
  -27.9325   -3.4756   -8.4596 Cl  0  0  0  0  0  0  0  0  0  0  0  0
  -28.2295   -8.0565   -4.5639 C   0  0  0  0  0  0  0  0  0  0  0  0
  -29.0714   -9.0123   -3.9778 C   0  0  0  0  0  0  0  0  0  0  0  0
  -28.5576  -10.2228   -3.5016 C   0  0  0  0  0  0  0  0  0  0  0  0
  -27.2080  -10.5074   -3.6630 C   0  0  0  0  0  0  0  0  0  0  0  0
  -26.7346  -11.7003   -3.2793 F   0  0  0  0  0  0  0  0  0  0  0  0
  -26.3508   -9.5818   -4.2335 C   0  0  0  0  0  0  0  0  0  0  0  0
  -26.8522   -8.3413   -4.6364 C   0  0  0  0  0  0  0  0  0  0  0  0
  -30.6437   -7.7379   -6.7317 C   0  0  0  0  0  0  0  0  0  0  0  0
  -30.0987   -8.6537   -7.6405 C   0  0  0  0  0  0  0  0  0  0  0  0
  -30.9553   -9.4531   -8.3764 C   0  0  0  0  0  0  0  0  0  0  0  0
  -32.2920   -9.4623   -8.2102 N   0  0  0  0  0  0  0  0  0  0  0  0
  -32.7882   -8.6484   -7.2515 C   0  0  0  0  0  0  0  0  0  0  0  0
  -32.0177   -7.7787   -6.4970 C   0  0  0  0  0  0  0  0  0  0  0  0
  1  2  1  0  0  0
  1  7  1  0  0  0
  1  8  1  0  0  0
  2  3  2  0  0  0
  2  6  1  0  0  0
  3 18  1  0  0  0
  3  4  1  0  0  0
 18 19  1  0  0  0
 18 24  2  0  0  0
 19 20  2  0  0  0
 20 21  1  0  0  0
 21 22  1  0  0  0
 21 23  2  0  0  0
 23 24  1  0  0  0
  4 25  1  0  0  0
  4  5  2  0  0  0
 25 26  1  0  0  0
 25 30  2  0  0  0
 26 27  2  0  0  0
 27 28  1  0  0  0
 28 29  2  0  0  0
 29 30  1  0  0  0
  5  6  1  0  0  0
  6  9  1  0  0  0
  9 10  1  0  0  0
  9 16  2  0  0  0
 10 11  1  0  0  0
 10 12  2  0  0  0
 12 13  1  0  0  0
 13 14  1  0  0  0
 13 15  2  0  0  0
 15 16  1  0  0  0
 16 17  1  0  0  0
M  END
> <minimizedAffinity>
-9.73210

$$$$
