CHEMBL296430


 33 36  0  0  0  0  0  0  0  0999 V2000
  -15.3551   -1.4069  -13.4960 C   0  0  0  0  0  0  0  0  0  0  0  0
  -15.6210   -0.8885  -12.2873 N   0  0  0  0  0  0  0  0  0  0  0  0
  -15.8625   -1.7318  -11.2768 C   0  0  0  0  0  0  0  0  0  0  0  0
  -15.8640   -3.0942  -11.4216 C   0  0  0  0  0  0  0  0  0  0  0  0
  -15.5069   -3.5478  -12.6727 C   0  0  0  0  0  0  0  0  0  0  0  0
  -15.2388   -2.7175  -13.7098 N   0  0  0  0  0  0  0  0  0  0  0  0
  -15.3718   -4.9497  -12.8820 N   0  0  0  0  0  0  0  0  0  0  0  0
  -16.2011   -5.7271  -13.6682 C   0  0  0  0  0  0  0  0  0  0  0  0
  -15.6294   -6.9724  -13.6970 C   0  0  0  0  0  0  0  0  0  0  0  0
  -14.5245   -7.0122  -12.8980 N   0  0  0  0  0  0  0  0  0  0  0  0
  -14.3996   -5.8060  -12.3574 C   0  0  0  0  0  0  0  0  0  0  0  0
  -13.4171   -5.4847  -11.3031 C   0  0  0  0  0  0  0  0  0  0  0  0
  -12.0897   -5.2106  -11.6569 C   0  0  0  0  0  0  0  0  0  0  0  0
  -11.1443   -4.8703  -10.6834 C   0  0  0  0  0  0  0  0  0  0  0  0
  -11.5155   -4.7886   -9.3428 C   0  0  0  0  0  0  0  0  0  0  0  0
  -12.8175   -5.0973   -8.9675 C   0  0  0  0  0  0  0  0  0  0  0  0
  -13.7446   -5.4823   -9.9371 C   0  0  0  0  0  0  0  0  0  0  0  0
  -15.2596   -0.5432  -14.5900 N   0  0  0  0  0  0  0  0  0  0  0  0
  -14.3200   -0.5088  -14.9526 H   0  0  0  0  0  0  0  0  0  0  0  0
  -18.4095    1.3775  -15.1153 C   0  0  0  0  0  0  0  0  0  0  0  0
  -17.5347    0.3328  -14.7636 C   0  0  0  0  0  0  0  0  0  0  0  0
  -16.1524    0.4933  -14.8823 C   0  0  0  0  0  0  0  0  0  0  0  0
  -15.6642    1.7434  -15.2960 C   0  0  0  0  0  0  0  0  0  0  0  0
  -16.5025    2.7882  -15.6739 C   0  0  0  0  0  0  0  0  0  0  0  0
  -17.8828    2.5956  -15.5839 C   0  0  0  0  0  0  0  0  0  0  0  0
  -20.3529    0.0105  -15.4898 F   0  0  0  0  0  0  0  0  0  0  0  0
  -19.9057    1.2060  -15.0167 C   0  0  0  0  0  0  0  0  0  0  0  0
  -20.5819    2.1612  -15.7127 F   0  0  0  0  0  0  0  0  0  0  0  0
  -20.3514    1.2926  -13.7334 F   0  0  0  0  0  0  0  0  0  0  0  0
  -15.9081    4.0595  -16.2299 C   0  0  0  0  0  0  0  0  0  0  0  0
  -16.7377    5.1382  -16.1433 F   0  0  0  0  0  0  0  0  0  0  0  0
  -14.7635    4.4252  -15.5900 F   0  0  0  0  0  0  0  0  0  0  0  0
  -15.5842    3.9464  -17.5463 F   0  0  0  0  0  0  0  0  0  0  0  0
 26 27  1  0  0  0
 27 28  1  0  0  0
 27 29  1  0  0  0
 27 20  1  0  0  0
 20 21  1  0  0  0
 20 25  2  0  0  0
 21 22  2  0  0  0
 22 18  1  0  0  0
 22 23  1  0  0  0
 18  1  1  0  0  0
 18 19  1  0  0  0
  1  2  1  0  0  0
  1  6  2  0  0  0
  2  3  2  0  0  0
  3  4  1  0  0  0
  4  5  2  0  0  0
  5  7  1  0  0  0
  5  6  1  0  0  0
  7  8  1  0  0  0
  7 11  1  0  0  0
  8  9  2  0  0  0
  9 10  1  0  0  0
 10 11  2  0  0  0
 11 12  1  0  0  0
 12 13  1  0  0  0
 12 17  2  0  0  0
 13 14  2  0  0  0
 14 15  1  0  0  0
 15 16  2  0  0  0
 16 17  1  0  0  0
 23 24  2  0  0  0
 24 30  1  0  0  0
 24 25  1  0  0  0
 30 31  1  0  0  0
 30 32  1  0  0  0
 30 33  1  0  0  0
M  END
> <minimizedAffinity>
-9.12874

$$$$
