CHEMBL1989267


 45 49  0  0  0  0  0  0  0  0999 V2000
  -23.0335   -0.3894  -13.0064 C   0  0  0  0  0  0  0  0  0  0  0  0
  -22.7459   -0.5902  -11.6692 C   0  0  0  0  0  0  0  0  0  0  0  0
  -24.0096   -1.3001  -10.8049 S   0  0  0  0  0  0  0  0  0  0  0  0
  -25.0394   -1.3560  -12.1931 C   0  0  0  0  0  0  0  0  0  0  0  0
  -26.3661   -1.8348  -12.2405 C   0  0  0  0  0  0  0  0  0  0  0  0
  -26.9681   -1.7768  -13.4836 C   0  0  0  0  0  0  0  0  0  0  0  0
  -26.3678   -1.3640  -14.6101 N   0  0  0  0  0  0  0  0  0  0  0  0
  -25.0948   -0.9249  -14.5743 C   0  0  0  0  0  0  0  0  0  0  0  0
  -24.5961   -0.5548  -15.8120 N   0  0  0  0  0  0  0  0  0  0  0  0
  -24.3794   -0.8700  -13.3416 C   0  0  0  0  0  0  0  0  0  0  0  0
  -25.2169   -0.8551  -16.5540 H   0  0  0  0  0  0  0  0  0  0  0  0
  -23.6137   -0.7410  -15.9626 H   0  0  0  0  0  0  0  0  0  0  0  0
  -20.6007    2.1037  -14.4915 C   0  0  0  0  0  0  0  0  0  0  0  0
  -21.6479    1.5286  -13.7571 C   0  0  0  0  0  0  0  0  0  0  0  0
  -21.9954    0.1776  -13.8826 C   0  0  0  0  0  0  0  0  0  0  0  0
  -21.3176   -0.5749  -14.8370 C   0  0  0  0  0  0  0  0  0  0  0  0
  -20.1920   -0.0514  -15.4870 C   0  0  0  0  0  0  0  0  0  0  0  0
  -19.7835    1.2697  -15.2740 C   0  0  0  0  0  0  0  0  0  0  0  0
  -18.5640    1.7682  -15.8070 N   0  0  0  0  0  0  0  0  0  0  0  0
  -17.2920    1.5291  -15.2828 C   0  0  0  0  0  0  0  0  0  0  0  0
  -17.0916    0.9875  -14.1963 O   0  0  0  0  0  0  0  0  0  0  0  0
  -18.6602    2.4674  -16.5323 H   0  0  0  0  0  0  0  0  0  0  0  0
  -16.1751    1.8803  -16.1655 C   0  0  0  0  0  0  0  0  0  0  0  0
  -15.3124    0.9944  -16.8145 C   0  0  0  0  0  0  0  0  0  0  0  0
  -14.1921    1.0366  -15.9177 C   0  0  0  0  0  0  0  0  0  0  0  0
  -13.2571    0.0867  -15.4857 C   0  0  0  0  0  0  0  0  0  0  0  0
  -12.4794    0.3946  -14.3624 C   0  0  0  0  0  0  0  0  0  0  0  0
  -12.5302    1.6629  -13.7670 C   0  0  0  0  0  0  0  0  0  0  0  0
  -13.3619    2.6668  -14.2583 C   0  0  0  0  0  0  0  0  0  0  0  0
  -14.2193    2.2890  -15.2893 C   0  0  0  0  0  0  0  0  0  0  0  0
  -15.2819    2.9099  -15.8857 N   0  0  0  0  0  0  0  0  0  0  0  0
  -15.3997    4.3217  -16.1627 C   0  0  0  0  0  0  0  0  0  0  0  0
  -19.3285    3.8497  -13.5066 C   0  0  0  0  0  0  0  0  0  0  0  0
  -20.3167    3.4496  -14.4595 O   0  0  0  0  0  0  0  0  0  0  0  0
  -27.0497   -2.2797  -11.0206 C   0  0  0  0  0  0  0  0  0  0  0  0
  -26.9993   -1.6325   -9.8473 C   0  0  0  0  0  0  0  0  0  0  0  0
  -27.7298   -2.1933   -8.6871 C   0  0  0  0  0  0  0  0  0  0  0  0
  -27.5327   -1.8038   -7.5322 O   0  0  0  0  0  0  0  0  0  0  0  0
  -28.6422   -3.1679   -9.0237 N   0  0  0  0  0  0  0  0  0  0  0  0
  -28.6812   -3.5351   -9.9666 H   0  0  0  0  0  0  0  0  0  0  0  0
  -29.3973   -3.8482   -8.0045 C   0  0  0  0  0  0  0  0  0  0  0  0
  -28.8007   -5.2289   -7.6653 C   0  0  0  0  0  0  0  0  0  0  0  0
  -28.7968   -5.5774   -6.2249 N   0  0  0  0  0  0  0  0  0  0  0  0
  -28.6563   -4.3869   -5.3800 C   0  0  0  0  0  0  0  0  0  0  0  0
  -30.0585   -6.2532   -5.8892 C   0  0  0  0  0  0  0  0  0  0  0  0
 33 34  1  0  0  0
 34 13  1  0  0  0
 13 14  1  0  0  0
 13 18  2  0  0  0
 14 15  2  0  0  0
 15  1  1  0  0  0
 15 16  1  0  0  0
  1  2  2  0  0  0
  1 10  1  0  0  0
  2  3  1  0  0  0
  3  4  1  0  0  0
  4  5  1  0  0  0
  4 10  2  0  0  0
  5 35  1  0  0  0
  5  6  2  0  0  0
 35 36  2  0  0  0
 36 37  1  0  0  0
 37 38  2  0  0  0
 37 39  1  0  0  0
 39 41  1  0  0  0
 39 40  1  0  0  0
 41 42  1  0  0  0
 42 43  1  0  0  0
 43 44  1  0  0  0
 43 45  1  0  0  0
  6  7  1  0  0  0
  7  8  2  0  0  0
  8  9  1  0  0  0
  8 10  1  0  0  0
  9 11  1  0  0  0
  9 12  1  0  0  0
 16 17  2  0  0  0
 17 18  1  0  0  0
 18 19  1  0  0  0
 19 20  1  0  0  0
 19 22  1  0  0  0
 20 21  2  0  0  0
 20 23  1  0  0  0
 23 24  2  0  0  0
 23 31  1  0  0  0
 24 25  1  0  0  0
 25 26  1  0  0  0
 25 30  2  0  0  0
 26 27  2  0  0  0
 27 28  1  0  0  0
 28 29  2  0  0  0
 29 30  1  0  0  0
 30 31  1  0  0  0
 31 32  1  0  0  0
M  END
> <minimizedAffinity>
-7.99942

$$$$
