CHEMBL3904787


 39 42  0  0  0  0  0  0  0  0999 V2000
  -14.4408    1.1963  -16.7363 C   0  0  0  0  0  0  0  0  0  0  0  0
  -14.4341    0.4808  -17.8767 N   0  0  0  0  0  0  0  0  0  0  0  0
  -13.6920   -0.6270  -17.9126 C   0  0  0  0  0  0  0  0  0  0  0  0
  -12.9514   -1.0912  -16.9135 N   0  0  0  0  0  0  0  0  0  0  0  0
  -12.9752   -0.3868  -15.7903 C   0  0  0  0  0  0  0  0  0  0  0  0
  -12.2478   -0.8992  -14.7405 C   0  0  0  0  0  0  0  0  0  0  0  0
  -12.1876   -0.2928  -13.4800 C   0  0  0  0  0  0  0  0  0  0  0  0
  -12.8809    0.9066  -13.2786 C   0  0  0  0  0  0  0  0  0  0  0  0
  -13.6197    1.4416  -14.3452 C   0  0  0  0  0  0  0  0  0  0  0  0
  -13.6919    0.7956  -15.6099 C   0  0  0  0  0  0  0  0  0  0  0  0
  -15.3056    2.3100  -16.6207 N   0  0  0  0  0  0  0  0  0  0  0  0
  -15.1901    2.9528  -17.3942 H   0  0  0  0  0  0  0  0  0  0  0  0
  -19.2050    2.5107  -14.9763 C   0  0  0  0  0  0  0  0  0  0  0  0
  -18.5946    3.6793  -15.4312 C   0  0  0  0  0  0  0  0  0  0  0  0
  -17.3038    3.6352  -15.9710 C   0  0  0  0  0  0  0  0  0  0  0  0
  -16.5778    2.4419  -16.0278 C   0  0  0  0  0  0  0  0  0  0  0  0
  -17.2125    1.2725  -15.5764 C   0  0  0  0  0  0  0  0  0  0  0  0
  -18.5071    1.3052  -15.0433 C   0  0  0  0  0  0  0  0  0  0  0  0
  -21.1571    1.2792  -14.2106 N   0  0  0  0  0  0  0  0  0  0  0  0
  -20.5800    2.5116  -14.4085 C   0  0  0  0  0  0  0  0  0  0  0  0
  -21.1369    3.5637  -14.1187 O   0  0  0  0  0  0  0  0  0  0  0  0
  -20.6093    0.4294  -14.3007 H   0  0  0  0  0  0  0  0  0  0  0  0
  -22.4895    1.1474  -13.6534 C   0  0  0  0  0  0  0  0  0  0  0  0
  -22.7350   -0.3020  -13.2670 C   0  0  0  0  0  0  0  0  0  0  0  0
  -22.7069   -1.2422  -14.0551 O   0  0  0  0  0  0  0  0  0  0  0  0
  -23.2689   -1.7304  -11.4926 C   0  0  0  0  0  0  0  0  0  0  0  0
  -22.9714   -0.4029  -11.9299 O   0  0  0  0  0  0  0  0  0  0  0  0
  -12.9661    1.6785  -12.1517 O   0  0  0  0  0  0  0  0  0  0  0  0
  -12.2163    2.8818  -12.0835 C   0  0  0  0  0  0  0  0  0  0  0  0
  -11.4505   -0.8330  -12.4645 O   0  0  0  0  0  0  0  0  0  0  0  0
  -11.0197   -2.1935  -12.6070 C   0  0  0  0  0  0  0  0  0  0  0  0
  -11.5292   -2.9806  -11.4184 C   0  0  0  0  0  0  0  0  0  0  0  0
  -12.9605   -3.4554  -11.6420 C   0  0  0  0  0  0  0  0  0  0  0  0
  -13.5222   -4.1466  -10.4707 N   0  0  0  0  0  0  0  0  0  0  0  0
  -14.1426   -5.4256  -10.8888 C   0  0  0  0  0  0  0  0  0  0  0  0
  -15.4627   -5.2535  -11.6678 C   0  0  0  0  0  0  0  0  0  0  0  0
  -16.4094   -4.4401  -10.9611 O   0  0  0  0  0  0  0  0  0  0  0  0
  -15.8435   -3.1737  -10.6013 C   0  0  0  0  0  0  0  0  0  0  0  0
  -14.5680   -3.3644   -9.7689 C   0  0  0  0  0  0  0  0  0  0  0  0
 26 27  1  0  0  0
 27 24  1  0  0  0
 24 25  2  0  0  0
 24 23  1  0  0  0
 23 19  1  0  0  0
 19 20  1  0  0  0
 19 22  1  0  0  0
 20 21  2  0  0  0
 20 13  1  0  0  0
 13 14  1  0  0  0
 13 18  2  0  0  0
 14 15  2  0  0  0
 15 16  1  0  0  0
 16 11  1  0  0  0
 16 17  2  0  0  0
 11  1  1  0  0  0
 11 12  1  0  0  0
  1  2  1  0  0  0
  1 10  2  0  0  0
  2  3  2  0  0  0
  3  4  1  0  0  0
  4  5  2  0  0  0
  5  6  1  0  0  0
  5 10  1  0  0  0
  6  7  2  0  0  0
  7 30  1  0  0  0
  7  8  1  0  0  0
 30 31  1  0  0  0
 31 32  1  0  0  0
 32 33  1  0  0  0
 33 34  1  0  0  0
 34 35  1  0  0  0
 34 39  1  0  0  0
 35 36  1  0  0  0
 36 37  1  0  0  0
 37 38  1  0  0  0
 38 39  1  0  0  0
  8 28  1  0  0  0
  8  9  2  0  0  0
 28 29  1  0  0  0
  9 10  1  0  0  0
 17 18  1  0  0  0
M  END
> <minimizedAffinity>
-8.37093

$$$$
