CHEMBL3953943


 38 41  0  0  0  0  0  0  0  0999 V2000
  -25.3859   -1.9400  -11.8164 C   0  0  0  0  0  0  0  0  0  0  0  0
  -24.0689   -1.8507  -11.3564 C   0  0  0  0  0  0  0  0  0  0  0  0
  -23.0450   -1.4132  -12.2049 C   0  0  0  0  0  0  0  0  0  0  0  0
  -23.3268   -1.0604  -13.5237 C   0  0  0  0  0  0  0  0  0  0  0  0
  -24.6331   -1.1854  -14.0040 C   0  0  0  0  0  0  0  0  0  0  0  0
  -25.6510   -1.5729  -13.1381 C   0  0  0  0  0  0  0  0  0  0  0  0
  -26.9110   -1.6262  -13.5996 F   0  0  0  0  0  0  0  0  0  0  0  0
  -26.3702   -0.8892   -9.3257 O   0  0  0  0  0  0  0  0  0  0  0  0
  -26.8624   -1.8973   -9.8213 C   0  0  0  0  0  0  0  0  0  0  0  0
  -27.8244   -2.6781   -9.2028 N   0  0  0  0  0  0  0  0  0  0  0  0
  -26.4691   -2.4210  -11.0398 N   0  0  0  0  0  0  0  0  0  0  0  0
  -28.0224   -3.5749   -9.6210 H   0  0  0  0  0  0  0  0  0  0  0  0
  -26.8094   -3.3376  -11.2985 H   0  0  0  0  0  0  0  0  0  0  0  0
  -28.3464   -2.4460   -7.9079 C   0  0  0  0  0  0  0  0  0  0  0  0
  -28.9904   -3.4292   -7.1530 C   0  0  0  0  0  0  0  0  0  0  0  0
  -29.5406   -3.1148   -5.9163 C   0  0  0  0  0  0  0  0  0  0  0  0
  -30.1671   -4.0665   -5.2131 F   0  0  0  0  0  0  0  0  0  0  0  0
  -29.4636   -1.8298   -5.4020 C   0  0  0  0  0  0  0  0  0  0  0  0
  -28.8067   -0.8306   -6.1295 C   0  0  0  0  0  0  0  0  0  0  0  0
  -28.2314   -1.1548   -7.3753 C   0  0  0  0  0  0  0  0  0  0  0  0
  -28.7349    0.5803   -5.6062 C   0  0  0  0  0  0  0  0  0  0  0  0
  -27.8976    0.7277   -4.5429 F   0  0  0  0  0  0  0  0  0  0  0  0
  -28.3035    1.4598   -6.5500 F   0  0  0  0  0  0  0  0  0  0  0  0
  -29.9483    1.0397   -5.1935 F   0  0  0  0  0  0  0  0  0  0  0  0
  -22.2569   -0.6305  -14.2827 O   0  0  0  0  0  0  0  0  0  0  0  0
  -21.9613    0.7163  -14.3116 C   0  0  0  0  0  0  0  0  0  0  0  0
  -22.7432    1.6805  -13.6832 C   0  0  0  0  0  0  0  0  0  0  0  0
  -22.4152    2.9985  -13.8862 C   0  0  0  0  0  0  0  0  0  0  0  0
  -21.3398    3.3863  -14.5897 N   0  0  0  0  0  0  0  0  0  0  0  0
  -20.5259    2.4522  -15.1107 C   0  0  0  0  0  0  0  0  0  0  0  0
  -20.8020    1.0971  -14.9923 C   0  0  0  0  0  0  0  0  0  0  0  0
  -19.3677    2.8614  -15.7942 N   0  0  0  0  0  0  0  0  0  0  0  0
  -18.0883    2.6127  -15.3392 C   0  0  0  0  0  0  0  0  0  0  0  0
  -17.7615    2.0479  -14.3079 O   0  0  0  0  0  0  0  0  0  0  0  0
  -19.4882    3.3468  -16.6702 H   0  0  0  0  0  0  0  0  0  0  0  0
  -17.0121    3.0937  -16.2620 C   0  0  0  0  0  0  0  0  0  0  0  0
  -15.5814    3.1117  -15.7696 C   0  0  0  0  0  0  0  0  0  0  0  0
  -16.3139    4.4062  -15.9649 C   0  0  0  0  0  0  0  0  0  0  0  0
  8  9  2  0  0  0
  9 10  1  0  0  0
  9 11  1  0  0  0
 10 14  1  0  0  0
 10 12  1  0  0  0
 14 15  1  0  0  0
 14 20  2  0  0  0
 15 16  2  0  0  0
 16 17  1  0  0  0
 16 18  1  0  0  0
 18 19  2  0  0  0
 19 21  1  0  0  0
 19 20  1  0  0  0
 21 22  1  0  0  0
 21 23  1  0  0  0
 21 24  1  0  0  0
 11  1  1  0  0  0
 11 13  1  0  0  0
  1  2  1  0  0  0
  1  6  2  0  0  0
  2  3  2  0  0  0
  3  4  1  0  0  0
  4 25  1  0  0  0
  4  5  2  0  0  0
 25 26  1  0  0  0
 26 27  1  0  0  0
 26 31  2  0  0  0
 27 28  2  0  0  0
 28 29  1  0  0  0
 29 30  2  0  0  0
 30 32  1  0  0  0
 30 31  1  0  0  0
 32 33  1  0  0  0
 32 35  1  0  0  0
 33 34  2  0  0  0
 33 36  1  0  0  0
 36 37  1  0  0  0
 36 38  1  0  0  0
 37 38  1  0  0  0
  5  6  1  0  0  0
  6  7  1  0  0  0
M  END
> <minimizedAffinity>
-12.30563

$$$$
