CHEMBL2023486


 34 37  0  0  0  0  0  0  0  0999 V2000
  -28.9582   -3.0544   -6.8577 C   0  0  0  0  0  0  0  0  0  0  0  0
  -28.5105   -3.8311   -7.9510 C   0  0  0  0  0  0  0  0  0  0  0  0
  -27.6838   -3.3025   -8.9547 C   0  0  0  0  0  0  0  0  0  0  0  0
  -27.3087   -1.9671   -8.9041 C   0  0  0  0  0  0  0  0  0  0  0  0
  -27.7043   -1.2028   -7.7987 C   0  0  0  0  0  0  0  0  0  0  0  0
  -28.4979   -1.7339   -6.7637 C   0  0  0  0  0  0  0  0  0  0  0  0
  -28.8156   -0.8177   -5.7985 O   0  0  0  0  0  0  0  0  0  0  0  0
  -27.8240   -0.4961   -4.8272 C   0  0  0  0  0  0  0  0  0  0  0  0
  -29.9145   -3.7148   -5.8829 C   0  0  0  0  0  0  0  0  0  0  0  0
  -29.3287   -6.0050   -5.2383 N   0  0  0  0  0  0  0  0  0  0  0  0
  -29.3341   -4.6806   -4.8558 C   0  0  0  0  0  0  0  0  0  0  0  0
  -28.8706   -4.2143   -3.8158 O   0  0  0  0  0  0  0  0  0  0  0  0
  -29.8032   -6.2706   -6.0880 H   0  0  0  0  0  0  0  0  0  0  0  0
  -27.5574   -8.7471   -3.8310 C   0  0  0  0  0  0  0  0  0  0  0  0
  -27.6442   -7.7392   -4.7660 C   0  0  0  0  0  0  0  0  0  0  0  0
  -28.8475   -7.0502   -4.4791 C   0  0  0  0  0  0  0  0  0  0  0  0
  -29.4309   -7.5581   -3.3911 N   0  0  0  0  0  0  0  0  0  0  0  0
  -28.6435   -8.5739   -3.0188 N   0  0  0  0  0  0  0  0  0  0  0  0
  -28.9208   -9.1198   -2.2103 H   0  0  0  0  0  0  0  0  0  0  0  0
  -25.1541   -9.3627   -3.8124 C   0  0  0  0  0  0  0  0  0  0  0  0
  -26.5845   -9.8565   -3.6502 C   0  0  0  0  0  0  0  0  0  0  0  0
  -26.4811   -1.3232   -9.7977 O   0  0  0  0  0  0  0  0  0  0  0  0
  -26.5451   -1.5343  -11.1637 C   0  0  0  0  0  0  0  0  0  0  0  0
  -27.7105   -1.9373  -11.8074 C   0  0  0  0  0  0  0  0  0  0  0  0
  -27.6819   -2.0293  -13.1908 C   0  0  0  0  0  0  0  0  0  0  0  0
  -26.6045   -1.7400  -13.9464 N   0  0  0  0  0  0  0  0  0  0  0  0
  -25.4908   -1.3181  -13.3300 C   0  0  0  0  0  0  0  0  0  0  0  0
  -24.3847   -1.0050  -14.1162 C   0  0  0  0  0  0  0  0  0  0  0  0
  -23.1900   -0.5550  -13.5596 C   0  0  0  0  0  0  0  0  0  0  0  0
  -23.1043   -0.3950  -12.1797 C   0  0  0  0  0  0  0  0  0  0  0  0
  -24.2021   -0.6943  -11.3685 C   0  0  0  0  0  0  0  0  0  0  0  0
  -25.4062   -1.1789  -11.9269 C   0  0  0  0  0  0  0  0  0  0  0  0
  -22.0420   -0.2731  -14.2510 O   0  0  0  0  0  0  0  0  0  0  0  0
  -21.3703    0.9356  -13.9127 C   0  0  0  0  0  0  0  0  0  0  0  0
 20 21  1  0  0  0
 21 14  1  0  0  0
 14 15  2  0  0  0
 14 18  1  0  0  0
 15 16  1  0  0  0
 16 10  1  0  0  0
 16 17  2  0  0  0
 10 11  1  0  0  0
 10 13  1  0  0  0
 11 12  2  0  0  0
 11  9  1  0  0  0
  9  1  1  0  0  0
  1  2  1  0  0  0
  1  6  2  0  0  0
  2  3  2  0  0  0
  3  4  1  0  0  0
  4 22  1  0  0  0
  4  5  2  0  0  0
 22 23  1  0  0  0
 23 24  1  0  0  0
 23 32  2  0  0  0
 24 25  2  0  0  0
 25 26  1  0  0  0
 26 27  2  0  0  0
 27 28  1  0  0  0
 27 32  1  0  0  0
 28 29  2  0  0  0
 29 33  1  0  0  0
 29 30  1  0  0  0
 33 34  1  0  0  0
 30 31  2  0  0  0
 31 32  1  0  0  0
  5  6  1  0  0  0
  6  7  1  0  0  0
  7  8  1  0  0  0
 17 18  1  0  0  0
 18 19  1  0  0  0
M  END
> <minimizedAffinity>
-9.51259

$$$$
