CHEMBL2032028


 42 46  0  0  0  0  0  0  0  0999 V2000
  -25.9510   -1.8843   -9.9196 N   0  0  0  0  0  0  0  0  0  0  0  0
  -27.3195   -1.6943   -9.7823 C   0  0  0  0  0  0  0  0  0  0  0  0
  -28.0151   -1.0692  -10.5737 O   0  0  0  0  0  0  0  0  0  0  0  0
  -25.4350   -2.1962   -9.0960 H   0  0  0  0  0  0  0  0  0  0  0  0
  -23.6979   -0.8898  -13.3811 C   0  0  0  0  0  0  0  0  0  0  0  0
  -24.9975   -1.3747  -13.5125 C   0  0  0  0  0  0  0  0  0  0  0  0
  -25.7534   -1.6783  -12.3730 C   0  0  0  0  0  0  0  0  0  0  0  0
  -25.2051   -1.5948  -11.0871 C   0  0  0  0  0  0  0  0  0  0  0  0
  -23.8570   -1.2487  -10.9676 C   0  0  0  0  0  0  0  0  0  0  0  0
  -23.1278   -0.8754  -12.1046 C   0  0  0  0  0  0  0  0  0  0  0  0
  -21.8608   -0.4598  -11.9435 F   0  0  0  0  0  0  0  0  0  0  0  0
  -22.9343   -0.3867  -14.4153 O   0  0  0  0  0  0  0  0  0  0  0  0
  -18.3482    1.9367  -15.0737 C   0  0  0  0  0  0  0  0  0  0  0  0
  -18.7550    0.6385  -15.3402 C   0  0  0  0  0  0  0  0  0  0  0  0
  -20.0928    0.2924  -15.1873 C   0  0  0  0  0  0  0  0  0  0  0  0
  -21.0366    1.2054  -14.6644 C   0  0  0  0  0  0  0  0  0  0  0  0
  -22.3728    0.8765  -14.3246 C   0  0  0  0  0  0  0  0  0  0  0  0
  -23.2482    1.8740  -13.9044 C   0  0  0  0  0  0  0  0  0  0  0  0
  -22.7542    3.1543  -13.7682 C   0  0  0  0  0  0  0  0  0  0  0  0
  -21.4680    3.4899  -13.9986 N   0  0  0  0  0  0  0  0  0  0  0  0
  -20.6238    2.5349  -14.4281 C   0  0  0  0  0  0  0  0  0  0  0  0
  -19.2898    2.8703  -14.6327 C   0  0  0  0  0  0  0  0  0  0  0  0
  -16.9060    3.5718  -15.9678 C   0  0  0  0  0  0  0  0  0  0  0  0
  -17.0613    2.3866  -15.1912 O   0  0  0  0  0  0  0  0  0  0  0  0
  -27.9314   -2.3022   -8.5766 C   0  0  0  0  0  0  0  0  0  0  0  0
  -28.4802   -1.6762   -7.5102 C   0  0  0  0  0  0  0  0  0  0  0  0
  -28.5438   -0.2011   -7.2525 C   0  0  0  0  0  0  0  0  0  0  0  0
  -29.0581   -2.5836   -6.6181 N   0  0  0  0  0  0  0  0  0  0  0  0
  -28.8407   -3.8726   -7.1360 N   0  0  0  0  0  0  0  0  0  0  0  0
  -28.0715   -3.7568   -8.2942 C   0  0  0  0  0  0  0  0  0  0  0  0
  -27.5977   -4.6277   -9.0100 O   0  0  0  0  0  0  0  0  0  0  0  0
  -29.1038   -5.0525   -6.4256 C   0  0  0  0  0  0  0  0  0  0  0  0
  -28.1899   -5.5387   -5.4847 C   0  0  0  0  0  0  0  0  0  0  0  0
  -28.4718   -6.7095   -4.7766 C   0  0  0  0  0  0  0  0  0  0  0  0
  -29.6388   -7.4247   -5.0443 C   0  0  0  0  0  0  0  0  0  0  0  0
  -30.5377   -6.9591   -6.0027 C   0  0  0  0  0  0  0  0  0  0  0  0
  -30.2803   -5.7654   -6.6790 C   0  0  0  0  0  0  0  0  0  0  0  0
  -29.5749   -2.3313   -5.2710 C   0  0  0  0  0  0  0  0  0  0  0  0
  -28.4914   -2.1014   -4.1989 C   0  0  0  0  0  0  0  0  0  0  0  0
  -28.6814   -2.9331   -2.9368 C   0  0  0  0  0  0  0  0  0  0  0  0
  -27.1981   -2.3958   -4.7488 O   0  0  0  0  0  0  0  0  0  0  0  0
  -27.0650   -3.3592   -4.7369 H   0  0  0  0  0  0  0  0  0  0  0  0
 23 24  1  0  0  0
 24 13  1  0  0  0
 13 14  1  0  0  0
 13 22  2  0  0  0
 14 15  2  0  0  0
 15 16  1  0  0  0
 16 17  1  0  0  0
 16 21  2  0  0  0
 17 12  1  0  0  0
 17 18  2  0  0  0
 12  5  1  0  0  0
  5  6  1  0  0  0
  5 10  2  0  0  0
  6  7  2  0  0  0
  7  8  1  0  0  0
  8  1  1  0  0  0
  8  9  2  0  0  0
  1  2  1  0  0  0
  1  4  1  0  0  0
  2  3  2  0  0  0
  2 25  1  0  0  0
 25 26  2  0  0  0
 25 30  1  0  0  0
 26 27  1  0  0  0
 26 28  1  0  0  0
 28 38  1  0  0  0
 28 29  1  0  0  0
 38 39  1  0  0  0
 39 40  1  0  0  0
 39 41  1  0  0  0
 41 42  1  0  0  0
 29 32  1  0  0  0
 29 30  1  0  0  0
 32 33  1  0  0  0
 32 37  2  0  0  0
 33 34  2  0  0  0
 34 35  1  0  0  0
 35 36  2  0  0  0
 36 37  1  0  0  0
 30 31  2  0  0  0
  9 10  1  0  0  0
 10 11  1  0  0  0
 18 19  1  0  0  0
 19 20  2  0  0  0
 20 21  1  0  0  0
 21 22  1  0  0  0
M  END
> <minimizedAffinity>
-10.50519

$$$$
