CHEMBL245744


 36 39  0  0  0  0  0  0  0  0999 V2000
  -29.7303   -4.2390   -6.8296 C   0  0  0  0  0  0  0  0  0  0  0  0
  -29.0492   -3.8362   -7.9973 C   0  0  0  0  0  0  0  0  0  0  0  0
  -28.5068   -2.5564   -8.0972 C   0  0  0  0  0  0  0  0  0  0  0  0
  -28.7480   -1.6442   -7.0580 C   0  0  0  0  0  0  0  0  0  0  0  0
  -29.4902   -2.0103   -5.9340 C   0  0  0  0  0  0  0  0  0  0  0  0
  -29.9856   -3.3138   -5.8023 C   0  0  0  0  0  0  0  0  0  0  0  0
  -30.7439   -3.6878   -4.5616 C   0  0  0  0  0  0  0  0  0  0  0  0
  -27.6190   -2.0983   -9.2181 C   0  0  0  0  0  0  0  0  0  0  0  0
  -26.4867   -1.7322   -8.9160 O   0  0  0  0  0  0  0  0  0  0  0  0
  -28.1262   -2.1008  -10.5101 N   0  0  0  0  0  0  0  0  0  0  0  0
  -29.1175   -2.2156  -10.6470 H   0  0  0  0  0  0  0  0  0  0  0  0
  -27.3660   -1.8481  -11.6826 C   0  0  0  0  0  0  0  0  0  0  0  0
  -27.8350   -2.1429  -12.9653 C   0  0  0  0  0  0  0  0  0  0  0  0
  -27.0594   -1.8699  -14.0912 C   0  0  0  0  0  0  0  0  0  0  0  0
  -25.7846   -1.3337  -13.9469 C   0  0  0  0  0  0  0  0  0  0  0  0
  -25.2665   -1.0641  -12.6724 C   0  0  0  0  0  0  0  0  0  0  0  0
  -26.0905   -1.2760  -11.5471 C   0  0  0  0  0  0  0  0  0  0  0  0
  -23.8032   -0.6859  -12.5002 C   0  0  0  0  0  0  0  0  0  0  0  0
  -23.0995   -1.7373  -11.6299 C   0  0  0  0  0  0  0  0  0  0  0  0
  -23.0601   -0.5130  -13.8269 C   0  0  0  0  0  0  0  0  0  0  0  0
  -30.1854   -5.5402   -6.6734 O   0  0  0  0  0  0  0  0  0  0  0  0
  -29.6375   -7.8001   -6.0224 C   0  0  0  0  0  0  0  0  0  0  0  0
  -28.7278   -8.6227   -5.3137 C   0  0  0  0  0  0  0  0  0  0  0  0
  -27.6532   -8.0945   -4.6073 C   0  0  0  0  0  0  0  0  0  0  0  0
  -27.5087   -6.7278   -4.5975 C   0  0  0  0  0  0  0  0  0  0  0  0
  -28.3413   -5.8952   -5.2481 N   0  0  0  0  0  0  0  0  0  0  0  0
  -29.3688   -6.4299   -5.9735 C   0  0  0  0  0  0  0  0  0  0  0  0
  -31.4156   -9.9625   -8.2678 C   0  0  0  0  0  0  0  0  0  0  0  0
  -32.6756   -9.5618   -8.2002 N   0  0  0  0  0  0  0  0  0  0  0  0
  -32.8989   -8.5589   -7.3523 C   0  0  0  0  0  0  0  0  0  0  0  0
  -31.9937   -7.9506   -6.5888 N   0  0  0  0  0  0  0  0  0  0  0  0
  -30.7624   -8.4315   -6.7268 C   0  0  0  0  0  0  0  0  0  0  0  0
  -30.4344   -9.4358   -7.5496 N   0  0  0  0  0  0  0  0  0  0  0  0
  -29.6242  -10.9690   -9.5096 C   0  0  0  0  0  0  0  0  0  0  0  0
  -31.0200  -10.9641   -9.1401 N   0  0  0  0  0  0  0  0  0  0  0  0
  -31.6750  -10.9551   -9.9141 H   0  0  0  0  0  0  0  0  0  0  0  0
 34 35  1  0  0  0
 35 28  1  0  0  0
 35 36  1  0  0  0
 28 29  1  0  0  0
 28 33  2  0  0  0
 29 30  2  0  0  0
 30 31  1  0  0  0
 31 32  2  0  0  0
 32 22  1  0  0  0
 32 33  1  0  0  0
 22 23  1  0  0  0
 22 27  2  0  0  0
 23 24  2  0  0  0
 24 25  1  0  0  0
 25 26  2  0  0  0
 26 27  1  0  0  0
 27 21  1  0  0  0
 21  1  1  0  0  0
  1  2  1  0  0  0
  1  6  2  0  0  0
  2  3  2  0  0  0
  3  8  1  0  0  0
  3  4  1  0  0  0
  8  9  2  0  0  0
  8 10  1  0  0  0
 10 12  1  0  0  0
 10 11  1  0  0  0
 12 13  1  0  0  0
 12 17  2  0  0  0
 13 14  2  0  0  0
 14 15  1  0  0  0
 15 16  2  0  0  0
 16 18  1  0  0  0
 16 17  1  0  0  0
 18 19  1  0  0  0
 18 20  1  0  0  0
  4  5  2  0  0  0
  5  6  1  0  0  0
  6  7  1  0  0  0
M  END
> <minimizedAffinity>
-10.92789

$$$$
