CHEMBL3098325


 28 30  0  0  0  0  0  0  0  0999 V2000
  -28.8246   -5.6777   -5.8014 C   0  0  0  0  0  0  0  0  0  0  0  0
  -28.5840   -4.3993   -5.2769 C   0  0  0  0  0  0  0  0  0  0  0  0
  -28.4360   -3.2833   -6.0865 C   0  0  0  0  0  0  0  0  0  0  0  0
  -28.1612   -2.1062   -5.5189 N   0  0  0  0  0  0  0  0  0  0  0  0
  -27.9925   -1.0793   -6.3521 C   0  0  0  0  0  0  0  0  0  0  0  0
  -27.6028    0.4249   -5.6453 Cl  0  0  0  0  0  0  0  0  0  0  0  0
  -28.0610   -1.1016   -7.6803 N   0  0  0  0  0  0  0  0  0  0  0  0
  -28.3431   -2.2924   -8.2382 C   0  0  0  0  0  0  0  0  0  0  0  0
  -28.5611   -3.4464   -7.4719 C   0  0  0  0  0  0  0  0  0  0  0  0
  -28.8408   -4.7260   -8.0104 C   0  0  0  0  0  0  0  0  0  0  0  0
  -28.9690   -5.8452   -7.1827 C   0  0  0  0  0  0  0  0  0  0  0  0
  -29.9435   -6.4760   -3.8713 C   0  0  0  0  0  0  0  0  0  0  0  0
  -28.9222   -6.6591   -4.8473 O   0  0  0  0  0  0  0  0  0  0  0  0
  -28.3931   -2.3763   -9.6575 N   0  0  0  0  0  0  0  0  0  0  0  0
  -29.3201   -2.1246   -9.9844 H   0  0  0  0  0  0  0  0  0  0  0  0
  -27.3598   -1.9459  -10.5156 C   0  0  0  0  0  0  0  0  0  0  0  0
  -26.0738   -1.6953  -10.0156 C   0  0  0  0  0  0  0  0  0  0  0  0
  -25.0473   -1.2326  -10.8407 C   0  0  0  0  0  0  0  0  0  0  0  0
  -25.2882   -1.0258  -12.1988 C   0  0  0  0  0  0  0  0  0  0  0  0
  -26.5458   -1.3589  -12.7248 C   0  0  0  0  0  0  0  0  0  0  0  0
  -27.5696   -1.8293  -11.8914 C   0  0  0  0  0  0  0  0  0  0  0  0
  -24.2659   -0.4521  -13.1184 C   0  0  0  0  0  0  0  0  0  0  0  0
  -24.2863   -0.8309  -14.4325 N   0  0  0  0  0  0  0  0  0  0  0  0
  -23.4038    0.3193  -12.7147 O   0  0  0  0  0  0  0  0  0  0  0  0
  -24.8680   -1.5603  -14.8136 H   0  0  0  0  0  0  0  0  0  0  0  0
  -23.5276   -0.4920  -15.0091 H   0  0  0  0  0  0  0  0  0  0  0  0
  -29.3125   -7.0759   -7.6669 O   0  0  0  0  0  0  0  0  0  0  0  0
  -28.3212   -7.7439   -8.4398 C   0  0  0  0  0  0  0  0  0  0  0  0
 12 13  1  0  0  0
 13  1  1  0  0  0
  1  2  1  0  0  0
  1 11  2  0  0  0
  2  3  2  0  0  0
  3  4  1  0  0  0
  3  9  1  0  0  0
  4  5  2  0  0  0
  5  6  1  0  0  0
  5  7  1  0  0  0
  7  8  2  0  0  0
  8 14  1  0  0  0
  8  9  1  0  0  0
 14 16  1  0  0  0
 14 15  1  0  0  0
 16 17  1  0  0  0
 16 21  2  0  0  0
 17 18  2  0  0  0
 18 19  1  0  0  0
 19 22  1  0  0  0
 19 20  2  0  0  0
 22 23  1  0  0  0
 22 24  2  0  0  0
 23 25  1  0  0  0
 23 26  1  0  0  0
 20 21  1  0  0  0
  9 10  2  0  0  0
 10 11  1  0  0  0
 11 27  1  0  0  0
 27 28  1  0  0  0
M  END
> <minimizedAffinity>
-7.60358

$$$$
