CHEMBL3221258


 31 33  0  0  0  0  0  0  0  0999 V2000
  -15.6010   -0.9905  -12.6412 N   0  0  0  0  0  0  0  0  0  0  0  0
  -16.2436   -0.6287  -11.9265 H   0  0  0  0  0  0  0  0  0  0  0  0
  -14.6961   -0.0829  -13.2940 C   0  0  0  0  0  0  0  0  0  0  0  0
  -13.3703   -0.1201  -12.9824 N   0  0  0  0  0  0  0  0  0  0  0  0
  -12.4591    0.7041  -13.5474 C   0  0  0  0  0  0  0  0  0  0  0  0
  -12.8565    1.6185  -14.4583 N   0  0  0  0  0  0  0  0  0  0  0  0
  -14.1642    1.7333  -14.8030 C   0  0  0  0  0  0  0  0  0  0  0  0
  -14.5340    2.6888  -15.7408 C   0  0  0  0  0  0  0  0  0  0  0  0
  -15.8825    2.8489  -16.1335 C   0  0  0  0  0  0  0  0  0  0  0  0
  -16.8660    2.0092  -15.5385 C   0  0  0  0  0  0  0  0  0  0  0  0
  -16.4734    1.0470  -14.6047 C   0  0  0  0  0  0  0  0  0  0  0  0
  -15.1326    0.8867  -14.2253 C   0  0  0  0  0  0  0  0  0  0  0  0
  -16.2200    3.7969  -17.0563 O   0  0  0  0  0  0  0  0  0  0  0  0
  -15.3527    4.7763  -17.5305 C   0  0  0  0  0  0  0  0  0  0  0  0
  -18.2049    2.0388  -15.7874 O   0  0  0  0  0  0  0  0  0  0  0  0
  -19.2689    1.6391  -15.0185 C   0  0  0  0  0  0  0  0  0  0  0  0
  -15.4443   -5.2263  -12.9326 C   0  0  0  0  0  0  0  0  0  0  0  0
  -16.1321   -4.5982  -11.8878 C   0  0  0  0  0  0  0  0  0  0  0  0
  -16.1914   -3.2075  -11.8122 C   0  0  0  0  0  0  0  0  0  0  0  0
  -15.5762   -2.4120  -12.7910 C   0  0  0  0  0  0  0  0  0  0  0  0
  -14.9693   -3.0493  -13.8897 C   0  0  0  0  0  0  0  0  0  0  0  0
  -14.8908   -4.4340  -13.9666 C   0  0  0  0  0  0  0  0  0  0  0  0
  -14.1510   -5.0958  -15.4287 Cl  0  0  0  0  0  0  0  0  0  0  0  0
  -14.2665   -7.3175  -12.4412 C   0  0  0  0  0  0  0  0  0  0  0  0
  -13.3361   -6.7230  -11.9112 O   0  0  0  0  0  0  0  0  0  0  0  0
  -15.3483   -6.6452  -12.9162 N   0  0  0  0  0  0  0  0  0  0  0  0
  -16.1676   -7.1952  -13.2137 H   0  0  0  0  0  0  0  0  0  0  0  0
  -14.2443   -8.6654  -12.5136 O   0  0  0  0  0  0  0  0  0  0  0  0
  -13.3933   -9.4390  -11.7481 C   0  0  0  0  0  0  0  0  0  0  0  0
  -10.8842   -9.7651  -11.7965 C   0  0  0  0  0  0  0  0  0  0  0  0
  -12.1958   -9.9308  -12.5553 C   0  0  0  0  0  0  0  0  0  0  0  0
 30 31  1  0  0  0
 31 29  1  0  0  0
 29 28  1  0  0  0
 28 24  1  0  0  0
 24 25  2  0  0  0
 24 26  1  0  0  0
 26 17  1  0  0  0
 26 27  1  0  0  0
 17 18  1  0  0  0
 17 22  2  0  0  0
 18 19  2  0  0  0
 19 20  1  0  0  0
 20  1  1  0  0  0
 20 21  2  0  0  0
  1  3  1  0  0  0
  1  2  1  0  0  0
  3  4  1  0  0  0
  3 12  2  0  0  0
  4  5  2  0  0  0
  5  6  1  0  0  0
  6  7  2  0  0  0
  7  8  1  0  0  0
  7 12  1  0  0  0
  8  9  2  0  0  0
  9 13  1  0  0  0
  9 10  1  0  0  0
 13 14  1  0  0  0
 10 15  1  0  0  0
 10 11  2  0  0  0
 15 16  1  0  0  0
 11 12  1  0  0  0
 21 22  1  0  0  0
 22 23  1  0  0  0
M  END
> <minimizedAffinity>
-7.06545

$$$$
