CHEMBL4516916


 36 41  0  0  0  0  0  0  0  0999 V2000
  -15.0461    2.1227  -15.3569 N   0  0  0  0  0  0  0  0  0  0  0  0
  -14.2754    3.2382  -15.5617 N   0  0  0  0  0  0  0  0  0  0  0  0
  -14.7608    3.8676  -16.5863 C   0  0  0  0  0  0  0  0  0  0  0  0
  -15.9878    3.2488  -17.1933 C   0  0  0  0  0  0  0  0  0  0  0  0
  -16.1214    1.9856  -16.3332 C   0  0  0  0  0  0  0  0  0  0  0  0
  -17.4846    1.9090  -15.6602 C   0  0  0  0  0  0  0  0  0  0  0  0
  -18.0504    3.0572  -15.0845 C   0  0  0  0  0  0  0  0  0  0  0  0
  -19.3183    3.0056  -14.4994 C   0  0  0  0  0  0  0  0  0  0  0  0
  -20.0281    1.8069  -14.4840 C   0  0  0  0  0  0  0  0  0  0  0  0
  -21.5979    1.7513  -13.7820 Cl  0  0  0  0  0  0  0  0  0  0  0  0
  -19.4796    0.6551  -15.0409 C   0  0  0  0  0  0  0  0  0  0  0  0
  -18.2142    0.7061  -15.6266 C   0  0  0  0  0  0  0  0  0  0  0  0
  -14.1533    5.1014  -17.1345 C   0  0  0  0  0  0  0  0  0  0  0  0
  -14.7812    5.7546  -18.1954 C   0  0  0  0  0  0  0  0  0  0  0  0
  -14.2478    6.9428  -18.7091 C   0  0  0  0  0  0  0  0  0  0  0  0
  -13.0779    7.5180  -18.1916 C   0  0  0  0  0  0  0  0  0  0  0  0
  -12.4568    6.8317  -17.1384 C   0  0  0  0  0  0  0  0  0  0  0  0
  -12.9806    5.6427  -16.6099 C   0  0  0  0  0  0  0  0  0  0  0  0
  -12.5645    8.6877  -18.7033 N   0  0  0  0  0  0  0  0  0  0  0  0
  -11.4239    9.3937  -18.0987 C   0  0  0  0  0  0  0  0  0  0  0  0
  -11.7974   10.8661  -17.8807 C   0  0  0  0  0  0  0  0  0  0  0  0
  -12.2081   11.4863  -19.1128 O   0  0  0  0  0  0  0  0  0  0  0  0
  -13.3505   10.8042  -19.6599 C   0  0  0  0  0  0  0  0  0  0  0  0
  -13.0587    9.3168  -19.9368 C   0  0  0  0  0  0  0  0  0  0  0  0
  -14.8638   -0.7689  -13.2964 C   0  0  0  0  0  0  0  0  0  0  0  0
  -13.6281   -0.3305  -12.8671 C   0  0  0  0  0  0  0  0  0  0  0  0
  -13.2015    1.1091  -13.6718 S   0  0  0  0  0  0  0  0  0  0  0  0
  -14.7343    1.1137  -14.4890 C   0  0  0  0  0  0  0  0  0  0  0  0
  -15.5136    0.0950  -14.1725 N   0  0  0  0  0  0  0  0  0  0  0  0
  -17.1475   -5.6094  -11.6528 F   0  0  0  0  0  0  0  0  0  0  0  0
  -16.5992   -4.4539  -12.0468 C   0  0  0  0  0  0  0  0  0  0  0  0
  -16.1746   -3.5325  -11.0950 C   0  0  0  0  0  0  0  0  0  0  0  0
  -15.6048   -2.3223  -11.5048 C   0  0  0  0  0  0  0  0  0  0  0  0
  -15.4516   -2.0356  -12.8692 C   0  0  0  0  0  0  0  0  0  0  0  0
  -15.8958   -2.9810  -13.8130 C   0  0  0  0  0  0  0  0  0  0  0  0
  -16.4667   -4.1886  -13.4035 C   0  0  0  0  0  0  0  0  0  0  0  0
 30 31  1  0  0  0
 31 32  1  0  0  0
 31 36  2  0  0  0
 32 33  2  0  0  0
 33 34  1  0  0  0
 34 25  1  0  0  0
 34 35  2  0  0  0
 25 26  2  0  0  0
 25 29  1  0  0  0
 26 27  1  0  0  0
 27 28  1  0  0  0
 28  1  1  0  0  0
 28 29  2  0  0  0
  1  2  1  0  0  0
  1  5  1  0  0  0
  2  3  2  0  0  0
  3 13  1  0  0  0
  3  4  1  0  0  0
 13 14  1  0  0  0
 13 18  2  0  0  0
 14 15  2  0  0  0
 15 16  1  0  0  0
 16 19  1  0  0  0
 16 17  2  0  0  0
 19 20  1  0  0  0
 19 24  1  0  0  0
 20 21  1  0  0  0
 21 22  1  0  0  0
 22 23  1  0  0  0
 23 24  1  0  0  0
 17 18  1  0  0  0
  4  5  1  0  0  0
  5  6  1  0  0  0
  6  7  1  0  0  0
  6 12  2  0  0  0
  7  8  2  0  0  0
  8  9  1  0  0  0
  9 10  1  0  0  0
  9 11  2  0  0  0
 11 12  1  0  0  0
 35 36  1  0  0  0
M  END
> <minimizedAffinity>
-8.91953

$$$$
