CHEMBL3220319


 42 44  0  0  0  0  0  0  0  0999 V2000
  -28.8471   -4.3121   -7.1020 C   0  0  0  0  0  0  0  0  0  0  0  0
  -28.6834   -3.6737   -8.3488 C   0  0  0  0  0  0  0  0  0  0  0  0
  -28.2351   -2.3673   -8.5291 C   0  0  0  0  0  0  0  0  0  0  0  0
  -27.9572   -1.6232   -7.3860 C   0  0  0  0  0  0  0  0  0  0  0  0
  -28.1246   -2.1951   -6.1074 C   0  0  0  0  0  0  0  0  0  0  0  0
  -28.5521   -3.5404   -5.9548 C   0  0  0  0  0  0  0  0  0  0  0  0
  -29.2476   -8.0105   -8.0698 C   0  0  0  0  0  0  0  0  0  0  0  0
  -28.7029   -6.7357   -7.8575 C   0  0  0  0  0  0  0  0  0  0  0  0
  -29.3761   -5.7169   -7.1264 C   0  0  0  0  0  0  0  0  0  0  0  0
  -30.6102   -6.0669   -6.5690 C   0  0  0  0  0  0  0  0  0  0  0  0
  -31.1265   -7.3625   -6.6963 C   0  0  0  0  0  0  0  0  0  0  0  0
  -30.4445   -8.3452   -7.4277 C   0  0  0  0  0  0  0  0  0  0  0  0
  -31.0219   -9.7268   -7.4522 C   0  0  0  0  0  0  0  0  0  0  0  0
  -30.4533  -10.7822   -6.5190 C   0  0  0  0  0  0  0  0  0  0  0  0
  -32.0462   -9.9659   -8.2243 N   0  0  0  0  0  0  0  0  0  0  0  0
  -32.4888  -11.2872   -8.0886 O   0  0  0  0  0  0  0  0  0  0  0  0
  -33.2442  -11.3167   -8.7026 H   0  0  0  0  0  0  0  0  0  0  0  0
  -27.3533   -8.8140   -9.2970 C   0  0  0  0  0  0  0  0  0  0  0  0
  -28.7329   -8.9122   -8.9661 O   0  0  0  0  0  0  0  0  0  0  0  0
  -28.0485   -1.8060   -9.8201 N   0  0  0  0  0  0  0  0  0  0  0  0
  -26.8243   -1.6537  -10.4570 C   0  0  0  0  0  0  0  0  0  0  0  0
  -25.7449   -2.0288  -10.0185 O   0  0  0  0  0  0  0  0  0  0  0  0
  -26.9242   -0.9699  -11.6655 N   0  0  0  0  0  0  0  0  0  0  0  0
  -28.8783   -1.5707  -10.3527 H   0  0  0  0  0  0  0  0  0  0  0  0
  -27.5830   -0.2067  -11.6542 H   0  0  0  0  0  0  0  0  0  0  0  0
  -25.7364   -0.7610  -12.4172 C   0  0  0  0  0  0  0  0  0  0  0  0
  -25.4726   -1.5115  -13.5684 C   0  0  0  0  0  0  0  0  0  0  0  0
  -24.2430   -1.4088  -14.2260 C   0  0  0  0  0  0  0  0  0  0  0  0
  -23.2630   -0.5495  -13.7308 C   0  0  0  0  0  0  0  0  0  0  0  0
  -23.5363    0.2166  -12.5929 C   0  0  0  0  0  0  0  0  0  0  0  0
  -24.7799    0.1375  -11.9513 C   0  0  0  0  0  0  0  0  0  0  0  0
  -21.9985   -0.4277  -14.2414 O   0  0  0  0  0  0  0  0  0  0  0  0
  -21.4179    0.8785  -14.1357 C   0  0  0  0  0  0  0  0  0  0  0  0
  -20.3072    0.9930  -15.1764 C   0  0  0  0  0  0  0  0  0  0  0  0
  -19.1064    1.7982  -14.6660 C   0  0  0  0  0  0  0  0  0  0  0  0
  -17.9419    1.7934  -15.5676 N   0  0  0  0  0  0  0  0  0  0  0  0
  -17.4859    3.1478  -15.8891 C   0  0  0  0  0  0  0  0  0  0  0  0
  -16.8414    1.0335  -14.9675 C   0  0  0  0  0  0  0  0  0  0  0  0
  -27.7639   -1.4744   -4.9945 O   0  0  0  0  0  0  0  0  0  0  0  0
  -27.9239   -0.0625   -5.1282 C   0  0  0  0  0  0  0  0  0  0  0  0
  -28.6501   -4.1935   -4.7500 O   0  0  0  0  0  0  0  0  0  0  0  0
  -27.4652   -4.7636   -4.2044 C   0  0  0  0  0  0  0  0  0  0  0  0
 18 19  1  0  0  0
 19  7  1  0  0  0
  7  8  1  0  0  0
  7 12  2  0  0  0
  8  9  2  0  0  0
  9  1  1  0  0  0
  9 10  1  0  0  0
  1  2  1  0  0  0
  1  6  2  0  0  0
  2  3  2  0  0  0
  3 20  1  0  0  0
  3  4  1  0  0  0
 20 21  1  0  0  0
 20 24  1  0  0  0
 21 22  2  0  0  0
 21 23  1  0  0  0
 23 26  1  0  0  0
 23 25  1  0  0  0
 26 27  1  0  0  0
 26 31  2  0  0  0
 27 28  2  0  0  0
 28 29  1  0  0  0
 29 32  1  0  0  0
 29 30  2  0  0  0
 32 33  1  0  0  0
 33 34  1  0  0  0
 34 35  1  0  0  0
 35 36  1  0  0  0
 36 37  1  0  0  0
 36 38  1  0  0  0
 30 31  1  0  0  0
  4  5  2  0  0  0
  5 39  1  0  0  0
  5  6  1  0  0  0
 39 40  1  0  0  0
  6 41  1  0  0  0
 41 42  1  0  0  0
 10 11  2  0  0  0
 11 12  1  0  0  0
 12 13  1  0  0  0
 13 14  1  0  0  0
 13 15  2  0  0  0
 15 16  1  0  0  0
 16 17  1  0  0  0
M  END
> <minimizedAffinity>
-10.17045

$$$$
