CHEMBL1965988


 37 40  0  0  0  0  0  0  0  0999 V2000
  -25.9612   -1.1097  -11.8095 C   0  0  0  0  0  0  0  0  0  0  0  0
  -25.3359   -1.4189  -10.5991 C   0  0  0  0  0  0  0  0  0  0  0  0
  -26.0789   -1.8797   -9.5037 C   0  0  0  0  0  0  0  0  0  0  0  0
  -27.4757   -2.0082   -9.5728 C   0  0  0  0  0  0  0  0  0  0  0  0
  -28.0977   -1.5783  -10.7527 C   0  0  0  0  0  0  0  0  0  0  0  0
  -27.3515   -1.1600  -11.8720 C   0  0  0  0  0  0  0  0  0  0  0  0
  -28.2363   -2.5815   -8.4376 C   0  0  0  0  0  0  0  0  0  0  0  0
  -28.7578   -3.8561   -8.5659 C   0  0  0  0  0  0  0  0  0  0  0  0
  -29.6374   -4.3793   -7.2185 S   0  0  0  0  0  0  0  0  0  0  0  0
  -29.3562   -2.9106   -6.3604 C   0  0  0  0  0  0  0  0  0  0  0  0
  -29.8120   -2.5939   -5.0657 C   0  0  0  0  0  0  0  0  0  0  0  0
  -29.4594   -1.3537   -4.5834 C   0  0  0  0  0  0  0  0  0  0  0  0
  -28.7383   -0.4526   -5.2727 N   0  0  0  0  0  0  0  0  0  0  0  0
  -28.3107   -0.7362   -6.5232 C   0  0  0  0  0  0  0  0  0  0  0  0
  -27.6219    0.3092   -7.1255 N   0  0  0  0  0  0  0  0  0  0  0  0
  -28.5886   -2.0015   -7.1240 C   0  0  0  0  0  0  0  0  0  0  0  0
  -27.7336    1.1466   -6.5642 H   0  0  0  0  0  0  0  0  0  0  0  0
  -27.8447    0.4223   -8.1069 H   0  0  0  0  0  0  0  0  0  0  0  0
  -30.5960   -3.5114   -4.2925 C   0  0  0  0  0  0  0  0  0  0  0  0
  -31.2476   -4.2802   -3.6384 C   0  0  0  0  0  0  0  0  0  0  0  0
  -32.0008   -5.2286   -2.8179 C   0  0  0  0  0  0  0  0  0  0  0  0
  -31.1917   -6.4119   -2.5302 N   0  0  0  0  0  0  0  0  0  0  0  0
  -30.9619   -6.8728   -3.4094 H   0  0  0  0  0  0  0  0  0  0  0  0
  -31.7427   -7.0756   -1.9941 H   0  0  0  0  0  0  0  0  0  0  0  0
  -23.5112    0.3335  -14.0919 N   0  0  0  0  0  0  0  0  0  0  0  0
  -24.1697    0.1289  -12.8865 C   0  0  0  0  0  0  0  0  0  0  0  0
  -23.8713    0.6646  -11.8251 O   0  0  0  0  0  0  0  0  0  0  0  0
  -25.2056   -0.7985  -12.9751 N   0  0  0  0  0  0  0  0  0  0  0  0
  -23.9520   -0.0178  -14.9288 H   0  0  0  0  0  0  0  0  0  0  0  0
  -25.0450   -1.5556  -13.6233 H   0  0  0  0  0  0  0  0  0  0  0  0
  -18.6435    0.6694  -15.1367 C   0  0  0  0  0  0  0  0  0  0  0  0
  -19.9529    1.3040  -14.7660 C   0  0  0  0  0  0  0  0  0  0  0  0
  -20.0086    2.6908  -14.5898 C   0  0  0  0  0  0  0  0  0  0  0  0
  -21.2066    3.2995  -14.2497 C   0  0  0  0  0  0  0  0  0  0  0  0
  -22.3557    2.5286  -14.0832 C   0  0  0  0  0  0  0  0  0  0  0  0
  -22.3452    1.1394  -14.2582 C   0  0  0  0  0  0  0  0  0  0  0  0
  -21.1253    0.5322  -14.6007 C   0  0  0  0  0  0  0  0  0  0  0  0
 31 32  1  0  0  0
 32 33  1  0  0  0
 32 37  2  0  0  0
 33 34  2  0  0  0
 34 35  1  0  0  0
 35 36  2  0  0  0
 36 25  1  0  0  0
 36 37  1  0  0  0
 25 26  1  0  0  0
 25 29  1  0  0  0
 26 27  2  0  0  0
 26 28  1  0  0  0
 28  1  1  0  0  0
 28 30  1  0  0  0
  1  2  1  0  0  0
  1  6  2  0  0  0
  2  3  2  0  0  0
  3  4  1  0  0  0
  4  7  1  0  0  0
  4  5  2  0  0  0
  7  8  2  0  0  0
  7 16  1  0  0  0
  8  9  1  0  0  0
  9 10  1  0  0  0
 10 11  1  0  0  0
 10 16  2  0  0  0
 11 19  1  0  0  0
 11 12  2  0  0  0
 19 20  3  0  0  0
 20 21  1  0  0  0
 21 22  1  0  0  0
 22 23  1  0  0  0
 22 24  1  0  0  0
 12 13  1  0  0  0
 13 14  2  0  0  0
 14 15  1  0  0  0
 14 16  1  0  0  0
 15 17  1  0  0  0
 15 18  1  0  0  0
  5  6  1  0  0  0
M  END
> <minimizedAffinity>
-9.79622

$$$$
