CHEMBL3657556


 36 40  0  0  0  0  0  0  0  0999 V2000
  -27.1695   -1.7060  -10.8408 C   0  0  0  0  0  0  0  0  0  0  0  0
  -28.2280   -1.8612  -11.7166 C   0  0  0  0  0  0  0  0  0  0  0  0
  -27.9280   -1.8708  -13.0470 C   0  0  0  0  0  0  0  0  0  0  0  0
  -26.6671   -1.7528  -13.5302 N   0  0  0  0  0  0  0  0  0  0  0  0
  -25.6866   -1.6141  -12.6235 C   0  0  0  0  0  0  0  0  0  0  0  0
  -25.8967   -1.5714  -11.3002 N   0  0  0  0  0  0  0  0  0  0  0  0
  -27.9161   -2.3256   -7.3514 C   0  0  0  0  0  0  0  0  0  0  0  0
  -27.7793   -2.7658   -8.6525 C   0  0  0  0  0  0  0  0  0  0  0  0
  -27.4383   -1.6888   -9.4399 N   0  0  0  0  0  0  0  0  0  0  0  0
  -27.4131   -0.5405   -8.7010 N   0  0  0  0  0  0  0  0  0  0  0  0
  -27.8045   -0.9142   -7.4716 C   0  0  0  0  0  0  0  0  0  0  0  0
  -28.1331    0.0858   -6.4234 C   0  0  0  0  0  0  0  0  0  0  0  0
  -28.2005   -3.1529   -6.1243 C   0  0  0  0  0  0  0  0  0  0  0  0
  -31.0999   -4.4986   -4.5446 C   0  0  0  0  0  0  0  0  0  0  0  0
  -30.3509   -4.2851   -5.8591 C   0  0  0  0  0  0  0  0  0  0  0  0
  -29.6022   -3.0098   -5.7059 N   0  0  0  0  0  0  0  0  0  0  0  0
  -29.7668   -2.5981   -4.2906 C   0  0  0  0  0  0  0  0  0  0  0  0
  -30.1692   -3.8450   -3.5241 C   0  0  0  0  0  0  0  0  0  0  0  0
  -29.0158   -4.6268   -3.1989 O   0  0  0  0  0  0  0  0  0  0  0  0
  -28.7054   -5.0580   -4.0128 H   0  0  0  0  0  0  0  0  0  0  0  0
  -30.8570   -6.6957   -5.3309 C   0  0  0  0  0  0  0  0  0  0  0  0
  -31.3514   -5.8718   -4.2802 O   0  0  0  0  0  0  0  0  0  0  0  0
  -24.3701   -1.5726  -13.1138 N   0  0  0  0  0  0  0  0  0  0  0  0
  -24.1723   -2.4075  -13.6372 H   0  0  0  0  0  0  0  0  0  0  0  0
  -23.5369   -0.4637  -13.3866 C   0  0  0  0  0  0  0  0  0  0  0  0
  -23.8644    0.8576  -13.0826 C   0  0  0  0  0  0  0  0  0  0  0  0
  -23.0224    1.9490  -13.3953 C   0  0  0  0  0  0  0  0  0  0  0  0
  -21.8101    1.6836  -14.0553 C   0  0  0  0  0  0  0  0  0  0  0  0
  -21.4296    0.3680  -14.3387 C   0  0  0  0  0  0  0  0  0  0  0  0
  -22.2829   -0.7003  -13.9657 C   0  0  0  0  0  0  0  0  0  0  0  0
  -20.1866    0.4264  -15.0197 C   0  0  0  0  0  0  0  0  0  0  0  0
  -19.3433   -0.9417  -15.5932 Cl  0  0  0  0  0  0  0  0  0  0  0  0
  -19.8262    1.7473  -15.1733 C   0  0  0  0  0  0  0  0  0  0  0  0
  -18.6432    2.3078  -15.8882 C   0  0  0  0  0  0  0  0  0  0  0  0
  -20.7981    2.5093  -14.5423 N   0  0  0  0  0  0  0  0  0  0  0  0
  -20.7930    3.9550  -14.4455 C   0  0  0  0  0  0  0  0  0  0  0  0
 21 22  1  0  0  0
 14 15  1  0  0  0
 14 18  1  0  0  0
 14 22  1  0  0  0
 15 16  1  0  0  0
 16 13  1  0  0  0
 16 17  1  0  0  0
 13  7  1  0  0  0
  7  8  2  0  0  0
  7 11  1  0  0  0
  8  9  1  0  0  0
  9  1  1  0  0  0
  9 10  1  0  0  0
  1  2  1  0  0  0
  1  6  2  0  0  0
  2  3  2  0  0  0
  3  4  1  0  0  0
  4  5  2  0  0  0
  5 23  1  0  0  0
  5  6  1  0  0  0
 23 25  1  0  0  0
 23 24  1  0  0  0
 25 26  1  0  0  0
 25 30  2  0  0  0
 26 27  2  0  0  0
 27 28  1  0  0  0
 28 29  2  0  0  0
 28 35  1  0  0  0
 29 30  1  0  0  0
 29 31  1  0  0  0
 31 32  1  0  0  0
 31 33  2  0  0  0
 33 34  1  0  0  0
 33 35  1  0  0  0
 35 36  1  0  0  0
 10 11  2  0  0  0
 11 12  1  0  0  0
 17 18  1  0  0  0
 18 19  1  0  0  0
 19 20  1  0  0  0
M  END
> <minimizedAffinity>
-8.80892

$$$$
