CHEMBL68773


 32 35  0  0  0  0  0  0  0  0999 V2000
  -28.8297   -7.2070   -6.6404 C   0  0  0  0  0  0  0  0  0  0  0  0
  -28.6314   -7.3665   -5.2631 C   0  0  0  0  0  0  0  0  0  0  0  0
  -28.3831   -6.2617   -4.4479 C   0  0  0  0  0  0  0  0  0  0  0  0
  -28.2292   -4.9960   -5.0153 C   0  0  0  0  0  0  0  0  0  0  0  0
  -28.5192   -4.8119   -6.3645 C   0  0  0  0  0  0  0  0  0  0  0  0
  -28.8540   -5.9087   -7.1624 C   0  0  0  0  0  0  0  0  0  0  0  0
  -28.3853   -9.9480   -8.9816 N   0  0  0  0  0  0  0  0  0  0  0  0
  -27.9601   -8.8237   -8.3164 C   0  0  0  0  0  0  0  0  0  0  0  0
  -28.9878   -8.3703   -7.5079 C   0  0  0  0  0  0  0  0  0  0  0  0
  -30.1166   -9.2305   -7.7455 C   0  0  0  0  0  0  0  0  0  0  0  0
  -31.4532   -9.3391   -7.3087 C   0  0  0  0  0  0  0  0  0  0  0  0
  -32.0839   -8.4708   -6.4258 N   0  0  0  0  0  0  0  0  0  0  0  0
  -32.2179  -10.3470   -7.7724 N   0  0  0  0  0  0  0  0  0  0  0  0
  -31.6790  -11.2052   -8.6520 C   0  0  0  0  0  0  0  0  0  0  0  0
  -30.4396  -11.1985   -9.1604 N   0  0  0  0  0  0  0  0  0  0  0  0
  -29.7000  -10.1903   -8.6672 C   0  0  0  0  0  0  0  0  0  0  0  0
  -31.7964   -7.5066   -6.5271 H   0  0  0  0  0  0  0  0  0  0  0  0
  -33.0850   -8.6315   -6.4367 H   0  0  0  0  0  0  0  0  0  0  0  0
  -27.2672  -10.1485  -11.1821 C   0  0  0  0  0  0  0  0  0  0  0  0
  -27.5116  -10.7751   -9.8103 C   0  0  0  0  0  0  0  0  0  0  0  0
  -26.2081  -11.1613   -9.1146 C   0  0  0  0  0  0  0  0  0  0  0  0
  -27.8273   -3.8789   -4.3193 O   0  0  0  0  0  0  0  0  0  0  0  0
  -28.2788   -2.6409   -4.7242 C   0  0  0  0  0  0  0  0  0  0  0  0
  -29.6179   -2.2361   -4.6741 C   0  0  0  0  0  0  0  0  0  0  0  0
  -29.9992   -1.0010   -5.2011 C   0  0  0  0  0  0  0  0  0  0  0  0
  -29.0281   -0.1445   -5.7307 C   0  0  0  0  0  0  0  0  0  0  0  0
  -27.6757   -0.5030   -5.6739 C   0  0  0  0  0  0  0  0  0  0  0  0
  -27.3032   -1.7516   -5.1749 C   0  0  0  0  0  0  0  0  0  0  0  0
  -29.3873    1.1662   -6.3227 C   0  0  0  0  0  0  0  0  0  0  0  0
  -30.5207    1.6170   -6.2956 O   0  0  0  0  0  0  0  0  0  0  0  0
  -28.3402    1.8299   -6.8504 O   0  0  0  0  0  0  0  0  0  0  0  0
  -27.4634    1.4445   -6.6525 H   0  0  0  0  0  0  0  0  0  0  0  0
 19 20  1  0  0  0
 20 21  1  0  0  0
 20  7  1  0  0  0
  7  8  1  0  0  0
  7 16  1  0  0  0
  8  9  2  0  0  0
  9  1  1  0  0  0
  9 10  1  0  0  0
  1  2  1  0  0  0
  1  6  2  0  0  0
  2  3  2  0  0  0
  3  4  1  0  0  0
  4 22  1  0  0  0
  4  5  2  0  0  0
 22 23  1  0  0  0
 23 24  1  0  0  0
 23 28  2  0  0  0
 24 25  2  0  0  0
 25 26  1  0  0  0
 26 29  1  0  0  0
 26 27  2  0  0  0
 29 30  2  0  0  0
 29 31  1  0  0  0
 31 32  1  0  0  0
 27 28  1  0  0  0
  5  6  1  0  0  0
 10 11  1  0  0  0
 10 16  2  0  0  0
 11 12  1  0  0  0
 11 13  2  0  0  0
 12 17  1  0  0  0
 12 18  1  0  0  0
 13 14  1  0  0  0
 14 15  2  0  0  0
 15 16  1  0  0  0
M  END
> <minimizedAffinity>
-9.36325

$$$$
