CHEMBL1242660


 27 29  0  0  0  0  0  0  0  0999 V2000
  -29.5345   -7.9349   -7.6348 C   0  0  0  0  0  0  0  0  0  0  0  0
  -28.3830   -8.2820   -8.2351 N   0  0  0  0  0  0  0  0  0  0  0  0
  -28.6143   -9.5197   -8.7210 N   0  0  0  0  0  0  0  0  0  0  0  0
  -29.8902   -9.9638   -8.4919 C   0  0  0  0  0  0  0  0  0  0  0  0
  -30.4162  -11.1430   -8.8641 N   0  0  0  0  0  0  0  0  0  0  0  0
  -31.6974  -11.2523   -8.4798 C   0  0  0  0  0  0  0  0  0  0  0  0
  -32.4446  -10.3471   -7.8225 N   0  0  0  0  0  0  0  0  0  0  0  0
  -31.8800   -9.1729   -7.4735 C   0  0  0  0  0  0  0  0  0  0  0  0
  -32.7133   -8.2749   -6.8200 N   0  0  0  0  0  0  0  0  0  0  0  0
  -30.5330   -8.9491   -7.7985 C   0  0  0  0  0  0  0  0  0  0  0  0
  -33.6806   -8.5719   -6.8956 H   0  0  0  0  0  0  0  0  0  0  0  0
  -32.5464   -7.2988   -7.0317 H   0  0  0  0  0  0  0  0  0  0  0  0
  -30.0712   -5.3743   -4.9071 C   0  0  0  0  0  0  0  0  0  0  0  0
  -30.0061   -6.5938   -5.5967 C   0  0  0  0  0  0  0  0  0  0  0  0
  -29.6395   -6.6461   -6.9485 C   0  0  0  0  0  0  0  0  0  0  0  0
  -29.3972   -5.4527   -7.6293 C   0  0  0  0  0  0  0  0  0  0  0  0
  -29.4279   -4.2280   -6.9591 C   0  0  0  0  0  0  0  0  0  0  0  0
  -29.7471   -4.1830   -5.5859 C   0  0  0  0  0  0  0  0  0  0  0  0
  -31.9083   -5.2842   -3.3834 C   0  0  0  0  0  0  0  0  0  0  0  0
  -30.5040   -5.2819   -3.6092 O   0  0  0  0  0  0  0  0  0  0  0  0
  -29.1042   -3.0354   -7.5622 O   0  0  0  0  0  0  0  0  0  0  0  0
  -27.9440   -3.0350   -8.3863 C   0  0  0  0  0  0  0  0  0  0  0  0
  -29.7831   -2.9178   -5.0453 O   0  0  0  0  0  0  0  0  0  0  0  0
  -28.6751   -2.5205   -4.2501 C   0  0  0  0  0  0  0  0  0  0  0  0
  -27.5538  -10.2432   -9.4117 C   0  0  0  0  0  0  0  0  0  0  0  0
  -27.0667   -9.4788  -10.6434 C   0  0  0  0  0  0  0  0  0  0  0  0
  -26.3931  -10.5621   -8.4695 C   0  0  0  0  0  0  0  0  0  0  0  0
 19 20  1  0  0  0
 20 13  1  0  0  0
 13 14  1  0  0  0
 13 18  2  0  0  0
 14 15  2  0  0  0
 15  1  1  0  0  0
 15 16  1  0  0  0
  1  2  2  0  0  0
  1 10  1  0  0  0
  2  3  1  0  0  0
  3 25  1  0  0  0
  3  4  1  0  0  0
 25 26  1  0  0  0
 25 27  1  0  0  0
  4  5  1  0  0  0
  4 10  2  0  0  0
  5  6  2  0  0  0
  6  7  1  0  0  0
  7  8  2  0  0  0
  8  9  1  0  0  0
  8 10  1  0  0  0
  9 11  1  0  0  0
  9 12  1  0  0  0
 16 17  2  0  0  0
 17 21  1  0  0  0
 17 18  1  0  0  0
 21 22  1  0  0  0
 18 23  1  0  0  0
 23 24  1  0  0  0
M  END
> <minimizedAffinity>
-7.22335

$$$$
