CHEMBL3928601


 33 36  0  0  0  0  0  0  0  0999 V2000
  -18.4844    0.9686  -15.1921 C   0  0  0  0  0  0  0  0  0  0  0  0
  -19.7043    0.5505  -14.6462 C   0  0  0  0  0  0  0  0  0  0  0  0
  -20.7634    1.4657  -14.4269 C   0  0  0  0  0  0  0  0  0  0  0  0
  -21.9922    1.1614  -13.8305 C   0  0  0  0  0  0  0  0  0  0  0  0
  -22.9656    2.0819  -13.6753 N   0  0  0  0  0  0  0  0  0  0  0  0
  -22.7112    3.3157  -14.1077 C   0  0  0  0  0  0  0  0  0  0  0  0
  -21.5747    3.7162  -14.6851 N   0  0  0  0  0  0  0  0  0  0  0  0
  -20.6276    2.7900  -14.8335 C   0  0  0  0  0  0  0  0  0  0  0  0
  -19.4497    3.1698  -15.4415 C   0  0  0  0  0  0  0  0  0  0  0  0
  -18.3625    2.2986  -15.6259 C   0  0  0  0  0  0  0  0  0  0  0  0
  -16.4839    0.1164  -14.2053 C   0  0  0  0  0  0  0  0  0  0  0  0
  -17.3964    0.1421  -15.3081 O   0  0  0  0  0  0  0  0  0  0  0  0
  -22.2350   -0.1604  -13.3615 N   0  0  0  0  0  0  0  0  0  0  0  0
  -21.6778   -0.3230  -12.5296 H   0  0  0  0  0  0  0  0  0  0  0  0
  -23.5332   -0.7074  -13.2835 C   0  0  0  0  0  0  0  0  0  0  0  0
  -24.2407   -0.9988  -14.4590 C   0  0  0  0  0  0  0  0  0  0  0  0
  -25.5559   -1.4480  -14.4112 C   0  0  0  0  0  0  0  0  0  0  0  0
  -26.1813   -1.6279  -13.1788 C   0  0  0  0  0  0  0  0  0  0  0  0
  -27.8322   -2.1331  -13.1864 Cl  0  0  0  0  0  0  0  0  0  0  0  0
  -25.4727   -1.3844  -11.9959 C   0  0  0  0  0  0  0  0  0  0  0  0
  -26.1815   -1.5947  -10.4342 Cl  0  0  0  0  0  0  0  0  0  0  0  0
  -24.1473   -0.9339  -12.0494 C   0  0  0  0  0  0  0  0  0  0  0  0
  -17.1918    2.7101  -16.2444 O   0  0  0  0  0  0  0  0  0  0  0  0
  -16.4466    3.6503  -15.4556 C   0  0  0  0  0  0  0  0  0  0  0  0
  -15.4694    4.5379  -16.2250 C   0  0  0  0  0  0  0  0  0  0  0  0
  -15.1356    4.0808  -17.6497 C   0  0  0  0  0  0  0  0  0  0  0  0
  -14.1649    2.9704  -17.6726 N   0  0  0  0  0  0  0  0  0  0  0  0
  -13.8640    2.5961  -19.0517 C   0  0  0  0  0  0  0  0  0  0  0  0
  -12.9426    3.4108  -16.9665 C   0  0  0  0  0  0  0  0  0  0  0  0
  -13.2446    3.7820  -15.4921 C   0  0  0  0  0  0  0  0  0  0  0  0
  -13.5490    2.5291  -14.6511 C   0  0  0  0  0  0  0  0  0  0  0  0
  -12.0099    4.4451  -14.8594 C   0  0  0  0  0  0  0  0  0  0  0  0
  -14.2872    4.7815  -15.4214 O   0  0  0  0  0  0  0  0  0  0  0  0
 11 12  1  0  0  0
 12  1  1  0  0  0
  1  2  1  0  0  0
  1 10  2  0  0  0
  2  3  2  0  0  0
  3  4  1  0  0  0
  3  8  1  0  0  0
  4 13  1  0  0  0
  4  5  2  0  0  0
 13 15  1  0  0  0
 13 14  1  0  0  0
 15 16  1  0  0  0
 15 22  2  0  0  0
 16 17  2  0  0  0
 17 18  1  0  0  0
 18 19  1  0  0  0
 18 20  2  0  0  0
 20 21  1  0  0  0
 20 22  1  0  0  0
  5  6  1  0  0  0
  6  7  2  0  0  0
  7  8  1  0  0  0
  8  9  2  0  0  0
  9 10  1  0  0  0
 10 23  1  0  0  0
 23 24  1  0  0  0
 24 25  1  0  0  0
 25 26  1  0  0  0
 25 33  1  0  0  0
 26 27  1  0  0  0
 27 28  1  0  0  0
 27 29  1  0  0  0
 29 30  1  0  0  0
 30 31  1  0  0  0
 30 32  1  0  0  0
 30 33  1  0  0  0
M  END
> <minimizedAffinity>
-9.09521

$$$$
