CHEMBL360503


 25 27  0  0  0  0  0  0  0  0999 V2000
  -13.1864   -4.1246   -9.4400 C   0  0  0  0  0  0  0  0  0  0  0  0
  -14.4829   -3.6709   -9.5918 C   0  0  0  0  0  0  0  0  0  0  0  0
  -15.1099   -4.4336  -10.5287 N   0  0  0  0  0  0  0  0  0  0  0  0
  -16.3762   -4.2454  -10.9229 N   0  0  0  0  0  0  0  0  0  0  0  0
  -16.7750   -5.0941  -11.8113 C   0  0  0  0  0  0  0  0  0  0  0  0
  -16.0495   -6.1246  -12.3348 N   0  0  0  0  0  0  0  0  0  0  0  0
  -14.8119   -6.3177  -11.9685 C   0  0  0  0  0  0  0  0  0  0  0  0
  -14.2623   -5.4024  -10.9936 C   0  0  0  0  0  0  0  0  0  0  0  0
  -13.0390   -5.2474  -10.3393 C   0  0  0  0  0  0  0  0  0  0  0  0
  -11.7726   -6.0292  -10.4567 C   0  0  0  0  0  0  0  0  0  0  0  0
  -12.1955   -3.5507   -8.5301 C   0  0  0  0  0  0  0  0  0  0  0  0
  -11.5393   -2.5497   -8.7937 O   0  0  0  0  0  0  0  0  0  0  0  0
  -11.1107   -3.7500   -6.4596 C   0  0  0  0  0  0  0  0  0  0  0  0
  -12.0938   -4.2506   -7.3631 O   0  0  0  0  0  0  0  0  0  0  0  0
  -14.0920   -7.3460  -12.5350 N   0  0  0  0  0  0  0  0  0  0  0  0
  -13.8911   -8.1541  -11.9703 H   0  0  0  0  0  0  0  0  0  0  0  0
  -13.8737   -7.5661  -13.9086 C   0  0  0  0  0  0  0  0  0  0  0  0
  -14.0854   -6.5746  -14.8777 C   0  0  0  0  0  0  0  0  0  0  0  0
  -13.8452   -6.8232  -16.2324 C   0  0  0  0  0  0  0  0  0  0  0  0
  -13.3631   -8.0663  -16.6298 C   0  0  0  0  0  0  0  0  0  0  0  0
  -13.0365   -8.3878  -18.4661 Br  0  0  0  0  0  0  0  0  0  0  0  0
  -13.1262   -9.0539  -15.6746 C   0  0  0  0  0  0  0  0  0  0  0  0
  -12.6436  -10.2901  -16.0046 O   0  0  0  0  0  0  0  0  0  0  0  0
  -13.3772   -8.8088  -14.3257 C   0  0  0  0  0  0  0  0  0  0  0  0
  -12.5092  -10.2996  -16.9702 H   0  0  0  0  0  0  0  0  0  0  0  0
 13 14  1  0  0  0
 14 11  1  0  0  0
 11 12  2  0  0  0
 11  1  1  0  0  0
  1  2  2  0  0  0
  1  9  1  0  0  0
  2  3  1  0  0  0
  3  4  1  0  0  0
  3  8  1  0  0  0
  4  5  2  0  0  0
  5  6  1  0  0  0
  6  7  2  0  0  0
  7 15  1  0  0  0
  7  8  1  0  0  0
 15 17  1  0  0  0
 15 16  1  0  0  0
 17 18  1  0  0  0
 17 24  2  0  0  0
 18 19  2  0  0  0
 19 20  1  0  0  0
 20 21  1  0  0  0
 20 22  2  0  0  0
 22 23  1  0  0  0
 22 24  1  0  0  0
 23 25  1  0  0  0
  8  9  2  0  0  0
  9 10  1  0  0  0
M  END
> <minimizedAffinity>
-7.16416

$$$$
