CHEMBL327721


 30 34  0  0  0  0  0  0  0  0999 V2000
  -24.7458   -1.1913  -11.7214 N   0  0  0  0  0  0  0  0  0  0  0  0
  -25.1638   -1.3230  -10.4178 C   0  0  0  0  0  0  0  0  0  0  0  0
  -26.4938   -1.7061  -10.4146 C   0  0  0  0  0  0  0  0  0  0  0  0
  -26.9154   -1.7378  -11.7812 C   0  0  0  0  0  0  0  0  0  0  0  0
  -28.1596   -1.9318  -12.4276 C   0  0  0  0  0  0  0  0  0  0  0  0
  -28.2314   -1.9587  -13.8216 C   0  0  0  0  0  0  0  0  0  0  0  0
  -27.0738   -1.8773  -14.5814 C   0  0  0  0  0  0  0  0  0  0  0  0
  -25.8274   -1.7397  -13.9676 C   0  0  0  0  0  0  0  0  0  0  0  0
  -25.7730   -1.5708  -12.5706 C   0  0  0  0  0  0  0  0  0  0  0  0
  -27.2408   -2.0387   -9.2064 C   0  0  0  0  0  0  0  0  0  0  0  0
  -27.6266   -1.0520   -8.3010 C   0  0  0  0  0  0  0  0  0  0  0  0
  -28.3340   -1.2706   -7.1727 N   0  0  0  0  0  0  0  0  0  0  0  0
  -28.7151   -2.5470   -6.9440 C   0  0  0  0  0  0  0  0  0  0  0  0
  -28.4269   -3.6166   -7.7876 C   0  0  0  0  0  0  0  0  0  0  0  0
  -27.6701   -3.3449   -8.9344 C   0  0  0  0  0  0  0  0  0  0  0  0
  -28.9335   -4.9557   -7.4939 C   0  0  0  0  0  0  0  0  0  0  0  0
  -28.5291   -6.1877   -8.1126 C   0  0  0  0  0  0  0  0  0  0  0  0
  -29.1915   -7.2825   -7.6026 C   0  0  0  0  0  0  0  0  0  0  0  0
  -30.3087   -6.8444   -6.3862 S   0  0  0  0  0  0  0  0  0  0  0  0
  -29.9061   -5.1884   -6.5433 C   0  0  0  0  0  0  0  0  0  0  0  0
  -23.4072   -0.7463  -12.0978 C   0  0  0  0  0  0  0  0  0  0  0  0
  -23.3230    0.6317  -12.7981 C   0  0  0  0  0  0  0  0  0  0  0  0
  -21.9216    0.8873  -13.3584 C   0  0  0  0  0  0  0  0  0  0  0  0
  -17.6257    2.7503  -14.4669 C   0  0  0  0  0  0  0  0  0  0  0  0
  -18.9669    2.4713  -14.9734 N   0  0  0  0  0  0  0  0  0  0  0  0
  -19.2529    1.0266  -14.9449 C   0  0  0  0  0  0  0  0  0  0  0  0
  -20.6802    0.7224  -15.4662 C   0  0  0  0  0  0  0  0  0  0  0  0
  -21.7727    1.3940  -14.7283 N   0  0  0  0  0  0  0  0  0  0  0  0
  -21.4386    2.8505  -14.6627 C   0  0  0  0  0  0  0  0  0  0  0  0
  -19.9918    3.1971  -14.2032 C   0  0  0  0  0  0  0  0  0  0  0  0
 24 25  1  0  0  0
 25 26  1  0  0  0
 25 30  1  0  0  0
 26 27  1  0  0  0
 27 28  1  0  0  0
 28 23  1  0  0  0
 28 29  1  0  0  0
 23 22  1  0  0  0
 22 21  1  0  0  0
 21  1  1  0  0  0
  1  2  1  0  0  0
  1  9  1  0  0  0
  2  3  2  0  0  0
  3 10  1  0  0  0
  3  4  1  0  0  0
 10 11  1  0  0  0
 10 15  2  0  0  0
 11 12  2  0  0  0
 12 13  1  0  0  0
 13 14  2  0  0  0
 14 16  1  0  0  0
 14 15  1  0  0  0
 16 17  1  0  0  0
 16 20  2  0  0  0
 17 18  2  0  0  0
 18 19  1  0  0  0
 19 20  1  0  0  0
  4  5  1  0  0  0
  4  9  2  0  0  0
  5  6  2  0  0  0
  6  7  1  0  0  0
  7  8  2  0  0  0
  8  9  1  0  0  0
 29 30  1  0  0  0
M  END
> <minimizedAffinity>
-8.45785

$$$$
