CHEMBL3981059


 28 31  0  0  0  0  0  0  0  0999 V2000
  -28.4564   -7.9120   -6.4271 C   0  0  0  0  0  0  0  0  0  0  0  0
  -28.8156   -8.1734   -5.1591 N   0  0  0  0  0  0  0  0  0  0  0  0
  -29.3996   -7.1667   -4.4668 C   0  0  0  0  0  0  0  0  0  0  0  0
  -29.6589   -5.9198   -4.9920 C   0  0  0  0  0  0  0  0  0  0  0  0
  -29.3371   -5.7842   -6.3282 C   0  0  0  0  0  0  0  0  0  0  0  0
  -28.7357   -6.7529   -7.0361 N   0  0  0  0  0  0  0  0  0  0  0  0
  -29.5542   -4.4935   -7.0636 C   0  0  0  0  0  0  0  0  0  0  0  0
  -30.5786   -3.6319   -6.3362 C   0  0  0  0  0  0  0  0  0  0  0  0
  -30.1868   -3.5259   -4.9312 N   0  0  0  0  0  0  0  0  0  0  0  0
  -29.6914   -2.3984   -4.2733 C   0  0  0  0  0  0  0  0  0  0  0  0
  -29.5289   -2.3891   -3.0527 O   0  0  0  0  0  0  0  0  0  0  0  0
  -30.2774   -4.7992   -4.2026 C   0  0  0  0  0  0  0  0  0  0  0  0
  -29.3345   -1.1533   -5.0102 C   0  0  0  0  0  0  0  0  0  0  0  0
  -30.2006   -0.0812   -5.2315 C   0  0  0  0  0  0  0  0  0  0  0  0
  -29.7729    1.0429   -5.9347 C   0  0  0  0  0  0  0  0  0  0  0  0
  -28.4945    1.0354   -6.4592 C   0  0  0  0  0  0  0  0  0  0  0  0
  -27.6426   -0.0017   -6.3244 N   0  0  0  0  0  0  0  0  0  0  0  0
  -28.0840   -1.0740   -5.6123 C   0  0  0  0  0  0  0  0  0  0  0  0
  -27.7651   -8.8977   -7.1295 N   0  0  0  0  0  0  0  0  0  0  0  0
  -26.8280   -9.0007   -6.7714 H   0  0  0  0  0  0  0  0  0  0  0  0
  -27.3660   -9.5240  -10.7739 C   0  0  0  0  0  0  0  0  0  0  0  0
  -28.3470  -10.4898  -11.0022 C   0  0  0  0  0  0  0  0  0  0  0  0
  -29.1453  -10.9241   -9.9547 C   0  0  0  0  0  0  0  0  0  0  0  0
  -28.9715  -10.3912   -8.6775 C   0  0  0  0  0  0  0  0  0  0  0  0
  -28.0065   -9.4082   -8.4176 C   0  0  0  0  0  0  0  0  0  0  0  0
  -27.2037   -8.9905   -9.4880 C   0  0  0  0  0  0  0  0  0  0  0  0
  -26.9506   -9.0524  -13.0688 C   0  0  0  0  0  0  0  0  0  0  0  0
  -26.4977   -9.0392  -11.7170 O   0  0  0  0  0  0  0  0  0  0  0  0
 27 28  1  0  0  0
 28 21  1  0  0  0
 21 22  1  0  0  0
 21 26  2  0  0  0
 22 23  2  0  0  0
 23 24  1  0  0  0
 24 25  2  0  0  0
 25 19  1  0  0  0
 25 26  1  0  0  0
 19  1  1  0  0  0
 19 20  1  0  0  0
  1  2  1  0  0  0
  1  6  2  0  0  0
  2  3  2  0  0  0
  3  4  1  0  0  0
  4  5  2  0  0  0
  4 12  1  0  0  0
  5  6  1  0  0  0
  5  7  1  0  0  0
  7  8  1  0  0  0
  8  9  1  0  0  0
  9 10  1  0  0  0
  9 12  1  0  0  0
 10 11  2  0  0  0
 10 13  1  0  0  0
 13 14  1  0  0  0
 13 18  2  0  0  0
 14 15  2  0  0  0
 15 16  1  0  0  0
 16 17  2  0  0  0
 17 18  1  0  0  0
M  END
> <minimizedAffinity>
-8.76864

$$$$
