CHEMBL4205266


 43 47  0  0  0  0  0  0  0  0999 V2000
  -14.6529   -0.7270  -14.3035 N   0  0  0  0  0  0  0  0  0  0  0  0
  -14.7523   -1.2333  -13.0151 C   0  0  0  0  0  0  0  0  0  0  0  0
  -15.5819   -0.8941  -12.1746 O   0  0  0  0  0  0  0  0  0  0  0  0
  -13.8872   -1.0398  -14.8833 H   0  0  0  0  0  0  0  0  0  0  0  0
  -17.5534    1.5530  -15.0494 C   0  0  0  0  0  0  0  0  0  0  0  0
  -16.8108    0.4803  -14.5224 C   0  0  0  0  0  0  0  0  0  0  0  0
  -15.4678    0.2902  -14.8619 C   0  0  0  0  0  0  0  0  0  0  0  0
  -14.8879    1.1534  -15.7981 C   0  0  0  0  0  0  0  0  0  0  0  0
  -15.6063    2.2447  -16.3015 C   0  0  0  0  0  0  0  0  0  0  0  0
  -16.9335    2.4752  -15.9125 C   0  0  0  0  0  0  0  0  0  0  0  0
  -17.6615    3.6849  -16.4332 C   0  0  0  0  0  0  0  0  0  0  0  0
  -23.2442    0.3140  -14.0041 C   0  0  0  0  0  0  0  0  0  0  0  0
  -22.0811   -0.3547  -14.3181 C   0  0  0  0  0  0  0  0  0  0  0  0
  -21.1170    0.6240  -14.4253 N   0  0  0  0  0  0  0  0  0  0  0  0
  -19.7625    0.5231  -14.7523 C   0  0  0  0  0  0  0  0  0  0  0  0
  -18.9966    1.6384  -14.7416 C   0  0  0  0  0  0  0  0  0  0  0  0
  -19.6388    2.9135  -14.3946 C   0  0  0  0  0  0  0  0  0  0  0  0
  -20.9473    2.9972  -14.0955 C   0  0  0  0  0  0  0  0  0  0  0  0
  -21.7453    1.8235  -14.1121 C   0  0  0  0  0  0  0  0  0  0  0  0
  -23.0203    1.6491  -13.8680 N   0  0  0  0  0  0  0  0  0  0  0  0
  -26.1888   -1.5475  -12.7130 C   0  0  0  0  0  0  0  0  0  0  0  0
  -24.8386   -0.8855  -12.6245 C   0  0  0  0  0  0  0  0  0  0  0  0
  -24.2002   -0.9343  -11.5796 O   0  0  0  0  0  0  0  0  0  0  0  0
  -24.4772   -0.2618  -13.8072 N   0  0  0  0  0  0  0  0  0  0  0  0
  -25.1566   -0.1589  -14.5448 H   0  0  0  0  0  0  0  0  0  0  0  0
  -13.7442   -2.2600  -12.6038 C   0  0  0  0  0  0  0  0  0  0  0  0
  -12.4499   -2.3007  -13.1189 C   0  0  0  0  0  0  0  0  0  0  0  0
  -11.5515   -3.2767  -12.6725 C   0  0  0  0  0  0  0  0  0  0  0  0
  -11.9051   -4.2118  -11.6773 C   0  0  0  0  0  0  0  0  0  0  0  0
  -13.1944   -4.1484  -11.1075 C   0  0  0  0  0  0  0  0  0  0  0  0
  -14.1001   -3.1764  -11.5992 C   0  0  0  0  0  0  0  0  0  0  0  0
  -13.6838   -5.0279   -9.9682 C   0  0  0  0  0  0  0  0  0  0  0  0
  -12.7986   -5.2827   -8.9705 F   0  0  0  0  0  0  0  0  0  0  0  0
  -14.7555   -4.4596   -9.3376 F   0  0  0  0  0  0  0  0  0  0  0  0
  -14.1241   -6.2418  -10.4044 F   0  0  0  0  0  0  0  0  0  0  0  0
  -10.8608   -5.2368  -11.2682 C   0  0  0  0  0  0  0  0  0  0  0  0
  -10.9668   -6.5064  -11.9904 N   0  0  0  0  0  0  0  0  0  0  0  0
  -11.1878   -7.6778  -11.1260 C   0  0  0  0  0  0  0  0  0  0  0  0
  -11.2761   -8.9788  -11.9605 C   0  0  0  0  0  0  0  0  0  0  0  0
  -12.3105   -8.9713  -13.0135 N   0  0  0  0  0  0  0  0  0  0  0  0
  -13.6513   -9.0996  -12.4509 C   0  0  0  0  0  0  0  0  0  0  0  0
  -12.1672   -7.7427  -13.8211 C   0  0  0  0  0  0  0  0  0  0  0  0
  -12.0388   -6.4346  -13.0051 C   0  0  0  0  0  0  0  0  0  0  0  0
 21 22  1  0  0  0
 22 23  2  0  0  0
 22 24  1  0  0  0
 24 12  1  0  0  0
 24 25  1  0  0  0
 12 13  2  0  0  0
 12 20  1  0  0  0
 13 14  1  0  0  0
 14 15  1  0  0  0
 14 19  1  0  0  0
 15 16  2  0  0  0
 16  5  1  0  0  0
 16 17  1  0  0  0
  5  6  1  0  0  0
  5 10  2  0  0  0
  6  7  2  0  0  0
  7  1  1  0  0  0
  7  8  1  0  0  0
  1  2  1  0  0  0
  1  4  1  0  0  0
  2  3  2  0  0  0
  2 26  1  0  0  0
 26 27  1  0  0  0
 26 31  2  0  0  0
 27 28  2  0  0  0
 28 29  1  0  0  0
 29 36  1  0  0  0
 29 30  2  0  0  0
 36 37  1  0  0  0
 37 38  1  0  0  0
 37 43  1  0  0  0
 38 39  1  0  0  0
 39 40  1  0  0  0
 40 41  1  0  0  0
 40 42  1  0  0  0
 42 43  1  0  0  0
 30 32  1  0  0  0
 30 31  1  0  0  0
 32 33  1  0  0  0
 32 34  1  0  0  0
 32 35  1  0  0  0
  8  9  2  0  0  0
  9 10  1  0  0  0
 10 11  1  0  0  0
 17 18  2  0  0  0
 18 19  1  0  0  0
 19 20  2  0  0  0
M  END
> <minimizedAffinity>
-9.78751

$$$$
