CHEMBL1290471


 33 36  0  0  0  0  0  0  0  0999 V2000
  -29.4624   -3.3785   -5.0547 C   0  0  0  0  0  0  0  0  0  0  0  0
  -28.3887   -2.9484   -4.2960 C   0  0  0  0  0  0  0  0  0  0  0  0
  -27.4269   -1.8445   -5.2071 S   0  0  0  0  0  0  0  0  0  0  0  0
  -28.5293   -1.9894   -6.4928 C   0  0  0  0  0  0  0  0  0  0  0  0
  -29.5149   -2.8291   -6.3180 N   0  0  0  0  0  0  0  0  0  0  0  0
  -28.2916   -1.2100   -7.5964 N   0  0  0  0  0  0  0  0  0  0  0  0
  -27.6456   -1.7662   -8.6718 C   0  0  0  0  0  0  0  0  0  0  0  0
  -27.2879   -2.9426   -8.7168 O   0  0  0  0  0  0  0  0  0  0  0  0
  -27.4426   -0.8632   -9.7006 N   0  0  0  0  0  0  0  0  0  0  0  0
  -28.7996   -0.3452   -7.6796 H   0  0  0  0  0  0  0  0  0  0  0  0
  -27.4073    0.1102   -9.4453 H   0  0  0  0  0  0  0  0  0  0  0  0
  -26.8701   -1.2165  -10.9528 C   0  0  0  0  0  0  0  0  0  0  0  0
  -27.6479   -1.5023  -12.0828 C   0  0  0  0  0  0  0  0  0  0  0  0
  -27.0671   -1.9592  -13.2665 C   0  0  0  0  0  0  0  0  0  0  0  0
  -25.6873   -2.1021  -13.3430 C   0  0  0  0  0  0  0  0  0  0  0  0
  -24.8996   -1.7574  -12.2471 C   0  0  0  0  0  0  0  0  0  0  0  0
  -23.1885   -1.9162  -12.3533 Cl  0  0  0  0  0  0  0  0  0  0  0  0
  -25.4795   -1.3042  -11.0560 C   0  0  0  0  0  0  0  0  0  0  0  0
  -30.5054   -4.3814   -4.6931 C   0  0  0  0  0  0  0  0  0  0  0  0
  -30.3353   -5.8886   -6.6298 N   0  0  0  0  0  0  0  0  0  0  0  0
  -30.2802   -5.7770   -5.2568 C   0  0  0  0  0  0  0  0  0  0  0  0
  -29.9749   -6.6801   -4.4737 O   0  0  0  0  0  0  0  0  0  0  0  0
  -30.4843   -5.0629   -7.2105 H   0  0  0  0  0  0  0  0  0  0  0  0
  -28.2309  -12.1721  -10.2210 C   0  0  0  0  0  0  0  0  0  0  0  0
  -28.9964  -11.1096   -9.4830 C   0  0  0  0  0  0  0  0  0  0  0  0
  -30.3210  -11.3296   -9.0984 C   0  0  0  0  0  0  0  0  0  0  0  0
  -31.0360  -10.3506   -8.3989 C   0  0  0  0  0  0  0  0  0  0  0  0
  -30.4226   -9.1229   -8.0784 C   0  0  0  0  0  0  0  0  0  0  0  0
  -31.0063   -8.0834   -7.3779 N   0  0  0  0  0  0  0  0  0  0  0  0
  -30.1601   -7.0930   -7.2626 C   0  0  0  0  0  0  0  0  0  0  0  0
  -28.6366   -7.3126   -7.9985 S   0  0  0  0  0  0  0  0  0  0  0  0
  -29.1052   -8.9041   -8.4851 C   0  0  0  0  0  0  0  0  0  0  0  0
  -28.3724   -9.8854   -9.1789 C   0  0  0  0  0  0  0  0  0  0  0  0
 24 25  1  0  0  0
 25 26  1  0  0  0
 25 33  2  0  0  0
 26 27  2  0  0  0
 27 28  1  0  0  0
 28 29  1  0  0  0
 28 32  2  0  0  0
 29 30  2  0  0  0
 30 20  1  0  0  0
 30 31  1  0  0  0
 20 21  1  0  0  0
 20 23  1  0  0  0
 21 22  2  0  0  0
 21 19  1  0  0  0
 19  1  1  0  0  0
  1  2  2  0  0  0
  1  5  1  0  0  0
  2  3  1  0  0  0
  3  4  1  0  0  0
  4  6  1  0  0  0
  4  5  2  0  0  0
  6  7  1  0  0  0
  6 10  1  0  0  0
  7  8  2  0  0  0
  7  9  1  0  0  0
  9 12  1  0  0  0
  9 11  1  0  0  0
 12 13  1  0  0  0
 12 18  2  0  0  0
 13 14  2  0  0  0
 14 15  1  0  0  0
 15 16  2  0  0  0
 16 17  1  0  0  0
 16 18  1  0  0  0
 31 32  1  0  0  0
 32 33  1  0  0  0
M  END
> <minimizedAffinity>
-9.14151

$$$$
