CHEMBL244289


 40 43  0  0  0  0  0  0  0  0999 V2000
  -27.7450   -2.4880   -5.3995 C   0  0  0  0  0  0  0  0  0  0  0  0
  -27.4688   -1.2804   -4.7532 C   0  0  0  0  0  0  0  0  0  0  0  0
  -27.6862   -0.0805   -5.4136 C   0  0  0  0  0  0  0  0  0  0  0  0
  -28.0622   -0.0870   -6.7491 C   0  0  0  0  0  0  0  0  0  0  0  0
  -28.1719   -1.2838   -7.4688 C   0  0  0  0  0  0  0  0  0  0  0  0
  -28.0588   -2.4952   -6.7713 C   0  0  0  0  0  0  0  0  0  0  0  0
  -28.3858   -1.2738   -8.8758 N   0  0  0  0  0  0  0  0  0  0  0  0
  -27.3571   -1.4303   -9.7935 C   0  0  0  0  0  0  0  0  0  0  0  0
  -26.1894   -1.6706   -9.4994 O   0  0  0  0  0  0  0  0  0  0  0  0
  -27.7668   -1.2650  -11.1112 N   0  0  0  0  0  0  0  0  0  0  0  0
  -29.3173   -1.5004   -9.2062 H   0  0  0  0  0  0  0  0  0  0  0  0
  -28.4308   -0.5110  -11.2430 H   0  0  0  0  0  0  0  0  0  0  0  0
  -26.7874   -1.3900  -12.1399 C   0  0  0  0  0  0  0  0  0  0  0  0
  -25.4902   -0.8846  -11.9703 C   0  0  0  0  0  0  0  0  0  0  0  0
  -24.5782   -0.8580  -13.0384 C   0  0  0  0  0  0  0  0  0  0  0  0
  -24.9839   -1.3588  -14.2862 C   0  0  0  0  0  0  0  0  0  0  0  0
  -26.2594   -1.9082  -14.4482 C   0  0  0  0  0  0  0  0  0  0  0  0
  -27.1430   -1.9402  -13.3710 C   0  0  0  0  0  0  0  0  0  0  0  0
  -28.3792   -2.4290  -13.5520 F   0  0  0  0  0  0  0  0  0  0  0  0
  -23.1959   -0.2718  -12.8633 C   0  0  0  0  0  0  0  0  0  0  0  0
  -22.3183   -0.6255  -13.8417 F   0  0  0  0  0  0  0  0  0  0  0  0
  -23.2157    1.0908  -12.8593 F   0  0  0  0  0  0  0  0  0  0  0  0
  -22.6183   -0.6378  -11.6864 F   0  0  0  0  0  0  0  0  0  0  0  0
  -27.6752   -3.7056   -4.7459 O   0  0  0  0  0  0  0  0  0  0  0  0
  -30.5090   -8.4203   -6.6095 C   0  0  0  0  0  0  0  0  0  0  0  0
  -29.3016   -7.9029   -6.6485 N   0  0  0  0  0  0  0  0  0  0  0  0
  -29.3589   -6.7306   -5.9353 C   0  0  0  0  0  0  0  0  0  0  0  0
  -28.3600   -5.7727   -5.6872 C   0  0  0  0  0  0  0  0  0  0  0  0
  -28.6898   -4.6326   -4.9411 C   0  0  0  0  0  0  0  0  0  0  0  0
  -30.0038   -4.4518   -4.4794 C   0  0  0  0  0  0  0  0  0  0  0  0
  -30.9971   -5.4215   -4.6722 C   0  0  0  0  0  0  0  0  0  0  0  0
  -30.6360   -6.5387   -5.4223 C   0  0  0  0  0  0  0  0  0  0  0  0
  -31.3411   -7.6368   -5.8463 N   0  0  0  0  0  0  0  0  0  0  0  0
  -32.3135   -7.8172   -5.6611 H   0  0  0  0  0  0  0  0  0  0  0  0
  -32.2466   -9.6659   -7.6949 C   0  0  0  0  0  0  0  0  0  0  0  0
  -33.1289   -8.8238   -7.7097 O   0  0  0  0  0  0  0  0  0  0  0  0
  -30.9715   -9.5568   -7.2194 N   0  0  0  0  0  0  0  0  0  0  0  0
  -30.3926  -10.3745   -7.3140 H   0  0  0  0  0  0  0  0  0  0  0  0
  -31.1779  -11.5666   -8.5319 C   0  0  0  0  0  0  0  0  0  0  0  0
  -32.4108  -10.9301   -8.1818 O   0  0  0  0  0  0  0  0  0  0  0  0
 39 40  1  0  0  0
 40 35  1  0  0  0
 35 36  2  0  0  0
 35 37  1  0  0  0
 37 25  1  0  0  0
 37 38  1  0  0  0
 25 26  2  0  0  0
 25 33  1  0  0  0
 26 27  1  0  0  0
 27 28  1  0  0  0
 27 32  2  0  0  0
 28 29  2  0  0  0
 29 24  1  0  0  0
 29 30  1  0  0  0
 24  1  1  0  0  0
  1  2  1  0  0  0
  1  6  2  0  0  0
  2  3  2  0  0  0
  3  4  1  0  0  0
  4  5  2  0  0  0
  5  7  1  0  0  0
  5  6  1  0  0  0
  7  8  1  0  0  0
  7 11  1  0  0  0
  8  9  2  0  0  0
  8 10  1  0  0  0
 10 13  1  0  0  0
 10 12  1  0  0  0
 13 14  1  0  0  0
 13 18  2  0  0  0
 14 15  2  0  0  0
 15 20  1  0  0  0
 15 16  1  0  0  0
 20 21  1  0  0  0
 20 22  1  0  0  0
 20 23  1  0  0  0
 16 17  2  0  0  0
 17 18  1  0  0  0
 18 19  1  0  0  0
 30 31  2  0  0  0
 31 32  1  0  0  0
 32 33  1  0  0  0
 33 34  1  0  0  0
M  END
> <minimizedAffinity>
-11.91540

$$$$
