CHEMBL2016907


 31 35  0  0  0  0  0  0  0  0999 V2000
  -27.9281  -12.4335   -6.3575 O   0  0  0  0  0  0  0  0  0  0  0  0
  -27.6177  -11.4647   -5.6541 C   0  0  0  0  0  0  0  0  0  0  0  0
  -28.3044  -10.2471   -5.7311 N   0  0  0  0  0  0  0  0  0  0  0  0
  -29.4234  -10.2340   -6.7009 C   0  0  0  0  0  0  0  0  0  0  0  0
  -30.3979   -9.0451   -6.6552 C   0  0  0  0  0  0  0  0  0  0  0  0
  -29.7160   -7.8304   -6.1884 C   0  0  0  0  0  0  0  0  0  0  0  0
  -30.2411   -6.5733   -6.2284 N   0  0  0  0  0  0  0  0  0  0  0  0
  -29.3138   -5.7811   -5.7095 C   0  0  0  0  0  0  0  0  0  0  0  0
  -28.2079   -6.5239   -5.3322 N   0  0  0  0  0  0  0  0  0  0  0  0
  -28.4696   -7.8336   -5.6259 C   0  0  0  0  0  0  0  0  0  0  0  0
  -27.5950   -8.9967   -5.4063 C   0  0  0  0  0  0  0  0  0  0  0  0
  -27.3647   -6.1304   -4.9240 H   0  0  0  0  0  0  0  0  0  0  0  0
  -29.3298   -4.3704   -5.5154 C   0  0  0  0  0  0  0  0  0  0  0  0
  -28.6882   -3.5989   -6.4121 C   0  0  0  0  0  0  0  0  0  0  0  0
  -28.6258   -2.1487   -6.2621 C   0  0  0  0  0  0  0  0  0  0  0  0
  -27.9710   -1.3437   -7.1985 C   0  0  0  0  0  0  0  0  0  0  0  0
  -27.9057    0.0411   -7.0100 C   0  0  0  0  0  0  0  0  0  0  0  0
  -28.4983    0.6186   -5.8846 C   0  0  0  0  0  0  0  0  0  0  0  0
  -29.1614   -0.1772   -4.9484 C   0  0  0  0  0  0  0  0  0  0  0  0
  -29.2238   -1.5569   -5.1417 C   0  0  0  0  0  0  0  0  0  0  0  0
  -29.9007   -2.3646   -4.2188 N   0  0  0  0  0  0  0  0  0  0  0  0
  -30.0150   -3.7270   -4.3429 C   0  0  0  0  0  0  0  0  0  0  0  0
  -30.6536   -4.3846   -3.5206 O   0  0  0  0  0  0  0  0  0  0  0  0
  -30.3572   -1.9508   -3.4172 H   0  0  0  0  0  0  0  0  0  0  0  0
  -26.4931  -11.6233   -4.6154 C   0  0  0  0  0  0  0  0  0  0  0  0
  -25.2711  -12.1684   -5.2491 N   0  0  0  0  0  0  0  0  0  0  0  0
  -24.2316  -12.4659   -4.2383 C   0  0  0  0  0  0  0  0  0  0  0  0
  -23.5499  -11.2198   -3.6408 C   0  0  0  0  0  0  0  0  0  0  0  0
  -23.0157  -10.3641   -4.6574 O   0  0  0  0  0  0  0  0  0  0  0  0
  -24.0318   -9.9852   -5.5959 C   0  0  0  0  0  0  0  0  0  0  0  0
  -24.6744  -11.2279   -6.2342 C   0  0  0  0  0  0  0  0  0  0  0  0
  1  2  2  0  0  0
  2 25  1  0  0  0
  2  3  1  0  0  0
 25 26  1  0  0  0
 26 27  1  0  0  0
 26 31  1  0  0  0
 27 28  1  0  0  0
 28 29  1  0  0  0
 29 30  1  0  0  0
 30 31  1  0  0  0
  3  4  1  0  0  0
  3 11  1  0  0  0
  4  5  1  0  0  0
  5  6  1  0  0  0
  6  7  1  0  0  0
  6 10  2  0  0  0
  7  8  2  0  0  0
  8 13  1  0  0  0
  8  9  1  0  0  0
 13 14  2  0  0  0
 13 22  1  0  0  0
 14 15  1  0  0  0
 15 16  1  0  0  0
 15 20  2  0  0  0
 16 17  2  0  0  0
 17 18  1  0  0  0
 18 19  2  0  0  0
 19 20  1  0  0  0
 20 21  1  0  0  0
 21 22  1  0  0  0
 21 24  1  0  0  0
 22 23  2  0  0  0
  9 10  1  0  0  0
  9 12  1  0  0  0
 10 11  1  0  0  0
M  END
> <minimizedAffinity>
-8.48346

$$$$
