CHEMBL347074


 31 34  0  0  0  0  0  0  0  0999 V2000
  -16.5656    4.2286  -16.3272 C   0  0  0  0  0  0  0  0  0  0  0  0
  -17.0621    3.0326  -15.9708 C   0  0  0  0  0  0  0  0  0  0  0  0
  -16.3831    1.6892  -16.1433 C   0  0  0  0  0  0  0  0  0  0  0  0
  -15.2599    1.4290  -16.5330 O   0  0  0  0  0  0  0  0  0  0  0  0
  -17.3064    0.7630  -15.7012 N   0  0  0  0  0  0  0  0  0  0  0  0
  -18.4668    1.3754  -15.2550 C   0  0  0  0  0  0  0  0  0  0  0  0
  -19.5744    0.7243  -14.7536 C   0  0  0  0  0  0  0  0  0  0  0  0
  -20.6988    1.4806  -14.3853 C   0  0  0  0  0  0  0  0  0  0  0  0
  -20.6233    2.8921  -14.5398 C   0  0  0  0  0  0  0  0  0  0  0  0
  -19.4734    3.5397  -15.0373 C   0  0  0  0  0  0  0  0  0  0  0  0
  -18.3871    2.7620  -15.3897 C   0  0  0  0  0  0  0  0  0  0  0  0
  -17.1197   -0.2280  -15.7095 H   0  0  0  0  0  0  0  0  0  0  0  0
  -13.5910    4.5396  -15.2921 C   0  0  0  0  0  0  0  0  0  0  0  0
  -14.0514    4.5021  -16.7078 C   0  0  0  0  0  0  0  0  0  0  0  0
  -13.2979    4.7360  -17.9083 C   0  0  0  0  0  0  0  0  0  0  0  0
  -14.1894    4.6093  -18.9605 C   0  0  0  0  0  0  0  0  0  0  0  0
  -15.4388    4.3600  -18.4563 N   0  0  0  0  0  0  0  0  0  0  0  0
  -15.3746    4.3246  -17.0881 C   0  0  0  0  0  0  0  0  0  0  0  0
  -16.2859    4.3187  -19.0036 H   0  0  0  0  0  0  0  0  0  0  0  0
  -11.8573    5.1369  -18.0494 C   0  0  0  0  0  0  0  0  0  0  0  0
  -11.6701    6.6192  -18.3447 C   0  0  0  0  0  0  0  0  0  0  0  0
  -12.1844    7.4808  -17.2197 C   0  0  0  0  0  0  0  0  0  0  0  0
  -11.7287    7.5303  -16.0903 O   0  0  0  0  0  0  0  0  0  0  0  0
  -13.2480    8.2308  -17.6027 O   0  0  0  0  0  0  0  0  0  0  0  0
  -13.5049    8.0929  -18.5346 H   0  0  0  0  0  0  0  0  0  0  0  0
  -21.9177    0.8039  -13.8771 C   0  0  0  0  0  0  0  0  0  0  0  0
  -22.1015   -0.5845  -13.9923 C   0  0  0  0  0  0  0  0  0  0  0  0
  -23.2530   -1.2101  -13.4987 C   0  0  0  0  0  0  0  0  0  0  0  0
  -24.2546   -0.4584  -12.8902 C   0  0  0  0  0  0  0  0  0  0  0  0
  -24.1091    0.9182  -12.7798 C   0  0  0  0  0  0  0  0  0  0  0  0
  -22.9530    1.5380  -13.2623 C   0  0  0  0  0  0  0  0  0  0  0  0
 13 14  1  0  0  0
 14 15  1  0  0  0
 14 18  2  0  0  0
 15 20  1  0  0  0
 15 16  2  0  0  0
 20 21  1  0  0  0
 21 22  1  0  0  0
 22 23  2  0  0  0
 22 24  1  0  0  0
 24 25  1  0  0  0
 16 17  1  0  0  0
 17 18  1  0  0  0
 17 19  1  0  0  0
 18  1  1  0  0  0
  1  2  2  0  0  0
  2  3  1  0  0  0
  2 11  1  0  0  0
  3  4  2  0  0  0
  3  5  1  0  0  0
  5  6  1  0  0  0
  5 12  1  0  0  0
  6  7  1  0  0  0
  6 11  2  0  0  0
  7  8  2  0  0  0
  8 26  1  0  0  0
  8  9  1  0  0  0
 26 27  1  0  0  0
 26 31  2  0  0  0
 27 28  2  0  0  0
 28 29  1  0  0  0
 29 30  2  0  0  0
 30 31  1  0  0  0
  9 10  2  0  0  0
 10 11  1  0  0  0
M  END
> <minimizedAffinity>
-8.95562

$$$$
