CHEMBL3906715


 32 35  0  0  0  0  0  0  0  0999 V2000
  -27.9563   -9.1016   -7.4113 C   0  0  0  0  0  0  0  0  0  0  0  0
  -28.5806   -7.8855   -7.1292 C   0  0  0  0  0  0  0  0  0  0  0  0
  -29.0323   -7.5816   -5.8255 C   0  0  0  0  0  0  0  0  0  0  0  0
  -29.7879   -6.4545   -5.4839 C   0  0  0  0  0  0  0  0  0  0  0  0
  -30.1508   -6.1885   -4.2144 N   0  0  0  0  0  0  0  0  0  0  0  0
  -29.7738   -7.0653   -3.2831 C   0  0  0  0  0  0  0  0  0  0  0  0
  -29.0786   -8.1838   -3.5010 N   0  0  0  0  0  0  0  0  0  0  0  0
  -28.7213   -8.4281   -4.7677 C   0  0  0  0  0  0  0  0  0  0  0  0
  -28.0237   -9.5886   -5.0370 C   0  0  0  0  0  0  0  0  0  0  0  0
  -27.6826   -9.9740   -6.3445 C   0  0  0  0  0  0  0  0  0  0  0  0
  -28.6573   -9.9390   -9.5446 C   0  0  0  0  0  0  0  0  0  0  0  0
  -27.6124   -9.4971   -8.6768 O   0  0  0  0  0  0  0  0  0  0  0  0
  -30.2276   -5.5731   -6.5112 N   0  0  0  0  0  0  0  0  0  0  0  0
  -31.2476   -5.6117   -6.5608 H   0  0  0  0  0  0  0  0  0  0  0  0
  -29.7103   -4.2702   -6.6639 C   0  0  0  0  0  0  0  0  0  0  0  0
  -28.9424   -3.9574   -7.7923 C   0  0  0  0  0  0  0  0  0  0  0  0
  -28.3211   -2.7162   -7.9204 C   0  0  0  0  0  0  0  0  0  0  0  0
  -27.3585   -2.4633   -9.3351 Cl  0  0  0  0  0  0  0  0  0  0  0  0
  -28.4770   -1.7486   -6.9218 C   0  0  0  0  0  0  0  0  0  0  0  0
  -27.6602   -0.2233   -7.0434 Cl  0  0  0  0  0  0  0  0  0  0  0  0
  -29.2911   -2.0401   -5.8157 C   0  0  0  0  0  0  0  0  0  0  0  0
  -29.5580   -0.9033   -4.5371 Cl  0  0  0  0  0  0  0  0  0  0  0  0
  -29.9119   -3.2902   -5.6920 C   0  0  0  0  0  0  0  0  0  0  0  0
  -27.0878  -11.1915   -6.6183 O   0  0  0  0  0  0  0  0  0  0  0  0
  -25.8760  -11.4254   -5.8796 C   0  0  0  0  0  0  0  0  0  0  0  0
  -24.7952  -10.3637   -6.1266 C   0  0  0  0  0  0  0  0  0  0  0  0
  -23.5379  -10.9348   -6.8023 C   0  0  0  0  0  0  0  0  0  0  0  0
  -22.8437  -11.8790   -5.9029 N   0  0  0  0  0  0  0  0  0  0  0  0
  -21.6859  -12.4659   -6.5652 C   0  0  0  0  0  0  0  0  0  0  0  0
  -22.4652  -11.1631   -4.6710 C   0  0  0  0  0  0  0  0  0  0  0  0
  -23.6952  -10.5310   -3.9966 C   0  0  0  0  0  0  0  0  0  0  0  0
  -24.4394   -9.6880   -4.8941 O   0  0  0  0  0  0  0  0  0  0  0  0
 11 12  1  0  0  0
 12  1  1  0  0  0
  1  2  1  0  0  0
  1 10  2  0  0  0
  2  3  2  0  0  0
  3  4  1  0  0  0
  3  8  1  0  0  0
  4 13  1  0  0  0
  4  5  2  0  0  0
 13 15  1  0  0  0
 13 14  1  0  0  0
 15 16  1  0  0  0
 15 23  2  0  0  0
 16 17  2  0  0  0
 17 18  1  0  0  0
 17 19  1  0  0  0
 19 20  1  0  0  0
 19 21  2  0  0  0
 21 22  1  0  0  0
 21 23  1  0  0  0
  5  6  1  0  0  0
  6  7  2  0  0  0
  7  8  1  0  0  0
  8  9  2  0  0  0
  9 10  1  0  0  0
 10 24  1  0  0  0
 24 25  1  0  0  0
 25 26  1  0  0  0
 26 27  1  0  0  0
 26 32  1  0  0  0
 27 28  1  0  0  0
 28 29  1  0  0  0
 28 30  1  0  0  0
 30 31  1  0  0  0
 31 32  1  0  0  0
M  END
> <minimizedAffinity>
-7.81634

$$$$
