CHEMBL3128236


 39 43  0  0  0  0  0  0  0  0999 V2000
  -24.7029  -10.9333   -3.8617 C   0  0  0  0  0  0  0  0  0  0  0  0
  -28.1913   -9.3912   -3.4832 C   0  0  0  0  0  0  0  0  0  0  0  0
  -28.9834  -10.4976   -3.8021 C   0  0  0  0  0  0  0  0  0  0  0  0
  -28.4094  -11.7388   -4.0880 C   0  0  0  0  0  0  0  0  0  0  0  0
  -27.0287  -11.8833   -4.0920 C   0  0  0  0  0  0  0  0  0  0  0  0
  -26.2064  -10.7816   -3.8233 C   0  0  0  0  0  0  0  0  0  0  0  0
  -26.7976   -9.5459   -3.4930 C   0  0  0  0  0  0  0  0  0  0  0  0
  -28.3281   -7.0192   -5.1689 O   0  0  0  0  0  0  0  0  0  0  0  0
  -28.7115   -7.0048   -4.0049 C   0  0  0  0  0  0  0  0  0  0  0  0
  -29.1538   -5.8579   -3.3537 N   0  0  0  0  0  0  0  0  0  0  0  0
  -28.7206   -8.1111   -3.1732 N   0  0  0  0  0  0  0  0  0  0  0  0
  -29.2806   -5.9219   -2.3547 H   0  0  0  0  0  0  0  0  0  0  0  0
  -29.1958   -8.0253   -2.2888 H   0  0  0  0  0  0  0  0  0  0  0  0
  -29.1585   -4.5536   -3.9071 C   0  0  0  0  0  0  0  0  0  0  0  0
  -28.3259   -3.5219   -3.4566 C   0  0  0  0  0  0  0  0  0  0  0  0
  -28.4539   -2.2228   -3.9560 C   0  0  0  0  0  0  0  0  0  0  0  0
  -29.4041   -1.9517   -4.9310 C   0  0  0  0  0  0  0  0  0  0  0  0
  -29.6190   -0.1837   -5.5607 Br  0  0  0  0  0  0  0  0  0  0  0  0
  -30.2033   -2.9767   -5.4349 C   0  0  0  0  0  0  0  0  0  0  0  0
  -30.0734   -4.2764   -4.9291 C   0  0  0  0  0  0  0  0  0  0  0  0
  -24.1870  -10.1841   -4.9936 N   0  0  0  0  0  0  0  0  0  0  0  0
  -23.2562   -9.8119   -4.8447 H   0  0  0  0  0  0  0  0  0  0  0  0
  -24.3429  -10.7862   -6.2423 C   0  0  0  0  0  0  0  0  0  0  0  0
  -23.4976  -11.7628   -6.6444 N   0  0  0  0  0  0  0  0  0  0  0  0
  -23.7011  -12.3498   -7.8416 C   0  0  0  0  0  0  0  0  0  0  0  0
  -24.6643  -12.0861   -8.7411 N   0  0  0  0  0  0  0  0  0  0  0  0
  -25.4912  -11.1175   -8.3093 C   0  0  0  0  0  0  0  0  0  0  0  0
  -25.3927  -10.4411   -7.1064 C   0  0  0  0  0  0  0  0  0  0  0  0
  -26.4654   -9.5309   -7.1273 C   0  0  0  0  0  0  0  0  0  0  0  0
  -27.2016   -9.6138   -8.2403 N   0  0  0  0  0  0  0  0  0  0  0  0
  -26.5995  -10.6091   -8.9445 N   0  0  0  0  0  0  0  0  0  0  0  0
  -27.1444  -10.9578  -10.2464 C   0  0  0  0  0  0  0  0  0  0  0  0
  -28.2825  -11.9788  -10.2238 C   0  0  0  0  0  0  0  0  0  0  0  0
  -29.3688  -11.6701   -9.2180 C   0  0  0  0  0  0  0  0  0  0  0  0
  -29.5099  -12.4660   -8.0712 C   0  0  0  0  0  0  0  0  0  0  0  0
  -30.4533  -12.1457   -7.0938 C   0  0  0  0  0  0  0  0  0  0  0  0
  -31.2705  -11.0293   -7.2539 C   0  0  0  0  0  0  0  0  0  0  0  0
  -31.1510  -10.2394   -8.3956 C   0  0  0  0  0  0  0  0  0  0  0  0
  -30.2053  -10.5564   -9.3736 C   0  0  0  0  0  0  0  0  0  0  0  0
  8  9  2  0  0  0
  9 10  1  0  0  0
  9 11  1  0  0  0
 10 14  1  0  0  0
 10 12  1  0  0  0
 14 15  1  0  0  0
 14 20  2  0  0  0
 15 16  2  0  0  0
 16 17  1  0  0  0
 17 18  1  0  0  0
 17 19  2  0  0  0
 19 20  1  0  0  0
 11  2  1  0  0  0
 11 13  1  0  0  0
  2  3  1  0  0  0
  2  7  2  0  0  0
  3  4  2  0  0  0
  4  5  1  0  0  0
  5  6  2  0  0  0
  6  1  1  0  0  0
  6  7  1  0  0  0
  1 21  1  0  0  0
 21 23  1  0  0  0
 21 22  1  0  0  0
 23 24  1  0  0  0
 23 28  2  0  0  0
 24 25  2  0  0  0
 25 26  1  0  0  0
 26 27  2  0  0  0
 27 28  1  0  0  0
 27 31  1  0  0  0
 28 29  1  0  0  0
 29 30  2  0  0  0
 30 31  1  0  0  0
 31 32  1  0  0  0
 32 33  1  0  0  0
 33 34  1  0  0  0
 34 35  1  0  0  0
 34 39  2  0  0  0
 35 36  2  0  0  0
 36 37  1  0  0  0
 37 38  2  0  0  0
 38 39  1  0  0  0
M  END
> <minimizedAffinity>
-7.74834

$$$$
