CHEMBL2337365


 27 30  0  0  0  0  0  0  0  0999 V2000
  -15.6558   -1.7938  -12.3908 N   0  0  0  0  0  0  0  0  0  0  0  0
  -15.3729   -0.6668  -13.1344 C   0  0  0  0  0  0  0  0  0  0  0  0
  -16.3201   -0.2624  -13.9812 N   0  0  0  0  0  0  0  0  0  0  0  0
  -16.1546    0.8663  -14.7236 C   0  0  0  0  0  0  0  0  0  0  0  0
  -14.9468    1.5804  -14.5847 C   0  0  0  0  0  0  0  0  0  0  0  0
  -14.0380    1.0150  -13.7020 C   0  0  0  0  0  0  0  0  0  0  0  0
  -14.1837   -0.0941  -12.9675 N   0  0  0  0  0  0  0  0  0  0  0  0
  -12.9194    1.7879  -13.6704 N   0  0  0  0  0  0  0  0  0  0  0  0
  -13.0607    2.8714  -14.5011 C   0  0  0  0  0  0  0  0  0  0  0  0
  -12.1574    3.9169  -14.7448 C   0  0  0  0  0  0  0  0  0  0  0  0
  -12.5298    4.9176  -15.6424 C   0  0  0  0  0  0  0  0  0  0  0  0
  -13.7602    4.8691  -16.2816 C   0  0  0  0  0  0  0  0  0  0  0  0
  -14.6413    3.8147  -16.0236 C   0  0  0  0  0  0  0  0  0  0  0  0
  -16.1440    3.7781  -16.8325 Cl  0  0  0  0  0  0  0  0  0  0  0  0
  -14.3245    2.7771  -15.1114 C   0  0  0  0  0  0  0  0  0  0  0  0
  -16.3807   -2.3275  -12.8486 H   0  0  0  0  0  0  0  0  0  0  0  0
  -14.8082   -2.2732  -12.1285 H   0  0  0  0  0  0  0  0  0  0  0  0
  -12.1159    1.5837  -13.0956 H   0  0  0  0  0  0  0  0  0  0  0  0
  -17.2138    1.2718  -15.5426 N   0  0  0  0  0  0  0  0  0  0  0  0
  -17.2144    0.8231  -16.4523 H   0  0  0  0  0  0  0  0  0  0  0  0
  -18.5105    1.6349  -15.1326 C   0  0  0  0  0  0  0  0  0  0  0  0
  -18.7536    2.9611  -14.7500 C   0  0  0  0  0  0  0  0  0  0  0  0
  -20.0296    3.3698  -14.3507 C   0  0  0  0  0  0  0  0  0  0  0  0
  -21.0781    2.4527  -14.3431 C   0  0  0  0  0  0  0  0  0  0  0  0
  -20.8393    1.1397  -14.7250 C   0  0  0  0  0  0  0  0  0  0  0  0
  -21.8498    0.2594  -14.7270 F   0  0  0  0  0  0  0  0  0  0  0  0
  -19.5726    0.7250  -15.1144 C   0  0  0  0  0  0  0  0  0  0  0  0
  1  2  1  0  0  0
  1 16  1  0  0  0
  1 17  1  0  0  0
  2  3  1  0  0  0
  2  7  2  0  0  0
  3  4  2  0  0  0
  4 19  1  0  0  0
  4  5  1  0  0  0
 19 21  1  0  0  0
 19 20  1  0  0  0
 21 22  1  0  0  0
 21 27  2  0  0  0
 22 23  2  0  0  0
 23 24  1  0  0  0
 24 25  2  0  0  0
 25 26  1  0  0  0
 25 27  1  0  0  0
  5  6  2  0  0  0
  5 15  1  0  0  0
  6  7  1  0  0  0
  6  8  1  0  0  0
  8  9  1  0  0  0
  8 18  1  0  0  0
  9 10  1  0  0  0
  9 15  2  0  0  0
 10 11  2  0  0  0
 11 12  1  0  0  0
 12 13  2  0  0  0
 13 14  1  0  0  0
 13 15  1  0  0  0
M  END
> <minimizedAffinity>
-8.02396

$$$$
