CHEMBL4567879


 29 31  0  0  0  0  0  0  0  0999 V2000
  -28.0458   -3.2646   -8.0879 C   0  0  0  0  0  0  0  0  0  0  0  0
  -28.3634   -2.3471   -7.0840 C   0  0  0  0  0  0  0  0  0  0  0  0
  -29.2363   -2.6879   -6.0584 C   0  0  0  0  0  0  0  0  0  0  0  0
  -29.8422   -3.9372   -6.0476 C   0  0  0  0  0  0  0  0  0  0  0  0
  -29.6127   -4.8601   -7.0710 C   0  0  0  0  0  0  0  0  0  0  0  0
  -28.6672   -4.5355   -8.0653 C   0  0  0  0  0  0  0  0  0  0  0  0
  -28.2390   -1.2466  -10.2608 O   0  0  0  0  0  0  0  0  0  0  0  0
  -27.2774   -1.9864  -10.1058 C   0  0  0  0  0  0  0  0  0  0  0  0
  -26.1763   -1.9038  -10.9360 N   0  0  0  0  0  0  0  0  0  0  0  0
  -27.1256   -2.9569   -9.1269 N   0  0  0  0  0  0  0  0  0  0  0  0
  -25.5847   -2.7143  -11.0226 H   0  0  0  0  0  0  0  0  0  0  0  0
  -26.2711   -3.4913   -9.1493 H   0  0  0  0  0  0  0  0  0  0  0  0
  -26.2208   -1.0147  -12.0825 C   0  0  0  0  0  0  0  0  0  0  0  0
  -24.8475   -0.7189  -12.6295 C   0  0  0  0  0  0  0  0  0  0  0  0
  -24.6018   -0.7023  -14.0101 C   0  0  0  0  0  0  0  0  0  0  0  0
  -23.3351   -0.3737  -14.5003 C   0  0  0  0  0  0  0  0  0  0  0  0
  -22.3037   -0.0552  -13.6181 C   0  0  0  0  0  0  0  0  0  0  0  0
  -22.5365   -0.0653  -12.2448 C   0  0  0  0  0  0  0  0  0  0  0  0
  -23.8006   -0.3951  -11.7533 C   0  0  0  0  0  0  0  0  0  0  0  0
  -30.3309   -6.0851   -7.1351 N   0  0  0  0  0  0  0  0  0  0  0  0
  -29.8366   -7.3194   -6.7140 C   0  0  0  0  0  0  0  0  0  0  0  0
  -28.7198   -7.5325   -6.2460 O   0  0  0  0  0  0  0  0  0  0  0  0
  -31.3177   -6.0707   -7.3761 H   0  0  0  0  0  0  0  0  0  0  0  0
  -30.7771   -8.4807   -6.7981 C   0  0  0  0  0  0  0  0  0  0  0  0
  -32.1106   -8.2304   -7.1271 C   0  0  0  0  0  0  0  0  0  0  0  0
  -32.9903   -9.3018   -7.2194 C   0  0  0  0  0  0  0  0  0  0  0  0
  -32.5114  -10.5843   -6.9792 C   0  0  0  0  0  0  0  0  0  0  0  0
  -31.1694  -10.7401   -6.6567 C   0  0  0  0  0  0  0  0  0  0  0  0
  -30.2743   -9.7241   -6.5614 N   0  0  0  0  0  0  0  0  0  0  0  0
  7  8  2  0  0  0
  8  9  1  0  0  0
  8 10  1  0  0  0
  9 13  1  0  0  0
  9 11  1  0  0  0
 13 14  1  0  0  0
 14 15  1  0  0  0
 14 19  2  0  0  0
 15 16  2  0  0  0
 16 17  1  0  0  0
 17 18  2  0  0  0
 18 19  1  0  0  0
 10  1  1  0  0  0
 10 12  1  0  0  0
  1  2  1  0  0  0
  1  6  2  0  0  0
  2  3  2  0  0  0
  3  4  1  0  0  0
  4  5  2  0  0  0
  5 20  1  0  0  0
  5  6  1  0  0  0
 20 21  1  0  0  0
 20 23  1  0  0  0
 21 22  2  0  0  0
 21 24  1  0  0  0
 24 25  1  0  0  0
 24 29  2  0  0  0
 25 26  2  0  0  0
 26 27  1  0  0  0
 27 28  2  0  0  0
 28 29  1  0  0  0
M  END
> <minimizedAffinity>
-9.20205

$$$$
