CHEMBL394465


 31 35  0  0  0  0  0  0  0  0999 V2000
  -30.4324   -7.6857   -7.5205 C   0  0  0  0  0  0  0  0  0  0  0  0
  -29.1469   -7.7124   -8.0963 C   0  0  0  0  0  0  0  0  0  0  0  0
  -28.3109   -6.5913   -8.1408 C   0  0  0  0  0  0  0  0  0  0  0  0
  -28.7765   -5.4030   -7.5793 C   0  0  0  0  0  0  0  0  0  0  0  0
  -28.1545   -4.1888   -7.4961 N   0  0  0  0  0  0  0  0  0  0  0  0
  -28.9912   -3.4081   -6.8437 C   0  0  0  0  0  0  0  0  0  0  0  0
  -30.1434   -4.0802   -6.5266 N   0  0  0  0  0  0  0  0  0  0  0  0
  -30.0333   -5.3672   -6.9916 C   0  0  0  0  0  0  0  0  0  0  0  0
  -30.8844   -6.4811   -6.9478 C   0  0  0  0  0  0  0  0  0  0  0  0
  -30.9180   -3.6718   -6.0233 H   0  0  0  0  0  0  0  0  0  0  0  0
  -33.0924  -12.4649   -6.3697 C   0  0  0  0  0  0  0  0  0  0  0  0
  -32.6023  -11.3738   -7.2090 N   0  0  0  0  0  0  0  0  0  0  0  0
  -33.1762  -10.0801   -6.7660 C   0  0  0  0  0  0  0  0  0  0  0  0
  -32.6341   -8.8691   -7.5676 C   0  0  0  0  0  0  0  0  0  0  0  0
  -31.1686   -8.8587   -7.4793 N   0  0  0  0  0  0  0  0  0  0  0  0
  -30.5507  -10.1122   -7.9522 C   0  0  0  0  0  0  0  0  0  0  0  0
  -31.1232  -11.3008   -7.1467 C   0  0  0  0  0  0  0  0  0  0  0  0
  -28.7317   -1.9823   -6.4741 C   0  0  0  0  0  0  0  0  0  0  0  0
  -29.2055   -1.4669   -5.3271 N   0  0  0  0  0  0  0  0  0  0  0  0
  -28.7443   -0.2036   -5.3359 N   0  0  0  0  0  0  0  0  0  0  0  0
  -28.0192    0.1137   -6.4476 C   0  0  0  0  0  0  0  0  0  0  0  0
  -27.9929   -1.0229   -7.2228 C   0  0  0  0  0  0  0  0  0  0  0  0
  -28.9628    0.3942   -4.5457 H   0  0  0  0  0  0  0  0  0  0  0  0
  -27.3650   -1.1851   -8.4965 C   0  0  0  0  0  0  0  0  0  0  0  0
  -27.9610   -1.4794   -9.6625 C   0  0  0  0  0  0  0  0  0  0  0  0
  -27.2244   -1.6367  -10.9279 C   0  0  0  0  0  0  0  0  0  0  0  0
  -27.8511   -1.7281  -12.1757 C   0  0  0  0  0  0  0  0  0  0  0  0
  -27.0879   -1.8677  -13.3330 C   0  0  0  0  0  0  0  0  0  0  0  0
  -25.7089   -1.8927  -13.2110 C   0  0  0  0  0  0  0  0  0  0  0  0
  -25.0592   -1.7816  -12.0340 N   0  0  0  0  0  0  0  0  0  0  0  0
  -25.8306   -1.6540  -10.9263 C   0  0  0  0  0  0  0  0  0  0  0  0
 11 12  1  0  0  0
 12 13  1  0  0  0
 12 17  1  0  0  0
 13 14  1  0  0  0
 14 15  1  0  0  0
 15  1  1  0  0  0
 15 16  1  0  0  0
  1  2  1  0  0  0
  1  9  2  0  0  0
  2  3  2  0  0  0
  3  4  1  0  0  0
  4  5  1  0  0  0
  4  8  2  0  0  0
  5  6  2  0  0  0
  6 18  1  0  0  0
  6  7  1  0  0  0
 18 19  2  0  0  0
 18 22  1  0  0  0
 19 20  1  0  0  0
 20 21  1  0  0  0
 20 23  1  0  0  0
 21 22  2  0  0  0
 22 24  1  0  0  0
 24 25  2  0  0  0
 25 26  1  0  0  0
 26 27  1  0  0  0
 26 31  2  0  0  0
 27 28  2  0  0  0
 28 29  1  0  0  0
 29 30  2  0  0  0
 30 31  1  0  0  0
  7  8  1  0  0  0
  7 10  1  0  0  0
  8  9  1  0  0  0
 16 17  1  0  0  0
M  END
> <minimizedAffinity>
-9.01590

$$$$
