CHEMBL3889890


 35 38  0  0  0  0  0  0  0  0999 V2000
  -30.2606   -6.3800   -6.0814 N   0  0  0  0  0  0  0  0  0  0  0  0
  -29.5221   -5.1948   -6.4635 C   0  0  0  0  0  0  0  0  0  0  0  0
  -29.2751   -4.2127   -5.5144 C   0  0  0  0  0  0  0  0  0  0  0  0
  -28.8126   -2.9552   -5.8509 C   0  0  0  0  0  0  0  0  0  0  0  0
  -28.4528   -2.6377   -7.1191 C   0  0  0  0  0  0  0  0  0  0  0  0
  -28.0903   -1.3544   -7.2529 N   0  0  0  0  0  0  0  0  0  0  0  0
  -27.5773   -1.0021   -8.4305 C   0  0  0  0  0  0  0  0  0  0  0  0
  -27.3994   -1.9024   -9.4482 C   0  0  0  0  0  0  0  0  0  0  0  0
  -27.8280   -3.2129   -9.3472 N   0  0  0  0  0  0  0  0  0  0  0  0
  -28.4262   -3.6126   -8.1447 C   0  0  0  0  0  0  0  0  0  0  0  0
  -29.0342   -4.8875   -7.7900 C   0  0  0  0  0  0  0  0  0  0  0  0
  -26.6414   -1.4155  -10.5990 C   0  0  0  0  0  0  0  0  0  0  0  0
  -26.9648   -1.3923  -11.9804 C   0  0  0  0  0  0  0  0  0  0  0  0
  -25.9116   -1.1030  -12.7570 N   0  0  0  0  0  0  0  0  0  0  0  0
  -24.9088   -0.9473  -11.8762 N   0  0  0  0  0  0  0  0  0  0  0  0
  -23.6647   -0.3317  -12.2742 C   0  0  0  0  0  0  0  0  0  0  0  0
  -25.2596   -1.2943  -10.6022 C   0  0  0  0  0  0  0  0  0  0  0  0
  -30.6595   -7.4741   -6.9323 C   0  0  0  0  0  0  0  0  0  0  0  0
  -31.9373   -8.0809   -6.8059 C   0  0  0  0  0  0  0  0  0  0  0  0
  -32.2676   -9.2754   -7.4556 C   0  0  0  0  0  0  0  0  0  0  0  0
  -31.3760   -9.8153   -8.3766 C   0  0  0  0  0  0  0  0  0  0  0  0
  -30.1495   -9.1866   -8.6052 C   0  0  0  0  0  0  0  0  0  0  0  0
  -29.7917   -8.0469   -7.8700 C   0  0  0  0  0  0  0  0  0  0  0  0
  -33.4181   -9.9960   -7.2606 O   0  0  0  0  0  0  0  0  0  0  0  0
  -33.3060  -11.1981   -6.5002 C   0  0  0  0  0  0  0  0  0  0  0  0
  -29.1957   -9.6320   -9.4838 O   0  0  0  0  0  0  0  0  0  0  0  0
  -27.8563   -9.2287   -9.2202 C   0  0  0  0  0  0  0  0  0  0  0  0
  -29.9886   -6.8783   -4.6517 C   0  0  0  0  0  0  0  0  0  0  0  0
  -28.7233   -7.7293   -4.4612 C   0  0  0  0  0  0  0  0  0  0  0  0
  -27.5344   -7.1971   -4.5420 N   0  0  0  0  0  0  0  0  0  0  0  0
  -26.5245   -8.1395   -4.3134 O   0  0  0  0  0  0  0  0  0  0  0  0
  -25.7168   -7.6528   -4.5619 H   0  0  0  0  0  0  0  0  0  0  0  0
  -28.9240   -9.2388   -4.1653 C   0  0  0  0  0  0  0  0  0  0  0  0
  -29.6954  -11.1095   -5.3573 C   0  0  0  0  0  0  0  0  0  0  0  0
  -28.6348  -10.1564   -5.2117 O   0  0  0  0  0  0  0  0  0  0  0  0
 34 35  1  0  0  0
 35 33  1  0  0  0
 33 29  1  0  0  0
 29 28  1  0  0  0
 29 30  2  0  0  0
 28  1  1  0  0  0
  1 18  1  0  0  0
  1  2  1  0  0  0
 18 19  1  0  0  0
 18 23  2  0  0  0
 19 20  2  0  0  0
 20 24  1  0  0  0
 20 21  1  0  0  0
 24 25  1  0  0  0
 21 22  2  0  0  0
 22 26  1  0  0  0
 22 23  1  0  0  0
 26 27  1  0  0  0
  2  3  1  0  0  0
  2 11  2  0  0  0
  3  4  2  0  0  0
  4  5  1  0  0  0
  5  6  1  0  0  0
  5 10  2  0  0  0
  6  7  2  0  0  0
  7  8  1  0  0  0
  8 12  1  0  0  0
  8  9  2  0  0  0
 12 13  1  0  0  0
 12 17  2  0  0  0
 13 14  2  0  0  0
 14 15  1  0  0  0
 15 16  1  0  0  0
 15 17  1  0  0  0
  9 10  1  0  0  0
 10 11  1  0  0  0
 30 31  1  0  0  0
 31 32  1  0  0  0
M  END
> <minimizedAffinity>
-7.99036

$$$$
