CHEMBL265284


 41 47  0  0  0  0  0  0  0  0999 V2000
  -13.9896   -7.1099  -14.0085 N   0  0  0  0  0  0  0  0  0  0  0  0
  -14.3317   -5.8383  -13.4909 C   0  0  0  0  0  0  0  0  0  0  0  0
  -14.9759   -5.4392  -12.2967 C   0  0  0  0  0  0  0  0  0  0  0  0
  -15.2855   -4.0742  -12.1053 C   0  0  0  0  0  0  0  0  0  0  0  0
  -14.9370   -3.1097  -13.0459 C   0  0  0  0  0  0  0  0  0  0  0  0
  -14.3253   -3.5221  -14.2355 C   0  0  0  0  0  0  0  0  0  0  0  0
  -14.0379   -4.8816  -14.4646 C   0  0  0  0  0  0  0  0  0  0  0  0
  -13.6004   -5.6784  -15.5142 C   0  0  0  0  0  0  0  0  0  0  0  0
  -13.6651   -5.2208  -16.8446 C   0  0  0  0  0  0  0  0  0  0  0  0
  -13.7354   -6.2265  -17.8270 C   0  0  0  0  0  0  0  0  0  0  0  0
  -13.6629   -7.6070  -17.5409 C   0  0  0  0  0  0  0  0  0  0  0  0
  -12.9694   -7.8727  -16.3168 C   0  0  0  0  0  0  0  0  0  0  0  0
  -13.3585   -6.9882  -15.2610 C   0  0  0  0  0  0  0  0  0  0  0  0
  -11.4394   -8.2722  -16.6351 C   0  0  0  0  0  0  0  0  0  0  0  0
  -10.9935   -8.0532  -18.1529 C   0  0  0  0  0  0  0  0  0  0  0  0
  -12.0283   -8.7315  -18.9822 C   0  0  0  0  0  0  0  0  0  0  0  0
  -11.8723   -9.7869  -19.7816 N   0  0  0  0  0  0  0  0  0  0  0  0
  -13.1344  -10.2809  -19.8620 N   0  0  0  0  0  0  0  0  0  0  0  0
  -13.3752  -11.5349  -20.5343 C   0  0  0  0  0  0  0  0  0  0  0  0
  -14.0342   -9.6190  -19.0607 C   0  0  0  0  0  0  0  0  0  0  0  0
  -13.3690   -8.5004  -18.6335 C   0  0  0  0  0  0  0  0  0  0  0  0
  -13.6998   -5.5726  -19.1126 C   0  0  0  0  0  0  0  0  0  0  0  0
  -13.6174   -5.9753  -20.2617 O   0  0  0  0  0  0  0  0  0  0  0  0
  -13.6836   -4.2166  -18.8086 N   0  0  0  0  0  0  0  0  0  0  0  0
  -13.7160   -3.8762  -17.4069 C   0  0  0  0  0  0  0  0  0  0  0  0
  -13.5218   -3.5556  -19.5503 H   0  0  0  0  0  0  0  0  0  0  0  0
  -15.1657   -1.7278  -12.9139 N   0  0  0  0  0  0  0  0  0  0  0  0
  -14.2641   -0.6918  -12.9889 C   0  0  0  0  0  0  0  0  0  0  0  0
  -13.0785   -0.7590  -13.2237 O   0  0  0  0  0  0  0  0  0  0  0  0
  -16.0960   -1.4284  -12.6519 H   0  0  0  0  0  0  0  0  0  0  0  0
  -14.9411    0.4900  -12.6716 O   0  0  0  0  0  0  0  0  0  0  0  0
  -15.7732    0.9753  -13.6968 C   0  0  0  0  0  0  0  0  0  0  0  0
  -17.1494    1.0633  -13.4684 C   0  0  0  0  0  0  0  0  0  0  0  0
  -17.9653    1.6339  -14.4508 C   0  0  0  0  0  0  0  0  0  0  0  0
  -17.4004    2.1124  -15.6268 C   0  0  0  0  0  0  0  0  0  0  0  0
  -18.1834    2.6645  -16.5647 F   0  0  0  0  0  0  0  0  0  0  0  0
  -16.0288    2.0453  -15.8422 C   0  0  0  0  0  0  0  0  0  0  0  0
  -15.2085    1.4869  -14.8705 C   0  0  0  0  0  0  0  0  0  0  0  0
  -14.4342   -8.3594  -13.3966 C   0  0  0  0  0  0  0  0  0  0  0  0
  -12.4393   -9.7098  -12.5149 C   0  0  0  0  0  0  0  0  0  0  0  0
  -13.6150   -8.8095  -12.1696 C   0  0  0  0  0  0  0  0  0  0  0  0
 40 41  1  0  0  0
 41 39  1  0  0  0
 39  1  1  0  0  0
  1  2  1  0  0  0
  1 13  1  0  0  0
  2  3  1  0  0  0
  2  7  2  0  0  0
  3  4  2  0  0  0
  4  5  1  0  0  0
  5 27  1  0  0  0
  5  6  2  0  0  0
 27 28  1  0  0  0
 27 30  1  0  0  0
 28 29  2  0  0  0
 28 31  1  0  0  0
 31 32  1  0  0  0
 32 33  1  0  0  0
 32 38  2  0  0  0
 33 34  2  0  0  0
 34 35  1  0  0  0
 35 36  1  0  0  0
 35 37  2  0  0  0
 37 38  1  0  0  0
  6  7  1  0  0  0
  7  8  1  0  0  0
  8  9  1  0  0  0
  8 13  2  0  0  0
  9 10  2  0  0  0
  9 25  1  0  0  0
 10 11  1  0  0  0
 10 22  1  0  0  0
 11 12  2  0  0  0
 11 21  1  0  0  0
 12 13  1  0  0  0
 12 14  1  0  0  0
 14 15  1  0  0  0
 15 16  1  0  0  0
 16 17  2  0  0  0
 16 21  1  0  0  0
 17 18  1  0  0  0
 18 19  1  0  0  0
 18 20  1  0  0  0
 20 21  2  0  0  0
 22 23  2  0  0  0
 22 24  1  0  0  0
 24 25  1  0  0  0
 24 26  1  0  0  0
M  END
> <minimizedAffinity>
-7.94750

$$$$
