CHEMBL3945525


 39 43  0  0  0  0  0  0  0  0999 V2000
  -13.2747   -2.6496  -19.4411 O   0  0  0  0  0  0  0  0  0  0  0  0
  -13.4294   -1.5424  -18.6231 C   0  0  0  0  0  0  0  0  0  0  0  0
  -12.8651   -1.4096  -17.3404 C   0  0  0  0  0  0  0  0  0  0  0  0
  -13.1395   -0.2943  -16.5183 C   0  0  0  0  0  0  0  0  0  0  0  0
  -13.8426    0.7830  -17.0894 C   0  0  0  0  0  0  0  0  0  0  0  0
  -14.0955    2.1768  -16.8111 C   0  0  0  0  0  0  0  0  0  0  0  0
  -13.3693    2.7958  -17.7681 N   0  0  0  0  0  0  0  0  0  0  0  0
  -13.6981    2.0202  -18.8394 N   0  0  0  0  0  0  0  0  0  0  0  0
  -13.9847    0.7237  -18.4734 C   0  0  0  0  0  0  0  0  0  0  0  0
  -14.0455   -0.4420  -19.2232 C   0  0  0  0  0  0  0  0  0  0  0  0
  -13.4998    2.3698  -19.7653 H   0  0  0  0  0  0  0  0  0  0  0  0
  -15.4180    2.8162  -16.6812 C   0  0  0  0  0  0  0  0  0  0  0  0
  -16.1337    2.7925  -15.5424 C   0  0  0  0  0  0  0  0  0  0  0  0
  -17.5642    2.4185  -15.4697 C   0  0  0  0  0  0  0  0  0  0  0  0
  -17.9862    1.0932  -15.2494 C   0  0  0  0  0  0  0  0  0  0  0  0
  -19.3223    0.8003  -14.9361 C   0  0  0  0  0  0  0  0  0  0  0  0
  -20.2462    1.8363  -14.8330 C   0  0  0  0  0  0  0  0  0  0  0  0
  -21.8883    1.4915  -14.4496 Cl  0  0  0  0  0  0  0  0  0  0  0  0
  -19.8413    3.1557  -15.0144 C   0  0  0  0  0  0  0  0  0  0  0  0
  -18.5068    3.4423  -15.3302 C   0  0  0  0  0  0  0  0  0  0  0  0
  -12.1019   -5.3067  -17.2326 C   0  0  0  0  0  0  0  0  0  0  0  0
  -11.2509   -6.0067  -18.1161 C   0  0  0  0  0  0  0  0  0  0  0  0
  -10.9562   -5.5021  -19.3677 C   0  0  0  0  0  0  0  0  0  0  0  0
  -11.5525   -4.3326  -19.7887 C   0  0  0  0  0  0  0  0  0  0  0  0
  -12.5391   -3.7258  -19.0032 C   0  0  0  0  0  0  0  0  0  0  0  0
  -12.7853   -4.1990  -17.6962 C   0  0  0  0  0  0  0  0  0  0  0  0
  -13.3049   -6.5052  -15.4378 C   0  0  0  0  0  0  0  0  0  0  0  0
  -14.1863   -6.9387  -16.1770 O   0  0  0  0  0  0  0  0  0  0  0  0
  -12.2455   -5.7224  -15.8715 N   0  0  0  0  0  0  0  0  0  0  0  0
  -11.4532   -5.5722  -15.2561 H   0  0  0  0  0  0  0  0  0  0  0  0
  -15.9585   -3.2915  -11.2892 C   0  0  0  0  0  0  0  0  0  0  0  0
  -16.2716   -4.6560  -11.8492 C   0  0  0  0  0  0  0  0  0  0  0  0
  -17.2313   -5.2949  -11.4183 O   0  0  0  0  0  0  0  0  0  0  0  0
  -15.4667   -5.1187  -12.8766 N   0  0  0  0  0  0  0  0  0  0  0  0
  -15.8325   -6.3423  -13.5876 C   0  0  0  0  0  0  0  0  0  0  0  0
  -14.7198   -7.3844  -13.4886 C   0  0  0  0  0  0  0  0  0  0  0  0
  -13.3722   -6.8186  -13.9466 C   0  0  0  0  0  0  0  0  0  0  0  0
  -13.0701   -5.5156  -13.1635 C   0  0  0  0  0  0  0  0  0  0  0  0
  -14.2127   -4.4995  -13.2920 C   0  0  0  0  0  0  0  0  0  0  0  0
 31 32  1  0  0  0
 32 33  2  0  0  0
 32 34  1  0  0  0
 34 35  1  0  0  0
 34 39  1  0  0  0
 35 36  1  0  0  0
 36 37  1  0  0  0
 37 27  1  0  0  0
 37 38  1  0  0  0
 27 28  2  0  0  0
 27 29  1  0  0  0
 29 21  1  0  0  0
 29 30  1  0  0  0
 21 22  1  0  0  0
 21 26  2  0  0  0
 22 23  2  0  0  0
 23 24  1  0  0  0
 24 25  2  0  0  0
 25  1  1  0  0  0
 25 26  1  0  0  0
  1  2  1  0  0  0
  2  3  1  0  0  0
  2 10  2  0  0  0
  3  4  2  0  0  0
  4  5  1  0  0  0
  5  6  1  0  0  0
  5  9  2  0  0  0
  6 12  1  0  0  0
  6  7  2  0  0  0
 12 13  2  0  0  0
 13 14  1  0  0  0
 14 15  1  0  0  0
 14 20  2  0  0  0
 15 16  2  0  0  0
 16 17  1  0  0  0
 17 18  1  0  0  0
 17 19  2  0  0  0
 19 20  1  0  0  0
  7  8  1  0  0  0
  8  9  1  0  0  0
  8 11  1  0  0  0
  9 10  1  0  0  0
 38 39  1  0  0  0
M  END
> <minimizedAffinity>
-8.75598

$$$$
