CHEMBL196363


 31 34  0  0  0  0  0  0  0  0999 V2000
  -21.2559    1.5035  -14.6526 C   0  0  0  0  0  0  0  0  0  0  0  0
  -21.3066    0.1104  -14.5672 C   0  0  0  0  0  0  0  0  0  0  0  0
  -22.3484   -0.5239  -13.8845 C   0  0  0  0  0  0  0  0  0  0  0  0
  -23.3461    0.2234  -13.2416 C   0  0  0  0  0  0  0  0  0  0  0  0
  -23.2042    1.6168  -13.2169 C   0  0  0  0  0  0  0  0  0  0  0  0
  -22.1752    2.2575  -13.9269 C   0  0  0  0  0  0  0  0  0  0  0  0
  -24.5141   -0.4473  -12.6491 C   0  0  0  0  0  0  0  0  0  0  0  0
  -24.5853   -0.6073  -11.2731 C   0  0  0  0  0  0  0  0  0  0  0  0
  -25.9805   -1.4373  -10.7599 S   0  0  0  0  0  0  0  0  0  0  0  0
  -26.5340   -1.6000  -12.3581 C   0  0  0  0  0  0  0  0  0  0  0  0
  -27.7006   -2.2267  -12.5847 N   0  0  0  0  0  0  0  0  0  0  0  0
  -28.0029   -2.2858  -13.8788 C   0  0  0  0  0  0  0  0  0  0  0  0
  -27.2766   -1.8206  -14.9018 N   0  0  0  0  0  0  0  0  0  0  0  0
  -26.1029   -1.2135  -14.6415 C   0  0  0  0  0  0  0  0  0  0  0  0
  -25.3974   -0.8132  -15.7709 N   0  0  0  0  0  0  0  0  0  0  0  0
  -25.6738   -1.0517  -13.3046 C   0  0  0  0  0  0  0  0  0  0  0  0
  -25.8212   -1.2293  -16.5939 H   0  0  0  0  0  0  0  0  0  0  0  0
  -24.3974   -0.9564  -15.6917 H   0  0  0  0  0  0  0  0  0  0  0  0
  -18.2295    2.9008  -16.1014 N   0  0  0  0  0  0  0  0  0  0  0  0
  -18.9929    2.2509  -15.1498 C   0  0  0  0  0  0  0  0  0  0  0  0
  -18.5558    1.7644  -14.1106 O   0  0  0  0  0  0  0  0  0  0  0  0
  -20.3352    2.1560  -15.5118 N   0  0  0  0  0  0  0  0  0  0  0  0
  -18.7282    3.4499  -16.7852 H   0  0  0  0  0  0  0  0  0  0  0  0
  -20.4939    2.0525  -16.5039 H   0  0  0  0  0  0  0  0  0  0  0  0
  -13.7991    0.6838  -16.3012 C   0  0  0  0  0  0  0  0  0  0  0  0
  -14.6335    1.9250  -16.1734 C   0  0  0  0  0  0  0  0  0  0  0  0
  -14.0012    3.1699  -16.0434 C   0  0  0  0  0  0  0  0  0  0  0  0
  -14.7593    4.3192  -15.9171 C   0  0  0  0  0  0  0  0  0  0  0  0
  -16.1534    4.2445  -15.9312 C   0  0  0  0  0  0  0  0  0  0  0  0
  -16.8144    3.0220  -16.0803 C   0  0  0  0  0  0  0  0  0  0  0  0
  -16.0400    1.8600  -16.1984 C   0  0  0  0  0  0  0  0  0  0  0  0
 25 26  1  0  0  0
 26 27  1  0  0  0
 26 31  2  0  0  0
 27 28  2  0  0  0
 28 29  1  0  0  0
 29 30  2  0  0  0
 30 19  1  0  0  0
 30 31  1  0  0  0
 19 20  1  0  0  0
 19 23  1  0  0  0
 20 21  2  0  0  0
 20 22  1  0  0  0
 22  1  1  0  0  0
 22 24  1  0  0  0
  1  2  1  0  0  0
  1  6  2  0  0  0
  2  3  2  0  0  0
  3  4  1  0  0  0
  4  7  1  0  0  0
  4  5  2  0  0  0
  7  8  2  0  0  0
  7 16  1  0  0  0
  8  9  1  0  0  0
  9 10  1  0  0  0
 10 11  1  0  0  0
 10 16  2  0  0  0
 11 12  2  0  0  0
 12 13  1  0  0  0
 13 14  2  0  0  0
 14 15  1  0  0  0
 14 16  1  0  0  0
 15 17  1  0  0  0
 15 18  1  0  0  0
  5  6  1  0  0  0
M  END
> <minimizedAffinity>
-9.00703

$$$$
