CHEMBL2386797


 44 48  0  0  0  0  0  0  0  0999 V2000
  -22.4071    1.0230  -13.9736 C   0  0  0  0  0  0  0  0  0  0  0  0
  -21.2102    0.5290  -14.5536 C   0  0  0  0  0  0  0  0  0  0  0  0
  -20.4537    1.6212  -14.8927 C   0  0  0  0  0  0  0  0  0  0  0  0
  -21.2055    2.6968  -14.5017 N   0  0  0  0  0  0  0  0  0  0  0  0
  -22.3875    2.3665  -13.9525 N   0  0  0  0  0  0  0  0  0  0  0  0
  -20.9841    3.6826  -14.5744 H   0  0  0  0  0  0  0  0  0  0  0  0
  -25.6993   -1.3161  -12.5228 C   0  0  0  0  0  0  0  0  0  0  0  0
  -25.2289   -1.4800  -13.8299 C   0  0  0  0  0  0  0  0  0  0  0  0
  -24.1592   -0.7191  -14.2944 C   0  0  0  0  0  0  0  0  0  0  0  0
  -23.5239    0.2211  -13.4665 C   0  0  0  0  0  0  0  0  0  0  0  0
  -23.9859    0.3708  -12.1539 C   0  0  0  0  0  0  0  0  0  0  0  0
  -25.0601   -0.3949  -11.6839 C   0  0  0  0  0  0  0  0  0  0  0  0
  -26.8470   -2.1583  -12.0257 C   0  0  0  0  0  0  0  0  0  0  0  0
  -28.3508   -0.9498  -10.0633 O   0  0  0  0  0  0  0  0  0  0  0  0
  -27.5540   -1.8116   -9.7105 C   0  0  0  0  0  0  0  0  0  0  0  0
  -26.7181   -2.4391  -10.6105 N   0  0  0  0  0  0  0  0  0  0  0  0
  -27.3560   -2.2673   -8.4254 N   0  0  0  0  0  0  0  0  0  0  0  0
  -26.4033   -3.3646  -10.3680 H   0  0  0  0  0  0  0  0  0  0  0  0
  -26.5540   -2.8642   -8.2847 H   0  0  0  0  0  0  0  0  0  0  0  0
  -28.0662   -1.8809   -7.2694 C   0  0  0  0  0  0  0  0  0  0  0  0
  -28.9718   -2.7138   -6.6037 C   0  0  0  0  0  0  0  0  0  0  0  0
  -29.6657   -2.2640   -5.4801 C   0  0  0  0  0  0  0  0  0  0  0  0
  -29.4520   -0.9784   -4.9939 C   0  0  0  0  0  0  0  0  0  0  0  0
  -28.5352   -0.1443   -5.6313 C   0  0  0  0  0  0  0  0  0  0  0  0
  -27.8469   -0.5927   -6.7638 C   0  0  0  0  0  0  0  0  0  0  0  0
  -19.2047    1.6475  -15.5066 N   0  0  0  0  0  0  0  0  0  0  0  0
  -18.2486    2.6986  -15.2587 C   0  0  0  0  0  0  0  0  0  0  0  0
  -18.4885    3.6184  -14.4927 O   0  0  0  0  0  0  0  0  0  0  0  0
  -18.9509    0.8725  -16.1026 H   0  0  0  0  0  0  0  0  0  0  0  0
  -16.9374    2.6181  -15.9317 C   0  0  0  0  0  0  0  0  0  0  0  0
  -16.2595    3.7489  -16.3928 C   0  0  0  0  0  0  0  0  0  0  0  0
  -15.0059    3.5995  -16.9976 C   0  0  0  0  0  0  0  0  0  0  0  0
  -14.4213    2.3329  -17.1217 C   0  0  0  0  0  0  0  0  0  0  0  0
  -15.1069    1.2094  -16.6659 C   0  0  0  0  0  0  0  0  0  0  0  0
  -16.3547    1.3495  -16.0621 C   0  0  0  0  0  0  0  0  0  0  0  0
  -13.1870    2.0848  -17.6629 O   0  0  0  0  0  0  0  0  0  0  0  0
  -12.0900    2.6064  -16.9039 C   0  0  0  0  0  0  0  0  0  0  0  0
  -11.4069    1.4770  -16.1160 C   0  0  0  0  0  0  0  0  0  0  0  0
  -11.0406    1.8481  -14.7341 N   0  0  0  0  0  0  0  0  0  0  0  0
  -10.6994    0.6470  -13.9323 C   0  0  0  0  0  0  0  0  0  0  0  0
  -11.9255   -0.1857  -13.5102 C   0  0  0  0  0  0  0  0  0  0  0  0
  -12.8718    0.6104  -12.7856 O   0  0  0  0  0  0  0  0  0  0  0  0
  -13.2892    1.7356  -13.5660 C   0  0  0  0  0  0  0  0  0  0  0  0
  -12.0843    2.5904  -13.9903 C   0  0  0  0  0  0  0  0  0  0  0  0
 14 15  2  0  0  0
 15 16  1  0  0  0
 15 17  1  0  0  0
 16 13  1  0  0  0
 16 18  1  0  0  0
 13  7  1  0  0  0
  7  8  1  0  0  0
  7 12  2  0  0  0
  8  9  2  0  0  0
  9 10  1  0  0  0
 10  1  1  0  0  0
 10 11  2  0  0  0
  1  2  1  0  0  0
  1  5  2  0  0  0
  2  3  2  0  0  0
  3 26  1  0  0  0
  3  4  1  0  0  0
 26 27  1  0  0  0
 26 29  1  0  0  0
 27 28  2  0  0  0
 27 30  1  0  0  0
 30 31  1  0  0  0
 30 35  2  0  0  0
 31 32  2  0  0  0
 32 33  1  0  0  0
 33 36  1  0  0  0
 33 34  2  0  0  0
 36 37  1  0  0  0
 37 38  1  0  0  0
 38 39  1  0  0  0
 39 40  1  0  0  0
 39 44  1  0  0  0
 40 41  1  0  0  0
 41 42  1  0  0  0
 42 43  1  0  0  0
 43 44  1  0  0  0
 34 35  1  0  0  0
  4  5  1  0  0  0
  4  6  1  0  0  0
 11 12  1  0  0  0
 17 20  1  0  0  0
 17 19  1  0  0  0
 20 21  1  0  0  0
 20 25  2  0  0  0
 21 22  2  0  0  0
 22 23  1  0  0  0
 23 24  2  0  0  0
 24 25  1  0  0  0
M  END
> <minimizedAffinity>
-10.75427

$$$$
