CHEMBL1983963


 31 34  0  0  0  0  0  0  0  0999 V2000
  -25.6321   -0.8726  -12.6431 C   0  0  0  0  0  0  0  0  0  0  0  0
  -25.3037   -1.2657  -13.9436 C   0  0  0  0  0  0  0  0  0  0  0  0
  -24.1187   -0.8293  -14.5436 C   0  0  0  0  0  0  0  0  0  0  0  0
  -23.2479    0.0234  -13.8554 C   0  0  0  0  0  0  0  0  0  0  0  0
  -23.6538    0.5175  -12.6078 C   0  0  0  0  0  0  0  0  0  0  0  0
  -24.8347    0.0706  -11.9987 C   0  0  0  0  0  0  0  0  0  0  0  0
  -21.9258    0.3289  -14.3894 C   0  0  0  0  0  0  0  0  0  0  0  0
  -21.0351   -0.6410  -14.8129 C   0  0  0  0  0  0  0  0  0  0  0  0
  -19.8695   -0.0893  -15.2292 O   0  0  0  0  0  0  0  0  0  0  0  0
  -19.9804    1.2571  -15.0698 C   0  0  0  0  0  0  0  0  0  0  0  0
  -18.9870    2.0984  -15.3848 N   0  0  0  0  0  0  0  0  0  0  0  0
  -19.3215    3.3654  -15.1274 C   0  0  0  0  0  0  0  0  0  0  0  0
  -20.4732    3.8232  -14.6065 N   0  0  0  0  0  0  0  0  0  0  0  0
  -21.4407    2.9392  -14.2921 C   0  0  0  0  0  0  0  0  0  0  0  0
  -22.5851    3.4745  -13.7142 N   0  0  0  0  0  0  0  0  0  0  0  0
  -21.2255    1.5752  -14.5397 C   0  0  0  0  0  0  0  0  0  0  0  0
  -22.4099    4.4349  -13.4372 H   0  0  0  0  0  0  0  0  0  0  0  0
  -22.9819    2.8891  -12.9887 H   0  0  0  0  0  0  0  0  0  0  0  0
  -27.7545   -2.2719  -10.0464 N   0  0  0  0  0  0  0  0  0  0  0  0
  -26.5996   -1.7070  -10.5713 C   0  0  0  0  0  0  0  0  0  0  0  0
  -25.6029   -1.4050   -9.9253 O   0  0  0  0  0  0  0  0  0  0  0  0
  -26.7127   -1.4641  -11.9419 N   0  0  0  0  0  0  0  0  0  0  0  0
  -28.4052   -2.6736  -10.7085 H   0  0  0  0  0  0  0  0  0  0  0  0
  -27.6402   -1.2027  -12.2428 H   0  0  0  0  0  0  0  0  0  0  0  0
  -27.6438   -0.5823   -5.3869 C   0  0  0  0  0  0  0  0  0  0  0  0
  -27.9408   -1.6755   -6.3699 C   0  0  0  0  0  0  0  0  0  0  0  0
  -28.4496   -2.8973   -5.9153 C   0  0  0  0  0  0  0  0  0  0  0  0
  -28.7208   -3.9163   -6.8175 C   0  0  0  0  0  0  0  0  0  0  0  0
  -28.4908   -3.7233   -8.1805 C   0  0  0  0  0  0  0  0  0  0  0  0
  -28.0002   -2.5096   -8.6686 C   0  0  0  0  0  0  0  0  0  0  0  0
  -27.7191   -1.4879   -7.7502 C   0  0  0  0  0  0  0  0  0  0  0  0
 25 26  1  0  0  0
 26 27  1  0  0  0
 26 31  2  0  0  0
 27 28  2  0  0  0
 28 29  1  0  0  0
 29 30  2  0  0  0
 30 19  1  0  0  0
 30 31  1  0  0  0
 19 20  1  0  0  0
 19 23  1  0  0  0
 20 21  2  0  0  0
 20 22  1  0  0  0
 22  1  1  0  0  0
 22 24  1  0  0  0
  1  2  1  0  0  0
  1  6  2  0  0  0
  2  3  2  0  0  0
  3  4  1  0  0  0
  4  7  1  0  0  0
  4  5  2  0  0  0
  7  8  2  0  0  0
  7 16  1  0  0  0
  8  9  1  0  0  0
  9 10  1  0  0  0
 10 11  1  0  0  0
 10 16  2  0  0  0
 11 12  2  0  0  0
 12 13  1  0  0  0
 13 14  2  0  0  0
 14 15  1  0  0  0
 14 16  1  0  0  0
 15 17  1  0  0  0
 15 18  1  0  0  0
  5  6  1  0  0  0
M  END
> <minimizedAffinity>
-10.93249

$$$$
