CHEMBL3752008


 28 30  0  0  0  0  0  0  0  0999 V2000
  -28.0006   -2.1506   -7.7438 C   0  0  0  0  0  0  0  0  0  0  0  0
  -28.7357   -3.1511   -7.0943 C   0  0  0  0  0  0  0  0  0  0  0  0
  -29.4973   -2.9071   -5.9371 C   0  0  0  0  0  0  0  0  0  0  0  0
  -29.5245   -1.5910   -5.4517 C   0  0  0  0  0  0  0  0  0  0  0  0
  -28.8033   -0.5606   -6.0803 C   0  0  0  0  0  0  0  0  0  0  0  0
  -28.0460   -0.8531   -7.2289 C   0  0  0  0  0  0  0  0  0  0  0  0
  -28.0264   -0.8388  -10.3666 O   0  0  0  0  0  0  0  0  0  0  0  0
  -27.2767   -1.7720  -10.1121 C   0  0  0  0  0  0  0  0  0  0  0  0
  -26.4456   -2.3739  -11.0458 N   0  0  0  0  0  0  0  0  0  0  0  0
  -27.1824   -2.3930   -8.8729 N   0  0  0  0  0  0  0  0  0  0  0  0
  -26.0137   -3.2442  -10.7777 H   0  0  0  0  0  0  0  0  0  0  0  0
  -26.4473   -3.0722   -8.7581 H   0  0  0  0  0  0  0  0  0  0  0  0
  -26.3510   -2.0247  -12.4155 C   0  0  0  0  0  0  0  0  0  0  0  0
  -27.4221   -2.0729  -13.3053 C   0  0  0  0  0  0  0  0  0  0  0  0
  -27.1977   -1.7564  -14.6352 C   0  0  0  0  0  0  0  0  0  0  0  0
  -25.9972   -1.3907  -15.1282 N   0  0  0  0  0  0  0  0  0  0  0  0
  -24.9786   -1.3318  -14.2473 C   0  0  0  0  0  0  0  0  0  0  0  0
  -25.1050   -1.6244  -12.8974 C   0  0  0  0  0  0  0  0  0  0  0  0
  -30.2050   -4.0075   -5.2550 C   0  0  0  0  0  0  0  0  0  0  0  0
  -30.9929   -3.8226   -4.1266 C   0  0  0  0  0  0  0  0  0  0  0  0
  -31.6678   -4.8007   -3.4818 N   0  0  0  0  0  0  0  0  0  0  0  0
  -31.5402   -6.0284   -3.9978 C   0  0  0  0  0  0  0  0  0  0  0  0
  -30.8119   -6.3533   -5.0739 N   0  0  0  0  0  0  0  0  0  0  0  0
  -30.1595   -5.3292   -5.6709 C   0  0  0  0  0  0  0  0  0  0  0  0
  -28.8078    0.8389   -5.5135 C   0  0  0  0  0  0  0  0  0  0  0  0
  -27.9328    1.0136   -4.4848 F   0  0  0  0  0  0  0  0  0  0  0  0
  -28.4786    1.7733   -6.4474 F   0  0  0  0  0  0  0  0  0  0  0  0
  -30.0282    1.2025   -5.0338 F   0  0  0  0  0  0  0  0  0  0  0  0
  7  8  2  0  0  0
  8  9  1  0  0  0
  8 10  1  0  0  0
  9 13  1  0  0  0
  9 11  1  0  0  0
 13 14  1  0  0  0
 13 18  2  0  0  0
 14 15  2  0  0  0
 15 16  1  0  0  0
 16 17  2  0  0  0
 17 18  1  0  0  0
 10  1  1  0  0  0
 10 12  1  0  0  0
  1  2  1  0  0  0
  1  6  2  0  0  0
  2  3  2  0  0  0
  3 19  1  0  0  0
  3  4  1  0  0  0
 19 20  1  0  0  0
 19 24  2  0  0  0
 20 21  2  0  0  0
 21 22  1  0  0  0
 22 23  2  0  0  0
 23 24  1  0  0  0
  4  5  2  0  0  0
  5 25  1  0  0  0
  5  6  1  0  0  0
 25 26  1  0  0  0
 25 27  1  0  0  0
 25 28  1  0  0  0
M  END
> <minimizedAffinity>
-10.13794

$$$$
