CHEMBL2386814


 38 42  0  0  0  0  0  0  0  0999 V2000
  -24.9612   -1.2169  -11.8097 C   0  0  0  0  0  0  0  0  0  0  0  0
  -23.9550   -0.2891  -11.8721 C   0  0  0  0  0  0  0  0  0  0  0  0
  -23.6320   -0.1206  -13.2490 C   0  0  0  0  0  0  0  0  0  0  0  0
  -24.4192   -0.9078  -14.0023 N   0  0  0  0  0  0  0  0  0  0  0  0
  -25.1884   -1.5661  -13.1143 N   0  0  0  0  0  0  0  0  0  0  0  0
  -25.8670   -2.2239  -13.4795 H   0  0  0  0  0  0  0  0  0  0  0  0
  -22.5903    0.7556  -13.7916 C   0  0  0  0  0  0  0  0  0  0  0  0
  -21.4713    0.1903  -14.4110 C   0  0  0  0  0  0  0  0  0  0  0  0
  -20.4576    0.9855  -14.9431 C   0  0  0  0  0  0  0  0  0  0  0  0
  -20.5259    2.3729  -14.8820 C   0  0  0  0  0  0  0  0  0  0  0  0
  -21.6404    2.9551  -14.2624 C   0  0  0  0  0  0  0  0  0  0  0  0
  -22.6652    2.1522  -13.7221 C   0  0  0  0  0  0  0  0  0  0  0  0
  -19.5217    3.2120  -15.4232 N   0  0  0  0  0  0  0  0  0  0  0  0
  -18.1554    3.0074  -15.3328 C   0  0  0  0  0  0  0  0  0  0  0  0
  -17.5969    2.0663  -14.7793 O   0  0  0  0  0  0  0  0  0  0  0  0
  -17.4270    4.0008  -15.9633 N   0  0  0  0  0  0  0  0  0  0  0  0
  -19.8314    4.0092  -15.9580 H   0  0  0  0  0  0  0  0  0  0  0  0
  -17.8791    4.8819  -16.1413 H   0  0  0  0  0  0  0  0  0  0  0  0
  -15.9912    3.9916  -15.8941 C   0  0  0  0  0  0  0  0  0  0  0  0
  -15.1639    4.7419  -16.8974 C   0  0  0  0  0  0  0  0  0  0  0  0
  -15.1710    3.2411  -16.9067 C   0  0  0  0  0  0  0  0  0  0  0  0
  -27.0231   -1.5911  -10.4727 C   0  0  0  0  0  0  0  0  0  0  0  0
  -27.7410   -1.0524  -11.3005 O   0  0  0  0  0  0  0  0  0  0  0  0
  -25.5995   -1.7199  -10.6795 N   0  0  0  0  0  0  0  0  0  0  0  0
  -25.0315   -2.1747   -9.9801 H   0  0  0  0  0  0  0  0  0  0  0  0
  -28.6631   -3.2909   -6.8641 C   0  0  0  0  0  0  0  0  0  0  0  0
  -28.3046   -1.9334   -6.9268 C   0  0  0  0  0  0  0  0  0  0  0  0
  -27.7747   -1.3512   -8.0824 C   0  0  0  0  0  0  0  0  0  0  0  0
  -27.5949   -2.1334   -9.2202 C   0  0  0  0  0  0  0  0  0  0  0  0
  -27.9310   -3.4921   -9.1813 C   0  0  0  0  0  0  0  0  0  0  0  0
  -28.4659   -4.0561   -8.0179 C   0  0  0  0  0  0  0  0  0  0  0  0
  -31.9928   -5.1091   -2.7819 C   0  0  0  0  0  0  0  0  0  0  0  0
  -30.7230   -4.7595   -3.4147 N   0  0  0  0  0  0  0  0  0  0  0  0
  -30.4891   -5.6000   -4.6129 C   0  0  0  0  0  0  0  0  0  0  0  0
  -29.1893   -5.2248   -5.3695 C   0  0  0  0  0  0  0  0  0  0  0  0
  -29.2379   -3.7950   -5.7175 N   0  0  0  0  0  0  0  0  0  0  0  0
  -29.4173   -2.9262   -4.5382 C   0  0  0  0  0  0  0  0  0  0  0  0
  -30.7146   -3.3303   -3.8025 C   0  0  0  0  0  0  0  0  0  0  0  0
 32 33  1  0  0  0
 33 34  1  0  0  0
 33 38  1  0  0  0
 34 35  1  0  0  0
 35 36  1  0  0  0
 36 26  1  0  0  0
 36 37  1  0  0  0
 26 27  1  0  0  0
 26 31  2  0  0  0
 27 28  2  0  0  0
 28 29  1  0  0  0
 29 22  1  0  0  0
 29 30  2  0  0  0
 22 23  2  0  0  0
 22 24  1  0  0  0
 24  1  1  0  0  0
 24 25  1  0  0  0
  1  2  2  0  0  0
  1  5  1  0  0  0
  2  3  1  0  0  0
  3  7  1  0  0  0
  3  4  2  0  0  0
  7  8  1  0  0  0
  7 12  2  0  0  0
  8  9  2  0  0  0
  9 10  1  0  0  0
 10 13  1  0  0  0
 10 11  2  0  0  0
 13 14  1  0  0  0
 13 17  1  0  0  0
 14 15  2  0  0  0
 14 16  1  0  0  0
 16 19  1  0  0  0
 16 18  1  0  0  0
 19 20  1  0  0  0
 19 21  1  0  0  0
 20 21  1  0  0  0
 11 12  1  0  0  0
  4  5  1  0  0  0
  5  6  1  0  0  0
 30 31  1  0  0  0
 37 38  1  0  0  0
M  END
> <minimizedAffinity>
-11.11333

$$$$
