CHEMBL503074


 27 30  0  0  0  0  0  0  0  0999 V2000
  -15.8372    0.3398  -14.2604 C   0  0  0  0  0  0  0  0  0  0  0  0
  -15.1451   -0.8371  -13.9631 C   0  0  0  0  0  0  0  0  0  0  0  0
  -13.9001   -0.8656  -14.5868 N   0  0  0  0  0  0  0  0  0  0  0  0
  -13.8383    0.2878  -15.1861 C   0  0  0  0  0  0  0  0  0  0  0  0
  -12.6482    1.0950  -16.1606 S   0  0  0  0  0  0  0  0  0  0  0  0
  -13.7565    2.4690  -16.3140 C   0  0  0  0  0  0  0  0  0  0  0  0
  -14.9167    2.2806  -15.6630 C   0  0  0  0  0  0  0  0  0  0  0  0
  -14.9554    1.0533  -15.0300 N   0  0  0  0  0  0  0  0  0  0  0  0
  -15.6009   -1.9402  -13.1270 C   0  0  0  0  0  0  0  0  0  0  0  0
  -15.9717   -3.1487  -13.7335 C   0  0  0  0  0  0  0  0  0  0  0  0
  -16.3751   -4.2404  -12.9601 C   0  0  0  0  0  0  0  0  0  0  0  0
  -16.4018   -4.1413  -11.5714 C   0  0  0  0  0  0  0  0  0  0  0  0
  -16.0331   -2.9471  -10.9562 C   0  0  0  0  0  0  0  0  0  0  0  0
  -15.6353   -1.8524  -11.7288 C   0  0  0  0  0  0  0  0  0  0  0  0
  -18.0762    0.8995  -14.8786 C   0  0  0  0  0  0  0  0  0  0  0  0
  -17.1007    0.8948  -13.9551 C   0  0  0  0  0  0  0  0  0  0  0  0
  -21.6589    1.1116  -14.3790 C   0  0  0  0  0  0  0  0  0  0  0  0
  -21.9261    2.4184  -14.2451 N   0  0  0  0  0  0  0  0  0  0  0  0
  -20.8664    3.2485  -14.2682 C   0  0  0  0  0  0  0  0  0  0  0  0
  -19.5720    2.8257  -14.4542 C   0  0  0  0  0  0  0  0  0  0  0  0
  -19.4081    1.4712  -14.6341 C   0  0  0  0  0  0  0  0  0  0  0  0
  -20.4404    0.6111  -14.5875 N   0  0  0  0  0  0  0  0  0  0  0  0
  -24.3701   -1.2408  -13.3741 C   0  0  0  0  0  0  0  0  0  0  0  0
  -23.1284   -0.4168  -13.1539 C   0  0  0  0  0  0  0  0  0  0  0  0
  -22.5672   -0.4124  -12.0632 O   0  0  0  0  0  0  0  0  0  0  0  0
  -22.7657    0.2833  -14.2775 N   0  0  0  0  0  0  0  0  0  0  0  0
  -23.3756    0.3299  -15.0778 H   0  0  0  0  0  0  0  0  0  0  0  0
 23 24  1  0  0  0
 24 25  2  0  0  0
 24 26  1  0  0  0
 26 17  1  0  0  0
 26 27  1  0  0  0
 17 18  1  0  0  0
 17 22  2  0  0  0
 18 19  2  0  0  0
 19 20  1  0  0  0
 20 21  2  0  0  0
 21 15  1  0  0  0
 21 22  1  0  0  0
 15 16  2  0  0  0
 16  1  1  0  0  0
  1  2  2  0  0  0
  1  8  1  0  0  0
  2  9  1  0  0  0
  2  3  1  0  0  0
  9 10  1  0  0  0
  9 14  2  0  0  0
 10 11  2  0  0  0
 11 12  1  0  0  0
 12 13  2  0  0  0
 13 14  1  0  0  0
  3  4  2  0  0  0
  4  5  1  0  0  0
  4  8  1  0  0  0
  5  6  1  0  0  0
  6  7  2  0  0  0
  7  8  1  0  0  0
M  END
> <minimizedAffinity>
-9.10460

$$$$
