CHEMBL602905


 41 45  0  0  0  0  0  0  0  0999 V2000
  -22.6675   -0.4517  -13.3929 C   0  0  0  0  0  0  0  0  0  0  0  0
  -23.4566    0.4782  -12.7288 C   0  0  0  0  0  0  0  0  0  0  0  0
  -24.3548    0.0596  -11.7503 C   0  0  0  0  0  0  0  0  0  0  0  0
  -24.5492   -1.2979  -11.4706 C   0  0  0  0  0  0  0  0  0  0  0  0
  -23.7801   -2.2257  -12.1786 C   0  0  0  0  0  0  0  0  0  0  0  0
  -22.8420   -1.8126  -13.1249 C   0  0  0  0  0  0  0  0  0  0  0  0
  -25.5187   -1.7301  -10.5860 N   0  0  0  0  0  0  0  0  0  0  0  0
  -25.2352   -1.9994   -9.6473 H   0  0  0  0  0  0  0  0  0  0  0  0
  -26.8737   -2.1427  -11.0386 C   0  0  0  0  0  0  0  0  0  0  0  0
  -27.1445   -1.7686  -12.5201 C   0  0  0  0  0  0  0  0  0  0  0  0
  -28.4412   -1.9993  -12.8501 F   0  0  0  0  0  0  0  0  0  0  0  0
  -26.9041   -0.4602  -12.7575 F   0  0  0  0  0  0  0  0  0  0  0  0
  -26.3970   -2.4967  -13.3808 F   0  0  0  0  0  0  0  0  0  0  0  0
  -27.9317   -1.5394  -10.0947 C   0  0  0  0  0  0  0  0  0  0  0  0
  -27.9860   -2.3266   -8.8030 C   0  0  0  0  0  0  0  0  0  0  0  0
  -27.1711   -2.1227   -7.9083 O   0  0  0  0  0  0  0  0  0  0  0  0
  -28.9990   -3.2737   -8.7700 N   0  0  0  0  0  0  0  0  0  0  0  0
  -29.3817   -3.5633   -9.6619 H   0  0  0  0  0  0  0  0  0  0  0  0
  -29.1165   -4.1955   -7.7079 C   0  0  0  0  0  0  0  0  0  0  0  0
  -28.5742   -5.4841   -7.7820 C   0  0  0  0  0  0  0  0  0  0  0  0
  -28.8292   -6.4126   -6.7725 C   0  0  0  0  0  0  0  0  0  0  0  0
  -29.6318   -6.0487   -5.6997 C   0  0  0  0  0  0  0  0  0  0  0  0
  -29.9359   -6.9576   -4.7645 F   0  0  0  0  0  0  0  0  0  0  0  0
  -30.1344   -4.7566   -5.5881 C   0  0  0  0  0  0  0  0  0  0  0  0
  -29.8497   -3.8148   -6.5796 C   0  0  0  0  0  0  0  0  0  0  0  0
  -21.7449   -0.1380  -14.3622 O   0  0  0  0  0  0  0  0  0  0  0  0
  -17.5449    1.4901  -15.3403 C   0  0  0  0  0  0  0  0  0  0  0  0
  -18.0775    2.7444  -15.1433 C   0  0  0  0  0  0  0  0  0  0  0  0
  -19.4768    2.7032  -14.8779 C   0  0  0  0  0  0  0  0  0  0  0  0
  -20.2665    3.7920  -14.6726 N   0  0  0  0  0  0  0  0  0  0  0  0
  -21.5460    3.5340  -14.3507 C   0  0  0  0  0  0  0  0  0  0  0  0
  -22.0933    2.2743  -14.2088 C   0  0  0  0  0  0  0  0  0  0  0  0
  -21.3033    1.1594  -14.4923 C   0  0  0  0  0  0  0  0  0  0  0  0
  -19.9606    1.3960  -14.8262 C   0  0  0  0  0  0  0  0  0  0  0  0
  -18.7227    0.2674  -15.2118 S   0  0  0  0  0  0  0  0  0  0  0  0
  -13.0036    1.6207  -17.3693 C   0  0  0  0  0  0  0  0  0  0  0  0
  -14.1246    1.2941  -16.5314 N   0  0  0  0  0  0  0  0  0  0  0  0
  -14.1076    0.5115  -15.4149 C   0  0  0  0  0  0  0  0  0  0  0  0
  -15.2856    0.4839  -14.8308 N   0  0  0  0  0  0  0  0  0  0  0  0
  -16.1047    1.2477  -15.6301 C   0  0  0  0  0  0  0  0  0  0  0  0
  -15.4040    1.7432  -16.7061 C   0  0  0  0  0  0  0  0  0  0  0  0
 36 37  1  0  0  0
 37 38  1  0  0  0
 37 41  1  0  0  0
 38 39  2  0  0  0
 39 40  1  0  0  0
 40 27  1  0  0  0
 40 41  2  0  0  0
 27 28  2  0  0  0
 27 35  1  0  0  0
 28 29  1  0  0  0
 29 30  1  0  0  0
 29 34  2  0  0  0
 30 31  2  0  0  0
 31 32  1  0  0  0
 32 33  2  0  0  0
 33 26  1  0  0  0
 33 34  1  0  0  0
 26  1  1  0  0  0
  1  2  1  0  0  0
  1  6  2  0  0  0
  2  3  2  0  0  0
  3  4  1  0  0  0
  4  7  1  0  0  0
  4  5  2  0  0  0
  7  9  1  0  0  0
  7  8  1  0  0  0
  9 14  1  0  0  0
  9 10  1  0  0  0
 14 15  1  0  0  0
 15 16  2  0  0  0
 15 17  1  0  0  0
 17 19  1  0  0  0
 17 18  1  0  0  0
 19 20  1  0  0  0
 19 25  2  0  0  0
 20 21  2  0  0  0
 21 22  1  0  0  0
 22 23  1  0  0  0
 22 24  2  0  0  0
 24 25  1  0  0  0
 10 11  1  0  0  0
 10 12  1  0  0  0
 10 13  1  0  0  0
  5  6  1  0  0  0
 34 35  1  0  0  0
M  END
> <minimizedAffinity>
-11.08116

$$$$
