CHEMBL2011293


 28 31  0  0  0  0  0  0  0  0999 V2000
  -27.5577   -4.8887   -3.8451 N   0  0  0  0  0  0  0  0  0  0  0  0
  -28.2241   -5.3373   -4.9522 C   0  0  0  0  0  0  0  0  0  0  0  0
  -28.5165   -6.6330   -5.3450 C   0  0  0  0  0  0  0  0  0  0  0  0
  -29.3237   -6.4931   -6.5241 C   0  0  0  0  0  0  0  0  0  0  0  0
  -29.6171   -5.2028   -6.7571 N   0  0  0  0  0  0  0  0  0  0  0  0
  -28.8490   -4.5009   -5.8842 N   0  0  0  0  0  0  0  0  0  0  0  0
  -27.3950   -5.5432   -3.0828 H   0  0  0  0  0  0  0  0  0  0  0  0
  -27.7610   -3.9580   -3.4845 H   0  0  0  0  0  0  0  0  0  0  0  0
  -28.0847   -7.8389   -4.6350 C   0  0  0  0  0  0  0  0  0  0  0  0
  -29.0385   -8.7050   -4.0660 C   0  0  0  0  0  0  0  0  0  0  0  0
  -28.6596   -9.9559   -3.5756 C   0  0  0  0  0  0  0  0  0  0  0  0
  -27.3172  -10.3070   -3.5657 C   0  0  0  0  0  0  0  0  0  0  0  0
  -26.9553  -11.5133   -3.1118 F   0  0  0  0  0  0  0  0  0  0  0  0
  -26.3462   -9.4306   -4.0328 C   0  0  0  0  0  0  0  0  0  0  0  0
  -26.7317   -8.2044   -4.5860 C   0  0  0  0  0  0  0  0  0  0  0  0
  -28.7960   -3.0755   -5.9652 C   0  0  0  0  0  0  0  0  0  0  0  0
  -27.9510   -2.4662   -6.9051 C   0  0  0  0  0  0  0  0  0  0  0  0
  -27.9311   -1.0717   -7.0307 C   0  0  0  0  0  0  0  0  0  0  0  0
  -28.7206   -0.2870   -6.1930 C   0  0  0  0  0  0  0  0  0  0  0  0
  -28.6917    1.4278   -6.3442 Cl  0  0  0  0  0  0  0  0  0  0  0  0
  -29.5318   -0.8805   -5.2289 C   0  0  0  0  0  0  0  0  0  0  0  0
  -29.5770   -2.2753   -5.1158 C   0  0  0  0  0  0  0  0  0  0  0  0
  -29.8980   -7.5613   -7.3683 C   0  0  0  0  0  0  0  0  0  0  0  0
  -31.2162   -7.9827   -7.1890 C   0  0  0  0  0  0  0  0  0  0  0  0
  -31.6468   -9.1120   -7.8674 C   0  0  0  0  0  0  0  0  0  0  0  0
  -30.8655   -9.8428   -8.6922 N   0  0  0  0  0  0  0  0  0  0  0  0
  -29.6171   -9.3843   -8.9018 C   0  0  0  0  0  0  0  0  0  0  0  0
  -29.1150   -8.2365   -8.3129 C   0  0  0  0  0  0  0  0  0  0  0  0
  1  2  1  0  0  0
  1  7  1  0  0  0
  1  8  1  0  0  0
  2  3  2  0  0  0
  2  6  1  0  0  0
  3  9  1  0  0  0
  3  4  1  0  0  0
  9 10  1  0  0  0
  9 15  2  0  0  0
 10 11  2  0  0  0
 11 12  1  0  0  0
 12 13  1  0  0  0
 12 14  2  0  0  0
 14 15  1  0  0  0
  4 23  1  0  0  0
  4  5  2  0  0  0
 23 24  1  0  0  0
 23 28  2  0  0  0
 24 25  2  0  0  0
 25 26  1  0  0  0
 26 27  2  0  0  0
 27 28  1  0  0  0
  5  6  1  0  0  0
  6 16  1  0  0  0
 16 17  1  0  0  0
 16 22  2  0  0  0
 17 18  2  0  0  0
 18 19  1  0  0  0
 19 20  1  0  0  0
 19 21  2  0  0  0
 21 22  1  0  0  0
M  END
> <minimizedAffinity>
-9.02508

$$$$
