CHEMBL3959306


 31 34  0  0  0  0  0  0  0  0999 V2000
  -29.2221   -6.4713   -7.5260 C   0  0  0  0  0  0  0  0  0  0  0  0
  -29.9100   -7.8047   -7.7445 C   0  0  0  0  0  0  0  0  0  0  0  0
  -29.3146   -8.5510   -8.7143 N   0  0  0  0  0  0  0  0  0  0  0  0
  -29.8710   -9.7081   -9.1192 C   0  0  0  0  0  0  0  0  0  0  0  0
  -30.9682  -10.2198   -8.5546 N   0  0  0  0  0  0  0  0  0  0  0  0
  -31.5542   -9.4666   -7.6006 C   0  0  0  0  0  0  0  0  0  0  0  0
  -31.0939   -8.2337   -7.1742 C   0  0  0  0  0  0  0  0  0  0  0  0
  -32.0663   -7.3523   -6.0728 Cl  0  0  0  0  0  0  0  0  0  0  0  0
  -29.3859  -10.3862  -10.2405 N   0  0  0  0  0  0  0  0  0  0  0  0
  -30.0263  -11.1433  -10.4472 H   0  0  0  0  0  0  0  0  0  0  0  0
  -28.4924   -9.9577  -11.1553 C   0  0  0  0  0  0  0  0  0  0  0  0
  -27.1560   -9.5334  -10.9921 C   0  0  0  0  0  0  0  0  0  0  0  0
  -26.6039   -9.1376  -12.1439 N   0  0  0  0  0  0  0  0  0  0  0  0
  -27.5912   -9.3081  -13.0377 N   0  0  0  0  0  0  0  0  0  0  0  0
  -28.7408   -9.8128  -12.4973 C   0  0  0  0  0  0  0  0  0  0  0  0
  -27.4097   -9.0514  -14.0023 H   0  0  0  0  0  0  0  0  0  0  0  0
  -30.0670   -5.1943   -7.3928 C   0  0  0  0  0  0  0  0  0  0  0  0
  -29.0443   -3.3684   -5.8648 C   0  0  0  0  0  0  0  0  0  0  0  0
  -28.3960   -2.1141   -5.8083 C   0  0  0  0  0  0  0  0  0  0  0  0
  -27.8217   -1.5242   -6.9322 C   0  0  0  0  0  0  0  0  0  0  0  0
  -27.8872   -2.1743   -8.1553 C   0  0  0  0  0  0  0  0  0  0  0  0
  -28.6014   -3.3651   -8.2675 C   0  0  0  0  0  0  0  0  0  0  0  0
  -29.2170   -3.9562   -7.1467 C   0  0  0  0  0  0  0  0  0  0  0  0
  -29.4550   -4.0198   -4.5341 C   0  0  0  0  0  0  0  0  0  0  0  0
  -30.1448   -3.1450   -3.4838 C   0  0  0  0  0  0  0  0  0  0  0  0
  -30.9695   -4.1114   -4.2578 C   0  0  0  0  0  0  0  0  0  0  0  0
  -27.3524   -5.0241   -3.8634 N   0  0  0  0  0  0  0  0  0  0  0  0
  -28.6780   -5.2330   -4.1145 C   0  0  0  0  0  0  0  0  0  0  0  0
  -29.2021   -6.3331   -3.9903 O   0  0  0  0  0  0  0  0  0  0  0  0
  -26.7957   -5.8238   -3.5831 H   0  0  0  0  0  0  0  0  0  0  0  0
  -26.9159   -4.1227   -3.9596 H   0  0  0  0  0  0  0  0  0  0  0  0
 27 28  1  0  0  0
 27 30  1  0  0  0
 27 31  1  0  0  0
 28 29  2  0  0  0
 28 24  1  0  0  0
 24 18  1  0  0  0
 24 25  1  0  0  0
 24 26  1  0  0  0
 18 19  1  0  0  0
 18 23  2  0  0  0
 19 20  2  0  0  0
 20 21  1  0  0  0
 21 22  2  0  0  0
 22 23  1  0  0  0
 23 17  1  0  0  0
 17  1  1  0  0  0
  1  2  1  0  0  0
  2  3  1  0  0  0
  2  7  2  0  0  0
  3  4  2  0  0  0
  4  9  1  0  0  0
  4  5  1  0  0  0
  9 11  1  0  0  0
  9 10  1  0  0  0
 11 12  1  0  0  0
 11 15  2  0  0  0
 12 13  2  0  0  0
 13 14  1  0  0  0
 14 15  1  0  0  0
 14 16  1  0  0  0
  5  6  2  0  0  0
  6  7  1  0  0  0
  7  8  1  0  0  0
 25 26  1  0  0  0
M  END
> <minimizedAffinity>
-8.61444

$$$$
