CHEMBL3898941


 38 41  0  0  0  0  0  0  0  0999 V2000
  -25.6808   -1.9012  -11.8643 C   0  0  0  0  0  0  0  0  0  0  0  0
  -25.8885   -1.6375  -13.2256 C   0  0  0  0  0  0  0  0  0  0  0  0
  -24.8691   -1.1257  -14.0320 C   0  0  0  0  0  0  0  0  0  0  0  0
  -23.6281   -0.8286  -13.4814 C   0  0  0  0  0  0  0  0  0  0  0  0
  -23.4329   -1.0405  -12.1140 C   0  0  0  0  0  0  0  0  0  0  0  0
  -22.2458   -0.7930  -11.5407 F   0  0  0  0  0  0  0  0  0  0  0  0
  -24.4559   -1.5447  -11.3008 C   0  0  0  0  0  0  0  0  0  0  0  0
  -27.9437   -2.9578   -9.1863 N   0  0  0  0  0  0  0  0  0  0  0  0
  -26.9354   -2.1979   -9.7526 C   0  0  0  0  0  0  0  0  0  0  0  0
  -26.3685   -1.2868   -9.1541 O   0  0  0  0  0  0  0  0  0  0  0  0
  -26.6417   -2.5635  -11.0555 N   0  0  0  0  0  0  0  0  0  0  0  0
  -28.0985   -3.8749   -9.5780 H   0  0  0  0  0  0  0  0  0  0  0  0
  -27.3351   -3.1226  -11.5352 H   0  0  0  0  0  0  0  0  0  0  0  0
  -29.1220   -1.1510   -6.1005 C   0  0  0  0  0  0  0  0  0  0  0  0
  -28.6026   -1.3922   -7.3827 C   0  0  0  0  0  0  0  0  0  0  0  0
  -28.5151   -2.6884   -7.9157 C   0  0  0  0  0  0  0  0  0  0  0  0
  -29.0124   -3.7550   -7.1633 C   0  0  0  0  0  0  0  0  0  0  0  0
  -29.5469   -3.5267   -5.8900 C   0  0  0  0  0  0  0  0  0  0  0  0
  -29.5892   -2.2352   -5.3680 C   0  0  0  0  0  0  0  0  0  0  0  0
  -30.0799   -2.0544   -4.1350 F   0  0  0  0  0  0  0  0  0  0  0  0
  -28.6660    1.2691   -6.5563 C   0  0  0  0  0  0  0  0  0  0  0  0
  -29.1312    0.2441   -5.5311 C   0  0  0  0  0  0  0  0  0  0  0  0
  -28.3475    0.3721   -4.4218 F   0  0  0  0  0  0  0  0  0  0  0  0
  -30.3798    0.6239   -5.1193 F   0  0  0  0  0  0  0  0  0  0  0  0
  -22.6652   -0.4347  -14.3823 O   0  0  0  0  0  0  0  0  0  0  0  0
  -22.1978    0.8576  -14.3682 C   0  0  0  0  0  0  0  0  0  0  0  0
  -22.8701    1.9133  -13.7657 C   0  0  0  0  0  0  0  0  0  0  0  0
  -22.2722    3.1501  -13.8039 C   0  0  0  0  0  0  0  0  0  0  0  0
  -21.1105    3.3912  -14.4359 N   0  0  0  0  0  0  0  0  0  0  0  0
  -20.4897    2.3823  -15.0706 C   0  0  0  0  0  0  0  0  0  0  0  0
  -21.0080    1.0946  -15.0633 C   0  0  0  0  0  0  0  0  0  0  0  0
  -19.2912    2.6328  -15.7597 N   0  0  0  0  0  0  0  0  0  0  0  0
  -18.0442    2.3733  -15.2284 C   0  0  0  0  0  0  0  0  0  0  0  0
  -17.7788    1.8955  -14.1370 O   0  0  0  0  0  0  0  0  0  0  0  0
  -19.3571    3.0224  -16.6861 H   0  0  0  0  0  0  0  0  0  0  0  0
  -16.9017    2.7310  -16.1302 C   0  0  0  0  0  0  0  0  0  0  0  0
  -15.5405    2.9979  -15.5218 C   0  0  0  0  0  0  0  0  0  0  0  0
  -16.3426    4.1383  -16.0773 C   0  0  0  0  0  0  0  0  0  0  0  0
 21 22  1  0  0  0
 22 23  1  0  0  0
 22 24  1  0  0  0
 22 14  1  0  0  0
 14 15  1  0  0  0
 14 19  2  0  0  0
 15 16  2  0  0  0
 16  8  1  0  0  0
 16 17  1  0  0  0
  8  9  1  0  0  0
  8 12  1  0  0  0
  9 10  2  0  0  0
  9 11  1  0  0  0
 11  1  1  0  0  0
 11 13  1  0  0  0
  1  2  1  0  0  0
  1  7  2  0  0  0
  2  3  2  0  0  0
  3  4  1  0  0  0
  4 25  1  0  0  0
  4  5  2  0  0  0
 25 26  1  0  0  0
 26 27  1  0  0  0
 26 31  2  0  0  0
 27 28  2  0  0  0
 28 29  1  0  0  0
 29 30  2  0  0  0
 30 32  1  0  0  0
 30 31  1  0  0  0
 32 33  1  0  0  0
 32 35  1  0  0  0
 33 34  2  0  0  0
 33 36  1  0  0  0
 36 37  1  0  0  0
 36 38  1  0  0  0
 37 38  1  0  0  0
  5  6  1  0  0  0
  5  7  1  0  0  0
 17 18  2  0  0  0
 18 19  1  0  0  0
 19 20  1  0  0  0
M  END
> <minimizedAffinity>
-11.84014

$$$$
