CHEMBL55496


 39 43  0  0  0  0  0  0  0  0999 V2000
  -16.4891    0.6531  -15.1803 C   0  0  0  0  0  0  0  0  0  0  0  0
  -16.1388    1.0590  -16.4427 N   0  0  0  0  0  0  0  0  0  0  0  0
  -14.7838    1.0920  -16.5518 C   0  0  0  0  0  0  0  0  0  0  0  0
  -14.2313    0.7320  -15.3352 C   0  0  0  0  0  0  0  0  0  0  0  0
  -15.3190    0.4444  -14.4420 C   0  0  0  0  0  0  0  0  0  0  0  0
  -12.7492    0.6578  -15.1405 C   0  0  0  0  0  0  0  0  0  0  0  0
  -11.9782    1.3017  -16.3165 C   0  0  0  0  0  0  0  0  0  0  0  0
  -12.5970    0.9718  -17.6876 C   0  0  0  0  0  0  0  0  0  0  0  0
  -14.0460    1.4691  -17.7846 C   0  0  0  0  0  0  0  0  0  0  0  0
  -16.7876    1.2940  -17.1795 H   0  0  0  0  0  0  0  0  0  0  0  0
  -22.3867    0.7348  -13.9161 C   0  0  0  0  0  0  0  0  0  0  0  0
  -22.8410    2.0705  -13.9672 C   0  0  0  0  0  0  0  0  0  0  0  0
  -21.9464    3.1063  -14.2211 C   0  0  0  0  0  0  0  0  0  0  0  0
  -20.6286    2.7625  -14.4458 C   0  0  0  0  0  0  0  0  0  0  0  0
  -20.1642    1.4392  -14.4400 C   0  0  0  0  0  0  0  0  0  0  0  0
  -21.0395    0.4018  -14.1517 C   0  0  0  0  0  0  0  0  0  0  0  0
  -18.7268    1.5230  -14.7701 C   0  0  0  0  0  0  0  0  0  0  0  0
  -17.8797    0.4938  -14.9284 C   0  0  0  0  0  0  0  0  0  0  0  0
  -18.3934    2.9904  -14.9060 C   0  0  0  0  0  0  0  0  0  0  0  0
  -17.3310    3.5256  -15.1488 O   0  0  0  0  0  0  0  0  0  0  0  0
  -19.5947    3.6481  -14.7095 N   0  0  0  0  0  0  0  0  0  0  0  0
  -19.6671    4.6525  -14.7617 H   0  0  0  0  0  0  0  0  0  0  0  0
  -23.6023   -0.5357  -13.6192 S   0  0  0  0  0  0  0  0  0  0  0  0
  -22.9198   -1.6873  -13.0752 O   0  0  0  0  0  0  0  0  0  0  0  0
  -24.4185   -0.6055  -14.8098 O   0  0  0  0  0  0  0  0  0  0  0  0
  -25.6732   -0.6499  -11.8761 C   0  0  0  0  0  0  0  0  0  0  0  0
  -24.5676    0.1281  -12.4114 N   0  0  0  0  0  0  0  0  0  0  0  0
  -24.0624    0.7272  -11.7623 H   0  0  0  0  0  0  0  0  0  0  0  0
  -15.1965    0.0003  -12.9950 C   0  0  0  0  0  0  0  0  0  0  0  0
  -15.5129   -1.4850  -12.8273 C   0  0  0  0  0  0  0  0  0  0  0  0
  -14.5534   -2.4942  -13.4542 C   0  0  0  0  0  0  0  0  0  0  0  0
  -14.8674   -3.8660  -12.9801 N   0  0  0  0  0  0  0  0  0  0  0  0
  -14.0565   -4.8963  -13.6416 C   0  0  0  0  0  0  0  0  0  0  0  0
  -14.3363   -6.2797  -13.0709 C   0  0  0  0  0  0  0  0  0  0  0  0
  -15.8059   -6.6468  -13.1560 C   0  0  0  0  0  0  0  0  0  0  0  0
  -16.1697   -6.9104  -14.5116 O   0  0  0  0  0  0  0  0  0  0  0  0
  -16.6590   -5.5375  -12.5511 C   0  0  0  0  0  0  0  0  0  0  0  0
  -16.3017   -4.1544  -13.1091 C   0  0  0  0  0  0  0  0  0  0  0  0
  -16.1215   -6.0798  -15.0129 H   0  0  0  0  0  0  0  0  0  0  0  0
 26 27  1  0  0  0
 27 23  1  0  0  0
 27 28  1  0  0  0
 23 24  2  0  0  0
 23 25  2  0  0  0
 23 11  1  0  0  0
 11 12  1  0  0  0
 11 16  2  0  0  0
 12 13  2  0  0  0
 13 14  1  0  0  0
 14 15  2  0  0  0
 14 21  1  0  0  0
 15 16  1  0  0  0
 15 17  1  0  0  0
 17 18  2  0  0  0
 17 19  1  0  0  0
 18  1  1  0  0  0
  1  2  1  0  0  0
  1  5  2  0  0  0
  2  3  1  0  0  0
  2 10  1  0  0  0
  3  4  2  0  0  0
  3  9  1  0  0  0
  4  5  1  0  0  0
  4  6  1  0  0  0
  5 29  1  0  0  0
 29 30  1  0  0  0
 30 31  1  0  0  0
 31 32  1  0  0  0
 32 33  1  0  0  0
 32 38  1  0  0  0
 33 34  1  0  0  0
 34 35  1  0  0  0
 35 36  1  0  0  0
 35 37  1  0  0  0
 36 39  1  0  0  0
 37 38  1  0  0  0
  6  7  1  0  0  0
  7  8  1  0  0  0
  8  9  1  0  0  0
 19 20  2  0  0  0
 19 21  1  0  0  0
 21 22  1  0  0  0
M  END
> <minimizedAffinity>
-10.32461

$$$$
