CHEMBL3927158


 36 40  0  0  0  0  0  0  0  0999 V2000
  -27.8326   -2.3603   -8.9525 N   0  0  0  0  0  0  0  0  0  0  0  0
  -27.0109   -1.9986  -10.1038 C   0  0  0  0  0  0  0  0  0  0  0  0
  -25.7534   -1.5267   -9.8206 C   0  0  0  0  0  0  0  0  0  0  0  0
  -25.0073   -1.0843  -10.8491 C   0  0  0  0  0  0  0  0  0  0  0  0
  -25.4405   -0.9789  -12.1417 C   0  0  0  0  0  0  0  0  0  0  0  0
  -24.9605    0.1724  -12.4922 N   0  0  0  0  0  0  0  0  0  0  0  0
  -23.8308    0.0160  -13.1067 C   0  0  0  0  0  0  0  0  0  0  0  0
  -23.8562   -0.2402  -14.4157 C   0  0  0  0  0  0  0  0  0  0  0  0
  -25.1909   -1.1129  -14.2172 N   0  0  0  0  0  0  0  0  0  0  0  0
  -26.2520   -1.5316  -12.9042 C   0  0  0  0  0  0  0  0  0  0  0  0
  -27.3412   -1.9614  -11.5613 C   0  0  0  0  0  0  0  0  0  0  0  0
  -22.3787    0.8298  -14.4078 C   0  0  0  0  0  0  0  0  0  0  0  0
  -22.0081    2.3016  -14.0033 C   0  0  0  0  0  0  0  0  0  0  0  0
  -20.6921    2.6799  -14.0453 N   0  0  0  0  0  0  0  0  0  0  0  0
  -20.0102    1.5851  -14.4110 N   0  0  0  0  0  0  0  0  0  0  0  0
  -18.5058    1.6021  -14.4577 C   0  0  0  0  0  0  0  0  0  0  0  0
  -20.9635    0.5154  -14.6594 C   0  0  0  0  0  0  0  0  0  0  0  0
  -28.7389    0.5915   -6.6321 C   0  0  0  0  0  0  0  0  0  0  0  0
  -28.2763    0.1324   -5.4617 C   0  0  0  0  0  0  0  0  0  0  0  0
  -27.6259   -1.0999   -5.4148 C   0  0  0  0  0  0  0  0  0  0  0  0
  -27.4351   -1.8975   -6.5557 C   0  0  0  0  0  0  0  0  0  0  0  0
  -27.9401   -1.5224   -7.7750 C   0  0  0  0  0  0  0  0  0  0  0  0
  -28.4112   -0.2006   -7.7118 C   0  0  0  0  0  0  0  0  0  0  0  0
  -30.8253    1.6580   -6.3488 C   0  0  0  0  0  0  0  0  0  0  0  0
  -29.4736    1.7170   -6.8002 O   0  0  0  0  0  0  0  0  0  0  0  0
  -27.1833   -1.6341   -4.2393 O   0  0  0  0  0  0  0  0  0  0  0  0
  -28.1864   -2.3639   -3.5426 C   0  0  0  0  0  0  0  0  0  0  0  0
  -27.9735   -3.8887   -8.7440 C   0  0  0  0  0  0  0  0  0  0  0  0
  -28.8638   -4.1801   -7.5469 C   0  0  0  0  0  0  0  0  0  0  0  0
  -29.6275   -4.4299   -6.5202 C   0  0  0  0  0  0  0  0  0  0  0  0
  -30.4560   -4.7483   -5.3607 C   0  0  0  0  0  0  0  0  0  0  0  0
  -31.0817   -3.7479   -4.6256 C   0  0  0  0  0  0  0  0  0  0  0  0
  -31.7895   -4.0242   -3.4503 C   0  0  0  0  0  0  0  0  0  0  0  0
  -31.7760   -5.3165   -2.9768 C   0  0  0  0  0  0  0  0  0  0  0  0
  -31.2799   -6.3405   -3.7000 N   0  0  0  0  0  0  0  0  0  0  0  0
  -30.6934   -6.0335   -4.8996 C   0  0  0  0  0  0  0  0  0  0  0  0
 24 25  1  0  0  0
 25 18  1  0  0  0
 18 19  1  0  0  0
 18 23  2  0  0  0
 19 20  2  0  0  0
 20 26  1  0  0  0
 20 21  1  0  0  0
 26 27  1  0  0  0
 21 22  2  0  0  0
 22  1  1  0  0  0
 22 23  1  0  0  0
  1 28  1  0  0  0
  1  2  1  0  0  0
 28 29  1  0  0  0
 29 30  3  0  0  0
 30 31  1  0  0  0
 31 32  1  0  0  0
 31 36  2  0  0  0
 32 33  2  0  0  0
 33 34  1  0  0  0
 34 35  2  0  0  0
 35 36  1  0  0  0
  2  3  1  0  0  0
  2 11  2  0  0  0
  3  4  2  0  0  0
  4  5  1  0  0  0
  5  6  1  0  0  0
  5 10  2  0  0  0
  6  7  2  0  0  0
  7  8  1  0  0  0
  8 12  1  0  0  0
  8  9  2  0  0  0
 12 13  1  0  0  0
 12 17  2  0  0  0
 13 14  2  0  0  0
 14 15  1  0  0  0
 15 16  1  0  0  0
 15 17  1  0  0  0
  9 10  1  0  0  0
 10 11  1  0  0  0
M  END
> <minimizedAffinity>
-8.80618

$$$$
