CHEMBL185522


 31 34  0  0  0  0  0  0  0  0999 V2000
  -25.3939   -1.9585  -12.0750 C   0  0  0  0  0  0  0  0  0  0  0  0
  -24.1663   -1.8311  -11.4264 C   0  0  0  0  0  0  0  0  0  0  0  0
  -23.0652   -1.2909  -12.0951 C   0  0  0  0  0  0  0  0  0  0  0  0
  -23.1632   -0.7913  -13.4036 C   0  0  0  0  0  0  0  0  0  0  0  0
  -24.4037   -0.9457  -14.0513 C   0  0  0  0  0  0  0  0  0  0  0  0
  -25.4988   -1.5360  -13.4032 C   0  0  0  0  0  0  0  0  0  0  0  0
  -27.0106   -1.6149  -14.2384 Cl  0  0  0  0  0  0  0  0  0  0  0  0
  -22.0334   -0.0829  -14.0517 C   0  0  0  0  0  0  0  0  0  0  0  0
  -20.9909   -0.7876  -14.7013 C   0  0  0  0  0  0  0  0  0  0  0  0
  -19.9399   -0.1333  -15.3812 C   0  0  0  0  0  0  0  0  0  0  0  0
  -19.8894    1.2541  -15.4327 C   0  0  0  0  0  0  0  0  0  0  0  0
  -20.9004    1.9394  -14.7939 C   0  0  0  0  0  0  0  0  0  0  0  0
  -21.9505    1.3111  -14.1136 C   0  0  0  0  0  0  0  0  0  0  0  0
  -22.8671    2.3666  -13.5687 C   0  0  0  0  0  0  0  0  0  0  0  0
  -22.2724    3.5927  -14.0279 N   0  0  0  0  0  0  0  0  0  0  0  0
  -21.1060    3.3853  -14.7150 C   0  0  0  0  0  0  0  0  0  0  0  0
  -20.3655    4.2354  -15.1725 O   0  0  0  0  0  0  0  0  0  0  0  0
  -22.5909    4.5232  -13.7914 H   0  0  0  0  0  0  0  0  0  0  0  0
  -27.8532   -2.7560   -9.5257 N   0  0  0  0  0  0  0  0  0  0  0  0
  -26.7447   -2.1260  -10.0662 C   0  0  0  0  0  0  0  0  0  0  0  0
  -26.0487   -1.2960   -9.4973 O   0  0  0  0  0  0  0  0  0  0  0  0
  -26.5142   -2.4995  -11.3852 N   0  0  0  0  0  0  0  0  0  0  0  0
  -28.3651   -3.3901  -10.1177 H   0  0  0  0  0  0  0  0  0  0  0  0
  -27.3489   -2.6080  -11.9452 H   0  0  0  0  0  0  0  0  0  0  0  0
  -28.0268    0.1382   -5.4991 C   0  0  0  0  0  0  0  0  0  0  0  0
  -28.4508   -1.0954   -6.2422 C   0  0  0  0  0  0  0  0  0  0  0  0
  -29.2927   -2.0209   -5.6174 C   0  0  0  0  0  0  0  0  0  0  0  0
  -29.6946   -3.1619   -6.2889 C   0  0  0  0  0  0  0  0  0  0  0  0
  -29.2432   -3.4022   -7.5915 C   0  0  0  0  0  0  0  0  0  0  0  0
  -28.3745   -2.5119   -8.2282 C   0  0  0  0  0  0  0  0  0  0  0  0
  -28.0045   -1.3400   -7.5564 C   0  0  0  0  0  0  0  0  0  0  0  0
 25 26  1  0  0  0
 26 27  1  0  0  0
 26 31  2  0  0  0
 27 28  2  0  0  0
 28 29  1  0  0  0
 29 30  2  0  0  0
 30 19  1  0  0  0
 30 31  1  0  0  0
 19 20  1  0  0  0
 19 23  1  0  0  0
 20 21  2  0  0  0
 20 22  1  0  0  0
 22  1  1  0  0  0
 22 24  1  0  0  0
  1  2  1  0  0  0
  1  6  2  0  0  0
  2  3  2  0  0  0
  3  4  1  0  0  0
  4  8  1  0  0  0
  4  5  2  0  0  0
  8  9  1  0  0  0
  8 13  2  0  0  0
  9 10  2  0  0  0
 10 11  1  0  0  0
 11 12  2  0  0  0
 12 13  1  0  0  0
 12 16  1  0  0  0
 13 14  1  0  0  0
 14 15  1  0  0  0
 15 16  1  0  0  0
 15 18  1  0  0  0
 16 17  2  0  0  0
  5  6  1  0  0  0
  6  7  1  0  0  0
M  END
> <minimizedAffinity>
-10.97943

$$$$
