CHEMBL1202473


 33 36  0  0  0  0  0  0  0  0999 V2000
  -13.9927   -1.2792  -13.7267 C   0  0  0  0  0  0  0  0  0  0  0  0
  -13.7292   -2.6604  -13.8005 C   0  0  0  0  0  0  0  0  0  0  0  0
  -14.5417   -3.5940  -13.1461 C   0  0  0  0  0  0  0  0  0  0  0  0
  -14.2663   -4.9842  -13.1534 C   0  0  0  0  0  0  0  0  0  0  0  0
  -15.0660   -5.8147  -12.4302 N   0  0  0  0  0  0  0  0  0  0  0  0
  -16.1309   -5.3509  -11.7340 C   0  0  0  0  0  0  0  0  0  0  0  0
  -16.4208   -4.0267  -11.7296 N   0  0  0  0  0  0  0  0  0  0  0  0
  -15.6479   -3.1364  -12.4099 C   0  0  0  0  0  0  0  0  0  0  0  0
  -15.9508   -1.7605  -12.3614 C   0  0  0  0  0  0  0  0  0  0  0  0
  -15.1412   -0.8139  -13.0151 C   0  0  0  0  0  0  0  0  0  0  0  0
  -13.3000    0.2169  -15.5586 C   0  0  0  0  0  0  0  0  0  0  0  0
  -13.1577   -0.3903  -14.3244 O   0  0  0  0  0  0  0  0  0  0  0  0
  -13.1970   -5.5410  -13.9206 N   0  0  0  0  0  0  0  0  0  0  0  0
  -12.2281   -5.3290  -13.6428 H   0  0  0  0  0  0  0  0  0  0  0  0
  -13.3663   -6.4547  -15.0085 C   0  0  0  0  0  0  0  0  0  0  0  0
  -13.0992   -7.8266  -14.8582 C   0  0  0  0  0  0  0  0  0  0  0  0
  -13.1255   -8.6886  -15.9668 C   0  0  0  0  0  0  0  0  0  0  0  0
  -12.8144   -9.9938  -15.8116 O   0  0  0  0  0  0  0  0  0  0  0  0
  -13.4465   -8.1813  -17.2419 C   0  0  0  0  0  0  0  0  0  0  0  0
  -13.4211   -9.0503  -18.4699 C   0  0  0  0  0  0  0  0  0  0  0  0
  -13.7654   -6.8249  -17.3804 C   0  0  0  0  0  0  0  0  0  0  0  0
  -13.7125   -5.9648  -16.2810 C   0  0  0  0  0  0  0  0  0  0  0  0
  -13.9878   -4.6480  -16.4622 F   0  0  0  0  0  0  0  0  0  0  0  0
  -12.5627  -10.3656  -14.9541 H   0  0  0  0  0  0  0  0  0  0  0  0
  -15.4898    0.5135  -12.9203 O   0  0  0  0  0  0  0  0  0  0  0  0
  -16.6890    1.0615  -13.3559 C   0  0  0  0  0  0  0  0  0  0  0  0
  -16.9061    0.9837  -14.8868 C   0  0  0  0  0  0  0  0  0  0  0  0
  -16.9063    2.3572  -15.5882 C   0  0  0  0  0  0  0  0  0  0  0  0
  -18.1311    3.1984  -15.1853 C   0  0  0  0  0  0  0  0  0  0  0  0
  -19.3842    2.4817  -15.5078 N   0  0  0  0  0  0  0  0  0  0  0  0
  -20.5469    3.3076  -15.1409 C   0  0  0  0  0  0  0  0  0  0  0  0
  -19.4537    1.1737  -14.8214 C   0  0  0  0  0  0  0  0  0  0  0  0
  -18.2528    0.2915  -15.2112 C   0  0  0  0  0  0  0  0  0  0  0  0
 11 12  1  0  0  0
 12  1  1  0  0  0
  1  2  1  0  0  0
  1 10  2  0  0  0
  2  3  2  0  0  0
  3  4  1  0  0  0
  3  8  1  0  0  0
  4 13  1  0  0  0
  4  5  2  0  0  0
 13 15  1  0  0  0
 13 14  1  0  0  0
 15 16  1  0  0  0
 15 22  2  0  0  0
 16 17  2  0  0  0
 17 18  1  0  0  0
 17 19  1  0  0  0
 18 24  1  0  0  0
 19 20  1  0  0  0
 19 21  2  0  0  0
 21 22  1  0  0  0
 22 23  1  0  0  0
  5  6  1  0  0  0
  6  7  2  0  0  0
  7  8  1  0  0  0
  8  9  2  0  0  0
  9 10  1  0  0  0
 10 25  1  0  0  0
 25 26  1  0  0  0
 26 27  1  0  0  0
 27 28  1  0  0  0
 27 33  1  0  0  0
 28 29  1  0  0  0
 29 30  1  0  0  0
 30 31  1  0  0  0
 30 32  1  0  0  0
 32 33  1  0  0  0
M  END
> <minimizedAffinity>
-7.52254

$$$$
