CHEMBL3642835


 45 48  0  0  0  0  0  0  0  0999 V2000
  -12.9952    5.2030  -15.6904 N   0  0  0  0  0  0  0  0  0  0  0  0
  -14.0465    4.5358  -16.2995 C   0  0  0  0  0  0  0  0  0  0  0  0
  -14.7680    4.9709  -17.1874 O   0  0  0  0  0  0  0  0  0  0  0  0
  -12.6227    4.8156  -14.8330 H   0  0  0  0  0  0  0  0  0  0  0  0
  -11.0590   10.3429  -17.3773 C   0  0  0  0  0  0  0  0  0  0  0  0
  -11.5311    8.9709  -16.9813 C   0  0  0  0  0  0  0  0  0  0  0  0
  -11.6606    8.6928  -15.6092 C   0  0  0  0  0  0  0  0  0  0  0  0
  -12.1143    7.4511  -15.1568 C   0  0  0  0  0  0  0  0  0  0  0  0
  -12.4818    6.4668  -16.0658 C   0  0  0  0  0  0  0  0  0  0  0  0
  -12.3461    6.7390  -17.4317 C   0  0  0  0  0  0  0  0  0  0  0  0
  -11.8089    7.9536  -17.9139 C   0  0  0  0  0  0  0  0  0  0  0  0
  -11.5347    8.1107  -19.2890 N   0  0  0  0  0  0  0  0  0  0  0  0
  -10.7623    7.5909  -19.6768 H   0  0  0  0  0  0  0  0  0  0  0  0
  -12.4447    8.3802  -20.3206 C   0  0  0  0  0  0  0  0  0  0  0  0
  -12.3275    7.6724  -21.4508 N   0  0  0  0  0  0  0  0  0  0  0  0
  -13.2560    7.8917  -22.4032 C   0  0  0  0  0  0  0  0  0  0  0  0
  -14.3228    8.7482  -22.2548 C   0  0  0  0  0  0  0  0  0  0  0  0
  -14.3899    9.4221  -21.0560 C   0  0  0  0  0  0  0  0  0  0  0  0
  -13.4379    9.2558  -20.1167 N   0  0  0  0  0  0  0  0  0  0  0  0
  -15.4942   10.3113  -20.6523 C   0  0  0  0  0  0  0  0  0  0  0  0
  -16.8196    9.8406  -20.5911 C   0  0  0  0  0  0  0  0  0  0  0  0
  -17.8683   10.6846  -20.2341 C   0  0  0  0  0  0  0  0  0  0  0  0
  -17.5692   11.9992  -19.9360 C   0  0  0  0  0  0  0  0  0  0  0  0
  -16.3189   12.5050  -19.9664 N   0  0  0  0  0  0  0  0  0  0  0  0
  -15.3212   11.6532  -20.3178 C   0  0  0  0  0  0  0  0  0  0  0  0
  -14.3497    3.1734  -15.7754 C   0  0  0  0  0  0  0  0  0  0  0  0
  -13.3467    2.2541  -15.5077 C   0  0  0  0  0  0  0  0  0  0  0  0
  -13.6823    0.9644  -15.0838 C   0  0  0  0  0  0  0  0  0  0  0  0
  -15.0144    0.5444  -14.9135 C   0  0  0  0  0  0  0  0  0  0  0  0
  -16.0362    1.4820  -15.1654 C   0  0  0  0  0  0  0  0  0  0  0  0
  -15.6855    2.7823  -15.6144 C   0  0  0  0  0  0  0  0  0  0  0  0
  -15.3242   -0.7880  -14.5060 N   0  0  0  0  0  0  0  0  0  0  0  0
  -15.5486   -1.2081  -13.2046 C   0  0  0  0  0  0  0  0  0  0  0  0
  -15.4852   -0.5150  -12.2004 O   0  0  0  0  0  0  0  0  0  0  0  0
  -15.3614   -1.4978  -15.2335 H   0  0  0  0  0  0  0  0  0  0  0  0
  -15.8997   -2.6544  -13.0795 C   0  0  0  0  0  0  0  0  0  0  0  0
  -15.9943   -3.1601  -11.8356 C   0  0  0  0  0  0  0  0  0  0  0  0
  -16.3833   -4.5579  -11.4673 C   0  0  0  0  0  0  0  0  0  0  0  0
  -15.3868   -5.1857  -10.5864 N   0  0  0  0  0  0  0  0  0  0  0  0
  -14.4388   -6.0199  -11.3282 C   0  0  0  0  0  0  0  0  0  0  0  0
  -14.6619   -4.1599   -9.8342 C   0  0  0  0  0  0  0  0  0  0  0  0
  -17.5059    1.2042  -14.9779 C   0  0  0  0  0  0  0  0  0  0  0  0
  -17.8873   -0.0511  -15.3584 F   0  0  0  0  0  0  0  0  0  0  0  0
  -17.8905    1.3216  -13.6759 F   0  0  0  0  0  0  0  0  0  0  0  0
  -18.3011    2.0572  -15.6798 F   0  0  0  0  0  0  0  0  0  0  0  0
  5  6  1  0  0  0
  6  7  1  0  0  0
  6 11  2  0  0  0
  7  8  2  0  0  0
  8  9  1  0  0  0
  9  1  1  0  0  0
  9 10  2  0  0  0
  1  2  1  0  0  0
  1  4  1  0  0  0
  2  3  2  0  0  0
  2 26  1  0  0  0
 26 27  1  0  0  0
 26 31  2  0  0  0
 27 28  2  0  0  0
 28 29  1  0  0  0
 29 32  1  0  0  0
 29 30  2  0  0  0
 32 33  1  0  0  0
 32 35  1  0  0  0
 33 34  2  0  0  0
 33 36  1  0  0  0
 36 37  2  0  0  0
 37 38  1  0  0  0
 38 39  1  0  0  0
 39 40  1  0  0  0
 39 41  1  0  0  0
 30 42  1  0  0  0
 30 31  1  0  0  0
 42 43  1  0  0  0
 42 44  1  0  0  0
 42 45  1  0  0  0
 10 11  1  0  0  0
 11 12  1  0  0  0
 12 14  1  0  0  0
 12 13  1  0  0  0
 14 15  1  0  0  0
 14 19  2  0  0  0
 15 16  2  0  0  0
 16 17  1  0  0  0
 17 18  2  0  0  0
 18 20  1  0  0  0
 18 19  1  0  0  0
 20 21  1  0  0  0
 20 25  2  0  0  0
 21 22  2  0  0  0
 22 23  1  0  0  0
 23 24  2  0  0  0
 24 25  1  0  0  0
M  END
> <minimizedAffinity>
-7.88860

$$$$
