CHEMBL2206663


 32 35  0  0  0  0  0  0  0  0999 V2000
  -27.4191   -0.7751   -9.6186 O   0  0  0  0  0  0  0  0  0  0  0  0
  -27.2064   -1.9830   -9.5634 C   0  0  0  0  0  0  0  0  0  0  0  0
  -26.6005   -2.7153  -10.5798 N   0  0  0  0  0  0  0  0  0  0  0  0
  -27.5847   -2.7879   -8.5003 N   0  0  0  0  0  0  0  0  0  0  0  0
  -26.6668   -3.7190  -10.5207 H   0  0  0  0  0  0  0  0  0  0  0  0
  -27.2614   -3.7420   -8.5111 H   0  0  0  0  0  0  0  0  0  0  0  0
  -26.1962   -2.1849  -11.8337 C   0  0  0  0  0  0  0  0  0  0  0  0
  -27.0879   -1.9995  -12.8983 C   0  0  0  0  0  0  0  0  0  0  0  0
  -26.6367   -1.6082  -14.1581 C   0  0  0  0  0  0  0  0  0  0  0  0
  -25.2853   -1.3748  -14.3684 C   0  0  0  0  0  0  0  0  0  0  0  0
  -24.3978   -1.4751  -13.2978 C   0  0  0  0  0  0  0  0  0  0  0  0
  -24.8416   -1.8786  -12.0303 C   0  0  0  0  0  0  0  0  0  0  0  0
  -23.0039   -1.3207  -13.4922 O   0  0  0  0  0  0  0  0  0  0  0  0
  -22.4804   -0.0712  -13.8112 C   0  0  0  0  0  0  0  0  0  0  0  0
  -23.3953    0.9737  -13.2928 C   0  0  0  0  0  0  0  0  0  0  0  0
  -23.0323    2.2464  -13.5055 C   0  0  0  0  0  0  0  0  0  0  0  0
  -21.8297    2.5156  -14.2009 C   0  0  0  0  0  0  0  0  0  0  0  0
  -21.2550    3.6509  -14.5425 N   0  0  0  0  0  0  0  0  0  0  0  0
  -20.0951    3.2861  -15.1828 C   0  0  0  0  0  0  0  0  0  0  0  0
  -19.9631    1.9185  -15.2260 C   0  0  0  0  0  0  0  0  0  0  0  0
  -21.0817    1.4247  -14.6155 N   0  0  0  0  0  0  0  0  0  0  0  0
  -21.3705    0.1073  -14.4502 N   0  0  0  0  0  0  0  0  0  0  0  0
  -28.3392   -2.3846   -7.3700 C   0  0  0  0  0  0  0  0  0  0  0  0
  -29.1167   -3.2557   -6.6007 C   0  0  0  0  0  0  0  0  0  0  0  0
  -29.8333   -2.7985   -5.4930 C   0  0  0  0  0  0  0  0  0  0  0  0
  -29.7685   -1.4600   -5.1258 C   0  0  0  0  0  0  0  0  0  0  0  0
  -28.9820   -0.5660   -5.8635 C   0  0  0  0  0  0  0  0  0  0  0  0
  -28.2799   -1.0368   -6.9922 C   0  0  0  0  0  0  0  0  0  0  0  0
  -28.8657    0.8784   -5.4473 C   0  0  0  0  0  0  0  0  0  0  0  0
  -30.0346    1.4151   -4.9985 F   0  0  0  0  0  0  0  0  0  0  0  0
  -27.9650    1.0545   -4.4405 F   0  0  0  0  0  0  0  0  0  0  0  0
  -28.4504    1.6829   -6.4637 F   0  0  0  0  0  0  0  0  0  0  0  0
  1  2  2  0  0  0
  2  3  1  0  0  0
  2  4  1  0  0  0
  3  7  1  0  0  0
  3  5  1  0  0  0
  7  8  1  0  0  0
  7 12  2  0  0  0
  8  9  2  0  0  0
  9 10  1  0  0  0
 10 11  2  0  0  0
 11 13  1  0  0  0
 11 12  1  0  0  0
 13 14  1  0  0  0
 14 15  1  0  0  0
 14 22  2  0  0  0
 15 16  2  0  0  0
 16 17  1  0  0  0
 17 18  2  0  0  0
 17 21  1  0  0  0
 18 19  1  0  0  0
 19 20  2  0  0  0
 20 21  1  0  0  0
 21 22  1  0  0  0
  4 23  1  0  0  0
  4  6  1  0  0  0
 23 24  1  0  0  0
 23 28  2  0  0  0
 24 25  2  0  0  0
 25 26  1  0  0  0
 26 27  2  0  0  0
 27 29  1  0  0  0
 27 28  1  0  0  0
 29 30  1  0  0  0
 29 31  1  0  0  0
 29 32  1  0  0  0
M  END
> <minimizedAffinity>
-11.56866

$$$$
