CHEMBL178899


 28 30  0  0  0  0  0  0  0  0999 V2000
  -26.2657  -10.2732   -6.0529 C   0  0  0  0  0  0  0  0  0  0  0  0
  -26.5320  -10.2557   -7.4084 C   0  0  0  0  0  0  0  0  0  0  0  0
  -27.7310   -9.6437   -7.6128 N   0  0  0  0  0  0  0  0  0  0  0  0
  -28.2871   -9.4700   -8.8180 N   0  0  0  0  0  0  0  0  0  0  0  0
  -29.4188   -8.8494   -8.7826 C   0  0  0  0  0  0  0  0  0  0  0  0
  -30.0484   -8.3683   -7.6714 N   0  0  0  0  0  0  0  0  0  0  0  0
  -29.5244   -8.5349   -6.4879 C   0  0  0  0  0  0  0  0  0  0  0  0
  -28.2629   -9.2380   -6.4182 C   0  0  0  0  0  0  0  0  0  0  0  0
  -27.3737   -9.6092   -5.4070 C   0  0  0  0  0  0  0  0  0  0  0  0
  -27.4498   -9.4045   -3.9303 C   0  0  0  0  0  0  0  0  0  0  0  0
  -25.0729  -10.8569   -5.4419 C   0  0  0  0  0  0  0  0  0  0  0  0
  -24.9566  -12.0521   -5.1972 O   0  0  0  0  0  0  0  0  0  0  0  0
  -23.0852   -9.8363   -6.1619 C   0  0  0  0  0  0  0  0  0  0  0  0
  -24.1129   -9.9232   -5.1770 O   0  0  0  0  0  0  0  0  0  0  0  0
  -30.1952   -8.0666   -5.3796 N   0  0  0  0  0  0  0  0  0  0  0  0
  -30.5902   -8.7382   -4.7430 H   0  0  0  0  0  0  0  0  0  0  0  0
  -30.1118   -6.7728   -4.8316 C   0  0  0  0  0  0  0  0  0  0  0  0
  -31.2399   -6.0199   -4.4946 C   0  0  0  0  0  0  0  0  0  0  0  0
  -31.1139   -4.7446   -3.9374 C   0  0  0  0  0  0  0  0  0  0  0  0
  -29.8502   -4.1928   -3.6777 C   0  0  0  0  0  0  0  0  0  0  0  0
  -28.7221   -4.9548   -3.9935 C   0  0  0  0  0  0  0  0  0  0  0  0
  -27.4373   -4.5373   -3.7826 O   0  0  0  0  0  0  0  0  0  0  0  0
  -28.8515   -6.2268   -4.5605 C   0  0  0  0  0  0  0  0  0  0  0  0
  -27.4012   -3.6419   -3.4053 H   0  0  0  0  0  0  0  0  0  0  0  0
  -29.7458   -2.8250   -3.0692 C   0  0  0  0  0  0  0  0  0  0  0  0
  -28.8078   -2.7165   -2.0893 F   0  0  0  0  0  0  0  0  0  0  0  0
  -29.4409   -1.8702   -3.9914 F   0  0  0  0  0  0  0  0  0  0  0  0
  -30.9215   -2.4207   -2.5110 F   0  0  0  0  0  0  0  0  0  0  0  0
 13 14  1  0  0  0
 14 11  1  0  0  0
 11 12  2  0  0  0
 11  1  1  0  0  0
  1  2  2  0  0  0
  1  9  1  0  0  0
  2  3  1  0  0  0
  3  4  1  0  0  0
  3  8  1  0  0  0
  4  5  2  0  0  0
  5  6  1  0  0  0
  6  7  2  0  0  0
  7 15  1  0  0  0
  7  8  1  0  0  0
 15 17  1  0  0  0
 15 16  1  0  0  0
 17 18  1  0  0  0
 17 23  2  0  0  0
 18 19  2  0  0  0
 19 20  1  0  0  0
 20 25  1  0  0  0
 20 21  2  0  0  0
 25 26  1  0  0  0
 25 27  1  0  0  0
 25 28  1  0  0  0
 21 22  1  0  0  0
 21 23  1  0  0  0
 22 24  1  0  0  0
  8  9  2  0  0  0
  9 10  1  0  0  0
M  END
> <minimizedAffinity>
-7.81666

$$$$
