CHEMBL2004025


 30 31  0  0  0  0  0  0  0  0999 V2000
  -13.0633   -4.0179  -11.9865 C   0  0  0  0  0  0  0  0  0  0  0  0
  -12.4612   -3.3774  -13.0989 C   0  0  0  0  0  0  0  0  0  0  0  0
  -13.1319   -2.4531  -13.9071 C   0  0  0  0  0  0  0  0  0  0  0  0
  -14.4157   -2.0614  -13.5764 C   0  0  0  0  0  0  0  0  0  0  0  0
  -15.0396   -2.6209  -12.4702 C   0  0  0  0  0  0  0  0  0  0  0  0
  -14.3759   -3.5871  -11.6709 C   0  0  0  0  0  0  0  0  0  0  0  0
  -11.4954   -4.8210  -10.1263 C   0  0  0  0  0  0  0  0  0  0  0  0
  -10.7285   -5.8157   -9.5051 C   0  0  0  0  0  0  0  0  0  0  0  0
  -10.7231   -7.1090  -10.0035 C   0  0  0  0  0  0  0  0  0  0  0  0
  -11.5397   -7.4393  -11.0827 C   0  0  0  0  0  0  0  0  0  0  0  0
  -12.3496   -6.4694  -11.6933 C   0  0  0  0  0  0  0  0  0  0  0  0
  -12.3000   -5.1135  -11.2761 C   0  0  0  0  0  0  0  0  0  0  0  0
  -11.5712   -3.5415   -9.6356 O   0  0  0  0  0  0  0  0  0  0  0  0
  -10.9311   -3.1977   -8.4164 C   0  0  0  0  0  0  0  0  0  0  0  0
  -11.4578   -3.7046   -6.1691 C   0  0  0  0  0  0  0  0  0  0  0  0
  -11.8955   -3.0751   -7.3662 O   0  0  0  0  0  0  0  0  0  0  0  0
  -13.2195   -6.7684  -12.7133 O   0  0  0  0  0  0  0  0  0  0  0  0
  -13.9959   -7.9583  -12.6179 C   0  0  0  0  0  0  0  0  0  0  0  0
  -15.1761   -7.9330  -13.4187 O   0  0  0  0  0  0  0  0  0  0  0  0
  -15.0882   -6.9435  -14.4374 C   0  0  0  0  0  0  0  0  0  0  0  0
  -15.0663   -1.0672  -14.3612 N   0  0  0  0  0  0  0  0  0  0  0  0
  -15.0144   -1.2177  -15.3708 H   0  0  0  0  0  0  0  0  0  0  0  0
  -14.7341    0.5582  -14.0394 S   0  0  0  0  0  0  0  0  0  0  0  0
  -16.2169    1.3460  -14.6275 C   0  0  0  0  0  0  0  0  0  0  0  0
  -14.6061    0.7706  -12.6161 O   0  0  0  0  0  0  0  0  0  0  0  0
  -13.6659    0.9102  -14.9517 O   0  0  0  0  0  0  0  0  0  0  0  0
  -15.1739   -4.1006  -10.5219 C   0  0  0  0  0  0  0  0  0  0  0  0
  -15.3439   -3.5393   -9.4533 O   0  0  0  0  0  0  0  0  0  0  0  0
  -15.6913   -5.3103  -10.8863 O   0  0  0  0  0  0  0  0  0  0  0  0
  -16.8344   -5.2476  -11.7394 C   0  0  0  0  0  0  0  0  0  0  0  0
 15 16  1  0  0  0
 16 14  1  0  0  0
 14 13  1  0  0  0
 13  7  1  0  0  0
  7  8  1  0  0  0
  7 12  2  0  0  0
  8  9  2  0  0  0
  9 10  1  0  0  0
 10 11  2  0  0  0
 11 17  1  0  0  0
 11 12  1  0  0  0
 17 18  1  0  0  0
 18 19  1  0  0  0
 19 20  1  0  0  0
 12  1  1  0  0  0
  1  2  1  0  0  0
  1  6  2  0  0  0
  2  3  2  0  0  0
  3  4  1  0  0  0
  4 21  1  0  0  0
  4  5  2  0  0  0
 21 23  1  0  0  0
 21 22  1  0  0  0
 23 24  1  0  0  0
 23 25  2  0  0  0
 23 26  2  0  0  0
  5  6  1  0  0  0
  6 27  1  0  0  0
 27 28  2  0  0  0
 27 29  1  0  0  0
 29 30  1  0  0  0
M  END
> <minimizedAffinity>
-6.16972

$$$$
