CHEMBL1986263


 25 27  0  0  0  0  0  0  0  0999 V2000
  -29.9741   -5.6794   -4.5180 C   0  0  0  0  0  0  0  0  0  0  0  0
  -31.2472   -5.7256   -3.9829 C   0  0  0  0  0  0  0  0  0  0  0  0
  -31.6866   -4.5778   -3.3835 C   0  0  0  0  0  0  0  0  0  0  0  0
  -30.9306   -3.4812   -3.2729 N   0  0  0  0  0  0  0  0  0  0  0  0
  -29.6978   -3.5054   -3.8061 C   0  0  0  0  0  0  0  0  0  0  0  0
  -29.1961   -4.5716   -4.4445 N   0  0  0  0  0  0  0  0  0  0  0  0
  -28.7813   -8.2663   -6.9087 N   0  0  0  0  0  0  0  0  0  0  0  0
  -29.2500   -6.9964   -6.5739 C   0  0  0  0  0  0  0  0  0  0  0  0
  -29.5286   -5.9501   -7.6102 C   0  0  0  0  0  0  0  0  0  0  0  0
  -29.4051   -6.8285   -5.2435 C   0  0  0  0  0  0  0  0  0  0  0  0
  -28.9241   -8.2491   -4.3511 S   0  0  0  0  0  0  0  0  0  0  0  0
  -28.5238   -9.1086   -5.8333 C   0  0  0  0  0  0  0  0  0  0  0  0
  -28.0962  -10.2506   -5.8538 O   0  0  0  0  0  0  0  0  0  0  0  0
  -29.8100   -9.4685   -8.8042 C   0  0  0  0  0  0  0  0  0  0  0  0
  -28.5825   -8.7599   -8.2597 C   0  0  0  0  0  0  0  0  0  0  0  0
  -28.9091   -2.3589   -3.7278 N   0  0  0  0  0  0  0  0  0  0  0  0
  -28.6610   -2.1116   -2.7876 H   0  0  0  0  0  0  0  0  0  0  0  0
  -28.6503   -1.4273   -4.7441 C   0  0  0  0  0  0  0  0  0  0  0  0
  -29.1146   -0.1073   -4.6547 C   0  0  0  0  0  0  0  0  0  0  0  0
  -28.9476    0.7914   -5.7047 C   0  0  0  0  0  0  0  0  0  0  0  0
  -28.3216    0.3790   -6.8776 C   0  0  0  0  0  0  0  0  0  0  0  0
  -27.8396   -0.9261   -6.9905 C   0  0  0  0  0  0  0  0  0  0  0  0
  -28.0020   -1.8203   -5.9214 C   0  0  0  0  0  0  0  0  0  0  0  0
  -27.2042   -1.4426   -8.0887 O   0  0  0  0  0  0  0  0  0  0  0  0
  -27.8196   -2.5647   -8.7125 C   0  0  0  0  0  0  0  0  0  0  0  0
 14 15  1  0  0  0
 15  7  1  0  0  0
  7  8  1  0  0  0
  7 12  1  0  0  0
  8  9  1  0  0  0
  8 10  2  0  0  0
 10  1  1  0  0  0
 10 11  1  0  0  0
  1  2  1  0  0  0
  1  6  2  0  0  0
  2  3  2  0  0  0
  3  4  1  0  0  0
  4  5  2  0  0  0
  5 16  1  0  0  0
  5  6  1  0  0  0
 16 18  1  0  0  0
 16 17  1  0  0  0
 18 19  1  0  0  0
 18 23  2  0  0  0
 19 20  2  0  0  0
 20 21  1  0  0  0
 21 22  2  0  0  0
 22 24  1  0  0  0
 22 23  1  0  0  0
 24 25  1  0  0  0
 11 12  1  0  0  0
 12 13  2  0  0  0
M  END
> <minimizedAffinity>
-7.75597

$$$$
