CHEMBL3633690


 34 37  0  0  0  0  0  0  0  0999 V2000
  -30.9783   -7.4111   -6.3907 C   0  0  0  0  0  0  0  0  0  0  0  0
  -30.3768   -6.5811   -7.3030 C   0  0  0  0  0  0  0  0  0  0  0  0
  -29.9173   -5.5191   -6.5527 N   0  0  0  0  0  0  0  0  0  0  0  0
  -30.2261   -5.7177   -5.2499 N   0  0  0  0  0  0  0  0  0  0  0  0
  -30.8619   -6.8701   -5.1477 N   0  0  0  0  0  0  0  0  0  0  0  0
  -29.1940   -4.3697   -6.9579 C   0  0  0  0  0  0  0  0  0  0  0  0
  -28.4745   -4.4068   -8.1624 C   0  0  0  0  0  0  0  0  0  0  0  0
  -27.8044   -3.2727   -8.6152 C   0  0  0  0  0  0  0  0  0  0  0  0
  -27.8486   -2.0964   -7.8667 C   0  0  0  0  0  0  0  0  0  0  0  0
  -27.1786   -0.9982   -8.3370 O   0  0  0  0  0  0  0  0  0  0  0  0
  -28.5577   -2.0345   -6.6528 C   0  0  0  0  0  0  0  0  0  0  0  0
  -29.2200   -3.1909   -6.2001 C   0  0  0  0  0  0  0  0  0  0  0  0
  -26.7215   -1.2279   -9.1611 H   0  0  0  0  0  0  0  0  0  0  0  0
  -28.6718   -0.7933   -5.8912 C   0  0  0  0  0  0  0  0  0  0  0  0
  -27.6709   -0.1019   -5.1526 C   0  0  0  0  0  0  0  0  0  0  0  0
  -28.2398    1.0299   -4.6165 C   0  0  0  0  0  0  0  0  0  0  0  0
  -29.5550    1.0564   -4.9952 N   0  0  0  0  0  0  0  0  0  0  0  0
  -29.8261   -0.0392   -5.7786 C   0  0  0  0  0  0  0  0  0  0  0  0
  -30.2196    1.7735   -4.7444 H   0  0  0  0  0  0  0  0  0  0  0  0
  -31.6109   -8.5740   -6.6643 N   0  0  0  0  0  0  0  0  0  0  0  0
  -32.3777   -8.8790   -6.0670 H   0  0  0  0  0  0  0  0  0  0  0  0
  -29.3573  -10.8717   -8.5705 C   0  0  0  0  0  0  0  0  0  0  0  0
  -30.1591  -12.0017   -8.6900 C   0  0  0  0  0  0  0  0  0  0  0  0
  -31.4790  -11.9555   -8.2377 C   0  0  0  0  0  0  0  0  0  0  0  0
  -31.9842  -10.7965   -7.6307 C   0  0  0  0  0  0  0  0  0  0  0  0
  -31.1394   -9.6774   -7.4306 C   0  0  0  0  0  0  0  0  0  0  0  0
  -29.8409   -9.7191   -7.9554 C   0  0  0  0  0  0  0  0  0  0  0  0
  -27.6751  -10.8907   -9.1411 S   0  0  0  0  0  0  0  0  0  0  0  0
  -27.3733  -12.2587   -9.5224 O   0  0  0  0  0  0  0  0  0  0  0  0
  -26.8794  -10.2049   -8.1427 O   0  0  0  0  0  0  0  0  0  0  0  0
  -28.8369  -10.3435  -11.5502 C   0  0  0  0  0  0  0  0  0  0  0  0
  -27.7163   -9.9034  -10.6280 C   0  0  0  0  0  0  0  0  0  0  0  0
  -33.2722  -10.6667   -7.1600 O   0  0  0  0  0  0  0  0  0  0  0  0
  -33.7154  -11.6667   -6.2447 C   0  0  0  0  0  0  0  0  0  0  0  0
 31 32  1  0  0  0
 32 28  1  0  0  0
 28 29  2  0  0  0
 28 30  2  0  0  0
 28 22  1  0  0  0
 22 23  1  0  0  0
 22 27  2  0  0  0
 23 24  2  0  0  0
 24 25  1  0  0  0
 25 33  1  0  0  0
 25 26  2  0  0  0
 33 34  1  0  0  0
 26 20  1  0  0  0
 26 27  1  0  0  0
 20  1  1  0  0  0
 20 21  1  0  0  0
  1  2  2  0  0  0
  1  5  1  0  0  0
  2  3  1  0  0  0
  3  6  1  0  0  0
  3  4  1  0  0  0
  6  7  1  0  0  0
  6 12  2  0  0  0
  7  8  2  0  0  0
  8  9  1  0  0  0
  9 10  1  0  0  0
  9 11  2  0  0  0
 10 13  1  0  0  0
 11 14  1  0  0  0
 11 12  1  0  0  0
 14 15  1  0  0  0
 14 18  2  0  0  0
 15 16  2  0  0  0
 16 17  1  0  0  0
 17 18  1  0  0  0
 17 19  1  0  0  0
  4  5  2  0  0  0
M  END
> <minimizedAffinity>
-8.14194

$$$$
