CHEMBL3774935


 24 26  0  0  0  0  0  0  0  0999 V2000
  -29.2073  -10.3396   -9.6124 C   0  0  0  0  0  0  0  0  0  0  0  0
  -30.5826  -10.2876   -9.3196 C   0  0  0  0  0  0  0  0  0  0  0  0
  -31.1064   -9.4792   -8.3181 C   0  0  0  0  0  0  0  0  0  0  0  0
  -32.4333   -9.4264   -8.1907 N   0  0  0  0  0  0  0  0  0  0  0  0
  -32.9001   -8.5870   -7.2672 C   0  0  0  0  0  0  0  0  0  0  0  0
  -32.1709   -7.7884   -6.4882 N   0  0  0  0  0  0  0  0  0  0  0  0
  -30.8248   -7.8306   -6.6103 C   0  0  0  0  0  0  0  0  0  0  0  0
  -30.2258   -8.7589   -7.5039 C   0  0  0  0  0  0  0  0  0  0  0  0
  -28.8413   -8.9928   -7.6638 C   0  0  0  0  0  0  0  0  0  0  0  0
  -28.3207   -9.6977   -8.7496 C   0  0  0  0  0  0  0  0  0  0  0  0
  -28.8439  -10.3866  -11.9588 C   0  0  0  0  0  0  0  0  0  0  0  0
  -28.7200  -11.0309  -10.6894 O   0  0  0  0  0  0  0  0  0  0  0  0
  -30.0761   -6.8992   -5.8329 N   0  0  0  0  0  0  0  0  0  0  0  0
  -29.2544   -7.4398   -4.7400 C   0  0  0  0  0  0  0  0  0  0  0  0
  -29.6744   -5.6138   -6.3053 C   0  0  0  0  0  0  0  0  0  0  0  0
  -30.1950   -4.4493   -5.7097 C   0  0  0  0  0  0  0  0  0  0  0  0
  -29.8600   -3.1695   -6.1693 C   0  0  0  0  0  0  0  0  0  0  0  0
  -28.9868   -3.0170   -7.2419 C   0  0  0  0  0  0  0  0  0  0  0  0
  -28.4456   -4.1500   -7.8281 C   0  0  0  0  0  0  0  0  0  0  0  0
  -27.5824   -4.0696   -8.8846 O   0  0  0  0  0  0  0  0  0  0  0  0
  -28.7683   -5.4244   -7.3645 C   0  0  0  0  0  0  0  0  0  0  0  0
  -27.5038   -3.1342   -9.1416 H   0  0  0  0  0  0  0  0  0  0  0  0
  -26.9624   -9.5912   -8.7971 O   0  0  0  0  0  0  0  0  0  0  0  0
  -26.1444  -10.6125   -8.2555 C   0  0  0  0  0  0  0  0  0  0  0  0
 11 12  1  0  0  0
 12  1  1  0  0  0
  1  2  1  0  0  0
  1 10  2  0  0  0
  2  3  2  0  0  0
  3  4  1  0  0  0
  3  8  1  0  0  0
  4  5  2  0  0  0
  5  6  1  0  0  0
  6  7  2  0  0  0
  7 13  1  0  0  0
  7  8  1  0  0  0
 13 14  1  0  0  0
 13 15  1  0  0  0
 15 16  1  0  0  0
 15 21  2  0  0  0
 16 17  2  0  0  0
 17 18  1  0  0  0
 18 19  2  0  0  0
 19 20  1  0  0  0
 19 21  1  0  0  0
 20 22  1  0  0  0
  8  9  2  0  0  0
  9 10  1  0  0  0
 10 23  1  0  0  0
 23 24  1  0  0  0
M  END
> <minimizedAffinity>
-7.17512

$$$$
