CHEMBL1083144


 37 43  0  0  0  0  0  0  0  0999 V2000
  -15.3055    1.2494  -15.0932 N   0  0  0  0  0  0  0  0  0  0  0  0
  -15.1885    2.2872  -16.0530 C   0  0  0  0  0  0  0  0  0  0  0  0
  -16.0202    3.3609  -16.4133 C   0  0  0  0  0  0  0  0  0  0  0  0
  -15.6507    4.1777  -17.5097 C   0  0  0  0  0  0  0  0  0  0  0  0
  -14.4692    3.9800  -18.2308 C   0  0  0  0  0  0  0  0  0  0  0  0
  -13.6457    2.9170  -17.8301 C   0  0  0  0  0  0  0  0  0  0  0  0
  -14.0234    2.0565  -16.7877 C   0  0  0  0  0  0  0  0  0  0  0  0
  -13.5730    0.8594  -16.2793 C   0  0  0  0  0  0  0  0  0  0  0  0
  -12.7022    0.0263  -16.9953 C   0  0  0  0  0  0  0  0  0  0  0  0
  -12.7620   -1.3368  -16.6486 C   0  0  0  0  0  0  0  0  0  0  0  0
  -13.4867   -1.8297  -15.5477 C   0  0  0  0  0  0  0  0  0  0  0  0
  -13.7704   -0.8167  -14.5664 C   0  0  0  0  0  0  0  0  0  0  0  0
  -14.1914    0.4012  -15.1529 C   0  0  0  0  0  0  0  0  0  0  0  0
  -12.7090   -0.8809  -13.3697 C   0  0  0  0  0  0  0  0  0  0  0  0
  -11.5079   -1.9000  -13.5865 C   0  0  0  0  0  0  0  0  0  0  0  0
  -12.1138   -3.1829  -14.0350 C   0  0  0  0  0  0  0  0  0  0  0  0
  -12.0652   -4.3699  -13.4311 N   0  0  0  0  0  0  0  0  0  0  0  0
  -13.1074   -5.0295  -14.0008 N   0  0  0  0  0  0  0  0  0  0  0  0
  -13.4776   -6.3387  -13.5223 C   0  0  0  0  0  0  0  0  0  0  0  0
  -13.8496   -4.2528  -14.8565 C   0  0  0  0  0  0  0  0  0  0  0  0
  -13.1090   -3.1139  -15.0218 C   0  0  0  0  0  0  0  0  0  0  0  0
  -11.8465   -2.0354  -17.5242 C   0  0  0  0  0  0  0  0  0  0  0  0
  -11.5119   -3.2092  -17.6297 O   0  0  0  0  0  0  0  0  0  0  0  0
  -11.2795   -1.0365  -18.3024 N   0  0  0  0  0  0  0  0  0  0  0  0
  -11.7926    0.2975  -18.1009 C   0  0  0  0  0  0  0  0  0  0  0  0
  -10.5387   -1.2660  -18.9476 H   0  0  0  0  0  0  0  0  0  0  0  0
  -13.9226    4.8744  -19.3288 C   0  0  0  0  0  0  0  0  0  0  0  0
  -12.5156    5.4564  -19.1807 C   0  0  0  0  0  0  0  0  0  0  0  0
  -12.4883    6.7198  -18.3316 C   0  0  0  0  0  0  0  0  0  0  0  0
  -13.5181    7.7141  -18.8473 C   0  0  0  0  0  0  0  0  0  0  0  0
  -14.8875    7.0574  -18.9015 C   0  0  0  0  0  0  0  0  0  0  0  0
  -14.8675    5.8909  -19.7224 O   0  0  0  0  0  0  0  0  0  0  0  0
  -16.4754    1.0503  -14.2431 C   0  0  0  0  0  0  0  0  0  0  0  0
  -17.7409    0.5007  -14.9350 C   0  0  0  0  0  0  0  0  0  0  0  0
  -18.9168    1.4701  -15.0884 C   0  0  0  0  0  0  0  0  0  0  0  0
  -21.1776    1.1240  -14.0283 C   0  0  0  0  0  0  0  0  0  0  0  0
  -20.2679    0.7662  -15.1937 C   0  0  0  0  0  0  0  0  0  0  0  0
 36 37  1  0  0  0
 37 35  1  0  0  0
 35 34  1  0  0  0
 34 33  1  0  0  0
 33  1  1  0  0  0
  1  2  1  0  0  0
  1 13  1  0  0  0
  2  3  1  0  0  0
  2  7  2  0  0  0
  3  4  2  0  0  0
  4  5  1  0  0  0
  5 27  1  0  0  0
  5  6  2  0  0  0
 27 28  1  0  0  0
 27 32  1  0  0  0
 28 29  1  0  0  0
 29 30  1  0  0  0
 30 31  1  0  0  0
 31 32  1  0  0  0
  6  7  1  0  0  0
  7  8  1  0  0  0
  8  9  1  0  0  0
  8 13  2  0  0  0
  9 10  2  0  0  0
  9 25  1  0  0  0
 10 11  1  0  0  0
 10 22  1  0  0  0
 11 12  2  0  0  0
 11 21  1  0  0  0
 12 13  1  0  0  0
 12 14  1  0  0  0
 14 15  1  0  0  0
 15 16  1  0  0  0
 16 17  2  0  0  0
 16 21  1  0  0  0
 17 18  1  0  0  0
 18 19  1  0  0  0
 18 20  1  0  0  0
 20 21  2  0  0  0
 22 23  2  0  0  0
 22 24  1  0  0  0
 24 25  1  0  0  0
 24 26  1  0  0  0
M  END
> <minimizedAffinity>
-7.00393

$$$$
