CHEMBL3969192


 31 35  0  0  0  0  0  0  0  0999 V2000
  -28.9892   -8.1653   -6.2623 C   0  0  0  0  0  0  0  0  0  0  0  0
  -29.0230   -8.2904   -4.8594 C   0  0  0  0  0  0  0  0  0  0  0  0
  -29.0838   -7.2225   -4.0062 C   0  0  0  0  0  0  0  0  0  0  0  0
  -29.0698   -5.9578   -4.4828 C   0  0  0  0  0  0  0  0  0  0  0  0
  -29.2844   -4.9667   -3.6008 N   0  0  0  0  0  0  0  0  0  0  0  0
  -29.2547   -3.6772   -3.9560 C   0  0  0  0  0  0  0  0  0  0  0  0
  -28.8720   -3.3372   -5.2448 C   0  0  0  0  0  0  0  0  0  0  0  0
  -28.6796   -4.3400   -6.1929 N   0  0  0  0  0  0  0  0  0  0  0  0
  -28.8439   -5.6755   -5.8454 C   0  0  0  0  0  0  0  0  0  0  0  0
  -28.8275   -6.7933   -6.7703 C   0  0  0  0  0  0  0  0  0  0  0  0
  -28.5177   -1.8984   -5.3720 C   0  0  0  0  0  0  0  0  0  0  0  0
  -27.7204   -1.1602   -4.5089 C   0  0  0  0  0  0  0  0  0  0  0  0
  -27.8161    0.1494   -4.8289 N   0  0  0  0  0  0  0  0  0  0  0  0
  -28.6519    0.2589   -5.8511 N   0  0  0  0  0  0  0  0  0  0  0  0
  -29.0087    1.5219   -6.4918 C   0  0  0  0  0  0  0  0  0  0  0  0
  -29.1207   -0.9573   -6.1909 C   0  0  0  0  0  0  0  0  0  0  0  0
  -29.2214   -9.4248   -7.0253 N   0  0  0  0  0  0  0  0  0  0  0  0
  -28.3200  -10.2694  -10.6523 C   0  0  0  0  0  0  0  0  0  0  0  0
  -27.0632  -10.8594  -10.4976 C   0  0  0  0  0  0  0  0  0  0  0  0
  -26.4823  -10.9764   -9.2416 C   0  0  0  0  0  0  0  0  0  0  0  0
  -27.1950  -10.5256   -8.1189 C   0  0  0  0  0  0  0  0  0  0  0  0
  -28.5074   -9.9143   -8.2139 C   0  0  0  0  0  0  0  0  0  0  0  0
  -29.0107   -9.7887   -9.5187 C   0  0  0  0  0  0  0  0  0  0  0  0
  -28.3139   -9.7558  -13.1122 C   0  0  0  0  0  0  0  0  0  0  0  0
  -28.9517  -10.1343  -11.9927 C   0  0  0  0  0  0  0  0  0  0  0  0
  -25.2340  -11.5078   -9.0883 O   0  0  0  0  0  0  0  0  0  0  0  0
  -24.5768  -11.7037   -7.8769 C   0  0  0  0  0  0  0  0  0  0  0  0
  -30.3530  -10.2447   -6.4801 C   0  0  0  0  0  0  0  0  0  0  0  0
  -31.6117  -10.3283   -7.4110 C   0  0  0  0  0  0  0  0  0  0  0  0
  -32.2456   -8.9297   -7.3315 C   0  0  0  0  0  0  0  0  0  0  0  0
  -33.0609  -10.1231   -6.9339 C   0  0  0  0  0  0  0  0  0  0  0  0
 24 25  2  0  0  0
 25 18  1  0  0  0
 18 19  1  0  0  0
 18 23  2  0  0  0
 19 20  2  0  0  0
 20 26  1  0  0  0
 20 21  1  0  0  0
 26 27  1  0  0  0
 21 22  2  0  0  0
 22 17  1  0  0  0
 22 23  1  0  0  0
 17 28  1  0  0  0
 17  1  1  0  0  0
 28 29  1  0  0  0
 29 30  1  0  0  0
 29 31  1  0  0  0
 30 31  1  0  0  0
  1  2  1  0  0  0
  1 10  2  0  0  0
  2  3  2  0  0  0
  3  4  1  0  0  0
  4  5  1  0  0  0
  4  9  2  0  0  0
  5  6  2  0  0  0
  6  7  1  0  0  0
  7 11  1  0  0  0
  7  8  2  0  0  0
 11 12  1  0  0  0
 11 16  2  0  0  0
 12 13  2  0  0  0
 13 14  1  0  0  0
 14 15  1  0  0  0
 14 16  1  0  0  0
  8  9  1  0  0  0
  9 10  1  0  0  0
M  END
> <minimizedAffinity>
-7.99377

$$$$
