CHEMBL4170025


 34 38  0  0  0  0  0  0  0  0999 V2000
  -13.7219   -1.0712  -13.3397 C   0  0  0  0  0  0  0  0  0  0  0  0
  -13.0040   -0.6477  -14.4633 C   0  0  0  0  0  0  0  0  0  0  0  0
  -13.5459    0.2673  -15.3800 C   0  0  0  0  0  0  0  0  0  0  0  0
  -14.8371    0.7393  -15.1097 C   0  0  0  0  0  0  0  0  0  0  0  0
  -15.5795    0.2861  -14.0298 C   0  0  0  0  0  0  0  0  0  0  0  0
  -15.0422   -0.6549  -13.1476 C   0  0  0  0  0  0  0  0  0  0  0  0
  -16.8013    0.8748  -13.9927 N   0  0  0  0  0  0  0  0  0  0  0  0
  -16.8499    1.7220  -15.0004 C   0  0  0  0  0  0  0  0  0  0  0  0
  -15.6666    1.6672  -15.7111 N   0  0  0  0  0  0  0  0  0  0  0  0
  -15.2886    2.4587  -16.8578 C   0  0  0  0  0  0  0  0  0  0  0  0
  -17.8872    2.5201  -15.3396 N   0  0  0  0  0  0  0  0  0  0  0  0
  -17.7761    3.2560  -16.0247 H   0  0  0  0  0  0  0  0  0  0  0  0
  -19.2385    2.2455  -15.0196 C   0  0  0  0  0  0  0  0  0  0  0  0
  -20.0907    3.2017  -14.4483 C   0  0  0  0  0  0  0  0  0  0  0  0
  -21.3910    2.8817  -14.0285 C   0  0  0  0  0  0  0  0  0  0  0  0
  -21.8769    1.5922  -14.2048 C   0  0  0  0  0  0  0  0  0  0  0  0
  -21.0346    0.6262  -14.7610 C   0  0  0  0  0  0  0  0  0  0  0  0
  -19.7329    0.9480  -15.1691 C   0  0  0  0  0  0  0  0  0  0  0  0
  -23.1128    1.1340  -13.8687 O   0  0  0  0  0  0  0  0  0  0  0  0
  -23.2560    0.1435  -12.8602 C   0  0  0  0  0  0  0  0  0  0  0  0
  -22.1719    0.0029  -12.0688 F   0  0  0  0  0  0  0  0  0  0  0  0
  -24.2927    0.5028  -12.0671 F   0  0  0  0  0  0  0  0  0  0  0  0
  -23.5540   -1.0448  -13.4225 F   0  0  0  0  0  0  0  0  0  0  0  0
  -13.0806   -1.9493  -12.4894 O   0  0  0  0  0  0  0  0  0  0  0  0
  -15.2181   -7.4934  -13.3495 C   0  0  0  0  0  0  0  0  0  0  0  0
  -14.5448   -6.2187  -13.3790 N   0  0  0  0  0  0  0  0  0  0  0  0
  -13.7609   -5.8803  -14.4303 N   0  0  0  0  0  0  0  0  0  0  0  0
  -13.3468   -4.6465  -14.1163 C   0  0  0  0  0  0  0  0  0  0  0  0
  -13.8464   -4.2008  -12.8793 C   0  0  0  0  0  0  0  0  0  0  0  0
  -13.7906   -3.0703  -12.0762 C   0  0  0  0  0  0  0  0  0  0  0  0
  -14.4278   -3.0731  -10.8781 N   0  0  0  0  0  0  0  0  0  0  0  0
  -15.1567   -4.1603  -10.5544 C   0  0  0  0  0  0  0  0  0  0  0  0
  -15.3167   -5.2905  -11.2658 N   0  0  0  0  0  0  0  0  0  0  0  0
  -14.6220   -5.2500  -12.4162 C   0  0  0  0  0  0  0  0  0  0  0  0
 25 26  1  0  0  0
 26 27  1  0  0  0
 26 34  1  0  0  0
 27 28  2  0  0  0
 28 29  1  0  0  0
 29 30  1  0  0  0
 29 34  2  0  0  0
 30 24  1  0  0  0
 30 31  2  0  0  0
 24  1  1  0  0  0
  1  2  1  0  0  0
  1  6  2  0  0  0
  2  3  2  0  0  0
  3  4  1  0  0  0
  4  5  2  0  0  0
  4  9  1  0  0  0
  5  6  1  0  0  0
  5  7  1  0  0  0
  7  8  2  0  0  0
  8 11  1  0  0  0
  8  9  1  0  0  0
 11 13  1  0  0  0
 11 12  1  0  0  0
 13 14  1  0  0  0
 13 18  2  0  0  0
 14 15  2  0  0  0
 15 16  1  0  0  0
 16 19  1  0  0  0
 16 17  2  0  0  0
 19 20  1  0  0  0
 20 21  1  0  0  0
 20 22  1  0  0  0
 20 23  1  0  0  0
 17 18  1  0  0  0
  9 10  1  0  0  0
 31 32  1  0  0  0
 32 33  2  0  0  0
 33 34  1  0  0  0
M  END
> <minimizedAffinity>
-9.60427

$$$$
