CHEMBL3656124


 40 43  0  0  0  0  0  0  0  0999 V2000
  -30.0596   -4.6123   -6.5252 O   0  0  0  0  0  0  0  0  0  0  0  0
  -28.0168   -2.1858   -8.4033 C   0  0  0  0  0  0  0  0  0  0  0  0
  -28.7837   -3.3159   -8.1620 C   0  0  0  0  0  0  0  0  0  0  0  0
  -29.3523   -3.4862   -6.9025 C   0  0  0  0  0  0  0  0  0  0  0  0
  -29.2352   -2.4662   -5.9665 C   0  0  0  0  0  0  0  0  0  0  0  0
  -28.4889   -1.3489   -6.3096 C   0  0  0  0  0  0  0  0  0  0  0  0
  -27.8610   -1.1904   -7.4992 N   0  0  0  0  0  0  0  0  0  0  0  0
  -25.7115   -1.7100  -11.3062 C   0  0  0  0  0  0  0  0  0  0  0  0
  -26.9578   -1.9016  -11.8794 C   0  0  0  0  0  0  0  0  0  0  0  0
  -27.8911   -2.0422  -10.8807 N   0  0  0  0  0  0  0  0  0  0  0  0
  -27.2795   -2.0230   -9.6508 C   0  0  0  0  0  0  0  0  0  0  0  0
  -25.9335   -1.8134   -9.8967 C   0  0  0  0  0  0  0  0  0  0  0  0
  -28.8880   -2.1755  -11.0026 H   0  0  0  0  0  0  0  0  0  0  0  0
  -24.2604   -1.1346  -13.2611 N   0  0  0  0  0  0  0  0  0  0  0  0
  -24.3854   -1.5328  -11.9152 C   0  0  0  0  0  0  0  0  0  0  0  0
  -23.3853   -1.6980  -11.2138 O   0  0  0  0  0  0  0  0  0  0  0  0
  -22.3259    0.3428  -13.7916 C   0  0  0  0  0  0  0  0  0  0  0  0
  -22.8979   -1.0685  -13.7927 C   0  0  0  0  0  0  0  0  0  0  0  0
  -25.4107   -0.8176  -14.1101 C   0  0  0  0  0  0  0  0  0  0  0  0
  -25.2947   -1.0383  -15.6101 C   0  0  0  0  0  0  0  0  0  0  0  0
  -29.3616   -5.7713   -6.2498 C   0  0  0  0  0  0  0  0  0  0  0  0
  -29.0828   -6.7385   -7.2097 C   0  0  0  0  0  0  0  0  0  0  0  0
  -28.4817   -7.9412   -6.8407 C   0  0  0  0  0  0  0  0  0  0  0  0
  -28.0713   -8.1768   -5.5255 C   0  0  0  0  0  0  0  0  0  0  0  0
  -28.2568   -7.1576   -4.5863 C   0  0  0  0  0  0  0  0  0  0  0  0
  -28.9025   -5.9596   -4.9450 C   0  0  0  0  0  0  0  0  0  0  0  0
  -27.5093   -9.4057   -5.1045 N   0  0  0  0  0  0  0  0  0  0  0  0
  -26.2205   -9.5784   -4.6276 C   0  0  0  0  0  0  0  0  0  0  0  0
  -25.4292   -8.6721   -4.4052 O   0  0  0  0  0  0  0  0  0  0  0  0
  -25.8861  -10.9157   -4.4640 N   0  0  0  0  0  0  0  0  0  0  0  0
  -28.1133  -10.2151   -5.0821 H   0  0  0  0  0  0  0  0  0  0  0  0
  -26.2513  -11.5326   -5.1786 H   0  0  0  0  0  0  0  0  0  0  0  0
  -24.5841  -11.2511   -4.0005 C   0  0  0  0  0  0  0  0  0  0  0  0
  -24.3439  -11.5953   -2.6631 C   0  0  0  0  0  0  0  0  0  0  0  0
  -23.0380  -11.8080   -2.1998 C   0  0  0  0  0  0  0  0  0  0  0  0
  -22.7834  -12.1524   -0.7611 C   0  0  0  0  0  0  0  0  0  0  0  0
  -21.9671  -11.6682   -3.0919 C   0  0  0  0  0  0  0  0  0  0  0  0
  -22.2024  -11.3590   -4.4338 C   0  0  0  0  0  0  0  0  0  0  0  0
  -23.5076  -11.1766   -4.8829 C   0  0  0  0  0  0  0  0  0  0  0  0
  -23.7198  -10.8491   -6.1672 F   0  0  0  0  0  0  0  0  0  0  0  0
 17 18  1  0  0  0
 18 14  1  0  0  0
 14 19  1  0  0  0
 14 15  1  0  0  0
 19 20  1  0  0  0
 15 16  2  0  0  0
 15  8  1  0  0  0
  8  9  2  0  0  0
  8 12  1  0  0  0
  9 10  1  0  0  0
 10 11  1  0  0  0
 10 13  1  0  0  0
 11  2  1  0  0  0
 11 12  2  0  0  0
  2  3  1  0  0  0
  2  7  2  0  0  0
  3  4  2  0  0  0
  4  1  1  0  0  0
  4  5  1  0  0  0
  1 21  1  0  0  0
 21 22  1  0  0  0
 21 26  2  0  0  0
 22 23  2  0  0  0
 23 24  1  0  0  0
 24 27  1  0  0  0
 24 25  2  0  0  0
 27 28  1  0  0  0
 27 31  1  0  0  0
 28 29  2  0  0  0
 28 30  1  0  0  0
 30 33  1  0  0  0
 30 32  1  0  0  0
 33 34  1  0  0  0
 33 39  2  0  0  0
 34 35  2  0  0  0
 35 36  1  0  0  0
 35 37  1  0  0  0
 37 38  2  0  0  0
 38 39  1  0  0  0
 39 40  1  0  0  0
 25 26  1  0  0  0
  5  6  2  0  0  0
  6  7  1  0  0  0
M  END
> <minimizedAffinity>
-9.32740

$$$$
