CHEMBL97888


 19 21  0  0  0  0  0  0  0  0999 V2000
  -19.5836    2.3746  -14.9564 C   0  0  0  0  0  0  0  0  0  0  0  0
  -20.2601    3.5095  -14.5545 C   0  0  0  0  0  0  0  0  0  0  0  0
  -21.5479    3.3231  -14.1117 N   0  0  0  0  0  0  0  0  0  0  0  0
  -21.8827    2.0540  -14.1827 C   0  0  0  0  0  0  0  0  0  0  0  0
  -20.6563    1.0334  -14.8330 S   0  0  0  0  0  0  0  0  0  0  0  0
  -15.5088    1.9420  -16.2060 C   0  0  0  0  0  0  0  0  0  0  0  0
  -16.1771    0.8810  -15.6027 C   0  0  0  0  0  0  0  0  0  0  0  0
  -17.5086    1.0295  -15.2077 C   0  0  0  0  0  0  0  0  0  0  0  0
  -18.1926    2.2419  -15.4067 C   0  0  0  0  0  0  0  0  0  0  0  0
  -17.5024    3.2987  -16.0176 C   0  0  0  0  0  0  0  0  0  0  0  0
  -16.1707    3.1492  -16.4152 C   0  0  0  0  0  0  0  0  0  0  0  0
  -23.0795    1.5452  -13.8018 N   0  0  0  0  0  0  0  0  0  0  0  0
  -23.9241    2.0102  -14.1085 H   0  0  0  0  0  0  0  0  0  0  0  0
  -23.2722    0.2277  -13.3391 C   0  0  0  0  0  0  0  0  0  0  0  0
  -24.0845   -0.6474  -14.0581 C   0  0  0  0  0  0  0  0  0  0  0  0
  -24.3137   -1.9170  -13.5465 C   0  0  0  0  0  0  0  0  0  0  0  0
  -23.7852   -2.3754  -12.3925 N   0  0  0  0  0  0  0  0  0  0  0  0
  -23.0085   -1.5142  -11.7071 C   0  0  0  0  0  0  0  0  0  0  0  0
  -22.7367   -0.2245  -12.1303 C   0  0  0  0  0  0  0  0  0  0  0  0
  6  7  1  0  0  0
  6 11  2  0  0  0
  7  8  2  0  0  0
  8  9  1  0  0  0
  9  1  1  0  0  0
  9 10  2  0  0  0
  1  2  2  0  0  0
  1  5  1  0  0  0
  2  3  1  0  0  0
  3  4  2  0  0  0
  4 12  1  0  0  0
  4  5  1  0  0  0
 12 14  1  0  0  0
 12 13  1  0  0  0
 14 15  1  0  0  0
 14 19  2  0  0  0
 15 16  2  0  0  0
 16 17  1  0  0  0
 17 18  2  0  0  0
 18 19  1  0  0  0
 10 11  1  0  0  0
M  END
> <minimizedAffinity>
-7.93883

$$$$
