CHEMBL242349


 37 40  0  0  0  0  0  0  0  0999 V2000
  -30.3216   -5.9503   -6.0500 N   0  0  0  0  0  0  0  0  0  0  0  0
  -30.1011   -5.5699   -6.9715 H   0  0  0  0  0  0  0  0  0  0  0  0
  -28.0635   -1.3908   -5.4797 C   0  0  0  0  0  0  0  0  0  0  0  0
  -28.9400   -1.6338   -4.3912 C   0  0  0  0  0  0  0  0  0  0  0  0
  -29.7381   -2.7745   -4.2713 C   0  0  0  0  0  0  0  0  0  0  0  0
  -30.5720   -2.9100   -3.2314 N   0  0  0  0  0  0  0  0  0  0  0  0
  -31.3170   -4.0237   -3.1918 C   0  0  0  0  0  0  0  0  0  0  0  0
  -31.2932   -5.0234   -4.0782 N   0  0  0  0  0  0  0  0  0  0  0  0
  -30.4375   -4.8907   -5.1071 C   0  0  0  0  0  0  0  0  0  0  0  0
  -29.6402   -3.7420   -5.2672 C   0  0  0  0  0  0  0  0  0  0  0  0
  -28.7843   -3.5078   -6.3643 C   0  0  0  0  0  0  0  0  0  0  0  0
  -27.9800   -2.3596   -6.4867 C   0  0  0  0  0  0  0  0  0  0  0  0
  -27.3259   -2.4185   -7.6797 O   0  0  0  0  0  0  0  0  0  0  0  0
  -27.8316   -1.8738   -8.8800 C   0  0  0  0  0  0  0  0  0  0  0  0
  -27.4611   -0.1620   -5.3427 O   0  0  0  0  0  0  0  0  0  0  0  0
  -28.3020    0.9664   -5.2127 C   0  0  0  0  0  0  0  0  0  0  0  0
  -29.1403    1.2823   -6.4438 C   0  0  0  0  0  0  0  0  0  0  0  0
  -31.3500    2.0541   -6.8804 C   0  0  0  0  0  0  0  0  0  0  0  0
  -30.4771    1.4393   -5.9528 O   0  0  0  0  0  0  0  0  0  0  0  0
  -29.5953   -7.1162   -5.8114 C   0  0  0  0  0  0  0  0  0  0  0  0
  -29.3866   -7.6688   -4.6173 C   0  0  0  0  0  0  0  0  0  0  0  0
  -28.5922   -8.9023   -4.4181 C   0  0  0  0  0  0  0  0  0  0  0  0
  -28.4181   -9.3187   -3.2717 O   0  0  0  0  0  0  0  0  0  0  0  0
  -28.0357   -9.5730   -5.6295 C   0  0  0  0  0  0  0  0  0  0  0  0
  -28.2626   -9.0354   -6.8282 C   0  0  0  0  0  0  0  0  0  0  0  0
  -29.0557   -7.8082   -7.0221 C   0  0  0  0  0  0  0  0  0  0  0  0
  -29.2634   -7.3626   -8.1508 O   0  0  0  0  0  0  0  0  0  0  0  0
  -27.2622  -10.7245   -5.5655 O   0  0  0  0  0  0  0  0  0  0  0  0
  -26.2283  -10.8925   -6.5379 C   0  0  0  0  0  0  0  0  0  0  0  0
  -24.9042  -10.9873   -5.8115 C   0  0  0  0  0  0  0  0  0  0  0  0
  -24.8509  -10.9965   -4.4111 C   0  0  0  0  0  0  0  0  0  0  0  0
  -23.6231  -11.0690   -3.7498 C   0  0  0  0  0  0  0  0  0  0  0  0
  -22.4349  -11.1561   -4.4783 C   0  0  0  0  0  0  0  0  0  0  0  0
  -22.4737  -11.1811   -5.8718 C   0  0  0  0  0  0  0  0  0  0  0  0
  -23.7019  -11.0754   -6.5311 C   0  0  0  0  0  0  0  0  0  0  0  0
  -21.3768  -11.2699   -6.6857 O   0  0  0  0  0  0  0  0  0  0  0  0
  -20.9395  -10.0374   -7.2492 C   0  0  0  0  0  0  0  0  0  0  0  0
 18 19  1  0  0  0
 19 17  1  0  0  0
 17 16  1  0  0  0
 16 15  1  0  0  0
 15  3  1  0  0  0
  3  4  1  0  0  0
  3 12  2  0  0  0
  4  5  2  0  0  0
  5  6  1  0  0  0
  5 10  1  0  0  0
  6  7  2  0  0  0
  7  8  1  0  0  0
  8  9  2  0  0  0
  9  1  1  0  0  0
  9 10  1  0  0  0
  1 20  1  0  0  0
  1  2  1  0  0  0
 20 21  2  0  0  0
 20 26  1  0  0  0
 21 22  1  0  0  0
 22 23  2  0  0  0
 22 24  1  0  0  0
 24 28  1  0  0  0
 24 25  2  0  0  0
 28 29  1  0  0  0
 29 30  1  0  0  0
 30 31  1  0  0  0
 30 35  2  0  0  0
 31 32  2  0  0  0
 32 33  1  0  0  0
 33 34  2  0  0  0
 34 36  1  0  0  0
 34 35  1  0  0  0
 36 37  1  0  0  0
 25 26  1  0  0  0
 26 27  2  0  0  0
 10 11  2  0  0  0
 11 12  1  0  0  0
 12 13  1  0  0  0
 13 14  1  0  0  0
M  END
> <minimizedAffinity>
-8.37194

$$$$
