CHEMBL462359


 35 39  0  0  0  0  0  0  0  0999 V2000
  -16.3674    1.7310  -15.2783 C   0  0  0  0  0  0  0  0  0  0  0  0
  -15.2642    2.1145  -15.9395 N   0  0  0  0  0  0  0  0  0  0  0  0
  -14.3760    1.1945  -15.5746 N   0  0  0  0  0  0  0  0  0  0  0  0
  -13.1480    0.9693  -16.2903 C   0  0  0  0  0  0  0  0  0  0  0  0
  -14.8078    0.3659  -14.5868 C   0  0  0  0  0  0  0  0  0  0  0  0
  -14.1902   -0.7663  -14.0636 C   0  0  0  0  0  0  0  0  0  0  0  0
  -14.7055   -1.3533  -12.9110 C   0  0  0  0  0  0  0  0  0  0  0  0
  -15.9028   -0.8698  -12.4132 C   0  0  0  0  0  0  0  0  0  0  0  0
  -16.6171    0.1884  -13.0664 C   0  0  0  0  0  0  0  0  0  0  0  0
  -16.0532    0.8304  -14.1980 C   0  0  0  0  0  0  0  0  0  0  0  0
  -17.5452    1.9840  -15.8883 N   0  0  0  0  0  0  0  0  0  0  0  0
  -17.3930    2.6964  -16.6022 H   0  0  0  0  0  0  0  0  0  0  0  0
  -20.8492    1.0494  -14.5664 C   0  0  0  0  0  0  0  0  0  0  0  0
  -21.2347    2.2673  -14.0021 C   0  0  0  0  0  0  0  0  0  0  0  0
  -20.4901    3.4213  -14.2412 C   0  0  0  0  0  0  0  0  0  0  0  0
  -19.3191    3.3372  -14.9836 C   0  0  0  0  0  0  0  0  0  0  0  0
  -18.8772    2.0959  -15.4732 C   0  0  0  0  0  0  0  0  0  0  0  0
  -19.6891    0.9794  -15.3347 C   0  0  0  0  0  0  0  0  0  0  0  0
  -22.8286   -0.0876  -13.9611 C   0  0  0  0  0  0  0  0  0  0  0  0
  -21.4794   -0.1508  -14.3888 O   0  0  0  0  0  0  0  0  0  0  0  0
  -13.8369   -2.2955  -12.4526 O   0  0  0  0  0  0  0  0  0  0  0  0
  -13.9442   -3.3358  -11.6012 C   0  0  0  0  0  0  0  0  0  0  0  0
  -13.7422   -3.4352  -10.1871 C   0  0  0  0  0  0  0  0  0  0  0  0
  -13.9294   -4.6588   -9.5714 C   0  0  0  0  0  0  0  0  0  0  0  0
  -14.4306   -5.6982  -10.2003 N   0  0  0  0  0  0  0  0  0  0  0  0
  -14.3947   -5.6242  -11.5218 C   0  0  0  0  0  0  0  0  0  0  0  0
  -14.4419   -6.8970  -11.9585 C   0  0  0  0  0  0  0  0  0  0  0  0
  -14.5242   -7.2012  -13.2899 C   0  0  0  0  0  0  0  0  0  0  0  0
  -14.4517   -6.1545  -14.2133 C   0  0  0  0  0  0  0  0  0  0  0  0
  -14.2909   -4.8199  -13.7385 C   0  0  0  0  0  0  0  0  0  0  0  0
  -14.2368   -4.5387  -12.3294 C   0  0  0  0  0  0  0  0  0  0  0  0
  -14.6939   -8.5246  -13.6061 O   0  0  0  0  0  0  0  0  0  0  0  0
  -13.4604   -9.1958  -13.9269 C   0  0  0  0  0  0  0  0  0  0  0  0
  -14.5630   -6.2822  -15.5733 O   0  0  0  0  0  0  0  0  0  0  0  0
  -13.3410   -6.1229  -16.2928 C   0  0  0  0  0  0  0  0  0  0  0  0
 19 20  1  0  0  0
 20 13  1  0  0  0
 13 14  1  0  0  0
 13 18  2  0  0  0
 14 15  2  0  0  0
 15 16  1  0  0  0
 16 17  2  0  0  0
 17 11  1  0  0  0
 17 18  1  0  0  0
 11  1  1  0  0  0
 11 12  1  0  0  0
  1  2  2  0  0  0
  1 10  1  0  0  0
  2  3  1  0  0  0
  3  4  1  0  0  0
  3  5  1  0  0  0
  5  6  1  0  0  0
  5 10  2  0  0  0
  6  7  2  0  0  0
  7 21  1  0  0  0
  7  8  1  0  0  0
 21 22  1  0  0  0
 22 23  1  0  0  0
 22 31  2  0  0  0
 23 24  2  0  0  0
 24 25  1  0  0  0
 25 26  2  0  0  0
 26 27  1  0  0  0
 26 31  1  0  0  0
 27 28  2  0  0  0
 28 32  1  0  0  0
 28 29  1  0  0  0
 32 33  1  0  0  0
 29 34  1  0  0  0
 29 30  2  0  0  0
 34 35  1  0  0  0
 30 31  1  0  0  0
  8  9  2  0  0  0
  9 10  1  0  0  0
M  END
> <minimizedAffinity>
-8.66741

$$$$
