CHEMBL3657552


 34 38  0  0  0  0  0  0  0  0999 V2000
  -31.1954   -5.9591   -4.8406 C   0  0  0  0  0  0  0  0  0  0  0  0
  -31.9181   -5.8494   -3.7212 N   0  0  0  0  0  0  0  0  0  0  0  0
  -31.8130   -4.6889   -3.0398 C   0  0  0  0  0  0  0  0  0  0  0  0
  -31.0023   -3.6475   -3.4184 C   0  0  0  0  0  0  0  0  0  0  0  0
  -30.3225   -3.8403   -4.5993 C   0  0  0  0  0  0  0  0  0  0  0  0
  -30.4294   -4.9753   -5.3259 N   0  0  0  0  0  0  0  0  0  0  0  0
  -29.4889   -2.8131   -5.1211 N   0  0  0  0  0  0  0  0  0  0  0  0
  -28.7473   -2.8997   -6.2764 C   0  0  0  0  0  0  0  0  0  0  0  0
  -28.3339   -1.6208   -6.5925 C   0  0  0  0  0  0  0  0  0  0  0  0
  -28.5929   -0.8982   -5.3927 C   0  0  0  0  0  0  0  0  0  0  0  0
  -28.1187    0.4506   -4.9913 C   0  0  0  0  0  0  0  0  0  0  0  0
  -29.3332   -1.6063   -4.5254 N   0  0  0  0  0  0  0  0  0  0  0  0
  -27.6846   -1.1769   -7.8673 C   0  0  0  0  0  0  0  0  0  0  0  0
  -28.2137   -1.9416   -9.0157 N   0  0  0  0  0  0  0  0  0  0  0  0
  -27.3309   -3.0446   -9.4625 C   0  0  0  0  0  0  0  0  0  0  0  0
  -26.7023   -2.1327  -10.5345 C   0  0  0  0  0  0  0  0  0  0  0  0
  -25.3981   -1.5667  -10.2573 O   0  0  0  0  0  0  0  0  0  0  0  0
  -27.9171   -1.2144  -10.2782 C   0  0  0  0  0  0  0  0  0  0  0  0
  -25.0958   -1.9996   -9.4408 H   0  0  0  0  0  0  0  0  0  0  0  0
  -31.2373   -7.1827   -5.5211 N   0  0  0  0  0  0  0  0  0  0  0  0
  -31.7791   -7.8279   -4.9543 H   0  0  0  0  0  0  0  0  0  0  0  0
  -26.8770   -9.7365   -5.5440 C   0  0  0  0  0  0  0  0  0  0  0  0
  -26.1632  -10.1200   -6.6677 C   0  0  0  0  0  0  0  0  0  0  0  0
  -26.8311   -9.6776   -7.7762 N   0  0  0  0  0  0  0  0  0  0  0  0
  -27.9699   -9.0087   -7.4115 C   0  0  0  0  0  0  0  0  0  0  0  0
  -28.9327   -8.3984   -8.2113 C   0  0  0  0  0  0  0  0  0  0  0  0
  -30.0170   -7.7930   -7.5643 C   0  0  0  0  0  0  0  0  0  0  0  0
  -30.1460   -7.8008   -6.1720 C   0  0  0  0  0  0  0  0  0  0  0  0
  -29.1319   -8.3836   -5.3952 C   0  0  0  0  0  0  0  0  0  0  0  0
  -28.0305   -9.0190   -6.0178 C   0  0  0  0  0  0  0  0  0  0  0  0
  -26.5343   -9.8178   -8.7315 H   0  0  0  0  0  0  0  0  0  0  0  0
  -25.2140   -9.4370   -3.6336 C   0  0  0  0  0  0  0  0  0  0  0  0
  -26.5027  -10.0254   -4.1588 C   0  0  0  0  0  0  0  0  0  0  0  0
  -27.2054  -10.7189   -3.4237 O   0  0  0  0  0  0  0  0  0  0  0  0
 32 33  1  0  0  0
 33 34  2  0  0  0
 33 22  1  0  0  0
 22 23  2  0  0  0
 22 30  1  0  0  0
 23 24  1  0  0  0
 24 25  1  0  0  0
 24 31  1  0  0  0
 25 26  1  0  0  0
 25 30  2  0  0  0
 26 27  2  0  0  0
 27 28  1  0  0  0
 28 20  1  0  0  0
 28 29  2  0  0  0
 20  1  1  0  0  0
 20 21  1  0  0  0
  1  2  1  0  0  0
  1  6  2  0  0  0
  2  3  2  0  0  0
  3  4  1  0  0  0
  4  5  2  0  0  0
  5  7  1  0  0  0
  5  6  1  0  0  0
  7  8  1  0  0  0
  7 12  1  0  0  0
  8  9  2  0  0  0
  9 13  1  0  0  0
  9 10  1  0  0  0
 13 14  1  0  0  0
 14 15  1  0  0  0
 14 18  1  0  0  0
 15 16  1  0  0  0
 16 17  1  0  0  0
 16 18  1  0  0  0
 17 19  1  0  0  0
 10 11  1  0  0  0
 10 12  2  0  0  0
 29 30  1  0  0  0
M  END
> <minimizedAffinity>
-8.58602

$$$$
