CHEMBL4160854


 37 40  0  0  0  0  0  0  0  0999 V2000
  -23.9542   -0.3984  -12.8516 C   0  0  0  0  0  0  0  0  0  0  0  0
  -22.9591   -1.2103  -13.4060 C   0  0  0  0  0  0  0  0  0  0  0  0
  -21.9261   -0.6723  -14.1760 C   0  0  0  0  0  0  0  0  0  0  0  0
  -21.8116    0.7078  -14.3346 C   0  0  0  0  0  0  0  0  0  0  0  0
  -22.7204    1.5414  -13.6915 C   0  0  0  0  0  0  0  0  0  0  0  0
  -23.7862    0.9931  -12.9716 C   0  0  0  0  0  0  0  0  0  0  0  0
  -26.0231   -1.2712  -15.3726 N   0  0  0  0  0  0  0  0  0  0  0  0
  -26.7092   -1.5695  -14.2638 C   0  0  0  0  0  0  0  0  0  0  0  0
  -27.9367   -2.0832  -14.3643 N   0  0  0  0  0  0  0  0  0  0  0  0
  -28.3196   -2.2451  -13.0929 N   0  0  0  0  0  0  0  0  0  0  0  0
  -27.3886   -1.8735  -12.1692 C   0  0  0  0  0  0  0  0  0  0  0  0
  -27.4444   -1.8994  -10.7706 C   0  0  0  0  0  0  0  0  0  0  0  0
  -26.3214   -1.4672  -10.0739 C   0  0  0  0  0  0  0  0  0  0  0  0
  -25.1959   -1.0148  -10.7579 C   0  0  0  0  0  0  0  0  0  0  0  0
  -25.1378   -0.9567  -12.1755 C   0  0  0  0  0  0  0  0  0  0  0  0
  -26.2833   -1.4170  -12.8979 C   0  0  0  0  0  0  0  0  0  0  0  0
  -26.5510   -1.3138  -16.2383 H   0  0  0  0  0  0  0  0  0  0  0  0
  -25.3470   -0.5205  -15.3598 H   0  0  0  0  0  0  0  0  0  0  0  0
  -29.2466   -2.6160  -12.9182 H   0  0  0  0  0  0  0  0  0  0  0  0
  -20.6921    1.1807  -15.0331 N   0  0  0  0  0  0  0  0  0  0  0  0
  -20.6826    1.0017  -16.0299 H   0  0  0  0  0  0  0  0  0  0  0  0
  -19.5542    1.7953  -14.5653 C   0  0  0  0  0  0  0  0  0  0  0  0
  -19.3862    3.3913  -14.1097 S   0  0  0  0  0  0  0  0  0  0  0  0
  -18.4333    0.9902  -14.6171 N   0  0  0  0  0  0  0  0  0  0  0  0
  -18.6241    0.0301  -14.8901 H   0  0  0  0  0  0  0  0  0  0  0  0
  -17.1087    1.4417  -14.8583 C   0  0  0  0  0  0  0  0  0  0  0  0
  -16.8645    2.2674  -15.9733 C   0  0  0  0  0  0  0  0  0  0  0  0
  -15.5946    2.7733  -16.2356 C   0  0  0  0  0  0  0  0  0  0  0  0
  -15.3233    3.8815  -17.7397 Br  0  0  0  0  0  0  0  0  0  0  0  0
  -14.5433    2.4663  -15.3888 C   0  0  0  0  0  0  0  0  0  0  0  0
  -14.7661    1.6266  -14.2955 C   0  0  0  0  0  0  0  0  0  0  0  0
  -16.0367    1.0764  -14.0345 C   0  0  0  0  0  0  0  0  0  0  0  0
  -16.0776    0.3798  -12.8640 O   0  0  0  0  0  0  0  0  0  0  0  0
  -15.6243   -0.9604  -12.7892 C   0  0  0  0  0  0  0  0  0  0  0  0
  -14.2937   -1.1068  -12.9559 F   0  0  0  0  0  0  0  0  0  0  0  0
  -15.9463   -1.4621  -11.5768 F   0  0  0  0  0  0  0  0  0  0  0  0
  -16.2608   -1.6882  -13.7303 F   0  0  0  0  0  0  0  0  0  0  0  0
  7  8  1  0  0  0
  7 17  1  0  0  0
  7 18  1  0  0  0
  8  9  2  0  0  0
  8 16  1  0  0  0
  9 10  1  0  0  0
 10 11  1  0  0  0
 10 19  1  0  0  0
 11 12  1  0  0  0
 11 16  2  0  0  0
 12 13  2  0  0  0
 13 14  1  0  0  0
 14 15  2  0  0  0
 15  1  1  0  0  0
 15 16  1  0  0  0
  1  2  1  0  0  0
  1  6  2  0  0  0
  2  3  2  0  0  0
  3  4  1  0  0  0
  4 20  1  0  0  0
  4  5  2  0  0  0
 20 22  1  0  0  0
 20 21  1  0  0  0
 22 23  2  0  0  0
 22 24  1  0  0  0
 24 26  1  0  0  0
 24 25  1  0  0  0
 26 27  1  0  0  0
 26 32  2  0  0  0
 27 28  2  0  0  0
 28 29  1  0  0  0
 28 30  1  0  0  0
 30 31  2  0  0  0
 31 32  1  0  0  0
 32 33  1  0  0  0
 33 34  1  0  0  0
 34 35  1  0  0  0
 34 36  1  0  0  0
 34 37  1  0  0  0
  5  6  1  0  0  0
M  END
> <minimizedAffinity>
-9.06846

$$$$
