CHEMBL3942328


 38 41  0  0  0  0  0  0  0  0999 V2000
  -21.3044    1.4125  -14.2108 C   0  0  0  0  0  0  0  0  0  0  0  0
  -21.5326    2.7414  -14.5271 C   0  0  0  0  0  0  0  0  0  0  0  0
  -20.5515    3.5702  -14.9554 N   0  0  0  0  0  0  0  0  0  0  0  0
  -19.3263    3.0214  -15.0941 C   0  0  0  0  0  0  0  0  0  0  0  0
  -18.2767    3.7797  -15.5823 C   0  0  0  0  0  0  0  0  0  0  0  0
  -17.0167    3.2106  -15.8026 C   0  0  0  0  0  0  0  0  0  0  0  0
  -16.7530    1.8623  -15.5075 C   0  0  0  0  0  0  0  0  0  0  0  0
  -17.8041    1.1378  -14.9380 C   0  0  0  0  0  0  0  0  0  0  0  0
  -19.0804    1.6705  -14.7610 C   0  0  0  0  0  0  0  0  0  0  0  0
  -20.0620    0.8758  -14.2963 N   0  0  0  0  0  0  0  0  0  0  0  0
  -23.5359   -0.9447  -12.6624 N   0  0  0  0  0  0  0  0  0  0  0  0
  -22.4650   -0.1052  -12.5971 C   0  0  0  0  0  0  0  0  0  0  0  0
  -22.3652    0.5024  -13.8346 C   0  0  0  0  0  0  0  0  0  0  0  0
  -23.4414   -0.0361  -14.5708 C   0  0  0  0  0  0  0  0  0  0  0  0
  -24.1661   -0.9102  -13.8617 N   0  0  0  0  0  0  0  0  0  0  0  0
  -23.9887   -1.8611  -11.6278 C   0  0  0  0  0  0  0  0  0  0  0  0
  -27.7759   -1.5657  -11.9650 C   0  0  0  0  0  0  0  0  0  0  0  0
  -26.3750   -1.7763  -12.2011 N   0  0  0  0  0  0  0  0  0  0  0  0
  -25.4317   -1.6357  -11.2127 C   0  0  0  0  0  0  0  0  0  0  0  0
  -25.7283   -1.4153  -10.0429 O   0  0  0  0  0  0  0  0  0  0  0  0
  -26.0484   -1.9687  -13.1519 H   0  0  0  0  0  0  0  0  0  0  0  0
  -15.4759    1.3288  -15.8018 N   0  0  0  0  0  0  0  0  0  0  0  0
  -14.8256    1.5305  -17.0745 C   0  0  0  0  0  0  0  0  0  0  0  0
  -14.4516    0.4391  -17.8889 C   0  0  0  0  0  0  0  0  0  0  0  0
  -13.7974    0.6302  -19.1118 C   0  0  0  0  0  0  0  0  0  0  0  0
  -13.5273    1.9269  -19.5570 C   0  0  0  0  0  0  0  0  0  0  0  0
  -13.9071    3.0240  -18.7921 C   0  0  0  0  0  0  0  0  0  0  0  0
  -14.5262    2.8176  -17.5536 C   0  0  0  0  0  0  0  0  0  0  0  0
  -13.3773   -0.3519  -19.9673 O   0  0  0  0  0  0  0  0  0  0  0  0
  -13.1099   -1.6317  -19.4074 C   0  0  0  0  0  0  0  0  0  0  0  0
  -13.7415    4.3399  -19.1348 O   0  0  0  0  0  0  0  0  0  0  0  0
  -14.9102    5.1506  -19.1730 C   0  0  0  0  0  0  0  0  0  0  0  0
  -14.4840    1.0686  -14.7157 C   0  0  0  0  0  0  0  0  0  0  0  0
  -14.2333   -0.3765  -14.2587 C   0  0  0  0  0  0  0  0  0  0  0  0
  -15.2472   -0.9634  -13.2850 C   0  0  0  0  0  0  0  0  0  0  0  0
  -15.5958    0.0642  -12.3005 N   0  0  0  0  0  0  0  0  0  0  0  0
  -14.7612    0.3827  -11.8104 H   0  0  0  0  0  0  0  0  0  0  0  0
  -16.2180   -0.3264  -11.5950 H   0  0  0  0  0  0  0  0  0  0  0  0
 17 18  1  0  0  0
 18 19  1  0  0  0
 18 21  1  0  0  0
 19 20  2  0  0  0
 19 16  1  0  0  0
 16 11  1  0  0  0
 11 12  1  0  0  0
 11 15  1  0  0  0
 12 13  2  0  0  0
 13  1  1  0  0  0
 13 14  1  0  0  0
  1  2  1  0  0  0
  1 10  2  0  0  0
  2  3  2  0  0  0
  3  4  1  0  0  0
  4  5  1  0  0  0
  4  9  2  0  0  0
  5  6  2  0  0  0
  6  7  1  0  0  0
  7 22  1  0  0  0
  7  8  2  0  0  0
 22 33  1  0  0  0
 22 23  1  0  0  0
 33 34  1  0  0  0
 34 35  1  0  0  0
 35 36  1  0  0  0
 36 37  1  0  0  0
 36 38  1  0  0  0
 23 24  1  0  0  0
 23 28  2  0  0  0
 24 25  2  0  0  0
 25 29  1  0  0  0
 25 26  1  0  0  0
 29 30  1  0  0  0
 26 27  2  0  0  0
 27 31  1  0  0  0
 27 28  1  0  0  0
 31 32  1  0  0  0
  8  9  1  0  0  0
  9 10  1  0  0  0
 14 15  2  0  0  0
M  END
> <minimizedAffinity>
-8.53982

$$$$
