CHEMBL3944929


 42 45  0  0  0  0  0  0  0  0999 V2000
  -13.8759   -7.5021  -13.8017 C   0  0  0  0  0  0  0  0  0  0  0  0
  -15.0347   -7.4392  -13.0565 C   0  0  0  0  0  0  0  0  0  0  0  0
  -15.3181   -6.1191  -12.5851 C   0  0  0  0  0  0  0  0  0  0  0  0
  -16.3736   -5.7723  -11.8019 N   0  0  0  0  0  0  0  0  0  0  0  0
  -16.4410   -4.4723  -11.4548 C   0  0  0  0  0  0  0  0  0  0  0  0
  -15.5398   -3.4967  -11.8335 C   0  0  0  0  0  0  0  0  0  0  0  0
  -14.4869   -3.8471  -12.6738 C   0  0  0  0  0  0  0  0  0  0  0  0
  -14.3717   -5.1990  -13.0263 C   0  0  0  0  0  0  0  0  0  0  0  0
  -13.1721   -5.9550  -13.9858 S   0  0  0  0  0  0  0  0  0  0  0  0
  -13.6276   -8.9374  -15.6945 N   0  0  0  0  0  0  0  0  0  0  0  0
  -13.2605   -8.6851  -14.3888 C   0  0  0  0  0  0  0  0  0  0  0  0
  -12.4614   -9.3986  -13.7866 O   0  0  0  0  0  0  0  0  0  0  0  0
  -14.3375   -8.3426  -16.1055 H   0  0  0  0  0  0  0  0  0  0  0  0
  -13.1159  -10.0439  -16.4634 C   0  0  0  0  0  0  0  0  0  0  0  0
  -13.3058   -9.8214  -17.9590 C   0  0  0  0  0  0  0  0  0  0  0  0
  -12.0832   -9.1206  -18.5506 C   0  0  0  0  0  0  0  0  0  0  0  0
  -11.8468   -7.8610  -17.8532 N   0  0  0  0  0  0  0  0  0  0  0  0
  -12.3398   -7.8467  -16.9562 H   0  0  0  0  0  0  0  0  0  0  0  0
  -12.2975   -6.7092  -18.6550 C   0  0  0  0  0  0  0  0  0  0  0  0
  -13.7712   -6.4163  -18.3807 C   0  0  0  0  0  0  0  0  0  0  0  0
  -14.2999   -6.4381  -17.2755 O   0  0  0  0  0  0  0  0  0  0  0  0
  -14.5928   -4.8063  -19.8704 C   0  0  0  0  0  0  0  0  0  0  0  0
  -14.4276   -6.1897  -19.5567 O   0  0  0  0  0  0  0  0  0  0  0  0
  -13.5266   -2.9568  -13.0984 O   0  0  0  0  0  0  0  0  0  0  0  0
  -13.9082   -1.8360  -13.7966 C   0  0  0  0  0  0  0  0  0  0  0  0
  -13.0320   -1.4100  -14.7962 C   0  0  0  0  0  0  0  0  0  0  0  0
  -13.3254   -0.2804  -15.5638 C   0  0  0  0  0  0  0  0  0  0  0  0
  -14.5022    0.4327  -15.3311 C   0  0  0  0  0  0  0  0  0  0  0  0
  -15.3815   -0.0048  -14.3409 C   0  0  0  0  0  0  0  0  0  0  0  0
  -15.1019   -1.1479  -13.5926 C   0  0  0  0  0  0  0  0  0  0  0  0
  -16.5932    0.7594  -13.9806 C   0  0  0  0  0  0  0  0  0  0  0  0
  -16.7368    1.0628  -12.8043 O   0  0  0  0  0  0  0  0  0  0  0  0
  -17.4708    0.9989  -15.0234 N   0  0  0  0  0  0  0  0  0  0  0  0
  -17.3455    0.4817  -15.8871 H   0  0  0  0  0  0  0  0  0  0  0  0
  -18.7127    1.6461  -14.8746 C   0  0  0  0  0  0  0  0  0  0  0  0
  -19.8671    0.9719  -14.4800 C   0  0  0  0  0  0  0  0  0  0  0  0
  -21.1136    1.6065  -14.4969 C   0  0  0  0  0  0  0  0  0  0  0  0
  -22.3420    0.8276  -14.1335 C   0  0  0  0  0  0  0  0  0  0  0  0
  -21.1920    2.9437  -14.9009 C   0  0  0  0  0  0  0  0  0  0  0  0
  -20.0303    3.6539  -15.2115 C   0  0  0  0  0  0  0  0  0  0  0  0
  -18.7987    3.0059  -15.1777 C   0  0  0  0  0  0  0  0  0  0  0  0
  -17.6879    3.6913  -15.4937 F   0  0  0  0  0  0  0  0  0  0  0  0
 22 23  1  0  0  0
 23 20  1  0  0  0
 20 21  2  0  0  0
 20 19  1  0  0  0
 19 17  1  0  0  0
 17 16  1  0  0  0
 17 18  1  0  0  0
 16 15  1  0  0  0
 15 14  1  0  0  0
 14 10  1  0  0  0
 10 11  1  0  0  0
 10 13  1  0  0  0
 11 12  2  0  0  0
 11  1  1  0  0  0
  1  2  2  0  0  0
  1  9  1  0  0  0
  2  3  1  0  0  0
  3  4  1  0  0  0
  3  8  2  0  0  0
  4  5  2  0  0  0
  5  6  1  0  0  0
  6  7  2  0  0  0
  7 24  1  0  0  0
  7  8  1  0  0  0
 24 25  1  0  0  0
 25 26  1  0  0  0
 25 30  2  0  0  0
 26 27  2  0  0  0
 27 28  1  0  0  0
 28 29  2  0  0  0
 29 31  1  0  0  0
 29 30  1  0  0  0
 31 32  2  0  0  0
 31 33  1  0  0  0
 33 35  1  0  0  0
 33 34  1  0  0  0
 35 36  1  0  0  0
 35 41  2  0  0  0
 36 37  2  0  0  0
 37 38  1  0  0  0
 37 39  1  0  0  0
 39 40  2  0  0  0
 40 41  1  0  0  0
 41 42  1  0  0  0
  8  9  1  0  0  0
M  END
> <minimizedAffinity>
-8.54251

$$$$
