CHEMBL3927233


 42 45  0  0  0  0  0  0  0  0999 V2000
  -14.2526   -3.5658  -13.7215 C   0  0  0  0  0  0  0  0  0  0  0  0
  -13.1524   -2.7048  -13.7874 C   0  0  0  0  0  0  0  0  0  0  0  0
  -13.3391   -1.3176  -13.7162 C   0  0  0  0  0  0  0  0  0  0  0  0
  -14.6229   -0.7854  -13.5640 C   0  0  0  0  0  0  0  0  0  0  0  0
  -15.7278   -1.6407  -13.5863 C   0  0  0  0  0  0  0  0  0  0  0  0
  -15.5325   -3.0178  -13.6486 C   0  0  0  0  0  0  0  0  0  0  0  0
  -16.5962   -3.8311  -13.5493 F   0  0  0  0  0  0  0  0  0  0  0  0
  -13.7977   -7.0334  -14.6929 N   0  0  0  0  0  0  0  0  0  0  0  0
  -13.8871   -5.6674  -14.8900 C   0  0  0  0  0  0  0  0  0  0  0  0
  -13.7303   -5.0778  -15.9509 O   0  0  0  0  0  0  0  0  0  0  0  0
  -14.1044   -4.9814  -13.6985 N   0  0  0  0  0  0  0  0  0  0  0  0
  -13.7981   -7.3588  -13.7427 H   0  0  0  0  0  0  0  0  0  0  0  0
  -13.5572   -5.3252  -12.9191 H   0  0  0  0  0  0  0  0  0  0  0  0
  -13.6923   -8.1255  -19.5316 C   0  0  0  0  0  0  0  0  0  0  0  0
  -13.5179   -8.5397  -18.0978 C   0  0  0  0  0  0  0  0  0  0  0  0
  -13.1807   -9.8632  -17.8000 C   0  0  0  0  0  0  0  0  0  0  0  0
  -12.9806  -10.2494  -16.4815 C   0  0  0  0  0  0  0  0  0  0  0  0
  -13.1326   -9.3252  -15.4493 C   0  0  0  0  0  0  0  0  0  0  0  0
  -12.7940   -9.7513  -14.2302 F   0  0  0  0  0  0  0  0  0  0  0  0
  -13.5360   -8.0051  -15.7036 C   0  0  0  0  0  0  0  0  0  0  0  0
  -13.6941   -7.6160  -17.0463 C   0  0  0  0  0  0  0  0  0  0  0  0
  -14.7031    0.5860  -13.4290 O   0  0  0  0  0  0  0  0  0  0  0  0
  -14.9706    1.3659  -14.5384 C   0  0  0  0  0  0  0  0  0  0  0  0
  -14.0067    1.7042  -15.4908 C   0  0  0  0  0  0  0  0  0  0  0  0
  -14.3496    2.5574  -16.5205 C   0  0  0  0  0  0  0  0  0  0  0  0
  -15.5793    3.0507  -16.7386 N   0  0  0  0  0  0  0  0  0  0  0  0
  -16.5454    2.6297  -15.8802 C   0  0  0  0  0  0  0  0  0  0  0  0
  -17.9219    2.9756  -15.9816 C   0  0  0  0  0  0  0  0  0  0  0  0
  -18.6985    2.3924  -15.0014 C   0  0  0  0  0  0  0  0  0  0  0  0
  -17.7384    1.4660  -13.9274 S   0  0  0  0  0  0  0  0  0  0  0  0
  -16.2861    1.7997  -14.7894 C   0  0  0  0  0  0  0  0  0  0  0  0
  -20.1446    2.5157  -14.8585 C   0  0  0  0  0  0  0  0  0  0  0  0
  -20.7791    3.4626  -15.3135 O   0  0  0  0  0  0  0  0  0  0  0  0
  -20.7681    1.4873  -14.1828 N   0  0  0  0  0  0  0  0  0  0  0  0
  -20.2030    0.7131  -13.8517 H   0  0  0  0  0  0  0  0  0  0  0  0
  -22.1965    1.4399  -13.9664 C   0  0  0  0  0  0  0  0  0  0  0  0
  -22.7357    0.0074  -13.9563 C   0  0  0  0  0  0  0  0  0  0  0  0
  -22.8395   -0.6063  -12.5621 C   0  0  0  0  0  0  0  0  0  0  0  0
  -24.1707   -1.2770  -12.3484 C   0  0  0  0  0  0  0  0  0  0  0  0
  -25.0394   -1.3405  -13.2054 O   0  0  0  0  0  0  0  0  0  0  0  0
  -24.2979   -1.8564  -11.1362 O   0  0  0  0  0  0  0  0  0  0  0  0
  -23.5275   -1.7359  -10.5491 H   0  0  0  0  0  0  0  0  0  0  0  0
 14 15  1  0  0  0
 15 16  1  0  0  0
 15 21  2  0  0  0
 16 17  2  0  0  0
 17 18  1  0  0  0
 18 19  1  0  0  0
 18 20  2  0  0  0
 20  8  1  0  0  0
 20 21  1  0  0  0
  8  9  1  0  0  0
  8 12  1  0  0  0
  9 10  2  0  0  0
  9 11  1  0  0  0
 11  1  1  0  0  0
 11 13  1  0  0  0
  1  2  1  0  0  0
  1  6  2  0  0  0
  2  3  2  0  0  0
  3  4  1  0  0  0
  4 22  1  0  0  0
  4  5  2  0  0  0
 22 23  1  0  0  0
 23 24  1  0  0  0
 23 31  2  0  0  0
 24 25  2  0  0  0
 25 26  1  0  0  0
 26 27  2  0  0  0
 27 28  1  0  0  0
 27 31  1  0  0  0
 28 29  2  0  0  0
 29 32  1  0  0  0
 29 30  1  0  0  0
 32 33  2  0  0  0
 32 34  1  0  0  0
 34 36  1  0  0  0
 34 35  1  0  0  0
 36 37  1  0  0  0
 37 38  1  0  0  0
 38 39  1  0  0  0
 39 40  2  0  0  0
 39 41  1  0  0  0
 41 42  1  0  0  0
 30 31  1  0  0  0
  5  6  1  0  0  0
  6  7  1  0  0  0
M  END
> <minimizedAffinity>
-8.88437

$$$$
