CHEMBL224036


 25 27  0  0  0  0  0  0  0  0999 V2000
  -21.4448    1.6838  -14.3002 C   0  0  0  0  0  0  0  0  0  0  0  0
  -21.1821    3.0428  -14.4672 C   0  0  0  0  0  0  0  0  0  0  0  0
  -19.9462    3.4193  -14.9636 C   0  0  0  0  0  0  0  0  0  0  0  0
  -18.9522    2.5513  -15.2549 N   0  0  0  0  0  0  0  0  0  0  0  0
  -19.1864    1.2386  -15.0427 C   0  0  0  0  0  0  0  0  0  0  0  0
  -20.4306    0.7796  -14.6182 C   0  0  0  0  0  0  0  0  0  0  0  0
  -18.1050    0.3827  -15.2659 N   0  0  0  0  0  0  0  0  0  0  0  0
  -18.3406   -0.2782  -15.9948 H   0  0  0  0  0  0  0  0  0  0  0  0
  -16.8045    0.6988  -15.0776 C   0  0  0  0  0  0  0  0  0  0  0  0
  -15.9452    1.0627  -16.0086 N   0  0  0  0  0  0  0  0  0  0  0  0
  -14.6945    1.2740  -15.4708 C   0  0  0  0  0  0  0  0  0  0  0  0
  -14.6061    1.0882  -14.1138 C   0  0  0  0  0  0  0  0  0  0  0  0
  -16.1256    0.6104  -13.4916 S   0  0  0  0  0  0  0  0  0  0  0  0
  -13.4316    1.2625  -13.3410 C   0  0  0  0  0  0  0  0  0  0  0  0
  -12.4835    1.4040  -12.6914 N   0  0  0  0  0  0  0  0  0  0  0  0
  -22.7676    1.1739  -13.7797 C   0  0  0  0  0  0  0  0  0  0  0  0
  -27.4845   -2.2465  -13.1323 C   0  0  0  0  0  0  0  0  0  0  0  0
  -26.6388   -1.5062  -12.1269 C   0  0  0  0  0  0  0  0  0  0  0  0
  -26.9206   -1.5448  -10.9304 O   0  0  0  0  0  0  0  0  0  0  0  0
  -25.5405   -0.8260  -12.6172 N   0  0  0  0  0  0  0  0  0  0  0  0
  -25.2142   -0.6671  -14.0357 C   0  0  0  0  0  0  0  0  0  0  0  0
  -23.7437   -1.0355  -14.2941 C   0  0  0  0  0  0  0  0  0  0  0  0
  -22.7866   -0.2672  -13.4690 N   0  0  0  0  0  0  0  0  0  0  0  0
  -23.1435   -0.4814  -12.0404 C   0  0  0  0  0  0  0  0  0  0  0  0
  -24.6165   -0.1653  -11.6878 C   0  0  0  0  0  0  0  0  0  0  0  0
 17 18  1  0  0  0
 18 19  2  0  0  0
 18 20  1  0  0  0
 20 21  1  0  0  0
 20 25  1  0  0  0
 21 22  1  0  0  0
 22 23  1  0  0  0
 23 16  1  0  0  0
 23 24  1  0  0  0
 16  1  1  0  0  0
  1  2  1  0  0  0
  1  6  2  0  0  0
  2  3  2  0  0  0
  3  4  1  0  0  0
  4  5  2  0  0  0
  5  7  1  0  0  0
  5  6  1  0  0  0
  7  9  1  0  0  0
  7  8  1  0  0  0
  9 10  2  0  0  0
  9 13  1  0  0  0
 10 11  1  0  0  0
 11 12  2  0  0  0
 12 14  1  0  0  0
 12 13  1  0  0  0
 14 15  3  0  0  0
 24 25  1  0  0  0
M  END
> <minimizedAffinity>
-7.73712

$$$$
