CHEMBL1983932


 25 27  0  0  0  0  0  0  0  0999 V2000
  -30.2893   12.1250  -13.3843 N   0  0  0  0  0  0  0  0  0  0  0  0
  -31.1005   11.0801  -12.9896 C   0  0  0  0  0  0  0  0  0  0  0  0
  -30.6860   10.0459  -12.4786 O   0  0  0  0  0  0  0  0  0  0  0  0
  -32.4272   11.3137  -13.3030 N   0  0  0  0  0  0  0  0  0  0  0  0
  -30.6930   12.7961  -14.0165 H   0  0  0  0  0  0  0  0  0  0  0  0
  -32.6236   11.8798  -14.1132 H   0  0  0  0  0  0  0  0  0  0  0  0
  -26.4241   10.3457  -16.2388 C   0  0  0  0  0  0  0  0  0  0  0  0
  -27.8036   10.2437  -16.3630 C   0  0  0  0  0  0  0  0  0  0  0  0
  -28.6281   10.8244  -15.4013 C   0  0  0  0  0  0  0  0  0  0  0  0
  -28.0915   11.5164  -14.2929 C   0  0  0  0  0  0  0  0  0  0  0  0
  -28.8762   12.0983  -13.2670 C   0  0  0  0  0  0  0  0  0  0  0  0
  -28.2521   12.6589  -12.1562 C   0  0  0  0  0  0  0  0  0  0  0  0
  -26.8738   12.6589  -12.1112 C   0  0  0  0  0  0  0  0  0  0  0  0
  -26.0926   12.1512  -13.0851 N   0  0  0  0  0  0  0  0  0  0  0  0
  -26.6897   11.5793  -14.1450 C   0  0  0  0  0  0  0  0  0  0  0  0
  -25.8905   11.0120  -15.1281 C   0  0  0  0  0  0  0  0  0  0  0  0
  -24.2838   10.5563  -17.2372 C   0  0  0  0  0  0  0  0  0  0  0  0
  -25.5044    9.8360  -17.1097 O   0  0  0  0  0  0  0  0  0  0  0  0
  -33.4047   10.3299  -13.1024 C   0  0  0  0  0  0  0  0  0  0  0  0
  -33.6466    9.7830  -11.8490 C   0  0  0  0  0  0  0  0  0  0  0  0
  -34.5313    8.7211  -11.7444 C   0  0  0  0  0  0  0  0  0  0  0  0
  -35.1418    8.2363  -12.8948 C   0  0  0  0  0  0  0  0  0  0  0  0
  -34.8724    8.8756  -14.0967 C   0  0  0  0  0  0  0  0  0  0  0  0
  -35.6577    8.1943  -15.6845 Br  0  0  0  0  0  0  0  0  0  0  0  0
  -34.0432    9.9355  -14.2198 N   0  0  0  0  0  0  0  0  0  0  0  0
 17 18  1  0  0  0
 18  7  1  0  0  0
  7  8  1  0  0  0
  7 16  2  0  0  0
  8  9  2  0  0  0
  9 10  1  0  0  0
 10 11  1  0  0  0
 10 15  2  0  0  0
 11  1  1  0  0  0
 11 12  2  0  0  0
  1  2  1  0  0  0
  1  5  1  0  0  0
  2  3  2  0  0  0
  2  4  1  0  0  0
  4 19  1  0  0  0
  4  6  1  0  0  0
 19 20  1  0  0  0
 19 25  2  0  0  0
 20 21  2  0  0  0
 21 22  1  0  0  0
 22 23  2  0  0  0
 23 24  1  0  0  0
 23 25  1  0  0  0
 12 13  1  0  0  0
 13 14  2  0  0  0
 14 15  1  0  0  0
 15 16  1  0  0  0
M  END
> <minimizedAffinity>
-6.00950

$$$$
