CHEMBL234697


 31 33  0  0  0  0  0  0  0  0999 V2000
  -28.5441   -3.8976   -7.3179 C   0  0  0  0  0  0  0  0  0  0  0  0
  -28.4997   -3.4080   -8.5794 N   0  0  0  0  0  0  0  0  0  0  0  0
  -28.0683   -2.1539   -8.7978 C   0  0  0  0  0  0  0  0  0  0  0  0
  -27.6705   -1.3426   -7.8104 N   0  0  0  0  0  0  0  0  0  0  0  0
  -27.6802   -1.8578   -6.5658 C   0  0  0  0  0  0  0  0  0  0  0  0
  -28.1160   -3.1281   -6.2512 C   0  0  0  0  0  0  0  0  0  0  0  0
  -30.3625   -7.8496   -7.2160 C   0  0  0  0  0  0  0  0  0  0  0  0
  -30.8690   -6.8001   -6.4383 C   0  0  0  0  0  0  0  0  0  0  0  0
  -30.2545   -5.5414   -6.4211 C   0  0  0  0  0  0  0  0  0  0  0  0
  -29.1410   -5.2533   -7.2222 C   0  0  0  0  0  0  0  0  0  0  0  0
  -28.6094   -6.3223   -7.9685 C   0  0  0  0  0  0  0  0  0  0  0  0
  -29.2077   -7.5905   -7.9693 C   0  0  0  0  0  0  0  0  0  0  0  0
  -30.5328   -9.9906   -8.4982 C   0  0  0  0  0  0  0  0  0  0  0  0
  -31.0604   -9.2051   -7.2906 C   0  0  0  0  0  0  0  0  0  0  0  0
  -32.5912   -9.1044   -7.3577 C   0  0  0  0  0  0  0  0  0  0  0  0
  -30.7475   -9.9530   -6.1082 O   0  0  0  0  0  0  0  0  0  0  0  0
  -31.1828  -10.8182   -6.1819 H   0  0  0  0  0  0  0  0  0  0  0  0
  -28.0801   -1.6339  -10.0868 N   0  0  0  0  0  0  0  0  0  0  0  0
  -28.8723   -1.0336  -10.2551 H   0  0  0  0  0  0  0  0  0  0  0  0
  -27.0406   -1.6184  -11.0252 C   0  0  0  0  0  0  0  0  0  0  0  0
  -25.7296   -1.3512  -10.6151 C   0  0  0  0  0  0  0  0  0  0  0  0
  -24.7006   -1.1959  -11.5550 C   0  0  0  0  0  0  0  0  0  0  0  0
  -24.9665   -1.3125  -12.9246 C   0  0  0  0  0  0  0  0  0  0  0  0
  -26.2644   -1.6278  -13.3339 C   0  0  0  0  0  0  0  0  0  0  0  0
  -27.2860   -1.7637  -12.3956 C   0  0  0  0  0  0  0  0  0  0  0  0
  -23.8950   -1.0764  -13.9614 C   0  0  0  0  0  0  0  0  0  0  0  0
  -22.6840   -0.3147  -13.4287 C   0  0  0  0  0  0  0  0  0  0  0  0
  -22.6293    1.0135  -13.9395 O   0  0  0  0  0  0  0  0  0  0  0  0
  -22.4766    0.9397  -14.8990 H   0  0  0  0  0  0  0  0  0  0  0  0
  -28.1339   -3.5371   -4.8872 C   0  0  0  0  0  0  0  0  0  0  0  0
  -28.1355   -3.9044   -3.7862 N   0  0  0  0  0  0  0  0  0  0  0  0
 13 14  1  0  0  0
 14 15  1  0  0  0
 14 16  1  0  0  0
 14  7  1  0  0  0
 16 17  1  0  0  0
  7  8  1  0  0  0
  7 12  2  0  0  0
  8  9  2  0  0  0
  9 10  1  0  0  0
 10  1  1  0  0  0
 10 11  2  0  0  0
  1  2  1  0  0  0
  1  6  2  0  0  0
  2  3  2  0  0  0
  3 18  1  0  0  0
  3  4  1  0  0  0
 18 20  1  0  0  0
 18 19  1  0  0  0
 20 21  1  0  0  0
 20 25  2  0  0  0
 21 22  2  0  0  0
 22 23  1  0  0  0
 23 26  1  0  0  0
 23 24  2  0  0  0
 26 27  1  0  0  0
 27 28  1  0  0  0
 28 29  1  0  0  0
 24 25  1  0  0  0
  4  5  2  0  0  0
  5  6  1  0  0  0
  6 30  1  0  0  0
 30 31  3  0  0  0
 11 12  1  0  0  0
M  END
> <minimizedAffinity>
-9.08215

$$$$
