CHEMBL3966058


 42 45  0  0  0  0  0  0  0  0999 V2000
  -28.0595   -2.3881   -9.5323 N   0  0  0  0  0  0  0  0  0  0  0  0
  -26.8468   -1.9763  -10.0703 C   0  0  0  0  0  0  0  0  0  0  0  0
  -25.9440   -1.5253   -9.3739 O   0  0  0  0  0  0  0  0  0  0  0  0
  -26.7404   -2.1369  -11.4431 N   0  0  0  0  0  0  0  0  0  0  0  0
  -28.5422   -3.1337  -10.0094 H   0  0  0  0  0  0  0  0  0  0  0  0
  -27.5920   -2.2963  -11.9607 H   0  0  0  0  0  0  0  0  0  0  0  0
  -25.5751   -1.7648  -12.1802 C   0  0  0  0  0  0  0  0  0  0  0  0
  -24.3113   -1.6692  -11.5830 C   0  0  0  0  0  0  0  0  0  0  0  0
  -23.1990   -1.1878  -12.2677 C   0  0  0  0  0  0  0  0  0  0  0  0
  -23.2822   -0.9201  -13.6266 C   0  0  0  0  0  0  0  0  0  0  0  0
  -24.5320   -1.0323  -14.2435 C   0  0  0  0  0  0  0  0  0  0  0  0
  -24.6607   -0.7355  -15.5464 F   0  0  0  0  0  0  0  0  0  0  0  0
  -25.6754   -1.4456  -13.5353 C   0  0  0  0  0  0  0  0  0  0  0  0
  -22.1945   -0.5218  -14.3789 O   0  0  0  0  0  0  0  0  0  0  0  0
  -21.8512    0.8206  -14.4050 C   0  0  0  0  0  0  0  0  0  0  0  0
  -22.5778    1.8106  -13.7450 C   0  0  0  0  0  0  0  0  0  0  0  0
  -22.1736    3.1176  -13.8953 C   0  0  0  0  0  0  0  0  0  0  0  0
  -21.0752    3.4728  -14.5804 N   0  0  0  0  0  0  0  0  0  0  0  0
  -20.3266    2.5180  -15.1543 C   0  0  0  0  0  0  0  0  0  0  0  0
  -20.6880    1.1726  -15.1003 C   0  0  0  0  0  0  0  0  0  0  0  0
  -19.1492    2.8885  -15.8297 N   0  0  0  0  0  0  0  0  0  0  0  0
  -17.8807    2.6038  -15.3579 C   0  0  0  0  0  0  0  0  0  0  0  0
  -17.5792    2.0302  -14.3195 O   0  0  0  0  0  0  0  0  0  0  0  0
  -19.2460    3.3626  -16.7133 H   0  0  0  0  0  0  0  0  0  0  0  0
  -16.7741    3.0451  -16.2683 C   0  0  0  0  0  0  0  0  0  0  0  0
  -15.3637    3.1564  -15.7249 C   0  0  0  0  0  0  0  0  0  0  0  0
  -16.1370    4.4022  -16.0444 C   0  0  0  0  0  0  0  0  0  0  0  0
  -29.1113   -3.0712   -5.9936 C   0  0  0  0  0  0  0  0  0  0  0  0
  -28.6776   -3.2410   -7.3055 C   0  0  0  0  0  0  0  0  0  0  0  0
  -28.3630   -2.1707   -8.1545 C   0  0  0  0  0  0  0  0  0  0  0  0
  -28.3792   -0.8834   -7.6255 C   0  0  0  0  0  0  0  0  0  0  0  0
  -28.8037   -0.6734   -6.2951 C   0  0  0  0  0  0  0  0  0  0  0  0
  -29.1957   -1.7726   -5.4967 C   0  0  0  0  0  0  0  0  0  0  0  0
  -29.3352   -6.0466   -3.6719 C   0  0  0  0  0  0  0  0  0  0  0  0
  -28.6840   -4.8354   -4.2800 C   0  0  0  0  0  0  0  0  0  0  0  0
  -27.5526   -4.5160   -3.9300 O   0  0  0  0  0  0  0  0  0  0  0  0
  -29.5009   -4.1659   -5.1849 N   0  0  0  0  0  0  0  0  0  0  0  0
  -30.4709   -4.4503   -5.2298 H   0  0  0  0  0  0  0  0  0  0  0  0
  -28.8596    0.7187   -5.7130 C   0  0  0  0  0  0  0  0  0  0  0  0
  -27.9982    0.9138   -4.6762 F   0  0  0  0  0  0  0  0  0  0  0  0
  -28.5626    1.6784   -6.6313 F   0  0  0  0  0  0  0  0  0  0  0  0
  -30.0960    1.0290   -5.2347 F   0  0  0  0  0  0  0  0  0  0  0  0
 34 35  1  0  0  0
 35 36  2  0  0  0
 35 37  1  0  0  0
 37 28  1  0  0  0
 37 38  1  0  0  0
 28 29  1  0  0  0
 28 33  2  0  0  0
 29 30  2  0  0  0
 30  1  1  0  0  0
 30 31  1  0  0  0
  1  2  1  0  0  0
  1  5  1  0  0  0
  2  3  2  0  0  0
  2  4  1  0  0  0
  4  7  1  0  0  0
  4  6  1  0  0  0
  7  8  1  0  0  0
  7 13  2  0  0  0
  8  9  2  0  0  0
  9 10  1  0  0  0
 10 14  1  0  0  0
 10 11  2  0  0  0
 14 15  1  0  0  0
 15 16  1  0  0  0
 15 20  2  0  0  0
 16 17  2  0  0  0
 17 18  1  0  0  0
 18 19  2  0  0  0
 19 21  1  0  0  0
 19 20  1  0  0  0
 21 22  1  0  0  0
 21 24  1  0  0  0
 22 23  2  0  0  0
 22 25  1  0  0  0
 25 26  1  0  0  0
 25 27  1  0  0  0
 26 27  1  0  0  0
 11 12  1  0  0  0
 11 13  1  0  0  0
 31 32  2  0  0  0
 32 39  1  0  0  0
 32 33  1  0  0  0
 39 40  1  0  0  0
 39 41  1  0  0  0
 39 42  1  0  0  0
M  END
> <minimizedAffinity>
-12.46631

$$$$
