CHEMBL3962549


 31 34  0  0  0  0  0  0  0  0999 V2000
  -28.9292   -5.4238   -6.3352 C   0  0  0  0  0  0  0  0  0  0  0  0
  -29.1065   -4.4297   -5.3687 C   0  0  0  0  0  0  0  0  0  0  0  0
  -28.8433   -3.0877   -5.6534 C   0  0  0  0  0  0  0  0  0  0  0  0
  -28.3777   -2.7026   -6.8989 C   0  0  0  0  0  0  0  0  0  0  0  0
  -28.1017   -1.4060   -7.1209 N   0  0  0  0  0  0  0  0  0  0  0  0
  -27.6118   -1.1044   -8.3455 C   0  0  0  0  0  0  0  0  0  0  0  0
  -27.3992   -2.0562   -9.3331 C   0  0  0  0  0  0  0  0  0  0  0  0
  -27.6985   -3.3613   -9.1142 N   0  0  0  0  0  0  0  0  0  0  0  0
  -28.1841   -3.6825   -7.8961 C   0  0  0  0  0  0  0  0  0  0  0  0
  -28.4834   -5.0127   -7.6021 C   0  0  0  0  0  0  0  0  0  0  0  0
  -26.8272   -1.7018  -10.6184 C   0  0  0  0  0  0  0  0  0  0  0  0
  -27.4119   -1.6268  -11.9044 C   0  0  0  0  0  0  0  0  0  0  0  0
  -26.5503   -1.2357  -12.8457 N   0  0  0  0  0  0  0  0  0  0  0  0
  -25.4047   -1.0528  -12.1660 N   0  0  0  0  0  0  0  0  0  0  0  0
  -24.2212   -0.6038  -12.8580 C   0  0  0  0  0  0  0  0  0  0  0  0
  -25.5172   -1.3194  -10.8320 C   0  0  0  0  0  0  0  0  0  0  0  0
  -29.1432   -6.7833   -5.9934 N   0  0  0  0  0  0  0  0  0  0  0  0
  -30.2674   -9.5386   -8.3169 C   0  0  0  0  0  0  0  0  0  0  0  0
  -31.6482   -9.4332   -8.2071 C   0  0  0  0  0  0  0  0  0  0  0  0
  -32.1902   -8.4747   -7.3611 C   0  0  0  0  0  0  0  0  0  0  0  0
  -33.5229   -8.3752   -7.2650 F   0  0  0  0  0  0  0  0  0  0  0  0
  -31.3868   -7.6064   -6.6244 C   0  0  0  0  0  0  0  0  0  0  0  0
  -29.9905   -7.6814   -6.7025 C   0  0  0  0  0  0  0  0  0  0  0  0
  -29.4560   -8.6742   -7.5591 C   0  0  0  0  0  0  0  0  0  0  0  0
  -29.6015  -10.4278   -9.1221 O   0  0  0  0  0  0  0  0  0  0  0  0
  -28.9138  -10.4040  -11.4307 C   0  0  0  0  0  0  0  0  0  0  0  0
  -28.6463   -9.8732  -10.0327 C   0  0  0  0  0  0  0  0  0  0  0  0
  -28.2883   -7.3543   -4.9146 C   0  0  0  0  0  0  0  0  0  0  0  0
  -29.0969   -7.9694   -3.7535 C   0  0  0  0  0  0  0  0  0  0  0  0
  -29.4242   -7.0078   -2.7542 O   0  0  0  0  0  0  0  0  0  0  0  0
  -28.6324   -6.9176   -2.1928 H   0  0  0  0  0  0  0  0  0  0  0  0
 26 27  1  0  0  0
 27 25  1  0  0  0
 25 18  1  0  0  0
 18 19  1  0  0  0
 18 24  2  0  0  0
 19 20  2  0  0  0
 20 21  1  0  0  0
 20 22  1  0  0  0
 22 23  2  0  0  0
 23 17  1  0  0  0
 23 24  1  0  0  0
 17 28  1  0  0  0
 17  1  1  0  0  0
 28 29  1  0  0  0
 29 30  1  0  0  0
 30 31  1  0  0  0
  1  2  1  0  0  0
  1 10  2  0  0  0
  2  3  2  0  0  0
  3  4  1  0  0  0
  4  5  1  0  0  0
  4  9  2  0  0  0
  5  6  2  0  0  0
  6  7  1  0  0  0
  7 11  1  0  0  0
  7  8  2  0  0  0
 11 12  1  0  0  0
 11 16  2  0  0  0
 12 13  2  0  0  0
 13 14  1  0  0  0
 14 15  1  0  0  0
 14 16  1  0  0  0
  8  9  1  0  0  0
  9 10  1  0  0  0
M  END
> <minimizedAffinity>
-8.64538

$$$$
