CHEMBL270954


 39 43  0  0  0  0  0  0  0  0999 V2000
  -12.1020   -1.8737  -12.9715 C   0  0  0  0  0  0  0  0  0  0  0  0
  -13.4048   -2.2657  -13.2651 C   0  0  0  0  0  0  0  0  0  0  0  0
  -14.3014   -1.3603  -13.8555 C   0  0  0  0  0  0  0  0  0  0  0  0
  -13.9341   -0.0376  -14.1482 C   0  0  0  0  0  0  0  0  0  0  0  0
  -12.5986    0.3257  -13.8825 C   0  0  0  0  0  0  0  0  0  0  0  0
  -11.7038   -0.5721  -13.2825 C   0  0  0  0  0  0  0  0  0  0  0  0
  -12.0561    1.5537  -14.1788 O   0  0  0  0  0  0  0  0  0  0  0  0
  -13.0453    2.5716  -14.3072 C   0  0  0  0  0  0  0  0  0  0  0  0
  -14.1789    2.1386  -15.2211 C   0  0  0  0  0  0  0  0  0  0  0  0
  -14.8529    0.9489  -14.6783 N   0  0  0  0  0  0  0  0  0  0  0  0
  -16.2471    0.8155  -14.5306 C   0  0  0  0  0  0  0  0  0  0  0  0
  -16.7552   -0.1531  -13.9647 O   0  0  0  0  0  0  0  0  0  0  0  0
  -17.0168    1.8533  -15.0254 N   0  0  0  0  0  0  0  0  0  0  0  0
  -16.6161    2.4303  -15.7435 H   0  0  0  0  0  0  0  0  0  0  0  0
  -18.4234    1.9810  -14.8705 C   0  0  0  0  0  0  0  0  0  0  0  0
  -19.0538    3.1495  -14.4344 C   0  0  0  0  0  0  0  0  0  0  0  0
  -20.4268    3.1761  -14.1762 C   0  0  0  0  0  0  0  0  0  0  0  0
  -21.2077    2.0394  -14.3817 C   0  0  0  0  0  0  0  0  0  0  0  0
  -22.6609    2.0354  -14.0143 C   0  0  0  0  0  0  0  0  0  0  0  0
  -20.5990    0.8914  -14.9020 C   0  0  0  0  0  0  0  0  0  0  0  0
  -19.2203    0.8649  -15.1507 C   0  0  0  0  0  0  0  0  0  0  0  0
  -11.2892   -2.8056  -12.3514 O   0  0  0  0  0  0  0  0  0  0  0  0
  -12.8435   -7.6896  -12.5138 C   0  0  0  0  0  0  0  0  0  0  0  0
  -13.1076   -7.1380  -11.2555 C   0  0  0  0  0  0  0  0  0  0  0  0
  -12.7795   -5.8361  -10.9210 C   0  0  0  0  0  0  0  0  0  0  0  0
  -13.1207   -5.4266   -9.6923 N   0  0  0  0  0  0  0  0  0  0  0  0
  -12.8012   -4.1743   -9.3226 C   0  0  0  0  0  0  0  0  0  0  0  0
  -12.1503   -3.2867  -10.1450 C   0  0  0  0  0  0  0  0  0  0  0  0
  -11.8613   -3.6885  -11.4500 C   0  0  0  0  0  0  0  0  0  0  0  0
  -12.1283   -5.0205  -11.8639 C   0  0  0  0  0  0  0  0  0  0  0  0
  -11.8080   -5.5840  -13.1287 C   0  0  0  0  0  0  0  0  0  0  0  0
  -12.1693   -6.9097  -13.4660 C   0  0  0  0  0  0  0  0  0  0  0  0
  -11.8532   -7.3676  -14.8573 C   0  0  0  0  0  0  0  0  0  0  0  0
  -12.8396   -7.9623  -15.5945 N   0  0  0  0  0  0  0  0  0  0  0  0
  -10.7404   -7.2052  -15.3456 O   0  0  0  0  0  0  0  0  0  0  0  0
  -13.7623   -8.1237  -15.2117 H   0  0  0  0  0  0  0  0  0  0  0  0
  -12.6388   -8.2280  -16.5482 H   0  0  0  0  0  0  0  0  0  0  0  0
  -12.2449   -9.9901  -12.4458 C   0  0  0  0  0  0  0  0  0  0  0  0
  -13.1890   -8.9851  -12.8205 O   0  0  0  0  0  0  0  0  0  0  0  0
 38 39  1  0  0  0
 39 23  1  0  0  0
 23 24  1  0  0  0
 23 32  2  0  0  0
 24 25  2  0  0  0
 25 26  1  0  0  0
 25 30  1  0  0  0
 26 27  2  0  0  0
 27 28  1  0  0  0
 28 29  2  0  0  0
 29 22  1  0  0  0
 29 30  1  0  0  0
 22  1  1  0  0  0
  1  2  1  0  0  0
  1  6  2  0  0  0
  2  3  2  0  0  0
  3  4  1  0  0  0
  4  5  2  0  0  0
  4 10  1  0  0  0
  5  6  1  0  0  0
  5  7  1  0  0  0
  7  8  1  0  0  0
  8  9  1  0  0  0
  9 10  1  0  0  0
 10 11  1  0  0  0
 11 12  2  0  0  0
 11 13  1  0  0  0
 13 15  1  0  0  0
 13 14  1  0  0  0
 15 16  1  0  0  0
 15 21  2  0  0  0
 16 17  2  0  0  0
 17 18  1  0  0  0
 18 19  1  0  0  0
 18 20  2  0  0  0
 20 21  1  0  0  0
 30 31  2  0  0  0
 31 32  1  0  0  0
 32 33  1  0  0  0
 33 34  1  0  0  0
 33 35  2  0  0  0
 34 36  1  0  0  0
 34 37  1  0  0  0
M  END
> <minimizedAffinity>
-8.79760

$$$$
