CHEMBL3706830


 29 31  0  0  0  0  0  0  0  0999 V2000
  -28.7867  -10.8281   -8.3808 C   0  0  0  0  0  0  0  0  0  0  0  0
  -30.1461  -10.5565   -8.6601 C   0  0  0  0  0  0  0  0  0  0  0  0
  -30.9231   -9.6515   -7.9422 C   0  0  0  0  0  0  0  0  0  0  0  0
  -32.2233   -9.5094   -8.2180 N   0  0  0  0  0  0  0  0  0  0  0  0
  -32.9230   -8.6486   -7.4670 C   0  0  0  0  0  0  0  0  0  0  0  0
  -32.4363   -7.8930   -6.4794 N   0  0  0  0  0  0  0  0  0  0  0  0
  -31.1217   -8.0262   -6.2226 C   0  0  0  0  0  0  0  0  0  0  0  0
  -30.3049   -8.9306   -6.9260 C   0  0  0  0  0  0  0  0  0  0  0  0
  -28.9500   -9.1888   -6.6280 C   0  0  0  0  0  0  0  0  0  0  0  0
  -28.1735  -10.1214   -7.3393 C   0  0  0  0  0  0  0  0  0  0  0  0
  -30.5321   -7.2080   -5.2176 N   0  0  0  0  0  0  0  0  0  0  0  0
  -29.7563   -7.7048   -4.7746 H   0  0  0  0  0  0  0  0  0  0  0  0
  -30.2070   -5.8752   -5.4293 C   0  0  0  0  0  0  0  0  0  0  0  0
  -29.4347   -5.4098   -6.4154 C   0  0  0  0  0  0  0  0  0  0  0  0
  -29.1159   -3.9904   -6.6143 C   0  0  0  0  0  0  0  0  0  0  0  0
  -28.4722   -3.6829   -7.6099 O   0  0  0  0  0  0  0  0  0  0  0  0
  -29.6049   -3.0291   -5.5789 C   0  0  0  0  0  0  0  0  0  0  0  0
  -30.4168   -3.4737   -4.6087 C   0  0  0  0  0  0  0  0  0  0  0  0
  -30.8203   -4.8865   -4.4925 C   0  0  0  0  0  0  0  0  0  0  0  0
  -31.6178   -5.2489   -3.6320 O   0  0  0  0  0  0  0  0  0  0  0  0
  -29.1842   -1.3428   -5.5908 S   0  0  0  0  0  0  0  0  0  0  0  0
  -27.4246   -1.2551   -5.2088 C   0  0  0  0  0  0  0  0  0  0  0  0
  -26.9533  -10.2493   -6.7440 O   0  0  0  0  0  0  0  0  0  0  0  0
  -26.7377   -9.8983   -5.3899 C   0  0  0  0  0  0  0  0  0  0  0  0
  -28.3182  -11.8153   -9.2105 O   0  0  0  0  0  0  0  0  0  0  0  0
  -28.0699  -11.4772  -10.5589 C   0  0  0  0  0  0  0  0  0  0  0  0
  -27.1464  -10.2805  -10.7381 C   0  0  0  0  0  0  0  0  0  0  0  0
  -28.7854  -10.0073  -12.4410 C   0  0  0  0  0  0  0  0  0  0  0  0
  -27.4512   -9.7661  -12.0388 O   0  0  0  0  0  0  0  0  0  0  0  0
 28 29  1  0  0  0
 29 27  1  0  0  0
 27 26  1  0  0  0
 26 25  1  0  0  0
 25  1  1  0  0  0
  1  2  1  0  0  0
  1 10  2  0  0  0
  2  3  2  0  0  0
  3  4  1  0  0  0
  3  8  1  0  0  0
  4  5  2  0  0  0
  5  6  1  0  0  0
  6  7  2  0  0  0
  7 11  1  0  0  0
  7  8  1  0  0  0
 11 13  1  0  0  0
 11 12  1  0  0  0
 13 14  2  0  0  0
 13 19  1  0  0  0
 14 15  1  0  0  0
 15 16  2  0  0  0
 15 17  1  0  0  0
 17 21  1  0  0  0
 17 18  2  0  0  0
 21 22  1  0  0  0
 18 19  1  0  0  0
 19 20  2  0  0  0
  8  9  2  0  0  0
  9 10  1  0  0  0
 10 23  1  0  0  0
 23 24  1  0  0  0
M  END
> <minimizedAffinity>
-6.64690

$$$$
