CHEMBL260956


 48 54  0  0  0  0  0  0  0  0999 V2000
  -11.6895   -3.2714  -17.5016 C   0  0  0  0  0  0  0  0  0  0  0  0
  -12.7783   -3.3902  -18.2801 N   0  0  0  0  0  0  0  0  0  0  0  0
  -13.4411   -2.2747  -18.5691 C   0  0  0  0  0  0  0  0  0  0  0  0
  -13.0609   -1.0537  -18.0722 C   0  0  0  0  0  0  0  0  0  0  0  0
  -13.9654    0.0430  -18.2812 C   0  0  0  0  0  0  0  0  0  0  0  0
  -14.3252    0.2910  -19.4197 O   0  0  0  0  0  0  0  0  0  0  0  0
  -14.3713    0.6614  -17.1100 N   0  0  0  0  0  0  0  0  0  0  0  0
  -13.7449    0.1976  -15.9338 C   0  0  0  0  0  0  0  0  0  0  0  0
  -13.9851    0.4709  -14.6747 N   0  0  0  0  0  0  0  0  0  0  0  0
  -12.9524    1.3194  -14.4434 C   0  0  0  0  0  0  0  0  0  0  0  0
  -13.0858    2.4624  -13.6496 C   0  0  0  0  0  0  0  0  0  0  0  0
  -12.3303    3.5660  -14.0735 C   0  0  0  0  0  0  0  0  0  0  0  0
  -11.3563    3.4316  -15.0770 C   0  0  0  0  0  0  0  0  0  0  0  0
  -11.0530    2.1824  -15.7030 C   0  0  0  0  0  0  0  0  0  0  0  0
  -11.9222    1.1126  -15.4073 C   0  0  0  0  0  0  0  0  0  0  0  0
  -12.3790   -0.0883  -16.0277 N   0  0  0  0  0  0  0  0  0  0  0  0
  -12.0466   -0.9937  -17.1067 C   0  0  0  0  0  0  0  0  0  0  0  0
  -11.2988   -2.1142  -16.8662 N   0  0  0  0  0  0  0  0  0  0  0  0
  -14.7127    2.0505  -17.1002 C   0  0  0  0  0  0  0  0  0  0  0  0
  -15.8706    2.4293  -16.3920 C   0  0  0  0  0  0  0  0  0  0  0  0
  -16.8167    1.4237  -15.7852 C   0  0  0  0  0  0  0  0  0  0  0  0
  -16.1786    3.7879  -16.2574 C   0  0  0  0  0  0  0  0  0  0  0  0
  -15.3674    4.7678  -16.8221 C   0  0  0  0  0  0  0  0  0  0  0  0
  -14.2319    4.4055  -17.5362 C   0  0  0  0  0  0  0  0  0  0  0  0
  -13.8729    3.0534  -17.6830 C   0  0  0  0  0  0  0  0  0  0  0  0
  -12.5883    2.8016  -18.4414 C   0  0  0  0  0  0  0  0  0  0  0  0
  -11.0855   -4.5153  -17.3076 N   0  0  0  0  0  0  0  0  0  0  0  0
  -10.1224   -4.2273  -17.1096 H   0  0  0  0  0  0  0  0  0  0  0  0
  -11.3378   -6.0805  -13.9632 C   0  0  0  0  0  0  0  0  0  0  0  0
  -11.0331   -5.2100  -15.0144 C   0  0  0  0  0  0  0  0  0  0  0  0
  -11.4123   -5.4864  -16.3302 C   0  0  0  0  0  0  0  0  0  0  0  0
  -12.1854   -6.6162  -16.5826 C   0  0  0  0  0  0  0  0  0  0  0  0
  -12.5458   -7.4853  -15.5391 C   0  0  0  0  0  0  0  0  0  0  0  0
  -12.1633   -7.1953  -14.2081 C   0  0  0  0  0  0  0  0  0  0  0  0
  -10.7826   -4.4318  -12.3635 C   0  0  0  0  0  0  0  0  0  0  0  0
  -10.8834   -5.8184  -12.6934 O   0  0  0  0  0  0  0  0  0  0  0  0
  -13.2812   -8.6334  -15.7203 O   0  0  0  0  0  0  0  0  0  0  0  0
  -13.1493   -9.3142  -16.9608 C   0  0  0  0  0  0  0  0  0  0  0  0
  -12.6436   -8.0663  -13.2440 O   0  0  0  0  0  0  0  0  0  0  0  0
  -13.8543   -7.6531  -12.5977 C   0  0  0  0  0  0  0  0  0  0  0  0
  -13.5908   -7.0406  -11.2017 C   0  0  0  0  0  0  0  0  0  0  0  0
  -14.5977   -6.0185  -10.8428 N   0  0  0  0  0  0  0  0  0  0  0  0
  -14.0009   -4.7529  -10.3755 C   0  0  0  0  0  0  0  0  0  0  0  0
  -15.0844   -3.7526   -9.9142 C   0  0  0  0  0  0  0  0  0  0  0  0
  -16.1101   -3.4346  -10.9235 N   0  0  0  0  0  0  0  0  0  0  0  0
  -15.5994   -2.5173  -11.9367 C   0  0  0  0  0  0  0  0  0  0  0  0
  -16.6157   -4.6914  -11.5166 C   0  0  0  0  0  0  0  0  0  0  0  0
  -15.5326   -5.7228  -11.9449 C   0  0  0  0  0  0  0  0  0  0  0  0
 35 36  1  0  0  0
 36 29  1  0  0  0
 29 30  1  0  0  0
 29 34  2  0  0  0
 30 31  2  0  0  0
 31 27  1  0  0  0
 31 32  1  0  0  0
 27  1  1  0  0  0
 27 28  1  0  0  0
  1  2  1  0  0  0
  1 18  2  0  0  0
  2  3  2  0  0  0
  3  4  1  0  0  0
  4  5  1  0  0  0
  4 17  2  0  0  0
  5  6  2  0  0  0
  5  7  1  0  0  0
  7 19  1  0  0  0
  7  8  1  0  0  0
 19 20  1  0  0  0
 19 25  2  0  0  0
 20 21  1  0  0  0
 20 22  2  0  0  0
 22 23  1  0  0  0
 23 24  2  0  0  0
 24 25  1  0  0  0
 25 26  1  0  0  0
  8  9  2  0  0  0
  8 16  1  0  0  0
  9 10  1  0  0  0
 10 11  1  0  0  0
 10 15  2  0  0  0
 11 12  2  0  0  0
 12 13  1  0  0  0
 13 14  2  0  0  0
 14 15  1  0  0  0
 15 16  1  0  0  0
 16 17  1  0  0  0
 17 18  1  0  0  0
 32 33  2  0  0  0
 33 37  1  0  0  0
 33 34  1  0  0  0
 37 38  1  0  0  0
 34 39  1  0  0  0
 39 40  1  0  0  0
 40 41  1  0  0  0
 41 42  1  0  0  0
 42 43  1  0  0  0
 42 48  1  0  0  0
 43 44  1  0  0  0
 44 45  1  0  0  0
 45 46  1  0  0  0
 45 47  1  0  0  0
 47 48  1  0  0  0
M  END
> <minimizedAffinity>
-7.35370

$$$$
