CHEMBL3908978


 31 35  0  0  0  0  0  0  0  0999 V2000
  -15.3576    3.5100  -16.8435 C   0  0  0  0  0  0  0  0  0  0  0  0
  -16.6821    3.7263  -16.5005 C   0  0  0  0  0  0  0  0  0  0  0  0
  -17.3214    3.0055  -15.5473 N   0  0  0  0  0  0  0  0  0  0  0  0
  -16.6044    2.0157  -14.9801 C   0  0  0  0  0  0  0  0  0  0  0  0
  -17.1788    1.2026  -14.0266 C   0  0  0  0  0  0  0  0  0  0  0  0
  -16.4785    0.1095  -13.5019 C   0  0  0  0  0  0  0  0  0  0  0  0
  -15.2097   -0.2651  -13.9658 C   0  0  0  0  0  0  0  0  0  0  0  0
  -14.5929    0.6776  -14.8020 C   0  0  0  0  0  0  0  0  0  0  0  0
  -15.2653    1.7728  -15.3393 C   0  0  0  0  0  0  0  0  0  0  0  0
  -14.6266    2.5433  -16.2384 N   0  0  0  0  0  0  0  0  0  0  0  0
  -11.8520    5.7033  -19.5696 C   0  0  0  0  0  0  0  0  0  0  0  0
  -13.1164    5.1998  -19.0935 N   0  0  0  0  0  0  0  0  0  0  0  0
  -13.3401    4.5032  -17.9464 C   0  0  0  0  0  0  0  0  0  0  0  0
  -14.6973    4.2531  -17.9014 C   0  0  0  0  0  0  0  0  0  0  0  0
  -15.1919    4.8399  -19.0828 C   0  0  0  0  0  0  0  0  0  0  0  0
  -14.2322    5.4207  -19.8142 N   0  0  0  0  0  0  0  0  0  0  0  0
  -14.5841   -1.4865  -13.5864 N   0  0  0  0  0  0  0  0  0  0  0  0
  -15.2057   -2.6274  -12.9827 C   0  0  0  0  0  0  0  0  0  0  0  0
  -15.9523   -3.5564  -13.7255 C   0  0  0  0  0  0  0  0  0  0  0  0
  -16.6368   -4.6070  -13.1123 C   0  0  0  0  0  0  0  0  0  0  0  0
  -16.5048   -4.8214  -11.7447 C   0  0  0  0  0  0  0  0  0  0  0  0
  -15.6755   -3.9895  -10.9968 C   0  0  0  0  0  0  0  0  0  0  0  0
  -15.0757   -2.8795  -11.6050 C   0  0  0  0  0  0  0  0  0  0  0  0
  -15.4031   -4.1423   -9.6650 O   0  0  0  0  0  0  0  0  0  0  0  0
  -14.0611   -4.4887   -9.3540 C   0  0  0  0  0  0  0  0  0  0  0  0
  -13.4136   -3.4079   -8.8503 F   0  0  0  0  0  0  0  0  0  0  0  0
  -14.1013   -5.4117   -8.3594 F   0  0  0  0  0  0  0  0  0  0  0  0
  -13.2717   -1.8364  -14.2136 C   0  0  0  0  0  0  0  0  0  0  0  0
  -12.0968   -1.5650  -13.3021 C   0  0  0  0  0  0  0  0  0  0  0  0
  -10.7014   -1.8808  -13.7993 C   0  0  0  0  0  0  0  0  0  0  0  0
  -11.2922   -2.6764  -12.6713 C   0  0  0  0  0  0  0  0  0  0  0  0
 11 12  1  0  0  0
 12 13  1  0  0  0
 12 16  1  0  0  0
 13 14  2  0  0  0
 14  1  1  0  0  0
 14 15  1  0  0  0
  1  2  1  0  0  0
  1 10  2  0  0  0
  2  3  2  0  0  0
  3  4  1  0  0  0
  4  5  1  0  0  0
  4  9  2  0  0  0
  5  6  2  0  0  0
  6  7  1  0  0  0
  7 17  1  0  0  0
  7  8  2  0  0  0
 17 28  1  0  0  0
 17 18  1  0  0  0
 28 29  1  0  0  0
 29 30  1  0  0  0
 29 31  1  0  0  0
 30 31  1  0  0  0
 18 19  1  0  0  0
 18 23  2  0  0  0
 19 20  2  0  0  0
 20 21  1  0  0  0
 21 22  2  0  0  0
 22 24  1  0  0  0
 22 23  1  0  0  0
 24 25  1  0  0  0
 25 26  1  0  0  0
 25 27  1  0  0  0
  8  9  1  0  0  0
  9 10  1  0  0  0
 15 16  2  0  0  0
M  END
> <minimizedAffinity>
-7.36324

$$$$
