CHEMBL1172887


 37 41  0  0  0  0  0  0  0  0999 V2000
  -22.2708    0.5771  -12.7742 O   0  0  0  0  0  0  0  0  0  0  0  0
  -22.7515    0.4174  -13.8888 C   0  0  0  0  0  0  0  0  0  0  0  0
  -23.9622   -0.2120  -14.1227 N   0  0  0  0  0  0  0  0  0  0  0  0
  -22.1280    0.8105  -15.0604 N   0  0  0  0  0  0  0  0  0  0  0  0
  -24.1955   -0.4330  -15.0776 H   0  0  0  0  0  0  0  0  0  0  0  0
  -22.6690    0.7720  -15.9102 H   0  0  0  0  0  0  0  0  0  0  0  0
  -20.8324    1.3747  -15.1446 C   0  0  0  0  0  0  0  0  0  0  0  0
  -20.6065    2.7682  -15.2231 C   0  0  0  0  0  0  0  0  0  0  0  0
  -19.3263    3.3061  -15.3510 C   0  0  0  0  0  0  0  0  0  0  0  0
  -18.2667    2.4331  -15.3906 C   0  0  0  0  0  0  0  0  0  0  0  0
  -18.4741    1.0596  -15.2609 C   0  0  0  0  0  0  0  0  0  0  0  0
  -19.7350    0.5034  -15.1432 C   0  0  0  0  0  0  0  0  0  0  0  0
  -17.2547    0.3912  -15.2711 N   0  0  0  0  0  0  0  0  0  0  0  0
  -16.1939    1.2741  -15.4215 C   0  0  0  0  0  0  0  0  0  0  0  0
  -15.0130    0.9821  -15.4398 O   0  0  0  0  0  0  0  0  0  0  0  0
  -16.8204    2.6409  -15.5498 C   0  0  0  0  0  0  0  0  0  0  0  0
  -16.3029    3.8519  -15.8134 C   0  0  0  0  0  0  0  0  0  0  0  0
  -17.1223   -0.6031  -15.1676 H   0  0  0  0  0  0  0  0  0  0  0  0
  -14.9560    4.2120  -16.0617 C   0  0  0  0  0  0  0  0  0  0  0  0
  -14.3853    4.8296  -17.1624 C   0  0  0  0  0  0  0  0  0  0  0  0
  -13.0000    4.9721  -16.9175 C   0  0  0  0  0  0  0  0  0  0  0  0
  -12.7531    4.4342  -15.6777 C   0  0  0  0  0  0  0  0  0  0  0  0
  -13.9407    3.9736  -15.1699 N   0  0  0  0  0  0  0  0  0  0  0  0
  -14.0415    3.5198  -14.2660 H   0  0  0  0  0  0  0  0  0  0  0  0
  -24.7535   -0.8201  -13.1189 C   0  0  0  0  0  0  0  0  0  0  0  0
  -24.3077   -1.0151  -11.8086 C   0  0  0  0  0  0  0  0  0  0  0  0
  -25.0673   -1.7341  -10.8887 C   0  0  0  0  0  0  0  0  0  0  0  0
  -26.3375   -2.1832  -11.2337 C   0  0  0  0  0  0  0  0  0  0  0  0
  -26.8060   -1.9756  -12.5326 C   0  0  0  0  0  0  0  0  0  0  0  0
  -26.0210   -1.2926  -13.4712 C   0  0  0  0  0  0  0  0  0  0  0  0
  -27.1649   -2.8806  -10.3839 O   0  0  0  0  0  0  0  0  0  0  0  0
  -27.5009   -2.3402   -9.1613 C   0  0  0  0  0  0  0  0  0  0  0  0
  -27.4714   -0.9723   -8.8704 C   0  0  0  0  0  0  0  0  0  0  0  0
  -27.8065   -0.5188   -7.5943 C   0  0  0  0  0  0  0  0  0  0  0  0
  -28.2333   -1.4234   -6.6243 C   0  0  0  0  0  0  0  0  0  0  0  0
  -28.3237   -2.7815   -6.9288 C   0  0  0  0  0  0  0  0  0  0  0  0
  -27.9539   -3.2401   -8.1948 C   0  0  0  0  0  0  0  0  0  0  0  0
  1  2  2  0  0  0
  2  3  1  0  0  0
  2  4  1  0  0  0
  3 25  1  0  0  0
  3  5  1  0  0  0
 25 26  1  0  0  0
 25 30  2  0  0  0
 26 27  2  0  0  0
 27 28  1  0  0  0
 28 31  1  0  0  0
 28 29  2  0  0  0
 31 32  1  0  0  0
 32 33  1  0  0  0
 32 37  2  0  0  0
 33 34  2  0  0  0
 34 35  1  0  0  0
 35 36  2  0  0  0
 36 37  1  0  0  0
 29 30  1  0  0  0
  4  7  1  0  0  0
  4  6  1  0  0  0
  7  8  1  0  0  0
  7 12  2  0  0  0
  8  9  2  0  0  0
  9 10  1  0  0  0
 10 11  2  0  0  0
 10 16  1  0  0  0
 11 12  1  0  0  0
 11 13  1  0  0  0
 13 14  1  0  0  0
 13 18  1  0  0  0
 14 15  2  0  0  0
 14 16  1  0  0  0
 16 17  2  0  0  0
 17 19  1  0  0  0
 19 20  2  0  0  0
 19 23  1  0  0  0
 20 21  1  0  0  0
 21 22  2  0  0  0
 22 23  1  0  0  0
 23 24  1  0  0  0
M  END
> <minimizedAffinity>
-9.91326

$$$$
