CHEMBL3889849


 38 43  0  0  0  0  0  0  0  0999 V2000
  -29.3999   -5.7663   -6.1760 C   0  0  0  0  0  0  0  0  0  0  0  0
  -28.6776   -6.5635   -5.2669 C   0  0  0  0  0  0  0  0  0  0  0  0
  -28.2769   -7.8762   -5.5910 C   0  0  0  0  0  0  0  0  0  0  0  0
  -28.7629   -8.4360   -6.7885 C   0  0  0  0  0  0  0  0  0  0  0  0
  -28.8672   -9.7276   -7.3896 C   0  0  0  0  0  0  0  0  0  0  0  0
  -30.1935   -9.8936   -7.6164 N   0  0  0  0  0  0  0  0  0  0  0  0
  -30.4826   -8.6598   -8.1062 N   0  0  0  0  0  0  0  0  0  0  0  0
  -29.7254   -7.7005   -7.4788 C   0  0  0  0  0  0  0  0  0  0  0  0
  -29.9210   -6.3319   -7.3438 C   0  0  0  0  0  0  0  0  0  0  0  0
  -31.3040   -8.5361   -8.6824 H   0  0  0  0  0  0  0  0  0  0  0  0
  -28.0976  -10.3156   -8.5807 C   0  0  0  0  0  0  0  0  0  0  0  0
  -27.0129   -9.8111   -9.1554 N   0  0  0  0  0  0  0  0  0  0  0  0
  -27.3098   -9.8459  -10.5117 C   0  0  0  0  0  0  0  0  0  0  0  0
  -26.7117   -9.2522  -11.6330 C   0  0  0  0  0  0  0  0  0  0  0  0
  -27.4247   -9.2962  -12.8427 C   0  0  0  0  0  0  0  0  0  0  0  0
  -28.6575   -9.9428  -12.8875 C   0  0  0  0  0  0  0  0  0  0  0  0
  -29.2339  -10.6013  -11.8576 N   0  0  0  0  0  0  0  0  0  0  0  0
  -28.5040  -10.5184  -10.7315 C   0  0  0  0  0  0  0  0  0  0  0  0
  -28.8489  -11.0179   -9.5108 N   0  0  0  0  0  0  0  0  0  0  0  0
  -29.7788  -11.3433   -9.3080 H   0  0  0  0  0  0  0  0  0  0  0  0
  -29.7856   -4.3529   -5.8896 C   0  0  0  0  0  0  0  0  0  0  0  0
  -30.7352   -4.1323   -5.1394 O   0  0  0  0  0  0  0  0  0  0  0  0
  -28.1907   -2.0216   -8.3949 C   0  0  0  0  0  0  0  0  0  0  0  0
  -27.7275   -1.0116   -7.5472 C   0  0  0  0  0  0  0  0  0  0  0  0
  -27.8480   -1.1238   -6.1652 C   0  0  0  0  0  0  0  0  0  0  0  0
  -28.4627   -2.2363   -5.6141 C   0  0  0  0  0  0  0  0  0  0  0  0
  -29.0334   -3.2013   -6.4492 C   0  0  0  0  0  0  0  0  0  0  0  0
  -28.8796   -3.1066   -7.8432 C   0  0  0  0  0  0  0  0  0  0  0  0
  -25.7006   -1.5204   -9.8652 O   0  0  0  0  0  0  0  0  0  0  0  0
  -26.7707   -1.7343  -10.4162 C   0  0  0  0  0  0  0  0  0  0  0  0
  -27.9807   -1.9990   -9.7925 N   0  0  0  0  0  0  0  0  0  0  0  0
  -28.7236   -2.3766  -10.3656 H   0  0  0  0  0  0  0  0  0  0  0  0
  -26.7720   -1.7870  -11.8931 C   0  0  0  0  0  0  0  0  0  0  0  0
  -25.5698   -1.5194  -12.5626 C   0  0  0  0  0  0  0  0  0  0  0  0
  -25.5317   -1.5118  -13.9550 C   0  0  0  0  0  0  0  0  0  0  0  0
  -26.6942   -1.7623  -14.6822 C   0  0  0  0  0  0  0  0  0  0  0  0
  -27.8961   -2.0175  -14.0186 C   0  0  0  0  0  0  0  0  0  0  0  0
  -27.9398   -2.0298  -12.6226 C   0  0  0  0  0  0  0  0  0  0  0  0
 29 30  2  0  0  0
 30 31  1  0  0  0
 30 33  1  0  0  0
 31 23  1  0  0  0
 31 32  1  0  0  0
 23 24  1  0  0  0
 23 28  2  0  0  0
 24 25  2  0  0  0
 25 26  1  0  0  0
 26 27  2  0  0  0
 27 21  1  0  0  0
 27 28  1  0  0  0
 21 22  2  0  0  0
 21  1  1  0  0  0
  1  2  1  0  0  0
  1  9  2  0  0  0
  2  3  2  0  0  0
  3  4  1  0  0  0
  4  5  1  0  0  0
  4  8  2  0  0  0
  5 11  1  0  0  0
  5  6  2  0  0  0
 11 12  2  0  0  0
 11 19  1  0  0  0
 12 13  1  0  0  0
 13 14  1  0  0  0
 13 18  2  0  0  0
 14 15  2  0  0  0
 15 16  1  0  0  0
 16 17  2  0  0  0
 17 18  1  0  0  0
 18 19  1  0  0  0
 19 20  1  0  0  0
  6  7  1  0  0  0
  7  8  1  0  0  0
  7 10  1  0  0  0
  8  9  1  0  0  0
 33 34  1  0  0  0
 33 38  2  0  0  0
 34 35  2  0  0  0
 35 36  1  0  0  0
 36 37  2  0  0  0
 37 38  1  0  0  0
M  END
> <minimizedAffinity>
-11.01851

$$$$
