CHEMBL3981416


 32 35  0  0  0  0  0  0  0  0999 V2000
  -21.5887    1.6479  -14.3765 C   0  0  0  0  0  0  0  0  0  0  0  0
  -21.5892    2.9792  -14.8073 C   0  0  0  0  0  0  0  0  0  0  0  0
  -20.3976    3.6590  -15.0590 C   0  0  0  0  0  0  0  0  0  0  0  0
  -19.1779    3.0122  -14.8889 C   0  0  0  0  0  0  0  0  0  0  0  0
  -19.1424    1.6912  -14.4355 C   0  0  0  0  0  0  0  0  0  0  0  0
  -20.3487    1.0226  -14.1406 C   0  0  0  0  0  0  0  0  0  0  0  0
  -23.0755    0.0869  -13.1150 C   0  0  0  0  0  0  0  0  0  0  0  0
  -22.3215   -0.0895  -12.1596 O   0  0  0  0  0  0  0  0  0  0  0  0
  -22.7962    0.9103  -14.2058 N   0  0  0  0  0  0  0  0  0  0  0  0
  -23.5513    1.1031  -14.8554 H   0  0  0  0  0  0  0  0  0  0  0  0
  -26.8041   -1.5910  -10.2374 C   0  0  0  0  0  0  0  0  0  0  0  0
  -26.2186   -1.4278  -11.6114 C   0  0  0  0  0  0  0  0  0  0  0  0
  -26.8807   -1.9042  -12.7453 C   0  0  0  0  0  0  0  0  0  0  0  0
  -26.3161   -1.7316  -14.0120 C   0  0  0  0  0  0  0  0  0  0  0  0
  -25.0858   -1.0825  -14.1567 C   0  0  0  0  0  0  0  0  0  0  0  0
  -24.5897   -0.9312  -15.3938 F   0  0  0  0  0  0  0  0  0  0  0  0
  -24.3992   -0.6030  -13.0459 C   0  0  0  0  0  0  0  0  0  0  0  0
  -24.9816   -0.7832  -11.7730 C   0  0  0  0  0  0  0  0  0  0  0  0
  -17.8618    1.0340  -14.3560 C   0  0  0  0  0  0  0  0  0  0  0  0
  -16.8237    0.4267  -14.2744 C   0  0  0  0  0  0  0  0  0  0  0  0
  -15.5364   -0.2279  -14.1436 C   0  0  0  0  0  0  0  0  0  0  0  0
  -14.3571    0.3180  -14.8589 C   0  0  0  0  0  0  0  0  0  0  0  0
  -13.1908   -0.3123  -14.6848 C   0  0  0  0  0  0  0  0  0  0  0  0
  -13.1396   -1.4479  -13.8501 C   0  0  0  0  0  0  0  0  0  0  0  0
  -12.1305   -2.2255  -13.5239 N   0  0  0  0  0  0  0  0  0  0  0  0
  -12.6742   -3.1556  -12.7018 C   0  0  0  0  0  0  0  0  0  0  0  0
  -11.9046   -4.1122  -12.1904 N   0  0  0  0  0  0  0  0  0  0  0  0
  -14.0145   -2.9646  -12.5033 C   0  0  0  0  0  0  0  0  0  0  0  0
  -14.3252   -1.8568  -13.2507 N   0  0  0  0  0  0  0  0  0  0  0  0
  -15.5667   -1.2666  -13.3672 N   0  0  0  0  0  0  0  0  0  0  0  0
  -10.9082   -4.1056  -12.3769 H   0  0  0  0  0  0  0  0  0  0  0  0
  -12.2229   -4.8038  -11.5225 H   0  0  0  0  0  0  0  0  0  0  0  0
 11 12  1  0  0  0
 12 13  1  0  0  0
 12 18  2  0  0  0
 13 14  2  0  0  0
 14 15  1  0  0  0
 15 16  1  0  0  0
 15 17  2  0  0  0
 17  7  1  0  0  0
 17 18  1  0  0  0
  7  8  2  0  0  0
  7  9  1  0  0  0
  9  1  1  0  0  0
  9 10  1  0  0  0
  1  2  1  0  0  0
  1  6  2  0  0  0
  2  3  2  0  0  0
  3  4  1  0  0  0
  4  5  2  0  0  0
  5 19  1  0  0  0
  5  6  1  0  0  0
 19 20  3  0  0  0
 20 21  1  0  0  0
 21 22  1  0  0  0
 21 30  2  0  0  0
 22 23  2  0  0  0
 23 24  1  0  0  0
 24 25  2  0  0  0
 24 29  1  0  0  0
 25 26  1  0  0  0
 26 27  1  0  0  0
 26 28  2  0  0  0
 27 31  1  0  0  0
 27 32  1  0  0  0
 28 29  1  0  0  0
 29 30  1  0  0  0
M  END
> <minimizedAffinity>
-9.91296

$$$$
