CHEMBL2420867


 23 26  0  0  0  0  0  0  0  0999 V2000
  -12.6881   -3.3725  -10.7371 C   0  0  0  0  0  0  0  0  0  0  0  0
  -12.0768   -3.7923  -11.9128 C   0  0  0  0  0  0  0  0  0  0  0  0
  -12.8303   -4.4296  -12.9019 C   0  0  0  0  0  0  0  0  0  0  0  0
  -14.1858   -4.7388  -12.7051 C   0  0  0  0  0  0  0  0  0  0  0  0
  -14.8233   -4.2221  -11.5633 C   0  0  0  0  0  0  0  0  0  0  0  0
  -14.0673   -3.5430  -10.5917 C   0  0  0  0  0  0  0  0  0  0  0  0
  -16.3111   -4.3720  -11.3710 C   0  0  0  0  0  0  0  0  0  0  0  0
  -16.9242   -5.4310  -12.2801 C   0  0  0  0  0  0  0  0  0  0  0  0
  -16.3130   -5.3560  -13.6742 C   0  0  0  0  0  0  0  0  0  0  0  0
  -14.8721   -5.6224  -13.5713 N   0  0  0  0  0  0  0  0  0  0  0  0
  -14.3742   -6.7197  -14.3161 C   0  0  0  0  0  0  0  0  0  0  0  0
  -14.4063   -6.6076  -15.6590 N   0  0  0  0  0  0  0  0  0  0  0  0
  -13.8241   -7.5840  -16.3544 C   0  0  0  0  0  0  0  0  0  0  0  0
  -13.8981   -7.4456  -18.0552 Cl  0  0  0  0  0  0  0  0  0  0  0  0
  -13.1768   -8.6471  -15.8799 N   0  0  0  0  0  0  0  0  0  0  0  0
  -13.1710   -8.7758  -14.5555 C   0  0  0  0  0  0  0  0  0  0  0  0
  -12.4722   -9.8524  -14.0135 C   0  0  0  0  0  0  0  0  0  0  0  0
  -12.4091  -10.0861  -12.6359 C   0  0  0  0  0  0  0  0  0  0  0  0
  -13.1276   -9.2749  -11.7790 C   0  0  0  0  0  0  0  0  0  0  0  0
  -13.8627   -8.2191  -12.3105 C   0  0  0  0  0  0  0  0  0  0  0  0
  -13.8166   -7.8778  -13.6953 C   0  0  0  0  0  0  0  0  0  0  0  0
  -12.2398   -3.3998   -8.4062 C   0  0  0  0  0  0  0  0  0  0  0  0
  -12.0573   -2.7832   -9.6763 O   0  0  0  0  0  0  0  0  0  0  0  0
 22 23  1  0  0  0
 23  1  1  0  0  0
  1  2  1  0  0  0
  1  6  2  0  0  0
  2  3  2  0  0  0
  3  4  1  0  0  0
  4  5  2  0  0  0
  4 10  1  0  0  0
  5  6  1  0  0  0
  5  7  1  0  0  0
  7  8  1  0  0  0
  8  9  1  0  0  0
  9 10  1  0  0  0
 10 11  1  0  0  0
 11 12  1  0  0  0
 11 21  2  0  0  0
 12 13  2  0  0  0
 13 14  1  0  0  0
 13 15  1  0  0  0
 15 16  2  0  0  0
 16 17  1  0  0  0
 16 21  1  0  0  0
 17 18  2  0  0  0
 18 19  1  0  0  0
 19 20  2  0  0  0
 20 21  1  0  0  0
M  END
> <minimizedAffinity>
-7.40618

$$$$
