CHEMBL1997051


 46 51  0  0  0  0  0  0  0  0999 V2000
  -28.9144   -2.6170   -5.8813 C   0  0  0  0  0  0  0  0  0  0  0  0
  -29.5413   -2.7604   -4.6297 C   0  0  0  0  0  0  0  0  0  0  0  0
  -29.7477   -1.5297   -4.0106 N   0  0  0  0  0  0  0  0  0  0  0  0
  -29.2658   -0.6804   -4.8656 C   0  0  0  0  0  0  0  0  0  0  0  0
  -29.1417    1.0525   -4.9170 S   0  0  0  0  0  0  0  0  0  0  0  0
  -28.3980    0.9184   -6.5127 C   0  0  0  0  0  0  0  0  0  0  0  0
  -28.2849   -0.3573   -6.9327 C   0  0  0  0  0  0  0  0  0  0  0  0
  -28.7663   -1.2519   -5.9962 N   0  0  0  0  0  0  0  0  0  0  0  0
  -28.4273   -5.8238   -7.4686 C   0  0  0  0  0  0  0  0  0  0  0  0
  -27.8493   -5.5525   -8.6464 N   0  0  0  0  0  0  0  0  0  0  0  0
  -27.6577   -4.2529   -8.9529 C   0  0  0  0  0  0  0  0  0  0  0  0
  -27.9789   -3.2103   -8.1191 C   0  0  0  0  0  0  0  0  0  0  0  0
  -28.5556   -3.5721   -6.9294 C   0  0  0  0  0  0  0  0  0  0  0  0
  -28.7963   -4.8550   -6.6171 N   0  0  0  0  0  0  0  0  0  0  0  0
  -28.6304   -7.1779   -7.1549 N   0  0  0  0  0  0  0  0  0  0  0  0
  -27.8228   -7.5143   -6.6419 H   0  0  0  0  0  0  0  0  0  0  0  0
  -30.5101   -8.5635   -7.9134 C   0  0  0  0  0  0  0  0  0  0  0  0
  -30.9579   -9.7132   -8.5759 C   0  0  0  0  0  0  0  0  0  0  0  0
  -30.1299  -10.3710   -9.4769 C   0  0  0  0  0  0  0  0  0  0  0  0
  -28.8686   -9.8540   -9.7658 C   0  0  0  0  0  0  0  0  0  0  0  0
  -28.3921   -8.7714   -9.0171 C   0  0  0  0  0  0  0  0  0  0  0  0
  -29.1636   -8.1671   -8.0168 C   0  0  0  0  0  0  0  0  0  0  0  0
  -32.6922   -8.3361   -7.1273 C   0  0  0  0  0  0  0  0  0  0  0  0
  -31.3560   -7.8111   -7.1277 O   0  0  0  0  0  0  0  0  0  0  0  0
  -28.0352  -10.4292  -10.8875 C   0  0  0  0  0  0  0  0  0  0  0  0
  -28.1678   -9.6607  -12.1408 N   0  0  0  0  0  0  0  0  0  0  0  0
  -26.8723   -9.1486  -12.6049 C   0  0  0  0  0  0  0  0  0  0  0  0
  -28.7630  -10.5032  -13.1758 C   0  0  0  0  0  0  0  0  0  0  0  0
  -30.0355   -3.9923   -4.0131 C   0  0  0  0  0  0  0  0  0  0  0  0
  -31.4185   -4.1884   -3.9103 C   0  0  0  0  0  0  0  0  0  0  0  0
  -31.9240   -5.4048   -3.4615 C   0  0  0  0  0  0  0  0  0  0  0  0
  -31.0524   -6.4532   -3.1626 C   0  0  0  0  0  0  0  0  0  0  0  0
  -29.6694   -6.2882   -3.2597 C   0  0  0  0  0  0  0  0  0  0  0  0
  -29.1765   -5.0228   -3.5950 C   0  0  0  0  0  0  0  0  0  0  0  0
  -28.7298   -7.3448   -3.1136 N   0  0  0  0  0  0  0  0  0  0  0  0
  -28.6841   -8.4923   -3.8888 C   0  0  0  0  0  0  0  0  0  0  0  0
  -29.5007   -8.7875   -4.7582 O   0  0  0  0  0  0  0  0  0  0  0  0
  -27.9665   -7.1803   -2.4663 H   0  0  0  0  0  0  0  0  0  0  0  0
  -27.6048   -9.4778   -3.6422 C   0  0  0  0  0  0  0  0  0  0  0  0
  -27.8528  -10.8093   -3.3154 C   0  0  0  0  0  0  0  0  0  0  0  0
  -29.0936  -11.2308   -3.0280 F   0  0  0  0  0  0  0  0  0  0  0  0
  -26.8189  -11.7531   -3.3096 C   0  0  0  0  0  0  0  0  0  0  0  0
  -25.5142  -11.3696   -3.6214 C   0  0  0  0  0  0  0  0  0  0  0  0
  -25.2413  -10.0328   -3.8905 C   0  0  0  0  0  0  0  0  0  0  0  0
  -26.2782   -9.0997   -3.8890 C   0  0  0  0  0  0  0  0  0  0  0  0
  -25.9481   -7.8227   -4.1325 F   0  0  0  0  0  0  0  0  0  0  0  0
 23 24  1  0  0  0
 24 17  1  0  0  0
 17 18  1  0  0  0
 17 22  2  0  0  0
 18 19  2  0  0  0
 19 20  1  0  0  0
 20 25  1  0  0  0
 20 21  2  0  0  0
 25 26  1  0  0  0
 26 27  1  0  0  0
 26 28  1  0  0  0
 21 22  1  0  0  0
 22 15  1  0  0  0
 15  9  1  0  0  0
 15 16  1  0  0  0
  9 10  1  0  0  0
  9 14  2  0  0  0
 10 11  2  0  0  0
 11 12  1  0  0  0
 12 13  2  0  0  0
 13  1  1  0  0  0
 13 14  1  0  0  0
  1  2  2  0  0  0
  1  8  1  0  0  0
  2 29  1  0  0  0
  2  3  1  0  0  0
 29 30  1  0  0  0
 29 34  2  0  0  0
 30 31  2  0  0  0
 31 32  1  0  0  0
 32 33  2  0  0  0
 33 35  1  0  0  0
 33 34  1  0  0  0
 35 36  1  0  0  0
 35 38  1  0  0  0
 36 37  2  0  0  0
 36 39  1  0  0  0
 39 40  1  0  0  0
 39 45  2  0  0  0
 40 41  1  0  0  0
 40 42  2  0  0  0
 42 43  1  0  0  0
 43 44  2  0  0  0
 44 45  1  0  0  0
 45 46  1  0  0  0
  3  4  2  0  0  0
  4  5  1  0  0  0
  4  8  1  0  0  0
  5  6  1  0  0  0
  6  7  2  0  0  0
  7  8  1  0  0  0
M  END
> <minimizedAffinity>
-8.37534

$$$$
