CHEMBL3947740


 28 31  0  0  0  0  0  0  0  0999 V2000
  -29.6252   -4.6112   -4.8846 C   0  0  0  0  0  0  0  0  0  0  0  0
  -30.0012   -5.4221   -3.8104 C   0  0  0  0  0  0  0  0  0  0  0  0
  -29.7957   -6.7837   -3.8631 C   0  0  0  0  0  0  0  0  0  0  0  0
  -29.3737   -7.3958   -5.0129 C   0  0  0  0  0  0  0  0  0  0  0  0
  -29.0309   -8.6766   -4.8618 N   0  0  0  0  0  0  0  0  0  0  0  0
  -28.7860   -9.3589   -5.9839 C   0  0  0  0  0  0  0  0  0  0  0  0
  -28.9697   -8.8036   -7.2334 C   0  0  0  0  0  0  0  0  0  0  0  0
  -29.1990   -7.4581   -7.3936 N   0  0  0  0  0  0  0  0  0  0  0  0
  -29.3377   -6.6951   -6.2422 C   0  0  0  0  0  0  0  0  0  0  0  0
  -29.4013   -5.2624   -6.1273 C   0  0  0  0  0  0  0  0  0  0  0  0
  -29.0970   -9.7476   -8.3341 C   0  0  0  0  0  0  0  0  0  0  0  0
  -29.1276  -11.1653   -8.3003 C   0  0  0  0  0  0  0  0  0  0  0  0
  -28.9738  -11.7197   -9.5098 N   0  0  0  0  0  0  0  0  0  0  0  0
  -28.8414  -10.6595  -10.3246 N   0  0  0  0  0  0  0  0  0  0  0  0
  -28.8880  -10.8268  -11.7582 C   0  0  0  0  0  0  0  0  0  0  0  0
  -28.7665   -9.4698   -9.6497 C   0  0  0  0  0  0  0  0  0  0  0  0
  -29.3172   -3.2439   -4.5491 N   0  0  0  0  0  0  0  0  0  0  0  0
  -28.8131   -3.2251   -3.1511 C   0  0  0  0  0  0  0  0  0  0  0  0
  -29.4302    0.2879   -5.9065 C   0  0  0  0  0  0  0  0  0  0  0  0
  -28.5128    0.1943   -6.9473 C   0  0  0  0  0  0  0  0  0  0  0  0
  -27.9244   -1.0363   -7.2310 C   0  0  0  0  0  0  0  0  0  0  0  0
  -28.2287   -2.1704   -6.4608 C   0  0  0  0  0  0  0  0  0  0  0  0
  -29.0768   -2.1055   -5.3534 C   0  0  0  0  0  0  0  0  0  0  0  0
  -29.7206   -0.8586   -5.1527 C   0  0  0  0  0  0  0  0  0  0  0  0
  -31.1062    1.9017   -6.4206 C   0  0  0  0  0  0  0  0  0  0  0  0
  -30.1008    1.4243   -5.5302 O   0  0  0  0  0  0  0  0  0  0  0  0
  -27.0271   -1.2620   -8.2418 O   0  0  0  0  0  0  0  0  0  0  0  0
  -27.5082   -1.9966   -9.3600 C   0  0  0  0  0  0  0  0  0  0  0  0
 25 26  1  0  0  0
 26 19  1  0  0  0
 19 20  1  0  0  0
 19 24  2  0  0  0
 20 21  2  0  0  0
 21 27  1  0  0  0
 21 22  1  0  0  0
 27 28  1  0  0  0
 22 23  2  0  0  0
 23 17  1  0  0  0
 23 24  1  0  0  0
 17 18  1  0  0  0
 17  1  1  0  0  0
  1  2  1  0  0  0
  1 10  2  0  0  0
  2  3  2  0  0  0
  3  4  1  0  0  0
  4  5  1  0  0  0
  4  9  2  0  0  0
  5  6  2  0  0  0
  6  7  1  0  0  0
  7 11  1  0  0  0
  7  8  2  0  0  0
 11 12  1  0  0  0
 11 16  2  0  0  0
 12 13  2  0  0  0
 13 14  1  0  0  0
 14 15  1  0  0  0
 14 16  1  0  0  0
  8  9  1  0  0  0
  9 10  1  0  0  0
M  END
> <minimizedAffinity>
-7.94891

$$$$
