CHEMBL2023478


 33 36  0  0  0  0  0  0  0  0999 V2000
  -27.2484   -1.5010  -10.3161 C   0  0  0  0  0  0  0  0  0  0  0  0
  -25.9000   -1.6354   -9.9901 C   0  0  0  0  0  0  0  0  0  0  0  0
  -24.9382   -1.6288  -11.0086 C   0  0  0  0  0  0  0  0  0  0  0  0
  -25.3063   -1.5635  -12.3681 C   0  0  0  0  0  0  0  0  0  0  0  0
  -26.6746   -1.6732  -12.6794 C   0  0  0  0  0  0  0  0  0  0  0  0
  -27.6310   -1.6031  -11.6563 C   0  0  0  0  0  0  0  0  0  0  0  0
  -27.2192   -1.7218  -13.9367 O   0  0  0  0  0  0  0  0  0  0  0  0
  -28.4023   -2.4988  -14.1075 C   0  0  0  0  0  0  0  0  0  0  0  0
  -28.2571   -1.2345   -9.4218 O   0  0  0  0  0  0  0  0  0  0  0  0
  -28.8594   -5.2489   -6.1010 C   0  0  0  0  0  0  0  0  0  0  0  0
  -28.9027   -5.2164   -7.4855 C   0  0  0  0  0  0  0  0  0  0  0  0
  -28.5848   -4.0400   -8.1535 C   0  0  0  0  0  0  0  0  0  0  0  0
  -28.3282   -2.8292   -7.4678 C   0  0  0  0  0  0  0  0  0  0  0  0
  -28.1449   -1.5562   -8.0751 C   0  0  0  0  0  0  0  0  0  0  0  0
  -27.7583   -0.4751   -7.2887 C   0  0  0  0  0  0  0  0  0  0  0  0
  -27.6445   -0.6554   -5.9307 C   0  0  0  0  0  0  0  0  0  0  0  0
  -27.9037   -1.8230   -5.3055 N   0  0  0  0  0  0  0  0  0  0  0  0
  -28.2491   -2.8851   -6.0575 C   0  0  0  0  0  0  0  0  0  0  0  0
  -28.5192   -4.0884   -5.4068 C   0  0  0  0  0  0  0  0  0  0  0  0
  -30.2035   -7.1661   -5.8261 C   0  0  0  0  0  0  0  0  0  0  0  0
  -29.1219   -6.3606   -5.3464 O   0  0  0  0  0  0  0  0  0  0  0  0
  -24.2544   -1.3927  -13.4450 C   0  0  0  0  0  0  0  0  0  0  0  0
  -23.1769   -0.3492  -13.2080 C   0  0  0  0  0  0  0  0  0  0  0  0
  -22.4934   -0.3620  -12.1870 O   0  0  0  0  0  0  0  0  0  0  0  0
  -23.0648    0.5648  -14.2349 N   0  0  0  0  0  0  0  0  0  0  0  0
  -23.9153    0.8125  -14.7238 H   0  0  0  0  0  0  0  0  0  0  0  0
  -22.1156    1.5646  -14.2449 C   0  0  0  0  0  0  0  0  0  0  0  0
  -22.4817    2.8136  -13.9421 N   0  0  0  0  0  0  0  0  0  0  0  0
  -21.3329    3.5747  -14.0012 O   0  0  0  0  0  0  0  0  0  0  0  0
  -20.3038    2.8073  -14.4378 C   0  0  0  0  0  0  0  0  0  0  0  0
  -19.0149    3.5014  -14.6455 C   0  0  0  0  0  0  0  0  0  0  0  0
  -20.7420    1.5134  -14.6385 C   0  0  0  0  0  0  0  0  0  0  0  0
  -19.9739    0.3961  -15.2374 C   0  0  0  0  0  0  0  0  0  0  0  0
 20 21  1  0  0  0
 21 10  1  0  0  0
 10 11  1  0  0  0
 10 19  2  0  0  0
 11 12  2  0  0  0
 12 13  1  0  0  0
 13 14  1  0  0  0
 13 18  2  0  0  0
 14  9  1  0  0  0
 14 15  2  0  0  0
  9  1  1  0  0  0
  1  2  1  0  0  0
  1  6  2  0  0  0
  2  3  2  0  0  0
  3  4  1  0  0  0
  4 22  1  0  0  0
  4  5  2  0  0  0
 22 23  1  0  0  0
 23 24  2  0  0  0
 23 25  1  0  0  0
 25 27  1  0  0  0
 25 26  1  0  0  0
 27 28  2  0  0  0
 27 32  1  0  0  0
 28 29  1  0  0  0
 29 30  1  0  0  0
 30 31  1  0  0  0
 30 32  2  0  0  0
 32 33  1  0  0  0
  5  7  1  0  0  0
  5  6  1  0  0  0
  7  8  1  0  0  0
 15 16  1  0  0  0
 16 17  2  0  0  0
 17 18  1  0  0  0
 18 19  1  0  0  0
M  END
> <minimizedAffinity>
-9.60433

$$$$
