CHEMBL1982466


 37 41  0  0  0  0  0  0  0  0999 V2000
  -16.0032    1.0513  -15.7283 C   0  0  0  0  0  0  0  0  0  0  0  0
  -15.0151    0.9999  -16.7127 C   0  0  0  0  0  0  0  0  0  0  0  0
  -14.5094    2.1732  -17.2703 C   0  0  0  0  0  0  0  0  0  0  0  0
  -15.0160    3.4257  -16.8940 C   0  0  0  0  0  0  0  0  0  0  0  0
  -16.1041    3.4540  -16.0126 C   0  0  0  0  0  0  0  0  0  0  0  0
  -16.5860    2.2773  -15.4160 C   0  0  0  0  0  0  0  0  0  0  0  0
  -14.3949    4.6542  -17.4185 C   0  0  0  0  0  0  0  0  0  0  0  0
  -14.7453    5.0730  -18.6860 C   0  0  0  0  0  0  0  0  0  0  0  0
  -13.8925    6.4308  -19.2053 S   0  0  0  0  0  0  0  0  0  0  0  0
  -13.0658    6.6061  -17.6988 C   0  0  0  0  0  0  0  0  0  0  0  0
  -12.1483    7.6232  -17.3379 C   0  0  0  0  0  0  0  0  0  0  0  0
  -11.5882    7.4870  -16.0817 C   0  0  0  0  0  0  0  0  0  0  0  0
  -11.8379    6.4840  -15.2242 N   0  0  0  0  0  0  0  0  0  0  0  0
  -12.7083    5.5137  -15.5650 C   0  0  0  0  0  0  0  0  0  0  0  0
  -12.8317    4.5211  -14.5995 N   0  0  0  0  0  0  0  0  0  0  0  0
  -13.3873    5.5454  -16.8170 C   0  0  0  0  0  0  0  0  0  0  0  0
  -12.0962    4.6487  -13.9109 H   0  0  0  0  0  0  0  0  0  0  0  0
  -12.8884    3.5888  -14.9903 H   0  0  0  0  0  0  0  0  0  0  0  0
  -11.8200    8.7413  -18.2012 C   0  0  0  0  0  0  0  0  0  0  0  0
  -10.9621    8.8544  -19.3205 C   0  0  0  0  0  0  0  0  0  0  0  0
  -10.9753   10.0726  -19.8695 N   0  0  0  0  0  0  0  0  0  0  0  0
  -11.8502   10.7495  -19.1107 N   0  0  0  0  0  0  0  0  0  0  0  0
  -12.1596   12.1247  -19.4177 C   0  0  0  0  0  0  0  0  0  0  0  0
  -12.3892    9.9999  -18.1032 C   0  0  0  0  0  0  0  0  0  0  0  0
  -15.9574   -1.7773  -13.4582 N   0  0  0  0  0  0  0  0  0  0  0  0
  -15.4588   -0.6536  -14.0909 C   0  0  0  0  0  0  0  0  0  0  0  0
  -14.3596   -0.1555  -13.8707 O   0  0  0  0  0  0  0  0  0  0  0  0
  -16.3636   -0.1073  -14.9968 N   0  0  0  0  0  0  0  0  0  0  0  0
  -16.7603   -2.2205  -13.8800 H   0  0  0  0  0  0  0  0  0  0  0  0
  -17.3332   -0.1909  -14.7290 H   0  0  0  0  0  0  0  0  0  0  0  0
  -13.4564   -4.5597   -9.0970 C   0  0  0  0  0  0  0  0  0  0  0  0
  -14.1037   -3.8264  -10.2326 C   0  0  0  0  0  0  0  0  0  0  0  0
  -13.5416   -3.8780  -11.5052 C   0  0  0  0  0  0  0  0  0  0  0  0
  -14.1370   -3.1995  -12.5687 C   0  0  0  0  0  0  0  0  0  0  0  0
  -15.3153   -2.4676  -12.3978 C   0  0  0  0  0  0  0  0  0  0  0  0
  -15.8754   -2.4054  -11.1187 C   0  0  0  0  0  0  0  0  0  0  0  0
  -15.2730   -3.0799  -10.0443 C   0  0  0  0  0  0  0  0  0  0  0  0
 31 32  1  0  0  0
 32 33  1  0  0  0
 32 37  2  0  0  0
 33 34  2  0  0  0
 34 35  1  0  0  0
 35 25  1  0  0  0
 35 36  2  0  0  0
 25 26  1  0  0  0
 25 29  1  0  0  0
 26 27  2  0  0  0
 26 28  1  0  0  0
 28  1  1  0  0  0
 28 30  1  0  0  0
  1  2  1  0  0  0
  1  6  2  0  0  0
  2  3  2  0  0  0
  3  4  1  0  0  0
  4  7  1  0  0  0
  4  5  2  0  0  0
  7  8  2  0  0  0
  7 16  1  0  0  0
  8  9  1  0  0  0
  9 10  1  0  0  0
 10 11  1  0  0  0
 10 16  2  0  0  0
 11 19  1  0  0  0
 11 12  2  0  0  0
 19 20  1  0  0  0
 19 24  2  0  0  0
 20 21  2  0  0  0
 21 22  1  0  0  0
 22 23  1  0  0  0
 22 24  1  0  0  0
 12 13  1  0  0  0
 13 14  2  0  0  0
 14 15  1  0  0  0
 14 16  1  0  0  0
 15 17  1  0  0  0
 15 18  1  0  0  0
  5  6  1  0  0  0
 36 37  1  0  0  0
M  END
> <minimizedAffinity>
-7.37238

$$$$
