CHEMBL4098219


 38 42  0  0  0  0  0  0  0  0999 V2000
  -27.7918   -1.6444   -8.0902 N   0  0  0  0  0  0  0  0  0  0  0  0
  -27.1003   -2.5648   -8.8112 N   0  0  0  0  0  0  0  0  0  0  0  0
  -27.0598   -2.0166  -10.0173 C   0  0  0  0  0  0  0  0  0  0  0  0
  -27.7653   -0.8521  -10.1404 N   0  0  0  0  0  0  0  0  0  0  0  0
  -28.2259   -0.6282   -8.9385 C   0  0  0  0  0  0  0  0  0  0  0  0
  -28.9111    0.4745   -8.5633 N   0  0  0  0  0  0  0  0  0  0  0  0
  -29.3039    1.0395   -9.3115 H   0  0  0  0  0  0  0  0  0  0  0  0
  -29.4568    0.4625   -7.7050 H   0  0  0  0  0  0  0  0  0  0  0  0
  -30.1071   -5.0906   -5.0112 C   0  0  0  0  0  0  0  0  0  0  0  0
  -29.7121   -3.9517   -4.2870 C   0  0  0  0  0  0  0  0  0  0  0  0
  -29.0357   -2.8863   -4.8654 C   0  0  0  0  0  0  0  0  0  0  0  0
  -28.5993   -1.9164   -4.0541 N   0  0  0  0  0  0  0  0  0  0  0  0
  -27.8403   -0.9562   -4.5947 C   0  0  0  0  0  0  0  0  0  0  0  0
  -27.4902   -0.8658   -5.8780 N   0  0  0  0  0  0  0  0  0  0  0  0
  -28.0284   -1.8061   -6.6991 C   0  0  0  0  0  0  0  0  0  0  0  0
  -28.8029   -2.8995   -6.2385 C   0  0  0  0  0  0  0  0  0  0  0  0
  -29.2951   -4.0121   -6.9850 C   0  0  0  0  0  0  0  0  0  0  0  0
  -29.9506   -5.0978   -6.3932 C   0  0  0  0  0  0  0  0  0  0  0  0
  -29.6855   -6.9371   -3.6098 C   0  0  0  0  0  0  0  0  0  0  0  0
  -30.6296   -6.1870   -4.3762 O   0  0  0  0  0  0  0  0  0  0  0  0
  -30.3125   -6.0411   -7.3120 O   0  0  0  0  0  0  0  0  0  0  0  0
  -29.4372   -7.1185   -7.6004 C   0  0  0  0  0  0  0  0  0  0  0  0
  -26.3911   -2.5401  -11.0596 N   0  0  0  0  0  0  0  0  0  0  0  0
  -26.3191   -3.5487  -11.0886 H   0  0  0  0  0  0  0  0  0  0  0  0
  -25.4504   -1.8879  -11.8744 C   0  0  0  0  0  0  0  0  0  0  0  0
  -25.7429   -1.5597  -13.2011 C   0  0  0  0  0  0  0  0  0  0  0  0
  -24.7671   -1.0506  -14.0507 C   0  0  0  0  0  0  0  0  0  0  0  0
  -23.4632   -0.8792  -13.5967 C   0  0  0  0  0  0  0  0  0  0  0  0
  -23.1718   -1.1469  -12.2565 C   0  0  0  0  0  0  0  0  0  0  0  0
  -24.1604   -1.6425  -11.3978 C   0  0  0  0  0  0  0  0  0  0  0  0
  -22.4042   -0.4772  -14.3635 O   0  0  0  0  0  0  0  0  0  0  0  0
  -21.6819    0.6849  -13.9287 C   0  0  0  0  0  0  0  0  0  0  0  0
  -22.5936    1.9013  -14.1040 C   0  0  0  0  0  0  0  0  0  0  0  0
  -21.8158    3.1872  -13.8471 C   0  0  0  0  0  0  0  0  0  0  0  0
  -20.5668    3.2609  -14.7270 C   0  0  0  0  0  0  0  0  0  0  0  0
  -19.6901    2.1050  -14.4966 N   0  0  0  0  0  0  0  0  0  0  0  0
  -18.4915    2.1952  -15.3322 C   0  0  0  0  0  0  0  0  0  0  0  0
  -20.4003    0.8448  -14.7708 C   0  0  0  0  0  0  0  0  0  0  0  0
 19 20  1  0  0  0
 20  9  1  0  0  0
  9 10  1  0  0  0
  9 18  2  0  0  0
 10 11  2  0  0  0
 11 12  1  0  0  0
 11 16  1  0  0  0
 12 13  2  0  0  0
 13 14  1  0  0  0
 14 15  2  0  0  0
 15  1  1  0  0  0
 15 16  1  0  0  0
  1  2  1  0  0  0
  1  5  1  0  0  0
  2  3  2  0  0  0
  3 23  1  0  0  0
  3  4  1  0  0  0
 23 25  1  0  0  0
 23 24  1  0  0  0
 25 26  1  0  0  0
 25 30  2  0  0  0
 26 27  2  0  0  0
 27 28  1  0  0  0
 28 31  1  0  0  0
 28 29  2  0  0  0
 31 32  1  0  0  0
 32 33  1  0  0  0
 32 38  1  0  0  0
 33 34  1  0  0  0
 34 35  1  0  0  0
 35 36  1  0  0  0
 36 37  1  0  0  0
 36 38  1  0  0  0
 29 30  1  0  0  0
  4  5  2  0  0  0
  5  6  1  0  0  0
  6  7  1  0  0  0
  6  8  1  0  0  0
 16 17  2  0  0  0
 17 18  1  0  0  0
 18 21  1  0  0  0
 21 22  1  0  0  0
M  END
> <minimizedAffinity>
-9.58516

$$$$
