CHEMBL1241773


 24 26  0  0  0  0  0  0  0  0999 V2000
  -27.9798   -1.5884   -8.1986 C   0  0  0  0  0  0  0  0  0  0  0  0
  -28.2247   -0.4923   -7.4518 N   0  0  0  0  0  0  0  0  0  0  0  0
  -28.7293   -0.9809   -6.2951 N   0  0  0  0  0  0  0  0  0  0  0  0
  -28.7818   -2.3497   -6.2587 C   0  0  0  0  0  0  0  0  0  0  0  0
  -29.2360   -3.1140   -5.2485 N   0  0  0  0  0  0  0  0  0  0  0  0
  -29.1406   -4.4202   -5.5390 C   0  0  0  0  0  0  0  0  0  0  0  0
  -28.6453   -4.9841   -6.6567 N   0  0  0  0  0  0  0  0  0  0  0  0
  -28.1926   -4.1809   -7.6392 C   0  0  0  0  0  0  0  0  0  0  0  0
  -27.6610   -4.8313   -8.7438 N   0  0  0  0  0  0  0  0  0  0  0  0
  -28.2753   -2.7883   -7.4666 C   0  0  0  0  0  0  0  0  0  0  0  0
  -27.5279   -5.8173   -8.5463 H   0  0  0  0  0  0  0  0  0  0  0  0
  -26.8717   -4.3680   -9.1759 H   0  0  0  0  0  0  0  0  0  0  0  0
  -26.4810   -1.4873  -12.2164 C   0  0  0  0  0  0  0  0  0  0  0  0
  -25.5892   -1.5432  -11.1386 C   0  0  0  0  0  0  0  0  0  0  0  0
  -26.0749   -1.5380   -9.8204 C   0  0  0  0  0  0  0  0  0  0  0  0
  -27.4513   -1.4634   -9.5630 C   0  0  0  0  0  0  0  0  0  0  0  0
  -28.3201   -1.3023  -10.6481 C   0  0  0  0  0  0  0  0  0  0  0  0
  -27.8484   -1.3538  -11.9607 C   0  0  0  0  0  0  0  0  0  0  0  0
  -24.5759   -1.5428  -13.9607 C   0  0  0  0  0  0  0  0  0  0  0  0
  -26.0449   -1.5767  -13.6411 C   0  0  0  0  0  0  0  0  0  0  0  0
  -26.8854   -1.6916  -14.5316 O   0  0  0  0  0  0  0  0  0  0  0  0
  -29.1580   -0.0768   -5.2317 C   0  0  0  0  0  0  0  0  0  0  0  0
  -28.0041    0.7824   -4.7146 C   0  0  0  0  0  0  0  0  0  0  0  0
  -30.3356    0.7909   -5.6732 C   0  0  0  0  0  0  0  0  0  0  0  0
 19 20  1  0  0  0
 20 21  2  0  0  0
 20 13  1  0  0  0
 13 14  1  0  0  0
 13 18  2  0  0  0
 14 15  2  0  0  0
 15 16  1  0  0  0
 16  1  1  0  0  0
 16 17  2  0  0  0
  1  2  2  0  0  0
  1 10  1  0  0  0
  2  3  1  0  0  0
  3 22  1  0  0  0
  3  4  1  0  0  0
 22 23  1  0  0  0
 22 24  1  0  0  0
  4  5  1  0  0  0
  4 10  2  0  0  0
  5  6  2  0  0  0
  6  7  1  0  0  0
  7  8  2  0  0  0
  8  9  1  0  0  0
  8 10  1  0  0  0
  9 11  1  0  0  0
  9 12  1  0  0  0
 17 18  1  0  0  0
M  END
> <minimizedAffinity>
-7.91130

$$$$
