CHEMBL1981492


 16 17  0  0  0  0  0  0  0  0999 V2000
  -28.5376   -3.1180   -7.4788 C   0  0  0  0  0  0  0  0  0  0  0  0
  -27.6832   -2.5475   -8.4001 C   0  0  0  0  0  0  0  0  0  0  0  0
  -27.1963   -3.0945   -9.5145 N   0  0  0  0  0  0  0  0  0  0  0  0
  -27.3137   -1.2840   -8.0853 N   0  0  0  0  0  0  0  0  0  0  0  0
  -27.9467   -1.0251   -6.9642 C   0  0  0  0  0  0  0  0  0  0  0  0
  -27.9468    0.1448   -6.1526 C   0  0  0  0  0  0  0  0  0  0  0  0
  -28.6902    0.1845   -5.0313 C   0  0  0  0  0  0  0  0  0  0  0  0
  -29.5044   -0.9486   -4.6270 C   0  0  0  0  0  0  0  0  0  0  0  0
  -29.5051   -2.0590   -5.3846 C   0  0  0  0  0  0  0  0  0  0  0  0
  -28.7280   -2.1060   -6.5487 N   0  0  0  0  0  0  0  0  0  0  0  0
  -27.2584   -4.0952   -9.6749 H   0  0  0  0  0  0  0  0  0  0  0  0
  -26.4253   -2.6304   -9.9806 H   0  0  0  0  0  0  0  0  0  0  0  0
  -29.1193   -4.4318   -7.4267 C   0  0  0  0  0  0  0  0  0  0  0  0
  -30.1986   -4.7226   -6.9251 O   0  0  0  0  0  0  0  0  0  0  0  0
  -28.7171   -6.6986   -7.9334 C   0  0  0  0  0  0  0  0  0  0  0  0
  -28.2783   -5.3422   -8.0020 O   0  0  0  0  0  0  0  0  0  0  0  0
 15 16  1  0  0  0
 16 13  1  0  0  0
 13 14  2  0  0  0
 13  1  1  0  0  0
  1  2  2  0  0  0
  1 10  1  0  0  0
  2  3  1  0  0  0
  2  4  1  0  0  0
  3 11  1  0  0  0
  3 12  1  0  0  0
  4  5  2  0  0  0
  5  6  1  0  0  0
  5 10  1  0  0  0
  6  7  2  0  0  0
  7  8  1  0  0  0
  8  9  2  0  0  0
  9 10  1  0  0  0
M  END
> <minimizedAffinity>
-6.11065

$$$$
