CHEMBL179603


 35 38  0  0  0  0  0  0  0  0999 V2000
  -25.2677   -1.2131  -12.4152 C   0  0  0  0  0  0  0  0  0  0  0  0
  -24.8948   -1.3449  -11.0705 C   0  0  0  0  0  0  0  0  0  0  0  0
  -25.8437   -1.6407  -10.0768 C   0  0  0  0  0  0  0  0  0  0  0  0
  -27.1875   -1.7776  -10.4157 C   0  0  0  0  0  0  0  0  0  0  0  0
  -27.5601   -1.6143  -11.7578 C   0  0  0  0  0  0  0  0  0  0  0  0
  -26.6163   -1.3035  -12.7500 C   0  0  0  0  0  0  0  0  0  0  0  0
  -22.5402    0.0191  -14.4928 N   0  0  0  0  0  0  0  0  0  0  0  0
  -23.4621    0.0359  -13.4533 C   0  0  0  0  0  0  0  0  0  0  0  0
  -23.5232    0.9057  -12.5910 O   0  0  0  0  0  0  0  0  0  0  0  0
  -24.2990   -1.0745  -13.4501 N   0  0  0  0  0  0  0  0  0  0  0  0
  -22.7354   -0.5894  -15.2685 H   0  0  0  0  0  0  0  0  0  0  0  0
  -23.8651   -1.9280  -13.7731 H   0  0  0  0  0  0  0  0  0  0  0  0
  -19.3190    2.7744  -14.9574 C   0  0  0  0  0  0  0  0  0  0  0  0
  -20.5520    3.2127  -14.4987 C   0  0  0  0  0  0  0  0  0  0  0  0
  -21.6089    2.3084  -14.3400 C   0  0  0  0  0  0  0  0  0  0  0  0
  -21.4748    0.9513  -14.6438 C   0  0  0  0  0  0  0  0  0  0  0  0
  -20.2268    0.5097  -15.0932 C   0  0  0  0  0  0  0  0  0  0  0  0
  -19.1588    1.4176  -15.2514 C   0  0  0  0  0  0  0  0  0  0  0  0
  -17.1972    3.0260  -15.9901 C   0  0  0  0  0  0  0  0  0  0  0  0
  -18.2228    3.5697  -15.1602 O   0  0  0  0  0  0  0  0  0  0  0  0
  -28.2055   -2.1992   -9.5894 O   0  0  0  0  0  0  0  0  0  0  0  0
  -28.2104   -1.9868   -8.2111 C   0  0  0  0  0  0  0  0  0  0  0  0
  -27.8254   -0.8012   -7.7059 N   0  0  0  0  0  0  0  0  0  0  0  0
  -27.8843   -0.6979   -6.3758 C   0  0  0  0  0  0  0  0  0  0  0  0
  -28.3083   -1.6397   -5.5249 N   0  0  0  0  0  0  0  0  0  0  0  0
  -28.7046   -2.8027   -6.0498 C   0  0  0  0  0  0  0  0  0  0  0  0
  -29.1557   -3.7971   -5.1908 C   0  0  0  0  0  0  0  0  0  0  0  0
  -29.5763   -5.0597   -5.6402 C   0  0  0  0  0  0  0  0  0  0  0  0
  -29.5662   -5.3164   -7.0184 C   0  0  0  0  0  0  0  0  0  0  0  0
  -29.1298   -4.3098   -7.8952 C   0  0  0  0  0  0  0  0  0  0  0  0
  -28.6836   -3.0513   -7.4226 C   0  0  0  0  0  0  0  0  0  0  0  0
  -30.0083   -6.0424   -4.7889 O   0  0  0  0  0  0  0  0  0  0  0  0
  -31.3505   -5.9871   -4.3179 C   0  0  0  0  0  0  0  0  0  0  0  0
  -29.9398   -6.4551   -7.6828 O   0  0  0  0  0  0  0  0  0  0  0  0
  -28.9440   -7.4040   -8.0361 C   0  0  0  0  0  0  0  0  0  0  0  0
 19 20  1  0  0  0
 20 13  1  0  0  0
 13 14  1  0  0  0
 13 18  2  0  0  0
 14 15  2  0  0  0
 15 16  1  0  0  0
 16  7  1  0  0  0
 16 17  2  0  0  0
  7  8  1  0  0  0
  7 11  1  0  0  0
  8  9  2  0  0  0
  8 10  1  0  0  0
 10  1  1  0  0  0
 10 12  1  0  0  0
  1  2  1  0  0  0
  1  6  2  0  0  0
  2  3  2  0  0  0
  3  4  1  0  0  0
  4 21  1  0  0  0
  4  5  2  0  0  0
 21 22  1  0  0  0
 22 23  1  0  0  0
 22 31  2  0  0  0
 23 24  2  0  0  0
 24 25  1  0  0  0
 25 26  2  0  0  0
 26 27  1  0  0  0
 26 31  1  0  0  0
 27 28  2  0  0  0
 28 32  1  0  0  0
 28 29  1  0  0  0
 32 33  1  0  0  0
 29 34  1  0  0  0
 29 30  2  0  0  0
 34 35  1  0  0  0
 30 31  1  0  0  0
  5  6  1  0  0  0
 17 18  1  0  0  0
M  END
> <minimizedAffinity>
-10.15045

$$$$
