CHEMBL3764474


 38 42  0  0  0  0  0  0  0  0999 V2000
  -14.1281   -1.1957  -13.2987 C   0  0  0  0  0  0  0  0  0  0  0  0
  -13.5007   -0.8168  -14.4871 C   0  0  0  0  0  0  0  0  0  0  0  0
  -14.1478    0.0542  -15.3756 C   0  0  0  0  0  0  0  0  0  0  0  0
  -15.4417    0.5235  -15.1052 C   0  0  0  0  0  0  0  0  0  0  0  0
  -16.0199    0.2152  -13.8785 C   0  0  0  0  0  0  0  0  0  0  0  0
  -15.3541   -0.6131  -12.9774 C   0  0  0  0  0  0  0  0  0  0  0  0
  -15.9368   -0.8434  -11.7916 F   0  0  0  0  0  0  0  0  0  0  0  0
  -16.0591    1.3261  -16.0879 N   0  0  0  0  0  0  0  0  0  0  0  0
  -16.5253    0.8088  -16.8337 H   0  0  0  0  0  0  0  0  0  0  0  0
  -16.2897    2.6837  -16.1360 C   0  0  0  0  0  0  0  0  0  0  0  0
  -15.1905    3.9424  -16.1581 S   0  0  0  0  0  0  0  0  0  0  0  0
  -17.6284    3.0471  -16.1186 N   0  0  0  0  0  0  0  0  0  0  0  0
  -18.5181    3.0039  -15.0562 C   0  0  0  0  0  0  0  0  0  0  0  0
  -18.1805    2.7150  -13.9079 O   0  0  0  0  0  0  0  0  0  0  0  0
  -17.9627    3.3994  -17.0069 H   0  0  0  0  0  0  0  0  0  0  0  0
  -19.9442    3.3683  -15.4131 C   0  0  0  0  0  0  0  0  0  0  0  0
  -20.9683    2.3991  -14.8763 C   0  0  0  0  0  0  0  0  0  0  0  0
  -20.7738    1.0160  -14.9957 C   0  0  0  0  0  0  0  0  0  0  0  0
  -21.6745    0.1221  -14.4123 C   0  0  0  0  0  0  0  0  0  0  0  0
  -22.7783    0.5994  -13.7085 C   0  0  0  0  0  0  0  0  0  0  0  0
  -22.9934    1.9709  -13.6008 C   0  0  0  0  0  0  0  0  0  0  0  0
  -22.0944    2.8663  -14.1814 C   0  0  0  0  0  0  0  0  0  0  0  0
  -13.4495   -2.0895  -12.4996 O   0  0  0  0  0  0  0  0  0  0  0  0
  -14.1654   -5.5794  -15.1159 C   0  0  0  0  0  0  0  0  0  0  0  0
  -13.7863   -4.3879  -14.5172 C   0  0  0  0  0  0  0  0  0  0  0  0
  -14.1715   -4.3004  -13.1331 C   0  0  0  0  0  0  0  0  0  0  0  0
  -14.0563   -3.2838  -12.1556 C   0  0  0  0  0  0  0  0  0  0  0  0
  -14.6341   -3.5148  -10.8999 C   0  0  0  0  0  0  0  0  0  0  0  0
  -15.1910   -4.7516  -10.6351 C   0  0  0  0  0  0  0  0  0  0  0  0
  -15.2848   -5.7635  -11.5131 N   0  0  0  0  0  0  0  0  0  0  0  0
  -14.7793   -5.4821  -12.7322 C   0  0  0  0  0  0  0  0  0  0  0  0
  -14.8454   -6.6427  -13.9627 S   0  0  0  0  0  0  0  0  0  0  0  0
  -13.3207   -3.7070  -17.5018 C   0  0  0  0  0  0  0  0  0  0  0  0
  -13.6385   -5.1146  -17.5467 N   0  0  0  0  0  0  0  0  0  0  0  0
  -13.5842   -5.8755  -18.6854 C   0  0  0  0  0  0  0  0  0  0  0  0
  -13.8507   -7.1563  -18.2733 C   0  0  0  0  0  0  0  0  0  0  0  0
  -14.0625   -7.1956  -16.9203 N   0  0  0  0  0  0  0  0  0  0  0  0
  -13.9697   -5.9467  -16.4953 C   0  0  0  0  0  0  0  0  0  0  0  0
 33 34  1  0  0  0
 34 35  1  0  0  0
 34 38  1  0  0  0
 35 36  2  0  0  0
 36 37  1  0  0  0
 37 38  2  0  0  0
 38 24  1  0  0  0
 24 25  2  0  0  0
 24 32  1  0  0  0
 25 26  1  0  0  0
 26 27  1  0  0  0
 26 31  2  0  0  0
 27 23  1  0  0  0
 27 28  2  0  0  0
 23  1  1  0  0  0
  1  2  1  0  0  0
  1  6  2  0  0  0
  2  3  2  0  0  0
  3  4  1  0  0  0
  4  8  1  0  0  0
  4  5  2  0  0  0
  8 10  1  0  0  0
  8  9  1  0  0  0
 10 11  2  0  0  0
 10 12  1  0  0  0
 12 13  1  0  0  0
 12 15  1  0  0  0
 13 14  2  0  0  0
 13 16  1  0  0  0
 16 17  1  0  0  0
 17 18  1  0  0  0
 17 22  2  0  0  0
 18 19  2  0  0  0
 19 20  1  0  0  0
 20 21  2  0  0  0
 21 22  1  0  0  0
  5  6  1  0  0  0
  6  7  1  0  0  0
 28 29  1  0  0  0
 29 30  2  0  0  0
 30 31  1  0  0  0
 31 32  1  0  0  0
M  END
> <minimizedAffinity>
-9.16747

$$$$
