CHEMBL3671477


 41 44  0  0  0  0  0  0  0  0999 V2000
  -27.9296   -9.6395   -7.8488 C   0  0  0  0  0  0  0  0  0  0  0  0
  -27.4304  -10.6587   -7.0331 C   0  0  0  0  0  0  0  0  0  0  0  0
  -27.6948  -10.7545   -5.6586 C   0  0  0  0  0  0  0  0  0  0  0  0
  -27.0495  -11.6704   -4.8135 C   0  0  0  0  0  0  0  0  0  0  0  0
  -27.3353  -11.7383   -3.5063 N   0  0  0  0  0  0  0  0  0  0  0  0
  -28.2554  -10.8807   -3.0486 C   0  0  0  0  0  0  0  0  0  0  0  0
  -28.8807   -9.9333   -3.7640 N   0  0  0  0  0  0  0  0  0  0  0  0
  -28.5837   -9.8660   -5.0687 C   0  0  0  0  0  0  0  0  0  0  0  0
  -29.1326   -8.8736   -5.8811 C   0  0  0  0  0  0  0  0  0  0  0  0
  -28.8222   -8.7256   -7.2575 C   0  0  0  0  0  0  0  0  0  0  0  0
  -28.1560   -9.7376  -10.3457 C   0  0  0  0  0  0  0  0  0  0  0  0
  -29.3658   -9.8368  -10.4961 O   0  0  0  0  0  0  0  0  0  0  0  0
  -27.4401   -9.5536   -9.1784 N   0  0  0  0  0  0  0  0  0  0  0  0
  -26.4648   -9.3802   -9.3195 H   0  0  0  0  0  0  0  0  0  0  0  0
  -27.8534   -9.7809  -12.7372 C   0  0  0  0  0  0  0  0  0  0  0  0
  -27.2732   -9.8050  -11.5321 C   0  0  0  0  0  0  0  0  0  0  0  0
  -25.9920  -12.4646   -5.3289 N   0  0  0  0  0  0  0  0  0  0  0  0
  -25.9488  -13.3903   -4.9108 H   0  0  0  0  0  0  0  0  0  0  0  0
  -24.7355  -11.9935   -5.7557 C   0  0  0  0  0  0  0  0  0  0  0  0
  -24.2497  -12.2908   -7.0349 C   0  0  0  0  0  0  0  0  0  0  0  0
  -23.0565  -11.7324   -7.4936 C   0  0  0  0  0  0  0  0  0  0  0  0
  -22.3327  -10.8777   -6.6648 C   0  0  0  0  0  0  0  0  0  0  0  0
  -20.7706  -10.0452   -7.3257 Br  0  0  0  0  0  0  0  0  0  0  0  0
  -22.7629  -10.6166   -5.3669 C   0  0  0  0  0  0  0  0  0  0  0  0
  -23.9526  -11.1856   -4.9216 C   0  0  0  0  0  0  0  0  0  0  0  0
  -24.3731  -10.9199   -3.6744 F   0  0  0  0  0  0  0  0  0  0  0  0
  -29.4690   -7.6358   -7.7884 O   0  0  0  0  0  0  0  0  0  0  0  0
  -28.9054   -6.3414   -7.6989 C   0  0  0  0  0  0  0  0  0  0  0  0
  -29.9010   -5.2588   -7.2478 C   0  0  0  0  0  0  0  0  0  0  0  0
  -29.4574   -3.8489   -7.6484 C   0  0  0  0  0  0  0  0  0  0  0  0
  -28.3654   -3.2862   -6.7508 C   0  0  0  0  0  0  0  0  0  0  0  0
  -28.7379   -3.3652   -5.3383 N   0  0  0  0  0  0  0  0  0  0  0  0
  -28.3545   -2.4124   -4.3830 C   0  0  0  0  0  0  0  0  0  0  0  0
  -28.6570   -2.5343   -3.1989 O   0  0  0  0  0  0  0  0  0  0  0  0
  -29.1646   -4.6825   -4.8610 C   0  0  0  0  0  0  0  0  0  0  0  0
  -30.2337   -5.3057   -5.7523 C   0  0  0  0  0  0  0  0  0  0  0  0
  -27.5997   -1.2284   -4.9171 C   0  0  0  0  0  0  0  0  0  0  0  0
  -28.5872    0.2031   -5.2137 S   0  0  0  0  0  0  0  0  0  0  0  0
  -28.2774    0.6447   -6.9048 C   0  0  0  0  0  0  0  0  0  0  0  0
  -29.9947   -0.1245   -5.0447 O   0  0  0  0  0  0  0  0  0  0  0  0
  -27.9973    1.2548   -4.3986 O   0  0  0  0  0  0  0  0  0  0  0  0
 15 16  2  0  0  0
 16 11  1  0  0  0
 11 12  2  0  0  0
 11 13  1  0  0  0
 13  1  1  0  0  0
 13 14  1  0  0  0
  1  2  1  0  0  0
  1 10  2  0  0  0
  2  3  2  0  0  0
  3  4  1  0  0  0
  3  8  1  0  0  0
  4 17  1  0  0  0
  4  5  2  0  0  0
 17 19  1  0  0  0
 17 18  1  0  0  0
 19 20  1  0  0  0
 19 25  2  0  0  0
 20 21  2  0  0  0
 21 22  1  0  0  0
 22 23  1  0  0  0
 22 24  2  0  0  0
 24 25  1  0  0  0
 25 26  1  0  0  0
  5  6  1  0  0  0
  6  7  2  0  0  0
  7  8  1  0  0  0
  8  9  2  0  0  0
  9 10  1  0  0  0
 10 27  1  0  0  0
 27 28  1  0  0  0
 28 29  1  0  0  0
 29 30  1  0  0  0
 29 36  1  0  0  0
 30 31  1  0  0  0
 31 32  1  0  0  0
 32 33  1  0  0  0
 32 35  1  0  0  0
 33 34  2  0  0  0
 33 37  1  0  0  0
 37 38  1  0  0  0
 38 39  1  0  0  0
 38 40  2  0  0  0
 38 41  2  0  0  0
 35 36  1  0  0  0
M  END
> <minimizedAffinity>
-8.25169

$$$$
