CHEMBL3656065


 53 56  0  0  0  0  0  0  0  0999 V2000
  -20.3209    2.1435  -14.7367 C   0  0  0  0  0  0  0  0  0  0  0  0
  -20.7287    0.8198  -14.8233 C   0  0  0  0  0  0  0  0  0  0  0  0
  -21.9648    0.4649  -14.2901 C   0  0  0  0  0  0  0  0  0  0  0  0
  -22.8091    1.4641  -13.8224 C   0  0  0  0  0  0  0  0  0  0  0  0
  -22.3337    2.7678  -13.8155 C   0  0  0  0  0  0  0  0  0  0  0  0
  -21.0926    3.1268  -14.2218 N   0  0  0  0  0  0  0  0  0  0  0  0
  -16.7481    2.6652  -15.6473 C   0  0  0  0  0  0  0  0  0  0  0  0
  -17.3059    3.9295  -15.7523 C   0  0  0  0  0  0  0  0  0  0  0  0
  -18.6550    3.8346  -15.4909 N   0  0  0  0  0  0  0  0  0  0  0  0
  -18.9837    2.5416  -15.1568 C   0  0  0  0  0  0  0  0  0  0  0  0
  -17.8192    1.8050  -15.2642 C   0  0  0  0  0  0  0  0  0  0  0  0
  -19.3232    4.5965  -15.5004 H   0  0  0  0  0  0  0  0  0  0  0  0
  -15.1964    0.9342  -16.2646 N   0  0  0  0  0  0  0  0  0  0  0  0
  -15.3661    2.2300  -15.8414 C   0  0  0  0  0  0  0  0  0  0  0  0
  -14.4205    2.9967  -15.6918 O   0  0  0  0  0  0  0  0  0  0  0  0
  -16.0115    0.3758  -16.4747 H   0  0  0  0  0  0  0  0  0  0  0  0
  -13.8721    0.3978  -16.6179 C   0  0  0  0  0  0  0  0  0  0  0  0
  -13.5567   -1.5756  -18.0920 N   0  0  0  0  0  0  0  0  0  0  0  0
  -13.8612   -0.2320  -18.0350 C   0  0  0  0  0  0  0  0  0  0  0  0
  -14.0750    0.4293  -19.0487 O   0  0  0  0  0  0  0  0  0  0  0  0
  -13.8106   -2.1107  -17.2712 H   0  0  0  0  0  0  0  0  0  0  0  0
  -13.8216   -3.7361  -19.2087 C   0  0  0  0  0  0  0  0  0  0  0  0
  -13.5539   -2.2548  -19.3683 C   0  0  0  0  0  0  0  0  0  0  0  0
  -13.4632   -0.6257  -15.5524 C   0  0  0  0  0  0  0  0  0  0  0  0
  -13.3683   -0.0948  -14.1171 C   0  0  0  0  0  0  0  0  0  0  0  0
  -14.5786   -0.5228  -13.3284 C   0  0  0  0  0  0  0  0  0  0  0  0
  -15.0508    0.1260  -12.4047 O   0  0  0  0  0  0  0  0  0  0  0  0
  -15.0624   -1.7064  -13.7957 O   0  0  0  0  0  0  0  0  0  0  0  0
  -14.9641   -2.8885  -12.9574 C   0  0  0  0  0  0  0  0  0  0  0  0
  -15.2264   -4.1662  -13.7661 C   0  0  0  0  0  0  0  0  0  0  0  0
  -13.5139   -2.9342  -12.4478 C   0  0  0  0  0  0  0  0  0  0  0  0
  -15.8902   -2.7639  -11.7407 C   0  0  0  0  0  0  0  0  0  0  0  0
  -22.4175   -0.8397  -14.2225 O   0  0  0  0  0  0  0  0  0  0  0  0
  -23.4919   -1.1292  -13.4023 C   0  0  0  0  0  0  0  0  0  0  0  0
  -23.4026   -1.2187  -12.0131 C   0  0  0  0  0  0  0  0  0  0  0  0
  -24.5064   -1.6140  -11.2566 C   0  0  0  0  0  0  0  0  0  0  0  0
  -25.7399   -1.8740  -11.8562 C   0  0  0  0  0  0  0  0  0  0  0  0
  -25.8465   -1.6628  -13.2368 C   0  0  0  0  0  0  0  0  0  0  0  0
  -27.0286   -1.8513  -13.8445 F   0  0  0  0  0  0  0  0  0  0  0  0
  -24.7382   -1.3021  -14.0113 C   0  0  0  0  0  0  0  0  0  0  0  0
  -26.8618   -2.3534  -11.1250 N   0  0  0  0  0  0  0  0  0  0  0  0
  -27.1313   -2.0477   -9.8018 C   0  0  0  0  0  0  0  0  0  0  0  0
  -26.4414   -1.3150   -9.0993 O   0  0  0  0  0  0  0  0  0  0  0  0
  -28.2499   -2.7104   -9.3178 N   0  0  0  0  0  0  0  0  0  0  0  0
  -27.4246   -3.0620  -11.5871 H   0  0  0  0  0  0  0  0  0  0  0  0
  -28.3974   -3.6280   -9.7103 H   0  0  0  0  0  0  0  0  0  0  0  0
  -28.6418   -2.5476   -7.9646 C   0  0  0  0  0  0  0  0  0  0  0  0
  -29.3105   -3.5963   -7.3339 C   0  0  0  0  0  0  0  0  0  0  0  0
  -29.6336   -3.5025   -5.9791 C   0  0  0  0  0  0  0  0  0  0  0  0
  -29.3453   -2.3391   -5.2641 C   0  0  0  0  0  0  0  0  0  0  0  0
  -28.7187   -1.2592   -5.8939 C   0  0  0  0  0  0  0  0  0  0  0  0
  -28.4549    0.0150   -5.1451 C   0  0  0  0  0  0  0  0  0  0  0  0
  -28.3543   -1.3785   -7.2446 C   0  0  0  0  0  0  0  0  0  0  0  0
 22 23  1  0  0  0
 23 18  1  0  0  0
 18 19  1  0  0  0
 18 21  1  0  0  0
 19 20  2  0  0  0
 17 13  1  0  0  0
 17 24  1  0  0  0
 17 19  1  0  0  0
 24 25  1  0  0  0
 25 26  1  0  0  0
 26 27  2  0  0  0
 26 28  1  0  0  0
 28 29  1  0  0  0
 29 30  1  0  0  0
 29 31  1  0  0  0
 29 32  1  0  0  0
 13 14  1  0  0  0
 13 16  1  0  0  0
 14 15  2  0  0  0
 14  7  1  0  0  0
  7  8  2  0  0  0
  7 11  1  0  0  0
  8  9  1  0  0  0
  9 10  1  0  0  0
  9 12  1  0  0  0
 10  1  1  0  0  0
 10 11  2  0  0  0
  1  2  1  0  0  0
  1  6  2  0  0  0
  2  3  2  0  0  0
  3 33  1  0  0  0
  3  4  1  0  0  0
 33 34  1  0  0  0
 34 35  1  0  0  0
 34 40  2  0  0  0
 35 36  2  0  0  0
 36 37  1  0  0  0
 37 41  1  0  0  0
 37 38  2  0  0  0
 41 42  1  0  0  0
 41 45  1  0  0  0
 42 43  2  0  0  0
 42 44  1  0  0  0
 44 47  1  0  0  0
 44 46  1  0  0  0
 47 48  1  0  0  0
 47 53  2  0  0  0
 48 49  2  0  0  0
 49 50  1  0  0  0
 50 51  2  0  0  0
 51 52  1  0  0  0
 51 53  1  0  0  0
 38 39  1  0  0  0
 38 40  1  0  0  0
  4  5  2  0  0  0
  5  6  1  0  0  0
M  END
> <minimizedAffinity>
-11.29126

$$$$
