CHEMBL3927849


 37 42  0  0  0  0  0  0  0  0999 V2000
  -28.7996   -8.9117   -5.8572 C   0  0  0  0  0  0  0  0  0  0  0  0
  -27.9828   -9.8927   -6.4304 C   0  0  0  0  0  0  0  0  0  0  0  0
  -27.6069   -9.8378   -7.7838 C   0  0  0  0  0  0  0  0  0  0  0  0
  -26.8268  -10.8069   -8.4293 C   0  0  0  0  0  0  0  0  0  0  0  0
  -26.4508  -10.6672   -9.7119 N   0  0  0  0  0  0  0  0  0  0  0  0
  -26.8658   -9.5751  -10.3525 C   0  0  0  0  0  0  0  0  0  0  0  0
  -27.6323   -8.6064   -9.8399 N   0  0  0  0  0  0  0  0  0  0  0  0
  -27.9951   -8.7518   -8.5631 C   0  0  0  0  0  0  0  0  0  0  0  0
  -28.7919   -7.7715   -7.9918 C   0  0  0  0  0  0  0  0  0  0  0  0
  -29.2303   -7.8334   -6.6545 C   0  0  0  0  0  0  0  0  0  0  0  0
  -28.1687   -9.3314   -3.6061 C   0  0  0  0  0  0  0  0  0  0  0  0
  -29.1817   -8.9457   -4.5389 O   0  0  0  0  0  0  0  0  0  0  0  0
  -26.4293  -11.9860   -7.7254 N   0  0  0  0  0  0  0  0  0  0  0  0
  -26.4571  -12.7720   -8.3696 H   0  0  0  0  0  0  0  0  0  0  0  0
  -25.3139  -12.0060   -6.8614 C   0  0  0  0  0  0  0  0  0  0  0  0
  -25.4661  -12.4524   -5.5416 C   0  0  0  0  0  0  0  0  0  0  0  0
  -24.4330  -12.3253   -4.6144 C   0  0  0  0  0  0  0  0  0  0  0  0
  -23.2190  -11.7663   -5.0069 C   0  0  0  0  0  0  0  0  0  0  0  0
  -21.9168  -11.4861   -3.6536 Br  0  0  0  0  0  0  0  0  0  0  0  0
  -23.0214  -11.3998   -6.3432 C   0  0  0  0  0  0  0  0  0  0  0  0
  -21.5333  -10.7243   -6.9082 Cl  0  0  0  0  0  0  0  0  0  0  0  0
  -24.0631  -11.5358   -7.2736 C   0  0  0  0  0  0  0  0  0  0  0  0
  -30.1028   -6.9160   -6.1187 O   0  0  0  0  0  0  0  0  0  0  0  0
  -29.6066   -6.1167   -5.0208 C   0  0  0  0  0  0  0  0  0  0  0  0
  -28.2418   -5.4905   -5.3150 C   0  0  0  0  0  0  0  0  0  0  0  0
  -28.4717   -4.2177   -5.9339 O   0  0  0  0  0  0  0  0  0  0  0  0
  -29.6859   -3.6995   -5.3720 C   0  0  0  0  0  0  0  0  0  0  0  0
  -30.4864   -4.8826   -4.8326 C   0  0  0  0  0  0  0  0  0  0  0  0
  -30.7178   -4.6426   -3.4316 O   0  0  0  0  0  0  0  0  0  0  0  0
  -30.4943   -3.2475   -3.1924 C   0  0  0  0  0  0  0  0  0  0  0  0
  -29.3771   -2.8217   -4.1437 C   0  0  0  0  0  0  0  0  0  0  0  0
  -29.2948   -1.3581   -4.3824 N   0  0  0  0  0  0  0  0  0  0  0  0
  -27.9015   -0.9569   -4.6589 C   0  0  0  0  0  0  0  0  0  0  0  0
  -27.7729    0.5529   -4.8607 C   0  0  0  0  0  0  0  0  0  0  0  0
  -28.6880    1.0409   -5.9743 C   0  0  0  0  0  0  0  0  0  0  0  0
  -30.1138    0.5683   -5.7254 C   0  0  0  0  0  0  0  0  0  0  0  0
  -30.1705   -0.9452   -5.4981 C   0  0  0  0  0  0  0  0  0  0  0  0
 11 12  1  0  0  0
 12  1  1  0  0  0
  1  2  1  0  0  0
  1 10  2  0  0  0
  2  3  2  0  0  0
  3  4  1  0  0  0
  3  8  1  0  0  0
  4 13  1  0  0  0
  4  5  2  0  0  0
 13 15  1  0  0  0
 13 14  1  0  0  0
 15 16  1  0  0  0
 15 22  2  0  0  0
 16 17  2  0  0  0
 17 18  1  0  0  0
 18 19  1  0  0  0
 18 20  2  0  0  0
 20 21  1  0  0  0
 20 22  1  0  0  0
  5  6  1  0  0  0
  6  7  2  0  0  0
  7  8  1  0  0  0
  8  9  2  0  0  0
  9 10  1  0  0  0
 10 23  1  0  0  0
 24 25  1  0  0  0
 24 28  1  0  0  0
 24 23  1  0  0  0
 25 26  1  0  0  0
 26 27  1  0  0  0
 27 28  1  0  0  0
 27 31  1  0  0  0
 28 29  1  0  0  0
 29 30  1  0  0  0
 30 31  1  0  0  0
 31 32  1  0  0  0
 32 33  1  0  0  0
 32 37  1  0  0  0
 33 34  1  0  0  0
 34 35  1  0  0  0
 35 36  1  0  0  0
 36 37  1  0  0  0
M  END
> <minimizedAffinity>
-9.03233

$$$$
