CHEMBL3633301


 33 36  0  0  0  0  0  0  0  0999 V2000
  -17.8638    1.9683  -15.3735 C   0  0  0  0  0  0  0  0  0  0  0  0
  -18.3626    3.2874  -15.3812 C   0  0  0  0  0  0  0  0  0  0  0  0
  -19.7141    3.5615  -15.1902 C   0  0  0  0  0  0  0  0  0  0  0  0
  -20.6022    2.5171  -14.9672 C   0  0  0  0  0  0  0  0  0  0  0  0
  -20.1574    1.1925  -14.9847 C   0  0  0  0  0  0  0  0  0  0  0  0
  -18.7961    0.9291  -15.1967 C   0  0  0  0  0  0  0  0  0  0  0  0
  -16.7258    0.5941  -12.4799 N   0  0  0  0  0  0  0  0  0  0  0  0
  -15.6273    0.6955  -13.2465 C   0  0  0  0  0  0  0  0  0  0  0  0
  -14.4498    0.3108  -12.7671 N   0  0  0  0  0  0  0  0  0  0  0  0
  -13.5977    0.5762  -13.7659 N   0  0  0  0  0  0  0  0  0  0  0  0
  -14.1860    1.1055  -14.8798 C   0  0  0  0  0  0  0  0  0  0  0  0
  -13.6080    1.5018  -16.0904 C   0  0  0  0  0  0  0  0  0  0  0  0
  -14.4599    1.9969  -17.0698 C   0  0  0  0  0  0  0  0  0  0  0  0
  -15.8264    2.0994  -16.8271 C   0  0  0  0  0  0  0  0  0  0  0  0
  -16.4204    1.7336  -15.5875 C   0  0  0  0  0  0  0  0  0  0  0  0
  -15.5506    1.2008  -14.5885 C   0  0  0  0  0  0  0  0  0  0  0  0
  -16.5296    0.3826  -11.5060 H   0  0  0  0  0  0  0  0  0  0  0  0
  -17.4505    1.2944  -12.5829 H   0  0  0  0  0  0  0  0  0  0  0  0
  -12.6158    0.3798  -13.6200 H   0  0  0  0  0  0  0  0  0  0  0  0
  -21.0371    0.1045  -14.7735 N   0  0  0  0  0  0  0  0  0  0  0  0
  -22.1818    0.1900  -14.0107 C   0  0  0  0  0  0  0  0  0  0  0  0
  -22.6330    1.2331  -13.5422 O   0  0  0  0  0  0  0  0  0  0  0  0
  -22.7785   -1.0479  -13.8165 N   0  0  0  0  0  0  0  0  0  0  0  0
  -21.0117   -0.6503  -15.4454 H   0  0  0  0  0  0  0  0  0  0  0  0
  -22.1155   -1.7926  -13.6400 H   0  0  0  0  0  0  0  0  0  0  0  0
  -23.9936   -1.1266  -13.0834 C   0  0  0  0  0  0  0  0  0  0  0  0
  -23.9676   -1.1629  -11.6822 C   0  0  0  0  0  0  0  0  0  0  0  0
  -25.1440   -1.3533  -10.9576 C   0  0  0  0  0  0  0  0  0  0  0  0
  -26.3514   -1.5054  -11.6340 C   0  0  0  0  0  0  0  0  0  0  0  0
  -27.7912   -1.8041  -10.7421 Cl  0  0  0  0  0  0  0  0  0  0  0  0
  -26.4000   -1.4300  -13.0256 C   0  0  0  0  0  0  0  0  0  0  0  0
  -25.2234   -1.2200  -13.7479 C   0  0  0  0  0  0  0  0  0  0  0  0
  -25.3080   -1.1746  -15.4740 Cl  0  0  0  0  0  0  0  0  0  0  0  0
  7  8  1  0  0  0
  7 17  1  0  0  0
  7 18  1  0  0  0
  8  9  2  0  0  0
  8 16  1  0  0  0
  9 10  1  0  0  0
 10 11  1  0  0  0
 10 19  1  0  0  0
 11 12  1  0  0  0
 11 16  2  0  0  0
 12 13  2  0  0  0
 13 14  1  0  0  0
 14 15  2  0  0  0
 15  1  1  0  0  0
 15 16  1  0  0  0
  1  2  1  0  0  0
  1  6  2  0  0  0
  2  3  2  0  0  0
  3  4  1  0  0  0
  4  5  2  0  0  0
  5 20  1  0  0  0
  5  6  1  0  0  0
 20 21  1  0  0  0
 20 24  1  0  0  0
 21 22  2  0  0  0
 21 23  1  0  0  0
 23 26  1  0  0  0
 23 25  1  0  0  0
 26 27  1  0  0  0
 26 32  2  0  0  0
 27 28  2  0  0  0
 28 29  1  0  0  0
 29 30  1  0  0  0
 29 31  2  0  0  0
 31 32  1  0  0  0
 32 33  1  0  0  0
M  END
> <minimizedAffinity>
-10.58858

$$$$
