CHEMBL4572765


 34 38  0  0  0  0  0  0  0  0999 V2000
  -28.9538   -3.8853   -8.0619 C   0  0  0  0  0  0  0  0  0  0  0  0
  -27.9624   -4.8229   -8.3679 C   0  0  0  0  0  0  0  0  0  0  0  0
  -28.0970   -6.1610   -7.9729 C   0  0  0  0  0  0  0  0  0  0  0  0
  -29.2281   -6.5915   -7.2631 C   0  0  0  0  0  0  0  0  0  0  0  0
  -30.2062   -5.6470   -6.9396 C   0  0  0  0  0  0  0  0  0  0  0  0
  -30.0834   -4.3141   -7.3543 C   0  0  0  0  0  0  0  0  0  0  0  0
  -29.3457   -7.9575   -6.8495 N   0  0  0  0  0  0  0  0  0  0  0  0
  -29.7171   -8.9960   -7.6775 C   0  0  0  0  0  0  0  0  0  0  0  0
  -29.6875  -10.1811   -7.0006 C   0  0  0  0  0  0  0  0  0  0  0  0
  -29.3296   -9.9175   -5.6872 C   0  0  0  0  0  0  0  0  0  0  0  0
  -29.1956  -10.7986   -4.6775 N   0  0  0  0  0  0  0  0  0  0  0  0
  -28.8517  -10.2311   -3.5236 C   0  0  0  0  0  0  0  0  0  0  0  0
  -28.6554   -8.9284   -3.2870 N   0  0  0  0  0  0  0  0  0  0  0  0
  -28.8006   -8.0459   -4.3043 C   0  0  0  0  0  0  0  0  0  0  0  0
  -28.6422   -6.7182   -3.9315 N   0  0  0  0  0  0  0  0  0  0  0  0
  -29.1199   -8.5294   -5.5737 C   0  0  0  0  0  0  0  0  0  0  0  0
  -29.9839  -11.3368   -7.8666 C   0  0  0  0  0  0  0  0  0  0  0  0
  -29.8009  -10.7111   -9.2864 C   0  0  0  0  0  0  0  0  0  0  0  0
  -29.9862   -9.1644   -9.1266 C   0  0  0  0  0  0  0  0  0  0  0  0
  -28.6121   -6.6601   -2.9182 H   0  0  0  0  0  0  0  0  0  0  0  0
  -29.2990   -6.0888   -4.3710 H   0  0  0  0  0  0  0  0  0  0  0  0
  -28.7760   -2.4306   -8.4332 C   0  0  0  0  0  0  0  0  0  0  0  0
  -27.7109   -2.3376  -10.6672 N   0  0  0  0  0  0  0  0  0  0  0  0
  -27.6049   -2.0413   -9.3235 C   0  0  0  0  0  0  0  0  0  0  0  0
  -26.6572   -1.4203   -8.8354 O   0  0  0  0  0  0  0  0  0  0  0  0
  -28.6472   -2.4696  -11.0349 H   0  0  0  0  0  0  0  0  0  0  0  0
  -23.0527   -1.0235  -11.9077 C   0  0  0  0  0  0  0  0  0  0  0  0
  -24.4806   -1.3110  -12.2770 C   0  0  0  0  0  0  0  0  0  0  0  0
  -24.8952   -1.2481  -13.6146 C   0  0  0  0  0  0  0  0  0  0  0  0
  -26.2108   -1.5576  -13.9584 C   0  0  0  0  0  0  0  0  0  0  0  0
  -27.1065   -1.9437  -12.9685 C   0  0  0  0  0  0  0  0  0  0  0  0
  -28.3734   -2.2301  -13.3072 F   0  0  0  0  0  0  0  0  0  0  0  0
  -26.7314   -1.9745  -11.6218 C   0  0  0  0  0  0  0  0  0  0  0  0
  -25.4127   -1.6590  -11.2806 C   0  0  0  0  0  0  0  0  0  0  0  0
 27 28  1  0  0  0
 28 29  1  0  0  0
 28 34  2  0  0  0
 29 30  2  0  0  0
 30 31  1  0  0  0
 31 32  1  0  0  0
 31 33  2  0  0  0
 33 23  1  0  0  0
 33 34  1  0  0  0
 23 24  1  0  0  0
 23 26  1  0  0  0
 24 25  2  0  0  0
 24 22  1  0  0  0
 22  1  1  0  0  0
  1  2  1  0  0  0
  1  6  2  0  0  0
  2  3  2  0  0  0
  3  4  1  0  0  0
  4  7  1  0  0  0
  4  5  2  0  0  0
  7  8  1  0  0  0
  7 16  1  0  0  0
  8  9  2  0  0  0
  8 19  1  0  0  0
  9 10  1  0  0  0
  9 17  1  0  0  0
 10 11  1  0  0  0
 10 16  2  0  0  0
 11 12  2  0  0  0
 12 13  1  0  0  0
 13 14  2  0  0  0
 14 15  1  0  0  0
 14 16  1  0  0  0
 15 20  1  0  0  0
 15 21  1  0  0  0
 17 18  1  0  0  0
 18 19  1  0  0  0
  5  6  1  0  0  0
M  END
> <minimizedAffinity>
-10.04189

$$$$
