CHEMBL199996


 27 29  0  0  0  0  0  0  0  0999 V2000
  -33.0173   -8.0892   -6.9579 C   0  0  0  0  0  0  0  0  0  0  0  0
  -32.0405   -9.0433   -7.5273 C   0  0  0  0  0  0  0  0  0  0  0  0
  -32.4239   -9.8662   -8.5332 N   0  0  0  0  0  0  0  0  0  0  0  0
  -31.3269  -10.6228   -8.7898 N   0  0  0  0  0  0  0  0  0  0  0  0
  -30.3106  -10.3163   -7.9630 C   0  0  0  0  0  0  0  0  0  0  0  0
  -28.7734  -10.8605   -7.6907 S   0  0  0  0  0  0  0  0  0  0  0  0
  -28.5968   -9.6712   -6.4121 C   0  0  0  0  0  0  0  0  0  0  0  0
  -29.7548   -8.8891   -6.2487 C   0  0  0  0  0  0  0  0  0  0  0  0
  -30.7181   -9.3168   -7.1789 C   0  0  0  0  0  0  0  0  0  0  0  0
  -31.3753  -11.3171   -9.5262 H   0  0  0  0  0  0  0  0  0  0  0  0
  -29.8417   -7.8575   -5.3059 N   0  0  0  0  0  0  0  0  0  0  0  0
  -29.5106   -6.5624   -5.6717 C   0  0  0  0  0  0  0  0  0  0  0  0
  -29.1142   -6.2509   -6.7919 O   0  0  0  0  0  0  0  0  0  0  0  0
  -29.6278   -5.6676   -4.6196 N   0  0  0  0  0  0  0  0  0  0  0  0
  -29.5616   -8.1168   -4.3651 H   0  0  0  0  0  0  0  0  0  0  0  0
  -29.4168   -6.0553   -3.7122 H   0  0  0  0  0  0  0  0  0  0  0  0
  -29.3133   -4.3016   -4.8047 C   0  0  0  0  0  0  0  0  0  0  0  0
  -30.2526   -3.3949   -5.3087 C   0  0  0  0  0  0  0  0  0  0  0  0
  -29.8894   -2.0703   -5.5575 C   0  0  0  0  0  0  0  0  0  0  0  0
  -28.5816   -1.6529   -5.3195 C   0  0  0  0  0  0  0  0  0  0  0  0
  -27.6501   -2.5483   -4.7934 C   0  0  0  0  0  0  0  0  0  0  0  0
  -28.0222   -3.8642   -4.5074 C   0  0  0  0  0  0  0  0  0  0  0  0
  -27.3312   -9.5336   -5.7105 C   0  0  0  0  0  0  0  0  0  0  0  0
  -26.1982   -9.8614   -6.4069 N   0  0  0  0  0  0  0  0  0  0  0  0
  -27.2357   -9.1171   -4.5564 O   0  0  0  0  0  0  0  0  0  0  0  0
  -26.2376  -10.1193   -7.3841 H   0  0  0  0  0  0  0  0  0  0  0  0
  -25.2987   -9.6830   -5.9824 H   0  0  0  0  0  0  0  0  0  0  0  0
  1  2  1  0  0  0
  2  3  2  0  0  0
  2  9  1  0  0  0
  3  4  1  0  0  0
  4  5  1  0  0  0
  4 10  1  0  0  0
  5  6  1  0  0  0
  5  9  2  0  0  0
  6  7  1  0  0  0
  7 23  1  0  0  0
  7  8  2  0  0  0
 23 24  1  0  0  0
 23 25  2  0  0  0
 24 26  1  0  0  0
 24 27  1  0  0  0
  8 11  1  0  0  0
  8  9  1  0  0  0
 11 12  1  0  0  0
 11 15  1  0  0  0
 12 13  2  0  0  0
 12 14  1  0  0  0
 14 17  1  0  0  0
 14 16  1  0  0  0
 17 18  1  0  0  0
 17 22  2  0  0  0
 18 19  2  0  0  0
 19 20  1  0  0  0
 20 21  2  0  0  0
 21 22  1  0  0  0
M  END
> <minimizedAffinity>
-7.35354

$$$$
