CHEMBL3696098


 43 46  0  0  0  0  0  0  0  0999 V2000
  -29.4048   -7.4229   -4.4261 C   0  0  0  0  0  0  0  0  0  0  0  0
  -29.3621   -6.5993   -3.3872 N   0  0  0  0  0  0  0  0  0  0  0  0
  -29.0660   -5.0754   -3.8993 S   0  0  0  0  0  0  0  0  0  0  0  0
  -28.9928   -5.4389   -5.5799 C   0  0  0  0  0  0  0  0  0  0  0  0
  -29.2253   -6.8049   -5.7295 C   0  0  0  0  0  0  0  0  0  0  0  0
  -28.7860   -4.3503   -6.5485 C   0  0  0  0  0  0  0  0  0  0  0  0
  -29.3977   -4.3976   -7.8019 C   0  0  0  0  0  0  0  0  0  0  0  0
  -29.1119   -3.4469   -8.7774 C   0  0  0  0  0  0  0  0  0  0  0  0
  -28.2300   -2.3913   -8.5330 C   0  0  0  0  0  0  0  0  0  0  0  0
  -27.6749   -2.2861   -7.2587 C   0  0  0  0  0  0  0  0  0  0  0  0
  -27.9402   -3.2613   -6.2828 C   0  0  0  0  0  0  0  0  0  0  0  0
  -27.8520   -1.4619   -9.5242 N   0  0  0  0  0  0  0  0  0  0  0  0
  -26.9474   -1.7073  -10.5365 C   0  0  0  0  0  0  0  0  0  0  0  0
  -26.4299   -2.7932  -10.7730 O   0  0  0  0  0  0  0  0  0  0  0  0
  -26.6339   -0.5652  -11.2576 N   0  0  0  0  0  0  0  0  0  0  0  0
  -28.3104   -0.5626   -9.5231 H   0  0  0  0  0  0  0  0  0  0  0  0
  -26.5194    0.2665  -10.6912 H   0  0  0  0  0  0  0  0  0  0  0  0
  -25.7121   -0.6866  -12.3302 C   0  0  0  0  0  0  0  0  0  0  0  0
  -24.4356   -0.1119  -12.2600 C   0  0  0  0  0  0  0  0  0  0  0  0
  -23.5830   -0.1253  -13.3709 C   0  0  0  0  0  0  0  0  0  0  0  0
  -22.2248    0.5087  -13.2962 C   0  0  0  0  0  0  0  0  0  0  0  0
  -24.0230   -0.7236  -14.5585 C   0  0  0  0  0  0  0  0  0  0  0  0
  -25.2849   -1.3206  -14.6249 C   0  0  0  0  0  0  0  0  0  0  0  0
  -26.1109   -1.3171  -13.5055 C   0  0  0  0  0  0  0  0  0  0  0  0
  -27.3383   -1.8528  -13.5905 F   0  0  0  0  0  0  0  0  0  0  0  0
  -29.2325   -7.4532   -7.0300 C   0  0  0  0  0  0  0  0  0  0  0  0
  -28.0098   -7.6798   -7.5858 N   0  0  0  0  0  0  0  0  0  0  0  0
  -30.2537   -7.7861   -7.6237 O   0  0  0  0  0  0  0  0  0  0  0  0
  -27.1671   -7.3089   -7.1657 H   0  0  0  0  0  0  0  0  0  0  0  0
  -27.9965   -7.9655   -8.5558 H   0  0  0  0  0  0  0  0  0  0  0  0
  -29.6142   -8.7376   -4.1668 N   0  0  0  0  0  0  0  0  0  0  0  0
  -30.5878   -8.9551   -3.9447 H   0  0  0  0  0  0  0  0  0  0  0  0
  -28.6706   -9.5984   -3.4982 C   0  0  0  0  0  0  0  0  0  0  0  0
  -24.8541   -9.9121   -5.4618 C   0  0  0  0  0  0  0  0  0  0  0  0
  -24.9671   -9.4823   -4.1476 C   0  0  0  0  0  0  0  0  0  0  0  0
  -26.2214   -9.4187   -3.5557 C   0  0  0  0  0  0  0  0  0  0  0  0
  -27.3940   -9.7685   -4.2635 C   0  0  0  0  0  0  0  0  0  0  0  0
  -27.2844  -10.2177   -5.5826 C   0  0  0  0  0  0  0  0  0  0  0  0
  -26.0059  -10.2932   -6.1586 C   0  0  0  0  0  0  0  0  0  0  0  0
  -23.4045  -11.2678   -6.7530 C   0  0  0  0  0  0  0  0  0  0  0  0
  -23.6843  -10.0025   -6.1642 O   0  0  0  0  0  0  0  0  0  0  0  0
  -28.2692  -10.6927   -6.4006 O   0  0  0  0  0  0  0  0  0  0  0  0
  -27.9226  -11.4058   -7.5788 C   0  0  0  0  0  0  0  0  0  0  0  0
 40 41  1  0  0  0
 41 34  1  0  0  0
 34 35  1  0  0  0
 34 39  2  0  0  0
 35 36  2  0  0  0
 36 37  1  0  0  0
 37 33  1  0  0  0
 37 38  2  0  0  0
 33 31  1  0  0  0
 31  1  1  0  0  0
 31 32  1  0  0  0
  1  2  2  0  0  0
  1  5  1  0  0  0
  2  3  1  0  0  0
  3  4  1  0  0  0
  4  6  1  0  0  0
  4  5  2  0  0  0
  6  7  1  0  0  0
  6 11  2  0  0  0
  7  8  2  0  0  0
  8  9  1  0  0  0
  9 12  1  0  0  0
  9 10  2  0  0  0
 12 13  1  0  0  0
 12 16  1  0  0  0
 13 14  2  0  0  0
 13 15  1  0  0  0
 15 18  1  0  0  0
 15 17  1  0  0  0
 18 19  1  0  0  0
 18 24  2  0  0  0
 19 20  2  0  0  0
 20 21  1  0  0  0
 20 22  1  0  0  0
 22 23  2  0  0  0
 23 24  1  0  0  0
 24 25  1  0  0  0
 10 11  1  0  0  0
  5 26  1  0  0  0
 26 27  1  0  0  0
 26 28  2  0  0  0
 27 29  1  0  0  0
 27 30  1  0  0  0
 38 42  1  0  0  0
 38 39  1  0  0  0
 42 43  1  0  0  0
M  END
> <minimizedAffinity>
-9.03569

$$$$
