CHEMBL179165


 34 37  0  0  0  0  0  0  0  0999 V2000
  -25.5409   11.6196  -15.7746 C   0  0  0  0  0  0  0  0  0  0  0  0
  -24.6658   12.6590  -16.0586 C   0  0  0  0  0  0  0  0  0  0  0  0
  -23.7319   12.5128  -17.0858 C   0  0  0  0  0  0  0  0  0  0  0  0
  -23.5881   11.2995  -17.7742 C   0  0  0  0  0  0  0  0  0  0  0  0
  -24.3575   10.2048  -17.3550 C   0  0  0  0  0  0  0  0  0  0  0  0
  -25.3336   10.3667  -16.3612 C   0  0  0  0  0  0  0  0  0  0  0  0
  -22.7429   11.1357  -18.8960 N   0  0  0  0  0  0  0  0  0  0  0  0
  -21.3638   11.2261  -18.8828 C   0  0  0  0  0  0  0  0  0  0  0  0
  -20.6767   11.3355  -17.8716 O   0  0  0  0  0  0  0  0  0  0  0  0
  -20.8171   11.2317  -20.1608 N   0  0  0  0  0  0  0  0  0  0  0  0
  -23.1791   10.9027  -19.7776 H   0  0  0  0  0  0  0  0  0  0  0  0
  -21.3787   11.7073  -20.8524 H   0  0  0  0  0  0  0  0  0  0  0  0
  -19.4120   11.3239  -20.3184 C   0  0  0  0  0  0  0  0  0  0  0  0
  -18.6299   10.1788  -20.5221 C   0  0  0  0  0  0  0  0  0  0  0  0
  -17.2371   10.2660  -20.5585 C   0  0  0  0  0  0  0  0  0  0  0  0
  -16.6256   11.5035  -20.3873 C   0  0  0  0  0  0  0  0  0  0  0  0
  -14.9088   11.6105  -20.3699 Cl  0  0  0  0  0  0  0  0  0  0  0  0
  -17.3956   12.6552  -20.2183 C   0  0  0  0  0  0  0  0  0  0  0  0
  -18.7929   12.5704  -20.2085 C   0  0  0  0  0  0  0  0  0  0  0  0
  -26.6447   11.7363  -14.9692 O   0  0  0  0  0  0  0  0  0  0  0  0
  -29.4755   12.4432  -10.5793 C   0  0  0  0  0  0  0  0  0  0  0  0
  -28.1070   12.6261  -10.3478 C   0  0  0  0  0  0  0  0  0  0  0  0
  -27.1542   12.4798  -11.3451 C   0  0  0  0  0  0  0  0  0  0  0  0
  -25.8726   12.6463  -10.9840 N   0  0  0  0  0  0  0  0  0  0  0  0
  -24.9169   12.4854  -11.9175 C   0  0  0  0  0  0  0  0  0  0  0  0
  -25.1850   12.1921  -13.2336 C   0  0  0  0  0  0  0  0  0  0  0  0
  -26.5169   12.0436  -13.6242 C   0  0  0  0  0  0  0  0  0  0  0  0
  -27.5580   12.1434  -12.6534 C   0  0  0  0  0  0  0  0  0  0  0  0
  -28.9518   11.9461  -12.8674 C   0  0  0  0  0  0  0  0  0  0  0  0
  -29.9092   12.1730  -11.8728 C   0  0  0  0  0  0  0  0  0  0  0  0
  -29.8200   12.5990   -8.2645 C   0  0  0  0  0  0  0  0  0  0  0  0
  -30.3972   12.5011   -9.5661 O   0  0  0  0  0  0  0  0  0  0  0  0
  -31.2049   12.0357  -12.2931 O   0  0  0  0  0  0  0  0  0  0  0  0
  -31.3797   11.5302  -13.6160 C   0  0  0  0  0  0  0  0  0  0  0  0
 31 32  1  0  0  0
 32 21  1  0  0  0
 21 22  1  0  0  0
 21 30  2  0  0  0
 22 23  2  0  0  0
 23 24  1  0  0  0
 23 28  1  0  0  0
 24 25  2  0  0  0
 25 26  1  0  0  0
 26 27  2  0  0  0
 27 20  1  0  0  0
 27 28  1  0  0  0
 20  1  1  0  0  0
  1  2  1  0  0  0
  1  6  2  0  0  0
  2  3  2  0  0  0
  3  4  1  0  0  0
  4  7  1  0  0  0
  4  5  2  0  0  0
  7  8  1  0  0  0
  7 11  1  0  0  0
  8  9  2  0  0  0
  8 10  1  0  0  0
 10 13  1  0  0  0
 10 12  1  0  0  0
 13 14  1  0  0  0
 13 19  2  0  0  0
 14 15  2  0  0  0
 15 16  1  0  0  0
 16 17  1  0  0  0
 16 18  2  0  0  0
 18 19  1  0  0  0
  5  6  1  0  0  0
 28 29  2  0  0  0
 29 30  1  0  0  0
 30 33  1  0  0  0
 33 34  1  0  0  0
M  END
> <minimizedAffinity>
-5.99203

$$$$
