CHEMBL4091341


 41 46  0  0  0  0  0  0  0  0999 V2000
  -28.8407   -0.5514   -6.0474 C   0  0  0  0  0  0  0  0  0  0  0  0
  -29.5150   -1.1292   -4.9497 C   0  0  0  0  0  0  0  0  0  0  0  0
  -29.6425   -2.5393   -4.8278 C   0  0  0  0  0  0  0  0  0  0  0  0
  -29.1190   -3.3615   -5.8137 C   0  0  0  0  0  0  0  0  0  0  0  0
  -28.4622   -2.7477   -6.8902 C   0  0  0  0  0  0  0  0  0  0  0  0
  -28.2909   -1.3811   -7.0248 C   0  0  0  0  0  0  0  0  0  0  0  0
  -28.1084   -3.6718   -7.8555 N   0  0  0  0  0  0  0  0  0  0  0  0
  -28.5671   -4.9336   -7.5304 C   0  0  0  0  0  0  0  0  0  0  0  0
  -28.7108   -5.8413   -8.3278 O   0  0  0  0  0  0  0  0  0  0  0  0
  -29.0670   -4.8267   -6.1053 C   0  0  0  0  0  0  0  0  0  0  0  0
  -29.4457   -5.9503   -5.4466 C   0  0  0  0  0  0  0  0  0  0  0  0
  -27.7995   -3.4522   -8.7815 H   0  0  0  0  0  0  0  0  0  0  0  0
  -30.4540   -5.7855   -4.3750 C   0  0  0  0  0  0  0  0  0  0  0  0
  -30.2448   -6.4522   -3.1551 C   0  0  0  0  0  0  0  0  0  0  0  0
  -31.1580   -6.3417   -2.1103 C   0  0  0  0  0  0  0  0  0  0  0  0
  -32.2978   -5.5541   -2.2790 C   0  0  0  0  0  0  0  0  0  0  0  0
  -32.5114   -4.8808   -3.4779 C   0  0  0  0  0  0  0  0  0  0  0  0
  -31.5891   -4.9871   -4.5279 C   0  0  0  0  0  0  0  0  0  0  0  0
  -28.7200    0.9191   -6.2762 C   0  0  0  0  0  0  0  0  0  0  0  0
  -27.8933    1.6123   -5.6962 O   0  0  0  0  0  0  0  0  0  0  0  0
  -30.8654    1.7393   -6.6852 C   0  0  0  0  0  0  0  0  0  0  0  0
  -29.5913    1.3560   -7.2164 O   0  0  0  0  0  0  0  0  0  0  0  0
  -29.1994   -7.2916   -5.7607 N   0  0  0  0  0  0  0  0  0  0  0  0
  -29.9284   -7.7427   -6.3043 H   0  0  0  0  0  0  0  0  0  0  0  0
  -28.1230   -8.1408   -5.4114 C   0  0  0  0  0  0  0  0  0  0  0  0
  -28.0508   -9.4829   -5.7831 C   0  0  0  0  0  0  0  0  0  0  0  0
  -27.0777  -10.3515   -5.2409 C   0  0  0  0  0  0  0  0  0  0  0  0
  -26.1746   -9.9182   -4.2708 C   0  0  0  0  0  0  0  0  0  0  0  0
  -26.1306   -8.5376   -4.0205 C   0  0  0  0  0  0  0  0  0  0  0  0
  -27.0980   -7.6698   -4.5762 C   0  0  0  0  0  0  0  0  0  0  0  0
  -25.3929  -10.8192   -3.4555 N   0  0  0  0  0  0  0  0  0  0  0  0
  -25.9015  -11.4638   -2.3289 C   0  0  0  0  0  0  0  0  0  0  0  0
  -25.0512  -12.4648   -1.9289 C   0  0  0  0  0  0  0  0  0  0  0  0
  -23.9460  -12.4160   -2.7880 C   0  0  0  0  0  0  0  0  0  0  0  0
  -24.0891  -11.3185   -3.6310 C   0  0  0  0  0  0  0  0  0  0  0  0
  -22.9794  -10.7843   -4.4830 C   0  0  0  0  0  0  0  0  0  0  0  0
  -23.2627  -10.7210   -5.9326 N   0  0  0  0  0  0  0  0  0  0  0  0
  -23.0053  -12.0401   -6.5532 C   0  0  0  0  0  0  0  0  0  0  0  0
  -21.4941  -12.1125   -6.6652 C   0  0  0  0  0  0  0  0  0  0  0  0
  -21.1147  -10.6854   -7.0327 C   0  0  0  0  0  0  0  0  0  0  0  0
  -22.3348   -9.8370   -6.6591 C   0  0  0  0  0  0  0  0  0  0  0  0
 21 22  1  0  0  0
 22 19  1  0  0  0
 19 20  2  0  0  0
 19  1  1  0  0  0
  1  2  1  0  0  0
  1  6  2  0  0  0
  2  3  2  0  0  0
  3  4  1  0  0  0
  4  5  2  0  0  0
  4 10  1  0  0  0
  5  6  1  0  0  0
  5  7  1  0  0  0
  7  8  1  0  0  0
  7 12  1  0  0  0
  8  9  2  0  0  0
  8 10  1  0  0  0
 10 11  2  0  0  0
 11 23  1  0  0  0
 11 13  1  0  0  0
 23 25  1  0  0  0
 23 24  1  0  0  0
 25 26  1  0  0  0
 25 30  2  0  0  0
 26 27  2  0  0  0
 27 28  1  0  0  0
 28 31  1  0  0  0
 28 29  2  0  0  0
 31 32  1  0  0  0
 31 35  1  0  0  0
 32 33  2  0  0  0
 33 34  1  0  0  0
 34 35  2  0  0  0
 35 36  1  0  0  0
 36 37  1  0  0  0
 37 38  1  0  0  0
 37 41  1  0  0  0
 38 39  1  0  0  0
 39 40  1  0  0  0
 40 41  1  0  0  0
 29 30  1  0  0  0
 13 14  1  0  0  0
 13 18  2  0  0  0
 14 15  2  0  0  0
 15 16  1  0  0  0
 16 17  2  0  0  0
 17 18  1  0  0  0
M  END
> <minimizedAffinity>
-7.60134

$$$$
