CHEMBL4757998


 33 36  0  0  0  0  0  0  0  0999 V2000
  -18.5693    2.7078  -15.2297 C   0  0  0  0  0  0  0  0  0  0  0  0
  -18.6961    1.3376  -15.4453 C   0  0  0  0  0  0  0  0  0  0  0  0
  -19.8813    0.6746  -15.1042 C   0  0  0  0  0  0  0  0  0  0  0  0
  -20.9529    1.3618  -14.5284 C   0  0  0  0  0  0  0  0  0  0  0  0
  -20.7800    2.7056  -14.1987 C   0  0  0  0  0  0  0  0  0  0  0  0
  -19.5931    3.3623  -14.5316 C   0  0  0  0  0  0  0  0  0  0  0  0
  -22.2261    0.7894  -14.2949 N   0  0  0  0  0  0  0  0  0  0  0  0
  -22.6392    0.1835  -13.1242 C   0  0  0  0  0  0  0  0  0  0  0  0
  -22.0055    0.1287  -12.0736 O   0  0  0  0  0  0  0  0  0  0  0  0
  -22.8631    0.8061  -15.0795 H   0  0  0  0  0  0  0  0  0  0  0  0
  -23.9852   -0.4583  -13.1296 C   0  0  0  0  0  0  0  0  0  0  0  0
  -24.8567   -0.4467  -12.0331 C   0  0  0  0  0  0  0  0  0  0  0  0
  -26.1301   -1.0219  -12.1529 C   0  0  0  0  0  0  0  0  0  0  0  0
  -26.5298   -1.5935  -13.3624 C   0  0  0  0  0  0  0  0  0  0  0  0
  -28.2572   -2.3426  -13.5302 Br  0  0  0  0  0  0  0  0  0  0  0  0
  -25.6722   -1.6029  -14.4574 C   0  0  0  0  0  0  0  0  0  0  0  0
  -24.4051   -1.0346  -14.3381 C   0  0  0  0  0  0  0  0  0  0  0  0
  -17.4306    3.4061  -15.6905 N   0  0  0  0  0  0  0  0  0  0  0  0
  -17.3047    4.2980  -15.2223 H   0  0  0  0  0  0  0  0  0  0  0  0
  -13.6453    3.7350  -19.1394 C   0  0  0  0  0  0  0  0  0  0  0  0
  -13.3707    2.7096  -18.2244 C   0  0  0  0  0  0  0  0  0  0  0  0
  -14.1985    2.4310  -17.1546 C   0  0  0  0  0  0  0  0  0  0  0  0
  -13.8054    1.4767  -16.3076 N   0  0  0  0  0  0  0  0  0  0  0  0
  -14.6048    1.2385  -15.2703 C   0  0  0  0  0  0  0  0  0  0  0  0
  -15.7608    1.8498  -15.0255 N   0  0  0  0  0  0  0  0  0  0  0  0
  -16.1633    2.7959  -15.8993 C   0  0  0  0  0  0  0  0  0  0  0  0
  -15.3826    3.1599  -17.0063 C   0  0  0  0  0  0  0  0  0  0  0  0
  -15.7059    4.1538  -17.9632 C   0  0  0  0  0  0  0  0  0  0  0  0
  -14.8559    4.4275  -19.0392 C   0  0  0  0  0  0  0  0  0  0  0  0
  -11.8756    3.0283  -20.5252 C   0  0  0  0  0  0  0  0  0  0  0  0
  -12.7484    4.0837  -20.1165 O   0  0  0  0  0  0  0  0  0  0  0  0
  -15.3057    5.4277  -19.8576 O   0  0  0  0  0  0  0  0  0  0  0  0
  -14.9097    6.7519  -19.5141 C   0  0  0  0  0  0  0  0  0  0  0  0
 30 31  1  0  0  0
 31 20  1  0  0  0
 20 21  1  0  0  0
 20 29  2  0  0  0
 21 22  2  0  0  0
 22 23  1  0  0  0
 22 27  1  0  0  0
 23 24  2  0  0  0
 24 25  1  0  0  0
 25 26  2  0  0  0
 26 18  1  0  0  0
 26 27  1  0  0  0
 18  1  1  0  0  0
 18 19  1  0  0  0
  1  2  1  0  0  0
  1  6  2  0  0  0
  2  3  2  0  0  0
  3  4  1  0  0  0
  4  7  1  0  0  0
  4  5  2  0  0  0
  7  8  1  0  0  0
  7 10  1  0  0  0
  8  9  2  0  0  0
  8 11  1  0  0  0
 11 12  1  0  0  0
 11 17  2  0  0  0
 12 13  2  0  0  0
 13 14  1  0  0  0
 14 15  1  0  0  0
 14 16  2  0  0  0
 16 17  1  0  0  0
  5  6  1  0  0  0
 27 28  2  0  0  0
 28 29  1  0  0  0
 29 32  1  0  0  0
 32 33  1  0  0  0
M  END
> <minimizedAffinity>
-9.71842

$$$$
