CHEMBL4551158


 39 43  0  0  0  0  0  0  0  0999 V2000
  -28.0060   -2.7757   -8.1910 C   0  0  0  0  0  0  0  0  0  0  0  0
  -27.0931   -1.7883   -7.2402 C   0  0  0  0  0  0  0  0  0  0  0  0
  -27.5383   -0.7721   -6.2988 C   0  0  0  0  0  0  0  0  0  0  0  0
  -27.4974   -0.7286   -4.7382 C   0  0  0  0  0  0  0  0  0  0  0  0
  -28.2316   -1.6040   -4.0203 C   0  0  0  0  0  0  0  0  0  0  0  0
  -29.1531   -2.2014   -4.8122 C   0  0  0  0  0  0  0  0  0  0  0  0
  -29.5068   -1.4855   -6.1107 C   0  0  0  0  0  0  0  0  0  0  0  0
  -28.6992   -0.6796   -6.9558 C   0  0  0  0  0  0  0  0  0  0  0  0
  -28.7931   -0.7412   -8.4835 N   0  0  0  0  0  0  0  0  0  0  0  0
  -28.2326   -1.8311   -9.1265 C   0  0  0  0  0  0  0  0  0  0  0  0
  -29.7077   -7.1725   -6.7052 C   0  0  0  0  0  0  0  0  0  0  0  0
  -28.6316   -6.3390   -6.8134 C   0  0  0  0  0  0  0  0  0  0  0  0
  -28.6071   -4.9801   -7.6095 C   0  0  0  0  0  0  0  0  0  0  0  0
  -29.3677   -3.8477   -7.9833 C   0  0  0  0  0  0  0  0  0  0  0  0
  -30.5323   -4.8127   -7.7936 C   0  0  0  0  0  0  0  0  0  0  0  0
  -30.7104   -6.4620   -7.1789 C   0  0  0  0  0  0  0  0  0  0  0  0
  -28.0899   -8.9162   -5.7864 C   0  0  0  0  0  0  0  0  0  0  0  0
  -29.3464   -8.4303   -6.2956 O   0  0  0  0  0  0  0  0  0  0  0  0
  -29.3445   -3.6330   -4.5023 O   0  0  0  0  0  0  0  0  0  0  0  0
  -30.6913   -4.2891   -4.0855 C   0  0  0  0  0  0  0  0  0  0  0  0
  -28.0039   -2.1011  -10.4986 N   0  0  0  0  0  0  0  0  0  0  0  0
  -28.6849   -2.6394  -11.0544 H   0  0  0  0  0  0  0  0  0  0  0  0
  -26.8701   -1.7611  -11.2259 C   0  0  0  0  0  0  0  0  0  0  0  0
  -26.9588   -1.7172  -12.5975 C   0  0  0  0  0  0  0  0  0  0  0  0
  -25.8162   -1.5294  -13.3629 C   0  0  0  0  0  0  0  0  0  0  0  0
  -24.5773   -1.3260  -12.7864 C   0  0  0  0  0  0  0  0  0  0  0  0
  -24.4906   -1.3047  -11.3843 C   0  0  0  0  0  0  0  0  0  0  0  0
  -25.6260   -1.5907  -10.6204 C   0  0  0  0  0  0  0  0  0  0  0  0
  -23.4230   -1.1281  -13.5828 N   0  0  0  0  0  0  0  0  0  0  0  0
  -22.8699    0.1618  -13.8240 C   0  0  0  0  0  0  0  0  0  0  0  0
  -23.2514    1.2585  -13.3978 O   0  0  0  0  0  0  0  0  0  0  0  0
  -23.1160   -1.8963  -14.1851 H   0  0  0  0  0  0  0  0  0  0  0  0
  -21.7543    0.2432  -14.8502 C   0  0  0  0  0  0  0  0  0  0  0  0
  -20.7132    1.1727  -14.4028 N   0  0  0  0  0  0  0  0  0  0  0  0
  -19.3919    0.7561  -14.9223 C   0  0  0  0  0  0  0  0  0  0  0  0
  -18.3051    1.6482  -14.3383 C   0  0  0  0  0  0  0  0  0  0  0  0
  -18.5614    3.1110  -14.6730 C   0  0  0  0  0  0  0  0  0  0  0  0
  -19.9798    3.5087  -14.2794 C   0  0  0  0  0  0  0  0  0  0  0  0
  -21.0114    2.5403  -14.8619 C   0  0  0  0  0  0  0  0  0  0  0  0
 17 18  1  0  0  0
 18 11  1  0  0  0
 11 12  1  0  0  0
 11 16  2  0  0  0
 12 13  2  0  0  0
 13 14  1  0  0  0
 14  1  1  0  0  0
 14 15  2  0  0  0
  1  2  1  0  0  0
  1 10  2  0  0  0
  2  3  2  0  0  0
  3  4  1  0  0  0
  3  8  1  0  0  0
  4  5  2  0  0  0
  5  6  1  0  0  0
  6 19  1  0  0  0
  6  7  2  0  0  0
 19 20  1  0  0  0
  7  8  1  0  0  0
  8  9  2  0  0  0
  9 10  1  0  0  0
 10 21  1  0  0  0
 21 23  1  0  0  0
 21 22  1  0  0  0
 23 24  1  0  0  0
 23 28  2  0  0  0
 24 25  2  0  0  0
 25 26  1  0  0  0
 26 29  1  0  0  0
 26 27  2  0  0  0
 29 30  1  0  0  0
 29 32  1  0  0  0
 30 31  2  0  0  0
 30 33  1  0  0  0
 33 34  1  0  0  0
 34 35  1  0  0  0
 34 39  1  0  0  0
 35 36  1  0  0  0
 36 37  1  0  0  0
 37 38  1  0  0  0
 38 39  1  0  0  0
 27 28  1  0  0  0
 15 16  1  0  0  0
M  END
> <minimizedAffinity>
-9.46686

$$$$
