CHEMBL3981076


 38 42  0  0  0  0  0  0  0  0999 V2000
  -15.3261    2.4473  -16.5383 N   0  0  0  0  0  0  0  0  0  0  0  0
  -14.8841    1.7343  -15.3593 C   0  0  0  0  0  0  0  0  0  0  0  0
  -13.6758    2.1961  -14.8387 C   0  0  0  0  0  0  0  0  0  0  0  0
  -12.8437    1.3274  -14.1622 C   0  0  0  0  0  0  0  0  0  0  0  0
  -13.2417    0.0434  -13.8477 C   0  0  0  0  0  0  0  0  0  0  0  0
  -12.2410   -0.7104  -13.3748 N   0  0  0  0  0  0  0  0  0  0  0  0
  -12.5980   -1.8988  -12.8660 C   0  0  0  0  0  0  0  0  0  0  0  0
  -13.9211   -2.2774  -12.7629 C   0  0  0  0  0  0  0  0  0  0  0  0
  -14.9256   -1.5552  -13.3627 N   0  0  0  0  0  0  0  0  0  0  0  0
  -14.5775   -0.3616  -14.0033 C   0  0  0  0  0  0  0  0  0  0  0  0
  -15.3710    0.5004  -14.8446 C   0  0  0  0  0  0  0  0  0  0  0  0
  -14.1766   -3.3643  -11.8146 C   0  0  0  0  0  0  0  0  0  0  0  0
  -15.3897   -4.0653  -11.5709 C   0  0  0  0  0  0  0  0  0  0  0  0
  -15.3586   -4.7903  -10.4457 N   0  0  0  0  0  0  0  0  0  0  0  0
  -14.1342   -4.5430   -9.9512 N   0  0  0  0  0  0  0  0  0  0  0  0
  -13.6167   -5.3290   -8.8549 C   0  0  0  0  0  0  0  0  0  0  0  0
  -13.4618   -3.5748  -10.6455 C   0  0  0  0  0  0  0  0  0  0  0  0
  -13.3987    4.4732  -19.0366 C   0  0  0  0  0  0  0  0  0  0  0  0
  -12.7531    3.4657  -19.7555 C   0  0  0  0  0  0  0  0  0  0  0  0
  -13.0180    2.1300  -19.4717 C   0  0  0  0  0  0  0  0  0  0  0  0
  -13.9278    1.7985  -18.4600 C   0  0  0  0  0  0  0  0  0  0  0  0
  -14.5808    2.7778  -17.7006 C   0  0  0  0  0  0  0  0  0  0  0  0
  -14.3273    4.1233  -18.0279 C   0  0  0  0  0  0  0  0  0  0  0  0
  -13.0933    6.6259  -18.0423 C   0  0  0  0  0  0  0  0  0  0  0  0
  -13.1733    5.8164  -19.2196 O   0  0  0  0  0  0  0  0  0  0  0  0
  -12.4352    1.0507  -20.0811 O   0  0  0  0  0  0  0  0  0  0  0  0
  -11.9192    1.2493  -21.3905 C   0  0  0  0  0  0  0  0  0  0  0  0
  -16.3269    3.4955  -16.0779 C   0  0  0  0  0  0  0  0  0  0  0  0
  -17.8240    3.0588  -15.9799 C   0  0  0  0  0  0  0  0  0  0  0  0
  -18.2527    2.7106  -14.5911 N   0  0  0  0  0  0  0  0  0  0  0  0
  -18.5487    1.2738  -14.3774 C   0  0  0  0  0  0  0  0  0  0  0  0
  -19.8280    0.7994  -15.0824 C   0  0  0  0  0  0  0  0  0  0  0  0
  -20.9836    1.5582  -14.5941 N   0  0  0  0  0  0  0  0  0  0  0  0
  -22.0840    0.8511  -14.1454 C   0  0  0  0  0  0  0  0  0  0  0  0
  -23.3072    1.5810  -13.6507 C   0  0  0  0  0  0  0  0  0  0  0  0
  -22.0959   -0.3830  -14.1170 O   0  0  0  0  0  0  0  0  0  0  0  0
  -20.8159    3.0184  -14.6797 C   0  0  0  0  0  0  0  0  0  0  0  0
  -19.4361    3.4855  -14.1391 C   0  0  0  0  0  0  0  0  0  0  0  0
 24 25  1  0  0  0
 25 18  1  0  0  0
 18 19  1  0  0  0
 18 23  2  0  0  0
 19 20  2  0  0  0
 20 26  1  0  0  0
 20 21  1  0  0  0
 26 27  1  0  0  0
 21 22  2  0  0  0
 22  1  1  0  0  0
 22 23  1  0  0  0
  1 28  1  0  0  0
  1  2  1  0  0  0
 28 29  1  0  0  0
 29 30  1  0  0  0
 30 31  1  0  0  0
 30 38  1  0  0  0
 31 32  1  0  0  0
 32 33  1  0  0  0
 33 34  1  0  0  0
 33 37  1  0  0  0
 34 35  1  0  0  0
 34 36  2  0  0  0
 37 38  1  0  0  0
  2  3  1  0  0  0
  2 11  2  0  0  0
  3  4  2  0  0  0
  4  5  1  0  0  0
  5  6  1  0  0  0
  5 10  2  0  0  0
  6  7  2  0  0  0
  7  8  1  0  0  0
  8 12  1  0  0  0
  8  9  2  0  0  0
 12 13  1  0  0  0
 12 17  2  0  0  0
 13 14  2  0  0  0
 14 15  1  0  0  0
 15 16  1  0  0  0
 15 17  1  0  0  0
  9 10  1  0  0  0
 10 11  1  0  0  0
M  END
> <minimizedAffinity>
-7.55253

$$$$
