CHEMBL3393897


 38 41  0  0  0  0  0  0  0  0999 V2000
  -17.1522    0.9729  -14.6796 C   0  0  0  0  0  0  0  0  0  0  0  0
  -16.8473    2.0219  -15.5537 C   0  0  0  0  0  0  0  0  0  0  0  0
  -17.8439    2.8801  -15.9965 C   0  0  0  0  0  0  0  0  0  0  0  0
  -19.1655    2.7245  -15.5608 C   0  0  0  0  0  0  0  0  0  0  0  0
  -20.2833    3.8896  -16.1748 Cl  0  0  0  0  0  0  0  0  0  0  0  0
  -19.4951    1.6826  -14.6737 C   0  0  0  0  0  0  0  0  0  0  0  0
  -18.4681    0.8019  -14.2468 C   0  0  0  0  0  0  0  0  0  0  0  0
  -14.9473    0.7777  -14.0702 O   0  0  0  0  0  0  0  0  0  0  0  0
  -16.0187    0.1826  -14.1490 C   0  0  0  0  0  0  0  0  0  0  0  0
  -16.2371   -1.1579  -13.8586 N   0  0  0  0  0  0  0  0  0  0  0  0
  -17.1100   -1.5758  -14.1574 H   0  0  0  0  0  0  0  0  0  0  0  0
  -15.2208   -2.0345  -13.3956 C   0  0  0  0  0  0  0  0  0  0  0  0
  -14.2831   -2.6010  -14.2575 C   0  0  0  0  0  0  0  0  0  0  0  0
  -13.3446   -3.5219  -13.7972 C   0  0  0  0  0  0  0  0  0  0  0  0
  -13.3203   -3.8965  -12.4564 C   0  0  0  0  0  0  0  0  0  0  0  0
  -12.1275   -5.0671  -12.0285 Cl  0  0  0  0  0  0  0  0  0  0  0  0
  -14.2260   -3.3307  -11.5511 C   0  0  0  0  0  0  0  0  0  0  0  0
  -15.1612   -2.3727  -12.0358 C   0  0  0  0  0  0  0  0  0  0  0  0
  -14.2681   -3.6983  -10.0886 C   0  0  0  0  0  0  0  0  0  0  0  0
  -13.1407   -3.4572   -9.3704 F   0  0  0  0  0  0  0  0  0  0  0  0
  -15.2649   -3.0409   -9.4298 F   0  0  0  0  0  0  0  0  0  0  0  0
  -14.5285   -5.0260   -9.9055 F   0  0  0  0  0  0  0  0  0  0  0  0
  -20.8495    1.4146  -14.0910 C   0  0  0  0  0  0  0  0  0  0  0  0
  -21.4691    2.3909  -13.6679 O   0  0  0  0  0  0  0  0  0  0  0  0
  -21.3059    0.1120  -14.0133 N   0  0  0  0  0  0  0  0  0  0  0  0
  -20.6688   -0.6291  -14.2836 H   0  0  0  0  0  0  0  0  0  0  0  0
  -22.5446   -0.2979  -13.4709 C   0  0  0  0  0  0  0  0  0  0  0  0
  -23.6829   -0.5127  -14.2408 C   0  0  0  0  0  0  0  0  0  0  0  0
  -24.8721   -0.8965  -13.6296 C   0  0  0  0  0  0  0  0  0  0  0  0
  -24.9019   -1.0413  -12.2505 C   0  0  0  0  0  0  0  0  0  0  0  0
  -23.8130   -0.8576  -11.4592 N   0  0  0  0  0  0  0  0  0  0  0  0
  -22.6625   -0.5099  -12.0955 C   0  0  0  0  0  0  0  0  0  0  0  0
  -26.1462   -1.3964  -11.5763 C   0  0  0  0  0  0  0  0  0  0  0  0
  -27.3697   -1.3349  -12.0769 N   0  0  0  0  0  0  0  0  0  0  0  0
  -28.2124   -1.7204  -11.0690 C   0  0  0  0  0  0  0  0  0  0  0  0
  -27.5030   -2.0197   -9.9322 C   0  0  0  0  0  0  0  0  0  0  0  0
  -26.1927   -1.8359  -10.2747 N   0  0  0  0  0  0  0  0  0  0  0  0
  -25.3748   -1.9639   -9.6942 H   0  0  0  0  0  0  0  0  0  0  0  0
  8  9  2  0  0  0
  9 10  1  0  0  0
  9  1  1  0  0  0
 10 12  1  0  0  0
 10 11  1  0  0  0
 12 13  1  0  0  0
 12 18  2  0  0  0
 13 14  2  0  0  0
 14 15  1  0  0  0
 15 16  1  0  0  0
 15 17  2  0  0  0
 17 19  1  0  0  0
 17 18  1  0  0  0
 19 20  1  0  0  0
 19 21  1  0  0  0
 19 22  1  0  0  0
  1  2  1  0  0  0
  1  7  2  0  0  0
  2  3  2  0  0  0
  3  4  1  0  0  0
  4  5  1  0  0  0
  4  6  2  0  0  0
  6 23  1  0  0  0
  6  7  1  0  0  0
 23 24  2  0  0  0
 23 25  1  0  0  0
 25 27  1  0  0  0
 25 26  1  0  0  0
 27 28  1  0  0  0
 27 32  2  0  0  0
 28 29  2  0  0  0
 29 30  1  0  0  0
 30 33  1  0  0  0
 30 31  2  0  0  0
 33 34  2  0  0  0
 33 37  1  0  0  0
 34 35  1  0  0  0
 35 36  2  0  0  0
 36 37  1  0  0  0
 37 38  1  0  0  0
 31 32  1  0  0  0
M  END
> <minimizedAffinity>
-8.68703

$$$$
