CHEMBL4173438


 34 37  0  0  0  0  0  0  0  0999 V2000
  -17.4106    2.5747  -15.2943 C   0  0  0  0  0  0  0  0  0  0  0  0
  -17.4816    1.2104  -15.0238 C   0  0  0  0  0  0  0  0  0  0  0  0
  -18.7209    0.5628  -14.9902 C   0  0  0  0  0  0  0  0  0  0  0  0
  -19.9086    1.2725  -15.2102 C   0  0  0  0  0  0  0  0  0  0  0  0
  -19.8310    2.6419  -15.4517 C   0  0  0  0  0  0  0  0  0  0  0  0
  -18.5902    3.2954  -15.4763 C   0  0  0  0  0  0  0  0  0  0  0  0
  -21.1870    0.6665  -15.2369 N   0  0  0  0  0  0  0  0  0  0  0  0
  -21.9557    0.3272  -14.1407 C   0  0  0  0  0  0  0  0  0  0  0  0
  -21.6996    0.6156  -12.9770 O   0  0  0  0  0  0  0  0  0  0  0  0
  -23.0590   -0.4365  -14.5068 N   0  0  0  0  0  0  0  0  0  0  0  0
  -21.6386    0.5998  -16.1365 H   0  0  0  0  0  0  0  0  0  0  0  0
  -22.8903   -1.0477  -15.2935 H   0  0  0  0  0  0  0  0  0  0  0  0
  -23.9671   -0.9025  -13.5308 C   0  0  0  0  0  0  0  0  0  0  0  0
  -23.5312   -1.0424  -12.2187 C   0  0  0  0  0  0  0  0  0  0  0  0
  -24.4402   -1.4099  -11.2254 C   0  0  0  0  0  0  0  0  0  0  0  0
  -25.7771   -1.6973  -11.5398 C   0  0  0  0  0  0  0  0  0  0  0  0
  -26.7976   -2.1281  -10.2185 Cl  0  0  0  0  0  0  0  0  0  0  0  0
  -26.2202   -1.6222  -12.8613 C   0  0  0  0  0  0  0  0  0  0  0  0
  -25.2949   -1.2070  -13.8482 C   0  0  0  0  0  0  0  0  0  0  0  0
  -27.6180   -1.9501  -13.3229 C   0  0  0  0  0  0  0  0  0  0  0  0
  -27.9557   -3.2662  -13.3378 F   0  0  0  0  0  0  0  0  0  0  0  0
  -28.5705   -1.3386  -12.5629 F   0  0  0  0  0  0  0  0  0  0  0  0
  -27.8387   -1.5145  -14.5990 F   0  0  0  0  0  0  0  0  0  0  0  0
  -16.1513    3.1284  -15.2856 O   0  0  0  0  0  0  0  0  0  0  0  0
  -12.7618    1.7355  -20.0640 C   0  0  0  0  0  0  0  0  0  0  0  0
  -13.5619    1.7184  -18.8625 N   0  0  0  0  0  0  0  0  0  0  0  0
  -13.7487    0.6368  -18.0393 C   0  0  0  0  0  0  0  0  0  0  0  0
  -14.5410    1.0429  -16.9848 C   0  0  0  0  0  0  0  0  0  0  0  0
  -14.8466    2.4172  -17.1822 C   0  0  0  0  0  0  0  0  0  0  0  0
  -15.5491    3.4123  -16.5023 C   0  0  0  0  0  0  0  0  0  0  0  0
  -15.6684    4.6461  -17.0500 N   0  0  0  0  0  0  0  0  0  0  0  0
  -15.0345    4.8761  -18.2125 C   0  0  0  0  0  0  0  0  0  0  0  0
  -14.2849    4.0236  -18.9309 N   0  0  0  0  0  0  0  0  0  0  0  0
  -14.2377    2.8039  -18.3676 C   0  0  0  0  0  0  0  0  0  0  0  0
 25 26  1  0  0  0
 26 27  1  0  0  0
 26 34  1  0  0  0
 27 28  2  0  0  0
 28 29  1  0  0  0
 29 30  1  0  0  0
 29 34  2  0  0  0
 30 24  1  0  0  0
 30 31  2  0  0  0
 24  1  1  0  0  0
  1  2  1  0  0  0
  1  6  2  0  0  0
  2  3  2  0  0  0
  3  4  1  0  0  0
  4  7  1  0  0  0
  4  5  2  0  0  0
  7  8  1  0  0  0
  7 11  1  0  0  0
  8  9  2  0  0  0
  8 10  1  0  0  0
 10 13  1  0  0  0
 10 12  1  0  0  0
 13 14  1  0  0  0
 13 19  2  0  0  0
 14 15  2  0  0  0
 15 16  1  0  0  0
 16 17  1  0  0  0
 16 18  2  0  0  0
 18 20  1  0  0  0
 18 19  1  0  0  0
 20 21  1  0  0  0
 20 22  1  0  0  0
 20 23  1  0  0  0
  5  6  1  0  0  0
 31 32  1  0  0  0
 32 33  2  0  0  0
 33 34  1  0  0  0
M  END
> <minimizedAffinity>
-9.64827

$$$$
