CHEMBL4639539


 43 48  0  0  0  0  0  0  0  0999 V2000
  -25.1623  -11.3261   -7.7670 C   0  0  0  0  0  0  0  0  0  0  0  0
  -26.4741  -11.4715   -8.2746 C   0  0  0  0  0  0  0  0  0  0  0  0
  -27.5485  -10.7211   -7.7506 C   0  0  0  0  0  0  0  0  0  0  0  0
  -27.2971   -9.8398   -6.7078 C   0  0  0  0  0  0  0  0  0  0  0  0
  -25.9819   -9.7103   -6.2406 C   0  0  0  0  0  0  0  0  0  0  0  0
  -24.9082  -10.4090   -6.7459 C   0  0  0  0  0  0  0  0  0  0  0  0
  -25.9128   -8.8545   -5.1499 N   0  0  0  0  0  0  0  0  0  0  0  0
  -27.1735   -8.4397   -4.7736 C   0  0  0  0  0  0  0  0  0  0  0  0
  -27.4264   -7.8998   -3.7120 O   0  0  0  0  0  0  0  0  0  0  0  0
  -28.1084   -8.9355   -5.8637 C   0  0  0  0  0  0  0  0  0  0  0  0
  -29.4059   -8.5662   -5.8818 C   0  0  0  0  0  0  0  0  0  0  0  0
  -25.1044   -8.7001   -4.5699 H   0  0  0  0  0  0  0  0  0  0  0  0
  -30.3918   -9.3258   -6.6837 C   0  0  0  0  0  0  0  0  0  0  0  0
  -30.4949  -10.7145   -6.4981 C   0  0  0  0  0  0  0  0  0  0  0  0
  -31.4306  -11.4651   -7.2178 C   0  0  0  0  0  0  0  0  0  0  0  0
  -32.2707  -10.8301   -8.1283 C   0  0  0  0  0  0  0  0  0  0  0  0
  -32.1877   -9.4505   -8.3150 C   0  0  0  0  0  0  0  0  0  0  0  0
  -31.2547   -8.6965   -7.5904 C   0  0  0  0  0  0  0  0  0  0  0  0
  -24.0002  -12.1467   -8.2157 C   0  0  0  0  0  0  0  0  0  0  0  0
  -23.8127  -12.4484   -9.3804 O   0  0  0  0  0  0  0  0  0  0  0  0
  -22.2026  -11.4690   -6.9191 C   0  0  0  0  0  0  0  0  0  0  0  0
  -23.2005  -12.4613   -7.1691 O   0  0  0  0  0  0  0  0  0  0  0  0
  -29.9872   -7.5939   -5.0749 N   0  0  0  0  0  0  0  0  0  0  0  0
  -30.8590   -7.8673   -4.6264 H   0  0  0  0  0  0  0  0  0  0  0  0
  -29.7692   -6.2017   -5.0815 C   0  0  0  0  0  0  0  0  0  0  0  0
  -29.7509   -5.5338   -6.3023 C   0  0  0  0  0  0  0  0  0  0  0  0
  -29.5846   -4.1447   -6.3609 C   0  0  0  0  0  0  0  0  0  0  0  0
  -29.4102   -3.4189   -5.1829 C   0  0  0  0  0  0  0  0  0  0  0  0
  -29.4518   -4.0372   -3.9771 N   0  0  0  0  0  0  0  0  0  0  0  0
  -29.6594   -5.3887   -3.9570 C   0  0  0  0  0  0  0  0  0  0  0  0
  -29.1652   -1.9941   -5.2482 N   0  0  0  0  0  0  0  0  0  0  0  0
  -28.9639   -1.1659   -4.1478 C   0  0  0  0  0  0  0  0  0  0  0  0
  -28.7891    0.1335   -4.5547 C   0  0  0  0  0  0  0  0  0  0  0  0
  -28.9022    0.1343   -5.9507 C   0  0  0  0  0  0  0  0  0  0  0  0
  -29.1094   -1.1715   -6.3823 C   0  0  0  0  0  0  0  0  0  0  0  0
  -29.3127   -1.6501   -7.7956 C   0  0  0  0  0  0  0  0  0  0  0  0
  -28.1242   -1.4205   -8.6434 N   0  0  0  0  0  0  0  0  0  0  0  0
  -27.5651   -2.6870   -9.1598 C   0  0  0  0  0  0  0  0  0  0  0  0
  -26.3166   -2.4251  -10.0325 C   0  0  0  0  0  0  0  0  0  0  0  0
  -26.5427   -1.5253  -11.1817 N   0  0  0  0  0  0  0  0  0  0  0  0
  -27.2827   -2.1982  -12.2457 C   0  0  0  0  0  0  0  0  0  0  0  0
  -27.2396   -0.3087  -10.7133 C   0  0  0  0  0  0  0  0  0  0  0  0
  -28.4597   -0.5514   -9.7884 C   0  0  0  0  0  0  0  0  0  0  0  0
 21 22  1  0  0  0
 22 19  1  0  0  0
 19 20  2  0  0  0
 19  1  1  0  0  0
  1  2  1  0  0  0
  1  6  2  0  0  0
  2  3  2  0  0  0
  3  4  1  0  0  0
  4  5  2  0  0  0
  4 10  1  0  0  0
  5  6  1  0  0  0
  5  7  1  0  0  0
  7  8  1  0  0  0
  7 12  1  0  0  0
  8  9  2  0  0  0
  8 10  1  0  0  0
 10 11  2  0  0  0
 11 23  1  0  0  0
 11 13  1  0  0  0
 23 25  1  0  0  0
 23 24  1  0  0  0
 25 26  1  0  0  0
 25 30  2  0  0  0
 26 27  2  0  0  0
 27 28  1  0  0  0
 28 31  1  0  0  0
 28 29  2  0  0  0
 31 32  1  0  0  0
 31 35  1  0  0  0
 32 33  2  0  0  0
 33 34  1  0  0  0
 34 35  2  0  0  0
 35 36  1  0  0  0
 36 37  1  0  0  0
 37 38  1  0  0  0
 37 43  1  0  0  0
 38 39  1  0  0  0
 39 40  1  0  0  0
 40 41  1  0  0  0
 40 42  1  0  0  0
 42 43  1  0  0  0
 29 30  1  0  0  0
 13 14  1  0  0  0
 13 18  2  0  0  0
 14 15  2  0  0  0
 15 16  1  0  0  0
 16 17  2  0  0  0
 17 18  1  0  0  0
M  END
> <minimizedAffinity>
-4.21487

$$$$
