CHEMBL3742349


 38 42  0  0  0  0  0  0  0  0999 V2000
  -13.6972   -0.3994  -14.0814 C   0  0  0  0  0  0  0  0  0  0  0  0
  -12.8986    0.0380  -13.2637 O   0  0  0  0  0  0  0  0  0  0  0  0
  -13.6543   -1.7887  -14.5970 C   0  0  0  0  0  0  0  0  0  0  0  0
  -13.3394   -2.2150  -15.8930 C   0  0  0  0  0  0  0  0  0  0  0  0
  -12.9153   -1.5106  -17.1376 C   0  0  0  0  0  0  0  0  0  0  0  0
  -13.4602   -3.5856  -15.9255 N   0  0  0  0  0  0  0  0  0  0  0  0
  -13.7969   -4.0946  -14.6938 C   0  0  0  0  0  0  0  0  0  0  0  0
  -13.9117   -3.0026  -13.8284 C   0  0  0  0  0  0  0  0  0  0  0  0
  -13.2934   -4.1542  -16.7444 H   0  0  0  0  0  0  0  0  0  0  0  0
  -13.9990   -5.5462  -14.4925 C   0  0  0  0  0  0  0  0  0  0  0  0
  -12.9095   -6.4276  -14.5348 C   0  0  0  0  0  0  0  0  0  0  0  0
  -13.0271   -7.7410  -14.0775 C   0  0  0  0  0  0  0  0  0  0  0  0
  -14.2623   -8.2210  -13.6562 C   0  0  0  0  0  0  0  0  0  0  0  0
  -15.3813   -7.3938  -13.7158 C   0  0  0  0  0  0  0  0  0  0  0  0
  -15.2513   -6.0601  -14.1235 C   0  0  0  0  0  0  0  0  0  0  0  0
  -14.2825   -3.1239  -12.4046 C   0  0  0  0  0  0  0  0  0  0  0  0
  -15.5312   -2.6787  -11.9503 C   0  0  0  0  0  0  0  0  0  0  0  0
  -15.9222   -2.8338  -10.6190 C   0  0  0  0  0  0  0  0  0  0  0  0
  -15.0127   -3.3095   -9.6819 C   0  0  0  0  0  0  0  0  0  0  0  0
  -13.7377   -3.6820  -10.0927 C   0  0  0  0  0  0  0  0  0  0  0  0
  -13.3982   -3.6478  -11.4495 C   0  0  0  0  0  0  0  0  0  0  0  0
  -14.6437    1.7321  -15.1486 C   0  0  0  0  0  0  0  0  0  0  0  0
  -15.8480    2.3266  -15.2740 N   0  0  0  0  0  0  0  0  0  0  0  0
  -16.7287    1.4909  -14.6810 N   0  0  0  0  0  0  0  0  0  0  0  0
  -16.1059    0.3828  -14.1610 C   0  0  0  0  0  0  0  0  0  0  0  0
  -14.7721    0.4750  -14.4900 C   0  0  0  0  0  0  0  0  0  0  0  0
  -18.1095    1.7836  -14.6438 C   0  0  0  0  0  0  0  0  0  0  0  0
  -19.0404    0.7880  -14.9565 C   0  0  0  0  0  0  0  0  0  0  0  0
  -20.4059    1.0626  -14.8954 C   0  0  0  0  0  0  0  0  0  0  0  0
  -20.8565    2.3386  -14.5235 C   0  0  0  0  0  0  0  0  0  0  0  0
  -22.3139    2.6543  -14.4476 C   0  0  0  0  0  0  0  0  0  0  0  0
  -19.9219    3.3343  -14.2281 C   0  0  0  0  0  0  0  0  0  0  0  0
  -18.5577    3.0665  -14.2831 C   0  0  0  0  0  0  0  0  0  0  0  0
  -13.3908    2.3572  -15.5950 C   0  0  0  0  0  0  0  0  0  0  0  0
  -12.6168    1.8345  -16.3897 O   0  0  0  0  0  0  0  0  0  0  0  0
  -13.1544    3.5352  -14.9422 O   0  0  0  0  0  0  0  0  0  0  0  0
  -11.8154    3.2228  -12.9946 C   0  0  0  0  0  0  0  0  0  0  0  0
  -11.8228    3.7049  -14.4344 C   0  0  0  0  0  0  0  0  0  0  0  0
 37 38  1  0  0  0
 38 36  1  0  0  0
 36 34  1  0  0  0
 34 35  2  0  0  0
 34 22  1  0  0  0
 22 23  2  0  0  0
 22 26  1  0  0  0
 23 24  1  0  0  0
 24 27  1  0  0  0
 24 25  1  0  0  0
 27 28  1  0  0  0
 27 33  2  0  0  0
 28 29  2  0  0  0
 29 30  1  0  0  0
 30 31  1  0  0  0
 30 32  2  0  0  0
 32 33  1  0  0  0
 25 26  2  0  0  0
 26  1  1  0  0  0
  1  2  2  0  0  0
  1  3  1  0  0  0
  3  4  2  0  0  0
  3  8  1  0  0  0
  4  5  1  0  0  0
  4  6  1  0  0  0
  6  7  1  0  0  0
  6  9  1  0  0  0
  7 10  1  0  0  0
  7  8  2  0  0  0
 10 11  1  0  0  0
 10 15  2  0  0  0
 11 12  2  0  0  0
 12 13  1  0  0  0
 13 14  2  0  0  0
 14 15  1  0  0  0
  8 16  1  0  0  0
 16 17  1  0  0  0
 16 21  2  0  0  0
 17 18  2  0  0  0
 18 19  1  0  0  0
 19 20  2  0  0  0
 20 21  1  0  0  0
M  END
> <minimizedAffinity>
-8.74567

$$$$
