CHEMBL3906789


 36 40  0  0  0  0  0  0  0  0999 V2000
  -26.8633   11.7432  -14.6393 C   0  0  0  0  0  0  0  0  0  0  0  0
  -25.6124   11.7482  -13.9973 C   0  0  0  0  0  0  0  0  0  0  0  0
  -24.4344   11.3751  -14.6268 C   0  0  0  0  0  0  0  0  0  0  0  0
  -23.2955   11.3977  -13.9292 N   0  0  0  0  0  0  0  0  0  0  0  0
  -22.1838   11.0394  -14.5724 C   0  0  0  0  0  0  0  0  0  0  0  0
  -22.1034   10.6916  -15.8580 N   0  0  0  0  0  0  0  0  0  0  0  0
  -23.2487   10.6858  -16.5596 C   0  0  0  0  0  0  0  0  0  0  0  0
  -24.4928   11.0046  -15.9728 C   0  0  0  0  0  0  0  0  0  0  0  0
  -25.7557   10.9634  -16.6246 C   0  0  0  0  0  0  0  0  0  0  0  0
  -26.9347   11.3413  -15.9712 C   0  0  0  0  0  0  0  0  0  0  0  0
  -23.2195   10.3552  -17.9482 N   0  0  0  0  0  0  0  0  0  0  0  0
  -24.1758   10.2296  -18.2669 H   0  0  0  0  0  0  0  0  0  0  0  0
  -22.4109   10.8954  -18.9729 C   0  0  0  0  0  0  0  0  0  0  0  0
  -22.8092   11.9695  -19.7754 C   0  0  0  0  0  0  0  0  0  0  0  0
  -21.9621   12.4915  -20.7583 C   0  0  0  0  0  0  0  0  0  0  0  0
  -20.6805   11.9704  -20.9287 C   0  0  0  0  0  0  0  0  0  0  0  0
  -19.6931   12.6463  -22.1729 Cl  0  0  0  0  0  0  0  0  0  0  0  0
  -20.2415   10.9399  -20.0952 C   0  0  0  0  0  0  0  0  0  0  0  0
  -18.6557   10.2624  -20.2145 Cl  0  0  0  0  0  0  0  0  0  0  0  0
  -21.0981   10.4190  -19.1173 C   0  0  0  0  0  0  0  0  0  0  0  0
  -28.0856   11.1379  -16.6797 O   0  0  0  0  0  0  0  0  0  0  0  0
  -29.1047   10.4133  -15.9945 C   0  0  0  0  0  0  0  0  0  0  0  0
  -27.8631   12.1677  -13.8158 O   0  0  0  0  0  0  0  0  0  0  0  0
  -27.9696   11.6009  -12.5132 C   0  0  0  0  0  0  0  0  0  0  0  0
  -31.4431   11.6202  -12.0013 C   0  0  0  0  0  0  0  0  0  0  0  0
  -30.4319   11.3943  -12.8107 N   0  0  0  0  0  0  0  0  0  0  0  0
  -29.3642   11.6887  -12.0130 C   0  0  0  0  0  0  0  0  0  0  0  0
  -29.6688   12.0693  -10.7647 N   0  0  0  0  0  0  0  0  0  0  0  0
  -31.0648   12.0244  -10.7539 O   0  0  0  0  0  0  0  0  0  0  0  0
  -33.1361   10.5594  -13.4031 N   0  0  0  0  0  0  0  0  0  0  0  0
  -33.3841    9.2458  -12.7825 C   0  0  0  0  0  0  0  0  0  0  0  0
  -34.1994    9.5563  -11.5428 C   0  0  0  0  0  0  0  0  0  0  0  0
  -33.6052   10.8605  -11.0417 C   0  0  0  0  0  0  0  0  0  0  0  0
  -32.9098   11.4837  -12.2626 C   0  0  0  0  0  0  0  0  0  0  0  0
  -34.6842    9.8319  -15.2328 C   0  0  0  0  0  0  0  0  0  0  0  0
  -34.2341   10.9477  -14.2942 C   0  0  0  0  0  0  0  0  0  0  0  0
 35 36  1  0  0  0
 36 30  1  0  0  0
 30 31  1  0  0  0
 30 34  1  0  0  0
 31 32  1  0  0  0
 32 33  1  0  0  0
 33 34  1  0  0  0
 34 25  1  0  0  0
 25 26  2  0  0  0
 25 29  1  0  0  0
 26 27  1  0  0  0
 27 24  1  0  0  0
 27 28  2  0  0  0
 24 23  1  0  0  0
 23  1  1  0  0  0
  1  2  1  0  0  0
  1 10  2  0  0  0
  2  3  2  0  0  0
  3  4  1  0  0  0
  3  8  1  0  0  0
  4  5  2  0  0  0
  5  6  1  0  0  0
  6  7  2  0  0  0
  7 11  1  0  0  0
  7  8  1  0  0  0
 11 13  1  0  0  0
 11 12  1  0  0  0
 13 14  1  0  0  0
 13 20  2  0  0  0
 14 15  2  0  0  0
 15 16  1  0  0  0
 16 17  1  0  0  0
 16 18  2  0  0  0
 18 19  1  0  0  0
 18 20  1  0  0  0
  8  9  2  0  0  0
  9 10  1  0  0  0
 10 21  1  0  0  0
 21 22  1  0  0  0
 28 29  1  0  0  0
M  END
> <minimizedAffinity>
-3.55573

$$$$
