CHEMBL509707


 38 42  0  0  0  0  0  0  0  0999 V2000
  -14.8242    3.3819  -16.1502 C   0  0  0  0  0  0  0  0  0  0  0  0
  -15.7393    4.4283  -16.2957 C   0  0  0  0  0  0  0  0  0  0  0  0
  -17.0705    4.3008  -15.8481 C   0  0  0  0  0  0  0  0  0  0  0  0
  -17.4845    3.0911  -15.2520 C   0  0  0  0  0  0  0  0  0  0  0  0
  -18.6893    2.5497  -14.7005 C   0  0  0  0  0  0  0  0  0  0  0  0
  -18.5031    1.3040  -14.2514 N   0  0  0  0  0  0  0  0  0  0  0  0
  -17.2354    1.0161  -14.5810 N   0  0  0  0  0  0  0  0  0  0  0  0
  -16.7517   -0.3246  -14.3686 C   0  0  0  0  0  0  0  0  0  0  0  0
  -16.5542    2.0582  -15.1487 C   0  0  0  0  0  0  0  0  0  0  0  0
  -15.2312    2.1621  -15.5981 C   0  0  0  0  0  0  0  0  0  0  0  0
  -19.9183    3.1749  -14.6261 N   0  0  0  0  0  0  0  0  0  0  0  0
  -21.1344    2.6102  -14.3155 C   0  0  0  0  0  0  0  0  0  0  0  0
  -22.1283    3.3347  -14.3535 O   0  0  0  0  0  0  0  0  0  0  0  0
  -21.1227    1.2815  -13.9719 N   0  0  0  0  0  0  0  0  0  0  0  0
  -19.9687    4.1511  -14.8682 H   0  0  0  0  0  0  0  0  0  0  0  0
  -20.1853    0.8995  -13.8573 H   0  0  0  0  0  0  0  0  0  0  0  0
  -22.2076    0.4567  -13.6262 C   0  0  0  0  0  0  0  0  0  0  0  0
  -23.1673    0.0359  -14.5440 C   0  0  0  0  0  0  0  0  0  0  0  0
  -24.2681   -0.7189  -14.1267 C   0  0  0  0  0  0  0  0  0  0  0  0
  -24.4280   -1.0628  -12.7808 C   0  0  0  0  0  0  0  0  0  0  0  0
  -25.6630   -1.7775  -12.3185 C   0  0  0  0  0  0  0  0  0  0  0  0
  -23.4357   -0.6927  -11.8680 C   0  0  0  0  0  0  0  0  0  0  0  0
  -22.3256    0.0502  -12.2910 C   0  0  0  0  0  0  0  0  0  0  0  0
  -13.5383    3.5907  -16.6252 O   0  0  0  0  0  0  0  0  0  0  0  0
  -11.7132    8.3606  -16.9936 C   0  0  0  0  0  0  0  0  0  0  0  0
  -11.1954    7.7384  -15.8471 C   0  0  0  0  0  0  0  0  0  0  0  0
  -11.5119    6.4380  -15.4874 C   0  0  0  0  0  0  0  0  0  0  0  0
  -10.9054    5.9318  -14.4027 N   0  0  0  0  0  0  0  0  0  0  0  0
  -11.2064    4.6730  -14.0293 C   0  0  0  0  0  0  0  0  0  0  0  0
  -12.0893    3.8674  -14.7069 C   0  0  0  0  0  0  0  0  0  0  0  0
  -12.6774    4.3733  -15.8699 C   0  0  0  0  0  0  0  0  0  0  0  0
  -12.4233    5.7093  -16.2712 C   0  0  0  0  0  0  0  0  0  0  0  0
  -13.0001    6.3527  -17.3938 C   0  0  0  0  0  0  0  0  0  0  0  0
  -12.6418    7.6615  -17.7730 C   0  0  0  0  0  0  0  0  0  0  0  0
  -10.7941   10.4322  -16.2826 C   0  0  0  0  0  0  0  0  0  0  0  0
  -11.3588    9.6428  -17.3320 O   0  0  0  0  0  0  0  0  0  0  0  0
  -13.2841    8.0688  -18.9113 O   0  0  0  0  0  0  0  0  0  0  0  0
  -14.7008    8.1776  -18.9190 C   0  0  0  0  0  0  0  0  0  0  0  0
 35 36  1  0  0  0
 36 25  1  0  0  0
 25 26  1  0  0  0
 25 34  2  0  0  0
 26 27  2  0  0  0
 27 28  1  0  0  0
 27 32  1  0  0  0
 28 29  2  0  0  0
 29 30  1  0  0  0
 30 31  2  0  0  0
 31 24  1  0  0  0
 31 32  1  0  0  0
 24  1  1  0  0  0
  1  2  1  0  0  0
  1 10  2  0  0  0
  2  3  2  0  0  0
  3  4  1  0  0  0
  4  5  1  0  0  0
  4  9  2  0  0  0
  5 11  1  0  0  0
  5  6  2  0  0  0
 11 12  1  0  0  0
 11 15  1  0  0  0
 12 13  2  0  0  0
 12 14  1  0  0  0
 14 17  1  0  0  0
 14 16  1  0  0  0
 17 18  1  0  0  0
 17 23  2  0  0  0
 18 19  2  0  0  0
 19 20  1  0  0  0
 20 21  1  0  0  0
 20 22  2  0  0  0
 22 23  1  0  0  0
  6  7  1  0  0  0
  7  8  1  0  0  0
  7  9  1  0  0  0
  9 10  1  0  0  0
 32 33  2  0  0  0
 33 34  1  0  0  0
 34 37  1  0  0  0
 37 38  1  0  0  0
M  END
> <minimizedAffinity>
-8.65661

$$$$
