CHEMBL2337364


 28 31  0  0  0  0  0  0  0  0999 V2000
  -11.5771   -2.6884   -8.0114 N   0  0  0  0  0  0  0  0  0  0  0  0
  -11.9724   -3.6744   -8.8942 C   0  0  0  0  0  0  0  0  0  0  0  0
  -13.0626   -3.4174   -9.6165 N   0  0  0  0  0  0  0  0  0  0  0  0
  -13.5347   -4.3220  -10.5200 C   0  0  0  0  0  0  0  0  0  0  0  0
  -12.8316   -5.5339  -10.6657 C   0  0  0  0  0  0  0  0  0  0  0  0
  -11.7090   -5.6549   -9.8588 C   0  0  0  0  0  0  0  0  0  0  0  0
  -11.2257   -4.7681   -8.9799 N   0  0  0  0  0  0  0  0  0  0  0  0
  -11.1366   -6.8676  -10.0804 N   0  0  0  0  0  0  0  0  0  0  0  0
  -11.8712   -7.5838  -10.9919 C   0  0  0  0  0  0  0  0  0  0  0  0
  -11.6561   -8.8865  -11.4646 C   0  0  0  0  0  0  0  0  0  0  0  0
  -12.5602   -9.4121  -12.3871 C   0  0  0  0  0  0  0  0  0  0  0  0
  -13.6403   -8.6585  -12.8247 C   0  0  0  0  0  0  0  0  0  0  0  0
  -13.8315   -7.3610  -12.3397 C   0  0  0  0  0  0  0  0  0  0  0  0
  -15.1735   -6.4581  -12.8852 Cl  0  0  0  0  0  0  0  0  0  0  0  0
  -12.9491   -6.7759  -11.3991 C   0  0  0  0  0  0  0  0  0  0  0  0
  -11.9468   -1.8015   -8.3239 H   0  0  0  0  0  0  0  0  0  0  0  0
  -10.5820   -2.7425   -7.8544 H   0  0  0  0  0  0  0  0  0  0  0  0
  -10.3089   -7.1902   -9.6022 H   0  0  0  0  0  0  0  0  0  0  0  0
  -14.6773   -3.9774  -11.2450 N   0  0  0  0  0  0  0  0  0  0  0  0
  -15.5451   -4.4072  -10.9449 H   0  0  0  0  0  0  0  0  0  0  0  0
  -14.8336   -2.9046  -12.1401 C   0  0  0  0  0  0  0  0  0  0  0  0
  -15.6426   -1.8022  -11.8298 C   0  0  0  0  0  0  0  0  0  0  0  0
  -15.7382   -0.7120  -12.6955 C   0  0  0  0  0  0  0  0  0  0  0  0
  -15.0000   -0.7034  -13.8754 C   0  0  0  0  0  0  0  0  0  0  0  0
  -15.0887    0.6594  -14.9205 Cl  0  0  0  0  0  0  0  0  0  0  0  0
  -14.1872   -1.7829  -14.2083 C   0  0  0  0  0  0  0  0  0  0  0  0
  -14.1180   -2.8742  -13.3458 C   0  0  0  0  0  0  0  0  0  0  0  0
  -13.3205   -3.9033  -13.6709 F   0  0  0  0  0  0  0  0  0  0  0  0
  1  2  1  0  0  0
  1 16  1  0  0  0
  1 17  1  0  0  0
  2  3  1  0  0  0
  2  7  2  0  0  0
  3  4  2  0  0  0
  4 19  1  0  0  0
  4  5  1  0  0  0
 19 21  1  0  0  0
 19 20  1  0  0  0
 21 22  1  0  0  0
 21 27  2  0  0  0
 22 23  2  0  0  0
 23 24  1  0  0  0
 24 25  1  0  0  0
 24 26  2  0  0  0
 26 27  1  0  0  0
 27 28  1  0  0  0
  5  6  2  0  0  0
  5 15  1  0  0  0
  6  7  1  0  0  0
  6  8  1  0  0  0
  8  9  1  0  0  0
  8 18  1  0  0  0
  9 10  1  0  0  0
  9 15  2  0  0  0
 10 11  2  0  0  0
 11 12  1  0  0  0
 12 13  2  0  0  0
 13 14  1  0  0  0
 13 15  1  0  0  0
M  END
> <minimizedAffinity>
-7.46367

$$$$
