CHEMBL4443510


 31 33  0  0  0  0  0  0  0  0999 V2000
  -29.2062   -3.5919   -7.0304 C   0  0  0  0  0  0  0  0  0  0  0  0
  -29.2641   -2.5123   -6.1479 C   0  0  0  0  0  0  0  0  0  0  0  0
  -28.5881   -1.3305   -6.4276 C   0  0  0  0  0  0  0  0  0  0  0  0
  -27.8118   -1.2240   -7.5745 C   0  0  0  0  0  0  0  0  0  0  0  0
  -27.6599   -2.3083   -8.4445 C   0  0  0  0  0  0  0  0  0  0  0  0
  -28.3837   -3.4894   -8.1758 C   0  0  0  0  0  0  0  0  0  0  0  0
  -28.4972   -5.8832   -5.3028 O   0  0  0  0  0  0  0  0  0  0  0  0
  -29.5193   -5.8519   -5.9798 C   0  0  0  0  0  0  0  0  0  0  0  0
  -29.9328   -4.7921   -6.7904 N   0  0  0  0  0  0  0  0  0  0  0  0
  -30.8734   -4.8248   -7.1561 H   0  0  0  0  0  0  0  0  0  0  0  0
  -30.4591   -7.0485   -6.0201 C   0  0  0  0  0  0  0  0  0  0  0  0
  -31.0358   -7.2604   -7.4271 C   0  0  0  0  0  0  0  0  0  0  0  0
  -31.5223   -9.0119   -7.6403 S   0  0  0  0  0  0  0  0  0  0  0  0
  -29.9631   -9.8561   -7.5173 C   0  0  0  0  0  0  0  0  0  0  0  0
  -29.6902  -10.9106   -6.2306 S   0  0  0  0  0  0  0  0  0  0  0  0
  -29.0525   -9.6310   -8.5665 N   0  0  0  0  0  0  0  0  0  0  0  0
  -29.3725   -9.7875   -9.9959 C   0  0  0  0  0  0  0  0  0  0  0  0
  -28.5388  -10.9196  -10.6035 C   0  0  0  0  0  0  0  0  0  0  0  0
  -27.0432  -10.6892  -10.3902 C   0  0  0  0  0  0  0  0  0  0  0  0
  -26.7323  -10.4478   -8.9149 C   0  0  0  0  0  0  0  0  0  0  0  0
  -27.6221   -9.3491   -8.3346 C   0  0  0  0  0  0  0  0  0  0  0  0
  -26.7901   -2.2487   -9.5641 N   0  0  0  0  0  0  0  0  0  0  0  0
  -27.0642   -1.6071  -10.7709 C   0  0  0  0  0  0  0  0  0  0  0  0
  -28.1007   -1.0191  -11.0655 O   0  0  0  0  0  0  0  0  0  0  0  0
  -25.8432   -2.6077   -9.4745 H   0  0  0  0  0  0  0  0  0  0  0  0
  -25.9496   -1.6040  -11.7727 C   0  0  0  0  0  0  0  0  0  0  0  0
  -24.6353   -1.6506  -11.3061 C   0  0  0  0  0  0  0  0  0  0  0  0
  -23.6003   -1.6760  -12.2334 C   0  0  0  0  0  0  0  0  0  0  0  0
  -23.9092   -1.6467  -13.5870 C   0  0  0  0  0  0  0  0  0  0  0  0
  -25.2484   -1.5920  -13.9588 C   0  0  0  0  0  0  0  0  0  0  0  0
  -26.2859   -1.5741  -13.0881 N   0  0  0  0  0  0  0  0  0  0  0  0
  7  8  2  0  0  0
  8 11  1  0  0  0
  8  9  1  0  0  0
 11 12  1  0  0  0
 12 13  1  0  0  0
 13 14  1  0  0  0
 14 15  2  0  0  0
 14 16  1  0  0  0
 16 17  1  0  0  0
 16 21  1  0  0  0
 17 18  1  0  0  0
 18 19  1  0  0  0
 19 20  1  0  0  0
 20 21  1  0  0  0
  9  1  1  0  0  0
  9 10  1  0  0  0
  1  2  1  0  0  0
  1  6  2  0  0  0
  2  3  2  0  0  0
  3  4  1  0  0  0
  4  5  2  0  0  0
  5 22  1  0  0  0
  5  6  1  0  0  0
 22 23  1  0  0  0
 22 25  1  0  0  0
 23 24  2  0  0  0
 23 26  1  0  0  0
 26 27  1  0  0  0
 26 31  2  0  0  0
 27 28  2  0  0  0
 28 29  1  0  0  0
 29 30  2  0  0  0
 30 31  1  0  0  0
M  END
> <minimizedAffinity>
-8.37047

$$$$
