CHEMBL4160813


 32 34  0  0  0  0  0  0  0  0999 V2000
  -22.9233    0.1945  -13.3068 C   0  0  0  0  0  0  0  0  0  0  0  0
  -24.1878   -0.0407  -13.8591 C   0  0  0  0  0  0  0  0  0  0  0  0
  -25.1175   -0.8778  -13.2410 C   0  0  0  0  0  0  0  0  0  0  0  0
  -24.8256   -1.5357  -12.0491 C   0  0  0  0  0  0  0  0  0  0  0  0
  -23.5560   -1.3458  -11.4932 C   0  0  0  0  0  0  0  0  0  0  0  0
  -22.6188   -0.4948  -12.1182 C   0  0  0  0  0  0  0  0  0  0  0  0
  -19.8775    1.4137  -14.8985 C   0  0  0  0  0  0  0  0  0  0  0  0
  -20.1324    2.7379  -15.2151 C   0  0  0  0  0  0  0  0  0  0  0  0
  -21.3871    3.2566  -14.9199 C   0  0  0  0  0  0  0  0  0  0  0  0
  -22.3253    2.4529  -14.2752 C   0  0  0  0  0  0  0  0  0  0  0  0
  -21.9997    1.1317  -13.9858 C   0  0  0  0  0  0  0  0  0  0  0  0
  -20.8004    0.6037  -14.3517 N   0  0  0  0  0  0  0  0  0  0  0  0
  -17.5351    0.9972  -14.3760 C   0  0  0  0  0  0  0  0  0  0  0  0
  -17.4779    1.6935  -13.3657 O   0  0  0  0  0  0  0  0  0  0  0  0
  -18.6453    0.8105  -15.1637 N   0  0  0  0  0  0  0  0  0  0  0  0
  -18.7226   -0.0448  -15.6958 H   0  0  0  0  0  0  0  0  0  0  0  0
  -15.6361   -0.5040  -13.9440 C   0  0  0  0  0  0  0  0  0  0  0  0
  -16.3764    0.1876  -14.8291 C   0  0  0  0  0  0  0  0  0  0  0  0
  -25.7625   -2.3590  -11.3747 N   0  0  0  0  0  0  0  0  0  0  0  0
  -26.4480   -2.0103  -10.2263 C   0  0  0  0  0  0  0  0  0  0  0  0
  -26.4135   -0.8994   -9.6972 O   0  0  0  0  0  0  0  0  0  0  0  0
  -27.1642   -3.0688   -9.6834 N   0  0  0  0  0  0  0  0  0  0  0  0
  -26.0300   -3.2246  -11.8233 H   0  0  0  0  0  0  0  0  0  0  0  0
  -26.7074   -3.9659   -9.7759 H   0  0  0  0  0  0  0  0  0  0  0  0
  -27.8990   -2.8528   -8.4874 C   0  0  0  0  0  0  0  0  0  0  0  0
  -27.7791   -1.6556   -7.7758 C   0  0  0  0  0  0  0  0  0  0  0  0
  -28.3827   -1.5053   -6.5266 C   0  0  0  0  0  0  0  0  0  0  0  0
  -29.1211   -2.5543   -5.9639 C   0  0  0  0  0  0  0  0  0  0  0  0
  -29.6906   -2.3932   -4.5834 C   0  0  0  0  0  0  0  0  0  0  0  0
  -29.2706   -3.7383   -6.7055 C   0  0  0  0  0  0  0  0  0  0  0  0
  -30.1368   -5.0923   -6.0670 Cl  0  0  0  0  0  0  0  0  0  0  0  0
  -28.6874   -3.8821   -7.9745 C   0  0  0  0  0  0  0  0  0  0  0  0
 17 18  2  0  0  0
 18 13  1  0  0  0
 13 14  2  0  0  0
 13 15  1  0  0  0
 15  7  1  0  0  0
 15 16  1  0  0  0
  7  8  1  0  0  0
  7 12  2  0  0  0
  8  9  2  0  0  0
  9 10  1  0  0  0
 10 11  2  0  0  0
 11  1  1  0  0  0
 11 12  1  0  0  0
  1  2  1  0  0  0
  1  6  2  0  0  0
  2  3  2  0  0  0
  3  4  1  0  0  0
  4 19  1  0  0  0
  4  5  2  0  0  0
 19 20  1  0  0  0
 19 23  1  0  0  0
 20 21  2  0  0  0
 20 22  1  0  0  0
 22 25  1  0  0  0
 22 24  1  0  0  0
 25 26  1  0  0  0
 25 32  2  0  0  0
 26 27  2  0  0  0
 27 28  1  0  0  0
 28 29  1  0  0  0
 28 30  2  0  0  0
 30 31  1  0  0  0
 30 32  1  0  0  0
  5  6  1  0  0  0
M  END
> <minimizedAffinity>
-10.33443

$$$$
