CHEMBL324335


 29 33  0  0  0  0  0  0  0  0999 V2000
  -30.2092   -7.5006   -6.1393 C   0  0  0  0  0  0  0  0  0  0  0  0
  -29.4269   -8.5144   -5.5780 C   0  0  0  0  0  0  0  0  0  0  0  0
  -29.6813   -9.8517   -5.8899 C   0  0  0  0  0  0  0  0  0  0  0  0
  -30.7308  -10.1843   -6.7501 C   0  0  0  0  0  0  0  0  0  0  0  0
  -31.4956   -9.1716   -7.3290 C   0  0  0  0  0  0  0  0  0  0  0  0
  -31.2399   -7.8324   -7.0231 C   0  0  0  0  0  0  0  0  0  0  0  0
  -29.1217   -2.1881   -4.8032 C   0  0  0  0  0  0  0  0  0  0  0  0
  -28.7084   -2.5103   -3.4973 C   0  0  0  0  0  0  0  0  0  0  0  0
  -28.7671   -3.8167   -3.2388 N   0  0  0  0  0  0  0  0  0  0  0  0
  -29.2241   -4.3643   -4.3905 N   0  0  0  0  0  0  0  0  0  0  0  0
  -29.4726   -5.7075   -4.6351 C   0  0  0  0  0  0  0  0  0  0  0  0
  -29.9246   -6.1055   -5.8347 C   0  0  0  0  0  0  0  0  0  0  0  0
  -30.1170   -5.0096   -6.8319 C   0  0  0  0  0  0  0  0  0  0  0  0
  -29.9002   -3.7436   -6.6317 N   0  0  0  0  0  0  0  0  0  0  0  0
  -29.4461   -3.3989   -5.3827 C   0  0  0  0  0  0  0  0  0  0  0  0
  -30.1404    1.2175   -5.9142 C   0  0  0  0  0  0  0  0  0  0  0  0
  -30.3305    0.0042   -5.2892 C   0  0  0  0  0  0  0  0  0  0  0  0
  -29.1819   -0.8419   -5.3823 C   0  0  0  0  0  0  0  0  0  0  0  0
  -28.1636   -0.2281   -6.0829 C   0  0  0  0  0  0  0  0  0  0  0  0
  -28.5865    1.3428   -6.6158 S   0  0  0  0  0  0  0  0  0  0  0  0
  -31.0844  -11.4611   -7.0974 O   0  0  0  0  0  0  0  0  0  0  0  0
  -30.9646  -11.7566   -8.4947 C   0  0  0  0  0  0  0  0  0  0  0  0
  -29.4819  -11.9722   -8.8345 C   0  0  0  0  0  0  0  0  0  0  0  0
  -29.0477  -11.3522  -10.1022 N   0  0  0  0  0  0  0  0  0  0  0  0
  -27.6076  -11.6103  -10.3494 C   0  0  0  0  0  0  0  0  0  0  0  0
  -26.6601  -10.7792   -9.4614 C   0  0  0  0  0  0  0  0  0  0  0  0
  -26.9317   -9.3752   -9.5635 O   0  0  0  0  0  0  0  0  0  0  0  0
  -28.2999   -9.0952   -9.2446 C   0  0  0  0  0  0  0  0  0  0  0  0
  -29.2465   -9.8855  -10.1608 C   0  0  0  0  0  0  0  0  0  0  0  0
 16 17  2  0  0  0
 16 20  1  0  0  0
 17 18  1  0  0  0
 18  7  1  0  0  0
 18 19  2  0  0  0
  7  8  1  0  0  0
  7 15  2  0  0  0
  8  9  2  0  0  0
  9 10  1  0  0  0
 10 11  1  0  0  0
 10 15  1  0  0  0
 11 12  2  0  0  0
 12  1  1  0  0  0
 12 13  1  0  0  0
  1  2  1  0  0  0
  1  6  2  0  0  0
  2  3  2  0  0  0
  3  4  1  0  0  0
  4 21  1  0  0  0
  4  5  2  0  0  0
 21 22  1  0  0  0
 22 23  1  0  0  0
 23 24  1  0  0  0
 24 25  1  0  0  0
 24 29  1  0  0  0
 25 26  1  0  0  0
 26 27  1  0  0  0
 27 28  1  0  0  0
 28 29  1  0  0  0
  5  6  1  0  0  0
 13 14  2  0  0  0
 14 15  1  0  0  0
 19 20  1  0  0  0
M  END
> <minimizedAffinity>
-7.44522

$$$$
