CHEMBL4532350


 47 53  0  0  0  0  0  0  0  0999 V2000
  -28.1659   -7.3520   -6.5991 C   0  0  0  0  0  0  0  0  0  0  0  0
  -28.5417   -8.8072   -6.9008 C   0  0  0  0  0  0  0  0  0  0  0  0
  -29.5157   -8.5658   -8.0198 C   0  0  0  0  0  0  0  0  0  0  0  0
  -29.3551   -7.4178   -8.6113 N   0  0  0  0  0  0  0  0  0  0  0  0
  -28.3963   -6.7422   -7.9139 N   0  0  0  0  0  0  0  0  0  0  0  0
  -30.5985   -9.5485   -8.3514 C   0  0  0  0  0  0  0  0  0  0  0  0
  -31.4248   -9.8057   -7.3160 C   0  0  0  0  0  0  0  0  0  0  0  0
  -32.1970   -8.8356   -6.7040 O   0  0  0  0  0  0  0  0  0  0  0  0
  -30.7770  -10.7541   -6.3832 C   0  0  0  0  0  0  0  0  0  0  0  0
  -30.5745  -10.4363   -5.0365 C   0  0  0  0  0  0  0  0  0  0  0  0
  -29.5496  -11.0645   -4.3251 C   0  0  0  0  0  0  0  0  0  0  0  0
  -28.7890  -12.0741   -4.9201 C   0  0  0  0  0  0  0  0  0  0  0  0
  -29.0476  -12.4651   -6.2308 C   0  0  0  0  0  0  0  0  0  0  0  0
  -30.0046  -11.7670   -6.9585 C   0  0  0  0  0  0  0  0  0  0  0  0
  -30.0059  -11.9290   -8.3551 O   0  0  0  0  0  0  0  0  0  0  0  0
  -30.1654  -10.7634   -9.0947 C   0  0  0  0  0  0  0  0  0  0  0  0
  -29.9730  -10.7162  -10.3061 O   0  0  0  0  0  0  0  0  0  0  0  0
  -32.3727   -8.1237   -7.3443 H   0  0  0  0  0  0  0  0  0  0  0  0
  -30.5652   -5.1273   -3.6229 C   0  0  0  0  0  0  0  0  0  0  0  0
  -29.1628   -5.0679   -3.6622 C   0  0  0  0  0  0  0  0  0  0  0  0
  -28.3965   -5.8194   -4.5775 C   0  0  0  0  0  0  0  0  0  0  0  0
  -29.0091   -6.6631   -5.5144 C   0  0  0  0  0  0  0  0  0  0  0  0
  -30.4089   -6.7246   -5.4806 C   0  0  0  0  0  0  0  0  0  0  0  0
  -31.1583   -5.9840   -4.5591 C   0  0  0  0  0  0  0  0  0  0  0  0
  -32.6937   -4.7661   -2.3917 C   0  0  0  0  0  0  0  0  0  0  0  0
  -31.3368   -4.3647   -2.7471 N   0  0  0  0  0  0  0  0  0  0  0  0
  -30.9789   -2.9679   -2.5130 C   0  0  0  0  0  0  0  0  0  0  0  0
  -28.0322   -5.4446   -8.0865 C   0  0  0  0  0  0  0  0  0  0  0  0
  -28.5696   -4.4707   -7.3916 N   0  0  0  0  0  0  0  0  0  0  0  0
  -28.1090   -3.2391   -7.8262 C   0  0  0  0  0  0  0  0  0  0  0  0
  -27.3118   -3.2760   -8.9657 C   0  0  0  0  0  0  0  0  0  0  0  0
  -26.8886   -4.9354   -9.2604 S   0  0  0  0  0  0  0  0  0  0  0  0
  -28.5494   -2.0403   -7.1136 C   0  0  0  0  0  0  0  0  0  0  0  0
  -28.0470   -0.7652   -7.3980 C   0  0  0  0  0  0  0  0  0  0  0  0
  -28.4854    0.3497   -6.6758 C   0  0  0  0  0  0  0  0  0  0  0  0
  -29.4147    0.2006   -5.6497 C   0  0  0  0  0  0  0  0  0  0  0  0
  -29.8981   -1.0648   -5.3282 C   0  0  0  0  0  0  0  0  0  0  0  0
  -29.4629   -2.1766   -6.0529 C   0  0  0  0  0  0  0  0  0  0  0  0
  -26.8140   -2.2727   -9.7469 N   0  0  0  0  0  0  0  0  0  0  0  0
  -25.8086   -2.5969  -10.4143 N   0  0  0  0  0  0  0  0  0  0  0  0
  -25.2858   -1.5592  -11.2096 C   0  0  0  0  0  0  0  0  0  0  0  0
  -26.0492   -0.5170  -11.7586 C   0  0  0  0  0  0  0  0  0  0  0  0
  -25.4416    0.5031  -12.5014 C   0  0  0  0  0  0  0  0  0  0  0  0
  -24.0612    0.4977  -12.6864 C   0  0  0  0  0  0  0  0  0  0  0  0
  -23.3127    1.7575  -13.5852 Cl  0  0  0  0  0  0  0  0  0  0  0  0
  -23.2840   -0.5201  -12.1410 C   0  0  0  0  0  0  0  0  0  0  0  0
  -23.8980   -1.5419  -11.4100 C   0  0  0  0  0  0  0  0  0  0  0  0
 25 26  1  0  0  0
 26 27  1  0  0  0
 26 19  1  0  0  0
 19 20  1  0  0  0
 19 24  2  0  0  0
 20 21  2  0  0  0
 21 22  1  0  0  0
 22  1  1  0  0  0
 22 23  2  0  0  0
  1  2  1  0  0  0
  1  5  1  0  0  0
  2  3  1  0  0  0
  3  6  1  0  0  0
  3  4  2  0  0  0
  6  7  2  0  0  0
  6 16  1  0  0  0
  7  8  1  0  0  0
  7  9  1  0  0  0
  8 18  1  0  0  0
  9 10  1  0  0  0
  9 14  2  0  0  0
 10 11  2  0  0  0
 11 12  1  0  0  0
 12 13  2  0  0  0
 13 14  1  0  0  0
 14 15  1  0  0  0
 15 16  1  0  0  0
 16 17  2  0  0  0
  4  5  1  0  0  0
  5 28  1  0  0  0
 28 29  2  0  0  0
 28 32  1  0  0  0
 29 30  1  0  0  0
 30 33  1  0  0  0
 30 31  2  0  0  0
 33 34  1  0  0  0
 33 38  2  0  0  0
 34 35  2  0  0  0
 35 36  1  0  0  0
 36 37  2  0  0  0
 37 38  1  0  0  0
 31 39  1  0  0  0
 31 32  1  0  0  0
 39 40  2  0  0  0
 40 41  1  0  0  0
 41 42  1  0  0  0
 41 47  2  0  0  0
 42 43  2  0  0  0
 43 44  1  0  0  0
 44 45  1  0  0  0
 44 46  2  0  0  0
 46 47  1  0  0  0
 23 24  1  0  0  0
M  END
> <minimizedAffinity>
-4.53266

$$$$
