CHEMBL1076480


 44 48  0  0  0  0  0  0  0  0999 V2000
  -13.5000   -1.1487  -13.9438 N   0  0  0  0  0  0  0  0  0  0  0  0
  -12.6131   -0.9633  -13.4911 H   0  0  0  0  0  0  0  0  0  0  0  0
  -14.1062   -3.4705  -13.5559 N   0  0  0  0  0  0  0  0  0  0  0  0
  -13.7267   -2.4164  -14.3970 C   0  0  0  0  0  0  0  0  0  0  0  0
  -13.5206   -2.8466  -15.6247 N   0  0  0  0  0  0  0  0  0  0  0  0
  -13.7060   -4.1983  -15.5952 C   0  0  0  0  0  0  0  0  0  0  0  0
  -13.5888   -5.1286  -16.6401 C   0  0  0  0  0  0  0  0  0  0  0  0
  -13.8621   -6.4767  -16.3845 C   0  0  0  0  0  0  0  0  0  0  0  0
  -14.2464   -6.8925  -15.1120 C   0  0  0  0  0  0  0  0  0  0  0  0
  -14.3532   -5.9804  -14.0575 C   0  0  0  0  0  0  0  0  0  0  0  0
  -14.0609   -4.6314  -14.3237 C   0  0  0  0  0  0  0  0  0  0  0  0
  -14.1853   -4.0042   -9.9180 C   0  0  0  0  0  0  0  0  0  0  0  0
  -13.7182   -4.0399  -11.2183 C   0  0  0  0  0  0  0  0  0  0  0  0
  -14.4872   -3.4149  -12.1822 C   0  0  0  0  0  0  0  0  0  0  0  0
  -15.6010   -2.7177  -11.8676 N   0  0  0  0  0  0  0  0  0  0  0  0
  -15.9487   -2.7114  -10.5793 C   0  0  0  0  0  0  0  0  0  0  0  0
  -15.3096   -3.3481   -9.5934 N   0  0  0  0  0  0  0  0  0  0  0  0
  -13.3955   -4.5718   -8.9080 N   0  0  0  0  0  0  0  0  0  0  0  0
  -13.6551   -4.2174   -7.9872 H   0  0  0  0  0  0  0  0  0  0  0  0
  -11.9475   -4.3990   -9.0813 C   0  0  0  0  0  0  0  0  0  0  0  0
  -11.4919   -3.0881   -8.4202 C   0  0  0  0  0  0  0  0  0  0  0  0
  -10.9766   -3.7808   -6.2149 C   0  0  0  0  0  0  0  0  0  0  0  0
  -11.9108   -3.0997   -7.0455 O   0  0  0  0  0  0  0  0  0  0  0  0
  -14.1347    0.0061  -14.4689 C   0  0  0  0  0  0  0  0  0  0  0  0
  -15.4718    0.2930  -14.1253 C   0  0  0  0  0  0  0  0  0  0  0  0
  -16.1676    1.3782  -14.6655 C   0  0  0  0  0  0  0  0  0  0  0  0
  -15.5080    2.2062  -15.5717 C   0  0  0  0  0  0  0  0  0  0  0  0
  -14.1707    1.9655  -15.9034 C   0  0  0  0  0  0  0  0  0  0  0  0
  -13.4720    0.8711  -15.3623 C   0  0  0  0  0  0  0  0  0  0  0  0
  -12.0544    0.6315  -15.8037 C   0  0  0  0  0  0  0  0  0  0  0  0
  -17.5229    1.6595  -14.3674 N   0  0  0  0  0  0  0  0  0  0  0  0
  -18.6163    0.9828  -14.8831 C   0  0  0  0  0  0  0  0  0  0  0  0
  -18.5783   -0.0444  -15.5530 O   0  0  0  0  0  0  0  0  0  0  0  0
  -17.6891    2.3510  -13.6495 H   0  0  0  0  0  0  0  0  0  0  0  0
  -19.9633    1.5123  -14.5277 C   0  0  0  0  0  0  0  0  0  0  0  0
  -20.2758    2.8773  -14.5223 C   0  0  0  0  0  0  0  0  0  0  0  0
  -21.5825    3.2888  -14.2366 C   0  0  0  0  0  0  0  0  0  0  0  0
  -22.5799    2.3460  -13.9639 C   0  0  0  0  0  0  0  0  0  0  0  0
  -22.2847    0.9771  -13.9739 C   0  0  0  0  0  0  0  0  0  0  0  0
  -20.9717    0.5743  -14.2567 C   0  0  0  0  0  0  0  0  0  0  0  0
  -23.3369   -0.0699  -13.7044 C   0  0  0  0  0  0  0  0  0  0  0  0
  -24.0722   -0.3959  -14.8036 F   0  0  0  0  0  0  0  0  0  0  0  0
  -22.8086   -1.2391  -13.2492 F   0  0  0  0  0  0  0  0  0  0  0  0
  -24.2345    0.3296  -12.7617 F   0  0  0  0  0  0  0  0  0  0  0  0
 22 23  1  0  0  0
 23 21  1  0  0  0
 21 20  1  0  0  0
 20 18  1  0  0  0
 18 12  1  0  0  0
 18 19  1  0  0  0
 12 13  1  0  0  0
 12 17  2  0  0  0
 13 14  2  0  0  0
 14  3  1  0  0  0
 14 15  1  0  0  0
  3  4  1  0  0  0
  3 11  1  0  0  0
  4  1  1  0  0  0
  4  5  2  0  0  0
  1 24  1  0  0  0
  1  2  1  0  0  0
 24 25  1  0  0  0
 24 29  2  0  0  0
 25 26  2  0  0  0
 26 31  1  0  0  0
 26 27  1  0  0  0
 31 32  1  0  0  0
 31 34  1  0  0  0
 32 33  2  0  0  0
 32 35  1  0  0  0
 35 36  1  0  0  0
 35 40  2  0  0  0
 36 37  2  0  0  0
 37 38  1  0  0  0
 38 39  2  0  0  0
 39 41  1  0  0  0
 39 40  1  0  0  0
 41 42  1  0  0  0
 41 43  1  0  0  0
 41 44  1  0  0  0
 27 28  2  0  0  0
 28 29  1  0  0  0
 29 30  1  0  0  0
  5  6  1  0  0  0
  6  7  1  0  0  0
  6 11  2  0  0  0
  7  8  2  0  0  0
  8  9  1  0  0  0
  9 10  2  0  0  0
 10 11  1  0  0  0
 15 16  2  0  0  0
 16 17  1  0  0  0
M  END
> <minimizedAffinity>
-9.53870

$$$$
