CHEMBL3976826


 35 39  0  0  0  0  0  0  0  0999 V2000
  -27.3947   -8.1285   -4.6219 C   0  0  0  0  0  0  0  0  0  0  0  0
  -27.5254   -6.7401   -4.5453 C   0  0  0  0  0  0  0  0  0  0  0  0
  -28.7700   -6.1350   -4.2707 C   0  0  0  0  0  0  0  0  0  0  0  0
  -28.9589   -4.7552   -4.0891 C   0  0  0  0  0  0  0  0  0  0  0  0
  -30.1534   -4.2417   -3.7461 N   0  0  0  0  0  0  0  0  0  0  0  0
  -31.1641   -5.1052   -3.6114 C   0  0  0  0  0  0  0  0  0  0  0  0
  -31.0997   -6.4287   -3.7901 N   0  0  0  0  0  0  0  0  0  0  0  0
  -29.9056   -6.9363   -4.1092 C   0  0  0  0  0  0  0  0  0  0  0  0
  -29.7792   -8.3098   -4.2849 C   0  0  0  0  0  0  0  0  0  0  0  0
  -28.5501   -8.9216   -4.5693 C   0  0  0  0  0  0  0  0  0  0  0  0
  -25.5670   -9.2145   -3.5523 C   0  0  0  0  0  0  0  0  0  0  0  0
  -26.1713   -8.7247   -4.7495 O   0  0  0  0  0  0  0  0  0  0  0  0
  -27.8570   -3.8659   -4.2575 N   0  0  0  0  0  0  0  0  0  0  0  0
  -27.0417   -4.3993   -4.5440 H   0  0  0  0  0  0  0  0  0  0  0  0
  -27.9493   -2.6105   -4.8981 C   0  0  0  0  0  0  0  0  0  0  0  0
  -28.2019   -1.4518   -4.1506 C   0  0  0  0  0  0  0  0  0  0  0  0
  -28.3841   -0.2178   -4.7744 C   0  0  0  0  0  0  0  0  0  0  0  0
  -28.3055   -0.1231   -6.1632 C   0  0  0  0  0  0  0  0  0  0  0  0
  -28.6089    1.4185   -6.8802 Cl  0  0  0  0  0  0  0  0  0  0  0  0
  -28.0042   -1.2617   -6.9190 C   0  0  0  0  0  0  0  0  0  0  0  0
  -27.8782   -1.2156   -8.6430 Cl  0  0  0  0  0  0  0  0  0  0  0  0
  -27.8132   -2.4980   -6.2860 C   0  0  0  0  0  0  0  0  0  0  0  0
  -28.6384  -10.2861   -4.7363 O   0  0  0  0  0  0  0  0  0  0  0  0
  -29.2144  -10.7185   -5.9713 C   0  0  0  0  0  0  0  0  0  0  0  0
  -28.2130  -10.6819   -7.0947 C   0  0  0  0  0  0  0  0  0  0  0  0
  -28.5172  -10.1869   -8.2794 N   0  0  0  0  0  0  0  0  0  0  0  0
  -27.5224  -10.4784   -9.2043 C   0  0  0  0  0  0  0  0  0  0  0  0
  -26.4337  -11.1477   -8.6797 C   0  0  0  0  0  0  0  0  0  0  0  0
  -26.6753  -11.4462   -7.0045 S   0  0  0  0  0  0  0  0  0  0  0  0
  -27.6680  -10.1208  -10.6159 C   0  0  0  0  0  0  0  0  0  0  0  0
  -28.7980  -10.5238  -11.3206 C   0  0  0  0  0  0  0  0  0  0  0  0
  -28.9119  -10.1863  -12.6657 C   0  0  0  0  0  0  0  0  0  0  0  0
  -27.8922   -9.4629  -13.2729 C   0  0  0  0  0  0  0  0  0  0  0  0
  -26.7923   -9.1104  -12.5013 C   0  0  0  0  0  0  0  0  0  0  0  0
  -26.6568   -9.4207  -11.1937 N   0  0  0  0  0  0  0  0  0  0  0  0
 11 12  1  0  0  0
 12  1  1  0  0  0
  1  2  1  0  0  0
  1 10  2  0  0  0
  2  3  2  0  0  0
  3  4  1  0  0  0
  3  8  1  0  0  0
  4 13  1  0  0  0
  4  5  2  0  0  0
 13 15  1  0  0  0
 13 14  1  0  0  0
 15 16  1  0  0  0
 15 22  2  0  0  0
 16 17  2  0  0  0
 17 18  1  0  0  0
 18 19  1  0  0  0
 18 20  2  0  0  0
 20 21  1  0  0  0
 20 22  1  0  0  0
  5  6  1  0  0  0
  6  7  2  0  0  0
  7  8  1  0  0  0
  8  9  2  0  0  0
  9 10  1  0  0  0
 10 23  1  0  0  0
 23 24  1  0  0  0
 24 25  1  0  0  0
 25 26  2  0  0  0
 25 29  1  0  0  0
 26 27  1  0  0  0
 27 30  1  0  0  0
 27 28  2  0  0  0
 30 31  1  0  0  0
 30 35  2  0  0  0
 31 32  2  0  0  0
 32 33  1  0  0  0
 33 34  2  0  0  0
 34 35  1  0  0  0
 28 29  1  0  0  0
M  END
> <minimizedAffinity>
-8.23315

$$$$
