CHEMBL3623290


 33 36  0  0  0  0  0  0  0  0999 V2000
  -13.2494    0.5131  -13.6039 C   0  0  0  0  0  0  0  0  0  0  0  0
  -13.1357    1.8340  -14.0670 C   0  0  0  0  0  0  0  0  0  0  0  0
  -14.1231    2.4464  -14.8353 C   0  0  0  0  0  0  0  0  0  0  0  0
  -13.9532    3.7176  -15.2101 N   0  0  0  0  0  0  0  0  0  0  0  0
  -14.9455    4.2730  -15.9112 C   0  0  0  0  0  0  0  0  0  0  0  0
  -16.0878    3.6812  -16.2547 N   0  0  0  0  0  0  0  0  0  0  0  0
  -16.2543    2.4000  -15.8798 C   0  0  0  0  0  0  0  0  0  0  0  0
  -15.2613    1.7069  -15.1723 C   0  0  0  0  0  0  0  0  0  0  0  0
  -15.3625    0.3629  -14.7633 C   0  0  0  0  0  0  0  0  0  0  0  0
  -14.3784   -0.2196  -13.9551 C   0  0  0  0  0  0  0  0  0  0  0  0
  -11.1033   -0.5201  -13.5811 C   0  0  0  0  0  0  0  0  0  0  0  0
  -12.1676    0.1038  -12.8753 O   0  0  0  0  0  0  0  0  0  0  0  0
  -17.4982    1.7716  -16.1540 N   0  0  0  0  0  0  0  0  0  0  0  0
  -17.6773    1.7290  -17.1540 H   0  0  0  0  0  0  0  0  0  0  0  0
  -18.6779    2.0110  -15.4084 C   0  0  0  0  0  0  0  0  0  0  0  0
  -19.0086    3.3097  -14.9967 C   0  0  0  0  0  0  0  0  0  0  0  0
  -20.2197    3.5784  -14.3629 C   0  0  0  0  0  0  0  0  0  0  0  0
  -21.1174    2.5384  -14.1199 C   0  0  0  0  0  0  0  0  0  0  0  0
  -20.7797    1.2312  -14.4776 C   0  0  0  0  0  0  0  0  0  0  0  0
  -21.8995   -0.0406  -14.1683 Cl  0  0  0  0  0  0  0  0  0  0  0  0
  -19.5614    0.9692  -15.1037 C   0  0  0  0  0  0  0  0  0  0  0  0
  -19.2314   -0.2856  -15.4573 F   0  0  0  0  0  0  0  0  0  0  0  0
  -14.4972   -1.5828  -13.6255 O   0  0  0  0  0  0  0  0  0  0  0  0
  -14.9586   -1.8853  -12.3436 C   0  0  0  0  0  0  0  0  0  0  0  0
  -15.8037   -1.2244  -11.7482 O   0  0  0  0  0  0  0  0  0  0  0  0
  -14.4178   -3.0593  -11.8374 N   0  0  0  0  0  0  0  0  0  0  0  0
  -13.4235   -3.8602  -12.5573 C   0  0  0  0  0  0  0  0  0  0  0  0
  -14.0342   -5.1636  -13.1142 C   0  0  0  0  0  0  0  0  0  0  0  0
  -14.8096   -5.9555  -12.1374 N   0  0  0  0  0  0  0  0  0  0  0  0
  -13.9569   -6.7553  -11.2666 C   0  0  0  0  0  0  0  0  0  0  0  0
  -15.7516   -5.0926  -11.3978 C   0  0  0  0  0  0  0  0  0  0  0  0
  -15.1786   -3.7767  -10.8013 C   0  0  0  0  0  0  0  0  0  0  0  0
  -14.3598   -3.9741   -9.5284 C   0  0  0  0  0  0  0  0  0  0  0  0
 11 12  1  0  0  0
 12  1  1  0  0  0
  1  2  1  0  0  0
  1 10  2  0  0  0
  2  3  2  0  0  0
  3  4  1  0  0  0
  3  8  1  0  0  0
  4  5  2  0  0  0
  5  6  1  0  0  0
  6  7  2  0  0  0
  7 13  1  0  0  0
  7  8  1  0  0  0
 13 15  1  0  0  0
 13 14  1  0  0  0
 15 16  1  0  0  0
 15 21  2  0  0  0
 16 17  2  0  0  0
 17 18  1  0  0  0
 18 19  2  0  0  0
 19 20  1  0  0  0
 19 21  1  0  0  0
 21 22  1  0  0  0
  8  9  2  0  0  0
  9 10  1  0  0  0
 10 23  1  0  0  0
 23 24  1  0  0  0
 24 25  2  0  0  0
 24 26  1  0  0  0
 26 27  1  0  0  0
 26 32  1  0  0  0
 27 28  1  0  0  0
 28 29  1  0  0  0
 29 30  1  0  0  0
 29 31  1  0  0  0
 31 32  1  0  0  0
 32 33  1  0  0  0
M  END
> <minimizedAffinity>
-8.91129

$$$$
