CHEMBL247389


 27 31  0  0  0  0  0  0  0  0999 V2000
  -30.0440   -5.4061   -6.1624 C   0  0  0  0  0  0  0  0  0  0  0  0
  -30.5298   -5.3394   -4.8437 C   0  0  0  0  0  0  0  0  0  0  0  0
  -30.4183   -4.1758   -4.0546 C   0  0  0  0  0  0  0  0  0  0  0  0
  -29.8036   -3.0348   -4.5538 C   0  0  0  0  0  0  0  0  0  0  0  0
  -29.3103   -3.1093   -5.8364 C   0  0  0  0  0  0  0  0  0  0  0  0
  -29.4094   -4.2720   -6.6579 C   0  0  0  0  0  0  0  0  0  0  0  0
  -28.8155   -4.0520   -8.0586 C   0  0  0  0  0  0  0  0  0  0  0  0
  -28.3728   -2.6404   -7.8840 C   0  0  0  0  0  0  0  0  0  0  0  0
  -28.6559   -2.1196   -6.6170 C   0  0  0  0  0  0  0  0  0  0  0  0
  -28.2571   -0.8693   -6.4382 N   0  0  0  0  0  0  0  0  0  0  0  0
  -27.6920   -0.5850   -7.6401 N   0  0  0  0  0  0  0  0  0  0  0  0
  -27.7431   -1.6226   -8.5511 C   0  0  0  0  0  0  0  0  0  0  0  0
  -27.2953    0.3381   -7.7720 H   0  0  0  0  0  0  0  0  0  0  0  0
  -27.2151   -1.6104   -9.9397 C   0  0  0  0  0  0  0  0  0  0  0  0
  -28.0126   -1.6047  -11.1224 C   0  0  0  0  0  0  0  0  0  0  0  0
  -27.2497   -1.6042  -12.2694 C   0  0  0  0  0  0  0  0  0  0  0  0
  -25.5759   -1.6102  -11.9254 S   0  0  0  0  0  0  0  0  0  0  0  0
  -25.8686   -1.6040  -10.2365 C   0  0  0  0  0  0  0  0  0  0  0  0
  -28.4163   -7.8247   -6.1410 O   0  0  0  0  0  0  0  0  0  0  0  0
  -29.3430   -7.6727   -6.9315 C   0  0  0  0  0  0  0  0  0  0  0  0
  -30.1777   -6.5624   -6.9657 N   0  0  0  0  0  0  0  0  0  0  0  0
  -30.9891   -6.6463   -7.5657 H   0  0  0  0  0  0  0  0  0  0  0  0
  -29.6658   -8.7087   -7.8932 C   0  0  0  0  0  0  0  0  0  0  0  0
  -30.6018   -9.7231   -7.8038 C   0  0  0  0  0  0  0  0  0  0  0  0
  -30.4902  -10.4876   -8.9864 C   0  0  0  0  0  0  0  0  0  0  0  0
  -29.4981   -9.8943   -9.7275 C   0  0  0  0  0  0  0  0  0  0  0  0
  -28.9989   -8.8012   -9.0859 O   0  0  0  0  0  0  0  0  0  0  0  0
 19 20  2  0  0  0
 20 21  1  0  0  0
 20 23  1  0  0  0
 21  1  1  0  0  0
 21 22  1  0  0  0
  1  2  1  0  0  0
  1  6  2  0  0  0
  2  3  2  0  0  0
  3  4  1  0  0  0
  4  5  2  0  0  0
  5  6  1  0  0  0
  5  9  1  0  0  0
  6  7  1  0  0  0
  7  8  1  0  0  0
  8  9  1  0  0  0
  8 12  2  0  0  0
  9 10  2  0  0  0
 10 11  1  0  0  0
 11 12  1  0  0  0
 11 13  1  0  0  0
 12 14  1  0  0  0
 14 15  1  0  0  0
 14 18  2  0  0  0
 15 16  2  0  0  0
 16 17  1  0  0  0
 17 18  1  0  0  0
 23 24  2  0  0  0
 23 27  1  0  0  0
 24 25  1  0  0  0
 25 26  2  0  0  0
 26 27  1  0  0  0
M  END
> <minimizedAffinity>
-8.25459

$$$$
