CHEMBL2016896


 32 36  0  0  0  0  0  0  0  0999 V2000
  -31.5857   -4.5257   -3.2498 O   0  0  0  0  0  0  0  0  0  0  0  0
  -30.8478   -4.2154   -4.1803 C   0  0  0  0  0  0  0  0  0  0  0  0
  -30.0935   -5.1538   -4.8940 N   0  0  0  0  0  0  0  0  0  0  0  0
  -29.5619   -4.8113   -6.2370 C   0  0  0  0  0  0  0  0  0  0  0  0
  -28.6799   -5.8581   -6.9718 C   0  0  0  0  0  0  0  0  0  0  0  0
  -28.9622   -7.2290   -6.5036 C   0  0  0  0  0  0  0  0  0  0  0  0
  -28.7563   -8.3969   -7.1992 N   0  0  0  0  0  0  0  0  0  0  0  0
  -29.4142   -9.3262   -6.5052 C   0  0  0  0  0  0  0  0  0  0  0  0
  -29.6644   -8.8405   -5.2307 N   0  0  0  0  0  0  0  0  0  0  0  0
  -29.6724   -7.4802   -5.3634 C   0  0  0  0  0  0  0  0  0  0  0  0
  -30.4433   -6.5314   -4.5590 C   0  0  0  0  0  0  0  0  0  0  0  0
  -30.1339   -9.3632   -4.5014 H   0  0  0  0  0  0  0  0  0  0  0  0
  -30.2274  -10.4368   -6.9639 C   0  0  0  0  0  0  0  0  0  0  0  0
  -29.5120  -11.5373   -7.2969 C   0  0  0  0  0  0  0  0  0  0  0  0
  -28.9127  -11.3947   -8.6569 C   0  0  0  0  0  0  0  0  0  0  0  0
  -27.5753  -11.7285   -8.8768 C   0  0  0  0  0  0  0  0  0  0  0  0
  -26.9286  -11.2530  -10.0164 C   0  0  0  0  0  0  0  0  0  0  0  0
  -27.6293  -10.5057  -10.9679 C   0  0  0  0  0  0  0  0  0  0  0  0
  -28.9922  -10.2482  -10.8036 C   0  0  0  0  0  0  0  0  0  0  0  0
  -29.6146  -10.6608   -9.6293 C   0  0  0  0  0  0  0  0  0  0  0  0
  -30.9010  -10.1995   -9.3082 N   0  0  0  0  0  0  0  0  0  0  0  0
  -31.2863  -10.0806   -7.9898 C   0  0  0  0  0  0  0  0  0  0  0  0
  -32.3326   -9.5162   -7.6687 O   0  0  0  0  0  0  0  0  0  0  0  0
  -31.4814   -9.7488  -10.0018 H   0  0  0  0  0  0  0  0  0  0  0  0
  -30.7271   -2.9485   -4.6573 O   0  0  0  0  0  0  0  0  0  0  0  0
  -29.6858   -2.1532   -4.0649 C   0  0  0  0  0  0  0  0  0  0  0  0
  -29.3165   -1.0105   -4.9775 C   0  0  0  0  0  0  0  0  0  0  0  0
  -30.1552    0.1077   -5.0851 C   0  0  0  0  0  0  0  0  0  0  0  0
  -29.8248    1.1637   -5.9362 C   0  0  0  0  0  0  0  0  0  0  0  0
  -28.6507    1.1157   -6.6853 C   0  0  0  0  0  0  0  0  0  0  0  0
  -27.8013    0.0164   -6.5768 C   0  0  0  0  0  0  0  0  0  0  0  0
  -28.1312   -1.0422   -5.7271 C   0  0  0  0  0  0  0  0  0  0  0  0
  1  2  2  0  0  0
  2 25  1  0  0  0
  2  3  1  0  0  0
 25 26  1  0  0  0
 26 27  1  0  0  0
 27 28  1  0  0  0
 27 32  2  0  0  0
 28 29  2  0  0  0
 29 30  1  0  0  0
 30 31  2  0  0  0
 31 32  1  0  0  0
  3  4  1  0  0  0
  3 11  1  0  0  0
  4  5  1  0  0  0
  5  6  1  0  0  0
  6  7  1  0  0  0
  6 10  2  0  0  0
  7  8  2  0  0  0
  8 13  1  0  0  0
  8  9  1  0  0  0
 13 14  2  0  0  0
 13 22  1  0  0  0
 14 15  1  0  0  0
 15 16  1  0  0  0
 15 20  2  0  0  0
 16 17  2  0  0  0
 17 18  1  0  0  0
 18 19  2  0  0  0
 19 20  1  0  0  0
 20 21  1  0  0  0
 21 22  1  0  0  0
 21 24  1  0  0  0
 22 23  2  0  0  0
  9 10  1  0  0  0
  9 12  1  0  0  0
 10 11  1  0  0  0
M  END
> <minimizedAffinity>
-9.80395

$$$$
