CHEMBL2086727


 30 34  0  0  0  0  0  0  0  0999 V2000
  -25.6069  -12.4647   -6.1275 O   0  0  0  0  0  0  0  0  0  0  0  0
  -26.3782  -11.7830   -6.7737 C   0  0  0  0  0  0  0  0  0  0  0  0
  -26.7670  -12.0361   -8.0738 N   0  0  0  0  0  0  0  0  0  0  0  0
  -27.6609  -11.0817   -8.5334 C   0  0  0  0  0  0  0  0  0  0  0  0
  -28.2255  -11.0483   -9.7941 C   0  0  0  0  0  0  0  0  0  0  0  0
  -29.0905   -9.9946  -10.0792 C   0  0  0  0  0  0  0  0  0  0  0  0
  -29.3561   -9.0114   -9.1116 C   0  0  0  0  0  0  0  0  0  0  0  0
  -28.7683   -9.0690   -7.8388 C   0  0  0  0  0  0  0  0  0  0  0  0
  -27.9209  -10.1242   -7.5445 C   0  0  0  0  0  0  0  0  0  0  0  0
  -27.1288  -10.5266   -6.3584 C   0  0  0  0  0  0  0  0  0  0  0  0
  -27.0359   -9.9844   -5.1211 C   0  0  0  0  0  0  0  0  0  0  0  0
  -26.4146  -12.8207   -8.6003 H   0  0  0  0  0  0  0  0  0  0  0  0
  -27.7892   -8.8265   -4.7826 C   0  0  0  0  0  0  0  0  0  0  0  0
  -29.0411   -8.7045   -4.3852 N   0  0  0  0  0  0  0  0  0  0  0  0
  -29.2691   -7.3529   -4.2876 C   0  0  0  0  0  0  0  0  0  0  0  0
  -30.4349   -6.6657   -3.9208 C   0  0  0  0  0  0  0  0  0  0  0  0
  -30.4046   -5.2661   -3.8770 C   0  0  0  0  0  0  0  0  0  0  0  0
  -29.2375   -4.5665   -4.1950 C   0  0  0  0  0  0  0  0  0  0  0  0
  -28.0682   -5.2351   -4.5785 C   0  0  0  0  0  0  0  0  0  0  0  0
  -28.1270   -6.6305   -4.6143 C   0  0  0  0  0  0  0  0  0  0  0  0
  -27.2066   -7.5913   -4.9507 N   0  0  0  0  0  0  0  0  0  0  0  0
  -26.2665   -7.4269   -5.2818 H   0  0  0  0  0  0  0  0  0  0  0  0
  -26.1131  -10.5566   -4.1135 C   0  0  0  0  0  0  0  0  0  0  0  0
  -26.5808  -11.5114   -3.1979 C   0  0  0  0  0  0  0  0  0  0  0  0
  -25.7189  -12.0308   -2.2305 C   0  0  0  0  0  0  0  0  0  0  0  0
  -24.3957  -11.6008   -2.1853 C   0  0  0  0  0  0  0  0  0  0  0  0
  -23.5750  -12.0997   -1.2515 F   0  0  0  0  0  0  0  0  0  0  0  0
  -23.9090  -10.6708   -3.0948 C   0  0  0  0  0  0  0  0  0  0  0  0
  -24.7713  -10.1578   -4.0570 C   0  0  0  0  0  0  0  0  0  0  0  0
  -24.2980   -9.2715   -4.9480 F   0  0  0  0  0  0  0  0  0  0  0  0
  1  2  2  0  0  0
  2  3  1  0  0  0
  2 10  1  0  0  0
  3  4  1  0  0  0
  3 12  1  0  0  0
  4  5  1  0  0  0
  4  9  2  0  0  0
  5  6  2  0  0  0
  6  7  1  0  0  0
  7  8  2  0  0  0
  8  9  1  0  0  0
  9 10  1  0  0  0
 10 11  2  0  0  0
 11 13  1  0  0  0
 11 23  1  0  0  0
 13 14  2  0  0  0
 13 21  1  0  0  0
 14 15  1  0  0  0
 15 16  1  0  0  0
 15 20  2  0  0  0
 16 17  2  0  0  0
 17 18  1  0  0  0
 18 19  2  0  0  0
 19 20  1  0  0  0
 20 21  1  0  0  0
 21 22  1  0  0  0
 23 24  1  0  0  0
 23 29  2  0  0  0
 24 25  2  0  0  0
 25 26  1  0  0  0
 26 27  1  0  0  0
 26 28  2  0  0  0
 28 29  1  0  0  0
 29 30  1  0  0  0
M  END
> <minimizedAffinity>
-7.81288

$$$$
