CHEMBL3690420


 37 39  0  0  0  0  0  0  0  0999 V2000
  -13.3800    6.4606  -19.0740 C   0  0  0  0  0  0  0  0  0  0  0  0
  -14.5520    5.6020  -19.2936 C   0  0  0  0  0  0  0  0  0  0  0  0
  -14.9765    4.7817  -18.3150 C   0  0  0  0  0  0  0  0  0  0  0  0
  -14.2943    4.7412  -17.0956 N   0  0  0  0  0  0  0  0  0  0  0  0
  -14.5283    4.0145  -15.9310 C   0  0  0  0  0  0  0  0  0  0  0  0
  -13.4263    4.3103  -15.1364 C   0  0  0  0  0  0  0  0  0  0  0  0
  -12.5995    5.2314  -15.7081 N   0  0  0  0  0  0  0  0  0  0  0  0
  -13.1427    5.4968  -16.8729 C   0  0  0  0  0  0  0  0  0  0  0  0
  -12.7206    6.3917  -17.8950 C   0  0  0  0  0  0  0  0  0  0  0  0
  -15.6541    3.1244  -15.6124 C   0  0  0  0  0  0  0  0  0  0  0  0
  -16.9586    3.5767  -15.8739 C   0  0  0  0  0  0  0  0  0  0  0  0
  -18.0579    2.7467  -15.6797 C   0  0  0  0  0  0  0  0  0  0  0  0
  -17.8745    1.4464  -15.2227 C   0  0  0  0  0  0  0  0  0  0  0  0
  -16.5947    0.9521  -14.9612 C   0  0  0  0  0  0  0  0  0  0  0  0
  -15.4885    1.8011  -15.1591 C   0  0  0  0  0  0  0  0  0  0  0  0
  -16.3594   -0.3735  -14.5182 N   0  0  0  0  0  0  0  0  0  0  0  0
  -15.6796   -0.7428  -13.3751 C   0  0  0  0  0  0  0  0  0  0  0  0
  -15.1860   -0.0063  -12.5374 O   0  0  0  0  0  0  0  0  0  0  0  0
  -15.5547   -2.1123  -13.2592 N   0  0  0  0  0  0  0  0  0  0  0  0
  -16.7194   -1.1185  -15.0944 H   0  0  0  0  0  0  0  0  0  0  0  0
  -16.3139   -2.6661  -13.6267 H   0  0  0  0  0  0  0  0  0  0  0  0
  -14.8723   -2.6396  -12.0678 C   0  0  0  0  0  0  0  0  0  0  0  0
  -15.7826   -3.1803  -10.9548 C   0  0  0  0  0  0  0  0  0  0  0  0
  -16.3164   -2.1848  -10.2098 F   0  0  0  0  0  0  0  0  0  0  0  0
  -16.8241   -3.8572  -11.5026 F   0  0  0  0  0  0  0  0  0  0  0  0
  -15.1429   -4.0320  -10.1281 F   0  0  0  0  0  0  0  0  0  0  0  0
  -12.9796    7.4002  -20.2012 C   0  0  0  0  0  0  0  0  0  0  0  0
  -10.9552    4.9978  -22.2525 C   0  0  0  0  0  0  0  0  0  0  0  0
  -12.1249    5.5486  -21.5732 N   0  0  0  0  0  0  0  0  0  0  0  0
  -11.9049    6.6808  -20.9940 C   0  0  0  0  0  0  0  0  0  0  0  0
  -14.1717    7.9101  -21.0252 C   0  0  0  0  0  0  0  0  0  0  0  0
  -14.4036    7.5591  -22.2564 N   0  0  0  0  0  0  0  0  0  0  0  0
  -13.6323    6.9438  -22.5869 H   0  0  0  0  0  0  0  0  0  0  0  0
  -15.1796    8.8296  -20.3476 C   0  0  0  0  0  0  0  0  0  0  0  0
  -14.4767   10.0134  -19.8572 N   0  0  0  0  0  0  0  0  0  0  0  0
  -13.6556    9.6896  -19.3357 H   0  0  0  0  0  0  0  0  0  0  0  0
  -15.0599   10.4814  -19.1648 H   0  0  0  0  0  0  0  0  0  0  0  0
 28 29  1  0  0  0
 29 30  2  0  0  0
 30 27  1  0  0  0
 27 31  1  0  0  0
 27  1  1  0  0  0
 31 32  2  0  0  0
 31 34  1  0  0  0
 32 33  1  0  0  0
 34 35  1  0  0  0
 35 36  1  0  0  0
 35 37  1  0  0  0
  1  2  1  0  0  0
  1  9  2  0  0  0
  2  3  2  0  0  0
  3  4  1  0  0  0
  4  5  1  0  0  0
  4  8  1  0  0  0
  5 10  1  0  0  0
  5  6  2  0  0  0
 10 11  1  0  0  0
 10 15  2  0  0  0
 11 12  2  0  0  0
 12 13  1  0  0  0
 13 14  2  0  0  0
 14 16  1  0  0  0
 14 15  1  0  0  0
 16 17  1  0  0  0
 16 20  1  0  0  0
 17 18  2  0  0  0
 17 19  1  0  0  0
 19 22  1  0  0  0
 19 21  1  0  0  0
 22 23  1  0  0  0
 23 24  1  0  0  0
 23 25  1  0  0  0
 23 26  1  0  0  0
  6  7  1  0  0  0
  7  8  2  0  0  0
  8  9  1  0  0  0
M  END
> <minimizedAffinity>
-7.18802

$$$$
