CHEMBL224496


 36 41  0  0  0  0  0  0  0  0999 V2000
  -29.0865   -9.5248   -4.4649 C   0  0  0  0  0  0  0  0  0  0  0  0
  -29.4480   -9.6165   -5.8355 C   0  0  0  0  0  0  0  0  0  0  0  0
  -29.3507   -8.5270   -6.7023 C   0  0  0  0  0  0  0  0  0  0  0  0
  -28.9269   -7.3232   -6.1763 C   0  0  0  0  0  0  0  0  0  0  0  0
  -28.6146   -7.2123   -4.7925 C   0  0  0  0  0  0  0  0  0  0  0  0
  -28.6737   -8.2894   -3.9329 C   0  0  0  0  0  0  0  0  0  0  0  0
  -28.2797   -5.8413   -4.6160 C   0  0  0  0  0  0  0  0  0  0  0  0
  -28.0033   -4.9468   -3.6481 N   0  0  0  0  0  0  0  0  0  0  0  0
  -27.8845   -3.6863   -4.1491 N   0  0  0  0  0  0  0  0  0  0  0  0
  -28.0911   -3.8292   -5.4752 C   0  0  0  0  0  0  0  0  0  0  0  0
  -28.3552   -5.1610   -5.8012 C   0  0  0  0  0  0  0  0  0  0  0  0
  -28.7409   -6.0121   -6.9563 C   0  0  0  0  0  0  0  0  0  0  0  0
  -27.9090   -5.0856   -2.6482 H   0  0  0  0  0  0  0  0  0  0  0  0
  -28.1072   -2.7090   -6.4204 C   0  0  0  0  0  0  0  0  0  0  0  0
  -28.4049   -1.4057   -6.0834 C   0  0  0  0  0  0  0  0  0  0  0  0
  -28.3895   -0.3657   -7.4416 S   0  0  0  0  0  0  0  0  0  0  0  0
  -27.9700   -1.6464   -8.4942 C   0  0  0  0  0  0  0  0  0  0  0  0
  -27.8252   -2.8426   -7.8205 C   0  0  0  0  0  0  0  0  0  0  0  0
  -27.7911   -1.4621   -9.8956 C   0  0  0  0  0  0  0  0  0  0  0  0
  -27.6168   -1.3422  -11.0799 C   0  0  0  0  0  0  0  0  0  0  0  0
  -27.4104   -1.2755  -12.5307 C   0  0  0  0  0  0  0  0  0  0  0  0
  -26.3556   -2.1596  -12.9150 O   0  0  0  0  0  0  0  0  0  0  0  0
  -25.1003   -1.6081  -12.9070 C   0  0  0  0  0  0  0  0  0  0  0  0
  -24.1673   -1.7562  -11.8777 C   0  0  0  0  0  0  0  0  0  0  0  0
  -22.9075   -1.1590  -11.9778 C   0  0  0  0  0  0  0  0  0  0  0  0
  -22.5691   -0.4226  -13.1101 C   0  0  0  0  0  0  0  0  0  0  0  0
  -23.4882   -0.2887  -14.1489 C   0  0  0  0  0  0  0  0  0  0  0  0
  -24.7476   -0.8863  -14.0490 C   0  0  0  0  0  0  0  0  0  0  0  0
  -29.1336  -10.7717   -3.5967 C   0  0  0  0  0  0  0  0  0  0  0  0
  -24.3693  -10.2106   -3.2127 C   0  0  0  0  0  0  0  0  0  0  0  0
  -25.4150  -11.1233   -3.6635 N   0  0  0  0  0  0  0  0  0  0  0  0
  -26.2886  -11.5215   -2.5481 C   0  0  0  0  0  0  0  0  0  0  0  0
  -27.4128  -12.4660   -3.0316 C   0  0  0  0  0  0  0  0  0  0  0  0
  -28.2902  -11.8851   -4.0730 N   0  0  0  0  0  0  0  0  0  0  0  0
  -27.4085  -11.4362   -5.1805 C   0  0  0  0  0  0  0  0  0  0  0  0
  -26.2158  -10.5350   -4.7536 C   0  0  0  0  0  0  0  0  0  0  0  0
 30 31  1  0  0  0
 31 32  1  0  0  0
 31 36  1  0  0  0
 32 33  1  0  0  0
 33 34  1  0  0  0
 34 29  1  0  0  0
 34 35  1  0  0  0
 29  1  1  0  0  0
  1  2  1  0  0  0
  1  6  2  0  0  0
  2  3  2  0  0  0
  3  4  1  0  0  0
  4  5  2  0  0  0
  4 12  1  0  0  0
  5  6  1  0  0  0
  5  7  1  0  0  0
  7  8  1  0  0  0
  7 11  2  0  0  0
  8  9  1  0  0  0
  8 13  1  0  0  0
  9 10  2  0  0  0
 10 14  1  0  0  0
 10 11  1  0  0  0
 14 15  2  0  0  0
 14 18  1  0  0  0
 15 16  1  0  0  0
 16 17  1  0  0  0
 17 19  1  0  0  0
 17 18  2  0  0  0
 19 20  3  0  0  0
 20 21  1  0  0  0
 21 22  1  0  0  0
 22 23  1  0  0  0
 23 24  1  0  0  0
 23 28  2  0  0  0
 24 25  2  0  0  0
 25 26  1  0  0  0
 26 27  2  0  0  0
 27 28  1  0  0  0
 11 12  1  0  0  0
 35 36  1  0  0  0
M  END
> <minimizedAffinity>
-9.10602

$$$$
