CHEMBL3975447


 36 40  0  0  0  0  0  0  0  0999 V2000
  -27.6557   -2.2116   -8.5635 N   0  0  0  0  0  0  0  0  0  0  0  0
  -27.0536   -1.5473   -9.7183 C   0  0  0  0  0  0  0  0  0  0  0  0
  -27.8978   -1.5242  -10.8218 C   0  0  0  0  0  0  0  0  0  0  0  0
  -27.4072   -1.5120  -12.0816 C   0  0  0  0  0  0  0  0  0  0  0  0
  -26.0716   -1.3523  -12.2903 C   0  0  0  0  0  0  0  0  0  0  0  0
  -25.6448   -1.6177  -13.5282 N   0  0  0  0  0  0  0  0  0  0  0  0
  -24.3971   -1.3806  -13.9005 C   0  0  0  0  0  0  0  0  0  0  0  0
  -23.5867   -0.6055  -13.0732 C   0  0  0  0  0  0  0  0  0  0  0  0
  -23.9355   -0.5023  -11.7098 N   0  0  0  0  0  0  0  0  0  0  0  0
  -25.1834   -0.9679  -11.2805 C   0  0  0  0  0  0  0  0  0  0  0  0
  -25.6673   -1.1245   -9.9081 C   0  0  0  0  0  0  0  0  0  0  0  0
  -22.7137    0.3434  -13.8978 C   0  0  0  0  0  0  0  0  0  0  0  0
  -22.8788    1.7453  -13.8590 C   0  0  0  0  0  0  0  0  0  0  0  0
  -21.8367    2.3546  -14.4166 N   0  0  0  0  0  0  0  0  0  0  0  0
  -21.0003    1.4258  -14.8253 N   0  0  0  0  0  0  0  0  0  0  0  0
  -19.6951    1.8023  -15.3376 C   0  0  0  0  0  0  0  0  0  0  0  0
  -21.4999    0.1849  -14.5755 C   0  0  0  0  0  0  0  0  0  0  0  0
  -29.0100    0.2401   -5.9847 C   0  0  0  0  0  0  0  0  0  0  0  0
  -28.7970   -0.4806   -4.7984 C   0  0  0  0  0  0  0  0  0  0  0  0
  -28.2257   -1.7499   -4.8207 C   0  0  0  0  0  0  0  0  0  0  0  0
  -27.8366   -2.2899   -6.0536 C   0  0  0  0  0  0  0  0  0  0  0  0
  -28.0234   -1.5911   -7.2949 C   0  0  0  0  0  0  0  0  0  0  0  0
  -28.6279   -0.3213   -7.2247 C   0  0  0  0  0  0  0  0  0  0  0  0
  -30.8652    1.7461   -6.4178 C   0  0  0  0  0  0  0  0  0  0  0  0
  -29.5860    1.4680   -5.9649 O   0  0  0  0  0  0  0  0  0  0  0  0
  -28.0446   -2.4818   -3.6872 O   0  0  0  0  0  0  0  0  0  0  0  0
  -29.0243   -2.8094   -2.7635 C   0  0  0  0  0  0  0  0  0  0  0  0
  -28.0479   -3.6595   -8.7320 C   0  0  0  0  0  0  0  0  0  0  0  0
  -29.3465   -4.2504   -8.0532 C   0  0  0  0  0  0  0  0  0  0  0  0
  -29.1340   -5.5969   -7.3278 C   0  0  0  0  0  0  0  0  0  0  0  0
  -29.5788   -5.5185   -5.9232 N   0  0  0  0  0  0  0  0  0  0  0  0
  -28.5484   -5.7760   -4.8993 C   0  0  0  0  0  0  0  0  0  0  0  0
  -29.1992   -6.6716   -3.8429 C   0  0  0  0  0  0  0  0  0  0  0  0
  -30.6786   -6.4626   -4.0798 C   0  0  0  0  0  0  0  0  0  0  0  0
  -31.0693   -5.2364   -3.5655 F   0  0  0  0  0  0  0  0  0  0  0  0
  -30.7018   -6.4028   -5.5967 C   0  0  0  0  0  0  0  0  0  0  0  0
 24 25  1  0  0  0
 25 18  1  0  0  0
 18 19  1  0  0  0
 18 23  2  0  0  0
 19 20  2  0  0  0
 20 26  1  0  0  0
 20 21  1  0  0  0
 26 27  1  0  0  0
 21 22  2  0  0  0
 22  1  1  0  0  0
 22 23  1  0  0  0
  1 28  1  0  0  0
  1  2  1  0  0  0
 28 29  1  0  0  0
 29 30  1  0  0  0
 30 31  1  0  0  0
 31 32  1  0  0  0
 31 36  1  0  0  0
 32 33  1  0  0  0
 33 34  1  0  0  0
 34 35  1  0  0  0
 34 36  1  0  0  0
  2  3  1  0  0  0
  2 11  2  0  0  0
  3  4  2  0  0  0
  4  5  1  0  0  0
  5  6  1  0  0  0
  5 10  2  0  0  0
  6  7  2  0  0  0
  7  8  1  0  0  0
  8 12  1  0  0  0
  8  9  2  0  0  0
 12 13  1  0  0  0
 12 17  2  0  0  0
 13 14  2  0  0  0
 14 15  1  0  0  0
 15 16  1  0  0  0
 15 17  1  0  0  0
  9 10  1  0  0  0
 10 11  1  0  0  0
M  END
> <minimizedAffinity>
-8.74795

$$$$
