CHEMBL3948411


 36 40  0  0  0  0  0  0  0  0999 V2000
  -28.8024   -4.7095   -4.4323 C   0  0  0  0  0  0  0  0  0  0  0  0
  -28.9913   -3.9592   -3.4760 O   0  0  0  0  0  0  0  0  0  0  0  0
  -28.6977   -4.1265   -5.8100 C   0  0  0  0  0  0  0  0  0  0  0  0
  -29.5196   -4.5125   -6.8876 C   0  0  0  0  0  0  0  0  0  0  0  0
  -29.3406   -3.9862   -8.1884 C   0  0  0  0  0  0  0  0  0  0  0  0
  -28.4486   -2.9105   -8.3395 C   0  0  0  0  0  0  0  0  0  0  0  0
  -27.9570   -2.0136   -9.3524 C   0  0  0  0  0  0  0  0  0  0  0  0
  -27.9999   -0.7902   -8.7767 N   0  0  0  0  0  0  0  0  0  0  0  0
  -27.5938   -1.0995   -7.5240 N   0  0  0  0  0  0  0  0  0  0  0  0
  -27.8905   -2.3842   -7.1796 C   0  0  0  0  0  0  0  0  0  0  0  0
  -27.8202   -3.0501   -5.9612 C   0  0  0  0  0  0  0  0  0  0  0  0
  -27.2863   -0.3457   -6.9213 H   0  0  0  0  0  0  0  0  0  0  0  0
  -26.7560   -2.1746  -10.1724 C   0  0  0  0  0  0  0  0  0  0  0  0
  -25.9089   -1.1634  -10.4460 C   0  0  0  0  0  0  0  0  0  0  0  0
  -25.4539   -0.8582  -11.8245 C   0  0  0  0  0  0  0  0  0  0  0  0
  -24.3185   -0.0538  -12.0538 C   0  0  0  0  0  0  0  0  0  0  0  0
  -23.7138    0.0042  -13.3150 C   0  0  0  0  0  0  0  0  0  0  0  0
  -24.2365   -0.7388  -14.3684 C   0  0  0  0  0  0  0  0  0  0  0  0
  -25.3704   -1.5236  -14.1634 C   0  0  0  0  0  0  0  0  0  0  0  0
  -25.9726   -1.5856  -12.8997 C   0  0  0  0  0  0  0  0  0  0  0  0
  -27.4678   -8.2521   -4.4113 C   0  0  0  0  0  0  0  0  0  0  0  0
  -28.4156   -8.8559   -3.5761 C   0  0  0  0  0  0  0  0  0  0  0  0
  -29.5343   -8.1640   -3.1220 C   0  0  0  0  0  0  0  0  0  0  0  0
  -29.7009   -6.8335   -3.4639 C   0  0  0  0  0  0  0  0  0  0  0  0
  -28.6973   -6.1671   -4.1725 C   0  0  0  0  0  0  0  0  0  0  0  0
  -27.5899   -6.8831   -4.6724 C   0  0  0  0  0  0  0  0  0  0  0  0
  -25.1837   -9.2587   -4.3651 C   0  0  0  0  0  0  0  0  0  0  0  0
  -24.9376   -8.9144   -3.2029 O   0  0  0  0  0  0  0  0  0  0  0  0
  -26.4035   -8.9898   -4.9917 N   0  0  0  0  0  0  0  0  0  0  0  0
  -26.5615   -9.4710   -5.8731 H   0  0  0  0  0  0  0  0  0  0  0  0
  -21.1927  -12.3012   -5.8854 C   0  0  0  0  0  0  0  0  0  0  0  0
  -22.3782  -11.4103   -5.8441 C   0  0  0  0  0  0  0  0  0  0  0  0
  -23.1168  -10.8441   -6.8641 C   0  0  0  0  0  0  0  0  0  0  0  0
  -24.1834  -10.0447   -6.4739 N   0  0  0  0  0  0  0  0  0  0  0  0
  -24.2245  -10.0146   -5.1547 C   0  0  0  0  0  0  0  0  0  0  0  0
  -23.0270  -10.9344   -4.3399 S   0  0  0  0  0  0  0  0  0  0  0  0
 31 32  1  0  0  0
 32 33  2  0  0  0
 32 36  1  0  0  0
 33 34  1  0  0  0
 34 35  2  0  0  0
 35 27  1  0  0  0
 35 36  1  0  0  0
 27 28  2  0  0  0
 27 29  1  0  0  0
 29 21  1  0  0  0
 29 30  1  0  0  0
 21 22  1  0  0  0
 21 26  2  0  0  0
 22 23  2  0  0  0
 23 24  1  0  0  0
 24 25  2  0  0  0
 25  1  1  0  0  0
 25 26  1  0  0  0
  1  2  2  0  0  0
  1  3  1  0  0  0
  3  4  1  0  0  0
  3 11  2  0  0  0
  4  5  2  0  0  0
  5  6  1  0  0  0
  6  7  1  0  0  0
  6 10  2  0  0  0
  7 13  1  0  0  0
  7  8  2  0  0  0
 13 14  2  0  0  0
 14 15  1  0  0  0
 15 16  1  0  0  0
 15 20  2  0  0  0
 16 17  2  0  0  0
 17 18  1  0  0  0
 18 19  2  0  0  0
 19 20  1  0  0  0
  8  9  1  0  0  0
  9 10  1  0  0  0
  9 12  1  0  0  0
 10 11  1  0  0  0
M  END
> <minimizedAffinity>
-9.80165

$$$$
