CHEMBL1242385


 27 31  0  0  0  0  0  0  0  0999 V2000
  -29.1441   -5.7705   -6.3513 C   0  0  0  0  0  0  0  0  0  0  0  0
  -29.1373   -6.2348   -7.6142 N   0  0  0  0  0  0  0  0  0  0  0  0
  -28.9957   -7.5713   -7.4866 N   0  0  0  0  0  0  0  0  0  0  0  0
  -28.9659   -7.9892   -6.1855 C   0  0  0  0  0  0  0  0  0  0  0  0
  -28.8522   -9.2572   -5.7477 N   0  0  0  0  0  0  0  0  0  0  0  0
  -28.8532   -9.3164   -4.4111 C   0  0  0  0  0  0  0  0  0  0  0  0
  -28.9664   -8.3005   -3.5380 N   0  0  0  0  0  0  0  0  0  0  0  0
  -29.0841   -7.0431   -4.0187 C   0  0  0  0  0  0  0  0  0  0  0  0
  -29.2259   -6.0461   -3.0610 N   0  0  0  0  0  0  0  0  0  0  0  0
  -29.0767   -6.8471   -5.4059 C   0  0  0  0  0  0  0  0  0  0  0  0
  -29.4366   -6.4522   -2.1588 H   0  0  0  0  0  0  0  0  0  0  0  0
  -29.8172   -5.2732   -3.3418 H   0  0  0  0  0  0  0  0  0  0  0  0
  -30.1337    0.8032   -5.5028 C   0  0  0  0  0  0  0  0  0  0  0  0
  -29.1399   -0.2387   -5.3716 N   0  0  0  0  0  0  0  0  0  0  0  0
  -27.8578   -0.0492   -4.9300 C   0  0  0  0  0  0  0  0  0  0  0  0
  -27.2140   -1.2656   -4.9732 C   0  0  0  0  0  0  0  0  0  0  0  0
  -28.1454   -2.2348   -5.4389 C   0  0  0  0  0  0  0  0  0  0  0  0
  -28.0740   -3.6229   -5.6822 C   0  0  0  0  0  0  0  0  0  0  0  0
  -29.2166   -4.3249   -6.1070 C   0  0  0  0  0  0  0  0  0  0  0  0
  -30.4227   -3.6302   -6.2580 C   0  0  0  0  0  0  0  0  0  0  0  0
  -30.5071   -2.2457   -6.0759 C   0  0  0  0  0  0  0  0  0  0  0  0
  -29.3535   -1.5706   -5.6595 C   0  0  0  0  0  0  0  0  0  0  0  0
  -28.8698   -8.4076   -8.6614 C   0  0  0  0  0  0  0  0  0  0  0  0
  -29.9442   -9.4917   -8.7689 C   0  0  0  0  0  0  0  0  0  0  0  0
  -29.3501  -10.5546   -9.6899 C   0  0  0  0  0  0  0  0  0  0  0  0
  -27.8495  -10.2786   -9.7672 C   0  0  0  0  0  0  0  0  0  0  0  0
  -27.5647   -9.2002   -8.7296 C   0  0  0  0  0  0  0  0  0  0  0  0
 13 14  1  0  0  0
 14 15  1  0  0  0
 14 22  1  0  0  0
 15 16  2  0  0  0
 16 17  1  0  0  0
 17 18  1  0  0  0
 17 22  2  0  0  0
 18 19  2  0  0  0
 19  1  1  0  0  0
 19 20  1  0  0  0
  1  2  2  0  0  0
  1 10  1  0  0  0
  2  3  1  0  0  0
  3 23  1  0  0  0
  3  4  1  0  0  0
 23 24  1  0  0  0
 23 27  1  0  0  0
 24 25  1  0  0  0
 25 26  1  0  0  0
 26 27  1  0  0  0
  4  5  1  0  0  0
  4 10  2  0  0  0
  5  6  2  0  0  0
  6  7  1  0  0  0
  7  8  2  0  0  0
  8  9  1  0  0  0
  8 10  1  0  0  0
  9 11  1  0  0  0
  9 12  1  0  0  0
 20 21  2  0  0  0
 21 22  1  0  0  0
M  END
> <minimizedAffinity>
-8.66684

$$$$
