CHEMBL382142


 32 35  0  0  0  0  0  0  0  0999 V2000
  -27.5523   -2.1081   -9.9859 C   0  0  0  0  0  0  0  0  0  0  0  0
  -27.4988   -3.2453   -9.3294 N   0  0  0  0  0  0  0  0  0  0  0  0
  -27.6256   -2.9269   -7.9910 N   0  0  0  0  0  0  0  0  0  0  0  0
  -27.7728   -1.6171   -7.9266 C   0  0  0  0  0  0  0  0  0  0  0  0
  -27.7375   -1.0360   -9.1581 O   0  0  0  0  0  0  0  0  0  0  0  0
  -28.0408   -0.7706   -6.7672 C   0  0  0  0  0  0  0  0  0  0  0  0
  -28.3927    0.5586   -7.0471 C   0  0  0  0  0  0  0  0  0  0  0  0
  -28.6154    1.5265   -6.1283 N   0  0  0  0  0  0  0  0  0  0  0  0
  -28.4678    1.1687   -4.8468 C   0  0  0  0  0  0  0  0  0  0  0  0
  -28.1387   -0.1182   -4.4473 C   0  0  0  0  0  0  0  0  0  0  0  0
  -27.9467   -1.1391   -5.4034 C   0  0  0  0  0  0  0  0  0  0  0  0
  -27.5924   -2.5496   -4.9285 C   0  0  0  0  0  0  0  0  0  0  0  0
  -28.3827   -3.0412   -3.6978 C   0  0  0  0  0  0  0  0  0  0  0  0
  -29.5293   -4.0029   -3.8874 C   0  0  0  0  0  0  0  0  0  0  0  0
  -29.4428   -5.2347   -4.5308 C   0  0  0  0  0  0  0  0  0  0  0  0
  -30.5690   -6.0491   -4.5683 C   0  0  0  0  0  0  0  0  0  0  0  0
  -31.7595   -5.7228   -4.0196 N   0  0  0  0  0  0  0  0  0  0  0  0
  -31.8314   -4.5245   -3.4079 C   0  0  0  0  0  0  0  0  0  0  0  0
  -30.7654   -3.6447   -3.3230 C   0  0  0  0  0  0  0  0  0  0  0  0
  -27.5003   -1.8690  -11.3113 N   0  0  0  0  0  0  0  0  0  0  0  0
  -28.1609   -2.4088  -11.8622 H   0  0  0  0  0  0  0  0  0  0  0  0
  -23.8446   -1.1873  -13.3300 C   0  0  0  0  0  0  0  0  0  0  0  0
  -25.0001   -1.4532  -14.0599 C   0  0  0  0  0  0  0  0  0  0  0  0
  -26.2104   -1.6855  -13.3995 C   0  0  0  0  0  0  0  0  0  0  0  0
  -26.2862   -1.6719  -12.0008 C   0  0  0  0  0  0  0  0  0  0  0  0
  -25.1300   -1.3760  -11.2761 C   0  0  0  0  0  0  0  0  0  0  0  0
  -23.9153   -1.1616  -11.9345 C   0  0  0  0  0  0  0  0  0  0  0  0
  -22.6010   -0.9704  -13.8473 O   0  0  0  0  0  0  0  0  0  0  0  0
  -21.5970    0.6097  -12.6265 F   0  0  0  0  0  0  0  0  0  0  0  0
  -22.0933    0.3626  -13.8680 C   0  0  0  0  0  0  0  0  0  0  0  0
  -23.1010    1.2546  -14.0529 F   0  0  0  0  0  0  0  0  0  0  0  0
  -20.8107    0.5909  -15.0565 Cl  0  0  0  0  0  0  0  0  0  0  0  0
 29 30  1  0  0  0
 30 31  1  0  0  0
 30 32  1  0  0  0
 30 28  1  0  0  0
 28 22  1  0  0  0
 22 23  1  0  0  0
 22 27  2  0  0  0
 23 24  2  0  0  0
 24 25  1  0  0  0
 25 20  1  0  0  0
 25 26  2  0  0  0
 20  1  1  0  0  0
 20 21  1  0  0  0
  1  2  2  0  0  0
  1  5  1  0  0  0
  2  3  1  0  0  0
  3  4  2  0  0  0
  4  6  1  0  0  0
  4  5  1  0  0  0
  6  7  1  0  0  0
  6 11  2  0  0  0
  7  8  2  0  0  0
  8  9  1  0  0  0
  9 10  2  0  0  0
 10 11  1  0  0  0
 11 12  1  0  0  0
 12 13  1  0  0  0
 13 14  1  0  0  0
 14 15  1  0  0  0
 14 19  2  0  0  0
 15 16  2  0  0  0
 16 17  1  0  0  0
 17 18  2  0  0  0
 18 19  1  0  0  0
 26 27  1  0  0  0
M  END
> <minimizedAffinity>
-9.96910

$$$$
