CHEMBL404571


 35 38  0  0  0  0  0  0  0  0999 V2000
  -29.2349   -3.8310   -6.4131 C   0  0  0  0  0  0  0  0  0  0  0  0
  -28.4103   -2.7456   -6.0831 C   0  0  0  0  0  0  0  0  0  0  0  0
  -27.9233   -1.8670   -7.0599 C   0  0  0  0  0  0  0  0  0  0  0  0
  -28.2297   -2.0623   -8.4040 C   0  0  0  0  0  0  0  0  0  0  0  0
  -29.0828   -3.1084   -8.7504 C   0  0  0  0  0  0  0  0  0  0  0  0
  -29.5995   -3.9578   -7.7611 C   0  0  0  0  0  0  0  0  0  0  0  0
  -28.1415   -6.9677   -7.2274 N   0  0  0  0  0  0  0  0  0  0  0  0
  -28.9238   -7.1580   -6.1530 C   0  0  0  0  0  0  0  0  0  0  0  0
  -29.1586   -8.3869   -5.7031 N   0  0  0  0  0  0  0  0  0  0  0  0
  -29.9140   -8.1891   -4.6205 N   0  0  0  0  0  0  0  0  0  0  0  0
  -30.1798   -6.8796   -4.3450 C   0  0  0  0  0  0  0  0  0  0  0  0
  -30.9005   -6.2939   -3.3084 C   0  0  0  0  0  0  0  0  0  0  0  0
  -30.9576   -4.9149   -3.3556 C   0  0  0  0  0  0  0  0  0  0  0  0
  -30.4061   -4.1573   -4.3256 N   0  0  0  0  0  0  0  0  0  0  0  0
  -29.7277   -4.7433   -5.3651 C   0  0  0  0  0  0  0  0  0  0  0  0
  -29.5690   -6.1500   -5.3683 C   0  0  0  0  0  0  0  0  0  0  0  0
  -27.6576   -7.7915   -7.5685 H   0  0  0  0  0  0  0  0  0  0  0  0
  -27.5847   -6.1234   -7.3025 H   0  0  0  0  0  0  0  0  0  0  0  0
  -30.2162   -9.0049   -4.0938 H   0  0  0  0  0  0  0  0  0  0  0  0
  -27.7718   -1.2181   -9.4325 N   0  0  0  0  0  0  0  0  0  0  0  0
  -26.9858   -1.6102  -10.5010 C   0  0  0  0  0  0  0  0  0  0  0  0
  -26.7720   -2.7702  -10.8330 O   0  0  0  0  0  0  0  0  0  0  0  0
  -26.4361   -0.5048  -11.1426 N   0  0  0  0  0  0  0  0  0  0  0  0
  -28.2188   -0.3197   -9.5319 H   0  0  0  0  0  0  0  0  0  0  0  0
  -26.1899    0.2420  -10.5067 H   0  0  0  0  0  0  0  0  0  0  0  0
  -25.6199   -0.6583  -12.2800 C   0  0  0  0  0  0  0  0  0  0  0  0
  -26.0454   -1.5046  -13.3025 C   0  0  0  0  0  0  0  0  0  0  0  0
  -25.2729   -1.6446  -14.4555 C   0  0  0  0  0  0  0  0  0  0  0  0
  -24.0433   -0.9920  -14.5592 C   0  0  0  0  0  0  0  0  0  0  0  0
  -23.5779   -0.1790  -13.5157 C   0  0  0  0  0  0  0  0  0  0  0  0
  -24.3931    0.0049  -12.3881 C   0  0  0  0  0  0  0  0  0  0  0  0
  -22.2177    0.4685  -13.5748 C   0  0  0  0  0  0  0  0  0  0  0  0
  -22.2635    1.7913  -13.9036 F   0  0  0  0  0  0  0  0  0  0  0  0
  -21.5386    0.4009  -12.3984 F   0  0  0  0  0  0  0  0  0  0  0  0
  -21.4105   -0.1107  -14.5090 F   0  0  0  0  0  0  0  0  0  0  0  0
  7  8  1  0  0  0
  7 17  1  0  0  0
  7 18  1  0  0  0
  8  9  2  0  0  0
  8 16  1  0  0  0
  9 10  1  0  0  0
 10 11  1  0  0  0
 10 19  1  0  0  0
 11 12  1  0  0  0
 11 16  2  0  0  0
 12 13  2  0  0  0
 13 14  1  0  0  0
 14 15  2  0  0  0
 15  1  1  0  0  0
 15 16  1  0  0  0
  1  2  1  0  0  0
  1  6  2  0  0  0
  2  3  2  0  0  0
  3  4  1  0  0  0
  4 20  1  0  0  0
  4  5  2  0  0  0
 20 21  1  0  0  0
 20 24  1  0  0  0
 21 22  2  0  0  0
 21 23  1  0  0  0
 23 26  1  0  0  0
 23 25  1  0  0  0
 26 27  1  0  0  0
 26 31  2  0  0  0
 27 28  2  0  0  0
 28 29  1  0  0  0
 29 30  2  0  0  0
 30 32  1  0  0  0
 30 31  1  0  0  0
 32 33  1  0  0  0
 32 34  1  0  0  0
 32 35  1  0  0  0
  5  6  1  0  0  0
M  END
> <minimizedAffinity>
-10.01457

$$$$
