CHEMBL3925077


 38 42  0  0  0  0  0  0  0  0999 V2000
  -29.0570   -3.1810   -7.9328 N   0  0  0  0  0  0  0  0  0  0  0  0
  -28.0357   -2.6001   -8.8004 C   0  0  0  0  0  0  0  0  0  0  0  0
  -28.3947   -1.3700   -9.2571 C   0  0  0  0  0  0  0  0  0  0  0  0
  -27.8933   -0.9740  -10.4515 C   0  0  0  0  0  0  0  0  0  0  0  0
  -27.0064   -1.7232  -11.1064 C   0  0  0  0  0  0  0  0  0  0  0  0
  -27.1630   -1.4700  -12.4030 N   0  0  0  0  0  0  0  0  0  0  0  0
  -26.0721   -1.1605  -13.0388 C   0  0  0  0  0  0  0  0  0  0  0  0
  -24.7921   -1.2272  -12.5335 C   0  0  0  0  0  0  0  0  0  0  0  0
  -24.6871   -1.9555  -11.3126 N   0  0  0  0  0  0  0  0  0  0  0  0
  -25.9788   -2.3123  -10.4829 C   0  0  0  0  0  0  0  0  0  0  0  0
  -26.7324   -3.0466   -9.3073 C   0  0  0  0  0  0  0  0  0  0  0  0
  -23.9368   -0.1520  -13.2307 C   0  0  0  0  0  0  0  0  0  0  0  0
  -22.7501   -0.5114  -13.9893 C   0  0  0  0  0  0  0  0  0  0  0  0
  -21.9502    0.4803  -14.3319 N   0  0  0  0  0  0  0  0  0  0  0  0
  -22.5894    1.5622  -13.8925 N   0  0  0  0  0  0  0  0  0  0  0  0
  -21.9396    2.8174  -14.2288 C   0  0  0  0  0  0  0  0  0  0  0  0
  -23.7677    1.2471  -13.1900 C   0  0  0  0  0  0  0  0  0  0  0  0
  -30.1861   -3.0764   -4.2711 C   0  0  0  0  0  0  0  0  0  0  0  0
  -29.5446   -1.9571   -3.7672 C   0  0  0  0  0  0  0  0  0  0  0  0
  -28.8035   -1.1599   -4.6077 C   0  0  0  0  0  0  0  0  0  0  0  0
  -28.6835   -1.5424   -5.9729 C   0  0  0  0  0  0  0  0  0  0  0  0
  -29.1906   -2.7590   -6.5181 C   0  0  0  0  0  0  0  0  0  0  0  0
  -30.0186   -3.4835   -5.6225 C   0  0  0  0  0  0  0  0  0  0  0  0
  -31.5778   -4.8986   -3.6349 C   0  0  0  0  0  0  0  0  0  0  0  0
  -31.0257   -3.6308   -3.3413 O   0  0  0  0  0  0  0  0  0  0  0  0
  -28.1590   -0.0111   -4.2226 O   0  0  0  0  0  0  0  0  0  0  0  0
  -28.2186    1.0868   -5.1438 C   0  0  0  0  0  0  0  0  0  0  0  0
  -29.4688   -4.5719   -8.3391 C   0  0  0  0  0  0  0  0  0  0  0  0
  -28.6700   -5.7208   -7.7073 C   0  0  0  0  0  0  0  0  0  0  0  0
  -28.8697   -7.1450   -8.2028 C   0  0  0  0  0  0  0  0  0  0  0  0
  -28.7545   -8.2457   -7.2455 N   0  0  0  0  0  0  0  0  0  0  0  0
  -28.7936   -9.5879   -7.8509 C   0  0  0  0  0  0  0  0  0  0  0  0
  -30.0585   -9.9120   -8.6240 C   0  0  0  0  0  0  0  0  0  0  0  0
  -31.5005   -9.7475   -7.5857 S   0  0  0  0  0  0  0  0  0  0  0  0
  -32.6324   -9.5707   -8.4370 O   0  0  0  0  0  0  0  0  0  0  0  0
  -31.4688  -10.8250   -6.6064 O   0  0  0  0  0  0  0  0  0  0  0  0
  -31.2323   -8.2254   -6.7147 C   0  0  0  0  0  0  0  0  0  0  0  0
  -29.8007   -8.1288   -6.2039 C   0  0  0  0  0  0  0  0  0  0  0  0
 24 25  1  0  0  0
 25 18  1  0  0  0
 18 19  1  0  0  0
 18 23  2  0  0  0
 19 20  2  0  0  0
 20 26  1  0  0  0
 20 21  1  0  0  0
 26 27  1  0  0  0
 21 22  2  0  0  0
 22  1  1  0  0  0
 22 23  1  0  0  0
  1 28  1  0  0  0
  1  2  1  0  0  0
 28 29  1  0  0  0
 29 30  1  0  0  0
 30 31  1  0  0  0
 31 32  1  0  0  0
 31 38  1  0  0  0
 32 33  1  0  0  0
 33 34  1  0  0  0
 34 35  2  0  0  0
 34 36  2  0  0  0
 34 37  1  0  0  0
 37 38  1  0  0  0
  2  3  1  0  0  0
  2 11  2  0  0  0
  3  4  2  0  0  0
  4  5  1  0  0  0
  5  6  1  0  0  0
  5 10  2  0  0  0
  6  7  2  0  0  0
  7  8  1  0  0  0
  8 12  1  0  0  0
  8  9  2  0  0  0
 12 13  1  0  0  0
 12 17  2  0  0  0
 13 14  2  0  0  0
 14 15  1  0  0  0
 15 16  1  0  0  0
 15 17  1  0  0  0
  9 10  1  0  0  0
 10 11  1  0  0  0
M  END
> <minimizedAffinity>
-7.07689

$$$$
