CHEMBL3109275


 38 42  0  0  0  0  0  0  0  0999 V2000
  -28.9178   -7.4773   -3.9987 C   0  0  0  0  0  0  0  0  0  0  0  0
  -28.9451   -8.4492   -3.1118 N   0  0  0  0  0  0  0  0  0  0  0  0
  -28.1903   -9.4401   -3.6537 C   0  0  0  0  0  0  0  0  0  0  0  0
  -27.8131   -9.0882   -4.9202 C   0  0  0  0  0  0  0  0  0  0  0  0
  -28.2885   -7.8203   -5.1589 O   0  0  0  0  0  0  0  0  0  0  0  0
  -27.0758   -9.7425   -5.9796 C   0  0  0  0  0  0  0  0  0  0  0  0
  -27.6044   -9.7678   -7.2690 C   0  0  0  0  0  0  0  0  0  0  0  0
  -26.9248  -10.3533   -8.3411 C   0  0  0  0  0  0  0  0  0  0  0  0
  -25.6821  -10.9438   -8.0813 C   0  0  0  0  0  0  0  0  0  0  0  0
  -25.0931  -10.9037   -6.8053 C   0  0  0  0  0  0  0  0  0  0  0  0
  -25.8260  -10.3329   -5.7506 C   0  0  0  0  0  0  0  0  0  0  0  0
  -27.4585  -10.2624   -9.7033 C   0  0  0  0  0  0  0  0  0  0  0  0
  -26.8044   -9.4998  -10.6821 C   0  0  0  0  0  0  0  0  0  0  0  0
  -27.3008   -9.4399  -11.9776 C   0  0  0  0  0  0  0  0  0  0  0  0
  -28.4479  -10.1552  -12.2686 C   0  0  0  0  0  0  0  0  0  0  0  0
  -29.1134  -10.9065  -11.3667 N   0  0  0  0  0  0  0  0  0  0  0  0
  -28.6059  -10.9392  -10.1122 C   0  0  0  0  0  0  0  0  0  0  0  0
  -23.6945  -11.3216   -6.6226 C   0  0  0  0  0  0  0  0  0  0  0  0
  -23.1156  -11.3215   -5.3507 C   0  0  0  0  0  0  0  0  0  0  0  0
  -21.8316  -11.8181   -5.1836 C   0  0  0  0  0  0  0  0  0  0  0  0
  -21.1492  -12.2931   -6.2928 C   0  0  0  0  0  0  0  0  0  0  0  0
  -21.7821  -12.2502   -7.5231 C   0  0  0  0  0  0  0  0  0  0  0  0
  -23.0375  -11.7855   -7.7129 N   0  0  0  0  0  0  0  0  0  0  0  0
  -29.4368   -6.2330   -3.9282 N   0  0  0  0  0  0  0  0  0  0  0  0
  -29.2452   -5.7345   -3.0659 H   0  0  0  0  0  0  0  0  0  0  0  0
  -28.7510   -3.2652   -6.0874 C   0  0  0  0  0  0  0  0  0  0  0  0
  -29.4809   -3.5759   -7.2306 C   0  0  0  0  0  0  0  0  0  0  0  0
  -30.2182   -4.7611   -7.2839 C   0  0  0  0  0  0  0  0  0  0  0  0
  -30.2236   -5.6428   -6.1972 C   0  0  0  0  0  0  0  0  0  0  0  0
  -29.4499   -5.3543   -5.0471 C   0  0  0  0  0  0  0  0  0  0  0  0
  -28.7060   -4.1611   -5.0232 C   0  0  0  0  0  0  0  0  0  0  0  0
  -27.8299   -1.7452   -5.9837 S   0  0  0  0  0  0  0  0  0  0  0  0
  -27.4552   -1.4091   -7.3616 O   0  0  0  0  0  0  0  0  0  0  0  0
  -26.8288   -1.9284   -4.9736 O   0  0  0  0  0  0  0  0  0  0  0  0
  -28.2999    0.7636   -4.9546 C   0  0  0  0  0  0  0  0  0  0  0  0
  -28.9888   -0.5024   -5.4339 C   0  0  0  0  0  0  0  0  0  0  0  0
  -31.0662   -6.7292   -6.1133 O   0  0  0  0  0  0  0  0  0  0  0  0
  -31.0986   -7.6160   -7.2272 C   0  0  0  0  0  0  0  0  0  0  0  0
 35 36  1  0  0  0
 36 32  1  0  0  0
 32 33  2  0  0  0
 32 34  2  0  0  0
 32 26  1  0  0  0
 26 27  1  0  0  0
 26 31  2  0  0  0
 27 28  2  0  0  0
 28 29  1  0  0  0
 29 37  1  0  0  0
 29 30  2  0  0  0
 37 38  1  0  0  0
 30 24  1  0  0  0
 30 31  1  0  0  0
 24  1  1  0  0  0
 24 25  1  0  0  0
  1  2  2  0  0  0
  1  5  1  0  0  0
  2  3  1  0  0  0
  3  4  2  0  0  0
  4  6  1  0  0  0
  4  5  1  0  0  0
  6  7  1  0  0  0
  6 11  2  0  0  0
  7  8  2  0  0  0
  8 12  1  0  0  0
  8  9  1  0  0  0
 12 13  1  0  0  0
 12 17  2  0  0  0
 13 14  2  0  0  0
 14 15  1  0  0  0
 15 16  2  0  0  0
 16 17  1  0  0  0
  9 10  2  0  0  0
 10 18  1  0  0  0
 10 11  1  0  0  0
 18 19  1  0  0  0
 18 23  2  0  0  0
 19 20  2  0  0  0
 20 21  1  0  0  0
 21 22  2  0  0  0
 22 23  1  0  0  0
M  END
> <minimizedAffinity>
-9.41299

$$$$
