CHEMBL230003


 41 46  0  0  0  0  0  0  0  0999 V2000
  -23.3484   -0.7836  -13.5350 C   0  0  0  0  0  0  0  0  0  0  0  0
  -24.3055   -1.0444  -14.5339 C   0  0  0  0  0  0  0  0  0  0  0  0
  -25.6065   -1.4400  -14.2157 C   0  0  0  0  0  0  0  0  0  0  0  0
  -25.8606   -1.5859  -12.8631 C   0  0  0  0  0  0  0  0  0  0  0  0
  -27.0448   -1.9182  -12.2822 O   0  0  0  0  0  0  0  0  0  0  0  0
  -26.7747   -1.8566  -10.9396 C   0  0  0  0  0  0  0  0  0  0  0  0
  -25.5199   -1.5870  -10.6442 N   0  0  0  0  0  0  0  0  0  0  0  0
  -24.9313   -1.3865  -11.8577 C   0  0  0  0  0  0  0  0  0  0  0  0
  -23.6283   -1.0001  -12.1822 C   0  0  0  0  0  0  0  0  0  0  0  0
  -27.8358   -2.0508  -10.1543 N   0  0  0  0  0  0  0  0  0  0  0  0
  -28.7325   -2.0964  -10.6221 H   0  0  0  0  0  0  0  0  0  0  0  0
  -27.9056   -1.8591   -8.7633 C   0  0  0  0  0  0  0  0  0  0  0  0
  -27.7536   -0.6253   -8.1262 C   0  0  0  0  0  0  0  0  0  0  0  0
  -27.7890   -0.5251   -6.7322 C   0  0  0  0  0  0  0  0  0  0  0  0
  -27.9579   -1.6710   -5.9523 C   0  0  0  0  0  0  0  0  0  0  0  0
  -27.9825   -1.4839   -4.2334 Cl  0  0  0  0  0  0  0  0  0  0  0  0
  -28.0986   -2.9253   -6.5584 C   0  0  0  0  0  0  0  0  0  0  0  0
  -28.0614   -2.9958   -7.9616 C   0  0  0  0  0  0  0  0  0  0  0  0
  -28.2495   -4.0332   -5.7530 O   0  0  0  0  0  0  0  0  0  0  0  0
  -29.0130   -5.0954   -6.3333 C   0  0  0  0  0  0  0  0  0  0  0  0
  -30.2388   -5.4793   -5.5020 C   0  0  0  0  0  0  0  0  0  0  0  0
  -31.0164   -4.2564   -5.0090 C   0  0  0  0  0  0  0  0  0  0  0  0
  -31.4967   -4.6225   -3.6071 C   0  0  0  0  0  0  0  0  0  0  0  0
  -31.0327   -6.0522   -3.3839 C   0  0  0  0  0  0  0  0  0  0  0  0
  -29.8536   -6.1482   -4.2419 N   0  0  0  0  0  0  0  0  0  0  0  0
  -29.4094   -7.5251   -4.4120 C   0  0  0  0  0  0  0  0  0  0  0  0
  -22.0871   -0.3190  -13.8420 O   0  0  0  0  0  0  0  0  0  0  0  0
  -18.2491    2.7239  -15.0853 C   0  0  0  0  0  0  0  0  0  0  0  0
  -19.4272    3.4793  -14.9463 C   0  0  0  0  0  0  0  0  0  0  0  0
  -20.6366    2.9162  -14.5788 C   0  0  0  0  0  0  0  0  0  0  0  0
  -21.6757    3.7286  -14.3537 N   0  0  0  0  0  0  0  0  0  0  0  0
  -22.8010    3.1617  -13.9086 C   0  0  0  0  0  0  0  0  0  0  0  0
  -22.9887    1.8621  -13.7010 N   0  0  0  0  0  0  0  0  0  0  0  0
  -21.9439    1.0608  -14.0022 C   0  0  0  0  0  0  0  0  0  0  0  0
  -20.7034    1.5331  -14.4298 C   0  0  0  0  0  0  0  0  0  0  0  0
  -19.5631    0.7447  -14.6965 C   0  0  0  0  0  0  0  0  0  0  0  0
  -18.3272    1.3287  -15.0053 C   0  0  0  0  0  0  0  0  0  0  0  0
  -16.6278    3.4305  -16.6673 C   0  0  0  0  0  0  0  0  0  0  0  0
  -17.0401    3.3369  -15.2986 O   0  0  0  0  0  0  0  0  0  0  0  0
  -17.3549    0.3826  -15.1553 O   0  0  0  0  0  0  0  0  0  0  0  0
  -16.4390    0.1138  -14.1074 C   0  0  0  0  0  0  0  0  0  0  0  0
 38 39  1  0  0  0
 39 28  1  0  0  0
 28 29  1  0  0  0
 28 37  2  0  0  0
 29 30  2  0  0  0
 30 31  1  0  0  0
 30 35  1  0  0  0
 31 32  2  0  0  0
 32 33  1  0  0  0
 33 34  2  0  0  0
 34 27  1  0  0  0
 34 35  1  0  0  0
 27  1  1  0  0  0
  1  2  1  0  0  0
  1  9  2  0  0  0
  2  3  2  0  0  0
  3  4  1  0  0  0
  4  5  1  0  0  0
  4  8  2  0  0  0
  5  6  1  0  0  0
  6 10  1  0  0  0
  6  7  2  0  0  0
 10 12  1  0  0  0
 10 11  1  0  0  0
 12 13  1  0  0  0
 12 18  2  0  0  0
 13 14  2  0  0  0
 14 15  1  0  0  0
 15 16  1  0  0  0
 15 17  2  0  0  0
 17 19  1  0  0  0
 17 18  1  0  0  0
 19 20  1  0  0  0
 21 22  1  0  0  0
 21 25  1  0  0  0
 21 20  1  0  0  0
 22 23  1  0  0  0
 23 24  1  0  0  0
 24 25  1  0  0  0
 25 26  1  0  0  0
  7  8  1  0  0  0
  8  9  1  0  0  0
 35 36  2  0  0  0
 36 37  1  0  0  0
 37 40  1  0  0  0
 40 41  1  0  0  0
M  END
> <minimizedAffinity>
-11.49463

$$$$
