CHEMBL3690375


 37 40  0  0  0  0  0  0  0  0999 V2000
  -22.8444    0.4334  -14.0109 C   0  0  0  0  0  0  0  0  0  0  0  0
  -21.6788   -0.2704  -14.5698 C   0  0  0  0  0  0  0  0  0  0  0  0
  -20.7026    0.4070  -15.1909 C   0  0  0  0  0  0  0  0  0  0  0  0
  -20.5789    1.7610  -14.9128 N   0  0  0  0  0  0  0  0  0  0  0  0
  -19.4588    2.5751  -14.9857 C   0  0  0  0  0  0  0  0  0  0  0  0
  -19.9163    3.7962  -14.5131 C   0  0  0  0  0  0  0  0  0  0  0  0
  -21.2125    3.7329  -14.0689 N   0  0  0  0  0  0  0  0  0  0  0  0
  -21.5692    2.4810  -14.2456 C   0  0  0  0  0  0  0  0  0  0  0  0
  -22.7562    1.7810  -13.8652 C   0  0  0  0  0  0  0  0  0  0  0  0
  -18.0773    2.1932  -15.3349 C   0  0  0  0  0  0  0  0  0  0  0  0
  -17.2547    3.1366  -15.9764 C   0  0  0  0  0  0  0  0  0  0  0  0
  -15.9153    2.8378  -16.1970 C   0  0  0  0  0  0  0  0  0  0  0  0
  -15.3504    1.6118  -15.8107 C   0  0  0  0  0  0  0  0  0  0  0  0
  -16.1379    0.6579  -15.1548 C   0  0  0  0  0  0  0  0  0  0  0  0
  -17.5032    0.9607  -14.9307 C   0  0  0  0  0  0  0  0  0  0  0  0
  -15.6111   -0.5597  -14.6674 N   0  0  0  0  0  0  0  0  0  0  0  0
  -15.2452   -0.8456  -13.3681 C   0  0  0  0  0  0  0  0  0  0  0  0
  -15.1999   -0.0722  -12.4213 O   0  0  0  0  0  0  0  0  0  0  0  0
  -14.9833   -2.1894  -13.1834 N   0  0  0  0  0  0  0  0  0  0  0  0
  -15.6001   -1.3327  -15.3138 H   0  0  0  0  0  0  0  0  0  0  0  0
  -14.5874   -2.6957  -13.9617 H   0  0  0  0  0  0  0  0  0  0  0  0
  -14.6216   -2.6478  -11.8342 C   0  0  0  0  0  0  0  0  0  0  0  0
  -15.7693   -3.2140  -10.9854 C   0  0  0  0  0  0  0  0  0  0  0  0
  -16.3102   -2.2775  -10.1722 F   0  0  0  0  0  0  0  0  0  0  0  0
  -16.7555   -3.7432  -11.7374 F   0  0  0  0  0  0  0  0  0  0  0  0
  -15.3005   -4.2027  -10.1822 F   0  0  0  0  0  0  0  0  0  0  0  0
  -25.8455   -1.1560  -12.7528 N   0  0  0  0  0  0  0  0  0  0  0  0
  -24.8353   -0.2388  -12.6146 C   0  0  0  0  0  0  0  0  0  0  0  0
  -24.0542   -0.3102  -13.7524 C   0  0  0  0  0  0  0  0  0  0  0  0
  -24.6795   -1.3171  -14.5185 C   0  0  0  0  0  0  0  0  0  0  0  0
  -25.7672   -1.8192  -13.9275 N   0  0  0  0  0  0  0  0  0  0  0  0
  -28.0345   -2.2798  -12.5439 C   0  0  0  0  0  0  0  0  0  0  0  0
  -26.9397   -1.4769  -11.8098 C   0  0  0  0  0  0  0  0  0  0  0  0
  -27.5582   -0.1657  -11.2793 C   0  0  0  0  0  0  0  0  0  0  0  0
  -26.4293   -2.3184  -10.6081 C   0  0  0  0  0  0  0  0  0  0  0  0
  -26.6858   -1.7156   -9.3402 O   0  0  0  0  0  0  0  0  0  0  0  0
  -26.0498   -0.9901   -9.2137 H   0  0  0  0  0  0  0  0  0  0  0  0
 32 33  1  0  0  0
 33 34  1  0  0  0
 33 35  1  0  0  0
 33 27  1  0  0  0
 35 36  1  0  0  0
 36 37  1  0  0  0
 27 28  1  0  0  0
 27 31  1  0  0  0
 28 29  2  0  0  0
 29  1  1  0  0  0
 29 30  1  0  0  0
  1  2  1  0  0  0
  1  9  2  0  0  0
  2  3  2  0  0  0
  3  4  1  0  0  0
  4  5  1  0  0  0
  4  8  1  0  0  0
  5 10  1  0  0  0
  5  6  2  0  0  0
 10 11  1  0  0  0
 10 15  2  0  0  0
 11 12  2  0  0  0
 12 13  1  0  0  0
 13 14  2  0  0  0
 14 16  1  0  0  0
 14 15  1  0  0  0
 16 17  1  0  0  0
 16 20  1  0  0  0
 17 18  2  0  0  0
 17 19  1  0  0  0
 19 22  1  0  0  0
 19 21  1  0  0  0
 22 23  1  0  0  0
 23 24  1  0  0  0
 23 25  1  0  0  0
 23 26  1  0  0  0
  6  7  1  0  0  0
  7  8  2  0  0  0
  8  9  1  0  0  0
 30 31  2  0  0  0
M  END
> <minimizedAffinity>
-9.90515

$$$$
