CHEMBL255955


 35 38  0  0  0  0  0  0  0  0999 V2000
  -28.8068   -4.5280   -6.1351 C   0  0  0  0  0  0  0  0  0  0  0  0
  -28.1144   -3.3541   -5.7974 C   0  0  0  0  0  0  0  0  0  0  0  0
  -27.8327   -2.3679   -6.7439 C   0  0  0  0  0  0  0  0  0  0  0  0
  -28.1883   -2.5388   -8.0778 C   0  0  0  0  0  0  0  0  0  0  0  0
  -28.9315   -3.6656   -8.4302 C   0  0  0  0  0  0  0  0  0  0  0  0
  -29.2560   -4.6324   -7.4612 C   0  0  0  0  0  0  0  0  0  0  0  0
  -31.6157   -3.5586   -4.4464 N   0  0  0  0  0  0  0  0  0  0  0  0
  -31.2390   -4.6977   -3.8353 C   0  0  0  0  0  0  0  0  0  0  0  0
  -31.9443   -5.1743   -2.8133 N   0  0  0  0  0  0  0  0  0  0  0  0
  -31.3224   -6.3238   -2.5141 N   0  0  0  0  0  0  0  0  0  0  0  0
  -30.2422   -6.5894   -3.3007 C   0  0  0  0  0  0  0  0  0  0  0  0
  -29.4812   -7.6972   -3.2115 N   0  0  0  0  0  0  0  0  0  0  0  0
  -28.4789   -7.7089   -4.1080 C   0  0  0  0  0  0  0  0  0  0  0  0
  -28.2176   -6.7047   -5.0283 C   0  0  0  0  0  0  0  0  0  0  0  0
  -29.0433   -5.5601   -5.1068 C   0  0  0  0  0  0  0  0  0  0  0  0
  -30.1213   -5.5192   -4.1838 C   0  0  0  0  0  0  0  0  0  0  0  0
  -32.5321   -3.2135   -4.1735 H   0  0  0  0  0  0  0  0  0  0  0  0
  -31.4461   -3.4605   -5.4410 H   0  0  0  0  0  0  0  0  0  0  0  0
  -31.6792   -6.9053   -1.7660 H   0  0  0  0  0  0  0  0  0  0  0  0
  -27.8372   -1.6000   -9.0747 N   0  0  0  0  0  0  0  0  0  0  0  0
  -27.0738   -1.9028  -10.1893 C   0  0  0  0  0  0  0  0  0  0  0  0
  -26.7521   -3.0357  -10.5321 O   0  0  0  0  0  0  0  0  0  0  0  0
  -26.6830   -0.7561  -10.8665 N   0  0  0  0  0  0  0  0  0  0  0  0
  -28.3978   -0.7630   -9.1425 H   0  0  0  0  0  0  0  0  0  0  0  0
  -26.5023    0.0353  -10.2654 H   0  0  0  0  0  0  0  0  0  0  0  0
  -25.9493   -0.8283  -12.0723 C   0  0  0  0  0  0  0  0  0  0  0  0
  -26.4384   -1.5194  -13.1870 C   0  0  0  0  0  0  0  0  0  0  0  0
  -25.6811   -1.6087  -14.3523 C   0  0  0  0  0  0  0  0  0  0  0  0
  -24.4196   -1.0194  -14.4071 C   0  0  0  0  0  0  0  0  0  0  0  0
  -23.9107   -0.3252  -13.2989 C   0  0  0  0  0  0  0  0  0  0  0  0
  -24.7011   -0.2071  -12.1407 C   0  0  0  0  0  0  0  0  0  0  0  0
  -22.5187    0.2535  -13.3165 C   0  0  0  0  0  0  0  0  0  0  0  0
  -21.8478    0.1046  -12.1411 F   0  0  0  0  0  0  0  0  0  0  0  0
  -21.7319   -0.3128  -14.2721 F   0  0  0  0  0  0  0  0  0  0  0  0
  -22.5191    1.5904  -13.5791 F   0  0  0  0  0  0  0  0  0  0  0  0
  7  8  1  0  0  0
  7 17  1  0  0  0
  7 18  1  0  0  0
  8  9  2  0  0  0
  8 16  1  0  0  0
  9 10  1  0  0  0
 10 11  1  0  0  0
 10 19  1  0  0  0
 11 12  1  0  0  0
 11 16  2  0  0  0
 12 13  2  0  0  0
 13 14  1  0  0  0
 14 15  2  0  0  0
 15  1  1  0  0  0
 15 16  1  0  0  0
  1  2  1  0  0  0
  1  6  2  0  0  0
  2  3  2  0  0  0
  3  4  1  0  0  0
  4 20  1  0  0  0
  4  5  2  0  0  0
 20 21  1  0  0  0
 20 24  1  0  0  0
 21 22  2  0  0  0
 21 23  1  0  0  0
 23 26  1  0  0  0
 23 25  1  0  0  0
 26 27  1  0  0  0
 26 31  2  0  0  0
 27 28  2  0  0  0
 28 29  1  0  0  0
 29 30  2  0  0  0
 30 32  1  0  0  0
 30 31  1  0  0  0
 32 33  1  0  0  0
 32 34  1  0  0  0
 32 35  1  0  0  0
  5  6  1  0  0  0
M  END
> <minimizedAffinity>
-10.34108

$$$$
