CHEMBL3928696


 27 30  0  0  0  0  0  0  0  0999 V2000
  -28.7780   -5.3591   -7.0596 C   0  0  0  0  0  0  0  0  0  0  0  0
  -28.5594   -4.3310   -7.9761 C   0  0  0  0  0  0  0  0  0  0  0  0
  -28.2567   -3.0165   -7.5510 C   0  0  0  0  0  0  0  0  0  0  0  0
  -28.0428   -1.9311   -8.4243 C   0  0  0  0  0  0  0  0  0  0  0  0
  -27.7707   -0.7004   -7.9542 N   0  0  0  0  0  0  0  0  0  0  0  0
  -27.7084   -0.5498   -6.6322 C   0  0  0  0  0  0  0  0  0  0  0  0
  -27.8936   -1.5110   -5.7219 N   0  0  0  0  0  0  0  0  0  0  0  0
  -28.1659   -2.7335   -6.1880 C   0  0  0  0  0  0  0  0  0  0  0  0
  -28.3561   -3.7655   -5.2809 C   0  0  0  0  0  0  0  0  0  0  0  0
  -28.6345   -5.0780   -5.6917 C   0  0  0  0  0  0  0  0  0  0  0  0
  -30.5738   -6.8924   -7.5230 C   0  0  0  0  0  0  0  0  0  0  0  0
  -29.1801   -6.6185   -7.4117 O   0  0  0  0  0  0  0  0  0  0  0  0
  -28.1075   -2.1496   -9.8266 N   0  0  0  0  0  0  0  0  0  0  0  0
  -29.0414   -1.9300  -10.1581 H   0  0  0  0  0  0  0  0  0  0  0  0
  -27.1291   -1.8364  -10.7980 C   0  0  0  0  0  0  0  0  0  0  0  0
  -25.7919   -1.5945  -10.4666 C   0  0  0  0  0  0  0  0  0  0  0  0
  -24.8507   -1.2713  -11.4450 C   0  0  0  0  0  0  0  0  0  0  0  0
  -25.2230   -1.2353  -12.7870 C   0  0  0  0  0  0  0  0  0  0  0  0
  -24.0218   -0.7882  -13.9424 Cl  0  0  0  0  0  0  0  0  0  0  0  0
  -26.5333   -1.5598  -13.1464 C   0  0  0  0  0  0  0  0  0  0  0  0
  -27.0596   -1.5911  -14.7929 Cl  0  0  0  0  0  0  0  0  0  0  0  0
  -27.4750   -1.8719  -12.1566 C   0  0  0  0  0  0  0  0  0  0  0  0
  -28.7756   -6.1260   -4.8096 O   0  0  0  0  0  0  0  0  0  0  0  0
  -29.5491   -5.8468   -3.6364 C   0  0  0  0  0  0  0  0  0  0  0  0
  -30.9878   -5.6796   -4.0191 C   0  0  0  0  0  0  0  0  0  0  0  0
  -31.6922   -4.3598   -3.8479 C   0  0  0  0  0  0  0  0  0  0  0  0
  -32.0463   -5.5166   -2.9546 C   0  0  0  0  0  0  0  0  0  0  0  0
 11 12  1  0  0  0
 12  1  1  0  0  0
  1  2  1  0  0  0
  1 10  2  0  0  0
  2  3  2  0  0  0
  3  4  1  0  0  0
  3  8  1  0  0  0
  4 13  1  0  0  0
  4  5  2  0  0  0
 13 15  1  0  0  0
 13 14  1  0  0  0
 15 16  1  0  0  0
 15 22  2  0  0  0
 16 17  2  0  0  0
 17 18  1  0  0  0
 18 19  1  0  0  0
 18 20  2  0  0  0
 20 21  1  0  0  0
 20 22  1  0  0  0
  5  6  1  0  0  0
  6  7  2  0  0  0
  7  8  1  0  0  0
  8  9  2  0  0  0
  9 10  1  0  0  0
 10 23  1  0  0  0
 23 24  1  0  0  0
 24 25  1  0  0  0
 25 26  1  0  0  0
 25 27  1  0  0  0
 26 27  1  0  0  0
M  END
> <minimizedAffinity>
-8.47768

$$$$
