CHEMBL1241583


 24 26  0  0  0  0  0  0  0  0999 V2000
  -29.1076   -9.6457   -9.1143 N   0  0  0  0  0  0  0  0  0  0  0  0
  -28.7243   -8.3962   -8.7853 N   0  0  0  0  0  0  0  0  0  0  0  0
  -29.6952   -7.9511   -7.9665 C   0  0  0  0  0  0  0  0  0  0  0  0
  -30.7419   -8.9134   -7.8319 C   0  0  0  0  0  0  0  0  0  0  0  0
  -31.9870   -9.0442   -7.1980 C   0  0  0  0  0  0  0  0  0  0  0  0
  -32.6170   -8.0566   -6.4527 N   0  0  0  0  0  0  0  0  0  0  0  0
  -32.6552  -10.2098   -7.3167 N   0  0  0  0  0  0  0  0  0  0  0  0
  -32.1084  -11.1944   -8.0512 C   0  0  0  0  0  0  0  0  0  0  0  0
  -30.9467  -11.1801   -8.7234 N   0  0  0  0  0  0  0  0  0  0  0  0
  -30.3097  -10.0059   -8.5752 C   0  0  0  0  0  0  0  0  0  0  0  0
  -32.4597   -7.1111   -6.7795 H   0  0  0  0  0  0  0  0  0  0  0  0
  -33.5857   -8.3014   -6.2828 H   0  0  0  0  0  0  0  0  0  0  0  0
  -29.5723   -6.6244   -7.3655 C   0  0  0  0  0  0  0  0  0  0  0  0
  -30.2181   -5.5090   -7.9065 C   0  0  0  0  0  0  0  0  0  0  0  0
  -30.0388   -4.2412   -7.3532 C   0  0  0  0  0  0  0  0  0  0  0  0
  -29.2692   -4.0870   -6.2034 C   0  0  0  0  0  0  0  0  0  0  0  0
  -28.6774   -5.2027   -5.5981 C   0  0  0  0  0  0  0  0  0  0  0  0
  -28.8103   -6.4606   -6.2012 C   0  0  0  0  0  0  0  0  0  0  0  0
  -27.8622   -5.0637   -4.3438 C   0  0  0  0  0  0  0  0  0  0  0  0
  -28.3655   -3.9042   -3.4995 C   0  0  0  0  0  0  0  0  0  0  0  0
  -28.7830   -2.9424   -2.7991 N   0  0  0  0  0  0  0  0  0  0  0  0
  -28.5876  -10.3080  -11.4361 C   0  0  0  0  0  0  0  0  0  0  0  0
  -28.2430  -10.4672   -9.9545 C   0  0  0  0  0  0  0  0  0  0  0  0
  -26.7677  -10.1546   -9.6987 C   0  0  0  0  0  0  0  0  0  0  0  0
 22 23  1  0  0  0
 23 24  1  0  0  0
 23  1  1  0  0  0
  1  2  1  0  0  0
  1 10  1  0  0  0
  2  3  2  0  0  0
  3 13  1  0  0  0
  3  4  1  0  0  0
 13 14  1  0  0  0
 13 18  2  0  0  0
 14 15  2  0  0  0
 15 16  1  0  0  0
 16 17  2  0  0  0
 17 19  1  0  0  0
 17 18  1  0  0  0
 19 20  1  0  0  0
 20 21  3  0  0  0
  4  5  1  0  0  0
  4 10  2  0  0  0
  5  6  1  0  0  0
  5  7  2  0  0  0
  6 11  1  0  0  0
  6 12  1  0  0  0
  7  8  1  0  0  0
  8  9  2  0  0  0
  9 10  1  0  0  0
M  END
> <minimizedAffinity>
-7.15489

$$$$
