CHEMBL1969151


 28 31  0  0  0  0  0  0  0  0999 V2000
  -25.6753   -1.5901  -11.2014 C   0  0  0  0  0  0  0  0  0  0  0  0
  -26.4627   -1.7228  -12.2692 N   0  0  0  0  0  0  0  0  0  0  0  0
  -27.7620   -1.9249  -12.0256 C   0  0  0  0  0  0  0  0  0  0  0  0
  -28.7199   -2.1227  -13.4369 Cl  0  0  0  0  0  0  0  0  0  0  0  0
  -28.3258   -1.9970  -10.7847 C   0  0  0  0  0  0  0  0  0  0  0  0
  -27.4464   -1.8145   -9.7466 C   0  0  0  0  0  0  0  0  0  0  0  0
  -26.1296   -1.5932   -9.9430 N   0  0  0  0  0  0  0  0  0  0  0  0
  -27.8963   -1.8778   -8.3587 C   0  0  0  0  0  0  0  0  0  0  0  0
  -27.7541   -0.8292   -7.4595 C   0  0  0  0  0  0  0  0  0  0  0  0
  -28.2943   -1.2144   -6.2599 N   0  0  0  0  0  0  0  0  0  0  0  0
  -28.7856   -2.4835   -6.3553 C   0  0  0  0  0  0  0  0  0  0  0  0
  -29.3882   -3.1330   -5.3443 N   0  0  0  0  0  0  0  0  0  0  0  0
  -29.7844   -4.3821   -5.6851 C   0  0  0  0  0  0  0  0  0  0  0  0
  -29.6105   -4.9709   -6.9295 C   0  0  0  0  0  0  0  0  0  0  0  0
  -28.9806   -4.2474   -7.9419 C   0  0  0  0  0  0  0  0  0  0  0  0
  -28.5455   -2.9414   -7.6479 C   0  0  0  0  0  0  0  0  0  0  0  0
  -28.3388   -0.6653   -5.4154 H   0  0  0  0  0  0  0  0  0  0  0  0
  -24.2963   -1.4664  -11.3699 N   0  0  0  0  0  0  0  0  0  0  0  0
  -23.9557   -1.0848  -10.4924 H   0  0  0  0  0  0  0  0  0  0  0  0
  -21.7931    1.0471  -13.8400 C   0  0  0  0  0  0  0  0  0  0  0  0
  -22.0217   -0.4182  -14.2508 C   0  0  0  0  0  0  0  0  0  0  0  0
  -22.5594   -1.2519  -13.0963 C   0  0  0  0  0  0  0  0  0  0  0  0
  -23.8702   -0.6781  -12.5304 C   0  0  0  0  0  0  0  0  0  0  0  0
  -23.6363    0.7759  -12.0867 C   0  0  0  0  0  0  0  0  0  0  0  0
  -23.0792    1.6409  -13.2231 C   0  0  0  0  0  0  0  0  0  0  0  0
  -21.4883    3.3267  -14.6681 C   0  0  0  0  0  0  0  0  0  0  0  0
  -21.2372    1.9037  -14.9123 N   0  0  0  0  0  0  0  0  0  0  0  0
  -19.8177    1.6920  -15.1949 C   0  0  0  0  0  0  0  0  0  0  0  0
 26 27  1  0  0  0
 27 28  1  0  0  0
 27 20  1  0  0  0
 20 21  1  0  0  0
 20 25  1  0  0  0
 21 22  1  0  0  0
 22 23  1  0  0  0
 23 18  1  0  0  0
 23 24  1  0  0  0
 18  1  1  0  0  0
 18 19  1  0  0  0
  1  2  1  0  0  0
  1  7  2  0  0  0
  2  3  2  0  0  0
  3  4  1  0  0  0
  3  5  1  0  0  0
  5  6  2  0  0  0
  6  8  1  0  0  0
  6  7  1  0  0  0
  8  9  2  0  0  0
  8 16  1  0  0  0
  9 10  1  0  0  0
 10 11  1  0  0  0
 10 17  1  0  0  0
 11 12  1  0  0  0
 11 16  2  0  0  0
 12 13  2  0  0  0
 13 14  1  0  0  0
 14 15  2  0  0  0
 15 16  1  0  0  0
 24 25  1  0  0  0
M  END
> <minimizedAffinity>
-8.60953

$$$$
