CHEMBL481968


 36 38  0  0  0  0  0  0  0  0999 V2000
  -23.9968   -1.2454  -13.1924 C   0  0  0  0  0  0  0  0  0  0  0  0
  -25.1915   -1.4428  -13.9026 C   0  0  0  0  0  0  0  0  0  0  0  0
  -26.3922   -1.7369  -13.2253 C   0  0  0  0  0  0  0  0  0  0  0  0
  -26.4144   -1.7637  -11.8067 C   0  0  0  0  0  0  0  0  0  0  0  0
  -25.1763   -1.6329  -11.1370 C   0  0  0  0  0  0  0  0  0  0  0  0
  -25.1088   -1.7645   -9.8021 F   0  0  0  0  0  0  0  0  0  0  0  0
  -23.9920   -1.3658  -11.8144 C   0  0  0  0  0  0  0  0  0  0  0  0
  -22.8551   -1.2044  -11.1228 F   0  0  0  0  0  0  0  0  0  0  0  0
  -27.6523   -1.9559  -13.9947 C   0  0  0  0  0  0  0  0  0  0  0  0
  -28.5179   -2.7258  -13.6074 O   0  0  0  0  0  0  0  0  0  0  0  0
  -27.7603   -1.2895  -15.1634 O   0  0  0  0  0  0  0  0  0  0  0  0
  -26.9980   -0.7761  -15.4872 H   0  0  0  0  0  0  0  0  0  0  0  0
  -22.2615    0.2947  -13.7436 N   0  0  0  0  0  0  0  0  0  0  0  0
  -22.7468   -0.8905  -13.8995 C   0  0  0  0  0  0  0  0  0  0  0  0
  -21.3336    2.8101  -13.7168 O   0  0  0  0  0  0  0  0  0  0  0  0
  -20.6768    1.9490  -14.3076 C   0  0  0  0  0  0  0  0  0  0  0  0
  -21.0948    0.6185  -14.3697 N   0  0  0  0  0  0  0  0  0  0  0  0
  -20.5144   -0.0823  -14.8172 H   0  0  0  0  0  0  0  0  0  0  0  0
  -19.4233    2.2681  -14.9573 C   0  0  0  0  0  0  0  0  0  0  0  0
  -19.0622    3.4416  -15.5948 C   0  0  0  0  0  0  0  0  0  0  0  0
  -17.7669    3.2522  -16.1118 C   0  0  0  0  0  0  0  0  0  0  0  0
  -17.3984    1.9691  -15.7692 C   0  0  0  0  0  0  0  0  0  0  0  0
  -18.3993    1.3578  -15.0575 O   0  0  0  0  0  0  0  0  0  0  0  0
  -16.1751    1.1847  -16.0555 C   0  0  0  0  0  0  0  0  0  0  0  0
  -16.0772    0.1658  -15.0694 O   0  0  0  0  0  0  0  0  0  0  0  0
  -16.0949    0.6122  -14.2057 H   0  0  0  0  0  0  0  0  0  0  0  0
  -27.6177   -1.9587  -11.0718 N   0  0  0  0  0  0  0  0  0  0  0  0
  -28.4725   -1.7565  -11.6104 H   0  0  0  0  0  0  0  0  0  0  0  0
  -27.8302   -1.7385   -9.6870 C   0  0  0  0  0  0  0  0  0  0  0  0
  -28.0799   -0.4590   -9.1711 C   0  0  0  0  0  0  0  0  0  0  0  0
  -28.1808   -0.2448   -7.7931 C   0  0  0  0  0  0  0  0  0  0  0  0
  -28.0638   -1.3198   -6.9144 C   0  0  0  0  0  0  0  0  0  0  0  0
  -28.1146   -0.9805   -4.8653 I   0  0  0  0  0  0  0  0  0  0  0  0
  -27.8972   -2.6118   -7.4056 C   0  0  0  0  0  0  0  0  0  0  0  0
  -27.7972   -2.8110   -8.7830 C   0  0  0  0  0  0  0  0  0  0  0  0
  -27.6192   -4.0624   -9.2353 F   0  0  0  0  0  0  0  0  0  0  0  0
 15 16  2  0  0  0
 16 17  1  0  0  0
 16 19  1  0  0  0
 17 13  1  0  0  0
 17 18  1  0  0  0
 13 14  2  0  0  0
 14  1  1  0  0  0
  1  2  1  0  0  0
  1  7  2  0  0  0
  2  3  2  0  0  0
  3  9  1  0  0  0
  3  4  1  0  0  0
  9 10  2  0  0  0
  9 11  1  0  0  0
 11 12  1  0  0  0
  4 27  1  0  0  0
  4  5  2  0  0  0
 27 29  1  0  0  0
 27 28  1  0  0  0
 29 30  1  0  0  0
 29 35  2  0  0  0
 30 31  2  0  0  0
 31 32  1  0  0  0
 32 33  1  0  0  0
 32 34  2  0  0  0
 34 35  1  0  0  0
 35 36  1  0  0  0
  5  6  1  0  0  0
  5  7  1  0  0  0
  7  8  1  0  0  0
 19 20  2  0  0  0
 19 23  1  0  0  0
 20 21  1  0  0  0
 21 22  2  0  0  0
 22 24  1  0  0  0
 22 23  1  0  0  0
 24 25  1  0  0  0
 25 26  1  0  0  0
M  END
> <minimizedAffinity>
-8.57178

$$$$
