CHEMBL2113193


 37 40  0  0  0  0  0  0  0  0999 V2000
  -12.1696   -3.4422  -12.0914 C   0  0  0  0  0  0  0  0  0  0  0  0
  -12.4901   -2.4683  -13.0345 C   0  0  0  0  0  0  0  0  0  0  0  0
  -12.5866   -2.7825  -14.4048 C   0  0  0  0  0  0  0  0  0  0  0  0
  -12.8510   -1.8375  -15.4023 C   0  0  0  0  0  0  0  0  0  0  0  0
  -13.0050   -2.1895  -16.6918 N   0  0  0  0  0  0  0  0  0  0  0  0
  -12.8693   -3.4858  -16.9825 C   0  0  0  0  0  0  0  0  0  0  0  0
  -12.5847   -4.4605  -16.1147 N   0  0  0  0  0  0  0  0  0  0  0  0
  -12.4501   -4.1047  -14.8347 C   0  0  0  0  0  0  0  0  0  0  0  0
  -12.1997   -5.0832  -13.8788 C   0  0  0  0  0  0  0  0  0  0  0  0
  -12.0903   -4.7815  -12.5126 C   0  0  0  0  0  0  0  0  0  0  0  0
  -12.9231   -3.4688   -9.8064 C   0  0  0  0  0  0  0  0  0  0  0  0
  -11.9345   -3.1419  -10.7788 O   0  0  0  0  0  0  0  0  0  0  0  0
  -12.9640   -0.4606  -15.0588 N   0  0  0  0  0  0  0  0  0  0  0  0
  -12.4833    0.1142  -15.7568 H   0  0  0  0  0  0  0  0  0  0  0  0
  -14.1963    0.0823  -14.7168 C   0  0  0  0  0  0  0  0  0  0  0  0
  -14.7061    0.0491  -13.4821 C   0  0  0  0  0  0  0  0  0  0  0  0
  -16.0585    0.4968  -13.1568 C   0  0  0  0  0  0  0  0  0  0  0  0
  -16.4852    0.2869  -12.0288 O   0  0  0  0  0  0  0  0  0  0  0  0
  -16.8370    1.1961  -14.2229 C   0  0  0  0  0  0  0  0  0  0  0  0
  -16.3140    1.2819  -15.4537 C   0  0  0  0  0  0  0  0  0  0  0  0
  -14.9892    0.7295  -15.8062 C   0  0  0  0  0  0  0  0  0  0  0  0
  -14.5479    0.8066  -16.9475 O   0  0  0  0  0  0  0  0  0  0  0  0
  -18.0918    1.7505  -13.9932 O   0  0  0  0  0  0  0  0  0  0  0  0
  -19.0293    1.8319  -15.0856 C   0  0  0  0  0  0  0  0  0  0  0  0
  -19.8691    0.5632  -15.2363 C   0  0  0  0  0  0  0  0  0  0  0  0
  -21.1910    0.8844  -15.1493 F   0  0  0  0  0  0  0  0  0  0  0  0
  -19.9506    3.0160  -14.8191 C   0  0  0  0  0  0  0  0  0  0  0  0
  -19.4998    4.1045  -15.4994 F   0  0  0  0  0  0  0  0  0  0  0  0
  -11.9236   -5.8966  -11.7171 O   0  0  0  0  0  0  0  0  0  0  0  0
  -12.8791   -6.9320  -11.9378 C   0  0  0  0  0  0  0  0  0  0  0  0
  -14.2401   -6.6118  -11.3149 C   0  0  0  0  0  0  0  0  0  0  0  0
  -15.2544   -6.5576  -12.4690 C   0  0  0  0  0  0  0  0  0  0  0  0
  -16.4235   -5.6861  -12.2944 N   0  0  0  0  0  0  0  0  0  0  0  0
  -16.8396   -4.9994  -13.5263 C   0  0  0  0  0  0  0  0  0  0  0  0
  -16.0465   -3.7085  -13.5619 C   0  0  0  0  0  0  0  0  0  0  0  0
  -16.0117   -3.2974  -12.1059 C   0  0  0  0  0  0  0  0  0  0  0  0
  -16.0888   -4.6085  -11.3310 C   0  0  0  0  0  0  0  0  0  0  0  0
 11 12  1  0  0  0
 12  1  1  0  0  0
  1  2  1  0  0  0
  1 10  2  0  0  0
  2  3  2  0  0  0
  3  4  1  0  0  0
  3  8  1  0  0  0
  4 13  1  0  0  0
  4  5  2  0  0  0
 13 15  1  0  0  0
 13 14  1  0  0  0
 15 16  2  0  0  0
 15 21  1  0  0  0
 16 17  1  0  0  0
 17 18  2  0  0  0
 17 19  1  0  0  0
 19 23  1  0  0  0
 19 20  2  0  0  0
 23 24  1  0  0  0
 24 25  1  0  0  0
 24 27  1  0  0  0
 25 26  1  0  0  0
 27 28  1  0  0  0
 20 21  1  0  0  0
 21 22  2  0  0  0
  5  6  1  0  0  0
  6  7  2  0  0  0
  7  8  1  0  0  0
  8  9  2  0  0  0
  9 10  1  0  0  0
 10 29  1  0  0  0
 29 30  1  0  0  0
 30 31  1  0  0  0
 31 32  1  0  0  0
 32 33  1  0  0  0
 33 34  1  0  0  0
 33 37  1  0  0  0
 34 35  1  0  0  0
 35 36  1  0  0  0
 36 37  1  0  0  0
M  END
> <minimizedAffinity>
-6.73284

$$$$
