CHEMBL3975954


 33 37  0  0  0  0  0  0  0  0999 V2000
  -23.8651   -0.6197  -13.8272 N   0  0  0  0  0  0  0  0  0  0  0  0
  -24.6908   -0.8291  -12.6474 C   0  0  0  0  0  0  0  0  0  0  0  0
  -24.4791   -1.9881  -11.9480 C   0  0  0  0  0  0  0  0  0  0  0  0
  -25.2692   -2.1946  -10.8622 C   0  0  0  0  0  0  0  0  0  0  0  0
  -26.3312   -1.4157  -10.4734 C   0  0  0  0  0  0  0  0  0  0  0  0
  -27.1146   -2.3365  -10.1301 N   0  0  0  0  0  0  0  0  0  0  0  0
  -27.1141   -2.5653   -8.8600 C   0  0  0  0  0  0  0  0  0  0  0  0
  -28.0010   -1.8798   -8.2141 C   0  0  0  0  0  0  0  0  0  0  0  0
  -27.9878   -0.6224   -9.3557 N   0  0  0  0  0  0  0  0  0  0  0  0
  -26.9420   -0.3139  -10.7607 C   0  0  0  0  0  0  0  0  0  0  0  0
  -25.8810   -0.0208  -12.1657 C   0  0  0  0  0  0  0  0  0  0  0  0
  -28.4332   -3.4848   -7.3575 C   0  0  0  0  0  0  0  0  0  0  0  0
  -28.6967   -5.0058   -7.5165 C   0  0  0  0  0  0  0  0  0  0  0  0
  -28.9387   -5.8015   -6.4156 N   0  0  0  0  0  0  0  0  0  0  0  0
  -28.8607   -4.9946   -5.3496 N   0  0  0  0  0  0  0  0  0  0  0  0
  -28.9301   -5.5574   -3.9430 C   0  0  0  0  0  0  0  0  0  0  0  0
  -28.6278   -3.6319   -5.8577 C   0  0  0  0  0  0  0  0  0  0  0  0
  -20.4266    0.7303  -14.5983 C   0  0  0  0  0  0  0  0  0  0  0  0
  -20.6636    2.0565  -14.6012 C   0  0  0  0  0  0  0  0  0  0  0  0
  -21.8644    2.5225  -14.0943 C   0  0  0  0  0  0  0  0  0  0  0  0
  -22.8928    1.6408  -13.7486 C   0  0  0  0  0  0  0  0  0  0  0  0
  -22.7460    0.2807  -13.8790 C   0  0  0  0  0  0  0  0  0  0  0  0
  -21.3887   -0.0694  -13.9497 C   0  0  0  0  0  0  0  0  0  0  0  0
  -18.1284    0.4752  -15.2012 C   0  0  0  0  0  0  0  0  0  0  0  0
  -19.4982    0.2313  -15.4844 O   0  0  0  0  0  0  0  0  0  0  0  0
  -22.1258    3.8460  -13.9248 O   0  0  0  0  0  0  0  0  0  0  0  0
  -23.1487    4.1120  -12.9728 C   0  0  0  0  0  0  0  0  0  0  0  0
  -24.5602   -1.0468  -15.1229 C   0  0  0  0  0  0  0  0  0  0  0  0
  -26.0235   -1.4573  -15.0849 C   0  0  0  0  0  0  0  0  0  0  0  0
  -26.6524   -2.4165  -14.3065 C   0  0  0  0  0  0  0  0  0  0  0  0
  -27.9975   -2.0007  -14.1814 C   0  0  0  0  0  0  0  0  0  0  0  0
  -28.1900   -1.1956  -15.2579 C   0  0  0  0  0  0  0  0  0  0  0  0
  -26.9969   -0.7697  -15.7713 O   0  0  0  0  0  0  0  0  0  0  0  0
 24 25  1  0  0  0
 25 18  1  0  0  0
 18 19  1  0  0  0
 18 23  2  0  0  0
 19 20  2  0  0  0
 20 26  1  0  0  0
 20 21  1  0  0  0
 26 27  1  0  0  0
 21 22  2  0  0  0
 22  1  1  0  0  0
 22 23  1  0  0  0
  1 28  1  0  0  0
  1  2  1  0  0  0
 28 29  1  0  0  0
 29 30  2  0  0  0
 29 33  1  0  0  0
 30 31  1  0  0  0
 31 32  2  0  0  0
 32 33  1  0  0  0
  2  3  1  0  0  0
  2 11  2  0  0  0
  3  4  2  0  0  0
  4  5  1  0  0  0
  5  6  1  0  0  0
  5 10  2  0  0  0
  6  7  2  0  0  0
  7  8  1  0  0  0
  8 12  1  0  0  0
  8  9  2  0  0  0
 12 13  1  0  0  0
 12 17  2  0  0  0
 13 14  2  0  0  0
 14 15  1  0  0  0
 15 16  1  0  0  0
 15 17  1  0  0  0
  9 10  1  0  0  0
 10 11  1  0  0  0
M  END
> <minimizedAffinity>
-2.18564

$$$$
