CHEMBL3921689


 35 39  0  0  0  0  0  0  0  0999 V2000
  -14.6087    0.9544  -13.5670 C   0  0  0  0  0  0  0  0  0  0  0  0
  -15.4309    1.8613  -14.2333 C   0  0  0  0  0  0  0  0  0  0  0  0
  -15.0895    2.3573  -15.5067 C   0  0  0  0  0  0  0  0  0  0  0  0
  -15.8555    3.2930  -16.2150 C   0  0  0  0  0  0  0  0  0  0  0  0
  -15.5189    3.6959  -17.4534 N   0  0  0  0  0  0  0  0  0  0  0  0
  -14.4016    3.1799  -17.9687 C   0  0  0  0  0  0  0  0  0  0  0  0
  -13.5833    2.3011  -17.3739 N   0  0  0  0  0  0  0  0  0  0  0  0
  -13.9333    1.8970  -16.1452 C   0  0  0  0  0  0  0  0  0  0  0  0
  -13.1161    0.9955  -15.4727 C   0  0  0  0  0  0  0  0  0  0  0  0
  -13.4157    0.5383  -14.1818 C   0  0  0  0  0  0  0  0  0  0  0  0
  -16.1878   -0.1876  -12.1978 C   0  0  0  0  0  0  0  0  0  0  0  0
  -14.9086    0.4296  -12.3340 O   0  0  0  0  0  0  0  0  0  0  0  0
  -17.0138    3.8580  -15.6043 N   0  0  0  0  0  0  0  0  0  0  0  0
  -17.1935    4.7664  -16.0263 H   0  0  0  0  0  0  0  0  0  0  0  0
  -18.1975    3.1221  -15.3773 C   0  0  0  0  0  0  0  0  0  0  0  0
  -19.3127    3.7555  -14.8136 C   0  0  0  0  0  0  0  0  0  0  0  0
  -20.4351    3.0247  -14.4328 C   0  0  0  0  0  0  0  0  0  0  0  0
  -20.4632    1.6443  -14.6305 C   0  0  0  0  0  0  0  0  0  0  0  0
  -21.9694    0.7017  -13.9631 Br  0  0  0  0  0  0  0  0  0  0  0  0
  -19.3894    1.0113  -15.2677 C   0  0  0  0  0  0  0  0  0  0  0  0
  -19.3646   -0.6896  -15.5768 Cl  0  0  0  0  0  0  0  0  0  0  0  0
  -18.2652    1.7534  -15.6534 C   0  0  0  0  0  0  0  0  0  0  0  0
  -12.5711   -0.2396  -13.4311 O   0  0  0  0  0  0  0  0  0  0  0  0
  -12.3757   -1.6128  -13.8082 C   0  0  0  0  0  0  0  0  0  0  0  0
  -11.6824   -2.4118  -12.7052 C   0  0  0  0  0  0  0  0  0  0  0  0
  -12.6927   -2.7978  -11.7564 O   0  0  0  0  0  0  0  0  0  0  0  0
  -13.9146   -2.9459  -12.4900 C   0  0  0  0  0  0  0  0  0  0  0  0
  -14.1408   -4.4210  -12.8138 C   0  0  0  0  0  0  0  0  0  0  0  0
  -14.6455   -4.3438  -14.2410 C   0  0  0  0  0  0  0  0  0  0  0  0
  -13.8626   -3.2985  -14.8410 O   0  0  0  0  0  0  0  0  0  0  0  0
  -13.7538   -2.2643  -13.8445 C   0  0  0  0  0  0  0  0  0  0  0  0
  -15.0776   -5.0545  -11.9534 O   0  0  0  0  0  0  0  0  0  0  0  0
  -16.3715   -4.4823  -12.0793 C   0  0  0  0  0  0  0  0  0  0  0  0
  -17.2646   -5.4983  -12.0143 F   0  0  0  0  0  0  0  0  0  0  0  0
  -16.6002   -3.6858  -11.0099 F   0  0  0  0  0  0  0  0  0  0  0  0
 11 12  1  0  0  0
 12  1  1  0  0  0
  1  2  1  0  0  0
  1 10  2  0  0  0
  2  3  2  0  0  0
  3  4  1  0  0  0
  3  8  1  0  0  0
  4 13  1  0  0  0
  4  5  2  0  0  0
 13 15  1  0  0  0
 13 14  1  0  0  0
 15 16  1  0  0  0
 15 22  2  0  0  0
 16 17  2  0  0  0
 17 18  1  0  0  0
 18 19  1  0  0  0
 18 20  2  0  0  0
 20 21  1  0  0  0
 20 22  1  0  0  0
  5  6  1  0  0  0
  6  7  2  0  0  0
  7  8  1  0  0  0
  8  9  2  0  0  0
  9 10  1  0  0  0
 10 23  1  0  0  0
 24 25  1  0  0  0
 24 31  1  0  0  0
 24 23  1  0  0  0
 25 26  1  0  0  0
 26 27  1  0  0  0
 27 28  1  0  0  0
 27 31  1  0  0  0
 28 32  1  0  0  0
 28 29  1  0  0  0
 32 33  1  0  0  0
 33 34  1  0  0  0
 33 35  1  0  0  0
 29 30  1  0  0  0
 30 31  1  0  0  0
M  END
> <minimizedAffinity>
-8.08461

$$$$
