CHEMBL3969405


 37 40  0  0  0  0  0  0  0  0999 V2000
  -12.8814   -4.7193  -13.1251 N   0  0  0  0  0  0  0  0  0  0  0  0
  -13.4313   -3.4645  -13.5907 C   0  0  0  0  0  0  0  0  0  0  0  0
  -12.5176   -2.4216  -13.6152 C   0  0  0  0  0  0  0  0  0  0  0  0
  -12.9184   -1.1417  -13.3136 C   0  0  0  0  0  0  0  0  0  0  0  0
  -14.2296   -0.7968  -13.3318 C   0  0  0  0  0  0  0  0  0  0  0  0
  -14.4363    0.4450  -12.8968 N   0  0  0  0  0  0  0  0  0  0  0  0
  -15.5850    0.9963  -13.2583 C   0  0  0  0  0  0  0  0  0  0  0  0
  -16.4762    0.3417  -14.0811 C   0  0  0  0  0  0  0  0  0  0  0  0
  -16.3502   -1.0143  -14.3513 N   0  0  0  0  0  0  0  0  0  0  0  0
  -15.1853   -1.6555  -13.8996 C   0  0  0  0  0  0  0  0  0  0  0  0
  -14.7664   -3.0775  -13.8988 C   0  0  0  0  0  0  0  0  0  0  0  0
  -17.3813    1.2326  -14.8017 C   0  0  0  0  0  0  0  0  0  0  0  0
  -17.0880    2.2712  -15.7274 C   0  0  0  0  0  0  0  0  0  0  0  0
  -18.1347    3.0769  -15.9581 N   0  0  0  0  0  0  0  0  0  0  0  0
  -19.0948    2.5712  -15.1665 N   0  0  0  0  0  0  0  0  0  0  0  0
  -20.4755    2.9583  -15.3344 C   0  0  0  0  0  0  0  0  0  0  0  0
  -18.6346    1.5943  -14.3301 C   0  0  0  0  0  0  0  0  0  0  0  0
  -13.7522   -7.5957  -15.3870 C   0  0  0  0  0  0  0  0  0  0  0  0
  -13.6429   -8.6955  -14.5365 C   0  0  0  0  0  0  0  0  0  0  0  0
  -13.2242   -8.4992  -13.2280 C   0  0  0  0  0  0  0  0  0  0  0  0
  -12.9880   -7.1923  -12.7621 C   0  0  0  0  0  0  0  0  0  0  0  0
  -13.1318   -6.0454  -13.5775 C   0  0  0  0  0  0  0  0  0  0  0  0
  -13.4756   -6.2967  -14.9143 C   0  0  0  0  0  0  0  0  0  0  0  0
  -13.5071   -6.7127  -17.5845 C   0  0  0  0  0  0  0  0  0  0  0  0
  -14.0974   -7.6750  -16.7142 O   0  0  0  0  0  0  0  0  0  0  0  0
  -13.0224   -9.4960  -12.3071 O   0  0  0  0  0  0  0  0  0  0  0  0
  -11.6729   -9.9066  -12.0918 C   0  0  0  0  0  0  0  0  0  0  0  0
  -12.4252   -4.5549  -11.6643 C   0  0  0  0  0  0  0  0  0  0  0  0
  -13.4973   -4.2131  -10.5903 C   0  0  0  0  0  0  0  0  0  0  0  0
  -12.8216   -4.1310   -9.1912 C   0  0  0  0  0  0  0  0  0  0  0  0
  -11.4726   -4.0661   -9.2669 F   0  0  0  0  0  0  0  0  0  0  0  0
  -13.2260   -3.0025   -8.5515 F   0  0  0  0  0  0  0  0  0  0  0  0
  -13.1307   -5.1484   -8.3594 F   0  0  0  0  0  0  0  0  0  0  0  0
  -14.7364   -4.9875  -10.6010 O   0  0  0  0  0  0  0  0  0  0  0  0
  -15.9193   -4.3810  -10.8856 C   0  0  0  0  0  0  0  0  0  0  0  0
  -15.8662   -2.9145  -10.5595 C   0  0  0  0  0  0  0  0  0  0  0  0
  -16.8927   -4.9521  -11.3549 O   0  0  0  0  0  0  0  0  0  0  0  0
 24 25  1  0  0  0
 25 18  1  0  0  0
 18 19  1  0  0  0
 18 23  2  0  0  0
 19 20  2  0  0  0
 20 26  1  0  0  0
 20 21  1  0  0  0
 26 27  1  0  0  0
 21 22  2  0  0  0
 22  1  1  0  0  0
 22 23  1  0  0  0
  1 28  1  0  0  0
  1  2  1  0  0  0
 28 29  1  0  0  0
 29 34  1  0  0  0
 29 30  1  0  0  0
 34 35  1  0  0  0
 35 36  1  0  0  0
 35 37  2  0  0  0
 30 31  1  0  0  0
 30 32  1  0  0  0
 30 33  1  0  0  0
  2  3  1  0  0  0
  2 11  2  0  0  0
  3  4  2  0  0  0
  4  5  1  0  0  0
  5  6  1  0  0  0
  5 10  2  0  0  0
  6  7  2  0  0  0
  7  8  1  0  0  0
  8 12  1  0  0  0
  8  9  2  0  0  0
 12 13  1  0  0  0
 12 17  2  0  0  0
 13 14  2  0  0  0
 14 15  1  0  0  0
 15 16  1  0  0  0
 15 17  1  0  0  0
  9 10  1  0  0  0
 10 11  1  0  0  0
M  END
> <minimizedAffinity>
-7.43098

$$$$
