CHEMBL4436951


 38 42  0  0  0  0  0  0  0  0999 V2000
  -25.4743   -1.3612  -12.3586 C   0  0  0  0  0  0  0  0  0  0  0  0
  -26.8222   -1.5919  -12.6577 C   0  0  0  0  0  0  0  0  0  0  0  0
  -27.7596   -1.8385  -11.6463 C   0  0  0  0  0  0  0  0  0  0  0  0
  -27.3610   -1.8992  -10.3119 C   0  0  0  0  0  0  0  0  0  0  0  0
  -26.0095   -1.6637  -10.0185 C   0  0  0  0  0  0  0  0  0  0  0  0
  -25.0710   -1.4181  -11.0258 C   0  0  0  0  0  0  0  0  0  0  0  0
  -23.8074    0.9917  -12.4801 O   0  0  0  0  0  0  0  0  0  0  0  0
  -23.7064    0.1015  -13.3126 C   0  0  0  0  0  0  0  0  0  0  0  0
  -24.4906   -1.0388  -13.3244 N   0  0  0  0  0  0  0  0  0  0  0  0
  -22.7627    0.0928  -14.3324 N   0  0  0  0  0  0  0  0  0  0  0  0
  -24.2207   -1.7834  -13.9486 H   0  0  0  0  0  0  0  0  0  0  0  0
  -22.8514   -0.6256  -15.0342 H   0  0  0  0  0  0  0  0  0  0  0  0
  -21.7254    1.0420  -14.5047 C   0  0  0  0  0  0  0  0  0  0  0  0
  -21.9168    2.4184  -14.4225 C   0  0  0  0  0  0  0  0  0  0  0  0
  -20.8587    3.3054  -14.6171 C   0  0  0  0  0  0  0  0  0  0  0  0
  -19.5714    2.8327  -14.8666 C   0  0  0  0  0  0  0  0  0  0  0  0
  -18.3574    4.0286  -15.1256 Cl  0  0  0  0  0  0  0  0  0  0  0  0
  -19.3291    1.4565  -14.9015 C   0  0  0  0  0  0  0  0  0  0  0  0
  -20.4276    0.5698  -14.7451 C   0  0  0  0  0  0  0  0  0  0  0  0
  -17.9611    0.8464  -15.0587 C   0  0  0  0  0  0  0  0  0  0  0  0
  -17.2221    1.2661  -16.1168 F   0  0  0  0  0  0  0  0  0  0  0  0
  -17.1842    1.0882  -13.9613 F   0  0  0  0  0  0  0  0  0  0  0  0
  -18.0184   -0.5120  -15.1645 F   0  0  0  0  0  0  0  0  0  0  0  0
  -28.3127   -2.1031   -9.2901 N   0  0  0  0  0  0  0  0  0  0  0  0
  -28.8066   -2.9835   -9.3714 H   0  0  0  0  0  0  0  0  0  0  0  0
  -28.1194   -1.7821   -7.9314 C   0  0  0  0  0  0  0  0  0  0  0  0
  -27.8060   -0.5052   -7.5984 N   0  0  0  0  0  0  0  0  0  0  0  0
  -27.6412   -0.1792   -6.3131 C   0  0  0  0  0  0  0  0  0  0  0  0
  -27.7635   -0.9808   -5.2584 N   0  0  0  0  0  0  0  0  0  0  0  0
  -28.0705   -2.2410   -5.6077 C   0  0  0  0  0  0  0  0  0  0  0  0
  -28.3041   -3.4176   -4.3981 S   0  0  0  0  0  0  0  0  0  0  0  0
  -28.6279   -4.6176   -5.5509 C   0  0  0  0  0  0  0  0  0  0  0  0
  -28.5515   -4.1451   -6.8493 C   0  0  0  0  0  0  0  0  0  0  0  0
  -28.2426   -2.7344   -6.8964 C   0  0  0  0  0  0  0  0  0  0  0  0
  -28.8255   -5.0891   -7.9827 C   0  0  0  0  0  0  0  0  0  0  0  0
  -28.7120   -6.5420   -7.4871 C   0  0  0  0  0  0  0  0  0  0  0  0
  -29.4807   -6.7262   -6.2883 O   0  0  0  0  0  0  0  0  0  0  0  0
  -28.9185   -6.0312   -5.1583 C   0  0  0  0  0  0  0  0  0  0  0  0
  7  8  2  0  0  0
  8  9  1  0  0  0
  8 10  1  0  0  0
  9  1  1  0  0  0
  9 11  1  0  0  0
  1  2  1  0  0  0
  1  6  2  0  0  0
  2  3  2  0  0  0
  3  4  1  0  0  0
  4 24  1  0  0  0
  4  5  2  0  0  0
 24 26  1  0  0  0
 24 25  1  0  0  0
 26 27  1  0  0  0
 26 34  2  0  0  0
 27 28  2  0  0  0
 28 29  1  0  0  0
 29 30  2  0  0  0
 30 31  1  0  0  0
 30 34  1  0  0  0
 31 32  1  0  0  0
 32 33  2  0  0  0
 32 38  1  0  0  0
 33 34  1  0  0  0
 33 35  1  0  0  0
 35 36  1  0  0  0
 36 37  1  0  0  0
 37 38  1  0  0  0
  5  6  1  0  0  0
 10 13  1  0  0  0
 10 12  1  0  0  0
 13 14  1  0  0  0
 13 19  2  0  0  0
 14 15  2  0  0  0
 15 16  1  0  0  0
 16 17  1  0  0  0
 16 18  2  0  0  0
 18 20  1  0  0  0
 18 19  1  0  0  0
 20 21  1  0  0  0
 20 22  1  0  0  0
 20 23  1  0  0  0
M  END
> <minimizedAffinity>
-11.20603

$$$$
