CHEMBL1242295


 27 31  0  0  0  0  0  0  0  0999 V2000
  -27.1552   -5.0138   -3.9339 N   0  0  0  0  0  0  0  0  0  0  0  0
  -27.8809   -6.0506   -4.5054 C   0  0  0  0  0  0  0  0  0  0  0  0
  -27.6860   -7.2663   -3.9534 N   0  0  0  0  0  0  0  0  0  0  0  0
  -28.3815   -8.3135   -4.4310 C   0  0  0  0  0  0  0  0  0  0  0  0
  -29.2937   -8.3151   -5.4142 N   0  0  0  0  0  0  0  0  0  0  0  0
  -29.4493   -7.0890   -5.9446 C   0  0  0  0  0  0  0  0  0  0  0  0
  -28.7877   -5.9245   -5.5710 C   0  0  0  0  0  0  0  0  0  0  0  0
  -29.2775   -4.9247   -6.4722 C   0  0  0  0  0  0  0  0  0  0  0  0
  -30.2294   -5.4313   -7.2826 N   0  0  0  0  0  0  0  0  0  0  0  0
  -30.2894   -6.7397   -6.9650 N   0  0  0  0  0  0  0  0  0  0  0  0
  -26.7471   -5.3123   -3.0555 H   0  0  0  0  0  0  0  0  0  0  0  0
  -27.6382   -4.1231   -3.9092 H   0  0  0  0  0  0  0  0  0  0  0  0
  -28.8819   -3.5138   -6.6175 C   0  0  0  0  0  0  0  0  0  0  0  0
  -28.2398   -3.0605   -7.7767 C   0  0  0  0  0  0  0  0  0  0  0  0
  -27.8447   -1.7281   -7.9400 C   0  0  0  0  0  0  0  0  0  0  0  0
  -28.2048   -0.8271   -6.9383 C   0  0  0  0  0  0  0  0  0  0  0  0
  -28.0231    0.5349   -6.8639 N   0  0  0  0  0  0  0  0  0  0  0  0
  -28.6158    1.0291   -5.7340 C   0  0  0  0  0  0  0  0  0  0  0  0
  -29.1402   -0.0343   -5.0346 C   0  0  0  0  0  0  0  0  0  0  0  0
  -28.8906   -1.2155   -5.7876 C   0  0  0  0  0  0  0  0  0  0  0  0
  -29.2073   -2.5797   -5.6137 C   0  0  0  0  0  0  0  0  0  0  0  0
  -27.5594    1.0893   -7.5707 H   0  0  0  0  0  0  0  0  0  0  0  0
  -31.1750   -7.6289   -7.6895 C   0  0  0  0  0  0  0  0  0  0  0  0
  -32.3894   -8.0971   -6.8839 C   0  0  0  0  0  0  0  0  0  0  0  0
  -32.8538   -9.3811   -7.5697 C   0  0  0  0  0  0  0  0  0  0  0  0
  -31.7065   -9.8358   -8.4700 C   0  0  0  0  0  0  0  0  0  0  0  0
  -30.5230   -8.9395   -8.1283 C   0  0  0  0  0  0  0  0  0  0  0  0
  1  2  1  0  0  0
  1 11  1  0  0  0
  1 12  1  0  0  0
  2  3  1  0  0  0
  2  7  2  0  0  0
  3  4  2  0  0  0
  4  5  1  0  0  0
  5  6  2  0  0  0
  6  7  1  0  0  0
  6 10  1  0  0  0
  7  8  1  0  0  0
  8 13  1  0  0  0
  8  9  2  0  0  0
 13 14  1  0  0  0
 13 21  2  0  0  0
 14 15  2  0  0  0
 15 16  1  0  0  0
 16 17  1  0  0  0
 16 20  2  0  0  0
 17 18  1  0  0  0
 17 22  1  0  0  0
 18 19  2  0  0  0
 19 20  1  0  0  0
 20 21  1  0  0  0
  9 10  1  0  0  0
 10 23  1  0  0  0
 23 24  1  0  0  0
 23 27  1  0  0  0
 24 25  1  0  0  0
 25 26  1  0  0  0
 26 27  1  0  0  0
M  END
> <minimizedAffinity>
-8.63308

$$$$
