CHEMBL3690539


 35 38  0  0  0  0  0  0  0  0999 V2000
  -30.9472   -6.7674   -6.3335 C   0  0  0  0  0  0  0  0  0  0  0  0
  -30.4702   -5.8147   -7.3243 C   0  0  0  0  0  0  0  0  0  0  0  0
  -30.0999   -4.5727   -6.9304 C   0  0  0  0  0  0  0  0  0  0  0  0
  -30.1684   -4.2182   -5.5826 N   0  0  0  0  0  0  0  0  0  0  0  0
  -29.8245   -3.0409   -4.9281 C   0  0  0  0  0  0  0  0  0  0  0  0
  -30.1652   -3.2868   -3.6036 C   0  0  0  0  0  0  0  0  0  0  0  0
  -30.6653   -4.5461   -3.4198 N   0  0  0  0  0  0  0  0  0  0  0  0
  -30.6558   -5.0932   -4.6135 C   0  0  0  0  0  0  0  0  0  0  0  0
  -31.0465   -6.4011   -5.0343 C   0  0  0  0  0  0  0  0  0  0  0  0
  -32.0512  -10.6841   -7.4986 C   0  0  0  0  0  0  0  0  0  0  0  0
  -32.9880   -9.7079   -7.5185 N   0  0  0  0  0  0  0  0  0  0  0  0
  -32.5980   -8.4681   -7.1379 C   0  0  0  0  0  0  0  0  0  0  0  0
  -31.3198   -8.1471   -6.6993 C   0  0  0  0  0  0  0  0  0  0  0  0
  -30.3965   -9.1899   -6.6283 C   0  0  0  0  0  0  0  0  0  0  0  0
  -30.7458  -10.4876   -7.0406 C   0  0  0  0  0  0  0  0  0  0  0  0
  -29.7021  -11.5635   -7.0019 C   0  0  0  0  0  0  0  0  0  0  0  0
  -33.5402  -12.4653   -7.2976 C   0  0  0  0  0  0  0  0  0  0  0  0
  -32.4208  -11.9156   -8.0043 O   0  0  0  0  0  0  0  0  0  0  0  0
  -29.2659   -1.8195   -5.5219 C   0  0  0  0  0  0  0  0  0  0  0  0
  -29.5176   -0.5878   -4.8985 C   0  0  0  0  0  0  0  0  0  0  0  0
  -29.0024    0.5907   -5.4262 C   0  0  0  0  0  0  0  0  0  0  0  0
  -28.2035    0.5476   -6.5700 C   0  0  0  0  0  0  0  0  0  0  0  0
  -27.8772   -0.6594   -7.1797 C   0  0  0  0  0  0  0  0  0  0  0  0
  -28.4335   -1.8324   -6.6624 C   0  0  0  0  0  0  0  0  0  0  0  0
  -26.9793   -0.7512   -8.2824 N   0  0  0  0  0  0  0  0  0  0  0  0
  -27.2380   -1.4154   -9.4621 C   0  0  0  0  0  0  0  0  0  0  0  0
  -28.2643   -2.0323   -9.7292 O   0  0  0  0  0  0  0  0  0  0  0  0
  -26.2062   -1.4028  -10.3615 N   0  0  0  0  0  0  0  0  0  0  0  0
  -26.1117   -0.2464   -8.2176 H   0  0  0  0  0  0  0  0  0  0  0  0
  -25.5118   -0.6729  -10.3175 H   0  0  0  0  0  0  0  0  0  0  0  0
  -26.4161   -2.1045  -11.6398 C   0  0  0  0  0  0  0  0  0  0  0  0
  -25.8016   -1.4625  -12.8920 C   0  0  0  0  0  0  0  0  0  0  0  0
  -25.2731   -0.2447  -12.6378 F   0  0  0  0  0  0  0  0  0  0  0  0
  -24.7920   -2.2392  -13.3619 F   0  0  0  0  0  0  0  0  0  0  0  0
  -26.7002   -1.3325  -13.8913 F   0  0  0  0  0  0  0  0  0  0  0  0
 17 18  1  0  0  0
 18 10  1  0  0  0
 10 11  1  0  0  0
 10 15  2  0  0  0
 11 12  2  0  0  0
 12 13  1  0  0  0
 13  1  1  0  0  0
 13 14  2  0  0  0
  1  2  1  0  0  0
  1  9  2  0  0  0
  2  3  2  0  0  0
  3  4  1  0  0  0
  4  5  1  0  0  0
  4  8  1  0  0  0
  5 19  1  0  0  0
  5  6  2  0  0  0
 19 20  1  0  0  0
 19 24  2  0  0  0
 20 21  2  0  0  0
 21 22  1  0  0  0
 22 23  2  0  0  0
 23 25  1  0  0  0
 23 24  1  0  0  0
 25 26  1  0  0  0
 25 29  1  0  0  0
 26 27  2  0  0  0
 26 28  1  0  0  0
 28 31  1  0  0  0
 28 30  1  0  0  0
 31 32  1  0  0  0
 32 33  1  0  0  0
 32 34  1  0  0  0
 32 35  1  0  0  0
  6  7  1  0  0  0
  7  8  2  0  0  0
  8  9  1  0  0  0
 14 15  1  0  0  0
 15 16  1  0  0  0
M  END
> <minimizedAffinity>
-9.25673

$$$$
