CHEMBL3702663


 33 36  0  0  0  0  0  0  0  0999 V2000
  -12.4615   -0.1059  -15.0409 C   0  0  0  0  0  0  0  0  0  0  0  0
  -13.8789    0.4112  -15.0685 C   0  0  0  0  0  0  0  0  0  0  0  0
  -14.1616    1.5343  -15.8770 C   0  0  0  0  0  0  0  0  0  0  0  0
  -15.4571    2.0377  -16.0029 C   0  0  0  0  0  0  0  0  0  0  0  0
  -16.4899    1.4267  -15.2988 C   0  0  0  0  0  0  0  0  0  0  0  0
  -16.2097    0.3188  -14.4776 C   0  0  0  0  0  0  0  0  0  0  0  0
  -14.9217   -0.2224  -14.3503 C   0  0  0  0  0  0  0  0  0  0  0  0
  -14.6873   -1.3804  -13.5955 N   0  0  0  0  0  0  0  0  0  0  0  0
  -14.3059   -2.6089  -14.3222 C   0  0  0  0  0  0  0  0  0  0  0  0
  -13.4981   -3.4980  -13.3787 C   0  0  0  0  0  0  0  0  0  0  0  0
  -14.1484   -3.6232  -12.0260 C   0  0  0  0  0  0  0  0  0  0  0  0
  -13.6722   -4.5961  -11.2159 N   0  0  0  0  0  0  0  0  0  0  0  0
  -14.2099   -4.6892   -9.9974 C   0  0  0  0  0  0  0  0  0  0  0  0
  -13.7129   -5.6621   -9.1552 N   0  0  0  0  0  0  0  0  0  0  0  0
  -15.1544   -3.8778   -9.5150 N   0  0  0  0  0  0  0  0  0  0  0  0
  -15.6040   -2.9188  -10.3479 C   0  0  0  0  0  0  0  0  0  0  0  0
  -15.1301   -2.7303  -11.6271 C   0  0  0  0  0  0  0  0  0  0  0  0
  -15.6754   -1.6689  -12.5394 C   0  0  0  0  0  0  0  0  0  0  0  0
  -12.7685   -5.8898   -9.4323 H   0  0  0  0  0  0  0  0  0  0  0  0
  -13.8592   -5.3788   -8.1969 H   0  0  0  0  0  0  0  0  0  0  0  0
  -17.8874    1.9283  -15.3010 C   0  0  0  0  0  0  0  0  0  0  0  0
  -18.0934    2.9559  -15.9435 O   0  0  0  0  0  0  0  0  0  0  0  0
  -18.8207    1.2469  -14.5319 N   0  0  0  0  0  0  0  0  0  0  0  0
  -18.4807    0.5345  -13.9003 H   0  0  0  0  0  0  0  0  0  0  0  0
  -20.1813    1.6346  -14.3838 C   0  0  0  0  0  0  0  0  0  0  0  0
  -20.5997    2.9625  -14.4976 C   0  0  0  0  0  0  0  0  0  0  0  0
  -21.9297    3.3201  -14.2770 C   0  0  0  0  0  0  0  0  0  0  0  0
  -22.8645    2.3490  -13.9394 C   0  0  0  0  0  0  0  0  0  0  0  0
  -22.4871    1.0024  -13.8310 C   0  0  0  0  0  0  0  0  0  0  0  0
  -21.1413    0.6539  -14.0836 C   0  0  0  0  0  0  0  0  0  0  0  0
  -23.4951   -0.0468  -13.3853 C   0  0  0  0  0  0  0  0  0  0  0  0
  -22.8283   -1.4207  -13.2343 C   0  0  0  0  0  0  0  0  0  0  0  0
  -24.2035    0.3381  -12.0826 C   0  0  0  0  0  0  0  0  0  0  0  0
  1  2  1  0  0  0
  2  3  1  0  0  0
  2  7  2  0  0  0
  3  4  2  0  0  0
  4  5  1  0  0  0
  5 21  1  0  0  0
  5  6  2  0  0  0
 21 22  2  0  0  0
 21 23  1  0  0  0
 23 25  1  0  0  0
 23 24  1  0  0  0
 25 26  1  0  0  0
 25 30  2  0  0  0
 26 27  2  0  0  0
 27 28  1  0  0  0
 28 29  2  0  0  0
 29 31  1  0  0  0
 29 30  1  0  0  0
 31 32  1  0  0  0
 31 33  1  0  0  0
  6  7  1  0  0  0
  7  8  1  0  0  0
  8  9  1  0  0  0
  8 18  1  0  0  0
  9 10  1  0  0  0
 10 11  1  0  0  0
 11 12  1  0  0  0
 11 17  2  0  0  0
 12 13  2  0  0  0
 13 14  1  0  0  0
 13 15  1  0  0  0
 14 19  1  0  0  0
 14 20  1  0  0  0
 15 16  2  0  0  0
 16 17  1  0  0  0
 17 18  1  0  0  0
M  END
> <minimizedAffinity>
-10.32846

$$$$
