CHEMBL3895625


 39 42  0  0  0  0  0  0  0  0999 V2000
  -25.7120  -10.2968   -5.8815 C   0  0  0  0  0  0  0  0  0  0  0  0
  -26.7619   -9.5504   -5.4584 N   0  0  0  0  0  0  0  0  0  0  0  0
  -26.6138   -8.7592   -4.3876 C   0  0  0  0  0  0  0  0  0  0  0  0
  -25.4584   -8.6466   -3.7254 N   0  0  0  0  0  0  0  0  0  0  0  0
  -24.4285   -9.3901   -4.1566 C   0  0  0  0  0  0  0  0  0  0  0  0
  -24.4900  -10.2546   -5.2303 C   0  0  0  0  0  0  0  0  0  0  0  0
  -23.2609  -11.0315   -5.5504 C   0  0  0  0  0  0  0  0  0  0  0  0
  -22.6838  -10.7545   -6.7474 F   0  0  0  0  0  0  0  0  0  0  0  0
  -22.2834  -10.8407   -4.6191 F   0  0  0  0  0  0  0  0  0  0  0  0
  -23.4947  -12.3739   -5.5622 F   0  0  0  0  0  0  0  0  0  0  0  0
  -27.7719   -8.1213   -3.9456 N   0  0  0  0  0  0  0  0  0  0  0  0
  -27.8248   -8.2421   -2.9419 H   0  0  0  0  0  0  0  0  0  0  0  0
  -28.4641   -7.1485   -4.5652 C   0  0  0  0  0  0  0  0  0  0  0  0
  -28.5505   -6.8381   -5.9339 C   0  0  0  0  0  0  0  0  0  0  0  0
  -29.3050   -5.7619   -6.1573 N   0  0  0  0  0  0  0  0  0  0  0  0
  -29.6625   -5.3504   -4.9237 N   0  0  0  0  0  0  0  0  0  0  0  0
  -29.2320   -6.1996   -3.9367 C   0  0  0  0  0  0  0  0  0  0  0  0
  -30.4766   -4.1479   -4.7461 C   0  0  0  0  0  0  0  0  0  0  0  0
  -30.4401   -3.1862   -5.9420 C   0  0  0  0  0  0  0  0  0  0  0  0
  -29.0895   -2.4758   -6.0598 C   0  0  0  0  0  0  0  0  0  0  0  0
  -28.6861   -1.7946   -4.8191 N   0  0  0  0  0  0  0  0  0  0  0  0
  -27.3110   -1.3010   -4.9745 C   0  0  0  0  0  0  0  0  0  0  0  0
  -28.7543   -2.6617   -3.6355 C   0  0  0  0  0  0  0  0  0  0  0  0
  -30.1055   -3.3576   -3.4859 C   0  0  0  0  0  0  0  0  0  0  0  0
  -26.0225  -11.2322   -7.0274 C   0  0  0  0  0  0  0  0  0  0  0  0
  -27.5306  -11.4038   -7.2857 C   0  0  0  0  0  0  0  0  0  0  0  0
  -29.2524  -10.7750   -9.1198 C   0  0  0  0  0  0  0  0  0  0  0  0
  -29.4693  -10.3890  -10.4582 C   0  0  0  0  0  0  0  0  0  0  0  0
  -28.4070  -10.1388  -11.3262 C   0  0  0  0  0  0  0  0  0  0  0  0
  -27.1010  -10.2519  -10.8737 C   0  0  0  0  0  0  0  0  0  0  0  0
  -26.8574  -10.6565   -9.5649 C   0  0  0  0  0  0  0  0  0  0  0  0
  -27.9150  -10.9381   -8.6780 C   0  0  0  0  0  0  0  0  0  0  0  0
  -31.3441  -12.0911   -8.3970 C   0  0  0  0  0  0  0  0  0  0  0  0
  -30.4463  -10.8637   -8.1636 C   0  0  0  0  0  0  0  0  0  0  0  0
  -31.3147   -9.5927   -8.1951 C   0  0  0  0  0  0  0  0  0  0  0  0
  -30.7379   -8.4207   -7.7971 N   0  0  0  0  0  0  0  0  0  0  0  0
  -32.5157   -9.5968   -8.4736 O   0  0  0  0  0  0  0  0  0  0  0  0
  -31.3058   -7.5904   -7.9120 H   0  0  0  0  0  0  0  0  0  0  0  0
  -29.7374   -8.2924   -7.8650 H   0  0  0  0  0  0  0  0  0  0  0  0
 34 27  1  0  0  0
 34 35  1  0  0  0
 34 33  1  0  0  0
 35 36  1  0  0  0
 35 37  2  0  0  0
 36 38  1  0  0  0
 36 39  1  0  0  0
 27 28  1  0  0  0
 27 32  2  0  0  0
 28 29  2  0  0  0
 29 30  1  0  0  0
 30 31  2  0  0  0
 31 32  1  0  0  0
 32 26  1  0  0  0
 26 25  1  0  0  0
 25  1  1  0  0  0
  1  2  1  0  0  0
  1  6  2  0  0  0
  2  3  2  0  0  0
  3 11  1  0  0  0
  3  4  1  0  0  0
 11 13  1  0  0  0
 11 12  1  0  0  0
 13 14  1  0  0  0
 13 17  2  0  0  0
 14 15  2  0  0  0
 15 16  1  0  0  0
 16 18  1  0  0  0
 16 17  1  0  0  0
 18 19  1  0  0  0
 18 24  1  0  0  0
 19 20  1  0  0  0
 20 21  1  0  0  0
 21 22  1  0  0  0
 21 23  1  0  0  0
 23 24  1  0  0  0
  4  5  2  0  0  0
  5  6  1  0  0  0
  6  7  1  0  0  0
  7  8  1  0  0  0
  7  9  1  0  0  0
  7 10  1  0  0  0
M  END
> <minimizedAffinity>
-8.76101

$$$$
