CHEMBL3955385


 38 42  0  0  0  0  0  0  0  0999 V2000
  -15.3347    1.5052  -15.7943 N   0  0  0  0  0  0  0  0  0  0  0  0
  -16.7761    1.6421  -15.7904 C   0  0  0  0  0  0  0  0  0  0  0  0
  -17.2041    2.9016  -16.1965 C   0  0  0  0  0  0  0  0  0  0  0  0
  -18.3996    3.4070  -15.7394 C   0  0  0  0  0  0  0  0  0  0  0  0
  -19.2847    2.6315  -15.0188 C   0  0  0  0  0  0  0  0  0  0  0  0
  -20.2693    3.3580  -14.4842 N   0  0  0  0  0  0  0  0  0  0  0  0
  -21.2787    2.6707  -13.9361 C   0  0  0  0  0  0  0  0  0  0  0  0
  -21.3658    1.3008  -14.0210 C   0  0  0  0  0  0  0  0  0  0  0  0
  -20.2859    0.5499  -14.4590 N   0  0  0  0  0  0  0  0  0  0  0  0
  -19.1313    1.2324  -14.9087 C   0  0  0  0  0  0  0  0  0  0  0  0
  -17.7694    0.7790  -15.2447 C   0  0  0  0  0  0  0  0  0  0  0  0
  -22.7015    0.7590  -13.7480 C   0  0  0  0  0  0  0  0  0  0  0  0
  -23.5451    0.9364  -12.6143 C   0  0  0  0  0  0  0  0  0  0  0  0
  -24.5620    0.0604  -12.5674 N   0  0  0  0  0  0  0  0  0  0  0  0
  -24.3672   -0.6965  -13.6596 N   0  0  0  0  0  0  0  0  0  0  0  0
  -25.4051   -1.5763  -14.1461 C   0  0  0  0  0  0  0  0  0  0  0  0
  -23.1753   -0.4337  -14.2802 C   0  0  0  0  0  0  0  0  0  0  0  0
  -12.8115   -0.9930  -17.0772 C   0  0  0  0  0  0  0  0  0  0  0  0
  -12.9362   -0.8511  -18.4483 C   0  0  0  0  0  0  0  0  0  0  0  0
  -13.7430    0.1632  -18.9650 C   0  0  0  0  0  0  0  0  0  0  0  0
  -14.5141    0.9692  -18.0940 C   0  0  0  0  0  0  0  0  0  0  0  0
  -14.4820    0.7897  -16.6992 C   0  0  0  0  0  0  0  0  0  0  0  0
  -13.5164   -0.1313  -16.2308 C   0  0  0  0  0  0  0  0  0  0  0  0
  -12.3914   -2.2247  -15.0967 C   0  0  0  0  0  0  0  0  0  0  0  0
  -12.0399   -1.9346  -16.4474 O   0  0  0  0  0  0  0  0  0  0  0  0
  -13.8590    0.4355  -20.3069 O   0  0  0  0  0  0  0  0  0  0  0  0
  -12.8181   -0.0561  -21.1542 C   0  0  0  0  0  0  0  0  0  0  0  0
  -14.8046    1.6333  -14.3268 C   0  0  0  0  0  0  0  0  0  0  0  0
  -15.1043    0.2645  -13.7377 C   0  0  0  0  0  0  0  0  0  0  0  0
  -15.3615   -0.9097  -13.2325 C   0  0  0  0  0  0  0  0  0  0  0  0
  -15.5806   -2.1886  -12.6375 C   0  0  0  0  0  0  0  0  0  0  0  0
  -15.8588   -2.3133  -11.2833 C   0  0  0  0  0  0  0  0  0  0  0  0
  -16.1250   -3.5840  -10.7792 C   0  0  0  0  0  0  0  0  0  0  0  0
  -16.0993   -4.6763  -11.6398 C   0  0  0  0  0  0  0  0  0  0  0  0
  -15.8026   -4.4507  -12.9794 C   0  0  0  0  0  0  0  0  0  0  0  0
  -15.5485   -3.2262  -13.4983 N   0  0  0  0  0  0  0  0  0  0  0  0
  -15.7397   -5.5533  -13.9061 C   0  0  0  0  0  0  0  0  0  0  0  0
  -15.6409   -6.4307  -14.6504 N   0  0  0  0  0  0  0  0  0  0  0  0
 24 25  1  0  0  0
 25 18  1  0  0  0
 18 19  1  0  0  0
 18 23  2  0  0  0
 19 20  2  0  0  0
 20 26  1  0  0  0
 20 21  1  0  0  0
 26 27  1  0  0  0
 21 22  2  0  0  0
 22  1  1  0  0  0
 22 23  1  0  0  0
  1 28  1  0  0  0
  1  2  1  0  0  0
 28 29  1  0  0  0
 29 30  3  0  0  0
 30 31  1  0  0  0
 31 32  1  0  0  0
 31 36  2  0  0  0
 32 33  2  0  0  0
 33 34  1  0  0  0
 34 35  2  0  0  0
 35 37  1  0  0  0
 35 36  1  0  0  0
 37 38  3  0  0  0
  2  3  1  0  0  0
  2 11  2  0  0  0
  3  4  2  0  0  0
  4  5  1  0  0  0
  5  6  1  0  0  0
  5 10  2  0  0  0
  6  7  2  0  0  0
  7  8  1  0  0  0
  8 12  1  0  0  0
  8  9  2  0  0  0
 12 13  1  0  0  0
 12 17  2  0  0  0
 13 14  2  0  0  0
 14 15  1  0  0  0
 15 16  1  0  0  0
 15 17  1  0  0  0
  9 10  1  0  0  0
 10 11  1  0  0  0
M  END
> <minimizedAffinity>
-8.99039

$$$$
