CHEMBL3958507


 42 46  0  0  0  0  0  0  0  0999 V2000
  -13.6175   -1.4174  -14.7456 C   0  0  0  0  0  0  0  0  0  0  0  0
  -13.2051   -2.3445  -13.7810 C   0  0  0  0  0  0  0  0  0  0  0  0
  -13.9602   -2.5627  -12.6000 C   0  0  0  0  0  0  0  0  0  0  0  0
  -13.6636   -3.5359  -11.6293 C   0  0  0  0  0  0  0  0  0  0  0  0
  -14.4702   -3.7572  -10.5745 N   0  0  0  0  0  0  0  0  0  0  0  0
  -15.5535   -2.9860  -10.4719 C   0  0  0  0  0  0  0  0  0  0  0  0
  -15.9128   -2.0133  -11.3208 N   0  0  0  0  0  0  0  0  0  0  0  0
  -15.1199   -1.8168  -12.3790 C   0  0  0  0  0  0  0  0  0  0  0  0
  -15.4697   -0.8417  -13.3104 C   0  0  0  0  0  0  0  0  0  0  0  0
  -14.7285   -0.6134  -14.4804 C   0  0  0  0  0  0  0  0  0  0  0  0
  -11.5597   -1.4878  -15.9182 C   0  0  0  0  0  0  0  0  0  0  0  0
  -12.9733   -1.2869  -15.9431 O   0  0  0  0  0  0  0  0  0  0  0  0
  -12.4847   -4.3263  -11.7585 N   0  0  0  0  0  0  0  0  0  0  0  0
  -11.8130   -4.0238  -11.0591 H   0  0  0  0  0  0  0  0  0  0  0  0
  -12.4938   -5.7303  -11.9296 C   0  0  0  0  0  0  0  0  0  0  0  0
  -11.9451   -6.5692  -10.9494 C   0  0  0  0  0  0  0  0  0  0  0  0
  -11.8746   -7.9504  -11.1393 C   0  0  0  0  0  0  0  0  0  0  0  0
  -12.3613   -8.5163  -12.3170 C   0  0  0  0  0  0  0  0  0  0  0  0
  -12.1944  -10.2240  -12.5160 Cl  0  0  0  0  0  0  0  0  0  0  0  0
  -12.9477   -7.6967  -13.2877 C   0  0  0  0  0  0  0  0  0  0  0  0
  -13.5784   -8.3295  -14.7685 Cl  0  0  0  0  0  0  0  0  0  0  0  0
  -13.0240   -6.3107  -13.0879 C   0  0  0  0  0  0  0  0  0  0  0  0
  -15.2759    0.3236  -15.3152 O   0  0  0  0  0  0  0  0  0  0  0  0
  -15.0132    1.7185  -15.0550 C   0  0  0  0  0  0  0  0  0  0  0  0
  -16.3171    2.4547  -14.9716 C   0  0  0  0  0  0  0  0  0  0  0  0
  -16.5112    3.6461  -15.5594 N   0  0  0  0  0  0  0  0  0  0  0  0
  -17.8998    3.6983  -15.7174 O   0  0  0  0  0  0  0  0  0  0  0  0
  -18.3877    2.5251  -15.2078 C   0  0  0  0  0  0  0  0  0  0  0  0
  -17.4714    1.8229  -14.5790 N   0  0  0  0  0  0  0  0  0  0  0  0
  -19.6170    1.9967  -15.8796 C   0  0  0  0  0  0  0  0  0  0  0  0
  -20.8178    2.9488  -15.8588 C   0  0  0  0  0  0  0  0  0  0  0  0
  -21.4949    3.0592  -14.4920 C   0  0  0  0  0  0  0  0  0  0  0  0
  -21.7176    1.7474  -13.8955 N   0  0  0  0  0  0  0  0  0  0  0  0
  -22.9047    1.4702  -13.2460 C   0  0  0  0  0  0  0  0  0  0  0  0
  -23.8644    2.2290  -13.2344 O   0  0  0  0  0  0  0  0  0  0  0  0
  -20.5595    0.8728  -13.8050 C   0  0  0  0  0  0  0  0  0  0  0  0
  -19.9719    0.6586  -15.1972 C   0  0  0  0  0  0  0  0  0  0  0  0
  -22.8748    0.2532  -12.6430 O   0  0  0  0  0  0  0  0  0  0  0  0
  -23.9026   -0.7342  -12.8861 C   0  0  0  0  0  0  0  0  0  0  0  0
  -24.2191   -0.8270  -14.3818 C   0  0  0  0  0  0  0  0  0  0  0  0
  -23.2906   -2.0689  -12.4291 C   0  0  0  0  0  0  0  0  0  0  0  0
  -25.1442   -0.4555  -12.0346 C   0  0  0  0  0  0  0  0  0  0  0  0
 11 12  1  0  0  0
 12  1  1  0  0  0
  1  2  1  0  0  0
  1 10  2  0  0  0
  2  3  2  0  0  0
  3  4  1  0  0  0
  3  8  1  0  0  0
  4 13  1  0  0  0
  4  5  2  0  0  0
 13 15  1  0  0  0
 13 14  1  0  0  0
 15 16  1  0  0  0
 15 22  2  0  0  0
 16 17  2  0  0  0
 17 18  1  0  0  0
 18 19  1  0  0  0
 18 20  2  0  0  0
 20 21  1  0  0  0
 20 22  1  0  0  0
  5  6  1  0  0  0
  6  7  2  0  0  0
  7  8  1  0  0  0
  8  9  2  0  0  0
  9 10  1  0  0  0
 10 23  1  0  0  0
 23 24  1  0  0  0
 24 25  1  0  0  0
 25 26  2  0  0  0
 25 29  1  0  0  0
 26 27  1  0  0  0
 27 28  1  0  0  0
 28 30  1  0  0  0
 28 29  2  0  0  0
 30 31  1  0  0  0
 30 37  1  0  0  0
 31 32  1  0  0  0
 32 33  1  0  0  0
 33 34  1  0  0  0
 33 36  1  0  0  0
 34 35  2  0  0  0
 34 38  1  0  0  0
 38 39  1  0  0  0
 39 40  1  0  0  0
 39 41  1  0  0  0
 39 42  1  0  0  0
 36 37  1  0  0  0
M  END
> <minimizedAffinity>
-8.26672

$$$$
