CHEMBL3961927


 41 44  0  0  0  0  0  0  0  0999 V2000
  -21.9866   -0.4188  -14.0430 O   0  0  0  0  0  0  0  0  0  0  0  0
  -18.4239    2.1645  -15.4283 C   0  0  0  0  0  0  0  0  0  0  0  0
  -19.2142    3.2484  -15.0950 C   0  0  0  0  0  0  0  0  0  0  0  0
  -20.5025    2.8765  -14.6240 C   0  0  0  0  0  0  0  0  0  0  0  0
  -21.4747    3.7440  -14.2323 N   0  0  0  0  0  0  0  0  0  0  0  0
  -22.6366    3.1870  -13.8466 C   0  0  0  0  0  0  0  0  0  0  0  0
  -22.8899    1.8319  -13.7967 C   0  0  0  0  0  0  0  0  0  0  0  0
  -21.8598    0.9468  -14.1184 C   0  0  0  0  0  0  0  0  0  0  0  0
  -20.6599    1.4938  -14.5900 C   0  0  0  0  0  0  0  0  0  0  0  0
  -19.2494    0.6938  -15.1610 S   0  0  0  0  0  0  0  0  0  0  0  0
  -16.4171    1.0113  -16.1048 N   0  0  0  0  0  0  0  0  0  0  0  0
  -17.0607    2.2191  -15.9308 C   0  0  0  0  0  0  0  0  0  0  0  0
  -16.4996    3.2835  -16.1857 O   0  0  0  0  0  0  0  0  0  0  0  0
  -16.9476    0.1493  -16.0350 H   0  0  0  0  0  0  0  0  0  0  0  0
  -15.0897    0.9462  -16.6768 C   0  0  0  0  0  0  0  0  0  0  0  0
  -14.0172    0.5371  -15.6516 C   0  0  0  0  0  0  0  0  0  0  0  0
  -14.1482    1.1380  -14.3029 N   0  0  0  0  0  0  0  0  0  0  0  0
  -15.8428    0.0449  -12.7763 C   0  0  0  0  0  0  0  0  0  0  0  0
  -14.4021    0.1122  -13.2745 C   0  0  0  0  0  0  0  0  0  0  0  0
  -12.9847    1.9991  -14.0031 C   0  0  0  0  0  0  0  0  0  0  0  0
  -11.7493    1.3038  -13.4311 C   0  0  0  0  0  0  0  0  0  0  0  0
  -23.0507   -0.9461  -13.3502 C   0  0  0  0  0  0  0  0  0  0  0  0
  -24.2526   -0.9665  -14.0368 C   0  0  0  0  0  0  0  0  0  0  0  0
  -25.4032   -1.4362  -13.4065 C   0  0  0  0  0  0  0  0  0  0  0  0
  -25.3645   -1.9044  -12.0861 C   0  0  0  0  0  0  0  0  0  0  0  0
  -24.1433   -1.9168  -11.4174 C   0  0  0  0  0  0  0  0  0  0  0  0
  -22.9811   -1.4667  -12.0542 C   0  0  0  0  0  0  0  0  0  0  0  0
  -26.5052   -2.3633  -11.3876 N   0  0  0  0  0  0  0  0  0  0  0  0
  -26.8057   -2.0489  -10.0819 C   0  0  0  0  0  0  0  0  0  0  0  0
  -26.1636   -1.2678   -9.3838 O   0  0  0  0  0  0  0  0  0  0  0  0
  -27.9184   -2.7375   -9.6077 N   0  0  0  0  0  0  0  0  0  0  0  0
  -27.2225   -2.8380  -11.9166 H   0  0  0  0  0  0  0  0  0  0  0  0
  -27.9438   -3.7090   -9.8951 H   0  0  0  0  0  0  0  0  0  0  0  0
  -28.2699   -2.5138   -8.2507 C   0  0  0  0  0  0  0  0  0  0  0  0
  -28.0912   -1.2513   -7.6697 C   0  0  0  0  0  0  0  0  0  0  0  0
  -28.1742   -1.0878   -6.2838 C   0  0  0  0  0  0  0  0  0  0  0  0
  -27.8639    0.2418   -5.6620 C   0  0  0  0  0  0  0  0  0  0  0  0
  -28.4574   -2.2036   -5.4849 C   0  0  0  0  0  0  0  0  0  0  0  0
  -28.7096   -3.4493   -6.0689 C   0  0  0  0  0  0  0  0  0  0  0  0
  -28.6367   -3.5927   -7.4502 C   0  0  0  0  0  0  0  0  0  0  0  0
  -28.8081   -4.8053   -7.9990 F   0  0  0  0  0  0  0  0  0  0  0  0
 18 19  1  0  0  0
 19 17  1  0  0  0
 17 20  1  0  0  0
 17 16  1  0  0  0
 20 21  1  0  0  0
 16 15  1  0  0  0
 15 11  1  0  0  0
 11 12  1  0  0  0
 11 14  1  0  0  0
 12 13  2  0  0  0
 12  2  1  0  0  0
  2  3  2  0  0  0
  2 10  1  0  0  0
  3  4  1  0  0  0
  4  5  1  0  0  0
  4  9  2  0  0  0
  5  6  2  0  0  0
  6  7  1  0  0  0
  7  8  2  0  0  0
  8  1  1  0  0  0
  8  9  1  0  0  0
  1 22  1  0  0  0
 22 23  1  0  0  0
 22 27  2  0  0  0
 23 24  2  0  0  0
 24 25  1  0  0  0
 25 28  1  0  0  0
 25 26  2  0  0  0
 28 29  1  0  0  0
 28 32  1  0  0  0
 29 30  2  0  0  0
 29 31  1  0  0  0
 31 34  1  0  0  0
 31 33  1  0  0  0
 34 35  1  0  0  0
 34 40  2  0  0  0
 35 36  2  0  0  0
 36 37  1  0  0  0
 36 38  1  0  0  0
 38 39  2  0  0  0
 39 40  1  0  0  0
 40 41  1  0  0  0
 26 27  1  0  0  0
  9 10  1  0  0  0
M  END
> <minimizedAffinity>
-10.55087

$$$$
