CHEMBL379896


 25 27  0  0  0  0  0  0  0  0999 V2000
  -28.3647   -2.9338   -6.3623 C   0  0  0  0  0  0  0  0  0  0  0  0
  -28.3000   -3.1388   -7.7271 C   0  0  0  0  0  0  0  0  0  0  0  0
  -28.0346   -2.0677   -8.5573 C   0  0  0  0  0  0  0  0  0  0  0  0
  -27.8807   -0.8300   -8.0661 N   0  0  0  0  0  0  0  0  0  0  0  0
  -27.9697   -0.7160   -6.7326 C   0  0  0  0  0  0  0  0  0  0  0  0
  -28.2146   -1.7013   -5.8576 N   0  0  0  0  0  0  0  0  0  0  0  0
  -30.4659   -5.9772   -4.3560 N   0  0  0  0  0  0  0  0  0  0  0  0
  -30.0283   -6.0369   -5.7734 C   0  0  0  0  0  0  0  0  0  0  0  0
  -28.6737   -5.3579   -6.0663 C   0  0  0  0  0  0  0  0  0  0  0  0
  -28.6105   -4.0023   -5.5200 N   0  0  0  0  0  0  0  0  0  0  0  0
  -29.1830   -3.7621   -4.1873 C   0  0  0  0  0  0  0  0  0  0  0  0
  -30.4872   -4.5598   -3.9521 C   0  0  0  0  0  0  0  0  0  0  0  0
  -29.6299   -6.8481   -3.5057 C   0  0  0  0  0  0  0  0  0  0  0  0
  -29.2035   -8.2126   -4.0852 C   0  0  0  0  0  0  0  0  0  0  0  0
  -28.0558  -10.2247   -3.6823 C   0  0  0  0  0  0  0  0  0  0  0  0
  -28.5835   -9.0387   -3.1010 O   0  0  0  0  0  0  0  0  0  0  0  0
  -27.9295   -2.2029   -9.9457 N   0  0  0  0  0  0  0  0  0  0  0  0
  -28.8460   -2.1602  -10.3731 H   0  0  0  0  0  0  0  0  0  0  0  0
  -26.8486   -1.8824  -10.6935 C   0  0  0  0  0  0  0  0  0  0  0  0
  -25.6404   -1.6131  -10.2426 N   0  0  0  0  0  0  0  0  0  0  0  0
  -24.7988   -1.2577  -11.2689 C   0  0  0  0  0  0  0  0  0  0  0  0
  -25.3633   -1.2864  -12.5164 C   0  0  0  0  0  0  0  0  0  0  0  0
  -26.9987   -1.7576  -12.4108 S   0  0  0  0  0  0  0  0  0  0  0  0
  -24.6884   -0.9537  -13.7306 C   0  0  0  0  0  0  0  0  0  0  0  0
  -24.1519   -0.7001  -14.7274 N   0  0  0  0  0  0  0  0  0  0  0  0
 15 16  1  0  0  0
 16 14  1  0  0  0
 14 13  1  0  0  0
 13  7  1  0  0  0
  7  8  1  0  0  0
  7 12  1  0  0  0
  8  9  1  0  0  0
  9 10  1  0  0  0
 10  1  1  0  0  0
 10 11  1  0  0  0
  1  2  1  0  0  0
  1  6  2  0  0  0
  2  3  2  0  0  0
  3 17  1  0  0  0
  3  4  1  0  0  0
 17 19  1  0  0  0
 17 18  1  0  0  0
 19 20  2  0  0  0
 19 23  1  0  0  0
 20 21  1  0  0  0
 21 22  2  0  0  0
 22 24  1  0  0  0
 22 23  1  0  0  0
 24 25  3  0  0  0
  4  5  2  0  0  0
  5  6  1  0  0  0
 11 12  1  0  0  0
M  END
> <minimizedAffinity>
-6.88035

$$$$
