CHEMBL2203321


 32 35  0  0  0  0  0  0  0  0999 V2000
  -22.4273    1.6710  -14.0186 O   0  0  0  0  0  0  0  0  0  0  0  0
  -21.9568    0.5617  -14.2456 C   0  0  0  0  0  0  0  0  0  0  0  0
  -22.6321   -0.6234  -13.9863 N   0  0  0  0  0  0  0  0  0  0  0  0
  -20.6850    0.3455  -14.7575 N   0  0  0  0  0  0  0  0  0  0  0  0
  -22.0882   -1.4725  -13.9986 H   0  0  0  0  0  0  0  0  0  0  0  0
  -20.4452   -0.5961  -15.0266 H   0  0  0  0  0  0  0  0  0  0  0  0
  -23.9151   -0.7019  -13.3836 C   0  0  0  0  0  0  0  0  0  0  0  0
  -24.2003   -0.1828  -12.1167 C   0  0  0  0  0  0  0  0  0  0  0  0
  -25.4354   -0.4072  -11.5050 C   0  0  0  0  0  0  0  0  0  0  0  0
  -26.4292   -1.1389  -12.1587 C   0  0  0  0  0  0  0  0  0  0  0  0
  -26.1762   -1.5925  -13.4626 C   0  0  0  0  0  0  0  0  0  0  0  0
  -24.9330   -1.3682  -14.0731 C   0  0  0  0  0  0  0  0  0  0  0  0
  -27.7333   -1.4515  -11.4691 C   0  0  0  0  0  0  0  0  0  0  0  0
  -28.6503   -2.0532  -12.2789 F   0  0  0  0  0  0  0  0  0  0  0  0
  -27.5756   -2.2827  -10.4026 F   0  0  0  0  0  0  0  0  0  0  0  0
  -28.3451   -0.3340  -10.9855 F   0  0  0  0  0  0  0  0  0  0  0  0
  -19.7254    1.3540  -15.0484 C   0  0  0  0  0  0  0  0  0  0  0  0
  -20.0332    2.7211  -15.0362 C   0  0  0  0  0  0  0  0  0  0  0  0
  -19.0866    3.6825  -15.3881 C   0  0  0  0  0  0  0  0  0  0  0  0
  -17.8040    3.2924  -15.7360 C   0  0  0  0  0  0  0  0  0  0  0  0
  -17.4599    1.9430  -15.6880 C   0  0  0  0  0  0  0  0  0  0  0  0
  -18.4143    0.9674  -15.3673 C   0  0  0  0  0  0  0  0  0  0  0  0
  -16.1661    1.5162  -16.0654 O   0  0  0  0  0  0  0  0  0  0  0  0
  -15.1068    1.6977  -15.1793 C   0  0  0  0  0  0  0  0  0  0  0  0
  -15.1284    0.5990  -14.1859 C   0  0  0  0  0  0  0  0  0  0  0  0
  -14.1561    0.6086  -13.2624 C   0  0  0  0  0  0  0  0  0  0  0  0
  -13.1933    1.6440  -13.2811 C   0  0  0  0  0  0  0  0  0  0  0  0
  -12.1586    1.8883  -12.5033 N   0  0  0  0  0  0  0  0  0  0  0  0
  -11.5786    3.0206  -13.0220 C   0  0  0  0  0  0  0  0  0  0  0  0
  -12.2630    3.4633  -14.1290 C   0  0  0  0  0  0  0  0  0  0  0  0
  -13.3085    2.5966  -14.2819 N   0  0  0  0  0  0  0  0  0  0  0  0
  -14.2578    2.6713  -15.2511 N   0  0  0  0  0  0  0  0  0  0  0  0
  1  2  2  0  0  0
  2  3  1  0  0  0
  2  4  1  0  0  0
  3  7  1  0  0  0
  3  5  1  0  0  0
  7  8  1  0  0  0
  7 12  2  0  0  0
  8  9  2  0  0  0
  9 10  1  0  0  0
 10 13  1  0  0  0
 10 11  2  0  0  0
 13 14  1  0  0  0
 13 15  1  0  0  0
 13 16  1  0  0  0
 11 12  1  0  0  0
  4 17  1  0  0  0
  4  6  1  0  0  0
 17 18  1  0  0  0
 17 22  2  0  0  0
 18 19  2  0  0  0
 19 20  1  0  0  0
 20 21  2  0  0  0
 21 23  1  0  0  0
 21 22  1  0  0  0
 23 24  1  0  0  0
 24 25  1  0  0  0
 24 32  2  0  0  0
 25 26  2  0  0  0
 26 27  1  0  0  0
 27 28  2  0  0  0
 27 31  1  0  0  0
 28 29  1  0  0  0
 29 30  2  0  0  0
 30 31  1  0  0  0
 31 32  1  0  0  0
M  END
> <minimizedAffinity>
-10.30994

$$$$
