CHEMBL3690393


 31 35  0  0  0  0  0  0  0  0999 V2000
  -29.1902   -2.6084   -5.5716 C   0  0  0  0  0  0  0  0  0  0  0  0
  -29.0616   -1.2858   -5.1794 C   0  0  0  0  0  0  0  0  0  0  0  0
  -28.4400   -0.5188   -6.1294 N   0  0  0  0  0  0  0  0  0  0  0  0
  -28.1818   -1.3411   -7.1221 C   0  0  0  0  0  0  0  0  0  0  0  0
  -27.5651   -1.1052   -8.3854 C   0  0  0  0  0  0  0  0  0  0  0  0
  -27.4195   -2.1143   -9.2756 C   0  0  0  0  0  0  0  0  0  0  0  0
  -27.8950   -3.4541   -8.9512 C   0  0  0  0  0  0  0  0  0  0  0  0
  -28.5055   -3.6721   -7.7782 C   0  0  0  0  0  0  0  0  0  0  0  0
  -28.6335   -2.6322   -6.8515 N   0  0  0  0  0  0  0  0  0  0  0  0
  -26.8245   -1.8151  -10.5845 C   0  0  0  0  0  0  0  0  0  0  0  0
  -25.4822   -1.4270  -10.6796 C   0  0  0  0  0  0  0  0  0  0  0  0
  -24.9223   -1.1612  -11.9293 C   0  0  0  0  0  0  0  0  0  0  0  0
  -25.7027   -1.2924  -13.0733 C   0  0  0  0  0  0  0  0  0  0  0  0
  -25.1645   -1.0307  -14.2710 F   0  0  0  0  0  0  0  0  0  0  0  0
  -27.0319   -1.6930  -12.9948 C   0  0  0  0  0  0  0  0  0  0  0  0
  -27.5952   -1.9587  -11.7473 C   0  0  0  0  0  0  0  0  0  0  0  0
  -29.5523   -5.9078   -3.7330 C   0  0  0  0  0  0  0  0  0  0  0  0
  -30.9092   -5.8817   -3.4122 C   0  0  0  0  0  0  0  0  0  0  0  0
  -31.7194   -4.8442   -3.8643 C   0  0  0  0  0  0  0  0  0  0  0  0
  -31.1737   -3.8194   -4.6330 C   0  0  0  0  0  0  0  0  0  0  0  0
  -29.7955   -3.7535   -4.8753 C   0  0  0  0  0  0  0  0  0  0  0  0
  -28.9970   -4.8226   -4.4333 C   0  0  0  0  0  0  0  0  0  0  0  0
  -28.2990   -7.9457   -5.4758 O   0  0  0  0  0  0  0  0  0  0  0  0
  -28.1393   -7.9015   -4.2587 C   0  0  0  0  0  0  0  0  0  0  0  0
  -28.6951   -6.9788   -3.3911 N   0  0  0  0  0  0  0  0  0  0  0  0
  -27.3526   -8.8217   -3.5822 N   0  0  0  0  0  0  0  0  0  0  0  0
  -28.3438   -6.9833   -2.4491 H   0  0  0  0  0  0  0  0  0  0  0  0
  -27.1388   -8.6511   -2.6130 H   0  0  0  0  0  0  0  0  0  0  0  0
  -26.5751   -9.8054   -4.2739 C   0  0  0  0  0  0  0  0  0  0  0  0
  -25.8069  -10.8704   -3.5387 C   0  0  0  0  0  0  0  0  0  0  0  0
  -25.0733   -9.7415   -4.1998 C   0  0  0  0  0  0  0  0  0  0  0  0
 23 24  2  0  0  0
 24 25  1  0  0  0
 24 26  1  0  0  0
 25 17  1  0  0  0
 25 27  1  0  0  0
 17 18  1  0  0  0
 17 22  2  0  0  0
 18 19  2  0  0  0
 19 20  1  0  0  0
 20 21  2  0  0  0
 21  1  1  0  0  0
 21 22  1  0  0  0
  1  2  2  0  0  0
  1  9  1  0  0  0
  2  3  1  0  0  0
  3  4  2  0  0  0
  4  5  1  0  0  0
  4  9  1  0  0  0
  5  6  2  0  0  0
  6 10  1  0  0  0
  6  7  1  0  0  0
 10 11  1  0  0  0
 10 16  2  0  0  0
 11 12  2  0  0  0
 12 13  1  0  0  0
 13 14  1  0  0  0
 13 15  2  0  0  0
 15 16  1  0  0  0
  7  8  2  0  0  0
  8  9  1  0  0  0
 26 29  1  0  0  0
 26 28  1  0  0  0
 29 30  1  0  0  0
 29 31  1  0  0  0
 30 31  1  0  0  0
M  END
> <minimizedAffinity>
-9.78341

$$$$
