CHEMBL365377


 39 41  0  0  0  0  0  0  0  0999 V2000
  -30.0948   -5.0533   -4.3816 C   0  0  0  0  0  0  0  0  0  0  0  0
  -29.6422   -6.3005   -3.9620 C   0  0  0  0  0  0  0  0  0  0  0  0
  -29.2936   -7.2652   -4.8923 C   0  0  0  0  0  0  0  0  0  0  0  0
  -28.9167   -8.5033   -4.5276 N   0  0  0  0  0  0  0  0  0  0  0  0
  -28.7796   -9.4614   -5.4787 C   0  0  0  0  0  0  0  0  0  0  0  0
  -28.9293   -9.2356   -6.8671 C   0  0  0  0  0  0  0  0  0  0  0  0
  -29.2636   -7.9147   -7.2076 C   0  0  0  0  0  0  0  0  0  0  0  0
  -29.4155   -6.9203   -6.2407 C   0  0  0  0  0  0  0  0  0  0  0  0
  -29.7177   -5.6073   -6.5726 C   0  0  0  0  0  0  0  0  0  0  0  0
  -30.0642   -4.6773   -5.6703 N   0  0  0  0  0  0  0  0  0  0  0  0
  -28.6480  -10.2146   -7.9682 C   0  0  0  0  0  0  0  0  0  0  0  0
  -27.3451  -10.5678   -8.3940 C   0  0  0  0  0  0  0  0  0  0  0  0
  -25.9044  -10.0130   -7.6031 Cl  0  0  0  0  0  0  0  0  0  0  0  0
  -27.1230  -11.4650   -9.4527 C   0  0  0  0  0  0  0  0  0  0  0  0
  -28.1806  -12.1347  -10.0469 C   0  0  0  0  0  0  0  0  0  0  0  0
  -29.4739  -11.8668   -9.6221 C   0  0  0  0  0  0  0  0  0  0  0  0
  -29.7094  -10.8938   -8.6382 C   0  0  0  0  0  0  0  0  0  0  0  0
  -31.3971  -10.5826   -8.3399 Cl  0  0  0  0  0  0  0  0  0  0  0  0
  -28.5460  -10.7656   -5.0206 N   0  0  0  0  0  0  0  0  0  0  0  0
  -27.4498  -11.2884   -4.4072 C   0  0  0  0  0  0  0  0  0  0  0  0
  -27.5123  -12.4212   -3.9428 O   0  0  0  0  0  0  0  0  0  0  0  0
  -26.3096  -10.5565   -4.5122 N   0  0  0  0  0  0  0  0  0  0  0  0
  -29.3119  -11.4216   -5.0511 H   0  0  0  0  0  0  0  0  0  0  0  0
  -26.4721   -9.5568   -4.6032 H   0  0  0  0  0  0  0  0  0  0  0  0
  -24.9748  -11.0254   -4.1326 C   0  0  0  0  0  0  0  0  0  0  0  0
  -24.6392  -12.3467   -4.8502 C   0  0  0  0  0  0  0  0  0  0  0  0
  -23.9562   -9.9635   -4.5788 C   0  0  0  0  0  0  0  0  0  0  0  0
  -24.8672  -11.2128   -2.6131 C   0  0  0  0  0  0  0  0  0  0  0  0
  -30.6431   -4.1928   -3.4301 N   0  0  0  0  0  0  0  0  0  0  0  0
  -30.5069   -4.5844   -2.5030 H   0  0  0  0  0  0  0  0  0  0  0  0
  -30.2287   -2.7958   -3.5392 C   0  0  0  0  0  0  0  0  0  0  0  0
  -28.7281   -2.7096   -3.2590 C   0  0  0  0  0  0  0  0  0  0  0  0
  -27.9823   -1.7517   -4.1916 C   0  0  0  0  0  0  0  0  0  0  0  0
  -28.7951   -1.3108   -5.4175 C   0  0  0  0  0  0  0  0  0  0  0  0
  -28.0884   -0.3742   -6.3103 N   0  0  0  0  0  0  0  0  0  0  0  0
  -28.0169   -2.4757   -7.7179 C   0  0  0  0  0  0  0  0  0  0  0  0
  -27.8788   -0.9593   -7.6461 C   0  0  0  0  0  0  0  0  0  0  0  0
  -28.7429    0.9456   -6.3270 C   0  0  0  0  0  0  0  0  0  0  0  0
  -30.1125    1.0266   -5.6574 C   0  0  0  0  0  0  0  0  0  0  0  0
 36 37  1  0  0  0
 37 35  1  0  0  0
 35 38  1  0  0  0
 35 34  1  0  0  0
 38 39  1  0  0  0
 34 33  1  0  0  0
 33 32  1  0  0  0
 32 31  1  0  0  0
 31 29  1  0  0  0
 29  1  1  0  0  0
 29 30  1  0  0  0
  1  2  1  0  0  0
  1 10  2  0  0  0
  2  3  2  0  0  0
  3  4  1  0  0  0
  3  8  1  0  0  0
  4  5  2  0  0  0
  5 19  1  0  0  0
  5  6  1  0  0  0
 19 20  1  0  0  0
 19 23  1  0  0  0
 20 21  2  0  0  0
 20 22  1  0  0  0
 22 25  1  0  0  0
 22 24  1  0  0  0
 25 26  1  0  0  0
 25 27  1  0  0  0
 25 28  1  0  0  0
  6 11  1  0  0  0
  6  7  2  0  0  0
 11 12  1  0  0  0
 11 17  2  0  0  0
 12 13  1  0  0  0
 12 14  2  0  0  0
 14 15  1  0  0  0
 15 16  2  0  0  0
 16 17  1  0  0  0
 17 18  1  0  0  0
  7  8  1  0  0  0
  8  9  2  0  0  0
  9 10  1  0  0  0
M  END
> <minimizedAffinity>
-7.44892

$$$$
