CHEMBL371169


 31 34  0  0  0  0  0  0  0  0999 V2000
  -29.0419   -4.5550   -6.7627 C   0  0  0  0  0  0  0  0  0  0  0  0
  -29.2343   -4.7767   -5.3985 C   0  0  0  0  0  0  0  0  0  0  0  0
  -29.7628   -5.9038   -4.8656 N   0  0  0  0  0  0  0  0  0  0  0  0
  -30.0777   -6.8881   -5.7375 C   0  0  0  0  0  0  0  0  0  0  0  0
  -29.8886   -6.8246   -7.1185 C   0  0  0  0  0  0  0  0  0  0  0  0
  -29.3812   -5.6206   -7.6159 C   0  0  0  0  0  0  0  0  0  0  0  0
  -28.0581   -1.9569   -9.1208 C   0  0  0  0  0  0  0  0  0  0  0  0
  -27.5557   -0.9789   -8.2613 C   0  0  0  0  0  0  0  0  0  0  0  0
  -27.5057   -1.1108   -6.9130 N   0  0  0  0  0  0  0  0  0  0  0  0
  -27.9837   -2.2848   -6.4383 C   0  0  0  0  0  0  0  0  0  0  0  0
  -28.4807   -3.2922   -7.2582 C   0  0  0  0  0  0  0  0  0  0  0  0
  -28.4965   -3.1276   -8.6046 N   0  0  0  0  0  0  0  0  0  0  0  0
  -28.1277   -1.7159  -10.5051 N   0  0  0  0  0  0  0  0  0  0  0  0
  -29.0489   -1.8331  -10.9063 H   0  0  0  0  0  0  0  0  0  0  0  0
  -23.0830   -1.7437  -11.4025 Cl  0  0  0  0  0  0  0  0  0  0  0  0
  -24.7131   -1.7322  -11.9565 C   0  0  0  0  0  0  0  0  0  0  0  0
  -24.9717   -1.7078  -13.3237 C   0  0  0  0  0  0  0  0  0  0  0  0
  -26.2886   -1.7056  -13.7687 C   0  0  0  0  0  0  0  0  0  0  0  0
  -27.3354   -1.7124  -12.8446 C   0  0  0  0  0  0  0  0  0  0  0  0
  -27.0947   -1.7013  -11.4641 C   0  0  0  0  0  0  0  0  0  0  0  0
  -25.7609   -1.7394  -11.0314 C   0  0  0  0  0  0  0  0  0  0  0  0
  -30.1652   -7.9402   -7.9047 N   0  0  0  0  0  0  0  0  0  0  0  0
  -29.3248   -8.4653   -8.1450 H   0  0  0  0  0  0  0  0  0  0  0  0
  -31.3414   -8.7586   -7.6546 C   0  0  0  0  0  0  0  0  0  0  0  0
  -31.1648  -10.1055   -8.3504 C   0  0  0  0  0  0  0  0  0  0  0  0
  -29.7504  -10.6310   -8.1392 C   0  0  0  0  0  0  0  0  0  0  0  0
  -28.8675  -10.2916   -9.2359 N   0  0  0  0  0  0  0  0  0  0  0  0
  -29.0105  -10.6479  -10.5479 C   0  0  0  0  0  0  0  0  0  0  0  0
  -27.9154  -10.1454  -11.1996 C   0  0  0  0  0  0  0  0  0  0  0  0
  -27.1656   -9.4999  -10.1950 C   0  0  0  0  0  0  0  0  0  0  0  0
  -27.7473   -9.5856   -8.9971 N   0  0  0  0  0  0  0  0  0  0  0  0
 15 16  1  0  0  0
 16 17  1  0  0  0
 16 21  2  0  0  0
 17 18  2  0  0  0
 18 19  1  0  0  0
 19 20  2  0  0  0
 20 13  1  0  0  0
 20 21  1  0  0  0
 13  7  1  0  0  0
 13 14  1  0  0  0
  7  8  1  0  0  0
  7 12  2  0  0  0
  8  9  2  0  0  0
  9 10  1  0  0  0
 10 11  2  0  0  0
 11  1  1  0  0  0
 11 12  1  0  0  0
  1  2  1  0  0  0
  1  6  2  0  0  0
  2  3  2  0  0  0
  3  4  1  0  0  0
  4  5  2  0  0  0
  5 22  1  0  0  0
  5  6  1  0  0  0
 22 24  1  0  0  0
 22 23  1  0  0  0
 24 25  1  0  0  0
 25 26  1  0  0  0
 26 27  1  0  0  0
 27 28  1  0  0  0
 27 31  1  0  0  0
 28 29  2  0  0  0
 29 30  1  0  0  0
 30 31  2  0  0  0
M  END
> <minimizedAffinity>
-8.36405

$$$$
