CHEMBL3950471


 33 37  0  0  0  0  0  0  0  0999 V2000
  -25.1182   -1.0316  -12.1827 C   0  0  0  0  0  0  0  0  0  0  0  0
  -25.8605   -1.4601  -13.2960 C   0  0  0  0  0  0  0  0  0  0  0  0
  -27.1708   -1.8915  -13.1630 C   0  0  0  0  0  0  0  0  0  0  0  0
  -27.7662   -1.9306  -11.9026 C   0  0  0  0  0  0  0  0  0  0  0  0
  -27.0850   -1.5656  -10.7136 C   0  0  0  0  0  0  0  0  0  0  0  0
  -25.7506   -1.0765  -10.8978 C   0  0  0  0  0  0  0  0  0  0  0  0
  -27.7563   -1.6951   -9.4570 N   0  0  0  0  0  0  0  0  0  0  0  0
  -27.4016   -0.8519   -8.3070 C   0  0  0  0  0  0  0  0  0  0  0  0
  -28.1996   -1.0770   -6.9832 C   0  0  0  0  0  0  0  0  0  0  0  0
  -28.7791   -2.4506   -6.7205 C   0  0  0  0  0  0  0  0  0  0  0  0
  -28.8354   -3.3213   -7.8007 C   0  0  0  0  0  0  0  0  0  0  0  0
  -29.4501   -4.5533   -7.5980 C   0  0  0  0  0  0  0  0  0  0  0  0
  -30.1144   -4.9156   -6.4823 N   0  0  0  0  0  0  0  0  0  0  0  0
  -30.1049   -4.0799   -5.4514 C   0  0  0  0  0  0  0  0  0  0  0  0
  -30.8404   -4.4700   -4.3357 C   0  0  0  0  0  0  0  0  0  0  0  0
  -30.7945   -3.7617   -3.1388 C   0  0  0  0  0  0  0  0  0  0  0  0
  -29.9958   -2.6295   -3.0722 C   0  0  0  0  0  0  0  0  0  0  0  0
  -29.3265   -2.1624   -4.2122 C   0  0  0  0  0  0  0  0  0  0  0  0
  -29.3799   -2.8542   -5.4572 C   0  0  0  0  0  0  0  0  0  0  0  0
  -28.3309   -3.0282   -9.1861 C   0  0  0  0  0  0  0  0  0  0  0  0
  -23.4740    0.2998  -13.5663 N   0  0  0  0  0  0  0  0  0  0  0  0
  -23.6842   -0.5878  -12.5202 C   0  0  0  0  0  0  0  0  0  0  0  0
  -22.7726   -1.0529  -11.8396 O   0  0  0  0  0  0  0  0  0  0  0  0
  -24.2832    0.6147  -14.0762 H   0  0  0  0  0  0  0  0  0  0  0  0
  -19.6585    1.6768  -15.0706 C   0  0  0  0  0  0  0  0  0  0  0  0
  -20.4936    2.5439  -14.3455 C   0  0  0  0  0  0  0  0  0  0  0  0
  -21.7482    2.1243  -13.8360 C   0  0  0  0  0  0  0  0  0  0  0  0
  -22.2191    0.8201  -14.0340 C   0  0  0  0  0  0  0  0  0  0  0  0
  -21.3825   -0.0402  -14.7617 C   0  0  0  0  0  0  0  0  0  0  0  0
  -20.1310    0.3765  -15.2744 C   0  0  0  0  0  0  0  0  0  0  0  0
  -18.0598    3.6919  -15.4316 C   0  0  0  0  0  0  0  0  0  0  0  0
  -18.3236    2.1895  -15.6147 C   0  0  0  0  0  0  0  0  0  0  0  0
  -17.1416    1.4035  -15.0336 C   0  0  0  0  0  0  0  0  0  0  0  0
 31 32  1  0  0  0
 32 33  1  0  0  0
 32 25  1  0  0  0
 25 26  1  0  0  0
 25 30  2  0  0  0
 26 27  2  0  0  0
 27 28  1  0  0  0
 28 21  1  0  0  0
 28 29  2  0  0  0
 21 22  1  0  0  0
 21 24  1  0  0  0
 22 23  2  0  0  0
 22  1  1  0  0  0
  1  2  1  0  0  0
  1  6  2  0  0  0
  2  3  2  0  0  0
  3  4  1  0  0  0
  4  5  2  0  0  0
  5  7  1  0  0  0
  5  6  1  0  0  0
  7  8  1  0  0  0
  7 20  1  0  0  0
  8  9  1  0  0  0
  9 10  1  0  0  0
 10 11  1  0  0  0
 10 19  2  0  0  0
 11 12  2  0  0  0
 11 20  1  0  0  0
 12 13  1  0  0  0
 13 14  2  0  0  0
 14 15  1  0  0  0
 14 19  1  0  0  0
 15 16  2  0  0  0
 16 17  1  0  0  0
 17 18  2  0  0  0
 18 19  1  0  0  0
 29 30  1  0  0  0
M  END
> <minimizedAffinity>
-12.11928

$$$$
