CHEMBL196396


 28 30  0  0  0  0  0  0  0  0999 V2000
  -30.0797   -4.6906   -5.6685 C   0  0  0  0  0  0  0  0  0  0  0  0
  -30.0159   -5.8257   -4.8657 C   0  0  0  0  0  0  0  0  0  0  0  0
  -29.8878   -7.0990   -5.4351 C   0  0  0  0  0  0  0  0  0  0  0  0
  -29.8674   -7.2692   -6.8244 C   0  0  0  0  0  0  0  0  0  0  0  0
  -30.0707   -6.1387   -7.6216 C   0  0  0  0  0  0  0  0  0  0  0  0
  -30.1471   -4.8558   -7.0532 C   0  0  0  0  0  0  0  0  0  0  0  0
  -29.6110   -8.5936   -7.4107 C   0  0  0  0  0  0  0  0  0  0  0  0
  -28.3340   -8.9162   -7.8436 C   0  0  0  0  0  0  0  0  0  0  0  0
  -28.2261  -10.4703   -8.5303 S   0  0  0  0  0  0  0  0  0  0  0  0
  -29.8773  -10.7615   -8.2556 C   0  0  0  0  0  0  0  0  0  0  0  0
  -30.4016  -11.9435   -8.6187 N   0  0  0  0  0  0  0  0  0  0  0  0
  -31.7024  -12.0257   -8.3520 C   0  0  0  0  0  0  0  0  0  0  0  0
  -32.4807  -11.0799   -7.8132 N   0  0  0  0  0  0  0  0  0  0  0  0
  -31.9283   -9.8988   -7.4790 C   0  0  0  0  0  0  0  0  0  0  0  0
  -32.8274   -8.9618   -6.9815 N   0  0  0  0  0  0  0  0  0  0  0  0
  -30.5435   -9.6894   -7.6700 C   0  0  0  0  0  0  0  0  0  0  0  0
  -33.7752   -9.2864   -7.1431 H   0  0  0  0  0  0  0  0  0  0  0  0
  -32.6420   -8.0168   -7.2958 H   0  0  0  0  0  0  0  0  0  0  0  0
  -29.3178   -1.2900   -4.6364 N   0  0  0  0  0  0  0  0  0  0  0  0
  -29.0369   -2.4761   -5.2810 C   0  0  0  0  0  0  0  0  0  0  0  0
  -28.0002   -2.6441   -5.9084 O   0  0  0  0  0  0  0  0  0  0  0  0
  -30.0733   -3.3782   -5.1492 N   0  0  0  0  0  0  0  0  0  0  0  0
  -29.9422   -1.3375   -3.8443 H   0  0  0  0  0  0  0  0  0  0  0  0
  -30.9634   -2.9800   -4.8993 H   0  0  0  0  0  0  0  0  0  0  0  0
  -28.3637   -0.1988   -4.6826 C   0  0  0  0  0  0  0  0  0  0  0  0
  -28.3943    0.9125   -6.9551 C   0  0  0  0  0  0  0  0  0  0  0  0
  -28.8838    0.9897   -5.5073 C   0  0  0  0  0  0  0  0  0  0  0  0
  -30.4119    1.0295   -5.4717 C   0  0  0  0  0  0  0  0  0  0  0  0
 26 27  1  0  0  0
 27 28  1  0  0  0
 27 25  1  0  0  0
 25 19  1  0  0  0
 19 20  1  0  0  0
 19 23  1  0  0  0
 20 21  2  0  0  0
 20 22  1  0  0  0
 22  1  1  0  0  0
 22 24  1  0  0  0
  1  2  1  0  0  0
  1  6  2  0  0  0
  2  3  2  0  0  0
  3  4  1  0  0  0
  4  7  1  0  0  0
  4  5  2  0  0  0
  7  8  2  0  0  0
  7 16  1  0  0  0
  8  9  1  0  0  0
  9 10  1  0  0  0
 10 11  1  0  0  0
 10 16  2  0  0  0
 11 12  2  0  0  0
 12 13  1  0  0  0
 13 14  2  0  0  0
 14 15  1  0  0  0
 14 16  1  0  0  0
 15 17  1  0  0  0
 15 18  1  0  0  0
  5  6  1  0  0  0
M  END
> <minimizedAffinity>
-7.74440

$$$$
