CHEMBL491502


 31 34  0  0  0  0  0  0  0  0999 V2000
  -15.6940   -1.1146  -13.0009 N   0  0  0  0  0  0  0  0  0  0  0  0
  -15.5007   -0.6219  -14.2678 C   0  0  0  0  0  0  0  0  0  0  0  0
  -15.6468    0.7393  -14.1564 C   0  0  0  0  0  0  0  0  0  0  0  0
  -15.8526    1.0541  -12.8396 N   0  0  0  0  0  0  0  0  0  0  0  0
  -15.8850   -0.0797  -12.1441 N   0  0  0  0  0  0  0  0  0  0  0  0
  -15.5430   -4.1653  -10.8715 C   0  0  0  0  0  0  0  0  0  0  0  0
  -15.9149   -5.1510  -11.7864 C   0  0  0  0  0  0  0  0  0  0  0  0
  -16.2379   -4.7999  -13.0944 C   0  0  0  0  0  0  0  0  0  0  0  0
  -16.1654   -3.4666  -13.4992 C   0  0  0  0  0  0  0  0  0  0  0  0
  -15.7464   -2.4748  -12.5979 C   0  0  0  0  0  0  0  0  0  0  0  0
  -15.4121   -2.8352  -11.2849 C   0  0  0  0  0  0  0  0  0  0  0  0
  -15.2087   -4.4416   -9.5790 O   0  0  0  0  0  0  0  0  0  0  0  0
  -13.0259   -4.7839  -10.3353 F   0  0  0  0  0  0  0  0  0  0  0  0
  -13.8155   -4.4858   -9.2799 C   0  0  0  0  0  0  0  0  0  0  0  0
  -13.6003   -5.4162   -8.3246 F   0  0  0  0  0  0  0  0  0  0  0  0
  -13.4351   -3.2842   -8.7923 F   0  0  0  0  0  0  0  0  0  0  0  0
  -15.6097    1.6856  -15.2658 C   0  0  0  0  0  0  0  0  0  0  0  0
  -14.4397    1.7326  -16.0582 C   0  0  0  0  0  0  0  0  0  0  0  0
  -14.3165    2.6223  -17.1215 C   0  0  0  0  0  0  0  0  0  0  0  0
  -15.3654    3.4769  -17.4149 C   0  0  0  0  0  0  0  0  0  0  0  0
  -16.5352    3.4327  -16.6525 C   0  0  0  0  0  0  0  0  0  0  0  0
  -16.7030    2.5303  -15.5830 C   0  0  0  0  0  0  0  0  0  0  0  0
  -17.8468    2.5819  -14.7601 N   0  0  0  0  0  0  0  0  0  0  0  0
  -18.0291    1.6699  -14.3346 H   0  0  0  0  0  0  0  0  0  0  0  0
  -19.0787    3.1954  -15.2568 C   0  0  0  0  0  0  0  0  0  0  0  0
  -20.3223    2.4680  -14.7912 C   0  0  0  0  0  0  0  0  0  0  0  0
  -20.3683    1.0704  -14.8102 C   0  0  0  0  0  0  0  0  0  0  0  0
  -21.5327    0.4361  -14.4019 C   0  0  0  0  0  0  0  0  0  0  0  0
  -22.6342    1.0874  -13.9736 N   0  0  0  0  0  0  0  0  0  0  0  0
  -22.5633    2.4353  -13.9411 C   0  0  0  0  0  0  0  0  0  0  0  0
  -21.4442    3.1578  -14.3203 C   0  0  0  0  0  0  0  0  0  0  0  0
 13 14  1  0  0  0
 14 15  1  0  0  0
 14 16  1  0  0  0
 14 12  1  0  0  0
 12  6  1  0  0  0
  6  7  1  0  0  0
  6 11  2  0  0  0
  7  8  2  0  0  0
  8  9  1  0  0  0
  9 10  2  0  0  0
 10  1  1  0  0  0
 10 11  1  0  0  0
  1  2  1  0  0  0
  1  5  1  0  0  0
  2  3  2  0  0  0
  3 17  1  0  0  0
  3  4  1  0  0  0
 17 18  1  0  0  0
 17 22  2  0  0  0
 18 19  2  0  0  0
 19 20  1  0  0  0
 20 21  2  0  0  0
 21 22  1  0  0  0
 22 23  1  0  0  0
 23 25  1  0  0  0
 23 24  1  0  0  0
 25 26  1  0  0  0
 26 27  1  0  0  0
 26 31  2  0  0  0
 27 28  2  0  0  0
 28 29  1  0  0  0
 29 30  2  0  0  0
 30 31  1  0  0  0
  4  5  2  0  0  0
M  END
> <minimizedAffinity>
-9.23639

$$$$
