CHEMBL4290758


 26 29  0  0  0  0  0  0  0  0999 V2000
  -29.4621   -5.4798   -6.2102 C   0  0  0  0  0  0  0  0  0  0  0  0
  -28.9822   -5.9169   -5.0371 N   0  0  0  0  0  0  0  0  0  0  0  0
  -28.8204   -7.2507   -4.9181 C   0  0  0  0  0  0  0  0  0  0  0  0
  -29.1167   -8.1545   -5.9188 C   0  0  0  0  0  0  0  0  0  0  0  0
  -29.6382   -7.6018   -7.0773 C   0  0  0  0  0  0  0  0  0  0  0  0
  -29.7704   -6.2705   -7.2476 N   0  0  0  0  0  0  0  0  0  0  0  0
  -30.1745   -8.3812   -8.1127 N   0  0  0  0  0  0  0  0  0  0  0  0
  -31.0495   -9.3644   -7.8069 C   0  0  0  0  0  0  0  0  0  0  0  0
  -32.2476   -9.5042   -8.3765 N   0  0  0  0  0  0  0  0  0  0  0  0
  -32.8215  -10.4960   -7.6692 N   0  0  0  0  0  0  0  0  0  0  0  0
  -32.0317  -11.0041   -6.6740 C   0  0  0  0  0  0  0  0  0  0  0  0
  -32.4701  -12.0868   -5.7712 C   0  0  0  0  0  0  0  0  0  0  0  0
  -30.8600  -10.2978   -6.7632 C   0  0  0  0  0  0  0  0  0  0  0  0
  -29.7094  -10.5793   -6.0286 N   0  0  0  0  0  0  0  0  0  0  0  0
  -28.8916   -9.6134   -5.7157 C   0  0  0  0  0  0  0  0  0  0  0  0
  -30.5228   -7.7432   -8.8219 H   0  0  0  0  0  0  0  0  0  0  0  0
  -33.7656  -10.7735   -7.9183 H   0  0  0  0  0  0  0  0  0  0  0  0
  -27.5876  -10.0517   -5.0947 C   0  0  0  0  0  0  0  0  0  0  0  0
  -27.5312  -10.5697   -3.7921 C   0  0  0  0  0  0  0  0  0  0  0  0
  -26.3004  -10.8909   -3.2132 C   0  0  0  0  0  0  0  0  0  0  0  0
  -25.1185  -10.6806   -3.9226 C   0  0  0  0  0  0  0  0  0  0  0  0
  -25.1708  -10.1561   -5.2125 C   0  0  0  0  0  0  0  0  0  0  0  0
  -23.7087   -9.8801   -6.0776 Cl  0  0  0  0  0  0  0  0  0  0  0  0
  -26.3937   -9.8414   -5.8013 C   0  0  0  0  0  0  0  0  0  0  0  0
  -29.0382   -3.4601   -8.0005 C   0  0  0  0  0  0  0  0  0  0  0  0
  -29.7671   -3.7398   -6.3650 S   0  0  0  0  0  0  0  0  0  0  0  0
 25 26  1  0  0  0
 26  1  1  0  0  0
  1  2  1  0  0  0
  1  6  2  0  0  0
  2  3  2  0  0  0
  3  4  1  0  0  0
  4  5  2  0  0  0
  4 15  1  0  0  0
  5  6  1  0  0  0
  5  7  1  0  0  0
  7  8  1  0  0  0
  7 16  1  0  0  0
  8  9  2  0  0  0
  8 13  1  0  0  0
  9 10  1  0  0  0
 10 11  1  0  0  0
 10 17  1  0  0  0
 11 12  1  0  0  0
 11 13  2  0  0  0
 13 14  1  0  0  0
 14 15  2  0  0  0
 15 18  1  0  0  0
 18 19  1  0  0  0
 18 24  2  0  0  0
 19 20  2  0  0  0
 20 21  1  0  0  0
 21 22  2  0  0  0
 22 23  1  0  0  0
 22 24  1  0  0  0
M  END
> <minimizedAffinity>
-7.04024

$$$$
