CHEMBL371889


 33 36  0  0  0  0  0  0  0  0999 V2000
  -28.3694   -2.2844   -8.3213 C   0  0  0  0  0  0  0  0  0  0  0  0
  -27.8766   -2.2728   -7.0160 C   0  0  0  0  0  0  0  0  0  0  0  0
  -28.1238   -3.3186   -6.1325 C   0  0  0  0  0  0  0  0  0  0  0  0
  -29.0128   -4.3395   -6.4571 C   0  0  0  0  0  0  0  0  0  0  0  0
  -29.6326   -4.2736   -7.7153 C   0  0  0  0  0  0  0  0  0  0  0  0
  -29.2819   -3.2835   -8.6586 C   0  0  0  0  0  0  0  0  0  0  0  0
  -29.2449   -5.4431   -5.5054 C   0  0  0  0  0  0  0  0  0  0  0  0
  -29.7411   -5.2103   -4.2170 C   0  0  0  0  0  0  0  0  0  0  0  0
  -30.1758   -3.9614   -3.5040 C   0  0  0  0  0  0  0  0  0  0  0  0
  -29.8449   -6.6524   -3.2970 S   0  0  0  0  0  0  0  0  0  0  0  0
  -29.2821   -7.5994   -4.5779 C   0  0  0  0  0  0  0  0  0  0  0  0
  -29.1755   -8.9262   -4.4020 N   0  0  0  0  0  0  0  0  0  0  0  0
  -28.7148   -9.5468   -5.4825 C   0  0  0  0  0  0  0  0  0  0  0  0
  -28.3510   -8.9874   -6.6411 N   0  0  0  0  0  0  0  0  0  0  0  0
  -28.4525   -7.6511   -6.7774 C   0  0  0  0  0  0  0  0  0  0  0  0
  -27.9997   -7.1662   -7.9999 N   0  0  0  0  0  0  0  0  0  0  0  0
  -28.9656   -6.8697   -5.7154 C   0  0  0  0  0  0  0  0  0  0  0  0
  -27.5021   -7.9058   -8.4855 H   0  0  0  0  0  0  0  0  0  0  0  0
  -27.4924   -6.2936   -7.9227 H   0  0  0  0  0  0  0  0  0  0  0  0
  -26.6780   -0.5906  -11.1012 N   0  0  0  0  0  0  0  0  0  0  0  0
  -27.0410   -1.6506  -10.2966 C   0  0  0  0  0  0  0  0  0  0  0  0
  -26.5910   -2.7837  -10.4544 O   0  0  0  0  0  0  0  0  0  0  0  0
  -27.9437   -1.3390   -9.2970 N   0  0  0  0  0  0  0  0  0  0  0  0
  -26.8657    0.3358  -10.7525 H   0  0  0  0  0  0  0  0  0  0  0  0
  -28.5155   -0.5203   -9.4348 H   0  0  0  0  0  0  0  0  0  0  0  0
  -23.4797   -0.2992  -12.9928 C   0  0  0  0  0  0  0  0  0  0  0  0
  -23.7396   -1.0911  -14.1127 C   0  0  0  0  0  0  0  0  0  0  0  0
  -24.9950   -1.6567  -14.2825 C   0  0  0  0  0  0  0  0  0  0  0  0
  -25.9834   -1.4436  -13.3253 C   0  0  0  0  0  0  0  0  0  0  0  0
  -25.7294   -0.7089  -12.1599 C   0  0  0  0  0  0  0  0  0  0  0  0
  -24.4780   -0.1025  -12.0230 C   0  0  0  0  0  0  0  0  0  0  0  0
  -21.6098    0.8837  -13.8563 C   0  0  0  0  0  0  0  0  0  0  0  0
  -22.2825    0.3173  -12.7335 O   0  0  0  0  0  0  0  0  0  0  0  0
 32 33  1  0  0  0
 33 26  1  0  0  0
 26 27  1  0  0  0
 26 31  2  0  0  0
 27 28  2  0  0  0
 28 29  1  0  0  0
 29 30  2  0  0  0
 30 20  1  0  0  0
 30 31  1  0  0  0
 20 21  1  0  0  0
 20 24  1  0  0  0
 21 22  2  0  0  0
 21 23  1  0  0  0
 23  1  1  0  0  0
 23 25  1  0  0  0
  1  2  1  0  0  0
  1  6  2  0  0  0
  2  3  2  0  0  0
  3  4  1  0  0  0
  4  7  1  0  0  0
  4  5  2  0  0  0
  7  8  2  0  0  0
  7 17  1  0  0  0
  8  9  1  0  0  0
  8 10  1  0  0  0
 10 11  1  0  0  0
 11 12  1  0  0  0
 11 17  2  0  0  0
 12 13  2  0  0  0
 13 14  1  0  0  0
 14 15  2  0  0  0
 15 16  1  0  0  0
 15 17  1  0  0  0
 16 18  1  0  0  0
 16 19  1  0  0  0
  5  6  1  0  0  0
M  END
> <minimizedAffinity>
-8.60524

$$$$
