CHEMBL3323605


 29 33  0  0  0  0  0  0  0  0999 V2000
  -23.3664    0.1684  -13.4326 C   0  0  0  0  0  0  0  0  0  0  0  0
  -24.3879   -0.2822  -14.1394 N   0  0  0  0  0  0  0  0  0  0  0  0
  -25.2061   -0.9366  -13.2527 C   0  0  0  0  0  0  0  0  0  0  0  0
  -26.4265   -1.5916  -13.4636 C   0  0  0  0  0  0  0  0  0  0  0  0
  -27.0581   -2.1987  -12.3673 C   0  0  0  0  0  0  0  0  0  0  0  0
  -26.5042   -2.1464  -11.0793 C   0  0  0  0  0  0  0  0  0  0  0  0
  -25.2697   -1.5099  -10.8711 C   0  0  0  0  0  0  0  0  0  0  0  0
  -24.6677   -0.9084  -11.9765 C   0  0  0  0  0  0  0  0  0  0  0  0
  -23.5006   -0.2066  -12.1158 N   0  0  0  0  0  0  0  0  0  0  0  0
  -22.8364   -0.0169  -11.3819 H   0  0  0  0  0  0  0  0  0  0  0  0
  -18.4629    3.2126  -15.5690 Br  0  0  0  0  0  0  0  0  0  0  0  0
  -19.9766    2.2865  -14.9195 C   0  0  0  0  0  0  0  0  0  0  0  0
  -21.0207    2.9967  -14.3308 C   0  0  0  0  0  0  0  0  0  0  0  0
  -22.1390    2.3124  -13.8449 C   0  0  0  0  0  0  0  0  0  0  0  0
  -22.2184    0.9150  -13.9452 C   0  0  0  0  0  0  0  0  0  0  0  0
  -21.1643    0.2200  -14.5545 C   0  0  0  0  0  0  0  0  0  0  0  0
  -20.0430    0.9005  -15.0355 C   0  0  0  0  0  0  0  0  0  0  0  0
  -27.1817   -2.8068  -10.0258 N   0  0  0  0  0  0  0  0  0  0  0  0
  -26.8584   -3.7653   -9.9650 H   0  0  0  0  0  0  0  0  0  0  0  0
  -27.6098   -2.2622   -8.7849 C   0  0  0  0  0  0  0  0  0  0  0  0
  -27.4358   -0.8943   -8.5438 C   0  0  0  0  0  0  0  0  0  0  0  0
  -27.9124   -0.3529   -7.3697 C   0  0  0  0  0  0  0  0  0  0  0  0
  -28.5705   -1.0616   -6.4361 N   0  0  0  0  0  0  0  0  0  0  0  0
  -28.7773   -2.3671   -6.6641 C   0  0  0  0  0  0  0  0  0  0  0  0
  -29.4949   -3.0754   -5.7105 C   0  0  0  0  0  0  0  0  0  0  0  0
  -29.7612   -4.4381   -5.8449 C   0  0  0  0  0  0  0  0  0  0  0  0
  -29.2893   -5.1203   -6.9548 C   0  0  0  0  0  0  0  0  0  0  0  0
  -28.5716   -4.4310   -7.9331 C   0  0  0  0  0  0  0  0  0  0  0  0
  -28.3112   -3.0398   -7.8202 C   0  0  0  0  0  0  0  0  0  0  0  0
 11 12  1  0  0  0
 12 13  1  0  0  0
 12 17  2  0  0  0
 13 14  2  0  0  0
 14 15  1  0  0  0
 15  1  1  0  0  0
 15 16  2  0  0  0
  1  2  2  0  0  0
  1  9  1  0  0  0
  2  3  1  0  0  0
  3  4  1  0  0  0
  3  8  2  0  0  0
  4  5  2  0  0  0
  5  6  1  0  0  0
  6 18  1  0  0  0
  6  7  2  0  0  0
 18 20  1  0  0  0
 18 19  1  0  0  0
 20 21  1  0  0  0
 20 29  2  0  0  0
 21 22  2  0  0  0
 22 23  1  0  0  0
 23 24  2  0  0  0
 24 25  1  0  0  0
 24 29  1  0  0  0
 25 26  2  0  0  0
 26 27  1  0  0  0
 27 28  2  0  0  0
 28 29  1  0  0  0
  7  8  1  0  0  0
  8  9  1  0  0  0
  9 10  1  0  0  0
 16 17  1  0  0  0
M  END
> <minimizedAffinity>
-10.85204

$$$$
