CHEMBL3922418


 30 33  0  0  0  0  0  0  0  0999 V2000
  -17.1907    1.8418  -15.6128 C   0  0  0  0  0  0  0  0  0  0  0  0
  -17.5305    3.1670  -15.9110 C   0  0  0  0  0  0  0  0  0  0  0  0
  -18.7969    3.6712  -15.5926 C   0  0  0  0  0  0  0  0  0  0  0  0
  -19.7675    2.8690  -15.0083 C   0  0  0  0  0  0  0  0  0  0  0  0
  -20.9641    3.3836  -14.6698 N   0  0  0  0  0  0  0  0  0  0  0  0
  -21.8622    2.5138  -14.1396 C   0  0  0  0  0  0  0  0  0  0  0  0
  -21.5972    1.1636  -13.9645 C   0  0  0  0  0  0  0  0  0  0  0  0
  -20.3844    0.6559  -14.2711 N   0  0  0  0  0  0  0  0  0  0  0  0
  -19.4706    1.5078  -14.7792 C   0  0  0  0  0  0  0  0  0  0  0  0
  -18.2045    1.0290  -15.0789 C   0  0  0  0  0  0  0  0  0  0  0  0
  -22.6009    0.2237  -13.5157 C   0  0  0  0  0  0  0  0  0  0  0  0
  -22.8122   -0.3923  -12.2570 C   0  0  0  0  0  0  0  0  0  0  0  0
  -23.9084   -1.1559  -12.2296 N   0  0  0  0  0  0  0  0  0  0  0  0
  -24.4112   -1.0273  -13.4703 N   0  0  0  0  0  0  0  0  0  0  0  0
  -25.6586   -1.6662  -13.8157 C   0  0  0  0  0  0  0  0  0  0  0  0
  -23.6573   -0.2302  -14.2812 C   0  0  0  0  0  0  0  0  0  0  0  0
  -15.8618    1.3703  -15.7875 N   0  0  0  0  0  0  0  0  0  0  0  0
  -14.9708    1.7038  -16.8573 C   0  0  0  0  0  0  0  0  0  0  0  0
  -14.6102    0.7206  -17.8052 C   0  0  0  0  0  0  0  0  0  0  0  0
  -13.7486    0.9779  -18.8781 C   0  0  0  0  0  0  0  0  0  0  0  0
  -13.2923    2.2710  -19.0893 C   0  0  0  0  0  0  0  0  0  0  0  0
  -13.6207    3.2887  -18.1886 C   0  0  0  0  0  0  0  0  0  0  0  0
  -14.3853    2.9936  -17.0376 C   0  0  0  0  0  0  0  0  0  0  0  0
  -14.3627    4.1482  -15.7294 Cl  0  0  0  0  0  0  0  0  0  0  0  0
  -13.4335   -0.1206  -19.6312 O   0  0  0  0  0  0  0  0  0  0  0  0
  -13.4603   -1.3828  -18.9741 C   0  0  0  0  0  0  0  0  0  0  0  0
  -13.0147    4.4899  -18.4759 O   0  0  0  0  0  0  0  0  0  0  0  0
  -13.8031    5.4191  -19.2193 C   0  0  0  0  0  0  0  0  0  0  0  0
  -14.1240    1.2335  -14.0076 C   0  0  0  0  0  0  0  0  0  0  0  0
  -15.3314    0.5685  -14.6581 C   0  0  0  0  0  0  0  0  0  0  0  0
 29 30  1  0  0  0
 30 17  1  0  0  0
 17  1  1  0  0  0
 17 18  1  0  0  0
  1  2  1  0  0  0
  1 10  2  0  0  0
  2  3  2  0  0  0
  3  4  1  0  0  0
  4  5  1  0  0  0
  4  9  2  0  0  0
  5  6  2  0  0  0
  6  7  1  0  0  0
  7 11  1  0  0  0
  7  8  2  0  0  0
 11 12  1  0  0  0
 11 16  2  0  0  0
 12 13  2  0  0  0
 13 14  1  0  0  0
 14 15  1  0  0  0
 14 16  1  0  0  0
  8  9  1  0  0  0
  9 10  1  0  0  0
 18 19  1  0  0  0
 18 23  2  0  0  0
 19 20  2  0  0  0
 20 25  1  0  0  0
 20 21  1  0  0  0
 25 26  1  0  0  0
 21 22  2  0  0  0
 22 27  1  0  0  0
 22 23  1  0  0  0
 27 28  1  0  0  0
 23 24  1  0  0  0
M  END
> <minimizedAffinity>
-8.23413

$$$$
