CHEMBL3288514


 35 39  0  0  0  0  0  0  0  0999 V2000
  -29.3293   -6.5288   -7.0064 C   0  0  0  0  0  0  0  0  0  0  0  0
  -28.4934   -6.1839   -8.0776 C   0  0  0  0  0  0  0  0  0  0  0  0
  -28.0705   -4.8635   -8.2924 C   0  0  0  0  0  0  0  0  0  0  0  0
  -28.5665   -3.7867   -7.5204 C   0  0  0  0  0  0  0  0  0  0  0  0
  -28.2998   -2.4013   -7.7316 C   0  0  0  0  0  0  0  0  0  0  0  0
  -28.8628   -1.4291   -6.8798 C   0  0  0  0  0  0  0  0  0  0  0  0
  -29.6868   -1.7995   -5.8241 C   0  0  0  0  0  0  0  0  0  0  0  0
  -29.9382   -3.1450   -5.5948 C   0  0  0  0  0  0  0  0  0  0  0  0
  -29.3902   -4.1362   -6.4236 C   0  0  0  0  0  0  0  0  0  0  0  0
  -29.6793   -5.4821   -6.1469 C   0  0  0  0  0  0  0  0  0  0  0  0
  -27.2836   -7.7509   -4.5429 N   0  0  0  0  0  0  0  0  0  0  0  0
  -28.0459   -8.7980   -4.8964 C   0  0  0  0  0  0  0  0  0  0  0  0
  -27.8396   -9.9799   -4.3239 N   0  0  0  0  0  0  0  0  0  0  0  0
  -28.7824  -10.7584   -4.8559 N   0  0  0  0  0  0  0  0  0  0  0  0
  -29.5968  -10.1282   -5.7548 C   0  0  0  0  0  0  0  0  0  0  0  0
  -30.6884  -10.6273   -6.4694 C   0  0  0  0  0  0  0  0  0  0  0  0
  -31.3296   -9.7580   -7.3386 C   0  0  0  0  0  0  0  0  0  0  0  0
  -30.8748   -8.4509   -7.4948 C   0  0  0  0  0  0  0  0  0  0  0  0
  -29.7671   -7.9262   -6.7756 C   0  0  0  0  0  0  0  0  0  0  0  0
  -29.1226   -8.8147   -5.8530 C   0  0  0  0  0  0  0  0  0  0  0  0
  -26.6716   -7.9150   -3.7508 H   0  0  0  0  0  0  0  0  0  0  0  0
  -27.6878   -6.8220   -4.5420 H   0  0  0  0  0  0  0  0  0  0  0  0
  -28.8272  -11.7260   -4.5581 H   0  0  0  0  0  0  0  0  0  0  0  0
  -27.4058   -1.8467   -8.7917 C   0  0  0  0  0  0  0  0  0  0  0  0
  -26.7756   -0.8250   -8.5248 O   0  0  0  0  0  0  0  0  0  0  0  0
  -27.3856   -2.5048  -10.0073 N   0  0  0  0  0  0  0  0  0  0  0  0
  -27.9761   -3.3189  -10.1204 H   0  0  0  0  0  0  0  0  0  0  0  0
  -26.6220   -2.1615  -11.1471 C   0  0  0  0  0  0  0  0  0  0  0  0
  -25.2384   -1.9575  -11.1332 C   0  0  0  0  0  0  0  0  0  0  0  0
  -24.5742   -1.5615  -12.2991 C   0  0  0  0  0  0  0  0  0  0  0  0
  -25.2871   -1.3873  -13.4795 C   0  0  0  0  0  0  0  0  0  0  0  0
  -24.6443   -0.9914  -14.5853 F   0  0  0  0  0  0  0  0  0  0  0  0
  -26.6550   -1.6136  -13.5265 C   0  0  0  0  0  0  0  0  0  0  0  0
  -27.3084   -1.9936  -12.3595 C   0  0  0  0  0  0  0  0  0  0  0  0
  -28.6321   -2.2206  -12.4038 F   0  0  0  0  0  0  0  0  0  0  0  0
 11 12  1  0  0  0
 11 21  1  0  0  0
 11 22  1  0  0  0
 12 13  2  0  0  0
 12 20  1  0  0  0
 13 14  1  0  0  0
 14 15  1  0  0  0
 14 23  1  0  0  0
 15 16  1  0  0  0
 15 20  2  0  0  0
 16 17  2  0  0  0
 17 18  1  0  0  0
 18 19  2  0  0  0
 19  1  1  0  0  0
 19 20  1  0  0  0
  1  2  1  0  0  0
  1 10  2  0  0  0
  2  3  2  0  0  0
  3  4  1  0  0  0
  4  5  1  0  0  0
  4  9  2  0  0  0
  5 24  1  0  0  0
  5  6  2  0  0  0
 24 25  2  0  0  0
 24 26  1  0  0  0
 26 28  1  0  0  0
 26 27  1  0  0  0
 28 29  1  0  0  0
 28 34  2  0  0  0
 29 30  2  0  0  0
 30 31  1  0  0  0
 31 32  1  0  0  0
 31 33  2  0  0  0
 33 34  1  0  0  0
 34 35  1  0  0  0
  6  7  1  0  0  0
  7  8  2  0  0  0
  8  9  1  0  0  0
  9 10  1  0  0  0
M  END
> <minimizedAffinity>
-9.74580

$$$$
