CHEMBL3896720


 34 38  0  0  0  0  0  0  0  0999 V2000
  -28.4113   -9.2867   -4.9268 N   0  0  0  0  0  0  0  0  0  0  0  0
  -28.7708   -7.9070   -5.1947 C   0  0  0  0  0  0  0  0  0  0  0  0
  -29.5720   -7.7478   -6.3269 C   0  0  0  0  0  0  0  0  0  0  0  0
  -29.5067   -6.5917   -7.0566 C   0  0  0  0  0  0  0  0  0  0  0  0
  -28.8356   -5.4722   -6.6175 C   0  0  0  0  0  0  0  0  0  0  0  0
  -28.7359   -4.5200   -7.5382 N   0  0  0  0  0  0  0  0  0  0  0  0
  -28.3696   -3.3120   -7.1138 C   0  0  0  0  0  0  0  0  0  0  0  0
  -28.1924   -3.0259   -5.7688 C   0  0  0  0  0  0  0  0  0  0  0  0
  -28.1030   -4.0695   -4.8490 N   0  0  0  0  0  0  0  0  0  0  0  0
  -28.3758   -5.3839   -5.2850 C   0  0  0  0  0  0  0  0  0  0  0  0
  -28.2618   -6.6979   -4.6182 C   0  0  0  0  0  0  0  0  0  0  0  0
  -28.4490   -1.6258   -5.4242 C   0  0  0  0  0  0  0  0  0  0  0  0
  -27.6052   -0.5411   -5.0872 C   0  0  0  0  0  0  0  0  0  0  0  0
  -28.2246    0.6467   -5.1292 N   0  0  0  0  0  0  0  0  0  0  0  0
  -29.4776    0.3446   -5.5134 N   0  0  0  0  0  0  0  0  0  0  0  0
  -30.5038    1.3630   -5.5686 C   0  0  0  0  0  0  0  0  0  0  0  0
  -29.6241   -0.9818   -5.8088 C   0  0  0  0  0  0  0  0  0  0  0  0
  -24.6945   -9.9906   -4.9371 C   0  0  0  0  0  0  0  0  0  0  0  0
  -24.5849  -10.8508   -3.8436 C   0  0  0  0  0  0  0  0  0  0  0  0
  -25.7283  -11.2329   -3.1492 C   0  0  0  0  0  0  0  0  0  0  0  0
  -26.9822  -10.7579   -3.5549 C   0  0  0  0  0  0  0  0  0  0  0  0
  -27.1554   -9.9044   -4.6596 C   0  0  0  0  0  0  0  0  0  0  0  0
  -25.9765   -9.5379   -5.3499 C   0  0  0  0  0  0  0  0  0  0  0  0
  -22.7002  -10.4646   -6.1867 C   0  0  0  0  0  0  0  0  0  0  0  0
  -23.6100   -9.5050   -5.6351 O   0  0  0  0  0  0  0  0  0  0  0  0
  -25.7512  -12.0242   -2.0314 O   0  0  0  0  0  0  0  0  0  0  0  0
  -24.5272  -12.1784   -1.3210 C   0  0  0  0  0  0  0  0  0  0  0  0
  -29.4628  -10.1939   -5.5666 C   0  0  0  0  0  0  0  0  0  0  0  0
  -28.9640  -11.2573   -6.5672 C   0  0  0  0  0  0  0  0  0  0  0  0
  -28.8689  -10.7039   -7.9271 N   0  0  0  0  0  0  0  0  0  0  0  0
  -27.7192  -10.2254   -8.5086 C   0  0  0  0  0  0  0  0  0  0  0  0
  -28.0210   -9.7813   -9.7761 C   0  0  0  0  0  0  0  0  0  0  0  0
  -29.4032  -10.0042   -9.9797 C   0  0  0  0  0  0  0  0  0  0  0  0
  -29.8991  -10.5841   -8.8292 C   0  0  0  0  0  0  0  0  0  0  0  0
 24 25  1  0  0  0
 25 18  1  0  0  0
 18 19  1  0  0  0
 18 23  2  0  0  0
 19 20  2  0  0  0
 20 26  1  0  0  0
 20 21  1  0  0  0
 26 27  1  0  0  0
 21 22  2  0  0  0
 22  1  1  0  0  0
 22 23  1  0  0  0
  1 28  1  0  0  0
  1  2  1  0  0  0
 28 29  1  0  0  0
 29 30  1  0  0  0
 30 31  1  0  0  0
 30 34  1  0  0  0
 31 32  2  0  0  0
 32 33  1  0  0  0
 33 34  2  0  0  0
  2  3  1  0  0  0
  2 11  2  0  0  0
  3  4  2  0  0  0
  4  5  1  0  0  0
  5  6  1  0  0  0
  5 10  2  0  0  0
  6  7  2  0  0  0
  7  8  1  0  0  0
  8 12  1  0  0  0
  8  9  2  0  0  0
 12 13  1  0  0  0
 12 17  2  0  0  0
 13 14  2  0  0  0
 14 15  1  0  0  0
 15 16  1  0  0  0
 15 17  1  0  0  0
  9 10  1  0  0  0
 10 11  1  0  0  0
M  END
> <minimizedAffinity>
-7.69818

$$$$
