CHEMBL3983962


 33 36  0  0  0  0  0  0  0  0999 V2000
  -17.1550    1.0331  -15.7841 O   0  0  0  0  0  0  0  0  0  0  0  0
  -13.2809    3.5468  -15.2741 C   0  0  0  0  0  0  0  0  0  0  0  0
  -13.0130    2.7225  -14.1996 C   0  0  0  0  0  0  0  0  0  0  0  0
  -14.0322    1.7609  -13.9754 C   0  0  0  0  0  0  0  0  0  0  0  0
  -13.9900    0.8147  -13.0014 N   0  0  0  0  0  0  0  0  0  0  0  0
  -15.0580    0.0049  -12.9306 C   0  0  0  0  0  0  0  0  0  0  0  0
  -16.1492    0.0572  -13.7755 C   0  0  0  0  0  0  0  0  0  0  0  0
  -16.1492    0.9702  -14.8355 C   0  0  0  0  0  0  0  0  0  0  0  0
  -15.0771    1.8753  -14.8919 C   0  0  0  0  0  0  0  0  0  0  0  0
  -14.7938    3.1809  -15.9776 S   0  0  0  0  0  0  0  0  0  0  0  0
  -12.4240    4.5536  -15.8695 C   0  0  0  0  0  0  0  0  0  0  0  0
  -12.2084    5.6844  -15.4557 O   0  0  0  0  0  0  0  0  0  0  0  0
  -11.9808    4.0884  -17.0714 O   0  0  0  0  0  0  0  0  0  0  0  0
  -12.2650    4.9663  -18.1607 C   0  0  0  0  0  0  0  0  0  0  0  0
  -13.0177    4.2702  -19.2799 C   0  0  0  0  0  0  0  0  0  0  0  0
  -14.6240    5.9074  -18.7167 C   0  0  0  0  0  0  0  0  0  0  0  0
  -13.9993    5.1857  -19.7657 O   0  0  0  0  0  0  0  0  0  0  0  0
  -18.3560    1.6205  -15.4354 C   0  0  0  0  0  0  0  0  0  0  0  0
  -18.5850    2.9976  -15.5178 C   0  0  0  0  0  0  0  0  0  0  0  0
  -19.8572    3.5009  -15.2929 C   0  0  0  0  0  0  0  0  0  0  0  0
  -20.8835    2.6390  -14.9163 C   0  0  0  0  0  0  0  0  0  0  0  0
  -20.6542    1.2683  -14.7354 C   0  0  0  0  0  0  0  0  0  0  0  0
  -19.3701    0.7652  -14.9760 C   0  0  0  0  0  0  0  0  0  0  0  0
  -21.6782    0.3854  -14.3111 N   0  0  0  0  0  0  0  0  0  0  0  0
  -22.8839    0.7767  -13.7499 C   0  0  0  0  0  0  0  0  0  0  0  0
  -23.2620    1.9484  -13.6930 O   0  0  0  0  0  0  0  0  0  0  0  0
  -21.5597   -0.6092  -14.4728 H   0  0  0  0  0  0  0  0  0  0  0  0
  -23.7229   -0.2899  -13.2381 C   0  0  0  0  0  0  0  0  0  0  0  0
  -23.6652   -0.6577  -11.9181 O   0  0  0  0  0  0  0  0  0  0  0  0
  -24.5717   -1.6593  -11.7498 C   0  0  0  0  0  0  0  0  0  0  0  0
  -25.2119   -1.9425  -12.9321 C   0  0  0  0  0  0  0  0  0  0  0  0
  -24.6679   -1.0610  -13.9036 C   0  0  0  0  0  0  0  0  0  0  0  0
  -25.0299   -0.9579  -15.3413 C   0  0  0  0  0  0  0  0  0  0  0  0
 16 17  1  0  0  0
 17 15  1  0  0  0
 15 14  1  0  0  0
 14 13  1  0  0  0
 13 11  1  0  0  0
 11 12  2  0  0  0
 11  2  1  0  0  0
  2  3  2  0  0  0
  2 10  1  0  0  0
  3  4  1  0  0  0
  4  5  1  0  0  0
  4  9  2  0  0  0
  5  6  2  0  0  0
  6  7  1  0  0  0
  7  8  2  0  0  0
  8  1  1  0  0  0
  8  9  1  0  0  0
  1 18  1  0  0  0
 18 19  1  0  0  0
 18 23  2  0  0  0
 19 20  2  0  0  0
 20 21  1  0  0  0
 21 22  2  0  0  0
 22 24  1  0  0  0
 22 23  1  0  0  0
 24 25  1  0  0  0
 24 27  1  0  0  0
 25 26  2  0  0  0
 25 28  1  0  0  0
 28 29  1  0  0  0
 28 32  2  0  0  0
 29 30  1  0  0  0
 30 31  2  0  0  0
 31 32  1  0  0  0
 32 33  1  0  0  0
  9 10  1  0  0  0
M  END
> <minimizedAffinity>
-8.33604

$$$$
