CHEMBL3288507


 37 41  0  0  0  0  0  0  0  0999 V2000
  -27.5063   -2.0752   -9.4849 C   0  0  0  0  0  0  0  0  0  0  0  0
  -26.2620   -1.4544   -9.3011 C   0  0  0  0  0  0  0  0  0  0  0  0
  -25.4962   -0.9935  -10.3798 C   0  0  0  0  0  0  0  0  0  0  0  0
  -25.8790   -1.2427  -11.7192 C   0  0  0  0  0  0  0  0  0  0  0  0
  -25.1221   -0.9236  -12.8813 C   0  0  0  0  0  0  0  0  0  0  0  0
  -25.6310   -1.2160  -14.1635 C   0  0  0  0  0  0  0  0  0  0  0  0
  -26.8689   -1.8247  -14.3213 C   0  0  0  0  0  0  0  0  0  0  0  0
  -27.6219   -2.1293  -13.1970 C   0  0  0  0  0  0  0  0  0  0  0  0
  -27.1458   -1.8449  -11.9077 C   0  0  0  0  0  0  0  0  0  0  0  0
  -27.9521   -2.1658  -10.8073 C   0  0  0  0  0  0  0  0  0  0  0  0
  -27.5716    0.5277   -7.2516 N   0  0  0  0  0  0  0  0  0  0  0  0
  -28.2440   -0.4592   -6.6396 C   0  0  0  0  0  0  0  0  0  0  0  0
  -28.6995   -0.2710   -5.4043 N   0  0  0  0  0  0  0  0  0  0  0  0
  -29.3303   -1.4109   -5.1228 N   0  0  0  0  0  0  0  0  0  0  0  0
  -29.3040   -2.3388   -6.1271 C   0  0  0  0  0  0  0  0  0  0  0  0
  -29.8680   -3.6154   -6.1768 C   0  0  0  0  0  0  0  0  0  0  0  0
  -29.6631   -4.3596   -7.3298 C   0  0  0  0  0  0  0  0  0  0  0  0
  -28.9051   -3.8411   -8.3765 C   0  0  0  0  0  0  0  0  0  0  0  0
  -28.3230   -2.5460   -8.3420 C   0  0  0  0  0  0  0  0  0  0  0  0
  -28.5565   -1.7642   -7.1626 C   0  0  0  0  0  0  0  0  0  0  0  0
  -27.5552    1.4150   -6.7606 H   0  0  0  0  0  0  0  0  0  0  0  0
  -27.6330    0.6298   -8.2580 H   0  0  0  0  0  0  0  0  0  0  0  0
  -29.7688   -1.5017   -4.2135 H   0  0  0  0  0  0  0  0  0  0  0  0
  -23.8020   -0.2286  -12.8836 C   0  0  0  0  0  0  0  0  0  0  0  0
  -23.0409   -0.4891  -11.9527 O   0  0  0  0  0  0  0  0  0  0  0  0
  -23.5689    0.7067  -13.8782 N   0  0  0  0  0  0  0  0  0  0  0  0
  -24.3474    0.9471  -14.4783 H   0  0  0  0  0  0  0  0  0  0  0  0
  -22.3883    1.4705  -14.0372 C   0  0  0  0  0  0  0  0  0  0  0  0
  -22.3437    2.8581  -13.8768 C   0  0  0  0  0  0  0  0  0  0  0  0
  -21.1762    3.5757  -14.1348 C   0  0  0  0  0  0  0  0  0  0  0  0
  -20.0205    2.9120  -14.5315 C   0  0  0  0  0  0  0  0  0  0  0  0
  -20.0178    1.5120  -14.6436 C   0  0  0  0  0  0  0  0  0  0  0  0
  -21.2087    0.8019  -14.3893 C   0  0  0  0  0  0  0  0  0  0  0  0
  -18.7619    0.7797  -15.0376 C   0  0  0  0  0  0  0  0  0  0  0  0
  -18.9833   -0.4813  -15.5016 F   0  0  0  0  0  0  0  0  0  0  0  0
  -18.0758    1.4245  -16.0234 F   0  0  0  0  0  0  0  0  0  0  0  0
  -17.8870    0.6482  -14.0015 F   0  0  0  0  0  0  0  0  0  0  0  0
 11 12  1  0  0  0
 11 21  1  0  0  0
 11 22  1  0  0  0
 12 13  2  0  0  0
 12 20  1  0  0  0
 13 14  1  0  0  0
 14 15  1  0  0  0
 14 23  1  0  0  0
 15 16  1  0  0  0
 15 20  2  0  0  0
 16 17  2  0  0  0
 17 18  1  0  0  0
 18 19  2  0  0  0
 19  1  1  0  0  0
 19 20  1  0  0  0
  1  2  1  0  0  0
  1 10  2  0  0  0
  2  3  2  0  0  0
  3  4  1  0  0  0
  4  5  1  0  0  0
  4  9  2  0  0  0
  5 24  1  0  0  0
  5  6  2  0  0  0
 24 25  2  0  0  0
 24 26  1  0  0  0
 26 28  1  0  0  0
 26 27  1  0  0  0
 28 29  1  0  0  0
 28 33  2  0  0  0
 29 30  2  0  0  0
 30 31  1  0  0  0
 31 32  2  0  0  0
 32 34  1  0  0  0
 32 33  1  0  0  0
 34 35  1  0  0  0
 34 36  1  0  0  0
 34 37  1  0  0  0
  6  7  1  0  0  0
  7  8  2  0  0  0
  8  9  1  0  0  0
  9 10  1  0  0  0
M  END
> <minimizedAffinity>
-10.66900

$$$$
