CHEMBL3099479


 43 45  0  0  0  0  0  0  0  0999 V2000
  -15.3336    1.2881  -15.5944 C   0  0  0  0  0  0  0  0  0  0  0  0
  -14.9062    0.3480  -14.6288 C   0  0  0  0  0  0  0  0  0  0  0  0
  -15.6448   -0.0346  -13.5132 C   0  0  0  0  0  0  0  0  0  0  0  0
  -16.8686    0.5953  -13.3088 C   0  0  0  0  0  0  0  0  0  0  0  0
  -17.3283    1.5772  -14.2111 C   0  0  0  0  0  0  0  0  0  0  0  0
  -16.5777    1.9203  -15.3636 C   0  0  0  0  0  0  0  0  0  0  0  0
  -12.7814    3.0527  -17.8458 C   0  0  0  0  0  0  0  0  0  0  0  0
  -13.5428    2.6593  -16.7373 C   0  0  0  0  0  0  0  0  0  0  0  0
  -14.4051    1.5334  -16.7465 C   0  0  0  0  0  0  0  0  0  0  0  0
  -14.4163    0.7665  -17.9162 C   0  0  0  0  0  0  0  0  0  0  0  0
  -13.5819    1.0843  -18.9982 C   0  0  0  0  0  0  0  0  0  0  0  0
  -12.7465    2.2131  -18.9638 C   0  0  0  0  0  0  0  0  0  0  0  0
  -11.8438    2.4479  -20.1358 C   0  0  0  0  0  0  0  0  0  0  0  0
  -10.6965    1.4844  -20.3881 C   0  0  0  0  0  0  0  0  0  0  0  0
  -12.1054    3.4395  -20.9428 N   0  0  0  0  0  0  0  0  0  0  0  0
  -11.1953    3.4878  -22.0059 O   0  0  0  0  0  0  0  0  0  0  0  0
  -11.5228    4.2424  -22.5278 H   0  0  0  0  0  0  0  0  0  0  0  0
  -12.4396    5.2592  -16.9729 C   0  0  0  0  0  0  0  0  0  0  0  0
  -12.0970    4.2387  -17.9065 O   0  0  0  0  0  0  0  0  0  0  0  0
  -15.2021   -1.0430  -12.6185 N   0  0  0  0  0  0  0  0  0  0  0  0
  -14.9324   -2.3685  -12.9481 C   0  0  0  0  0  0  0  0  0  0  0  0
  -15.0007   -2.8627  -14.0677 O   0  0  0  0  0  0  0  0  0  0  0  0
  -14.6052   -3.1225  -11.8203 N   0  0  0  0  0  0  0  0  0  0  0  0
  -14.9883   -0.7638  -11.6716 H   0  0  0  0  0  0  0  0  0  0  0  0
  -15.2985   -2.9518  -11.1046 H   0  0  0  0  0  0  0  0  0  0  0  0
  -14.3558   -4.5073  -12.0372 C   0  0  0  0  0  0  0  0  0  0  0  0
  -13.0346   -4.9199  -12.2359 C   0  0  0  0  0  0  0  0  0  0  0  0
  -12.7307   -6.2763  -12.3880 C   0  0  0  0  0  0  0  0  0  0  0  0
  -13.7482   -7.2279  -12.3761 C   0  0  0  0  0  0  0  0  0  0  0  0
  -15.0723   -6.8107  -12.2059 C   0  0  0  0  0  0  0  0  0  0  0  0
  -15.3942   -5.4531  -12.0209 C   0  0  0  0  0  0  0  0  0  0  0  0
  -16.8334   -5.0524  -11.8613 C   0  0  0  0  0  0  0  0  0  0  0  0
  -13.5770   -8.5718  -12.5733 O   0  0  0  0  0  0  0  0  0  0  0  0
  -12.6137   -8.9488  -13.5643 C   0  0  0  0  0  0  0  0  0  0  0  0
  -13.3193   -8.9832  -14.9187 C   0  0  0  0  0  0  0  0  0  0  0  0
  -12.8629   -7.8588  -15.8560 C   0  0  0  0  0  0  0  0  0  0  0  0
  -13.9605   -7.0870  -16.4629 N   0  0  0  0  0  0  0  0  0  0  0  0
  -14.0737   -5.7445  -15.8860 C   0  0  0  0  0  0  0  0  0  0  0  0
  -13.7636   -6.9822  -17.9120 C   0  0  0  0  0  0  0  0  0  0  0  0
  -18.5738    2.1336  -14.0311 O   0  0  0  0  0  0  0  0  0  0  0  0
  -19.6472    1.3848  -14.5988 C   0  0  0  0  0  0  0  0  0  0  0  0
  -17.0022    2.7942  -16.3362 O   0  0  0  0  0  0  0  0  0  0  0  0
  -16.7422    4.1770  -16.1352 C   0  0  0  0  0  0  0  0  0  0  0  0
 18 19  1  0  0  0
 19  7  1  0  0  0
  7  8  1  0  0  0
  7 12  2  0  0  0
  8  9  2  0  0  0
  9  1  1  0  0  0
  9 10  1  0  0  0
  1  2  1  0  0  0
  1  6  2  0  0  0
  2  3  2  0  0  0
  3 20  1  0  0  0
  3  4  1  0  0  0
 20 21  1  0  0  0
 20 24  1  0  0  0
 21 22  2  0  0  0
 21 23  1  0  0  0
 23 26  1  0  0  0
 23 25  1  0  0  0
 26 27  1  0  0  0
 26 31  2  0  0  0
 27 28  2  0  0  0
 28 29  1  0  0  0
 29 33  1  0  0  0
 29 30  2  0  0  0
 33 34  1  0  0  0
 34 35  1  0  0  0
 35 36  1  0  0  0
 36 37  1  0  0  0
 37 38  1  0  0  0
 37 39  1  0  0  0
 30 31  1  0  0  0
 31 32  1  0  0  0
  4  5  2  0  0  0
  5 40  1  0  0  0
  5  6  1  0  0  0
 40 41  1  0  0  0
  6 42  1  0  0  0
 42 43  1  0  0  0
 10 11  2  0  0  0
 11 12  1  0  0  0
 12 13  1  0  0  0
 13 14  1  0  0  0
 13 15  2  0  0  0
 15 16  1  0  0  0
 16 17  1  0  0  0
M  END
> <minimizedAffinity>
-6.32798

$$$$
