CHEMBL1233882


 25 28  0  0  0  0  0  0  0  0999 V2000
  -28.9394   -2.8854   -6.4961 N   0  0  0  0  0  0  0  0  0  0  0  0
  -29.0601   -3.9051   -7.3643 N   0  0  0  0  0  0  0  0  0  0  0  0
  -29.7364   -4.8601   -6.6913 C   0  0  0  0  0  0  0  0  0  0  0  0
  -30.1548   -4.3747   -5.4116 C   0  0  0  0  0  0  0  0  0  0  0  0
  -30.8376   -4.8258   -4.2743 C   0  0  0  0  0  0  0  0  0  0  0  0
  -31.4029   -6.0865   -4.1281 N   0  0  0  0  0  0  0  0  0  0  0  0
  -30.9432   -4.0047   -3.2062 N   0  0  0  0  0  0  0  0  0  0  0  0
  -30.3699   -2.7884   -3.2637 C   0  0  0  0  0  0  0  0  0  0  0  0
  -29.6781   -2.2553   -4.2793 N   0  0  0  0  0  0  0  0  0  0  0  0
  -29.6116   -3.0978   -5.3256 C   0  0  0  0  0  0  0  0  0  0  0  0
  -30.8743   -6.8258   -4.5722 H   0  0  0  0  0  0  0  0  0  0  0  0
  -31.6128   -6.2458   -3.1474 H   0  0  0  0  0  0  0  0  0  0  0  0
  -29.7838   -6.2097   -7.2791 C   0  0  0  0  0  0  0  0  0  0  0  0
  -28.6109   -6.6555   -7.9042 C   0  0  0  0  0  0  0  0  0  0  0  0
  -28.5190   -7.9278   -8.4609 C   0  0  0  0  0  0  0  0  0  0  0  0
  -29.5744   -8.8096   -8.4228 C   0  0  0  0  0  0  0  0  0  0  0  0
  -29.3861  -10.0188   -8.9677 N   0  0  0  0  0  0  0  0  0  0  0  0
  -30.4076  -10.8943   -8.9295 C   0  0  0  0  0  0  0  0  0  0  0  0
  -31.6297  -10.6105   -8.3540 C   0  0  0  0  0  0  0  0  0  0  0  0
  -31.8171   -9.3470   -7.7863 C   0  0  0  0  0  0  0  0  0  0  0  0
  -30.7776   -8.3947   -7.8053 C   0  0  0  0  0  0  0  0  0  0  0  0
  -30.8818   -7.0829   -7.2487 C   0  0  0  0  0  0  0  0  0  0  0  0
  -27.6886   -1.7274   -8.3014 C   0  0  0  0  0  0  0  0  0  0  0  0
  -28.0781   -1.7510   -6.8189 C   0  0  0  0  0  0  0  0  0  0  0  0
  -28.7163   -0.4248   -6.4109 C   0  0  0  0  0  0  0  0  0  0  0  0
 23 24  1  0  0  0
 24 25  1  0  0  0
 24  1  1  0  0  0
  1  2  1  0  0  0
  1 10  1  0  0  0
  2  3  2  0  0  0
  3 13  1  0  0  0
  3  4  1  0  0  0
 13 14  1  0  0  0
 13 22  2  0  0  0
 14 15  2  0  0  0
 15 16  1  0  0  0
 16 17  1  0  0  0
 16 21  2  0  0  0
 17 18  2  0  0  0
 18 19  1  0  0  0
 19 20  2  0  0  0
 20 21  1  0  0  0
 21 22  1  0  0  0
  4  5  1  0  0  0
  4 10  2  0  0  0
  5  6  1  0  0  0
  5  7  2  0  0  0
  6 11  1  0  0  0
  6 12  1  0  0  0
  7  8  1  0  0  0
  8  9  2  0  0  0
  9 10  1  0  0  0
M  END
> <minimizedAffinity>
-8.62863

$$$$
