CHEMBL449663


 27 30  0  0  0  0  0  0  0  0999 V2000
  -29.8234   -6.2478   -6.9546 C   0  0  0  0  0  0  0  0  0  0  0  0
  -29.5465   -5.0758   -7.6424 C   0  0  0  0  0  0  0  0  0  0  0  0
  -28.8974   -4.1700   -6.7608 C   0  0  0  0  0  0  0  0  0  0  0  0
  -28.4540   -2.8395   -6.8702 C   0  0  0  0  0  0  0  0  0  0  0  0
  -27.8541   -2.2189   -5.7670 C   0  0  0  0  0  0  0  0  0  0  0  0
  -27.7056   -2.9097   -4.5644 C   0  0  0  0  0  0  0  0  0  0  0  0
  -28.1458   -4.2318   -4.4323 C   0  0  0  0  0  0  0  0  0  0  0  0
  -28.7412   -4.8283   -5.5472 C   0  0  0  0  0  0  0  0  0  0  0  0
  -29.3065   -6.0728   -5.6890 N   0  0  0  0  0  0  0  0  0  0  0  0
  -29.4305   -6.7278   -4.9245 H   0  0  0  0  0  0  0  0  0  0  0  0
  -27.8074   -7.8078   -8.8826 O   0  0  0  0  0  0  0  0  0  0  0  0
  -28.6892   -8.6391   -8.7812 C   0  0  0  0  0  0  0  0  0  0  0  0
  -28.6454   -9.9046   -9.3225 N   0  0  0  0  0  0  0  0  0  0  0  0
  -29.8785  -10.6257   -9.1721 C   0  0  0  0  0  0  0  0  0  0  0  0
  -30.7263   -9.6598   -8.4153 C   0  0  0  0  0  0  0  0  0  0  0  0
  -32.0310   -9.8249   -7.9842 C   0  0  0  0  0  0  0  0  0  0  0  0
  -32.6164   -8.7877   -7.2614 C   0  0  0  0  0  0  0  0  0  0  0  0
  -31.8875   -7.6217   -6.9594 C   0  0  0  0  0  0  0  0  0  0  0  0
  -30.5557   -7.4447   -7.3827 C   0  0  0  0  0  0  0  0  0  0  0  0
  -30.0133   -8.4805   -8.1407 C   0  0  0  0  0  0  0  0  0  0  0  0
  -27.8358  -10.2226   -9.8377 H   0  0  0  0  0  0  0  0  0  0  0  0
  -27.5132   -0.9072   -5.9615 O   0  0  0  0  0  0  0  0  0  0  0  0
  -27.9673    0.0076   -4.9647 C   0  0  0  0  0  0  0  0  0  0  0  0
  -29.4235    0.3485   -5.2545 C   0  0  0  0  0  0  0  0  0  0  0  0
  -29.5752    1.2951   -6.4367 C   0  0  0  0  0  0  0  0  0  0  0  0
  -28.2900    1.7522   -6.8433 O   0  0  0  0  0  0  0  0  0  0  0  0
  -27.9259    2.2747   -6.1073 H   0  0  0  0  0  0  0  0  0  0  0  0
 11 12  2  0  0  0
 12 13  1  0  0  0
 12 20  1  0  0  0
 13 14  1  0  0  0
 13 21  1  0  0  0
 14 15  1  0  0  0
 15 16  1  0  0  0
 15 20  2  0  0  0
 16 17  2  0  0  0
 17 18  1  0  0  0
 18 19  2  0  0  0
 19  1  1  0  0  0
 19 20  1  0  0  0
  1  2  2  0  0  0
  1  9  1  0  0  0
  2  3  1  0  0  0
  3  4  1  0  0  0
  3  8  2  0  0  0
  4  5  2  0  0  0
  5 22  1  0  0  0
  5  6  1  0  0  0
 22 23  1  0  0  0
 23 24  1  0  0  0
 24 25  1  0  0  0
 25 26  1  0  0  0
 26 27  1  0  0  0
  6  7  2  0  0  0
  7  8  1  0  0  0
  8  9  1  0  0  0
  9 10  1  0  0  0
M  END
> <minimizedAffinity>
-8.41815

$$$$
