CHEMBL3949835


 36 40  0  0  0  0  0  0  0  0999 V2000
  -29.6005   -6.7605   -4.9084 C   0  0  0  0  0  0  0  0  0  0  0  0
  -30.1871   -6.5190   -3.8557 O   0  0  0  0  0  0  0  0  0  0  0  0
  -29.3907   -5.6596   -5.9022 C   0  0  0  0  0  0  0  0  0  0  0  0
  -30.2539   -5.4197   -6.9895 C   0  0  0  0  0  0  0  0  0  0  0  0
  -29.9909   -4.4047   -7.9379 C   0  0  0  0  0  0  0  0  0  0  0  0
  -28.9404   -3.5101   -7.6648 C   0  0  0  0  0  0  0  0  0  0  0  0
  -28.3253   -2.3233   -8.2071 C   0  0  0  0  0  0  0  0  0  0  0  0
  -28.2508   -1.4777   -7.1504 N   0  0  0  0  0  0  0  0  0  0  0  0
  -27.8953   -2.3444   -6.1700 N   0  0  0  0  0  0  0  0  0  0  0  0
  -28.3298   -3.6149   -6.4185 C   0  0  0  0  0  0  0  0  0  0  0  0
  -28.3655   -4.7524   -5.6183 C   0  0  0  0  0  0  0  0  0  0  0  0
  -27.5198   -1.9710   -5.3142 H   0  0  0  0  0  0  0  0  0  0  0  0
  -27.1087   -2.2556   -9.0215 C   0  0  0  0  0  0  0  0  0  0  0  0
  -26.8955   -1.3078   -9.9531 C   0  0  0  0  0  0  0  0  0  0  0  0
  -26.4527   -1.6269  -11.3331 C   0  0  0  0  0  0  0  0  0  0  0  0
  -27.3874   -1.8123  -12.3713 C   0  0  0  0  0  0  0  0  0  0  0  0
  -26.9890   -1.8117  -13.7134 C   0  0  0  0  0  0  0  0  0  0  0  0
  -25.6480   -1.6297  -14.0386 C   0  0  0  0  0  0  0  0  0  0  0  0
  -24.7075   -1.4676  -13.0219 C   0  0  0  0  0  0  0  0  0  0  0  0
  -25.1077   -1.4630  -11.6796 C   0  0  0  0  0  0  0  0  0  0  0  0
  -27.4511   -9.8666   -4.8417 C   0  0  0  0  0  0  0  0  0  0  0  0
  -28.2966  -10.7748   -5.4888 C   0  0  0  0  0  0  0  0  0  0  0  0
  -29.5208  -10.3600   -6.0319 C   0  0  0  0  0  0  0  0  0  0  0  0
  -29.9165   -9.0526   -5.9028 C   0  0  0  0  0  0  0  0  0  0  0  0
  -29.1408   -8.1555   -5.1544 C   0  0  0  0  0  0  0  0  0  0  0  0
  -27.8938   -8.5517   -4.6492 C   0  0  0  0  0  0  0  0  0  0  0  0
  -24.9657  -10.0974   -6.3750 O   0  0  0  0  0  0  0  0  0  0  0  0
  -25.0380  -10.3450   -5.1784 C   0  0  0  0  0  0  0  0  0  0  0  0
  -26.1653  -10.2297   -4.3770 N   0  0  0  0  0  0  0  0  0  0  0  0
  -26.0372  -10.2462   -3.3725 H   0  0  0  0  0  0  0  0  0  0  0  0
  -23.7855  -10.7531   -4.5041 C   0  0  0  0  0  0  0  0  0  0  0  0
  -22.7359  -11.1953   -5.3107 C   0  0  0  0  0  0  0  0  0  0  0  0
  -21.5898  -11.6510   -4.6933 C   0  0  0  0  0  0  0  0  0  0  0  0
  -21.4367  -11.6947   -3.3537 N   0  0  0  0  0  0  0  0  0  0  0  0
  -22.4757  -11.2737   -2.5981 C   0  0  0  0  0  0  0  0  0  0  0  0
  -23.6645  -10.7912   -3.1177 C   0  0  0  0  0  0  0  0  0  0  0  0
 27 28  2  0  0  0
 28 29  1  0  0  0
 28 31  1  0  0  0
 29 21  1  0  0  0
 29 30  1  0  0  0
 21 22  1  0  0  0
 21 26  2  0  0  0
 22 23  2  0  0  0
 23 24  1  0  0  0
 24 25  2  0  0  0
 25  1  1  0  0  0
 25 26  1  0  0  0
  1  2  2  0  0  0
  1  3  1  0  0  0
  3  4  1  0  0  0
  3 11  2  0  0  0
  4  5  2  0  0  0
  5  6  1  0  0  0
  6  7  1  0  0  0
  6 10  2  0  0  0
  7 13  1  0  0  0
  7  8  2  0  0  0
 13 14  2  0  0  0
 14 15  1  0  0  0
 15 16  1  0  0  0
 15 20  2  0  0  0
 16 17  2  0  0  0
 17 18  1  0  0  0
 18 19  2  0  0  0
 19 20  1  0  0  0
  8  9  1  0  0  0
  9 10  1  0  0  0
  9 12  1  0  0  0
 10 11  1  0  0  0
 31 32  1  0  0  0
 31 36  2  0  0  0
 32 33  2  0  0  0
 33 34  1  0  0  0
 34 35  2  0  0  0
 35 36  1  0  0  0
M  END
> <minimizedAffinity>
-9.65015

$$$$
