CHEMBL4164946


 28 31  0  0  0  0  0  0  0  0999 V2000
  -28.4980   -6.8903   -5.0223 C   0  0  0  0  0  0  0  0  0  0  0  0
  -28.9327   -8.1335   -5.6482 N   0  0  0  0  0  0  0  0  0  0  0  0
  -28.2199   -9.3182   -5.6365 C   0  0  0  0  0  0  0  0  0  0  0  0
  -28.9069  -10.2930   -6.1992 N   0  0  0  0  0  0  0  0  0  0  0  0
  -30.0739   -9.7207   -6.6332 C   0  0  0  0  0  0  0  0  0  0  0  0
  -31.1515  -10.3120   -7.3121 C   0  0  0  0  0  0  0  0  0  0  0  0
  -32.2669   -9.5292   -7.6298 C   0  0  0  0  0  0  0  0  0  0  0  0
  -32.3024   -8.1781   -7.2928 C   0  0  0  0  0  0  0  0  0  0  0  0
  -31.2248   -7.5643   -6.6449 C   0  0  0  0  0  0  0  0  0  0  0  0
  -30.1204   -8.3653   -6.3147 C   0  0  0  0  0  0  0  0  0  0  0  0
  -26.9183   -9.5083   -5.0629 C   0  0  0  0  0  0  0  0  0  0  0  0
  -26.5582   -9.4438   -3.7256 C   0  0  0  0  0  0  0  0  0  0  0  0
  -25.1621   -9.6658   -3.6514 C   0  0  0  0  0  0  0  0  0  0  0  0
  -24.7472   -9.8860   -4.9409 C   0  0  0  0  0  0  0  0  0  0  0  0
  -25.7939   -9.7940   -5.7982 O   0  0  0  0  0  0  0  0  0  0  0  0
  -29.6075   -7.4872   -2.9718 O   0  0  0  0  0  0  0  0  0  0  0  0
  -29.0890   -6.6052   -3.6602 C   0  0  0  0  0  0  0  0  0  0  0  0
  -29.0552   -5.3063   -3.2081 N   0  0  0  0  0  0  0  0  0  0  0  0
  -29.3933   -5.1369   -2.2663 H   0  0  0  0  0  0  0  0  0  0  0  0
  -28.4698   -4.3167   -3.9284 N   0  0  0  0  0  0  0  0  0  0  0  0
  -29.2769   -3.4393   -4.4393 C   0  0  0  0  0  0  0  0  0  0  0  0
  -28.7659   -2.2747   -5.1964 C   0  0  0  0  0  0  0  0  0  0  0  0
  -28.6132   -1.0483   -4.5294 C   0  0  0  0  0  0  0  0  0  0  0  0
  -28.1658    0.0789   -5.2184 C   0  0  0  0  0  0  0  0  0  0  0  0
  -27.8641   -0.0093   -6.5742 C   0  0  0  0  0  0  0  0  0  0  0  0
  -28.0063   -1.2274   -7.2421 C   0  0  0  0  0  0  0  0  0  0  0  0
  -28.4553   -2.3623   -6.5577 C   0  0  0  0  0  0  0  0  0  0  0  0
  -28.6016   -3.8268   -7.4645 Cl  0  0  0  0  0  0  0  0  0  0  0  0
 16 17  2  0  0  0
 17  1  1  0  0  0
 17 18  1  0  0  0
  1  2  1  0  0  0
  2  3  1  0  0  0
  2 10  1  0  0  0
  3 11  1  0  0  0
  3  4  2  0  0  0
 11 12  2  0  0  0
 11 15  1  0  0  0
 12 13  1  0  0  0
 13 14  2  0  0  0
 14 15  1  0  0  0
  4  5  1  0  0  0
  5  6  1  0  0  0
  5 10  2  0  0  0
  6  7  2  0  0  0
  7  8  1  0  0  0
  8  9  2  0  0  0
  9 10  1  0  0  0
 18 20  1  0  0  0
 18 19  1  0  0  0
 20 21  2  0  0  0
 21 22  1  0  0  0
 22 23  1  0  0  0
 22 27  2  0  0  0
 23 24  2  0  0  0
 24 25  1  0  0  0
 25 26  2  0  0  0
 26 27  1  0  0  0
 27 28  1  0  0  0
M  END
> <minimizedAffinity>
-8.64916

$$$$
