CHEMBL3897783


 37 41  0  0  0  0  0  0  0  0999 V2000
  -28.9105   -5.4366   -5.6464 C   0  0  0  0  0  0  0  0  0  0  0  0
  -28.3877   -4.4578   -4.8091 C   0  0  0  0  0  0  0  0  0  0  0  0
  -28.1544   -3.1795   -5.2852 C   0  0  0  0  0  0  0  0  0  0  0  0
  -28.2596   -2.8862   -6.6217 C   0  0  0  0  0  0  0  0  0  0  0  0
  -28.1751   -1.5819   -6.8818 N   0  0  0  0  0  0  0  0  0  0  0  0
  -28.0124   -1.2351   -8.1671 C   0  0  0  0  0  0  0  0  0  0  0  0
  -27.8241   -2.1783   -9.1548 C   0  0  0  0  0  0  0  0  0  0  0  0
  -28.0866   -3.5173   -8.9121 N   0  0  0  0  0  0  0  0  0  0  0  0
  -28.3808   -3.9050   -7.5945 C   0  0  0  0  0  0  0  0  0  0  0  0
  -28.8044   -5.1939   -7.0553 C   0  0  0  0  0  0  0  0  0  0  0  0
  -27.0128   -1.7180  -10.2893 C   0  0  0  0  0  0  0  0  0  0  0  0
  -27.2938   -0.9982  -11.4643 C   0  0  0  0  0  0  0  0  0  0  0  0
  -26.1859   -0.6489  -12.1480 N   0  0  0  0  0  0  0  0  0  0  0  0
  -25.1639   -1.1416  -11.4093 N   0  0  0  0  0  0  0  0  0  0  0  0
  -25.6227   -1.6732  -10.2281 C   0  0  0  0  0  0  0  0  0  0  0  0
  -23.8412   -1.3170  -12.0270 C   0  0  0  0  0  0  0  0  0  0  0  0
  -22.9003   -0.0953  -12.0172 C   0  0  0  0  0  0  0  0  0  0  0  0
  -23.2414    0.9214  -13.1054 C   0  0  0  0  0  0  0  0  0  0  0  0
  -23.2992    0.3249  -14.4373 N   0  0  0  0  0  0  0  0  0  0  0  0
  -24.2116   -0.8177  -14.4905 C   0  0  0  0  0  0  0  0  0  0  0  0
  -23.8605   -1.8842  -13.4598 C   0  0  0  0  0  0  0  0  0  0  0  0
  -22.3661    0.0354  -14.7333 H   0  0  0  0  0  0  0  0  0  0  0  0
  -29.6919   -6.4423   -4.9556 N   0  0  0  0  0  0  0  0  0  0  0  0
  -29.9694   -9.9497   -6.2877 C   0  0  0  0  0  0  0  0  0  0  0  0
  -29.1896  -10.6532   -5.3686 C   0  0  0  0  0  0  0  0  0  0  0  0
  -28.6127   -9.9796   -4.2953 C   0  0  0  0  0  0  0  0  0  0  0  0
  -28.8278   -8.6038   -4.1368 C   0  0  0  0  0  0  0  0  0  0  0  0
  -29.6178   -7.8566   -5.0242 C   0  0  0  0  0  0  0  0  0  0  0  0
  -30.1948   -8.5612   -6.0950 C   0  0  0  0  0  0  0  0  0  0  0  0
  -31.4649   -9.7018   -8.1419 C   0  0  0  0  0  0  0  0  0  0  0  0
  -30.5291  -10.5014   -7.4137 O   0  0  0  0  0  0  0  0  0  0  0  0
  -27.7924  -10.5310   -3.3472 O   0  0  0  0  0  0  0  0  0  0  0  0
  -26.3913  -10.3782   -3.5336 C   0  0  0  0  0  0  0  0  0  0  0  0
  -31.0652   -5.8543   -4.6894 C   0  0  0  0  0  0  0  0  0  0  0  0
  -31.4039   -5.5066   -3.2288 C   0  0  0  0  0  0  0  0  0  0  0  0
  -31.1791   -6.6054   -2.3468 O   0  0  0  0  0  0  0  0  0  0  0  0
  -32.0009   -6.7363   -1.8422 H   0  0  0  0  0  0  0  0  0  0  0  0
 30 31  1  0  0  0
 31 24  1  0  0  0
 24 25  1  0  0  0
 24 29  2  0  0  0
 25 26  2  0  0  0
 26 32  1  0  0  0
 26 27  1  0  0  0
 32 33  1  0  0  0
 27 28  2  0  0  0
 28 23  1  0  0  0
 28 29  1  0  0  0
 23 34  1  0  0  0
 23  1  1  0  0  0
 34 35  1  0  0  0
 35 36  1  0  0  0
 36 37  1  0  0  0
  1  2  1  0  0  0
  1 10  2  0  0  0
  2  3  2  0  0  0
  3  4  1  0  0  0
  4  5  1  0  0  0
  4  9  2  0  0  0
  5  6  2  0  0  0
  6  7  1  0  0  0
  7 11  1  0  0  0
  7  8  2  0  0  0
 11 12  1  0  0  0
 11 15  2  0  0  0
 12 13  2  0  0  0
 13 14  1  0  0  0
 14 16  1  0  0  0
 14 15  1  0  0  0
 16 17  1  0  0  0
 16 21  1  0  0  0
 17 18  1  0  0  0
 18 19  1  0  0  0
 19 20  1  0  0  0
 19 22  1  0  0  0
 20 21  1  0  0  0
  8  9  1  0  0  0
  9 10  1  0  0  0
M  END
> <minimizedAffinity>
-8.16264

$$$$
