CHEMBL238737


 30 32  0  0  0  0  0  0  0  0999 V2000
  -27.5120   -1.8670  -10.5219 N   0  0  0  0  0  0  0  0  0  0  0  0
  -26.2532   -1.6496  -11.0596 C   0  0  0  0  0  0  0  0  0  0  0  0
  -25.2546   -1.5694  -10.3465 O   0  0  0  0  0  0  0  0  0  0  0  0
  -28.2290   -2.2342  -11.1105 H   0  0  0  0  0  0  0  0  0  0  0  0
  -28.8700   -4.7056   -6.7829 C   0  0  0  0  0  0  0  0  0  0  0  0
  -28.4865   -3.3340   -7.2706 C   0  0  0  0  0  0  0  0  0  0  0  0
  -28.2256   -3.1680   -8.6419 C   0  0  0  0  0  0  0  0  0  0  0  0
  -27.7689   -1.9497   -9.1479 C   0  0  0  0  0  0  0  0  0  0  0  0
  -27.6204   -0.8586   -8.2929 C   0  0  0  0  0  0  0  0  0  0  0  0
  -27.9360   -0.9922   -6.9412 C   0  0  0  0  0  0  0  0  0  0  0  0
  -28.3574   -2.2285   -6.4060 C   0  0  0  0  0  0  0  0  0  0  0  0
  -28.6384   -2.2734   -4.9176 C   0  0  0  0  0  0  0  0  0  0  0  0
  -27.8345   -3.1050   -4.2006 F   0  0  0  0  0  0  0  0  0  0  0  0
  -28.5109   -1.0486   -4.3323 F   0  0  0  0  0  0  0  0  0  0  0  0
  -29.9123   -2.6790   -4.6497 F   0  0  0  0  0  0  0  0  0  0  0  0
  -26.1653   -1.5586  -12.5109 C   0  0  0  0  0  0  0  0  0  0  0  0
  -25.0486   -1.1357  -13.2236 C   0  0  0  0  0  0  0  0  0  0  0  0
  -25.2236   -1.2159  -14.5705 N   0  0  0  0  0  0  0  0  0  0  0  0
  -26.4578   -1.6277  -14.7192 C   0  0  0  0  0  0  0  0  0  0  0  0
  -27.0601   -1.8763  -13.5221 N   0  0  0  0  0  0  0  0  0  0  0  0
  -28.3894   -2.4314  -13.4231 C   0  0  0  0  0  0  0  0  0  0  0  0
  -23.9168   -0.6486  -12.7012 N   0  0  0  0  0  0  0  0  0  0  0  0
  -23.8765   -0.3819  -11.7191 H   0  0  0  0  0  0  0  0  0  0  0  0
  -22.6461   -0.7235  -13.3906 C   0  0  0  0  0  0  0  0  0  0  0  0
  -22.1948    0.6353  -13.8816 C   0  0  0  0  0  0  0  0  0  0  0  0
  -22.9027    1.8098  -13.5977 C   0  0  0  0  0  0  0  0  0  0  0  0
  -22.4040    3.0297  -14.0537 C   0  0  0  0  0  0  0  0  0  0  0  0
  -21.2483    3.1576  -14.7414 N   0  0  0  0  0  0  0  0  0  0  0  0
  -20.5670    2.0210  -14.9871 C   0  0  0  0  0  0  0  0  0  0  0  0
  -20.9869    0.7633  -14.5720 C   0  0  0  0  0  0  0  0  0  0  0  0
  5  6  1  0  0  0
  6  7  1  0  0  0
  6 11  2  0  0  0
  7  8  2  0  0  0
  8  1  1  0  0  0
  8  9  1  0  0  0
  1  2  1  0  0  0
  1  4  1  0  0  0
  2  3  2  0  0  0
  2 16  1  0  0  0
 16 17  2  0  0  0
 16 20  1  0  0  0
 17 22  1  0  0  0
 17 18  1  0  0  0
 22 24  1  0  0  0
 22 23  1  0  0  0
 24 25  1  0  0  0
 25 26  1  0  0  0
 25 30  2  0  0  0
 26 27  2  0  0  0
 27 28  1  0  0  0
 28 29  2  0  0  0
 29 30  1  0  0  0
 18 19  2  0  0  0
 19 20  1  0  0  0
 20 21  1  0  0  0
  9 10  2  0  0  0
 10 11  1  0  0  0
 11 12  1  0  0  0
 12 13  1  0  0  0
 12 14  1  0  0  0
 12 15  1  0  0  0
M  END
> <minimizedAffinity>
-9.62479

$$$$
