CHEMBL199725


 47 51  0  0  0  0  0  0  0  0999 V2000
  -27.7877  -11.0537   -8.0534 C   0  0  0  0  0  0  0  0  0  0  0  0
  -27.6552  -10.9909   -6.6335 O   0  0  0  0  0  0  0  0  0  0  0  0
  -27.2893   -9.0596   -5.1485 C   0  0  0  0  0  0  0  0  0  0  0  0
  -27.8302   -7.9020   -4.6027 C   0  0  0  0  0  0  0  0  0  0  0  0
  -29.1517   -7.5216   -4.8983 C   0  0  0  0  0  0  0  0  0  0  0  0
  -29.7800   -6.3941   -4.3495 C   0  0  0  0  0  0  0  0  0  0  0  0
  -31.0579   -6.0886   -4.6444 N   0  0  0  0  0  0  0  0  0  0  0  0
  -31.6926   -6.8823   -5.5097 C   0  0  0  0  0  0  0  0  0  0  0  0
  -31.1742   -7.9512   -6.1198 N   0  0  0  0  0  0  0  0  0  0  0  0
  -29.9141   -8.2664   -5.8058 C   0  0  0  0  0  0  0  0  0  0  0  0
  -29.3335   -9.3797   -6.3973 C   0  0  0  0  0  0  0  0  0  0  0  0
  -28.0366   -9.7941   -6.0761 C   0  0  0  0  0  0  0  0  0  0  0  0
  -25.4777   -8.8561   -3.6472 C   0  0  0  0  0  0  0  0  0  0  0  0
  -26.0323   -9.4651   -4.8131 O   0  0  0  0  0  0  0  0  0  0  0  0
  -29.0572   -5.5392   -3.4792 N   0  0  0  0  0  0  0  0  0  0  0  0
  -29.3655   -5.6553   -2.5153 H   0  0  0  0  0  0  0  0  0  0  0  0
  -28.7953   -4.1819   -3.7811 C   0  0  0  0  0  0  0  0  0  0  0  0
  -27.6012   -3.8189   -4.4230 C   0  0  0  0  0  0  0  0  0  0  0  0
  -27.4017   -2.5130   -4.8576 C   0  0  0  0  0  0  0  0  0  0  0  0
  -28.3816   -1.5518   -4.6210 C   0  0  0  0  0  0  0  0  0  0  0  0
  -28.1716    0.0352   -5.2474 Cl  0  0  0  0  0  0  0  0  0  0  0  0
  -29.5365   -1.8705   -3.9089 C   0  0  0  0  0  0  0  0  0  0  0  0
  -29.7276   -3.1815   -3.4851 C   0  0  0  0  0  0  0  0  0  0  0  0
  -30.8536   -3.5011   -2.8267 F   0  0  0  0  0  0  0  0  0  0  0  0
  -26.8986  -10.0220   -8.7590 C   0  0  0  0  0  0  0  0  0  0  0  0
  -27.6532   -9.0101   -9.4349 O   0  0  0  0  0  0  0  0  0  0  0  0
  -27.1151   -7.6927   -9.2436 C   0  0  0  0  0  0  0  0  0  0  0  0
  -28.1192   -6.8438   -8.4796 C   0  0  0  0  0  0  0  0  0  0  0  0
  -27.7222   -5.4522   -8.4488 N   0  0  0  0  0  0  0  0  0  0  0  0
  -28.5795   -4.4711   -8.0036 C   0  0  0  0  0  0  0  0  0  0  0  0
  -29.7330   -4.6861   -7.6389 O   0  0  0  0  0  0  0  0  0  0  0  0
  -26.7308   -5.2610   -8.4569 H   0  0  0  0  0  0  0  0  0  0  0  0
  -27.9792   -3.0904   -8.0359 C   0  0  0  0  0  0  0  0  0  0  0  0
  -28.2002   -2.4072   -9.3896 C   0  0  0  0  0  0  0  0  0  0  0  0
  -27.0872   -1.4324   -9.7911 C   0  0  0  0  0  0  0  0  0  0  0  0
  -26.2291   -1.9556  -10.9466 C   0  0  0  0  0  0  0  0  0  0  0  0
  -25.8406   -0.8665  -11.9571 C   0  0  0  0  0  0  0  0  0  0  0  0
  -26.0521   -1.4194  -13.6790 S   0  0  0  0  0  0  0  0  0  0  0  0
  -24.4591   -2.2701  -13.7095 C   0  0  0  0  0  0  0  0  0  0  0  0
  -23.5299   -1.4965  -12.7687 C   0  0  0  0  0  0  0  0  0  0  0  0
  -22.6525   -0.5995  -13.4930 N   0  0  0  0  0  0  0  0  0  0  0  0
  -23.0418    0.7144  -13.3607 C   0  0  0  0  0  0  0  0  0  0  0  0
  -22.5981    1.6558  -13.9885 O   0  0  0  0  0  0  0  0  0  0  0  0
  -24.0246    0.7728  -12.3995 N   0  0  0  0  0  0  0  0  0  0  0  0
  -24.3462   -0.5382  -11.8687 C   0  0  0  0  0  0  0  0  0  0  0  0
  -22.0168   -0.8559  -14.2359 H   0  0  0  0  0  0  0  0  0  0  0  0
  -24.4525    1.6530  -12.1441 H   0  0  0  0  0  0  0  0  0  0  0  0
 13 14  1  0  0  0
 14  3  1  0  0  0
  3  4  1  0  0  0
  3 12  2  0  0  0
  4  5  2  0  0  0
  5  6  1  0  0  0
  5 10  1  0  0  0
  6 15  1  0  0  0
  6  7  2  0  0  0
 15 17  1  0  0  0
 15 16  1  0  0  0
 17 18  1  0  0  0
 17 23  2  0  0  0
 18 19  2  0  0  0
 19 20  1  0  0  0
 20 21  1  0  0  0
 20 22  2  0  0  0
 22 23  1  0  0  0
 23 24  1  0  0  0
  7  8  1  0  0  0
  8  9  2  0  0  0
  9 10  1  0  0  0
 10 11  2  0  0  0
 11 12  1  0  0  0
 12  2  1  0  0  0
  2  1  1  0  0  0
  1 25  1  0  0  0
 25 26  1  0  0  0
 26 27  1  0  0  0
 27 28  1  0  0  0
 28 29  1  0  0  0
 29 30  1  0  0  0
 29 32  1  0  0  0
 30 31  2  0  0  0
 30 33  1  0  0  0
 33 34  1  0  0  0
 34 35  1  0  0  0
 35 36  1  0  0  0
 36 37  1  0  0  0
 37 38  1  0  0  0
 37 45  1  0  0  0
 38 39  1  0  0  0
 39 40  1  0  0  0
 40 41  1  0  0  0
 40 45  1  0  0  0
 41 42  1  0  0  0
 41 46  1  0  0  0
 42 43  2  0  0  0
 42 44  1  0  0  0
 44 45  1  0  0  0
 44 47  1  0  0  0
M  END
> <minimizedAffinity>
-7.76464

$$$$
