CHEMBL3702606


 30 33  0  0  0  0  0  0  0  0999 V2000
  -19.7976    2.1343  -14.6907 C   0  0  0  0  0  0  0  0  0  0  0  0
  -19.5316    3.2265  -15.5178 C   0  0  0  0  0  0  0  0  0  0  0  0
  -18.2157    3.4709  -15.9318 C   0  0  0  0  0  0  0  0  0  0  0  0
  -17.1706    2.6379  -15.5121 C   0  0  0  0  0  0  0  0  0  0  0  0
  -17.4134    1.5347  -14.6903 C   0  0  0  0  0  0  0  0  0  0  0  0
  -18.7391    1.2994  -14.2983 C   0  0  0  0  0  0  0  0  0  0  0  0
  -16.4189    0.6826  -14.2252 N   0  0  0  0  0  0  0  0  0  0  0  0
  -16.2728    0.4072  -12.7938 C   0  0  0  0  0  0  0  0  0  0  0  0
  -15.7333   -1.0192  -12.6383 C   0  0  0  0  0  0  0  0  0  0  0  0
  -14.5693   -1.2942  -13.5579 C   0  0  0  0  0  0  0  0  0  0  0  0
  -13.8306   -2.3971  -13.2949 N   0  0  0  0  0  0  0  0  0  0  0  0
  -12.8197   -2.6649  -14.1277 C   0  0  0  0  0  0  0  0  0  0  0  0
  -12.0799   -3.8059  -13.8931 N   0  0  0  0  0  0  0  0  0  0  0  0
  -12.5023   -1.9416  -15.2041 N   0  0  0  0  0  0  0  0  0  0  0  0
  -13.2626   -0.8569  -15.4409 C   0  0  0  0  0  0  0  0  0  0  0  0
  -14.3298   -0.4833  -14.6544 C   0  0  0  0  0  0  0  0  0  0  0  0
  -15.1399    0.7419  -14.9499 C   0  0  0  0  0  0  0  0  0  0  0  0
  -12.6511   -4.4736  -13.3948 H   0  0  0  0  0  0  0  0  0  0  0  0
  -11.6673   -4.1121  -14.7634 H   0  0  0  0  0  0  0  0  0  0  0  0
  -21.3907    0.4091  -13.9893 N   0  0  0  0  0  0  0  0  0  0  0  0
  -21.1643    1.7558  -14.2276 C   0  0  0  0  0  0  0  0  0  0  0  0
  -21.9834    2.6621  -14.1117 O   0  0  0  0  0  0  0  0  0  0  0  0
  -20.6283   -0.2333  -14.1517 H   0  0  0  0  0  0  0  0  0  0  0  0
  -26.3298   -1.8240  -12.0791 C   0  0  0  0  0  0  0  0  0  0  0  0
  -25.0343   -1.2749  -12.5983 C   0  0  0  0  0  0  0  0  0  0  0  0
  -24.8592   -1.0303  -13.9611 C   0  0  0  0  0  0  0  0  0  0  0  0
  -23.6618   -0.4868  -14.4411 C   0  0  0  0  0  0  0  0  0  0  0  0
  -22.6135   -0.1766  -13.5727 C   0  0  0  0  0  0  0  0  0  0  0  0
  -22.7766   -0.4549  -12.2105 C   0  0  0  0  0  0  0  0  0  0  0  0
  -23.9761   -0.9980  -11.7270 C   0  0  0  0  0  0  0  0  0  0  0  0
 24 25  1  0  0  0
 25 26  1  0  0  0
 25 30  2  0  0  0
 26 27  2  0  0  0
 27 28  1  0  0  0
 28 20  1  0  0  0
 28 29  2  0  0  0
 20 21  1  0  0  0
 20 23  1  0  0  0
 21 22  2  0  0  0
 21  1  1  0  0  0
  1  2  1  0  0  0
  1  6  2  0  0  0
  2  3  2  0  0  0
  3  4  1  0  0  0
  4  5  2  0  0  0
  5  7  1  0  0  0
  5  6  1  0  0  0
  7  8  1  0  0  0
  7 17  1  0  0  0
  8  9  1  0  0  0
  9 10  1  0  0  0
 10 11  1  0  0  0
 10 16  2  0  0  0
 11 12  2  0  0  0
 12 13  1  0  0  0
 12 14  1  0  0  0
 13 18  1  0  0  0
 13 19  1  0  0  0
 14 15  2  0  0  0
 15 16  1  0  0  0
 16 17  1  0  0  0
 29 30  1  0  0  0
M  END
> <minimizedAffinity>
-9.58750

$$$$
