CHEMBL3978617


 33 36  0  0  0  0  0  0  0  0999 V2000
  -29.7105   -6.3097   -5.2371 N   0  0  0  0  0  0  0  0  0  0  0  0
  -29.3593   -4.9846   -5.6453 C   0  0  0  0  0  0  0  0  0  0  0  0
  -29.2350   -3.9633   -4.7063 C   0  0  0  0  0  0  0  0  0  0  0  0
  -28.8084   -2.6831   -5.0889 C   0  0  0  0  0  0  0  0  0  0  0  0
  -28.4561   -2.3988   -6.4013 C   0  0  0  0  0  0  0  0  0  0  0  0
  -28.0056   -1.1696   -6.7163 N   0  0  0  0  0  0  0  0  0  0  0  0
  -27.6176   -0.9862   -8.0015 C   0  0  0  0  0  0  0  0  0  0  0  0
  -27.6644   -1.9877   -8.9597 C   0  0  0  0  0  0  0  0  0  0  0  0
  -28.1517   -3.2154   -8.6508 N   0  0  0  0  0  0  0  0  0  0  0  0
  -28.5505   -3.4117   -7.3716 C   0  0  0  0  0  0  0  0  0  0  0  0
  -29.0380   -4.6638   -6.9830 C   0  0  0  0  0  0  0  0  0  0  0  0
  -27.1414   -1.7797  -10.3012 C   0  0  0  0  0  0  0  0  0  0  0  0
  -27.8113   -1.6325  -11.5393 C   0  0  0  0  0  0  0  0  0  0  0  0
  -26.9808   -1.4056  -12.5591 N   0  0  0  0  0  0  0  0  0  0  0  0
  -25.7677   -1.3985  -11.9800 N   0  0  0  0  0  0  0  0  0  0  0  0
  -24.5938   -1.1378  -12.7779 C   0  0  0  0  0  0  0  0  0  0  0  0
  -25.8090   -1.6232  -10.6328 C   0  0  0  0  0  0  0  0  0  0  0  0
  -30.2841   -9.3659   -7.4924 C   0  0  0  0  0  0  0  0  0  0  0  0
  -29.0177   -9.9341   -7.4853 C   0  0  0  0  0  0  0  0  0  0  0  0
  -28.0252   -9.4311   -6.6561 C   0  0  0  0  0  0  0  0  0  0  0  0
  -28.2910   -8.3114   -5.8349 C   0  0  0  0  0  0  0  0  0  0  0  0
  -27.2053   -8.0534   -4.4953 Cl  0  0  0  0  0  0  0  0  0  0  0  0
  -29.5101   -7.5583   -5.9431 C   0  0  0  0  0  0  0  0  0  0  0  0
  -30.5129   -8.1499   -6.7876 C   0  0  0  0  0  0  0  0  0  0  0  0
  -32.0705   -7.4078   -7.0534 Cl  0  0  0  0  0  0  0  0  0  0  0  0
  -31.1935  -11.3569   -8.4405 C   0  0  0  0  0  0  0  0  0  0  0  0
  -31.3263   -9.9552   -8.1766 O   0  0  0  0  0  0  0  0  0  0  0  0
  -26.9178  -10.2421   -6.6282 O   0  0  0  0  0  0  0  0  0  0  0  0
  -27.0274  -11.4527   -5.8886 C   0  0  0  0  0  0  0  0  0  0  0  0
  -30.2861   -6.3660   -3.8572 C   0  0  0  0  0  0  0  0  0  0  0  0
  -31.7309   -5.8093   -3.7857 C   0  0  0  0  0  0  0  0  0  0  0  0
  -32.0453   -5.4065   -2.4540 O   0  0  0  0  0  0  0  0  0  0  0  0
  -33.0047   -5.2380   -2.4360 H   0  0  0  0  0  0  0  0  0  0  0  0
 26 27  1  0  0  0
 27 18  1  0  0  0
 18 19  1  0  0  0
 18 24  2  0  0  0
 19 20  2  0  0  0
 20 28  1  0  0  0
 20 21  1  0  0  0
 28 29  1  0  0  0
 21 22  1  0  0  0
 21 23  2  0  0  0
 23  1  1  0  0  0
 23 24  1  0  0  0
  1 30  1  0  0  0
  1  2  1  0  0  0
 30 31  1  0  0  0
 31 32  1  0  0  0
 32 33  1  0  0  0
  2  3  1  0  0  0
  2 11  2  0  0  0
  3  4  2  0  0  0
  4  5  1  0  0  0
  5  6  1  0  0  0
  5 10  2  0  0  0
  6  7  2  0  0  0
  7  8  1  0  0  0
  8 12  1  0  0  0
  8  9  2  0  0  0
 12 13  1  0  0  0
 12 17  2  0  0  0
 13 14  2  0  0  0
 14 15  1  0  0  0
 15 16  1  0  0  0
 15 17  1  0  0  0
  9 10  1  0  0  0
 10 11  1  0  0  0
 24 25  1  0  0  0
M  END
> <minimizedAffinity>
-8.25348

$$$$
