CHEMBL4227572


 38 40  0  0  0  0  0  0  0  0999 V2000
  -21.9866    1.6388  -13.8287 N   0  0  0  0  0  0  0  0  0  0  0  0
  -20.7265    1.2935  -14.2928 C   0  0  0  0  0  0  0  0  0  0  0  0
  -20.4104    0.1909  -14.7221 O   0  0  0  0  0  0  0  0  0  0  0  0
  -19.8165    2.3421  -14.1780 N   0  0  0  0  0  0  0  0  0  0  0  0
  -22.1717    2.6240  -13.7053 H   0  0  0  0  0  0  0  0  0  0  0  0
  -19.9640    2.9403  -13.3778 H   0  0  0  0  0  0  0  0  0  0  0  0
  -25.3244   -0.9531  -13.3998 C   0  0  0  0  0  0  0  0  0  0  0  0
  -24.8644   -0.2290  -12.3029 C   0  0  0  0  0  0  0  0  0  0  0  0
  -23.7552    0.6160  -12.4247 C   0  0  0  0  0  0  0  0  0  0  0  0
  -23.0747    0.7508  -13.6391 C   0  0  0  0  0  0  0  0  0  0  0  0
  -23.5180   -0.0053  -14.7302 C   0  0  0  0  0  0  0  0  0  0  0  0
  -24.6318   -0.8530  -14.6098 C   0  0  0  0  0  0  0  0  0  0  0  0
  -26.7462   -2.0154  -13.2344 S   0  0  0  0  0  0  0  0  0  0  0  0
  -27.7393   -1.5252   -8.8245 C   0  0  0  0  0  0  0  0  0  0  0  0
  -28.2681   -0.6231   -9.7448 C   0  0  0  0  0  0  0  0  0  0  0  0
  -27.9709   -0.7800  -11.1021 C   0  0  0  0  0  0  0  0  0  0  0  0
  -27.1513   -1.8353  -11.5023 C   0  0  0  0  0  0  0  0  0  0  0  0
  -26.6113   -2.7036  -10.6195 N   0  0  0  0  0  0  0  0  0  0  0  0
  -26.9104   -2.5309   -9.3065 C   0  0  0  0  0  0  0  0  0  0  0  0
  -28.4042   -0.0007   -5.4289 C   0  0  0  0  0  0  0  0  0  0  0  0
  -28.0979   -0.1778   -6.8277 N   0  0  0  0  0  0  0  0  0  0  0  0
  -27.9849   -1.4440   -7.3692 C   0  0  0  0  0  0  0  0  0  0  0  0
  -28.1098   -2.4727   -6.7108 O   0  0  0  0  0  0  0  0  0  0  0  0
  -28.1725    0.6250   -7.4354 H   0  0  0  0  0  0  0  0  0  0  0  0
  -18.4787    2.1768  -14.6157 C   0  0  0  0  0  0  0  0  0  0  0  0
  -17.6884    1.1215  -14.1427 C   0  0  0  0  0  0  0  0  0  0  0  0
  -16.3470    0.9907  -14.5278 C   0  0  0  0  0  0  0  0  0  0  0  0
  -15.7943    1.9563  -15.3822 C   0  0  0  0  0  0  0  0  0  0  0  0
  -16.5777    3.0068  -15.8888 C   0  0  0  0  0  0  0  0  0  0  0  0
  -17.9331    3.0930  -15.5177 C   0  0  0  0  0  0  0  0  0  0  0  0
  -15.5060   -0.1678  -14.0487 C   0  0  0  0  0  0  0  0  0  0  0  0
  -14.4980   -0.5099  -14.8966 F   0  0  0  0  0  0  0  0  0  0  0  0
  -14.9074    0.1021  -12.8537 F   0  0  0  0  0  0  0  0  0  0  0  0
  -16.2352   -1.2997  -13.8496 F   0  0  0  0  0  0  0  0  0  0  0  0
  -15.9778    4.0419  -16.8107 C   0  0  0  0  0  0  0  0  0  0  0  0
  -14.6160    4.0562  -16.8005 F   0  0  0  0  0  0  0  0  0  0  0  0
  -16.3398    3.8470  -18.1083 F   0  0  0  0  0  0  0  0  0  0  0  0
  -16.3678    5.3081  -16.4987 F   0  0  0  0  0  0  0  0  0  0  0  0
 20 21  1  0  0  0
 21 22  1  0  0  0
 21 24  1  0  0  0
 22 23  2  0  0  0
 22 14  1  0  0  0
 14 15  1  0  0  0
 14 19  2  0  0  0
 15 16  2  0  0  0
 16 17  1  0  0  0
 17 13  1  0  0  0
 17 18  2  0  0  0
 13  7  1  0  0  0
  7  8  1  0  0  0
  7 12  2  0  0  0
  8  9  2  0  0  0
  9 10  1  0  0  0
 10  1  1  0  0  0
 10 11  2  0  0  0
  1  2  1  0  0  0
  1  5  1  0  0  0
  2  3  2  0  0  0
  2  4  1  0  0  0
  4 25  1  0  0  0
  4  6  1  0  0  0
 25 26  1  0  0  0
 25 30  2  0  0  0
 26 27  2  0  0  0
 27 31  1  0  0  0
 27 28  1  0  0  0
 31 32  1  0  0  0
 31 33  1  0  0  0
 31 34  1  0  0  0
 28 29  2  0  0  0
 29 35  1  0  0  0
 29 30  1  0  0  0
 35 36  1  0  0  0
 35 37  1  0  0  0
 35 38  1  0  0  0
 11 12  1  0  0  0
 18 19  1  0  0  0
M  END
> <minimizedAffinity>
-8.28376

$$$$
