CHEMBL3919169


 45 49  0  0  0  0  0  0  0  0999 V2000
  -12.7409   -0.0881  -17.0978 C   0  0  0  0  0  0  0  0  0  0  0  0
  -12.9652   -0.4040  -18.4358 C   0  0  0  0  0  0  0  0  0  0  0  0
  -13.0825   -1.7441  -18.8458 C   0  0  0  0  0  0  0  0  0  0  0  0
  -12.9730   -2.8047  -17.9349 C   0  0  0  0  0  0  0  0  0  0  0  0
  -12.7362   -2.4813  -16.5929 C   0  0  0  0  0  0  0  0  0  0  0  0
  -12.6027   -1.1405  -16.1901 C   0  0  0  0  0  0  0  0  0  0  0  0
  -12.3285   -0.8968  -14.9000 F   0  0  0  0  0  0  0  0  0  0  0  0
  -13.0512   -4.1820  -18.2984 N   0  0  0  0  0  0  0  0  0  0  0  0
  -13.9624   -4.7504  -19.1762 C   0  0  0  0  0  0  0  0  0  0  0  0
  -14.9100   -4.1496  -19.6762 O   0  0  0  0  0  0  0  0  0  0  0  0
  -12.3481   -4.8042  -17.8982 H   0  0  0  0  0  0  0  0  0  0  0  0
  -13.7244   -6.1704  -19.5472 C   0  0  0  0  0  0  0  0  0  0  0  0
  -13.3642   -6.6641  -20.7547 C   0  0  0  0  0  0  0  0  0  0  0  0
  -13.2129   -5.9189  -22.0467 C   0  0  0  0  0  0  0  0  0  0  0  0
  -13.1114   -8.0409  -20.7133 N   0  0  0  0  0  0  0  0  0  0  0  0
  -13.1940   -8.9472  -21.8576 C   0  0  0  0  0  0  0  0  0  0  0  0
  -13.5939   -8.4882  -19.4724 N   0  0  0  0  0  0  0  0  0  0  0  0
  -13.8673   -7.3697  -18.6729 C   0  0  0  0  0  0  0  0  0  0  0  0
  -14.1462   -7.3049  -17.4843 O   0  0  0  0  0  0  0  0  0  0  0  0
  -13.4021   -9.8007  -19.0036 C   0  0  0  0  0  0  0  0  0  0  0  0
  -14.3780  -10.7669  -19.2748 C   0  0  0  0  0  0  0  0  0  0  0  0
  -14.1808  -12.0967  -18.8927 C   0  0  0  0  0  0  0  0  0  0  0  0
  -13.0268  -12.4600  -18.1998 C   0  0  0  0  0  0  0  0  0  0  0  0
  -12.0588  -11.4998  -17.9091 C   0  0  0  0  0  0  0  0  0  0  0  0
  -12.2360  -10.1777  -18.3278 C   0  0  0  0  0  0  0  0  0  0  0  0
  -12.5951    1.2534  -16.8027 O   0  0  0  0  0  0  0  0  0  0  0  0
  -16.1637    1.0571  -14.4547 C   0  0  0  0  0  0  0  0  0  0  0  0
  -14.9348    1.1852  -15.1307 C   0  0  0  0  0  0  0  0  0  0  0  0
  -14.7794    2.0682  -16.2163 C   0  0  0  0  0  0  0  0  0  0  0  0
  -13.6367    2.1314  -17.0479 C   0  0  0  0  0  0  0  0  0  0  0  0
  -13.5732    3.0744  -18.0683 C   0  0  0  0  0  0  0  0  0  0  0  0
  -14.6873    3.8607  -18.2835 C   0  0  0  0  0  0  0  0  0  0  0  0
  -15.8023    3.8083  -17.5337 N   0  0  0  0  0  0  0  0  0  0  0  0
  -15.8430    2.9303  -16.5273 C   0  0  0  0  0  0  0  0  0  0  0  0
  -17.0082    2.8764  -15.7790 C   0  0  0  0  0  0  0  0  0  0  0  0
  -17.2087    1.9546  -14.7387 C   0  0  0  0  0  0  0  0  0  0  0  0
  -15.5203   -1.0921  -13.7466 C   0  0  0  0  0  0  0  0  0  0  0  0
  -16.3755    0.0438  -13.5474 O   0  0  0  0  0  0  0  0  0  0  0  0
  -18.3863    1.8907  -14.0097 O   0  0  0  0  0  0  0  0  0  0  0  0
  -19.2776    3.0148  -14.1957 C   0  0  0  0  0  0  0  0  0  0  0  0
  -20.6361    2.6201  -14.8143 C   0  0  0  0  0  0  0  0  0  0  0  0
  -20.7704    1.1068  -14.9747 C   0  0  0  0  0  0  0  0  0  0  0  0
  -21.7759    3.1497  -13.9244 C   0  0  0  0  0  0  0  0  0  0  0  0
  -20.7844    3.2304  -16.0961 O   0  0  0  0  0  0  0  0  0  0  0  0
  -19.9635    3.0441  -16.5804 H   0  0  0  0  0  0  0  0  0  0  0  0
 37 38  1  0  0  0
 38 27  1  0  0  0
 27 28  1  0  0  0
 27 36  2  0  0  0
 28 29  2  0  0  0
 29 30  1  0  0  0
 29 34  1  0  0  0
 30 26  1  0  0  0
 30 31  2  0  0  0
 26  1  1  0  0  0
  1  2  1  0  0  0
  1  6  2  0  0  0
  2  3  2  0  0  0
  3  4  1  0  0  0
  4  8  1  0  0  0
  4  5  2  0  0  0
  8  9  1  0  0  0
  8 11  1  0  0  0
  9 10  2  0  0  0
  9 12  1  0  0  0
 12 13  2  0  0  0
 12 18  1  0  0  0
 13 14  1  0  0  0
 13 15  1  0  0  0
 15 16  1  0  0  0
 15 17  1  0  0  0
 17 20  1  0  0  0
 17 18  1  0  0  0
 20 21  1  0  0  0
 20 25  2  0  0  0
 21 22  2  0  0  0
 22 23  1  0  0  0
 23 24  2  0  0  0
 24 25  1  0  0  0
 18 19  2  0  0  0
  5  6  1  0  0  0
  6  7  1  0  0  0
 31 32  1  0  0  0
 32 33  2  0  0  0
 33 34  1  0  0  0
 34 35  2  0  0  0
 35 36  1  0  0  0
 36 39  1  0  0  0
 39 40  1  0  0  0
 40 41  1  0  0  0
 41 42  1  0  0  0
 41 43  1  0  0  0
 41 44  1  0  0  0
 44 45  1  0  0  0
M  END
> <minimizedAffinity>
-7.40882

$$$$
