CHEMBL3924872


 34 38  0  0  0  0  0  0  0  0999 V2000
  -16.9420    1.9201  -15.5685 N   0  0  0  0  0  0  0  0  0  0  0  0
  -18.3816    1.8931  -15.5524 C   0  0  0  0  0  0  0  0  0  0  0  0
  -19.0020    3.1244  -15.7225 C   0  0  0  0  0  0  0  0  0  0  0  0
  -20.2547    3.3482  -15.1894 C   0  0  0  0  0  0  0  0  0  0  0  0
  -20.9873    2.3475  -14.6172 C   0  0  0  0  0  0  0  0  0  0  0  0
  -22.1009    2.7496  -14.0017 N   0  0  0  0  0  0  0  0  0  0  0  0
  -22.9300    1.7981  -13.5689 C   0  0  0  0  0  0  0  0  0  0  0  0
  -22.7042    0.4668  -13.8042 C   0  0  0  0  0  0  0  0  0  0  0  0
  -21.5154    0.0217  -14.3489 N   0  0  0  0  0  0  0  0  0  0  0  0
  -20.5773    0.9889  -14.7070 C   0  0  0  0  0  0  0  0  0  0  0  0
  -19.2039    0.8054  -15.1437 C   0  0  0  0  0  0  0  0  0  0  0  0
  -23.8495   -0.4270  -13.6227 C   0  0  0  0  0  0  0  0  0  0  0  0
  -24.6540   -1.0619  -14.6034 C   0  0  0  0  0  0  0  0  0  0  0  0
  -25.7757   -1.5873  -14.0979 N   0  0  0  0  0  0  0  0  0  0  0  0
  -25.7012   -1.2874  -12.7905 N   0  0  0  0  0  0  0  0  0  0  0  0
  -26.6198   -1.8881  -11.8517 C   0  0  0  0  0  0  0  0  0  0  0  0
  -24.6507   -0.4630  -12.4902 C   0  0  0  0  0  0  0  0  0  0  0  0
  -13.8180   -0.1127  -15.1647 C   0  0  0  0  0  0  0  0  0  0  0  0
  -14.0229   -0.7525  -13.9440 C   0  0  0  0  0  0  0  0  0  0  0  0
  -15.2102   -0.5390  -13.2511 C   0  0  0  0  0  0  0  0  0  0  0  0
  -16.1826    0.3153  -13.8150 C   0  0  0  0  0  0  0  0  0  0  0  0
  -16.0140    0.9725  -15.0596 C   0  0  0  0  0  0  0  0  0  0  0  0
  -14.8075    0.7133  -15.7242 C   0  0  0  0  0  0  0  0  0  0  0  0
  -12.3753   -1.6190  -16.2438 C   0  0  0  0  0  0  0  0  0  0  0  0
  -12.6732   -0.2651  -15.9049 O   0  0  0  0  0  0  0  0  0  0  0  0
  -15.5317   -1.0860  -12.0320 O   0  0  0  0  0  0  0  0  0  0  0  0
  -15.1366   -2.4522  -11.8128 C   0  0  0  0  0  0  0  0  0  0  0  0
  -16.0929   -3.1139  -10.8185 C   0  0  0  0  0  0  0  0  0  0  0  0
  -15.6423   -2.9307   -9.4794 O   0  0  0  0  0  0  0  0  0  0  0  0
  -14.7274   -3.2781   -9.4525 H   0  0  0  0  0  0  0  0  0  0  0  0
  -16.5053    3.3461  -15.7130 C   0  0  0  0  0  0  0  0  0  0  0  0
  -16.0704    3.8990  -17.0598 C   0  0  0  0  0  0  0  0  0  0  0  0
  -14.7388    3.5387  -17.6889 C   0  0  0  0  0  0  0  0  0  0  0  0
  -15.0574    4.9733  -17.3916 C   0  0  0  0  0  0  0  0  0  0  0  0
 24 25  1  0  0  0
 25 18  1  0  0  0
 18 19  1  0  0  0
 18 23  2  0  0  0
 19 20  2  0  0  0
 20 26  1  0  0  0
 20 21  1  0  0  0
 26 27  1  0  0  0
 27 28  1  0  0  0
 28 29  1  0  0  0
 29 30  1  0  0  0
 21 22  2  0  0  0
 22  1  1  0  0  0
 22 23  1  0  0  0
  1 31  1  0  0  0
  1  2  1  0  0  0
 31 32  1  0  0  0
 32 33  1  0  0  0
 32 34  1  0  0  0
 33 34  1  0  0  0
  2  3  1  0  0  0
  2 11  2  0  0  0
  3  4  2  0  0  0
  4  5  1  0  0  0
  5  6  1  0  0  0
  5 10  2  0  0  0
  6  7  2  0  0  0
  7  8  1  0  0  0
  8 12  1  0  0  0
  8  9  2  0  0  0
 12 13  1  0  0  0
 12 17  2  0  0  0
 13 14  2  0  0  0
 14 15  1  0  0  0
 15 16  1  0  0  0
 15 17  1  0  0  0
  9 10  1  0  0  0
 10 11  1  0  0  0
M  END
> <minimizedAffinity>
-9.09319

$$$$
