CHEMBL212143


 50 54  0  0  0  0  0  0  0  0999 V2000
  -28.7096   -7.2719   -4.5239 C   0  0  0  0  0  0  0  0  0  0  0  0
  -29.7994   -7.6212   -3.7514 C   0  0  0  0  0  0  0  0  0  0  0  0
  -30.3694   -6.6098   -3.0279 C   0  0  0  0  0  0  0  0  0  0  0  0
  -29.9368   -5.3502   -3.0931 N   0  0  0  0  0  0  0  0  0  0  0  0
  -28.8854   -5.0765   -3.8860 C   0  0  0  0  0  0  0  0  0  0  0  0
  -28.2577   -6.0064   -4.6152 N   0  0  0  0  0  0  0  0  0  0  0  0
  -28.0525   -8.2796   -5.2636 N   0  0  0  0  0  0  0  0  0  0  0  0
  -28.5360   -8.5418   -6.5471 C   0  0  0  0  0  0  0  0  0  0  0  0
  -28.8663   -7.6585   -7.3432 O   0  0  0  0  0  0  0  0  0  0  0  0
  -25.6153  -10.9163   -2.9945 C   0  0  0  0  0  0  0  0  0  0  0  0
  -25.0490   -9.8104   -3.6254 C   0  0  0  0  0  0  0  0  0  0  0  0
  -25.8482   -8.9479   -4.3907 C   0  0  0  0  0  0  0  0  0  0  0  0
  -27.2294   -9.1856   -4.5420 C   0  0  0  0  0  0  0  0  0  0  0  0
  -27.7779  -10.3469   -3.9663 C   0  0  0  0  0  0  0  0  0  0  0  0
  -26.9734  -11.1816   -3.1724 C   0  0  0  0  0  0  0  0  0  0  0  0
  -23.5367  -11.6193   -2.0566 C   0  0  0  0  0  0  0  0  0  0  0  0
  -24.9425  -11.8039   -2.1945 O   0  0  0  0  0  0  0  0  0  0  0  0
  -29.0631  -10.7839   -4.1711 O   0  0  0  0  0  0  0  0  0  0  0  0
  -29.5395  -11.6819   -3.1650 C   0  0  0  0  0  0  0  0  0  0  0  0
  -28.6648   -9.9059   -6.8158 O   0  0  0  0  0  0  0  0  0  0  0  0
  -28.3228  -10.5187   -8.0598 C   0  0  0  0  0  0  0  0  0  0  0  0
  -26.9968  -10.7597   -8.4729 C   0  0  0  0  0  0  0  0  0  0  0  0
  -25.7541  -10.7376   -7.6315 C   0  0  0  0  0  0  0  0  0  0  0  0
  -26.7705  -11.0345   -9.8365 C   0  0  0  0  0  0  0  0  0  0  0  0
  -27.8146  -11.1132  -10.7513 C   0  0  0  0  0  0  0  0  0  0  0  0
  -29.1235  -10.9466  -10.3201 C   0  0  0  0  0  0  0  0  0  0  0  0
  -29.3968  -10.6424   -8.9759 C   0  0  0  0  0  0  0  0  0  0  0  0
  -30.8265  -10.4957   -8.5409 C   0  0  0  0  0  0  0  0  0  0  0  0
  -28.4326   -3.7674   -4.0285 N   0  0  0  0  0  0  0  0  0  0  0  0
  -28.0697   -3.4061   -3.1636 H   0  0  0  0  0  0  0  0  0  0  0  0
  -28.1727   -3.0665   -5.2119 C   0  0  0  0  0  0  0  0  0  0  0  0
  -28.0437   -1.6769   -5.2294 C   0  0  0  0  0  0  0  0  0  0  0  0
  -27.9379   -0.9439   -6.4161 C   0  0  0  0  0  0  0  0  0  0  0  0
  -27.9146   -1.6289   -7.6487 C   0  0  0  0  0  0  0  0  0  0  0  0
  -28.0200   -3.0384   -7.6427 C   0  0  0  0  0  0  0  0  0  0  0  0
  -28.1537   -3.7377   -6.4297 C   0  0  0  0  0  0  0  0  0  0  0  0
  -27.8128    0.4217   -6.3946 O   0  0  0  0  0  0  0  0  0  0  0  0
  -29.0052    1.2014   -6.3811 C   0  0  0  0  0  0  0  0  0  0  0  0
  -28.0665   -3.8871   -8.7200 O   0  0  0  0  0  0  0  0  0  0  0  0
  -27.8750   -5.2712   -8.4700 C   0  0  0  0  0  0  0  0  0  0  0  0
  -27.8713   -1.0319   -8.8844 O   0  0  0  0  0  0  0  0  0  0  0  0
  -26.6792   -1.1435   -9.6667 C   0  0  0  0  0  0  0  0  0  0  0  0
  -27.0769   -1.5549  -11.0936 C   0  0  0  0  0  0  0  0  0  0  0  0
  -25.9534   -1.9449  -11.9683 N   0  0  0  0  0  0  0  0  0  0  0  0
  -26.0998   -1.2975  -13.2887 C   0  0  0  0  0  0  0  0  0  0  0  0
  -24.9025   -1.5434  -14.2375 C   0  0  0  0  0  0  0  0  0  0  0  0
  -23.5795   -1.2218  -13.6692 N   0  0  0  0  0  0  0  0  0  0  0  0
  -23.3646    0.2206  -13.5811 C   0  0  0  0  0  0  0  0  0  0  0  0
  -23.4611   -1.8734  -12.3505 C   0  0  0  0  0  0  0  0  0  0  0  0
  -24.6411   -1.6120  -11.3813 C   0  0  0  0  0  0  0  0  0  0  0  0
 16 17  1  0  0  0
 17 10  1  0  0  0
 10 11  1  0  0  0
 10 15  2  0  0  0
 11 12  2  0  0  0
 12 13  1  0  0  0
 13  7  1  0  0  0
 13 14  2  0  0  0
  7  8  1  0  0  0
  7  1  1  0  0  0
  8  9  2  0  0  0
  8 20  1  0  0  0
 20 21  1  0  0  0
 21 22  1  0  0  0
 21 27  2  0  0  0
 22 23  1  0  0  0
 22 24  2  0  0  0
 24 25  1  0  0  0
 25 26  2  0  0  0
 26 27  1  0  0  0
 27 28  1  0  0  0
  1  2  1  0  0  0
  1  6  2  0  0  0
  2  3  2  0  0  0
  3  4  1  0  0  0
  4  5  2  0  0  0
  5 29  1  0  0  0
  5  6  1  0  0  0
 29 31  1  0  0  0
 29 30  1  0  0  0
 31 32  1  0  0  0
 31 36  2  0  0  0
 32 33  2  0  0  0
 33 37  1  0  0  0
 33 34  1  0  0  0
 37 38  1  0  0  0
 34 41  1  0  0  0
 34 35  2  0  0  0
 41 42  1  0  0  0
 42 43  1  0  0  0
 43 44  1  0  0  0
 44 45  1  0  0  0
 44 50  1  0  0  0
 45 46  1  0  0  0
 46 47  1  0  0  0
 47 48  1  0  0  0
 47 49  1  0  0  0
 49 50  1  0  0  0
 35 39  1  0  0  0
 35 36  1  0  0  0
 39 40  1  0  0  0
 14 18  1  0  0  0
 14 15  1  0  0  0
 18 19  1  0  0  0
M  END
> <minimizedAffinity>
-7.98781

$$$$
