CHEMBL3908829


 44 49  0  0  0  0  0  0  0  0999 V2000
  -27.4048   -1.6986   -8.9448 C   0  0  0  0  0  0  0  0  0  0  0  0
  -28.3435   -1.6781   -9.9798 C   0  0  0  0  0  0  0  0  0  0  0  0
  -27.9959   -1.6271  -11.2743 C   0  0  0  0  0  0  0  0  0  0  0  0
  -26.7008   -1.5014  -11.6407 C   0  0  0  0  0  0  0  0  0  0  0  0
  -26.4724   -1.6921  -12.9341 N   0  0  0  0  0  0  0  0  0  0  0  0
  -25.2879   -1.5184  -13.4800 C   0  0  0  0  0  0  0  0  0  0  0  0
  -24.2576   -0.9439  -12.7404 C   0  0  0  0  0  0  0  0  0  0  0  0
  -24.4156   -0.8826  -11.3352 N   0  0  0  0  0  0  0  0  0  0  0  0
  -25.6531   -1.2297  -10.7403 C   0  0  0  0  0  0  0  0  0  0  0  0
  -26.0085   -1.3698   -9.3085 C   0  0  0  0  0  0  0  0  0  0  0  0
  -23.2821   -0.1952  -13.6695 C   0  0  0  0  0  0  0  0  0  0  0  0
  -22.1414   -0.6009  -14.3576 C   0  0  0  0  0  0  0  0  0  0  0  0
  -21.4230    0.5002  -14.7348 N   0  0  0  0  0  0  0  0  0  0  0  0
  -22.0780    1.5921  -14.3584 N   0  0  0  0  0  0  0  0  0  0  0  0
  -23.2189    1.2145  -13.7630 C   0  0  0  0  0  0  0  0  0  0  0  0
  -21.5727    2.9676  -14.2577 C   0  0  0  0  0  0  0  0  0  0  0  0
  -20.4984    3.3661  -15.2619 C   0  0  0  0  0  0  0  0  0  0  0  0
  -19.0736    3.1417  -14.7582 C   0  0  0  0  0  0  0  0  0  0  0  0
  -18.3583    2.1465  -15.5962 N   0  0  0  0  0  0  0  0  0  0  0  0
  -17.9572    0.8961  -14.9027 C   0  0  0  0  0  0  0  0  0  0  0  0
  -16.7730    1.1219  -13.9386 C   0  0  0  0  0  0  0  0  0  0  0  0
  -15.6132    1.7137  -14.6398 N   0  0  0  0  0  0  0  0  0  0  0  0
  -16.0214    2.9724  -15.3029 C   0  0  0  0  0  0  0  0  0  0  0  0
  -17.1934    2.7478  -16.2783 C   0  0  0  0  0  0  0  0  0  0  0  0
  -14.9506    0.7199  -15.5231 C   0  0  0  0  0  0  0  0  0  0  0  0
  -13.8115   -0.0446  -14.8370 C   0  0  0  0  0  0  0  0  0  0  0  0
  -12.9523    0.8741  -13.9648 C   0  0  0  0  0  0  0  0  0  0  0  0
  -13.5504    1.0592  -12.7117 O   0  0  0  0  0  0  0  0  0  0  0  0
  -14.4090    1.5305  -12.8711 H   0  0  0  0  0  0  0  0  0  0  0  0
  -27.9743   -2.2406   -7.6965 N   0  0  0  0  0  0  0  0  0  0  0  0
  -28.8791   -5.9557   -7.7111 C   0  0  0  0  0  0  0  0  0  0  0  0
  -29.7944   -5.9737   -6.6343 C   0  0  0  0  0  0  0  0  0  0  0  0
  -30.1303   -4.8056   -5.9717 C   0  0  0  0  0  0  0  0  0  0  0  0
  -29.5497   -3.6063   -6.3751 C   0  0  0  0  0  0  0  0  0  0  0  0
  -28.6254   -3.5167   -7.4481 C   0  0  0  0  0  0  0  0  0  0  0  0
  -28.3046   -4.7172   -8.1277 C   0  0  0  0  0  0  0  0  0  0  0  0
  -29.3183   -8.2631   -8.3911 C   0  0  0  0  0  0  0  0  0  0  0  0
  -28.5249   -7.1181   -8.3335 O   0  0  0  0  0  0  0  0  0  0  0  0
  -31.0176   -4.8774   -4.9435 O   0  0  0  0  0  0  0  0  0  0  0  0
  -31.1891   -5.9579   -4.0938 C   0  0  0  0  0  0  0  0  0  0  0  0
  -27.8690   -1.3245   -6.5036 C   0  0  0  0  0  0  0  0  0  0  0  0
  -28.6691    0.0060   -6.6932 C   0  0  0  0  0  0  0  0  0  0  0  0
  -28.5516    1.0518   -5.5613 C   0  0  0  0  0  0  0  0  0  0  0  0
  -29.7593    0.1782   -5.6059 C   0  0  0  0  0  0  0  0  0  0  0  0
 37 38  1  0  0  0
 38 31  1  0  0  0
 31 32  1  0  0  0
 31 36  2  0  0  0
 32 33  2  0  0  0
 33 39  1  0  0  0
 33 34  1  0  0  0
 39 40  1  0  0  0
 34 35  2  0  0  0
 35 30  1  0  0  0
 35 36  1  0  0  0
 30 41  1  0  0  0
 30  1  1  0  0  0
 41 42  1  0  0  0
 42 43  1  0  0  0
 42 44  1  0  0  0
 43 44  1  0  0  0
  1  2  1  0  0  0
  1 10  2  0  0  0
  2  3  2  0  0  0
  3  4  1  0  0  0
  4  5  1  0  0  0
  4  9  2  0  0  0
  5  6  2  0  0  0
  6  7  1  0  0  0
  7 11  1  0  0  0
  7  8  2  0  0  0
 11 12  1  0  0  0
 11 15  2  0  0  0
 12 13  2  0  0  0
 13 14  1  0  0  0
 14 16  1  0  0  0
 14 15  1  0  0  0
 16 17  1  0  0  0
 17 18  1  0  0  0
 18 19  1  0  0  0
 19 20  1  0  0  0
 19 24  1  0  0  0
 20 21  1  0  0  0
 21 22  1  0  0  0
 22 25  1  0  0  0
 22 23  1  0  0  0
 25 26  1  0  0  0
 26 27  1  0  0  0
 27 28  1  0  0  0
 28 29  1  0  0  0
 23 24  1  0  0  0
  8  9  1  0  0  0
  9 10  1  0  0  0
M  END
> <minimizedAffinity>
-8.25078

$$$$
