CHEMBL3949470


 37 40  0  0  0  0  0  0  0  0999 V2000
  -14.0780   -0.2039  -14.7867 C   0  0  0  0  0  0  0  0  0  0  0  0
  -14.0709    0.2169  -16.1142 C   0  0  0  0  0  0  0  0  0  0  0  0
  -14.9348    1.2079  -16.5385 C   0  0  0  0  0  0  0  0  0  0  0  0
  -15.9345    1.6933  -15.7324 C   0  0  0  0  0  0  0  0  0  0  0  0
  -16.5673    2.7545  -16.2300 N   0  0  0  0  0  0  0  0  0  0  0  0
  -17.7060    3.1350  -15.6402 C   0  0  0  0  0  0  0  0  0  0  0  0
  -18.2807    2.3995  -14.6285 C   0  0  0  0  0  0  0  0  0  0  0  0
  -17.5552    1.4100  -13.9889 N   0  0  0  0  0  0  0  0  0  0  0  0
  -16.2822    1.0533  -14.5211 C   0  0  0  0  0  0  0  0  0  0  0  0
  -15.2465    0.1491  -14.0163 C   0  0  0  0  0  0  0  0  0  0  0  0
  -19.7418    2.5478  -14.5049 C   0  0  0  0  0  0  0  0  0  0  0  0
  -20.6655    3.5955  -14.7453 C   0  0  0  0  0  0  0  0  0  0  0  0
  -21.9529    3.2073  -14.6510 N   0  0  0  0  0  0  0  0  0  0  0  0
  -21.8772    1.9032  -14.3215 N   0  0  0  0  0  0  0  0  0  0  0  0
  -20.5839    1.4426  -14.3723 C   0  0  0  0  0  0  0  0  0  0  0  0
  -23.0116    1.2255  -13.7035 C   0  0  0  0  0  0  0  0  0  0  0  0
  -23.1738   -0.2719  -13.9660 C   0  0  0  0  0  0  0  0  0  0  0  0
  -24.1626   -0.9790  -12.6386 S   0  0  0  0  0  0  0  0  0  0  0  0
  -25.6429   -1.5898  -13.4188 C   0  0  0  0  0  0  0  0  0  0  0  0
  -23.4470   -2.1323  -12.1242 O   0  0  0  0  0  0  0  0  0  0  0  0
  -24.5584    0.0971  -11.7526 O   0  0  0  0  0  0  0  0  0  0  0  0
  -12.8018   -0.7364  -14.3325 N   0  0  0  0  0  0  0  0  0  0  0  0
  -11.6754   -3.0956  -11.6317 C   0  0  0  0  0  0  0  0  0  0  0  0
  -12.3135   -4.2758  -12.0160 C   0  0  0  0  0  0  0  0  0  0  0  0
  -13.0557   -4.3109  -13.1928 C   0  0  0  0  0  0  0  0  0  0  0  0
  -13.1641   -3.1589  -13.9842 C   0  0  0  0  0  0  0  0  0  0  0  0
  -12.5429   -1.9489  -13.6394 C   0  0  0  0  0  0  0  0  0  0  0  0
  -11.7806   -1.9484  -12.4501 C   0  0  0  0  0  0  0  0  0  0  0  0
  -11.5598   -3.4657   -9.2688 C   0  0  0  0  0  0  0  0  0  0  0  0
  -10.9621   -2.9559  -10.4635 O   0  0  0  0  0  0  0  0  0  0  0  0
  -13.7486   -5.3959  -13.6616 O   0  0  0  0  0  0  0  0  0  0  0  0
  -13.3014   -6.6793  -13.2385 C   0  0  0  0  0  0  0  0  0  0  0  0
  -11.9346    0.4485  -13.9445 C   0  0  0  0  0  0  0  0  0  0  0  0
  -12.6199    1.7514  -13.4850 C   0  0  0  0  0  0  0  0  0  0  0  0
  -11.8393    2.6796  -12.5588 C   0  0  0  0  0  0  0  0  0  0  0  0
  -12.5713    2.9775  -11.3769 O   0  0  0  0  0  0  0  0  0  0  0  0
  -13.1908    3.6955  -11.5850 H   0  0  0  0  0  0  0  0  0  0  0  0
 29 30  1  0  0  0
 30 23  1  0  0  0
 23 24  1  0  0  0
 23 28  2  0  0  0
 24 25  2  0  0  0
 25 31  1  0  0  0
 25 26  1  0  0  0
 31 32  1  0  0  0
 26 27  2  0  0  0
 27 22  1  0  0  0
 27 28  1  0  0  0
 22 33  1  0  0  0
 22  1  1  0  0  0
 33 34  1  0  0  0
 34 35  1  0  0  0
 35 36  1  0  0  0
 36 37  1  0  0  0
  1  2  1  0  0  0
  1 10  2  0  0  0
  2  3  2  0  0  0
  3  4  1  0  0  0
  4  5  1  0  0  0
  4  9  2  0  0  0
  5  6  2  0  0  0
  6  7  1  0  0  0
  7 11  1  0  0  0
  7  8  2  0  0  0
 11 12  1  0  0  0
 11 15  2  0  0  0
 12 13  2  0  0  0
 13 14  1  0  0  0
 14 16  1  0  0  0
 14 15  1  0  0  0
 16 17  1  0  0  0
 17 18  1  0  0  0
 18 19  1  0  0  0
 18 20  2  0  0  0
 18 21  2  0  0  0
  8  9  1  0  0  0
  9 10  1  0  0  0
M  END
> <minimizedAffinity>
-7.58121

$$$$
