CHEMBL2071276


 35 39  0  0  0  0  0  0  0  0999 V2000
  -27.5979  -10.3512   -5.9189 C   0  0  0  0  0  0  0  0  0  0  0  0
  -28.2812   -9.3010   -5.4479 N   0  0  0  0  0  0  0  0  0  0  0  0
  -27.6873   -8.4362   -4.6034 C   0  0  0  0  0  0  0  0  0  0  0  0
  -26.4003   -8.5459   -4.2574 N   0  0  0  0  0  0  0  0  0  0  0  0
  -25.7104   -9.5837   -4.7671 C   0  0  0  0  0  0  0  0  0  0  0  0
  -26.2653  -10.5362   -5.5853 C   0  0  0  0  0  0  0  0  0  0  0  0
  -25.3230  -11.8571   -6.1533 Cl  0  0  0  0  0  0  0  0  0  0  0  0
  -28.2558  -11.2580   -6.7339 N   0  0  0  0  0  0  0  0  0  0  0  0
  -28.9984  -11.7597   -6.2576 H   0  0  0  0  0  0  0  0  0  0  0  0
  -29.6968  -11.0354   -8.9254 C   0  0  0  0  0  0  0  0  0  0  0  0
  -29.3738   -9.8864   -9.9303 C   0  0  0  0  0  0  0  0  0  0  0  0
  -28.3657  -10.4164  -10.9345 C   0  0  0  0  0  0  0  0  0  0  0  0
  -27.1980  -10.5612  -10.2863 C   0  0  0  0  0  0  0  0  0  0  0  0
  -27.4327  -10.1331   -8.8463 C   0  0  0  0  0  0  0  0  0  0  0  0
  -28.4091   -8.9945   -9.1470 C   0  0  0  0  0  0  0  0  0  0  0  0
  -28.3339  -11.2228   -8.1916 C   0  0  0  0  0  0  0  0  0  0  0  0
  -31.9549  -10.1452   -8.7830 N   0  0  0  0  0  0  0  0  0  0  0  0
  -30.9442  -10.7781   -8.1073 C   0  0  0  0  0  0  0  0  0  0  0  0
  -31.0440  -11.0010   -6.9061 O   0  0  0  0  0  0  0  0  0  0  0  0
  -32.8244  -10.0559   -8.2729 H   0  0  0  0  0  0  0  0  0  0  0  0
  -32.0258  -10.2435   -9.7833 H   0  0  0  0  0  0  0  0  0  0  0  0
  -28.5107   -7.4432   -4.0685 N   0  0  0  0  0  0  0  0  0  0  0  0
  -28.5339   -7.5748   -3.0575 H   0  0  0  0  0  0  0  0  0  0  0  0
  -28.7764   -6.2244   -4.5884 C   0  0  0  0  0  0  0  0  0  0  0  0
  -28.6151   -5.7594   -5.9085 C   0  0  0  0  0  0  0  0  0  0  0  0
  -28.7990   -4.4396   -6.0063 N   0  0  0  0  0  0  0  0  0  0  0  0
  -28.9516   -4.0495   -4.7164 N   0  0  0  0  0  0  0  0  0  0  0  0
  -29.1666   -5.1152   -3.8739 C   0  0  0  0  0  0  0  0  0  0  0  0
  -28.3843   -2.7499   -4.3551 C   0  0  0  0  0  0  0  0  0  0  0  0
  -29.4967   -1.6919   -4.2342 C   0  0  0  0  0  0  0  0  0  0  0  0
  -29.7741   -0.9826   -5.5573 C   0  0  0  0  0  0  0  0  0  0  0  0
  -28.4850   -0.4274   -6.1474 C   0  0  0  0  0  0  0  0  0  0  0  0
  -27.5276   -1.5016   -6.4112 N   0  0  0  0  0  0  0  0  0  0  0  0
  -27.1929   -2.2597   -5.1970 C   0  0  0  0  0  0  0  0  0  0  0  0
  -26.6716   -1.0933   -6.7918 H   0  0  0  0  0  0  0  0  0  0  0  0
 17 18  1  0  0  0
 17 20  1  0  0  0
 17 21  1  0  0  0
 18 19  2  0  0  0
 18 10  1  0  0  0
 10 11  1  0  0  0
 10 16  1  0  0  0
 11 12  1  0  0  0
 11 15  1  0  0  0
 12 13  2  0  0  0
 13 14  1  0  0  0
 14 15  1  0  0  0
 14 16  1  0  0  0
 16  8  1  0  0  0
  8  1  1  0  0  0
  8  9  1  0  0  0
  1  2  1  0  0  0
  1  6  2  0  0  0
  2  3  2  0  0  0
  3 22  1  0  0  0
  3  4  1  0  0  0
 22 24  1  0  0  0
 22 23  1  0  0  0
 24 25  1  0  0  0
 24 28  2  0  0  0
 25 26  2  0  0  0
 26 27  1  0  0  0
 27 29  1  0  0  0
 27 28  1  0  0  0
 29 30  1  0  0  0
 29 34  1  0  0  0
 30 31  1  0  0  0
 31 32  1  0  0  0
 32 33  1  0  0  0
 33 34  1  0  0  0
 33 35  1  0  0  0
  4  5  2  0  0  0
  5  6  1  0  0  0
  6  7  1  0  0  0
M  END
> <minimizedAffinity>
-7.99059

$$$$
