CHEMBL3815128


 44 47  0  0  0  0  0  0  0  0999 V2000
  -15.0402   -3.9088  -11.6631 C   0  0  0  0  0  0  0  0  0  0  0  0
  -14.5968   -3.9850  -12.9844 C   0  0  0  0  0  0  0  0  0  0  0  0
  -14.8557   -2.9486  -13.8840 C   0  0  0  0  0  0  0  0  0  0  0  0
  -15.4916   -1.7777  -13.4760 C   0  0  0  0  0  0  0  0  0  0  0  0
  -15.8569   -1.6572  -12.1262 C   0  0  0  0  0  0  0  0  0  0  0  0
  -15.6273   -2.7193  -11.2324 C   0  0  0  0  0  0  0  0  0  0  0  0
  -16.0096   -2.5798   -9.9534 F   0  0  0  0  0  0  0  0  0  0  0  0
  -15.8117   -0.7390  -14.3825 N   0  0  0  0  0  0  0  0  0  0  0  0
  -15.4507    0.5960  -14.2561 C   0  0  0  0  0  0  0  0  0  0  0  0
  -14.9331    1.1431  -13.2923 O   0  0  0  0  0  0  0  0  0  0  0  0
  -16.3710   -0.9830  -15.1953 H   0  0  0  0  0  0  0  0  0  0  0  0
  -15.7458    1.4416  -15.4588 C   0  0  0  0  0  0  0  0  0  0  0  0
  -15.0564    1.0404  -16.7674 C   0  0  0  0  0  0  0  0  0  0  0  0
  -14.6057    2.2734  -16.0537 C   0  0  0  0  0  0  0  0  0  0  0  0
  -17.1502    1.9418  -15.5522 C   0  0  0  0  0  0  0  0  0  0  0  0
  -17.3432    2.9149  -16.2753 O   0  0  0  0  0  0  0  0  0  0  0  0
  -18.0831    1.2597  -14.7896 N   0  0  0  0  0  0  0  0  0  0  0  0
  -17.7427    0.5141  -14.1952 H   0  0  0  0  0  0  0  0  0  0  0  0
  -19.4453    1.6119  -14.6596 C   0  0  0  0  0  0  0  0  0  0  0  0
  -19.8651    2.9147  -14.3721 C   0  0  0  0  0  0  0  0  0  0  0  0
  -21.2094    3.1940  -14.1164 C   0  0  0  0  0  0  0  0  0  0  0  0
  -22.1403    2.1693  -14.1666 C   0  0  0  0  0  0  0  0  0  0  0  0
  -23.4206    2.4269  -13.8705 F   0  0  0  0  0  0  0  0  0  0  0  0
  -21.7585    0.8794  -14.5154 C   0  0  0  0  0  0  0  0  0  0  0  0
  -20.4105    0.6018  -14.7806 C   0  0  0  0  0  0  0  0  0  0  0  0
  -14.9177   -4.9884  -10.7987 O   0  0  0  0  0  0  0  0  0  0  0  0
  -13.0719   -6.5501  -10.8498 C   0  0  0  0  0  0  0  0  0  0  0  0
  -11.8268   -6.8575  -10.3022 C   0  0  0  0  0  0  0  0  0  0  0  0
  -11.0893   -7.9783  -10.6814 N   0  0  0  0  0  0  0  0  0  0  0  0
  -11.1819   -6.0494   -9.4438 N   0  0  0  0  0  0  0  0  0  0  0  0
  -11.7702   -4.8858   -9.1654 C   0  0  0  0  0  0  0  0  0  0  0  0
  -12.9363   -4.4687   -9.6589 N   0  0  0  0  0  0  0  0  0  0  0  0
  -13.6063   -5.3362  -10.4576 C   0  0  0  0  0  0  0  0  0  0  0  0
  -11.6826   -8.8039  -10.7825 H   0  0  0  0  0  0  0  0  0  0  0  0
  -10.2976   -8.0979  -10.0601 H   0  0  0  0  0  0  0  0  0  0  0  0
  -13.4169   -7.6148  -12.9749 N   0  0  0  0  0  0  0  0  0  0  0  0
  -13.7685   -7.5089  -11.7292 C   0  0  0  0  0  0  0  0  0  0  0  0
  -14.2351   -8.5191  -13.6638 O   0  0  0  0  0  0  0  0  0  0  0  0
  -13.4171   -9.1792  -14.6461 C   0  0  0  0  0  0  0  0  0  0  0  0
  -12.8173   -8.1358  -15.5797 C   0  0  0  0  0  0  0  0  0  0  0  0
  -13.4954   -8.0844  -16.9566 C   0  0  0  0  0  0  0  0  0  0  0  0
  -13.9999   -5.8124  -16.2230 C   0  0  0  0  0  0  0  0  0  0  0  0
  -14.0873   -6.7833  -17.3159 N   0  0  0  0  0  0  0  0  0  0  0  0
  -13.4223   -6.2395  -18.5059 C   0  0  0  0  0  0  0  0  0  0  0  0
 42 43  1  0  0  0
 43 44  1  0  0  0
 43 41  1  0  0  0
 41 40  1  0  0  0
 40 39  1  0  0  0
 39 38  1  0  0  0
 38 36  1  0  0  0
 36 37  2  0  0  0
 37 27  1  0  0  0
 27 28  1  0  0  0
 27 33  2  0  0  0
 28 29  1  0  0  0
 28 30  2  0  0  0
 29 34  1  0  0  0
 29 35  1  0  0  0
 30 31  1  0  0  0
 31 32  2  0  0  0
 32 33  1  0  0  0
 33 26  1  0  0  0
 26  1  1  0  0  0
  1  2  1  0  0  0
  1  6  2  0  0  0
  2  3  2  0  0  0
  3  4  1  0  0  0
  4  8  1  0  0  0
  4  5  2  0  0  0
  8  9  1  0  0  0
  8 11  1  0  0  0
  9 10  2  0  0  0
  9 12  1  0  0  0
 12 15  1  0  0  0
 12 13  1  0  0  0
 12 14  1  0  0  0
 15 16  2  0  0  0
 15 17  1  0  0  0
 17 19  1  0  0  0
 17 18  1  0  0  0
 19 20  1  0  0  0
 19 25  2  0  0  0
 20 21  2  0  0  0
 21 22  1  0  0  0
 22 23  1  0  0  0
 22 24  2  0  0  0
 24 25  1  0  0  0
 13 14  1  0  0  0
  5  6  1  0  0  0
  6  7  1  0  0  0
M  END
> <minimizedAffinity>
-8.69889

$$$$
