CHEMBL3916037


 35 38  0  0  0  0  0  0  0  0999 V2000
  -12.8216   -5.1167  -13.0418 N   0  0  0  0  0  0  0  0  0  0  0  0
  -12.4301   -3.7825  -13.5520 C   0  0  0  0  0  0  0  0  0  0  0  0
  -11.2069   -3.3406  -13.0673 C   0  0  0  0  0  0  0  0  0  0  0  0
  -11.0582   -1.9962  -12.7795 C   0  0  0  0  0  0  0  0  0  0  0  0
  -11.9639   -1.0596  -13.1783 C   0  0  0  0  0  0  0  0  0  0  0  0
  -11.7421    0.1469  -12.6530 N   0  0  0  0  0  0  0  0  0  0  0  0
  -12.4450    1.1628  -13.1484 C   0  0  0  0  0  0  0  0  0  0  0  0
  -13.3036    0.9986  -14.2069 C   0  0  0  0  0  0  0  0  0  0  0  0
  -13.6611   -0.2691  -14.6494 N   0  0  0  0  0  0  0  0  0  0  0  0
  -13.0271   -1.3749  -14.0620 C   0  0  0  0  0  0  0  0  0  0  0  0
  -13.2821   -2.8165  -14.1570 C   0  0  0  0  0  0  0  0  0  0  0  0
  -13.6421    2.2370  -14.9161 C   0  0  0  0  0  0  0  0  0  0  0  0
  -13.1162    3.5483  -14.7323 C   0  0  0  0  0  0  0  0  0  0  0  0
  -13.8723    4.5034  -15.2904 N   0  0  0  0  0  0  0  0  0  0  0  0
  -14.9055    3.8205  -15.8097 N   0  0  0  0  0  0  0  0  0  0  0  0
  -15.8611    4.4742  -16.6746 C   0  0  0  0  0  0  0  0  0  0  0  0
  -14.8855    2.4923  -15.4782 C   0  0  0  0  0  0  0  0  0  0  0  0
  -13.7841   -7.4041  -15.8630 C   0  0  0  0  0  0  0  0  0  0  0  0
  -13.3235   -8.6306  -15.3943 C   0  0  0  0  0  0  0  0  0  0  0  0
  -12.7225   -8.7141  -14.1416 C   0  0  0  0  0  0  0  0  0  0  0  0
  -12.5864   -7.5585  -13.3500 C   0  0  0  0  0  0  0  0  0  0  0  0
  -13.0273   -6.2981  -13.7796 C   0  0  0  0  0  0  0  0  0  0  0  0
  -13.6291   -6.2526  -15.0585 C   0  0  0  0  0  0  0  0  0  0  0  0
  -13.7290   -7.8834  -18.2047 C   0  0  0  0  0  0  0  0  0  0  0  0
  -14.3538   -7.2224  -17.1002 O   0  0  0  0  0  0  0  0  0  0  0  0
  -12.2233   -9.8672  -13.5904 O   0  0  0  0  0  0  0  0  0  0  0  0
  -12.1029   -9.8992  -12.1687 C   0  0  0  0  0  0  0  0  0  0  0  0
  -13.4608   -4.8850  -11.6795 C   0  0  0  0  0  0  0  0  0  0  0  0
  -14.8970   -4.3993  -11.4462 C   0  0  0  0  0  0  0  0  0  0  0  0
  -15.1050   -4.5132   -9.9861 O   0  0  0  0  0  0  0  0  0  0  0  0
  -15.8023   -5.1847   -9.8326 H   0  0  0  0  0  0  0  0  0  0  0  0
  -15.9846   -5.1891  -12.1773 C   0  0  0  0  0  0  0  0  0  0  0  0
  -16.1512   -4.8530  -13.4682 F   0  0  0  0  0  0  0  0  0  0  0  0
  -15.6605   -6.5178  -12.1577 F   0  0  0  0  0  0  0  0  0  0  0  0
  -17.1750   -5.0864  -11.5456 F   0  0  0  0  0  0  0  0  0  0  0  0
 24 25  1  0  0  0
 25 18  1  0  0  0
 18 19  1  0  0  0
 18 23  2  0  0  0
 19 20  2  0  0  0
 20 26  1  0  0  0
 20 21  1  0  0  0
 26 27  1  0  0  0
 21 22  2  0  0  0
 22  1  1  0  0  0
 22 23  1  0  0  0
  1 28  1  0  0  0
  1  2  1  0  0  0
 29 32  1  0  0  0
 29 30  1  0  0  0
 29 28  1  0  0  0
 30 31  1  0  0  0
 32 33  1  0  0  0
 32 34  1  0  0  0
 32 35  1  0  0  0
  2  3  1  0  0  0
  2 11  2  0  0  0
  3  4  2  0  0  0
  4  5  1  0  0  0
  5  6  1  0  0  0
  5 10  2  0  0  0
  6  7  2  0  0  0
  7  8  1  0  0  0
  8 12  1  0  0  0
  8  9  2  0  0  0
 12 13  1  0  0  0
 12 17  2  0  0  0
 13 14  2  0  0  0
 14 15  1  0  0  0
 15 16  1  0  0  0
 15 17  1  0  0  0
  9 10  1  0  0  0
 10 11  1  0  0  0
M  END
> <minimizedAffinity>
-7.16860

$$$$
