CHEMBL190132


 31 34  0  0  0  0  0  0  0  0999 V2000
  -28.6049   -8.1553   -6.2198 C   0  0  0  0  0  0  0  0  0  0  0  0
  -28.7585   -7.4383   -5.0426 C   0  0  0  0  0  0  0  0  0  0  0  0
  -28.8426   -6.0585   -5.0812 C   0  0  0  0  0  0  0  0  0  0  0  0
  -28.8520   -5.3788   -3.9281 N   0  0  0  0  0  0  0  0  0  0  0  0
  -28.8389   -4.0294   -3.9710 C   0  0  0  0  0  0  0  0  0  0  0  0
  -28.7609   -3.4467   -2.7080 N   0  0  0  0  0  0  0  0  0  0  0  0
  -28.8433   -3.2775   -5.1604 C   0  0  0  0  0  0  0  0  0  0  0  0
  -28.8738   -4.0272   -6.3580 C   0  0  0  0  0  0  0  0  0  0  0  0
  -28.8532   -5.4264   -6.3224 C   0  0  0  0  0  0  0  0  0  0  0  0
  -28.7911   -6.2255   -7.4620 C   0  0  0  0  0  0  0  0  0  0  0  0
  -28.6466   -7.5650   -7.4245 N   0  0  0  0  0  0  0  0  0  0  0  0
  -28.8490   -4.1836   -2.0140 H   0  0  0  0  0  0  0  0  0  0  0  0
  -29.4380   -2.7014   -2.5869 H   0  0  0  0  0  0  0  0  0  0  0  0
  -28.8378   -1.7936   -5.2066 C   0  0  0  0  0  0  0  0  0  0  0  0
  -30.0260   -1.0509   -5.3323 C   0  0  0  0  0  0  0  0  0  0  0  0
  -30.0155    0.3349   -5.5052 C   0  0  0  0  0  0  0  0  0  0  0  0
  -28.8094    1.0260   -5.4783 C   0  0  0  0  0  0  0  0  0  0  0  0
  -27.6226    0.3327   -5.2795 C   0  0  0  0  0  0  0  0  0  0  0  0
  -27.6340   -1.0609   -5.1571 C   0  0  0  0  0  0  0  0  0  0  0  0
  -28.2214   -9.4788   -6.1067 N   0  0  0  0  0  0  0  0  0  0  0  0
  -28.6840  -10.0299   -5.3954 H   0  0  0  0  0  0  0  0  0  0  0  0
  -27.6816  -10.1512   -7.2712 C   0  0  0  0  0  0  0  0  0  0  0  0
  -26.3246  -10.7468   -6.8933 C   0  0  0  0  0  0  0  0  0  0  0  0
  -26.0888  -10.6919   -5.3719 C   0  0  0  0  0  0  0  0  0  0  0  0
  -22.0079  -12.0207   -3.0831 C   0  0  0  0  0  0  0  0  0  0  0  0
  -22.7910  -10.8977   -3.5844 N   0  0  0  0  0  0  0  0  0  0  0  0
  -22.9797  -10.9815   -5.0416 C   0  0  0  0  0  0  0  0  0  0  0  0
  -23.8010   -9.7792   -5.5595 C   0  0  0  0  0  0  0  0  0  0  0  0
  -25.1439   -9.6413   -4.9544 N   0  0  0  0  0  0  0  0  0  0  0  0
  -24.9768   -9.6524   -3.4783 C   0  0  0  0  0  0  0  0  0  0  0  0
  -24.1016  -10.8052   -2.9139 C   0  0  0  0  0  0  0  0  0  0  0  0
 25 26  1  0  0  0
 26 27  1  0  0  0
 26 31  1  0  0  0
 27 28  1  0  0  0
 28 29  1  0  0  0
 29 24  1  0  0  0
 29 30  1  0  0  0
 24 23  1  0  0  0
 23 22  1  0  0  0
 22 20  1  0  0  0
 20  1  1  0  0  0
 20 21  1  0  0  0
  1  2  1  0  0  0
  1 11  2  0  0  0
  2  3  2  0  0  0
  3  4  1  0  0  0
  3  9  1  0  0  0
  4  5  2  0  0  0
  5  6  1  0  0  0
  5  7  1  0  0  0
  6 12  1  0  0  0
  6 13  1  0  0  0
  7 14  1  0  0  0
  7  8  2  0  0  0
 14 15  1  0  0  0
 14 19  2  0  0  0
 15 16  2  0  0  0
 16 17  1  0  0  0
 17 18  2  0  0  0
 18 19  1  0  0  0
  8  9  1  0  0  0
  9 10  2  0  0  0
 10 11  1  0  0  0
 30 31  1  0  0  0
M  END
> <minimizedAffinity>
-8.33770

$$$$
