CHEMBL263374


 33 36  0  0  0  0  0  0  0  0999 V2000
  -19.1668    2.0689  -14.5729 C   0  0  0  0  0  0  0  0  0  0  0  0
  -19.7111    3.3592  -14.5820 C   0  0  0  0  0  0  0  0  0  0  0  0
  -21.0775    3.5279  -14.4607 C   0  0  0  0  0  0  0  0  0  0  0  0
  -21.8991    2.4096  -14.3343 C   0  0  0  0  0  0  0  0  0  0  0  0
  -21.3928    1.1035  -14.3422 C   0  0  0  0  0  0  0  0  0  0  0  0
  -20.0031    0.9402  -14.4624 C   0  0  0  0  0  0  0  0  0  0  0  0
  -15.6739    4.9509  -16.1871 N   0  0  0  0  0  0  0  0  0  0  0  0
  -14.9947    3.7216  -16.1345 C   0  0  0  0  0  0  0  0  0  0  0  0
  -13.6721    3.7658  -16.3519 N   0  0  0  0  0  0  0  0  0  0  0  0
  -13.0301    2.5973  -16.2312 C   0  0  0  0  0  0  0  0  0  0  0  0
  -13.5720    1.4141  -15.9042 N   0  0  0  0  0  0  0  0  0  0  0  0
  -14.8990    1.4058  -15.6793 C   0  0  0  0  0  0  0  0  0  0  0  0
  -15.6866    2.5566  -15.7853 C   0  0  0  0  0  0  0  0  0  0  0  0
  -17.0983    2.5978  -15.6635 N   0  0  0  0  0  0  0  0  0  0  0  0
  -17.6827    1.9710  -14.6876 C   0  0  0  0  0  0  0  0  0  0  0  0
  -16.9152    1.2038  -13.6369 C   0  0  0  0  0  0  0  0  0  0  0  0
  -16.3043   -0.0455  -14.2461 C   0  0  0  0  0  0  0  0  0  0  0  0
  -15.4145    0.1464  -15.3858 N   0  0  0  0  0  0  0  0  0  0  0  0
  -15.0782    5.6406  -16.6299 H   0  0  0  0  0  0  0  0  0  0  0  0
  -16.5830    4.8218  -16.6216 H   0  0  0  0  0  0  0  0  0  0  0  0
  -14.6181   -0.4878  -15.3810 H   0  0  0  0  0  0  0  0  0  0  0  0
  -22.2275   -0.0481  -14.2263 N   0  0  0  0  0  0  0  0  0  0  0  0
  -23.3818   -0.1176  -13.4622 C   0  0  0  0  0  0  0  0  0  0  0  0
  -23.8483    0.8143  -12.8070 O   0  0  0  0  0  0  0  0  0  0  0  0
  -23.9693   -1.3810  -13.4579 N   0  0  0  0  0  0  0  0  0  0  0  0
  -22.0197   -0.8366  -14.8197 H   0  0  0  0  0  0  0  0  0  0  0  0
  -23.3060   -2.1421  -13.4400 H   0  0  0  0  0  0  0  0  0  0  0  0
  -25.1347   -1.5571  -12.6609 C   0  0  0  0  0  0  0  0  0  0  0  0
  -26.3979   -1.6575  -13.2573 C   0  0  0  0  0  0  0  0  0  0  0  0
  -27.5537   -1.6926  -12.4730 C   0  0  0  0  0  0  0  0  0  0  0  0
  -27.4501   -1.6178  -11.0866 C   0  0  0  0  0  0  0  0  0  0  0  0
  -26.1919   -1.5419  -10.4867 C   0  0  0  0  0  0  0  0  0  0  0  0
  -25.0308   -1.5357  -11.2699 C   0  0  0  0  0  0  0  0  0  0  0  0
  7  8  1  0  0  0
  7 19  1  0  0  0
  7 20  1  0  0  0
  8  9  1  0  0  0
  8 13  2  0  0  0
  9 10  2  0  0  0
 10 11  1  0  0  0
 11 12  2  0  0  0
 12 13  1  0  0  0
 12 18  1  0  0  0
 13 14  1  0  0  0
 14 15  2  0  0  0
 15  1  1  0  0  0
 15 16  1  0  0  0
  1  2  1  0  0  0
  1  6  2  0  0  0
  2  3  2  0  0  0
  3  4  1  0  0  0
  4  5  2  0  0  0
  5 22  1  0  0  0
  5  6  1  0  0  0
 22 23  1  0  0  0
 22 26  1  0  0  0
 23 24  2  0  0  0
 23 25  1  0  0  0
 25 28  1  0  0  0
 25 27  1  0  0  0
 28 29  1  0  0  0
 28 33  2  0  0  0
 29 30  2  0  0  0
 30 31  1  0  0  0
 31 32  2  0  0  0
 32 33  1  0  0  0
 16 17  1  0  0  0
 17 18  1  0  0  0
 18 21  1  0  0  0
M  END
> <minimizedAffinity>
-10.52178

$$$$
