CHEMBL1254511


 29 32  0  0  0  0  0  0  0  0999 V2000
  -23.1865   -0.8903  -13.6110 C   0  0  0  0  0  0  0  0  0  0  0  0
  -24.4378   -0.9828  -14.2124 C   0  0  0  0  0  0  0  0  0  0  0  0
  -25.5295   -1.4619  -13.4960 C   0  0  0  0  0  0  0  0  0  0  0  0
  -25.3985   -1.9166  -12.1796 C   0  0  0  0  0  0  0  0  0  0  0  0
  -24.1305   -1.8747  -11.5931 C   0  0  0  0  0  0  0  0  0  0  0  0
  -23.0302   -1.3638  -12.3111 C   0  0  0  0  0  0  0  0  0  0  0  0
  -26.4948   -2.3941  -11.4188 N   0  0  0  0  0  0  0  0  0  0  0  0
  -26.7667   -2.0212  -10.1125 C   0  0  0  0  0  0  0  0  0  0  0  0
  -26.1680   -1.1408   -9.5000 O   0  0  0  0  0  0  0  0  0  0  0  0
  -27.7757   -2.7849   -9.5315 N   0  0  0  0  0  0  0  0  0  0  0  0
  -27.1929   -2.9433  -11.8898 H   0  0  0  0  0  0  0  0  0  0  0  0
  -27.7967   -3.7460   -9.8421 H   0  0  0  0  0  0  0  0  0  0  0  0
  -28.0824   -2.5615   -8.1630 C   0  0  0  0  0  0  0  0  0  0  0  0
  -28.6459   -3.5778   -7.3792 C   0  0  0  0  0  0  0  0  0  0  0  0
  -29.1469   -3.2955   -6.1095 C   0  0  0  0  0  0  0  0  0  0  0  0
  -29.0718   -1.9976   -5.6138 C   0  0  0  0  0  0  0  0  0  0  0  0
  -28.4535   -0.9970   -6.3667 C   0  0  0  0  0  0  0  0  0  0  0  0
  -27.9334   -1.2822   -7.6324 C   0  0  0  0  0  0  0  0  0  0  0  0
  -22.0690   -0.4085  -14.2567 O   0  0  0  0  0  0  0  0  0  0  0  0
  -19.2414   -0.4265  -15.4438 C   0  0  0  0  0  0  0  0  0  0  0  0
  -19.4819    0.9767  -15.1922 N   0  0  0  0  0  0  0  0  0  0  0  0
  -18.5762    1.9789  -15.4430 C   0  0  0  0  0  0  0  0  0  0  0  0
  -19.1725    3.1790  -15.1210 C   0  0  0  0  0  0  0  0  0  0  0  0
  -20.4730    2.8891  -14.6485 C   0  0  0  0  0  0  0  0  0  0  0  0
  -21.4266    3.7431  -14.2249 N   0  0  0  0  0  0  0  0  0  0  0  0
  -22.5416    3.1299  -13.8101 C   0  0  0  0  0  0  0  0  0  0  0  0
  -22.7913    1.8107  -13.7747 N   0  0  0  0  0  0  0  0  0  0  0  0
  -21.8469    0.9676  -14.2522 C   0  0  0  0  0  0  0  0  0  0  0  0
  -20.6432    1.5095  -14.6826 C   0  0  0  0  0  0  0  0  0  0  0  0
 20 21  1  0  0  0
 21 22  1  0  0  0
 21 29  1  0  0  0
 22 23  2  0  0  0
 23 24  1  0  0  0
 24 25  1  0  0  0
 24 29  2  0  0  0
 25 26  2  0  0  0
 26 27  1  0  0  0
 27 28  2  0  0  0
 28 19  1  0  0  0
 28 29  1  0  0  0
 19  1  1  0  0  0
  1  2  1  0  0  0
  1  6  2  0  0  0
  2  3  2  0  0  0
  3  4  1  0  0  0
  4  7  1  0  0  0
  4  5  2  0  0  0
  7  8  1  0  0  0
  7 11  1  0  0  0
  8  9  2  0  0  0
  8 10  1  0  0  0
 10 13  1  0  0  0
 10 12  1  0  0  0
 13 14  1  0  0  0
 13 18  2  0  0  0
 14 15  2  0  0  0
 15 16  1  0  0  0
 16 17  2  0  0  0
 17 18  1  0  0  0
  5  6  1  0  0  0
M  END
> <minimizedAffinity>
-10.20489

$$$$
