CHEMBL241681


 41 45  0  0  0  0  0  0  0  0999 V2000
  -22.7304   -0.4579  -13.6838 C   0  0  0  0  0  0  0  0  0  0  0  0
  -22.6835   -0.9881  -12.3961 C   0  0  0  0  0  0  0  0  0  0  0  0
  -23.8351   -1.4939  -11.7922 C   0  0  0  0  0  0  0  0  0  0  0  0
  -25.0750   -1.4539  -12.4365 C   0  0  0  0  0  0  0  0  0  0  0  0
  -25.1225   -0.9531  -13.7377 C   0  0  0  0  0  0  0  0  0  0  0  0
  -23.9535   -0.4871  -14.3651 C   0  0  0  0  0  0  0  0  0  0  0  0
  -22.8979    3.0027  -13.5599 N   0  0  0  0  0  0  0  0  0  0  0  0
  -21.6706    2.7701  -14.1644 C   0  0  0  0  0  0  0  0  0  0  0  0
  -20.9658    3.8781  -14.4814 N   0  0  0  0  0  0  0  0  0  0  0  0
  -19.7376    3.7547  -15.0367 C   0  0  0  0  0  0  0  0  0  0  0  0
  -19.0670    2.5658  -15.3264 C   0  0  0  0  0  0  0  0  0  0  0  0
  -19.8412    1.4547  -14.9881 C   0  0  0  0  0  0  0  0  0  0  0  0
  -19.4517    0.1499  -15.1317 O   0  0  0  0  0  0  0  0  0  0  0  0
  -20.4663   -0.6292  -14.6988 C   0  0  0  0  0  0  0  0  0  0  0  0
  -21.5313    0.1351  -14.2600 C   0  0  0  0  0  0  0  0  0  0  0  0
  -21.1222    1.5012  -14.4340 C   0  0  0  0  0  0  0  0  0  0  0  0
  -22.9449    3.9743  -13.2731 H   0  0  0  0  0  0  0  0  0  0  0  0
  -23.1188    2.3311  -12.8355 H   0  0  0  0  0  0  0  0  0  0  0  0
  -17.7300    2.5169  -15.9407 C   0  0  0  0  0  0  0  0  0  0  0  0
  -16.9522    1.3422  -15.8993 C   0  0  0  0  0  0  0  0  0  0  0  0
  -15.6435    1.3118  -16.3911 C   0  0  0  0  0  0  0  0  0  0  0  0
  -15.0854    2.4525  -16.9558 C   0  0  0  0  0  0  0  0  0  0  0  0
  -15.8414    3.6163  -17.0442 C   0  0  0  0  0  0  0  0  0  0  0  0
  -17.1464    3.6461  -16.5412 C   0  0  0  0  0  0  0  0  0  0  0  0
  -26.2744   -1.9060  -11.8326 N   0  0  0  0  0  0  0  0  0  0  0  0
  -26.5757   -1.7798  -10.4943 C   0  0  0  0  0  0  0  0  0  0  0  0
  -25.8587   -1.2267   -9.6600 O   0  0  0  0  0  0  0  0  0  0  0  0
  -27.7785   -2.3754  -10.1421 N   0  0  0  0  0  0  0  0  0  0  0  0
  -27.0183   -2.2137  -12.4423 H   0  0  0  0  0  0  0  0  0  0  0  0
  -27.9345   -3.2710  -10.5906 H   0  0  0  0  0  0  0  0  0  0  0  0
  -28.1396   -2.3265   -8.7671 C   0  0  0  0  0  0  0  0  0  0  0  0
  -28.3149   -1.0947   -8.1198 C   0  0  0  0  0  0  0  0  0  0  0  0
  -28.4330   -1.0276   -6.7244 C   0  0  0  0  0  0  0  0  0  0  0  0
  -28.3971   -2.2219   -5.9867 C   0  0  0  0  0  0  0  0  0  0  0  0
  -28.2848   -3.4566   -6.6367 C   0  0  0  0  0  0  0  0  0  0  0  0
  -28.1771   -3.5023   -8.0234 C   0  0  0  0  0  0  0  0  0  0  0  0
  -28.0064   -4.6849   -8.6340 F   0  0  0  0  0  0  0  0  0  0  0  0
  -28.5508    0.3074   -6.0282 C   0  0  0  0  0  0  0  0  0  0  0  0
  -28.4817    1.3763   -6.8693 F   0  0  0  0  0  0  0  0  0  0  0  0
  -29.7347    0.4361   -5.3655 F   0  0  0  0  0  0  0  0  0  0  0  0
  -27.5788    0.5004   -5.0946 F   0  0  0  0  0  0  0  0  0  0  0  0
  7  8  1  0  0  0
  7 17  1  0  0  0
  7 18  1  0  0  0
  8  9  1  0  0  0
  8 16  2  0  0  0
  9 10  2  0  0  0
 10 11  1  0  0  0
 11 19  1  0  0  0
 11 12  2  0  0  0
 19 20  1  0  0  0
 19 24  2  0  0  0
 20 21  2  0  0  0
 21 22  1  0  0  0
 22 23  2  0  0  0
 23 24  1  0  0  0
 12 13  1  0  0  0
 12 16  1  0  0  0
 13 14  1  0  0  0
 14 15  2  0  0  0
 15  1  1  0  0  0
 15 16  1  0  0  0
  1  2  1  0  0  0
  1  6  2  0  0  0
  2  3  2  0  0  0
  3  4  1  0  0  0
  4 25  1  0  0  0
  4  5  2  0  0  0
 25 26  1  0  0  0
 25 29  1  0  0  0
 26 27  2  0  0  0
 26 28  1  0  0  0
 28 31  1  0  0  0
 28 30  1  0  0  0
 31 32  1  0  0  0
 31 36  2  0  0  0
 32 33  2  0  0  0
 33 38  1  0  0  0
 33 34  1  0  0  0
 38 39  1  0  0  0
 38 40  1  0  0  0
 38 41  1  0  0  0
 34 35  2  0  0  0
 35 36  1  0  0  0
 36 37  1  0  0  0
  5  6  1  0  0  0
M  END
> <minimizedAffinity>
-11.93764

$$$$
