CHEMBL360118


 38 41  0  0  0  0  0  0  0  0999 V2000
  -12.5370   -2.1514  -13.3539 C   0  0  0  0  0  0  0  0  0  0  0  0
  -11.3482   -1.7573  -13.7239 N   0  0  0  0  0  0  0  0  0  0  0  0
  -11.1291   -0.4873  -14.1679 C   0  0  0  0  0  0  0  0  0  0  0  0
  -12.0055    0.4427  -14.2437 N   0  0  0  0  0  0  0  0  0  0  0  0
  -13.2403    0.0676  -13.8683 N   0  0  0  0  0  0  0  0  0  0  0  0
  -14.2896    0.9136  -13.8634 C   0  0  0  0  0  0  0  0  0  0  0  0
  -15.4089    0.2400  -13.4549 C   0  0  0  0  0  0  0  0  0  0  0  0
  -15.0129   -1.1363  -13.2102 C   0  0  0  0  0  0  0  0  0  0  0  0
  -13.6213   -1.1809  -13.4517 C   0  0  0  0  0  0  0  0  0  0  0  0
  -16.6616    0.8380  -13.3419 N   0  0  0  0  0  0  0  0  0  0  0  0
  -17.5327    0.9996  -14.4091 C   0  0  0  0  0  0  0  0  0  0  0  0
  -17.3522    0.6226  -15.5677 O   0  0  0  0  0  0  0  0  0  0  0  0
  -18.6595    1.7213  -14.0742 N   0  0  0  0  0  0  0  0  0  0  0  0
  -16.9220    1.2265  -12.4533 H   0  0  0  0  0  0  0  0  0  0  0  0
  -18.9374    1.7831  -13.1082 H   0  0  0  0  0  0  0  0  0  0  0  0
  -19.6705    2.0109  -15.0791 C   0  0  0  0  0  0  0  0  0  0  0  0
  -20.8155    0.9992  -15.0669 C   0  0  0  0  0  0  0  0  0  0  0  0
  -21.5763    0.9703  -13.7312 C   0  0  0  0  0  0  0  0  0  0  0  0
  -22.4174   -0.2271  -13.5306 N   0  0  0  0  0  0  0  0  0  0  0  0
  -22.6474   -0.5167  -12.1045 C   0  0  0  0  0  0  0  0  0  0  0  0
  -23.4918   -1.7776  -11.9067 C   0  0  0  0  0  0  0  0  0  0  0  0
  -24.8168   -1.6716  -12.6463 C   0  0  0  0  0  0  0  0  0  0  0  0
  -24.5684   -1.3324  -14.1100 C   0  0  0  0  0  0  0  0  0  0  0  0
  -23.6938   -0.0840  -14.2535 C   0  0  0  0  0  0  0  0  0  0  0  0
  -15.9262   -2.2501  -12.7134 C   0  0  0  0  0  0  0  0  0  0  0  0
  -15.8076   -3.5371  -13.5404 C   0  0  0  0  0  0  0  0  0  0  0  0
  -15.7212   -2.6057  -11.2365 C   0  0  0  0  0  0  0  0  0  0  0  0
  -12.6576   -3.4565  -12.9212 N   0  0  0  0  0  0  0  0  0  0  0  0
  -12.8377   -4.1859  -13.5997 H   0  0  0  0  0  0  0  0  0  0  0  0
  -12.2458   -5.2482   -7.4512 C   0  0  0  0  0  0  0  0  0  0  0  0
  -12.3246   -4.7870   -8.8782 C   0  0  0  0  0  0  0  0  0  0  0  0
  -12.6468   -5.6780   -9.9081 C   0  0  0  0  0  0  0  0  0  0  0  0
  -12.7646   -5.2367  -11.2412 C   0  0  0  0  0  0  0  0  0  0  0  0
  -12.5699   -3.8878  -11.5760 C   0  0  0  0  0  0  0  0  0  0  0  0
  -12.2012   -3.0139  -10.5358 C   0  0  0  0  0  0  0  0  0  0  0  0
  -12.0830   -3.4560   -9.2148 C   0  0  0  0  0  0  0  0  0  0  0  0
  -11.7253   -2.5822   -8.2244 O   0  0  0  0  0  0  0  0  0  0  0  0
  -11.5024   -1.7285   -8.6314 H   0  0  0  0  0  0  0  0  0  0  0  0
 30 31  1  0  0  0
 31 32  1  0  0  0
 31 36  2  0  0  0
 32 33  2  0  0  0
 33 34  1  0  0  0
 34 28  1  0  0  0
 34 35  2  0  0  0
 28  1  1  0  0  0
 28 29  1  0  0  0
  1  2  2  0  0  0
  1  9  1  0  0  0
  2  3  1  0  0  0
  3  4  2  0  0  0
  4  5  1  0  0  0
  5  6  1  0  0  0
  5  9  1  0  0  0
  6  7  2  0  0  0
  7 10  1  0  0  0
  7  8  1  0  0  0
 10 11  1  0  0  0
 10 14  1  0  0  0
 11 12  2  0  0  0
 11 13  1  0  0  0
 13 16  1  0  0  0
 13 15  1  0  0  0
 16 17  1  0  0  0
 17 18  1  0  0  0
 18 19  1  0  0  0
 19 20  1  0  0  0
 19 24  1  0  0  0
 20 21  1  0  0  0
 21 22  1  0  0  0
 22 23  1  0  0  0
 23 24  1  0  0  0
  8 25  1  0  0  0
  8  9  2  0  0  0
 25 26  1  0  0  0
 25 27  1  0  0  0
 35 36  1  0  0  0
 36 37  1  0  0  0
 37 38  1  0  0  0
M  END
> <minimizedAffinity>
-8.66175

$$$$
