CHEMBL4441332


 22 25  0  0  0  0  0  0  0  0999 V2000
  -28.0688   -2.1504   -8.9706 C   0  0  0  0  0  0  0  0  0  0  0  0
  -27.7370   -1.1205   -8.1886 N   0  0  0  0  0  0  0  0  0  0  0  0
  -27.7112   -1.3571   -6.8665 C   0  0  0  0  0  0  0  0  0  0  0  0
  -27.9849   -2.5812   -6.2802 C   0  0  0  0  0  0  0  0  0  0  0  0
  -28.3160   -3.5891   -7.1581 C   0  0  0  0  0  0  0  0  0  0  0  0
  -28.3641   -3.3677   -8.4911 N   0  0  0  0  0  0  0  0  0  0  0  0
  -28.6287   -4.9594   -6.7321 C   0  0  0  0  0  0  0  0  0  0  0  0
  -28.9802   -5.9539   -7.6698 C   0  0  0  0  0  0  0  0  0  0  0  0
  -29.2570   -7.2587   -7.2724 C   0  0  0  0  0  0  0  0  0  0  0  0
  -29.1852   -7.5490   -5.9285 C   0  0  0  0  0  0  0  0  0  0  0  0
  -28.8571   -6.6371   -4.9935 N   0  0  0  0  0  0  0  0  0  0  0  0
  -28.5785   -5.3676   -5.3988 C   0  0  0  0  0  0  0  0  0  0  0  0
  -28.1015   -4.3247   -4.0461 S   0  0  0  0  0  0  0  0  0  0  0  0
  -27.9369   -2.7015   -4.7995 C   0  0  0  0  0  0  0  0  0  0  0  0
  -28.0568   -1.9190  -10.3465 N   0  0  0  0  0  0  0  0  0  0  0  0
  -28.7458   -2.5312  -10.7648 H   0  0  0  0  0  0  0  0  0  0  0  0
  -24.7022   -1.4234  -12.8510 C   0  0  0  0  0  0  0  0  0  0  0  0
  -24.5384   -1.3738  -11.4685 C   0  0  0  0  0  0  0  0  0  0  0  0
  -25.6442   -1.5246  -10.6282 C   0  0  0  0  0  0  0  0  0  0  0  0
  -26.9258   -1.7212  -11.1574 C   0  0  0  0  0  0  0  0  0  0  0  0
  -27.0683   -1.8079  -12.5471 C   0  0  0  0  0  0  0  0  0  0  0  0
  -25.9669   -1.6431  -13.3913 C   0  0  0  0  0  0  0  0  0  0  0  0
 17 18  1  0  0  0
 17 22  2  0  0  0
 18 19  2  0  0  0
 19 20  1  0  0  0
 20 15  1  0  0  0
 20 21  2  0  0  0
 15  1  1  0  0  0
 15 16  1  0  0  0
  1  2  1  0  0  0
  1  6  2  0  0  0
  2  3  2  0  0  0
  3  4  1  0  0  0
  4  5  2  0  0  0
  4 14  1  0  0  0
  5  6  1  0  0  0
  5  7  1  0  0  0
  7  8  1  0  0  0
  7 12  2  0  0  0
  8  9  2  0  0  0
  9 10  1  0  0  0
 10 11  2  0  0  0
 11 12  1  0  0  0
 12 13  1  0  0  0
 13 14  1  0  0  0
 21 22  1  0  0  0
M  END
> <minimizedAffinity>
-8.49946

$$$$
