CHEMBL514986


 28 30  0  0  0  0  0  0  0  0999 V2000
  -27.5950   -3.5738   -8.8267 O   0  0  0  0  0  0  0  0  0  0  0  0
  -27.6851   -2.3797   -8.5302 C   0  0  0  0  0  0  0  0  0  0  0  0
  -27.3136   -1.3262   -9.3505 N   0  0  0  0  0  0  0  0  0  0  0  0
  -27.3090   -0.4087   -8.9134 H   0  0  0  0  0  0  0  0  0  0  0  0
  -26.8279   -1.4776  -10.6682 C   0  0  0  0  0  0  0  0  0  0  0  0
  -27.6832   -1.5259  -11.7747 C   0  0  0  0  0  0  0  0  0  0  0  0
  -27.2010   -1.7536  -13.0600 C   0  0  0  0  0  0  0  0  0  0  0  0
  -25.8381   -1.9088  -13.2635 C   0  0  0  0  0  0  0  0  0  0  0  0
  -24.9454   -1.8150  -12.1853 C   0  0  0  0  0  0  0  0  0  0  0  0
  -25.4509   -1.5915  -10.8853 C   0  0  0  0  0  0  0  0  0  0  0  0
  -23.4629   -1.9618  -12.4227 C   0  0  0  0  0  0  0  0  0  0  0  0
  -23.0994   -3.2114  -12.8282 F   0  0  0  0  0  0  0  0  0  0  0  0
  -23.0039   -1.1124  -13.3822 F   0  0  0  0  0  0  0  0  0  0  0  0
  -22.7257   -1.7047  -11.3077 F   0  0  0  0  0  0  0  0  0  0  0  0
  -28.1847   -2.0074   -7.1970 C   0  0  0  0  0  0  0  0  0  0  0  0
  -27.7098   -0.9242   -6.5684 N   0  0  0  0  0  0  0  0  0  0  0  0
  -28.5198   -0.7453   -5.1298 S   0  0  0  0  0  0  0  0  0  0  0  0
  -29.4804   -2.1472   -5.2801 C   0  0  0  0  0  0  0  0  0  0  0  0
  -29.1834   -2.7732   -6.4682 C   0  0  0  0  0  0  0  0  0  0  0  0
  -29.7886   -3.9078   -6.9279 N   0  0  0  0  0  0  0  0  0  0  0  0
  -29.7114   -4.1265   -7.9294 H   0  0  0  0  0  0  0  0  0  0  0  0
  -30.0505   -5.0818   -6.1018 C   0  0  0  0  0  0  0  0  0  0  0  0
  -29.9577   -6.3895   -6.8516 C   0  0  0  0  0  0  0  0  0  0  0  0
  -30.9751   -7.3501   -6.8662 C   0  0  0  0  0  0  0  0  0  0  0  0
  -30.8441   -8.5012   -7.6439 C   0  0  0  0  0  0  0  0  0  0  0  0
  -29.6984   -8.6581   -8.4034 C   0  0  0  0  0  0  0  0  0  0  0  0
  -28.6998   -7.7521   -8.4377 N   0  0  0  0  0  0  0  0  0  0  0  0
  -28.8563   -6.6465   -7.6701 C   0  0  0  0  0  0  0  0  0  0  0  0
  1  2  2  0  0  0
  2  3  1  0  0  0
  2 15  1  0  0  0
  3  5  1  0  0  0
  3  4  1  0  0  0
  5  6  1  0  0  0
  5 10  2  0  0  0
  6  7  2  0  0  0
  7  8  1  0  0  0
  8  9  2  0  0  0
  9 11  1  0  0  0
  9 10  1  0  0  0
 11 12  1  0  0  0
 11 13  1  0  0  0
 11 14  1  0  0  0
 15 16  2  0  0  0
 15 19  1  0  0  0
 16 17  1  0  0  0
 17 18  1  0  0  0
 18 19  2  0  0  0
 19 20  1  0  0  0
 20 22  1  0  0  0
 20 21  1  0  0  0
 22 23  1  0  0  0
 23 24  1  0  0  0
 23 28  2  0  0  0
 24 25  2  0  0  0
 25 26  1  0  0  0
 26 27  2  0  0  0
 27 28  1  0  0  0
M  END
> <minimizedAffinity>
-8.98417

$$$$
