CHEMBL3920114


 37 41  0  0  0  0  0  0  0  0999 V2000
  -14.5221   -1.1493  -14.1243 C   0  0  0  0  0  0  0  0  0  0  0  0
  -13.8439   -2.1820  -13.4610 C   0  0  0  0  0  0  0  0  0  0  0  0
  -14.2524   -2.6326  -12.1794 C   0  0  0  0  0  0  0  0  0  0  0  0
  -13.6252   -3.6241  -11.4093 C   0  0  0  0  0  0  0  0  0  0  0  0
  -14.0856   -3.9886  -10.1949 N   0  0  0  0  0  0  0  0  0  0  0  0
  -15.1680   -3.3607   -9.7386 C   0  0  0  0  0  0  0  0  0  0  0  0
  -15.8431   -2.4131  -10.3853 N   0  0  0  0  0  0  0  0  0  0  0  0
  -15.3801   -2.0678  -11.5865 C   0  0  0  0  0  0  0  0  0  0  0  0
  -16.0576   -1.0763  -12.2619 C   0  0  0  0  0  0  0  0  0  0  0  0
  -15.6279   -0.5667  -13.4967 C   0  0  0  0  0  0  0  0  0  0  0  0
  -13.1267    0.4663  -15.2401 C   0  0  0  0  0  0  0  0  0  0  0  0
  -13.8894   -0.7317  -15.2614 O   0  0  0  0  0  0  0  0  0  0  0  0
  -12.4598   -4.2721  -11.9053 N   0  0  0  0  0  0  0  0  0  0  0  0
  -11.6379   -3.7877  -11.5633 H   0  0  0  0  0  0  0  0  0  0  0  0
  -12.3159   -5.6754  -11.9466 C   0  0  0  0  0  0  0  0  0  0  0  0
  -11.4138   -6.3189  -11.0868 C   0  0  0  0  0  0  0  0  0  0  0  0
  -11.2086   -7.6960  -11.1604 C   0  0  0  0  0  0  0  0  0  0  0  0
  -11.9150   -8.4478  -12.0967 C   0  0  0  0  0  0  0  0  0  0  0  0
  -11.5785  -10.1438  -12.1655 Cl  0  0  0  0  0  0  0  0  0  0  0  0
  -12.8357   -7.8287  -12.9413 C   0  0  0  0  0  0  0  0  0  0  0  0
  -13.7363   -8.7031  -14.1281 Cl  0  0  0  0  0  0  0  0  0  0  0  0
  -13.0429   -6.4422  -12.8587 C   0  0  0  0  0  0  0  0  0  0  0  0
  -16.2505    0.5121  -14.0658 O   0  0  0  0  0  0  0  0  0  0  0  0
  -17.4299    0.2129  -14.8265 C   0  0  0  0  0  0  0  0  0  0  0  0
  -18.5399    1.1875  -14.4676 C   0  0  0  0  0  0  0  0  0  0  0  0
  -19.8288    0.7852  -15.1898 C   0  0  0  0  0  0  0  0  0  0  0  0
  -20.8780    1.7324  -14.8404 N   0  0  0  0  0  0  0  0  0  0  0  0
  -22.0373    1.4404  -14.1443 C   0  0  0  0  0  0  0  0  0  0  0  0
  -22.8297    2.3281  -13.8229 O   0  0  0  0  0  0  0  0  0  0  0  0
  -20.5214    3.1190  -15.1598 C   0  0  0  0  0  0  0  0  0  0  0  0
  -19.1594    3.4809  -14.5433 C   0  0  0  0  0  0  0  0  0  0  0  0
  -18.1429    2.5147  -14.8698 O   0  0  0  0  0  0  0  0  0  0  0  0
  -22.2679   -0.0112  -13.7156 C   0  0  0  0  0  0  0  0  0  0  0  0
  -23.5962   -0.5803  -14.2067 C   0  0  0  0  0  0  0  0  0  0  0  0
  -23.9748   -1.6613  -13.2019 C   0  0  0  0  0  0  0  0  0  0  0  0
  -23.1499   -1.4069  -11.9451 C   0  0  0  0  0  0  0  0  0  0  0  0
  -22.3689   -0.1241  -12.1952 C   0  0  0  0  0  0  0  0  0  0  0  0
 11 12  1  0  0  0
 12  1  1  0  0  0
  1  2  1  0  0  0
  1 10  2  0  0  0
  2  3  2  0  0  0
  3  4  1  0  0  0
  3  8  1  0  0  0
  4 13  1  0  0  0
  4  5  2  0  0  0
 13 15  1  0  0  0
 13 14  1  0  0  0
 15 16  1  0  0  0
 15 22  2  0  0  0
 16 17  2  0  0  0
 17 18  1  0  0  0
 18 19  1  0  0  0
 18 20  2  0  0  0
 20 21  1  0  0  0
 20 22  1  0  0  0
  5  6  1  0  0  0
  6  7  2  0  0  0
  7  8  1  0  0  0
  8  9  2  0  0  0
  9 10  1  0  0  0
 10 23  1  0  0  0
 23 24  1  0  0  0
 24 25  1  0  0  0
 25 26  1  0  0  0
 25 32  1  0  0  0
 26 27  1  0  0  0
 27 28  1  0  0  0
 27 30  1  0  0  0
 28 29  2  0  0  0
 28 33  1  0  0  0
 33 34  1  0  0  0
 33 37  1  0  0  0
 34 35  1  0  0  0
 35 36  1  0  0  0
 36 37  1  0  0  0
 30 31  1  0  0  0
 31 32  1  0  0  0
M  END
> <minimizedAffinity>
-9.57740

$$$$
