CHEMBL3656029


 34 37  0  0  0  0  0  0  0  0999 V2000
  -28.6827   -2.9952   -4.3146 N   0  0  0  0  0  0  0  0  0  0  0  0
  -28.0933   -2.9305   -3.4921 H   0  0  0  0  0  0  0  0  0  0  0  0
  -27.8641   -0.8444   -7.2570 C   0  0  0  0  0  0  0  0  0  0  0  0
  -28.5102    0.3381   -6.8903 C   0  0  0  0  0  0  0  0  0  0  0  0
  -29.1774    0.4357   -5.6706 C   0  0  0  0  0  0  0  0  0  0  0  0
  -29.2162   -0.6563   -4.8094 C   0  0  0  0  0  0  0  0  0  0  0  0
  -28.6052   -1.8663   -5.1599 C   0  0  0  0  0  0  0  0  0  0  0  0
  -27.9278   -1.9484   -6.3887 C   0  0  0  0  0  0  0  0  0  0  0  0
  -27.5055   -1.7800   -9.5577 C   0  0  0  0  0  0  0  0  0  0  0  0
  -28.5213   -2.4663   -9.6284 O   0  0  0  0  0  0  0  0  0  0  0  0
  -27.1577   -0.9849   -8.4723 N   0  0  0  0  0  0  0  0  0  0  0  0
  -26.3440   -0.3970   -8.6171 H   0  0  0  0  0  0  0  0  0  0  0  0
  -28.0267   -1.9697  -12.7652 C   0  0  0  0  0  0  0  0  0  0  0  0
  -26.7443   -1.7849  -12.0373 C   0  0  0  0  0  0  0  0  0  0  0  0
  -25.4514   -1.6528  -12.6146 C   0  0  0  0  0  0  0  0  0  0  0  0
  -24.5699   -1.4974  -11.5725 C   0  0  0  0  0  0  0  0  0  0  0  0
  -25.2275   -1.5177  -10.3856 O   0  0  0  0  0  0  0  0  0  0  0  0
  -26.5590   -1.7029  -10.6613 C   0  0  0  0  0  0  0  0  0  0  0  0
  -29.6923   -3.9776   -4.2770 C   0  0  0  0  0  0  0  0  0  0  0  0
  -30.8132   -3.8392   -3.4631 C   0  0  0  0  0  0  0  0  0  0  0  0
  -31.7768   -4.8416   -3.4800 C   0  0  0  0  0  0  0  0  0  0  0  0
  -31.6987   -5.9630   -4.2332 N   0  0  0  0  0  0  0  0  0  0  0  0
  -30.6025   -6.0837   -5.0134 C   0  0  0  0  0  0  0  0  0  0  0  0
  -29.6016   -5.1247   -5.0663 C   0  0  0  0  0  0  0  0  0  0  0  0
  -30.5215   -7.3095   -5.8012 C   0  0  0  0  0  0  0  0  0  0  0  0
  -31.0815   -7.6471   -7.0235 C   0  0  0  0  0  0  0  0  0  0  0  0
  -30.6998   -8.9784   -7.3604 C   0  0  0  0  0  0  0  0  0  0  0  0
  -29.8952   -9.4068   -6.3166 C   0  0  0  0  0  0  0  0  0  0  0  0
  -29.7910   -8.4009   -5.3937 N   0  0  0  0  0  0  0  0  0  0  0  0
  -29.2624   -8.4274   -4.5298 H   0  0  0  0  0  0  0  0  0  0  0  0
  -31.0393   -9.7863   -8.5299 C   0  0  0  0  0  0  0  0  0  0  0  0
  -30.2091  -10.4061   -9.1810 O   0  0  0  0  0  0  0  0  0  0  0  0
  -32.3545   -9.8104   -8.8625 O   0  0  0  0  0  0  0  0  0  0  0  0
  -32.9055   -9.2797   -8.2642 H   0  0  0  0  0  0  0  0  0  0  0  0
 13 14  1  0  0  0
 14 15  1  0  0  0
 14 18  2  0  0  0
 15 16  2  0  0  0
 16 17  1  0  0  0
 17 18  1  0  0  0
 18  9  1  0  0  0
  9 10  2  0  0  0
  9 11  1  0  0  0
 11  3  1  0  0  0
 11 12  1  0  0  0
  3  4  1  0  0  0
  3  8  2  0  0  0
  4  5  2  0  0  0
  5  6  1  0  0  0
  6  7  2  0  0  0
  7  1  1  0  0  0
  7  8  1  0  0  0
  1 19  1  0  0  0
  1  2  1  0  0  0
 19 20  1  0  0  0
 19 24  2  0  0  0
 20 21  2  0  0  0
 21 22  1  0  0  0
 22 23  2  0  0  0
 23 25  1  0  0  0
 23 24  1  0  0  0
 25 26  2  0  0  0
 25 29  1  0  0  0
 26 27  1  0  0  0
 27 31  1  0  0  0
 27 28  2  0  0  0
 31 32  2  0  0  0
 31 33  1  0  0  0
 33 34  1  0  0  0
 28 29  1  0  0  0
 29 30  1  0  0  0
M  END
> <minimizedAffinity>
-9.93095

$$$$
