CHEMBL1242662


 27 30  0  0  0  0  0  0  0  0999 V2000
  -30.5069   -7.4622   -7.1972 N   0  0  0  0  0  0  0  0  0  0  0  0
  -30.3037   -6.1764   -7.5049 N   0  0  0  0  0  0  0  0  0  0  0  0
  -29.3578   -5.7450   -6.6405 C   0  0  0  0  0  0  0  0  0  0  0  0
  -28.8823   -6.8294   -5.8439 C   0  0  0  0  0  0  0  0  0  0  0  0
  -27.9678   -7.0759   -4.8123 C   0  0  0  0  0  0  0  0  0  0  0  0
  -27.1512   -6.1232   -4.2160 N   0  0  0  0  0  0  0  0  0  0  0  0
  -27.8669   -8.3268   -4.3136 N   0  0  0  0  0  0  0  0  0  0  0  0
  -28.6698   -9.2885   -4.8072 C   0  0  0  0  0  0  0  0  0  0  0  0
  -29.6015   -9.1741   -5.7619 N   0  0  0  0  0  0  0  0  0  0  0  0
  -29.6484   -7.9230   -6.2492 C   0  0  0  0  0  0  0  0  0  0  0  0
  -27.5989   -5.2242   -4.0954 H   0  0  0  0  0  0  0  0  0  0  0  0
  -26.7489   -6.5088   -3.3676 H   0  0  0  0  0  0  0  0  0  0  0  0
  -29.0743   -4.3056   -6.6211 C   0  0  0  0  0  0  0  0  0  0  0  0
  -28.6316   -3.7663   -7.8427 C   0  0  0  0  0  0  0  0  0  0  0  0
  -28.1651   -2.4739   -7.9263 C   0  0  0  0  0  0  0  0  0  0  0  0
  -28.2793   -1.6537   -6.8237 C   0  0  0  0  0  0  0  0  0  0  0  0
  -27.8315   -0.3612   -6.9560 C   0  0  0  0  0  0  0  0  0  0  0  0
  -28.6470    0.5860   -6.3816 C   0  0  0  0  0  0  0  0  0  0  0  0
  -28.9457    1.6893   -7.1228 O   0  0  0  0  0  0  0  0  0  0  0  0
  -29.3492    0.2873   -5.2278 C   0  0  0  0  0  0  0  0  0  0  0  0
  -29.3854   -1.0455   -4.7825 C   0  0  0  0  0  0  0  0  0  0  0  0
  -28.9449   -2.0697   -5.6536 C   0  0  0  0  0  0  0  0  0  0  0  0
  -29.2170   -3.4526   -5.5130 C   0  0  0  0  0  0  0  0  0  0  0  0
  -28.7644    1.4394   -8.0518 H   0  0  0  0  0  0  0  0  0  0  0  0
  -31.1902   -9.5254   -8.3959 C   0  0  0  0  0  0  0  0  0  0  0  0
  -31.6294   -8.1704   -7.8438 C   0  0  0  0  0  0  0  0  0  0  0  0
  -32.8040   -8.3213   -6.8835 C   0  0  0  0  0  0  0  0  0  0  0  0
 25 26  1  0  0  0
 26 27  1  0  0  0
 26  1  1  0  0  0
  1  2  1  0  0  0
  1 10  1  0  0  0
  2  3  2  0  0  0
  3 13  1  0  0  0
  3  4  1  0  0  0
 13 14  1  0  0  0
 13 23  2  0  0  0
 14 15  2  0  0  0
 15 16  1  0  0  0
 16 17  1  0  0  0
 16 22  2  0  0  0
 17 18  2  0  0  0
 18 19  1  0  0  0
 18 20  1  0  0  0
 19 24  1  0  0  0
 20 21  2  0  0  0
 21 22  1  0  0  0
 22 23  1  0  0  0
  4  5  1  0  0  0
  4 10  2  0  0  0
  5  6  1  0  0  0
  5  7  2  0  0  0
  6 11  1  0  0  0
  6 12  1  0  0  0
  7  8  1  0  0  0
  8  9  2  0  0  0
  9 10  1  0  0  0
M  END
> <minimizedAffinity>
-9.44624

$$$$
