CHEMBL3934260


 35 38  0  0  0  0  0  0  0  0999 V2000
  -15.0079    2.3721  -15.7963 N   0  0  0  0  0  0  0  0  0  0  0  0
  -14.4608    1.2248  -15.0568 C   0  0  0  0  0  0  0  0  0  0  0  0
  -13.5448    0.4641  -15.8024 C   0  0  0  0  0  0  0  0  0  0  0  0
  -13.3035   -0.8354  -15.5406 C   0  0  0  0  0  0  0  0  0  0  0  0
  -13.8655   -1.4413  -14.4680 C   0  0  0  0  0  0  0  0  0  0  0  0
  -13.7094   -2.7634  -14.4200 N   0  0  0  0  0  0  0  0  0  0  0  0
  -14.1106   -3.4796  -13.3861 C   0  0  0  0  0  0  0  0  0  0  0  0
  -14.5732   -2.8468  -12.2299 C   0  0  0  0  0  0  0  0  0  0  0  0
  -14.8880   -1.4751  -12.3103 N   0  0  0  0  0  0  0  0  0  0  0  0
  -14.5884   -0.7489  -13.4745 C   0  0  0  0  0  0  0  0  0  0  0  0
  -14.9403    0.6426  -13.7961 C   0  0  0  0  0  0  0  0  0  0  0  0
  -14.3738   -3.7089  -10.9835 C   0  0  0  0  0  0  0  0  0  0  0  0
  -14.8277   -5.0472  -10.9074 C   0  0  0  0  0  0  0  0  0  0  0  0
  -14.3415   -5.6467   -9.8305 N   0  0  0  0  0  0  0  0  0  0  0  0
  -13.6068   -4.7721   -9.1795 N   0  0  0  0  0  0  0  0  0  0  0  0
  -12.8383   -5.1820   -8.0166 C   0  0  0  0  0  0  0  0  0  0  0  0
  -13.6195   -3.5660   -9.8169 C   0  0  0  0  0  0  0  0  0  0  0  0
  -13.8086    5.2138  -18.0644 C   0  0  0  0  0  0  0  0  0  0  0  0
  -13.0207    5.9547  -17.1642 C   0  0  0  0  0  0  0  0  0  0  0  0
  -12.8561    5.5308  -15.8600 C   0  0  0  0  0  0  0  0  0  0  0  0
  -13.4741    4.3410  -15.4456 C   0  0  0  0  0  0  0  0  0  0  0  0
  -14.2897    3.5463  -16.3092 C   0  0  0  0  0  0  0  0  0  0  0  0
  -14.4375    4.0113  -17.6324 C   0  0  0  0  0  0  0  0  0  0  0  0
  -13.3332    6.6547  -19.9858 C   0  0  0  0  0  0  0  0  0  0  0  0
  -14.0115    5.6334  -19.3450 O   0  0  0  0  0  0  0  0  0  0  0  0
  -12.1094    6.2875  -14.9956 O   0  0  0  0  0  0  0  0  0  0  0  0
  -11.9215    7.6604  -15.0538 C   0  0  0  0  0  0  0  0  0  0  0  0
  -16.4789    2.2214  -16.0746 C   0  0  0  0  0  0  0  0  0  0  0  0
  -17.2435    3.4332  -15.5147 C   0  0  0  0  0  0  0  0  0  0  0  0
  -18.3791    3.1348  -14.5263 C   0  0  0  0  0  0  0  0  0  0  0  0
  -19.6022    3.7648  -15.0575 N   0  0  0  0  0  0  0  0  0  0  0  0
  -19.3639    4.1867  -15.9880 H   0  0  0  0  0  0  0  0  0  0  0  0
  -20.7505    2.8682  -15.2577 C   0  0  0  0  0  0  0  0  0  0  0  0
  -20.3510    1.3920  -15.1337 C   0  0  0  0  0  0  0  0  0  0  0  0
  -21.8158    3.1829  -14.1923 C   0  0  0  0  0  0  0  0  0  0  0  0
 24 25  1  0  0  0
 25 18  1  0  0  0
 18 19  1  0  0  0
 18 23  2  0  0  0
 19 20  2  0  0  0
 20 26  1  0  0  0
 20 21  1  0  0  0
 26 27  1  0  0  0
 21 22  2  0  0  0
 22  1  1  0  0  0
 22 23  1  0  0  0
  1 28  1  0  0  0
  1  2  1  0  0  0
 28 29  1  0  0  0
 29 30  1  0  0  0
 30 31  1  0  0  0
 31 33  1  0  0  0
 31 32  1  0  0  0
 33 34  1  0  0  0
 33 35  1  0  0  0
  2  3  1  0  0  0
  2 11  2  0  0  0
  3  4  2  0  0  0
  4  5  1  0  0  0
  5  6  1  0  0  0
  5 10  2  0  0  0
  6  7  2  0  0  0
  7  8  1  0  0  0
  8 12  1  0  0  0
  8  9  2  0  0  0
 12 13  1  0  0  0
 12 17  2  0  0  0
 13 14  2  0  0  0
 14 15  1  0  0  0
 15 16  1  0  0  0
 15 17  1  0  0  0
  9 10  1  0  0  0
 10 11  1  0  0  0
M  END
> <minimizedAffinity>
-7.12633

$$$$
