CHEMBL4454065


 25 28  0  0  0  0  0  0  0  0999 V2000
  -25.7633   -2.3955  -12.5386 C   0  0  0  0  0  0  0  0  0  0  0  0
  -24.7015   -1.4078  -12.9604 C   0  0  0  0  0  0  0  0  0  0  0  0
  -24.6239   -0.9624  -14.2845 C   0  0  0  0  0  0  0  0  0  0  0  0
  -23.6061   -0.0865  -14.6828 C   0  0  0  0  0  0  0  0  0  0  0  0
  -22.6400    0.3859  -13.7760 C   0  0  0  0  0  0  0  0  0  0  0  0
  -22.7350   -0.0731  -12.4495 C   0  0  0  0  0  0  0  0  0  0  0  0
  -23.7410   -0.9606  -12.0476 C   0  0  0  0  0  0  0  0  0  0  0  0
  -21.5755    1.3262  -14.1959 C   0  0  0  0  0  0  0  0  0  0  0  0
  -20.3410    0.8872  -14.6995 C   0  0  0  0  0  0  0  0  0  0  0  0
  -19.3639    1.8001  -15.0996 C   0  0  0  0  0  0  0  0  0  0  0  0
  -19.6440    3.1496  -14.9959 C   0  0  0  0  0  0  0  0  0  0  0  0
  -20.8069    3.6309  -14.5173 N   0  0  0  0  0  0  0  0  0  0  0  0
  -21.7304    2.7147  -14.1279 C   0  0  0  0  0  0  0  0  0  0  0  0
  -27.5300   -1.6295   -9.4985 C   0  0  0  0  0  0  0  0  0  0  0  0
  -26.4987   -2.3143  -10.0950 C   0  0  0  0  0  0  0  0  0  0  0  0
  -26.5625   -1.9512  -11.4068 N   0  0  0  0  0  0  0  0  0  0  0  0
  -27.5665   -1.0735  -11.6129 N   0  0  0  0  0  0  0  0  0  0  0  0
  -28.1763   -0.8811  -10.4488 N   0  0  0  0  0  0  0  0  0  0  0  0
  -28.6922   -3.9796   -8.3507 F   0  0  0  0  0  0  0  0  0  0  0  0
  -28.5295   -2.8842   -7.5912 C   0  0  0  0  0  0  0  0  0  0  0  0
  -28.9675   -2.9414   -6.2705 C   0  0  0  0  0  0  0  0  0  0  0  0
  -28.8156   -1.8337   -5.4393 C   0  0  0  0  0  0  0  0  0  0  0  0
  -28.2094   -0.6790   -5.9325 C   0  0  0  0  0  0  0  0  0  0  0  0
  -27.7661   -0.6262   -7.2583 C   0  0  0  0  0  0  0  0  0  0  0  0
  -27.9349   -1.7282   -8.1107 C   0  0  0  0  0  0  0  0  0  0  0  0
 19 20  1  0  0  0
 20 21  1  0  0  0
 20 25  2  0  0  0
 21 22  2  0  0  0
 22 23  1  0  0  0
 23 24  2  0  0  0
 24 25  1  0  0  0
 25 14  1  0  0  0
 14 15  2  0  0  0
 14 18  1  0  0  0
 15 16  1  0  0  0
 16  1  1  0  0  0
 16 17  1  0  0  0
  1  2  1  0  0  0
  2  3  1  0  0  0
  2  7  2  0  0  0
  3  4  2  0  0  0
  4  5  1  0  0  0
  5  8  1  0  0  0
  5  6  2  0  0  0
  8  9  1  0  0  0
  8 13  2  0  0  0
  9 10  2  0  0  0
 10 11  1  0  0  0
 11 12  2  0  0  0
 12 13  1  0  0  0
  6  7  1  0  0  0
 17 18  2  0  0  0
M  END
> <minimizedAffinity>
-9.81218

$$$$
