CHEMBL4069394


 39 43  0  0  0  0  0  0  0  0999 V2000
  -28.7538  -10.4551   -9.4404 C   0  0  0  0  0  0  0  0  0  0  0  0
  -27.9600  -10.8677   -8.3483 C   0  0  0  0  0  0  0  0  0  0  0  0
  -28.0397  -10.2157   -7.0976 C   0  0  0  0  0  0  0  0  0  0  0  0
  -28.9148   -9.1491   -6.9457 C   0  0  0  0  0  0  0  0  0  0  0  0
  -29.7042   -8.7726   -8.0398 C   0  0  0  0  0  0  0  0  0  0  0  0
  -29.6474   -9.3898   -9.2755 C   0  0  0  0  0  0  0  0  0  0  0  0
  -30.5177   -7.6970   -7.7151 N   0  0  0  0  0  0  0  0  0  0  0  0
  -30.3018   -7.2670   -6.4208 C   0  0  0  0  0  0  0  0  0  0  0  0
  -30.7838   -6.2782   -5.9037 O   0  0  0  0  0  0  0  0  0  0  0  0
  -29.2730   -8.2156   -5.8471 C   0  0  0  0  0  0  0  0  0  0  0  0
  -28.8419   -8.0602   -4.5747 C   0  0  0  0  0  0  0  0  0  0  0  0
  -31.1498   -7.2274   -8.3430 H   0  0  0  0  0  0  0  0  0  0  0  0
  -27.6504   -8.8056   -4.1152 C   0  0  0  0  0  0  0  0  0  0  0  0
  -27.8247  -10.0787   -3.5466 C   0  0  0  0  0  0  0  0  0  0  0  0
  -26.7238  -10.8207   -3.1186 C   0  0  0  0  0  0  0  0  0  0  0  0
  -25.4401  -10.2983   -3.2605 C   0  0  0  0  0  0  0  0  0  0  0  0
  -25.2577   -9.0364   -3.8274 C   0  0  0  0  0  0  0  0  0  0  0  0
  -26.3590   -8.2906   -4.2538 C   0  0  0  0  0  0  0  0  0  0  0  0
  -28.6950  -11.0855  -10.7940 C   0  0  0  0  0  0  0  0  0  0  0  0
  -28.2968  -12.2257  -10.9729 O   0  0  0  0  0  0  0  0  0  0  0  0
  -28.0786   -9.8021  -12.6404 C   0  0  0  0  0  0  0  0  0  0  0  0
  -29.1249  -10.2401  -11.7649 O   0  0  0  0  0  0  0  0  0  0  0  0
  -29.2443   -7.0737   -3.6580 N   0  0  0  0  0  0  0  0  0  0  0  0
  -28.7813   -7.2621   -2.7592 H   0  0  0  0  0  0  0  0  0  0  0  0
  -29.0249   -5.6681   -3.8385 C   0  0  0  0  0  0  0  0  0  0  0  0
  -29.9908   -4.6873   -3.6203 C   0  0  0  0  0  0  0  0  0  0  0  0
  -29.7355   -3.3431   -3.9476 C   0  0  0  0  0  0  0  0  0  0  0  0
  -28.5032   -2.9519   -4.4996 C   0  0  0  0  0  0  0  0  0  0  0  0
  -27.4878   -3.9032   -4.5759 C   0  0  0  0  0  0  0  0  0  0  0  0
  -27.7459   -5.2416   -4.2355 C   0  0  0  0  0  0  0  0  0  0  0  0
  -28.3337   -1.6143   -4.9918 N   0  0  0  0  0  0  0  0  0  0  0  0
  -28.1255   -0.5149   -4.1656 C   0  0  0  0  0  0  0  0  0  0  0  0
  -28.0418    0.6334   -4.9138 C   0  0  0  0  0  0  0  0  0  0  0  0
  -28.2085    0.2540   -6.2530 C   0  0  0  0  0  0  0  0  0  0  0  0
  -28.4123   -1.1205   -6.3018 C   0  0  0  0  0  0  0  0  0  0  0  0
  -28.7632   -1.8812   -7.5503 C   0  0  0  0  0  0  0  0  0  0  0  0
  -27.6520   -2.6433   -8.1337 N   0  0  0  0  0  0  0  0  0  0  0  0
  -27.9659   -4.0639   -8.3033 C   0  0  0  0  0  0  0  0  0  0  0  0
  -27.2793   -2.0759   -9.4325 C   0  0  0  0  0  0  0  0  0  0  0  0
 21 22  1  0  0  0
 22 19  1  0  0  0
 19 20  2  0  0  0
 19  1  1  0  0  0
  1  2  1  0  0  0
  1  6  2  0  0  0
  2  3  2  0  0  0
  3  4  1  0  0  0
  4  5  2  0  0  0
  4 10  1  0  0  0
  5  6  1  0  0  0
  5  7  1  0  0  0
  7  8  1  0  0  0
  7 12  1  0  0  0
  8  9  2  0  0  0
  8 10  1  0  0  0
 10 11  2  0  0  0
 11 23  1  0  0  0
 11 13  1  0  0  0
 23 25  1  0  0  0
 23 24  1  0  0  0
 25 26  1  0  0  0
 25 30  2  0  0  0
 26 27  2  0  0  0
 27 28  1  0  0  0
 28 31  1  0  0  0
 28 29  2  0  0  0
 31 32  1  0  0  0
 31 35  1  0  0  0
 32 33  2  0  0  0
 33 34  1  0  0  0
 34 35  2  0  0  0
 35 36  1  0  0  0
 36 37  1  0  0  0
 37 38  1  0  0  0
 37 39  1  0  0  0
 29 30  1  0  0  0
 13 14  1  0  0  0
 13 18  2  0  0  0
 14 15  2  0  0  0
 15 16  1  0  0  0
 16 17  2  0  0  0
 17 18  1  0  0  0
M  END
> <minimizedAffinity>
-8.18667

$$$$
