CHEMBL3694657


 31 34  0  0  0  0  0  0  0  0999 V2000
  -22.7857    1.4985  -13.8954 C   0  0  0  0  0  0  0  0  0  0  0  0
  -23.0431    2.8212  -13.5577 C   0  0  0  0  0  0  0  0  0  0  0  0
  -21.9843    3.6451  -13.8241 N   0  0  0  0  0  0  0  0  0  0  0  0
  -21.0544    2.8573  -14.3143 C   0  0  0  0  0  0  0  0  0  0  0  0
  -19.7381    3.1564  -14.7797 C   0  0  0  0  0  0  0  0  0  0  0  0
  -18.9442    2.1705  -15.2403 C   0  0  0  0  0  0  0  0  0  0  0  0
  -19.3983    0.7876  -15.2389 C   0  0  0  0  0  0  0  0  0  0  0  0
  -20.6276    0.4982  -14.7840 C   0  0  0  0  0  0  0  0  0  0  0  0
  -21.4717    1.5260  -14.3532 N   0  0  0  0  0  0  0  0  0  0  0  0
  -24.9204   -1.2676  -12.3767 C   0  0  0  0  0  0  0  0  0  0  0  0
  -25.3872   -1.8779  -13.5416 C   0  0  0  0  0  0  0  0  0  0  0  0
  -24.9518   -1.4468  -14.7934 C   0  0  0  0  0  0  0  0  0  0  0  0
  -24.0873   -0.3590  -14.8954 C   0  0  0  0  0  0  0  0  0  0  0  0
  -23.6467    0.3154  -13.7486 C   0  0  0  0  0  0  0  0  0  0  0  0
  -24.0418   -0.1814  -12.4921 C   0  0  0  0  0  0  0  0  0  0  0  0
  -26.6606   -2.1180   -9.2850 N   0  0  0  0  0  0  0  0  0  0  0  0
  -26.5881   -1.6628  -10.5881 C   0  0  0  0  0  0  0  0  0  0  0  0
  -27.5872   -1.3211  -11.2046 O   0  0  0  0  0  0  0  0  0  0  0  0
  -25.3006   -1.6898  -11.0796 N   0  0  0  0  0  0  0  0  0  0  0  0
  -25.8777   -1.8723   -8.6944 H   0  0  0  0  0  0  0  0  0  0  0  0
  -24.6546   -2.2756  -10.5712 H   0  0  0  0  0  0  0  0  0  0  0  0
  -28.3663   -3.4780   -8.1121 C   0  0  0  0  0  0  0  0  0  0  0  0
  -27.9788   -2.1283   -8.6761 C   0  0  0  0  0  0  0  0  0  0  0  0
  -17.6396    2.4483  -15.7376 C   0  0  0  0  0  0  0  0  0  0  0  0
  -16.5356    2.7137  -16.1308 C   0  0  0  0  0  0  0  0  0  0  0  0
  -15.2214    3.0250  -16.5596 C   0  0  0  0  0  0  0  0  0  0  0  0
  -14.5579    4.2291  -16.4780 C   0  0  0  0  0  0  0  0  0  0  0  0
  -13.3016    4.1305  -17.0219 N   0  0  0  0  0  0  0  0  0  0  0  0
  -13.1953    2.8850  -17.4257 C   0  0  0  0  0  0  0  0  0  0  0  0
  -14.3299    2.1731  -17.1530 N   0  0  0  0  0  0  0  0  0  0  0  0
  -14.5341    0.7760  -17.4445 C   0  0  0  0  0  0  0  0  0  0  0  0
 22 23  1  0  0  0
 23 16  1  0  0  0
 16 17  1  0  0  0
 16 20  1  0  0  0
 17 18  2  0  0  0
 17 19  1  0  0  0
 19 10  1  0  0  0
 19 21  1  0  0  0
 10 11  1  0  0  0
 10 15  2  0  0  0
 11 12  2  0  0  0
 12 13  1  0  0  0
 13 14  2  0  0  0
 14  1  1  0  0  0
 14 15  1  0  0  0
  1  2  2  0  0  0
  1  9  1  0  0  0
  2  3  1  0  0  0
  3  4  2  0  0  0
  4  5  1  0  0  0
  4  9  1  0  0  0
  5  6  2  0  0  0
  6 24  1  0  0  0
  6  7  1  0  0  0
 24 25  3  0  0  0
 25 26  1  0  0  0
 26 27  2  0  0  0
 26 30  1  0  0  0
 27 28  1  0  0  0
 28 29  2  0  0  0
 29 30  1  0  0  0
 30 31  1  0  0  0
  7  8  2  0  0  0
  8  9  1  0  0  0
M  END
> <minimizedAffinity>
-9.50595

$$$$
