CHEMBL1967116


 37 41  0  0  0  0  0  0  0  0999 V2000
  -30.1035    1.4864   -6.6061 C   0  0  0  0  0  0  0  0  0  0  0  0
  -28.9473    0.8199   -7.0140 C   0  0  0  0  0  0  0  0  0  0  0  0
  -28.6427   -0.4437   -6.5083 C   0  0  0  0  0  0  0  0  0  0  0  0
  -29.4645   -1.0522   -5.5489 C   0  0  0  0  0  0  0  0  0  0  0  0
  -30.5438   -0.3155   -5.0467 C   0  0  0  0  0  0  0  0  0  0  0  0
  -30.8734    0.9414   -5.5800 C   0  0  0  0  0  0  0  0  0  0  0  0
  -29.1841   -2.4327   -5.1109 C   0  0  0  0  0  0  0  0  0  0  0  0
  -28.9940   -2.6622   -3.7627 C   0  0  0  0  0  0  0  0  0  0  0  0
  -28.5793   -4.2556   -3.4052 S   0  0  0  0  0  0  0  0  0  0  0  0
  -28.7331   -4.7694   -5.0491 C   0  0  0  0  0  0  0  0  0  0  0  0
  -28.5672   -6.0798   -5.5572 C   0  0  0  0  0  0  0  0  0  0  0  0
  -28.7036   -6.2008   -6.9267 C   0  0  0  0  0  0  0  0  0  0  0  0
  -28.9553   -5.1847   -7.7690 N   0  0  0  0  0  0  0  0  0  0  0  0
  -29.0980   -3.9338   -7.2922 C   0  0  0  0  0  0  0  0  0  0  0  0
  -29.2920   -2.9819   -8.2850 N   0  0  0  0  0  0  0  0  0  0  0  0
  -29.0258   -3.6727   -5.8920 C   0  0  0  0  0  0  0  0  0  0  0  0
  -29.0976   -3.4099   -9.1846 H   0  0  0  0  0  0  0  0  0  0  0  0
  -28.7964   -2.1162   -8.1124 H   0  0  0  0  0  0  0  0  0  0  0  0
  -28.2780   -7.2308   -4.7177 C   0  0  0  0  0  0  0  0  0  0  0  0
  -29.0474   -7.9155   -3.7458 C   0  0  0  0  0  0  0  0  0  0  0  0
  -28.4088   -8.9611   -3.2140 N   0  0  0  0  0  0  0  0  0  0  0  0
  -27.2271   -8.9628   -3.8485 N   0  0  0  0  0  0  0  0  0  0  0  0
  -26.2574   -9.9930   -3.5662 C   0  0  0  0  0  0  0  0  0  0  0  0
  -27.0967   -7.9491   -4.7552 C   0  0  0  0  0  0  0  0  0  0  0  0
  -32.0218    3.8773   -8.5471 N   0  0  0  0  0  0  0  0  0  0  0  0
  -31.7444    2.6552   -7.9709 C   0  0  0  0  0  0  0  0  0  0  0  0
  -32.4702    1.6692   -8.0232 O   0  0  0  0  0  0  0  0  0  0  0  0
  -30.5403    2.6631   -7.2664 N   0  0  0  0  0  0  0  0  0  0  0  0
  -31.2560    4.5280   -8.6270 H   0  0  0  0  0  0  0  0  0  0  0  0
  -30.3204    3.5391   -6.8154 H   0  0  0  0  0  0  0  0  0  0  0  0
  -34.7089    7.3096  -10.8959 C   0  0  0  0  0  0  0  0  0  0  0  0
  -34.5557    5.9138  -10.3661 C   0  0  0  0  0  0  0  0  0  0  0  0
  -35.5970    4.9910  -10.5244 C   0  0  0  0  0  0  0  0  0  0  0  0
  -35.4620    3.7029  -10.0322 C   0  0  0  0  0  0  0  0  0  0  0  0
  -34.2915    3.3215   -9.3760 C   0  0  0  0  0  0  0  0  0  0  0  0
  -33.2291    4.2170   -9.2120 C   0  0  0  0  0  0  0  0  0  0  0  0
  -33.3730    5.5188   -9.7126 C   0  0  0  0  0  0  0  0  0  0  0  0
 31 32  1  0  0  0
 32 33  1  0  0  0
 32 37  2  0  0  0
 33 34  2  0  0  0
 34 35  1  0  0  0
 35 36  2  0  0  0
 36 25  1  0  0  0
 36 37  1  0  0  0
 25 26  1  0  0  0
 25 29  1  0  0  0
 26 27  2  0  0  0
 26 28  1  0  0  0
 28  1  1  0  0  0
 28 30  1  0  0  0
  1  2  1  0  0  0
  1  6  2  0  0  0
  2  3  2  0  0  0
  3  4  1  0  0  0
  4  7  1  0  0  0
  4  5  2  0  0  0
  7  8  2  0  0  0
  7 16  1  0  0  0
  8  9  1  0  0  0
  9 10  1  0  0  0
 10 11  1  0  0  0
 10 16  2  0  0  0
 11 19  1  0  0  0
 11 12  2  0  0  0
 19 20  1  0  0  0
 19 24  2  0  0  0
 20 21  2  0  0  0
 21 22  1  0  0  0
 22 23  1  0  0  0
 22 24  1  0  0  0
 12 13  1  0  0  0
 13 14  2  0  0  0
 14 15  1  0  0  0
 14 16  1  0  0  0
 15 17  1  0  0  0
 15 18  1  0  0  0
  5  6  1  0  0  0
M  END
> <minimizedAffinity>
-7.83148

$$$$
