CHEMBL3948321


 38 43  0  0  0  0  0  0  0  0999 V2000
  -29.4340   -5.4908   -6.1014 C   0  0  0  0  0  0  0  0  0  0  0  0
  -29.1479   -5.6928   -7.3944 C   0  0  0  0  0  0  0  0  0  0  0  0
  -28.5485   -4.7305   -8.0655 C   0  0  0  0  0  0  0  0  0  0  0  0
  -28.1870   -3.4681   -7.5860 C   0  0  0  0  0  0  0  0  0  0  0  0
  -27.1771   -3.1859   -8.3049 N   0  0  0  0  0  0  0  0  0  0  0  0
  -27.5673   -2.6505   -9.4062 C   0  0  0  0  0  0  0  0  0  0  0  0
  -28.0689   -1.4990   -9.4580 C   0  0  0  0  0  0  0  0  0  0  0  0
  -28.4173   -1.3796   -7.8419 N   0  0  0  0  0  0  0  0  0  0  0  0
  -28.7992   -2.7069   -6.7617 C   0  0  0  0  0  0  0  0  0  0  0  0
  -29.1890   -4.0823   -5.6853 C   0  0  0  0  0  0  0  0  0  0  0  0
  -27.4120   -1.1974  -11.1887 C   0  0  0  0  0  0  0  0  0  0  0  0
  -27.7257   -1.7972  -12.5946 C   0  0  0  0  0  0  0  0  0  0  0  0
  -26.9008   -1.7651  -13.7360 N   0  0  0  0  0  0  0  0  0  0  0  0
  -25.7458   -1.3097  -13.2783 N   0  0  0  0  0  0  0  0  0  0  0  0
  -26.1422   -1.1998  -11.8613 C   0  0  0  0  0  0  0  0  0  0  0  0
  -24.3897   -0.9986  -14.0656 C   0  0  0  0  0  0  0  0  0  0  0  0
  -22.9448   -0.9909  -13.3325 C   0  0  0  0  0  0  0  0  0  0  0  0
  -22.9203   -0.0456  -12.1171 C   0  0  0  0  0  0  0  0  0  0  0  0
  -23.1246    1.3833  -12.5340 C   0  0  0  0  0  0  0  0  0  0  0  0
  -22.0438    1.7371  -13.6471 N   0  0  0  0  0  0  0  0  0  0  0  0
  -22.3075    3.1163  -14.1599 C   0  0  0  0  0  0  0  0  0  0  0  0
  -21.9588    0.7252  -14.8677 C   0  0  0  0  0  0  0  0  0  0  0  0
  -21.8157   -0.6715  -14.3283 C   0  0  0  0  0  0  0  0  0  0  0  0
  -29.6608   -6.6890   -5.3199 N   0  0  0  0  0  0  0  0  0  0  0  0
  -29.1353  -10.0545   -7.0314 C   0  0  0  0  0  0  0  0  0  0  0  0
  -30.3454  -10.2068   -7.6159 C   0  0  0  0  0  0  0  0  0  0  0  0
  -31.3942   -9.3645   -7.2634 C   0  0  0  0  0  0  0  0  0  0  0  0
  -31.1584   -8.1700   -6.5837 C   0  0  0  0  0  0  0  0  0  0  0  0
  -29.9517   -7.9652   -5.9459 C   0  0  0  0  0  0  0  0  0  0  0  0
  -29.1026   -9.1016   -5.9817 C   0  0  0  0  0  0  0  0  0  0  0  0
  -27.0507  -10.2061   -8.3012 C   0  0  0  0  0  0  0  0  0  0  0  0
  -28.0332  -10.7971   -7.4059 O   0  0  0  0  0  0  0  0  0  0  0  0
  -32.7020   -9.6789   -7.4866 O   0  0  0  0  0  0  0  0  0  0  0  0
  -33.1926  -10.7424   -6.6769 C   0  0  0  0  0  0  0  0  0  0  0  0
  -30.2387   -6.4474   -3.9806 C   0  0  0  0  0  0  0  0  0  0  0  0
  -31.5700   -5.6924   -3.9558 C   0  0  0  0  0  0  0  0  0  0  0  0
  -31.8333   -4.3043   -3.4238 C   0  0  0  0  0  0  0  0  0  0  0  0
  -32.4901   -5.3411   -2.6524 C   0  0  0  0  0  0  0  0  0  0  0  0
 31 32  1  0  0  0
 32 25  1  0  0  0
 25 26  1  0  0  0
 25 30  2  0  0  0
 26 27  2  0  0  0
 27 33  1  0  0  0
 27 28  1  0  0  0
 33 34  1  0  0  0
 28 29  2  0  0  0
 29 24  1  0  0  0
 29 30  1  0  0  0
 24 35  1  0  0  0
 24  1  1  0  0  0
 35 36  1  0  0  0
 36 37  1  0  0  0
 36 38  1  0  0  0
 37 38  1  0  0  0
  1  2  1  0  0  0
  1 10  2  0  0  0
  2  3  2  0  0  0
  3  4  1  0  0  0
  4  5  1  0  0  0
  4  9  2  0  0  0
  5  6  2  0  0  0
  6  7  1  0  0  0
  7 11  1  0  0  0
  7  8  2  0  0  0
 11 12  1  0  0  0
 11 15  2  0  0  0
 12 13  2  0  0  0
 13 14  1  0  0  0
 14 16  1  0  0  0
 14 15  1  0  0  0
 16 17  1  0  0  0
 17 18  1  0  0  0
 17 23  1  0  0  0
 18 19  1  0  0  0
 19 20  1  0  0  0
 20 21  1  0  0  0
 20 22  1  0  0  0
 22 23  1  0  0  0
  8  9  1  0  0  0
  9 10  1  0  0  0
M  END
> <minimizedAffinity>
-8.54953

$$$$
