CHEMBL3955460


 38 41  0  0  0  0  0  0  0  0999 V2000
  -16.3497   -4.1689  -11.4248 C   0  0  0  0  0  0  0  0  0  0  0  0
  -15.5778   -3.3388  -12.4131 C   0  0  0  0  0  0  0  0  0  0  0  0
  -15.5256   -1.9438  -12.1829 C   0  0  0  0  0  0  0  0  0  0  0  0
  -14.8143   -1.1355  -13.0537 C   0  0  0  0  0  0  0  0  0  0  0  0
  -14.1104   -1.6281  -14.0823 N   0  0  0  0  0  0  0  0  0  0  0  0
  -14.1748   -2.9579  -14.2993 C   0  0  0  0  0  0  0  0  0  0  0  0
  -14.8976   -3.8723  -13.5291 C   0  0  0  0  0  0  0  0  0  0  0  0
  -14.9670   -5.2579  -13.8765 N   0  0  0  0  0  0  0  0  0  0  0  0
  -14.1788   -5.8713  -14.8432 C   0  0  0  0  0  0  0  0  0  0  0  0
  -13.2611   -5.3271  -15.4515 O   0  0  0  0  0  0  0  0  0  0  0  0
  -14.5666   -7.1731  -15.1258 N   0  0  0  0  0  0  0  0  0  0  0  0
  -15.5684   -5.8505  -13.3229 H   0  0  0  0  0  0  0  0  0  0  0  0
  -15.5618   -7.3278  -15.0827 H   0  0  0  0  0  0  0  0  0  0  0  0
  -13.8606   -7.9279  -16.1047 C   0  0  0  0  0  0  0  0  0  0  0  0
  -13.1473   -9.0552  -15.7008 C   0  0  0  0  0  0  0  0  0  0  0  0
  -12.5202   -9.8604  -16.6576 C   0  0  0  0  0  0  0  0  0  0  0  0
  -12.5515   -9.5276  -18.0193 C   0  0  0  0  0  0  0  0  0  0  0  0
  -11.7316  -10.6077  -19.0872 Cl  0  0  0  0  0  0  0  0  0  0  0  0
  -13.2230   -8.3796  -18.4475 C   0  0  0  0  0  0  0  0  0  0  0  0
  -13.8910   -7.6008  -17.4665 C   0  0  0  0  0  0  0  0  0  0  0  0
  -13.2862   -7.9150  -19.8823 C   0  0  0  0  0  0  0  0  0  0  0  0
  -13.7035   -8.8295  -20.7971 F   0  0  0  0  0  0  0  0  0  0  0  0
  -14.1099   -6.8404  -20.0413 F   0  0  0  0  0  0  0  0  0  0  0  0
  -12.0626   -7.5033  -20.3290 F   0  0  0  0  0  0  0  0  0  0  0  0
  -14.8712    0.2381  -12.8734 O   0  0  0  0  0  0  0  0  0  0  0  0
  -15.6182    0.9550  -13.7938 C   0  0  0  0  0  0  0  0  0  0  0  0
  -16.9999    0.9056  -13.8130 C   0  0  0  0  0  0  0  0  0  0  0  0
  -17.6325    1.6203  -14.8017 C   0  0  0  0  0  0  0  0  0  0  0  0
  -16.9553    2.3990  -15.6508 N   0  0  0  0  0  0  0  0  0  0  0  0
  -15.6235    2.4298  -15.5119 C   0  0  0  0  0  0  0  0  0  0  0  0
  -14.9051    1.7466  -14.6119 N   0  0  0  0  0  0  0  0  0  0  0  0
  -19.0259    1.4722  -14.9009 N   0  0  0  0  0  0  0  0  0  0  0  0
  -19.9426    2.4589  -14.6406 C   0  0  0  0  0  0  0  0  0  0  0  0
  -19.7327    3.5864  -14.2188 O   0  0  0  0  0  0  0  0  0  0  0  0
  -19.3716    0.5727  -15.1989 H   0  0  0  0  0  0  0  0  0  0  0  0
  -21.3521    2.0077  -14.8638 C   0  0  0  0  0  0  0  0  0  0  0  0
  -22.2813    1.7873  -13.6909 C   0  0  0  0  0  0  0  0  0  0  0  0
  -21.7453    0.6087  -14.4490 C   0  0  0  0  0  0  0  0  0  0  0  0
  1  2  1  0  0  0
  2  3  1  0  0  0
  2  7  2  0  0  0
  3  4  2  0  0  0
  4 25  1  0  0  0
  4  5  1  0  0  0
 25 26  1  0  0  0
 26 27  1  0  0  0
 26 31  2  0  0  0
 27 28  2  0  0  0
 28 32  1  0  0  0
 28 29  1  0  0  0
 32 33  1  0  0  0
 32 35  1  0  0  0
 33 34  2  0  0  0
 33 36  1  0  0  0
 36 37  1  0  0  0
 36 38  1  0  0  0
 37 38  1  0  0  0
 29 30  2  0  0  0
 30 31  1  0  0  0
  5  6  2  0  0  0
  6  7  1  0  0  0
  7  8  1  0  0  0
  8  9  1  0  0  0
  8 12  1  0  0  0
  9 10  2  0  0  0
  9 11  1  0  0  0
 11 14  1  0  0  0
 11 13  1  0  0  0
 14 15  1  0  0  0
 14 20  2  0  0  0
 15 16  2  0  0  0
 16 17  1  0  0  0
 17 18  1  0  0  0
 17 19  2  0  0  0
 19 21  1  0  0  0
 19 20  1  0  0  0
 21 22  1  0  0  0
 21 23  1  0  0  0
 21 24  1  0  0  0
M  END
> <minimizedAffinity>
-8.55317

$$$$
