CHEMBL492956


 37 40  0  0  0  0  0  0  0  0999 V2000
  -24.5817   -0.8512  -13.1107 C   0  0  0  0  0  0  0  0  0  0  0  0
  -25.4940   -1.5015  -13.9321 C   0  0  0  0  0  0  0  0  0  0  0  0
  -26.7089   -1.9648  -13.4185 C   0  0  0  0  0  0  0  0  0  0  0  0
  -27.0201   -1.7695  -12.0696 C   0  0  0  0  0  0  0  0  0  0  0  0
  -26.1164   -1.1346  -11.2117 C   0  0  0  0  0  0  0  0  0  0  0  0
  -24.8845   -0.7105  -11.7489 C   0  0  0  0  0  0  0  0  0  0  0  0
  -23.0640    1.0459  -13.6751 C   0  0  0  0  0  0  0  0  0  0  0  0
  -23.7864    1.9684  -13.3105 O   0  0  0  0  0  0  0  0  0  0  0  0
  -23.3600   -0.3074  -13.5803 N   0  0  0  0  0  0  0  0  0  0  0  0
  -22.5934   -0.9620  -13.6825 H   0  0  0  0  0  0  0  0  0  0  0  0
  -19.1365    1.9291  -15.2015 C   0  0  0  0  0  0  0  0  0  0  0  0
  -19.6467    0.6284  -15.2345 C   0  0  0  0  0  0  0  0  0  0  0  0
  -20.9268    0.3636  -14.7378 C   0  0  0  0  0  0  0  0  0  0  0  0
  -21.7157    1.3948  -14.2083 C   0  0  0  0  0  0  0  0  0  0  0  0
  -21.1951    2.6937  -14.1507 C   0  0  0  0  0  0  0  0  0  0  0  0
  -19.9117    2.9571  -14.6506 C   0  0  0  0  0  0  0  0  0  0  0  0
  -17.3192    3.4528  -15.7724 C   0  0  0  0  0  0  0  0  0  0  0  0
  -17.8126    2.2057  -15.7616 C   0  0  0  0  0  0  0  0  0  0  0  0
  -15.2677    2.8850  -16.8647 O   0  0  0  0  0  0  0  0  0  0  0  0
  -16.0030    3.7417  -16.3886 C   0  0  0  0  0  0  0  0  0  0  0  0
  -15.6937    5.0778  -16.3941 N   0  0  0  0  0  0  0  0  0  0  0  0
  -14.5026    5.4614  -17.0476 O   0  0  0  0  0  0  0  0  0  0  0  0
  -16.3049    5.8240  -16.0840 H   0  0  0  0  0  0  0  0  0  0  0  0
  -14.1656    4.6065  -17.3940 H   0  0  0  0  0  0  0  0  0  0  0  0
  -26.5110   -0.8689   -9.8820 N   0  0  0  0  0  0  0  0  0  0  0  0
  -26.1981    0.0185   -9.5088 H   0  0  0  0  0  0  0  0  0  0  0  0
  -27.1461   -1.7247   -9.0459 C   0  0  0  0  0  0  0  0  0  0  0  0
  -27.2906   -3.0158   -9.2401 N   0  0  0  0  0  0  0  0  0  0  0  0
  -28.0061   -3.5886   -8.2246 C   0  0  0  0  0  0  0  0  0  0  0  0
  -28.4237   -2.7404   -7.2189 C   0  0  0  0  0  0  0  0  0  0  0  0
  -27.8338   -1.1623   -7.5602 S   0  0  0  0  0  0  0  0  0  0  0  0
  -29.2296   -3.0683   -6.0430 C   0  0  0  0  0  0  0  0  0  0  0  0
  -29.2235   -2.2202   -4.9270 C   0  0  0  0  0  0  0  0  0  0  0  0
  -29.9042   -2.5777   -3.7660 C   0  0  0  0  0  0  0  0  0  0  0  0
  -30.5866   -3.7801   -3.7538 C   0  0  0  0  0  0  0  0  0  0  0  0
  -30.6357   -4.6221   -4.8074 N   0  0  0  0  0  0  0  0  0  0  0  0
  -29.9581   -4.2490   -5.9227 C   0  0  0  0  0  0  0  0  0  0  0  0
 19 20  2  0  0  0
 20 17  1  0  0  0
 20 21  1  0  0  0
 17 18  2  0  0  0
 18 11  1  0  0  0
 11 12  1  0  0  0
 11 16  2  0  0  0
 12 13  2  0  0  0
 13 14  1  0  0  0
 14  7  1  0  0  0
 14 15  2  0  0  0
  7  8  2  0  0  0
  7  9  1  0  0  0
  9  1  1  0  0  0
  9 10  1  0  0  0
  1  2  1  0  0  0
  1  6  2  0  0  0
  2  3  2  0  0  0
  3  4  1  0  0  0
  4  5  2  0  0  0
  5 25  1  0  0  0
  5  6  1  0  0  0
 25 27  1  0  0  0
 25 26  1  0  0  0
 27 28  2  0  0  0
 27 31  1  0  0  0
 28 29  1  0  0  0
 29 30  2  0  0  0
 30 32  1  0  0  0
 30 31  1  0  0  0
 32 33  1  0  0  0
 32 37  2  0  0  0
 33 34  2  0  0  0
 34 35  1  0  0  0
 35 36  2  0  0  0
 36 37  1  0  0  0
 15 16  1  0  0  0
 21 22  1  0  0  0
 21 23  1  0  0  0
 22 24  1  0  0  0
M  END
> <minimizedAffinity>
-11.02996

$$$$
