CHEMBL492857


 40 44  0  0  0  0  0  0  0  0999 V2000
  -14.0540   -0.5728  -15.0976 N   0  0  0  0  0  0  0  0  0  0  0  0
  -14.8689   -0.2555  -13.9380 C   0  0  0  0  0  0  0  0  0  0  0  0
  -16.2275    0.3208  -14.3262 C   0  0  0  0  0  0  0  0  0  0  0  0
  -16.1002    1.4427  -15.3251 C   0  0  0  0  0  0  0  0  0  0  0  0
  -17.0291    2.4998  -15.4538 C   0  0  0  0  0  0  0  0  0  0  0  0
  -16.7538    3.5571  -16.3471 C   0  0  0  0  0  0  0  0  0  0  0  0
  -15.6096    3.5605  -17.1409 C   0  0  0  0  0  0  0  0  0  0  0  0
  -14.7346    2.4858  -17.0759 C   0  0  0  0  0  0  0  0  0  0  0  0
  -14.9784    1.4312  -16.1846 C   0  0  0  0  0  0  0  0  0  0  0  0
  -14.0100    0.2975  -16.1806 C   0  0  0  0  0  0  0  0  0  0  0  0
  -13.2251    0.1710  -17.1157 O   0  0  0  0  0  0  0  0  0  0  0  0
  -18.3132    2.6486  -14.6907 C   0  0  0  0  0  0  0  0  0  0  0  0
  -18.3570    3.5094  -13.8169 O   0  0  0  0  0  0  0  0  0  0  0  0
  -19.3598    1.8167  -15.0479 N   0  0  0  0  0  0  0  0  0  0  0  0
  -19.1942    1.1151  -15.7513 H   0  0  0  0  0  0  0  0  0  0  0  0
  -20.6745    1.8518  -14.5328 C   0  0  0  0  0  0  0  0  0  0  0  0
  -21.4763    2.9931  -14.5492 C   0  0  0  0  0  0  0  0  0  0  0  0
  -22.7893    2.9472  -14.0749 C   0  0  0  0  0  0  0  0  0  0  0  0
  -23.3073    1.7625  -13.5569 C   0  0  0  0  0  0  0  0  0  0  0  0
  -22.5174    0.6068  -13.5157 C   0  0  0  0  0  0  0  0  0  0  0  0
  -21.2034    0.6603  -14.0189 C   0  0  0  0  0  0  0  0  0  0  0  0
  -23.0508   -0.6796  -12.9367 C   0  0  0  0  0  0  0  0  0  0  0  0
  -22.6713   -1.7912  -13.6256 F   0  0  0  0  0  0  0  0  0  0  0  0
  -22.6421   -0.8778  -11.6527 F   0  0  0  0  0  0  0  0  0  0  0  0
  -24.4122   -0.7078  -12.9020 F   0  0  0  0  0  0  0  0  0  0  0  0
  -12.9438   -1.5029  -14.9152 C   0  0  0  0  0  0  0  0  0  0  0  0
  -13.6197   -5.9667  -12.2341 C   0  0  0  0  0  0  0  0  0  0  0  0
  -13.6769   -6.2497  -13.6100 C   0  0  0  0  0  0  0  0  0  0  0  0
  -13.5986   -5.2684  -14.5915 C   0  0  0  0  0  0  0  0  0  0  0  0
  -13.5676   -5.6609  -15.8693 N   0  0  0  0  0  0  0  0  0  0  0  0
  -13.3952   -4.7214  -16.8184 C   0  0  0  0  0  0  0  0  0  0  0  0
  -13.2508   -3.3765  -16.5442 C   0  0  0  0  0  0  0  0  0  0  0  0
  -13.2965   -2.9487  -15.2120 C   0  0  0  0  0  0  0  0  0  0  0  0
  -13.5057   -3.9189  -14.1949 C   0  0  0  0  0  0  0  0  0  0  0  0
  -13.5864   -3.6326  -12.8148 C   0  0  0  0  0  0  0  0  0  0  0  0
  -13.6318   -4.6298  -11.8288 C   0  0  0  0  0  0  0  0  0  0  0  0
  -13.6144   -8.3006  -11.8208 C   0  0  0  0  0  0  0  0  0  0  0  0
  -13.5582   -6.9677  -11.3020 O   0  0  0  0  0  0  0  0  0  0  0  0
  -13.6281   -4.0825  -10.5799 O   0  0  0  0  0  0  0  0  0  0  0  0
  -14.8101   -3.5541  -10.0070 C   0  0  0  0  0  0  0  0  0  0  0  0
 37 38  1  0  0  0
 38 27  1  0  0  0
 27 28  1  0  0  0
 27 36  2  0  0  0
 28 29  2  0  0  0
 29 30  1  0  0  0
 29 34  1  0  0  0
 30 31  2  0  0  0
 31 32  1  0  0  0
 32 33  2  0  0  0
 33 26  1  0  0  0
 33 34  1  0  0  0
 26  1  1  0  0  0
  1  2  1  0  0  0
  1 10  1  0  0  0
  2  3  1  0  0  0
  3  4  1  0  0  0
  4  5  1  0  0  0
  4  9  2  0  0  0
  5 12  1  0  0  0
  5  6  2  0  0  0
 12 13  2  0  0  0
 12 14  1  0  0  0
 14 16  1  0  0  0
 14 15  1  0  0  0
 16 17  1  0  0  0
 16 21  2  0  0  0
 17 18  2  0  0  0
 18 19  1  0  0  0
 19 20  2  0  0  0
 20 22  1  0  0  0
 20 21  1  0  0  0
 22 23  1  0  0  0
 22 24  1  0  0  0
 22 25  1  0  0  0
  6  7  1  0  0  0
  7  8  2  0  0  0
  8  9  1  0  0  0
  9 10  1  0  0  0
 10 11  2  0  0  0
 34 35  2  0  0  0
 35 36  1  0  0  0
 36 39  1  0  0  0
 39 40  1  0  0  0
M  END
> <minimizedAffinity>
-9.54092

$$$$
