CHEMBL3740492


 36 41  0  0  0  0  0  0  0  0999 V2000
  -13.0999   -1.1017  -14.1913 C   0  0  0  0  0  0  0  0  0  0  0  0
  -14.5114   -0.6291  -14.0320 C   0  0  0  0  0  0  0  0  0  0  0  0
  -15.4810   -1.1576  -13.1845 C   0  0  0  0  0  0  0  0  0  0  0  0
  -16.6552   -0.4913  -13.4703 N   0  0  0  0  0  0  0  0  0  0  0  0
  -16.4819    0.5038  -14.4069 C   0  0  0  0  0  0  0  0  0  0  0  0
  -15.1265    0.4656  -14.7615 C   0  0  0  0  0  0  0  0  0  0  0  0
  -17.5428   -0.7339  -13.0488 H   0  0  0  0  0  0  0  0  0  0  0  0
  -17.6270    1.3306  -14.8587 C   0  0  0  0  0  0  0  0  0  0  0  0
  -18.9366    0.8230  -14.8770 C   0  0  0  0  0  0  0  0  0  0  0  0
  -20.0236    1.6424  -15.2116 C   0  0  0  0  0  0  0  0  0  0  0  0
  -19.8237    2.9885  -15.5099 C   0  0  0  0  0  0  0  0  0  0  0  0
  -18.5324    3.5012  -15.5265 C   0  0  0  0  0  0  0  0  0  0  0  0
  -17.4462    2.6675  -15.2450 C   0  0  0  0  0  0  0  0  0  0  0  0
  -14.5101    1.3560  -15.7588 C   0  0  0  0  0  0  0  0  0  0  0  0
  -13.8618    2.5413  -15.3798 C   0  0  0  0  0  0  0  0  0  0  0  0
  -13.4356    3.4653  -16.3402 C   0  0  0  0  0  0  0  0  0  0  0  0
  -13.5564    3.1710  -17.6950 C   0  0  0  0  0  0  0  0  0  0  0  0
  -14.1157    1.9612  -18.0889 C   0  0  0  0  0  0  0  0  0  0  0  0
  -14.6171    1.0793  -17.1284 C   0  0  0  0  0  0  0  0  0  0  0  0
  -15.4898   -2.2537  -12.2191 C   0  0  0  0  0  0  0  0  0  0  0  0
  -15.5867   -2.0232  -11.0144 O   0  0  0  0  0  0  0  0  0  0  0  0
  -15.3374   -3.6181  -12.7001 C   0  0  0  0  0  0  0  0  0  0  0  0
  -15.8866   -4.1785  -13.8389 C   0  0  0  0  0  0  0  0  0  0  0  0
  -15.5067   -5.4728  -13.9820 O   0  0  0  0  0  0  0  0  0  0  0  0
  -14.6519   -5.7643  -12.9578 C   0  0  0  0  0  0  0  0  0  0  0  0
  -14.5179   -4.6491  -12.1329 C   0  0  0  0  0  0  0  0  0  0  0  0
  -13.6792   -4.7493  -11.0063 C   0  0  0  0  0  0  0  0  0  0  0  0
  -12.9808   -5.9465  -10.7863 C   0  0  0  0  0  0  0  0  0  0  0  0
  -12.1374   -6.0319   -9.7097 O   0  0  0  0  0  0  0  0  0  0  0  0
  -13.1015   -7.0600  -11.6423 C   0  0  0  0  0  0  0  0  0  0  0  0
  -12.3823   -8.2562  -11.4653 C   0  0  0  0  0  0  0  0  0  0  0  0
  -12.5247   -9.3289  -12.3557 C   0  0  0  0  0  0  0  0  0  0  0  0
  -13.3980   -9.2350  -13.4368 C   0  0  0  0  0  0  0  0  0  0  0  0
  -14.1297   -8.0683  -13.6398 C   0  0  0  0  0  0  0  0  0  0  0  0
  -13.9637   -6.9856  -12.7581 C   0  0  0  0  0  0  0  0  0  0  0  0
  -12.0839   -5.1648   -9.2793 H   0  0  0  0  0  0  0  0  0  0  0  0
  1  2  1  0  0  0
  2  3  2  0  0  0
  2  6  1  0  0  0
  3 20  1  0  0  0
  3  4  1  0  0  0
 20 21  2  0  0  0
 20 22  1  0  0  0
 22 23  2  0  0  0
 22 26  1  0  0  0
 23 24  1  0  0  0
 24 25  1  0  0  0
 25 26  1  0  0  0
 25 35  2  0  0  0
 26 27  2  0  0  0
 27 28  1  0  0  0
 28 29  1  0  0  0
 28 30  2  0  0  0
 29 36  1  0  0  0
 30 31  1  0  0  0
 30 35  1  0  0  0
 31 32  2  0  0  0
 32 33  1  0  0  0
 33 34  2  0  0  0
 34 35  1  0  0  0
  4  5  1  0  0  0
  4  7  1  0  0  0
  5  8  1  0  0  0
  5  6  2  0  0  0
  8  9  1  0  0  0
  8 13  2  0  0  0
  9 10  2  0  0  0
 10 11  1  0  0  0
 11 12  2  0  0  0
 12 13  1  0  0  0
  6 14  1  0  0  0
 14 15  1  0  0  0
 14 19  2  0  0  0
 15 16  2  0  0  0
 16 17  1  0  0  0
 17 18  2  0  0  0
 18 19  1  0  0  0
M  END
> <minimizedAffinity>
-9.60433

$$$$
