CHEMBL514014


 35 38  0  0  0  0  0  0  0  0999 V2000
  -15.5188   -1.3460  -12.4393 C   0  0  0  0  0  0  0  0  0  0  0  0
  -16.2904   -0.9330  -13.5128 C   0  0  0  0  0  0  0  0  0  0  0  0
  -15.5467    0.0474  -14.2266 C   0  0  0  0  0  0  0  0  0  0  0  0
  -15.7794    0.9265  -15.2960 C   0  0  0  0  0  0  0  0  0  0  0  0
  -14.7605    1.7505  -15.6557 N   0  0  0  0  0  0  0  0  0  0  0  0
  -13.5902    1.6988  -15.0099 C   0  0  0  0  0  0  0  0  0  0  0  0
  -12.6374    2.6253  -15.4018 N   0  0  0  0  0  0  0  0  0  0  0  0
  -13.2775    0.9018  -13.9814 N   0  0  0  0  0  0  0  0  0  0  0  0
  -14.2961    0.1014  -13.6401 C   0  0  0  0  0  0  0  0  0  0  0  0
  -14.2708   -0.7878  -12.6003 N   0  0  0  0  0  0  0  0  0  0  0  0
  -13.1182    3.4046  -15.8324 H   0  0  0  0  0  0  0  0  0  0  0  0
  -12.0464    2.8375  -14.6116 H   0  0  0  0  0  0  0  0  0  0  0  0
  -13.4747   -0.9089  -11.9906 H   0  0  0  0  0  0  0  0  0  0  0  0
  -17.0326    0.9988  -15.9212 N   0  0  0  0  0  0  0  0  0  0  0  0
  -17.0155    0.7217  -16.8924 H   0  0  0  0  0  0  0  0  0  0  0  0
  -18.2167    1.6398  -15.5185 C   0  0  0  0  0  0  0  0  0  0  0  0
  -18.3673    3.0328  -15.5086 C   0  0  0  0  0  0  0  0  0  0  0  0
  -19.5605    3.6333  -15.0999 C   0  0  0  0  0  0  0  0  0  0  0  0
  -20.6248    2.8466  -14.6753 C   0  0  0  0  0  0  0  0  0  0  0  0
  -20.4824    1.4616  -14.6543 C   0  0  0  0  0  0  0  0  0  0  0  0
  -21.9250    0.3848  -14.0738 Br  0  0  0  0  0  0  0  0  0  0  0  0
  -19.2882    0.8603  -15.0637 C   0  0  0  0  0  0  0  0  0  0  0  0
  -15.8896   -2.1368  -11.2238 C   0  0  0  0  0  0  0  0  0  0  0  0
  -15.3281   -5.8011  -12.1983 C   0  0  0  0  0  0  0  0  0  0  0  0
  -15.8044   -4.4846  -12.1668 C   0  0  0  0  0  0  0  0  0  0  0  0
  -15.2831   -3.5267  -11.2794 C   0  0  0  0  0  0  0  0  0  0  0  0
  -14.2385   -3.8983  -10.4281 C   0  0  0  0  0  0  0  0  0  0  0  0
  -13.7466   -5.2105  -10.4429 C   0  0  0  0  0  0  0  0  0  0  0  0
  -14.2781   -6.1655  -11.3375 C   0  0  0  0  0  0  0  0  0  0  0  0
  -15.4300   -6.9093  -14.3107 C   0  0  0  0  0  0  0  0  0  0  0  0
  -15.9029   -6.7719  -12.9768 O   0  0  0  0  0  0  0  0  0  0  0  0
  -12.7041   -5.6264   -9.6476 O   0  0  0  0  0  0  0  0  0  0  0  0
  -11.6384   -4.7003   -9.4821 C   0  0  0  0  0  0  0  0  0  0  0  0
  -13.7462   -7.4307  -11.2229 O   0  0  0  0  0  0  0  0  0  0  0  0
  -12.6365   -7.7394  -12.0555 C   0  0  0  0  0  0  0  0  0  0  0  0
 30 31  1  0  0  0
 31 24  1  0  0  0
 24 25  1  0  0  0
 24 29  2  0  0  0
 25 26  2  0  0  0
 26 23  1  0  0  0
 26 27  1  0  0  0
 23  1  1  0  0  0
  1  2  2  0  0  0
  1 10  1  0  0  0
  2  3  1  0  0  0
  3  4  1  0  0  0
  3  9  2  0  0  0
  4 14  1  0  0  0
  4  5  2  0  0  0
 14 16  1  0  0  0
 14 15  1  0  0  0
 16 17  1  0  0  0
 16 22  2  0  0  0
 17 18  2  0  0  0
 18 19  1  0  0  0
 19 20  2  0  0  0
 20 21  1  0  0  0
 20 22  1  0  0  0
  5  6  1  0  0  0
  6  7  1  0  0  0
  6  8  2  0  0  0
  7 11  1  0  0  0
  7 12  1  0  0  0
  8  9  1  0  0  0
  9 10  1  0  0  0
 10 13  1  0  0  0
 27 28  2  0  0  0
 28 32  1  0  0  0
 28 29  1  0  0  0
 32 33  1  0  0  0
 29 34  1  0  0  0
 34 35  1  0  0  0
M  END
> <minimizedAffinity>
-8.09080

$$$$
