CHEMBL270084


 34 37  0  0  0  0  0  0  0  0999 V2000
  -22.6152   -0.4059  -13.5270 C   0  0  0  0  0  0  0  0  0  0  0  0
  -23.8211   -0.5704  -14.2188 C   0  0  0  0  0  0  0  0  0  0  0  0
  -24.9270   -1.1890  -13.6281 C   0  0  0  0  0  0  0  0  0  0  0  0
  -24.8624   -1.7232  -12.3415 C   0  0  0  0  0  0  0  0  0  0  0  0
  -23.6520   -1.6341  -11.6595 C   0  0  0  0  0  0  0  0  0  0  0  0
  -22.5766   -0.9277  -12.2222 C   0  0  0  0  0  0  0  0  0  0  0  0
  -19.3325    1.6830  -15.4811 C   0  0  0  0  0  0  0  0  0  0  0  0
  -19.3334    0.2988  -15.3373 C   0  0  0  0  0  0  0  0  0  0  0  0
  -20.3807   -0.3430  -14.6872 C   0  0  0  0  0  0  0  0  0  0  0  0
  -21.4970    0.3517  -14.1323 C   0  0  0  0  0  0  0  0  0  0  0  0
  -21.4891    1.7719  -14.2570 C   0  0  0  0  0  0  0  0  0  0  0  0
  -22.2904    2.9034  -13.8875 C   0  0  0  0  0  0  0  0  0  0  0  0
  -23.4065    2.8888  -13.1406 N   0  0  0  0  0  0  0  0  0  0  0  0
  -21.8193    4.0415  -14.4021 N   0  0  0  0  0  0  0  0  0  0  0  0
  -20.6607    3.7007  -15.0535 O   0  0  0  0  0  0  0  0  0  0  0  0
  -20.4336    2.3644  -14.9517 C   0  0  0  0  0  0  0  0  0  0  0  0
  -23.6737    2.1200  -12.5375 H   0  0  0  0  0  0  0  0  0  0  0  0
  -23.9490    3.7387  -13.0399 H   0  0  0  0  0  0  0  0  0  0  0  0
  -16.9963    1.7736  -15.7704 C   0  0  0  0  0  0  0  0  0  0  0  0
  -18.2798    2.2204  -16.1961 O   0  0  0  0  0  0  0  0  0  0  0  0
  -25.9741   -2.2930  -11.6777 N   0  0  0  0  0  0  0  0  0  0  0  0
  -26.3756   -1.9808  -10.3931 C   0  0  0  0  0  0  0  0  0  0  0  0
  -25.8779   -1.1053   -9.6914 O   0  0  0  0  0  0  0  0  0  0  0  0
  -27.4045   -2.7934   -9.9398 N   0  0  0  0  0  0  0  0  0  0  0  0
  -26.5148   -2.9837  -12.1752 H   0  0  0  0  0  0  0  0  0  0  0  0
  -27.3014   -3.7684  -10.1897 H   0  0  0  0  0  0  0  0  0  0  0  0
  -27.9008   -2.5659   -8.6284 C   0  0  0  0  0  0  0  0  0  0  0  0
  -27.8980   -1.2791   -8.0679 C   0  0  0  0  0  0  0  0  0  0  0  0
  -28.3040   -1.0801   -6.7447 C   0  0  0  0  0  0  0  0  0  0  0  0
  -28.2947    0.2962   -6.1425 C   0  0  0  0  0  0  0  0  0  0  0  0
  -28.7031   -2.1815   -5.9742 C   0  0  0  0  0  0  0  0  0  0  0  0
  -28.7209   -3.4667   -6.5354 C   0  0  0  0  0  0  0  0  0  0  0  0
  -28.3416   -3.6436   -7.8605 C   0  0  0  0  0  0  0  0  0  0  0  0
  -28.3255   -4.8799   -8.3776 F   0  0  0  0  0  0  0  0  0  0  0  0
 19 20  1  0  0  0
 20  7  1  0  0  0
  7  8  1  0  0  0
  7 16  2  0  0  0
  8  9  2  0  0  0
  9 10  1  0  0  0
 10  1  1  0  0  0
 10 11  2  0  0  0
  1  2  1  0  0  0
  1  6  2  0  0  0
  2  3  2  0  0  0
  3  4  1  0  0  0
  4 21  1  0  0  0
  4  5  2  0  0  0
 21 22  1  0  0  0
 21 25  1  0  0  0
 22 23  2  0  0  0
 22 24  1  0  0  0
 24 27  1  0  0  0
 24 26  1  0  0  0
 27 28  1  0  0  0
 27 33  2  0  0  0
 28 29  2  0  0  0
 29 30  1  0  0  0
 29 31  1  0  0  0
 31 32  2  0  0  0
 32 33  1  0  0  0
 33 34  1  0  0  0
  5  6  1  0  0  0
 11 12  1  0  0  0
 11 16  1  0  0  0
 12 13  1  0  0  0
 12 14  2  0  0  0
 13 17  1  0  0  0
 13 18  1  0  0  0
 14 15  1  0  0  0
 15 16  1  0  0  0
M  END
> <minimizedAffinity>
-10.10908

$$$$
