CHEMBL1940842


 22 24  0  0  0  0  0  0  0  0999 V2000
  -29.5567   -7.8890   -5.0786 C   0  0  0  0  0  0  0  0  0  0  0  0
  -29.2159   -6.4353   -5.2137 C   0  0  0  0  0  0  0  0  0  0  0  0
  -29.1566   -5.6019   -4.0965 C   0  0  0  0  0  0  0  0  0  0  0  0
  -28.8418   -4.2469   -4.2423 C   0  0  0  0  0  0  0  0  0  0  0  0
  -28.5874   -3.6858   -5.4862 C   0  0  0  0  0  0  0  0  0  0  0  0
  -28.2972   -2.3823   -5.5783 N   0  0  0  0  0  0  0  0  0  0  0  0
  -28.0758   -1.8658   -6.8125 C   0  0  0  0  0  0  0  0  0  0  0  0
  -27.7168   -0.1799   -6.7390 Cl  0  0  0  0  0  0  0  0  0  0  0  0
  -28.1451   -2.5809   -8.0164 C   0  0  0  0  0  0  0  0  0  0  0  0
  -28.4169   -3.9486   -7.8792 C   0  0  0  0  0  0  0  0  0  0  0  0
  -28.6510   -4.5218   -6.6178 C   0  0  0  0  0  0  0  0  0  0  0  0
  -28.9563   -5.8870   -6.4742 C   0  0  0  0  0  0  0  0  0  0  0  0
  -27.8907   -1.9685   -9.3377 C   0  0  0  0  0  0  0  0  0  0  0  0
  -26.6960   -1.9597   -9.9785 C   0  0  0  0  0  0  0  0  0  0  0  0
  -26.5082   -1.3141  -11.3238 C   0  0  0  0  0  0  0  0  0  0  0  0
  -27.4967   -0.9423  -11.9431 O   0  0  0  0  0  0  0  0  0  0  0  0
  -25.1368   -1.1977  -11.8416 C   0  0  0  0  0  0  0  0  0  0  0  0
  -24.1920   -2.1969  -12.0143 C   0  0  0  0  0  0  0  0  0  0  0  0
  -22.9564   -1.7050  -12.5407 C   0  0  0  0  0  0  0  0  0  0  0  0
  -23.0050   -0.3568  -12.8132 C   0  0  0  0  0  0  0  0  0  0  0  0
  -21.9402    0.4944  -13.4085 C   0  0  0  0  0  0  0  0  0  0  0  0
  -24.5134    0.3122  -12.3918 S   0  0  0  0  0  0  0  0  0  0  0  0
  1  2  1  0  0  0
  2  3  1  0  0  0
  2 12  2  0  0  0
  3  4  2  0  0  0
  4  5  1  0  0  0
  5  6  1  0  0  0
  5 11  2  0  0  0
  6  7  2  0  0  0
  7  8  1  0  0  0
  7  9  1  0  0  0
  9 13  1  0  0  0
  9 10  2  0  0  0
 13 14  2  0  0  0
 14 15  1  0  0  0
 15 16  2  0  0  0
 15 17  1  0  0  0
 17 18  2  0  0  0
 17 22  1  0  0  0
 18 19  1  0  0  0
 19 20  2  0  0  0
 20 21  1  0  0  0
 20 22  1  0  0  0
 10 11  1  0  0  0
 11 12  1  0  0  0
M  END
> <minimizedAffinity>
-8.49036

$$$$
