CHEMBL400398


 30 34  0  0  0  0  0  0  0  0999 V2000
  -29.5546   -5.7305   -7.1475 C   0  0  0  0  0  0  0  0  0  0  0  0
  -29.2595   -6.6764   -6.2443 C   0  0  0  0  0  0  0  0  0  0  0  0
  -28.2937   -6.6695   -5.1174 C   0  0  0  0  0  0  0  0  0  0  0  0
  -27.5995   -5.7723   -4.6854 O   0  0  0  0  0  0  0  0  0  0  0  0
  -28.3391   -7.9732   -4.6590 N   0  0  0  0  0  0  0  0  0  0  0  0
  -29.2377   -8.7915   -5.2948 N   0  0  0  0  0  0  0  0  0  0  0  0
  -29.8101   -8.0690   -6.2284 C   0  0  0  0  0  0  0  0  0  0  0  0
  -27.7699   -8.3217   -3.8954 H   0  0  0  0  0  0  0  0  0  0  0  0
  -27.2558   -1.7014   -8.8154 C   0  0  0  0  0  0  0  0  0  0  0  0
  -28.0730   -2.5581   -7.9830 N   0  0  0  0  0  0  0  0  0  0  0  0
  -28.3833   -3.8541   -8.2809 C   0  0  0  0  0  0  0  0  0  0  0  0
  -29.1444   -4.3652   -7.2546 C   0  0  0  0  0  0  0  0  0  0  0  0
  -29.3072   -3.3190   -6.2719 C   0  0  0  0  0  0  0  0  0  0  0  0
  -29.9513   -3.1730   -5.0118 C   0  0  0  0  0  0  0  0  0  0  0  0
  -30.9994   -4.5473   -4.2237 Br  0  0  0  0  0  0  0  0  0  0  0  0
  -29.8494   -1.9698   -4.2962 C   0  0  0  0  0  0  0  0  0  0  0  0
  -29.1304   -0.8989   -4.8092 C   0  0  0  0  0  0  0  0  0  0  0  0
  -28.5031   -0.9958   -6.0497 C   0  0  0  0  0  0  0  0  0  0  0  0
  -28.6025   -2.2057   -6.7617 C   0  0  0  0  0  0  0  0  0  0  0  0
  -30.8291   -8.6144   -7.0790 C   0  0  0  0  0  0  0  0  0  0  0  0
  -32.4867   -8.5447   -6.6123 S   0  0  0  0  0  0  0  0  0  0  0  0
  -33.0225   -9.3429   -7.9661 N   0  0  0  0  0  0  0  0  0  0  0  0
  -32.0346   -9.7486   -8.7390 N   0  0  0  0  0  0  0  0  0  0  0  0
  -30.7802   -9.3728   -8.2464 C   0  0  0  0  0  0  0  0  0  0  0  0
  -29.5852   -9.8120   -8.9680 C   0  0  0  0  0  0  0  0  0  0  0  0
  -28.4711   -8.9892   -9.1768 C   0  0  0  0  0  0  0  0  0  0  0  0
  -27.3425   -9.4693   -9.8494 C   0  0  0  0  0  0  0  0  0  0  0  0
  -27.3272  -10.7657  -10.3567 C   0  0  0  0  0  0  0  0  0  0  0  0
  -28.4388  -11.5858  -10.1907 C   0  0  0  0  0  0  0  0  0  0  0  0
  -29.5566  -11.1130   -9.4988 C   0  0  0  0  0  0  0  0  0  0  0  0
  9 10  1  0  0  0
 10 11  1  0  0  0
 10 19  1  0  0  0
 11 12  2  0  0  0
 12  1  1  0  0  0
 12 13  1  0  0  0
  1  2  2  0  0  0
  2  3  1  0  0  0
  2  7  1  0  0  0
  3  4  2  0  0  0
  3  5  1  0  0  0
  5  6  1  0  0  0
  5  8  1  0  0  0
  6  7  2  0  0  0
  7 20  1  0  0  0
 20 21  1  0  0  0
 20 24  2  0  0  0
 21 22  1  0  0  0
 22 23  2  0  0  0
 23 24  1  0  0  0
 24 25  1  0  0  0
 25 26  1  0  0  0
 25 30  2  0  0  0
 26 27  2  0  0  0
 27 28  1  0  0  0
 28 29  2  0  0  0
 29 30  1  0  0  0
 13 14  1  0  0  0
 13 19  2  0  0  0
 14 15  1  0  0  0
 14 16  2  0  0  0
 16 17  1  0  0  0
 17 18  2  0  0  0
 18 19  1  0  0  0
M  END
> <minimizedAffinity>
-10.03805

$$$$
