CHEMBL3702609


 31 34  0  0  0  0  0  0  0  0999 V2000
  -27.8540   -1.8243   -8.2494 C   0  0  0  0  0  0  0  0  0  0  0  0
  -27.6795   -0.9124   -7.2108 C   0  0  0  0  0  0  0  0  0  0  0  0
  -28.0919   -1.2676   -5.9252 C   0  0  0  0  0  0  0  0  0  0  0  0
  -28.6825   -2.5188   -5.6809 C   0  0  0  0  0  0  0  0  0  0  0  0
  -28.8760   -3.4534   -6.7047 C   0  0  0  0  0  0  0  0  0  0  0  0
  -28.4309   -3.0803   -7.9777 C   0  0  0  0  0  0  0  0  0  0  0  0
  -29.5155   -4.6601   -6.4848 N   0  0  0  0  0  0  0  0  0  0  0  0
  -29.6104   -5.6885   -7.5293 C   0  0  0  0  0  0  0  0  0  0  0  0
  -28.6911   -6.8571   -7.1943 C   0  0  0  0  0  0  0  0  0  0  0  0
  -28.9057   -7.3200   -5.7780 C   0  0  0  0  0  0  0  0  0  0  0  0
  -28.5108   -8.5818   -5.4879 N   0  0  0  0  0  0  0  0  0  0  0  0
  -28.6872   -9.0021   -4.2330 C   0  0  0  0  0  0  0  0  0  0  0  0
  -28.3004  -10.2908   -3.9317 N   0  0  0  0  0  0  0  0  0  0  0  0
  -29.1783   -8.2556   -3.2416 N   0  0  0  0  0  0  0  0  0  0  0  0
  -29.5545   -7.0026   -3.5645 C   0  0  0  0  0  0  0  0  0  0  0  0
  -29.4439   -6.4663   -4.8298 C   0  0  0  0  0  0  0  0  0  0  0  0
  -29.9313   -5.0793   -5.1447 C   0  0  0  0  0  0  0  0  0  0  0  0
  -27.5893  -10.5916   -4.5828 H   0  0  0  0  0  0  0  0  0  0  0  0
  -28.0914  -10.3606   -2.9464 H   0  0  0  0  0  0  0  0  0  0  0  0
  -26.3876   -1.9580  -10.2323 N   0  0  0  0  0  0  0  0  0  0  0  0
  -27.5772   -1.5105   -9.6792 C   0  0  0  0  0  0  0  0  0  0  0  0
  -28.4597   -0.9017  -10.2858 O   0  0  0  0  0  0  0  0  0  0  0  0
  -25.8563   -2.6486   -9.7204 H   0  0  0  0  0  0  0  0  0  0  0  0
  -24.2290   -1.2057  -13.1720 C   0  0  0  0  0  0  0  0  0  0  0  0
  -25.1146   -1.4396  -14.2307 C   0  0  0  0  0  0  0  0  0  0  0  0
  -26.4355   -1.7795  -13.9720 C   0  0  0  0  0  0  0  0  0  0  0  0
  -26.8729   -1.9202  -12.6561 C   0  0  0  0  0  0  0  0  0  0  0  0
  -26.0018   -1.7228  -11.5785 C   0  0  0  0  0  0  0  0  0  0  0  0
  -24.6887   -1.3150  -11.8453 C   0  0  0  0  0  0  0  0  0  0  0  0
  -22.5004    0.5214  -13.6367 C   0  0  0  0  0  0  0  0  0  0  0  0
  -22.7698   -0.9691  -13.4737 C   0  0  0  0  0  0  0  0  0  0  0  0
 30 31  1  0  0  0
 31 24  1  0  0  0
 24 25  1  0  0  0
 24 29  2  0  0  0
 25 26  2  0  0  0
 26 27  1  0  0  0
 27 28  2  0  0  0
 28 20  1  0  0  0
 28 29  1  0  0  0
 20 21  1  0  0  0
 20 23  1  0  0  0
 21 22  2  0  0  0
 21  1  1  0  0  0
  1  2  1  0  0  0
  1  6  2  0  0  0
  2  3  2  0  0  0
  3  4  1  0  0  0
  4  5  2  0  0  0
  5  7  1  0  0  0
  5  6  1  0  0  0
  7  8  1  0  0  0
  7 17  1  0  0  0
  8  9  1  0  0  0
  9 10  1  0  0  0
 10 11  1  0  0  0
 10 16  2  0  0  0
 11 12  2  0  0  0
 12 13  1  0  0  0
 12 14  1  0  0  0
 13 18  1  0  0  0
 13 19  1  0  0  0
 14 15  2  0  0  0
 15 16  1  0  0  0
 16 17  1  0  0  0
M  END
> <minimizedAffinity>
-10.57878

$$$$
