CHEMBL3545335


 38 42  0  0  0  0  0  0  0  0999 V2000
  -15.8274    1.3287  -15.8342 N   0  0  0  0  0  0  0  0  0  0  0  0
  -15.5554    1.7074  -16.7360 H   0  0  0  0  0  0  0  0  0  0  0  0
  -17.1802    1.5289  -15.5108 C   0  0  0  0  0  0  0  0  0  0  0  0
  -17.9906    0.4048  -15.3230 C   0  0  0  0  0  0  0  0  0  0  0  0
  -19.3426    0.5233  -14.9755 C   0  0  0  0  0  0  0  0  0  0  0  0
  -19.9034    1.8046  -14.8069 C   0  0  0  0  0  0  0  0  0  0  0  0
  -21.1926    2.3527  -14.5095 C   0  0  0  0  0  0  0  0  0  0  0  0
  -21.1657    3.6940  -14.5268 N   0  0  0  0  0  0  0  0  0  0  0  0
  -19.8830    3.9944  -14.7819 N   0  0  0  0  0  0  0  0  0  0  0  0
  -19.0782    2.9084  -14.9836 C   0  0  0  0  0  0  0  0  0  0  0  0
  -17.7211    2.8091  -15.3160 C   0  0  0  0  0  0  0  0  0  0  0  0
  -19.6194    4.9718  -14.8283 H   0  0  0  0  0  0  0  0  0  0  0  0
  -22.4102    1.6309  -14.2801 C   0  0  0  0  0  0  0  0  0  0  0  0
  -22.5743    0.6468  -13.3797 C   0  0  0  0  0  0  0  0  0  0  0  0
  -23.7858   -0.1372  -13.1301 C   0  0  0  0  0  0  0  0  0  0  0  0
  -24.5377   -0.0577  -11.9607 C   0  0  0  0  0  0  0  0  0  0  0  0
  -25.7282   -0.7798  -11.8802 C   0  0  0  0  0  0  0  0  0  0  0  0
  -26.1346   -1.5525  -12.9618 C   0  0  0  0  0  0  0  0  0  0  0  0
  -25.3275   -1.5717  -14.0860 C   0  0  0  0  0  0  0  0  0  0  0  0
  -24.1762   -0.8764  -14.1923 N   0  0  0  0  0  0  0  0  0  0  0  0
  -13.7697   -1.0963  -13.9165 C   0  0  0  0  0  0  0  0  0  0  0  0
  -14.8152   -0.5161  -14.6456 C   0  0  0  0  0  0  0  0  0  0  0  0
  -14.7706    0.8197  -15.0656 C   0  0  0  0  0  0  0  0  0  0  0  0
  -13.6451    1.5863  -14.7476 C   0  0  0  0  0  0  0  0  0  0  0  0
  -12.6058    1.0362  -14.0002 C   0  0  0  0  0  0  0  0  0  0  0  0
  -12.6748   -0.2921  -13.5842 C   0  0  0  0  0  0  0  0  0  0  0  0
  -11.6567   -0.8080  -12.8806 F   0  0  0  0  0  0  0  0  0  0  0  0
  -14.2372   -2.8876  -12.2609 C   0  0  0  0  0  0  0  0  0  0  0  0
  -14.7822   -2.1358  -11.4623 O   0  0  0  0  0  0  0  0  0  0  0  0
  -13.7781   -2.4559  -13.4915 N   0  0  0  0  0  0  0  0  0  0  0  0
  -13.5403   -3.1435  -14.1954 H   0  0  0  0  0  0  0  0  0  0  0  0
  -12.6546   -7.6496  -11.3635 C   0  0  0  0  0  0  0  0  0  0  0  0
  -13.4234   -6.3993  -11.5579 C   0  0  0  0  0  0  0  0  0  0  0  0
  -12.9533   -5.0933  -11.8234 C   0  0  0  0  0  0  0  0  0  0  0  0
  -14.0840   -4.2992  -11.9612 C   0  0  0  0  0  0  0  0  0  0  0  0
  -15.1384   -5.1610  -11.7203 N   0  0  0  0  0  0  0  0  0  0  0  0
  -16.5618   -4.9079  -11.6836 C   0  0  0  0  0  0  0  0  0  0  0  0
  -14.7534   -6.4324  -11.4941 N   0  0  0  0  0  0  0  0  0  0  0  0
 32 33  1  0  0  0
 33 34  1  0  0  0
 33 38  2  0  0  0
 34 35  2  0  0  0
 35 28  1  0  0  0
 35 36  1  0  0  0
 28 29  2  0  0  0
 28 30  1  0  0  0
 30 21  1  0  0  0
 30 31  1  0  0  0
 21 22  1  0  0  0
 21 26  2  0  0  0
 22 23  2  0  0  0
 23  1  1  0  0  0
 23 24  1  0  0  0
  1  3  1  0  0  0
  1  2  1  0  0  0
  3  4  1  0  0  0
  3 11  2  0  0  0
  4  5  2  0  0  0
  5  6  1  0  0  0
  6  7  1  0  0  0
  6 10  2  0  0  0
  7 13  1  0  0  0
  7  8  2  0  0  0
 13 14  2  0  0  0
 14 15  1  0  0  0
 15 16  1  0  0  0
 15 20  2  0  0  0
 16 17  2  0  0  0
 17 18  1  0  0  0
 18 19  2  0  0  0
 19 20  1  0  0  0
  8  9  1  0  0  0
  9 10  1  0  0  0
  9 12  1  0  0  0
 10 11  1  0  0  0
 24 25  2  0  0  0
 25 26  1  0  0  0
 26 27  1  0  0  0
 36 37  1  0  0  0
 36 38  1  0  0  0
M  END
> <minimizedAffinity>
-10.56803

$$$$
