CHEMBL462175


 36 40  0  0  0  0  0  0  0  0999 V2000
  -29.5036   -5.2017   -6.2145 C   0  0  0  0  0  0  0  0  0  0  0  0
  -28.8465   -5.6067   -7.3796 C   0  0  0  0  0  0  0  0  0  0  0  0
  -28.1424   -4.6853   -8.1837 C   0  0  0  0  0  0  0  0  0  0  0  0
  -28.1153   -3.3226   -7.8145 C   0  0  0  0  0  0  0  0  0  0  0  0
  -27.5747   -2.0986   -8.3380 C   0  0  0  0  0  0  0  0  0  0  0  0
  -27.8779   -1.0741   -7.5445 N   0  0  0  0  0  0  0  0  0  0  0  0
  -28.6280   -1.5917   -6.5712 N   0  0  0  0  0  0  0  0  0  0  0  0
  -29.2143   -0.7075   -5.5906 C   0  0  0  0  0  0  0  0  0  0  0  0
  -28.7992   -2.9474   -6.6569 C   0  0  0  0  0  0  0  0  0  0  0  0
  -29.5083   -3.8513   -5.8463 C   0  0  0  0  0  0  0  0  0  0  0  0
  -26.8378   -1.9530   -9.5027 N   0  0  0  0  0  0  0  0  0  0  0  0
  -27.3481   -1.4325  -10.6824 C   0  0  0  0  0  0  0  0  0  0  0  0
  -28.4925   -1.0594  -10.9079 O   0  0  0  0  0  0  0  0  0  0  0  0
  -25.8724   -2.2586   -9.5083 H   0  0  0  0  0  0  0  0  0  0  0  0
  -26.3535   -1.3500  -11.7993 C   0  0  0  0  0  0  0  0  0  0  0  0
  -25.0673   -0.8984  -11.5272 C   0  0  0  0  0  0  0  0  0  0  0  0
  -24.1604   -0.8611  -12.5753 C   0  0  0  0  0  0  0  0  0  0  0  0
  -22.5512   -0.3198  -12.2968 Cl  0  0  0  0  0  0  0  0  0  0  0  0
  -24.5427   -1.2635  -13.8475 C   0  0  0  0  0  0  0  0  0  0  0  0
  -25.8475   -1.6906  -14.0254 C   0  0  0  0  0  0  0  0  0  0  0  0
  -26.7704   -1.7450  -13.0359 N   0  0  0  0  0  0  0  0  0  0  0  0
  -30.1908   -6.1784   -5.5077 O   0  0  0  0  0  0  0  0  0  0  0  0
  -27.9064  -10.7408   -5.3016 C   0  0  0  0  0  0  0  0  0  0  0  0
  -29.0001  -10.8037   -6.1780 C   0  0  0  0  0  0  0  0  0  0  0  0
  -29.8220   -9.7179   -6.4306 C   0  0  0  0  0  0  0  0  0  0  0  0
  -30.7780   -9.8657   -7.3617 N   0  0  0  0  0  0  0  0  0  0  0  0
  -31.5590   -8.8068   -7.6477 C   0  0  0  0  0  0  0  0  0  0  0  0
  -31.4306   -7.5720   -7.0397 C   0  0  0  0  0  0  0  0  0  0  0  0
  -30.4091   -7.4090   -6.1092 C   0  0  0  0  0  0  0  0  0  0  0  0
  -29.5972   -8.5118   -5.7441 C   0  0  0  0  0  0  0  0  0  0  0  0
  -28.5797   -8.4862   -4.7598 C   0  0  0  0  0  0  0  0  0  0  0  0
  -27.7255   -9.5823   -4.5378 C   0  0  0  0  0  0  0  0  0  0  0  0
  -25.9916  -11.8514   -6.1560 C   0  0  0  0  0  0  0  0  0  0  0  0
  -27.0387  -11.7955   -5.1802 O   0  0  0  0  0  0  0  0  0  0  0  0
  -26.7908   -9.3208   -3.5734 O   0  0  0  0  0  0  0  0  0  0  0  0
  -25.5013   -8.8583   -3.9435 C   0  0  0  0  0  0  0  0  0  0  0  0
 33 34  1  0  0  0
 34 23  1  0  0  0
 23 24  1  0  0  0
 23 32  2  0  0  0
 24 25  2  0  0  0
 25 26  1  0  0  0
 25 30  1  0  0  0
 26 27  2  0  0  0
 27 28  1  0  0  0
 28 29  2  0  0  0
 29 22  1  0  0  0
 29 30  1  0  0  0
 22  1  1  0  0  0
  1  2  1  0  0  0
  1 10  2  0  0  0
  2  3  2  0  0  0
  3  4  1  0  0  0
  4  5  1  0  0  0
  4  9  2  0  0  0
  5 11  1  0  0  0
  5  6  2  0  0  0
 11 12  1  0  0  0
 11 14  1  0  0  0
 12 13  2  0  0  0
 12 15  1  0  0  0
 15 16  1  0  0  0
 15 21  2  0  0  0
 16 17  2  0  0  0
 17 18  1  0  0  0
 17 19  1  0  0  0
 19 20  2  0  0  0
 20 21  1  0  0  0
  6  7  1  0  0  0
  7  8  1  0  0  0
  7  9  1  0  0  0
  9 10  1  0  0  0
 30 31  2  0  0  0
 31 32  1  0  0  0
 32 35  1  0  0  0
 35 36  1  0  0  0
M  END
> <minimizedAffinity>
-9.56138

$$$$
