CHEMBL3895175


 34 37  0  0  0  0  0  0  0  0999 V2000
  -13.2715   -1.4840  -14.1273 C   0  0  0  0  0  0  0  0  0  0  0  0
  -11.9906   -0.9277  -14.1314 C   0  0  0  0  0  0  0  0  0  0  0  0
  -10.9897   -1.4458  -13.3043 C   0  0  0  0  0  0  0  0  0  0  0  0
  -11.2653   -2.4883  -12.4144 C   0  0  0  0  0  0  0  0  0  0  0  0
  -12.5755   -2.9697  -12.2963 C   0  0  0  0  0  0  0  0  0  0  0  0
  -13.5385   -2.5466  -13.2469 C   0  0  0  0  0  0  0  0  0  0  0  0
  -13.0570   -3.5106  -10.9476 C   0  0  0  0  0  0  0  0  0  0  0  0
  -12.2916   -4.4796  -10.2808 C   0  0  0  0  0  0  0  0  0  0  0  0
  -12.7076   -5.6822  -10.9684 C   0  0  0  0  0  0  0  0  0  0  0  0
  -12.0582   -6.8592  -11.3528 C   0  0  0  0  0  0  0  0  0  0  0  0
  -12.7502   -7.7753  -12.1639 C   0  0  0  0  0  0  0  0  0  0  0  0
  -14.0834   -7.5574  -12.5103 C   0  0  0  0  0  0  0  0  0  0  0  0
  -14.7651   -6.4083  -12.0998 C   0  0  0  0  0  0  0  0  0  0  0  0
  -14.0170   -5.4634  -11.3936 C   0  0  0  0  0  0  0  0  0  0  0  0
  -14.3062   -4.1952  -10.9156 N   0  0  0  0  0  0  0  0  0  0  0  0
  -15.5804   -3.7112  -10.5623 C   0  0  0  0  0  0  0  0  0  0  0  0
  -15.5239   -2.8999   -9.4593 N   0  0  0  0  0  0  0  0  0  0  0  0
  -16.5989   -4.1229  -11.0841 O   0  0  0  0  0  0  0  0  0  0  0  0
  -14.7087   -2.9389   -8.8553 H   0  0  0  0  0  0  0  0  0  0  0  0
  -16.4127   -2.7987   -8.9864 H   0  0  0  0  0  0  0  0  0  0  0  0
  -16.1184    0.3563  -15.5091 N   0  0  0  0  0  0  0  0  0  0  0  0
  -15.2780   -0.0961  -14.4994 C   0  0  0  0  0  0  0  0  0  0  0  0
  -15.3903    0.2127  -13.3233 O   0  0  0  0  0  0  0  0  0  0  0  0
  -14.2623   -0.8998  -14.9659 N   0  0  0  0  0  0  0  0  0  0  0  0
  -15.8732    0.0700  -16.4452 H   0  0  0  0  0  0  0  0  0  0  0  0
  -13.9557   -0.6809  -15.9069 H   0  0  0  0  0  0  0  0  0  0  0  0
  -20.9568    0.9698  -14.6250 C   0  0  0  0  0  0  0  0  0  0  0  0
  -19.6195    1.5526  -14.9937 C   0  0  0  0  0  0  0  0  0  0  0  0
  -19.5107    2.9109  -15.2837 C   0  0  0  0  0  0  0  0  0  0  0  0
  -18.2684    3.4621  -15.5847 C   0  0  0  0  0  0  0  0  0  0  0  0
  -17.1346    2.6498  -15.6238 C   0  0  0  0  0  0  0  0  0  0  0  0
  -15.9731    3.2941  -15.8051 F   0  0  0  0  0  0  0  0  0  0  0  0
  -17.2002    1.2668  -15.3918 C   0  0  0  0  0  0  0  0  0  0  0  0
  -18.4640    0.7381  -15.0600 C   0  0  0  0  0  0  0  0  0  0  0  0
 27 28  1  0  0  0
 28 29  1  0  0  0
 28 34  2  0  0  0
 29 30  2  0  0  0
 30 31  1  0  0  0
 31 32  1  0  0  0
 31 33  2  0  0  0
 33 21  1  0  0  0
 33 34  1  0  0  0
 21 22  1  0  0  0
 21 25  1  0  0  0
 22 23  2  0  0  0
 22 24  1  0  0  0
 24  1  1  0  0  0
 24 26  1  0  0  0
  1  2  1  0  0  0
  1  6  2  0  0  0
  2  3  2  0  0  0
  3  4  1  0  0  0
  4  5  2  0  0  0
  5  7  1  0  0  0
  5  6  1  0  0  0
  7  8  2  0  0  0
  7 15  1  0  0  0
  8  9  1  0  0  0
  9 10  1  0  0  0
  9 14  2  0  0  0
 10 11  2  0  0  0
 11 12  1  0  0  0
 12 13  2  0  0  0
 13 14  1  0  0  0
 14 15  1  0  0  0
 15 16  1  0  0  0
 16 17  1  0  0  0
 16 18  2  0  0  0
 17 19  1  0  0  0
 17 20  1  0  0  0
M  END
> <minimizedAffinity>
-9.69901

$$$$
