CHEMBL3959201


 38 42  0  0  0  0  0  0  0  0999 V2000
  -17.1787    2.0854  -15.6496 N   0  0  0  0  0  0  0  0  0  0  0  0
  -18.6269    1.9269  -15.4572 C   0  0  0  0  0  0  0  0  0  0  0  0
  -19.2893    3.1520  -15.4887 C   0  0  0  0  0  0  0  0  0  0  0  0
  -20.5378    3.3093  -15.0062 C   0  0  0  0  0  0  0  0  0  0  0  0
  -21.2434    2.2601  -14.5213 C   0  0  0  0  0  0  0  0  0  0  0  0
  -22.3833    2.5989  -13.9308 N   0  0  0  0  0  0  0  0  0  0  0  0
  -23.2263    1.7101  -13.4593 C   0  0  0  0  0  0  0  0  0  0  0  0
  -23.0291    0.3403  -13.6606 C   0  0  0  0  0  0  0  0  0  0  0  0
  -21.7671   -0.0596  -14.1798 N   0  0  0  0  0  0  0  0  0  0  0  0
  -20.8189    0.9181  -14.5968 C   0  0  0  0  0  0  0  0  0  0  0  0
  -19.4196    0.7364  -15.0669 C   0  0  0  0  0  0  0  0  0  0  0  0
  -24.3493   -0.4454  -13.3810 C   0  0  0  0  0  0  0  0  0  0  0  0
  -24.9590   -0.4185  -12.1038 C   0  0  0  0  0  0  0  0  0  0  0  0
  -26.1099   -1.0770  -12.0943 N   0  0  0  0  0  0  0  0  0  0  0  0
  -26.3230   -1.5383  -13.2995 N   0  0  0  0  0  0  0  0  0  0  0  0
  -27.5640   -2.2635  -13.5768 C   0  0  0  0  0  0  0  0  0  0  0  0
  -25.2794   -1.2042  -14.1295 C   0  0  0  0  0  0  0  0  0  0  0  0
  -15.1984   -0.2506  -13.3764 C   0  0  0  0  0  0  0  0  0  0  0  0
  -14.2003   -0.6525  -14.2866 C   0  0  0  0  0  0  0  0  0  0  0  0
  -14.1324   -0.1069  -15.5606 C   0  0  0  0  0  0  0  0  0  0  0  0
  -15.0741    0.8575  -15.9406 C   0  0  0  0  0  0  0  0  0  0  0  0
  -16.1087    1.2739  -15.0863 C   0  0  0  0  0  0  0  0  0  0  0  0
  -16.1538    0.7261  -13.7787 C   0  0  0  0  0  0  0  0  0  0  0  0
  -15.5803   -2.1552  -11.8946 C   0  0  0  0  0  0  0  0  0  0  0  0
  -15.2798   -0.8194  -12.1387 O   0  0  0  0  0  0  0  0  0  0  0  0
  -13.1728   -0.5606  -16.4086 O   0  0  0  0  0  0  0  0  0  0  0  0
  -13.1902   -0.4182  -17.7808 C   0  0  0  0  0  0  0  0  0  0  0  0
  -16.7803    3.2880  -16.4668 C   0  0  0  0  0  0  0  0  0  0  0  0
  -15.6148    4.2215  -15.9604 C   0  0  0  0  0  0  0  0  0  0  0  0
  -14.3447    4.0778  -16.7459 N   0  0  0  0  0  0  0  0  0  0  0  0
  -13.1741    4.0836  -15.8408 C   0  0  0  0  0  0  0  0  0  0  0  0
  -12.8267    5.5522  -15.6416 C   0  0  0  0  0  0  0  0  0  0  0  0
  -12.8971    6.0372  -17.0649 C   0  0  0  0  0  0  0  0  0  0  0  0
  -14.0800    5.2359  -17.6464 C   0  0  0  0  0  0  0  0  0  0  0  0
  -13.7575    4.7345  -19.0403 C   0  0  0  0  0  0  0  0  0  0  0  0
  -13.7752    3.5344  -19.2730 O   0  0  0  0  0  0  0  0  0  0  0  0
  -13.4724    5.5882  -20.0443 O   0  0  0  0  0  0  0  0  0  0  0  0
  -13.4991    6.5456  -19.9223 H   0  0  0  0  0  0  0  0  0  0  0  0
 24 25  1  0  0  0
 25 18  1  0  0  0
 18 19  1  0  0  0
 18 23  2  0  0  0
 19 20  2  0  0  0
 20 26  1  0  0  0
 20 21  1  0  0  0
 26 27  1  0  0  0
 21 22  2  0  0  0
 22  1  1  0  0  0
 22 23  1  0  0  0
  1 28  1  0  0  0
  1  2  1  0  0  0
 28 29  1  0  0  0
 29 30  1  0  0  0
 30 31  1  0  0  0
 30 34  1  0  0  0
 31 32  1  0  0  0
 32 33  1  0  0  0
 33 34  1  0  0  0
 34 35  1  0  0  0
 35 36  2  0  0  0
 35 37  1  0  0  0
 37 38  1  0  0  0
  2  3  1  0  0  0
  2 11  2  0  0  0
  3  4  2  0  0  0
  4  5  1  0  0  0
  5  6  1  0  0  0
  5 10  2  0  0  0
  6  7  2  0  0  0
  7  8  1  0  0  0
  8 12  1  0  0  0
  8  9  2  0  0  0
 12 13  1  0  0  0
 12 17  2  0  0  0
 13 14  2  0  0  0
 14 15  1  0  0  0
 15 16  1  0  0  0
 15 17  1  0  0  0
  9 10  1  0  0  0
 10 11  1  0  0  0
M  END
> <minimizedAffinity>
-8.91026

$$$$
