CHEMBL1688861


 43 47  0  0  0  0  0  0  0  0999 V2000
  -25.9199   -1.3810  -10.8194 C   0  0  0  0  0  0  0  0  0  0  0  0
  -26.9480   -0.8317  -11.8575 C   0  0  0  0  0  0  0  0  0  0  0  0
  -26.8986   -1.5515  -13.2328 C   0  0  0  0  0  0  0  0  0  0  0  0
  -25.4526   -1.5821  -13.6808 C   0  0  0  0  0  0  0  0  0  0  0  0
  -25.0303   -1.0652  -14.9042 C   0  0  0  0  0  0  0  0  0  0  0  0
  -23.6903   -0.7181  -15.0622 C   0  0  0  0  0  0  0  0  0  0  0  0
  -22.8155   -0.8294  -13.9747 C   0  0  0  0  0  0  0  0  0  0  0  0
  -23.1835   -1.5531  -12.8425 C   0  0  0  0  0  0  0  0  0  0  0  0
  -24.5085   -1.9523  -12.7039 C   0  0  0  0  0  0  0  0  0  0  0  0
  -25.0576   -2.5076  -11.4138 C   0  0  0  0  0  0  0  0  0  0  0  0
  -27.7390   -2.2297   -9.3174 C   0  0  0  0  0  0  0  0  0  0  0  0
  -28.5128   -2.3716  -10.2675 O   0  0  0  0  0  0  0  0  0  0  0  0
  -26.4748   -1.7010   -9.5033 N   0  0  0  0  0  0  0  0  0  0  0  0
  -25.8661   -1.5590   -8.7135 H   0  0  0  0  0  0  0  0  0  0  0  0
  -28.9454   -4.5139   -6.5399 C   0  0  0  0  0  0  0  0  0  0  0  0
  -28.5032   -3.9991   -7.7703 C   0  0  0  0  0  0  0  0  0  0  0  0
  -28.1533   -2.6441   -7.9390 C   0  0  0  0  0  0  0  0  0  0  0  0
  -28.2253   -1.7845   -6.8318 C   0  0  0  0  0  0  0  0  0  0  0  0
  -28.6558   -2.2697   -5.5810 C   0  0  0  0  0  0  0  0  0  0  0  0
  -28.9963   -3.6255   -5.4527 C   0  0  0  0  0  0  0  0  0  0  0  0
  -30.1604   -6.4536   -7.6131 C   0  0  0  0  0  0  0  0  0  0  0  0
  -29.4273   -5.9577   -6.3527 C   0  0  0  0  0  0  0  0  0  0  0  0
  -30.3538   -6.1626   -5.1390 C   0  0  0  0  0  0  0  0  0  0  0  0
  -28.2484   -6.8189   -6.1460 N   0  0  0  0  0  0  0  0  0  0  0  0
  -28.5461   -7.7843   -6.0102 H   0  0  0  0  0  0  0  0  0  0  0  0
  -27.7852   -6.5414   -5.2809 H   0  0  0  0  0  0  0  0  0  0  0  0
  -28.8118   -1.3776   -4.3711 C   0  0  0  0  0  0  0  0  0  0  0  0
  -27.6306   -0.8809   -3.9087 F   0  0  0  0  0  0  0  0  0  0  0  0
  -29.5957   -0.2933   -4.6264 F   0  0  0  0  0  0  0  0  0  0  0  0
  -29.3887   -2.0162   -3.3164 F   0  0  0  0  0  0  0  0  0  0  0  0
  -21.5984   -0.1877  -13.9313 O   0  0  0  0  0  0  0  0  0  0  0  0
  -21.5604    1.1915  -14.0755 C   0  0  0  0  0  0  0  0  0  0  0  0
  -22.6128    2.0576  -13.7656 C   0  0  0  0  0  0  0  0  0  0  0  0
  -22.4700    3.4041  -14.0471 C   0  0  0  0  0  0  0  0  0  0  0  0
  -21.3419    3.9470  -14.5406 N   0  0  0  0  0  0  0  0  0  0  0  0
  -20.3065    3.1108  -14.7430 C   0  0  0  0  0  0  0  0  0  0  0  0
  -20.3564    1.7363  -14.5319 C   0  0  0  0  0  0  0  0  0  0  0  0
  -19.0952    0.9275  -14.6358 C   0  0  0  0  0  0  0  0  0  0  0  0
  -18.0821    1.5513  -15.5794 C   0  0  0  0  0  0  0  0  0  0  0  0
  -17.9657    3.0447  -15.4121 C   0  0  0  0  0  0  0  0  0  0  0  0
  -16.9161    3.6460  -15.6312 O   0  0  0  0  0  0  0  0  0  0  0  0
  -19.1161    3.7092  -15.1252 N   0  0  0  0  0  0  0  0  0  0  0  0
  -19.1033    4.7191  -15.1351 H   0  0  0  0  0  0  0  0  0  0  0  0
 21 22  1  0  0  0
 22 23  1  0  0  0
 22 24  1  0  0  0
 22 15  1  0  0  0
 24 25  1  0  0  0
 24 26  1  0  0  0
 15 16  1  0  0  0
 15 20  2  0  0  0
 16 17  2  0  0  0
 17 11  1  0  0  0
 17 18  1  0  0  0
 11 12  2  0  0  0
 11 13  1  0  0  0
 13  1  1  0  0  0
 13 14  1  0  0  0
  1  2  1  0  0  0
  1 10  1  0  0  0
  2  3  1  0  0  0
  3  4  1  0  0  0
  4  5  1  0  0  0
  4  9  2  0  0  0
  5  6  2  0  0  0
  6  7  1  0  0  0
  7 31  1  0  0  0
  7  8  2  0  0  0
 31 32  1  0  0  0
 32 33  1  0  0  0
 32 37  2  0  0  0
 33 34  2  0  0  0
 34 35  1  0  0  0
 35 36  2  0  0  0
 36 37  1  0  0  0
 36 42  1  0  0  0
 37 38  1  0  0  0
 38 39  1  0  0  0
 39 40  1  0  0  0
 40 41  2  0  0  0
 40 42  1  0  0  0
 42 43  1  0  0  0
  8  9  1  0  0  0
  9 10  1  0  0  0
 18 19  2  0  0  0
 19 27  1  0  0  0
 19 20  1  0  0  0
 27 28  1  0  0  0
 27 29  1  0  0  0
 27 30  1  0  0  0
M  END
> <minimizedAffinity>
-11.60269

$$$$
