CHEMBL4740381


 33 38  0  0  0  0  0  0  0  0999 V2000
  -14.9195    3.1940  -16.6291 C   0  0  0  0  0  0  0  0  0  0  0  0
  -14.4442    1.8848  -16.6652 C   0  0  0  0  0  0  0  0  0  0  0  0
  -15.3520    0.9784  -16.2024 N   0  0  0  0  0  0  0  0  0  0  0  0
  -16.4211    1.6883  -15.9301 C   0  0  0  0  0  0  0  0  0  0  0  0
  -17.7042    1.2613  -15.4856 C   0  0  0  0  0  0  0  0  0  0  0  0
  -18.6863    2.1655  -15.2852 C   0  0  0  0  0  0  0  0  0  0  0  0
  -18.4323    3.5880  -15.4846 C   0  0  0  0  0  0  0  0  0  0  0  0
  -17.2164    3.9924  -15.8832 C   0  0  0  0  0  0  0  0  0  0  0  0
  -16.2122    3.0485  -16.1435 N   0  0  0  0  0  0  0  0  0  0  0  0
  -14.5520    7.0208  -19.8173 C   0  0  0  0  0  0  0  0  0  0  0  0
  -14.0876    6.3017  -18.5867 C   0  0  0  0  0  0  0  0  0  0  0  0
  -14.6470    5.0898  -18.2203 C   0  0  0  0  0  0  0  0  0  0  0  0
  -14.2507    4.4579  -17.0339 C   0  0  0  0  0  0  0  0  0  0  0  0
  -13.1981    5.0562  -16.2747 C   0  0  0  0  0  0  0  0  0  0  0  0
  -12.6385    4.5369  -15.0743 C   0  0  0  0  0  0  0  0  0  0  0  0
  -11.5987    5.1693  -14.3979 C   0  0  0  0  0  0  0  0  0  0  0  0
  -11.1104    6.3670  -14.8834 C   0  0  0  0  0  0  0  0  0  0  0  0
  -11.6538    6.9071  -16.0492 C   0  0  0  0  0  0  0  0  0  0  0  0
  -12.6751    6.2834  -16.7539 C   0  0  0  0  0  0  0  0  0  0  0  0
  -13.1162    6.8897  -17.8654 N   0  0  0  0  0  0  0  0  0  0  0  0
  -20.0090    1.6661  -14.8777 C   0  0  0  0  0  0  0  0  0  0  0  0
  -20.3470    0.3228  -15.0403 C   0  0  0  0  0  0  0  0  0  0  0  0
  -21.5878   -0.1495  -14.5884 C   0  0  0  0  0  0  0  0  0  0  0  0
  -22.5191    0.6979  -13.9737 C   0  0  0  0  0  0  0  0  0  0  0  0
  -22.1602    2.0489  -13.8435 C   0  0  0  0  0  0  0  0  0  0  0  0
  -20.9252    2.5330  -14.2836 C   0  0  0  0  0  0  0  0  0  0  0  0
  -23.7336    0.2467  -13.4971 N   0  0  0  0  0  0  0  0  0  0  0  0
  -24.1427    0.3850  -12.0937 C   0  0  0  0  0  0  0  0  0  0  0  0
  -24.4033   -0.9932  -11.4480 C   0  0  0  0  0  0  0  0  0  0  0  0
  -25.3259   -1.8493  -12.2255 N   0  0  0  0  0  0  0  0  0  0  0  0
  -24.7864   -1.9947  -13.5947 C   0  0  0  0  0  0  0  0  0  0  0  0
  -24.5625   -0.6480  -14.3205 C   0  0  0  0  0  0  0  0  0  0  0  0
  -26.2209   -1.3644  -12.2941 H   0  0  0  0  0  0  0  0  0  0  0  0
 10 11  1  0  0  0
 11 12  1  0  0  0
 11 20  2  0  0  0
 12 13  2  0  0  0
 13  1  1  0  0  0
 13 14  1  0  0  0
  1  2  2  0  0  0
  1  9  1  0  0  0
  2  3  1  0  0  0
  3  4  2  0  0  0
  4  5  1  0  0  0
  4  9  1  0  0  0
  5  6  2  0  0  0
  6 21  1  0  0  0
  6  7  1  0  0  0
 21 22  1  0  0  0
 21 26  2  0  0  0
 22 23  2  0  0  0
 23 24  1  0  0  0
 24 27  1  0  0  0
 24 25  2  0  0  0
 27 28  1  0  0  0
 27 32  1  0  0  0
 28 29  1  0  0  0
 29 30  1  0  0  0
 30 31  1  0  0  0
 30 33  1  0  0  0
 31 32  1  0  0  0
 25 26  1  0  0  0
  7  8  2  0  0  0
  8  9  1  0  0  0
 14 15  1  0  0  0
 14 19  2  0  0  0
 15 16  2  0  0  0
 16 17  1  0  0  0
 17 18  2  0  0  0
 18 19  1  0  0  0
 19 20  1  0  0  0
M  END
> <minimizedAffinity>
-9.72578

$$$$
