CHEMBL3896103


 36 40  0  0  0  0  0  0  0  0999 V2000
  -29.0935   -2.9414   -4.2352 N   0  0  0  0  0  0  0  0  0  0  0  0
  -28.7751   -2.7499   -2.8139 C   0  0  0  0  0  0  0  0  0  0  0  0
  -29.3571   -4.2889   -4.6261 C   0  0  0  0  0  0  0  0  0  0  0  0
  -30.6252   -4.8854   -4.4297 C   0  0  0  0  0  0  0  0  0  0  0  0
  -30.9082   -6.2304   -4.7770 C   0  0  0  0  0  0  0  0  0  0  0  0
  -29.9321   -6.9394   -5.4978 C   0  0  0  0  0  0  0  0  0  0  0  0
  -29.6807   -8.2383   -6.0573 C   0  0  0  0  0  0  0  0  0  0  0  0
  -29.0810   -8.0082   -7.2472 N   0  0  0  0  0  0  0  0  0  0  0  0
  -28.2980   -6.9566   -6.9284 N   0  0  0  0  0  0  0  0  0  0  0  0
  -28.7890   -6.2444   -5.8684 C   0  0  0  0  0  0  0  0  0  0  0  0
  -28.3857   -5.0395   -5.3049 C   0  0  0  0  0  0  0  0  0  0  0  0
  -27.5408   -6.7143   -7.5500 H   0  0  0  0  0  0  0  0  0  0  0  0
  -29.0833   -9.3891   -5.3767 C   0  0  0  0  0  0  0  0  0  0  0  0
  -28.6569   -9.3561   -4.1060 C   0  0  0  0  0  0  0  0  0  0  0  0
  -27.3086   -9.7948   -3.6788 C   0  0  0  0  0  0  0  0  0  0  0  0
  -27.0784  -11.1260   -3.2836 C   0  0  0  0  0  0  0  0  0  0  0  0
  -25.7757  -11.6271   -3.1508 C   0  0  0  0  0  0  0  0  0  0  0  0
  -24.6864  -10.8012   -3.4063 C   0  0  0  0  0  0  0  0  0  0  0  0
  -24.8955   -9.4719   -3.7785 C   0  0  0  0  0  0  0  0  0  0  0  0
  -26.2000   -8.9736   -3.9188 C   0  0  0  0  0  0  0  0  0  0  0  0
  -28.0810   -0.7673   -7.1444 C   0  0  0  0  0  0  0  0  0  0  0  0
  -28.7522    0.4029   -6.7881 C   0  0  0  0  0  0  0  0  0  0  0  0
  -29.4570    0.4941   -5.5931 C   0  0  0  0  0  0  0  0  0  0  0  0
  -29.5217   -0.6071   -4.7496 C   0  0  0  0  0  0  0  0  0  0  0  0
  -28.9291   -1.8329   -5.0978 C   0  0  0  0  0  0  0  0  0  0  0  0
  -28.2035   -1.8914   -6.3091 C   0  0  0  0  0  0  0  0  0  0  0  0
  -27.5615   -1.7094   -9.3980 C   0  0  0  0  0  0  0  0  0  0  0  0
  -28.5500   -2.4404   -9.4557 O   0  0  0  0  0  0  0  0  0  0  0  0
  -27.2895   -0.8598   -8.3217 N   0  0  0  0  0  0  0  0  0  0  0  0
  -26.5368   -0.1967   -8.4571 H   0  0  0  0  0  0  0  0  0  0  0  0
  -25.3054   -1.6346  -14.1460 C   0  0  0  0  0  0  0  0  0  0  0  0
  -25.5711   -1.6112  -12.6852 C   0  0  0  0  0  0  0  0  0  0  0  0
  -24.7064   -1.5038  -11.6132 C   0  0  0  0  0  0  0  0  0  0  0  0
  -25.2909   -1.5153  -10.3527 N   0  0  0  0  0  0  0  0  0  0  0  0
  -26.5974   -1.6446  -10.4941 C   0  0  0  0  0  0  0  0  0  0  0  0
  -27.1745   -1.7309  -12.1116 S   0  0  0  0  0  0  0  0  0  0  0  0
 31 32  1  0  0  0
 32 33  2  0  0  0
 32 36  1  0  0  0
 33 34  1  0  0  0
 34 35  2  0  0  0
 35 27  1  0  0  0
 35 36  1  0  0  0
 27 28  2  0  0  0
 27 29  1  0  0  0
 29 21  1  0  0  0
 29 30  1  0  0  0
 21 22  1  0  0  0
 21 26  2  0  0  0
 22 23  2  0  0  0
 23 24  1  0  0  0
 24 25  2  0  0  0
 25  1  1  0  0  0
 25 26  1  0  0  0
  1  2  1  0  0  0
  1  3  1  0  0  0
  3  4  1  0  0  0
  3 11  2  0  0  0
  4  5  2  0  0  0
  5  6  1  0  0  0
  6  7  1  0  0  0
  6 10  2  0  0  0
  7 13  1  0  0  0
  7  8  2  0  0  0
 13 14  2  0  0  0
 14 15  1  0  0  0
 15 16  1  0  0  0
 15 20  2  0  0  0
 16 17  2  0  0  0
 17 18  1  0  0  0
 18 19  2  0  0  0
 19 20  1  0  0  0
  8  9  1  0  0  0
  9 10  1  0  0  0
  9 12  1  0  0  0
 10 11  1  0  0  0
M  END
> <minimizedAffinity>
-10.05095

$$$$
