CHEMBL3984055


 33 36  0  0  0  0  0  0  0  0999 V2000
  -18.3406    1.4063  -15.0598 C   0  0  0  0  0  0  0  0  0  0  0  0
  -17.8960    2.6188  -15.4670 N   0  0  0  0  0  0  0  0  0  0  0  0
  -18.7531    3.6612  -15.4573 C   0  0  0  0  0  0  0  0  0  0  0  0
  -20.0419    3.6741  -15.0793 N   0  0  0  0  0  0  0  0  0  0  0  0
  -20.4373    2.4602  -14.6746 C   0  0  0  0  0  0  0  0  0  0  0  0
  -21.6998    2.1494  -14.2555 N   0  0  0  0  0  0  0  0  0  0  0  0
  -21.7992    0.8100  -13.9436 C   0  0  0  0  0  0  0  0  0  0  0  0
  -20.5278    0.2779  -14.1396 C   0  0  0  0  0  0  0  0  0  0  0  0
  -19.6716    1.3091  -14.6194 C   0  0  0  0  0  0  0  0  0  0  0  0
  -22.4457    2.8276  -14.2055 H   0  0  0  0  0  0  0  0  0  0  0  0
  -23.0436    0.1653  -13.5187 C   0  0  0  0  0  0  0  0  0  0  0  0
  -23.5857    0.4010  -12.2465 C   0  0  0  0  0  0  0  0  0  0  0  0
  -24.8025   -0.1810  -11.8631 C   0  0  0  0  0  0  0  0  0  0  0  0
  -25.4935   -1.0104  -12.7524 C   0  0  0  0  0  0  0  0  0  0  0  0
  -24.9614   -1.2497  -14.0230 C   0  0  0  0  0  0  0  0  0  0  0  0
  -23.7444   -0.6699  -14.3985 C   0  0  0  0  0  0  0  0  0  0  0  0
  -26.8116   -1.6062  -12.4128 C   0  0  0  0  0  0  0  0  0  0  0  0
  -27.3041   -1.4734  -11.2957 O   0  0  0  0  0  0  0  0  0  0  0  0
  -27.4672   -2.2753  -13.4227 N   0  0  0  0  0  0  0  0  0  0  0  0
  -28.7852   -2.6873  -13.1074 O   0  0  0  0  0  0  0  0  0  0  0  0
  -27.2757   -2.1103  -14.4044 H   0  0  0  0  0  0  0  0  0  0  0  0
  -28.8624   -2.4287  -12.1615 H   0  0  0  0  0  0  0  0  0  0  0  0
  -17.5146    0.2767  -15.1046 N   0  0  0  0  0  0  0  0  0  0  0  0
  -18.0713   -0.5081  -14.7720 H   0  0  0  0  0  0  0  0  0  0  0  0
  -15.0585    0.5716  -15.2565 C   0  0  0  0  0  0  0  0  0  0  0  0
  -16.2699    0.3708  -14.3334 C   0  0  0  0  0  0  0  0  0  0  0  0
  -16.0984   -0.9275  -13.5456 C   0  0  0  0  0  0  0  0  0  0  0  0
  -16.2107   -2.1712  -14.1917 C   0  0  0  0  0  0  0  0  0  0  0  0
  -16.1031   -3.3594  -13.4645 C   0  0  0  0  0  0  0  0  0  0  0  0
  -15.8808   -3.3103  -12.0937 C   0  0  0  0  0  0  0  0  0  0  0  0
  -15.7903   -4.4513  -11.3995 F   0  0  0  0  0  0  0  0  0  0  0  0
  -15.7517   -2.0956  -11.4346 C   0  0  0  0  0  0  0  0  0  0  0  0
  -15.8534   -0.9073  -12.1590 C   0  0  0  0  0  0  0  0  0  0  0  0
 25 26  1  0  0  0
 26 23  1  0  0  0
 26 27  1  0  0  0
 23  1  1  0  0  0
 23 24  1  0  0  0
  1  2  1  0  0  0
  1  9  2  0  0  0
  2  3  2  0  0  0
  3  4  1  0  0  0
  4  5  2  0  0  0
  5  6  1  0  0  0
  5  9  1  0  0  0
  6  7  1  0  0  0
  6 10  1  0  0  0
  7 11  1  0  0  0
  7  8  2  0  0  0
 11 12  1  0  0  0
 11 16  2  0  0  0
 12 13  2  0  0  0
 13 14  1  0  0  0
 14 17  1  0  0  0
 14 15  2  0  0  0
 17 18  2  0  0  0
 17 19  1  0  0  0
 19 20  1  0  0  0
 19 21  1  0  0  0
 20 22  1  0  0  0
 15 16  1  0  0  0
  8  9  1  0  0  0
 27 28  1  0  0  0
 27 33  2  0  0  0
 28 29  2  0  0  0
 29 30  1  0  0  0
 30 31  1  0  0  0
 30 32  2  0  0  0
 32 33  1  0  0  0
M  END
> <minimizedAffinity>
-10.09433

$$$$
