CHEMBL560813


 28 30  0  0  0  0  0  0  0  0999 V2000
  -14.9299    1.5005  -15.2657 N   0  0  0  0  0  0  0  0  0  0  0  0
  -14.4232    0.2826  -14.8949 C   0  0  0  0  0  0  0  0  0  0  0  0
  -13.2279    0.0665  -15.0821 O   0  0  0  0  0  0  0  0  0  0  0  0
  -15.3073   -0.5768  -14.3028 N   0  0  0  0  0  0  0  0  0  0  0  0
  -14.2289    2.1030  -15.6717 H   0  0  0  0  0  0  0  0  0  0  0  0
  -16.1420   -0.1138  -13.9581 H   0  0  0  0  0  0  0  0  0  0  0  0
  -14.9806   -1.8083  -13.7321 C   0  0  0  0  0  0  0  0  0  0  0  0
  -13.8700   -2.4683  -14.2790 C   0  0  0  0  0  0  0  0  0  0  0  0
  -13.5021   -3.7159  -13.8050 C   0  0  0  0  0  0  0  0  0  0  0  0
  -14.2770   -4.3220  -12.8247 C   0  0  0  0  0  0  0  0  0  0  0  0
  -13.9944   -5.6191  -12.4479 C   0  0  0  0  0  0  0  0  0  0  0  0
  -15.1213   -6.4236  -12.4256 C   0  0  0  0  0  0  0  0  0  0  0  0
  -16.2827   -5.9026  -11.8415 C   0  0  0  0  0  0  0  0  0  0  0  0
  -16.3841   -4.5174  -11.6590 C   0  0  0  0  0  0  0  0  0  0  0  0
  -15.4543   -3.7126  -12.3344 C   0  0  0  0  0  0  0  0  0  0  0  0
  -15.7399   -2.4008  -12.7231 C   0  0  0  0  0  0  0  0  0  0  0  0
  -15.2771   -7.3722  -13.5711 C   0  0  0  0  0  0  0  0  0  0  0  0
  -14.7622   -8.4758  -13.6087 O   0  0  0  0  0  0  0  0  0  0  0  0
  -16.0967   -6.9126  -14.5465 O   0  0  0  0  0  0  0  0  0  0  0  0
  -16.4731   -6.0260  -14.3942 H   0  0  0  0  0  0  0  0  0  0  0  0
  -18.8036    2.8554  -15.1525 C   0  0  0  0  0  0  0  0  0  0  0  0
  -18.3794    1.8537  -14.2995 C   0  0  0  0  0  0  0  0  0  0  0  0
  -17.1085    1.4063  -14.2808 N   0  0  0  0  0  0  0  0  0  0  0  0
  -16.2482    1.9506  -15.1865 C   0  0  0  0  0  0  0  0  0  0  0  0
  -16.6858    2.9688  -16.0199 C   0  0  0  0  0  0  0  0  0  0  0  0
  -17.9562    3.4457  -16.0407 N   0  0  0  0  0  0  0  0  0  0  0  0
  -21.2766    3.6190  -15.1408 N   0  0  0  0  0  0  0  0  0  0  0  0
  -20.1629    3.3071  -15.1417 C   0  0  0  0  0  0  0  0  0  0  0  0
 27 28  3  0  0  0
 28 21  1  0  0  0
 21 22  1  0  0  0
 21 26  2  0  0  0
 22 23  2  0  0  0
 23 24  1  0  0  0
 24  1  1  0  0  0
 24 25  2  0  0  0
  1  2  1  0  0  0
  1  5  1  0  0  0
  2  3  2  0  0  0
  2  4  1  0  0  0
  4  7  1  0  0  0
  4  6  1  0  0  0
  7  8  1  0  0  0
  7 16  2  0  0  0
  8  9  2  0  0  0
  9 10  1  0  0  0
 10 11  1  0  0  0
 10 15  2  0  0  0
 11 12  2  0  0  0
 12 17  1  0  0  0
 12 13  1  0  0  0
 17 18  2  0  0  0
 17 19  1  0  0  0
 19 20  1  0  0  0
 13 14  2  0  0  0
 14 15  1  0  0  0
 15 16  1  0  0  0
 25 26  1  0  0  0
M  END
> <minimizedAffinity>
-8.22208

$$$$
