CHEMBL4551566


 27 31  0  0  0  0  0  0  0  0999 V2000
  -16.4276    1.6782  -14.8290 C   0  0  0  0  0  0  0  0  0  0  0  0
  -17.5088    2.3469  -15.4781 C   0  0  0  0  0  0  0  0  0  0  0  0
  -17.0513    3.1502  -16.4547 N   0  0  0  0  0  0  0  0  0  0  0  0
  -15.6974    3.0382  -16.3937 N   0  0  0  0  0  0  0  0  0  0  0  0
  -15.2817    2.3030  -15.3034 C   0  0  0  0  0  0  0  0  0  0  0  0
  -14.0009    2.1883  -14.8582 N   0  0  0  0  0  0  0  0  0  0  0  0
  -12.9029    3.0332  -15.2874 C   0  0  0  0  0  0  0  0  0  0  0  0
  -13.2169    4.5466  -15.2644 C   0  0  0  0  0  0  0  0  0  0  0  0
  -13.0736    4.9853  -16.7187 C   0  0  0  0  0  0  0  0  0  0  0  0
  -13.4063    3.7182  -17.5037 C   0  0  0  0  0  0  0  0  0  0  0  0
  -12.5855    2.6871  -16.7367 C   0  0  0  0  0  0  0  0  0  0  0  0
  -14.9341    3.4623  -17.5637 C   0  0  0  0  0  0  0  0  0  0  0  0
  -13.6967    1.2392  -14.6271 H   0  0  0  0  0  0  0  0  0  0  0  0
  -18.9401    2.2265  -15.1523 C   0  0  0  0  0  0  0  0  0  0  0  0
  -19.6607    3.3608  -14.7445 C   0  0  0  0  0  0  0  0  0  0  0  0
  -20.9726    3.2786  -14.2685 C   0  0  0  0  0  0  0  0  0  0  0  0
  -21.5625    2.0114  -14.2026 C   0  0  0  0  0  0  0  0  0  0  0  0
  -23.1041    1.5725  -13.5683 S   0  0  0  0  0  0  0  0  0  0  0  0
  -22.7700   -0.0654  -13.9282 C   0  0  0  0  0  0  0  0  0  0  0  0
  -21.6279   -0.3141  -14.5276 N   0  0  0  0  0  0  0  0  0  0  0  0
  -20.9073    0.8661  -14.6648 C   0  0  0  0  0  0  0  0  0  0  0  0
  -19.5943    0.9859  -15.1807 C   0  0  0  0  0  0  0  0  0  0  0  0
  -16.4336   -0.6599  -14.3566 N   0  0  0  0  0  0  0  0  0  0  0  0
  -16.4844    0.6044  -13.8494 C   0  0  0  0  0  0  0  0  0  0  0  0
  -16.5522    0.7773  -12.6359 O   0  0  0  0  0  0  0  0  0  0  0  0
  -16.3576   -1.4235  -13.6991 H   0  0  0  0  0  0  0  0  0  0  0  0
  -16.1793   -0.7970  -15.3248 H   0  0  0  0  0  0  0  0  0  0  0  0
 23 24  1  0  0  0
 23 26  1  0  0  0
 23 27  1  0  0  0
 24 25  2  0  0  0
 24  1  1  0  0  0
  1  2  1  0  0  0
  1  5  2  0  0  0
  2  3  2  0  0  0
  2 14  1  0  0  0
 14 15  1  0  0  0
 14 22  2  0  0  0
 15 16  2  0  0  0
 16 17  1  0  0  0
 17 18  1  0  0  0
 17 21  2  0  0  0
 18 19  1  0  0  0
 19 20  2  0  0  0
 20 21  1  0  0  0
 21 22  1  0  0  0
  3  4  1  0  0  0
  4  5  1  0  0  0
  4 12  1  0  0  0
  5  6  1  0  0  0
  6  7  1  0  0  0
  6 13  1  0  0  0
  7  8  1  0  0  0
  7 11  1  0  0  0
  8  9  1  0  0  0
  9 10  1  0  0  0
 10 11  1  0  0  0
 10 12  1  0  0  0
M  END
> <minimizedAffinity>
-8.21872

$$$$
