CHEMBL1973540


 34 38  0  0  0  0  0  0  0  0999 V2000
  -28.4710   -1.9588   -9.7699 N   0  0  0  0  0  0  0  0  0  0  0  0
  -29.2189   -1.2686   -9.8148 H   0  0  0  0  0  0  0  0  0  0  0  0
  -27.6526   -0.4063   -7.2147 O   0  0  0  0  0  0  0  0  0  0  0  0
  -27.9132   -1.4872   -6.7200 C   0  0  0  0  0  0  0  0  0  0  0  0
  -27.9392   -1.8180   -5.3632 N   0  0  0  0  0  0  0  0  0  0  0  0
  -28.2205   -3.1561   -5.1314 C   0  0  0  0  0  0  0  0  0  0  0  0
  -28.3289   -3.7812   -3.8951 C   0  0  0  0  0  0  0  0  0  0  0  0
  -28.5908   -5.1712   -3.9169 C   0  0  0  0  0  0  0  0  0  0  0  0
  -28.7013   -5.8759   -5.1394 C   0  0  0  0  0  0  0  0  0  0  0  0
  -28.8979   -7.2288   -5.3616 N   0  0  0  0  0  0  0  0  0  0  0  0
  -28.8925   -7.4610   -6.6627 C   0  0  0  0  0  0  0  0  0  0  0  0
  -28.6833   -6.0874   -7.6837 S   0  0  0  0  0  0  0  0  0  0  0  0
  -28.6018   -5.1503   -6.3039 C   0  0  0  0  0  0  0  0  0  0  0  0
  -28.3894   -3.8105   -6.3769 C   0  0  0  0  0  0  0  0  0  0  0  0
  -28.2754   -2.7581   -7.4393 C   0  0  0  0  0  0  0  0  0  0  0  0
  -28.5273   -2.8674   -8.7438 C   0  0  0  0  0  0  0  0  0  0  0  0
  -27.7392   -1.1353   -4.6466 H   0  0  0  0  0  0  0  0  0  0  0  0
  -27.3802   -1.8224  -10.6467 C   0  0  0  0  0  0  0  0  0  0  0  0
  -26.0873   -1.5300  -10.1736 C   0  0  0  0  0  0  0  0  0  0  0  0
  -25.0350   -1.2516  -11.0461 C   0  0  0  0  0  0  0  0  0  0  0  0
  -25.2715   -1.2646  -12.4186 C   0  0  0  0  0  0  0  0  0  0  0  0
  -26.5514   -1.5352  -12.9148 C   0  0  0  0  0  0  0  0  0  0  0  0
  -27.5949   -1.8272  -12.0286 C   0  0  0  0  0  0  0  0  0  0  0  0
  -23.9359   -0.8948  -13.5376 S   0  0  0  0  0  0  0  0  0  0  0  0
  -22.8730   -1.8494  -13.3028 O   0  0  0  0  0  0  0  0  0  0  0  0
  -24.5168   -0.7425  -14.8558 O   0  0  0  0  0  0  0  0  0  0  0  0
  -23.4301    0.6459  -13.0567 N   0  0  0  0  0  0  0  0  0  0  0  0
  -23.1282    0.6125  -12.0853 H   0  0  0  0  0  0  0  0  0  0  0  0
  -22.4097    1.2031  -13.8521 C   0  0  0  0  0  0  0  0  0  0  0  0
  -21.3916    0.4335  -14.3842 C   0  0  0  0  0  0  0  0  0  0  0  0
  -20.3874    1.0881  -15.0895 C   0  0  0  0  0  0  0  0  0  0  0  0
  -20.4252    2.4753  -15.1978 C   0  0  0  0  0  0  0  0  0  0  0  0
  -21.4838    3.1515  -14.6109 C   0  0  0  0  0  0  0  0  0  0  0  0
  -22.4919    2.5401  -13.9516 N   0  0  0  0  0  0  0  0  0  0  0  0
  3  4  2  0  0  0
  4  5  1  0  0  0
  4 15  1  0  0  0
  5  6  1  0  0  0
  5 17  1  0  0  0
  6  7  1  0  0  0
  6 14  2  0  0  0
  7  8  2  0  0  0
  8  9  1  0  0  0
  9 10  1  0  0  0
  9 13  2  0  0  0
 10 11  2  0  0  0
 11 12  1  0  0  0
 12 13  1  0  0  0
 13 14  1  0  0  0
 14 15  1  0  0  0
 15 16  2  0  0  0
 16  1  1  0  0  0
  1 18  1  0  0  0
  1  2  1  0  0  0
 18 19  1  0  0  0
 18 23  2  0  0  0
 19 20  2  0  0  0
 20 21  1  0  0  0
 21 24  1  0  0  0
 21 22  2  0  0  0
 24 25  2  0  0  0
 24 26  2  0  0  0
 24 27  1  0  0  0
 27 29  1  0  0  0
 27 28  1  0  0  0
 29 30  1  0  0  0
 29 34  2  0  0  0
 30 31  2  0  0  0
 31 32  1  0  0  0
 32 33  2  0  0  0
 33 34  1  0  0  0
 22 23  1  0  0  0
M  END
> <minimizedAffinity>
-10.53988

$$$$
