CHEMBL4635544


 58 63  0  0  0  0  0  0  0  0999 V2000
  -27.5554   -4.0744   -8.5724 C   0  0  0  0  0  0  0  0  0  0  0  0
  -26.9413   -3.7208   -9.7210 N   0  0  0  0  0  0  0  0  0  0  0  0
  -27.3238   -2.5913  -10.3231 C   0  0  0  0  0  0  0  0  0  0  0  0
  -28.1125   -1.6793   -9.7695 N   0  0  0  0  0  0  0  0  0  0  0  0
  -28.6004   -1.9729   -8.5643 C   0  0  0  0  0  0  0  0  0  0  0  0
  -28.4194   -3.1802   -7.9125 C   0  0  0  0  0  0  0  0  0  0  0  0
  -29.0866   -3.4747   -6.7199 N   0  0  0  0  0  0  0  0  0  0  0  0
  -28.5820   -3.0860   -5.4683 C   0  0  0  0  0  0  0  0  0  0  0  0
  -27.5925   -2.3866   -5.2888 O   0  0  0  0  0  0  0  0  0  0  0  0
  -29.9817   -3.9454   -6.7313 H   0  0  0  0  0  0  0  0  0  0  0  0
  -29.3822   -3.5060   -4.2990 C   0  0  0  0  0  0  0  0  0  0  0  0
  -29.7089   -4.7963   -4.2844 N   0  0  0  0  0  0  0  0  0  0  0  0
  -30.4960   -5.1720   -3.2755 C   0  0  0  0  0  0  0  0  0  0  0  0
  -30.9579   -4.3078   -2.3063 C   0  0  0  0  0  0  0  0  0  0  0  0
  -30.5546   -2.9954   -2.4334 C   0  0  0  0  0  0  0  0  0  0  0  0
  -29.7646   -2.5728   -3.4231 N   0  0  0  0  0  0  0  0  0  0  0  0
  -30.8733   -6.4962   -3.2394 O   0  0  0  0  0  0  0  0  0  0  0  0
  -29.9029   -7.3462   -3.8732 C   0  0  0  0  0  0  0  0  0  0  0  0
  -31.0014   -2.0831   -1.4949 O   0  0  0  0  0  0  0  0  0  0  0  0
  -30.1648   -2.0183   -0.3325 C   0  0  0  0  0  0  0  0  0  0  0  0
  -27.4314   -5.4602   -8.1759 N   0  0  0  0  0  0  0  0  0  0  0  0
  -26.9551   -5.4710   -7.2791 H   0  0  0  0  0  0  0  0  0  0  0  0
  -28.7881   -7.5929   -8.4672 C   0  0  0  0  0  0  0  0  0  0  0  0
  -30.0574   -8.2176   -8.3692 C   0  0  0  0  0  0  0  0  0  0  0  0
  -31.1367   -7.5765   -7.7684 C   0  0  0  0  0  0  0  0  0  0  0  0
  -30.9533   -6.3244   -7.2132 C   0  0  0  0  0  0  0  0  0  0  0  0
  -29.7111   -5.6994   -7.3217 C   0  0  0  0  0  0  0  0  0  0  0  0
  -28.6213   -6.2664   -8.0337 C   0  0  0  0  0  0  0  0  0  0  0  0
  -27.5296   -8.6139   -9.2065 S   0  0  0  0  0  0  0  0  0  0  0  0
  -26.5744   -7.7955   -9.9157 O   0  0  0  0  0  0  0  0  0  0  0  0
  -28.2154   -9.7318   -9.8364 O   0  0  0  0  0  0  0  0  0  0  0  0
  -26.7266   -9.2573   -7.8286 N   0  0  0  0  0  0  0  0  0  0  0  0
  -25.7113   -9.2060   -7.9191 H   0  0  0  0  0  0  0  0  0  0  0  0
  -26.9870  -10.7616   -5.8877 C   0  0  0  0  0  0  0  0  0  0  0  0
  -27.2086  -10.5795   -7.3802 C   0  0  0  0  0  0  0  0  0  0  0  0
  -26.9207   -2.4250  -11.6288 N   0  0  0  0  0  0  0  0  0  0  0  0
  -27.6320   -2.7328  -12.2743 H   0  0  0  0  0  0  0  0  0  0  0  0
  -25.8994   -1.6260  -12.1434 C   0  0  0  0  0  0  0  0  0  0  0  0
  -24.8637   -1.0631  -11.3978 C   0  0  0  0  0  0  0  0  0  0  0  0
  -23.8468   -0.3297  -12.0324 C   0  0  0  0  0  0  0  0  0  0  0  0
  -23.7965   -0.1920  -13.4340 C   0  0  0  0  0  0  0  0  0  0  0  0
  -24.8451   -0.7895  -14.1755 C   0  0  0  0  0  0  0  0  0  0  0  0
  -25.8711   -1.4750  -13.5189 C   0  0  0  0  0  0  0  0  0  0  0  0
  -22.6672    0.4447  -13.9863 N   0  0  0  0  0  0  0  0  0  0  0  0
  -22.2827    1.7178  -13.3799 C   0  0  0  0  0  0  0  0  0  0  0  0
  -21.5037    2.5193  -14.4107 C   0  0  0  0  0  0  0  0  0  0  0  0
  -20.2206    1.8100  -14.9293 C   0  0  0  0  0  0  0  0  0  0  0  0
  -20.5805    0.3194  -15.2421 C   0  0  0  0  0  0  0  0  0  0  0  0
  -21.4898   -0.3976  -14.2272 C   0  0  0  0  0  0  0  0  0  0  0  0
  -19.0367    2.0571  -14.0532 N   0  0  0  0  0  0  0  0  0  0  0  0
  -18.4972    3.4445  -14.1811 C   0  0  0  0  0  0  0  0  0  0  0  0
  -17.6946    3.7415  -15.4714 C   0  0  0  0  0  0  0  0  0  0  0  0
  -16.5597    2.8335  -15.6873 N   0  0  0  0  0  0  0  0  0  0  0  0
  -16.0045    3.0514  -17.0280 C   0  0  0  0  0  0  0  0  0  0  0  0
  -16.9736    1.4298  -15.5142 C   0  0  0  0  0  0  0  0  0  0  0  0
  -17.8781    1.1540  -14.2775 C   0  0  0  0  0  0  0  0  0  0  0  0
  -24.8174   -0.7441  -15.5502 O   0  0  0  0  0  0  0  0  0  0  0  0
  -26.0844   -0.7932  -16.1950 C   0  0  0  0  0  0  0  0  0  0  0  0
 34 35  1  0  0  0
 35 32  1  0  0  0
 32 29  1  0  0  0
 32 33  1  0  0  0
 29 30  2  0  0  0
 29 31  2  0  0  0
 29 23  1  0  0  0
 23 24  1  0  0  0
 23 28  2  0  0  0
 24 25  2  0  0  0
 25 26  1  0  0  0
 26 27  2  0  0  0
 27 28  1  0  0  0
 28 21  1  0  0  0
 21  1  1  0  0  0
 21 22  1  0  0  0
  1  2  1  0  0  0
  1  6  2  0  0  0
  2  3  2  0  0  0
  3 36  1  0  0  0
  3  4  1  0  0  0
 36 38  1  0  0  0
 36 37  1  0  0  0
 38 39  1  0  0  0
 38 43  2  0  0  0
 39 40  2  0  0  0
 40 41  1  0  0  0
 41 44  1  0  0  0
 41 42  2  0  0  0
 44 45  1  0  0  0
 44 49  1  0  0  0
 45 46  1  0  0  0
 46 47  1  0  0  0
 47 50  1  0  0  0
 47 48  1  0  0  0
 50 51  1  0  0  0
 50 56  1  0  0  0
 51 52  1  0  0  0
 52 53  1  0  0  0
 53 54  1  0  0  0
 53 55  1  0  0  0
 55 56  1  0  0  0
 48 49  1  0  0  0
 42 57  1  0  0  0
 42 43  1  0  0  0
 57 58  1  0  0  0
  4  5  2  0  0  0
  5  6  1  0  0  0
  6  7  1  0  0  0
  7  8  1  0  0  0
  7 10  1  0  0  0
  8  9  2  0  0  0
  8 11  1  0  0  0
 11 12  1  0  0  0
 11 16  2  0  0  0
 12 13  2  0  0  0
 13 17  1  0  0  0
 13 14  1  0  0  0
 17 18  1  0  0  0
 14 15  2  0  0  0
 15 19  1  0  0  0
 15 16  1  0  0  0
 19 20  1  0  0  0
M  END
> <minimizedAffinity>
-4.01303

$$$$
