CHEMBL3893416


 34 38  0  0  0  0  0  0  0  0999 V2000
  -29.1057   -5.4518   -7.1930 C   0  0  0  0  0  0  0  0  0  0  0  0
  -28.8879   -4.3231   -7.9825 C   0  0  0  0  0  0  0  0  0  0  0  0
  -28.4151   -3.1144   -7.4162 C   0  0  0  0  0  0  0  0  0  0  0  0
  -28.0641   -1.9809   -8.1549 C   0  0  0  0  0  0  0  0  0  0  0  0
  -27.4928   -0.9013   -7.5895 N   0  0  0  0  0  0  0  0  0  0  0  0
  -27.3332   -0.9304   -6.2652 C   0  0  0  0  0  0  0  0  0  0  0  0
  -27.7134   -1.9210   -5.4567 N   0  0  0  0  0  0  0  0  0  0  0  0
  -28.2284   -3.0054   -6.0446 C   0  0  0  0  0  0  0  0  0  0  0  0
  -28.5668   -4.0871   -5.2604 C   0  0  0  0  0  0  0  0  0  0  0  0
  -28.9489   -5.3328   -5.8009 C   0  0  0  0  0  0  0  0  0  0  0  0
  -30.7577   -7.2000   -7.5005 C   0  0  0  0  0  0  0  0  0  0  0  0
  -29.4401   -6.6847   -7.6974 O   0  0  0  0  0  0  0  0  0  0  0  0
  -28.3308   -1.9753   -9.5515 N   0  0  0  0  0  0  0  0  0  0  0  0
  -29.1497   -1.3986   -9.7173 H   0  0  0  0  0  0  0  0  0  0  0  0
  -27.3373   -1.8166  -10.5338 C   0  0  0  0  0  0  0  0  0  0  0  0
  -26.0052   -1.5967  -10.1617 C   0  0  0  0  0  0  0  0  0  0  0  0
  -25.0279   -1.3573  -11.1248 C   0  0  0  0  0  0  0  0  0  0  0  0
  -25.3758   -1.3411  -12.4753 C   0  0  0  0  0  0  0  0  0  0  0  0
  -24.1350   -0.9707  -13.6173 Cl  0  0  0  0  0  0  0  0  0  0  0  0
  -26.6967   -1.6029  -12.8589 C   0  0  0  0  0  0  0  0  0  0  0  0
  -27.1979   -1.6107  -14.5131 Cl  0  0  0  0  0  0  0  0  0  0  0  0
  -27.6720   -1.8520  -11.8894 C   0  0  0  0  0  0  0  0  0  0  0  0
  -29.1303   -6.4533   -5.0047 O   0  0  0  0  0  0  0  0  0  0  0  0
  -27.9161   -7.1865   -4.8004 C   0  0  0  0  0  0  0  0  0  0  0  0
  -28.1317   -8.6029   -4.3085 C   0  0  0  0  0  0  0  0  0  0  0  0
  -26.9273   -9.1998   -3.6067 C   0  0  0  0  0  0  0  0  0  0  0  0
  -27.0435  -10.6217   -3.7858 O   0  0  0  0  0  0  0  0  0  0  0  0
  -27.6375  -10.8400   -5.0778 C   0  0  0  0  0  0  0  0  0  0  0  0
  -26.5640  -10.9817   -6.1547 C   0  0  0  0  0  0  0  0  0  0  0  0
  -27.1774  -10.2201   -7.3135 C   0  0  0  0  0  0  0  0  0  0  0  0
  -27.8754   -9.1187   -6.7169 O   0  0  0  0  0  0  0  0  0  0  0  0
  -28.3876   -9.5760   -5.4535 C   0  0  0  0  0  0  0  0  0  0  0  0
  -26.2829  -12.3315   -6.5172 O   0  0  0  0  0  0  0  0  0  0  0  0
  -25.7021  -12.4263   -7.8148 C   0  0  0  0  0  0  0  0  0  0  0  0
 11 12  1  0  0  0
 12  1  1  0  0  0
  1  2  1  0  0  0
  1 10  2  0  0  0
  2  3  2  0  0  0
  3  4  1  0  0  0
  3  8  1  0  0  0
  4 13  1  0  0  0
  4  5  2  0  0  0
 13 15  1  0  0  0
 13 14  1  0  0  0
 15 16  1  0  0  0
 15 22  2  0  0  0
 16 17  2  0  0  0
 17 18  1  0  0  0
 18 19  1  0  0  0
 18 20  2  0  0  0
 20 21  1  0  0  0
 20 22  1  0  0  0
  5  6  1  0  0  0
  6  7  2  0  0  0
  7  8  1  0  0  0
  8  9  2  0  0  0
  9 10  1  0  0  0
 10 23  1  0  0  0
 23 24  1  0  0  0
 24 25  1  0  0  0
 25 26  1  0  0  0
 25 32  1  0  0  0
 26 27  1  0  0  0
 27 28  1  0  0  0
 28 29  1  0  0  0
 28 32  1  0  0  0
 29 33  1  0  0  0
 29 30  1  0  0  0
 33 34  1  0  0  0
 30 31  1  0  0  0
 31 32  1  0  0  0
M  END
> <minimizedAffinity>
-7.99278

$$$$
