CHEMBL238529


 29 31  0  0  0  0  0  0  0  0999 V2000
  -28.9626   -7.6689   -6.0005 C   0  0  0  0  0  0  0  0  0  0  0  0
  -28.1472   -8.7586   -5.7404 C   0  0  0  0  0  0  0  0  0  0  0  0
  -28.7750   -9.9440   -5.9713 N   0  0  0  0  0  0  0  0  0  0  0  0
  -29.9600   -9.6138   -6.4224 C   0  0  0  0  0  0  0  0  0  0  0  0
  -30.1220   -8.2562   -6.4720 N   0  0  0  0  0  0  0  0  0  0  0  0
  -31.3513   -7.6113   -6.8651 C   0  0  0  0  0  0  0  0  0  0  0  0
  -29.2066   -5.3888   -6.6653 N   0  0  0  0  0  0  0  0  0  0  0  0
  -28.6882   -6.2699   -5.7311 C   0  0  0  0  0  0  0  0  0  0  0  0
  -27.9785   -5.9109   -4.7956 O   0  0  0  0  0  0  0  0  0  0  0  0
  -29.3374   -5.7812   -7.5869 H   0  0  0  0  0  0  0  0  0  0  0  0
  -28.6444   -1.2085   -6.3300 C   0  0  0  0  0  0  0  0  0  0  0  0
  -29.4313   -1.9291   -5.4190 C   0  0  0  0  0  0  0  0  0  0  0  0
  -29.5697   -3.3148   -5.5249 C   0  0  0  0  0  0  0  0  0  0  0  0
  -28.9940   -4.0002   -6.5983 C   0  0  0  0  0  0  0  0  0  0  0  0
  -28.2235   -3.2941   -7.5179 C   0  0  0  0  0  0  0  0  0  0  0  0
  -28.0107   -1.9083   -7.3749 C   0  0  0  0  0  0  0  0  0  0  0  0
  -28.4172    0.7516   -5.0039 C   0  0  0  0  0  0  0  0  0  0  0  0
  -28.5247    0.1514   -6.2895 O   0  0  0  0  0  0  0  0  0  0  0  0
  -27.1963   -1.3684   -8.3411 O   0  0  0  0  0  0  0  0  0  0  0  0
  -27.2685   -1.9676   -9.6341 C   0  0  0  0  0  0  0  0  0  0  0  0
  -26.8663   -8.7211   -5.3464 N   0  0  0  0  0  0  0  0  0  0  0  0
  -26.1884   -8.1307   -5.8165 H   0  0  0  0  0  0  0  0  0  0  0  0
  -26.4427   -9.3093   -4.0921 C   0  0  0  0  0  0  0  0  0  0  0  0
  -25.0407   -9.8818   -4.1958 C   0  0  0  0  0  0  0  0  0  0  0  0
  -24.4204  -10.5366   -3.1206 C   0  0  0  0  0  0  0  0  0  0  0  0
  -23.1504  -11.0608   -3.2943 C   0  0  0  0  0  0  0  0  0  0  0  0
  -22.4618  -11.0078   -4.4494 N   0  0  0  0  0  0  0  0  0  0  0  0
  -23.0911  -10.4099   -5.4929 C   0  0  0  0  0  0  0  0  0  0  0  0
  -24.3516   -9.8403   -5.4191 C   0  0  0  0  0  0  0  0  0  0  0  0
 17 18  1  0  0  0
 18 11  1  0  0  0
 11 12  1  0  0  0
 11 16  2  0  0  0
 12 13  2  0  0  0
 13 14  1  0  0  0
 14  7  1  0  0  0
 14 15  2  0  0  0
  7  8  1  0  0  0
  7 10  1  0  0  0
  8  9  2  0  0  0
  8  1  1  0  0  0
  1  2  2  0  0  0
  1  5  1  0  0  0
  2 21  1  0  0  0
  2  3  1  0  0  0
 21 23  1  0  0  0
 21 22  1  0  0  0
 23 24  1  0  0  0
 24 25  1  0  0  0
 24 29  2  0  0  0
 25 26  2  0  0  0
 26 27  1  0  0  0
 27 28  2  0  0  0
 28 29  1  0  0  0
  3  4  2  0  0  0
  4  5  1  0  0  0
  5  6  1  0  0  0
 15 16  1  0  0  0
 16 19  1  0  0  0
 19 20  1  0  0  0
M  END
> <minimizedAffinity>
-7.51959

$$$$
