CHEMBL238526


 29 32  0  0  0  0  0  0  0  0999 V2000
  -28.1648   -2.3137  -13.1756 C   0  0  0  0  0  0  0  0  0  0  0  0
  -26.8413   -1.8293  -13.4927 N   0  0  0  0  0  0  0  0  0  0  0  0
  -26.3878   -1.5414  -14.7490 C   0  0  0  0  0  0  0  0  0  0  0  0
  -25.1686   -1.0516  -14.7198 N   0  0  0  0  0  0  0  0  0  0  0  0
  -24.8152   -1.0684  -13.4059 C   0  0  0  0  0  0  0  0  0  0  0  0
  -25.8432   -1.5047  -12.5980 C   0  0  0  0  0  0  0  0  0  0  0  0
  -25.9278   -1.6153  -11.1645 C   0  0  0  0  0  0  0  0  0  0  0  0
  -24.9378   -1.4880  -10.4522 O   0  0  0  0  0  0  0  0  0  0  0  0
  -27.1936   -1.9436  -10.6943 N   0  0  0  0  0  0  0  0  0  0  0  0
  -27.8572   -2.2709  -11.3876 H   0  0  0  0  0  0  0  0  0  0  0  0
  -27.5507   -2.0370   -9.3275 C   0  0  0  0  0  0  0  0  0  0  0  0
  -27.9096   -3.2306   -8.7199 C   0  0  0  0  0  0  0  0  0  0  0  0
  -28.3345   -3.3424   -7.4425 N   0  0  0  0  0  0  0  0  0  0  0  0
  -28.4234   -2.2251   -6.7145 C   0  0  0  0  0  0  0  0  0  0  0  0
  -28.9613   -2.3205   -5.4420 C   0  0  0  0  0  0  0  0  0  0  0  0
  -29.1118   -1.1994   -4.6248 C   0  0  0  0  0  0  0  0  0  0  0  0
  -28.6776    0.0402   -5.0762 C   0  0  0  0  0  0  0  0  0  0  0  0
  -28.1222    0.1619   -6.3535 C   0  0  0  0  0  0  0  0  0  0  0  0
  -28.0160   -0.9627   -7.1986 C   0  0  0  0  0  0  0  0  0  0  0  0
  -27.5538   -0.8909   -8.5299 C   0  0  0  0  0  0  0  0  0  0  0  0
  -23.5982   -0.6972  -12.9792 N   0  0  0  0  0  0  0  0  0  0  0  0
  -23.4090   -0.5481  -11.9926 H   0  0  0  0  0  0  0  0  0  0  0  0
  -22.4409   -0.7055  -13.8447 C   0  0  0  0  0  0  0  0  0  0  0  0
  -21.9241    0.6849  -14.0989 C   0  0  0  0  0  0  0  0  0  0  0  0
  -20.6970    0.8809  -14.7386 C   0  0  0  0  0  0  0  0  0  0  0  0
  -20.2945    2.1759  -15.0229 C   0  0  0  0  0  0  0  0  0  0  0  0
  -21.0188    3.2737  -14.7148 N   0  0  0  0  0  0  0  0  0  0  0  0
  -22.1961    3.0653  -14.0899 C   0  0  0  0  0  0  0  0  0  0  0  0
  -22.6843    1.8097  -13.7622 C   0  0  0  0  0  0  0  0  0  0  0  0
  1  2  1  0  0  0
  2  3  1  0  0  0
  2  6  1  0  0  0
  3  4  2  0  0  0
  4  5  1  0  0  0
  5 21  1  0  0  0
  5  6  2  0  0  0
 21 23  1  0  0  0
 21 22  1  0  0  0
 23 24  1  0  0  0
 24 25  1  0  0  0
 24 29  2  0  0  0
 25 26  2  0  0  0
 26 27  1  0  0  0
 27 28  2  0  0  0
 28 29  1  0  0  0
  6  7  1  0  0  0
  7  8  2  0  0  0
  7  9  1  0  0  0
  9 11  1  0  0  0
  9 10  1  0  0  0
 11 12  1  0  0  0
 11 20  2  0  0  0
 12 13  2  0  0  0
 13 14  1  0  0  0
 14 15  1  0  0  0
 14 19  2  0  0  0
 15 16  2  0  0  0
 16 17  1  0  0  0
 17 18  2  0  0  0
 18 19  1  0  0  0
 19 20  1  0  0  0
M  END
> <minimizedAffinity>
-9.78913

$$$$
