CHEMBL3895337


 32 36  0  0  0  0  0  0  0  0999 V2000
  -21.0680    1.6458  -14.7731 C   0  0  0  0  0  0  0  0  0  0  0  0
  -20.6481    0.3079  -14.9429 C   0  0  0  0  0  0  0  0  0  0  0  0
  -21.5004   -0.5852  -14.4354 N   0  0  0  0  0  0  0  0  0  0  0  0
  -22.5630    0.1603  -14.0280 N   0  0  0  0  0  0  0  0  0  0  0  0
  -22.2887    1.5302  -14.1324 C   0  0  0  0  0  0  0  0  0  0  0  0
  -23.0730    2.5166  -13.6115 N   0  0  0  0  0  0  0  0  0  0  0  0
  -23.6943    2.3049  -12.8300 H   0  0  0  0  0  0  0  0  0  0  0  0
  -22.6484    3.4416  -13.5023 H   0  0  0  0  0  0  0  0  0  0  0  0
  -23.7396   -0.4657  -13.5269 C   0  0  0  0  0  0  0  0  0  0  0  0
  -24.6915   -0.9769  -14.4243 C   0  0  0  0  0  0  0  0  0  0  0  0
  -25.8909   -1.5328  -13.9635 C   0  0  0  0  0  0  0  0  0  0  0  0
  -26.1362   -1.5520  -12.5855 C   0  0  0  0  0  0  0  0  0  0  0  0
  -27.2439   -1.9900  -11.9074 N   0  0  0  0  0  0  0  0  0  0  0  0
  -26.9904   -1.7701  -10.6353 C   0  0  0  0  0  0  0  0  0  0  0  0
  -27.9006   -2.0472   -9.5007 C   0  0  0  0  0  0  0  0  0  0  0  0
  -25.7400   -1.2224  -10.4711 N   0  0  0  0  0  0  0  0  0  0  0  0
  -25.1697   -1.0695  -11.7114 C   0  0  0  0  0  0  0  0  0  0  0  0
  -23.9378   -0.5500  -12.1353 C   0  0  0  0  0  0  0  0  0  0  0  0
  -25.3242   -0.9546   -9.5911 H   0  0  0  0  0  0  0  0  0  0  0  0
  -20.3734    2.8967  -15.0537 C   0  0  0  0  0  0  0  0  0  0  0  0
  -20.9378    3.9852  -14.9476 O   0  0  0  0  0  0  0  0  0  0  0  0
  -13.2859    4.6715  -16.2411 C   0  0  0  0  0  0  0  0  0  0  0  0
  -14.5170    3.8197  -16.1170 C   0  0  0  0  0  0  0  0  0  0  0  0
  -14.4140    2.4246  -16.0974 C   0  0  0  0  0  0  0  0  0  0  0  0
  -15.5477    1.6166  -15.9446 C   0  0  0  0  0  0  0  0  0  0  0  0
  -16.8062    2.2222  -15.7839 C   0  0  0  0  0  0  0  0  0  0  0  0
  -18.1172    1.7269  -15.5462 C   0  0  0  0  0  0  0  0  0  0  0  0
  -18.9672    2.8081  -15.3869 C   0  0  0  0  0  0  0  0  0  0  0  0
  -18.2208    3.9320  -15.6755 N   0  0  0  0  0  0  0  0  0  0  0  0
  -16.8939    3.6105  -15.8333 C   0  0  0  0  0  0  0  0  0  0  0  0
  -15.7755    4.4345  -16.0122 C   0  0  0  0  0  0  0  0  0  0  0  0
  -18.5968    4.8715  -15.6910 H   0  0  0  0  0  0  0  0  0  0  0  0
 22 23  1  0  0  0
 23 24  1  0  0  0
 23 31  2  0  0  0
 24 25  2  0  0  0
 25 26  1  0  0  0
 26 27  1  0  0  0
 26 30  2  0  0  0
 27 28  2  0  0  0
 28 20  1  0  0  0
 28 29  1  0  0  0
 20 21  2  0  0  0
 20  1  1  0  0  0
  1  2  1  0  0  0
  1  5  2  0  0  0
  2  3  2  0  0  0
  3  4  1  0  0  0
  4  9  1  0  0  0
  4  5  1  0  0  0
  9 10  1  0  0  0
  9 18  2  0  0  0
 10 11  2  0  0  0
 11 12  1  0  0  0
 12 13  1  0  0  0
 12 17  2  0  0  0
 13 14  2  0  0  0
 14 15  1  0  0  0
 14 16  1  0  0  0
 16 17  1  0  0  0
 16 19  1  0  0  0
 17 18  1  0  0  0
  5  6  1  0  0  0
  6  7  1  0  0  0
  6  8  1  0  0  0
 29 30  1  0  0  0
 29 32  1  0  0  0
 30 31  1  0  0  0
M  END
> <minimizedAffinity>
-10.35696

$$$$
