CHEMBL2036871


 24 27  0  0  0  0  0  0  0  0999 V2000
  -29.3130  -12.2502   -6.4126 C   0  0  0  0  0  0  0  0  0  0  0  0
  -29.1854  -10.8067   -6.3137 N   0  0  0  0  0  0  0  0  0  0  0  0
  -30.0685  -10.0141   -7.0267 C   0  0  0  0  0  0  0  0  0  0  0  0
  -30.9614  -10.4468   -7.7537 O   0  0  0  0  0  0  0  0  0  0  0  0
  -29.9049   -8.5657   -6.8966 C   0  0  0  0  0  0  0  0  0  0  0  0
  -30.7757   -7.6804   -7.5412 C   0  0  0  0  0  0  0  0  0  0  0  0
  -30.5874   -6.3132   -7.3877 C   0  0  0  0  0  0  0  0  0  0  0  0
  -29.5122   -5.8795   -6.6290 C   0  0  0  0  0  0  0  0  0  0  0  0
  -28.6610   -6.7327   -6.0064 N   0  0  0  0  0  0  0  0  0  0  0  0
  -28.8792   -8.0617   -6.1194 C   0  0  0  0  0  0  0  0  0  0  0  0
  -28.0498   -8.9467   -5.4045 N   0  0  0  0  0  0  0  0  0  0  0  0
  -27.0539   -8.4134   -4.4907 C   0  0  0  0  0  0  0  0  0  0  0  0
  -28.1885  -10.3213   -5.4753 C   0  0  0  0  0  0  0  0  0  0  0  0
  -27.4626  -11.0773   -4.8263 O   0  0  0  0  0  0  0  0  0  0  0  0
  -29.2518   -4.4524   -6.4351 C   0  0  0  0  0  0  0  0  0  0  0  0
  -28.4757   -3.7138   -7.2137 N   0  0  0  0  0  0  0  0  0  0  0  0
  -28.4861   -2.4538   -6.6772 C   0  0  0  0  0  0  0  0  0  0  0  0
  -27.8457   -1.2898   -7.1272 C   0  0  0  0  0  0  0  0  0  0  0  0
  -27.9755   -0.1153   -6.3771 C   0  0  0  0  0  0  0  0  0  0  0  0
  -28.7264   -0.1006   -5.2014 C   0  0  0  0  0  0  0  0  0  0  0  0
  -29.3844   -1.2483   -4.7463 C   0  0  0  0  0  0  0  0  0  0  0  0
  -29.2513   -2.4106   -5.5166 C   0  0  0  0  0  0  0  0  0  0  0  0
  -29.7494   -3.6868   -5.3966 N   0  0  0  0  0  0  0  0  0  0  0  0
  -30.5977   -4.1617   -4.3293 C   0  0  0  0  0  0  0  0  0  0  0  0
  1  2  1  0  0  0
  2  3  1  0  0  0
  2 13  1  0  0  0
  3  4  2  0  0  0
  3  5  1  0  0  0
  5  6  1  0  0  0
  5 10  2  0  0  0
  6  7  2  0  0  0
  7  8  1  0  0  0
  8 15  1  0  0  0
  8  9  2  0  0  0
 15 16  2  0  0  0
 15 23  1  0  0  0
 16 17  1  0  0  0
 17 18  1  0  0  0
 17 22  2  0  0  0
 18 19  2  0  0  0
 19 20  1  0  0  0
 20 21  2  0  0  0
 21 22  1  0  0  0
 22 23  1  0  0  0
 23 24  1  0  0  0
  9 10  1  0  0  0
 10 11  1  0  0  0
 11 12  1  0  0  0
 11 13  1  0  0  0
 13 14  2  0  0  0
M  END
> <minimizedAffinity>
-8.03371

$$$$
