CHEMBL2071199


 31 34  0  0  0  0  0  0  0  0999 V2000
  -27.5342   -2.5165   -8.7460 C   0  0  0  0  0  0  0  0  0  0  0  0
  -27.3572   -1.2419   -8.3765 N   0  0  0  0  0  0  0  0  0  0  0  0
  -27.9378   -0.8637   -7.2227 C   0  0  0  0  0  0  0  0  0  0  0  0
  -28.6728   -1.7275   -6.4373 C   0  0  0  0  0  0  0  0  0  0  0  0
  -28.8063   -3.0481   -6.8711 C   0  0  0  0  0  0  0  0  0  0  0  0
  -28.2134   -3.4209   -8.0119 N   0  0  0  0  0  0  0  0  0  0  0  0
  -29.2673   -1.2031   -5.2231 N   0  0  0  0  0  0  0  0  0  0  0  0
  -29.4904   -1.9793   -4.3011 O   0  0  0  0  0  0  0  0  0  0  0  0
  -29.5293    0.0141   -5.1961 O   0  0  0  0  0  0  0  0  0  0  0  0
  -27.0321   -2.8667   -9.9965 N   0  0  0  0  0  0  0  0  0  0  0  0
  -26.9356   -3.8717  -10.0449 H   0  0  0  0  0  0  0  0  0  0  0  0
  -24.0600    0.1975  -12.2849 C   0  0  0  0  0  0  0  0  0  0  0  0
  -25.1469   -0.6868  -11.9510 N   0  0  0  0  0  0  0  0  0  0  0  0
  -25.2985   -1.3956  -10.7933 C   0  0  0  0  0  0  0  0  0  0  0  0
  -26.4858   -2.0667  -10.9290 C   0  0  0  0  0  0  0  0  0  0  0  0
  -26.9805   -1.6854  -12.1947 C   0  0  0  0  0  0  0  0  0  0  0  0
  -26.1612   -0.8374  -12.8215 N   0  0  0  0  0  0  0  0  0  0  0  0
  -29.7554   -3.9531   -6.3742 N   0  0  0  0  0  0  0  0  0  0  0  0
  -29.7347   -3.8358   -5.3475 H   0  0  0  0  0  0  0  0  0  0  0  0
  -29.6306   -5.4177   -6.5193 C   0  0  0  0  0  0  0  0  0  0  0  0
  -29.6025   -6.1256   -5.1233 C   0  0  0  0  0  0  0  0  0  0  0  0
  -29.8719   -7.5956   -5.5291 C   0  0  0  0  0  0  0  0  0  0  0  0
  -28.9204   -8.0280   -6.6294 C   0  0  0  0  0  0  0  0  0  0  0  0
  -29.3262   -7.4346   -7.7705 C   0  0  0  0  0  0  0  0  0  0  0  0
  -30.4403   -6.4423   -7.3866 C   0  0  0  0  0  0  0  0  0  0  0  0
  -31.1249   -7.4169   -6.4026 C   0  0  0  0  0  0  0  0  0  0  0  0
  -30.6527   -5.7282   -4.0764 C   0  0  0  0  0  0  0  0  0  0  0  0
  -30.7870   -6.5301   -2.9872 N   0  0  0  0  0  0  0  0  0  0  0  0
  -31.4320   -4.7892   -4.2289 O   0  0  0  0  0  0  0  0  0  0  0  0
  -30.0016   -7.1078   -2.6952 H   0  0  0  0  0  0  0  0  0  0  0  0
  -31.4051   -6.1947   -2.2599 H   0  0  0  0  0  0  0  0  0  0  0  0
 12 13  1  0  0  0
 13 14  1  0  0  0
 13 17  1  0  0  0
 14 15  2  0  0  0
 15 10  1  0  0  0
 15 16  1  0  0  0
 10  1  1  0  0  0
 10 11  1  0  0  0
  1  2  1  0  0  0
  1  6  2  0  0  0
  2  3  2  0  0  0
  3  4  1  0  0  0
  4  7  1  0  0  0
  4  5  2  0  0  0
  7  8  2  0  0  0
  7  9  1  0  0  0
  5 18  1  0  0  0
  5  6  1  0  0  0
 18 19  1  0  0  0
 20 21  1  0  0  0
 20 25  1  0  0  0
 20 18  1  0  0  0
 21 27  1  0  0  0
 21 22  1  0  0  0
 27 28  1  0  0  0
 27 29  2  0  0  0
 28 30  1  0  0  0
 28 31  1  0  0  0
 22 23  1  0  0  0
 22 26  1  0  0  0
 23 24  2  0  0  0
 24 25  1  0  0  0
 25 26  1  0  0  0
 16 17  2  0  0  0
M  CHG 1   7   1
M  CHG 1   9  -1
M  END
> <minimizedAffinity>
-8.84205

$$$$
