CHEMBL3099472


 41 43  0  0  0  0  0  0  0  0999 V2000
  -28.9737   -4.6462   -7.0356 C   0  0  0  0  0  0  0  0  0  0  0  0
  -28.8527   -3.8038   -8.1632 C   0  0  0  0  0  0  0  0  0  0  0  0
  -28.4126   -2.4900   -8.1211 C   0  0  0  0  0  0  0  0  0  0  0  0
  -28.0857   -1.9547   -6.8845 C   0  0  0  0  0  0  0  0  0  0  0  0
  -28.2099   -2.7407   -5.7197 C   0  0  0  0  0  0  0  0  0  0  0  0
  -28.6267   -4.0869   -5.7779 C   0  0  0  0  0  0  0  0  0  0  0  0
  -29.2813   -8.2428   -8.3579 C   0  0  0  0  0  0  0  0  0  0  0  0
  -28.7939   -6.9793   -8.0447 C   0  0  0  0  0  0  0  0  0  0  0  0
  -29.5204   -6.0135   -7.2851 C   0  0  0  0  0  0  0  0  0  0  0  0
  -30.8125   -6.3730   -6.9167 C   0  0  0  0  0  0  0  0  0  0  0  0
  -31.3138   -7.6539   -7.1584 C   0  0  0  0  0  0  0  0  0  0  0  0
  -30.5192   -8.6125   -7.8429 C   0  0  0  0  0  0  0  0  0  0  0  0
  -31.0333  -10.0108   -7.9236 C   0  0  0  0  0  0  0  0  0  0  0  0
  -30.3416  -11.1071   -7.1399 C   0  0  0  0  0  0  0  0  0  0  0  0
  -32.0526  -10.2523   -8.5761 O   0  0  0  0  0  0  0  0  0  0  0  0
  -27.2598   -9.0593   -9.3384 C   0  0  0  0  0  0  0  0  0  0  0  0
  -28.6718   -9.1020   -9.2337 O   0  0  0  0  0  0  0  0  0  0  0  0
  -28.2891   -1.7009   -9.2975 N   0  0  0  0  0  0  0  0  0  0  0  0
  -27.2445   -1.8311  -10.2073 C   0  0  0  0  0  0  0  0  0  0  0  0
  -26.3224   -2.6403  -10.1054 O   0  0  0  0  0  0  0  0  0  0  0  0
  -27.3410   -0.9614  -11.2845 N   0  0  0  0  0  0  0  0  0  0  0  0
  -29.0807   -1.1470   -9.5740 H   0  0  0  0  0  0  0  0  0  0  0  0
  -27.6810   -0.0406  -11.0498 H   0  0  0  0  0  0  0  0  0  0  0  0
  -26.3247   -1.0341  -12.2840 C   0  0  0  0  0  0  0  0  0  0  0  0
  -25.0987   -0.3889  -12.0476 C   0  0  0  0  0  0  0  0  0  0  0  0
  -24.0985   -0.3607  -13.0212 C   0  0  0  0  0  0  0  0  0  0  0  0
  -24.3243   -0.9876  -14.2417 C   0  0  0  0  0  0  0  0  0  0  0  0
  -25.5343   -1.6437  -14.4824 C   0  0  0  0  0  0  0  0  0  0  0  0
  -26.5522   -1.6691  -13.5138 C   0  0  0  0  0  0  0  0  0  0  0  0
  -27.8964   -2.2279  -13.8831 C   0  0  0  0  0  0  0  0  0  0  0  0
  -22.9015    0.2956  -12.9049 O   0  0  0  0  0  0  0  0  0  0  0  0
  -21.9720    0.0394  -13.9604 C   0  0  0  0  0  0  0  0  0  0  0  0
  -21.1933    1.3172  -14.2522 C   0  0  0  0  0  0  0  0  0  0  0  0
  -19.9587    1.0311  -15.1150 C   0  0  0  0  0  0  0  0  0  0  0  0
  -19.0823    2.2011  -15.3020 N   0  0  0  0  0  0  0  0  0  0  0  0
  -19.5320    3.3572  -14.5223 C   0  0  0  0  0  0  0  0  0  0  0  0
  -17.7042    1.8660  -14.9389 C   0  0  0  0  0  0  0  0  0  0  0  0
  -27.8071   -2.2354   -4.5081 O   0  0  0  0  0  0  0  0  0  0  0  0
  -27.3374   -0.8930   -4.5077 C   0  0  0  0  0  0  0  0  0  0  0  0
  -28.6850   -4.9095   -4.6651 O   0  0  0  0  0  0  0  0  0  0  0  0
  -29.8469   -4.8011   -3.8353 C   0  0  0  0  0  0  0  0  0  0  0  0
 16 17  1  0  0  0
 17  7  1  0  0  0
  7  8  1  0  0  0
  7 12  2  0  0  0
  8  9  2  0  0  0
  9  1  1  0  0  0
  9 10  1  0  0  0
  1  2  1  0  0  0
  1  6  2  0  0  0
  2  3  2  0  0  0
  3 18  1  0  0  0
  3  4  1  0  0  0
 18 19  1  0  0  0
 18 22  1  0  0  0
 19 20  2  0  0  0
 19 21  1  0  0  0
 21 24  1  0  0  0
 21 23  1  0  0  0
 24 25  1  0  0  0
 24 29  2  0  0  0
 25 26  2  0  0  0
 26 31  1  0  0  0
 26 27  1  0  0  0
 31 32  1  0  0  0
 32 33  1  0  0  0
 33 34  1  0  0  0
 34 35  1  0  0  0
 35 36  1  0  0  0
 35 37  1  0  0  0
 27 28  2  0  0  0
 28 29  1  0  0  0
 29 30  1  0  0  0
  4  5  2  0  0  0
  5 38  1  0  0  0
  5  6  1  0  0  0
 38 39  1  0  0  0
  6 40  1  0  0  0
 40 41  1  0  0  0
 10 11  2  0  0  0
 11 12  1  0  0  0
 12 13  1  0  0  0
 13 14  1  0  0  0
 13 15  2  0  0  0
M  END
> <minimizedAffinity>
-9.76374

$$$$
