CHEMBL387312


 32 35  0  0  0  0  0  0  0  0999 V2000
  -18.4265    2.2421  -14.6653 C   0  0  0  0  0  0  0  0  0  0  0  0
  -18.2182    3.0950  -15.7522 C   0  0  0  0  0  0  0  0  0  0  0  0
  -17.0624    2.9890  -16.5354 C   0  0  0  0  0  0  0  0  0  0  0  0
  -16.0491    2.0657  -16.2392 C   0  0  0  0  0  0  0  0  0  0  0  0
  -16.2450    1.2719  -15.0903 C   0  0  0  0  0  0  0  0  0  0  0  0
  -17.4103    1.3611  -14.3073 C   0  0  0  0  0  0  0  0  0  0  0  0
  -14.7909    2.0282  -17.0277 C   0  0  0  0  0  0  0  0  0  0  0  0
  -14.3351    0.8120  -17.6067 C   0  0  0  0  0  0  0  0  0  0  0  0
  -13.2479    0.7459  -18.4767 C   0  0  0  0  0  0  0  0  0  0  0  0
  -12.6075    1.9080  -18.8936 C   0  0  0  0  0  0  0  0  0  0  0  0
  -13.0328    3.1126  -18.3254 C   0  0  0  0  0  0  0  0  0  0  0  0
  -14.0268    3.1910  -17.3426 C   0  0  0  0  0  0  0  0  0  0  0  0
  -13.8522    4.5208  -16.8478 C   0  0  0  0  0  0  0  0  0  0  0  0
  -14.1795    4.9542  -15.6128 N   0  0  0  0  0  0  0  0  0  0  0  0
  -13.0913    5.2770  -17.6274 N   0  0  0  0  0  0  0  0  0  0  0  0
  -12.6113    4.4047  -18.5255 N   0  0  0  0  0  0  0  0  0  0  0  0
  -11.6047    4.8532  -19.4600 C   0  0  0  0  0  0  0  0  0  0  0  0
  -13.3116    5.2308  -15.1502 H   0  0  0  0  0  0  0  0  0  0  0  0
  -14.6626    5.8456  -15.6423 H   0  0  0  0  0  0  0  0  0  0  0  0
  -21.6709    1.2017  -13.4215 N   0  0  0  0  0  0  0  0  0  0  0  0
  -20.5522    1.1641  -14.2144 C   0  0  0  0  0  0  0  0  0  0  0  0
  -20.3352    0.2702  -15.0320 O   0  0  0  0  0  0  0  0  0  0  0  0
  -19.6824    2.2026  -13.9893 N   0  0  0  0  0  0  0  0  0  0  0  0
  -21.9292    2.1003  -13.0394 H   0  0  0  0  0  0  0  0  0  0  0  0
  -19.6811    2.5629  -13.0438 H   0  0  0  0  0  0  0  0  0  0  0  0
  -25.5353   -1.2580  -15.3187 C   0  0  0  0  0  0  0  0  0  0  0  0
  -24.5277   -1.0608  -14.2256 C   0  0  0  0  0  0  0  0  0  0  0  0
  -24.5378   -1.9050  -13.1140 C   0  0  0  0  0  0  0  0  0  0  0  0
  -23.6175   -1.7261  -12.0947 C   0  0  0  0  0  0  0  0  0  0  0  0
  -22.6739   -0.6991  -12.1846 C   0  0  0  0  0  0  0  0  0  0  0  0
  -22.6274    0.1458  -13.2946 C   0  0  0  0  0  0  0  0  0  0  0  0
  -23.5668   -0.0367  -14.3163 C   0  0  0  0  0  0  0  0  0  0  0  0
 26 27  1  0  0  0
 27 28  1  0  0  0
 27 32  2  0  0  0
 28 29  2  0  0  0
 29 30  1  0  0  0
 30 31  2  0  0  0
 31 20  1  0  0  0
 31 32  1  0  0  0
 20 21  1  0  0  0
 20 24  1  0  0  0
 21 22  2  0  0  0
 21 23  1  0  0  0
 23  1  1  0  0  0
 23 25  1  0  0  0
  1  2  1  0  0  0
  1  6  2  0  0  0
  2  3  2  0  0  0
  3  4  1  0  0  0
  4  7  1  0  0  0
  4  5  2  0  0  0
  7  8  1  0  0  0
  7 12  2  0  0  0
  8  9  2  0  0  0
  9 10  1  0  0  0
 10 11  2  0  0  0
 11 12  1  0  0  0
 11 16  1  0  0  0
 12 13  1  0  0  0
 13 14  1  0  0  0
 13 15  2  0  0  0
 14 18  1  0  0  0
 14 19  1  0  0  0
 15 16  1  0  0  0
 16 17  1  0  0  0
  5  6  1  0  0  0
M  END
> <minimizedAffinity>
-9.38859

$$$$
