CHEMBL3696087


 32 34  0  0  0  0  0  0  0  0999 V2000
  -27.9504   -2.0298   -9.3701 C   0  0  0  0  0  0  0  0  0  0  0  0
  -28.6135   -3.2477   -9.1971 C   0  0  0  0  0  0  0  0  0  0  0  0
  -29.1077   -3.6391   -7.9545 C   0  0  0  0  0  0  0  0  0  0  0  0
  -28.9028   -2.8576   -6.8130 C   0  0  0  0  0  0  0  0  0  0  0  0
  -28.1518   -1.6817   -6.9617 C   0  0  0  0  0  0  0  0  0  0  0  0
  -27.6818   -1.2671   -8.2307 C   0  0  0  0  0  0  0  0  0  0  0  0
  -29.4182   -3.3673   -5.5224 C   0  0  0  0  0  0  0  0  0  0  0  0
  -29.6304   -2.4463   -4.5714 N   0  0  0  0  0  0  0  0  0  0  0  0
  -30.2064   -3.1380   -3.2097 S   0  0  0  0  0  0  0  0  0  0  0  0
  -30.2218   -4.7405   -3.8072 C   0  0  0  0  0  0  0  0  0  0  0  0
  -30.6324   -5.7637   -3.0138 N   0  0  0  0  0  0  0  0  0  0  0  0
  -29.7337   -4.7367   -5.1135 C   0  0  0  0  0  0  0  0  0  0  0  0
  -30.7320   -5.5590   -2.0195 H   0  0  0  0  0  0  0  0  0  0  0  0
  -30.2312   -6.6894   -3.1576 H   0  0  0  0  0  0  0  0  0  0  0  0
  -29.5452   -5.9312   -5.9225 C   0  0  0  0  0  0  0  0  0  0  0  0
  -28.2779   -6.4583   -5.9302 N   0  0  0  0  0  0  0  0  0  0  0  0
  -30.4286   -6.4917   -6.5569 O   0  0  0  0  0  0  0  0  0  0  0  0
  -27.5845   -6.1434   -5.2630 H   0  0  0  0  0  0  0  0  0  0  0  0
  -28.1561   -7.3534   -6.3834 H   0  0  0  0  0  0  0  0  0  0  0  0
  -26.0410   -0.7699  -12.2402 N   0  0  0  0  0  0  0  0  0  0  0  0
  -26.2362   -1.3599  -11.0003 C   0  0  0  0  0  0  0  0  0  0  0  0
  -25.3201   -1.6782  -10.2486 O   0  0  0  0  0  0  0  0  0  0  0  0
  -27.5711   -1.5698  -10.6667 N   0  0  0  0  0  0  0  0  0  0  0  0
  -26.8441   -0.6229  -12.8360 H   0  0  0  0  0  0  0  0  0  0  0  0
  -28.2162   -1.7370  -11.4231 H   0  0  0  0  0  0  0  0  0  0  0  0
  -20.8668    0.7345  -14.3110 C   0  0  0  0  0  0  0  0  0  0  0  0
  -22.2121    0.3536  -13.7696 C   0  0  0  0  0  0  0  0  0  0  0  0
  -22.6682   -0.9509  -13.9153 C   0  0  0  0  0  0  0  0  0  0  0  0
  -23.9160   -1.3229  -13.4129 C   0  0  0  0  0  0  0  0  0  0  0  0
  -24.7580   -0.4130  -12.7585 C   0  0  0  0  0  0  0  0  0  0  0  0
  -24.2925    0.8964  -12.6045 C   0  0  0  0  0  0  0  0  0  0  0  0
  -23.0322    1.2761  -13.1080 C   0  0  0  0  0  0  0  0  0  0  0  0
 26 27  1  0  0  0
 27 28  1  0  0  0
 27 32  2  0  0  0
 28 29  2  0  0  0
 29 30  1  0  0  0
 30 20  1  0  0  0
 30 31  2  0  0  0
 20 21  1  0  0  0
 20 24  1  0  0  0
 21 22  2  0  0  0
 21 23  1  0  0  0
 23  1  1  0  0  0
 23 25  1  0  0  0
  1  2  1  0  0  0
  1  6  2  0  0  0
  2  3  2  0  0  0
  3  4  1  0  0  0
  4  7  1  0  0  0
  4  5  2  0  0  0
  7  8  2  0  0  0
  7 12  1  0  0  0
  8  9  1  0  0  0
  9 10  1  0  0  0
 10 11  1  0  0  0
 10 12  2  0  0  0
 11 13  1  0  0  0
 11 14  1  0  0  0
 12 15  1  0  0  0
 15 16  1  0  0  0
 15 17  2  0  0  0
 16 18  1  0  0  0
 16 19  1  0  0  0
  5  6  1  0  0  0
 31 32  1  0  0  0
M  END
> <minimizedAffinity>
-9.16265

$$$$
