CHEMBL3951253


 37 40  0  0  0  0  0  0  0  0999 V2000
  -15.8323   -2.4616  -12.7255 N   0  0  0  0  0  0  0  0  0  0  0  0
  -15.7682   -3.7621  -13.3768 C   0  0  0  0  0  0  0  0  0  0  0  0
  -16.6781   -4.6854  -12.8717 C   0  0  0  0  0  0  0  0  0  0  0  0
  -16.3565   -6.0248  -12.8460 C   0  0  0  0  0  0  0  0  0  0  0  0
  -15.2551   -6.5191  -13.5127 C   0  0  0  0  0  0  0  0  0  0  0  0
  -14.9698   -7.7898  -13.2172 N   0  0  0  0  0  0  0  0  0  0  0  0
  -14.0960   -8.4064  -14.0193 C   0  0  0  0  0  0  0  0  0  0  0  0
  -13.5839   -7.7969  -15.1437 C   0  0  0  0  0  0  0  0  0  0  0  0
  -13.7397   -6.4361  -15.3428 N   0  0  0  0  0  0  0  0  0  0  0  0
  -14.5526   -5.7237  -14.4394 C   0  0  0  0  0  0  0  0  0  0  0  0
  -14.7800   -4.2819  -14.2687 C   0  0  0  0  0  0  0  0  0  0  0  0
  -13.0825   -8.7185  -16.1706 C   0  0  0  0  0  0  0  0  0  0  0  0
  -12.9954  -10.1390  -16.1394 C   0  0  0  0  0  0  0  0  0  0  0  0
  -12.2260  -10.6436  -17.1137 N   0  0  0  0  0  0  0  0  0  0  0  0
  -11.7990   -9.5536  -17.7714 N   0  0  0  0  0  0  0  0  0  0  0  0
  -11.1359   -9.6810  -19.0498 C   0  0  0  0  0  0  0  0  0  0  0  0
  -12.1519   -8.3858  -17.1469 C   0  0  0  0  0  0  0  0  0  0  0  0
  -13.7071    0.3812  -13.9547 C   0  0  0  0  0  0  0  0  0  0  0  0
  -14.6510    1.1598  -14.6235 C   0  0  0  0  0  0  0  0  0  0  0  0
  -15.9943    0.7975  -14.6007 C   0  0  0  0  0  0  0  0  0  0  0  0
  -16.3930   -0.3556  -13.9092 C   0  0  0  0  0  0  0  0  0  0  0  0
  -15.4781   -1.1812  -13.2331 C   0  0  0  0  0  0  0  0  0  0  0  0
  -14.1266   -0.7708  -13.2516 C   0  0  0  0  0  0  0  0  0  0  0  0
  -11.9142    1.7957  -13.2388 C   0  0  0  0  0  0  0  0  0  0  0  0
  -12.3563    0.6417  -13.9604 O   0  0  0  0  0  0  0  0  0  0  0  0
  -17.0042    1.4670  -15.2422 O   0  0  0  0  0  0  0  0  0  0  0  0
  -18.0430    1.9976  -14.4242 C   0  0  0  0  0  0  0  0  0  0  0  0
  -15.5267   -2.6952  -11.2528 C   0  0  0  0  0  0  0  0  0  0  0  0
  -14.2852   -3.5438  -10.8327 C   0  0  0  0  0  0  0  0  0  0  0  0
  -12.9143   -2.9714  -10.9396 N   0  0  0  0  0  0  0  0  0  0  0  0
  -12.8849   -2.0748  -10.4494 H   0  0  0  0  0  0  0  0  0  0  0  0
  -11.9722   -3.8959  -10.2227 C   0  0  0  0  0  0  0  0  0  0  0  0
  -12.0677   -3.8060   -8.6959 C   0  0  0  0  0  0  0  0  0  0  0  0
  -11.6531   -2.6354   -8.1397 N   0  0  0  0  0  0  0  0  0  0  0  0
  -12.4963   -4.7209   -7.9976 O   0  0  0  0  0  0  0  0  0  0  0  0
  -11.0408   -2.0512   -8.6960 H   0  0  0  0  0  0  0  0  0  0  0  0
  -11.5805   -2.6050   -7.1303 H   0  0  0  0  0  0  0  0  0  0  0  0
 24 25  1  0  0  0
 25 18  1  0  0  0
 18 19  1  0  0  0
 18 23  2  0  0  0
 19 20  2  0  0  0
 20 26  1  0  0  0
 20 21  1  0  0  0
 26 27  1  0  0  0
 21 22  2  0  0  0
 22  1  1  0  0  0
 22 23  1  0  0  0
  1 28  1  0  0  0
  1  2  1  0  0  0
 28 29  1  0  0  0
 29 30  1  0  0  0
 30 32  1  0  0  0
 30 31  1  0  0  0
 32 33  1  0  0  0
 33 34  1  0  0  0
 33 35  2  0  0  0
 34 36  1  0  0  0
 34 37  1  0  0  0
  2  3  1  0  0  0
  2 11  2  0  0  0
  3  4  2  0  0  0
  4  5  1  0  0  0
  5  6  1  0  0  0
  5 10  2  0  0  0
  6  7  2  0  0  0
  7  8  1  0  0  0
  8 12  1  0  0  0
  8  9  2  0  0  0
 12 13  1  0  0  0
 12 17  2  0  0  0
 13 14  2  0  0  0
 14 15  1  0  0  0
 15 16  1  0  0  0
 15 17  1  0  0  0
  9 10  1  0  0  0
 10 11  1  0  0  0
M  END
> <minimizedAffinity>
-6.87440

$$$$
