CHEMBL3984213


 38 42  0  0  0  0  0  0  0  0999 V2000
  -28.3582   -5.4626   -4.8949 C   0  0  0  0  0  0  0  0  0  0  0  0
  -27.7297   -6.6421   -4.4675 C   0  0  0  0  0  0  0  0  0  0  0  0
  -28.1680   -7.9206   -4.8973 C   0  0  0  0  0  0  0  0  0  0  0  0
  -27.6551   -9.1608   -4.4891 C   0  0  0  0  0  0  0  0  0  0  0  0
  -28.1166  -10.3268   -4.9869 N   0  0  0  0  0  0  0  0  0  0  0  0
  -29.0949  -10.2602   -5.8875 C   0  0  0  0  0  0  0  0  0  0  0  0
  -29.6582   -9.1411   -6.3411 N   0  0  0  0  0  0  0  0  0  0  0  0
  -29.1907   -7.9967   -5.8417 C   0  0  0  0  0  0  0  0  0  0  0  0
  -29.7725   -6.8277   -6.2857 C   0  0  0  0  0  0  0  0  0  0  0  0
  -29.4238   -5.5547   -5.7948 C   0  0  0  0  0  0  0  0  0  0  0  0
  -28.4948   -3.5428   -3.4612 C   0  0  0  0  0  0  0  0  0  0  0  0
  -27.7712   -4.3414   -4.3854 O   0  0  0  0  0  0  0  0  0  0  0  0
  -26.6288   -9.2063   -3.5084 N   0  0  0  0  0  0  0  0  0  0  0  0
  -27.0284   -9.4694   -2.6131 H   0  0  0  0  0  0  0  0  0  0  0  0
  -25.3563   -9.7687   -3.7425 C   0  0  0  0  0  0  0  0  0  0  0  0
  -24.7042   -9.5568   -4.9659 C   0  0  0  0  0  0  0  0  0  0  0  0
  -23.4751  -10.1542   -5.2398 C   0  0  0  0  0  0  0  0  0  0  0  0
  -22.8741  -10.9724   -4.2848 C   0  0  0  0  0  0  0  0  0  0  0  0
  -21.3694  -11.7124   -4.6973 Cl  0  0  0  0  0  0  0  0  0  0  0  0
  -23.4999  -11.1716   -3.0486 C   0  0  0  0  0  0  0  0  0  0  0  0
  -22.8110  -12.1715   -1.8178 Cl  0  0  0  0  0  0  0  0  0  0  0  0
  -24.7328  -10.5640   -2.7763 C   0  0  0  0  0  0  0  0  0  0  0  0
  -30.1023   -4.4237   -6.2004 O   0  0  0  0  0  0  0  0  0  0  0  0
  -30.0251   -4.2049   -7.6196 C   0  0  0  0  0  0  0  0  0  0  0  0
  -29.0562   -3.1424   -7.9400 C   0  0  0  0  0  0  0  0  0  0  0  0
  -28.3777   -2.9773   -9.0522 N   0  0  0  0  0  0  0  0  0  0  0  0
  -27.4660   -2.0207   -8.6930 C   0  0  0  0  0  0  0  0  0  0  0  0
  -27.5715   -1.5870   -7.4281 N   0  0  0  0  0  0  0  0  0  0  0  0
  -28.6276   -2.3494   -6.9169 O   0  0  0  0  0  0  0  0  0  0  0  0
  -26.5301   -1.4180   -9.6820 C   0  0  0  0  0  0  0  0  0  0  0  0
  -27.0702   -1.3589  -11.0107 O   0  0  0  0  0  0  0  0  0  0  0  0
  -26.4247   -2.2777  -11.8907 C   0  0  0  0  0  0  0  0  0  0  0  0
  -25.1616   -1.6487  -12.4077 C   0  0  0  0  0  0  0  0  0  0  0  0
  -24.0409   -1.5294  -11.5717 C   0  0  0  0  0  0  0  0  0  0  0  0
  -22.8552   -0.9792  -12.0557 C   0  0  0  0  0  0  0  0  0  0  0  0
  -22.7801   -0.5467  -13.3788 C   0  0  0  0  0  0  0  0  0  0  0  0
  -23.8920   -0.6609  -14.2169 C   0  0  0  0  0  0  0  0  0  0  0  0
  -25.0761   -1.2112  -13.7338 C   0  0  0  0  0  0  0  0  0  0  0  0
 11 12  1  0  0  0
 12  1  1  0  0  0
  1  2  1  0  0  0
  1 10  2  0  0  0
  2  3  2  0  0  0
  3  4  1  0  0  0
  3  8  1  0  0  0
  4 13  1  0  0  0
  4  5  2  0  0  0
 13 15  1  0  0  0
 13 14  1  0  0  0
 15 16  1  0  0  0
 15 22  2  0  0  0
 16 17  2  0  0  0
 17 18  1  0  0  0
 18 19  1  0  0  0
 18 20  2  0  0  0
 20 21  1  0  0  0
 20 22  1  0  0  0
  5  6  1  0  0  0
  6  7  2  0  0  0
  7  8  1  0  0  0
  8  9  2  0  0  0
  9 10  1  0  0  0
 10 23  1  0  0  0
 23 24  1  0  0  0
 24 25  1  0  0  0
 25 26  2  0  0  0
 25 29  1  0  0  0
 26 27  1  0  0  0
 27 30  1  0  0  0
 27 28  2  0  0  0
 30 31  1  0  0  0
 31 32  1  0  0  0
 32 33  1  0  0  0
 33 34  1  0  0  0
 33 38  2  0  0  0
 34 35  2  0  0  0
 35 36  1  0  0  0
 36 37  2  0  0  0
 37 38  1  0  0  0
 28 29  1  0  0  0
M  END
> <minimizedAffinity>
-9.18907

$$$$
