CHEMBL3671530


 38 40  0  0  0  0  0  0  0  0999 V2000
  -28.4787   -5.0293   -5.5052 C   0  0  0  0  0  0  0  0  0  0  0  0
  -28.3189   -6.3474   -5.0718 C   0  0  0  0  0  0  0  0  0  0  0  0
  -28.6730   -7.4232   -5.9137 C   0  0  0  0  0  0  0  0  0  0  0  0
  -28.6749   -8.7722   -5.5264 C   0  0  0  0  0  0  0  0  0  0  0  0
  -29.0422   -9.7520   -6.3736 N   0  0  0  0  0  0  0  0  0  0  0  0
  -29.4285   -9.3865   -7.5954 C   0  0  0  0  0  0  0  0  0  0  0  0
  -29.5076   -8.1336   -8.0511 N   0  0  0  0  0  0  0  0  0  0  0  0
  -29.1387   -7.1627   -7.2110 C   0  0  0  0  0  0  0  0  0  0  0  0
  -29.2460   -5.8426   -7.6335 C   0  0  0  0  0  0  0  0  0  0  0  0
  -28.9004   -4.7646   -6.8127 C   0  0  0  0  0  0  0  0  0  0  0  0
  -29.3819   -3.5482   -3.7849 C   0  0  0  0  0  0  0  0  0  0  0  0
  -29.1580   -2.9441   -2.7367 O   0  0  0  0  0  0  0  0  0  0  0  0
  -28.3430   -3.9977   -4.5581 N   0  0  0  0  0  0  0  0  0  0  0  0
  -27.5001   -4.0272   -3.9895 H   0  0  0  0  0  0  0  0  0  0  0  0
  -31.5354   -4.6580   -3.4939 C   0  0  0  0  0  0  0  0  0  0  0  0
  -30.7629   -3.8570   -4.2408 C   0  0  0  0  0  0  0  0  0  0  0  0
  -28.3423   -9.1266   -4.1911 N   0  0  0  0  0  0  0  0  0  0  0  0
  -28.5764   -8.3694   -3.5528 H   0  0  0  0  0  0  0  0  0  0  0  0
  -27.1315   -9.7636   -3.8253 C   0  0  0  0  0  0  0  0  0  0  0  0
  -25.9047   -9.0916   -3.9238 C   0  0  0  0  0  0  0  0  0  0  0  0
  -24.7239   -9.6877   -3.4762 C   0  0  0  0  0  0  0  0  0  0  0  0
  -24.7610  -10.9760   -2.9498 C   0  0  0  0  0  0  0  0  0  0  0  0
  -23.1776  -11.7454   -2.2621 Br  0  0  0  0  0  0  0  0  0  0  0  0
  -25.9552  -11.6907   -2.9089 C   0  0  0  0  0  0  0  0  0  0  0  0
  -27.1252  -11.0832   -3.3581 C   0  0  0  0  0  0  0  0  0  0  0  0
  -28.2781  -11.7684   -3.3041 F   0  0  0  0  0  0  0  0  0  0  0  0
  -29.0778   -3.5276   -7.3828 O   0  0  0  0  0  0  0  0  0  0  0  0
  -27.8806   -2.8810   -7.8315 C   0  0  0  0  0  0  0  0  0  0  0  0
  -28.0980   -2.2317   -9.2028 C   0  0  0  0  0  0  0  0  0  0  0  0
  -26.8775   -2.2045   -9.9930 N   0  0  0  0  0  0  0  0  0  0  0  0
  -26.8748   -1.7304  -11.2926 C   0  0  0  0  0  0  0  0  0  0  0  0
  -27.8303   -1.1405  -11.7935 O   0  0  0  0  0  0  0  0  0  0  0  0
  -26.1273   -2.8583   -9.7806 H   0  0  0  0  0  0  0  0  0  0  0  0
  -25.5617   -1.9859  -12.0707 C   0  0  0  0  0  0  0  0  0  0  0  0
  -25.8335   -1.6281  -13.5360 C   0  0  0  0  0  0  0  0  0  0  0  0
  -24.4379   -1.2038  -11.4567 N   0  0  0  0  0  0  0  0  0  0  0  0
  -23.1395   -1.8176  -11.7906 C   0  0  0  0  0  0  0  0  0  0  0  0
  -24.4138    0.1801  -11.9559 C   0  0  0  0  0  0  0  0  0  0  0  0
 15 16  2  0  0  0
 16 11  1  0  0  0
 11 12  2  0  0  0
 11 13  1  0  0  0
 13  1  1  0  0  0
 13 14  1  0  0  0
  1  2  1  0  0  0
  1 10  2  0  0  0
  2  3  2  0  0  0
  3  4  1  0  0  0
  3  8  1  0  0  0
  4 17  1  0  0  0
  4  5  2  0  0  0
 17 19  1  0  0  0
 17 18  1  0  0  0
 19 20  1  0  0  0
 19 25  2  0  0  0
 20 21  2  0  0  0
 21 22  1  0  0  0
 22 23  1  0  0  0
 22 24  2  0  0  0
 24 25  1  0  0  0
 25 26  1  0  0  0
  5  6  1  0  0  0
  6  7  2  0  0  0
  7  8  1  0  0  0
  8  9  2  0  0  0
  9 10  1  0  0  0
 10 27  1  0  0  0
 27 28  1  0  0  0
 28 29  1  0  0  0
 29 30  1  0  0  0
 30 31  1  0  0  0
 30 33  1  0  0  0
 31 32  2  0  0  0
 31 34  1  0  0  0
 34 35  1  0  0  0
 34 36  1  0  0  0
 36 37  1  0  0  0
 36 38  1  0  0  0
M  END
> <minimizedAffinity>
-8.74238

$$$$
