CHEMBL233205


 31 33  0  0  0  0  0  0  0  0999 V2000
  -28.6192   -3.7317   -7.6142 C   0  0  0  0  0  0  0  0  0  0  0  0
  -28.5447   -3.2502   -8.8917 N   0  0  0  0  0  0  0  0  0  0  0  0
  -28.0083   -2.0401   -9.0830 C   0  0  0  0  0  0  0  0  0  0  0  0
  -27.5650   -1.2682   -8.0772 N   0  0  0  0  0  0  0  0  0  0  0  0
  -27.6860   -1.7380   -6.8281 C   0  0  0  0  0  0  0  0  0  0  0  0
  -28.2159   -2.9658   -6.5241 C   0  0  0  0  0  0  0  0  0  0  0  0
  -28.3727   -3.3773   -4.8612 Cl  0  0  0  0  0  0  0  0  0  0  0  0
  -30.2131   -7.7758   -7.4608 C   0  0  0  0  0  0  0  0  0  0  0  0
  -30.9174   -6.6941   -6.9115 C   0  0  0  0  0  0  0  0  0  0  0  0
  -30.3901   -5.4001   -6.9201 C   0  0  0  0  0  0  0  0  0  0  0  0
  -29.1602   -5.1091   -7.5270 C   0  0  0  0  0  0  0  0  0  0  0  0
  -28.4385   -6.2002   -8.0401 C   0  0  0  0  0  0  0  0  0  0  0  0
  -28.9525   -7.5049   -8.0109 C   0  0  0  0  0  0  0  0  0  0  0  0
  -30.3098   -9.9934   -8.6389 C   0  0  0  0  0  0  0  0  0  0  0  0
  -30.8331   -9.1755   -7.4432 C   0  0  0  0  0  0  0  0  0  0  0  0
  -32.3701   -9.0748   -7.5058 C   0  0  0  0  0  0  0  0  0  0  0  0
  -30.4930   -9.9285   -6.2235 N   0  0  0  0  0  0  0  0  0  0  0  0
  -30.9072  -10.8579   -6.2727 H   0  0  0  0  0  0  0  0  0  0  0  0
  -30.9292   -9.4719   -5.4236 H   0  0  0  0  0  0  0  0  0  0  0  0
  -27.9199   -1.5504  -10.3830 N   0  0  0  0  0  0  0  0  0  0  0  0
  -28.8142   -1.3515  -10.8031 H   0  0  0  0  0  0  0  0  0  0  0  0
  -26.7968   -1.6284  -11.2159 C   0  0  0  0  0  0  0  0  0  0  0  0
  -25.5033   -1.4902  -10.6898 C   0  0  0  0  0  0  0  0  0  0  0  0
  -24.3891   -1.3807  -11.5180 C   0  0  0  0  0  0  0  0  0  0  0  0
  -24.5474   -1.4016  -12.9042 C   0  0  0  0  0  0  0  0  0  0  0  0
  -25.8272   -1.6127  -13.4385 C   0  0  0  0  0  0  0  0  0  0  0  0
  -26.9421   -1.7364  -12.5999 C   0  0  0  0  0  0  0  0  0  0  0  0
  -23.3596   -1.1560  -13.8015 C   0  0  0  0  0  0  0  0  0  0  0  0
  -23.0518    0.3235  -14.0044 C   0  0  0  0  0  0  0  0  0  0  0  0
  -21.8148    0.6833  -13.3997 O   0  0  0  0  0  0  0  0  0  0  0  0
  -21.9373    0.5863  -12.4378 H   0  0  0  0  0  0  0  0  0  0  0  0
 14 15  1  0  0  0
 15 16  1  0  0  0
 15 17  1  0  0  0
 15  8  1  0  0  0
 17 18  1  0  0  0
 17 19  1  0  0  0
  8  9  1  0  0  0
  8 13  2  0  0  0
  9 10  2  0  0  0
 10 11  1  0  0  0
 11  1  1  0  0  0
 11 12  2  0  0  0
  1  2  1  0  0  0
  1  6  2  0  0  0
  2  3  2  0  0  0
  3 20  1  0  0  0
  3  4  1  0  0  0
 20 22  1  0  0  0
 20 21  1  0  0  0
 22 23  1  0  0  0
 22 27  2  0  0  0
 23 24  2  0  0  0
 24 25  1  0  0  0
 25 28  1  0  0  0
 25 26  2  0  0  0
 28 29  1  0  0  0
 29 30  1  0  0  0
 30 31  1  0  0  0
 26 27  1  0  0  0
  4  5  2  0  0  0
  5  6  1  0  0  0
  6  7  1  0  0  0
 12 13  1  0  0  0
M  END
> <minimizedAffinity>
-9.01329

$$$$
