CHEMBL243629


 41 44  0  0  0  0  0  0  0  0999 V2000
  -18.2041    2.5917  -14.7581 C   0  0  0  0  0  0  0  0  0  0  0  0
  -19.3698    3.3538  -14.5495 C   0  0  0  0  0  0  0  0  0  0  0  0
  -20.6187    2.8151  -14.3201 C   0  0  0  0  0  0  0  0  0  0  0  0
  -21.6408    3.6489  -14.1228 N   0  0  0  0  0  0  0  0  0  0  0  0
  -22.8491    3.0837  -13.9623 C   0  0  0  0  0  0  0  0  0  0  0  0
  -23.1076    1.7748  -13.9761 N   0  0  0  0  0  0  0  0  0  0  0  0
  -22.0357    0.9570  -14.1014 C   0  0  0  0  0  0  0  0  0  0  0  0
  -20.7511    1.4365  -14.3372 C   0  0  0  0  0  0  0  0  0  0  0  0
  -19.5977    0.6830  -14.6324 C   0  0  0  0  0  0  0  0  0  0  0  0
  -18.3054    1.1971  -14.7450 C   0  0  0  0  0  0  0  0  0  0  0  0
  -17.2253    0.2640  -14.8337 N   0  0  0  0  0  0  0  0  0  0  0  0
  -16.2774    0.0805  -13.8002 C   0  0  0  0  0  0  0  0  0  0  0  0
  -16.2386    0.6168  -12.7240 O   0  0  0  0  0  0  0  0  0  0  0  0
  -17.1278   -0.2622  -15.6848 H   0  0  0  0  0  0  0  0  0  0  0  0
  -15.2506   -0.9283  -14.1432 C   0  0  0  0  0  0  0  0  0  0  0  0
  -15.1638   -2.0095  -13.3554 C   0  0  0  0  0  0  0  0  0  0  0  0
  -14.2782   -3.2011  -13.5717 C   0  0  0  0  0  0  0  0  0  0  0  0
  -14.8705   -4.5046  -13.2466 N   0  0  0  0  0  0  0  0  0  0  0  0
  -16.2821   -4.3888  -12.8645 C   0  0  0  0  0  0  0  0  0  0  0  0
  -14.7719   -5.3868  -14.4159 C   0  0  0  0  0  0  0  0  0  0  0  0
  -22.3569   -0.3974  -13.9867 N   0  0  0  0  0  0  0  0  0  0  0  0
  -21.6591   -1.0138  -14.3885 H   0  0  0  0  0  0  0  0  0  0  0  0
  -23.4604   -1.0126  -13.4383 C   0  0  0  0  0  0  0  0  0  0  0  0
  -24.5612   -1.2017  -14.1532 C   0  0  0  0  0  0  0  0  0  0  0  0
  -25.8486   -1.5770  -13.5793 C   0  0  0  0  0  0  0  0  0  0  0  0
  -26.8390   -1.5918  -14.3182 O   0  0  0  0  0  0  0  0  0  0  0  0
  -25.9243   -1.7833  -12.1071 C   0  0  0  0  0  0  0  0  0  0  0  0
  -24.8047   -1.6661  -11.3829 C   0  0  0  0  0  0  0  0  0  0  0  0
  -23.4974   -1.2969  -11.9650 C   0  0  0  0  0  0  0  0  0  0  0  0
  -22.5165   -1.1851  -11.2307 O   0  0  0  0  0  0  0  0  0  0  0  0
  -27.1107   -2.0516  -11.4421 O   0  0  0  0  0  0  0  0  0  0  0  0
  -27.5748   -1.0522  -10.5281 C   0  0  0  0  0  0  0  0  0  0  0  0
  -27.8331   -1.7085   -9.1916 C   0  0  0  0  0  0  0  0  0  0  0  0
  -27.6943   -0.9692   -8.0085 C   0  0  0  0  0  0  0  0  0  0  0  0
  -27.9461   -1.5602   -6.7709 C   0  0  0  0  0  0  0  0  0  0  0  0
  -28.3445   -2.8937   -6.7033 C   0  0  0  0  0  0  0  0  0  0  0  0
  -28.4833   -3.6403   -7.8722 C   0  0  0  0  0  0  0  0  0  0  0  0
  -28.2276   -3.0526   -9.1118 C   0  0  0  0  0  0  0  0  0  0  0  0
  -17.0074    3.2353  -14.9677 O   0  0  0  0  0  0  0  0  0  0  0  0
  -15.4042    2.8385  -16.6925 C   0  0  0  0  0  0  0  0  0  0  0  0
  -16.7222    3.4853  -16.3731 C   0  0  0  0  0  0  0  0  0  0  0  0
 40 41  1  0  0  0
 41 39  1  0  0  0
 39  1  1  0  0  0
  1  2  1  0  0  0
  1 10  2  0  0  0
  2  3  2  0  0  0
  3  4  1  0  0  0
  3  8  1  0  0  0
  4  5  2  0  0  0
  5  6  1  0  0  0
  6  7  2  0  0  0
  7 21  1  0  0  0
  7  8  1  0  0  0
 21 23  1  0  0  0
 21 22  1  0  0  0
 23 24  2  0  0  0
 23 29  1  0  0  0
 24 25  1  0  0  0
 25 26  2  0  0  0
 25 27  1  0  0  0
 27 31  1  0  0  0
 27 28  2  0  0  0
 31 32  1  0  0  0
 32 33  1  0  0  0
 33 34  1  0  0  0
 33 38  2  0  0  0
 34 35  2  0  0  0
 35 36  1  0  0  0
 36 37  2  0  0  0
 37 38  1  0  0  0
 28 29  1  0  0  0
 29 30  2  0  0  0
  8  9  2  0  0  0
  9 10  1  0  0  0
 10 11  1  0  0  0
 11 12  1  0  0  0
 11 14  1  0  0  0
 12 13  2  0  0  0
 12 15  1  0  0  0
 15 16  2  0  0  0
 16 17  1  0  0  0
 17 18  1  0  0  0
 18 19  1  0  0  0
 18 20  1  0  0  0
M  END
> <minimizedAffinity>
-9.28204

$$$$
