CHEMBL4166187


 44 49  0  0  0  0  0  0  0  0999 V2000
  -12.7186   -6.6849  -16.0331 C   0  0  0  0  0  0  0  0  0  0  0  0
  -12.1720   -5.6840  -16.8670 C   0  0  0  0  0  0  0  0  0  0  0  0
  -12.3829   -4.3149  -16.6000 C   0  0  0  0  0  0  0  0  0  0  0  0
  -13.1570   -3.9565  -15.5076 C   0  0  0  0  0  0  0  0  0  0  0  0
  -13.6656   -4.9699  -14.6839 C   0  0  0  0  0  0  0  0  0  0  0  0
  -13.4582   -6.3174  -14.9052 C   0  0  0  0  0  0  0  0  0  0  0  0
  -14.4595   -4.4404  -13.6759 N   0  0  0  0  0  0  0  0  0  0  0  0
  -14.5843   -3.0731  -13.8061 C   0  0  0  0  0  0  0  0  0  0  0  0
  -15.4193   -2.3901  -13.2388 O   0  0  0  0  0  0  0  0  0  0  0  0
  -13.6309   -2.6820  -14.9174 C   0  0  0  0  0  0  0  0  0  0  0  0
  -13.3834   -1.3826  -15.2093 C   0  0  0  0  0  0  0  0  0  0  0  0
  -15.0221   -4.9763  -13.0324 H   0  0  0  0  0  0  0  0  0  0  0  0
  -12.7310   -1.0127  -16.4806 C   0  0  0  0  0  0  0  0  0  0  0  0
  -11.3849   -0.6171  -16.4634 C   0  0  0  0  0  0  0  0  0  0  0  0
  -10.7221   -0.3200  -17.6541 C   0  0  0  0  0  0  0  0  0  0  0  0
  -11.3988   -0.4158  -18.8684 C   0  0  0  0  0  0  0  0  0  0  0  0
  -12.7364   -0.8126  -18.8949 C   0  0  0  0  0  0  0  0  0  0  0  0
  -13.4016   -1.1162  -17.7047 C   0  0  0  0  0  0  0  0  0  0  0  0
  -12.5998   -8.1426  -16.3134 C   0  0  0  0  0  0  0  0  0  0  0  0
  -12.6372   -8.9917  -15.4355 O   0  0  0  0  0  0  0  0  0  0  0  0
  -13.7102   -8.8024  -18.2524 C   0  0  0  0  0  0  0  0  0  0  0  0
  -12.4853   -8.3849  -17.6420 O   0  0  0  0  0  0  0  0  0  0  0  0
  -13.6989   -0.2536  -14.4476 N   0  0  0  0  0  0  0  0  0  0  0  0
  -12.9088    0.3744  -14.3388 H   0  0  0  0  0  0  0  0  0  0  0  0
  -14.9440    0.4119  -14.5290 C   0  0  0  0  0  0  0  0  0  0  0  0
  -15.7278    0.6121  -13.3933 C   0  0  0  0  0  0  0  0  0  0  0  0
  -17.0081    1.1712  -13.4815 C   0  0  0  0  0  0  0  0  0  0  0  0
  -17.5651    1.5320  -14.7146 C   0  0  0  0  0  0  0  0  0  0  0  0
  -16.7412    1.4098  -15.8428 C   0  0  0  0  0  0  0  0  0  0  0  0
  -15.4426    0.8758  -15.7499 C   0  0  0  0  0  0  0  0  0  0  0  0
  -18.9241    1.9627  -14.8199 N   0  0  0  0  0  0  0  0  0  0  0  0
  -19.2714    3.3221  -15.1481 C   0  0  0  0  0  0  0  0  0  0  0  0
  -20.7915    3.3923  -15.1578 C   0  0  0  0  0  0  0  0  0  0  0  0
  -21.2814    1.9530  -15.1104 C   0  0  0  0  0  0  0  0  0  0  0  0
  -20.0417    1.1307  -14.8336 C   0  0  0  0  0  0  0  0  0  0  0  0
  -20.1011   -0.0830  -14.6655 O   0  0  0  0  0  0  0  0  0  0  0  0
  -22.3094    1.6506  -14.0072 C   0  0  0  0  0  0  0  0  0  0  0  0
  -22.6006    0.2213  -13.7736 N   0  0  0  0  0  0  0  0  0  0  0  0
  -22.6047   -0.1163  -12.3358 C   0  0  0  0  0  0  0  0  0  0  0  0
  -23.0476   -1.5731  -12.0691 C   0  0  0  0  0  0  0  0  0  0  0  0
  -24.3605   -1.9396  -12.6323 N   0  0  0  0  0  0  0  0  0  0  0  0
  -25.4580   -1.3168  -11.8933 C   0  0  0  0  0  0  0  0  0  0  0  0
  -24.3781   -1.5630  -14.0602 C   0  0  0  0  0  0  0  0  0  0  0  0
  -23.9259   -0.1124  -14.3565 C   0  0  0  0  0  0  0  0  0  0  0  0
 21 22  1  0  0  0
 22 19  1  0  0  0
 19 20  2  0  0  0
 19  1  1  0  0  0
  1  2  1  0  0  0
  1  6  2  0  0  0
  2  3  2  0  0  0
  3  4  1  0  0  0
  4  5  2  0  0  0
  4 10  1  0  0  0
  5  6  1  0  0  0
  5  7  1  0  0  0
  7  8  1  0  0  0
  7 12  1  0  0  0
  8  9  2  0  0  0
  8 10  1  0  0  0
 10 11  2  0  0  0
 11 23  1  0  0  0
 11 13  1  0  0  0
 23 25  1  0  0  0
 23 24  1  0  0  0
 25 26  1  0  0  0
 25 30  2  0  0  0
 26 27  2  0  0  0
 27 28  1  0  0  0
 28 31  1  0  0  0
 28 29  2  0  0  0
 31 32  1  0  0  0
 31 35  1  0  0  0
 32 33  1  0  0  0
 33 34  1  0  0  0
 34 37  1  0  0  0
 34 35  1  0  0  0
 37 38  1  0  0  0
 38 39  1  0  0  0
 38 44  1  0  0  0
 39 40  1  0  0  0
 40 41  1  0  0  0
 41 42  1  0  0  0
 41 43  1  0  0  0
 43 44  1  0  0  0
 35 36  2  0  0  0
 29 30  1  0  0  0
 13 14  1  0  0  0
 13 18  2  0  0  0
 14 15  2  0  0  0
 15 16  1  0  0  0
 16 17  2  0  0  0
 17 18  1  0  0  0
M  END
> <minimizedAffinity>
-7.72415

$$$$
