CHEMBL4074262


 37 42  0  0  0  0  0  0  0  0999 V2000
  -28.4369   -6.8532   -4.4740 C   0  0  0  0  0  0  0  0  0  0  0  0
  -29.7944   -6.4447   -5.0955 C   0  0  0  0  0  0  0  0  0  0  0  0
  -29.6195   -5.0576   -5.6882 C   0  0  0  0  0  0  0  0  0  0  0  0
  -28.9755   -4.8426   -6.9231 C   0  0  0  0  0  0  0  0  0  0  0  0
  -28.5882   -3.5462   -7.3132 C   0  0  0  0  0  0  0  0  0  0  0  0
  -27.9586   -3.3188   -8.5415 C   0  0  0  0  0  0  0  0  0  0  0  0
  -27.5964   -2.0229   -8.9101 C   0  0  0  0  0  0  0  0  0  0  0  0
  -27.7943   -1.0186   -7.9750 C   0  0  0  0  0  0  0  0  0  0  0  0
  -28.4039   -1.2030   -6.7773 N   0  0  0  0  0  0  0  0  0  0  0  0
  -28.8262   -2.4428   -6.4749 C   0  0  0  0  0  0  0  0  0  0  0  0
  -29.5164   -2.6568   -5.2947 C   0  0  0  0  0  0  0  0  0  0  0  0
  -29.9237   -3.9351   -4.9186 C   0  0  0  0  0  0  0  0  0  0  0  0
  -30.5653   -4.0886   -3.7510 F   0  0  0  0  0  0  0  0  0  0  0  0
  -27.1326   -1.7300  -10.2488 C   0  0  0  0  0  0  0  0  0  0  0  0
  -27.7985   -1.6270  -11.4907 C   0  0  0  0  0  0  0  0  0  0  0  0
  -26.9550   -1.4348  -12.5107 N   0  0  0  0  0  0  0  0  0  0  0  0
  -25.7454   -1.4314  -11.9245 N   0  0  0  0  0  0  0  0  0  0  0  0
  -24.5437   -1.2698  -12.7059 C   0  0  0  0  0  0  0  0  0  0  0  0
  -25.7971   -1.6124  -10.5751 C   0  0  0  0  0  0  0  0  0  0  0  0
  -30.2834   -7.4291   -6.0586 N   0  0  0  0  0  0  0  0  0  0  0  0
  -31.5949   -7.3937   -6.4154 N   0  0  0  0  0  0  0  0  0  0  0  0
  -31.7437   -8.1299   -7.5068 N   0  0  0  0  0  0  0  0  0  0  0  0
  -30.5327   -8.6656   -7.8114 C   0  0  0  0  0  0  0  0  0  0  0  0
  -30.2487   -9.4525   -8.8741 N   0  0  0  0  0  0  0  0  0  0  0  0
  -28.9678   -9.8849   -8.8649 C   0  0  0  0  0  0  0  0  0  0  0  0
  -28.0163   -9.5801   -7.8806 C   0  0  0  0  0  0  0  0  0  0  0  0
  -28.2754   -8.7209   -6.8375 N   0  0  0  0  0  0  0  0  0  0  0  0
  -29.5743   -8.2982   -6.8651 C   0  0  0  0  0  0  0  0  0  0  0  0
  -26.7252  -10.2663   -7.9404 C   0  0  0  0  0  0  0  0  0  0  0  0
  -26.2132  -11.1534   -8.9253 C   0  0  0  0  0  0  0  0  0  0  0  0
  -25.0183  -11.6548   -8.6111 N   0  0  0  0  0  0  0  0  0  0  0  0
  -24.7421  -11.0948   -7.4166 N   0  0  0  0  0  0  0  0  0  0  0  0
  -25.7442  -10.2711   -6.9671 C   0  0  0  0  0  0  0  0  0  0  0  0
  -23.4569  -11.3300   -6.7757 C   0  0  0  0  0  0  0  0  0  0  0  0
  -23.0861  -10.3201   -5.6855 C   0  0  0  0  0  0  0  0  0  0  0  0
  -22.5320   -9.1281   -6.2406 O   0  0  0  0  0  0  0  0  0  0  0  0
  -21.6960   -9.4163   -6.6694 H   0  0  0  0  0  0  0  0  0  0  0  0
  1  2  1  0  0  0
  2  3  1  0  0  0
  2 20  1  0  0  0
  3  4  1  0  0  0
  3 12  2  0  0  0
  4  5  2  0  0  0
  5  6  1  0  0  0
  5 10  1  0  0  0
  6  7  2  0  0  0
  7 14  1  0  0  0
  7  8  1  0  0  0
 14 15  1  0  0  0
 14 19  2  0  0  0
 15 16  2  0  0  0
 16 17  1  0  0  0
 17 18  1  0  0  0
 17 19  1  0  0  0
  8  9  2  0  0  0
  9 10  1  0  0  0
 10 11  2  0  0  0
 11 12  1  0  0  0
 12 13  1  0  0  0
 20 21  1  0  0  0
 20 28  1  0  0  0
 21 22  2  0  0  0
 22 23  1  0  0  0
 23 24  1  0  0  0
 23 28  2  0  0  0
 24 25  2  0  0  0
 25 26  1  0  0  0
 26 29  1  0  0  0
 26 27  2  0  0  0
 29 30  1  0  0  0
 29 33  2  0  0  0
 30 31  2  0  0  0
 31 32  1  0  0  0
 32 34  1  0  0  0
 32 33  1  0  0  0
 34 35  1  0  0  0
 35 36  1  0  0  0
 36 37  1  0  0  0
 27 28  1  0  0  0
M  END
> <minimizedAffinity>
-9.95199

$$$$
