CHEMBL3909551


 39 42  0  0  0  0  0  0  0  0999 V2000
  -14.3888   -5.7792  -12.2172 C   0  0  0  0  0  0  0  0  0  0  0  0
  -15.1061   -5.5855  -11.0272 C   0  0  0  0  0  0  0  0  0  0  0  0
  -15.5786   -4.3394  -10.7266 N   0  0  0  0  0  0  0  0  0  0  0  0
  -15.3840   -3.2866  -11.5817 C   0  0  0  0  0  0  0  0  0  0  0  0
  -15.9202   -2.0240  -11.3170 C   0  0  0  0  0  0  0  0  0  0  0  0
  -15.7615   -0.9803  -12.2489 C   0  0  0  0  0  0  0  0  0  0  0  0
  -15.0273   -1.1503  -13.4584 C   0  0  0  0  0  0  0  0  0  0  0  0
  -14.4711   -2.4416  -13.6715 C   0  0  0  0  0  0  0  0  0  0  0  0
  -14.6611   -3.4848  -12.7636 C   0  0  0  0  0  0  0  0  0  0  0  0
  -14.1804   -4.7164  -13.0384 N   0  0  0  0  0  0  0  0  0  0  0  0
  -13.3844   -8.7101  -14.0621 N   0  0  0  0  0  0  0  0  0  0  0  0
  -13.7935   -7.4390  -13.9980 C   0  0  0  0  0  0  0  0  0  0  0  0
  -13.8988   -7.0875  -12.6748 C   0  0  0  0  0  0  0  0  0  0  0  0
  -13.5096   -8.2044  -11.9588 C   0  0  0  0  0  0  0  0  0  0  0  0
  -13.2008   -9.1928  -12.8282 N   0  0  0  0  0  0  0  0  0  0  0  0
  -13.2127   -9.4631  -15.2936 C   0  0  0  0  0  0  0  0  0  0  0  0
  -13.7026   -7.3556  -18.4480 C   0  0  0  0  0  0  0  0  0  0  0  0
  -13.9461   -8.2179  -17.3147 N   0  0  0  0  0  0  0  0  0  0  0  0
  -12.9479   -8.5532  -16.4551 C   0  0  0  0  0  0  0  0  0  0  0  0
  -11.8147   -8.1161  -16.6203 O   0  0  0  0  0  0  0  0  0  0  0  0
  -14.9022   -8.5765  -17.1574 H   0  0  0  0  0  0  0  0  0  0  0  0
  -14.8409   -0.0947  -14.4656 N   0  0  0  0  0  0  0  0  0  0  0  0
  -15.9813    0.7204  -14.8455 C   0  0  0  0  0  0  0  0  0  0  0  0
  -15.7760    1.9973  -15.4031 C   0  0  0  0  0  0  0  0  0  0  0  0
  -16.8445    2.7982  -15.8334 C   0  0  0  0  0  0  0  0  0  0  0  0
  -18.1480    2.3173  -15.7185 C   0  0  0  0  0  0  0  0  0  0  0  0
  -18.3953    1.0424  -15.1818 C   0  0  0  0  0  0  0  0  0  0  0  0
  -17.3206    0.2617  -14.7444 C   0  0  0  0  0  0  0  0  0  0  0  0
  -16.6510    4.0195  -16.3893 O   0  0  0  0  0  0  0  0  0  0  0  0
  -15.4655    4.4645  -16.9380 C   0  0  0  0  0  0  0  0  0  0  0  0
  -19.6460    0.5192  -15.0903 O   0  0  0  0  0  0  0  0  0  0  0  0
  -20.8140    1.2471  -15.0196 C   0  0  0  0  0  0  0  0  0  0  0  0
  -13.5033    0.3601  -14.9251 C   0  0  0  0  0  0  0  0  0  0  0  0
  -12.5880    0.6725  -13.7545 C   0  0  0  0  0  0  0  0  0  0  0  0
  -12.8158    1.9515  -13.0709 N   0  0  0  0  0  0  0  0  0  0  0  0
  -12.5510    1.8364  -12.0553 H   0  0  0  0  0  0  0  0  0  0  0  0
  -11.9108    2.9648  -13.6690 C   0  0  0  0  0  0  0  0  0  0  0  0
  -12.6807    3.9738  -14.5505 C   0  0  0  0  0  0  0  0  0  0  0  0
  -11.1452    3.7279  -12.5912 C   0  0  0  0  0  0  0  0  0  0  0  0
 17 18  1  0  0  0
 18 19  1  0  0  0
 18 21  1  0  0  0
 19 20  2  0  0  0
 19 16  1  0  0  0
 16 11  1  0  0  0
 11 12  1  0  0  0
 11 15  1  0  0  0
 12 13  2  0  0  0
 13  1  1  0  0  0
 13 14  1  0  0  0
  1  2  1  0  0  0
  1 10  2  0  0  0
  2  3  2  0  0  0
  3  4  1  0  0  0
  4  5  1  0  0  0
  4  9  2  0  0  0
  5  6  2  0  0  0
  6  7  1  0  0  0
  7 22  1  0  0  0
  7  8  2  0  0  0
 22 33  1  0  0  0
 22 23  1  0  0  0
 33 34  1  0  0  0
 34 35  1  0  0  0
 35 37  1  0  0  0
 35 36  1  0  0  0
 37 38  1  0  0  0
 37 39  1  0  0  0
 23 24  1  0  0  0
 23 28  2  0  0  0
 24 25  2  0  0  0
 25 29  1  0  0  0
 25 26  1  0  0  0
 29 30  1  0  0  0
 26 27  2  0  0  0
 27 31  1  0  0  0
 27 28  1  0  0  0
 31 32  1  0  0  0
  8  9  1  0  0  0
  9 10  1  0  0  0
 14 15  2  0  0  0
M  END
> <minimizedAffinity>
-7.40090

$$$$
