CHEMBL3753836


 28 30  0  0  0  0  0  0  0  0999 V2000
  -27.9714   -1.5109   -6.0448 C   0  0  0  0  0  0  0  0  0  0  0  0
  -27.7855   -1.2557   -7.4020 C   0  0  0  0  0  0  0  0  0  0  0  0
  -28.1091   -2.1798   -8.3930 C   0  0  0  0  0  0  0  0  0  0  0  0
  -28.5325   -3.4477   -7.9910 C   0  0  0  0  0  0  0  0  0  0  0  0
  -28.6991   -3.7856   -6.6195 C   0  0  0  0  0  0  0  0  0  0  0  0
  -28.4679   -2.7649   -5.6490 C   0  0  0  0  0  0  0  0  0  0  0  0
  -28.0012   -1.8756   -9.7808 N   0  0  0  0  0  0  0  0  0  0  0  0
  -26.8065   -1.6812  -10.4490 C   0  0  0  0  0  0  0  0  0  0  0  0
  -25.6907   -1.7511   -9.9429 O   0  0  0  0  0  0  0  0  0  0  0  0
  -26.9733   -1.3227  -11.7819 N   0  0  0  0  0  0  0  0  0  0  0  0
  -28.8561   -1.7675  -10.3030 H   0  0  0  0  0  0  0  0  0  0  0  0
  -27.7751   -0.7371  -11.9613 H   0  0  0  0  0  0  0  0  0  0  0  0
  -25.8138   -1.0576  -12.5638 C   0  0  0  0  0  0  0  0  0  0  0  0
  -24.8410   -0.1544  -12.1307 C   0  0  0  0  0  0  0  0  0  0  0  0
  -23.8108    0.1657  -12.9978 C   0  0  0  0  0  0  0  0  0  0  0  0
  -23.6886   -0.3543  -14.2358 N   0  0  0  0  0  0  0  0  0  0  0  0
  -24.6349   -1.2378  -14.6167 C   0  0  0  0  0  0  0  0  0  0  0  0
  -25.6914   -1.6441  -13.8162 C   0  0  0  0  0  0  0  0  0  0  0  0
  -29.0602   -5.1885   -6.2483 C   0  0  0  0  0  0  0  0  0  0  0  0
  -30.1833   -5.8514   -6.7704 C   0  0  0  0  0  0  0  0  0  0  0  0
  -30.4364   -7.1912   -6.4624 C   0  0  0  0  0  0  0  0  0  0  0  0
  -29.5705   -7.8465   -5.6090 C   0  0  0  0  0  0  0  0  0  0  0  0
  -28.4883   -7.2655   -5.0647 N   0  0  0  0  0  0  0  0  0  0  0  0
  -28.2616   -5.9680   -5.4010 C   0  0  0  0  0  0  0  0  0  0  0  0
  -28.3535    0.6106   -5.0043 C   0  0  0  0  0  0  0  0  0  0  0  0
  -27.6006   -0.5995   -5.0888 O   0  0  0  0  0  0  0  0  0  0  0  0
  -28.7229   -3.1127   -4.3424 O   0  0  0  0  0  0  0  0  0  0  0  0
  -29.9664   -2.7334   -3.7650 C   0  0  0  0  0  0  0  0  0  0  0  0
 25 26  1  0  0  0
 26  1  1  0  0  0
  1  2  1  0  0  0
  1  6  2  0  0  0
  2  3  2  0  0  0
  3  7  1  0  0  0
  3  4  1  0  0  0
  7  8  1  0  0  0
  7 11  1  0  0  0
  8  9  2  0  0  0
  8 10  1  0  0  0
 10 13  1  0  0  0
 10 12  1  0  0  0
 13 14  1  0  0  0
 13 18  2  0  0  0
 14 15  2  0  0  0
 15 16  1  0  0  0
 16 17  2  0  0  0
 17 18  1  0  0  0
  4  5  2  0  0  0
  5 19  1  0  0  0
  5  6  1  0  0  0
 19 20  1  0  0  0
 19 24  2  0  0  0
 20 21  2  0  0  0
 21 22  1  0  0  0
 22 23  2  0  0  0
 23 24  1  0  0  0
  6 27  1  0  0  0
 27 28  1  0  0  0
M  END
> <minimizedAffinity>
-8.99462

$$$$
