CHEMBL249806


 35 39  0  0  0  0  0  0  0  0999 V2000
  -15.2691    1.7428  -15.4627 C   0  0  0  0  0  0  0  0  0  0  0  0
  -14.9728    3.0262  -15.9726 C   0  0  0  0  0  0  0  0  0  0  0  0
  -13.8121    3.2517  -16.6869 C   0  0  0  0  0  0  0  0  0  0  0  0
  -12.9696    2.1806  -16.8793 C   0  0  0  0  0  0  0  0  0  0  0  0
  -13.2256    0.9388  -16.4094 N   0  0  0  0  0  0  0  0  0  0  0  0
  -14.3786    0.6964  -15.7319 C   0  0  0  0  0  0  0  0  0  0  0  0
  -16.6442    1.0420  -13.7544 O   0  0  0  0  0  0  0  0  0  0  0  0
  -16.6121    1.6034  -14.8466 C   0  0  0  0  0  0  0  0  0  0  0  0
  -17.7145    2.0861  -15.5388 N   0  0  0  0  0  0  0  0  0  0  0  0
  -17.5572    2.4794  -16.4585 H   0  0  0  0  0  0  0  0  0  0  0  0
  -19.0615    1.9988  -15.0958 C   0  0  0  0  0  0  0  0  0  0  0  0
  -19.7960    3.0898  -14.6197 C   0  0  0  0  0  0  0  0  0  0  0  0
  -21.1112    2.9412  -14.1663 C   0  0  0  0  0  0  0  0  0  0  0  0
  -21.7485    1.7106  -14.2503 C   0  0  0  0  0  0  0  0  0  0  0  0
  -21.0229    0.6054  -14.7048 C   0  0  0  0  0  0  0  0  0  0  0  0
  -19.6858    0.7459  -15.1187 C   0  0  0  0  0  0  0  0  0  0  0  0
  -23.0454    1.4732  -13.8495 O   0  0  0  0  0  0  0  0  0  0  0  0
  -23.4191    0.2214  -13.3964 C   0  0  0  0  0  0  0  0  0  0  0  0
  -24.3109   -0.6243  -14.0606 C   0  0  0  0  0  0  0  0  0  0  0  0
  -24.6356   -1.8691  -13.5186 C   0  0  0  0  0  0  0  0  0  0  0  0
  -24.0252   -2.3018  -12.3427 C   0  0  0  0  0  0  0  0  0  0  0  0
  -23.0900   -1.4886  -11.7068 C   0  0  0  0  0  0  0  0  0  0  0  0
  -22.7879   -0.2250  -12.2322 C   0  0  0  0  0  0  0  0  0  0  0  0
  -14.5678   -0.6138  -15.2548 N   0  0  0  0  0  0  0  0  0  0  0  0
  -14.2143   -1.3093  -15.8992 H   0  0  0  0  0  0  0  0  0  0  0  0
  -13.9370   -0.8320  -13.9414 C   0  0  0  0  0  0  0  0  0  0  0  0
  -14.6834   -1.9194  -13.2076 C   0  0  0  0  0  0  0  0  0  0  0  0
  -15.1089   -1.6841  -11.8777 C   0  0  0  0  0  0  0  0  0  0  0  0
  -15.8442   -2.6403  -11.1754 C   0  0  0  0  0  0  0  0  0  0  0  0
  -16.1402   -3.8168  -11.8259 C   0  0  0  0  0  0  0  0  0  0  0  0
  -15.7028   -4.0694  -13.1057 C   0  0  0  0  0  0  0  0  0  0  0  0
  -14.9614   -3.1511  -13.8193 C   0  0  0  0  0  0  0  0  0  0  0  0
  -16.1068   -5.2869  -13.5590 O   0  0  0  0  0  0  0  0  0  0  0  0
  -16.9357   -5.7200  -12.4598 C   0  0  0  0  0  0  0  0  0  0  0  0
  -16.8846   -4.8365  -11.3210 O   0  0  0  0  0  0  0  0  0  0  0  0
  7  8  2  0  0  0
  8  9  1  0  0  0
  8  1  1  0  0  0
  9 11  1  0  0  0
  9 10  1  0  0  0
 11 12  1  0  0  0
 11 16  2  0  0  0
 12 13  2  0  0  0
 13 14  1  0  0  0
 14 17  1  0  0  0
 14 15  2  0  0  0
 17 18  1  0  0  0
 18 19  1  0  0  0
 18 23  2  0  0  0
 19 20  2  0  0  0
 20 21  1  0  0  0
 21 22  2  0  0  0
 22 23  1  0  0  0
 15 16  1  0  0  0
  1  2  1  0  0  0
  1  6  2  0  0  0
  2  3  2  0  0  0
  3  4  1  0  0  0
  4  5  2  0  0  0
  5  6  1  0  0  0
  6 24  1  0  0  0
 24 26  1  0  0  0
 24 25  1  0  0  0
 26 27  1  0  0  0
 27 28  1  0  0  0
 27 32  2  0  0  0
 28 29  2  0  0  0
 29 30  1  0  0  0
 30 31  2  0  0  0
 30 35  1  0  0  0
 31 32  1  0  0  0
 31 33  1  0  0  0
 33 34  1  0  0  0
 34 35  1  0  0  0
M  END
> <minimizedAffinity>
-10.57861

$$$$
