CHEMBL3353354


 38 44  0  0  0  0  0  0  0  0999 V2000
  -15.1342    4.2134  -17.3289 C   0  0  0  0  0  0  0  0  0  0  0  0
  -14.5763    2.9210  -17.3091 C   0  0  0  0  0  0  0  0  0  0  0  0
  -15.0886    1.8834  -16.5162 C   0  0  0  0  0  0  0  0  0  0  0  0
  -16.2106    2.1354  -15.7111 C   0  0  0  0  0  0  0  0  0  0  0  0
  -16.9652    1.4144  -14.7316 C   0  0  0  0  0  0  0  0  0  0  0  0
  -17.9957    2.1518  -14.2880 N   0  0  0  0  0  0  0  0  0  0  0  0
  -17.8769    3.3211  -14.9400 N   0  0  0  0  0  0  0  0  0  0  0  0
  -16.7978    3.3939  -15.7782 C   0  0  0  0  0  0  0  0  0  0  0  0
  -16.2965    4.4410  -16.5700 C   0  0  0  0  0  0  0  0  0  0  0  0
  -18.5556    4.0452  -14.7497 H   0  0  0  0  0  0  0  0  0  0  0  0
  -13.8966    7.9208  -19.5325 O   0  0  0  0  0  0  0  0  0  0  0  0
  -13.4580    7.5986  -18.4419 C   0  0  0  0  0  0  0  0  0  0  0  0
  -12.9699    8.4306  -17.4536 N   0  0  0  0  0  0  0  0  0  0  0  0
  -12.4723    7.7040  -16.3737 C   0  0  0  0  0  0  0  0  0  0  0  0
  -11.8471    8.2220  -15.2570 C   0  0  0  0  0  0  0  0  0  0  0  0
  -11.3370    7.3104  -14.3362 C   0  0  0  0  0  0  0  0  0  0  0  0
  -11.4475    5.9270  -14.5651 C   0  0  0  0  0  0  0  0  0  0  0  0
  -12.1007    5.4292  -15.7034 C   0  0  0  0  0  0  0  0  0  0  0  0
  -12.6463    6.3272  -16.6080 C   0  0  0  0  0  0  0  0  0  0  0  0
  -13.3658    6.1788  -17.9180 C   0  0  0  0  0  0  0  0  0  0  0  0
  -13.1523    5.0058  -18.8264 C   0  0  0  0  0  0  0  0  0  0  0  0
  -14.5276    5.2607  -18.2345 C   0  0  0  0  0  0  0  0  0  0  0  0
  -12.9140    9.4301  -17.5546 H   0  0  0  0  0  0  0  0  0  0  0  0
  -16.6086    0.1150  -14.2104 C   0  0  0  0  0  0  0  0  0  0  0  0
  -15.9523   -0.0840  -13.0504 C   0  0  0  0  0  0  0  0  0  0  0  0
  -15.3625   -1.3495  -12.5672 C   0  0  0  0  0  0  0  0  0  0  0  0
  -14.3133   -1.8901  -13.3236 C   0  0  0  0  0  0  0  0  0  0  0  0
  -13.7326   -3.1199  -12.9937 C   0  0  0  0  0  0  0  0  0  0  0  0
  -14.1678   -3.8455  -11.8801 C   0  0  0  0  0  0  0  0  0  0  0  0
  -15.1846   -3.2845  -11.0877 C   0  0  0  0  0  0  0  0  0  0  0  0
  -15.7759   -2.0492  -11.4278 C   0  0  0  0  0  0  0  0  0  0  0  0
  -13.6525   -5.2513  -11.6411 C   0  0  0  0  0  0  0  0  0  0  0  0
  -14.5708   -6.3860  -11.6589 N   0  0  0  0  0  0  0  0  0  0  0  0
  -13.9784   -7.7208  -11.5605 C   0  0  0  0  0  0  0  0  0  0  0  0
  -13.6920   -8.3883  -12.9133 C   0  0  0  0  0  0  0  0  0  0  0  0
  -14.8520   -8.3952  -13.7556 O   0  0  0  0  0  0  0  0  0  0  0  0
  -15.3361   -7.0636  -13.9684 C   0  0  0  0  0  0  0  0  0  0  0  0
  -15.6576   -6.3602  -12.6413 C   0  0  0  0  0  0  0  0  0  0  0  0
 11 12  2  0  0  0
 12 13  1  0  0  0
 12 20  1  0  0  0
 13 14  1  0  0  0
 13 23  1  0  0  0
 14 15  1  0  0  0
 14 19  2  0  0  0
 15 16  2  0  0  0
 16 17  1  0  0  0
 17 18  2  0  0  0
 18 19  1  0  0  0
 20 19  1  0  0  0
 20 21  1  0  0  0
 20 22  1  0  0  0
 21 22  1  0  0  0
 22  1  1  0  0  0
  1  2  1  0  0  0
  1  9  2  0  0  0
  2  3  2  0  0  0
  3  4  1  0  0  0
  4  5  1  0  0  0
  4  8  2  0  0  0
  5 24  1  0  0  0
  5  6  2  0  0  0
 24 25  2  0  0  0
 25 26  1  0  0  0
 26 27  1  0  0  0
 26 31  2  0  0  0
 27 28  2  0  0  0
 28 29  1  0  0  0
 29 32  1  0  0  0
 29 30  2  0  0  0
 32 33  1  0  0  0
 33 34  1  0  0  0
 33 38  1  0  0  0
 34 35  1  0  0  0
 35 36  1  0  0  0
 36 37  1  0  0  0
 37 38  1  0  0  0
 30 31  1  0  0  0
  6  7  1  0  0  0
  7  8  1  0  0  0
  7 10  1  0  0  0
  8  9  1  0  0  0
M  END
> <minimizedAffinity>
-9.17772

$$$$
