CHEMBL3321912


 30 34  0  0  0  0  0  0  0  0999 V2000
  -27.6913   -8.9417   -4.0554 C   0  0  0  0  0  0  0  0  0  0  0  0
  -28.7021   -8.4410   -3.3686 N   0  0  0  0  0  0  0  0  0  0  0  0
  -29.1691   -7.3792   -4.0984 C   0  0  0  0  0  0  0  0  0  0  0  0
  -30.1793   -6.4667   -3.7937 C   0  0  0  0  0  0  0  0  0  0  0  0
  -30.4428   -5.4455   -4.7141 C   0  0  0  0  0  0  0  0  0  0  0  0
  -29.7594   -5.3388   -5.9415 C   0  0  0  0  0  0  0  0  0  0  0  0
  -28.7194   -6.2376   -6.2285 C   0  0  0  0  0  0  0  0  0  0  0  0
  -28.4692   -7.2456   -5.2888 C   0  0  0  0  0  0  0  0  0  0  0  0
  -27.5645   -8.2719   -5.2513 N   0  0  0  0  0  0  0  0  0  0  0  0
  -26.8718   -8.4750   -5.9557 H   0  0  0  0  0  0  0  0  0  0  0  0
  -23.2949  -10.5825   -3.0035 F   0  0  0  0  0  0  0  0  0  0  0  0
  -24.6036  -10.8402   -3.1203 C   0  0  0  0  0  0  0  0  0  0  0  0
  -25.0723  -12.1188   -2.8600 C   0  0  0  0  0  0  0  0  0  0  0  0
  -26.4329  -12.3870   -2.9891 C   0  0  0  0  0  0  0  0  0  0  0  0
  -27.3223  -11.3721   -3.3743 C   0  0  0  0  0  0  0  0  0  0  0  0
  -29.1414  -11.9011   -3.5708 Br  0  0  0  0  0  0  0  0  0  0  0  0
  -26.8535  -10.0682   -3.6301 C   0  0  0  0  0  0  0  0  0  0  0  0
  -25.4728   -9.8254   -3.5031 C   0  0  0  0  0  0  0  0  0  0  0  0
  -30.0288   -4.2611   -6.8234 N   0  0  0  0  0  0  0  0  0  0  0  0
  -30.9192   -3.8068   -6.6547 H   0  0  0  0  0  0  0  0  0  0  0  0
  -29.0652   -3.3054   -7.2328 C   0  0  0  0  0  0  0  0  0  0  0  0
  -28.3936   -3.5483   -8.3737 N   0  0  0  0  0  0  0  0  0  0  0  0
  -27.5716   -2.5949   -8.8099 C   0  0  0  0  0  0  0  0  0  0  0  0
  -27.3546   -1.4180   -8.2161 N   0  0  0  0  0  0  0  0  0  0  0  0
  -28.0065   -1.1965   -7.0706 C   0  0  0  0  0  0  0  0  0  0  0  0
  -27.8365    0.0322   -6.4495 C   0  0  0  0  0  0  0  0  0  0  0  0
  -28.4750    0.3477   -5.2472 C   0  0  0  0  0  0  0  0  0  0  0  0
  -29.2986   -0.5886   -4.6367 C   0  0  0  0  0  0  0  0  0  0  0  0
  -29.5048   -1.8226   -5.2514 C   0  0  0  0  0  0  0  0  0  0  0  0
  -28.8686   -2.1335   -6.4824 C   0  0  0  0  0  0  0  0  0  0  0  0
 11 12  1  0  0  0
 12 13  1  0  0  0
 12 18  2  0  0  0
 13 14  2  0  0  0
 14 15  1  0  0  0
 15 16  1  0  0  0
 15 17  2  0  0  0
 17  1  1  0  0  0
 17 18  1  0  0  0
  1  2  2  0  0  0
  1  9  1  0  0  0
  2  3  1  0  0  0
  3  4  1  0  0  0
  3  8  2  0  0  0
  4  5  2  0  0  0
  5  6  1  0  0  0
  6 19  1  0  0  0
  6  7  2  0  0  0
 19 21  1  0  0  0
 19 20  1  0  0  0
 21 22  1  0  0  0
 21 30  2  0  0  0
 22 23  2  0  0  0
 23 24  1  0  0  0
 24 25  2  0  0  0
 25 26  1  0  0  0
 25 30  1  0  0  0
 26 27  2  0  0  0
 27 28  1  0  0  0
 28 29  2  0  0  0
 29 30  1  0  0  0
  7  8  1  0  0  0
  8  9  1  0  0  0
  9 10  1  0  0  0
M  END
> <minimizedAffinity>
-9.57762

$$$$
