CHEMBL3942606


 35 38  0  0  0  0  0  0  0  0999 V2000
  -29.0566   -6.3955   -4.3994 N   0  0  0  0  0  0  0  0  0  0  0  0
  -28.3658   -5.4028   -5.2018 C   0  0  0  0  0  0  0  0  0  0  0  0
  -27.6943   -4.3969   -4.5650 C   0  0  0  0  0  0  0  0  0  0  0  0
  -27.8935   -3.0921   -4.9657 C   0  0  0  0  0  0  0  0  0  0  0  0
  -28.2436   -2.8302   -6.2482 C   0  0  0  0  0  0  0  0  0  0  0  0
  -28.4077   -1.5315   -6.5111 N   0  0  0  0  0  0  0  0  0  0  0  0
  -28.2585   -1.1873   -7.7863 C   0  0  0  0  0  0  0  0  0  0  0  0
  -27.9010   -2.1089   -8.7505 C   0  0  0  0  0  0  0  0  0  0  0  0
  -27.9581   -3.4694   -8.5033 N   0  0  0  0  0  0  0  0  0  0  0  0
  -28.2086   -3.8689   -7.1875 C   0  0  0  0  0  0  0  0  0  0  0  0
  -28.4544   -5.1921   -6.5991 C   0  0  0  0  0  0  0  0  0  0  0  0
  -27.2902   -1.5387   -9.9421 C   0  0  0  0  0  0  0  0  0  0  0  0
  -27.8355   -1.3276  -11.2384 C   0  0  0  0  0  0  0  0  0  0  0  0
  -26.8979   -1.0651  -12.1605 N   0  0  0  0  0  0  0  0  0  0  0  0
  -25.7509   -1.1324  -11.4640 N   0  0  0  0  0  0  0  0  0  0  0  0
  -24.5055   -0.6797  -12.0361 C   0  0  0  0  0  0  0  0  0  0  0  0
  -25.9278   -1.5659  -10.1817 C   0  0  0  0  0  0  0  0  0  0  0  0
  -26.6072   -9.3551   -4.1132 C   0  0  0  0  0  0  0  0  0  0  0  0
  -27.4136  -10.3843   -3.6973 C   0  0  0  0  0  0  0  0  0  0  0  0
  -28.7900  -10.1529   -3.5620 C   0  0  0  0  0  0  0  0  0  0  0  0
  -29.3525   -8.8668   -3.8419 C   0  0  0  0  0  0  0  0  0  0  0  0
  -28.5431   -7.7804   -4.2350 C   0  0  0  0  0  0  0  0  0  0  0  0
  -27.1827   -8.1149   -4.3824 C   0  0  0  0  0  0  0  0  0  0  0  0
  -24.4685  -10.1960   -3.4742 C   0  0  0  0  0  0  0  0  0  0  0  0
  -25.2575   -9.3822   -4.3235 O   0  0  0  0  0  0  0  0  0  0  0  0
  -29.6666  -11.1329   -3.1451 O   0  0  0  0  0  0  0  0  0  0  0  0
  -29.0903  -12.4132   -2.8583 C   0  0  0  0  0  0  0  0  0  0  0  0
  -30.5549   -6.4553   -4.6086 C   0  0  0  0  0  0  0  0  0  0  0  0
  -31.2273   -5.1858   -4.0662 C   0  0  0  0  0  0  0  0  0  0  0  0
  -31.0199   -6.6781   -6.0852 C   0  0  0  0  0  0  0  0  0  0  0  0
  -31.8174   -7.8950   -6.3172 N   0  0  0  0  0  0  0  0  0  0  0  0
  -32.7094   -7.6484   -6.7470 H   0  0  0  0  0  0  0  0  0  0  0  0
  -31.1283   -8.9194   -7.0989 C   0  0  0  0  0  0  0  0  0  0  0  0
  -32.0330   -9.5959   -8.1321 C   0  0  0  0  0  0  0  0  0  0  0  0
  -29.9535   -8.2572   -7.8255 C   0  0  0  0  0  0  0  0  0  0  0  0
 24 25  1  0  0  0
 25 18  1  0  0  0
 18 19  1  0  0  0
 18 23  2  0  0  0
 19 20  2  0  0  0
 20 26  1  0  0  0
 20 21  1  0  0  0
 26 27  1  0  0  0
 21 22  2  0  0  0
 22  1  1  0  0  0
 22 23  1  0  0  0
  1  2  1  0  0  0
  1 28  1  0  0  0
  2  3  1  0  0  0
  2 11  2  0  0  0
  3  4  2  0  0  0
  4  5  1  0  0  0
  5  6  1  0  0  0
  5 10  2  0  0  0
  6  7  2  0  0  0
  7  8  1  0  0  0
  8 12  1  0  0  0
  8  9  2  0  0  0
 12 13  1  0  0  0
 12 17  2  0  0  0
 13 14  2  0  0  0
 14 15  1  0  0  0
 15 16  1  0  0  0
 15 17  1  0  0  0
  9 10  1  0  0  0
 10 11  1  0  0  0
 28 29  1  0  0  0
 28 30  1  0  0  0
 30 31  1  0  0  0
 31 33  1  0  0  0
 31 32  1  0  0  0
 33 34  1  0  0  0
 33 35  1  0  0  0
M  END
> <minimizedAffinity>
-7.51925

$$$$
