CHEMBL1271780


 24 26  0  0  0  0  0  0  0  0999 V2000
  -23.5028   -0.2683  -12.5591 C   0  0  0  0  0  0  0  0  0  0  0  0
  -22.5703   -0.6626  -11.8625 O   0  0  0  0  0  0  0  0  0  0  0  0
  -23.4007    0.7664  -13.4927 N   0  0  0  0  0  0  0  0  0  0  0  0
  -24.2603    1.1194  -13.8682 H   0  0  0  0  0  0  0  0  0  0  0  0
  -27.8149   -2.2020  -14.5323 C   0  0  0  0  0  0  0  0  0  0  0  0
  -26.9749   -1.8327  -13.3364 C   0  0  0  0  0  0  0  0  0  0  0  0
  -27.5024   -2.0056  -12.0547 C   0  0  0  0  0  0  0  0  0  0  0  0
  -26.7378   -1.6587  -10.9471 C   0  0  0  0  0  0  0  0  0  0  0  0
  -27.4828   -1.8995   -9.2186 Br  0  0  0  0  0  0  0  0  0  0  0  0
  -25.4449   -1.1225  -11.0838 C   0  0  0  0  0  0  0  0  0  0  0  0
  -24.8826   -0.9143  -12.3566 C   0  0  0  0  0  0  0  0  0  0  0  0
  -25.6707   -1.2993  -13.4711 C   0  0  0  0  0  0  0  0  0  0  0  0
  -25.2255   -1.1863  -14.7722 O   0  0  0  0  0  0  0  0  0  0  0  0
  -24.3255   -0.7868  -14.7499 H   0  0  0  0  0  0  0  0  0  0  0  0
  -22.2643    1.5642  -13.8330 C   0  0  0  0  0  0  0  0  0  0  0  0
  -22.2169    2.9343  -14.0781 C   0  0  0  0  0  0  0  0  0  0  0  0
  -21.0844    3.6009  -14.4834 N   0  0  0  0  0  0  0  0  0  0  0  0
  -19.9763    2.8879  -14.7863 C   0  0  0  0  0  0  0  0  0  0  0  0
  -18.8772    3.4855  -15.4093 C   0  0  0  0  0  0  0  0  0  0  0  0
  -17.8165    2.7274  -15.9216 C   0  0  0  0  0  0  0  0  0  0  0  0
  -17.7907    1.3545  -15.7198 C   0  0  0  0  0  0  0  0  0  0  0  0
  -18.8155    0.7513  -14.9929 C   0  0  0  0  0  0  0  0  0  0  0  0
  -19.9269    1.5027  -14.5632 C   0  0  0  0  0  0  0  0  0  0  0  0
  -21.0581    0.8806  -13.9979 C   0  0  0  0  0  0  0  0  0  0  0  0
  5  6  1  0  0  0
  6  7  1  0  0  0
  6 12  2  0  0  0
  7  8  2  0  0  0
  8  9  1  0  0  0
  8 10  1  0  0  0
 10 11  2  0  0  0
 11  1  1  0  0  0
 11 12  1  0  0  0
  1  2  2  0  0  0
  1  3  1  0  0  0
  3 15  1  0  0  0
  3  4  1  0  0  0
 15 16  1  0  0  0
 15 24  2  0  0  0
 16 17  2  0  0  0
 17 18  1  0  0  0
 18 19  1  0  0  0
 18 23  2  0  0  0
 19 20  2  0  0  0
 20 21  1  0  0  0
 21 22  2  0  0  0
 22 23  1  0  0  0
 23 24  1  0  0  0
 12 13  1  0  0  0
 13 14  1  0  0  0
M  END
> <minimizedAffinity>
-10.40941

$$$$
