CHEMBL3984548


 37 40  0  0  0  0  0  0  0  0999 V2000
  -14.5672    2.0188  -17.2700 C   0  0  0  0  0  0  0  0  0  0  0  0
  -15.1402    3.2612  -17.3807 C   0  0  0  0  0  0  0  0  0  0  0  0
  -16.2556    3.6058  -16.7151 C   0  0  0  0  0  0  0  0  0  0  0  0
  -16.8687    2.8371  -15.8142 C   0  0  0  0  0  0  0  0  0  0  0  0
  -17.5832    3.7143  -15.2198 N   0  0  0  0  0  0  0  0  0  0  0  0
  -18.7292    3.3247  -14.7560 C   0  0  0  0  0  0  0  0  0  0  0  0
  -19.1364    2.0354  -14.5965 C   0  0  0  0  0  0  0  0  0  0  0  0
  -18.1454    1.0613  -14.9406 N   0  0  0  0  0  0  0  0  0  0  0  0
  -16.7954    1.4550  -15.6879 C   0  0  0  0  0  0  0  0  0  0  0  0
  -15.3695    1.1052  -16.4065 C   0  0  0  0  0  0  0  0  0  0  0  0
  -20.6034    2.0698  -14.1618 C   0  0  0  0  0  0  0  0  0  0  0  0
  -21.7396    2.9418  -14.2485 C   0  0  0  0  0  0  0  0  0  0  0  0
  -22.9435    2.3637  -13.9999 N   0  0  0  0  0  0  0  0  0  0  0  0
  -22.6515    1.0899  -13.6875 N   0  0  0  0  0  0  0  0  0  0  0  0
  -21.3039    0.8659  -13.7927 C   0  0  0  0  0  0  0  0  0  0  0  0
  -23.7113    0.1127  -13.4513 C   0  0  0  0  0  0  0  0  0  0  0  0
  -24.3832    0.0663  -12.0801 C   0  0  0  0  0  0  0  0  0  0  0  0
  -25.0659   -1.5035  -11.6209 S   0  0  0  0  0  0  0  0  0  0  0  0
  -26.4505   -1.7461  -12.7201 C   0  0  0  0  0  0  0  0  0  0  0  0
  -24.0785   -2.5023  -11.9826 O   0  0  0  0  0  0  0  0  0  0  0  0
  -25.5514   -1.4147  -10.2617 O   0  0  0  0  0  0  0  0  0  0  0  0
  -13.3662    1.8581  -18.0789 N   0  0  0  0  0  0  0  0  0  0  0  0
  -13.0323    0.9141  -19.1314 C   0  0  0  0  0  0  0  0  0  0  0  0
  -13.4301   -0.4629  -19.0558 C   0  0  0  0  0  0  0  0  0  0  0  0
  -13.0142   -1.4665  -19.9164 C   0  0  0  0  0  0  0  0  0  0  0  0
  -12.2868   -1.0940  -21.0216 C   0  0  0  0  0  0  0  0  0  0  0  0
  -12.0105    0.2643  -21.2518 C   0  0  0  0  0  0  0  0  0  0  0  0
  -12.3333    1.2499  -20.2832 C   0  0  0  0  0  0  0  0  0  0  0  0
  -13.2993   -2.8022  -19.7879 O   0  0  0  0  0  0  0  0  0  0  0  0
  -13.3173   -3.3408  -18.4639 C   0  0  0  0  0  0  0  0  0  0  0  0
  -11.4338    0.7376  -22.4043 O   0  0  0  0  0  0  0  0  0  0  0  0
  -11.3927    2.1577  -22.5360 C   0  0  0  0  0  0  0  0  0  0  0  0
  -12.0615    2.3372  -17.3924 C   0  0  0  0  0  0  0  0  0  0  0  0
  -11.3816    1.2285  -16.5625 C   0  0  0  0  0  0  0  0  0  0  0  0
  -11.9027    2.6289  -14.7049 C   0  0  0  0  0  0  0  0  0  0  0  0
  -11.7686    1.2389  -15.1369 N   0  0  0  0  0  0  0  0  0  0  0  0
  -12.6709    0.7725  -15.0223 H   0  0  0  0  0  0  0  0  0  0  0  0
 35 36  1  0  0  0
 36 34  1  0  0  0
 36 37  1  0  0  0
 34 33  1  0  0  0
 33 22  1  0  0  0
 22 23  1  0  0  0
 22  1  1  0  0  0
 23 24  1  0  0  0
 23 28  2  0  0  0
 24 25  2  0  0  0
 25 29  1  0  0  0
 25 26  1  0  0  0
 29 30  1  0  0  0
 26 27  2  0  0  0
 27 31  1  0  0  0
 27 28  1  0  0  0
 31 32  1  0  0  0
  1  2  1  0  0  0
  1 10  2  0  0  0
  2  3  2  0  0  0
  3  4  1  0  0  0
  4  5  1  0  0  0
  4  9  2  0  0  0
  5  6  2  0  0  0
  6  7  1  0  0  0
  7 11  1  0  0  0
  7  8  2  0  0  0
 11 12  1  0  0  0
 11 15  2  0  0  0
 12 13  2  0  0  0
 13 14  1  0  0  0
 14 16  1  0  0  0
 14 15  1  0  0  0
 16 17  1  0  0  0
 17 18  1  0  0  0
 18 19  1  0  0  0
 18 20  2  0  0  0
 18 21  2  0  0  0
  8  9  1  0  0  0
  9 10  1  0  0  0
M  END
> <minimizedAffinity>
-6.63866

$$$$
