CHEMBL69868


 31 35  0  0  0  0  0  0  0  0999 V2000
  -28.6579   -6.7729   -8.3713 C   0  0  0  0  0  0  0  0  0  0  0  0
  -28.5812   -7.6659   -7.1690 C   0  0  0  0  0  0  0  0  0  0  0  0
  -28.6642   -7.3914   -5.8003 C   0  0  0  0  0  0  0  0  0  0  0  0
  -28.4653   -8.6360   -5.0999 C   0  0  0  0  0  0  0  0  0  0  0  0
  -28.4114   -9.0857   -3.7604 C   0  0  0  0  0  0  0  0  0  0  0  0
  -28.6059   -8.2942   -2.6351 N   0  0  0  0  0  0  0  0  0  0  0  0
  -28.1563  -10.3864   -3.5075 N   0  0  0  0  0  0  0  0  0  0  0  0
  -27.9787  -11.2120   -4.5447 C   0  0  0  0  0  0  0  0  0  0  0  0
  -28.0288  -10.9162   -5.8501 N   0  0  0  0  0  0  0  0  0  0  0  0
  -28.2726   -9.6129   -6.0703 C   0  0  0  0  0  0  0  0  0  0  0  0
  -28.3663   -9.0300   -7.3101 N   0  0  0  0  0  0  0  0  0  0  0  0
  -29.2982   -7.5671   -2.7595 H   0  0  0  0  0  0  0  0  0  0  0  0
  -28.7247   -8.8787   -1.8158 H   0  0  0  0  0  0  0  0  0  0  0  0
  -28.8852   -6.0483   -5.2563 C   0  0  0  0  0  0  0  0  0  0  0  0
  -27.8773   -5.3881   -4.5470 C   0  0  0  0  0  0  0  0  0  0  0  0
  -28.0901   -4.1194   -4.0090 C   0  0  0  0  0  0  0  0  0  0  0  0
  -29.2442   -3.4060   -4.3334 C   0  0  0  0  0  0  0  0  0  0  0  0
  -30.2680   -4.0540   -5.0204 C   0  0  0  0  0  0  0  0  0  0  0  0
  -30.1053   -5.3817   -5.4343 C   0  0  0  0  0  0  0  0  0  0  0  0
  -29.4590   -2.0891   -4.0026 O   0  0  0  0  0  0  0  0  0  0  0  0
  -29.1818   -1.1084   -4.9294 C   0  0  0  0  0  0  0  0  0  0  0  0
  -28.0712   -1.1201   -5.7811 C   0  0  0  0  0  0  0  0  0  0  0  0
  -27.8053   -0.0272   -6.6053 C   0  0  0  0  0  0  0  0  0  0  0  0
  -28.6945    1.0442   -6.6427 C   0  0  0  0  0  0  0  0  0  0  0  0
  -29.8518    1.0187   -5.8636 C   0  0  0  0  0  0  0  0  0  0  0  0
  -30.0939   -0.0538   -5.0048 C   0  0  0  0  0  0  0  0  0  0  0  0
  -28.1703   -9.7060   -8.5781 C   0  0  0  0  0  0  0  0  0  0  0  0
  -27.0463   -9.2087   -9.4856 C   0  0  0  0  0  0  0  0  0  0  0  0
  -27.3510   -9.8741  -10.8308 C   0  0  0  0  0  0  0  0  0  0  0  0
  -28.8273  -10.2841  -10.7927 C   0  0  0  0  0  0  0  0  0  0  0  0
  -29.3874   -9.7080   -9.4986 C   0  0  0  0  0  0  0  0  0  0  0  0
  1  2  1  0  0  0
  2  3  2  0  0  0
  2 11  1  0  0  0
  3 14  1  0  0  0
  3  4  1  0  0  0
 14 15  1  0  0  0
 14 19  2  0  0  0
 15 16  2  0  0  0
 16 17  1  0  0  0
 17 20  1  0  0  0
 17 18  2  0  0  0
 20 21  1  0  0  0
 21 22  1  0  0  0
 21 26  2  0  0  0
 22 23  2  0  0  0
 23 24  1  0  0  0
 24 25  2  0  0  0
 25 26  1  0  0  0
 18 19  1  0  0  0
  4  5  1  0  0  0
  4 10  2  0  0  0
  5  6  1  0  0  0
  5  7  2  0  0  0
  6 12  1  0  0  0
  6 13  1  0  0  0
  7  8  1  0  0  0
  8  9  2  0  0  0
  9 10  1  0  0  0
 10 11  1  0  0  0
 11 27  1  0  0  0
 27 28  1  0  0  0
 27 31  1  0  0  0
 28 29  1  0  0  0
 29 30  1  0  0  0
 30 31  1  0  0  0
M  END
> <minimizedAffinity>
-8.93875

$$$$
