CHEMBL358728


 34 37  0  0  0  0  0  0  0  0999 V2000
  -23.8322   -0.3132  -13.3273 C   0  0  0  0  0  0  0  0  0  0  0  0
  -22.7870   -1.1689  -13.7593 C   0  0  0  0  0  0  0  0  0  0  0  0
  -21.5647   -0.6752  -14.2190 C   0  0  0  0  0  0  0  0  0  0  0  0
  -21.3923    0.6943  -14.2687 C   0  0  0  0  0  0  0  0  0  0  0  0
  -22.4183    1.5518  -13.8829 C   0  0  0  0  0  0  0  0  0  0  0  0
  -23.6272    1.0818  -13.4037 C   0  0  0  0  0  0  0  0  0  0  0  0
  -22.0301    2.8779  -14.0505 N   0  0  0  0  0  0  0  0  0  0  0  0
  -20.7358    2.9671  -14.5473 C   0  0  0  0  0  0  0  0  0  0  0  0
  -20.1336    3.9862  -14.8273 O   0  0  0  0  0  0  0  0  0  0  0  0
  -20.2584    1.5408  -14.6630 C   0  0  0  0  0  0  0  0  0  0  0  0
  -19.0729    1.0037  -14.9800 C   0  0  0  0  0  0  0  0  0  0  0  0
  -22.6030    3.6876  -13.8665 H   0  0  0  0  0  0  0  0  0  0  0  0
  -17.8453    1.6315  -15.3063 C   0  0  0  0  0  0  0  0  0  0  0  0
  -17.7811    2.8069  -16.0022 N   0  0  0  0  0  0  0  0  0  0  0  0
  -16.4782    3.2077  -16.1415 C   0  0  0  0  0  0  0  0  0  0  0  0
  -16.1648    4.4815  -16.8409 C   0  0  0  0  0  0  0  0  0  0  0  0
  -15.6637    2.2462  -15.5576 C   0  0  0  0  0  0  0  0  0  0  0  0
  -16.5408    1.2428  -15.0209 C   0  0  0  0  0  0  0  0  0  0  0  0
  -16.1617   -0.0021  -14.2869 C   0  0  0  0  0  0  0  0  0  0  0  0
  -18.5832    3.3185  -16.3602 H   0  0  0  0  0  0  0  0  0  0  0  0
  -14.1618    2.2404  -15.5126 C   0  0  0  0  0  0  0  0  0  0  0  0
  -13.6018    2.8128  -14.2146 C   0  0  0  0  0  0  0  0  0  0  0  0
  -13.0115    1.7329  -13.3446 C   0  0  0  0  0  0  0  0  0  0  0  0
  -12.6781    0.6201  -13.7178 O   0  0  0  0  0  0  0  0  0  0  0  0
  -12.8804    2.1312  -12.0563 O   0  0  0  0  0  0  0  0  0  0  0  0
  -13.1847    3.0455  -11.8990 H   0  0  0  0  0  0  0  0  0  0  0  0
  -26.4977   -1.4838  -10.8691 C   0  0  0  0  0  0  0  0  0  0  0  0
  -27.5140   -1.8810  -11.7325 C   0  0  0  0  0  0  0  0  0  0  0  0
  -27.3257   -1.7971  -13.1115 C   0  0  0  0  0  0  0  0  0  0  0  0
  -26.1250   -1.3087  -13.6314 C   0  0  0  0  0  0  0  0  0  0  0  0
  -25.0887   -0.8799  -12.7877 C   0  0  0  0  0  0  0  0  0  0  0  0
  -25.3003   -0.9933  -11.4000 C   0  0  0  0  0  0  0  0  0  0  0  0
  -27.6759   -2.1470   -8.9193 C   0  0  0  0  0  0  0  0  0  0  0  0
  -26.5410   -1.5202   -9.5024 O   0  0  0  0  0  0  0  0  0  0  0  0
 33 34  1  0  0  0
 34 27  1  0  0  0
 27 28  1  0  0  0
 27 32  2  0  0  0
 28 29  2  0  0  0
 29 30  1  0  0  0
 30 31  2  0  0  0
 31  1  1  0  0  0
 31 32  1  0  0  0
  1  2  1  0  0  0
  1  6  2  0  0  0
  2  3  2  0  0  0
  3  4  1  0  0  0
  4  5  2  0  0  0
  4 10  1  0  0  0
  5  6  1  0  0  0
  5  7  1  0  0  0
  7  8  1  0  0  0
  7 12  1  0  0  0
  8  9  2  0  0  0
  8 10  1  0  0  0
 10 11  2  0  0  0
 11 13  1  0  0  0
 13 14  1  0  0  0
 13 18  2  0  0  0
 14 15  1  0  0  0
 14 20  1  0  0  0
 15 16  1  0  0  0
 15 17  2  0  0  0
 17 21  1  0  0  0
 17 18  1  0  0  0
 21 22  1  0  0  0
 22 23  1  0  0  0
 23 24  2  0  0  0
 23 25  1  0  0  0
 25 26  1  0  0  0
 18 19  1  0  0  0
M  END
> <minimizedAffinity>
-10.61467

$$$$
