CHEMBL3690533


 34 37  0  0  0  0  0  0  0  0999 V2000
  -28.9465   -4.4809   -6.2085 C   0  0  0  0  0  0  0  0  0  0  0  0
  -28.6896   -4.9294   -7.5862 C   0  0  0  0  0  0  0  0  0  0  0  0
  -28.2492   -4.0615   -8.5127 C   0  0  0  0  0  0  0  0  0  0  0  0
  -28.0054   -2.7328   -8.1591 N   0  0  0  0  0  0  0  0  0  0  0  0
  -27.5029   -1.6584   -8.8862 C   0  0  0  0  0  0  0  0  0  0  0  0
  -27.5693   -0.5956   -7.9939 C   0  0  0  0  0  0  0  0  0  0  0  0
  -28.0391   -0.9694   -6.7684 N   0  0  0  0  0  0  0  0  0  0  0  0
  -28.2719   -2.2553   -6.8782 C   0  0  0  0  0  0  0  0  0  0  0  0
  -28.7367   -3.1780   -5.9028 C   0  0  0  0  0  0  0  0  0  0  0  0
  -28.9498   -7.3511   -3.9772 C   0  0  0  0  0  0  0  0  0  0  0  0
  -30.0069   -7.2021   -3.1695 N   0  0  0  0  0  0  0  0  0  0  0  0
  -30.7703   -6.1232   -3.3915 C   0  0  0  0  0  0  0  0  0  0  0  0
  -30.5116   -5.2048   -4.3733 C   0  0  0  0  0  0  0  0  0  0  0  0
  -29.3784   -5.4238   -5.1398 C   0  0  0  0  0  0  0  0  0  0  0  0
  -28.5945   -6.5098   -4.9620 N   0  0  0  0  0  0  0  0  0  0  0  0
  -27.0705   -8.6051   -4.5738 C   0  0  0  0  0  0  0  0  0  0  0  0
  -28.2054   -8.4835   -3.7308 O   0  0  0  0  0  0  0  0  0  0  0  0
  -27.0449   -1.6485  -10.2826 C   0  0  0  0  0  0  0  0  0  0  0  0
  -27.9878   -1.8648  -11.2982 C   0  0  0  0  0  0  0  0  0  0  0  0
  -27.6090   -1.8542  -12.6355 C   0  0  0  0  0  0  0  0  0  0  0  0
  -26.2806   -1.6217  -12.9815 C   0  0  0  0  0  0  0  0  0  0  0  0
  -25.3197   -1.3630  -12.0032 C   0  0  0  0  0  0  0  0  0  0  0  0
  -25.7141   -1.3764  -10.6547 C   0  0  0  0  0  0  0  0  0  0  0  0
  -23.9650   -1.0816  -12.3081 N   0  0  0  0  0  0  0  0  0  0  0  0
  -23.4710    0.1077  -12.7915 C   0  0  0  0  0  0  0  0  0  0  0  0
  -24.1092    1.1326  -13.0195 O   0  0  0  0  0  0  0  0  0  0  0  0
  -22.1234    0.0615  -13.0653 N   0  0  0  0  0  0  0  0  0  0  0  0
  -23.2956   -1.8186  -12.1408 H   0  0  0  0  0  0  0  0  0  0  0  0
  -21.5572   -0.5711  -12.5192 H   0  0  0  0  0  0  0  0  0  0  0  0
  -21.4807    1.2918  -13.5544 C   0  0  0  0  0  0  0  0  0  0  0  0
  -20.4156    1.1155  -14.6486 C   0  0  0  0  0  0  0  0  0  0  0  0
  -20.4952   -0.0925  -15.2511 F   0  0  0  0  0  0  0  0  0  0  0  0
  -20.5987    2.0478  -15.6182 F   0  0  0  0  0  0  0  0  0  0  0  0
  -19.1612    1.2714  -14.1774 F   0  0  0  0  0  0  0  0  0  0  0  0
 16 17  1  0  0  0
 17 10  1  0  0  0
 10 11  1  0  0  0
 10 15  2  0  0  0
 11 12  2  0  0  0
 12 13  1  0  0  0
 13 14  2  0  0  0
 14  1  1  0  0  0
 14 15  1  0  0  0
  1  2  1  0  0  0
  1  9  2  0  0  0
  2  3  2  0  0  0
  3  4  1  0  0  0
  4  5  1  0  0  0
  4  8  1  0  0  0
  5 18  1  0  0  0
  5  6  2  0  0  0
 18 19  1  0  0  0
 18 23  2  0  0  0
 19 20  2  0  0  0
 20 21  1  0  0  0
 21 22  2  0  0  0
 22 24  1  0  0  0
 22 23  1  0  0  0
 24 25  1  0  0  0
 24 28  1  0  0  0
 25 26  2  0  0  0
 25 27  1  0  0  0
 27 30  1  0  0  0
 27 29  1  0  0  0
 30 31  1  0  0  0
 31 32  1  0  0  0
 31 33  1  0  0  0
 31 34  1  0  0  0
  6  7  1  0  0  0
  7  8  2  0  0  0
  8  9  1  0  0  0
M  END
> <minimizedAffinity>
-9.30946

$$$$
