CHEMBL219729


 24 26  0  0  0  0  0  0  0  0999 V2000
  -30.4331   -9.2494   -8.4148 C   0  0  0  0  0  0  0  0  0  0  0  0
  -31.6189   -9.9761   -8.3688 C   0  0  0  0  0  0  0  0  0  0  0  0
  -31.7287  -11.2745   -8.8648 N   0  0  0  0  0  0  0  0  0  0  0  0
  -32.7201   -9.5400   -7.7345 N   0  0  0  0  0  0  0  0  0  0  0  0
  -32.6371   -8.3368   -7.1588 C   0  0  0  0  0  0  0  0  0  0  0  0
  -31.5637   -7.5488   -7.1543 N   0  0  0  0  0  0  0  0  0  0  0  0
  -30.4490   -8.0365   -7.7535 C   0  0  0  0  0  0  0  0  0  0  0  0
  -31.2665  -11.3720   -9.7698 H   0  0  0  0  0  0  0  0  0  0  0  0
  -32.6996  -11.5691   -8.8492 H   0  0  0  0  0  0  0  0  0  0  0  0
  -29.3409  -10.0351  -10.4117 N   0  0  0  0  0  0  0  0  0  0  0  0
  -29.2525   -9.7382   -9.1507 C   0  0  0  0  0  0  0  0  0  0  0  0
  -27.1154   -9.5387  -10.5088 C   0  0  0  0  0  0  0  0  0  0  0  0
  -28.1074  -10.4898  -10.8899 O   0  0  0  0  0  0  0  0  0  0  0  0
  -29.2868   -7.2614   -7.6945 O   0  0  0  0  0  0  0  0  0  0  0  0
  -29.3705   -6.0759   -6.9775 C   0  0  0  0  0  0  0  0  0  0  0  0
  -29.9172   -4.9215   -7.5406 C   0  0  0  0  0  0  0  0  0  0  0  0
  -29.8686   -3.6968   -6.8736 C   0  0  0  0  0  0  0  0  0  0  0  0
  -29.3155   -3.6747   -5.5879 C   0  0  0  0  0  0  0  0  0  0  0  0
  -28.8663   -4.8360   -4.9512 C   0  0  0  0  0  0  0  0  0  0  0  0
  -28.4457   -4.4498   -3.6441 C   0  0  0  0  0  0  0  0  0  0  0  0
  -28.5876   -3.0811   -3.5386 C   0  0  0  0  0  0  0  0  0  0  0  0
  -29.0750   -2.6202   -4.7306 N   0  0  0  0  0  0  0  0  0  0  0  0
  -29.2535   -1.2257   -5.0699 C   0  0  0  0  0  0  0  0  0  0  0  0
  -28.8949   -6.0616   -5.6582 C   0  0  0  0  0  0  0  0  0  0  0  0
 12 13  1  0  0  0
 13 10  1  0  0  0
 10 11  2  0  0  0
 11  1  1  0  0  0
  1  2  1  0  0  0
  1  7  2  0  0  0
  2  3  1  0  0  0
  2  4  2  0  0  0
  3  8  1  0  0  0
  3  9  1  0  0  0
  4  5  1  0  0  0
  5  6  2  0  0  0
  6  7  1  0  0  0
  7 14  1  0  0  0
 14 15  1  0  0  0
 15 16  1  0  0  0
 15 24  2  0  0  0
 16 17  2  0  0  0
 17 18  1  0  0  0
 18 19  2  0  0  0
 18 22  1  0  0  0
 19 20  1  0  0  0
 19 24  1  0  0  0
 20 21  2  0  0  0
 21 22  1  0  0  0
 22 23  1  0  0  0
M  END
> <minimizedAffinity>
-7.67724

$$$$
