CHEMBL3671528


 38 40  0  0  0  0  0  0  0  0999 V2000
  -17.9167    1.0016  -15.0607 C   0  0  0  0  0  0  0  0  0  0  0  0
  -19.2152    0.5802  -14.7600 C   0  0  0  0  0  0  0  0  0  0  0  0
  -20.2729    1.4900  -14.6026 C   0  0  0  0  0  0  0  0  0  0  0  0
  -21.5846    1.1120  -14.2695 C   0  0  0  0  0  0  0  0  0  0  0  0
  -22.5727    2.0104  -14.1589 N   0  0  0  0  0  0  0  0  0  0  0  0
  -22.2306    3.2921  -14.3188 C   0  0  0  0  0  0  0  0  0  0  0  0
  -21.0097    3.7602  -14.6271 N   0  0  0  0  0  0  0  0  0  0  0  0
  -20.0374    2.8541  -14.7810 C   0  0  0  0  0  0  0  0  0  0  0  0
  -18.7465    3.2588  -15.1404 C   0  0  0  0  0  0  0  0  0  0  0  0
  -17.6839    2.3546  -15.3322 C   0  0  0  0  0  0  0  0  0  0  0  0
  -16.1133   -0.0484  -13.8395 C   0  0  0  0  0  0  0  0  0  0  0  0
  -16.2599    0.6254  -12.8253 O   0  0  0  0  0  0  0  0  0  0  0  0
  -16.9083    0.0177  -14.9734 N   0  0  0  0  0  0  0  0  0  0  0  0
  -16.5617   -0.4109  -15.8134 H   0  0  0  0  0  0  0  0  0  0  0  0
  -13.9137   -0.6374  -14.7144 C   0  0  0  0  0  0  0  0  0  0  0  0
  -14.9769   -0.9934  -13.9812 C   0  0  0  0  0  0  0  0  0  0  0  0
  -21.8684   -0.2533  -14.0387 N   0  0  0  0  0  0  0  0  0  0  0  0
  -21.0171   -0.8095  -14.0097 H   0  0  0  0  0  0  0  0  0  0  0  0
  -22.9471   -0.8360  -13.3466 C   0  0  0  0  0  0  0  0  0  0  0  0
  -22.8559   -1.1898  -11.9958 C   0  0  0  0  0  0  0  0  0  0  0  0
  -23.9953   -1.5622  -11.2753 C   0  0  0  0  0  0  0  0  0  0  0  0
  -25.2369   -1.5962  -11.9080 C   0  0  0  0  0  0  0  0  0  0  0  0
  -26.7902   -1.9722  -10.8991 Br  0  0  0  0  0  0  0  0  0  0  0  0
  -25.3458   -1.3103  -13.2644 C   0  0  0  0  0  0  0  0  0  0  0  0
  -24.2052   -0.9277  -13.9648 C   0  0  0  0  0  0  0  0  0  0  0  0
  -24.3239   -0.6085  -15.2638 F   0  0  0  0  0  0  0  0  0  0  0  0
  -16.4918    2.9589  -15.6563 O   0  0  0  0  0  0  0  0  0  0  0  0
  -16.5722    4.3022  -16.1297 C   0  0  0  0  0  0  0  0  0  0  0  0
  -15.2309    4.7790  -16.6984 C   0  0  0  0  0  0  0  0  0  0  0  0
  -14.1697    4.6980  -15.7026 N   0  0  0  0  0  0  0  0  0  0  0  0
  -12.9401    5.2835  -15.9330 C   0  0  0  0  0  0  0  0  0  0  0  0
  -12.7186    6.0113  -16.9059 O   0  0  0  0  0  0  0  0  0  0  0  0
  -14.2027    3.9733  -14.9937 H   0  0  0  0  0  0  0  0  0  0  0  0
  -11.8516    4.9280  -14.9158 C   0  0  0  0  0  0  0  0  0  0  0  0
  -11.8722    3.4759  -14.5811 N   0  0  0  0  0  0  0  0  0  0  0  0
  -10.6968    2.8060  -15.1586 C   0  0  0  0  0  0  0  0  0  0  0  0
  -11.8719    3.3403  -13.1061 C   0  0  0  0  0  0  0  0  0  0  0  0
  -12.3463    1.9785  -12.6040 C   0  0  0  0  0  0  0  0  0  0  0  0
 15 16  2  0  0  0
 16 11  1  0  0  0
 11 12  2  0  0  0
 11 13  1  0  0  0
 13  1  1  0  0  0
 13 14  1  0  0  0
  1  2  1  0  0  0
  1 10  2  0  0  0
  2  3  2  0  0  0
  3  4  1  0  0  0
  3  8  1  0  0  0
  4 17  1  0  0  0
  4  5  2  0  0  0
 17 19  1  0  0  0
 17 18  1  0  0  0
 19 20  1  0  0  0
 19 25  2  0  0  0
 20 21  2  0  0  0
 21 22  1  0  0  0
 22 23  1  0  0  0
 22 24  2  0  0  0
 24 25  1  0  0  0
 25 26  1  0  0  0
  5  6  1  0  0  0
  6  7  2  0  0  0
  7  8  1  0  0  0
  8  9  2  0  0  0
  9 10  1  0  0  0
 10 27  1  0  0  0
 27 28  1  0  0  0
 28 29  1  0  0  0
 29 30  1  0  0  0
 30 31  1  0  0  0
 30 33  1  0  0  0
 31 32  2  0  0  0
 31 34  1  0  0  0
 34 35  1  0  0  0
 35 36  1  0  0  0
 35 37  1  0  0  0
 37 38  1  0  0  0
M  END
> <minimizedAffinity>
-8.79708

$$$$
