CHEMBL3753353


 32 36  0  0  0  0  0  0  0  0999 V2000
  -26.1580   -0.4672  -11.9861 N   0  0  0  0  0  0  0  0  0  0  0  0
  -25.4666   -0.6888  -10.6709 C   0  0  0  0  0  0  0  0  0  0  0  0
  -25.8861   -1.9662   -9.8773 C   0  0  0  0  0  0  0  0  0  0  0  0
  -27.3422   -1.9244   -9.7436 N   0  0  0  0  0  0  0  0  0  0  0  0
  -28.0220   -1.9810  -11.0406 C   0  0  0  0  0  0  0  0  0  0  0  0
  -27.6208   -0.6919  -11.8058 C   0  0  0  0  0  0  0  0  0  0  0  0
  -27.9330   -2.4927   -8.6226 C   0  0  0  0  0  0  0  0  0  0  0  0
  -28.1419   -3.8242   -8.5981 N   0  0  0  0  0  0  0  0  0  0  0  0
  -28.6967   -4.4367   -7.4984 N   0  0  0  0  0  0  0  0  0  0  0  0
  -29.0031   -3.7315   -6.3833 C   0  0  0  0  0  0  0  0  0  0  0  0
  -28.7162   -2.3467   -6.3094 C   0  0  0  0  0  0  0  0  0  0  0  0
  -28.8724   -1.5451   -5.1405 C   0  0  0  0  0  0  0  0  0  0  0  0
  -28.6747   -0.1644   -5.1345 C   0  0  0  0  0  0  0  0  0  0  0  0
  -28.2220    0.4569   -6.2776 C   0  0  0  0  0  0  0  0  0  0  0  0
  -27.9467   -0.3160   -7.4013 C   0  0  0  0  0  0  0  0  0  0  0  0
  -28.2083   -1.7123   -7.4696 C   0  0  0  0  0  0  0  0  0  0  0  0
  -29.6806   -4.5386   -5.3303 C   0  0  0  0  0  0  0  0  0  0  0  0
  -29.1021   -5.7263   -4.8394 C   0  0  0  0  0  0  0  0  0  0  0  0
  -29.7324   -6.4993   -3.8555 C   0  0  0  0  0  0  0  0  0  0  0  0
  -30.9490   -6.0913   -3.3182 C   0  0  0  0  0  0  0  0  0  0  0  0
  -31.5570   -4.9385   -3.7968 C   0  0  0  0  0  0  0  0  0  0  0  0
  -30.9473   -4.2002   -4.8151 C   0  0  0  0  0  0  0  0  0  0  0  0
  -25.5593   -1.3766  -12.9830 C   0  0  0  0  0  0  0  0  0  0  0  0
  -24.5715   -0.8501  -15.0776 O   0  0  0  0  0  0  0  0  0  0  0  0
  -24.5002   -0.7117  -13.8563 C   0  0  0  0  0  0  0  0  0  0  0  0
  -23.5335   -0.0132  -13.1619 N   0  0  0  0  0  0  0  0  0  0  0  0
  -23.6754    0.1931  -12.1828 H   0  0  0  0  0  0  0  0  0  0  0  0
  -22.4900    0.5712  -13.8321 C   0  0  0  0  0  0  0  0  0  0  0  0
  -21.4619   -0.0193  -14.3790 N   0  0  0  0  0  0  0  0  0  0  0  0
  -20.6577    0.9138  -14.9908 C   0  0  0  0  0  0  0  0  0  0  0  0
  -21.0897    2.2183  -14.8887 C   0  0  0  0  0  0  0  0  0  0  0  0
  -22.5407    2.2712  -13.9618 S   0  0  0  0  0  0  0  0  0  0  0  0
 24 25  2  0  0  0
 25 23  1  0  0  0
 25 26  1  0  0  0
 23  1  1  0  0  0
  1  2  1  0  0  0
  1  6  1  0  0  0
  2  3  1  0  0  0
  3  4  1  0  0  0
  4  7  1  0  0  0
  4  5  1  0  0  0
  7  8  1  0  0  0
  7 16  2  0  0  0
  8  9  2  0  0  0
  9 10  1  0  0  0
 10 17  1  0  0  0
 10 11  2  0  0  0
 17 18  1  0  0  0
 17 22  2  0  0  0
 18 19  2  0  0  0
 19 20  1  0  0  0
 20 21  2  0  0  0
 21 22  1  0  0  0
 11 12  1  0  0  0
 11 16  1  0  0  0
 12 13  2  0  0  0
 13 14  1  0  0  0
 14 15  2  0  0  0
 15 16  1  0  0  0
  5  6  1  0  0  0
 26 28  1  0  0  0
 26 27  1  0  0  0
 28 29  2  0  0  0
 28 32  1  0  0  0
 29 30  1  0  0  0
 30 31  2  0  0  0
 31 32  1  0  0  0
M  END
> <minimizedAffinity>
-7.70580

$$$$
