CHEMBL3690428


 37 40  0  0  0  0  0  0  0  0999 V2000
  -29.9045   -6.8351   -6.1271 C   0  0  0  0  0  0  0  0  0  0  0  0
  -29.3360   -5.8761   -7.0500 C   0  0  0  0  0  0  0  0  0  0  0  0
  -29.3470   -4.5780   -6.7114 C   0  0  0  0  0  0  0  0  0  0  0  0
  -29.8561   -4.1798   -5.4664 N   0  0  0  0  0  0  0  0  0  0  0  0
  -29.9358   -2.9306   -4.8629 C   0  0  0  0  0  0  0  0  0  0  0  0
  -30.5514   -3.1793   -3.6476 C   0  0  0  0  0  0  0  0  0  0  0  0
  -30.8441   -4.5045   -3.4751 N   0  0  0  0  0  0  0  0  0  0  0  0
  -30.4097   -5.0975   -4.5640 C   0  0  0  0  0  0  0  0  0  0  0  0
  -30.4250   -6.4661   -4.9411 C   0  0  0  0  0  0  0  0  0  0  0  0
  -29.4222   -1.6622   -5.3942 C   0  0  0  0  0  0  0  0  0  0  0  0
  -29.8956   -0.4395   -4.9024 C   0  0  0  0  0  0  0  0  0  0  0  0
  -29.4292    0.7593   -5.4125 C   0  0  0  0  0  0  0  0  0  0  0  0
  -28.5284    0.7544   -6.4675 C   0  0  0  0  0  0  0  0  0  0  0  0
  -28.0577   -0.4388   -7.0178 C   0  0  0  0  0  0  0  0  0  0  0  0
  -28.4968   -1.6518   -6.4593 C   0  0  0  0  0  0  0  0  0  0  0  0
  -27.1825   -0.4646   -8.1374 N   0  0  0  0  0  0  0  0  0  0  0  0
  -27.3465   -1.2648   -9.2516 C   0  0  0  0  0  0  0  0  0  0  0  0
  -28.2912   -2.0108   -9.4879 O   0  0  0  0  0  0  0  0  0  0  0  0
  -26.2892   -1.2174  -10.1218 N   0  0  0  0  0  0  0  0  0  0  0  0
  -26.3455    0.0918   -8.0839 H   0  0  0  0  0  0  0  0  0  0  0  0
  -25.7284   -0.3774  -10.1542 H   0  0  0  0  0  0  0  0  0  0  0  0
  -26.3894   -2.0345  -11.3443 C   0  0  0  0  0  0  0  0  0  0  0  0
  -25.6233   -1.5254  -12.5751 C   0  0  0  0  0  0  0  0  0  0  0  0
  -25.1958   -0.2506  -12.4283 F   0  0  0  0  0  0  0  0  0  0  0  0
  -24.5177   -2.2884  -12.7721 F   0  0  0  0  0  0  0  0  0  0  0  0
  -26.3592   -1.5946  -13.7048 F   0  0  0  0  0  0  0  0  0  0  0  0
  -30.0000   -9.5487   -6.9029 C   0  0  0  0  0  0  0  0  0  0  0  0
  -29.9559   -8.2958   -6.5447 C   0  0  0  0  0  0  0  0  0  0  0  0
  -28.1800  -12.4659  -10.1505 C   0  0  0  0  0  0  0  0  0  0  0  0
  -28.2247  -11.0986   -9.6351 N   0  0  0  0  0  0  0  0  0  0  0  0
  -27.7068  -11.0106   -8.2642 C   0  0  0  0  0  0  0  0  0  0  0  0
  -28.6466  -11.6061   -7.2114 C   0  0  0  0  0  0  0  0  0  0  0  0
  -30.0515  -11.0093   -7.3204 C   0  0  0  0  0  0  0  0  0  0  0  0
  -30.9394  -11.7029   -6.4506 O   0  0  0  0  0  0  0  0  0  0  0  0
  -30.5766  -11.1036   -8.7533 C   0  0  0  0  0  0  0  0  0  0  0  0
  -29.5704  -10.5169   -9.7459 C   0  0  0  0  0  0  0  0  0  0  0  0
  -30.6459  -11.5251   -5.5411 H   0  0  0  0  0  0  0  0  0  0  0  0
 29 30  1  0  0  0
 30 31  1  0  0  0
 30 36  1  0  0  0
 31 32  1  0  0  0
 32 33  1  0  0  0
 33 34  1  0  0  0
 33 27  1  0  0  0
 33 35  1  0  0  0
 34 37  1  0  0  0
 27 28  3  0  0  0
 28  1  1  0  0  0
  1  2  1  0  0  0
  1  9  2  0  0  0
  2  3  2  0  0  0
  3  4  1  0  0  0
  4  5  1  0  0  0
  4  8  1  0  0  0
  5 10  1  0  0  0
  5  6  2  0  0  0
 10 11  1  0  0  0
 10 15  2  0  0  0
 11 12  2  0  0  0
 12 13  1  0  0  0
 13 14  2  0  0  0
 14 16  1  0  0  0
 14 15  1  0  0  0
 16 17  1  0  0  0
 16 20  1  0  0  0
 17 18  2  0  0  0
 17 19  1  0  0  0
 19 22  1  0  0  0
 19 21  1  0  0  0
 22 23  1  0  0  0
 23 24  1  0  0  0
 23 25  1  0  0  0
 23 26  1  0  0  0
  6  7  1  0  0  0
  7  8  2  0  0  0
  8  9  1  0  0  0
 35 36  1  0  0  0
M  END
> <minimizedAffinity>
-8.88360

$$$$
