CHEMBL438797


 32 35  0  0  0  0  0  0  0  0999 V2000
  -29.9285   -5.9988   -5.0885 C   0  0  0  0  0  0  0  0  0  0  0  0
  -28.8024   -6.7975   -4.8751 C   0  0  0  0  0  0  0  0  0  0  0  0
  -28.5841   -7.9459   -5.6410 C   0  0  0  0  0  0  0  0  0  0  0  0
  -29.5320   -8.3855   -6.5719 C   0  0  0  0  0  0  0  0  0  0  0  0
  -30.7197   -7.6444   -6.6840 C   0  0  0  0  0  0  0  0  0  0  0  0
  -30.9125   -6.4496   -5.9635 C   0  0  0  0  0  0  0  0  0  0  0  0
  -29.2668   -9.5636   -7.4255 C   0  0  0  0  0  0  0  0  0  0  0  0
  -29.8401  -10.8101   -7.1540 C   0  0  0  0  0  0  0  0  0  0  0  0
  -30.7822  -11.2807   -6.0860 C   0  0  0  0  0  0  0  0  0  0  0  0
  -29.3450  -12.0081   -8.2752 S   0  0  0  0  0  0  0  0  0  0  0  0
  -28.4033  -10.9112   -9.1497 C   0  0  0  0  0  0  0  0  0  0  0  0
  -27.7489  -11.3462  -10.2395 N   0  0  0  0  0  0  0  0  0  0  0  0
  -27.0441  -10.3851  -10.8272 C   0  0  0  0  0  0  0  0  0  0  0  0
  -26.9280   -9.1140  -10.4304 N   0  0  0  0  0  0  0  0  0  0  0  0
  -27.5842   -8.7155   -9.3229 C   0  0  0  0  0  0  0  0  0  0  0  0
  -27.3538   -7.3906   -8.9706 N   0  0  0  0  0  0  0  0  0  0  0  0
  -28.4016   -9.6290   -8.6164 C   0  0  0  0  0  0  0  0  0  0  0  0
  -26.5727   -7.0354   -9.5122 H   0  0  0  0  0  0  0  0  0  0  0  0
  -27.2781   -7.2471   -7.9708 H   0  0  0  0  0  0  0  0  0  0  0  0
  -29.7994   -2.3966   -4.5554 N   0  0  0  0  0  0  0  0  0  0  0  0
  -29.6757   -3.5901   -5.2458 C   0  0  0  0  0  0  0  0  0  0  0  0
  -29.3267   -3.6840   -6.4218 O   0  0  0  0  0  0  0  0  0  0  0  0
  -30.0313   -4.7104   -4.4946 N   0  0  0  0  0  0  0  0  0  0  0  0
  -30.1757   -2.4328   -3.6212 H   0  0  0  0  0  0  0  0  0  0  0  0
  -30.7954   -4.5692   -3.8500 H   0  0  0  0  0  0  0  0  0  0  0  0
  -27.0113   -1.5078   -5.0289 C   0  0  0  0  0  0  0  0  0  0  0  0
  -28.2183   -0.6666   -5.3265 C   0  0  0  0  0  0  0  0  0  0  0  0
  -27.9987    0.6285   -5.8434 C   0  0  0  0  0  0  0  0  0  0  0  0
  -29.0585    1.4835   -6.1438 C   0  0  0  0  0  0  0  0  0  0  0  0
  -30.3568    1.0471   -5.9524 C   0  0  0  0  0  0  0  0  0  0  0  0
  -30.5903   -0.2368   -5.4602 C   0  0  0  0  0  0  0  0  0  0  0  0
  -29.5406   -1.1071   -5.1117 C   0  0  0  0  0  0  0  0  0  0  0  0
 26 27  1  0  0  0
 27 28  1  0  0  0
 27 32  2  0  0  0
 28 29  2  0  0  0
 29 30  1  0  0  0
 30 31  2  0  0  0
 31 32  1  0  0  0
 32 20  1  0  0  0
 20 21  1  0  0  0
 20 24  1  0  0  0
 21 22  2  0  0  0
 21 23  1  0  0  0
 23  1  1  0  0  0
 23 25  1  0  0  0
  1  2  1  0  0  0
  1  6  2  0  0  0
  2  3  2  0  0  0
  3  4  1  0  0  0
  4  7  1  0  0  0
  4  5  2  0  0  0
  7  8  2  0  0  0
  7 17  1  0  0  0
  8  9  1  0  0  0
  8 10  1  0  0  0
 10 11  1  0  0  0
 11 12  1  0  0  0
 11 17  2  0  0  0
 12 13  2  0  0  0
 13 14  1  0  0  0
 14 15  2  0  0  0
 15 16  1  0  0  0
 15 17  1  0  0  0
 16 18  1  0  0  0
 16 19  1  0  0  0
  5  6  1  0  0  0
M  END
> <minimizedAffinity>
-8.83387

$$$$
