CHEMBL3889965


 44 47  0  0  0  0  0  0  0  0999 V2000
  -28.0592   -2.4951   -9.6019 N   0  0  0  0  0  0  0  0  0  0  0  0
  -26.9097   -1.9559  -10.1618 C   0  0  0  0  0  0  0  0  0  0  0  0
  -26.0488   -1.3548   -9.5245 O   0  0  0  0  0  0  0  0  0  0  0  0
  -26.8406   -2.1410  -11.5377 N   0  0  0  0  0  0  0  0  0  0  0  0
  -28.4148   -3.3259  -10.0549 H   0  0  0  0  0  0  0  0  0  0  0  0
  -27.7350   -2.0938  -12.0068 H   0  0  0  0  0  0  0  0  0  0  0  0
  -25.7156   -1.6347  -12.2407 C   0  0  0  0  0  0  0  0  0  0  0  0
  -25.7537   -1.4815  -13.6333 C   0  0  0  0  0  0  0  0  0  0  0  0
  -24.6044   -1.1398  -14.3499 C   0  0  0  0  0  0  0  0  0  0  0  0
  -23.4122   -0.8762  -13.6736 C   0  0  0  0  0  0  0  0  0  0  0  0
  -23.3858   -1.0161  -12.2827 C   0  0  0  0  0  0  0  0  0  0  0  0
  -22.2357   -0.8423  -11.6140 F   0  0  0  0  0  0  0  0  0  0  0  0
  -24.5306   -1.3675  -11.5582 C   0  0  0  0  0  0  0  0  0  0  0  0
  -22.2327   -0.5443  -14.3103 O   0  0  0  0  0  0  0  0  0  0  0  0
  -21.8504    0.7806  -14.3873 C   0  0  0  0  0  0  0  0  0  0  0  0
  -22.5781    1.8200  -13.8115 C   0  0  0  0  0  0  0  0  0  0  0  0
  -22.1195    3.1007  -14.0010 C   0  0  0  0  0  0  0  0  0  0  0  0
  -20.9801    3.3931  -14.6520 N   0  0  0  0  0  0  0  0  0  0  0  0
  -20.2346    2.3909  -15.1471 C   0  0  0  0  0  0  0  0  0  0  0  0
  -20.6380    1.0638  -15.0375 C   0  0  0  0  0  0  0  0  0  0  0  0
  -19.0184    2.6943  -15.7858 N   0  0  0  0  0  0  0  0  0  0  0  0
  -17.7893    2.2345  -15.3495 C   0  0  0  0  0  0  0  0  0  0  0  0
  -17.5551    1.5479  -14.3622 O   0  0  0  0  0  0  0  0  0  0  0  0
  -19.0525    3.2791  -16.6068 H   0  0  0  0  0  0  0  0  0  0  0  0
  -16.6339    2.6720  -16.1991 C   0  0  0  0  0  0  0  0  0  0  0  0
  -15.4161    3.2924  -15.5396 C   0  0  0  0  0  0  0  0  0  0  0  0
  -16.3462    4.1508  -16.3447 C   0  0  0  0  0  0  0  0  0  0  0  0
  -29.3743   -3.1250   -6.1732 C   0  0  0  0  0  0  0  0  0  0  0  0
  -28.8509   -3.3605   -7.4403 C   0  0  0  0  0  0  0  0  0  0  0  0
  -28.3944   -2.3032   -8.2350 C   0  0  0  0  0  0  0  0  0  0  0  0
  -28.3064   -1.0250   -7.6739 C   0  0  0  0  0  0  0  0  0  0  0  0
  -28.7760   -0.7851   -6.3662 C   0  0  0  0  0  0  0  0  0  0  0  0
  -29.3397   -1.8428   -5.6341 C   0  0  0  0  0  0  0  0  0  0  0  0
  -29.2584   -4.8841   -4.4832 C   0  0  0  0  0  0  0  0  0  0  0  0
  -28.1148   -4.6418   -4.1063 O   0  0  0  0  0  0  0  0  0  0  0  0
  -29.9411   -4.2070   -5.4832 N   0  0  0  0  0  0  0  0  0  0  0  0
  -30.9525   -4.2425   -5.4199 H   0  0  0  0  0  0  0  0  0  0  0  0
  -30.0858   -6.0124   -3.8668 C   0  0  0  0  0  0  0  0  0  0  0  0
  -32.1156   -5.2321   -2.9617 C   0  0  0  0  0  0  0  0  0  0  0  0
  -31.4822   -5.8457   -4.0834 O   0  0  0  0  0  0  0  0  0  0  0  0
  -28.7077    0.5829   -5.7356 C   0  0  0  0  0  0  0  0  0  0  0  0
  -29.8820    0.9739   -5.1652 F   0  0  0  0  0  0  0  0  0  0  0  0
  -27.7700    0.6671   -4.7533 F   0  0  0  0  0  0  0  0  0  0  0  0
  -28.3938    1.5546   -6.6378 F   0  0  0  0  0  0  0  0  0  0  0  0
 39 40  1  0  0  0
 40 38  1  0  0  0
 38 34  1  0  0  0
 34 35  2  0  0  0
 34 36  1  0  0  0
 36 28  1  0  0  0
 36 37  1  0  0  0
 28 29  1  0  0  0
 28 33  2  0  0  0
 29 30  2  0  0  0
 30  1  1  0  0  0
 30 31  1  0  0  0
  1  2  1  0  0  0
  1  5  1  0  0  0
  2  3  2  0  0  0
  2  4  1  0  0  0
  4  7  1  0  0  0
  4  6  1  0  0  0
  7  8  1  0  0  0
  7 13  2  0  0  0
  8  9  2  0  0  0
  9 10  1  0  0  0
 10 14  1  0  0  0
 10 11  2  0  0  0
 14 15  1  0  0  0
 15 16  1  0  0  0
 15 20  2  0  0  0
 16 17  2  0  0  0
 17 18  1  0  0  0
 18 19  2  0  0  0
 19 21  1  0  0  0
 19 20  1  0  0  0
 21 22  1  0  0  0
 21 24  1  0  0  0
 22 23  2  0  0  0
 22 25  1  0  0  0
 25 26  1  0  0  0
 25 27  1  0  0  0
 26 27  1  0  0  0
 11 12  1  0  0  0
 11 13  1  0  0  0
 31 32  2  0  0  0
 32 41  1  0  0  0
 32 33  1  0  0  0
 41 42  1  0  0  0
 41 43  1  0  0  0
 41 44  1  0  0  0
M  END
> <minimizedAffinity>
-12.20131

$$$$
