CHEMBL181856


 26 29  0  0  0  0  0  0  0  0999 V2000
  -27.2791   -2.0890   -9.2960 C   0  0  0  0  0  0  0  0  0  0  0  0
  -27.9723   -3.1859   -8.8168 C   0  0  0  0  0  0  0  0  0  0  0  0
  -28.4162   -2.8534   -7.5069 C   0  0  0  0  0  0  0  0  0  0  0  0
  -29.1826   -3.4381   -6.4972 C   0  0  0  0  0  0  0  0  0  0  0  0
  -29.3916   -2.7368   -5.3647 N   0  0  0  0  0  0  0  0  0  0  0  0
  -28.8647   -1.5065   -5.2527 C   0  0  0  0  0  0  0  0  0  0  0  0
  -28.1211   -0.8478   -6.1479 N   0  0  0  0  0  0  0  0  0  0  0  0
  -27.9386   -1.5754   -7.2563 C   0  0  0  0  0  0  0  0  0  0  0  0
  -27.2425   -1.1194   -8.3348 O   0  0  0  0  0  0  0  0  0  0  0  0
  -29.7041   -4.7250   -6.6828 N   0  0  0  0  0  0  0  0  0  0  0  0
  -29.1736   -5.8785   -6.1629 C   0  0  0  0  0  0  0  0  0  0  0  0
  -28.1981   -5.9377   -5.4172 O   0  0  0  0  0  0  0  0  0  0  0  0
  -29.8424   -7.0335   -6.5277 N   0  0  0  0  0  0  0  0  0  0  0  0
  -30.9853   -7.2082   -7.4058 C   0  0  0  0  0  0  0  0  0  0  0  0
  -31.5371   -8.5687   -7.0158 C   0  0  0  0  0  0  0  0  0  0  0  0
  -30.2916   -9.3638   -6.6484 C   0  0  0  0  0  0  0  0  0  0  0  0
  -29.3290   -8.3224   -6.0889 C   0  0  0  0  0  0  0  0  0  0  0  0
  -30.5838   -4.7896   -7.1555 H   0  0  0  0  0  0  0  0  0  0  0  0
  -25.3645   -1.2636  -13.0433 C   0  0  0  0  0  0  0  0  0  0  0  0
  -24.6809   -1.0771  -11.8438 C   0  0  0  0  0  0  0  0  0  0  0  0
  -25.3217   -1.3238  -10.6220 C   0  0  0  0  0  0  0  0  0  0  0  0
  -26.6530   -1.7638  -10.5748 C   0  0  0  0  0  0  0  0  0  0  0  0
  -27.3372   -1.9201  -11.7871 C   0  0  0  0  0  0  0  0  0  0  0  0
  -26.6975   -1.6735  -13.0074 C   0  0  0  0  0  0  0  0  0  0  0  0
  -23.6063   -0.3985  -14.3870 C   0  0  0  0  0  0  0  0  0  0  0  0
  -24.8489   -1.0847  -14.2966 O   0  0  0  0  0  0  0  0  0  0  0  0
 25 26  1  0  0  0
 26 19  1  0  0  0
 19 20  1  0  0  0
 19 24  2  0  0  0
 20 21  2  0  0  0
 21 22  1  0  0  0
 22  1  1  0  0  0
 22 23  2  0  0  0
  1  2  2  0  0  0
  1  9  1  0  0  0
  2  3  1  0  0  0
  3  4  1  0  0  0
  3  8  2  0  0  0
  4 10  1  0  0  0
  4  5  2  0  0  0
 10 11  1  0  0  0
 10 18  1  0  0  0
 11 12  2  0  0  0
 11 13  1  0  0  0
 13 14  1  0  0  0
 13 17  1  0  0  0
 14 15  1  0  0  0
 15 16  1  0  0  0
 16 17  1  0  0  0
  5  6  1  0  0  0
  6  7  2  0  0  0
  7  8  1  0  0  0
  8  9  1  0  0  0
 23 24  1  0  0  0
M  END
> <minimizedAffinity>
-8.79161

$$$$
