CHEMBL416056


 37 44  0  0  0  0  0  0  0  0999 V2000
  -13.5076   -7.4705  -12.3182 C   0  0  0  0  0  0  0  0  0  0  0  0
  -13.3487   -6.9270  -10.9949 O   0  0  0  0  0  0  0  0  0  0  0  0
  -14.9414   -7.3044  -13.0643 C   0  0  0  0  0  0  0  0  0  0  0  0
  -14.6436   -6.9657  -14.6953 C   0  0  0  0  0  0  0  0  0  0  0  0
  -13.3685   -7.4622  -14.5215 O   0  0  0  0  0  0  0  0  0  0  0  0
  -12.8060   -6.6611  -13.3519 C   0  0  0  0  0  0  0  0  0  0  0  0
  -11.3727   -6.8887  -13.8706 C   0  0  0  0  0  0  0  0  0  0  0  0
  -13.3301   -5.2100  -13.1296 N   0  0  0  0  0  0  0  0  0  0  0  0
  -14.1157   -4.3886  -12.1941 C   0  0  0  0  0  0  0  0  0  0  0  0
  -14.9052   -4.6662  -11.0436 C   0  0  0  0  0  0  0  0  0  0  0  0
  -15.7916   -3.7182  -10.4956 C   0  0  0  0  0  0  0  0  0  0  0  0
  -15.9046   -2.4435  -11.0135 C   0  0  0  0  0  0  0  0  0  0  0  0
  -15.1014   -2.0651  -12.0791 C   0  0  0  0  0  0  0  0  0  0  0  0
  -14.2162   -2.9842  -12.6917 C   0  0  0  0  0  0  0  0  0  0  0  0
  -13.4830   -2.9179  -13.8873 C   0  0  0  0  0  0  0  0  0  0  0  0
  -13.4994   -1.9154  -14.8861 C   0  0  0  0  0  0  0  0  0  0  0  0
  -13.0052   -2.3818  -16.1199 C   0  0  0  0  0  0  0  0  0  0  0  0
  -13.2528   -3.7616  -16.2502 C   0  0  0  0  0  0  0  0  0  0  0  0
  -12.6394   -4.7157  -17.0193 C   0  0  0  0  0  0  0  0  0  0  0  0
  -11.4233   -4.7907  -17.7193 C   0  0  0  0  0  0  0  0  0  0  0  0
  -11.2748   -5.8091  -18.6391 C   0  0  0  0  0  0  0  0  0  0  0  0
  -12.3429   -6.6782  -18.8614 C   0  0  0  0  0  0  0  0  0  0  0  0
  -13.4388   -6.7891  -17.9681 C   0  0  0  0  0  0  0  0  0  0  0  0
  -13.4973   -5.9086  -16.8821 C   0  0  0  0  0  0  0  0  0  0  0  0
  -14.2358   -5.8742  -15.6163 N   0  0  0  0  0  0  0  0  0  0  0  0
  -13.7872   -4.6313  -15.3142 C   0  0  0  0  0  0  0  0  0  0  0  0
  -13.3322   -4.2809  -14.0757 C   0  0  0  0  0  0  0  0  0  0  0  0
  -12.9077   -1.3073  -17.0807 C   0  0  0  0  0  0  0  0  0  0  0  0
  -12.5288   -1.2874  -18.2452 O   0  0  0  0  0  0  0  0  0  0  0  0
  -13.4537   -0.2415  -16.3537 N   0  0  0  0  0  0  0  0  0  0  0  0
  -13.9645   -0.5419  -15.0104 C   0  0  0  0  0  0  0  0  0  0  0  0
  -12.4061   -6.6599  -10.8957 H   0  0  0  0  0  0  0  0  0  0  0  0
  -13.6762    0.6018  -16.8597 H   0  0  0  0  0  0  0  0  0  0  0  0
  -12.7786   -8.7942  -12.0889 C   0  0  0  0  0  0  0  0  0  0  0  0
  -13.0585   -9.8021  -12.7473 O   0  0  0  0  0  0  0  0  0  0  0  0
  -10.6965   -9.6782  -11.5828 C   0  0  0  0  0  0  0  0  0  0  0  0
  -11.7236   -8.7333  -11.2361 O   0  0  0  0  0  0  0  0  0  0  0  0
 36 37  1  0  0  0
 37 34  1  0  0  0
 34 35  2  0  0  0
  1  3  1  0  0  0
  1  6  1  0  0  0
  1 34  1  0  0  0
  1  2  1  0  0  0
  2 32  1  0  0  0
  3  4  1  0  0  0
  4  5  1  0  0  0
  4 25  1  0  0  0
  5  6  1  0  0  0
  6  8  1  0  0  0
  6  7  1  0  0  0
  8  9  1  0  0  0
  8 27  1  0  0  0
  9 10  1  0  0  0
  9 14  2  0  0  0
 10 11  2  0  0  0
 11 12  1  0  0  0
 12 13  2  0  0  0
 13 14  1  0  0  0
 14 15  1  0  0  0
 15 16  1  0  0  0
 15 27  2  0  0  0
 16 17  2  0  0  0
 16 31  1  0  0  0
 17 18  1  0  0  0
 17 28  1  0  0  0
 18 19  1  0  0  0
 18 26  2  0  0  0
 19 20  1  0  0  0
 19 24  2  0  0  0
 20 21  2  0  0  0
 21 22  1  0  0  0
 22 23  2  0  0  0
 23 24  1  0  0  0
 24 25  1  0  0  0
 25 26  1  0  0  0
 26 27  1  0  0  0
 28 30  1  0  0  0
 28 29  2  0  0  0
 30 31  1  0  0  0
 30 33  1  0  0  0
M  END
> <minimizedAffinity>
-8.02676

$$$$
