CHEMBL271301


 30 35  0  0  0  0  0  0  0  0999 V2000
  -23.2906  -11.4532   -4.4653 C   0  0  0  0  0  0  0  0  0  0  0  0
  -23.8668  -11.0027   -3.2662 C   0  0  0  0  0  0  0  0  0  0  0  0
  -25.2015  -10.7797   -3.2351 C   0  0  0  0  0  0  0  0  0  0  0  0
  -25.9733  -10.9764   -4.4039 C   0  0  0  0  0  0  0  0  0  0  0  0
  -25.4484  -11.3215   -5.6774 C   0  0  0  0  0  0  0  0  0  0  0  0
  -24.0590  -11.5767   -5.6887 C   0  0  0  0  0  0  0  0  0  0  0  0
  -26.5884  -11.2074   -6.5409 C   0  0  0  0  0  0  0  0  0  0  0  0
  -26.6513  -11.0521   -7.9247 C   0  0  0  0  0  0  0  0  0  0  0  0
  -27.9709  -10.5826   -8.5878 C   0  0  0  0  0  0  0  0  0  0  0  0
  -29.0974  -10.0655   -7.8459 C   0  0  0  0  0  0  0  0  0  0  0  0
  -28.7694  -10.1340   -6.4892 C   0  0  0  0  0  0  0  0  0  0  0  0
  -27.7143  -10.7915   -5.8653 C   0  0  0  0  0  0  0  0  0  0  0  0
  -27.3221  -10.7656   -4.5297 N   0  0  0  0  0  0  0  0  0  0  0  0
  -28.0762  -10.1937   -3.4215 C   0  0  0  0  0  0  0  0  0  0  0  0
  -29.2029   -8.9974   -5.6482 C   0  0  0  0  0  0  0  0  0  0  0  0
  -29.9426   -7.7433   -5.9077 C   0  0  0  0  0  0  0  0  0  0  0  0
  -30.3463   -7.7512   -7.3277 C   0  0  0  0  0  0  0  0  0  0  0  0
  -31.4973   -7.1069   -7.5309 N   0  0  0  0  0  0  0  0  0  0  0  0
  -32.3249   -8.1612   -7.4094 N   0  0  0  0  0  0  0  0  0  0  0  0
  -33.3538   -8.0279   -6.3659 C   0  0  0  0  0  0  0  0  0  0  0  0
  -31.6643   -9.3081   -7.9188 C   0  0  0  0  0  0  0  0  0  0  0  0
  -30.2688   -9.0143   -8.1052 C   0  0  0  0  0  0  0  0  0  0  0  0
  -27.7156  -10.6628  -10.0171 C   0  0  0  0  0  0  0  0  0  0  0  0
  -28.4371  -10.4551  -10.9926 O   0  0  0  0  0  0  0  0  0  0  0  0
  -26.4089  -11.1094  -10.1684 N   0  0  0  0  0  0  0  0  0  0  0  0
  -25.6538  -11.4034   -8.9486 C   0  0  0  0  0  0  0  0  0  0  0  0
  -26.0225  -11.2866  -11.0866 H   0  0  0  0  0  0  0  0  0  0  0  0
  -21.1749  -12.4478   -5.5854 C   0  0  0  0  0  0  0  0  0  0  0  0
  -21.8496  -11.7765   -4.3755 C   0  0  0  0  0  0  0  0  0  0  0  0
  -21.1723  -11.4767   -3.3487 O   0  0  0  0  0  0  0  0  0  0  0  0
 28 29  1  0  0  0
 29 30  2  0  0  0
 29  1  1  0  0  0
  1  2  1  0  0  0
  1  6  2  0  0  0
  2  3  2  0  0  0
  3  4  1  0  0  0
  4  5  2  0  0  0
  4 13  1  0  0  0
  5  6  1  0  0  0
  5  7  1  0  0  0
  7  8  1  0  0  0
  7 12  2  0  0  0
  8  9  2  0  0  0
  8 26  1  0  0  0
  9 10  1  0  0  0
  9 23  1  0  0  0
 10 11  2  0  0  0
 10 22  1  0  0  0
 11 12  1  0  0  0
 11 15  1  0  0  0
 12 13  1  0  0  0
 13 14  1  0  0  0
 15 16  1  0  0  0
 16 17  1  0  0  0
 17 18  2  0  0  0
 17 22  1  0  0  0
 18 19  1  0  0  0
 19 20  1  0  0  0
 19 21  1  0  0  0
 21 22  2  0  0  0
 23 24  2  0  0  0
 23 25  1  0  0  0
 25 26  1  0  0  0
 25 27  1  0  0  0
M  END
> <minimizedAffinity>
-7.00071

$$$$
