CHEMBL2113167


 30 32  0  0  0  0  0  0  0  0999 V2000
  -28.7010   -1.3748   -5.3337 C   0  0  0  0  0  0  0  0  0  0  0  0
  -29.5296   -1.9611   -4.3452 C   0  0  0  0  0  0  0  0  0  0  0  0
  -30.0361   -3.2575   -4.4191 C   0  0  0  0  0  0  0  0  0  0  0  0
  -30.8756   -3.6998   -3.4735 N   0  0  0  0  0  0  0  0  0  0  0  0
  -31.3548   -4.9406   -3.6157 C   0  0  0  0  0  0  0  0  0  0  0  0
  -31.0507   -5.7964   -4.5968 N   0  0  0  0  0  0  0  0  0  0  0  0
  -30.1854   -5.3544   -5.5300 C   0  0  0  0  0  0  0  0  0  0  0  0
  -29.6606   -4.0451   -5.5028 C   0  0  0  0  0  0  0  0  0  0  0  0
  -28.8323   -3.4786   -6.5012 C   0  0  0  0  0  0  0  0  0  0  0  0
  -28.3476   -2.1560   -6.4400 C   0  0  0  0  0  0  0  0  0  0  0  0
  -29.7891   -6.2414   -6.5689 N   0  0  0  0  0  0  0  0  0  0  0  0
  -28.7775   -6.2831   -6.6199 H   0  0  0  0  0  0  0  0  0  0  0  0
  -30.3425   -7.5082   -6.7457 C   0  0  0  0  0  0  0  0  0  0  0  0
  -31.5581   -7.7724   -7.2358 C   0  0  0  0  0  0  0  0  0  0  0  0
  -32.0927   -9.1328   -7.4274 C   0  0  0  0  0  0  0  0  0  0  0  0
  -33.1648   -9.2578   -8.0128 O   0  0  0  0  0  0  0  0  0  0  0  0
  -31.2764  -10.3091   -6.9212 C   0  0  0  0  0  0  0  0  0  0  0  0
  -30.0359  -10.0276   -6.4882 C   0  0  0  0  0  0  0  0  0  0  0  0
  -29.4653   -8.6674   -6.4100 C   0  0  0  0  0  0  0  0  0  0  0  0
  -28.3054   -8.4927   -6.0458 O   0  0  0  0  0  0  0  0  0  0  0  0
  -31.8342  -11.6057   -6.9251 N   0  0  0  0  0  0  0  0  0  0  0  0
  -31.8824  -12.4659   -8.1095 C   0  0  0  0  0  0  0  0  0  0  0  0
  -32.6096  -12.1469   -5.8012 C   0  0  0  0  0  0  0  0  0  0  0  0
  -27.6961   -1.8566   -7.6006 O   0  0  0  0  0  0  0  0  0  0  0  0
  -27.7240   -2.7065   -8.7314 C   0  0  0  0  0  0  0  0  0  0  0  0
  -28.4300   -0.0684   -5.0058 O   0  0  0  0  0  0  0  0  0  0  0  0
  -28.8894    0.9479   -5.8726 C   0  0  0  0  0  0  0  0  0  0  0  0
  -30.4028    1.1297   -5.8709 C   0  0  0  0  0  0  0  0  0  0  0  0
  -32.0123    2.1497   -7.2995 C   0  0  0  0  0  0  0  0  0  0  0  0
  -30.6610    2.1103   -6.8818 O   0  0  0  0  0  0  0  0  0  0  0  0
 29 30  1  0  0  0
 30 28  1  0  0  0
 28 27  1  0  0  0
 27 26  1  0  0  0
 26  1  1  0  0  0
  1  2  1  0  0  0
  1 10  2  0  0  0
  2  3  2  0  0  0
  3  4  1  0  0  0
  3  8  1  0  0  0
  4  5  2  0  0  0
  5  6  1  0  0  0
  6  7  2  0  0  0
  7 11  1  0  0  0
  7  8  1  0  0  0
 11 13  1  0  0  0
 11 12  1  0  0  0
 13 14  2  0  0  0
 13 19  1  0  0  0
 14 15  1  0  0  0
 15 16  2  0  0  0
 15 17  1  0  0  0
 17 21  1  0  0  0
 17 18  2  0  0  0
 21 22  1  0  0  0
 21 23  1  0  0  0
 18 19  1  0  0  0
 19 20  2  0  0  0
  8  9  2  0  0  0
  9 10  1  0  0  0
 10 24  1  0  0  0
 24 25  1  0  0  0
M  END
> <minimizedAffinity>
-7.96750

$$$$
