CHEMBL272425


 34 37  0  0  0  0  0  0  0  0999 V2000
  -13.0110   -3.2294  -11.7061 C   0  0  0  0  0  0  0  0  0  0  0  0
  -14.4188   -3.2943  -11.7166 C   0  0  0  0  0  0  0  0  0  0  0  0
  -15.1919   -2.5436  -12.6088 C   0  0  0  0  0  0  0  0  0  0  0  0
  -14.5866   -1.6595  -13.4949 C   0  0  0  0  0  0  0  0  0  0  0  0
  -13.1931   -1.5818  -13.5137 C   0  0  0  0  0  0  0  0  0  0  0  0
  -12.4229   -2.3884  -12.6610 C   0  0  0  0  0  0  0  0  0  0  0  0
  -12.3563   -5.9175  -13.4827 N   0  0  0  0  0  0  0  0  0  0  0  0
  -11.8472   -6.2865  -12.2876 C   0  0  0  0  0  0  0  0  0  0  0  0
  -11.3783   -7.5209  -12.1616 N   0  0  0  0  0  0  0  0  0  0  0  0
  -10.7478   -7.7147  -10.6634 S   0  0  0  0  0  0  0  0  0  0  0  0
  -11.1020   -6.1331  -10.0999 C   0  0  0  0  0  0  0  0  0  0  0  0
  -10.7880   -5.6015   -8.8383 C   0  0  0  0  0  0  0  0  0  0  0  0
  -11.1717   -4.3007   -8.5567 C   0  0  0  0  0  0  0  0  0  0  0  0
  -11.8763   -3.5691   -9.5014 C   0  0  0  0  0  0  0  0  0  0  0  0
  -12.2140   -4.0819  -10.7847 C   0  0  0  0  0  0  0  0  0  0  0  0
  -11.7774   -5.4201  -11.1067 C   0  0  0  0  0  0  0  0  0  0  0  0
  -12.2291   -6.5843  -14.2372 H   0  0  0  0  0  0  0  0  0  0  0  0
  -12.2742   -4.9551  -13.7862 H   0  0  0  0  0  0  0  0  0  0  0  0
  -15.3150   -0.8790  -14.4154 N   0  0  0  0  0  0  0  0  0  0  0  0
  -16.3299   -0.0013  -14.0873 C   0  0  0  0  0  0  0  0  0  0  0  0
  -16.5828    0.4034  -12.9565 O   0  0  0  0  0  0  0  0  0  0  0  0
  -17.0627    0.3436  -15.2144 N   0  0  0  0  0  0  0  0  0  0  0  0
  -14.9376   -0.7869  -15.3487 H   0  0  0  0  0  0  0  0  0  0  0  0
  -17.1616   -0.4169  -15.8730 H   0  0  0  0  0  0  0  0  0  0  0  0
  -18.1417    1.2498  -15.1383 C   0  0  0  0  0  0  0  0  0  0  0  0
  -17.9285    2.5814  -15.4945 C   0  0  0  0  0  0  0  0  0  0  0  0
  -18.9895    3.4868  -15.4760 C   0  0  0  0  0  0  0  0  0  0  0  0
  -20.2511    3.0799  -15.0385 C   0  0  0  0  0  0  0  0  0  0  0  0
  -20.4677    1.7570  -14.6260 C   0  0  0  0  0  0  0  0  0  0  0  0
  -19.4069    0.8403  -14.7048 C   0  0  0  0  0  0  0  0  0  0  0  0
  -21.8030    1.3131  -14.0850 C   0  0  0  0  0  0  0  0  0  0  0  0
  -22.6878    2.3376  -13.9225 F   0  0  0  0  0  0  0  0  0  0  0  0
  -22.4277    0.4047  -14.8819 F   0  0  0  0  0  0  0  0  0  0  0  0
  -21.6939    0.7267  -12.8591 F   0  0  0  0  0  0  0  0  0  0  0  0
  7  8  1  0  0  0
  7 17  1  0  0  0
  7 18  1  0  0  0
  8  9  2  0  0  0
  8 16  1  0  0  0
  9 10  1  0  0  0
 10 11  1  0  0  0
 11 12  1  0  0  0
 11 16  2  0  0  0
 12 13  2  0  0  0
 13 14  1  0  0  0
 14 15  2  0  0  0
 15  1  1  0  0  0
 15 16  1  0  0  0
  1  2  1  0  0  0
  1  6  2  0  0  0
  2  3  2  0  0  0
  3  4  1  0  0  0
  4 19  1  0  0  0
  4  5  2  0  0  0
 19 20  1  0  0  0
 19 23  1  0  0  0
 20 21  2  0  0  0
 20 22  1  0  0  0
 22 25  1  0  0  0
 22 24  1  0  0  0
 25 26  1  0  0  0
 25 30  2  0  0  0
 26 27  2  0  0  0
 27 28  1  0  0  0
 28 29  2  0  0  0
 29 31  1  0  0  0
 29 30  1  0  0  0
 31 32  1  0  0  0
 31 33  1  0  0  0
 31 34  1  0  0  0
  5  6  1  0  0  0
M  END
> <minimizedAffinity>
-9.18201

$$$$
