CHEMBL487402


 27 29  0  0  0  0  0  0  0  0999 V2000
  -30.2541   -6.2537   -6.8233 C   0  0  0  0  0  0  0  0  0  0  0  0
  -30.5572   -5.8875   -5.5697 C   0  0  0  0  0  0  0  0  0  0  0  0
  -30.1004   -4.5905   -5.0742 C   0  0  0  0  0  0  0  0  0  0  0  0
  -30.3653   -4.2191   -3.9328 O   0  0  0  0  0  0  0  0  0  0  0  0
  -29.3280   -3.7459   -5.9932 C   0  0  0  0  0  0  0  0  0  0  0  0
  -28.9010   -2.4614   -5.6234 C   0  0  0  0  0  0  0  0  0  0  0  0
  -29.2074   -1.9720   -4.3773 O   0  0  0  0  0  0  0  0  0  0  0  0
  -28.1663   -1.6852   -6.5349 C   0  0  0  0  0  0  0  0  0  0  0  0
  -27.8389   -2.2340   -7.8014 C   0  0  0  0  0  0  0  0  0  0  0  0
  -28.2735   -3.5187   -8.1485 C   0  0  0  0  0  0  0  0  0  0  0  0
  -29.0342   -4.2621   -7.2508 C   0  0  0  0  0  0  0  0  0  0  0  0
  -29.4718   -5.4934   -7.6782 O   0  0  0  0  0  0  0  0  0  0  0  0
  -29.7074   -2.6518   -3.8720 H   0  0  0  0  0  0  0  0  0  0  0  0
  -31.4759  -10.1076   -8.3180 C   0  0  0  0  0  0  0  0  0  0  0  0
  -30.2221   -9.5837   -8.6367 C   0  0  0  0  0  0  0  0  0  0  0  0
  -29.8401   -8.3194   -8.1687 C   0  0  0  0  0  0  0  0  0  0  0  0
  -30.7015   -7.5517   -7.3738 C   0  0  0  0  0  0  0  0  0  0  0  0
  -31.9870   -8.0552   -7.1152 C   0  0  0  0  0  0  0  0  0  0  0  0
  -32.3600   -9.3199   -7.5729 C   0  0  0  0  0  0  0  0  0  0  0  0
  -33.6075   -9.8060   -7.2801 O   0  0  0  0  0  0  0  0  0  0  0  0
  -34.1089   -9.1403   -6.7843 H   0  0  0  0  0  0  0  0  0  0  0  0
  -31.3309  -12.4650   -8.0180 C   0  0  0  0  0  0  0  0  0  0  0  0
  -31.9223  -11.3520   -8.6713 O   0  0  0  0  0  0  0  0  0  0  0  0
  -27.7103   -0.4030   -6.3423 O   0  0  0  0  0  0  0  0  0  0  0  0
  -28.6062    0.6851   -6.5076 C   0  0  0  0  0  0  0  0  0  0  0  0
  -27.0965   -1.4302   -8.6345 O   0  0  0  0  0  0  0  0  0  0  0  0
  -26.9788   -1.8117   -9.9982 C   0  0  0  0  0  0  0  0  0  0  0  0
 22 23  1  0  0  0
 23 14  1  0  0  0
 14 15  1  0  0  0
 14 19  2  0  0  0
 15 16  2  0  0  0
 16 17  1  0  0  0
 17  1  1  0  0  0
 17 18  2  0  0  0
  1  2  2  0  0  0
  1 12  1  0  0  0
  2  3  1  0  0  0
  3  4  2  0  0  0
  3  5  1  0  0  0
  5  6  1  0  0  0
  5 11  2  0  0  0
  6  7  1  0  0  0
  6  8  2  0  0  0
  7 13  1  0  0  0
  8 24  1  0  0  0
  8  9  1  0  0  0
 24 25  1  0  0  0
  9 26  1  0  0  0
  9 10  2  0  0  0
 26 27  1  0  0  0
 10 11  1  0  0  0
 11 12  1  0  0  0
 18 19  1  0  0  0
 19 20  1  0  0  0
 20 21  1  0  0  0
M  END
> <minimizedAffinity>
-8.67583

$$$$
