CHEMBL3921441


 38 41  0  0  0  0  0  0  0  0999 V2000
  -29.3308   -9.6322   -7.0649 N   0  0  0  0  0  0  0  0  0  0  0  0
  -28.9970   -8.3066   -6.4780 C   0  0  0  0  0  0  0  0  0  0  0  0
  -29.4904   -7.2516   -7.2007 C   0  0  0  0  0  0  0  0  0  0  0  0
  -29.3359   -6.0708   -6.8115 C   0  0  0  0  0  0  0  0  0  0  0  0
  -28.7036   -5.7861   -5.7656 C   0  0  0  0  0  0  0  0  0  0  0  0
  -28.6560   -4.6745   -5.8123 N   0  0  0  0  0  0  0  0  0  0  0  0
  -28.6412   -3.5605   -5.9033 C   0  0  0  0  0  0  0  0  0  0  0  0
  -28.0718   -3.0963   -4.8237 C   0  0  0  0  0  0  0  0  0  0  0  0
  -27.6262   -4.6904   -3.9944 N   0  0  0  0  0  0  0  0  0  0  0  0
  -28.0343   -6.2407   -4.7516 C   0  0  0  0  0  0  0  0  0  0  0  0
  -28.1874   -7.9420   -5.1894 C   0  0  0  0  0  0  0  0  0  0  0  0
  -28.2688   -1.1544   -5.3624 C   0  0  0  0  0  0  0  0  0  0  0  0
  -27.7185   -0.2509   -6.4228 C   0  0  0  0  0  0  0  0  0  0  0  0
  -28.6129    0.7927   -6.7706 N   0  0  0  0  0  0  0  0  0  0  0  0
  -29.7179    0.7269   -6.0457 N   0  0  0  0  0  0  0  0  0  0  0  0
  -30.8992    1.6751   -6.2649 C   0  0  0  0  0  0  0  0  0  0  0  0
  -29.5689   -0.3798   -5.1700 C   0  0  0  0  0  0  0  0  0  0  0  0
  -28.5134  -10.3494  -10.7080 C   0  0  0  0  0  0  0  0  0  0  0  0
  -27.2595  -10.7669  -10.5730 C   0  0  0  0  0  0  0  0  0  0  0  0
  -26.6605  -10.9382   -9.3273 C   0  0  0  0  0  0  0  0  0  0  0  0
  -27.3732  -10.6433   -8.1748 C   0  0  0  0  0  0  0  0  0  0  0  0
  -28.6499  -10.1277   -8.2720 C   0  0  0  0  0  0  0  0  0  0  0  0
  -29.1852  -10.1401   -9.6034 C   0  0  0  0  0  0  0  0  0  0  0  0
  -29.0741   -9.6023  -13.8805 H   0  0  0  0  0  0  0  0  0  0  0  0
  -28.4157   -9.8657  -13.0388 C   0  0  0  0  0  0  0  0  0  0  0  0
  -27.8714  -10.7923  -13.2768 H   0  0  0  0  0  0  0  0  0  0  0  0
  -27.6993   -9.0475  -12.8882 H   0  0  0  0  0  0  0  0  0  0  0  0
  -29.1227  -10.1082  -11.9015 O   0  0  0  0  0  0  0  0  0  0  0  0
  -25.3831  -11.3385   -9.2549 O   0  0  0  0  0  0  0  0  0  0  0  0
  -24.8275  -11.7256   -8.0517 C   0  0  0  0  0  0  0  0  0  0  0  0
  -24.8633  -10.8712   -7.3453 H   0  0  0  0  0  0  0  0  0  0  0  0
  -25.4048  -12.5685   -7.6048 H   0  0  0  0  0  0  0  0  0  0  0  0
  -23.7908  -12.0397   -8.1808 H   0  0  0  0  0  0  0  0  0  0  0  0
  -30.5603  -10.2742   -6.5594 C   0  0  0  0  0  0  0  0  0  0  0  0
  -31.7133  -10.2547   -7.5106 C   0  0  0  0  0  0  0  0  0  0  0  0
  -32.6075   -9.1137   -7.5781 C   0  0  0  0  0  0  0  0  0  0  0  0
  -32.6599   -8.4539   -6.3302 O   0  0  0  0  0  0  0  0  0  0  0  0
  -33.0458   -9.0748   -5.6523 H   0  0  0  0  0  0  0  0  0  0  0  0
 24 25  1  0  0  0
 25 26  1  0  0  0
 25 27  1  0  0  0
 25 28  1  0  0  0
 28 18  1  0  0  0
 18 19  1  0  0  0
 18 23  2  0  0  0
 19 20  2  0  0  0
 20 29  1  0  0  0
 20 21  1  0  0  0
 29 30  1  0  0  0
 30 31  1  0  0  0
 30 32  1  0  0  0
 30 33  1  0  0  0
 21 22  2  0  0  0
 22  1  1  0  0  0
 22 23  1  0  0  0
  1 34  1  0  0  0
  1  2  1  0  0  0
 34 35  1  0  0  0
 35 36  1  0  0  0
 36 37  1  0  0  0
 37 38  1  0  0  0
  2  3  1  0  0  0
  2 11  2  0  0  0
  3  4  2  0  0  0
  4  5  1  0  0  0
  5  6  1  0  0  0
  5 10  2  0  0  0
  6  7  2  0  0  0
  7  8  1  0  0  0
  8 12  1  0  0  0
  8  9  2  0  0  0
 12 13  1  0  0  0
 12 17  2  0  0  0
 13 14  2  0  0  0
 14 15  1  0  0  0
 15 16  1  0  0  0
 15 17  1  0  0  0
  9 10  1  0  0  0
 10 11  1  0  0  0
M  ISO 1  24   2
M  ISO 1  26   2
M  ISO 1  27   2
M  ISO 1  31   2
M  ISO 1  32   2
M  ISO 1  33   2
M  END
> <minimizedAffinity>
-8.34824

$$$$
