CHEMBL3099470


 40 42  0  0  0  0  0  0  0  0999 V2000
  -13.3628   -2.4478  -14.3532 C   0  0  0  0  0  0  0  0  0  0  0  0
  -14.3718   -1.6113  -13.8188 C   0  0  0  0  0  0  0  0  0  0  0  0
  -14.4045   -0.2428  -14.0650 C   0  0  0  0  0  0  0  0  0  0  0  0
  -13.3820    0.3598  -14.7846 C   0  0  0  0  0  0  0  0  0  0  0  0
  -12.3104   -0.4056  -15.2651 C   0  0  0  0  0  0  0  0  0  0  0  0
  -12.3134   -1.8162  -15.0874 C   0  0  0  0  0  0  0  0  0  0  0  0
  -14.0615   -6.1801  -14.9376 C   0  0  0  0  0  0  0  0  0  0  0  0
  -13.8538   -4.8069  -15.1384 C   0  0  0  0  0  0  0  0  0  0  0  0
  -13.4671   -3.9236  -14.1025 C   0  0  0  0  0  0  0  0  0  0  0  0
  -13.2454   -4.5056  -12.8463 C   0  0  0  0  0  0  0  0  0  0  0  0
  -13.3500   -5.8871  -12.6515 C   0  0  0  0  0  0  0  0  0  0  0  0
  -13.7325   -6.7365  -13.6981 C   0  0  0  0  0  0  0  0  0  0  0  0
  -13.7603   -8.2004  -13.4230 C   0  0  0  0  0  0  0  0  0  0  0  0
  -12.5541   -9.0498  -13.7584 C   0  0  0  0  0  0  0  0  0  0  0  0
  -14.7423   -8.6955  -12.8664 O   0  0  0  0  0  0  0  0  0  0  0  0
  -13.8413   -7.3729  -17.0021 C   0  0  0  0  0  0  0  0  0  0  0  0
  -14.6268   -7.0059  -15.8734 O   0  0  0  0  0  0  0  0  0  0  0  0
  -15.4465    0.5509  -13.5319 N   0  0  0  0  0  0  0  0  0  0  0  0
  -16.5888    0.7532  -14.3117 C   0  0  0  0  0  0  0  0  0  0  0  0
  -16.7564    0.3187  -15.4424 O   0  0  0  0  0  0  0  0  0  0  0  0
  -17.5059    1.5306  -13.6019 N   0  0  0  0  0  0  0  0  0  0  0  0
  -15.7649    0.2352  -12.6226 H   0  0  0  0  0  0  0  0  0  0  0  0
  -16.9943    2.2708  -13.1382 H   0  0  0  0  0  0  0  0  0  0  0  0
  -18.6715    1.9832  -14.2720 C   0  0  0  0  0  0  0  0  0  0  0  0
  -19.8761    1.3069  -14.0475 C   0  0  0  0  0  0  0  0  0  0  0  0
  -21.0613    1.7517  -14.6446 C   0  0  0  0  0  0  0  0  0  0  0  0
  -21.0293    2.8865  -15.4547 C   0  0  0  0  0  0  0  0  0  0  0  0
  -19.8255    3.5567  -15.6901 C   0  0  0  0  0  0  0  0  0  0  0  0
  -18.6306    3.1088  -15.1085 C   0  0  0  0  0  0  0  0  0  0  0  0
  -17.3316    3.7616  -15.4846 C   0  0  0  0  0  0  0  0  0  0  0  0
  -22.2971    1.1645  -14.5150 O   0  0  0  0  0  0  0  0  0  0  0  0
  -22.3627    0.0966  -13.5664 C   0  0  0  0  0  0  0  0  0  0  0  0
  -23.6037   -0.7756  -13.8108 C   0  0  0  0  0  0  0  0  0  0  0  0
  -24.1512   -1.3565  -12.5651 N   0  0  0  0  0  0  0  0  0  0  0  0
  -23.1005   -1.6958  -11.6033 C   0  0  0  0  0  0  0  0  0  0  0  0
  -25.1022   -0.4299  -11.9478 C   0  0  0  0  0  0  0  0  0  0  0  0
  -11.2603    0.1622  -15.9406 O   0  0  0  0  0  0  0  0  0  0  0  0
  -11.5277    0.8411  -17.1610 C   0  0  0  0  0  0  0  0  0  0  0  0
  -11.3883   -2.6687  -15.6521 O   0  0  0  0  0  0  0  0  0  0  0  0
  -11.4414   -2.9227  -17.0510 C   0  0  0  0  0  0  0  0  0  0  0  0
 16 17  1  0  0  0
 17  7  1  0  0  0
  7  8  1  0  0  0
  7 12  2  0  0  0
  8  9  2  0  0  0
  9  1  1  0  0  0
  9 10  1  0  0  0
  1  2  1  0  0  0
  1  6  2  0  0  0
  2  3  2  0  0  0
  3 18  1  0  0  0
  3  4  1  0  0  0
 18 19  1  0  0  0
 18 22  1  0  0  0
 19 20  2  0  0  0
 19 21  1  0  0  0
 21 24  1  0  0  0
 21 23  1  0  0  0
 24 25  1  0  0  0
 24 29  2  0  0  0
 25 26  2  0  0  0
 26 31  1  0  0  0
 26 27  1  0  0  0
 31 32  1  0  0  0
 32 33  1  0  0  0
 33 34  1  0  0  0
 34 35  1  0  0  0
 34 36  1  0  0  0
 27 28  2  0  0  0
 28 29  1  0  0  0
 29 30  1  0  0  0
  4  5  2  0  0  0
  5 37  1  0  0  0
  5  6  1  0  0  0
 37 38  1  0  0  0
  6 39  1  0  0  0
 39 40  1  0  0  0
 10 11  2  0  0  0
 11 12  1  0  0  0
 12 13  1  0  0  0
 13 14  1  0  0  0
 13 15  2  0  0  0
M  END
> <minimizedAffinity>
-7.02343

$$$$
