CHEMBL25579


 33 36  0  0  0  0  0  0  0  0999 V2000
  -13.8567   -1.4483  -13.4573 C   0  0  0  0  0  0  0  0  0  0  0  0
  -13.7063   -2.8132  -13.6807 C   0  0  0  0  0  0  0  0  0  0  0  0
  -14.5618   -3.7571  -13.0852 C   0  0  0  0  0  0  0  0  0  0  0  0
  -14.3619   -5.1433  -13.1674 C   0  0  0  0  0  0  0  0  0  0  0  0
  -15.2219   -6.0096  -12.5990 N   0  0  0  0  0  0  0  0  0  0  0  0
  -16.2539   -5.4925  -11.9338 C   0  0  0  0  0  0  0  0  0  0  0  0
  -16.5035   -4.1933  -11.7507 N   0  0  0  0  0  0  0  0  0  0  0  0
  -15.6477   -3.3317  -12.3165 C   0  0  0  0  0  0  0  0  0  0  0  0
  -15.8385   -1.9657  -12.1506 C   0  0  0  0  0  0  0  0  0  0  0  0
  -14.9817   -1.0159  -12.7339 C   0  0  0  0  0  0  0  0  0  0  0  0
  -13.0463   -0.1606  -15.3300 C   0  0  0  0  0  0  0  0  0  0  0  0
  -12.9715   -0.5349  -13.9539 O   0  0  0  0  0  0  0  0  0  0  0  0
  -13.1865   -5.6541  -13.7813 N   0  0  0  0  0  0  0  0  0  0  0  0
  -12.4739   -4.9298  -13.8654 H   0  0  0  0  0  0  0  0  0  0  0  0
  -13.1995   -6.5135  -14.9003 C   0  0  0  0  0  0  0  0  0  0  0  0
  -12.9263   -7.8752  -14.7535 C   0  0  0  0  0  0  0  0  0  0  0  0
  -13.0980   -8.7574  -15.8190 C   0  0  0  0  0  0  0  0  0  0  0  0
  -13.5202   -8.2686  -17.0482 C   0  0  0  0  0  0  0  0  0  0  0  0
  -13.8379   -9.3738  -18.3326 Cl  0  0  0  0  0  0  0  0  0  0  0  0
  -13.7110   -6.9079  -17.2474 C   0  0  0  0  0  0  0  0  0  0  0  0
  -13.5377   -6.0366  -16.1720 C   0  0  0  0  0  0  0  0  0  0  0  0
  -13.7465   -4.7265  -16.3524 F   0  0  0  0  0  0  0  0  0  0  0  0
  -15.3838    0.2822  -12.5099 O   0  0  0  0  0  0  0  0  0  0  0  0
  -16.6459    0.6500  -13.0808 C   0  0  0  0  0  0  0  0  0  0  0  0
  -16.5742    0.7339  -14.6136 C   0  0  0  0  0  0  0  0  0  0  0  0
  -17.4011    1.8100  -15.1837 N   0  0  0  0  0  0  0  0  0  0  0  0
  -16.7060    2.8044  -15.9962 C   0  0  0  0  0  0  0  0  0  0  0  0
  -18.7655    1.9158  -14.9357 C   0  0  0  0  0  0  0  0  0  0  0  0
  -19.3579    3.0977  -14.4712 C   0  0  0  0  0  0  0  0  0  0  0  0
  -20.7184    3.1418  -14.1898 C   0  0  0  0  0  0  0  0  0  0  0  0
  -21.5545    2.1011  -14.3503 N   0  0  0  0  0  0  0  0  0  0  0  0
  -20.9939    0.9711  -14.8173 C   0  0  0  0  0  0  0  0  0  0  0  0
  -19.6425    0.8387  -15.1197 C   0  0  0  0  0  0  0  0  0  0  0  0
 11 12  1  0  0  0
 12  1  1  0  0  0
  1  2  1  0  0  0
  1 10  2  0  0  0
  2  3  2  0  0  0
  3  4  1  0  0  0
  3  8  1  0  0  0
  4 13  1  0  0  0
  4  5  2  0  0  0
 13 15  1  0  0  0
 13 14  1  0  0  0
 15 16  1  0  0  0
 15 21  2  0  0  0
 16 17  2  0  0  0
 17 18  1  0  0  0
 18 19  1  0  0  0
 18 20  2  0  0  0
 20 21  1  0  0  0
 21 22  1  0  0  0
  5  6  1  0  0  0
  6  7  2  0  0  0
  7  8  1  0  0  0
  8  9  2  0  0  0
  9 10  1  0  0  0
 10 23  1  0  0  0
 23 24  1  0  0  0
 24 25  1  0  0  0
 25 26  1  0  0  0
 26 27  1  0  0  0
 26 28  1  0  0  0
 28 29  1  0  0  0
 28 33  2  0  0  0
 29 30  2  0  0  0
 30 31  1  0  0  0
 31 32  2  0  0  0
 32 33  1  0  0  0
M  END
> <minimizedAffinity>
-7.13022

$$$$
