CHEMBL283088


 32 35  0  0  0  0  0  0  0  0999 V2000
  -30.7167   -7.9024   -6.5044 C   0  0  0  0  0  0  0  0  0  0  0  0
  -29.9339   -9.0107   -6.8297 C   0  0  0  0  0  0  0  0  0  0  0  0
  -28.7018   -9.2421   -6.2049 C   0  0  0  0  0  0  0  0  0  0  0  0
  -27.7942  -10.2231   -6.6328 C   0  0  0  0  0  0  0  0  0  0  0  0
  -26.5993  -10.3828   -6.0418 N   0  0  0  0  0  0  0  0  0  0  0  0
  -26.3134   -9.5570   -5.0296 C   0  0  0  0  0  0  0  0  0  0  0  0
  -27.0949   -8.5748   -4.5627 N   0  0  0  0  0  0  0  0  0  0  0  0
  -28.2797   -8.4072   -5.1660 C   0  0  0  0  0  0  0  0  0  0  0  0
  -29.1186   -7.3621   -4.7752 C   0  0  0  0  0  0  0  0  0  0  0  0
  -30.3403   -7.0973   -5.4179 C   0  0  0  0  0  0  0  0  0  0  0  0
  -32.8349   -8.5998   -7.2648 C   0  0  0  0  0  0  0  0  0  0  0  0
  -31.8154   -7.5945   -7.2567 O   0  0  0  0  0  0  0  0  0  0  0  0
  -28.1120  -11.0180   -7.7685 N   0  0  0  0  0  0  0  0  0  0  0  0
  -27.7504  -11.9630   -7.6632 H   0  0  0  0  0  0  0  0  0  0  0  0
  -28.0480  -10.5667   -9.1047 C   0  0  0  0  0  0  0  0  0  0  0  0
  -26.9025   -9.9248   -9.5935 C   0  0  0  0  0  0  0  0  0  0  0  0
  -26.8020   -9.5729  -10.9397 C   0  0  0  0  0  0  0  0  0  0  0  0
  -27.8624   -9.8393  -11.8032 C   0  0  0  0  0  0  0  0  0  0  0  0
  -27.7013   -9.4824  -13.4776 Cl  0  0  0  0  0  0  0  0  0  0  0  0
  -29.0406  -10.4049  -11.3240 C   0  0  0  0  0  0  0  0  0  0  0  0
  -29.1272  -10.7496   -9.9783 C   0  0  0  0  0  0  0  0  0  0  0  0
  -30.2607  -11.3040   -9.5191 F   0  0  0  0  0  0  0  0  0  0  0  0
  -31.0289   -6.0063   -4.9320 O   0  0  0  0  0  0  0  0  0  0  0  0
  -30.3465   -5.2972   -3.8828 C   0  0  0  0  0  0  0  0  0  0  0  0
  -30.3436   -3.7684   -4.1023 C   0  0  0  0  0  0  0  0  0  0  0  0
  -29.1657   -3.3358   -4.8853 N   0  0  0  0  0  0  0  0  0  0  0  0
  -29.4888   -3.0683   -6.3000 C   0  0  0  0  0  0  0  0  0  0  0  0
  -28.2471   -2.6340   -7.1127 C   0  0  0  0  0  0  0  0  0  0  0  0
  -27.5280   -1.4689   -6.5672 N   0  0  0  0  0  0  0  0  0  0  0  0
  -28.2648   -0.2293   -6.7972 C   0  0  0  0  0  0  0  0  0  0  0  0
  -27.2706   -1.6983   -5.1304 C   0  0  0  0  0  0  0  0  0  0  0  0
  -28.4988   -2.1588   -4.2968 C   0  0  0  0  0  0  0  0  0  0  0  0
 11 12  1  0  0  0
 12  1  1  0  0  0
  1  2  1  0  0  0
  1 10  2  0  0  0
  2  3  2  0  0  0
  3  4  1  0  0  0
  3  8  1  0  0  0
  4 13  1  0  0  0
  4  5  2  0  0  0
 13 15  1  0  0  0
 13 14  1  0  0  0
 15 16  1  0  0  0
 15 21  2  0  0  0
 16 17  2  0  0  0
 17 18  1  0  0  0
 18 19  1  0  0  0
 18 20  2  0  0  0
 20 21  1  0  0  0
 21 22  1  0  0  0
  5  6  1  0  0  0
  6  7  2  0  0  0
  7  8  1  0  0  0
  8  9  2  0  0  0
  9 10  1  0  0  0
 10 23  1  0  0  0
 23 24  1  0  0  0
 24 25  1  0  0  0
 25 26  1  0  0  0
 26 27  1  0  0  0
 26 32  1  0  0  0
 27 28  1  0  0  0
 28 29  1  0  0  0
 29 30  1  0  0  0
 29 31  1  0  0  0
 31 32  1  0  0  0
M  END
> <minimizedAffinity>
-8.00623

$$$$
