CHEMBL523571


 24 27  0  0  0  0  0  0  0  0999 V2000
  -28.7514    0.1634   -5.0011 C   0  0  0  0  0  0  0  0  0  0  0  0
  -28.6964   -0.9871   -5.8914 N   0  0  0  0  0  0  0  0  0  0  0  0
  -28.1308   -0.8135   -7.1448 C   0  0  0  0  0  0  0  0  0  0  0  0
  -27.7028    0.2815   -7.5237 O   0  0  0  0  0  0  0  0  0  0  0  0
  -28.0228   -2.0041   -8.0548 C   0  0  0  0  0  0  0  0  0  0  0  0
  -28.5110   -3.1944   -7.6518 C   0  0  0  0  0  0  0  0  0  0  0  0
  -28.4456   -4.3536   -8.4140 O   0  0  0  0  0  0  0  0  0  0  0  0
  -29.1390   -3.3475   -6.3288 C   0  0  0  0  0  0  0  0  0  0  0  0
  -29.6503   -4.5861   -5.9029 C   0  0  0  0  0  0  0  0  0  0  0  0
  -30.2226   -4.7314   -4.6386 C   0  0  0  0  0  0  0  0  0  0  0  0
  -30.2948   -3.6386   -3.7847 C   0  0  0  0  0  0  0  0  0  0  0  0
  -29.7950   -2.4021   -4.1947 C   0  0  0  0  0  0  0  0  0  0  0  0
  -29.2137   -2.2429   -5.4639 C   0  0  0  0  0  0  0  0  0  0  0  0
  -27.9606   -4.1421   -9.2440 H   0  0  0  0  0  0  0  0  0  0  0  0
  -27.3958   -1.8834   -9.3345 C   0  0  0  0  0  0  0  0  0  0  0  0
  -26.1352   -1.6230   -9.6526 N   0  0  0  0  0  0  0  0  0  0  0  0
  -26.0931   -1.6040  -11.0328 C   0  0  0  0  0  0  0  0  0  0  0  0
  -25.0222   -1.3644  -11.9018 C   0  0  0  0  0  0  0  0  0  0  0  0
  -25.2539   -1.4038  -13.2842 C   0  0  0  0  0  0  0  0  0  0  0  0
  -26.5255   -1.6812  -13.7917 C   0  0  0  0  0  0  0  0  0  0  0  0
  -27.6087   -1.9219  -12.9403 C   0  0  0  0  0  0  0  0  0  0  0  0
  -27.3453   -1.8683  -11.5703 C   0  0  0  0  0  0  0  0  0  0  0  0
  -28.1486   -2.0334  -10.4786 N   0  0  0  0  0  0  0  0  0  0  0  0
  -29.1456   -2.2211  -10.4883 H   0  0  0  0  0  0  0  0  0  0  0  0
  1  2  1  0  0  0
  2  3  1  0  0  0
  2 13  1  0  0  0
  3  4  2  0  0  0
  3  5  1  0  0  0
  5 15  1  0  0  0
  5  6  2  0  0  0
 15 16  2  0  0  0
 15 23  1  0  0  0
 16 17  1  0  0  0
 17 18  1  0  0  0
 17 22  2  0  0  0
 18 19  2  0  0  0
 19 20  1  0  0  0
 20 21  2  0  0  0
 21 22  1  0  0  0
 22 23  1  0  0  0
 23 24  1  0  0  0
  6  7  1  0  0  0
  6  8  1  0  0  0
  7 14  1  0  0  0
  8  9  1  0  0  0
  8 13  2  0  0  0
  9 10  2  0  0  0
 10 11  1  0  0  0
 11 12  2  0  0  0
 12 13  1  0  0  0
M  END
> <minimizedAffinity>
-9.65689

$$$$
