CHEMBL230686


 35 39  0  0  0  0  0  0  0  0999 V2000
  -25.4627   -1.0870  -15.5027 C   0  0  0  0  0  0  0  0  0  0  0  0
  -24.3829   -0.6992  -14.5257 C   0  0  0  0  0  0  0  0  0  0  0  0
  -23.1837   -0.1212  -15.0055 C   0  0  0  0  0  0  0  0  0  0  0  0
  -22.2174    0.4233  -14.1459 C   0  0  0  0  0  0  0  0  0  0  0  0
  -22.4884    0.2816  -12.7776 C   0  0  0  0  0  0  0  0  0  0  0  0
  -23.5992   -0.4021  -12.2905 C   0  0  0  0  0  0  0  0  0  0  0  0
  -23.7215   -0.5722  -10.9799 N   0  0  0  0  0  0  0  0  0  0  0  0
  -24.7980   -1.2439  -10.5065 N   0  0  0  0  0  0  0  0  0  0  0  0
  -25.7339   -1.7127  -11.3575 C   0  0  0  0  0  0  0  0  0  0  0  0
  -25.6736   -1.5258  -12.6861 N   0  0  0  0  0  0  0  0  0  0  0  0
  -24.5785   -0.8892  -13.1576 C   0  0  0  0  0  0  0  0  0  0  0  0
  -20.9969    1.1564  -14.6188 C   0  0  0  0  0  0  0  0  0  0  0  0
  -20.8689    2.5692  -14.5281 C   0  0  0  0  0  0  0  0  0  0  0  0
  -22.0992    3.6193  -13.8919 Cl  0  0  0  0  0  0  0  0  0  0  0  0
  -19.6892    3.2386  -14.9013 C   0  0  0  0  0  0  0  0  0  0  0  0
  -18.5725    2.5318  -15.3191 C   0  0  0  0  0  0  0  0  0  0  0  0
  -18.6525    1.1531  -15.4259 C   0  0  0  0  0  0  0  0  0  0  0  0
  -19.8504    0.4801  -15.1273 C   0  0  0  0  0  0  0  0  0  0  0  0
  -19.8172   -1.2198  -15.4975 Cl  0  0  0  0  0  0  0  0  0  0  0  0
  -26.8213   -2.4223  -10.8489 N   0  0  0  0  0  0  0  0  0  0  0  0
  -26.9159   -3.3260  -11.2886 H   0  0  0  0  0  0  0  0  0  0  0  0
  -27.3437   -2.3133   -9.5464 C   0  0  0  0  0  0  0  0  0  0  0  0
  -27.4887   -1.0513   -8.9682 C   0  0  0  0  0  0  0  0  0  0  0  0
  -27.9350   -0.9223   -7.6493 C   0  0  0  0  0  0  0  0  0  0  0  0
  -28.2826   -2.0557   -6.9113 C   0  0  0  0  0  0  0  0  0  0  0  0
  -28.1392   -3.3154   -7.4777 C   0  0  0  0  0  0  0  0  0  0  0  0
  -27.6808   -3.4418   -8.7855 C   0  0  0  0  0  0  0  0  0  0  0  0
  -28.7671   -2.0574   -5.6350 O   0  0  0  0  0  0  0  0  0  0  0  0
  -28.2668   -3.1066   -4.8064 C   0  0  0  0  0  0  0  0  0  0  0  0
  -29.4004   -3.5851   -3.8929 C   0  0  0  0  0  0  0  0  0  0  0  0
  -30.5976   -4.0222   -4.6357 N   0  0  0  0  0  0  0  0  0  0  0  0
  -31.6941   -4.4629   -3.7607 C   0  0  0  0  0  0  0  0  0  0  0  0
  -31.3862   -5.9144   -3.4644 C   0  0  0  0  0  0  0  0  0  0  0  0
  -30.8845   -6.4165   -4.8032 C   0  0  0  0  0  0  0  0  0  0  0  0
  -30.2822   -5.1893   -5.4833 C   0  0  0  0  0  0  0  0  0  0  0  0
  1  2  1  0  0  0
  2  3  1  0  0  0
  2 11  2  0  0  0
  3  4  2  0  0  0
  4 12  1  0  0  0
  4  5  1  0  0  0
 12 13  1  0  0  0
 12 18  2  0  0  0
 13 14  1  0  0  0
 13 15  2  0  0  0
 15 16  1  0  0  0
 16 17  2  0  0  0
 17 18  1  0  0  0
 18 19  1  0  0  0
  5  6  2  0  0  0
  6  7  1  0  0  0
  6 11  1  0  0  0
  7  8  2  0  0  0
  8  9  1  0  0  0
  9 20  1  0  0  0
  9 10  2  0  0  0
 20 22  1  0  0  0
 20 21  1  0  0  0
 22 23  1  0  0  0
 22 27  2  0  0  0
 23 24  2  0  0  0
 24 25  1  0  0  0
 25 28  1  0  0  0
 25 26  2  0  0  0
 28 29  1  0  0  0
 29 30  1  0  0  0
 30 31  1  0  0  0
 31 32  1  0  0  0
 31 35  1  0  0  0
 32 33  1  0  0  0
 33 34  1  0  0  0
 34 35  1  0  0  0
 26 27  1  0  0  0
 10 11  1  0  0  0
M  END
> <minimizedAffinity>
-9.35247

$$$$
