CHEMBL3916459


 30 33  0  0  0  0  0  0  0  0999 V2000
  -29.5611   -3.9495   -7.1263 C   0  0  0  0  0  0  0  0  0  0  0  0
  -29.6125   -2.9738   -6.1265 C   0  0  0  0  0  0  0  0  0  0  0  0
  -28.7719   -1.8762   -6.1875 C   0  0  0  0  0  0  0  0  0  0  0  0
  -27.9355   -1.7105   -7.2866 C   0  0  0  0  0  0  0  0  0  0  0  0
  -27.9363   -2.6242   -8.3480 C   0  0  0  0  0  0  0  0  0  0  0  0
  -28.7799   -3.7404   -8.2750 C   0  0  0  0  0  0  0  0  0  0  0  0
  -27.1119   -2.4482   -9.4910 N   0  0  0  0  0  0  0  0  0  0  0  0
  -27.3899   -1.5723  -10.5380 C   0  0  0  0  0  0  0  0  0  0  0  0
  -28.3213   -0.7700  -10.5189 O   0  0  0  0  0  0  0  0  0  0  0  0
  -26.2241   -2.9276   -9.5343 H   0  0  0  0  0  0  0  0  0  0  0  0
  -26.4983   -1.6343  -11.6774 C   0  0  0  0  0  0  0  0  0  0  0  0
  -25.1574   -1.4251  -11.5346 O   0  0  0  0  0  0  0  0  0  0  0  0
  -24.6052   -1.5800  -12.7687 C   0  0  0  0  0  0  0  0  0  0  0  0
  -25.5672   -1.8832  -13.7005 C   0  0  0  0  0  0  0  0  0  0  0  0
  -26.8083   -1.9034  -13.0047 C   0  0  0  0  0  0  0  0  0  0  0  0
  -28.1578   -2.1776  -13.5633 C   0  0  0  0  0  0  0  0  0  0  0  0
  -30.2532   -5.1450   -7.0431 O   0  0  0  0  0  0  0  0  0  0  0  0
  -28.0033   -9.1401   -7.8378 C   0  0  0  0  0  0  0  0  0  0  0  0
  -28.0887   -9.3363   -6.4738 C   0  0  0  0  0  0  0  0  0  0  0  0
  -28.7155   -8.2547   -5.7975 C   0  0  0  0  0  0  0  0  0  0  0  0
  -28.9225   -8.2067   -4.4550 N   0  0  0  0  0  0  0  0  0  0  0  0
  -29.5166   -7.0935   -3.9966 C   0  0  0  0  0  0  0  0  0  0  0  0
  -29.9320   -6.0355   -4.7819 C   0  0  0  0  0  0  0  0  0  0  0  0
  -29.7908   -6.1186   -6.1717 C   0  0  0  0  0  0  0  0  0  0  0  0
  -29.1185   -7.2456   -6.6721 C   0  0  0  0  0  0  0  0  0  0  0  0
  -28.6879   -7.6378   -8.2904 S   0  0  0  0  0  0  0  0  0  0  0  0
  -27.4463  -10.0103   -8.8525 C   0  0  0  0  0  0  0  0  0  0  0  0
  -26.6013  -10.8828   -8.6851 O   0  0  0  0  0  0  0  0  0  0  0  0
  -28.9218  -10.6868  -10.5484 C   0  0  0  0  0  0  0  0  0  0  0  0
  -28.0035   -9.7089  -10.0631 O   0  0  0  0  0  0  0  0  0  0  0  0
 29 30  1  0  0  0
 30 27  1  0  0  0
 27 28  2  0  0  0
 27 18  1  0  0  0
 18 19  2  0  0  0
 18 26  1  0  0  0
 19 20  1  0  0  0
 20 21  1  0  0  0
 20 25  2  0  0  0
 21 22  2  0  0  0
 22 23  1  0  0  0
 23 24  2  0  0  0
 24 17  1  0  0  0
 24 25  1  0  0  0
 17  1  1  0  0  0
  1  2  1  0  0  0
  1  6  2  0  0  0
  2  3  2  0  0  0
  3  4  1  0  0  0
  4  5  2  0  0  0
  5  7  1  0  0  0
  5  6  1  0  0  0
  7  8  1  0  0  0
  7 10  1  0  0  0
  8  9  2  0  0  0
  8 11  1  0  0  0
 11 12  1  0  0  0
 11 15  2  0  0  0
 12 13  1  0  0  0
 13 14  2  0  0  0
 14 15  1  0  0  0
 15 16  1  0  0  0
 25 26  1  0  0  0
M  END
> <minimizedAffinity>
-8.80261

$$$$
