CHEMBL4462301


 29 32  0  0  0  0  0  0  0  0999 V2000
  -18.9683    2.2939  -15.4435 C   0  0  0  0  0  0  0  0  0  0  0  0
  -19.7145    3.3976  -15.0054 C   0  0  0  0  0  0  0  0  0  0  0  0
  -20.9774    3.2488  -14.4405 C   0  0  0  0  0  0  0  0  0  0  0  0
  -21.4142    1.9419  -14.2960 C   0  0  0  0  0  0  0  0  0  0  0  0
  -22.6088    1.5806  -13.7742 O   0  0  0  0  0  0  0  0  0  0  0  0
  -22.6298    0.2145  -13.8698 C   0  0  0  0  0  0  0  0  0  0  0  0
  -21.5093   -0.3052  -14.3555 N   0  0  0  0  0  0  0  0  0  0  0  0
  -20.7328    0.8022  -14.6744 C   0  0  0  0  0  0  0  0  0  0  0  0
  -19.4648    0.9744  -15.2869 C   0  0  0  0  0  0  0  0  0  0  0  0
  -23.9227   -0.3706  -13.4899 C   0  0  0  0  0  0  0  0  0  0  0  0
  -24.4262   -0.1355  -12.1921 C   0  0  0  0  0  0  0  0  0  0  0  0
  -25.6746   -0.6117  -11.7883 C   0  0  0  0  0  0  0  0  0  0  0  0
  -26.4433   -1.3480  -12.6792 C   0  0  0  0  0  0  0  0  0  0  0  0
  -27.9981   -1.9012  -12.1997 Cl  0  0  0  0  0  0  0  0  0  0  0  0
  -25.9565   -1.6247  -13.9587 C   0  0  0  0  0  0  0  0  0  0  0  0
  -24.7014   -1.1356  -14.3666 C   0  0  0  0  0  0  0  0  0  0  0  0
  -16.5032    2.1070  -15.5139 C   0  0  0  0  0  0  0  0  0  0  0  0
  -16.3907    1.4040  -14.5116 O   0  0  0  0  0  0  0  0  0  0  0  0
  -17.7054    2.5989  -16.0020 N   0  0  0  0  0  0  0  0  0  0  0  0
  -17.6984    2.7735  -17.0005 H   0  0  0  0  0  0  0  0  0  0  0  0
  -15.2984    2.5091  -16.3597 C   0  0  0  0  0  0  0  0  0  0  0  0
  -12.0391    4.8072  -14.6164 C   0  0  0  0  0  0  0  0  0  0  0  0
  -12.2396    3.4764  -14.2618 C   0  0  0  0  0  0  0  0  0  0  0  0
  -13.3242    2.7571  -14.7894 C   0  0  0  0  0  0  0  0  0  0  0  0
  -14.2324    3.3515  -15.6833 C   0  0  0  0  0  0  0  0  0  0  0  0
  -14.0224    4.6900  -16.0307 C   0  0  0  0  0  0  0  0  0  0  0  0
  -12.9385    5.4083  -15.5011 C   0  0  0  0  0  0  0  0  0  0  0  0
  -11.2493    7.0118  -14.1526 C   0  0  0  0  0  0  0  0  0  0  0  0
  -11.0144    5.6073  -14.1932 O   0  0  0  0  0  0  0  0  0  0  0  0
 28 29  1  0  0  0
 29 22  1  0  0  0
 22 23  1  0  0  0
 22 27  2  0  0  0
 23 24  2  0  0  0
 24 25  1  0  0  0
 25 21  1  0  0  0
 25 26  2  0  0  0
 21 17  1  0  0  0
 17 18  2  0  0  0
 17 19  1  0  0  0
 19  1  1  0  0  0
 19 20  1  0  0  0
  1  2  1  0  0  0
  1  9  2  0  0  0
  2  3  2  0  0  0
  3  4  1  0  0  0
  4  5  1  0  0  0
  4  8  2  0  0  0
  5  6  1  0  0  0
  6 10  1  0  0  0
  6  7  2  0  0  0
 10 11  1  0  0  0
 10 16  2  0  0  0
 11 12  2  0  0  0
 12 13  1  0  0  0
 13 14  1  0  0  0
 13 15  2  0  0  0
 15 16  1  0  0  0
  7  8  1  0  0  0
  8  9  1  0  0  0
 26 27  1  0  0  0
M  END
> <minimizedAffinity>
-9.50106

$$$$
