CHEMBL2386805


 41 45  0  0  0  0  0  0  0  0999 V2000
  -26.6635   -1.3434  -11.0412 C   0  0  0  0  0  0  0  0  0  0  0  0
  -26.0973   -0.4112  -11.8622 C   0  0  0  0  0  0  0  0  0  0  0  0
  -24.7997   -0.9102  -12.1781 C   0  0  0  0  0  0  0  0  0  0  0  0
  -24.6183   -2.1284  -11.6425 N   0  0  0  0  0  0  0  0  0  0  0  0
  -25.7526   -2.3616  -10.9540 N   0  0  0  0  0  0  0  0  0  0  0  0
  -25.8536   -3.1955  -10.3922 H   0  0  0  0  0  0  0  0  0  0  0  0
  -23.7451   -0.2425  -12.9460 C   0  0  0  0  0  0  0  0  0  0  0  0
  -22.7775   -0.9897  -13.6385 C   0  0  0  0  0  0  0  0  0  0  0  0
  -21.7699   -0.3586  -14.3664 C   0  0  0  0  0  0  0  0  0  0  0  0
  -21.6991    1.0382  -14.4218 C   0  0  0  0  0  0  0  0  0  0  0  0
  -22.6740    1.7910  -13.7562 C   0  0  0  0  0  0  0  0  0  0  0  0
  -23.6834    1.1566  -13.0263 C   0  0  0  0  0  0  0  0  0  0  0  0
  -20.5651    1.7087  -15.1453 C   0  0  0  0  0  0  0  0  0  0  0  0
  -19.3807    0.8873  -15.2253 N   0  0  0  0  0  0  0  0  0  0  0  0
  -18.2662    1.2847  -14.5261 C   0  0  0  0  0  0  0  0  0  0  0  0
  -18.2595    2.2819  -13.8123 O   0  0  0  0  0  0  0  0  0  0  0  0
  -17.1871    0.4692  -14.7688 N   0  0  0  0  0  0  0  0  0  0  0  0
  -19.5156   -0.1122  -15.3090 H   0  0  0  0  0  0  0  0  0  0  0  0
  -17.1119    0.1394  -15.7193 H   0  0  0  0  0  0  0  0  0  0  0  0
  -15.9598    0.7680  -14.2013 C   0  0  0  0  0  0  0  0  0  0  0  0
  -14.8366    1.3564  -14.8260 C   0  0  0  0  0  0  0  0  0  0  0  0
  -13.8659    1.3533  -13.8562 C   0  0  0  0  0  0  0  0  0  0  0  0
  -12.4529    1.7688  -13.8155 C   0  0  0  0  0  0  0  0  0  0  0  0
  -14.3846    0.8357  -12.7100 O   0  0  0  0  0  0  0  0  0  0  0  0
  -15.7198    0.5221  -12.9097 N   0  0  0  0  0  0  0  0  0  0  0  0
  -27.8525   -1.3431  -10.3785 N   0  0  0  0  0  0  0  0  0  0  0  0
  -28.4689   -0.5577  -10.5591 H   0  0  0  0  0  0  0  0  0  0  0  0
  -27.5543   -0.5371   -5.6361 C   0  0  0  0  0  0  0  0  0  0  0  0
  -27.8492   -1.4683   -6.7732 C   0  0  0  0  0  0  0  0  0  0  0  0
  -27.6669   -0.9832   -8.0112 N   0  0  0  0  0  0  0  0  0  0  0  0
  -27.9886   -1.7892   -9.0376 C   0  0  0  0  0  0  0  0  0  0  0  0
  -28.4324   -3.0686   -8.8277 C   0  0  0  0  0  0  0  0  0  0  0  0
  -28.5995   -3.4918   -7.5223 C   0  0  0  0  0  0  0  0  0  0  0  0
  -28.2973   -2.7053   -6.4813 N   0  0  0  0  0  0  0  0  0  0  0  0
  -29.0969   -4.7868   -7.3495 N   0  0  0  0  0  0  0  0  0  0  0  0
  -28.3410   -5.8874   -7.9592 C   0  0  0  0  0  0  0  0  0  0  0  0
  -29.2517   -7.1464   -7.9455 C   0  0  0  0  0  0  0  0  0  0  0  0
  -29.7283   -7.5096   -6.5846 N   0  0  0  0  0  0  0  0  0  0  0  0
  -30.6815   -8.6164   -6.6508 C   0  0  0  0  0  0  0  0  0  0  0  0
  -30.3591   -6.3366   -5.9366 C   0  0  0  0  0  0  0  0  0  0  0  0
  -29.4491   -5.0898   -5.9499 C   0  0  0  0  0  0  0  0  0  0  0  0
 28 29  1  0  0  0
 29 30  1  0  0  0
 29 34  2  0  0  0
 30 31  2  0  0  0
 31 26  1  0  0  0
 31 32  1  0  0  0
 26  1  1  0  0  0
 26 27  1  0  0  0
  1  2  2  0  0  0
  1  5  1  0  0  0
  2  3  1  0  0  0
  3  7  1  0  0  0
  3  4  2  0  0  0
  7  8  1  0  0  0
  7 12  2  0  0  0
  8  9  2  0  0  0
  9 10  1  0  0  0
 10 13  1  0  0  0
 10 11  2  0  0  0
 13 14  1  0  0  0
 14 15  1  0  0  0
 14 18  1  0  0  0
 15 16  2  0  0  0
 15 17  1  0  0  0
 17 20  1  0  0  0
 17 19  1  0  0  0
 20 21  1  0  0  0
 20 25  2  0  0  0
 21 22  2  0  0  0
 22 23  1  0  0  0
 22 24  1  0  0  0
 24 25  1  0  0  0
 11 12  1  0  0  0
  4  5  1  0  0  0
  5  6  1  0  0  0
 32 33  2  0  0  0
 33 35  1  0  0  0
 33 34  1  0  0  0
 35 36  1  0  0  0
 35 41  1  0  0  0
 36 37  1  0  0  0
 37 38  1  0  0  0
 38 39  1  0  0  0
 38 40  1  0  0  0
 40 41  1  0  0  0
M  END
> <minimizedAffinity>
-11.03675

$$$$
