CHEMBL4784644


 50 56  0  0  0  0  0  0  0  0999 V2000
  -24.0821   -0.8900  -13.1104 C   0  0  0  0  0  0  0  0  0  0  0  0
  -25.4274   -1.1391  -13.4001 C   0  0  0  0  0  0  0  0  0  0  0  0
  -26.2825   -1.6528  -12.4250 C   0  0  0  0  0  0  0  0  0  0  0  0
  -25.8046   -1.9997  -11.1565 C   0  0  0  0  0  0  0  0  0  0  0  0
  -24.4614   -1.7302  -10.8658 C   0  0  0  0  0  0  0  0  0  0  0  0
  -23.6098   -1.1893  -11.8335 C   0  0  0  0  0  0  0  0  0  0  0  0
  -22.3263   -0.9661  -11.5135 F   0  0  0  0  0  0  0  0  0  0  0  0
  -26.6783   -2.6387  -10.2567 N   0  0  0  0  0  0  0  0  0  0  0  0
  -26.4945   -3.6390  -10.1450 H   0  0  0  0  0  0  0  0  0  0  0  0
  -27.2443   -2.1043   -9.0767 C   0  0  0  0  0  0  0  0  0  0  0  0
  -27.1860   -0.7631   -8.8805 N   0  0  0  0  0  0  0  0  0  0  0  0
  -27.7567   -0.2292   -7.7853 C   0  0  0  0  0  0  0  0  0  0  0  0
  -28.4047   -0.9734   -6.8243 C   0  0  0  0  0  0  0  0  0  0  0  0
  -28.4609   -2.3524   -6.9931 C   0  0  0  0  0  0  0  0  0  0  0  0
  -29.1423   -3.1498   -6.0608 N   0  0  0  0  0  0  0  0  0  0  0  0
  -29.1567   -4.5123   -6.1840 C   0  0  0  0  0  0  0  0  0  0  0  0
  -28.6191   -5.1974   -7.2050 C   0  0  0  0  0  0  0  0  0  0  0  0
  -27.9260   -4.4120   -8.2777 C   0  0  0  0  0  0  0  0  0  0  0  0
  -27.3558   -4.9757   -9.2090 O   0  0  0  0  0  0  0  0  0  0  0  0
  -27.8898   -2.9280   -8.1435 C   0  0  0  0  0  0  0  0  0  0  0  0
  -29.3777   -2.7496   -5.1588 H   0  0  0  0  0  0  0  0  0  0  0  0
  -28.6380   -6.6637   -7.2039 C   0  0  0  0  0  0  0  0  0  0  0  0
  -28.6134   -7.3834   -6.0010 C   0  0  0  0  0  0  0  0  0  0  0  0
  -28.6073   -8.7805   -6.0218 C   0  0  0  0  0  0  0  0  0  0  0  0
  -28.6236   -9.4502   -7.2404 C   0  0  0  0  0  0  0  0  0  0  0  0
  -28.6139  -10.7894   -7.2583 F   0  0  0  0  0  0  0  0  0  0  0  0
  -28.6475   -8.7513   -8.4413 C   0  0  0  0  0  0  0  0  0  0  0  0
  -28.6536   -7.3561   -8.4241 C   0  0  0  0  0  0  0  0  0  0  0  0
  -23.1848   -0.4382  -14.0569 O   0  0  0  0  0  0  0  0  0  0  0  0
  -19.1570    0.7212  -14.9516 C   0  0  0  0  0  0  0  0  0  0  0  0
  -20.4771    0.3076  -14.7414 C   0  0  0  0  0  0  0  0  0  0  0  0
  -21.4710    1.2217  -14.3010 C   0  0  0  0  0  0  0  0  0  0  0  0
  -22.7921    0.8931  -13.9754 C   0  0  0  0  0  0  0  0  0  0  0  0
  -23.7105    1.7895  -13.5660 N   0  0  0  0  0  0  0  0  0  0  0  0
  -23.3016    3.0566  -13.5477 C   0  0  0  0  0  0  0  0  0  0  0  0
  -22.0630    3.4909  -13.8152 N   0  0  0  0  0  0  0  0  0  0  0  0
  -21.1556    2.5716  -14.1651 C   0  0  0  0  0  0  0  0  0  0  0  0
  -19.8585    2.9819  -14.4302 C   0  0  0  0  0  0  0  0  0  0  0  0
  -18.8614    2.0891  -14.8458 C   0  0  0  0  0  0  0  0  0  0  0  0
  -16.9433   -0.0734  -14.4614 C   0  0  0  0  0  0  0  0  0  0  0  0
  -18.1364   -0.1411  -15.2365 O   0  0  0  0  0  0  0  0  0  0  0  0
  -17.6539    2.6993  -15.0870 O   0  0  0  0  0  0  0  0  0  0  0  0
  -17.5895    3.5507  -16.2360 C   0  0  0  0  0  0  0  0  0  0  0  0
  -16.2998    4.3831  -16.2083 C   0  0  0  0  0  0  0  0  0  0  0  0
  -15.3648    3.9815  -17.3523 C   0  0  0  0  0  0  0  0  0  0  0  0
  -14.0910    3.3536  -16.9397 N   0  0  0  0  0  0  0  0  0  0  0  0
  -13.4046    2.8095  -18.1323 C   0  0  0  0  0  0  0  0  0  0  0  0
  -14.1018    1.4857  -18.3949 C   0  0  0  0  0  0  0  0  0  0  0  0
  -14.3497    0.9490  -16.9954 C   0  0  0  0  0  0  0  0  0  0  0  0
  -14.2653    2.1695  -16.0789 C   0  0  0  0  0  0  0  0  0  0  0  0
 40 41  1  0  0  0
 41 30  1  0  0  0
 30 31  1  0  0  0
 30 39  2  0  0  0
 31 32  2  0  0  0
 32 33  1  0  0  0
 32 37  1  0  0  0
 33 29  1  0  0  0
 33 34  2  0  0  0
 29  1  1  0  0  0
  1  2  1  0  0  0
  1  6  2  0  0  0
  2  3  2  0  0  0
  3  4  1  0  0  0
  4  8  1  0  0  0
  4  5  2  0  0  0
  8 10  1  0  0  0
  8  9  1  0  0  0
 10 11  1  0  0  0
 10 20  2  0  0  0
 11 12  2  0  0  0
 12 13  1  0  0  0
 13 14  2  0  0  0
 14 15  1  0  0  0
 14 20  1  0  0  0
 15 16  1  0  0  0
 15 21  1  0  0  0
 16 17  2  0  0  0
 17 22  1  0  0  0
 17 18  1  0  0  0
 22 23  1  0  0  0
 22 28  2  0  0  0
 23 24  2  0  0  0
 24 25  1  0  0  0
 25 26  1  0  0  0
 25 27  2  0  0  0
 27 28  1  0  0  0
 18 19  2  0  0  0
 18 20  1  0  0  0
  5  6  1  0  0  0
  6  7  1  0  0  0
 34 35  1  0  0  0
 35 36  2  0  0  0
 36 37  1  0  0  0
 37 38  2  0  0  0
 38 39  1  0  0  0
 39 42  1  0  0  0
 42 43  1  0  0  0
 43 44  1  0  0  0
 44 45  1  0  0  0
 45 46  1  0  0  0
 46 47  1  0  0  0
 46 50  1  0  0  0
 47 48  1  0  0  0
 48 49  1  0  0  0
 49 50  1  0  0  0
M  END
> <minimizedAffinity>
-8.71904

$$$$
