CHEMBL4779315


 41 44  0  0  0  0  0  0  0  0999 V2000
  -23.8847   -1.0370  -13.0928 C   0  0  0  0  0  0  0  0  0  0  0  0
  -23.4615   -1.1698  -11.7719 C   0  0  0  0  0  0  0  0  0  0  0  0
  -24.3414   -1.6396  -10.7849 C   0  0  0  0  0  0  0  0  0  0  0  0
  -25.6627   -1.9770  -11.0891 C   0  0  0  0  0  0  0  0  0  0  0  0
  -26.0882   -1.8424  -12.4168 C   0  0  0  0  0  0  0  0  0  0  0  0
  -25.2086   -1.3649  -13.3990 C   0  0  0  0  0  0  0  0  0  0  0  0
  -25.6816   -1.2256  -14.6462 F   0  0  0  0  0  0  0  0  0  0  0  0
  -26.6062   -2.3961  -10.1149 N   0  0  0  0  0  0  0  0  0  0  0  0
  -27.0516   -1.6429   -9.0347 C   0  0  0  0  0  0  0  0  0  0  0  0
  -26.5272   -0.5940   -8.6533 O   0  0  0  0  0  0  0  0  0  0  0  0
  -26.9155   -3.3611  -10.1607 H   0  0  0  0  0  0  0  0  0  0  0  0
  -28.2822   -2.2191   -8.2881 C   0  0  0  0  0  0  0  0  0  0  0  0
  -28.4744   -1.5986   -6.8650 C   0  0  0  0  0  0  0  0  0  0  0  0
  -27.3702   -2.0612   -5.8994 C   0  0  0  0  0  0  0  0  0  0  0  0
  -28.4096   -0.0556   -6.9599 C   0  0  0  0  0  0  0  0  0  0  0  0
  -29.8475   -1.9637   -6.2652 C   0  0  0  0  0  0  0  0  0  0  0  0
  -28.0655   -3.6392   -8.1264 O   0  0  0  0  0  0  0  0  0  0  0  0
  -29.1845   -4.3914   -7.9975 C   0  0  0  0  0  0  0  0  0  0  0  0
  -30.2877   -4.1109   -8.4356 O   0  0  0  0  0  0  0  0  0  0  0  0
  -28.8923   -5.5851   -7.1633 C   0  0  0  0  0  0  0  0  0  0  0  0
  -28.5757   -5.4730   -5.8004 C   0  0  0  0  0  0  0  0  0  0  0  0
  -28.3086   -6.6210   -5.0496 C   0  0  0  0  0  0  0  0  0  0  0  0
  -28.3574   -7.8695   -5.6615 C   0  0  0  0  0  0  0  0  0  0  0  0
  -28.1038   -8.9675   -4.9406 F   0  0  0  0  0  0  0  0  0  0  0  0
  -28.6607   -7.9939   -7.0137 C   0  0  0  0  0  0  0  0  0  0  0  0
  -28.9239   -6.8487   -7.7697 C   0  0  0  0  0  0  0  0  0  0  0  0
  -22.9624   -0.5083  -13.9739 O   0  0  0  0  0  0  0  0  0  0  0  0
  -18.8105    2.3176  -14.7726 C   0  0  0  0  0  0  0  0  0  0  0  0
  -19.8948    3.1581  -14.4734 C   0  0  0  0  0  0  0  0  0  0  0  0
  -21.1698    2.6765  -14.2244 C   0  0  0  0  0  0  0  0  0  0  0  0
  -22.1093    3.5625  -13.8576 N   0  0  0  0  0  0  0  0  0  0  0  0
  -23.3400    3.1008  -13.5649 C   0  0  0  0  0  0  0  0  0  0  0  0
  -23.6941    1.7706  -13.6199 C   0  0  0  0  0  0  0  0  0  0  0  0
  -22.7059    0.8502  -13.9590 C   0  0  0  0  0  0  0  0  0  0  0  0
  -21.4119    1.2973  -14.3268 C   0  0  0  0  0  0  0  0  0  0  0  0
  -20.3542    0.4640  -14.7636 C   0  0  0  0  0  0  0  0  0  0  0  0
  -19.0533    0.9556  -14.9770 C   0  0  0  0  0  0  0  0  0  0  0  0
  -17.1720    3.2897  -16.1798 C   0  0  0  0  0  0  0  0  0  0  0  0
  -17.5392    2.8215  -14.8768 O   0  0  0  0  0  0  0  0  0  0  0  0
  -18.1841   -0.0348  -15.3442 O   0  0  0  0  0  0  0  0  0  0  0  0
  -16.9429   -0.1794  -14.6715 C   0  0  0  0  0  0  0  0  0  0  0  0
 38 39  1  0  0  0
 39 28  1  0  0  0
 28 29  1  0  0  0
 28 37  2  0  0  0
 29 30  2  0  0  0
 30 31  1  0  0  0
 30 35  1  0  0  0
 31 32  2  0  0  0
 32 33  1  0  0  0
 33 34  2  0  0  0
 34 27  1  0  0  0
 34 35  1  0  0  0
 27  1  1  0  0  0
  1  2  1  0  0  0
  1  6  2  0  0  0
  2  3  2  0  0  0
  3  4  1  0  0  0
  4  8  1  0  0  0
  4  5  2  0  0  0
  8  9  1  0  0  0
  8 11  1  0  0  0
  9 10  2  0  0  0
  9 12  1  0  0  0
 12 17  1  0  0  0
 12 13  1  0  0  0
 17 18  1  0  0  0
 18 19  2  0  0  0
 18 20  1  0  0  0
 20 21  1  0  0  0
 20 26  2  0  0  0
 21 22  2  0  0  0
 22 23  1  0  0  0
 23 24  1  0  0  0
 23 25  2  0  0  0
 25 26  1  0  0  0
 13 14  1  0  0  0
 13 15  1  0  0  0
 13 16  1  0  0  0
  5  6  1  0  0  0
  6  7  1  0  0  0
 35 36  2  0  0  0
 36 37  1  0  0  0
 37 40  1  0  0  0
 40 41  1  0  0  0
M  END
> <minimizedAffinity>
-8.07865

$$$$
