CHEMBL204426


 31 35  0  0  0  0  0  0  0  0999 V2000
  -27.8471   -2.4309   -8.5512 C   0  0  0  0  0  0  0  0  0  0  0  0
  -26.5917   -2.0149   -8.6888 N   0  0  0  0  0  0  0  0  0  0  0  0
  -26.4307   -1.7367  -10.0442 C   0  0  0  0  0  0  0  0  0  0  0  0
  -25.3349   -1.2570  -10.7809 C   0  0  0  0  0  0  0  0  0  0  0  0
  -25.4788   -0.9410  -12.1588 C   0  0  0  0  0  0  0  0  0  0  0  0
  -26.6983   -1.2127  -12.7913 C   0  0  0  0  0  0  0  0  0  0  0  0
  -27.7832   -1.7506  -12.0992 C   0  0  0  0  0  0  0  0  0  0  0  0
  -27.6035   -1.9723  -10.7365 C   0  0  0  0  0  0  0  0  0  0  0  0
  -28.4560   -2.4413   -9.7884 N   0  0  0  0  0  0  0  0  0  0  0  0
  -29.3940   -2.7781   -9.9633 H   0  0  0  0  0  0  0  0  0  0  0  0
  -28.7070   -5.1879   -8.0455 N   0  0  0  0  0  0  0  0  0  0  0  0
  -29.0496   -4.1151   -7.2264 C   0  0  0  0  0  0  0  0  0  0  0  0
  -28.6602   -2.8287   -7.4302 C   0  0  0  0  0  0  0  0  0  0  0  0
  -29.0115   -1.7683   -6.4166 C   0  0  0  0  0  0  0  0  0  0  0  0
  -28.6398   -0.5975   -6.5261 O   0  0  0  0  0  0  0  0  0  0  0  0
  -29.7220   -2.1305   -5.3245 N   0  0  0  0  0  0  0  0  0  0  0  0
  -30.1633   -3.4171   -5.0827 C   0  0  0  0  0  0  0  0  0  0  0  0
  -30.9019   -3.6382   -3.9169 C   0  0  0  0  0  0  0  0  0  0  0  0
  -31.3864   -4.9035   -3.6378 C   0  0  0  0  0  0  0  0  0  0  0  0
  -31.1140   -5.9445   -4.5218 C   0  0  0  0  0  0  0  0  0  0  0  0
  -30.3525   -5.7181   -5.6820 C   0  0  0  0  0  0  0  0  0  0  0  0
  -29.8665   -4.4379   -5.9977 C   0  0  0  0  0  0  0  0  0  0  0  0
  -28.3464   -4.8716   -8.9521 H   0  0  0  0  0  0  0  0  0  0  0  0
  -29.4477   -5.8702   -8.1702 H   0  0  0  0  0  0  0  0  0  0  0  0
  -29.9047   -1.3856   -4.6595 H   0  0  0  0  0  0  0  0  0  0  0  0
  -24.4048   -0.3401  -12.8185 N   0  0  0  0  0  0  0  0  0  0  0  0
  -23.9751    1.0362  -12.4984 C   0  0  0  0  0  0  0  0  0  0  0  0
  -23.0467    1.5192  -13.6337 C   0  0  0  0  0  0  0  0  0  0  0  0
  -21.9178    0.6413  -13.8182 O   0  0  0  0  0  0  0  0  0  0  0  0
  -22.3579   -0.7037  -14.0837 C   0  0  0  0  0  0  0  0  0  0  0  0
  -23.2306   -1.2329  -12.9404 C   0  0  0  0  0  0  0  0  0  0  0  0
 11 12  1  0  0  0
 11 23  1  0  0  0
 11 24  1  0  0  0
 12 13  2  0  0  0
 12 22  1  0  0  0
 13  1  1  0  0  0
 13 14  1  0  0  0
  1  2  2  0  0  0
  1  9  1  0  0  0
  2  3  1  0  0  0
  3  4  1  0  0  0
  3  8  2  0  0  0
  4  5  2  0  0  0
  5 26  1  0  0  0
  5  6  1  0  0  0
 26 27  1  0  0  0
 26 31  1  0  0  0
 27 28  1  0  0  0
 28 29  1  0  0  0
 29 30  1  0  0  0
 30 31  1  0  0  0
  6  7  2  0  0  0
  7  8  1  0  0  0
  8  9  1  0  0  0
  9 10  1  0  0  0
 14 15  2  0  0  0
 14 16  1  0  0  0
 16 17  1  0  0  0
 16 25  1  0  0  0
 17 18  1  0  0  0
 17 22  2  0  0  0
 18 19  2  0  0  0
 19 20  1  0  0  0
 20 21  2  0  0  0
 21 22  1  0  0  0
M  END
> <minimizedAffinity>
-9.23087

$$$$
