CHEMBL194747


 30 33  0  0  0  0  0  0  0  0999 V2000
  -27.8838   -7.2344   -4.4931 C   0  0  0  0  0  0  0  0  0  0  0  0
  -27.1890   -6.1880   -4.0011 N   0  0  0  0  0  0  0  0  0  0  0  0
  -27.4665   -4.9038   -4.3817 N   0  0  0  0  0  0  0  0  0  0  0  0
  -28.4019   -4.6420   -5.3185 C   0  0  0  0  0  0  0  0  0  0  0  0
  -29.1137   -5.6994   -5.9343 C   0  0  0  0  0  0  0  0  0  0  0  0
  -30.0463   -5.5213   -6.9915 C   0  0  0  0  0  0  0  0  0  0  0  0
  -30.8172   -6.5675   -7.4938 C   0  0  0  0  0  0  0  0  0  0  0  0
  -30.6406   -7.8441   -6.9951 C   0  0  0  0  0  0  0  0  0  0  0  0
  -29.6644   -8.0752   -6.0266 C   0  0  0  0  0  0  0  0  0  0  0  0
  -28.8778   -7.0259   -5.4795 C   0  0  0  0  0  0  0  0  0  0  0  0
  -28.5968   -3.1854   -5.5537 C   0  0  0  0  0  0  0  0  0  0  0  0
  -29.5061   -2.4532   -4.7603 C   0  0  0  0  0  0  0  0  0  0  0  0
  -29.7475   -1.0881   -4.9875 C   0  0  0  0  0  0  0  0  0  0  0  0
  -29.0677   -0.4144   -6.0000 C   0  0  0  0  0  0  0  0  0  0  0  0
  -28.1747   -1.1149   -6.8107 C   0  0  0  0  0  0  0  0  0  0  0  0
  -27.9725   -2.4891   -6.6052 C   0  0  0  0  0  0  0  0  0  0  0  0
  -29.3659    1.0245   -6.2282 C   0  0  0  0  0  0  0  0  0  0  0  0
  -30.6269    1.4601   -5.9303 N   0  0  0  0  0  0  0  0  0  0  0  0
  -28.5306    1.7859   -6.6946 O   0  0  0  0  0  0  0  0  0  0  0  0
  -31.4016    0.8298   -5.7910 H   0  0  0  0  0  0  0  0  0  0  0  0
  -30.8357    2.4170   -6.1848 H   0  0  0  0  0  0  0  0  0  0  0  0
  -27.5134   -8.5526   -4.0889 N   0  0  0  0  0  0  0  0  0  0  0  0
  -27.3977   -8.5750   -3.0817 H   0  0  0  0  0  0  0  0  0  0  0  0
  -22.9507  -11.2402   -6.3025 C   0  0  0  0  0  0  0  0  0  0  0  0
  -24.1388  -10.5100   -5.7520 C   0  0  0  0  0  0  0  0  0  0  0  0
  -25.3719  -10.5608   -6.4068 C   0  0  0  0  0  0  0  0  0  0  0  0
  -26.4881   -9.9276   -5.8579 C   0  0  0  0  0  0  0  0  0  0  0  0
  -26.4036   -9.2546   -4.6329 C   0  0  0  0  0  0  0  0  0  0  0  0
  -25.1518   -9.1390   -4.0194 C   0  0  0  0  0  0  0  0  0  0  0  0
  -24.0320   -9.7765   -4.5645 C   0  0  0  0  0  0  0  0  0  0  0  0
 24 25  1  0  0  0
 25 26  1  0  0  0
 25 30  2  0  0  0
 26 27  2  0  0  0
 27 28  1  0  0  0
 28 22  1  0  0  0
 28 29  2  0  0  0
 22  1  1  0  0  0
 22 23  1  0  0  0
  1  2  1  0  0  0
  1 10  2  0  0  0
  2  3  2  0  0  0
  3  4  1  0  0  0
  4 11  1  0  0  0
  4  5  2  0  0  0
 11 12  1  0  0  0
 11 16  2  0  0  0
 12 13  2  0  0  0
 13 14  1  0  0  0
 14 17  1  0  0  0
 14 15  2  0  0  0
 17 18  1  0  0  0
 17 19  2  0  0  0
 18 20  1  0  0  0
 18 21  1  0  0  0
 15 16  1  0  0  0
  5  6  1  0  0  0
  5 10  1  0  0  0
  6  7  2  0  0  0
  7  8  1  0  0  0
  8  9  2  0  0  0
  9 10  1  0  0  0
 29 30  1  0  0  0
M  END
> <minimizedAffinity>
-8.41687

$$$$
