CHEMBL3897723


 31 34  0  0  0  0  0  0  0  0999 V2000
  -16.7544    0.9698  -15.1906 C   0  0  0  0  0  0  0  0  0  0  0  0
  -15.7536    1.5499  -15.8038 N   0  0  0  0  0  0  0  0  0  0  0  0
  -18.1405    1.5411  -14.9638 C   0  0  0  0  0  0  0  0  0  0  0  0
  -18.3246    2.8645  -14.5240 C   0  0  0  0  0  0  0  0  0  0  0  0
  -19.6044    3.3713  -14.2656 C   0  0  0  0  0  0  0  0  0  0  0  0
  -20.7223    2.5764  -14.4877 C   0  0  0  0  0  0  0  0  0  0  0  0
  -22.2951    3.2079  -14.2027 Cl  0  0  0  0  0  0  0  0  0  0  0  0
  -20.5686    1.2693  -14.9339 C   0  0  0  0  0  0  0  0  0  0  0  0
  -19.2849    0.7482  -15.1387 C   0  0  0  0  0  0  0  0  0  0  0  0
  -16.0356   -0.5965  -13.3642 C   0  0  0  0  0  0  0  0  0  0  0  0
  -16.5349   -0.3960  -14.5958 C   0  0  0  0  0  0  0  0  0  0  0  0
  -15.5311   -4.4931  -11.5900 C   0  0  0  0  0  0  0  0  0  0  0  0
  -15.7118   -4.3805  -12.9661 C   0  0  0  0  0  0  0  0  0  0  0  0
  -15.8649   -3.1163  -13.5562 C   0  0  0  0  0  0  0  0  0  0  0  0
  -15.8605   -1.9442  -12.7831 C   0  0  0  0  0  0  0  0  0  0  0  0
  -15.6539   -2.0687  -11.4055 C   0  0  0  0  0  0  0  0  0  0  0  0
  -15.4963   -3.3308  -10.8172 C   0  0  0  0  0  0  0  0  0  0  0  0
  -14.0735   -6.2307  -10.8716 C   0  0  0  0  0  0  0  0  0  0  0  0
  -15.3746   -5.6570  -10.8884 O   0  0  0  0  0  0  0  0  0  0  0  0
  -15.9186    2.8255  -16.2726 N   0  0  0  0  0  0  0  0  0  0  0  0
  -16.0988    2.8402  -17.2771 H   0  0  0  0  0  0  0  0  0  0  0  0
  -14.8050    3.7259  -16.1297 C   0  0  0  0  0  0  0  0  0  0  0  0
  -14.0369    3.7238  -15.0141 N   0  0  0  0  0  0  0  0  0  0  0  0
  -12.9517    4.5461  -14.9038 N   0  0  0  0  0  0  0  0  0  0  0  0
  -12.6715    5.4036  -15.9013 C   0  0  0  0  0  0  0  0  0  0  0  0
  -13.4311    5.4973  -17.0596 C   0  0  0  0  0  0  0  0  0  0  0  0
  -13.1401    6.4503  -18.0554 C   0  0  0  0  0  0  0  0  0  0  0  0
  -13.9032    6.5206  -19.2193 C   0  0  0  0  0  0  0  0  0  0  0  0
  -14.9466    5.6240  -19.4119 C   0  0  0  0  0  0  0  0  0  0  0  0
  -15.2530    4.6850  -18.4212 C   0  0  0  0  0  0  0  0  0  0  0  0
  -14.5164    4.6103  -17.2101 C   0  0  0  0  0  0  0  0  0  0  0  0
 18 19  1  0  0  0
 19 12  1  0  0  0
 12 13  1  0  0  0
 12 17  2  0  0  0
 13 14  2  0  0  0
 14 15  1  0  0  0
 15 10  1  0  0  0
 15 16  2  0  0  0
 10 11  2  0  0  0
 11  1  1  0  0  0
  1  2  2  0  0  0
  1  3  1  0  0  0
  2 20  1  0  0  0
 20 22  1  0  0  0
 20 21  1  0  0  0
 22 23  1  0  0  0
 22 31  2  0  0  0
 23 24  2  0  0  0
 24 25  1  0  0  0
 25 26  2  0  0  0
 26 27  1  0  0  0
 26 31  1  0  0  0
 27 28  2  0  0  0
 28 29  1  0  0  0
 29 30  2  0  0  0
 30 31  1  0  0  0
  3  4  1  0  0  0
  3  9  2  0  0  0
  4  5  2  0  0  0
  5  6  1  0  0  0
  6  7  1  0  0  0
  6  8  2  0  0  0
  8  9  1  0  0  0
 16 17  1  0  0  0
M  END
> <minimizedAffinity>
-8.89824

$$$$
