CHEMBL2000345


 26 28  0  0  0  0  0  0  0  0999 V2000
  -30.0979   -6.5671   -7.3180 C   0  0  0  0  0  0  0  0  0  0  0  0
  -29.7159   -6.0610   -6.1237 C   0  0  0  0  0  0  0  0  0  0  0  0
  -29.4528   -4.6510   -6.0262 C   0  0  0  0  0  0  0  0  0  0  0  0
  -29.7001   -3.7779   -5.0620 N   0  0  0  0  0  0  0  0  0  0  0  0
  -29.1606   -2.5780   -5.4760 C   0  0  0  0  0  0  0  0  0  0  0  0
  -29.1020   -1.3317   -4.8291 C   0  0  0  0  0  0  0  0  0  0  0  0
  -28.4559   -0.2551   -5.4699 C   0  0  0  0  0  0  0  0  0  0  0  0
  -28.3478    1.0848   -4.8039 C   0  0  0  0  0  0  0  0  0  0  0  0
  -27.8984   -0.4333   -6.7461 C   0  0  0  0  0  0  0  0  0  0  0  0
  -27.9575   -1.6631   -7.4087 C   0  0  0  0  0  0  0  0  0  0  0  0
  -28.5921   -2.7054   -6.7343 C   0  0  0  0  0  0  0  0  0  0  0  0
  -28.8076   -4.0141   -7.0713 N   0  0  0  0  0  0  0  0  0  0  0  0
  -28.5036   -4.4390   -7.9369 H   0  0  0  0  0  0  0  0  0  0  0  0
  -32.0857   -9.8280   -7.6547 C   0  0  0  0  0  0  0  0  0  0  0  0
  -31.7222   -8.5053   -7.3423 C   0  0  0  0  0  0  0  0  0  0  0  0
  -30.4736   -7.9607   -7.6955 C   0  0  0  0  0  0  0  0  0  0  0  0
  -29.5735   -8.8175   -8.3611 C   0  0  0  0  0  0  0  0  0  0  0  0
  -27.8386   -8.2621   -8.9252 Br  0  0  0  0  0  0  0  0  0  0  0  0
  -29.9210  -10.1423   -8.6707 C   0  0  0  0  0  0  0  0  0  0  0  0
  -31.1748  -10.6433   -8.3246 C   0  0  0  0  0  0  0  0  0  0  0  0
  -31.4907  -11.9257   -8.6709 O   0  0  0  0  0  0  0  0  0  0  0  0
  -30.7649  -12.3175   -9.1833 H   0  0  0  0  0  0  0  0  0  0  0  0
  -33.5337  -11.2516   -6.4163 C   0  0  0  0  0  0  0  0  0  0  0  0
  -33.3677  -10.1433   -7.2918 O   0  0  0  0  0  0  0  0  0  0  0  0
  -29.5908   -6.8629   -4.9509 C   0  0  0  0  0  0  0  0  0  0  0  0
  -29.3682   -7.5022   -4.0057 N   0  0  0  0  0  0  0  0  0  0  0  0
 23 24  1  0  0  0
 24 14  1  0  0  0
 14 15  1  0  0  0
 14 20  2  0  0  0
 15 16  2  0  0  0
 16  1  1  0  0  0
 16 17  1  0  0  0
  1  2  2  0  0  0
  2 25  1  0  0  0
  2  3  1  0  0  0
 25 26  3  0  0  0
  3  4  2  0  0  0
  3 12  1  0  0  0
  4  5  1  0  0  0
  5  6  1  0  0  0
  5 11  2  0  0  0
  6  7  2  0  0  0
  7  8  1  0  0  0
  7  9  1  0  0  0
  9 10  2  0  0  0
 10 11  1  0  0  0
 11 12  1  0  0  0
 12 13  1  0  0  0
 17 18  1  0  0  0
 17 19  2  0  0  0
 19 20  1  0  0  0
 20 21  1  0  0  0
 21 22  1  0  0  0
M  END
> <minimizedAffinity>
-8.29523

$$$$
