CHEMBL74391


 25 28  0  0  0  0  0  0  0  0999 V2000
  -29.7330   -5.6035   -6.5048 C   0  0  0  0  0  0  0  0  0  0  0  0
  -28.7459   -4.8718   -7.0697 N   0  0  0  0  0  0  0  0  0  0  0  0
  -28.2960   -3.7433   -6.4643 N   0  0  0  0  0  0  0  0  0  0  0  0
  -28.8879   -3.2823   -5.3356 C   0  0  0  0  0  0  0  0  0  0  0  0
  -29.9788   -3.9691   -4.7296 C   0  0  0  0  0  0  0  0  0  0  0  0
  -30.7298   -3.4900   -3.6417 C   0  0  0  0  0  0  0  0  0  0  0  0
  -31.6969   -4.2820   -2.9970 C   0  0  0  0  0  0  0  0  0  0  0  0
  -31.9205   -5.5766   -3.4350 C   0  0  0  0  0  0  0  0  0  0  0  0
  -31.2697   -6.0364   -4.5814 C   0  0  0  0  0  0  0  0  0  0  0  0
  -30.3354   -5.2264   -5.2840 C   0  0  0  0  0  0  0  0  0  0  0  0
  -30.2322   -7.0206   -7.4729 S   0  0  0  0  0  0  0  0  0  0  0  0
  -25.6955  -11.2246   -6.1451 Cl  0  0  0  0  0  0  0  0  0  0  0  0
  -26.9096  -10.0743   -6.5331 C   0  0  0  0  0  0  0  0  0  0  0  0
  -27.2634   -9.8555   -7.8677 C   0  0  0  0  0  0  0  0  0  0  0  0
  -28.2620   -8.9220   -8.1871 C   0  0  0  0  0  0  0  0  0  0  0  0
  -28.9345   -8.2217   -7.1760 C   0  0  0  0  0  0  0  0  0  0  0  0
  -28.5444   -8.4354   -5.8446 C   0  0  0  0  0  0  0  0  0  0  0  0
  -27.5384   -9.3554   -5.5242 C   0  0  0  0  0  0  0  0  0  0  0  0
  -28.1872   -2.0770   -4.7320 C   0  0  0  0  0  0  0  0  0  0  0  0
  -28.6579   -0.7532   -5.3072 C   0  0  0  0  0  0  0  0  0  0  0  0
  -29.8944   -0.2003   -4.9462 C   0  0  0  0  0  0  0  0  0  0  0  0
  -30.3670    0.8972   -5.6523 C   0  0  0  0  0  0  0  0  0  0  0  0
  -29.6790    1.5078   -6.6401 N   0  0  0  0  0  0  0  0  0  0  0  0
  -28.4544    1.0134   -6.9148 C   0  0  0  0  0  0  0  0  0  0  0  0
  -27.8997   -0.0844   -6.2723 C   0  0  0  0  0  0  0  0  0  0  0  0
 12 13  1  0  0  0
 13 14  1  0  0  0
 13 18  2  0  0  0
 14 15  2  0  0  0
 15 16  1  0  0  0
 16 11  1  0  0  0
 16 17  2  0  0  0
 11  1  1  0  0  0
  1  2  1  0  0  0
  1 10  2  0  0  0
  2  3  2  0  0  0
  3  4  1  0  0  0
  4 19  1  0  0  0
  4  5  2  0  0  0
 19 20  1  0  0  0
 20 21  1  0  0  0
 20 25  2  0  0  0
 21 22  2  0  0  0
 22 23  1  0  0  0
 23 24  2  0  0  0
 24 25  1  0  0  0
  5  6  1  0  0  0
  5 10  1  0  0  0
  6  7  2  0  0  0
  7  8  1  0  0  0
  8  9  2  0  0  0
  9 10  1  0  0  0
 17 18  1  0  0  0
M  END
> <minimizedAffinity>
-8.02466

$$$$
