CHEMBL397323


 24 26  0  0  0  0  0  0  0  0999 V2000
  -15.2525    0.8397  -14.6714 C   0  0  0  0  0  0  0  0  0  0  0  0
  -14.3854    1.2041  -15.6924 C   0  0  0  0  0  0  0  0  0  0  0  0
  -15.1591    1.9255  -16.6111 C   0  0  0  0  0  0  0  0  0  0  0  0
  -16.4259    2.0241  -16.2333 N   0  0  0  0  0  0  0  0  0  0  0  0
  -16.4801    1.3687  -15.0493 N   0  0  0  0  0  0  0  0  0  0  0  0
  -14.4798    0.7172  -12.4704 O   0  0  0  0  0  0  0  0  0  0  0  0
  -14.9855    0.1396  -13.4286 C   0  0  0  0  0  0  0  0  0  0  0  0
  -15.3123   -1.2136  -13.4498 N   0  0  0  0  0  0  0  0  0  0  0  0
  -15.6658   -1.5876  -14.3176 H   0  0  0  0  0  0  0  0  0  0  0  0
  -15.0474   -2.1584  -12.4338 C   0  0  0  0  0  0  0  0  0  0  0  0
  -15.8762   -2.3433  -11.3259 C   0  0  0  0  0  0  0  0  0  0  0  0
  -15.5021   -3.1997  -10.2859 C   0  0  0  0  0  0  0  0  0  0  0  0
  -14.2966   -3.8867  -10.3552 C   0  0  0  0  0  0  0  0  0  0  0  0
  -13.7956   -4.8665   -9.0341 Cl  0  0  0  0  0  0  0  0  0  0  0  0
  -13.4879   -3.7691  -11.4838 C   0  0  0  0  0  0  0  0  0  0  0  0
  -13.8698   -2.9195  -12.5287 C   0  0  0  0  0  0  0  0  0  0  0  0
  -17.7458    1.3619  -14.3210 C   0  0  0  0  0  0  0  0  0  0  0  0
  -18.9286    0.8176  -15.1416 C   0  0  0  0  0  0  0  0  0  0  0  0
  -20.2674    1.3607  -14.7024 C   0  0  0  0  0  0  0  0  0  0  0  0
  -21.3092    0.4886  -14.3689 C   0  0  0  0  0  0  0  0  0  0  0  0
  -22.5291    1.0209  -13.9780 C   0  0  0  0  0  0  0  0  0  0  0  0
  -22.7786    2.3442  -13.8955 N   0  0  0  0  0  0  0  0  0  0  0  0
  -21.7588    3.1706  -14.2109 C   0  0  0  0  0  0  0  0  0  0  0  0
  -20.5027    2.7348  -14.6126 C   0  0  0  0  0  0  0  0  0  0  0  0
  6  7  2  0  0  0
  7  8  1  0  0  0
  7  1  1  0  0  0
  8 10  1  0  0  0
  8  9  1  0  0  0
 10 11  1  0  0  0
 10 16  2  0  0  0
 11 12  2  0  0  0
 12 13  1  0  0  0
 13 14  1  0  0  0
 13 15  2  0  0  0
 15 16  1  0  0  0
  1  2  2  0  0  0
  1  5  1  0  0  0
  2  3  1  0  0  0
  3  4  2  0  0  0
  4  5  1  0  0  0
  5 17  1  0  0  0
 17 18  1  0  0  0
 18 19  1  0  0  0
 19 20  1  0  0  0
 19 24  2  0  0  0
 20 21  2  0  0  0
 21 22  1  0  0  0
 22 23  2  0  0  0
 23 24  1  0  0  0
M  END
> <minimizedAffinity>
-7.87098

$$$$
