CHEMBL426887


 30 33  0  0  0  0  0  0  0  0999 V2000
  -18.2082    2.3334  -15.2583 C   0  0  0  0  0  0  0  0  0  0  0  0
  -18.8095    1.0856  -15.4269 C   0  0  0  0  0  0  0  0  0  0  0  0
  -20.0945    0.8212  -14.9521 C   0  0  0  0  0  0  0  0  0  0  0  0
  -20.8759    1.8189  -14.3813 C   0  0  0  0  0  0  0  0  0  0  0  0
  -20.3365    3.1063  -14.2916 C   0  0  0  0  0  0  0  0  0  0  0  0
  -19.0140    3.3492  -14.7111 C   0  0  0  0  0  0  0  0  0  0  0  0
  -16.3536    0.3855  -13.1770 N   0  0  0  0  0  0  0  0  0  0  0  0
  -15.4514    0.9693  -13.9798 C   0  0  0  0  0  0  0  0  0  0  0  0
  -14.1613    0.6785  -13.8374 N   0  0  0  0  0  0  0  0  0  0  0  0
  -13.5645    1.4205  -14.7697 N   0  0  0  0  0  0  0  0  0  0  0  0
  -14.4149    2.1788  -15.5236 C   0  0  0  0  0  0  0  0  0  0  0  0
  -14.1382    3.0567  -16.5748 C   0  0  0  0  0  0  0  0  0  0  0  0
  -15.2186    3.6872  -17.1796 C   0  0  0  0  0  0  0  0  0  0  0  0
  -16.5194    3.4453  -16.7417 C   0  0  0  0  0  0  0  0  0  0  0  0
  -16.8099    2.5637  -15.6699 C   0  0  0  0  0  0  0  0  0  0  0  0
  -15.7005    1.9093  -15.0418 C   0  0  0  0  0  0  0  0  0  0  0  0
  -15.9898   -0.1715  -12.4125 H   0  0  0  0  0  0  0  0  0  0  0  0
  -17.2462    0.8202  -12.9802 H   0  0  0  0  0  0  0  0  0  0  0  0
  -12.5555    1.3639  -14.8488 H   0  0  0  0  0  0  0  0  0  0  0  0
  -22.1850    1.5908  -13.8901 N   0  0  0  0  0  0  0  0  0  0  0  0
  -22.7506    0.3502  -13.6826 C   0  0  0  0  0  0  0  0  0  0  0  0
  -22.2295   -0.7312  -13.9161 O   0  0  0  0  0  0  0  0  0  0  0  0
  -24.0052    0.4212  -13.1200 N   0  0  0  0  0  0  0  0  0  0  0  0
  -22.6989    2.3819  -13.5418 H   0  0  0  0  0  0  0  0  0  0  0  0
  -24.5861    1.1611  -13.4887 H   0  0  0  0  0  0  0  0  0  0  0  0
  -24.6722   -0.8324  -12.8044 C   0  0  0  0  0  0  0  0  0  0  0  0
  -25.7059   -1.2400  -13.8494 C   0  0  0  0  0  0  0  0  0  0  0  0
  -26.6973   -2.1403  -13.1133 C   0  0  0  0  0  0  0  0  0  0  0  0
  -26.4633   -1.9267  -11.6216 C   0  0  0  0  0  0  0  0  0  0  0  0
  -25.5048   -0.7544  -11.5192 C   0  0  0  0  0  0  0  0  0  0  0  0
  7  8  1  0  0  0
  7 17  1  0  0  0
  7 18  1  0  0  0
  8  9  2  0  0  0
  8 16  1  0  0  0
  9 10  1  0  0  0
 10 11  1  0  0  0
 10 19  1  0  0  0
 11 12  1  0  0  0
 11 16  2  0  0  0
 12 13  2  0  0  0
 13 14  1  0  0  0
 14 15  2  0  0  0
 15  1  1  0  0  0
 15 16  1  0  0  0
  1  2  1  0  0  0
  1  6  2  0  0  0
  2  3  2  0  0  0
  3  4  1  0  0  0
  4 20  1  0  0  0
  4  5  2  0  0  0
 20 21  1  0  0  0
 20 24  1  0  0  0
 21 22  2  0  0  0
 21 23  1  0  0  0
 23 26  1  0  0  0
 23 25  1  0  0  0
 26 27  1  0  0  0
 26 30  1  0  0  0
 27 28  1  0  0  0
 28 29  1  0  0  0
 29 30  1  0  0  0
  5  6  1  0  0  0
M  END
> <minimizedAffinity>
-9.34247

$$$$
