CHEMBL323345


 30 33  0  0  0  0  0  0  0  0999 V2000
  -29.3688   -4.5392   -6.9793 C   0  0  0  0  0  0  0  0  0  0  0  0
  -30.0678   -5.3821   -7.7106 N   0  0  0  0  0  0  0  0  0  0  0  0
  -30.3195   -6.4386   -6.8588 C   0  0  0  0  0  0  0  0  0  0  0  0
  -29.7688   -6.1706   -5.6139 C   0  0  0  0  0  0  0  0  0  0  0  0
  -29.1683   -4.9517   -5.6959 O   0  0  0  0  0  0  0  0  0  0  0  0
  -27.5814   -1.9397   -9.0222 C   0  0  0  0  0  0  0  0  0  0  0  0
  -27.5975   -0.9144   -8.0737 C   0  0  0  0  0  0  0  0  0  0  0  0
  -28.1336   -1.0056   -6.8314 N   0  0  0  0  0  0  0  0  0  0  0  0
  -28.7045   -2.1879   -6.5094 C   0  0  0  0  0  0  0  0  0  0  0  0
  -28.7613   -3.2832   -7.3588 C   0  0  0  0  0  0  0  0  0  0  0  0
  -28.1762   -3.1442   -8.6262 C   0  0  0  0  0  0  0  0  0  0  0  0
  -25.0364   -1.5448  -11.8227 C   0  0  0  0  0  0  0  0  0  0  0  0
  -25.8653   -1.5179  -12.9408 C   0  0  0  0  0  0  0  0  0  0  0  0
  -27.2475   -1.5937  -12.7853 C   0  0  0  0  0  0  0  0  0  0  0  0
  -27.8075   -1.7072  -11.5113 C   0  0  0  0  0  0  0  0  0  0  0  0
  -26.9983   -1.7607  -10.3648 C   0  0  0  0  0  0  0  0  0  0  0  0
  -25.6063   -1.6604  -10.5500 C   0  0  0  0  0  0  0  0  0  0  0  0
  -23.1005   -0.2316  -12.2259 C   0  0  0  0  0  0  0  0  0  0  0  0
  -23.6703   -1.4732  -11.8325 O   0  0  0  0  0  0  0  0  0  0  0  0
  -30.9306   -7.6692   -7.3363 C   0  0  0  0  0  0  0  0  0  0  0  0
  -30.1366   -8.5598   -8.0784 C   0  0  0  0  0  0  0  0  0  0  0  0
  -30.6159   -9.8191   -8.4395 C   0  0  0  0  0  0  0  0  0  0  0  0
  -31.9036  -10.1988   -8.0739 C   0  0  0  0  0  0  0  0  0  0  0  0
  -32.7271   -9.2996   -7.3983 C   0  0  0  0  0  0  0  0  0  0  0  0
  -32.2507   -8.0320   -7.0484 C   0  0  0  0  0  0  0  0  0  0  0  0
  -29.6875   -6.8807   -4.4475 N   0  0  0  0  0  0  0  0  0  0  0  0
  -28.8717   -7.9216   -4.1268 C   0  0  0  0  0  0  0  0  0  0  0  0
  -27.8780   -8.5159   -5.0869 C   0  0  0  0  0  0  0  0  0  0  0  0
  -28.9940   -8.4100   -2.9982 O   0  0  0  0  0  0  0  0  0  0  0  0
  -30.3255   -6.6411   -3.7008 H   0  0  0  0  0  0  0  0  0  0  0  0
 18 19  1  0  0  0
 19 12  1  0  0  0
 12 13  1  0  0  0
 12 17  2  0  0  0
 13 14  2  0  0  0
 14 15  1  0  0  0
 15 16  2  0  0  0
 16  6  1  0  0  0
 16 17  1  0  0  0
  6  7  1  0  0  0
  6 11  2  0  0  0
  7  8  2  0  0  0
  8  9  1  0  0  0
  9 10  2  0  0  0
 10  1  1  0  0  0
 10 11  1  0  0  0
  1  2  2  0  0  0
  1  5  1  0  0  0
  2  3  1  0  0  0
  3 20  1  0  0  0
  3  4  2  0  0  0
 20 21  1  0  0  0
 20 25  2  0  0  0
 21 22  2  0  0  0
 22 23  1  0  0  0
 23 24  2  0  0  0
 24 25  1  0  0  0
  4 26  1  0  0  0
  4  5  1  0  0  0
 26 27  1  0  0  0
 26 30  1  0  0  0
 27 28  1  0  0  0
 27 29  2  0  0  0
M  END
> <minimizedAffinity>
-9.62030

$$$$
