CHEMBL3939020


 45 49  0  0  0  0  0  0  0  0999 V2000
  -27.8890   -6.9403   -6.3186 O   0  0  0  0  0  0  0  0  0  0  0  0
  -28.5622   -7.5313   -5.4846 C   0  0  0  0  0  0  0  0  0  0  0  0
  -28.6501   -8.9146   -5.3985 N   0  0  0  0  0  0  0  0  0  0  0  0
  -29.3485   -6.8972   -4.5339 N   0  0  0  0  0  0  0  0  0  0  0  0
  -29.3673   -9.2939   -4.7999 H   0  0  0  0  0  0  0  0  0  0  0  0
  -29.7540   -7.4710   -3.8104 H   0  0  0  0  0  0  0  0  0  0  0  0
  -29.5675   -5.4996   -4.4409 C   0  0  0  0  0  0  0  0  0  0  0  0
  -30.5892   -4.8308   -5.1238 C   0  0  0  0  0  0  0  0  0  0  0  0
  -30.7774   -3.4529   -4.9906 C   0  0  0  0  0  0  0  0  0  0  0  0
  -29.9083   -2.6992   -4.2056 C   0  0  0  0  0  0  0  0  0  0  0  0
  -28.9123   -3.3650   -3.4929 C   0  0  0  0  0  0  0  0  0  0  0  0
  -28.0914   -2.6770   -2.6815 F   0  0  0  0  0  0  0  0  0  0  0  0
  -28.7321   -4.7494   -3.6054 C   0  0  0  0  0  0  0  0  0  0  0  0
  -30.0190   -1.3283   -4.0574 O   0  0  0  0  0  0  0  0  0  0  0  0
  -29.6107   -0.5098   -5.0940 C   0  0  0  0  0  0  0  0  0  0  0  0
  -29.9908    0.8245   -5.2094 C   0  0  0  0  0  0  0  0  0  0  0  0
  -29.4837    1.5474   -6.2638 C   0  0  0  0  0  0  0  0  0  0  0  0
  -28.6889    1.0157   -7.2072 N   0  0  0  0  0  0  0  0  0  0  0  0
  -28.3691   -0.2873   -7.1399 C   0  0  0  0  0  0  0  0  0  0  0  0
  -28.8135   -1.0885   -6.0905 C   0  0  0  0  0  0  0  0  0  0  0  0
  -27.5621   -0.8487   -8.1472 N   0  0  0  0  0  0  0  0  0  0  0  0
  -27.8953   -1.9973   -8.8397 C   0  0  0  0  0  0  0  0  0  0  0  0
  -28.8883   -2.6988   -8.6820 O   0  0  0  0  0  0  0  0  0  0  0  0
  -26.6934   -0.3915   -8.3585 H   0  0  0  0  0  0  0  0  0  0  0  0
  -26.9479   -2.4520   -9.9018 C   0  0  0  0  0  0  0  0  0  0  0  0
  -25.8866   -1.5171  -10.4295 C   0  0  0  0  0  0  0  0  0  0  0  0
  -26.9533   -2.0415  -11.3488 C   0  0  0  0  0  0  0  0  0  0  0  0
  -27.9881   -9.8313   -6.2557 C   0  0  0  0  0  0  0  0  0  0  0  0
  -26.6894  -10.3012   -6.0198 C   0  0  0  0  0  0  0  0  0  0  0  0
  -26.0097  -11.1616   -6.8953 C   0  0  0  0  0  0  0  0  0  0  0  0
  -26.6960  -11.5524   -8.0466 C   0  0  0  0  0  0  0  0  0  0  0  0
  -28.0201  -11.1478   -8.2947 C   0  0  0  0  0  0  0  0  0  0  0  0
  -28.6601  -10.2846   -7.3894 C   0  0  0  0  0  0  0  0  0  0  0  0
  -24.7334  -11.6114   -6.6095 N   0  0  0  0  0  0  0  0  0  0  0  0
  -24.0766  -11.2544   -5.3419 C   0  0  0  0  0  0  0  0  0  0  0  0
  -22.8788  -10.3696   -5.6040 C   0  0  0  0  0  0  0  0  0  0  0  0
  -21.7375  -11.2494   -6.6404 S   0  0  0  0  0  0  0  0  0  0  0  0
  -20.7482  -10.3030   -7.1216 O   0  0  0  0  0  0  0  0  0  0  0  0
  -21.3144  -12.4508   -5.9456 O   0  0  0  0  0  0  0  0  0  0  0  0
  -22.7448  -11.7280   -8.0194 C   0  0  0  0  0  0  0  0  0  0  0  0
  -23.9742  -12.4658   -7.5281 C   0  0  0  0  0  0  0  0  0  0  0  0
  -28.7571  -11.6604   -9.5050 C   0  0  0  0  0  0  0  0  0  0  0  0
  -29.8379  -12.4326   -9.2031 F   0  0  0  0  0  0  0  0  0  0  0  0
  -29.2278  -10.6493  -10.2863 F   0  0  0  0  0  0  0  0  0  0  0  0
  -27.9684  -12.4209  -10.3128 F   0  0  0  0  0  0  0  0  0  0  0  0
  1  2  2  0  0  0
  2  3  1  0  0  0
  2  4  1  0  0  0
  3 28  1  0  0  0
  3  5  1  0  0  0
 28 29  1  0  0  0
 28 33  2  0  0  0
 29 30  2  0  0  0
 30 34  1  0  0  0
 30 31  1  0  0  0
 34 35  1  0  0  0
 34 41  1  0  0  0
 35 36  1  0  0  0
 36 37  1  0  0  0
 37 38  2  0  0  0
 37 39  2  0  0  0
 37 40  1  0  0  0
 40 41  1  0  0  0
 31 32  2  0  0  0
 32 42  1  0  0  0
 32 33  1  0  0  0
 42 43  1  0  0  0
 42 44  1  0  0  0
 42 45  1  0  0  0
  4  7  1  0  0  0
  4  6  1  0  0  0
  7  8  1  0  0  0
  7 13  2  0  0  0
  8  9  2  0  0  0
  9 10  1  0  0  0
 10 14  1  0  0  0
 10 11  2  0  0  0
 14 15  1  0  0  0
 15 16  1  0  0  0
 15 20  2  0  0  0
 16 17  2  0  0  0
 17 18  1  0  0  0
 18 19  2  0  0  0
 19 21  1  0  0  0
 19 20  1  0  0  0
 21 22  1  0  0  0
 21 24  1  0  0  0
 22 23  2  0  0  0
 22 25  1  0  0  0
 25 26  1  0  0  0
 25 27  1  0  0  0
 26 27  1  0  0  0
 11 12  1  0  0  0
 11 13  1  0  0  0
M  END
> <minimizedAffinity>
-8.77530

$$$$
