CHEMBL2011303


 23 25  0  0  0  0  0  0  0  0999 V2000
  -27.4502   -5.3296   -4.1126 N   0  0  0  0  0  0  0  0  0  0  0  0
  -28.3353   -5.6274   -5.0974 C   0  0  0  0  0  0  0  0  0  0  0  0
  -28.7676   -6.8756   -5.4697 C   0  0  0  0  0  0  0  0  0  0  0  0
  -29.8070   -6.6674   -6.4007 C   0  0  0  0  0  0  0  0  0  0  0  0
  -29.9679   -5.3621   -6.6519 N   0  0  0  0  0  0  0  0  0  0  0  0
  -29.0539   -4.7125   -5.8800 N   0  0  0  0  0  0  0  0  0  0  0  0
  -26.8283   -6.0646   -3.7791 H   0  0  0  0  0  0  0  0  0  0  0  0
  -26.9897   -4.4222   -4.0836 H   0  0  0  0  0  0  0  0  0  0  0  0
  -28.9498   -3.2890   -5.9399 C   0  0  0  0  0  0  0  0  0  0  0  0
  -29.5151   -2.4832   -4.9253 C   0  0  0  0  0  0  0  0  0  0  0  0
  -30.2879   -3.0851   -3.4913 Cl  0  0  0  0  0  0  0  0  0  0  0  0
  -29.3962   -1.0840   -4.9725 C   0  0  0  0  0  0  0  0  0  0  0  0
  -28.7074   -0.4732   -6.0092 C   0  0  0  0  0  0  0  0  0  0  0  0
  -28.5474    1.2371   -6.0448 Cl  0  0  0  0  0  0  0  0  0  0  0  0
  -28.1603   -1.2413   -7.0240 C   0  0  0  0  0  0  0  0  0  0  0  0
  -28.3041   -2.6372   -7.0113 C   0  0  0  0  0  0  0  0  0  0  0  0
  -27.7935   -3.4110   -8.4772 Cl  0  0  0  0  0  0  0  0  0  0  0  0
  -30.6590   -7.6894   -7.0125 C   0  0  0  0  0  0  0  0  0  0  0  0
  -30.1314   -8.6001   -7.9312 C   0  0  0  0  0  0  0  0  0  0  0  0
  -30.9902   -9.5082   -8.5284 C   0  0  0  0  0  0  0  0  0  0  0  0
  -32.3148   -9.5742   -8.2725 N   0  0  0  0  0  0  0  0  0  0  0  0
  -32.7976   -8.6952   -7.3727 C   0  0  0  0  0  0  0  0  0  0  0  0
  -32.0257   -7.7448   -6.7266 C   0  0  0  0  0  0  0  0  0  0  0  0
  1  2  1  0  0  0
  1  7  1  0  0  0
  1  8  1  0  0  0
  2  3  2  0  0  0
  2  6  1  0  0  0
  3  4  1  0  0  0
  4 18  1  0  0  0
  4  5  2  0  0  0
 18 19  1  0  0  0
 18 23  2  0  0  0
 19 20  2  0  0  0
 20 21  1  0  0  0
 21 22  2  0  0  0
 22 23  1  0  0  0
  5  6  1  0  0  0
  6  9  1  0  0  0
  9 10  1  0  0  0
  9 16  2  0  0  0
 10 11  1  0  0  0
 10 12  2  0  0  0
 12 13  1  0  0  0
 13 14  1  0  0  0
 13 15  2  0  0  0
 15 16  1  0  0  0
 16 17  1  0  0  0
M  END
> <minimizedAffinity>
-8.73895

$$$$
