CHEMBL1980376


 19 21  0  0  0  0  0  0  0  0999 V2000
  -29.3589   -3.6552   -5.9398 C   0  0  0  0  0  0  0  0  0  0  0  0
  -29.0002   -4.2068   -7.2007 C   0  0  0  0  0  0  0  0  0  0  0  0
  -29.3571   -5.4992   -7.5930 C   0  0  0  0  0  0  0  0  0  0  0  0
  -30.0795   -6.3236   -6.7373 C   0  0  0  0  0  0  0  0  0  0  0  0
  -30.4296   -5.7791   -5.5074 C   0  0  0  0  0  0  0  0  0  0  0  0
  -31.1264   -6.4431   -4.5520 O   0  0  0  0  0  0  0  0  0  0  0  0
  -31.3235   -5.6184   -3.4665 N   0  0  0  0  0  0  0  0  0  0  0  0
  -30.7571   -4.4528   -3.7846 C   0  0  0  0  0  0  0  0  0  0  0  0
  -30.8159   -3.3916   -2.9559 N   0  0  0  0  0  0  0  0  0  0  0  0
  -30.1210   -4.4933   -5.0716 C   0  0  0  0  0  0  0  0  0  0  0  0
  -31.4238   -3.4830   -2.1488 H   0  0  0  0  0  0  0  0  0  0  0  0
  -30.8054   -2.4541   -3.3426 H   0  0  0  0  0  0  0  0  0  0  0  0
  -30.3803    1.2520   -5.6370 C   0  0  0  0  0  0  0  0  0  0  0  0
  -29.4250    0.1238   -5.3842 C   0  0  0  0  0  0  0  0  0  0  0  0
  -28.1101    0.3650   -4.9861 C   0  0  0  0  0  0  0  0  0  0  0  0
  -27.2216   -0.6971   -4.8513 C   0  0  0  0  0  0  0  0  0  0  0  0
  -27.6285   -1.9970   -5.1695 C   0  0  0  0  0  0  0  0  0  0  0  0
  -28.9461   -2.2798   -5.5784 C   0  0  0  0  0  0  0  0  0  0  0  0
  -29.8409   -1.1982   -5.6104 C   0  0  0  0  0  0  0  0  0  0  0  0
 13 14  1  0  0  0
 14 15  1  0  0  0
 14 19  2  0  0  0
 15 16  2  0  0  0
 16 17  1  0  0  0
 17 18  2  0  0  0
 18  1  1  0  0  0
 18 19  1  0  0  0
  1  2  1  0  0  0
  1 10  2  0  0  0
  2  3  2  0  0  0
  3  4  1  0  0  0
  4  5  2  0  0  0
  5  6  1  0  0  0
  5 10  1  0  0  0
  6  7  1  0  0  0
  7  8  2  0  0  0
  8  9  1  0  0  0
  8 10  1  0  0  0
  9 11  1  0  0  0
  9 12  1  0  0  0
M  END
> <minimizedAffinity>
-8.50069

$$$$
