CHEMBL189017


 33 36  0  0  0  0  0  0  0  0999 V2000
  -15.7567   -2.3899  -12.8448 C   0  0  0  0  0  0  0  0  0  0  0  0
  -15.8349   -2.4675  -11.4551 C   0  0  0  0  0  0  0  0  0  0  0  0
  -16.2296   -3.5660  -10.7660 N   0  0  0  0  0  0  0  0  0  0  0  0
  -16.5187   -4.6654  -11.4990 C   0  0  0  0  0  0  0  0  0  0  0  0
  -16.4451   -4.7394  -12.8886 C   0  0  0  0  0  0  0  0  0  0  0  0
  -16.0820   -3.5605  -13.5496 C   0  0  0  0  0  0  0  0  0  0  0  0
  -15.9130    0.6196  -14.9015 C   0  0  0  0  0  0  0  0  0  0  0  0
  -14.6105    1.1063  -14.7752 C   0  0  0  0  0  0  0  0  0  0  0  0
  -13.6533    0.5120  -14.0234 N   0  0  0  0  0  0  0  0  0  0  0  0
  -14.0420   -0.6325  -13.4141 C   0  0  0  0  0  0  0  0  0  0  0  0
  -15.3225   -1.1634  -13.5249 C   0  0  0  0  0  0  0  0  0  0  0  0
  -16.2635   -0.5311  -14.2808 N   0  0  0  0  0  0  0  0  0  0  0  0
  -16.8356    1.2682  -15.7586 N   0  0  0  0  0  0  0  0  0  0  0  0
  -16.3700    1.9908  -16.3005 H   0  0  0  0  0  0  0  0  0  0  0  0
  -22.2206    3.3209  -14.2489 Cl  0  0  0  0  0  0  0  0  0  0  0  0
  -20.6698    2.6864  -14.6680 C   0  0  0  0  0  0  0  0  0  0  0  0
  -19.6595    3.5959  -14.9813 C   0  0  0  0  0  0  0  0  0  0  0  0
  -18.3852    3.1364  -15.3236 C   0  0  0  0  0  0  0  0  0  0  0  0
  -18.0949    1.7654  -15.3360 C   0  0  0  0  0  0  0  0  0  0  0  0
  -19.1263    0.8592  -15.0644 C   0  0  0  0  0  0  0  0  0  0  0  0
  -20.4037    1.3140  -14.7133 C   0  0  0  0  0  0  0  0  0  0  0  0
  -21.6082    0.1275  -14.3539 Cl  0  0  0  0  0  0  0  0  0  0  0  0
  -16.6723   -5.9502  -13.5358 N   0  0  0  0  0  0  0  0  0  0  0  0
  -17.5381   -5.9638  -14.0723 H   0  0  0  0  0  0  0  0  0  0  0  0
  -15.5683   -6.6997  -14.1141 C   0  0  0  0  0  0  0  0  0  0  0  0
  -14.6656   -7.2013  -12.9901 C   0  0  0  0  0  0  0  0  0  0  0  0
  -13.2480   -6.6552  -13.1526 C   0  0  0  0  0  0  0  0  0  0  0  0
  -12.9608   -5.5524  -12.1701 C   0  0  0  0  0  0  0  0  0  0  0  0
  -13.1560   -5.7465  -10.8011 C   0  0  0  0  0  0  0  0  0  0  0  0
  -12.8935   -4.6937   -9.9384 C   0  0  0  0  0  0  0  0  0  0  0  0
  -12.4594   -3.4803  -10.3408 N   0  0  0  0  0  0  0  0  0  0  0  0
  -12.2848   -3.3113  -11.6687 C   0  0  0  0  0  0  0  0  0  0  0  0
  -12.5217   -4.3008  -12.6100 C   0  0  0  0  0  0  0  0  0  0  0  0
 15 16  1  0  0  0
 16 17  1  0  0  0
 16 21  2  0  0  0
 17 18  2  0  0  0
 18 19  1  0  0  0
 19 13  1  0  0  0
 19 20  2  0  0  0
 13  7  1  0  0  0
 13 14  1  0  0  0
  7  8  1  0  0  0
  7 12  2  0  0  0
  8  9  2  0  0  0
  9 10  1  0  0  0
 10 11  2  0  0  0
 11  1  1  0  0  0
 11 12  1  0  0  0
  1  2  1  0  0  0
  1  6  2  0  0  0
  2  3  2  0  0  0
  3  4  1  0  0  0
  4  5  2  0  0  0
  5 23  1  0  0  0
  5  6  1  0  0  0
 23 25  1  0  0  0
 23 24  1  0  0  0
 25 26  1  0  0  0
 26 27  1  0  0  0
 27 28  1  0  0  0
 28 29  1  0  0  0
 28 33  2  0  0  0
 29 30  2  0  0  0
 30 31  1  0  0  0
 31 32  2  0  0  0
 32 33  1  0  0  0
 20 21  1  0  0  0
 21 22  1  0  0  0
M  END
> <minimizedAffinity>
-8.73116

$$$$
