CHEMBL45177


 38 43  0  0  0  0  0  0  0  0999 V2000
  -29.2225   -3.8099   -6.8025 N   0  0  0  0  0  0  0  0  0  0  0  0
  -28.5963   -3.7026   -8.0105 C   0  0  0  0  0  0  0  0  0  0  0  0
  -28.1327   -2.4106   -8.1600 C   0  0  0  0  0  0  0  0  0  0  0  0
  -28.3591   -1.7421   -6.9130 C   0  0  0  0  0  0  0  0  0  0  0  0
  -28.1663   -0.4573   -6.3700 C   0  0  0  0  0  0  0  0  0  0  0  0
  -27.7052    0.6409   -7.0820 N   0  0  0  0  0  0  0  0  0  0  0  0
  -28.4837   -0.2347   -5.0794 N   0  0  0  0  0  0  0  0  0  0  0  0
  -28.9901   -1.2497   -4.3597 C   0  0  0  0  0  0  0  0  0  0  0  0
  -29.2747   -2.4910   -4.7748 N   0  0  0  0  0  0  0  0  0  0  0  0
  -28.9523   -2.6753   -6.0659 C   0  0  0  0  0  0  0  0  0  0  0  0
  -27.9781    0.6333   -8.0572 H   0  0  0  0  0  0  0  0  0  0  0  0
  -27.9177    1.4931   -6.5767 H   0  0  0  0  0  0  0  0  0  0  0  0
  -28.4914   -7.5352   -6.0788 C   0  0  0  0  0  0  0  0  0  0  0  0
  -28.8748   -6.9083   -7.4311 C   0  0  0  0  0  0  0  0  0  0  0  0
  -30.1378   -6.0584   -7.3867 C   0  0  0  0  0  0  0  0  0  0  0  0
  -30.0639   -4.9200   -6.3492 C   0  0  0  0  0  0  0  0  0  0  0  0
  -29.6694   -5.5004   -4.9726 C   0  0  0  0  0  0  0  0  0  0  0  0
  -28.4429   -6.4269   -5.0094 C   0  0  0  0  0  0  0  0  0  0  0  0
  -26.7447  -12.2341   -4.7171 C   0  0  0  0  0  0  0  0  0  0  0  0
  -27.9322  -11.3916   -4.8558 N   0  0  0  0  0  0  0  0  0  0  0  0
  -27.7881  -10.1745   -4.0388 C   0  0  0  0  0  0  0  0  0  0  0  0
  -28.9338   -9.1606   -4.2484 C   0  0  0  0  0  0  0  0  0  0  0  0
  -29.1469   -8.7762   -5.6487 N   0  0  0  0  0  0  0  0  0  0  0  0
  -29.2538   -9.9699   -6.4853 C   0  0  0  0  0  0  0  0  0  0  0  0
  -28.1785  -11.0625   -6.2703 C   0  0  0  0  0  0  0  0  0  0  0  0
  -27.5559   -1.9682   -9.4197 C   0  0  0  0  0  0  0  0  0  0  0  0
  -26.1865   -1.6679   -9.4992 C   0  0  0  0  0  0  0  0  0  0  0  0
  -25.6082   -1.3037  -10.7119 C   0  0  0  0  0  0  0  0  0  0  0  0
  -26.3735   -1.3292  -11.8780 C   0  0  0  0  0  0  0  0  0  0  0  0
  -27.7464   -1.5514  -11.7977 C   0  0  0  0  0  0  0  0  0  0  0  0
  -28.3394   -1.8416  -10.5691 C   0  0  0  0  0  0  0  0  0  0  0  0
  -25.8725   -1.1091  -13.1371 O   0  0  0  0  0  0  0  0  0  0  0  0
  -24.6299   -0.5256  -13.2798 C   0  0  0  0  0  0  0  0  0  0  0  0
  -24.3392    0.8110  -12.9833 C   0  0  0  0  0  0  0  0  0  0  0  0
  -23.0648    1.3204  -13.2310 C   0  0  0  0  0  0  0  0  0  0  0  0
  -22.0613    0.4798  -13.7084 C   0  0  0  0  0  0  0  0  0  0  0  0
  -22.3274   -0.8714  -13.9302 C   0  0  0  0  0  0  0  0  0  0  0  0
  -23.6116   -1.3733  -13.7164 C   0  0  0  0  0  0  0  0  0  0  0  0
 19 20  1  0  0  0
 20 21  1  0  0  0
 20 25  1  0  0  0
 21 22  1  0  0  0
 22 23  1  0  0  0
 23 24  1  0  0  0
 13 14  1  0  0  0
 13 18  1  0  0  0
 13 23  1  0  0  0
 14 15  1  0  0  0
 15 16  1  0  0  0
 16 17  1  0  0  0
 16  1  1  0  0  0
  1  2  1  0  0  0
  1 10  1  0  0  0
  2  3  2  0  0  0
  3 26  1  0  0  0
  3  4  1  0  0  0
 26 27  1  0  0  0
 26 31  2  0  0  0
 27 28  2  0  0  0
 28 29  1  0  0  0
 29 32  1  0  0  0
 29 30  2  0  0  0
 32 33  1  0  0  0
 33 34  1  0  0  0
 33 38  2  0  0  0
 34 35  2  0  0  0
 35 36  1  0  0  0
 36 37  2  0  0  0
 37 38  1  0  0  0
 30 31  1  0  0  0
  4  5  1  0  0  0
  4 10  2  0  0  0
  5  6  1  0  0  0
  5  7  2  0  0  0
  6 11  1  0  0  0
  6 12  1  0  0  0
  7  8  1  0  0  0
  8  9  2  0  0  0
  9 10  1  0  0  0
 17 18  1  0  0  0
 24 25  1  0  0  0
M  END
> <minimizedAffinity>
-9.32473

$$$$
