CHEMBL3945860


 36 40  0  0  0  0  0  0  0  0999 V2000
  -28.3213   -6.5403   -5.0520 C   0  0  0  0  0  0  0  0  0  0  0  0
  -27.9782   -7.7583   -4.4615 C   0  0  0  0  0  0  0  0  0  0  0  0
  -28.4723   -8.9836   -4.9676 C   0  0  0  0  0  0  0  0  0  0  0  0
  -28.1382  -10.2525   -4.4787 C   0  0  0  0  0  0  0  0  0  0  0  0
  -28.6214  -11.3836   -5.0290 N   0  0  0  0  0  0  0  0  0  0  0  0
  -29.4459  -11.2470   -6.0672 C   0  0  0  0  0  0  0  0  0  0  0  0
  -29.8219  -10.0914   -6.6191 N   0  0  0  0  0  0  0  0  0  0  0  0
  -29.3291   -8.9817   -6.0707 C   0  0  0  0  0  0  0  0  0  0  0  0
  -29.6962   -7.7675   -6.6160 C   0  0  0  0  0  0  0  0  0  0  0  0
  -29.2500   -6.5391   -6.1010 C   0  0  0  0  0  0  0  0  0  0  0  0
  -28.5207   -4.6773   -3.6006 C   0  0  0  0  0  0  0  0  0  0  0  0
  -27.8023   -5.3402   -4.6423 O   0  0  0  0  0  0  0  0  0  0  0  0
  -27.2424  -10.3551   -3.3814 N   0  0  0  0  0  0  0  0  0  0  0  0
  -27.6998  -10.8292   -2.6100 H   0  0  0  0  0  0  0  0  0  0  0  0
  -25.8755  -10.6675   -3.5058 C   0  0  0  0  0  0  0  0  0  0  0  0
  -25.2195  -11.4147   -2.5185 C   0  0  0  0  0  0  0  0  0  0  0  0
  -23.8525  -11.6761   -2.6043 C   0  0  0  0  0  0  0  0  0  0  0  0
  -23.1214  -11.1961   -3.6903 C   0  0  0  0  0  0  0  0  0  0  0  0
  -21.4242  -11.5117   -3.7163 Cl  0  0  0  0  0  0  0  0  0  0  0  0
  -23.7712  -10.4778   -4.7010 C   0  0  0  0  0  0  0  0  0  0  0  0
  -22.9310   -9.8553   -6.0771 Cl  0  0  0  0  0  0  0  0  0  0  0  0
  -25.1454  -10.2244   -4.6125 C   0  0  0  0  0  0  0  0  0  0  0  0
  -29.6878   -5.3159   -6.5731 O   0  0  0  0  0  0  0  0  0  0  0  0
  -29.1062   -4.9585   -7.8330 C   0  0  0  0  0  0  0  0  0  0  0  0
  -28.5760   -3.5719   -7.9399 C   0  0  0  0  0  0  0  0  0  0  0  0
  -28.0401   -2.9005   -9.0182 C   0  0  0  0  0  0  0  0  0  0  0  0
  -27.4747   -1.3528   -8.5183 S   0  0  0  0  0  0  0  0  0  0  0  0
  -27.9853   -1.6891   -6.9127 C   0  0  0  0  0  0  0  0  0  0  0  0
  -28.5397   -2.8653   -6.7523 N   0  0  0  0  0  0  0  0  0  0  0  0
  -27.8164   -0.7010   -5.7849 C   0  0  0  0  0  0  0  0  0  0  0  0
  -28.8968   -0.8910   -4.7044 C   0  0  0  0  0  0  0  0  0  0  0  0
  -30.2639   -0.3371   -5.1163 C   0  0  0  0  0  0  0  0  0  0  0  0
  -30.1814    1.0632   -5.5340 N   0  0  0  0  0  0  0  0  0  0  0  0
  -29.2616    1.2172   -6.6627 C   0  0  0  0  0  0  0  0  0  0  0  0
  -27.8474    0.7417   -6.3170 C   0  0  0  0  0  0  0  0  0  0  0  0
  -29.8575    1.6315   -4.7529 H   0  0  0  0  0  0  0  0  0  0  0  0
 11 12  1  0  0  0
 12  1  1  0  0  0
  1  2  1  0  0  0
  1 10  2  0  0  0
  2  3  2  0  0  0
  3  4  1  0  0  0
  3  8  1  0  0  0
  4 13  1  0  0  0
  4  5  2  0  0  0
 13 15  1  0  0  0
 13 14  1  0  0  0
 15 16  1  0  0  0
 15 22  2  0  0  0
 16 17  2  0  0  0
 17 18  1  0  0  0
 18 19  1  0  0  0
 18 20  2  0  0  0
 20 21  1  0  0  0
 20 22  1  0  0  0
  5  6  1  0  0  0
  6  7  2  0  0  0
  7  8  1  0  0  0
  8  9  2  0  0  0
  9 10  1  0  0  0
 10 23  1  0  0  0
 23 24  1  0  0  0
 24 25  1  0  0  0
 25 26  2  0  0  0
 25 29  1  0  0  0
 26 27  1  0  0  0
 27 28  1  0  0  0
 28 30  1  0  0  0
 28 29  2  0  0  0
 30 31  1  0  0  0
 30 35  1  0  0  0
 31 32  1  0  0  0
 32 33  1  0  0  0
 33 34  1  0  0  0
 33 36  1  0  0  0
 34 35  1  0  0  0
M  END
> <minimizedAffinity>
-8.01639

$$$$
