CHEMBL3690498


 32 35  0  0  0  0  0  0  0  0999 V2000
  -20.8012    1.2905  -14.7174 C   0  0  0  0  0  0  0  0  0  0  0  0
  -21.1268    2.6301  -14.5079 C   0  0  0  0  0  0  0  0  0  0  0  0
  -20.1748    3.6280  -14.7103 C   0  0  0  0  0  0  0  0  0  0  0  0
  -18.8813    3.2890  -15.0946 C   0  0  0  0  0  0  0  0  0  0  0  0
  -18.4933    1.9502  -15.2104 C   0  0  0  0  0  0  0  0  0  0  0  0
  -19.4794    0.9585  -15.0564 C   0  0  0  0  0  0  0  0  0  0  0  0
  -17.0982    1.5739  -15.4772 C   0  0  0  0  0  0  0  0  0  0  0  0
  -16.2954    1.8669  -16.5701 C   0  0  0  0  0  0  0  0  0  0  0  0
  -15.0534    1.3019  -16.4713 N   0  0  0  0  0  0  0  0  0  0  0  0
  -15.0646    0.6480  -15.3315 C   0  0  0  0  0  0  0  0  0  0  0  0
  -14.0520   -0.1380  -14.7124 C   0  0  0  0  0  0  0  0  0  0  0  0
  -14.2627   -0.7501  -13.5185 C   0  0  0  0  0  0  0  0  0  0  0  0
  -15.5748   -0.5993  -12.8755 C   0  0  0  0  0  0  0  0  0  0  0  0
  -16.5421    0.1180  -13.4678 C   0  0  0  0  0  0  0  0  0  0  0  0
  -16.2905    0.7603  -14.6818 N   0  0  0  0  0  0  0  0  0  0  0  0
  -13.1731   -1.5651  -12.9180 C   0  0  0  0  0  0  0  0  0  0  0  0
  -13.4077   -2.8618  -12.6326 N   0  0  0  0  0  0  0  0  0  0  0  0
  -12.3738   -3.5277  -12.0827 C   0  0  0  0  0  0  0  0  0  0  0  0
  -11.1605   -2.9378  -11.8290 C   0  0  0  0  0  0  0  0  0  0  0  0
  -10.9618   -1.6444  -12.1261 N   0  0  0  0  0  0  0  0  0  0  0  0
  -11.9902   -0.9453  -12.6806 N   0  0  0  0  0  0  0  0  0  0  0  0
  -22.2572    0.2511  -12.3377 O   0  0  0  0  0  0  0  0  0  0  0  0
  -22.3792   -0.1911  -13.4717 C   0  0  0  0  0  0  0  0  0  0  0  0
  -23.2513   -1.2254  -13.7443 N   0  0  0  0  0  0  0  0  0  0  0  0
  -21.7370    0.2391  -14.6125 N   0  0  0  0  0  0  0  0  0  0  0  0
  -22.9976   -1.8168  -14.5228 H   0  0  0  0  0  0  0  0  0  0  0  0
  -22.0255   -0.1944  -15.4758 H   0  0  0  0  0  0  0  0  0  0  0  0
  -23.9183   -1.8954  -12.6211 C   0  0  0  0  0  0  0  0  0  0  0  0
  -25.3897   -1.5081  -12.4165 C   0  0  0  0  0  0  0  0  0  0  0  0
  -26.0075   -2.3256  -11.5315 F   0  0  0  0  0  0  0  0  0  0  0  0
  -25.5351   -0.2381  -11.9890 F   0  0  0  0  0  0  0  0  0  0  0  0
  -26.0646   -1.6233  -13.5877 F   0  0  0  0  0  0  0  0  0  0  0  0
 22 23  2  0  0  0
 23 24  1  0  0  0
 23 25  1  0  0  0
 24 28  1  0  0  0
 24 26  1  0  0  0
 28 29  1  0  0  0
 29 30  1  0  0  0
 29 31  1  0  0  0
 29 32  1  0  0  0
 25  1  1  0  0  0
 25 27  1  0  0  0
  1  2  1  0  0  0
  1  6  2  0  0  0
  2  3  2  0  0  0
  3  4  1  0  0  0
  4  5  2  0  0  0
  5  7  1  0  0  0
  5  6  1  0  0  0
  7  8  2  0  0  0
  7 15  1  0  0  0
  8  9  1  0  0  0
  9 10  2  0  0  0
 10 11  1  0  0  0
 10 15  1  0  0  0
 11 12  2  0  0  0
 12 16  1  0  0  0
 12 13  1  0  0  0
 16 17  1  0  0  0
 16 21  2  0  0  0
 17 18  2  0  0  0
 18 19  1  0  0  0
 19 20  2  0  0  0
 20 21  1  0  0  0
 13 14  2  0  0  0
 14 15  1  0  0  0
M  END
> <minimizedAffinity>
-9.11551

$$$$
