CHEMBL1240545


 24 26  0  0  0  0  0  0  0  0999 V2000
  -30.5998   -8.1758   -6.7489 N   0  0  0  0  0  0  0  0  0  0  0  0
  -30.6643   -6.9081   -7.2133 N   0  0  0  0  0  0  0  0  0  0  0  0
  -29.6904   -6.2549   -6.5536 C   0  0  0  0  0  0  0  0  0  0  0  0
  -29.0241   -7.1232   -5.6164 C   0  0  0  0  0  0  0  0  0  0  0  0
  -28.0128   -7.0590   -4.6493 C   0  0  0  0  0  0  0  0  0  0  0  0
  -27.3094   -5.9166   -4.2674 N   0  0  0  0  0  0  0  0  0  0  0  0
  -27.6608   -8.1887   -3.9996 N   0  0  0  0  0  0  0  0  0  0  0  0
  -28.3144   -9.3231   -4.2929 C   0  0  0  0  0  0  0  0  0  0  0  0
  -29.3188   -9.5023   -5.1613 N   0  0  0  0  0  0  0  0  0  0  0  0
  -29.6294   -8.3587   -5.7997 C   0  0  0  0  0  0  0  0  0  0  0  0
  -27.8575   -5.0655   -4.2613 H   0  0  0  0  0  0  0  0  0  0  0  0
  -26.7665   -6.0888   -3.4271 H   0  0  0  0  0  0  0  0  0  0  0  0
  -29.4316   -4.8327   -6.7820 C   0  0  0  0  0  0  0  0  0  0  0  0
  -29.7897   -3.8646   -5.8428 C   0  0  0  0  0  0  0  0  0  0  0  0
  -29.3429   -2.5392   -5.9894 C   0  0  0  0  0  0  0  0  0  0  0  0
  -28.5041   -2.1874   -7.0633 C   0  0  0  0  0  0  0  0  0  0  0  0
  -28.2052   -3.1451   -8.0285 C   0  0  0  0  0  0  0  0  0  0  0  0
  -28.7251   -4.4296   -7.9189 C   0  0  0  0  0  0  0  0  0  0  0  0
  -27.8845   -0.8246   -7.1764 C   0  0  0  0  0  0  0  0  0  0  0  0
  -28.0065   -0.0401   -5.8802 C   0  0  0  0  0  0  0  0  0  0  0  0
  -28.1078    0.6108   -4.8050 N   0  0  0  0  0  0  0  0  0  0  0  0
  -32.9549   -8.6886   -7.3309 C   0  0  0  0  0  0  0  0  0  0  0  0
  -31.5134   -9.1959   -7.2605 C   0  0  0  0  0  0  0  0  0  0  0  0
  -31.0601   -9.7273   -8.6212 C   0  0  0  0  0  0  0  0  0  0  0  0
 22 23  1  0  0  0
 23 24  1  0  0  0
 23  1  1  0  0  0
  1  2  1  0  0  0
  1 10  1  0  0  0
  2  3  2  0  0  0
  3 13  1  0  0  0
  3  4  1  0  0  0
 13 14  1  0  0  0
 13 18  2  0  0  0
 14 15  2  0  0  0
 15 16  1  0  0  0
 16 19  1  0  0  0
 16 17  2  0  0  0
 19 20  1  0  0  0
 20 21  3  0  0  0
 17 18  1  0  0  0
  4  5  1  0  0  0
  4 10  2  0  0  0
  5  6  1  0  0  0
  5  7  2  0  0  0
  6 11  1  0  0  0
  6 12  1  0  0  0
  7  8  1  0  0  0
  8  9  2  0  0  0
  9 10  1  0  0  0
M  END
> <minimizedAffinity>
-7.25028

$$$$
