CHEMBL3297816


 19 21  0  0  0  0  0  0  0  0999 V2000
  -12.9340    3.5329  -15.0942 C   0  0  0  0  0  0  0  0  0  0  0  0
  -13.8910    2.4311  -14.7529 C   0  0  0  0  0  0  0  0  0  0  0  0
  -15.0688    2.4384  -15.4062 N   0  0  0  0  0  0  0  0  0  0  0  0
  -15.9970    1.4786  -15.1649 C   0  0  0  0  0  0  0  0  0  0  0  0
  -15.6758    0.4947  -14.2274 C   0  0  0  0  0  0  0  0  0  0  0  0
  -16.3067   -0.6432  -13.6596 C   0  0  0  0  0  0  0  0  0  0  0  0
  -15.4221   -1.1543  -12.7358 C   0  0  0  0  0  0  0  0  0  0  0  0
  -15.4777   -2.3036  -11.8130 C   0  0  0  0  0  0  0  0  0  0  0  0
  -14.2851   -0.4026  -12.7052 O   0  0  0  0  0  0  0  0  0  0  0  0
  -14.4376    0.6060  -13.6116 C   0  0  0  0  0  0  0  0  0  0  0  0
  -13.5034    1.5408  -13.8284 N   0  0  0  0  0  0  0  0  0  0  0  0
  -17.2141    1.4876  -15.8570 N   0  0  0  0  0  0  0  0  0  0  0  0
  -17.2407    0.9157  -16.6882 H   0  0  0  0  0  0  0  0  0  0  0  0
  -18.4854    1.8002  -15.3456 C   0  0  0  0  0  0  0  0  0  0  0  0
  -19.4225    0.7771  -15.1667 C   0  0  0  0  0  0  0  0  0  0  0  0
  -20.7128    1.0643  -14.7097 C   0  0  0  0  0  0  0  0  0  0  0  0
  -21.0754    2.3766  -14.4125 C   0  0  0  0  0  0  0  0  0  0  0  0
  -20.1509    3.4020  -14.5799 C   0  0  0  0  0  0  0  0  0  0  0  0
  -18.8697    3.1149  -15.0531 C   0  0  0  0  0  0  0  0  0  0  0  0
  1  2  1  0  0  0
  2  3  1  0  0  0
  2 11  2  0  0  0
  3  4  2  0  0  0
  4 12  1  0  0  0
  4  5  1  0  0  0
 12 14  1  0  0  0
 12 13  1  0  0  0
 14 15  1  0  0  0
 14 19  2  0  0  0
 15 16  2  0  0  0
 16 17  1  0  0  0
 17 18  2  0  0  0
 18 19  1  0  0  0
  5  6  1  0  0  0
  5 10  2  0  0  0
  6  7  2  0  0  0
  7  8  1  0  0  0
  7  9  1  0  0  0
  9 10  1  0  0  0
 10 11  1  0  0  0
M  END
> <minimizedAffinity>
-7.05297

$$$$
