CHEMBL3690464


 34 37  0  0  0  0  0  0  0  0999 V2000
  -30.0993   -8.0642   -7.2882 C   0  0  0  0  0  0  0  0  0  0  0  0
  -29.1718   -7.1749   -8.0038 C   0  0  0  0  0  0  0  0  0  0  0  0
  -28.9798   -5.9161   -7.5873 C   0  0  0  0  0  0  0  0  0  0  0  0
  -29.6955   -5.4385   -6.4924 N   0  0  0  0  0  0  0  0  0  0  0  0
  -29.7246   -4.1812   -5.9064 C   0  0  0  0  0  0  0  0  0  0  0  0
  -30.5180   -4.3615   -4.7816 C   0  0  0  0  0  0  0  0  0  0  0  0
  -31.0406   -5.6238   -4.7096 N   0  0  0  0  0  0  0  0  0  0  0  0
  -30.5648   -6.2469   -5.7639 C   0  0  0  0  0  0  0  0  0  0  0  0
  -30.7746   -7.5813   -6.2176 C   0  0  0  0  0  0  0  0  0  0  0  0
  -31.7265  -11.2611   -7.8815 C   0  0  0  0  0  0  0  0  0  0  0  0
  -30.8680  -11.9681   -8.7040 C   0  0  0  0  0  0  0  0  0  0  0  0
  -29.6471  -11.3910   -9.0304 C   0  0  0  0  0  0  0  0  0  0  0  0
  -29.3386  -10.1250   -8.5397 C   0  0  0  0  0  0  0  0  0  0  0  0
  -30.2634   -9.4746   -7.7255 C   0  0  0  0  0  0  0  0  0  0  0  0
  -31.4477  -10.0400   -7.3856 N   0  0  0  0  0  0  0  0  0  0  0  0
  -33.2244  -11.9296   -6.2143 C   0  0  0  0  0  0  0  0  0  0  0  0
  -32.9462  -11.8471   -7.6094 O   0  0  0  0  0  0  0  0  0  0  0  0
  -29.0536   -2.9670   -6.3857 C   0  0  0  0  0  0  0  0  0  0  0  0
  -29.2914   -1.7548   -5.7275 C   0  0  0  0  0  0  0  0  0  0  0  0
  -28.7338   -0.5728   -6.2022 C   0  0  0  0  0  0  0  0  0  0  0  0
  -27.8976   -0.5913   -7.3173 C   0  0  0  0  0  0  0  0  0  0  0  0
  -27.6037   -1.7871   -7.9734 C   0  0  0  0  0  0  0  0  0  0  0  0
  -28.2207   -2.9635   -7.5228 C   0  0  0  0  0  0  0  0  0  0  0  0
  -26.7099   -1.8740   -9.0695 N   0  0  0  0  0  0  0  0  0  0  0  0
  -27.0160   -1.6374  -10.3874 C   0  0  0  0  0  0  0  0  0  0  0  0
  -28.1030   -1.2967  -10.8401 O   0  0  0  0  0  0  0  0  0  0  0  0
  -25.9562   -1.8634  -11.2354 N   0  0  0  0  0  0  0  0  0  0  0  0
  -25.7552   -2.1252   -8.8651 H   0  0  0  0  0  0  0  0  0  0  0  0
  -25.0337   -1.6568  -10.8799 H   0  0  0  0  0  0  0  0  0  0  0  0
  -26.1758   -1.6560  -12.6746 C   0  0  0  0  0  0  0  0  0  0  0  0
  -24.9155   -1.4947  -13.5394 C   0  0  0  0  0  0  0  0  0  0  0  0
  -23.9791   -2.4282  -13.2525 F   0  0  0  0  0  0  0  0  0  0  0  0
  -25.2357   -1.6547  -14.8490 F   0  0  0  0  0  0  0  0  0  0  0  0
  -24.3523   -0.2758  -13.4131 F   0  0  0  0  0  0  0  0  0  0  0  0
 16 17  1  0  0  0
 17 10  1  0  0  0
 10 11  1  0  0  0
 10 15  2  0  0  0
 11 12  2  0  0  0
 12 13  1  0  0  0
 13 14  2  0  0  0
 14  1  1  0  0  0
 14 15  1  0  0  0
  1  2  1  0  0  0
  1  9  2  0  0  0
  2  3  2  0  0  0
  3  4  1  0  0  0
  4  5  1  0  0  0
  4  8  1  0  0  0
  5 18  1  0  0  0
  5  6  2  0  0  0
 18 19  1  0  0  0
 18 23  2  0  0  0
 19 20  2  0  0  0
 20 21  1  0  0  0
 21 22  2  0  0  0
 22 24  1  0  0  0
 22 23  1  0  0  0
 24 25  1  0  0  0
 24 28  1  0  0  0
 25 26  2  0  0  0
 25 27  1  0  0  0
 27 30  1  0  0  0
 27 29  1  0  0  0
 30 31  1  0  0  0
 31 32  1  0  0  0
 31 33  1  0  0  0
 31 34  1  0  0  0
  6  7  1  0  0  0
  7  8  2  0  0  0
  8  9  1  0  0  0
M  END
> <minimizedAffinity>
-9.56512

$$$$
