CHEMBL2377475


 22 25  0  0  0  0  0  0  0  0999 V2000
  -30.5064   -7.2022   -7.2053 C   0  0  0  0  0  0  0  0  0  0  0  0
  -31.6719   -7.9441   -7.0122 C   0  0  0  0  0  0  0  0  0  0  0  0
  -31.5979   -9.1912   -7.6083 C   0  0  0  0  0  0  0  0  0  0  0  0
  -32.5813  -10.1191   -7.6039 N   0  0  0  0  0  0  0  0  0  0  0  0
  -32.3935  -11.2845   -8.2334 N   0  0  0  0  0  0  0  0  0  0  0  0
  -31.2331  -11.5745   -8.8384 N   0  0  0  0  0  0  0  0  0  0  0  0
  -30.1914  -10.6923   -8.8262 C   0  0  0  0  0  0  0  0  0  0  0  0
  -30.4023   -9.4566   -8.2171 C   0  0  0  0  0  0  0  0  0  0  0  0
  -29.2714   -8.0584   -8.2143 Se  0  0  0  0  0  0  0  0  0  0  0  0
  -29.5068   -1.7624   -5.4881 C   0  0  0  0  0  0  0  0  0  0  0  0
  -29.7391   -3.1815   -5.8924 C   0  0  0  0  0  0  0  0  0  0  0  0
  -30.2500   -4.1258   -4.9867 C   0  0  0  0  0  0  0  0  0  0  0  0
  -30.4941   -5.4401   -5.3969 C   0  0  0  0  0  0  0  0  0  0  0  0
  -30.2275   -5.8282   -6.7195 C   0  0  0  0  0  0  0  0  0  0  0  0
  -29.6876   -4.8704   -7.6096 C   0  0  0  0  0  0  0  0  0  0  0  0
  -29.4501   -3.5669   -7.2005 C   0  0  0  0  0  0  0  0  0  0  0  0
  -28.9336  -11.0246   -9.4365 N   0  0  0  0  0  0  0  0  0  0  0  0
  -27.8094  -11.5239   -8.6708 C   0  0  0  0  0  0  0  0  0  0  0  0
  -26.5914  -10.6353   -8.9486 C   0  0  0  0  0  0  0  0  0  0  0  0
  -26.3299  -10.5616  -10.3436 O   0  0  0  0  0  0  0  0  0  0  0  0
  -27.4252   -9.9470  -10.9952 C   0  0  0  0  0  0  0  0  0  0  0  0
  -28.6762  -10.8055  -10.8536 C   0  0  0  0  0  0  0  0  0  0  0  0
 10 11  1  0  0  0
 11 12  1  0  0  0
 11 16  2  0  0  0
 12 13  2  0  0  0
 13 14  1  0  0  0
 14  1  1  0  0  0
 14 15  2  0  0  0
  1  2  2  0  0  0
  1  9  1  0  0  0
  2  3  1  0  0  0
  3  4  1  0  0  0
  3  8  2  0  0  0
  4  5  2  0  0  0
  5  6  1  0  0  0
  6  7  2  0  0  0
  7 17  1  0  0  0
  7  8  1  0  0  0
 17 18  1  0  0  0
 17 22  1  0  0  0
 18 19  1  0  0  0
 19 20  1  0  0  0
 20 21  1  0  0  0
 21 22  1  0  0  0
  8  9  1  0  0  0
 15 16  1  0  0  0
M  END
> <minimizedAffinity>
-8.26569

$$$$
