CHEMBL2031903


 41 45  0  0  0  0  0  0  0  0999 V2000
  -28.4304   -7.1293   -5.7885 N   0  0  0  0  0  0  0  0  0  0  0  0
  -29.3856   -6.3072   -6.3594 C   0  0  0  0  0  0  0  0  0  0  0  0
  -29.9349   -6.5104   -7.4368 O   0  0  0  0  0  0  0  0  0  0  0  0
  -28.0931   -6.8603   -4.8666 H   0  0  0  0  0  0  0  0  0  0  0  0
  -27.0255  -10.9171   -7.0705 C   0  0  0  0  0  0  0  0  0  0  0  0
  -27.1345   -9.8697   -7.9849 C   0  0  0  0  0  0  0  0  0  0  0  0
  -27.5574   -8.6040   -7.5639 C   0  0  0  0  0  0  0  0  0  0  0  0
  -27.9876   -8.3874   -6.2554 C   0  0  0  0  0  0  0  0  0  0  0  0
  -28.0058   -9.4714   -5.3700 C   0  0  0  0  0  0  0  0  0  0  0  0
  -27.5067  -10.7144   -5.7750 C   0  0  0  0  0  0  0  0  0  0  0  0
  -27.4646  -11.7125   -4.8781 F   0  0  0  0  0  0  0  0  0  0  0  0
  -26.4355  -12.1371   -7.3364 O   0  0  0  0  0  0  0  0  0  0  0  0
  -22.6560  -12.3742   -3.8029 C   0  0  0  0  0  0  0  0  0  0  0  0
  -24.0345  -12.3992   -3.6591 C   0  0  0  0  0  0  0  0  0  0  0  0
  -24.8413  -12.4655   -4.7908 C   0  0  0  0  0  0  0  0  0  0  0  0
  -24.2953  -12.4048   -6.0927 C   0  0  0  0  0  0  0  0  0  0  0  0
  -25.0579  -12.2750   -7.2813 C   0  0  0  0  0  0  0  0  0  0  0  0
  -24.4271  -12.3209   -8.5205 C   0  0  0  0  0  0  0  0  0  0  0  0
  -23.0524  -12.4271   -8.5420 C   0  0  0  0  0  0  0  0  0  0  0  0
  -22.2848  -12.4630   -7.4326 N   0  0  0  0  0  0  0  0  0  0  0  0
  -22.8921  -12.4398   -6.2327 C   0  0  0  0  0  0  0  0  0  0  0  0
  -22.1034  -12.4258   -5.0851 C   0  0  0  0  0  0  0  0  0  0  0  0
  -22.2566  -11.8070   -1.5336 C   0  0  0  0  0  0  0  0  0  0  0  0
  -21.7569  -12.3054   -2.7711 O   0  0  0  0  0  0  0  0  0  0  0  0
  -29.6811   -5.0638   -5.6009 C   0  0  0  0  0  0  0  0  0  0  0  0
  -30.3022   -4.8288   -4.4200 C   0  0  0  0  0  0  0  0  0  0  0  0
  -30.2571   -3.4643   -4.0761 N   0  0  0  0  0  0  0  0  0  0  0  0
  -31.1844   -2.7743   -3.1817 C   0  0  0  0  0  0  0  0  0  0  0  0
  -29.8608   -2.7724   -5.2288 N   0  0  0  0  0  0  0  0  0  0  0  0
  -29.3751   -3.7014   -6.1605 C   0  0  0  0  0  0  0  0  0  0  0  0
  -28.7714   -3.4743   -7.1975 O   0  0  0  0  0  0  0  0  0  0  0  0
  -29.4365   -1.4237   -5.1980 C   0  0  0  0  0  0  0  0  0  0  0  0
  -28.1075   -1.1406   -4.8588 C   0  0  0  0  0  0  0  0  0  0  0  0
  -27.6373    0.1749   -4.8811 C   0  0  0  0  0  0  0  0  0  0  0  0
  -28.5037    1.2186   -5.2013 C   0  0  0  0  0  0  0  0  0  0  0  0
  -29.8356    0.9470   -5.5145 C   0  0  0  0  0  0  0  0  0  0  0  0
  -30.2976   -0.3721   -5.5289 C   0  0  0  0  0  0  0  0  0  0  0  0
  -31.0221   -5.7782   -3.4886 C   0  0  0  0  0  0  0  0  0  0  0  0
  -30.2411   -6.8292   -2.8629 N   0  0  0  0  0  0  0  0  0  0  0  0
  -29.9673   -7.5134   -3.5761 H   0  0  0  0  0  0  0  0  0  0  0  0
  -30.8409   -7.3570   -2.2264 H   0  0  0  0  0  0  0  0  0  0  0  0
 23 24  1  0  0  0
 24 13  1  0  0  0
 13 14  1  0  0  0
 13 22  2  0  0  0
 14 15  2  0  0  0
 15 16  1  0  0  0
 16 17  1  0  0  0
 16 21  2  0  0  0
 17 12  1  0  0  0
 17 18  2  0  0  0
 12  5  1  0  0  0
  5  6  1  0  0  0
  5 10  2  0  0  0
  6  7  2  0  0  0
  7  8  1  0  0  0
  8  1  1  0  0  0
  8  9  2  0  0  0
  1  2  1  0  0  0
  1  4  1  0  0  0
  2  3  2  0  0  0
  2 25  1  0  0  0
 25 26  2  0  0  0
 25 30  1  0  0  0
 26 38  1  0  0  0
 26 27  1  0  0  0
 38 39  1  0  0  0
 39 40  1  0  0  0
 39 41  1  0  0  0
 27 28  1  0  0  0
 27 29  1  0  0  0
 29 32  1  0  0  0
 29 30  1  0  0  0
 32 33  1  0  0  0
 32 37  2  0  0  0
 33 34  2  0  0  0
 34 35  1  0  0  0
 35 36  2  0  0  0
 36 37  1  0  0  0
 30 31  2  0  0  0
  9 10  1  0  0  0
 10 11  1  0  0  0
 18 19  1  0  0  0
 19 20  2  0  0  0
 20 21  1  0  0  0
 21 22  1  0  0  0
M  END
> <minimizedAffinity>
-8.38895

$$$$
