CHEMBL565603


 40 44  0  0  0  0  0  0  0  0999 V2000
  -29.4311   -6.2764   -5.8855 C   0  0  0  0  0  0  0  0  0  0  0  0
  -28.5291   -6.3903   -6.9418 C   0  0  0  0  0  0  0  0  0  0  0  0
  -28.3613   -5.3366   -7.8447 C   0  0  0  0  0  0  0  0  0  0  0  0
  -29.0912   -4.1522   -7.7102 C   0  0  0  0  0  0  0  0  0  0  0  0
  -29.8633   -3.9779   -6.5518 C   0  0  0  0  0  0  0  0  0  0  0  0
  -30.0478   -5.0490   -5.6581 C   0  0  0  0  0  0  0  0  0  0  0  0
  -30.9223   -4.9052   -4.6519 F   0  0  0  0  0  0  0  0  0  0  0  0
  -29.1323   -3.1657   -8.7336 N   0  0  0  0  0  0  0  0  0  0  0  0
  -28.1084   -2.2750   -9.0270 C   0  0  0  0  0  0  0  0  0  0  0  0
  -27.0421   -2.2087   -8.4070 O   0  0  0  0  0  0  0  0  0  0  0  0
  -29.9270   -3.1987   -9.3706 H   0  0  0  0  0  0  0  0  0  0  0  0
  -28.2514   -1.3758  -10.2412 C   0  0  0  0  0  0  0  0  0  0  0  0
  -27.1934   -1.4351  -11.3024 C   0  0  0  0  0  0  0  0  0  0  0  0
  -27.4339   -1.9158  -12.4069 O   0  0  0  0  0  0  0  0  0  0  0  0
  -25.9557   -0.9465  -10.9060 N   0  0  0  0  0  0  0  0  0  0  0  0
  -25.7503   -0.9425   -9.9121 H   0  0  0  0  0  0  0  0  0  0  0  0
  -24.8473   -0.9172  -11.7783 C   0  0  0  0  0  0  0  0  0  0  0  0
  -24.1091   -2.0720  -12.0676 C   0  0  0  0  0  0  0  0  0  0  0  0
  -22.9864   -2.0068  -12.8979 C   0  0  0  0  0  0  0  0  0  0  0  0
  -22.5826   -0.7807  -13.4194 C   0  0  0  0  0  0  0  0  0  0  0  0
  -23.3293    0.3585  -13.1399 C   0  0  0  0  0  0  0  0  0  0  0  0
  -22.9225    1.5431  -13.6147 F   0  0  0  0  0  0  0  0  0  0  0  0
  -24.4778    0.2981  -12.3546 C   0  0  0  0  0  0  0  0  0  0  0  0
  -29.9151   -7.4631   -5.4166 O   0  0  0  0  0  0  0  0  0  0  0  0
  -26.2135  -10.4787   -5.7952 C   0  0  0  0  0  0  0  0  0  0  0  0
  -26.9893  -11.1023   -6.7398 C   0  0  0  0  0  0  0  0  0  0  0  0
  -28.2832  -10.5208   -6.8264 C   0  0  0  0  0  0  0  0  0  0  0  0
  -29.2055  -10.8813   -7.7579 N   0  0  0  0  0  0  0  0  0  0  0  0
  -30.3133  -10.1305   -7.8054 C   0  0  0  0  0  0  0  0  0  0  0  0
  -30.5654   -9.0590   -6.9765 C   0  0  0  0  0  0  0  0  0  0  0  0
  -29.6383   -8.7037   -5.9925 C   0  0  0  0  0  0  0  0  0  0  0  0
  -28.4664   -9.4674   -5.9145 C   0  0  0  0  0  0  0  0  0  0  0  0
  -27.0866   -9.3240   -4.9009 S   0  0  0  0  0  0  0  0  0  0  0  0
  -22.8230  -11.2068   -4.7888 N   0  0  0  0  0  0  0  0  0  0  0  0
  -22.6562  -10.5743   -5.9856 C   0  0  0  0  0  0  0  0  0  0  0  0
  -23.8135  -10.2914   -6.5405 N   0  0  0  0  0  0  0  0  0  0  0  0
  -24.7589  -10.7367   -5.6469 C   0  0  0  0  0  0  0  0  0  0  0  0
  -24.1621  -11.3492   -4.5699 C   0  0  0  0  0  0  0  0  0  0  0  0
  -22.1182  -11.2409   -2.4393 C   0  0  0  0  0  0  0  0  0  0  0  0
  -21.7741  -11.5955   -3.8719 C   0  0  0  0  0  0  0  0  0  0  0  0
 39 40  1  0  0  0
 40 34  1  0  0  0
 34 35  1  0  0  0
 34 38  1  0  0  0
 35 36  2  0  0  0
 36 37  1  0  0  0
 37 25  1  0  0  0
 37 38  2  0  0  0
 25 26  2  0  0  0
 25 33  1  0  0  0
 26 27  1  0  0  0
 27 28  1  0  0  0
 27 32  2  0  0  0
 28 29  2  0  0  0
 29 30  1  0  0  0
 30 31  2  0  0  0
 31 24  1  0  0  0
 31 32  1  0  0  0
 24  1  1  0  0  0
  1  2  1  0  0  0
  1  6  2  0  0  0
  2  3  2  0  0  0
  3  4  1  0  0  0
  4  8  1  0  0  0
  4  5  2  0  0  0
  8  9  1  0  0  0
  8 11  1  0  0  0
  9 10  2  0  0  0
  9 12  1  0  0  0
 12 13  1  0  0  0
 13 14  2  0  0  0
 13 15  1  0  0  0
 15 17  1  0  0  0
 15 16  1  0  0  0
 17 18  1  0  0  0
 17 23  2  0  0  0
 18 19  2  0  0  0
 19 20  1  0  0  0
 20 21  2  0  0  0
 21 22  1  0  0  0
 21 23  1  0  0  0
  5  6  1  0  0  0
  6  7  1  0  0  0
 32 33  1  0  0  0
M  END
> <minimizedAffinity>
-10.09717

$$$$
