CHEMBL1076194


 44 48  0  0  0  0  0  0  0  0999 V2000
  -29.1701   -6.7022   -5.9118 C   0  0  0  0  0  0  0  0  0  0  0  0
  -27.9950   -6.6363   -5.3203 N   0  0  0  0  0  0  0  0  0  0  0  0
  -27.7259   -7.8811   -4.8460 C   0  0  0  0  0  0  0  0  0  0  0  0
  -26.6547   -8.3152   -4.0459 C   0  0  0  0  0  0  0  0  0  0  0  0
  -26.5787   -9.6596   -3.6718 C   0  0  0  0  0  0  0  0  0  0  0  0
  -27.5362  -10.5694   -4.1141 C   0  0  0  0  0  0  0  0  0  0  0  0
  -28.6067  -10.1620   -4.9148 C   0  0  0  0  0  0  0  0  0  0  0  0
  -28.7016   -8.7970   -5.2422 C   0  0  0  0  0  0  0  0  0  0  0  0
  -29.6091   -8.0334   -5.9833 N   0  0  0  0  0  0  0  0  0  0  0  0
  -30.7612   -8.5528   -6.6511 C   0  0  0  0  0  0  0  0  0  0  0  0
  -30.6531   -9.7210   -7.3864 C   0  0  0  0  0  0  0  0  0  0  0  0
  -31.7789  -10.1498   -8.0739 C   0  0  0  0  0  0  0  0  0  0  0  0
  -32.9315   -9.4732   -8.0024 N   0  0  0  0  0  0  0  0  0  0  0  0
  -32.9548   -8.3808   -7.2300 C   0  0  0  0  0  0  0  0  0  0  0  0
  -31.9212   -7.8899   -6.5310 N   0  0  0  0  0  0  0  0  0  0  0  0
  -31.7245  -11.3582   -8.7657 N   0  0  0  0  0  0  0  0  0  0  0  0
  -32.6004  -11.8689   -8.7825 H   0  0  0  0  0  0  0  0  0  0  0  0
  -30.5702  -12.2165   -8.4795 C   0  0  0  0  0  0  0  0  0  0  0  0
  -29.5759  -12.1504   -9.6433 C   0  0  0  0  0  0  0  0  0  0  0  0
  -28.1387  -12.3136   -9.1407 C   0  0  0  0  0  0  0  0  0  0  0  0
  -27.4746  -10.9823   -8.7798 C   0  0  0  0  0  0  0  0  0  0  0  0
  -27.8484   -9.8677   -9.6670 N   0  0  0  0  0  0  0  0  0  0  0  0
  -27.6140   -8.5587   -9.0523 C   0  0  0  0  0  0  0  0  0  0  0  0
  -27.0997   -9.9591  -10.9230 C   0  0  0  0  0  0  0  0  0  0  0  0
  -29.9212   -5.6150   -6.2829 N   0  0  0  0  0  0  0  0  0  0  0  0
  -30.6303   -5.7236   -7.0012 H   0  0  0  0  0  0  0  0  0  0  0  0
  -28.4725   -2.3742   -7.4613 C   0  0  0  0  0  0  0  0  0  0  0  0
  -28.9923   -1.5115   -6.4878 C   0  0  0  0  0  0  0  0  0  0  0  0
  -29.6004   -2.0247   -5.3457 C   0  0  0  0  0  0  0  0  0  0  0  0
  -29.7624   -3.4094   -5.1799 C   0  0  0  0  0  0  0  0  0  0  0  0
  -30.1452   -3.8862   -3.7982 C   0  0  0  0  0  0  0  0  0  0  0  0
  -29.4601   -4.2707   -6.2645 C   0  0  0  0  0  0  0  0  0  0  0  0
  -28.7667   -3.7387   -7.3729 C   0  0  0  0  0  0  0  0  0  0  0  0
  -27.7062   -2.4221   -9.8002 N   0  0  0  0  0  0  0  0  0  0  0  0
  -27.6566   -1.7852   -8.5610 C   0  0  0  0  0  0  0  0  0  0  0  0
  -26.9650   -0.8066   -8.2817 O   0  0  0  0  0  0  0  0  0  0  0  0
  -28.2970   -3.2446   -9.8786 H   0  0  0  0  0  0  0  0  0  0  0  0
  -23.3487   -1.1995  -11.8369 C   0  0  0  0  0  0  0  0  0  0  0  0
  -24.8163   -1.4926  -11.9789 C   0  0  0  0  0  0  0  0  0  0  0  0
  -25.4136   -1.4494  -13.2406 C   0  0  0  0  0  0  0  0  0  0  0  0
  -26.7889   -1.6798  -13.3663 C   0  0  0  0  0  0  0  0  0  0  0  0
  -27.5586   -1.9678  -12.2404 C   0  0  0  0  0  0  0  0  0  0  0  0
  -26.9797   -2.0710  -10.9714 C   0  0  0  0  0  0  0  0  0  0  0  0
  -25.6024   -1.8092  -10.8531 C   0  0  0  0  0  0  0  0  0  0  0  0
 38 39  1  0  0  0
 39 40  1  0  0  0
 39 44  2  0  0  0
 40 41  2  0  0  0
 41 42  1  0  0  0
 42 43  2  0  0  0
 43 34  1  0  0  0
 43 44  1  0  0  0
 34 35  1  0  0  0
 34 37  1  0  0  0
 35 36  2  0  0  0
 35 27  1  0  0  0
 27 28  1  0  0  0
 27 33  2  0  0  0
 28 29  2  0  0  0
 29 30  1  0  0  0
 30 31  1  0  0  0
 30 32  2  0  0  0
 32 25  1  0  0  0
 32 33  1  0  0  0
 25  1  1  0  0  0
 25 26  1  0  0  0
  1  2  2  0  0  0
  1  9  1  0  0  0
  2  3  1  0  0  0
  3  4  1  0  0  0
  3  8  2  0  0  0
  4  5  2  0  0  0
  5  6  1  0  0  0
  6  7  2  0  0  0
  7  8  1  0  0  0
  8  9  1  0  0  0
  9 10  1  0  0  0
 10 11  1  0  0  0
 10 15  2  0  0  0
 11 12  2  0  0  0
 12 16  1  0  0  0
 12 13  1  0  0  0
 16 18  1  0  0  0
 16 17  1  0  0  0
 18 19  1  0  0  0
 19 20  1  0  0  0
 20 21  1  0  0  0
 21 22  1  0  0  0
 22 23  1  0  0  0
 22 24  1  0  0  0
 13 14  2  0  0  0
 14 15  1  0  0  0
M  END
> <minimizedAffinity>
-9.37581

$$$$
