CHEMBL4590471


 34 37  0  0  0  0  0  0  0  0999 V2000
  -27.8423   -2.2195   -8.9912 C   0  0  0  0  0  0  0  0  0  0  0  0
  -27.1520   -1.5080   -8.2852 O   0  0  0  0  0  0  0  0  0  0  0  0
  -27.6767   -2.3923  -10.3533 N   0  0  0  0  0  0  0  0  0  0  0  0
  -28.4782   -2.7710  -10.8453 H   0  0  0  0  0  0  0  0  0  0  0  0
  -26.6810   -1.8126  -11.1702 C   0  0  0  0  0  0  0  0  0  0  0  0
  -27.0588   -1.7156  -12.5172 C   0  0  0  0  0  0  0  0  0  0  0  0
  -26.1463   -1.4046  -13.5089 C   0  0  0  0  0  0  0  0  0  0  0  0
  -24.8587   -1.1766  -13.0649 C   0  0  0  0  0  0  0  0  0  0  0  0
  -23.6585   -1.1863  -13.7039 N   0  0  0  0  0  0  0  0  0  0  0  0
  -22.8622   -0.2910  -13.0408 C   0  0  0  0  0  0  0  0  0  0  0  0
  -23.1928   -0.3913  -11.7517 N   0  0  0  0  0  0  0  0  0  0  0  0
  -24.4690   -0.9943  -11.7485 C   0  0  0  0  0  0  0  0  0  0  0  0
  -25.3889   -1.4019  -10.7474 C   0  0  0  0  0  0  0  0  0  0  0  0
  -23.4489   -1.6288  -14.5868 H   0  0  0  0  0  0  0  0  0  0  0  0
  -21.9639    0.5958  -13.8151 C   0  0  0  0  0  0  0  0  0  0  0  0
  -22.1381    1.9969  -13.6960 C   0  0  0  0  0  0  0  0  0  0  0  0
  -21.3015    2.9189  -14.3377 C   0  0  0  0  0  0  0  0  0  0  0  0
  -20.2544    2.4475  -15.1142 C   0  0  0  0  0  0  0  0  0  0  0  0
  -19.2178    3.5756  -15.8980 Cl  0  0  0  0  0  0  0  0  0  0  0  0
  -20.0446    1.0747  -15.2404 C   0  0  0  0  0  0  0  0  0  0  0  0
  -20.8904    0.1483  -14.5890 C   0  0  0  0  0  0  0  0  0  0  0  0
  -29.0282   -3.0132   -8.4446 C   0  0  0  0  0  0  0  0  0  0  0  0
  -28.3706   -4.6529   -5.0487 C   0  0  0  0  0  0  0  0  0  0  0  0
  -28.5106   -3.7219   -6.0945 C   0  0  0  0  0  0  0  0  0  0  0  0
  -28.7651   -4.1122   -7.4282 C   0  0  0  0  0  0  0  0  0  0  0  0
  -28.8615   -5.4790   -7.7016 C   0  0  0  0  0  0  0  0  0  0  0  0
  -28.6713   -6.4282   -6.6788 C   0  0  0  0  0  0  0  0  0  0  0  0
  -28.4537   -6.0232   -5.3423 C   0  0  0  0  0  0  0  0  0  0  0  0
  -28.8482   -3.2042   -3.2197 C   0  0  0  0  0  0  0  0  0  0  0  0
  -28.0672   -4.2576   -3.7718 O   0  0  0  0  0  0  0  0  0  0  0  0
  -28.7614   -7.7855   -6.8984 O   0  0  0  0  0  0  0  0  0  0  0  0
  -29.0642   -8.1734   -8.2330 C   0  0  0  0  0  0  0  0  0  0  0  0
  -28.2654   -7.0448   -4.4383 O   0  0  0  0  0  0  0  0  0  0  0  0
  -29.3649   -7.3835   -3.6017 C   0  0  0  0  0  0  0  0  0  0  0  0
 29 30  1  0  0  0
 30 23  1  0  0  0
 23 24  1  0  0  0
 23 28  2  0  0  0
 24 25  2  0  0  0
 25 22  1  0  0  0
 25 26  1  0  0  0
 22  1  1  0  0  0
  1  2  2  0  0  0
  1  3  1  0  0  0
  3  5  1  0  0  0
  3  4  1  0  0  0
  5  6  1  0  0  0
  5 13  2  0  0  0
  6  7  2  0  0  0
  7  8  1  0  0  0
  8  9  1  0  0  0
  8 12  2  0  0  0
  9 10  1  0  0  0
  9 14  1  0  0  0
 10 15  1  0  0  0
 10 11  2  0  0  0
 15 16  1  0  0  0
 15 21  2  0  0  0
 16 17  2  0  0  0
 17 18  1  0  0  0
 18 19  1  0  0  0
 18 20  2  0  0  0
 20 21  1  0  0  0
 11 12  1  0  0  0
 12 13  1  0  0  0
 26 27  2  0  0  0
 27 31  1  0  0  0
 27 28  1  0  0  0
 31 32  1  0  0  0
 28 33  1  0  0  0
 33 34  1  0  0  0
M  END
> <minimizedAffinity>
-10.45232

$$$$
