CHEMBL3671583


 37 39  0  0  0  0  0  0  0  0999 V2000
  -29.8973   -9.2554   -7.4203 C   0  0  0  0  0  0  0  0  0  0  0  0
  -29.5304   -8.4962   -6.3087 C   0  0  0  0  0  0  0  0  0  0  0  0
  -28.3087   -8.7376   -5.6529 C   0  0  0  0  0  0  0  0  0  0  0  0
  -27.9076   -8.0874   -4.4751 C   0  0  0  0  0  0  0  0  0  0  0  0
  -26.7120   -8.3223   -3.9070 N   0  0  0  0  0  0  0  0  0  0  0  0
  -25.9346   -9.2354   -4.4949 C   0  0  0  0  0  0  0  0  0  0  0  0
  -26.2428   -9.9482   -5.5849 N   0  0  0  0  0  0  0  0  0  0  0  0
  -27.4262   -9.6978   -6.1528 C   0  0  0  0  0  0  0  0  0  0  0  0
  -27.8005  -10.4252   -7.2863 C   0  0  0  0  0  0  0  0  0  0  0  0
  -29.0206  -10.2167   -7.9401 C   0  0  0  0  0  0  0  0  0  0  0  0
  -32.2610   -9.8834   -7.4398 C   0  0  0  0  0  0  0  0  0  0  0  0
  -33.4185   -9.5322   -7.6491 O   0  0  0  0  0  0  0  0  0  0  0  0
  -31.2117   -9.1190   -7.8905 N   0  0  0  0  0  0  0  0  0  0  0  0
  -31.5335   -8.1719   -8.0621 H   0  0  0  0  0  0  0  0  0  0  0  0
  -32.1529  -12.3049   -7.2066 C   0  0  0  0  0  0  0  0  0  0  0  0
  -31.9325  -11.1041   -6.6587 C   0  0  0  0  0  0  0  0  0  0  0  0
  -28.8093   -7.1931   -3.8241 N   0  0  0  0  0  0  0  0  0  0  0  0
  -28.8120   -7.4132   -2.8273 H   0  0  0  0  0  0  0  0  0  0  0  0
  -28.8753   -5.8043   -4.0972 C   0  0  0  0  0  0  0  0  0  0  0  0
  -27.6740   -5.1287   -4.3892 C   0  0  0  0  0  0  0  0  0  0  0  0
  -27.6395   -3.7518   -4.5977 C   0  0  0  0  0  0  0  0  0  0  0  0
  -28.8188   -3.0257   -4.5327 C   0  0  0  0  0  0  0  0  0  0  0  0
  -28.7762   -1.1491   -4.7399 Br  0  0  0  0  0  0  0  0  0  0  0  0
  -30.0299   -3.6739   -4.2994 C   0  0  0  0  0  0  0  0  0  0  0  0
  -30.0764   -5.0701   -4.0874 C   0  0  0  0  0  0  0  0  0  0  0  0
  -31.4264   -5.6839   -3.8290 C   0  0  0  0  0  0  0  0  0  0  0  0
  -31.8679   -6.5002   -4.8315 F   0  0  0  0  0  0  0  0  0  0  0  0
  -31.4503   -6.4439   -2.6989 F   0  0  0  0  0  0  0  0  0  0  0  0
  -32.4022   -4.7467   -3.6651 F   0  0  0  0  0  0  0  0  0  0  0  0
  -29.2713  -11.0513   -9.0056 O   0  0  0  0  0  0  0  0  0  0  0  0
  -28.4603  -10.8131  -10.1634 C   0  0  0  0  0  0  0  0  0  0  0  0
  -29.0097   -9.6541  -11.0005 C   0  0  0  0  0  0  0  0  0  0  0  0
  -28.6559   -9.8043  -12.4069 N   0  0  0  0  0  0  0  0  0  0  0  0
  -27.4650   -9.3241  -12.9021 C   0  0  0  0  0  0  0  0  0  0  0  0
  -27.3236   -9.4201  -14.3987 C   0  0  0  0  0  0  0  0  0  0  0  0
  -26.5811   -8.8538  -12.1940 O   0  0  0  0  0  0  0  0  0  0  0  0
  -29.3834  -10.0786  -13.0555 H   0  0  0  0  0  0  0  0  0  0  0  0
 15 16  2  0  0  0
 16 11  1  0  0  0
 11 12  2  0  0  0
 11 13  1  0  0  0
 13  1  1  0  0  0
 13 14  1  0  0  0
  1  2  1  0  0  0
  1 10  2  0  0  0
  2  3  2  0  0  0
  3  4  1  0  0  0
  3  8  1  0  0  0
  4 17  1  0  0  0
  4  5  2  0  0  0
 17 19  1  0  0  0
 17 18  1  0  0  0
 19 20  1  0  0  0
 19 25  2  0  0  0
 20 21  2  0  0  0
 21 22  1  0  0  0
 22 23  1  0  0  0
 22 24  2  0  0  0
 24 25  1  0  0  0
 25 26  1  0  0  0
 26 27  1  0  0  0
 26 28  1  0  0  0
 26 29  1  0  0  0
  5  6  1  0  0  0
  6  7  2  0  0  0
  7  8  1  0  0  0
  8  9  2  0  0  0
  9 10  1  0  0  0
 10 30  1  0  0  0
 30 31  1  0  0  0
 31 32  1  0  0  0
 32 33  1  0  0  0
 33 34  1  0  0  0
 33 37  1  0  0  0
 34 35  1  0  0  0
 34 36  2  0  0  0
M  END
> <minimizedAffinity>
-8.29776

$$$$
