CHEMBL1940863


 22 24  0  0  0  0  0  0  0  0999 V2000
  -30.0259   -5.9651   -6.6504 C   0  0  0  0  0  0  0  0  0  0  0  0
  -29.2898   -5.2586   -7.5984 C   0  0  0  0  0  0  0  0  0  0  0  0
  -28.9092   -3.9254   -7.3621 C   0  0  0  0  0  0  0  0  0  0  0  0
  -28.1602   -3.1983   -8.3024 C   0  0  0  0  0  0  0  0  0  0  0  0
  -27.8013   -1.8782   -8.0496 C   0  0  0  0  0  0  0  0  0  0  0  0
  -28.1919   -1.2734   -6.8600 C   0  0  0  0  0  0  0  0  0  0  0  0
  -28.9392   -1.9910   -5.9121 C   0  0  0  0  0  0  0  0  0  0  0  0
  -29.3627   -1.3174   -4.6333 C   0  0  0  0  0  0  0  0  0  0  0  0
  -29.3006   -3.3241   -6.1439 C   0  0  0  0  0  0  0  0  0  0  0  0
  -30.0004   -4.0044   -5.2166 N   0  0  0  0  0  0  0  0  0  0  0  0
  -30.3385   -5.2865   -5.4765 C   0  0  0  0  0  0  0  0  0  0  0  0
  -31.1938   -6.0223   -4.1737 Cl  0  0  0  0  0  0  0  0  0  0  0  0
  -31.6083   -7.6692   -7.4406 C   0  0  0  0  0  0  0  0  0  0  0  0
  -30.4054   -7.3564   -6.9352 C   0  0  0  0  0  0  0  0  0  0  0  0
  -31.9937   -9.1000   -7.6682 C   0  0  0  0  0  0  0  0  0  0  0  0
  -33.1663   -9.4270   -7.4690 O   0  0  0  0  0  0  0  0  0  0  0  0
  -28.2771  -11.0826  -10.5583 C   0  0  0  0  0  0  0  0  0  0  0  0
  -29.2858  -11.0113   -9.4615 C   0  0  0  0  0  0  0  0  0  0  0  0
  -29.5450  -12.0193   -8.5555 C   0  0  0  0  0  0  0  0  0  0  0  0
  -30.7742  -11.6082   -7.4462 S   0  0  0  0  0  0  0  0  0  0  0  0
  -30.9963  -10.0596   -8.1404 C   0  0  0  0  0  0  0  0  0  0  0  0
  -30.1278   -9.8797   -9.2073 C   0  0  0  0  0  0  0  0  0  0  0  0
 17 18  1  0  0  0
 18 19  2  0  0  0
 18 22  1  0  0  0
 19 20  1  0  0  0
 20 21  1  0  0  0
 21 15  1  0  0  0
 21 22  2  0  0  0
 15 16  2  0  0  0
 15 13  1  0  0  0
 13 14  2  0  0  0
 14  1  1  0  0  0
  1  2  1  0  0  0
  1 11  2  0  0  0
  2  3  2  0  0  0
  3  4  1  0  0  0
  3  9  1  0  0  0
  4  5  2  0  0  0
  5  6  1  0  0  0
  6  7  2  0  0  0
  7  8  1  0  0  0
  7  9  1  0  0  0
  9 10  2  0  0  0
 10 11  1  0  0  0
 11 12  1  0  0  0
M  END
> <minimizedAffinity>
-8.31032

$$$$
