CHEMBL405401


 46 50  0  0  0  0  0  0  0  0999 V2000
  -27.9263   -1.3438   -7.6587 C   0  0  0  0  0  0  0  0  0  0  0  0
  -27.5763   -0.1703   -7.6304 O   0  0  0  0  0  0  0  0  0  0  0  0
  -27.7915   -2.1758   -8.7609 N   0  0  0  0  0  0  0  0  0  0  0  0
  -28.2980   -3.0461   -8.7535 H   0  0  0  0  0  0  0  0  0  0  0  0
  -28.8123    0.2941   -5.0838 C   0  0  0  0  0  0  0  0  0  0  0  0
  -29.0465   -1.1712   -5.3224 C   0  0  0  0  0  0  0  0  0  0  0  0
  -29.7195   -1.8534   -4.2955 C   0  0  0  0  0  0  0  0  0  0  0  0
  -30.0478   -3.2042   -4.4044 C   0  0  0  0  0  0  0  0  0  0  0  0
  -29.7595   -3.9258   -5.5556 C   0  0  0  0  0  0  0  0  0  0  0  0
  -29.0437   -3.2716   -6.5736 C   0  0  0  0  0  0  0  0  0  0  0  0
  -28.6690   -1.9032   -6.4684 C   0  0  0  0  0  0  0  0  0  0  0  0
  -30.1589   -5.2771   -5.7433 N   0  0  0  0  0  0  0  0  0  0  0  0
  -29.9339   -6.0495   -6.8900 C   0  0  0  0  0  0  0  0  0  0  0  0
  -29.3720   -5.6719   -7.9055 O   0  0  0  0  0  0  0  0  0  0  0  0
  -30.6702   -5.7029   -4.9831 H   0  0  0  0  0  0  0  0  0  0  0  0
  -30.4696   -7.4402   -6.8898 C   0  0  0  0  0  0  0  0  0  0  0  0
  -29.6104   -8.4778   -6.5172 C   0  0  0  0  0  0  0  0  0  0  0  0
  -30.0334   -9.8109   -6.5783 C   0  0  0  0  0  0  0  0  0  0  0  0
  -31.3501  -10.1583   -6.9323 C   0  0  0  0  0  0  0  0  0  0  0  0
  -32.2245   -9.0988   -7.2320 C   0  0  0  0  0  0  0  0  0  0  0  0
  -31.7885   -7.7593   -7.2193 C   0  0  0  0  0  0  0  0  0  0  0  0
  -31.8186  -11.6292   -6.9399 C   0  0  0  0  0  0  0  0  0  0  0  0
  -31.0078  -12.4659   -5.9228 C   0  0  0  0  0  0  0  0  0  0  0  0
  -33.3157  -11.7199   -6.5708 C   0  0  0  0  0  0  0  0  0  0  0  0
  -31.6425  -12.2970   -8.3209 C   0  0  0  0  0  0  0  0  0  0  0  0
  -27.1922   -1.8106   -9.9912 C   0  0  0  0  0  0  0  0  0  0  0  0
  -27.8421   -1.5920  -11.1739 C   0  0  0  0  0  0  0  0  0  0  0  0
  -27.1969   -1.2575  -12.3217 N   0  0  0  0  0  0  0  0  0  0  0  0
  -25.8577   -1.1631  -12.2885 C   0  0  0  0  0  0  0  0  0  0  0  0
  -25.1238   -1.3653  -11.1863 N   0  0  0  0  0  0  0  0  0  0  0  0
  -25.8189   -1.6583  -10.0564 C   0  0  0  0  0  0  0  0  0  0  0  0
  -25.1787   -0.8479  -13.4600 N   0  0  0  0  0  0  0  0  0  0  0  0
  -25.4625   -1.4169  -14.2405 H   0  0  0  0  0  0  0  0  0  0  0  0
  -23.9330   -0.2166  -13.5554 C   0  0  0  0  0  0  0  0  0  0  0  0
  -23.7887    1.1564  -13.3446 C   0  0  0  0  0  0  0  0  0  0  0  0
  -22.5717    1.7878  -13.5756 C   0  0  0  0  0  0  0  0  0  0  0  0
  -21.4650    1.0824  -14.0539 C   0  0  0  0  0  0  0  0  0  0  0  0
  -21.5954   -0.3030  -14.2018 C   0  0  0  0  0  0  0  0  0  0  0  0
  -22.8127   -0.9482  -13.9519 C   0  0  0  0  0  0  0  0  0  0  0  0
  -20.3034    1.7659  -14.3362 N   0  0  0  0  0  0  0  0  0  0  0  0
  -20.2306    3.2263  -14.3104 C   0  0  0  0  0  0  0  0  0  0  0  0
  -19.2532    3.6912  -15.4156 C   0  0  0  0  0  0  0  0  0  0  0  0
  -17.9121    3.0739  -15.2773 N   0  0  0  0  0  0  0  0  0  0  0  0
  -17.0216    3.5323  -16.3369 C   0  0  0  0  0  0  0  0  0  0  0  0
  -18.0532    1.5991  -15.3126 C   0  0  0  0  0  0  0  0  0  0  0  0
  -19.0068    1.0756  -14.2164 C   0  0  0  0  0  0  0  0  0  0  0  0
  5  6  1  0  0  0
  6  7  1  0  0  0
  6 11  2  0  0  0
  7  8  2  0  0  0
  8  9  1  0  0  0
  9 12  1  0  0  0
  9 10  2  0  0  0
 12 13  1  0  0  0
 12 15  1  0  0  0
 13 14  2  0  0  0
 13 16  1  0  0  0
 16 17  1  0  0  0
 16 21  2  0  0  0
 17 18  2  0  0  0
 18 19  1  0  0  0
 19 22  1  0  0  0
 19 20  2  0  0  0
 22 23  1  0  0  0
 22 24  1  0  0  0
 22 25  1  0  0  0
 20 21  1  0  0  0
 10 11  1  0  0  0
 11  1  1  0  0  0
  1  2  2  0  0  0
  1  3  1  0  0  0
  3 26  1  0  0  0
  3  4  1  0  0  0
 26 27  1  0  0  0
 26 31  2  0  0  0
 27 28  2  0  0  0
 28 29  1  0  0  0
 29 32  1  0  0  0
 29 30  2  0  0  0
 32 34  1  0  0  0
 32 33  1  0  0  0
 34 35  1  0  0  0
 34 39  2  0  0  0
 35 36  2  0  0  0
 36 37  1  0  0  0
 37 40  1  0  0  0
 37 38  2  0  0  0
 40 41  1  0  0  0
 40 46  1  0  0  0
 41 42  1  0  0  0
 42 43  1  0  0  0
 43 44  1  0  0  0
 43 45  1  0  0  0
 45 46  1  0  0  0
 38 39  1  0  0  0
 30 31  1  0  0  0
M  END
> <minimizedAffinity>
-10.57768

$$$$
