CHEMBL2113175


 33 35  0  0  0  0  0  0  0  0999 V2000
  -28.8210  -11.2837   -8.0297 C   0  0  0  0  0  0  0  0  0  0  0  0
  -30.1673  -10.9874   -8.3655 C   0  0  0  0  0  0  0  0  0  0  0  0
  -30.9166   -9.9866   -7.7782 C   0  0  0  0  0  0  0  0  0  0  0  0
  -32.1736   -9.8113   -8.1944 N   0  0  0  0  0  0  0  0  0  0  0  0
  -32.8657   -8.8384   -7.6049 C   0  0  0  0  0  0  0  0  0  0  0  0
  -32.4044   -8.0249   -6.6552 N   0  0  0  0  0  0  0  0  0  0  0  0
  -31.1302   -8.2128   -6.2516 C   0  0  0  0  0  0  0  0  0  0  0  0
  -30.3231   -9.2218   -6.7871 C   0  0  0  0  0  0  0  0  0  0  0  0
  -29.0049   -9.5226   -6.3868 C   0  0  0  0  0  0  0  0  0  0  0  0
  -28.2389  -10.5321   -7.0004 C   0  0  0  0  0  0  0  0  0  0  0  0
  -30.6068   -7.3581   -5.2452 N   0  0  0  0  0  0  0  0  0  0  0  0
  -29.7648   -7.7778   -4.8396 H   0  0  0  0  0  0  0  0  0  0  0  0
  -30.4198   -6.0047   -5.4945 C   0  0  0  0  0  0  0  0  0  0  0  0
  -29.9429   -5.5089   -6.6413 C   0  0  0  0  0  0  0  0  0  0  0  0
  -29.6362   -4.0934   -6.8348 C   0  0  0  0  0  0  0  0  0  0  0  0
  -29.0776   -3.7467   -7.8685 O   0  0  0  0  0  0  0  0  0  0  0  0
  -30.0315   -3.1404   -5.7501 C   0  0  0  0  0  0  0  0  0  0  0  0
  -30.5510   -3.6252   -4.6155 C   0  0  0  0  0  0  0  0  0  0  0  0
  -30.7636   -5.0665   -4.3870 C   0  0  0  0  0  0  0  0  0  0  0  0
  -31.2153   -5.4875   -3.3234 O   0  0  0  0  0  0  0  0  0  0  0  0
  -29.8803   -1.7662   -5.8657 O   0  0  0  0  0  0  0  0  0  0  0  0
  -28.9043   -1.0944   -5.0462 C   0  0  0  0  0  0  0  0  0  0  0  0
  -27.4679   -1.4704   -5.4094 C   0  0  0  0  0  0  0  0  0  0  0  0
  -27.3147   -1.4131   -6.7629 F   0  0  0  0  0  0  0  0  0  0  0  0
  -29.0944    0.4054   -5.2422 C   0  0  0  0  0  0  0  0  0  0  0  0
  -28.1788    1.0813   -4.4968 F   0  0  0  0  0  0  0  0  0  0  0  0
  -27.0105  -10.5624   -6.4173 O   0  0  0  0  0  0  0  0  0  0  0  0
  -26.6363   -9.7332   -5.3417 C   0  0  0  0  0  0  0  0  0  0  0  0
  -28.1249  -12.2843   -8.6994 O   0  0  0  0  0  0  0  0  0  0  0  0
  -27.8011  -11.9349  -10.0596 C   0  0  0  0  0  0  0  0  0  0  0  0
  -26.9804  -10.6715  -10.2910 C   0  0  0  0  0  0  0  0  0  0  0  0
  -28.8753  -10.2418  -11.6908 C   0  0  0  0  0  0  0  0  0  0  0  0
  -27.4727  -10.1317  -11.5296 O   0  0  0  0  0  0  0  0  0  0  0  0
 32 33  1  0  0  0
 33 31  1  0  0  0
 31 30  1  0  0  0
 30 29  1  0  0  0
 29  1  1  0  0  0
  1  2  1  0  0  0
  1 10  2  0  0  0
  2  3  2  0  0  0
  3  4  1  0  0  0
  3  8  1  0  0  0
  4  5  2  0  0  0
  5  6  1  0  0  0
  6  7  2  0  0  0
  7 11  1  0  0  0
  7  8  1  0  0  0
 11 13  1  0  0  0
 11 12  1  0  0  0
 13 14  2  0  0  0
 13 19  1  0  0  0
 14 15  1  0  0  0
 15 16  2  0  0  0
 15 17  1  0  0  0
 17 21  1  0  0  0
 17 18  2  0  0  0
 21 22  1  0  0  0
 22 23  1  0  0  0
 22 25  1  0  0  0
 23 24  1  0  0  0
 25 26  1  0  0  0
 18 19  1  0  0  0
 19 20  2  0  0  0
  8  9  2  0  0  0
  9 10  1  0  0  0
 10 27  1  0  0  0
 27 28  1  0  0  0
M  END
> <minimizedAffinity>
-7.12422

$$$$
