CHEMBL4225256


 34 36  0  0  0  0  0  0  0  0999 V2000
  -28.8782   -1.2137   -4.7650 C   0  0  0  0  0  0  0  0  0  0  0  0
  -29.2890    0.1058   -4.5842 C   0  0  0  0  0  0  0  0  0  0  0  0
  -29.1127    1.0382   -5.6076 C   0  0  0  0  0  0  0  0  0  0  0  0
  -28.5139    0.6664   -6.8155 C   0  0  0  0  0  0  0  0  0  0  0  0
  -28.0448   -0.6298   -6.9894 C   0  0  0  0  0  0  0  0  0  0  0  0
  -28.2226   -1.5623   -5.9491 C   0  0  0  0  0  0  0  0  0  0  0  0
  -27.4435   -1.1375   -8.1526 N   0  0  0  0  0  0  0  0  0  0  0  0
  -26.5712   -0.6829   -8.3972 H   0  0  0  0  0  0  0  0  0  0  0  0
  -27.7215   -2.1822   -9.0091 C   0  0  0  0  0  0  0  0  0  0  0  0
  -27.7897   -3.8186   -8.7194 S   0  0  0  0  0  0  0  0  0  0  0  0
  -28.0190   -1.7394  -10.2917 N   0  0  0  0  0  0  0  0  0  0  0  0
  -29.0059   -1.6126  -10.4945 H   0  0  0  0  0  0  0  0  0  0  0  0
  -27.1315   -1.7060  -11.3926 C   0  0  0  0  0  0  0  0  0  0  0  0
  -27.6479   -1.8632  -12.6757 C   0  0  0  0  0  0  0  0  0  0  0  0
  -26.7951   -1.8038  -13.7811 C   0  0  0  0  0  0  0  0  0  0  0  0
  -25.4224   -1.6064  -13.6087 C   0  0  0  0  0  0  0  0  0  0  0  0
  -24.8812   -1.4777  -12.3246 C   0  0  0  0  0  0  0  0  0  0  0  0
  -25.7473   -1.5495  -11.2252 C   0  0  0  0  0  0  0  0  0  0  0  0
  -23.4085   -1.2487  -12.0963 C   0  0  0  0  0  0  0  0  0  0  0  0
  -23.0933    0.0401  -11.7922 F   0  0  0  0  0  0  0  0  0  0  0  0
  -22.9239   -2.0047  -11.0712 F   0  0  0  0  0  0  0  0  0  0  0  0
  -22.6488   -1.5728  -13.1803 F   0  0  0  0  0  0  0  0  0  0  0  0
  -29.1691   -2.4317   -3.5033 S   0  0  0  0  0  0  0  0  0  0  0  0
  -29.0935   -6.4337   -5.6839 C   0  0  0  0  0  0  0  0  0  0  0  0
  -30.2663   -5.6819   -5.7523 C   0  0  0  0  0  0  0  0  0  0  0  0
  -30.3391   -4.4533   -5.0854 C   0  0  0  0  0  0  0  0  0  0  0  0
  -29.2400   -3.9980   -4.3604 C   0  0  0  0  0  0  0  0  0  0  0  0
  -28.1071   -4.7378   -4.2619 N   0  0  0  0  0  0  0  0  0  0  0  0
  -28.0591   -5.9322   -4.9093 C   0  0  0  0  0  0  0  0  0  0  0  0
  -28.0237   -8.8730   -8.3624 C   0  0  0  0  0  0  0  0  0  0  0  0
  -28.3089   -7.6676   -7.6245 N   0  0  0  0  0  0  0  0  0  0  0  0
  -28.9130   -7.7277   -6.3820 C   0  0  0  0  0  0  0  0  0  0  0  0
  -29.2566   -8.7710   -5.8448 O   0  0  0  0  0  0  0  0  0  0  0  0
  -27.8830   -6.8078   -7.9366 H   0  0  0  0  0  0  0  0  0  0  0  0
 30 31  1  0  0  0
 31 32  1  0  0  0
 31 34  1  0  0  0
 32 33  2  0  0  0
 32 24  1  0  0  0
 24 25  1  0  0  0
 24 29  2  0  0  0
 25 26  2  0  0  0
 26 27  1  0  0  0
 27 23  1  0  0  0
 27 28  2  0  0  0
 23  1  1  0  0  0
  1  2  1  0  0  0
  1  6  2  0  0  0
  2  3  2  0  0  0
  3  4  1  0  0  0
  4  5  2  0  0  0
  5  7  1  0  0  0
  5  6  1  0  0  0
  7  9  1  0  0  0
  7  8  1  0  0  0
  9 10  2  0  0  0
  9 11  1  0  0  0
 11 13  1  0  0  0
 11 12  1  0  0  0
 13 14  1  0  0  0
 13 18  2  0  0  0
 14 15  2  0  0  0
 15 16  1  0  0  0
 16 17  2  0  0  0
 17 19  1  0  0  0
 17 18  1  0  0  0
 19 20  1  0  0  0
 19 21  1  0  0  0
 19 22  1  0  0  0
 28 29  1  0  0  0
M  END
> <minimizedAffinity>
-9.67548

$$$$
