CHEMBL3740087


 41 45  0  0  0  0  0  0  0  0999 V2000
  -27.7674   -2.1783   -7.8238 C   0  0  0  0  0  0  0  0  0  0  0  0
  -28.6376   -1.7241   -6.8367 C   0  0  0  0  0  0  0  0  0  0  0  0
  -29.2007   -2.6449   -5.9492 C   0  0  0  0  0  0  0  0  0  0  0  0
  -28.9758   -4.0258   -6.1172 C   0  0  0  0  0  0  0  0  0  0  0  0
  -29.5357   -5.0185   -5.2972 C   0  0  0  0  0  0  0  0  0  0  0  0
  -30.5452   -5.6735   -5.9875 C   0  0  0  0  0  0  0  0  0  0  0  0
  -30.2406   -6.0934   -7.2813 C   0  0  0  0  0  0  0  0  0  0  0  0
  -29.0955   -5.5799   -7.9132 C   0  0  0  0  0  0  0  0  0  0  0  0
  -28.5090   -4.4213   -7.3770 C   0  0  0  0  0  0  0  0  0  0  0  0
  -27.7249   -3.5372   -8.1351 C   0  0  0  0  0  0  0  0  0  0  0  0
  -28.4688   -6.0838   -4.7952 C   0  0  0  0  0  0  0  0  0  0  0  0
  -27.3669   -5.7261   -4.3915 O   0  0  0  0  0  0  0  0  0  0  0  0
  -28.8877   -7.4178   -4.8962 N   0  0  0  0  0  0  0  0  0  0  0  0
  -29.8519   -7.5599   -5.1613 H   0  0  0  0  0  0  0  0  0  0  0  0
  -28.1397   -8.6185   -4.7511 C   0  0  0  0  0  0  0  0  0  0  0  0
  -27.8861   -9.2639   -3.5392 C   0  0  0  0  0  0  0  0  0  0  0  0
  -27.1287  -10.4502   -3.4990 C   0  0  0  0  0  0  0  0  0  0  0  0
  -26.6126  -11.0051   -4.6691 C   0  0  0  0  0  0  0  0  0  0  0  0
  -26.8448  -10.3568   -5.8767 C   0  0  0  0  0  0  0  0  0  0  0  0
  -26.1510  -11.0862   -7.4793 Br  0  0  0  0  0  0  0  0  0  0  0  0
  -27.5939   -9.1741   -5.9210 C   0  0  0  0  0  0  0  0  0  0  0  0
  -27.0908   -1.2306   -8.5527 O   0  0  0  0  0  0  0  0  0  0  0  0
  -25.4311   -1.5988  -11.6290 C   0  0  0  0  0  0  0  0  0  0  0  0
  -26.3968   -1.7644  -12.5446 N   0  0  0  0  0  0  0  0  0  0  0  0
  -27.6628   -1.8011  -12.0932 C   0  0  0  0  0  0  0  0  0  0  0  0
  -28.0000   -1.6558  -10.7715 C   0  0  0  0  0  0  0  0  0  0  0  0
  -26.9467   -1.4349   -9.9116 C   0  0  0  0  0  0  0  0  0  0  0  0
  -25.6642   -1.4476  -10.3172 N   0  0  0  0  0  0  0  0  0  0  0  0
  -24.1220   -1.5696  -12.1205 N   0  0  0  0  0  0  0  0  0  0  0  0
  -23.5494   -1.9953  -11.3988 H   0  0  0  0  0  0  0  0  0  0  0  0
  -21.8210    0.4939  -14.2362 C   0  0  0  0  0  0  0  0  0  0  0  0
  -22.3729    1.7627  -14.0187 C   0  0  0  0  0  0  0  0  0  0  0  0
  -23.4704    1.9181  -13.1738 C   0  0  0  0  0  0  0  0  0  0  0  0
  -24.0267    0.8068  -12.5399 C   0  0  0  0  0  0  0  0  0  0  0  0
  -23.4747   -0.4668  -12.7116 C   0  0  0  0  0  0  0  0  0  0  0  0
  -22.3812   -0.6120  -13.5764 C   0  0  0  0  0  0  0  0  0  0  0  0
  -20.6775    0.3108  -15.1934 C   0  0  0  0  0  0  0  0  0  0  0  0
  -17.8529    0.5538  -15.1936 C   0  0  0  0  0  0  0  0  0  0  0  0
  -19.3348    1.4612  -14.8590 S   0  0  0  0  0  0  0  0  0  0  0  0
  -19.3398    1.8230  -13.4556 O   0  0  0  0  0  0  0  0  0  0  0  0
  -19.4375    2.5026  -15.8757 O   0  0  0  0  0  0  0  0  0  0  0  0
 38 39  1  0  0  0
 39 40  2  0  0  0
 39 41  2  0  0  0
 39 37  1  0  0  0
 37 31  1  0  0  0
 31 32  1  0  0  0
 31 36  2  0  0  0
 32 33  2  0  0  0
 33 34  1  0  0  0
 34 35  2  0  0  0
 35 29  1  0  0  0
 35 36  1  0  0  0
 29 23  1  0  0  0
 29 30  1  0  0  0
 23 24  1  0  0  0
 23 28  2  0  0  0
 24 25  2  0  0  0
 25 26  1  0  0  0
 26 27  2  0  0  0
 27 22  1  0  0  0
 27 28  1  0  0  0
 22  1  1  0  0  0
  1  2  1  0  0  0
  1 10  2  0  0  0
  2  3  2  0  0  0
  3  4  1  0  0  0
  4  5  1  0  0  0
  4  9  2  0  0  0
  5 11  1  0  0  0
  5  6  2  0  0  0
 11 12  2  0  0  0
 11 13  1  0  0  0
 13 15  1  0  0  0
 13 14  1  0  0  0
 15 16  1  0  0  0
 15 21  2  0  0  0
 16 17  2  0  0  0
 17 18  1  0  0  0
 18 19  2  0  0  0
 19 20  1  0  0  0
 19 21  1  0  0  0
  6  7  1  0  0  0
  7  8  2  0  0  0
  8  9  1  0  0  0
  9 10  1  0  0  0
M  END
> <minimizedAffinity>
-9.54249

$$$$
