CHEMBL3759853


 32 34  0  0  0  0  0  0  0  0999 V2000
  -27.7510   -1.7863   -5.5204 C   0  0  0  0  0  0  0  0  0  0  0  0
  -27.9843   -2.6818   -4.4733 C   0  0  0  0  0  0  0  0  0  0  0  0
  -28.5028   -3.9484   -4.6799 C   0  0  0  0  0  0  0  0  0  0  0  0
  -28.6859   -4.7165   -3.6043 N   0  0  0  0  0  0  0  0  0  0  0  0
  -29.1376   -5.9500   -3.8246 C   0  0  0  0  0  0  0  0  0  0  0  0
  -29.3910   -6.4815   -5.0180 N   0  0  0  0  0  0  0  0  0  0  0  0
  -29.1875   -5.7028   -6.1008 C   0  0  0  0  0  0  0  0  0  0  0  0
  -28.7708   -4.3682   -5.9859 C   0  0  0  0  0  0  0  0  0  0  0  0
  -28.5353   -3.4791   -7.0615 C   0  0  0  0  0  0  0  0  0  0  0  0
  -27.9923   -2.2112   -6.8327 C   0  0  0  0  0  0  0  0  0  0  0  0
  -28.1322    0.5191   -4.9523 C   0  0  0  0  0  0  0  0  0  0  0  0
  -27.2456   -0.5336   -5.3203 O   0  0  0  0  0  0  0  0  0  0  0  0
  -29.3088   -6.3044   -7.3795 N   0  0  0  0  0  0  0  0  0  0  0  0
  -29.4094   -5.6019   -8.1073 H   0  0  0  0  0  0  0  0  0  0  0  0
  -30.0942   -7.4610   -7.6177 C   0  0  0  0  0  0  0  0  0  0  0  0
  -31.4162   -7.5150   -7.1380 C   0  0  0  0  0  0  0  0  0  0  0  0
  -32.2521   -8.5882   -7.4352 C   0  0  0  0  0  0  0  0  0  0  0  0
  -31.7695   -9.6466   -8.1979 C   0  0  0  0  0  0  0  0  0  0  0  0
  -30.4411   -9.6437   -8.6319 C   0  0  0  0  0  0  0  0  0  0  0  0
  -29.6056   -8.5638   -8.3331 C   0  0  0  0  0  0  0  0  0  0  0  0
  -27.9686   -8.6035   -8.8849 Cl  0  0  0  0  0  0  0  0  0  0  0  0
  -27.7866   -1.4704   -7.9676 O   0  0  0  0  0  0  0  0  0  0  0  0
  -27.5458   -2.2402   -9.1501 C   0  0  0  0  0  0  0  0  0  0  0  0
  -27.9642   -1.4232  -10.3774 C   0  0  0  0  0  0  0  0  0  0  0  0
  -27.0625   -1.7293  -11.5757 C   0  0  0  0  0  0  0  0  0  0  0  0
  -26.2977   -0.5059  -12.0712 C   0  0  0  0  0  0  0  0  0  0  0  0
  -24.8029   -0.6935  -11.8985 C   0  0  0  0  0  0  0  0  0  0  0  0
  -23.9541    0.1516  -12.1722 O   0  0  0  0  0  0  0  0  0  0  0  0
  -24.4549   -1.9252  -11.3981 N   0  0  0  0  0  0  0  0  0  0  0  0
  -23.0770   -2.1029  -11.1293 O   0  0  0  0  0  0  0  0  0  0  0  0
  -25.0986   -2.5375  -10.9102 H   0  0  0  0  0  0  0  0  0  0  0  0
  -22.6921   -1.2557  -11.4487 H   0  0  0  0  0  0  0  0  0  0  0  0
 11 12  1  0  0  0
 12  1  1  0  0  0
  1  2  1  0  0  0
  1 10  2  0  0  0
  2  3  2  0  0  0
  3  4  1  0  0  0
  3  8  1  0  0  0
  4  5  2  0  0  0
  5  6  1  0  0  0
  6  7  2  0  0  0
  7 13  1  0  0  0
  7  8  1  0  0  0
 13 15  1  0  0  0
 13 14  1  0  0  0
 15 16  1  0  0  0
 15 20  2  0  0  0
 16 17  2  0  0  0
 17 18  1  0  0  0
 18 19  2  0  0  0
 19 20  1  0  0  0
 20 21  1  0  0  0
  8  9  2  0  0  0
  9 10  1  0  0  0
 10 22  1  0  0  0
 22 23  1  0  0  0
 23 24  1  0  0  0
 24 25  1  0  0  0
 25 26  1  0  0  0
 26 27  1  0  0  0
 27 28  2  0  0  0
 27 29  1  0  0  0
 29 30  1  0  0  0
 29 31  1  0  0  0
 30 32  1  0  0  0
M  END
> <minimizedAffinity>
-8.73836

$$$$
