CHEMBL398296


 24 27  0  0  0  0  0  0  0  0999 V2000
  -29.5597   -7.9662   -7.3965 C   0  0  0  0  0  0  0  0  0  0  0  0
  -30.3478   -8.8900   -7.9699 C   0  0  0  0  0  0  0  0  0  0  0  0
  -31.8163   -9.0932   -7.8910 C   0  0  0  0  0  0  0  0  0  0  0  0
  -32.6868   -8.3719   -7.4505 O   0  0  0  0  0  0  0  0  0  0  0  0
  -31.9922  -10.3330   -8.4815 N   0  0  0  0  0  0  0  0  0  0  0  0
  -30.8667  -10.8748   -9.0496 N   0  0  0  0  0  0  0  0  0  0  0  0
  -29.8866  -10.0366   -8.8056 C   0  0  0  0  0  0  0  0  0  0  0  0
  -32.9010  -10.7613   -8.6182 H   0  0  0  0  0  0  0  0  0  0  0  0
  -31.4999   -5.3014   -3.7126 C   0  0  0  0  0  0  0  0  0  0  0  0
  -30.7494   -5.6450   -4.8998 N   0  0  0  0  0  0  0  0  0  0  0  0
  -30.5898   -6.9209   -5.3690 C   0  0  0  0  0  0  0  0  0  0  0  0
  -29.9050   -6.8603   -6.5574 C   0  0  0  0  0  0  0  0  0  0  0  0
  -29.5360   -5.4902   -6.7657 C   0  0  0  0  0  0  0  0  0  0  0  0
  -28.7901   -4.8023   -7.7497 C   0  0  0  0  0  0  0  0  0  0  0  0
  -28.6351   -3.4152   -7.6485 C   0  0  0  0  0  0  0  0  0  0  0  0
  -27.7164   -2.5791   -8.8420 Cl  0  0  0  0  0  0  0  0  0  0  0  0
  -29.2094   -2.7002   -6.6028 C   0  0  0  0  0  0  0  0  0  0  0  0
  -29.9513   -3.3554   -5.6180 C   0  0  0  0  0  0  0  0  0  0  0  0
  -30.0944   -4.7490   -5.7165 C   0  0  0  0  0  0  0  0  0  0  0  0
  -28.5770  -10.2226   -9.3522 C   0  0  0  0  0  0  0  0  0  0  0  0
  -28.0517   -9.9805  -10.6086 C   0  0  0  0  0  0  0  0  0  0  0  0
  -26.7194  -10.3180  -10.7771 N   0  0  0  0  0  0  0  0  0  0  0  0
  -26.2114  -10.8455   -9.6772 N   0  0  0  0  0  0  0  0  0  0  0  0
  -27.3228  -10.9497   -8.4317 S   0  0  0  0  0  0  0  0  0  0  0  0
  9 10  1  0  0  0
 10 11  1  0  0  0
 10 19  1  0  0  0
 11 12  2  0  0  0
 12  1  1  0  0  0
 12 13  1  0  0  0
  1  2  2  0  0  0
  2  3  1  0  0  0
  2  7  1  0  0  0
  3  4  2  0  0  0
  3  5  1  0  0  0
  5  6  1  0  0  0
  5  8  1  0  0  0
  6  7  2  0  0  0
  7 20  1  0  0  0
 20 21  2  0  0  0
 20 24  1  0  0  0
 21 22  1  0  0  0
 22 23  2  0  0  0
 23 24  1  0  0  0
 13 14  1  0  0  0
 13 19  2  0  0  0
 14 15  2  0  0  0
 15 16  1  0  0  0
 15 17  1  0  0  0
 17 18  2  0  0  0
 18 19  1  0  0  0
M  END
> <minimizedAffinity>
-8.59824

$$$$
