CHEMBL4071203


 34 38  0  0  0  0  0  0  0  0999 V2000
  -29.5533   -7.3262   -5.6745 C   0  0  0  0  0  0  0  0  0  0  0  0
  -29.4479   -7.6624   -4.3286 C   0  0  0  0  0  0  0  0  0  0  0  0
  -28.5535   -8.6377   -3.9140 C   0  0  0  0  0  0  0  0  0  0  0  0
  -27.7730   -9.3504   -4.8291 C   0  0  0  0  0  0  0  0  0  0  0  0
  -27.9962   -9.1529   -6.2278 C   0  0  0  0  0  0  0  0  0  0  0  0
  -27.3616   -9.9175   -7.2449 C   0  0  0  0  0  0  0  0  0  0  0  0
  -27.6055   -9.6985   -8.6013 C   0  0  0  0  0  0  0  0  0  0  0  0
  -28.4802   -8.7013   -8.9982 C   0  0  0  0  0  0  0  0  0  0  0  0
  -29.1101   -7.9131   -8.0297 C   0  0  0  0  0  0  0  0  0  0  0  0
  -28.9003   -8.1167   -6.6511 C   0  0  0  0  0  0  0  0  0  0  0  0
  -26.7771  -10.2585   -4.3472 N   0  0  0  0  0  0  0  0  0  0  0  0
  -25.5291   -9.8933   -3.8645 C   0  0  0  0  0  0  0  0  0  0  0  0
  -25.0879   -8.7504   -3.7924 O   0  0  0  0  0  0  0  0  0  0  0  0
  -24.7692  -10.9721   -3.4389 N   0  0  0  0  0  0  0  0  0  0  0  0
  -26.9115  -11.2357   -4.5348 H   0  0  0  0  0  0  0  0  0  0  0  0
  -25.0393  -11.9086   -3.6965 H   0  0  0  0  0  0  0  0  0  0  0  0
  -23.4529  -10.7532   -2.9037 C   0  0  0  0  0  0  0  0  0  0  0  0
  -22.2074  -11.3645   -3.4781 C   0  0  0  0  0  0  0  0  0  0  0  0
  -22.7572  -11.8741   -2.1788 C   0  0  0  0  0  0  0  0  0  0  0  0
  -30.3378   -6.2358   -6.0444 O   0  0  0  0  0  0  0  0  0  0  0  0
  -28.3947   -1.5977   -5.1691 C   0  0  0  0  0  0  0  0  0  0  0  0
  -29.4015   -1.8829   -4.2293 C   0  0  0  0  0  0  0  0  0  0  0  0
  -30.0942   -3.0884   -4.2165 C   0  0  0  0  0  0  0  0  0  0  0  0
  -30.9256   -3.3150   -3.1941 N   0  0  0  0  0  0  0  0  0  0  0  0
  -31.4896   -4.5265   -3.1352 C   0  0  0  0  0  0  0  0  0  0  0  0
  -31.2892   -5.5164   -4.0062 N   0  0  0  0  0  0  0  0  0  0  0  0
  -30.5227   -5.2345   -5.0736 C   0  0  0  0  0  0  0  0  0  0  0  0
  -29.8591   -4.0048   -5.2360 C   0  0  0  0  0  0  0  0  0  0  0  0
  -28.9943   -3.6487   -6.2922 C   0  0  0  0  0  0  0  0  0  0  0  0
  -28.2257   -2.4714   -6.2514 C   0  0  0  0  0  0  0  0  0  0  0  0
  -28.2973    0.7689   -5.0027 C   0  0  0  0  0  0  0  0  0  0  0  0
  -27.6008   -0.4896   -5.0163 O   0  0  0  0  0  0  0  0  0  0  0  0
  -27.3850   -2.4190   -7.3221 O   0  0  0  0  0  0  0  0  0  0  0  0
  -27.8570   -2.4276   -8.6544 C   0  0  0  0  0  0  0  0  0  0  0  0
 31 32  1  0  0  0
 32 21  1  0  0  0
 21 22  1  0  0  0
 21 30  2  0  0  0
 22 23  2  0  0  0
 23 24  1  0  0  0
 23 28  1  0  0  0
 24 25  2  0  0  0
 25 26  1  0  0  0
 26 27  2  0  0  0
 27 20  1  0  0  0
 27 28  1  0  0  0
 20  1  1  0  0  0
  1  2  1  0  0  0
  1 10  2  0  0  0
  2  3  2  0  0  0
  3  4  1  0  0  0
  4 11  1  0  0  0
  4  5  2  0  0  0
 11 12  1  0  0  0
 11 15  1  0  0  0
 12 13  2  0  0  0
 12 14  1  0  0  0
 14 17  1  0  0  0
 14 16  1  0  0  0
 17 18  1  0  0  0
 17 19  1  0  0  0
 18 19  1  0  0  0
  5  6  1  0  0  0
  5 10  1  0  0  0
  6  7  2  0  0  0
  7  8  1  0  0  0
  8  9  2  0  0  0
  9 10  1  0  0  0
 28 29  2  0  0  0
 29 30  1  0  0  0
 30 33  1  0  0  0
 33 34  1  0  0  0
M  END
> <minimizedAffinity>
-8.87088

$$$$
