CHEMBL4791531


 36 40  0  0  0  0  0  0  0  0999 V2000
  -28.5448   -3.0961   -8.0658 C   0  0  0  0  0  0  0  0  0  0  0  0
  -28.5590   -4.3352   -7.5655 N   0  0  0  0  0  0  0  0  0  0  0  0
  -28.6769   -4.4240   -6.2271 C   0  0  0  0  0  0  0  0  0  0  0  0
  -28.8064   -3.3183   -5.4096 C   0  0  0  0  0  0  0  0  0  0  0  0
  -28.7940   -2.0744   -6.0076 C   0  0  0  0  0  0  0  0  0  0  0  0
  -28.5898   -1.9715   -7.3351 N   0  0  0  0  0  0  0  0  0  0  0  0
  -27.1592   -2.1768  -11.2627 N   0  0  0  0  0  0  0  0  0  0  0  0
  -27.2638   -2.2099   -9.8675 C   0  0  0  0  0  0  0  0  0  0  0  0
  -26.4267   -1.7659   -9.0816 O   0  0  0  0  0  0  0  0  0  0  0  0
  -28.3915   -2.8907   -9.4490 N   0  0  0  0  0  0  0  0  0  0  0  0
  -27.9287   -2.5667  -11.7783 H   0  0  0  0  0  0  0  0  0  0  0  0
  -28.4789   -3.7759   -9.9194 H   0  0  0  0  0  0  0  0  0  0  0  0
  -27.3456   -1.9428  -14.2419 C   0  0  0  0  0  0  0  0  0  0  0  0
  -26.1386   -1.5460  -13.4292 C   0  0  0  0  0  0  0  0  0  0  0  0
  -25.0297   -1.0436  -14.1449 C   0  0  0  0  0  0  0  0  0  0  0  0
  -23.8653   -0.6529  -13.4872 C   0  0  0  0  0  0  0  0  0  0  0  0
  -22.5158   -0.0741  -14.3828 Cl  0  0  0  0  0  0  0  0  0  0  0  0
  -23.7966   -0.7312  -12.1089 C   0  0  0  0  0  0  0  0  0  0  0  0
  -24.8892   -1.2155  -11.3856 C   0  0  0  0  0  0  0  0  0  0  0  0
  -26.0703   -1.6475  -12.0194 C   0  0  0  0  0  0  0  0  0  0  0  0
  -28.9472   -0.9122   -5.2755 N   0  0  0  0  0  0  0  0  0  0  0  0
  -30.1318   -0.0599   -5.3499 C   0  0  0  0  0  0  0  0  0  0  0  0
  -29.5694    1.3579   -5.4056 C   0  0  0  0  0  0  0  0  0  0  0  0
  -28.2871    1.2607   -4.5989 C   0  0  0  0  0  0  0  0  0  0  0  0
  -27.7572   -0.1348   -4.9264 C   0  0  0  0  0  0  0  0  0  0  0  0
  -28.5370   -6.0376   -5.4556 S   0  0  0  0  0  0  0  0  0  0  0  0
  -29.9631   -6.9202   -5.9589 C   0  0  0  0  0  0  0  0  0  0  0  0
  -31.2393   -6.8050   -5.4588 C   0  0  0  0  0  0  0  0  0  0  0  0
  -32.0467   -7.6535   -6.1625 N   0  0  0  0  0  0  0  0  0  0  0  0
  -31.3205   -8.3397   -7.1068 C   0  0  0  0  0  0  0  0  0  0  0  0
  -31.7404   -9.2945   -8.0409 C   0  0  0  0  0  0  0  0  0  0  0  0
  -30.7788   -9.8373   -8.8960 C   0  0  0  0  0  0  0  0  0  0  0  0
  -29.4475   -9.4393   -8.8162 C   0  0  0  0  0  0  0  0  0  0  0  0
  -29.0425   -8.4791   -7.8772 C   0  0  0  0  0  0  0  0  0  0  0  0
  -29.9946   -7.9075   -6.9999 C   0  0  0  0  0  0  0  0  0  0  0  0
  -33.0437   -7.7566   -6.0183 H   0  0  0  0  0  0  0  0  0  0  0  0
 13 14  1  0  0  0
 14 15  1  0  0  0
 14 20  2  0  0  0
 15 16  2  0  0  0
 16 17  1  0  0  0
 16 18  1  0  0  0
 18 19  2  0  0  0
 19 20  1  0  0  0
 20  7  1  0  0  0
  7  8  1  0  0  0
  7 11  1  0  0  0
  8  9  2  0  0  0
  8 10  1  0  0  0
 10  1  1  0  0  0
 10 12  1  0  0  0
  1  2  1  0  0  0
  1  6  2  0  0  0
  2  3  2  0  0  0
  3 26  1  0  0  0
  3  4  1  0  0  0
 26 27  1  0  0  0
 27 28  2  0  0  0
 27 35  1  0  0  0
 28 29  1  0  0  0
 29 30  1  0  0  0
 29 36  1  0  0  0
 30 31  1  0  0  0
 30 35  2  0  0  0
 31 32  2  0  0  0
 32 33  1  0  0  0
 33 34  2  0  0  0
 34 35  1  0  0  0
  4  5  2  0  0  0
  5 21  1  0  0  0
  5  6  1  0  0  0
 21 22  1  0  0  0
 21 25  1  0  0  0
 22 23  1  0  0  0
 23 24  1  0  0  0
 24 25  1  0  0  0
M  END
> <minimizedAffinity>
-11.02535

$$$$
