CHEMBL3894732


 40 45  0  0  0  0  0  0  0  0999 V2000
  -29.9716   -6.8359   -3.9113 O   0  0  0  0  0  0  0  0  0  0  0  0
  -29.4047   -6.9803   -4.9941 C   0  0  0  0  0  0  0  0  0  0  0  0
  -29.2573   -5.8019   -5.9088 C   0  0  0  0  0  0  0  0  0  0  0  0
  -30.0631   -5.5558   -7.0356 C   0  0  0  0  0  0  0  0  0  0  0  0
  -29.8401   -4.4383   -7.8761 C   0  0  0  0  0  0  0  0  0  0  0  0
  -28.9343   -3.4526   -7.4385 C   0  0  0  0  0  0  0  0  0  0  0  0
  -28.3881   -2.1873   -7.8492 C   0  0  0  0  0  0  0  0  0  0  0  0
  -28.2990   -1.4420   -6.7286 N   0  0  0  0  0  0  0  0  0  0  0  0
  -27.9460   -2.3741   -5.8350 N   0  0  0  0  0  0  0  0  0  0  0  0
  -28.3549   -3.6292   -6.1876 C   0  0  0  0  0  0  0  0  0  0  0  0
  -28.3355   -4.8326   -5.4949 C   0  0  0  0  0  0  0  0  0  0  0  0
  -27.5448   -2.0756   -4.9518 H   0  0  0  0  0  0  0  0  0  0  0  0
  -27.3079   -1.9228   -8.7850 C   0  0  0  0  0  0  0  0  0  0  0  0
  -27.4283   -1.1286   -9.8677 C   0  0  0  0  0  0  0  0  0  0  0  0
  -26.8379   -1.4855  -11.1810 C   0  0  0  0  0  0  0  0  0  0  0  0
  -25.4816   -1.2723  -11.4137 C   0  0  0  0  0  0  0  0  0  0  0  0
  -24.9845   -1.3884  -12.7134 C   0  0  0  0  0  0  0  0  0  0  0  0
  -25.8507   -1.7021  -13.7522 C   0  0  0  0  0  0  0  0  0  0  0  0
  -27.1830   -1.9030  -13.4407 C   0  0  0  0  0  0  0  0  0  0  0  0
  -27.6891   -1.8065  -12.1875 N   0  0  0  0  0  0  0  0  0  0  0  0
  -28.9607   -8.3492   -5.3422 C   0  0  0  0  0  0  0  0  0  0  0  0
  -29.8325   -9.1538   -6.0787 C   0  0  0  0  0  0  0  0  0  0  0  0
  -29.4330  -10.4269   -6.4679 C   0  0  0  0  0  0  0  0  0  0  0  0
  -28.1502  -10.8808   -6.1526 C   0  0  0  0  0  0  0  0  0  0  0  0
  -27.2606  -10.0877   -5.4218 C   0  0  0  0  0  0  0  0  0  0  0  0
  -27.6997   -8.8433   -4.9714 C   0  0  0  0  0  0  0  0  0  0  0  0
  -25.9270  -10.4743   -5.1439 N   0  0  0  0  0  0  0  0  0  0  0  0
  -25.0034   -9.7859   -4.3653 C   0  0  0  0  0  0  0  0  0  0  0  0
  -25.1963   -8.7238   -3.7871 O   0  0  0  0  0  0  0  0  0  0  0  0
  -25.6638  -11.4104   -5.4280 H   0  0  0  0  0  0  0  0  0  0  0  0
  -23.7186  -10.4859   -4.1394 C   0  0  0  0  0  0  0  0  0  0  0  0
  -23.3913  -10.9681   -2.8585 C   0  0  0  0  0  0  0  0  0  0  0  0
  -22.2329  -11.7218   -2.6496 C   0  0  0  0  0  0  0  0  0  0  0  0
  -21.4268  -12.1100   -3.7234 C   0  0  0  0  0  0  0  0  0  0  0  0
  -21.7483  -11.5814   -4.9775 C   0  0  0  0  0  0  0  0  0  0  0  0
  -21.2174  -11.8099   -6.2250 N   0  0  0  0  0  0  0  0  0  0  0  0
  -21.4713  -10.7195   -7.0124 C   0  0  0  0  0  0  0  0  0  0  0  0
  -22.5799  -10.1088   -6.4720 C   0  0  0  0  0  0  0  0  0  0  0  0
  -22.7977  -10.6844   -5.1840 C   0  0  0  0  0  0  0  0  0  0  0  0
  -20.7025  -12.6353   -6.5025 H   0  0  0  0  0  0  0  0  0  0  0  0
  1  2  2  0  0  0
  2 21  1  0  0  0
  2  3  1  0  0  0
 21 22  1  0  0  0
 21 26  2  0  0  0
 22 23  2  0  0  0
 23 24  1  0  0  0
 24 25  2  0  0  0
 25 27  1  0  0  0
 25 26  1  0  0  0
 27 28  1  0  0  0
 27 30  1  0  0  0
 28 29  2  0  0  0
 28 31  1  0  0  0
 31 32  1  0  0  0
 31 39  2  0  0  0
 32 33  2  0  0  0
 33 34  1  0  0  0
 34 35  2  0  0  0
 35 36  1  0  0  0
 35 39  1  0  0  0
 36 37  1  0  0  0
 36 40  1  0  0  0
 37 38  2  0  0  0
 38 39  1  0  0  0
  3  4  1  0  0  0
  3 11  2  0  0  0
  4  5  2  0  0  0
  5  6  1  0  0  0
  6  7  1  0  0  0
  6 10  2  0  0  0
  7 13  1  0  0  0
  7  8  2  0  0  0
 13 14  2  0  0  0
 14 15  1  0  0  0
 15 16  1  0  0  0
 15 20  2  0  0  0
 16 17  2  0  0  0
 17 18  1  0  0  0
 18 19  2  0  0  0
 19 20  1  0  0  0
  8  9  1  0  0  0
  9 10  1  0  0  0
  9 12  1  0  0  0
 10 11  1  0  0  0
M  END
> <minimizedAffinity>
-10.72111

$$$$
