CHEMBL3891953


 30 33  0  0  0  0  0  0  0  0999 V2000
  -27.9229   -0.9857   -7.2142 C   0  0  0  0  0  0  0  0  0  0  0  0
  -28.6301    0.1516   -6.8209 C   0  0  0  0  0  0  0  0  0  0  0  0
  -29.2300    0.2220   -5.5629 C   0  0  0  0  0  0  0  0  0  0  0  0
  -29.1465   -0.8584   -4.6922 C   0  0  0  0  0  0  0  0  0  0  0  0
  -28.5515   -2.0491   -5.1169 C   0  0  0  0  0  0  0  0  0  0  0  0
  -27.9108   -2.1003   -6.3632 C   0  0  0  0  0  0  0  0  0  0  0  0
  -27.5081   -1.8845   -9.5169 C   0  0  0  0  0  0  0  0  0  0  0  0
  -28.4546   -2.6639   -9.5768 O   0  0  0  0  0  0  0  0  0  0  0  0
  -27.2163   -1.0669   -8.4322 N   0  0  0  0  0  0  0  0  0  0  0  0
  -26.4651   -0.4043   -8.5880 H   0  0  0  0  0  0  0  0  0  0  0  0
  -28.0852   -1.9444  -12.7145 C   0  0  0  0  0  0  0  0  0  0  0  0
  -26.7963   -1.7392  -12.0045 C   0  0  0  0  0  0  0  0  0  0  0  0
  -25.5197   -1.5288  -12.5965 C   0  0  0  0  0  0  0  0  0  0  0  0
  -24.6285   -1.3788  -11.5638 C   0  0  0  0  0  0  0  0  0  0  0  0
  -25.2612   -1.4807  -10.3682 O   0  0  0  0  0  0  0  0  0  0  0  0
  -26.5878   -1.7124  -10.6305 C   0  0  0  0  0  0  0  0  0  0  0  0
  -28.5019   -3.1955   -4.3516 O   0  0  0  0  0  0  0  0  0  0  0  0
  -29.5994   -4.0337   -4.3038 C   0  0  0  0  0  0  0  0  0  0  0  0
  -30.6847   -3.8428   -3.4438 C   0  0  0  0  0  0  0  0  0  0  0  0
  -31.7106   -4.7675   -3.4369 C   0  0  0  0  0  0  0  0  0  0  0  0
  -31.7953   -5.8328   -4.2500 N   0  0  0  0  0  0  0  0  0  0  0  0
  -30.7896   -5.9692   -5.1525 C   0  0  0  0  0  0  0  0  0  0  0  0
  -30.7236   -6.9899   -6.1414 C   0  0  0  0  0  0  0  0  0  0  0  0
  -29.6069   -6.8928   -6.9463 C   0  0  0  0  0  0  0  0  0  0  0  0
  -28.6210   -5.5760   -6.4715 S   0  0  0  0  0  0  0  0  0  0  0  0
  -29.6948   -5.1062   -5.2100 C   0  0  0  0  0  0  0  0  0  0  0  0
  -29.2687   -7.7646   -8.0578 C   0  0  0  0  0  0  0  0  0  0  0  0
  -29.9383   -8.7137   -8.4363 O   0  0  0  0  0  0  0  0  0  0  0  0
  -28.1028   -7.4262   -8.6705 O   0  0  0  0  0  0  0  0  0  0  0  0
  -27.6859   -6.6469   -8.2559 H   0  0  0  0  0  0  0  0  0  0  0  0
 11 12  1  0  0  0
 12 13  1  0  0  0
 12 16  2  0  0  0
 13 14  2  0  0  0
 14 15  1  0  0  0
 15 16  1  0  0  0
 16  7  1  0  0  0
  7  8  2  0  0  0
  7  9  1  0  0  0
  9  1  1  0  0  0
  9 10  1  0  0  0
  1  2  1  0  0  0
  1  6  2  0  0  0
  2  3  2  0  0  0
  3  4  1  0  0  0
  4  5  2  0  0  0
  5 17  1  0  0  0
  5  6  1  0  0  0
 17 18  1  0  0  0
 18 19  1  0  0  0
 18 26  2  0  0  0
 19 20  2  0  0  0
 20 21  1  0  0  0
 21 22  2  0  0  0
 22 23  1  0  0  0
 22 26  1  0  0  0
 23 24  2  0  0  0
 24 27  1  0  0  0
 24 25  1  0  0  0
 27 28  2  0  0  0
 27 29  1  0  0  0
 29 30  1  0  0  0
 25 26  1  0  0  0
M  END
> <minimizedAffinity>
-9.41160

$$$$
