CHEMBL3910064


 36 40  0  0  0  0  0  0  0  0999 V2000
  -29.5164   -8.5842   -6.5430 C   0  0  0  0  0  0  0  0  0  0  0  0
  -29.1335   -8.4809   -7.9016 C   0  0  0  0  0  0  0  0  0  0  0  0
  -28.1590   -9.2664   -8.4863 C   0  0  0  0  0  0  0  0  0  0  0  0
  -27.8404   -9.0557   -9.7668 N   0  0  0  0  0  0  0  0  0  0  0  0
  -26.8911   -9.8487  -10.2781 C   0  0  0  0  0  0  0  0  0  0  0  0
  -26.2617  -10.8295   -9.6352 N   0  0  0  0  0  0  0  0  0  0  0  0
  -26.5946  -11.0285   -8.3458 C   0  0  0  0  0  0  0  0  0  0  0  0
  -27.5475  -10.2351   -7.6973 C   0  0  0  0  0  0  0  0  0  0  0  0
  -27.9192  -10.3586   -6.3450 C   0  0  0  0  0  0  0  0  0  0  0  0
  -28.9156   -9.5750   -5.7629 C   0  0  0  0  0  0  0  0  0  0  0  0
  -25.9749  -12.0690   -7.6055 N   0  0  0  0  0  0  0  0  0  0  0  0
  -25.8480  -12.8755   -8.2037 H   0  0  0  0  0  0  0  0  0  0  0  0
  -24.9133  -11.9464   -6.6778 C   0  0  0  0  0  0  0  0  0  0  0  0
  -25.0261  -12.3839   -5.3524 C   0  0  0  0  0  0  0  0  0  0  0  0
  -23.9812  -12.2172   -4.4484 C   0  0  0  0  0  0  0  0  0  0  0  0
  -22.7736  -11.6604   -4.8682 C   0  0  0  0  0  0  0  0  0  0  0  0
  -21.5361  -11.4444   -3.6892 Cl  0  0  0  0  0  0  0  0  0  0  0  0
  -22.6118  -11.3025   -6.2125 C   0  0  0  0  0  0  0  0  0  0  0  0
  -21.1284  -10.6553   -6.8202 Cl  0  0  0  0  0  0  0  0  0  0  0  0
  -23.6724  -11.4620   -7.1125 C   0  0  0  0  0  0  0  0  0  0  0  0
  -29.0776   -9.9290   -4.4587 O   0  0  0  0  0  0  0  0  0  0  0  0
  -28.0387   -9.8612   -3.5042 C   0  0  0  0  0  0  0  0  0  0  0  0
  -30.4204   -7.7057   -5.9862 O   0  0  0  0  0  0  0  0  0  0  0  0
  -30.3016   -6.3621   -6.5005 C   0  0  0  0  0  0  0  0  0  0  0  0
  -28.3448   -3.5454   -5.4403 C   0  0  0  0  0  0  0  0  0  0  0  0
  -29.1225   -4.2293   -6.2530 N   0  0  0  0  0  0  0  0  0  0  0  0
  -29.4578   -5.4540   -5.6811 C   0  0  0  0  0  0  0  0  0  0  0  0
  -28.9511   -5.6602   -4.4178 C   0  0  0  0  0  0  0  0  0  0  0  0
  -28.0159   -4.3110   -3.9306 S   0  0  0  0  0  0  0  0  0  0  0  0
  -28.6075   -1.4328   -6.6809 N   0  0  0  0  0  0  0  0  0  0  0  0
  -29.2522   -0.4224   -5.8345 C   0  0  0  0  0  0  0  0  0  0  0  0
  -28.1911   -0.0145   -4.8355 C   0  0  0  0  0  0  0  0  0  0  0  0
  -27.5082   -1.3317   -4.5154 C   0  0  0  0  0  0  0  0  0  0  0  0
  -27.7179   -2.2056   -5.7663 C   0  0  0  0  0  0  0  0  0  0  0  0
  -27.5591   -1.9207   -8.9059 C   0  0  0  0  0  0  0  0  0  0  0  0
  -27.8400   -0.8974   -7.8115 C   0  0  0  0  0  0  0  0  0  0  0  0
 35 36  1  0  0  0
 36 30  1  0  0  0
 30 31  1  0  0  0
 30 34  1  0  0  0
 31 32  1  0  0  0
 32 33  1  0  0  0
 33 34  1  0  0  0
 34 25  1  0  0  0
 25 26  2  0  0  0
 25 29  1  0  0  0
 26 27  1  0  0  0
 27 24  1  0  0  0
 27 28  2  0  0  0
 24 23  1  0  0  0
 23  1  1  0  0  0
  1  2  1  0  0  0
  1 10  2  0  0  0
  2  3  2  0  0  0
  3  4  1  0  0  0
  3  8  1  0  0  0
  4  5  2  0  0  0
  5  6  1  0  0  0
  6  7  2  0  0  0
  7 11  1  0  0  0
  7  8  1  0  0  0
 11 13  1  0  0  0
 11 12  1  0  0  0
 13 14  1  0  0  0
 13 20  2  0  0  0
 14 15  2  0  0  0
 15 16  1  0  0  0
 16 17  1  0  0  0
 16 18  2  0  0  0
 18 19  1  0  0  0
 18 20  1  0  0  0
  8  9  2  0  0  0
  9 10  1  0  0  0
 10 21  1  0  0  0
 21 22  1  0  0  0
 28 29  1  0  0  0
M  END
> <minimizedAffinity>
-8.10902

$$$$
