CHEMBL1971029


 40 43  0  0  0  0  0  0  0  0999 V2000
  -13.9006    1.2962  -17.2533 C   0  0  0  0  0  0  0  0  0  0  0  0
  -13.7876   -0.0570  -17.2715 N   0  0  0  0  0  0  0  0  0  0  0  0
  -13.6116   -0.6841  -18.4428 C   0  0  0  0  0  0  0  0  0  0  0  0
  -13.4630   -0.0333  -19.6029 N   0  0  0  0  0  0  0  0  0  0  0  0
  -13.4807    1.3119  -19.5578 C   0  0  0  0  0  0  0  0  0  0  0  0
  -13.6826    2.0368  -18.4038 C   0  0  0  0  0  0  0  0  0  0  0  0
  -13.7401    3.9184  -18.4706 Br  0  0  0  0  0  0  0  0  0  0  0  0
  -14.2547    1.9261  -16.0138 N   0  0  0  0  0  0  0  0  0  0  0  0
  -13.9319    2.8994  -16.0266 H   0  0  0  0  0  0  0  0  0  0  0  0
  -16.0010    1.1974  -14.3670 C   0  0  0  0  0  0  0  0  0  0  0  0
  -17.3541    1.1710  -13.9811 C   0  0  0  0  0  0  0  0  0  0  0  0
  -18.3050    1.9120  -14.6781 C   0  0  0  0  0  0  0  0  0  0  0  0
  -17.9059    2.7144  -15.7358 C   0  0  0  0  0  0  0  0  0  0  0  0
  -16.5706    2.7200  -16.1328 C   0  0  0  0  0  0  0  0  0  0  0  0
  -15.5953    1.9081  -15.5109 C   0  0  0  0  0  0  0  0  0  0  0  0
  -14.8377    0.4205  -13.2667 S   0  0  0  0  0  0  0  0  0  0  0  0
  -15.5668   -0.2531  -12.2114 O   0  0  0  0  0  0  0  0  0  0  0  0
  -13.8316    1.4201  -12.9575 O   0  0  0  0  0  0  0  0  0  0  0  0
  -12.6509   -0.9101  -14.1017 C   0  0  0  0  0  0  0  0  0  0  0  0
  -14.0974   -0.7543  -14.2152 N   0  0  0  0  0  0  0  0  0  0  0  0
  -14.6434   -1.6154  -14.2254 H   0  0  0  0  0  0  0  0  0  0  0  0
  -13.6200   -2.0823  -18.4063 N   0  0  0  0  0  0  0  0  0  0  0  0
  -13.7887   -2.4047  -19.3493 H   0  0  0  0  0  0  0  0  0  0  0  0
  -12.7764   -2.9370  -17.6599 C   0  0  0  0  0  0  0  0  0  0  0  0
  -13.2598   -3.5638  -16.4859 C   0  0  0  0  0  0  0  0  0  0  0  0
  -12.5149   -4.4792  -15.7183 C   0  0  0  0  0  0  0  0  0  0  0  0
  -11.2172   -4.7432  -16.1475 C   0  0  0  0  0  0  0  0  0  0  0  0
  -10.6973   -4.1254  -17.2887 C   0  0  0  0  0  0  0  0  0  0  0  0
  -11.4506   -3.2110  -18.0373 C   0  0  0  0  0  0  0  0  0  0  0  0
  -13.0712   -5.0594  -14.5881 N   0  0  0  0  0  0  0  0  0  0  0  0
  -14.5322   -5.1609  -14.4068 C   0  0  0  0  0  0  0  0  0  0  0  0
  -15.0473   -4.1759  -13.3444 C   0  0  0  0  0  0  0  0  0  0  0  0
  -14.2887   -4.2982  -12.0921 N   0  0  0  0  0  0  0  0  0  0  0  0
  -14.9615   -4.6212  -10.9328 C   0  0  0  0  0  0  0  0  0  0  0  0
  -14.2178   -4.7592   -9.6291 C   0  0  0  0  0  0  0  0  0  0  0  0
  -16.1842   -4.8097  -10.9251 O   0  0  0  0  0  0  0  0  0  0  0  0
  -12.8415   -4.1175  -12.2798 C   0  0  0  0  0  0  0  0  0  0  0  0
  -12.2745   -5.0894  -13.3427 C   0  0  0  0  0  0  0  0  0  0  0  0
  -10.7699   -2.7674  -19.1406 O   0  0  0  0  0  0  0  0  0  0  0  0
  -10.9075   -3.4850  -20.3541 C   0  0  0  0  0  0  0  0  0  0  0  0
 19 20  1  0  0  0
 20 16  1  0  0  0
 20 21  1  0  0  0
 16 17  2  0  0  0
 16 18  2  0  0  0
 16 10  1  0  0  0
 10 11  1  0  0  0
 10 15  2  0  0  0
 11 12  2  0  0  0
 12 13  1  0  0  0
 13 14  2  0  0  0
 14 15  1  0  0  0
 15  8  1  0  0  0
  8  1  1  0  0  0
  8  9  1  0  0  0
  1  2  1  0  0  0
  1  6  2  0  0  0
  2  3  2  0  0  0
  3 22  1  0  0  0
  3  4  1  0  0  0
 22 24  1  0  0  0
 22 23  1  0  0  0
 24 25  1  0  0  0
 24 29  2  0  0  0
 25 26  2  0  0  0
 26 30  1  0  0  0
 26 27  1  0  0  0
 30 31  1  0  0  0
 30 38  1  0  0  0
 31 32  1  0  0  0
 32 33  1  0  0  0
 33 34  1  0  0  0
 33 37  1  0  0  0
 34 35  1  0  0  0
 34 36  2  0  0  0
 37 38  1  0  0  0
 27 28  2  0  0  0
 28 29  1  0  0  0
 29 39  1  0  0  0
 39 40  1  0  0  0
  4  5  2  0  0  0
  5  6  1  0  0  0
  6  7  1  0  0  0
M  END
> <minimizedAffinity>
-6.95202

$$$$
