CHEMBL3890328


 36 39  0  0  0  0  0  0  0  0999 V2000
  -27.7421   -1.5431   -8.3193 C   0  0  0  0  0  0  0  0  0  0  0  0
  -28.0767   -0.2503   -8.4167 N   0  0  0  0  0  0  0  0  0  0  0  0
  -28.2874    0.4086   -7.2474 C   0  0  0  0  0  0  0  0  0  0  0  0
  -28.1758   -0.1597   -5.9929 C   0  0  0  0  0  0  0  0  0  0  0  0
  -28.4759    0.7726   -4.5861 Cl  0  0  0  0  0  0  0  0  0  0  0  0
  -27.8030   -1.4880   -5.9691 C   0  0  0  0  0  0  0  0  0  0  0  0
  -27.5917   -2.1561   -7.1281 N   0  0  0  0  0  0  0  0  0  0  0  0
  -27.5955   -2.2622   -9.5119 N   0  0  0  0  0  0  0  0  0  0  0  0
  -27.6209   -3.2505   -9.3049 H   0  0  0  0  0  0  0  0  0  0  0  0
  -25.3736   -1.3673  -13.0299 C   0  0  0  0  0  0  0  0  0  0  0  0
  -26.7396   -1.6554  -13.0988 C   0  0  0  0  0  0  0  0  0  0  0  0
  -27.4822   -1.9006  -11.9260 C   0  0  0  0  0  0  0  0  0  0  0  0
  -26.8706   -1.8982  -10.6634 C   0  0  0  0  0  0  0  0  0  0  0  0
  -25.5387   -1.4923  -10.6111 C   0  0  0  0  0  0  0  0  0  0  0  0
  -24.8091   -1.2458  -11.7659 C   0  0  0  0  0  0  0  0  0  0  0  0
  -25.3183   -0.9977  -15.5248 C   0  0  0  0  0  0  0  0  0  0  0  0
  -24.4914   -1.2120  -14.2517 C   0  0  0  0  0  0  0  0  0  0  0  0
  -23.5574   -0.0935  -14.0687 N   0  0  0  0  0  0  0  0  0  0  0  0
  -24.0778    0.7785  -13.9547 H   0  0  0  0  0  0  0  0  0  0  0  0
  -23.0010    0.0323  -14.9112 H   0  0  0  0  0  0  0  0  0  0  0  0
  -27.5779   -2.3064   -4.7177 C   0  0  0  0  0  0  0  0  0  0  0  0
  -27.8329   -3.8128   -4.9041 C   0  0  0  0  0  0  0  0  0  0  0  0
  -29.2138   -4.2594   -4.4302 C   0  0  0  0  0  0  0  0  0  0  0  0
  -29.9257   -3.3668   -3.5995 C   0  0  0  0  0  0  0  0  0  0  0  0
  -31.2249   -3.6448   -3.1682 C   0  0  0  0  0  0  0  0  0  0  0  0
  -31.8241   -4.8475   -3.5049 C   0  0  0  0  0  0  0  0  0  0  0  0
  -31.1391   -5.7402   -4.3174 C   0  0  0  0  0  0  0  0  0  0  0  0
  -29.8510   -5.4623   -4.8387 C   0  0  0  0  0  0  0  0  0  0  0  0
  -29.3755   -6.3940   -5.9606 C   0  0  0  0  0  0  0  0  0  0  0  0
  -28.9806   -5.6778   -7.2725 C   0  0  0  0  0  0  0  0  0  0  0  0
  -30.1622   -6.5817   -7.2386 C   0  0  0  0  0  0  0  0  0  0  0  0
  -28.5021   -7.5715   -5.5416 C   0  0  0  0  0  0  0  0  0  0  0  0
  -27.4928   -7.3099   -4.6579 N   0  0  0  0  0  0  0  0  0  0  0  0
  -28.6968   -8.7027   -5.9577 O   0  0  0  0  0  0  0  0  0  0  0  0
  -27.2531   -6.3716   -4.3665 H   0  0  0  0  0  0  0  0  0  0  0  0
  -26.8725   -8.0667   -4.4135 H   0  0  0  0  0  0  0  0  0  0  0  0
 16 17  1  0  0  0
 17 18  1  0  0  0
 17 10  1  0  0  0
 18 19  1  0  0  0
 18 20  1  0  0  0
 10 11  1  0  0  0
 10 15  2  0  0  0
 11 12  2  0  0  0
 12 13  1  0  0  0
 13  8  1  0  0  0
 13 14  2  0  0  0
  8  1  1  0  0  0
  8  9  1  0  0  0
  1  2  1  0  0  0
  1  7  2  0  0  0
  2  3  2  0  0  0
  3  4  1  0  0  0
  4  5  1  0  0  0
  4  6  2  0  0  0
  6 21  1  0  0  0
  6  7  1  0  0  0
 21 22  1  0  0  0
 22 23  1  0  0  0
 23 24  1  0  0  0
 23 28  2  0  0  0
 24 25  2  0  0  0
 25 26  1  0  0  0
 26 27  2  0  0  0
 27 28  1  0  0  0
 28 29  1  0  0  0
 29 32  1  0  0  0
 29 30  1  0  0  0
 29 31  1  0  0  0
 32 33  1  0  0  0
 32 34  2  0  0  0
 33 35  1  0  0  0
 33 36  1  0  0  0
 30 31  1  0  0  0
 14 15  1  0  0  0
M  END
> <minimizedAffinity>
-9.53148

$$$$
