CHEMBL462381


 34 38  0  0  0  0  0  0  0  0999 V2000
  -29.6764   -7.1391   -6.6899 C   0  0  0  0  0  0  0  0  0  0  0  0
  -30.2563   -8.1137   -7.5053 C   0  0  0  0  0  0  0  0  0  0  0  0
  -29.7978   -9.4414   -7.4846 C   0  0  0  0  0  0  0  0  0  0  0  0
  -28.7199   -9.7818   -6.6408 C   0  0  0  0  0  0  0  0  0  0  0  0
  -27.9199  -10.9423   -6.4195 C   0  0  0  0  0  0  0  0  0  0  0  0
  -26.9471  -10.7098   -5.5405 N   0  0  0  0  0  0  0  0  0  0  0  0
  -27.1186   -9.4214   -5.1926 N   0  0  0  0  0  0  0  0  0  0  0  0
  -26.1873   -8.8057   -4.2772 C   0  0  0  0  0  0  0  0  0  0  0  0
  -28.1489   -8.7927   -5.8464 C   0  0  0  0  0  0  0  0  0  0  0  0
  -28.5999   -7.4604   -5.8476 C   0  0  0  0  0  0  0  0  0  0  0  0
  -28.1034  -12.0916   -7.1033 N   0  0  0  0  0  0  0  0  0  0  0  0
  -28.5417  -12.8759   -6.6329 H   0  0  0  0  0  0  0  0  0  0  0  0
  -27.2063  -12.4618   -8.1795 C   0  0  0  0  0  0  0  0  0  0  0  0
  -27.4724  -11.5780   -9.3833 C   0  0  0  0  0  0  0  0  0  0  0  0
  -28.6606  -11.7228  -10.1200 C   0  0  0  0  0  0  0  0  0  0  0  0
  -28.9377  -10.8850  -11.2047 C   0  0  0  0  0  0  0  0  0  0  0  0
  -28.0357   -9.8875  -11.5579 C   0  0  0  0  0  0  0  0  0  0  0  0
  -26.8551   -9.7269  -10.8323 C   0  0  0  0  0  0  0  0  0  0  0  0
  -26.5739  -10.5649   -9.7438 C   0  0  0  0  0  0  0  0  0  0  0  0
  -30.1744   -5.8544   -6.8341 O   0  0  0  0  0  0  0  0  0  0  0  0
  -28.2038   -1.4334   -5.2686 C   0  0  0  0  0  0  0  0  0  0  0  0
  -29.0862   -1.9190   -4.2914 C   0  0  0  0  0  0  0  0  0  0  0  0
  -29.7914   -3.1027   -4.4431 C   0  0  0  0  0  0  0  0  0  0  0  0
  -30.5363   -3.5216   -3.4082 N   0  0  0  0  0  0  0  0  0  0  0  0
  -31.1962   -4.6904   -3.5289 C   0  0  0  0  0  0  0  0  0  0  0  0
  -31.1359   -5.4879   -4.6482 C   0  0  0  0  0  0  0  0  0  0  0  0
  -30.3273   -5.0707   -5.7037 C   0  0  0  0  0  0  0  0  0  0  0  0
  -29.6658   -3.8198   -5.6426 C   0  0  0  0  0  0  0  0  0  0  0  0
  -28.8861   -3.2631   -6.6829 C   0  0  0  0  0  0  0  0  0  0  0  0
  -28.1450   -2.0804   -6.5058 C   0  0  0  0  0  0  0  0  0  0  0  0
  -28.1344    0.9072   -4.9141 C   0  0  0  0  0  0  0  0  0  0  0  0
  -27.4242   -0.3324   -5.0211 O   0  0  0  0  0  0  0  0  0  0  0  0
  -27.4318   -1.7447   -7.6246 O   0  0  0  0  0  0  0  0  0  0  0  0
  -27.7167   -2.3858   -8.8585 C   0  0  0  0  0  0  0  0  0  0  0  0
 31 32  1  0  0  0
 32 21  1  0  0  0
 21 22  1  0  0  0
 21 30  2  0  0  0
 22 23  2  0  0  0
 23 24  1  0  0  0
 23 28  1  0  0  0
 24 25  2  0  0  0
 25 26  1  0  0  0
 26 27  2  0  0  0
 27 20  1  0  0  0
 27 28  1  0  0  0
 20  1  1  0  0  0
  1  2  1  0  0  0
  1 10  2  0  0  0
  2  3  2  0  0  0
  3  4  1  0  0  0
  4  5  1  0  0  0
  4  9  2  0  0  0
  5 11  1  0  0  0
  5  6  2  0  0  0
 11 13  1  0  0  0
 11 12  1  0  0  0
 13 14  1  0  0  0
 14 15  1  0  0  0
 14 19  2  0  0  0
 15 16  2  0  0  0
 16 17  1  0  0  0
 17 18  2  0  0  0
 18 19  1  0  0  0
  6  7  1  0  0  0
  7  8  1  0  0  0
  7  9  1  0  0  0
  9 10  1  0  0  0
 28 29  2  0  0  0
 29 30  1  0  0  0
 30 33  1  0  0  0
 33 34  1  0  0  0
M  END
> <minimizedAffinity>
-8.78506

$$$$
