CHEMBL3922630


 40 44  0  0  0  0  0  0  0  0999 V2000
  -17.3659    2.6374  -15.2268 C   0  0  0  0  0  0  0  0  0  0  0  0
  -18.5208    3.3999  -15.0740 C   0  0  0  0  0  0  0  0  0  0  0  0
  -19.7524    2.8561  -14.8352 C   0  0  0  0  0  0  0  0  0  0  0  0
  -20.7059    3.7661  -14.6693 N   0  0  0  0  0  0  0  0  0  0  0  0
  -21.9095    3.3082  -14.3922 C   0  0  0  0  0  0  0  0  0  0  0  0
  -22.2261    2.0276  -14.2667 N   0  0  0  0  0  0  0  0  0  0  0  0
  -21.2376    1.1117  -14.4228 C   0  0  0  0  0  0  0  0  0  0  0  0
  -19.9118    1.4665  -14.7466 C   0  0  0  0  0  0  0  0  0  0  0  0
  -18.7361    0.6645  -14.9514 C   0  0  0  0  0  0  0  0  0  0  0  0
  -17.4675    1.2430  -15.2032 C   0  0  0  0  0  0  0  0  0  0  0  0
  -21.7470   -0.1112  -14.0345 N   0  0  0  0  0  0  0  0  0  0  0  0
  -20.9152   -0.5800  -13.6671 H   0  0  0  0  0  0  0  0  0  0  0  0
  -22.8758   -0.7334  -13.5090 C   0  0  0  0  0  0  0  0  0  0  0  0
  -22.8188   -1.0019  -12.1272 C   0  0  0  0  0  0  0  0  0  0  0  0
  -23.9348   -1.4329  -11.4175 C   0  0  0  0  0  0  0  0  0  0  0  0
  -25.1396   -1.6091  -12.0884 C   0  0  0  0  0  0  0  0  0  0  0  0
  -26.5130   -2.0631  -11.1434 Cl  0  0  0  0  0  0  0  0  0  0  0  0
  -25.2062   -1.3790  -13.4718 C   0  0  0  0  0  0  0  0  0  0  0  0
  -26.6868   -1.5498  -14.3495 Cl  0  0  0  0  0  0  0  0  0  0  0  0
  -24.0711   -0.9494  -14.1836 C   0  0  0  0  0  0  0  0  0  0  0  0
  -16.4542    0.3354  -15.3898 O   0  0  0  0  0  0  0  0  0  0  0  0
  -15.7097   -0.1039  -14.2517 C   0  0  0  0  0  0  0  0  0  0  0  0
  -16.1660    3.2532  -15.4398 O   0  0  0  0  0  0  0  0  0  0  0  0
  -15.5022    2.9088  -16.6620 C   0  0  0  0  0  0  0  0  0  0  0  0
  -14.6040    6.0014  -18.3475 C   0  0  0  0  0  0  0  0  0  0  0  0
  -13.3278    5.8779  -17.8262 C   0  0  0  0  0  0  0  0  0  0  0  0
  -13.2113    4.4632  -16.8780 S   0  0  0  0  0  0  0  0  0  0  0  0
  -14.8734    4.1479  -17.1874 C   0  0  0  0  0  0  0  0  0  0  0  0
  -15.4931    5.0179  -17.9532 N   0  0  0  0  0  0  0  0  0  0  0  0
  -15.9480    9.1394  -20.9263 C   0  0  0  0  0  0  0  0  0  0  0  0
  -15.3546    9.4216  -19.6893 C   0  0  0  0  0  0  0  0  0  0  0  0
  -14.9027    8.4062  -18.8437 C   0  0  0  0  0  0  0  0  0  0  0  0
  -15.0283    7.0666  -19.2233 C   0  0  0  0  0  0  0  0  0  0  0  0
  -15.5626    6.7672  -20.4740 C   0  0  0  0  0  0  0  0  0  0  0  0
  -16.0193    7.7863  -21.3090 C   0  0  0  0  0  0  0  0  0  0  0  0
  -16.4856   10.1710  -21.7044 N   0  0  0  0  0  0  0  0  0  0  0  0
  -18.8711   10.2790  -21.0912 C   0  0  0  0  0  0  0  0  0  0  0  0
  -17.8577   10.0075  -22.1958 C   0  0  0  0  0  0  0  0  0  0  0  0
  -15.8307   11.4806  -21.6132 C   0  0  0  0  0  0  0  0  0  0  0  0
  -14.5940   11.6565  -22.4726 C   0  0  0  0  0  0  0  0  0  0  0  0
 37 38  1  0  0  0
 38 36  1  0  0  0
 36 39  1  0  0  0
 36 30  1  0  0  0
 39 40  1  0  0  0
 30 31  1  0  0  0
 30 35  2  0  0  0
 31 32  2  0  0  0
 32 33  1  0  0  0
 33 25  1  0  0  0
 33 34  2  0  0  0
 25 26  2  0  0  0
 25 29  1  0  0  0
 26 27  1  0  0  0
 27 28  1  0  0  0
 28 24  1  0  0  0
 28 29  2  0  0  0
 24 23  1  0  0  0
 23  1  1  0  0  0
  1  2  1  0  0  0
  1 10  2  0  0  0
  2  3  2  0  0  0
  3  4  1  0  0  0
  3  8  1  0  0  0
  4  5  2  0  0  0
  5  6  1  0  0  0
  6  7  2  0  0  0
  7 11  1  0  0  0
  7  8  1  0  0  0
 11 13  1  0  0  0
 11 12  1  0  0  0
 13 14  1  0  0  0
 13 20  2  0  0  0
 14 15  2  0  0  0
 15 16  1  0  0  0
 16 17  1  0  0  0
 16 18  2  0  0  0
 18 19  1  0  0  0
 18 20  1  0  0  0
  8  9  2  0  0  0
  9 10  1  0  0  0
 10 21  1  0  0  0
 21 22  1  0  0  0
 34 35  1  0  0  0
M  END
> <minimizedAffinity>
-8.95452

$$$$
