CHEMBL4442932


 34 37  0  0  0  0  0  0  0  0999 V2000
  -25.7208   -1.3577  -10.4131 N   0  0  0  0  0  0  0  0  0  0  0  0
  -27.0878   -1.5668  -10.4311 C   0  0  0  0  0  0  0  0  0  0  0  0
  -27.8107   -1.5351  -11.4248 O   0  0  0  0  0  0  0  0  0  0  0  0
  -25.2012   -1.4731   -9.5521 H   0  0  0  0  0  0  0  0  0  0  0  0
  -27.7336   -1.8928   -9.1303 C   0  0  0  0  0  0  0  0  0  0  0  0
  -28.3500   -3.1219   -8.8589 C   0  0  0  0  0  0  0  0  0  0  0  0
  -28.8852   -3.3682   -7.5859 C   0  0  0  0  0  0  0  0  0  0  0  0
  -28.8070   -2.3877   -6.5968 C   0  0  0  0  0  0  0  0  0  0  0  0
  -28.1971   -1.1662   -6.8674 C   0  0  0  0  0  0  0  0  0  0  0  0
  -27.6561   -0.9218   -8.1250 C   0  0  0  0  0  0  0  0  0  0  0  0
  -29.2958   -2.6192   -5.2872 N   0  0  0  0  0  0  0  0  0  0  0  0
  -30.2995   -2.6879   -5.1322 H   0  0  0  0  0  0  0  0  0  0  0  0
  -28.4022   -3.6059   -4.2465 S   0  0  0  0  0  0  0  0  0  0  0  0
  -27.0212   -3.4870   -4.6633 O   0  0  0  0  0  0  0  0  0  0  0  0
  -28.7998   -3.3151   -2.8853 O   0  0  0  0  0  0  0  0  0  0  0  0
  -28.9482   -5.2389   -4.6767 C   0  0  0  0  0  0  0  0  0  0  0  0
  -28.0069   -6.2671   -4.7987 C   0  0  0  0  0  0  0  0  0  0  0  0
  -28.4201   -7.5246   -5.2388 C   0  0  0  0  0  0  0  0  0  0  0  0
  -29.7660   -7.7542   -5.5330 C   0  0  0  0  0  0  0  0  0  0  0  0
  -30.7049   -6.7320   -5.3831 C   0  0  0  0  0  0  0  0  0  0  0  0
  -30.2992   -5.4684   -4.9545 C   0  0  0  0  0  0  0  0  0  0  0  0
  -23.6187   -0.1083  -13.0161 N   0  0  0  0  0  0  0  0  0  0  0  0
  -24.1492    0.0009  -11.7536 C   0  0  0  0  0  0  0  0  0  0  0  0
  -24.9755   -1.0720  -11.5466 C   0  0  0  0  0  0  0  0  0  0  0  0
  -24.8871   -1.7996  -12.7488 C   0  0  0  0  0  0  0  0  0  0  0  0
  -24.0937   -1.2157  -13.6517 N   0  0  0  0  0  0  0  0  0  0  0  0
  -20.6037    1.0689  -14.8742 C   0  0  0  0  0  0  0  0  0  0  0  0
  -20.8627    2.4363  -14.9471 C   0  0  0  0  0  0  0  0  0  0  0  0
  -22.0102    2.9656  -14.3489 C   0  0  0  0  0  0  0  0  0  0  0  0
  -22.9160    2.1294  -13.6943 C   0  0  0  0  0  0  0  0  0  0  0  0
  -22.6669    0.7545  -13.6235 C   0  0  0  0  0  0  0  0  0  0  0  0
  -21.4937    0.2361  -14.1924 C   0  0  0  0  0  0  0  0  0  0  0  0
  -18.2441    0.8736  -15.0415 C   0  0  0  0  0  0  0  0  0  0  0  0
  -19.5344    0.4207  -15.4291 O   0  0  0  0  0  0  0  0  0  0  0  0
 33 34  1  0  0  0
 34 27  1  0  0  0
 27 28  1  0  0  0
 27 32  2  0  0  0
 28 29  2  0  0  0
 29 30  1  0  0  0
 30 31  2  0  0  0
 31 22  1  0  0  0
 31 32  1  0  0  0
 22 23  1  0  0  0
 22 26  1  0  0  0
 23 24  2  0  0  0
 24  1  1  0  0  0
 24 25  1  0  0  0
  1  2  1  0  0  0
  1  4  1  0  0  0
  2  3  2  0  0  0
  2  5  1  0  0  0
  5  6  1  0  0  0
  5 10  2  0  0  0
  6  7  2  0  0  0
  7  8  1  0  0  0
  8 11  1  0  0  0
  8  9  2  0  0  0
 11 13  1  0  0  0
 11 12  1  0  0  0
 13 14  2  0  0  0
 13 15  2  0  0  0
 13 16  1  0  0  0
 16 17  1  0  0  0
 16 21  2  0  0  0
 17 18  2  0  0  0
 18 19  1  0  0  0
 19 20  2  0  0  0
 20 21  1  0  0  0
  9 10  1  0  0  0
 25 26  2  0  0  0
M  END
> <minimizedAffinity>
-10.09235

$$$$
