CHEMBL565885


 37 41  0  0  0  0  0  0  0  0999 V2000
  -30.1569   -7.4313   -6.5804 C   0  0  0  0  0  0  0  0  0  0  0  0
  -29.5527   -6.9669   -7.7688 C   0  0  0  0  0  0  0  0  0  0  0  0
  -28.3461   -7.6653   -8.4029 C   0  0  0  0  0  0  0  0  0  0  0  0
  -29.4318   -5.5899   -7.8624 C   0  0  0  0  0  0  0  0  0  0  0  0
  -28.7021   -5.0971   -6.8037 C   0  0  0  0  0  0  0  0  0  0  0  0
  -29.1280   -5.4510   -5.5250 C   0  0  0  0  0  0  0  0  0  0  0  0
  -28.7156   -4.7230   -4.3889 C   0  0  0  0  0  0  0  0  0  0  0  0
  -29.2146   -4.9961   -3.1667 N   0  0  0  0  0  0  0  0  0  0  0  0
  -30.1086   -5.9985   -3.0620 C   0  0  0  0  0  0  0  0  0  0  0  0
  -30.4911   -6.8218   -4.1133 C   0  0  0  0  0  0  0  0  0  0  0  0
  -29.9768   -6.5870   -5.4047 C   0  0  0  0  0  0  0  0  0  0  0  0
  -30.8671   -8.6630   -6.4738 N   0  0  0  0  0  0  0  0  0  0  0  0
  -31.8656   -8.5072   -6.3841 H   0  0  0  0  0  0  0  0  0  0  0  0
  -29.5323  -10.7447   -6.6529 C   0  0  0  0  0  0  0  0  0  0  0  0
  -29.3058  -11.9984   -7.2827 C   0  0  0  0  0  0  0  0  0  0  0  0
  -30.1609  -12.4640   -8.2598 C   0  0  0  0  0  0  0  0  0  0  0  0
  -31.2356  -11.6569   -8.5801 C   0  0  0  0  0  0  0  0  0  0  0  0
  -31.5082  -10.4466   -8.0074 N   0  0  0  0  0  0  0  0  0  0  0  0
  -30.6642   -9.9649   -7.0589 C   0  0  0  0  0  0  0  0  0  0  0  0
  -26.4252   -9.5645   -4.9422 C   0  0  0  0  0  0  0  0  0  0  0  0
  -27.2098  -10.0844   -5.9395 C   0  0  0  0  0  0  0  0  0  0  0  0
  -28.5520  -10.3333   -5.6355 C   0  0  0  0  0  0  0  0  0  0  0  0
  -29.0345  -10.1470   -4.3923 N   0  0  0  0  0  0  0  0  0  0  0  0
  -28.1899   -9.6359   -3.4960 C   0  0  0  0  0  0  0  0  0  0  0  0
  -26.9046   -9.3298   -3.7134 N   0  0  0  0  0  0  0  0  0  0  0  0
  -24.3080  -10.1470   -5.9952 C   0  0  0  0  0  0  0  0  0  0  0  0
  -25.0737   -9.2805   -5.1192 N   0  0  0  0  0  0  0  0  0  0  0  0
  -25.0362   -8.3060   -5.4156 H   0  0  0  0  0  0  0  0  0  0  0  0
  -27.8021   -3.6379   -4.5590 N   0  0  0  0  0  0  0  0  0  0  0  0
  -27.0098   -3.9641   -5.1025 H   0  0  0  0  0  0  0  0  0  0  0  0
  -28.1791   -2.3183   -4.8797 C   0  0  0  0  0  0  0  0  0  0  0  0
  -29.5311   -1.9530   -4.9009 C   0  0  0  0  0  0  0  0  0  0  0  0
  -29.9276   -0.7028   -5.3706 C   0  0  0  0  0  0  0  0  0  0  0  0
  -28.9638    0.2055   -5.7934 C   0  0  0  0  0  0  0  0  0  0  0  0
  -29.4522    1.6965   -6.4982 Cl  0  0  0  0  0  0  0  0  0  0  0  0
  -27.6084   -0.0987   -5.6766 C   0  0  0  0  0  0  0  0  0  0  0  0
  -27.2154   -1.3549   -5.2033 C   0  0  0  0  0  0  0  0  0  0  0  0
 26 27  1  0  0  0
 27 20  1  0  0  0
 27 28  1  0  0  0
 20 21  1  0  0  0
 20 25  2  0  0  0
 21 22  2  0  0  0
 22 14  1  0  0  0
 22 23  1  0  0  0
 14 15  1  0  0  0
 14 19  2  0  0  0
 15 16  2  0  0  0
 16 17  1  0  0  0
 17 18  2  0  0  0
 18 19  1  0  0  0
 19 12  1  0  0  0
 12  1  1  0  0  0
 12 13  1  0  0  0
  1  2  1  0  0  0
  1 11  2  0  0  0
  2  3  1  0  0  0
  2  4  2  0  0  0
  4  5  1  0  0  0
  5  6  2  0  0  0
  6  7  1  0  0  0
  6 11  1  0  0  0
  7 29  1  0  0  0
  7  8  2  0  0  0
 29 31  1  0  0  0
 29 30  1  0  0  0
 31 32  1  0  0  0
 31 37  2  0  0  0
 32 33  2  0  0  0
 33 34  1  0  0  0
 34 35  1  0  0  0
 34 36  2  0  0  0
 36 37  1  0  0  0
  8  9  1  0  0  0
  9 10  2  0  0  0
 10 11  1  0  0  0
 23 24  2  0  0  0
 24 25  1  0  0  0
M  END
> <minimizedAffinity>
-8.74225

$$$$
