CHEMBL3982416


 33 37  0  0  0  0  0  0  0  0999 V2000
  -16.1492    1.9687  -15.6677 N   0  0  0  0  0  0  0  0  0  0  0  0
  -15.7025    1.0689  -14.5859 C   0  0  0  0  0  0  0  0  0  0  0  0
  -14.5071    1.4323  -14.0746 C   0  0  0  0  0  0  0  0  0  0  0  0
  -13.7160    0.4725  -13.5394 C   0  0  0  0  0  0  0  0  0  0  0  0
  -14.1534   -0.7989  -13.3065 C   0  0  0  0  0  0  0  0  0  0  0  0
  -13.0757   -1.5412  -13.2667 N   0  0  0  0  0  0  0  0  0  0  0  0
  -13.1400   -2.6636  -12.5791 C   0  0  0  0  0  0  0  0  0  0  0  0
  -14.2290   -3.0430  -11.8297 C   0  0  0  0  0  0  0  0  0  0  0  0
  -15.4495   -2.3993  -12.1633 N   0  0  0  0  0  0  0  0  0  0  0  0
  -15.4523   -1.1821  -13.1156 C   0  0  0  0  0  0  0  0  0  0  0  0
  -16.2698   -0.1636  -14.0148 C   0  0  0  0  0  0  0  0  0  0  0  0
  -13.7015   -3.8580  -10.6334 C   0  0  0  0  0  0  0  0  0  0  0  0
  -14.5214   -4.9001  -10.0202 C   0  0  0  0  0  0  0  0  0  0  0  0
  -14.1074   -5.3478   -8.8493 N   0  0  0  0  0  0  0  0  0  0  0  0
  -12.9450   -4.7230   -8.6723 N   0  0  0  0  0  0  0  0  0  0  0  0
  -12.2211   -5.1125   -7.4781 C   0  0  0  0  0  0  0  0  0  0  0  0
  -12.6599   -3.7974   -9.6912 C   0  0  0  0  0  0  0  0  0  0  0  0
  -13.7491    1.8801  -18.5095 C   0  0  0  0  0  0  0  0  0  0  0  0
  -14.5954    1.5194  -17.4591 C   0  0  0  0  0  0  0  0  0  0  0  0
  -15.3903    2.4337  -16.7816 C   0  0  0  0  0  0  0  0  0  0  0  0
  -15.3459    3.7647  -17.2730 C   0  0  0  0  0  0  0  0  0  0  0  0
  -14.6374    4.1175  -18.4527 C   0  0  0  0  0  0  0  0  0  0  0  0
  -13.8308    3.1524  -19.0625 C   0  0  0  0  0  0  0  0  0  0  0  0
  -14.7445    5.4882  -19.0892 C   0  0  0  0  0  0  0  0  0  0  0  0
  -15.0002    6.4911  -18.2027 F   0  0  0  0  0  0  0  0  0  0  0  0
  -13.6109    5.8593  -19.7499 F   0  0  0  0  0  0  0  0  0  0  0  0
  -15.7442    5.5529  -20.0154 F   0  0  0  0  0  0  0  0  0  0  0  0
  -12.0201    1.6290  -20.0695 C   0  0  0  0  0  0  0  0  0  0  0  0
  -12.7999    1.0376  -19.0248 O   0  0  0  0  0  0  0  0  0  0  0  0
  -17.6783    2.0509  -15.8001 C   0  0  0  0  0  0  0  0  0  0  0  0
  -18.5280    2.5528  -14.6092 C   0  0  0  0  0  0  0  0  0  0  0  0
  -19.9064    1.9220  -14.3998 C   0  0  0  0  0  0  0  0  0  0  0  0
  -19.8052    3.3694  -14.7556 C   0  0  0  0  0  0  0  0  0  0  0  0
 28 29  1  0  0  0
 29 18  1  0  0  0
 18 19  1  0  0  0
 18 23  2  0  0  0
 19 20  2  0  0  0
 20  1  1  0  0  0
 20 21  1  0  0  0
  1 30  1  0  0  0
  1  2  1  0  0  0
 30 31  1  0  0  0
 31 32  1  0  0  0
 31 33  1  0  0  0
 32 33  1  0  0  0
  2  3  1  0  0  0
  2 11  2  0  0  0
  3  4  2  0  0  0
  4  5  1  0  0  0
  5  6  1  0  0  0
  5 10  2  0  0  0
  6  7  2  0  0  0
  7  8  1  0  0  0
  8 12  1  0  0  0
  8  9  2  0  0  0
 12 13  1  0  0  0
 12 17  2  0  0  0
 13 14  2  0  0  0
 14 15  1  0  0  0
 15 16  1  0  0  0
 15 17  1  0  0  0
  9 10  1  0  0  0
 10 11  1  0  0  0
 21 22  2  0  0  0
 22 24  1  0  0  0
 22 23  1  0  0  0
 24 25  1  0  0  0
 24 26  1  0  0  0
 24 27  1  0  0  0
M  END
> <minimizedAffinity>
-7.43537

$$$$
