CHEMBL4455321


 28 30  0  0  0  0  0  0  0  0999 V2000
  -20.2495    1.9023  -14.7671 C   0  0  0  0  0  0  0  0  0  0  0  0
  -19.8711    3.1502  -15.2782 C   0  0  0  0  0  0  0  0  0  0  0  0
  -18.5527    3.3642  -15.6943 C   0  0  0  0  0  0  0  0  0  0  0  0
  -17.6034    2.3460  -15.5826 C   0  0  0  0  0  0  0  0  0  0  0  0
  -17.9758    1.1082  -15.0657 C   0  0  0  0  0  0  0  0  0  0  0  0
  -19.2931    0.8797  -14.6708 C   0  0  0  0  0  0  0  0  0  0  0  0
  -21.9097    0.3129  -13.9214 N   0  0  0  0  0  0  0  0  0  0  0  0
  -21.6160    1.6308  -14.2345 C   0  0  0  0  0  0  0  0  0  0  0  0
  -22.3758    2.5869  -14.1109 O   0  0  0  0  0  0  0  0  0  0  0  0
  -21.1929   -0.3950  -13.9929 H   0  0  0  0  0  0  0  0  0  0  0  0
  -26.3791   -1.6712  -13.4577 C   0  0  0  0  0  0  0  0  0  0  0  0
  -25.1276   -1.0030  -13.1975 N   0  0  0  0  0  0  0  0  0  0  0  0
  -24.0839   -0.8772  -14.0629 C   0  0  0  0  0  0  0  0  0  0  0  0
  -23.1351   -0.1127  -13.4293 C   0  0  0  0  0  0  0  0  0  0  0  0
  -23.7011    0.1449  -12.1592 C   0  0  0  0  0  0  0  0  0  0  0  0
  -24.9153   -0.3987  -12.0125 N   0  0  0  0  0  0  0  0  0  0  0  0
  -17.0177    0.0728  -14.9194 N   0  0  0  0  0  0  0  0  0  0  0  0
  -17.2583   -0.8633  -15.2382 H   0  0  0  0  0  0  0  0  0  0  0  0
  -15.9323    0.1037  -13.6342 S   0  0  0  0  0  0  0  0  0  0  0  0
  -14.6377    0.4183  -14.1995 O   0  0  0  0  0  0  0  0  0  0  0  0
  -16.4891    0.8731  -12.5404 O   0  0  0  0  0  0  0  0  0  0  0  0
  -15.8689   -1.6037  -13.1164 C   0  0  0  0  0  0  0  0  0  0  0  0
  -15.7070   -1.8901  -11.7551 C   0  0  0  0  0  0  0  0  0  0  0  0
  -15.7144   -3.2161  -11.3193 C   0  0  0  0  0  0  0  0  0  0  0  0
  -15.8934   -4.2468  -12.2415 C   0  0  0  0  0  0  0  0  0  0  0  0
  -15.8998   -5.8796  -11.6991 Cl  0  0  0  0  0  0  0  0  0  0  0  0
  -16.0729   -3.9629  -13.5971 C   0  0  0  0  0  0  0  0  0  0  0  0
  -16.0682   -2.6358  -14.0402 C   0  0  0  0  0  0  0  0  0  0  0  0
 11 12  1  0  0  0
 12 13  1  0  0  0
 12 16  1  0  0  0
 13 14  2  0  0  0
 14  7  1  0  0  0
 14 15  1  0  0  0
  7  8  1  0  0  0
  7 10  1  0  0  0
  8  9  2  0  0  0
  8  1  1  0  0  0
  1  2  1  0  0  0
  1  6  2  0  0  0
  2  3  2  0  0  0
  3  4  1  0  0  0
  4  5  2  0  0  0
  5 17  1  0  0  0
  5  6  1  0  0  0
 17 19  1  0  0  0
 17 18  1  0  0  0
 19 20  2  0  0  0
 19 21  2  0  0  0
 19 22  1  0  0  0
 22 23  1  0  0  0
 22 28  2  0  0  0
 23 24  2  0  0  0
 24 25  1  0  0  0
 25 26  1  0  0  0
 25 27  2  0  0  0
 27 28  1  0  0  0
 15 16  2  0  0  0
M  END
> <minimizedAffinity>
-9.58901

$$$$
