CHEMBL4166696


 43 48  0  0  0  0  0  0  0  0999 V2000
  -31.8632    2.7490   -8.5325 C   0  0  0  0  0  0  0  0  0  0  0  0
  -31.1118    1.9724   -9.4428 C   0  0  0  0  0  0  0  0  0  0  0  0
  -30.2032    0.9923   -8.9888 C   0  0  0  0  0  0  0  0  0  0  0  0
  -30.0445    0.8097   -7.6252 C   0  0  0  0  0  0  0  0  0  0  0  0
  -30.8170    1.5862   -6.7492 C   0  0  0  0  0  0  0  0  0  0  0  0
  -31.7292    2.5335   -7.1604 C   0  0  0  0  0  0  0  0  0  0  0  0
  -30.4825    1.3388   -5.4262 N   0  0  0  0  0  0  0  0  0  0  0  0
  -29.4224    0.4652   -5.3345 C   0  0  0  0  0  0  0  0  0  0  0  0
  -28.7766    0.2839   -4.3257 O   0  0  0  0  0  0  0  0  0  0  0  0
  -29.1925   -0.0326   -6.7531 C   0  0  0  0  0  0  0  0  0  0  0  0
  -28.3145   -1.0327   -7.0058 C   0  0  0  0  0  0  0  0  0  0  0  0
  -30.8110    1.8566   -4.6293 H   0  0  0  0  0  0  0  0  0  0  0  0
  -27.8316   -1.2707   -8.3900 C   0  0  0  0  0  0  0  0  0  0  0  0
  -28.5186   -2.1892   -9.1956 C   0  0  0  0  0  0  0  0  0  0  0  0
  -28.1057   -2.4335  -10.5069 C   0  0  0  0  0  0  0  0  0  0  0  0
  -27.0068   -1.7584  -11.0289 C   0  0  0  0  0  0  0  0  0  0  0  0
  -26.3227   -0.8326  -10.2395 C   0  0  0  0  0  0  0  0  0  0  0  0
  -26.7352   -0.5820   -8.9247 C   0  0  0  0  0  0  0  0  0  0  0  0
  -32.7704    3.8541   -8.9403 C   0  0  0  0  0  0  0  0  0  0  0  0
  -32.4706    5.0331   -8.8236 O   0  0  0  0  0  0  0  0  0  0  0  0
  -34.7520    4.4131  -10.0129 C   0  0  0  0  0  0  0  0  0  0  0  0
  -33.9200    3.3808   -9.4778 O   0  0  0  0  0  0  0  0  0  0  0  0
  -27.6653   -1.8079   -6.0516 N   0  0  0  0  0  0  0  0  0  0  0  0
  -26.6935   -1.5600   -5.8872 H   0  0  0  0  0  0  0  0  0  0  0  0
  -27.9204   -3.1648   -5.7232 C   0  0  0  0  0  0  0  0  0  0  0  0
  -27.9985   -3.5101   -4.3684 C   0  0  0  0  0  0  0  0  0  0  0  0
  -28.2459   -4.8235   -3.9431 C   0  0  0  0  0  0  0  0  0  0  0  0
  -28.4003   -5.8142   -4.9233 C   0  0  0  0  0  0  0  0  0  0  0  0
  -28.3722   -5.5032   -6.2791 C   0  0  0  0  0  0  0  0  0  0  0  0
  -28.1539   -4.1645   -6.6812 C   0  0  0  0  0  0  0  0  0  0  0  0
  -28.5643   -6.7200   -6.9797 C   0  0  0  0  0  0  0  0  0  0  0  0
  -28.7437   -7.7558   -6.0703 C   0  0  0  0  0  0  0  0  0  0  0  0
  -28.5667   -7.1877   -4.8182 N   0  0  0  0  0  0  0  0  0  0  0  0
  -28.4993   -7.8871   -3.5499 C   0  0  0  0  0  0  0  0  0  0  0  0
  -28.9516   -9.1719   -6.3481 C   0  0  0  0  0  0  0  0  0  0  0  0
  -28.0536   -9.9974   -6.1806 O   0  0  0  0  0  0  0  0  0  0  0  0
  -30.2038   -9.5738   -6.8431 N   0  0  0  0  0  0  0  0  0  0  0  0
  -30.3742  -11.0047   -7.1237 C   0  0  0  0  0  0  0  0  0  0  0  0
  -31.5719  -11.3040   -8.0496 C   0  0  0  0  0  0  0  0  0  0  0  0
  -32.8389  -10.6387   -7.6813 N   0  0  0  0  0  0  0  0  0  0  0  0
  -33.4417  -11.2337   -6.4897 C   0  0  0  0  0  0  0  0  0  0  0  0
  -32.5858   -9.1972   -7.4969 C   0  0  0  0  0  0  0  0  0  0  0  0
  -31.4496   -8.8704   -6.5103 C   0  0  0  0  0  0  0  0  0  0  0  0
 21 22  1  0  0  0
 22 19  1  0  0  0
 19 20  2  0  0  0
 19  1  1  0  0  0
  1  2  1  0  0  0
  1  6  2  0  0  0
  2  3  2  0  0  0
  3  4  1  0  0  0
  4  5  2  0  0  0
  4 10  1  0  0  0
  5  6  1  0  0  0
  5  7  1  0  0  0
  7  8  1  0  0  0
  7 12  1  0  0  0
  8  9  2  0  0  0
  8 10  1  0  0  0
 10 11  2  0  0  0
 11 23  1  0  0  0
 11 13  1  0  0  0
 23 25  1  0  0  0
 23 24  1  0  0  0
 25 26  1  0  0  0
 25 30  2  0  0  0
 26 27  2  0  0  0
 27 28  1  0  0  0
 28 29  2  0  0  0
 28 33  1  0  0  0
 29 30  1  0  0  0
 29 31  1  0  0  0
 31 32  2  0  0  0
 32 35  1  0  0  0
 32 33  1  0  0  0
 35 36  2  0  0  0
 35 37  1  0  0  0
 37 38  1  0  0  0
 37 43  1  0  0  0
 38 39  1  0  0  0
 39 40  1  0  0  0
 40 41  1  0  0  0
 40 42  1  0  0  0
 42 43  1  0  0  0
 33 34  1  0  0  0
 13 14  1  0  0  0
 13 18  2  0  0  0
 14 15  2  0  0  0
 15 16  1  0  0  0
 16 17  2  0  0  0
 17 18  1  0  0  0
M  END
> <minimizedAffinity>
-2.13699

$$$$
