CHEMBL431996


 32 35  0  0  0  0  0  0  0  0999 V2000
  -29.4706   -8.2037   -7.6257 C   0  0  0  0  0  0  0  0  0  0  0  0
  -28.7734   -7.0260   -7.8742 C   0  0  0  0  0  0  0  0  0  0  0  0
  -27.7593   -7.3069   -8.7605 N   0  0  0  0  0  0  0  0  0  0  0  0
  -27.8282   -8.6224   -9.1234 C   0  0  0  0  0  0  0  0  0  0  0  0
  -28.8798   -9.2104   -8.4519 C   0  0  0  0  0  0  0  0  0  0  0  0
  -29.2491  -10.6456   -8.6606 C   0  0  0  0  0  0  0  0  0  0  0  0
  -28.1380  -11.4246   -9.3941 C   0  0  0  0  0  0  0  0  0  0  0  0
  -27.5164  -10.6182  -10.5491 C   0  0  0  0  0  0  0  0  0  0  0  0
  -26.8883   -9.3029  -10.0556 C   0  0  0  0  0  0  0  0  0  0  0  0
  -27.0673   -6.6476   -9.0870 H   0  0  0  0  0  0  0  0  0  0  0  0
  -28.9136   -5.6831   -7.4427 C   0  0  0  0  0  0  0  0  0  0  0  0
  -28.6588   -5.2696   -6.1906 C   0  0  0  0  0  0  0  0  0  0  0  0
  -28.1625   -6.1306   -5.0491 C   0  0  0  0  0  0  0  0  0  0  0  0
  -27.9382   -7.3239   -5.0249 O   0  0  0  0  0  0  0  0  0  0  0  0
  -27.9877   -5.2536   -3.9944 N   0  0  0  0  0  0  0  0  0  0  0  0
  -28.3276   -3.9549   -4.3387 C   0  0  0  0  0  0  0  0  0  0  0  0
  -28.2436   -2.8507   -3.5155 C   0  0  0  0  0  0  0  0  0  0  0  0
  -28.6286   -1.6233   -4.0516 C   0  0  0  0  0  0  0  0  0  0  0  0
  -29.0939   -1.5272   -5.3828 C   0  0  0  0  0  0  0  0  0  0  0  0
  -29.1559   -2.6695   -6.2097 C   0  0  0  0  0  0  0  0  0  0  0  0
  -28.7653   -3.8904   -5.6690 C   0  0  0  0  0  0  0  0  0  0  0  0
  -27.6465   -5.5603   -3.0944 H   0  0  0  0  0  0  0  0  0  0  0  0
  -29.4412   -0.1628   -5.8667 C   0  0  0  0  0  0  0  0  0  0  0  0
  -30.4189    0.4465   -5.4671 O   0  0  0  0  0  0  0  0  0  0  0  0
  -28.6064    0.3208   -6.8057 O   0  0  0  0  0  0  0  0  0  0  0  0
  -27.9952   -0.3299   -7.1996 H   0  0  0  0  0  0  0  0  0  0  0  0
  -30.6163   -8.3871   -6.6788 C   0  0  0  0  0  0  0  0  0  0  0  0
  -31.9605   -8.1907   -7.3649 C   0  0  0  0  0  0  0  0  0  0  0  0
  -33.3001  -10.1310   -6.8966 O   0  0  0  0  0  0  0  0  0  0  0  0
  -32.6223   -9.4988   -7.6935 C   0  0  0  0  0  0  0  0  0  0  0  0
  -32.4443   -9.9020   -8.9696 O   0  0  0  0  0  0  0  0  0  0  0  0
  -31.9180   -9.2890   -9.5168 H   0  0  0  0  0  0  0  0  0  0  0  0
 29 30  2  0  0  0
 30 31  1  0  0  0
 30 28  1  0  0  0
 31 32  1  0  0  0
 28 27  1  0  0  0
 27  1  1  0  0  0
  1  2  2  0  0  0
  1  5  1  0  0  0
  2 11  1  0  0  0
  2  3  1  0  0  0
 11 12  2  0  0  0
 12 13  1  0  0  0
 12 21  1  0  0  0
 13 14  2  0  0  0
 13 15  1  0  0  0
 15 16  1  0  0  0
 15 22  1  0  0  0
 16 17  1  0  0  0
 16 21  2  0  0  0
 17 18  2  0  0  0
 18 19  1  0  0  0
 19 23  1  0  0  0
 19 20  2  0  0  0
 23 24  2  0  0  0
 23 25  1  0  0  0
 25 26  1  0  0  0
 20 21  1  0  0  0
  3  4  1  0  0  0
  3 10  1  0  0  0
  4  5  2  0  0  0
  4  9  1  0  0  0
  5  6  1  0  0  0
  6  7  1  0  0  0
  7  8  1  0  0  0
  8  9  1  0  0  0
M  END
> <minimizedAffinity>
-9.71919

$$$$
