CHEMBL3896274


 33 36  0  0  0  0  0  0  0  0999 V2000
  -30.1545   -4.9366   -6.9166 O   0  0  0  0  0  0  0  0  0  0  0  0
  -29.8982   -5.8643   -5.9233 C   0  0  0  0  0  0  0  0  0  0  0  0
  -30.2549   -5.6894   -4.5828 C   0  0  0  0  0  0  0  0  0  0  0  0
  -29.8971   -6.6495   -3.6568 C   0  0  0  0  0  0  0  0  0  0  0  0
  -29.2761   -7.8053   -3.9434 N   0  0  0  0  0  0  0  0  0  0  0  0
  -29.0098   -8.0199   -5.2588 C   0  0  0  0  0  0  0  0  0  0  0  0
  -28.4176   -9.2059   -5.7773 C   0  0  0  0  0  0  0  0  0  0  0  0
  -28.2947   -9.1854   -7.1526 C   0  0  0  0  0  0  0  0  0  0  0  0
  -28.8314   -7.6941   -7.7991 S   0  0  0  0  0  0  0  0  0  0  0  0
  -29.3008   -7.0919   -6.2584 C   0  0  0  0  0  0  0  0  0  0  0  0
  -27.8442  -10.2273   -8.0523 C   0  0  0  0  0  0  0  0  0  0  0  0
  -28.1312  -11.4160   -7.9914 O   0  0  0  0  0  0  0  0  0  0  0  0
  -26.9657   -9.7048   -8.9574 O   0  0  0  0  0  0  0  0  0  0  0  0
  -26.7547  -10.4956  -10.1416 C   0  0  0  0  0  0  0  0  0  0  0  0
  -27.3199   -9.8529  -11.4046 C   0  0  0  0  0  0  0  0  0  0  0  0
  -26.5218   -8.7408  -11.7989 O   0  0  0  0  0  0  0  0  0  0  0  0
  -26.5762   -8.0870  -11.0799 H   0  0  0  0  0  0  0  0  0  0  0  0
  -27.8694   -2.4960   -8.4122 C   0  0  0  0  0  0  0  0  0  0  0  0
  -27.8436   -1.5196   -7.4124 C   0  0  0  0  0  0  0  0  0  0  0  0
  -28.4891   -1.7232   -6.1944 C   0  0  0  0  0  0  0  0  0  0  0  0
  -29.2000   -2.8954   -5.9757 C   0  0  0  0  0  0  0  0  0  0  0  0
  -29.3546   -3.8169   -7.0141 C   0  0  0  0  0  0  0  0  0  0  0  0
  -28.6520   -3.6412   -8.2147 C   0  0  0  0  0  0  0  0  0  0  0  0
  -27.4407   -1.5085  -10.6745 C   0  0  0  0  0  0  0  0  0  0  0  0
  -28.3718   -0.7052  -10.6863 O   0  0  0  0  0  0  0  0  0  0  0  0
  -27.1462   -2.3666   -9.6218 N   0  0  0  0  0  0  0  0  0  0  0  0
  -26.2783   -2.8785   -9.7121 H   0  0  0  0  0  0  0  0  0  0  0  0
  -28.0513   -2.1355  -13.7979 C   0  0  0  0  0  0  0  0  0  0  0  0
  -26.7440   -1.8833  -13.1391 C   0  0  0  0  0  0  0  0  0  0  0  0
  -25.4640   -1.8732  -13.7591 C   0  0  0  0  0  0  0  0  0  0  0  0
  -24.5520   -1.5936  -12.7720 C   0  0  0  0  0  0  0  0  0  0  0  0
  -25.1763   -1.4245  -11.5763 O   0  0  0  0  0  0  0  0  0  0  0  0
  -26.5179   -1.6106  -11.7947 C   0  0  0  0  0  0  0  0  0  0  0  0
 28 29  1  0  0  0
 29 30  1  0  0  0
 29 33  2  0  0  0
 30 31  2  0  0  0
 31 32  1  0  0  0
 32 33  1  0  0  0
 33 24  1  0  0  0
 24 25  2  0  0  0
 24 26  1  0  0  0
 26 18  1  0  0  0
 26 27  1  0  0  0
 18 19  1  0  0  0
 18 23  2  0  0  0
 19 20  2  0  0  0
 20 21  1  0  0  0
 21 22  2  0  0  0
 22  1  1  0  0  0
 22 23  1  0  0  0
  1  2  1  0  0  0
  2  3  1  0  0  0
  2 10  2  0  0  0
  3  4  2  0  0  0
  4  5  1  0  0  0
  5  6  2  0  0  0
  6  7  1  0  0  0
  6 10  1  0  0  0
  7  8  2  0  0  0
  8 11  1  0  0  0
  8  9  1  0  0  0
 11 12  2  0  0  0
 11 13  1  0  0  0
 13 14  1  0  0  0
 14 15  1  0  0  0
 15 16  1  0  0  0
 16 17  1  0  0  0
  9 10  1  0  0  0
M  END
> <minimizedAffinity>
-9.10490

$$$$
