CHEMBL3898480


 42 45  0  0  0  0  0  0  0  0999 V2000
  -23.2187    0.0872  -13.4908 C   0  0  0  0  0  0  0  0  0  0  0  0
  -23.9391   -0.7521  -14.3490 C   0  0  0  0  0  0  0  0  0  0  0  0
  -25.1104   -1.3826  -13.9154 C   0  0  0  0  0  0  0  0  0  0  0  0
  -25.5830   -1.1896  -12.6102 C   0  0  0  0  0  0  0  0  0  0  0  0
  -24.8701   -0.3431  -11.7557 C   0  0  0  0  0  0  0  0  0  0  0  0
  -23.7020    0.2888  -12.1910 C   0  0  0  0  0  0  0  0  0  0  0  0
  -18.5313    1.3694  -15.0551 C   0  0  0  0  0  0  0  0  0  0  0  0
  -18.0977    2.5969  -15.4343 N   0  0  0  0  0  0  0  0  0  0  0  0
  -18.9654    3.6278  -15.4070 C   0  0  0  0  0  0  0  0  0  0  0  0
  -20.2511    3.6230  -15.0286 N   0  0  0  0  0  0  0  0  0  0  0  0
  -20.6374    2.3963  -14.6503 C   0  0  0  0  0  0  0  0  0  0  0  0
  -21.8958    2.0726  -14.2372 N   0  0  0  0  0  0  0  0  0  0  0  0
  -21.9816    0.7274  -13.9410 C   0  0  0  0  0  0  0  0  0  0  0  0
  -20.7186    0.2019  -14.1803 C   0  0  0  0  0  0  0  0  0  0  0  0
  -19.8651    1.2463  -14.6265 C   0  0  0  0  0  0  0  0  0  0  0  0
  -22.6536    2.7373  -14.1947 H   0  0  0  0  0  0  0  0  0  0  0  0
  -17.6810    0.2554  -15.1134 N   0  0  0  0  0  0  0  0  0  0  0  0
  -18.2053   -0.5319  -14.7354 H   0  0  0  0  0  0  0  0  0  0  0  0
  -15.2557    0.6812  -15.3329 C   0  0  0  0  0  0  0  0  0  0  0  0
  -16.4198    0.4012  -14.3725 C   0  0  0  0  0  0  0  0  0  0  0  0
  -16.1714   -0.8828  -13.5852 C   0  0  0  0  0  0  0  0  0  0  0  0
  -15.8840   -0.8233  -12.2113 C   0  0  0  0  0  0  0  0  0  0  0  0
  -15.6663   -1.9909  -11.4749 C   0  0  0  0  0  0  0  0  0  0  0  0
  -15.7309   -3.2341  -12.1004 C   0  0  0  0  0  0  0  0  0  0  0  0
  -16.0077   -3.3110  -13.4635 C   0  0  0  0  0  0  0  0  0  0  0  0
  -16.2278   -2.1448  -14.2007 C   0  0  0  0  0  0  0  0  0  0  0  0
  -26.8417   -1.8720  -12.1325 C   0  0  0  0  0  0  0  0  0  0  0  0
  -26.7219   -2.2802  -10.7347 N   0  0  0  0  0  0  0  0  0  0  0  0
  -25.8120   -1.9845  -10.3814 H   0  0  0  0  0  0  0  0  0  0  0  0
  -27.7853   -1.6912   -9.9268 C   0  0  0  0  0  0  0  0  0  0  0  0
  -27.9778   -2.5253   -8.6622 C   0  0  0  0  0  0  0  0  0  0  0  0
  -27.8435   -1.6594   -7.4107 C   0  0  0  0  0  0  0  0  0  0  0  0
  -28.0966   -2.4815   -6.1498 C   0  0  0  0  0  0  0  0  0  0  0  0
  -29.5536   -2.3744   -5.7039 C   0  0  0  0  0  0  0  0  0  0  0  0
  -30.2657   -3.7159   -5.8589 C   0  0  0  0  0  0  0  0  0  0  0  0
  -29.3624   -4.8809   -5.4668 C   0  0  0  0  0  0  0  0  0  0  0  0
  -29.9326   -5.6567   -4.2993 C   0  0  0  0  0  0  0  0  0  0  0  0
  -31.1299   -5.8559   -4.1092 O   0  0  0  0  0  0  0  0  0  0  0  0
  -28.9764   -6.1269   -3.4334 N   0  0  0  0  0  0  0  0  0  0  0  0
  -29.4498   -6.9181   -2.3626 O   0  0  0  0  0  0  0  0  0  0  0  0
  -27.9841   -6.1675   -3.6356 H   0  0  0  0  0  0  0  0  0  0  0  0
  -30.4240   -6.8839   -2.4940 H   0  0  0  0  0  0  0  0  0  0  0  0
 19 20  1  0  0  0
 20 17  1  0  0  0
 20 21  1  0  0  0
 17  7  1  0  0  0
 17 18  1  0  0  0
  7  8  1  0  0  0
  7 15  2  0  0  0
  8  9  2  0  0  0
  9 10  1  0  0  0
 10 11  2  0  0  0
 11 12  1  0  0  0
 11 15  1  0  0  0
 12 13  1  0  0  0
 12 16  1  0  0  0
 13  1  1  0  0  0
 13 14  2  0  0  0
  1  2  1  0  0  0
  1  6  2  0  0  0
  2  3  2  0  0  0
  3  4  1  0  0  0
  4 27  1  0  0  0
  4  5  2  0  0  0
 27 28  1  0  0  0
 28 30  1  0  0  0
 28 29  1  0  0  0
 30 31  1  0  0  0
 31 32  1  0  0  0
 32 33  1  0  0  0
 33 34  1  0  0  0
 34 35  1  0  0  0
 35 36  1  0  0  0
 36 37  1  0  0  0
 37 38  2  0  0  0
 37 39  1  0  0  0
 39 40  1  0  0  0
 39 41  1  0  0  0
 40 42  1  0  0  0
  5  6  1  0  0  0
 14 15  1  0  0  0
 21 22  1  0  0  0
 21 26  2  0  0  0
 22 23  2  0  0  0
 23 24  1  0  0  0
 24 25  2  0  0  0
 25 26  1  0  0  0
M  END
> <minimizedAffinity>
-10.09605

$$$$
