CHEMBL3983586


 30 33  0  0  0  0  0  0  0  0999 V2000
  -27.9129   -2.3166   -8.5663 C   0  0  0  0  0  0  0  0  0  0  0  0
  -28.6464   -3.3865   -8.7715 N   0  0  0  0  0  0  0  0  0  0  0  0
  -28.0605    1.4023   -4.0385 C   0  0  0  0  0  0  0  0  0  0  0  0
  -28.0653    0.4476   -5.1980 C   0  0  0  0  0  0  0  0  0  0  0  0
  -28.4831    0.8466   -6.4730 C   0  0  0  0  0  0  0  0  0  0  0  0
  -28.4597   -0.0533   -7.5505 C   0  0  0  0  0  0  0  0  0  0  0  0
  -27.9815   -1.3639   -7.3934 C   0  0  0  0  0  0  0  0  0  0  0  0
  -27.5790   -1.7576   -6.1084 C   0  0  0  0  0  0  0  0  0  0  0  0
  -27.6403   -0.8715   -5.0211 C   0  0  0  0  0  0  0  0  0  0  0  0
  -26.9160   -2.0688   -9.6752 C   0  0  0  0  0  0  0  0  0  0  0  0
  -27.1653   -1.5722  -10.8976 C   0  0  0  0  0  0  0  0  0  0  0  0
  -26.1608   -1.2879  -11.9535 C   0  0  0  0  0  0  0  0  0  0  0  0
  -26.2591   -1.7325  -13.2838 C   0  0  0  0  0  0  0  0  0  0  0  0
  -25.2635   -1.4282  -14.2246 C   0  0  0  0  0  0  0  0  0  0  0  0
  -24.1582   -0.6741  -13.8433 C   0  0  0  0  0  0  0  0  0  0  0  0
  -23.2117   -0.3815  -14.7431 F   0  0  0  0  0  0  0  0  0  0  0  0
  -24.0336   -0.2277  -12.5369 C   0  0  0  0  0  0  0  0  0  0  0  0
  -25.0272   -0.5346  -11.5985 C   0  0  0  0  0  0  0  0  0  0  0  0
  -29.6308   -3.7175   -7.9038 N   0  0  0  0  0  0  0  0  0  0  0  0
  -30.5947   -3.6580   -8.2380 H   0  0  0  0  0  0  0  0  0  0  0  0
  -29.5446   -4.8919   -7.1217 C   0  0  0  0  0  0  0  0  0  0  0  0
  -28.8943   -5.9137   -7.7372 N   0  0  0  0  0  0  0  0  0  0  0  0
  -28.7531   -7.1287   -7.1397 N   0  0  0  0  0  0  0  0  0  0  0  0
  -29.2739   -7.3147   -5.9154 C   0  0  0  0  0  0  0  0  0  0  0  0
  -29.9622   -6.3300   -5.2228 C   0  0  0  0  0  0  0  0  0  0  0  0
  -30.4909   -6.5922   -3.9444 C   0  0  0  0  0  0  0  0  0  0  0  0
  -31.2006   -5.6133   -3.2545 C   0  0  0  0  0  0  0  0  0  0  0  0
  -31.4031   -4.3715   -3.8430 C   0  0  0  0  0  0  0  0  0  0  0  0
  -30.8827   -4.1056   -5.1155 C   0  0  0  0  0  0  0  0  0  0  0  0
  -30.1295   -5.0685   -5.8388 C   0  0  0  0  0  0  0  0  0  0  0  0
  3  4  1  0  0  0
  4  5  1  0  0  0
  4  9  2  0  0  0
  5  6  2  0  0  0
  6  7  1  0  0  0
  7  1  1  0  0  0
  7  8  2  0  0  0
  1 10  1  0  0  0
  1  2  2  0  0  0
 10 11  2  0  0  0
 11 12  1  0  0  0
 12 13  1  0  0  0
 12 18  2  0  0  0
 13 14  2  0  0  0
 14 15  1  0  0  0
 15 16  1  0  0  0
 15 17  2  0  0  0
 17 18  1  0  0  0
  2 19  1  0  0  0
 19 21  1  0  0  0
 19 20  1  0  0  0
 21 22  1  0  0  0
 21 30  2  0  0  0
 22 23  2  0  0  0
 23 24  1  0  0  0
 24 25  2  0  0  0
 25 26  1  0  0  0
 25 30  1  0  0  0
 26 27  2  0  0  0
 27 28  1  0  0  0
 28 29  2  0  0  0
 29 30  1  0  0  0
  8  9  1  0  0  0
M  END
> <minimizedAffinity>
-10.24108

$$$$
