CHEMBL3961472


 35 38  0  0  0  0  0  0  0  0999 V2000
  -11.9251   -2.4895  -14.5659 C   0  0  0  0  0  0  0  0  0  0  0  0
  -11.7567   -1.4742  -13.5912 C   0  0  0  0  0  0  0  0  0  0  0  0
  -12.2185   -0.1671  -13.7188 C   0  0  0  0  0  0  0  0  0  0  0  0
  -11.9220    0.7318  -12.7788 N   0  0  0  0  0  0  0  0  0  0  0  0
  -12.3574    1.9832  -12.9763 C   0  0  0  0  0  0  0  0  0  0  0  0
  -13.1147    2.3997  -13.9931 N   0  0  0  0  0  0  0  0  0  0  0  0
  -13.4410    1.4749  -14.9118 C   0  0  0  0  0  0  0  0  0  0  0  0
  -12.9690    0.1507  -14.8418 C   0  0  0  0  0  0  0  0  0  0  0  0
  -13.1466   -0.8295  -15.8353 C   0  0  0  0  0  0  0  0  0  0  0  0
  -12.6308   -2.1372  -15.7243 C   0  0  0  0  0  0  0  0  0  0  0  0
  -14.2821    1.8270  -15.9906 N   0  0  0  0  0  0  0  0  0  0  0  0
  -13.9230    1.4728  -16.8720 H   0  0  0  0  0  0  0  0  0  0  0  0
  -15.6370    2.1811  -16.0003 C   0  0  0  0  0  0  0  0  0  0  0  0
  -15.9880    3.5347  -16.0907 C   0  0  0  0  0  0  0  0  0  0  0  0
  -17.3039    3.9557  -15.8796 C   0  0  0  0  0  0  0  0  0  0  0  0
  -18.2953    3.0234  -15.5705 C   0  0  0  0  0  0  0  0  0  0  0  0
  -19.8767    3.6176  -15.2128 Cl  0  0  0  0  0  0  0  0  0  0  0  0
  -17.9753    1.6648  -15.5225 C   0  0  0  0  0  0  0  0  0  0  0  0
  -19.1455    0.4484  -15.1499 Cl  0  0  0  0  0  0  0  0  0  0  0  0
  -16.6569    1.2513  -15.7392 C   0  0  0  0  0  0  0  0  0  0  0  0
  -12.9115   -2.8136  -16.8707 O   0  0  0  0  0  0  0  0  0  0  0  0
  -13.5346   -4.0777  -16.8674 C   0  0  0  0  0  0  0  0  0  0  0  0
  -11.3741   -3.7575  -14.3977 O   0  0  0  0  0  0  0  0  0  0  0  0
  -11.6818   -4.3745  -13.1233 C   0  0  0  0  0  0  0  0  0  0  0  0
  -14.7180   -5.1837  -11.8624 N   0  0  0  0  0  0  0  0  0  0  0  0
  -14.2412   -6.1560  -10.8404 C   0  0  0  0  0  0  0  0  0  0  0  0
  -12.7143   -6.1811  -10.7982 C   0  0  0  0  0  0  0  0  0  0  0  0
  -12.1770   -6.5436  -12.0798 O   0  0  0  0  0  0  0  0  0  0  0  0
  -12.5636   -5.6369  -13.1481 C   0  0  0  0  0  0  0  0  0  0  0  0
  -14.0858   -5.4349  -13.1968 C   0  0  0  0  0  0  0  0  0  0  0  0
  -14.9228   -3.5750  -11.3860 S   0  0  0  0  0  0  0  0  0  0  0  0
  -13.6435   -3.0909  -10.9146 O   0  0  0  0  0  0  0  0  0  0  0  0
  -16.1081   -3.5045  -10.5591 O   0  0  0  0  0  0  0  0  0  0  0  0
  -15.6160   -1.3152  -12.7622 C   0  0  0  0  0  0  0  0  0  0  0  0
  -15.2581   -2.7754  -12.9544 C   0  0  0  0  0  0  0  0  0  0  0  0
 34 35  1  0  0  0
 35 31  1  0  0  0
 31 32  2  0  0  0
 31 33  2  0  0  0
 31 25  1  0  0  0
 25 26  1  0  0  0
 25 30  1  0  0  0
 26 27  1  0  0  0
 27 28  1  0  0  0
 28 29  1  0  0  0
 29 24  1  0  0  0
 29 30  1  0  0  0
 24 23  1  0  0  0
 23  1  1  0  0  0
  1  2  1  0  0  0
  1 10  2  0  0  0
  2  3  2  0  0  0
  3  4  1  0  0  0
  3  8  1  0  0  0
  4  5  2  0  0  0
  5  6  1  0  0  0
  6  7  2  0  0  0
  7 11  1  0  0  0
  7  8  1  0  0  0
 11 13  1  0  0  0
 11 12  1  0  0  0
 13 14  1  0  0  0
 13 20  2  0  0  0
 14 15  2  0  0  0
 15 16  1  0  0  0
 16 17  1  0  0  0
 16 18  2  0  0  0
 18 19  1  0  0  0
 18 20  1  0  0  0
  8  9  2  0  0  0
  9 10  1  0  0  0
 10 21  1  0  0  0
 21 22  1  0  0  0
M  END
> <minimizedAffinity>
-7.09265

$$$$
