CHEMBL3895443


 37 40  0  0  0  0  0  0  0  0999 V2000
  -11.8743   -4.3365  -13.1207 N   0  0  0  0  0  0  0  0  0  0  0  0
  -12.3244   -3.0520  -13.6119 C   0  0  0  0  0  0  0  0  0  0  0  0
  -11.3727   -2.0392  -13.4903 C   0  0  0  0  0  0  0  0  0  0  0  0
  -11.7616   -0.7300  -13.3810 C   0  0  0  0  0  0  0  0  0  0  0  0
  -13.0630   -0.3428  -13.5641 C   0  0  0  0  0  0  0  0  0  0  0  0
  -13.2969    0.9390  -13.2572 N   0  0  0  0  0  0  0  0  0  0  0  0
  -14.5026    1.4254  -13.5696 C   0  0  0  0  0  0  0  0  0  0  0  0
  -15.4396    0.6713  -14.2396 C   0  0  0  0  0  0  0  0  0  0  0  0
  -15.2481   -0.6809  -14.4585 N   0  0  0  0  0  0  0  0  0  0  0  0
  -14.0350   -1.2496  -14.0408 C   0  0  0  0  0  0  0  0  0  0  0  0
  -13.6384   -2.6524  -13.9948 C   0  0  0  0  0  0  0  0  0  0  0  0
  -16.5377    1.4188  -14.8514 C   0  0  0  0  0  0  0  0  0  0  0  0
  -16.5107    2.3380  -15.9352 C   0  0  0  0  0  0  0  0  0  0  0  0
  -17.6505    3.0292  -16.0641 N   0  0  0  0  0  0  0  0  0  0  0  0
  -18.4136    2.5622  -15.0620 N   0  0  0  0  0  0  0  0  0  0  0  0
  -19.8272    2.8578  -15.0189 C   0  0  0  0  0  0  0  0  0  0  0  0
  -17.7310    1.7291  -14.2169 C   0  0  0  0  0  0  0  0  0  0  0  0
  -12.7305   -7.9792  -12.8458 C   0  0  0  0  0  0  0  0  0  0  0  0
  -13.4881   -8.1692  -13.9999 C   0  0  0  0  0  0  0  0  0  0  0  0
  -13.6543   -7.1270  -14.9076 C   0  0  0  0  0  0  0  0  0  0  0  0
  -13.0571   -5.8848  -14.6492 C   0  0  0  0  0  0  0  0  0  0  0  0
  -12.2920   -5.6425  -13.4972 C   0  0  0  0  0  0  0  0  0  0  0  0
  -12.1179   -6.7287  -12.6177 C   0  0  0  0  0  0  0  0  0  0  0  0
  -11.9111  -10.1424  -12.2308 C   0  0  0  0  0  0  0  0  0  0  0  0
  -12.5635   -8.9293  -11.8668 O   0  0  0  0  0  0  0  0  0  0  0  0
  -14.3966   -7.1728  -16.0586 O   0  0  0  0  0  0  0  0  0  0  0  0
  -13.7279   -7.5803  -17.2471 C   0  0  0  0  0  0  0  0  0  0  0  0
  -11.4820   -4.1541  -11.6717 C   0  0  0  0  0  0  0  0  0  0  0  0
  -12.6056   -4.2552  -10.6009 C   0  0  0  0  0  0  0  0  0  0  0  0
  -13.6122   -3.1842  -10.4625 N   0  0  0  0  0  0  0  0  0  0  0  0
  -13.6486   -2.6435  -11.3279 H   0  0  0  0  0  0  0  0  0  0  0  0
  -14.9470   -3.6423  -10.0658 C   0  0  0  0  0  0  0  0  0  0  0  0
  -15.9838   -3.2947  -11.1382 C   0  0  0  0  0  0  0  0  0  0  0  0
  -16.3318   -4.4911  -12.0065 C   0  0  0  0  0  0  0  0  0  0  0  0
  -16.7567   -4.1374  -13.2379 F   0  0  0  0  0  0  0  0  0  0  0  0
  -15.2651   -5.3066  -12.1638 F   0  0  0  0  0  0  0  0  0  0  0  0
  -17.3152   -5.2251  -11.4361 F   0  0  0  0  0  0  0  0  0  0  0  0
 24 25  1  0  0  0
 25 18  1  0  0  0
 18 19  1  0  0  0
 18 23  2  0  0  0
 19 20  2  0  0  0
 20 26  1  0  0  0
 20 21  1  0  0  0
 26 27  1  0  0  0
 21 22  2  0  0  0
 22  1  1  0  0  0
 22 23  1  0  0  0
  1 28  1  0  0  0
  1  2  1  0  0  0
 28 29  1  0  0  0
 29 30  1  0  0  0
 30 32  1  0  0  0
 30 31  1  0  0  0
 32 33  1  0  0  0
 33 34  1  0  0  0
 34 35  1  0  0  0
 34 36  1  0  0  0
 34 37  1  0  0  0
  2  3  1  0  0  0
  2 11  2  0  0  0
  3  4  2  0  0  0
  4  5  1  0  0  0
  5  6  1  0  0  0
  5 10  2  0  0  0
  6  7  2  0  0  0
  7  8  1  0  0  0
  8 12  1  0  0  0
  8  9  2  0  0  0
 12 13  1  0  0  0
 12 17  2  0  0  0
 13 14  2  0  0  0
 14 15  1  0  0  0
 15 16  1  0  0  0
 15 17  1  0  0  0
  9 10  1  0  0  0
 10 11  1  0  0  0
M  END
> <minimizedAffinity>
-6.92745

$$$$
