CHEMBL4059568


 42 47  0  0  0  0  0  0  0  0999 V2000
  -26.7563   -1.6002  -10.4968 C   0  0  0  0  0  0  0  0  0  0  0  0
  -26.8483   -0.6604   -9.4490 C   0  0  0  0  0  0  0  0  0  0  0  0
  -27.4516   -1.0005   -8.2127 C   0  0  0  0  0  0  0  0  0  0  0  0
  -27.9486   -2.2823   -8.0260 C   0  0  0  0  0  0  0  0  0  0  0  0
  -27.8123   -3.1904   -9.0806 C   0  0  0  0  0  0  0  0  0  0  0  0
  -27.2580   -2.8873  -10.3075 C   0  0  0  0  0  0  0  0  0  0  0  0
  -28.2968   -4.4336   -8.7371 N   0  0  0  0  0  0  0  0  0  0  0  0
  -28.8319   -4.4420   -7.4688 C   0  0  0  0  0  0  0  0  0  0  0  0
  -29.4388   -5.3930   -7.0216 O   0  0  0  0  0  0  0  0  0  0  0  0
  -28.5953   -3.0424   -6.9066 C   0  0  0  0  0  0  0  0  0  0  0  0
  -29.0074   -2.6542   -5.6719 C   0  0  0  0  0  0  0  0  0  0  0  0
  -28.3434   -5.2418   -9.3383 H   0  0  0  0  0  0  0  0  0  0  0  0
  -29.0556   -1.1953   -5.3786 C   0  0  0  0  0  0  0  0  0  0  0  0
  -30.2163   -0.4506   -5.6595 C   0  0  0  0  0  0  0  0  0  0  0  0
  -30.2599    0.9203   -5.3913 C   0  0  0  0  0  0  0  0  0  0  0  0
  -29.1527    1.5574   -4.8294 C   0  0  0  0  0  0  0  0  0  0  0  0
  -28.0080    0.8224   -4.5323 C   0  0  0  0  0  0  0  0  0  0  0  0
  -27.9601   -0.5510   -4.7954 C   0  0  0  0  0  0  0  0  0  0  0  0
  -26.1323   -1.3234  -11.8186 C   0  0  0  0  0  0  0  0  0  0  0  0
  -26.6813   -1.6002  -12.8755 O   0  0  0  0  0  0  0  0  0  0  0  0
  -23.8587   -1.7861  -11.8156 C   0  0  0  0  0  0  0  0  0  0  0  0
  -24.8893   -0.8005  -11.6907 O   0  0  0  0  0  0  0  0  0  0  0  0
  -29.5015   -3.3999   -4.6018 N   0  0  0  0  0  0  0  0  0  0  0  0
  -30.3080   -2.9929   -4.1365 H   0  0  0  0  0  0  0  0  0  0  0  0
  -29.2074   -4.7275   -4.2248 C   0  0  0  0  0  0  0  0  0  0  0  0
  -27.9113   -5.2493   -4.2661 C   0  0  0  0  0  0  0  0  0  0  0  0
  -27.6762   -6.6381   -4.2449 C   0  0  0  0  0  0  0  0  0  0  0  0
  -28.7359   -7.5375   -4.2032 C   0  0  0  0  0  0  0  0  0  0  0  0
  -30.0182   -7.0080   -3.9435 C   0  0  0  0  0  0  0  0  0  0  0  0
  -30.2479   -5.6200   -3.9523 C   0  0  0  0  0  0  0  0  0  0  0  0
  -28.5927   -8.9507   -4.4800 N   0  0  0  0  0  0  0  0  0  0  0  0
  -28.3232   -9.8860   -3.4823 C   0  0  0  0  0  0  0  0  0  0  0  0
  -28.3622  -11.1596   -3.9881 C   0  0  0  0  0  0  0  0  0  0  0  0
  -28.6398  -11.0372   -5.3534 C   0  0  0  0  0  0  0  0  0  0  0  0
  -28.7471   -9.6871   -5.6749 C   0  0  0  0  0  0  0  0  0  0  0  0
  -28.9543   -9.1798   -7.0737 C   0  0  0  0  0  0  0  0  0  0  0  0
  -28.5616  -10.1434   -8.1464 N   0  0  0  0  0  0  0  0  0  0  0  0
  -29.4705   -9.9940   -9.3000 C   0  0  0  0  0  0  0  0  0  0  0  0
  -28.9694  -10.5597  -10.6385 C   0  0  0  0  0  0  0  0  0  0  0  0
  -27.5177  -10.2014  -10.9179 C   0  0  0  0  0  0  0  0  0  0  0  0
  -26.6734  -10.6455   -9.7388 C   0  0  0  0  0  0  0  0  0  0  0  0
  -27.1427   -9.9208   -8.4841 C   0  0  0  0  0  0  0  0  0  0  0  0
 21 22  1  0  0  0
 22 19  1  0  0  0
 19 20  2  0  0  0
 19  1  1  0  0  0
  1  2  1  0  0  0
  1  6  2  0  0  0
  2  3  2  0  0  0
  3  4  1  0  0  0
  4  5  2  0  0  0
  4 10  1  0  0  0
  5  6  1  0  0  0
  5  7  1  0  0  0
  7  8  1  0  0  0
  7 12  1  0  0  0
  8  9  2  0  0  0
  8 10  1  0  0  0
 10 11  2  0  0  0
 11 23  1  0  0  0
 11 13  1  0  0  0
 23 25  1  0  0  0
 23 24  1  0  0  0
 25 26  1  0  0  0
 25 30  2  0  0  0
 26 27  2  0  0  0
 27 28  1  0  0  0
 28 31  1  0  0  0
 28 29  2  0  0  0
 31 32  1  0  0  0
 31 35  1  0  0  0
 32 33  2  0  0  0
 33 34  1  0  0  0
 34 35  2  0  0  0
 35 36  1  0  0  0
 36 37  1  0  0  0
 37 38  1  0  0  0
 37 42  1  0  0  0
 38 39  1  0  0  0
 39 40  1  0  0  0
 40 41  1  0  0  0
 41 42  1  0  0  0
 29 30  1  0  0  0
 13 14  1  0  0  0
 13 18  2  0  0  0
 14 15  2  0  0  0
 15 16  1  0  0  0
 16 17  2  0  0  0
 17 18  1  0  0  0
M  END
> <minimizedAffinity>
-8.27174

$$$$
