CHEMBL374997


 43 47  0  0  0  0  0  0  0  0999 V2000
  -13.3360   -3.0484  -13.6127 C   0  0  0  0  0  0  0  0  0  0  0  0
  -13.9886   -1.8138  -13.7622 C   0  0  0  0  0  0  0  0  0  0  0  0
  -15.0403   -1.4236  -12.9201 C   0  0  0  0  0  0  0  0  0  0  0  0
  -15.4123   -2.2539  -11.8572 C   0  0  0  0  0  0  0  0  0  0  0  0
  -14.6960   -3.4413  -11.6266 C   0  0  0  0  0  0  0  0  0  0  0  0
  -13.6458   -3.8259  -12.4927 C   0  0  0  0  0  0  0  0  0  0  0  0
  -12.7794   -5.2683  -12.1169 Cl  0  0  0  0  0  0  0  0  0  0  0  0
  -15.8055   -0.1989  -13.3074 C   0  0  0  0  0  0  0  0  0  0  0  0
  -16.0642    0.6201  -12.4403 O   0  0  0  0  0  0  0  0  0  0  0  0
  -16.2241   -0.1055  -14.6151 N   0  0  0  0  0  0  0  0  0  0  0  0
  -16.3050   -0.9456  -15.1732 H   0  0  0  0  0  0  0  0  0  0  0  0
  -16.9461    1.0388  -15.0619 C   0  0  0  0  0  0  0  0  0  0  0  0
  -18.3366    1.0377  -14.8911 C   0  0  0  0  0  0  0  0  0  0  0  0
  -19.1018    2.1546  -15.2484 C   0  0  0  0  0  0  0  0  0  0  0  0
  -18.4494    3.2706  -15.7867 C   0  0  0  0  0  0  0  0  0  0  0  0
  -17.0548    3.2614  -15.9700 C   0  0  0  0  0  0  0  0  0  0  0  0
  -16.2704    2.1430  -15.6447 C   0  0  0  0  0  0  0  0  0  0  0  0
  -14.9147    2.1075  -15.9619 N   0  0  0  0  0  0  0  0  0  0  0  0
  -13.8720    2.6677  -15.1005 C   0  0  0  0  0  0  0  0  0  0  0  0
  -13.1671    3.8263  -15.8088 C   0  0  0  0  0  0  0  0  0  0  0  0
  -12.6805    3.4245  -17.2025 C   0  0  0  0  0  0  0  0  0  0  0  0
  -13.8169    2.8414  -18.0255 C   0  0  0  0  0  0  0  0  0  0  0  0
  -14.4927    1.6896  -17.2953 C   0  0  0  0  0  0  0  0  0  0  0  0
  -20.5959    2.1660  -15.0403 C   0  0  0  0  0  0  0  0  0  0  0  0
  -21.2237    3.1979  -15.6744 F   0  0  0  0  0  0  0  0  0  0  0  0
  -21.2038    1.0326  -15.4859 F   0  0  0  0  0  0  0  0  0  0  0  0
  -20.9391    2.2814  -13.7265 F   0  0  0  0  0  0  0  0  0  0  0  0
  -12.4110   -3.4696  -14.5617 O   0  0  0  0  0  0  0  0  0  0  0  0
  -13.3740   -4.7292  -16.4249 C   0  0  0  0  0  0  0  0  0  0  0  0
  -13.6359   -4.7091  -17.8158 C   0  0  0  0  0  0  0  0  0  0  0  0
  -13.4128   -3.5869  -18.5980 C   0  0  0  0  0  0  0  0  0  0  0  0
  -12.9519   -2.4542  -17.9572 C   0  0  0  0  0  0  0  0  0  0  0  0
  -12.7166   -2.3989  -16.6332 N   0  0  0  0  0  0  0  0  0  0  0  0
  -12.8636   -3.5380  -15.8941 C   0  0  0  0  0  0  0  0  0  0  0  0
  -15.2046   -6.8899  -14.1587 C   0  0  0  0  0  0  0  0  0  0  0  0
  -14.4273   -7.9521  -13.9456 N   0  0  0  0  0  0  0  0  0  0  0  0
  -13.2555   -7.9822  -14.6113 C   0  0  0  0  0  0  0  0  0  0  0  0
  -12.8478   -7.0092  -15.4916 C   0  0  0  0  0  0  0  0  0  0  0  0
  -13.7128   -5.9594  -15.6846 C   0  0  0  0  0  0  0  0  0  0  0  0
  -14.9054   -5.9219  -15.0316 N   0  0  0  0  0  0  0  0  0  0  0  0
  -16.9679   -5.4828  -13.2711 C   0  0  0  0  0  0  0  0  0  0  0  0
  -16.3180   -6.7644  -13.3565 N   0  0  0  0  0  0  0  0  0  0  0  0
  -16.8567   -7.6153  -13.3102 H   0  0  0  0  0  0  0  0  0  0  0  0
 41 42  1  0  0  0
 42 35  1  0  0  0
 42 43  1  0  0  0
 35 36  1  0  0  0
 35 40  2  0  0  0
 36 37  2  0  0  0
 37 38  1  0  0  0
 38 39  2  0  0  0
 39 29  1  0  0  0
 39 40  1  0  0  0
 29 30  1  0  0  0
 29 34  2  0  0  0
 30 31  2  0  0  0
 31 32  1  0  0  0
 32 33  2  0  0  0
 33 34  1  0  0  0
 34 28  1  0  0  0
 28  1  1  0  0  0
  1  2  1  0  0  0
  1  6  2  0  0  0
  2  3  2  0  0  0
  3  8  1  0  0  0
  3  4  1  0  0  0
  8  9  2  0  0  0
  8 10  1  0  0  0
 10 12  1  0  0  0
 10 11  1  0  0  0
 12 13  1  0  0  0
 12 17  2  0  0  0
 13 14  2  0  0  0
 14 24  1  0  0  0
 14 15  1  0  0  0
 24 25  1  0  0  0
 24 26  1  0  0  0
 24 27  1  0  0  0
 15 16  2  0  0  0
 16 17  1  0  0  0
 17 18  1  0  0  0
 18 19  1  0  0  0
 18 23  1  0  0  0
 19 20  1  0  0  0
 20 21  1  0  0  0
 21 22  1  0  0  0
 22 23  1  0  0  0
  4  5  2  0  0  0
  5  6  1  0  0  0
  6  7  1  0  0  0
M  END
> <minimizedAffinity>
-9.39807

$$$$
