CHEMBL3696071


 34 36  0  0  0  0  0  0  0  0999 V2000
  -29.9192   -5.1945   -5.4364 C   0  0  0  0  0  0  0  0  0  0  0  0
  -30.1666   -3.9598   -4.6878 C   0  0  0  0  0  0  0  0  0  0  0  0
  -31.0800   -4.0531   -3.7191 N   0  0  0  0  0  0  0  0  0  0  0  0
  -31.7072   -5.5675   -3.6982 S   0  0  0  0  0  0  0  0  0  0  0  0
  -30.7830   -6.1895   -4.9877 C   0  0  0  0  0  0  0  0  0  0  0  0
  -29.5211   -2.6547   -4.8979 C   0  0  0  0  0  0  0  0  0  0  0  0
  -28.1824   -2.4576   -4.5468 C   0  0  0  0  0  0  0  0  0  0  0  0
  -27.6167   -1.1846   -4.6117 C   0  0  0  0  0  0  0  0  0  0  0  0
  -28.3723   -0.0912   -5.0316 C   0  0  0  0  0  0  0  0  0  0  0  0
  -27.7774    1.1728   -5.1367 N   0  0  0  0  0  0  0  0  0  0  0  0
  -29.6508   -0.3186   -5.5440 C   0  0  0  0  0  0  0  0  0  0  0  0
  -30.2329   -1.5890   -5.4574 C   0  0  0  0  0  0  0  0  0  0  0  0
  -27.0494    1.3168   -4.4416 H   0  0  0  0  0  0  0  0  0  0  0  0
  -28.4553    1.9288   -5.1284 H   0  0  0  0  0  0  0  0  0  0  0  0
  -30.8920   -7.5176   -5.3835 N   0  0  0  0  0  0  0  0  0  0  0  0
  -31.3441   -7.9136   -6.6250 C   0  0  0  0  0  0  0  0  0  0  0  0
  -31.6088   -7.1809   -7.5707 O   0  0  0  0  0  0  0  0  0  0  0  0
  -31.5067   -9.2809   -6.7197 N   0  0  0  0  0  0  0  0  0  0  0  0
  -30.5732   -8.2336   -4.7401 H   0  0  0  0  0  0  0  0  0  0  0  0
  -30.8710   -9.8626   -6.1947 H   0  0  0  0  0  0  0  0  0  0  0  0
  -32.0176   -9.7975   -7.9768 C   0  0  0  0  0  0  0  0  0  0  0  0
  -31.3255  -11.0621   -8.4611 C   0  0  0  0  0  0  0  0  0  0  0  0
  -29.8132  -10.8785   -8.6497 C   0  0  0  0  0  0  0  0  0  0  0  0
  -29.5150   -9.7467   -9.5366 N   0  0  0  0  0  0  0  0  0  0  0  0
  -29.0405  -10.1391  -10.8825 C   0  0  0  0  0  0  0  0  0  0  0  0
  -27.5628  -10.5579  -10.9460 C   0  0  0  0  0  0  0  0  0  0  0  0
  -26.7160   -9.5259  -10.4307 O   0  0  0  0  0  0  0  0  0  0  0  0
  -27.0599   -9.2386   -9.0716 C   0  0  0  0  0  0  0  0  0  0  0  0
  -28.5330   -8.8154   -8.9365 C   0  0  0  0  0  0  0  0  0  0  0  0
  -28.0052   -6.3717   -6.2879 N   0  0  0  0  0  0  0  0  0  0  0  0
  -28.9182   -5.3662   -6.4799 C   0  0  0  0  0  0  0  0  0  0  0  0
  -28.8675   -4.7057   -7.5094 O   0  0  0  0  0  0  0  0  0  0  0  0
  -27.4597   -6.5877   -7.1168 H   0  0  0  0  0  0  0  0  0  0  0  0
  -28.2330   -7.1445   -5.6801 H   0  0  0  0  0  0  0  0  0  0  0  0
 30 31  1  0  0  0
 30 33  1  0  0  0
 30 34  1  0  0  0
 31 32  2  0  0  0
 31  1  1  0  0  0
  1  2  1  0  0  0
  1  5  2  0  0  0
  2  6  1  0  0  0
  2  3  2  0  0  0
  6  7  1  0  0  0
  6 12  2  0  0  0
  7  8  2  0  0  0
  8  9  1  0  0  0
  9 10  1  0  0  0
  9 11  2  0  0  0
 10 13  1  0  0  0
 10 14  1  0  0  0
 11 12  1  0  0  0
  3  4  1  0  0  0
  4  5  1  0  0  0
  5 15  1  0  0  0
 15 16  1  0  0  0
 15 19  1  0  0  0
 16 17  2  0  0  0
 16 18  1  0  0  0
 18 21  1  0  0  0
 18 20  1  0  0  0
 21 22  1  0  0  0
 22 23  1  0  0  0
 23 24  1  0  0  0
 24 25  1  0  0  0
 24 29  1  0  0  0
 25 26  1  0  0  0
 26 27  1  0  0  0
 27 28  1  0  0  0
 28 29  1  0  0  0
M  END
> <minimizedAffinity>
-8.07169

$$$$
