CHEMBL201906


 26 28  0  0  0  0  0  0  0  0999 V2000
  -14.8335   -1.0429  -14.3716 N   0  0  0  0  0  0  0  0  0  0  0  0
  -14.8891    0.1724  -13.6926 C   0  0  0  0  0  0  0  0  0  0  0  0
  -15.0026    0.2638  -12.4761 O   0  0  0  0  0  0  0  0  0  0  0  0
  -14.7387   -0.9881  -15.3767 H   0  0  0  0  0  0  0  0  0  0  0  0
  -15.0134   -4.9669  -12.7349 C   0  0  0  0  0  0  0  0  0  0  0  0
  -13.7777   -4.3575  -12.9709 C   0  0  0  0  0  0  0  0  0  0  0  0
  -13.7010   -3.0637  -13.4957 C   0  0  0  0  0  0  0  0  0  0  0  0
  -14.8525   -2.3392  -13.8052 C   0  0  0  0  0  0  0  0  0  0  0  0
  -16.0941   -2.9353  -13.5519 C   0  0  0  0  0  0  0  0  0  0  0  0
  -16.1736   -4.2317  -13.0204 C   0  0  0  0  0  0  0  0  0  0  0  0
  -15.1153   -7.4225  -13.3086 C   0  0  0  0  0  0  0  0  0  0  0  0
  -15.0559   -6.3827  -12.1887 C   0  0  0  0  0  0  0  0  0  0  0  0
  -13.8819   -6.6709  -11.2498 C   0  0  0  0  0  0  0  0  0  0  0  0
  -14.7898    1.3707  -14.5214 C   0  0  0  0  0  0  0  0  0  0  0  0
  -13.3425    2.2918  -14.6329 S   0  0  0  0  0  0  0  0  0  0  0  0
  -14.1414    3.4132  -15.6433 C   0  0  0  0  0  0  0  0  0  0  0  0
  -15.3914    3.1404  -15.9344 N   0  0  0  0  0  0  0  0  0  0  0  0
  -15.7834    1.9631  -15.3028 C   0  0  0  0  0  0  0  0  0  0  0  0
  -17.2178    1.5128  -15.4506 C   0  0  0  0  0  0  0  0  0  0  0  0
  -18.2268    2.6445  -15.6834 C   0  0  0  0  0  0  0  0  0  0  0  0
  -19.5988    2.3128  -15.1343 C   0  0  0  0  0  0  0  0  0  0  0  0
  -20.4764    3.3318  -14.7519 C   0  0  0  0  0  0  0  0  0  0  0  0
  -21.7268    2.9881  -14.2559 C   0  0  0  0  0  0  0  0  0  0  0  0
  -22.1555    1.7178  -14.1115 N   0  0  0  0  0  0  0  0  0  0  0  0
  -21.2919    0.7463  -14.4777 C   0  0  0  0  0  0  0  0  0  0  0  0
  -20.0205    0.9888  -14.9827 C   0  0  0  0  0  0  0  0  0  0  0  0
 11 12  1  0  0  0
 12 13  1  0  0  0
 12  5  1  0  0  0
  5  6  1  0  0  0
  5 10  2  0  0  0
  6  7  2  0  0  0
  7  8  1  0  0  0
  8  1  1  0  0  0
  8  9  2  0  0  0
  1  2  1  0  0  0
  1  4  1  0  0  0
  2  3  2  0  0  0
  2 14  1  0  0  0
 14 15  1  0  0  0
 14 18  2  0  0  0
 15 16  1  0  0  0
 16 17  2  0  0  0
 17 18  1  0  0  0
 18 19  1  0  0  0
 19 20  1  0  0  0
 20 21  1  0  0  0
 21 22  1  0  0  0
 21 26  2  0  0  0
 22 23  2  0  0  0
 23 24  1  0  0  0
 24 25  2  0  0  0
 25 26  1  0  0  0
  9 10  1  0  0  0
M  END
> <minimizedAffinity>
-8.16949

$$$$
