CHEMBL4173279


 29 32  0  0  0  0  0  0  0  0999 V2000
  -29.8303   -7.0325   -3.9649 C   0  0  0  0  0  0  0  0  0  0  0  0
  -29.8757   -5.9622   -4.9452 N   0  0  0  0  0  0  0  0  0  0  0  0
  -30.2528   -6.0584   -6.2692 C   0  0  0  0  0  0  0  0  0  0  0  0
  -30.1193   -4.8925   -6.8774 N   0  0  0  0  0  0  0  0  0  0  0  0
  -29.6261   -4.0283   -5.9367 C   0  0  0  0  0  0  0  0  0  0  0  0
  -29.2979   -2.6696   -6.0617 C   0  0  0  0  0  0  0  0  0  0  0  0
  -28.7874   -1.9922   -4.9490 C   0  0  0  0  0  0  0  0  0  0  0  0
  -28.6003   -2.6559   -3.7370 C   0  0  0  0  0  0  0  0  0  0  0  0
  -28.9222   -4.0108   -3.5935 C   0  0  0  0  0  0  0  0  0  0  0  0
  -29.4438   -4.6689   -4.7156 C   0  0  0  0  0  0  0  0  0  0  0  0
  -30.7220   -7.2364   -6.9434 C   0  0  0  0  0  0  0  0  0  0  0  0
  -30.0229   -8.0443   -7.8282 C   0  0  0  0  0  0  0  0  0  0  0  0
  -30.9024   -9.0720   -8.2474 C   0  0  0  0  0  0  0  0  0  0  0  0
  -32.0865   -8.8409   -7.5958 C   0  0  0  0  0  0  0  0  0  0  0  0
  -31.9838   -7.7508   -6.8019 O   0  0  0  0  0  0  0  0  0  0  0  0
  -27.0431   -9.6696   -4.0446 C   0  0  0  0  0  0  0  0  0  0  0  0
  -26.5077   -8.5330   -4.4281 N   0  0  0  0  0  0  0  0  0  0  0  0
  -27.4391   -7.5178   -4.4920 N   0  0  0  0  0  0  0  0  0  0  0  0
  -28.6484   -7.9228   -4.1572 C   0  0  0  0  0  0  0  0  0  0  0  0
  -28.7369   -9.6093   -3.8088 S   0  0  0  0  0  0  0  0  0  0  0  0
  -26.0835  -11.0958   -3.7537 S   0  0  0  0  0  0  0  0  0  0  0  0
  -24.5295  -10.3016   -3.2428 C   0  0  0  0  0  0  0  0  0  0  0  0
  -22.6671   -9.1672   -6.3004 N   0  0  0  0  0  0  0  0  0  0  0  0
  -23.5837   -9.2627   -5.2334 N   0  0  0  0  0  0  0  0  0  0  0  0
  -23.5449  -10.3737   -4.3928 C   0  0  0  0  0  0  0  0  0  0  0  0
  -22.8086  -11.3412   -4.5834 O   0  0  0  0  0  0  0  0  0  0  0  0
  -23.1682   -8.8799   -7.1435 H   0  0  0  0  0  0  0  0  0  0  0  0
  -22.3325  -10.1208   -6.4986 H   0  0  0  0  0  0  0  0  0  0  0  0
  -24.1153   -8.4360   -4.9670 H   0  0  0  0  0  0  0  0  0  0  0  0
 23 24  1  0  0  0
 23 27  1  0  0  0
 23 28  1  0  0  0
 24 25  1  0  0  0
 24 29  1  0  0  0
 25 26  2  0  0  0
 25 22  1  0  0  0
 22 21  1  0  0  0
 21 16  1  0  0  0
 16 17  2  0  0  0
 16 20  1  0  0  0
 17 18  1  0  0  0
 18 19  2  0  0  0
 19  1  1  0  0  0
 19 20  1  0  0  0
  1  2  1  0  0  0
  2  3  1  0  0  0
  2 10  1  0  0  0
  3 11  1  0  0  0
  3  4  2  0  0  0
 11 12  2  0  0  0
 11 15  1  0  0  0
 12 13  1  0  0  0
 13 14  2  0  0  0
 14 15  1  0  0  0
  4  5  1  0  0  0
  5  6  1  0  0  0
  5 10  2  0  0  0
  6  7  2  0  0  0
  7  8  1  0  0  0
  8  9  2  0  0  0
  9 10  1  0  0  0
M  END
> <minimizedAffinity>
-7.61836

$$$$
