CHEMBL398951


 32 36  0  0  0  0  0  0  0  0999 V2000
  -28.4559   -4.8190   -5.3091 C   0  0  0  0  0  0  0  0  0  0  0  0
  -28.1017   -5.3246   -4.1030 N   0  0  0  0  0  0  0  0  0  0  0  0
  -28.1207   -6.6737   -4.2617 N   0  0  0  0  0  0  0  0  0  0  0  0
  -28.4445   -7.0157   -5.5193 C   0  0  0  0  0  0  0  0  0  0  0  0
  -28.6584   -5.8664   -6.2250 C   0  0  0  0  0  0  0  0  0  0  0  0
  -28.9951   -6.1017   -7.6580 C   0  0  0  0  0  0  0  0  0  0  0  0
  -28.9247   -7.6375   -7.6250 C   0  0  0  0  0  0  0  0  0  0  0  0
  -29.1422   -8.4942   -8.6869 C   0  0  0  0  0  0  0  0  0  0  0  0
  -29.0264   -9.8697   -8.4539 C   0  0  0  0  0  0  0  0  0  0  0  0
  -28.6963  -10.3741   -7.1747 C   0  0  0  0  0  0  0  0  0  0  0  0
  -28.4953   -9.5078   -6.0972 C   0  0  0  0  0  0  0  0  0  0  0  0
  -28.6031   -8.1596   -6.3431 C   0  0  0  0  0  0  0  0  0  0  0  0
  -27.8937   -7.2658   -3.4690 H   0  0  0  0  0  0  0  0  0  0  0  0
  -28.8011   -0.6883   -6.0597 C   0  0  0  0  0  0  0  0  0  0  0  0
  -29.4586   -1.2080   -4.9504 C   0  0  0  0  0  0  0  0  0  0  0  0
  -29.3442   -2.5752   -4.6888 C   0  0  0  0  0  0  0  0  0  0  0  0
  -28.5827   -3.3851   -5.5341 C   0  0  0  0  0  0  0  0  0  0  0  0
  -27.9591   -2.7637   -6.6131 C   0  0  0  0  0  0  0  0  0  0  0  0
  -28.0434   -1.4387   -6.8937 N   0  0  0  0  0  0  0  0  0  0  0  0
  -28.9542    1.8408   -6.6365 N   0  0  0  0  0  0  0  0  0  0  0  0
  -28.9060    0.7104   -6.3883 C   0  0  0  0  0  0  0  0  0  0  0  0
  -28.5844  -11.7075   -6.8629 O   0  0  0  0  0  0  0  0  0  0  0  0
  -27.2937  -12.1000   -6.4042 C   0  0  0  0  0  0  0  0  0  0  0  0
  -26.3464  -12.2432   -7.5930 C   0  0  0  0  0  0  0  0  0  0  0  0
  -25.2297  -11.1914   -7.5579 C   0  0  0  0  0  0  0  0  0  0  0  0
  -23.8570  -11.7639   -7.1593 C   0  0  0  0  0  0  0  0  0  0  0  0
  -22.8864  -10.7475   -6.7256 N   0  0  0  0  0  0  0  0  0  0  0  0
  -21.6225  -11.2886   -6.1790 C   0  0  0  0  0  0  0  0  0  0  0  0
  -21.7070  -11.8739   -4.7554 C   0  0  0  0  0  0  0  0  0  0  0  0
  -22.3476  -10.9902   -3.8279 O   0  0  0  0  0  0  0  0  0  0  0  0
  -23.6168  -10.5434   -4.3148 C   0  0  0  0  0  0  0  0  0  0  0  0
  -23.4706   -9.8639   -5.6872 C   0  0  0  0  0  0  0  0  0  0  0  0
 20 21  3  0  0  0
 21 14  1  0  0  0
 14 15  1  0  0  0
 14 19  2  0  0  0
 15 16  2  0  0  0
 16 17  1  0  0  0
 17  1  1  0  0  0
 17 18  2  0  0  0
  1  2  2  0  0  0
  1  5  1  0  0  0
  2  3  1  0  0  0
  3  4  1  0  0  0
  3 13  1  0  0  0
  4  5  2  0  0  0
  4 12  1  0  0  0
  5  6  1  0  0  0
  6  7  1  0  0  0
  7  8  1  0  0  0
  7 12  2  0  0  0
  8  9  2  0  0  0
  9 10  1  0  0  0
 10 22  1  0  0  0
 10 11  2  0  0  0
 22 23  1  0  0  0
 23 24  1  0  0  0
 24 25  1  0  0  0
 25 26  1  0  0  0
 26 27  1  0  0  0
 27 28  1  0  0  0
 27 32  1  0  0  0
 28 29  1  0  0  0
 29 30  1  0  0  0
 30 31  1  0  0  0
 31 32  1  0  0  0
 11 12  1  0  0  0
 18 19  1  0  0  0
M  END
> <minimizedAffinity>
-7.67255

$$$$
