CHEMBL186001


 22 24  0  0  0  0  0  0  0  0999 V2000
  -24.0302   10.3905  -16.3895 N   0  0  0  0  0  0  0  0  0  0  0  0
  -23.9601    9.3984  -16.2210 H   0  0  0  0  0  0  0  0  0  0  0  0
  -24.6232   11.1387  -15.3917 C   0  0  0  0  0  0  0  0  0  0  0  0
  -23.8971   11.8835  -14.6070 N   0  0  0  0  0  0  0  0  0  0  0  0
  -24.4820   12.5956  -13.6002 C   0  0  0  0  0  0  0  0  0  0  0  0
  -25.7426   12.6586  -13.3237 N   0  0  0  0  0  0  0  0  0  0  0  0
  -26.5057   11.9142  -14.1359 N   0  0  0  0  0  0  0  0  0  0  0  0
  -27.8654   11.8366  -14.0759 C   0  0  0  0  0  0  0  0  0  0  0  0
  -28.3073   10.9932  -15.0749 C   0  0  0  0  0  0  0  0  0  0  0  0
  -29.7282   10.6514  -15.3557 C   0  0  0  0  0  0  0  0  0  0  0  0
  -27.1379   10.5372  -15.7796 C   0  0  0  0  0  0  0  0  0  0  0  0
  -27.1303    9.6352  -16.9612 C   0  0  0  0  0  0  0  0  0  0  0  0
  -26.0454   11.1329  -15.1552 C   0  0  0  0  0  0  0  0  0  0  0  0
  -20.9334   12.3893  -20.7979 C   0  0  0  0  0  0  0  0  0  0  0  0
  -21.7464   11.8801  -19.6442 C   0  0  0  0  0  0  0  0  0  0  0  0
  -21.1144   11.4390  -18.4804 C   0  0  0  0  0  0  0  0  0  0  0  0
  -21.8673   10.9552  -17.4074 C   0  0  0  0  0  0  0  0  0  0  0  0
  -23.2669   10.8964  -17.4604 C   0  0  0  0  0  0  0  0  0  0  0  0
  -23.8998   11.3500  -18.6264 C   0  0  0  0  0  0  0  0  0  0  0  0
  -23.1418   11.8323  -19.7005 C   0  0  0  0  0  0  0  0  0  0  0  0
  -23.7573   12.2701  -20.8418 O   0  0  0  0  0  0  0  0  0  0  0  0
  -24.7164   12.1607  -20.7455 H   0  0  0  0  0  0  0  0  0  0  0  0
 14 15  1  0  0  0
 15 16  1  0  0  0
 15 20  2  0  0  0
 16 17  2  0  0  0
 17 18  1  0  0  0
 18  1  1  0  0  0
 18 19  2  0  0  0
  1  3  1  0  0  0
  1  2  1  0  0  0
  3  4  2  0  0  0
  3 13  1  0  0  0
  4  5  1  0  0  0
  5  6  2  0  0  0
  6  7  1  0  0  0
  7  8  1  0  0  0
  7 13  1  0  0  0
  8  9  2  0  0  0
  9 10  1  0  0  0
  9 11  1  0  0  0
 11 12  1  0  0  0
 11 13  2  0  0  0
 19 20  1  0  0  0
 20 21  1  0  0  0
 21 22  1  0  0  0
M  END
> <minimizedAffinity>
-6.18748

$$$$
