CHEMBL234065


 28 30  0  0  0  0  0  0  0  0999 V2000
  -26.6290   12.0869  -14.6014 C   0  0  0  0  0  0  0  0  0  0  0  0
  -27.9116   12.1134  -15.0412 N   0  0  0  0  0  0  0  0  0  0  0  0
  -28.9089   12.3836  -14.1821 C   0  0  0  0  0  0  0  0  0  0  0  0
  -28.7041   12.6588  -12.8906 N   0  0  0  0  0  0  0  0  0  0  0  0
  -27.4236   12.6327  -12.4673 C   0  0  0  0  0  0  0  0  0  0  0  0
  -26.3385   12.3629  -13.2763 C   0  0  0  0  0  0  0  0  0  0  0  0
  -23.7239   10.9437  -17.6132 C   0  0  0  0  0  0  0  0  0  0  0  0
  -24.5668    9.9949  -17.0442 C   0  0  0  0  0  0  0  0  0  0  0  0
  -25.5147   10.3823  -16.0812 C   0  0  0  0  0  0  0  0  0  0  0  0
  -25.6513   11.7229  -15.6608 C   0  0  0  0  0  0  0  0  0  0  0  0
  -24.7830   12.6548  -16.2501 C   0  0  0  0  0  0  0  0  0  0  0  0
  -23.8489   12.2731  -17.2211 C   0  0  0  0  0  0  0  0  0  0  0  0
  -21.5342   11.4412  -18.3986 C   0  0  0  0  0  0  0  0  0  0  0  0
  -22.7464   10.7127  -18.5391 O   0  0  0  0  0  0  0  0  0  0  0  0
  -30.2268   12.3906  -14.6331 N   0  0  0  0  0  0  0  0  0  0  0  0
  -30.4906   13.3213  -14.9252 H   0  0  0  0  0  0  0  0  0  0  0  0
  -31.2834   11.5966  -14.1586 C   0  0  0  0  0  0  0  0  0  0  0  0
  -32.5885   11.7186  -14.6524 C   0  0  0  0  0  0  0  0  0  0  0  0
  -33.6389   10.9741  -14.1128 C   0  0  0  0  0  0  0  0  0  0  0  0
  -33.4052   10.0974  -13.0512 C   0  0  0  0  0  0  0  0  0  0  0  0
  -32.0928    9.9297  -12.5888 C   0  0  0  0  0  0  0  0  0  0  0  0
  -31.0412   10.6631  -13.1469 C   0  0  0  0  0  0  0  0  0  0  0  0
  -34.5494    9.3614  -12.3962 C   0  0  0  0  0  0  0  0  0  0  0  0
  -34.1105    8.1767  -11.5387 C   0  0  0  0  0  0  0  0  0  0  0  0
  -34.9556    7.0479  -11.7331 O   0  0  0  0  0  0  0  0  0  0  0  0
  -35.8237    7.2824  -11.3581 H   0  0  0  0  0  0  0  0  0  0  0  0
  -25.0333   12.3879  -12.7134 C   0  0  0  0  0  0  0  0  0  0  0  0
  -23.9786   12.4441  -12.2330 N   0  0  0  0  0  0  0  0  0  0  0  0
 13 14  1  0  0  0
 14  7  1  0  0  0
  7  8  1  0  0  0
  7 12  2  0  0  0
  8  9  2  0  0  0
  9 10  1  0  0  0
 10  1  1  0  0  0
 10 11  2  0  0  0
  1  2  1  0  0  0
  1  6  2  0  0  0
  2  3  2  0  0  0
  3 15  1  0  0  0
  3  4  1  0  0  0
 15 17  1  0  0  0
 15 16  1  0  0  0
 17 18  1  0  0  0
 17 22  2  0  0  0
 18 19  2  0  0  0
 19 20  1  0  0  0
 20 23  1  0  0  0
 20 21  2  0  0  0
 23 24  1  0  0  0
 24 25  1  0  0  0
 25 26  1  0  0  0
 21 22  1  0  0  0
  4  5  2  0  0  0
  5  6  1  0  0  0
  6 27  1  0  0  0
 27 28  3  0  0  0
 11 12  1  0  0  0
M  END
> <minimizedAffinity>
-5.60897

$$$$
