CHEMBL248976


 31 34  0  0  0  0  0  0  0  0999 V2000
  -29.4273   -7.9572   -3.3678 O   0  0  0  0  0  0  0  0  0  0  0  0
  -28.3551   -8.1342   -3.9415 C   0  0  0  0  0  0  0  0  0  0  0  0
  -27.6560   -7.2040   -4.6870 N   0  0  0  0  0  0  0  0  0  0  0  0
  -26.8179   -7.5448   -5.1511 H   0  0  0  0  0  0  0  0  0  0  0  0
  -28.0445   -5.8762   -4.9395 C   0  0  0  0  0  0  0  0  0  0  0  0
  -28.7526   -5.4890   -6.0751 C   0  0  0  0  0  0  0  0  0  0  0  0
  -29.0210   -4.1428   -6.3278 C   0  0  0  0  0  0  0  0  0  0  0  0
  -28.6114   -3.1318   -5.4476 C   0  0  0  0  0  0  0  0  0  0  0  0
  -27.9727   -3.5436   -4.2636 C   0  0  0  0  0  0  0  0  0  0  0  0
  -27.6830   -4.8960   -4.0161 C   0  0  0  0  0  0  0  0  0  0  0  0
  -28.7896   -1.7017   -5.7974 C   0  0  0  0  0  0  0  0  0  0  0  0
  -27.9279   -1.0467   -6.6988 C   0  0  0  0  0  0  0  0  0  0  0  0
  -28.0438    0.3231   -6.9561 C   0  0  0  0  0  0  0  0  0  0  0  0
  -29.0394    1.0674   -6.3329 C   0  0  0  0  0  0  0  0  0  0  0  0
  -29.9140    0.4455   -5.4535 C   0  0  0  0  0  0  0  0  0  0  0  0
  -29.7866   -0.9208   -5.1829 C   0  0  0  0  0  0  0  0  0  0  0  0
  -27.7316   -9.4738   -3.7950 C   0  0  0  0  0  0  0  0  0  0  0  0
  -26.3529   -9.4835   -3.5086 C   0  0  0  0  0  0  0  0  0  0  0  0
  -25.6805  -10.6830   -3.3548 C   0  0  0  0  0  0  0  0  0  0  0  0
  -26.4125  -11.8409   -3.4942 C   0  0  0  0  0  0  0  0  0  0  0  0
  -27.7325  -11.8699   -3.7976 N   0  0  0  0  0  0  0  0  0  0  0  0
  -28.3964  -10.6984   -3.9528 C   0  0  0  0  0  0  0  0  0  0  0  0
  -29.7855  -10.7482   -4.2368 N   0  0  0  0  0  0  0  0  0  0  0  0
  -30.2244  -11.3192   -3.5127 H   0  0  0  0  0  0  0  0  0  0  0  0
  -30.0688  -11.2796   -5.5701 C   0  0  0  0  0  0  0  0  0  0  0  0
  -29.8363  -10.2253   -6.6287 C   0  0  0  0  0  0  0  0  0  0  0  0
  -30.7364   -9.1722   -6.8065 C   0  0  0  0  0  0  0  0  0  0  0  0
  -30.4276   -8.1858   -7.7320 C   0  0  0  0  0  0  0  0  0  0  0  0
  -29.3072   -8.1829   -8.4825 N   0  0  0  0  0  0  0  0  0  0  0  0
  -28.4601   -9.2165   -8.3090 C   0  0  0  0  0  0  0  0  0  0  0  0
  -28.6789  -10.2501   -7.4114 C   0  0  0  0  0  0  0  0  0  0  0  0
  1  2  2  0  0  0
  2  3  1  0  0  0
  2 17  1  0  0  0
  3  5  1  0  0  0
  3  4  1  0  0  0
  5  6  1  0  0  0
  5 10  2  0  0  0
  6  7  2  0  0  0
  7  8  1  0  0  0
  8 11  1  0  0  0
  8  9  2  0  0  0
 11 12  1  0  0  0
 11 16  2  0  0  0
 12 13  2  0  0  0
 13 14  1  0  0  0
 14 15  2  0  0  0
 15 16  1  0  0  0
  9 10  1  0  0  0
 17 18  1  0  0  0
 17 22  2  0  0  0
 18 19  2  0  0  0
 19 20  1  0  0  0
 20 21  2  0  0  0
 21 22  1  0  0  0
 22 23  1  0  0  0
 23 25  1  0  0  0
 23 24  1  0  0  0
 25 26  1  0  0  0
 26 27  1  0  0  0
 26 31  2  0  0  0
 27 28  2  0  0  0
 28 29  1  0  0  0
 29 30  2  0  0  0
 30 31  1  0  0  0
M  END
> <minimizedAffinity>
-8.46136

$$$$
