CHEMBL3827178


 38 43  0  0  0  0  0  0  0  0999 V2000
  -14.4928   -0.5587  -14.2443 C   0  0  0  0  0  0  0  0  0  0  0  0
  -15.1866    0.1424  -13.2523 C   0  0  0  0  0  0  0  0  0  0  0  0
  -15.7517   -0.5059  -12.1456 C   0  0  0  0  0  0  0  0  0  0  0  0
  -15.6170   -1.8957  -12.0926 C   0  0  0  0  0  0  0  0  0  0  0  0
  -16.0467   -2.8252  -11.1836 N   0  0  0  0  0  0  0  0  0  0  0  0
  -15.7734   -4.1014  -11.5214 N   0  0  0  0  0  0  0  0  0  0  0  0
  -15.0970   -3.9756  -12.6754 C   0  0  0  0  0  0  0  0  0  0  0  0
  -14.9609   -2.6248  -13.0758 C   0  0  0  0  0  0  0  0  0  0  0  0
  -14.3874   -1.9490  -14.1704 C   0  0  0  0  0  0  0  0  0  0  0  0
  -16.5481   -2.6543  -10.3194 H   0  0  0  0  0  0  0  0  0  0  0  0
  -14.6034   -5.1626  -13.4277 C   0  0  0  0  0  0  0  0  0  0  0  0
  -14.6623   -5.3444  -14.7329 N   0  0  0  0  0  0  0  0  0  0  0  0
  -14.1164   -6.5881  -14.9528 C   0  0  0  0  0  0  0  0  0  0  0  0
  -13.9248   -7.2916  -16.1548 C   0  0  0  0  0  0  0  0  0  0  0  0
  -13.3488   -8.5734  -16.1335 C   0  0  0  0  0  0  0  0  0  0  0  0
  -13.0031   -9.1209  -14.8809 C   0  0  0  0  0  0  0  0  0  0  0  0
  -13.1804   -8.4460  -13.6682 C   0  0  0  0  0  0  0  0  0  0  0  0
  -13.7309   -7.1756  -13.7515 C   0  0  0  0  0  0  0  0  0  0  0  0
  -14.0349   -6.2394  -12.8037 N   0  0  0  0  0  0  0  0  0  0  0  0
  -13.9063   -6.3105  -11.8051 H   0  0  0  0  0  0  0  0  0  0  0  0
  -13.1688   -9.3458  -17.2725 N   0  0  0  0  0  0  0  0  0  0  0  0
  -12.7443   -8.7513  -18.5488 C   0  0  0  0  0  0  0  0  0  0  0  0
  -13.2596   -9.6438  -19.7072 C   0  0  0  0  0  0  0  0  0  0  0  0
  -12.8107  -11.0544  -19.6025 N   0  0  0  0  0  0  0  0  0  0  0  0
  -13.4079  -11.8601  -20.6656 C   0  0  0  0  0  0  0  0  0  0  0  0
  -13.1888  -11.5958  -18.2751 C   0  0  0  0  0  0  0  0  0  0  0  0
  -12.6768  -10.7275  -17.1029 C   0  0  0  0  0  0  0  0  0  0  0  0
  -13.9936    0.2063  -15.2648 O   0  0  0  0  0  0  0  0  0  0  0  0
  -14.2532    0.4903  -17.6892 C   0  0  0  0  0  0  0  0  0  0  0  0
  -14.8959    0.6185  -16.3040 C   0  0  0  0  0  0  0  0  0  0  0  0
  -15.3353    2.0668  -16.1019 C   0  0  0  0  0  0  0  0  0  0  0  0
  -16.6810    2.3560  -15.7867 C   0  0  0  0  0  0  0  0  0  0  0  0
  -17.8871    1.1372  -15.5569 Cl  0  0  0  0  0  0  0  0  0  0  0  0
  -17.0971    3.6816  -15.6863 C   0  0  0  0  0  0  0  0  0  0  0  0
  -16.2875    4.7448  -15.8700 N   0  0  0  0  0  0  0  0  0  0  0  0
  -15.0023    4.4599  -16.1768 C   0  0  0  0  0  0  0  0  0  0  0  0
  -14.4864    3.1708  -16.3118 C   0  0  0  0  0  0  0  0  0  0  0  0
  -12.8316    3.0490  -16.7896 Cl  0  0  0  0  0  0  0  0  0  0  0  0
 29 30  1  0  0  0
 30 28  1  0  0  0
 30 31  1  0  0  0
 28  1  1  0  0  0
  1  2  1  0  0  0
  1  9  2  0  0  0
  2  3  2  0  0  0
  3  4  1  0  0  0
  4  5  1  0  0  0
  4  8  2  0  0  0
  5  6  1  0  0  0
  5 10  1  0  0  0
  6  7  2  0  0  0
  7 11  1  0  0  0
  7  8  1  0  0  0
 11 12  2  0  0  0
 11 19  1  0  0  0
 12 13  1  0  0  0
 13 14  1  0  0  0
 13 18  2  0  0  0
 14 15  2  0  0  0
 15 21  1  0  0  0
 15 16  1  0  0  0
 21 22  1  0  0  0
 21 27  1  0  0  0
 22 23  1  0  0  0
 23 24  1  0  0  0
 24 25  1  0  0  0
 24 26  1  0  0  0
 26 27  1  0  0  0
 16 17  2  0  0  0
 17 18  1  0  0  0
 18 19  1  0  0  0
 19 20  1  0  0  0
  8  9  1  0  0  0
 31 32  1  0  0  0
 31 37  2  0  0  0
 32 33  1  0  0  0
 32 34  2  0  0  0
 34 35  1  0  0  0
 35 36  2  0  0  0
 36 37  1  0  0  0
 37 38  1  0  0  0
M  END
> <minimizedAffinity>
-7.46710

$$$$
