CHEMBL3758363


 40 44  0  0  0  0  0  0  0  0999 V2000
  -28.3553   11.4050  -15.3544 C   0  0  0  0  0  0  0  0  0  0  0  0
  -27.0086   11.1271  -15.5904 C   0  0  0  0  0  0  0  0  0  0  0  0
  -25.9972   11.5830  -14.7227 C   0  0  0  0  0  0  0  0  0  0  0  0
  -24.6208   11.4727  -14.9946 C   0  0  0  0  0  0  0  0  0  0  0  0
  -23.6972   11.9000  -14.1174 N   0  0  0  0  0  0  0  0  0  0  0  0
  -24.1471   12.4531  -12.9891 C   0  0  0  0  0  0  0  0  0  0  0  0
  -25.4288   12.6587  -12.6615 N   0  0  0  0  0  0  0  0  0  0  0  0
  -26.3483   12.2361  -13.5366 C   0  0  0  0  0  0  0  0  0  0  0  0
  -27.6989   12.4440  -13.2693 C   0  0  0  0  0  0  0  0  0  0  0  0
  -28.7135   12.0172  -14.1425 C   0  0  0  0  0  0  0  0  0  0  0  0
  -29.1110   10.0092  -17.1564 C   0  0  0  0  0  0  0  0  0  0  0  0
  -29.3251   11.1027  -16.2677 O   0  0  0  0  0  0  0  0  0  0  0  0
  -24.1979   10.9505  -16.2493 N   0  0  0  0  0  0  0  0  0  0  0  0
  -24.4555    9.9724  -16.3175 H   0  0  0  0  0  0  0  0  0  0  0  0
  -22.9708   11.2231  -16.8912 C   0  0  0  0  0  0  0  0  0  0  0  0
  -22.9372   12.0920  -17.9837 C   0  0  0  0  0  0  0  0  0  0  0  0
  -21.7463   12.2986  -18.6950 C   0  0  0  0  0  0  0  0  0  0  0  0
  -20.5604   11.6683  -18.3179 C   0  0  0  0  0  0  0  0  0  0  0  0
  -20.5663   10.9006  -17.1519 C   0  0  0  0  0  0  0  0  0  0  0  0
  -21.7598   10.6919  -16.4439 C   0  0  0  0  0  0  0  0  0  0  0  0
  -19.3610   11.7365  -19.0646 N   0  0  0  0  0  0  0  0  0  0  0  0
  -19.0431   10.9578  -20.1728 C   0  0  0  0  0  0  0  0  0  0  0  0
  -19.8095   10.1778  -20.7338 O   0  0  0  0  0  0  0  0  0  0  0  0
  -18.6666   12.3953  -18.7382 H   0  0  0  0  0  0  0  0  0  0  0  0
  -17.6795   11.0913  -20.7491 C   0  0  0  0  0  0  0  0  0  0  0  0
  -16.9256   12.2733  -20.7220 C   0  0  0  0  0  0  0  0  0  0  0  0
  -15.6076   12.2787  -21.2115 C   0  0  0  0  0  0  0  0  0  0  0  0
  -15.0292   11.1099  -21.7270 C   0  0  0  0  0  0  0  0  0  0  0  0
  -13.6136   11.0815  -22.2254 C   0  0  0  0  0  0  0  0  0  0  0  0
  -15.7828    9.9347  -21.7537 C   0  0  0  0  0  0  0  0  0  0  0  0
  -17.0899    9.9279  -21.2689 C   0  0  0  0  0  0  0  0  0  0  0  0
  -29.9933   12.2684  -13.6835 O   0  0  0  0  0  0  0  0  0  0  0  0
  -30.5816   11.2010  -12.9252 C   0  0  0  0  0  0  0  0  0  0  0  0
  -32.1061   11.3712  -12.7557 C   0  0  0  0  0  0  0  0  0  0  0  0
  -32.8514   10.0873  -12.8655 N   0  0  0  0  0  0  0  0  0  0  0  0
  -33.2699    9.5840  -11.5447 C   0  0  0  0  0  0  0  0  0  0  0  0
  -34.0689    8.2824  -11.6183 C   0  0  0  0  0  0  0  0  0  0  0  0
  -35.2485    8.3979  -12.5685 C   0  0  0  0  0  0  0  0  0  0  0  0
  -34.7730    8.9152  -13.9193 C   0  0  0  0  0  0  0  0  0  0  0  0
  -34.0081   10.2346  -13.7650 C   0  0  0  0  0  0  0  0  0  0  0  0
 11 12  1  0  0  0
 12  1  1  0  0  0
  1  2  1  0  0  0
  1 10  2  0  0  0
  2  3  2  0  0  0
  3  4  1  0  0  0
  3  8  1  0  0  0
  4 13  1  0  0  0
  4  5  2  0  0  0
 13 15  1  0  0  0
 13 14  1  0  0  0
 15 16  1  0  0  0
 15 20  2  0  0  0
 16 17  2  0  0  0
 17 18  1  0  0  0
 18 21  1  0  0  0
 18 19  2  0  0  0
 21 22  1  0  0  0
 21 24  1  0  0  0
 22 23  2  0  0  0
 22 25  1  0  0  0
 25 26  1  0  0  0
 25 31  2  0  0  0
 26 27  2  0  0  0
 27 28  1  0  0  0
 28 29  1  0  0  0
 28 30  2  0  0  0
 30 31  1  0  0  0
 19 20  1  0  0  0
  5  6  1  0  0  0
  6  7  2  0  0  0
  7  8  1  0  0  0
  8  9  2  0  0  0
  9 10  1  0  0  0
 10 32  1  0  0  0
 32 33  1  0  0  0
 33 34  1  0  0  0
 34 35  1  0  0  0
 35 36  1  0  0  0
 35 40  1  0  0  0
 36 37  1  0  0  0
 37 38  1  0  0  0
 38 39  1  0  0  0
 39 40  1  0  0  0
M  END
> <minimizedAffinity>
-5.44142

$$$$
