CHEMBL3694693


 36 39  0  0  0  0  0  0  0  0999 V2000
  -25.1341   -1.2760  -11.9446 C   0  0  0  0  0  0  0  0  0  0  0  0
  -25.5825   -1.2459  -10.6211 C   0  0  0  0  0  0  0  0  0  0  0  0
  -26.9135   -1.5336  -10.2937 C   0  0  0  0  0  0  0  0  0  0  0  0
  -27.8077   -1.8174  -11.3293 C   0  0  0  0  0  0  0  0  0  0  0  0
  -27.3882   -1.8725  -12.6638 C   0  0  0  0  0  0  0  0  0  0  0  0
  -26.0424   -1.6018  -12.9613 C   0  0  0  0  0  0  0  0  0  0  0  0
  -27.3479   -1.4889   -8.8961 C   0  0  0  0  0  0  0  0  0  0  0  0
  -27.3690   -0.4210   -8.0112 C   0  0  0  0  0  0  0  0  0  0  0  0
  -27.8806   -0.7702   -6.7916 N   0  0  0  0  0  0  0  0  0  0  0  0
  -28.1541   -2.0505   -6.8902 C   0  0  0  0  0  0  0  0  0  0  0  0
  -28.7001   -2.9557   -5.9369 C   0  0  0  0  0  0  0  0  0  0  0  0
  -28.8864   -4.2635   -6.2392 C   0  0  0  0  0  0  0  0  0  0  0  0
  -28.5103   -4.7448   -7.5748 C   0  0  0  0  0  0  0  0  0  0  0  0
  -27.9782   -3.9029   -8.4695 C   0  0  0  0  0  0  0  0  0  0  0  0
  -27.8222   -2.5555   -8.1447 N   0  0  0  0  0  0  0  0  0  0  0  0
  -29.4401   -5.1828   -5.2181 C   0  0  0  0  0  0  0  0  0  0  0  0
  -28.7618   -6.3161   -4.9372 N   0  0  0  0  0  0  0  0  0  0  0  0
  -29.3079   -7.1221   -4.0116 C   0  0  0  0  0  0  0  0  0  0  0  0
  -30.4881   -6.8438   -3.3686 C   0  0  0  0  0  0  0  0  0  0  0  0
  -31.1011   -5.6682   -3.7203 C   0  0  0  0  0  0  0  0  0  0  0  0
  -30.6025   -4.8252   -4.6364 N   0  0  0  0  0  0  0  0  0  0  0  0
  -23.9287    1.2680  -12.9128 O   0  0  0  0  0  0  0  0  0  0  0  0
  -23.3133    0.2201  -12.7755 C   0  0  0  0  0  0  0  0  0  0  0  0
  -21.9681    0.1382  -13.0671 N   0  0  0  0  0  0  0  0  0  0  0  0
  -23.8038   -0.9838  -12.3168 N   0  0  0  0  0  0  0  0  0  0  0  0
  -21.6472   -0.7663  -13.3828 H   0  0  0  0  0  0  0  0  0  0  0  0
  -23.1262   -1.7204  -12.1933 H   0  0  0  0  0  0  0  0  0  0  0  0
  -21.3140    1.2969  -13.6906 C   0  0  0  0  0  0  0  0  0  0  0  0
  -20.3432    0.9549  -14.8294 C   0  0  0  0  0  0  0  0  0  0  0  0
  -19.0534    1.1469  -14.4644 F   0  0  0  0  0  0  0  0  0  0  0  0
  -20.4751   -0.3167  -15.2561 F   0  0  0  0  0  0  0  0  0  0  0  0
  -20.5711    1.7676  -15.8910 F   0  0  0  0  0  0  0  0  0  0  0  0
  -28.3857   -2.1817  -13.7517 C   0  0  0  0  0  0  0  0  0  0  0  0
  -28.6902   -3.5063  -13.8479 F   0  0  0  0  0  0  0  0  0  0  0  0
  -29.5705   -1.5390  -13.5637 F   0  0  0  0  0  0  0  0  0  0  0  0
  -27.9479   -1.8128  -14.9865 F   0  0  0  0  0  0  0  0  0  0  0  0
 22 23  2  0  0  0
 23 24  1  0  0  0
 23 25  1  0  0  0
 24 28  1  0  0  0
 24 26  1  0  0  0
 28 29  1  0  0  0
 29 30  1  0  0  0
 29 31  1  0  0  0
 29 32  1  0  0  0
 25  1  1  0  0  0
 25 27  1  0  0  0
  1  2  1  0  0  0
  1  6  2  0  0  0
  2  3  2  0  0  0
  3  7  1  0  0  0
  3  4  1  0  0  0
  7  8  2  0  0  0
  7 15  1  0  0  0
  8  9  1  0  0  0
  9 10  2  0  0  0
 10 11  1  0  0  0
 10 15  1  0  0  0
 11 12  2  0  0  0
 12 16  1  0  0  0
 12 13  1  0  0  0
 16 17  1  0  0  0
 16 21  2  0  0  0
 17 18  2  0  0  0
 18 19  1  0  0  0
 19 20  2  0  0  0
 20 21  1  0  0  0
 13 14  2  0  0  0
 14 15  1  0  0  0
  4  5  2  0  0  0
  5 33  1  0  0  0
  5  6  1  0  0  0
 33 34  1  0  0  0
 33 35  1  0  0  0
 33 36  1  0  0  0
M  END
> <minimizedAffinity>
-9.18207

$$$$
