CHEMBL3735648


 36 41  0  0  0  0  0  0  0  0999 V2000
  -17.0602    1.4290  -13.2783 C   0  0  0  0  0  0  0  0  0  0  0  0
  -16.5224    0.5451  -14.4256 C   0  0  0  0  0  0  0  0  0  0  0  0
  -17.6925   -0.1031  -15.1997 C   0  0  0  0  0  0  0  0  0  0  0  0
  -15.6433   -0.5836  -13.8603 C   0  0  0  0  0  0  0  0  0  0  0  0
  -16.1779   -1.4709  -12.9163 C   0  0  0  0  0  0  0  0  0  0  0  0
  -15.4251   -2.5274  -12.3876 C   0  0  0  0  0  0  0  0  0  0  0  0
  -14.1660   -2.7861  -12.9340 C   0  0  0  0  0  0  0  0  0  0  0  0
  -13.5844   -1.8958  -13.8201 C   0  0  0  0  0  0  0  0  0  0  0  0
  -14.3025   -0.7850  -14.2580 C   0  0  0  0  0  0  0  0  0  0  0  0
  -13.5852    0.1502  -15.1592 C   0  0  0  0  0  0  0  0  0  0  0  0
  -12.3923    0.0094  -15.4044 O   0  0  0  0  0  0  0  0  0  0  0  0
  -14.3900    1.2135  -15.7019 C   0  0  0  0  0  0  0  0  0  0  0  0
  -15.7127    1.3942  -15.3724 C   0  0  0  0  0  0  0  0  0  0  0  0
  -16.1749    2.4790  -16.0735 N   0  0  0  0  0  0  0  0  0  0  0  0
  -15.1637    2.9857  -16.8602 C   0  0  0  0  0  0  0  0  0  0  0  0
  -15.1644    4.0606  -17.7488 C   0  0  0  0  0  0  0  0  0  0  0  0
  -13.9662    4.3359  -18.4281 C   0  0  0  0  0  0  0  0  0  0  0  0
  -12.8181    3.5656  -18.2224 C   0  0  0  0  0  0  0  0  0  0  0  0
  -12.8375    2.5008  -17.3281 C   0  0  0  0  0  0  0  0  0  0  0  0
  -14.0290    2.2112  -16.6425 C   0  0  0  0  0  0  0  0  0  0  0  0
  -17.1166    2.8471  -16.0380 H   0  0  0  0  0  0  0  0  0  0  0  0
  -15.9938   -3.2673  -11.1880 C   0  0  0  0  0  0  0  0  0  0  0  0
  -14.9090   -3.4622  -10.1088 C   0  0  0  0  0  0  0  0  0  0  0  0
  -13.8738   -4.5207  -10.5036 C   0  0  0  0  0  0  0  0  0  0  0  0
  -14.4852   -5.8218  -10.8290 N   0  0  0  0  0  0  0  0  0  0  0  0
  -15.5972   -5.7175  -11.7782 C   0  0  0  0  0  0  0  0  0  0  0  0
  -16.6226   -4.6239  -11.4878 C   0  0  0  0  0  0  0  0  0  0  0  0
  -13.4451   -6.7443  -11.3453 C   0  0  0  0  0  0  0  0  0  0  0  0
  -13.5083   -7.0169  -12.8708 C   0  0  0  0  0  0  0  0  0  0  0  0
  -13.5088   -8.5198  -13.1929 C   0  0  0  0  0  0  0  0  0  0  0  0
  -13.2655   -8.7997  -14.6708 C   0  0  0  0  0  0  0  0  0  0  0  0
  -12.1277   -8.0911  -15.1556 O   0  0  0  0  0  0  0  0  0  0  0  0
  -12.3022   -6.6812  -15.0521 C   0  0  0  0  0  0  0  0  0  0  0  0
  -12.3769   -6.2727  -13.5900 C   0  0  0  0  0  0  0  0  0  0  0  0
  -13.9223    5.4224  -19.3468 C   0  0  0  0  0  0  0  0  0  0  0  0
  -13.8933    6.3097  -20.0990 N   0  0  0  0  0  0  0  0  0  0  0  0
  1  2  1  0  0  0
  2  3  1  0  0  0
  2  4  1  0  0  0
  2 13  1  0  0  0
  4  5  1  0  0  0
  4  9  2  0  0  0
  5  6  2  0  0  0
  6 22  1  0  0  0
  6  7  1  0  0  0
 22 23  1  0  0  0
 22 27  1  0  0  0
 23 24  1  0  0  0
 24 25  1  0  0  0
 25 28  1  0  0  0
 25 26  1  0  0  0
 28 29  1  0  0  0
 29 30  1  0  0  0
 29 34  1  0  0  0
 30 31  1  0  0  0
 31 32  1  0  0  0
 32 33  1  0  0  0
 33 34  1  0  0  0
 26 27  1  0  0  0
  7  8  2  0  0  0
  8  9  1  0  0  0
  9 10  1  0  0  0
 10 11  2  0  0  0
 10 12  1  0  0  0
 12 13  2  0  0  0
 12 20  1  0  0  0
 13 14  1  0  0  0
 14 15  1  0  0  0
 14 21  1  0  0  0
 15 16  1  0  0  0
 15 20  2  0  0  0
 16 17  2  0  0  0
 17 35  1  0  0  0
 17 18  1  0  0  0
 35 36  3  0  0  0
 18 19  2  0  0  0
 19 20  1  0  0  0
M  END
> <minimizedAffinity>
-8.55701

$$$$
