CHEMBL47832


 26 29  0  0  0  0  0  0  0  0999 V2000
  -28.5351   -6.5673   -7.0389 C   0  0  0  0  0  0  0  0  0  0  0  0
  -28.3362   -5.7901   -8.1112 N   0  0  0  0  0  0  0  0  0  0  0  0
  -28.7640   -4.5183   -8.0419 C   0  0  0  0  0  0  0  0  0  0  0  0
  -29.3826   -3.9889   -6.9387 C   0  0  0  0  0  0  0  0  0  0  0  0
  -29.5569   -4.8560   -5.8809 C   0  0  0  0  0  0  0  0  0  0  0  0
  -29.1147   -6.1294   -5.9182 N   0  0  0  0  0  0  0  0  0  0  0  0
  -30.2648   -4.4207   -4.7193 N   0  0  0  0  0  0  0  0  0  0  0  0
  -31.1559   -5.1949   -3.9978 C   0  0  0  0  0  0  0  0  0  0  0  0
  -31.6849   -4.3734   -3.0383 C   0  0  0  0  0  0  0  0  0  0  0  0
  -31.1255   -3.1306   -3.1101 N   0  0  0  0  0  0  0  0  0  0  0  0
  -30.2486   -3.1622   -4.1058 C   0  0  0  0  0  0  0  0  0  0  0  0
  -29.4118   -2.0019   -4.4672 C   0  0  0  0  0  0  0  0  0  0  0  0
  -28.0265   -1.9560   -4.2518 C   0  0  0  0  0  0  0  0  0  0  0  0
  -27.2568   -0.8970   -4.7398 C   0  0  0  0  0  0  0  0  0  0  0  0
  -27.8750    0.1776   -5.3716 C   0  0  0  0  0  0  0  0  0  0  0  0
  -29.2618    0.2001   -5.4976 C   0  0  0  0  0  0  0  0  0  0  0  0
  -30.0235   -0.8826   -5.0497 C   0  0  0  0  0  0  0  0  0  0  0  0
  -28.1824   -7.9199   -7.0721 N   0  0  0  0  0  0  0  0  0  0  0  0
  -27.1736   -7.9631   -7.1750 H   0  0  0  0  0  0  0  0  0  0  0  0
  -28.9066  -10.3903  -11.2979 C   0  0  0  0  0  0  0  0  0  0  0  0
  -29.2369  -10.1788   -9.8515 C   0  0  0  0  0  0  0  0  0  0  0  0
  -30.1907  -10.9555   -9.1907 C   0  0  0  0  0  0  0  0  0  0  0  0
  -30.4589  -10.7377   -7.8389 C   0  0  0  0  0  0  0  0  0  0  0  0
  -29.7809   -9.7360   -7.1407 C   0  0  0  0  0  0  0  0  0  0  0  0
  -28.8582   -8.9157   -7.7961 C   0  0  0  0  0  0  0  0  0  0  0  0
  -28.5724   -9.1713   -9.1430 C   0  0  0  0  0  0  0  0  0  0  0  0
 20 21  1  0  0  0
 21 22  1  0  0  0
 21 26  2  0  0  0
 22 23  2  0  0  0
 23 24  1  0  0  0
 24 25  2  0  0  0
 25 18  1  0  0  0
 25 26  1  0  0  0
 18  1  1  0  0  0
 18 19  1  0  0  0
  1  2  1  0  0  0
  1  6  2  0  0  0
  2  3  2  0  0  0
  3  4  1  0  0  0
  4  5  2  0  0  0
  5  7  1  0  0  0
  5  6  1  0  0  0
  7  8  1  0  0  0
  7 11  1  0  0  0
  8  9  2  0  0  0
  9 10  1  0  0  0
 10 11  2  0  0  0
 11 12  1  0  0  0
 12 13  1  0  0  0
 12 17  2  0  0  0
 13 14  2  0  0  0
 14 15  1  0  0  0
 15 16  2  0  0  0
 16 17  1  0  0  0
M  END
> <minimizedAffinity>
-8.39681

$$$$
