CHEMBL505253


 31 34  0  0  0  0  0  0  0  0999 V2000
  -29.4523   -6.5525   -5.2846 C   0  0  0  0  0  0  0  0  0  0  0  0
  -29.1500   -5.2440   -5.3413 C   0  0  0  0  0  0  0  0  0  0  0  0
  -28.9296   -4.6656   -3.9663 C   0  0  0  0  0  0  0  0  0  0  0  0
  -27.6210   -4.2191   -3.7109 O   0  0  0  0  0  0  0  0  0  0  0  0
  -29.1130   -5.7736   -3.1411 N   0  0  0  0  0  0  0  0  0  0  0  0
  -29.3782   -6.9129   -3.8402 C   0  0  0  0  0  0  0  0  0  0  0  0
  -29.4912   -8.0395   -3.3782 O   0  0  0  0  0  0  0  0  0  0  0  0
  -27.0697   -4.4830   -4.4664 H   0  0  0  0  0  0  0  0  0  0  0  0
  -28.8899   -5.8004   -2.1515 H   0  0  0  0  0  0  0  0  0  0  0  0
  -28.9485   -4.3733   -6.4662 C   0  0  0  0  0  0  0  0  0  0  0  0
  -28.4651   -4.7799   -7.6931 C   0  0  0  0  0  0  0  0  0  0  0  0
  -28.3455   -3.6685   -8.4841 N   0  0  0  0  0  0  0  0  0  0  0  0
  -28.3311   -2.5600   -7.6769 C   0  0  0  0  0  0  0  0  0  0  0  0
  -27.8003   -1.2838   -7.8783 C   0  0  0  0  0  0  0  0  0  0  0  0
  -28.0633   -0.3231   -6.9015 C   0  0  0  0  0  0  0  0  0  0  0  0
  -28.9351   -0.5980   -5.8521 C   0  0  0  0  0  0  0  0  0  0  0  0
  -29.4350   -1.8908   -5.6590 C   0  0  0  0  0  0  0  0  0  0  0  0
  -29.0109   -2.9312   -6.5146 C   0  0  0  0  0  0  0  0  0  0  0  0
  -28.1765   -3.6674   -9.4809 H   0  0  0  0  0  0  0  0  0  0  0  0
  -31.3011   -8.8101   -7.6830 C   0  0  0  0  0  0  0  0  0  0  0  0
  -31.0301   -7.8761   -6.6701 C   0  0  0  0  0  0  0  0  0  0  0  0
  -29.7129   -7.5547   -6.3153 C   0  0  0  0  0  0  0  0  0  0  0  0
  -28.6544   -8.1729   -6.9778 C   0  0  0  0  0  0  0  0  0  0  0  0
  -28.9019   -9.1168   -7.9814 C   0  0  0  0  0  0  0  0  0  0  0  0
  -30.2277   -9.4279   -8.3523 C   0  0  0  0  0  0  0  0  0  0  0  0
  -33.2318  -10.0588   -7.0576 C   0  0  0  0  0  0  0  0  0  0  0  0
  -32.5761   -9.2090   -7.9925 O   0  0  0  0  0  0  0  0  0  0  0  0
  -27.9014   -9.7372   -8.6924 O   0  0  0  0  0  0  0  0  0  0  0  0
  -27.1325   -8.8992   -9.5455 C   0  0  0  0  0  0  0  0  0  0  0  0
  -30.3470  -10.4050   -9.3153 O   0  0  0  0  0  0  0  0  0  0  0  0
  -30.4848  -11.7452   -8.8616 C   0  0  0  0  0  0  0  0  0  0  0  0
 26 27  1  0  0  0
 27 20  1  0  0  0
 20 21  1  0  0  0
 20 25  2  0  0  0
 21 22  2  0  0  0
 22  1  1  0  0  0
 22 23  1  0  0  0
  1  2  2  0  0  0
  1  6  1  0  0  0
  2 10  1  0  0  0
  2  3  1  0  0  0
 10 11  2  0  0  0
 10 18  1  0  0  0
 11 12  1  0  0  0
 12 13  1  0  0  0
 12 19  1  0  0  0
 13 14  1  0  0  0
 13 18  2  0  0  0
 14 15  2  0  0  0
 15 16  1  0  0  0
 16 17  2  0  0  0
 17 18  1  0  0  0
  3  4  1  0  0  0
  3  5  1  0  0  0
  4  8  1  0  0  0
  5  6  1  0  0  0
  5  9  1  0  0  0
  6  7  2  0  0  0
 23 24  2  0  0  0
 24 28  1  0  0  0
 24 25  1  0  0  0
 28 29  1  0  0  0
 25 30  1  0  0  0
 30 31  1  0  0  0
M  END
> <minimizedAffinity>
-8.98318

$$$$
