CHEMBL2018883


 35 38  0  0  0  0  0  0  0  0999 V2000
  -17.9334    2.6742  -15.1618 C   0  0  0  0  0  0  0  0  0  0  0  0
  -17.8970    1.2915  -15.2467 C   0  0  0  0  0  0  0  0  0  0  0  0
  -19.0785    0.5607  -15.1991 C   0  0  0  0  0  0  0  0  0  0  0  0
  -20.3327    1.1763  -15.0545 C   0  0  0  0  0  0  0  0  0  0  0  0
  -20.3662    2.5750  -14.8641 C   0  0  0  0  0  0  0  0  0  0  0  0
  -21.6287    3.3567  -14.6130 C   0  0  0  0  0  0  0  0  0  0  0  0
  -19.1510    3.3081  -14.9064 C   0  0  0  0  0  0  0  0  0  0  0  0
  -21.5252    0.3984  -15.1189 N   0  0  0  0  0  0  0  0  0  0  0  0
  -22.3187    0.0856  -14.0233 C   0  0  0  0  0  0  0  0  0  0  0  0
  -22.0981    0.4383  -12.8701 O   0  0  0  0  0  0  0  0  0  0  0  0
  -23.3891   -0.7457  -14.3417 N   0  0  0  0  0  0  0  0  0  0  0  0
  -21.7543   -0.0410  -15.9962 H   0  0  0  0  0  0  0  0  0  0  0  0
  -23.1880   -1.4369  -15.0481 H   0  0  0  0  0  0  0  0  0  0  0  0
  -24.2707   -1.1508  -13.3060 C   0  0  0  0  0  0  0  0  0  0  0  0
  -25.6311   -1.3746  -13.5585 C   0  0  0  0  0  0  0  0  0  0  0  0
  -26.5186   -1.6241  -12.5074 C   0  0  0  0  0  0  0  0  0  0  0  0
  -26.0392   -1.6512  -11.2028 C   0  0  0  0  0  0  0  0  0  0  0  0
  -27.2464   -1.9045   -9.7695 Br  0  0  0  0  0  0  0  0  0  0  0  0
  -24.6814   -1.4685  -10.9414 C   0  0  0  0  0  0  0  0  0  0  0  0
  -23.7910   -1.2423  -11.9974 C   0  0  0  0  0  0  0  0  0  0  0  0
  -16.7896    3.4325  -15.3122 O   0  0  0  0  0  0  0  0  0  0  0  0
  -13.5257    3.5584  -19.2370 C   0  0  0  0  0  0  0  0  0  0  0  0
  -13.1782    2.5320  -18.3473 C   0  0  0  0  0  0  0  0  0  0  0  0
  -13.8759    2.3002  -17.1739 C   0  0  0  0  0  0  0  0  0  0  0  0
  -13.4034    1.3509  -16.3636 N   0  0  0  0  0  0  0  0  0  0  0  0
  -14.0730    1.1365  -15.2302 C   0  0  0  0  0  0  0  0  0  0  0  0
  -15.1882    1.7586  -14.8613 N   0  0  0  0  0  0  0  0  0  0  0  0
  -15.6301    2.7373  -15.6819 C   0  0  0  0  0  0  0  0  0  0  0  0
  -15.0025    3.0749  -16.8877 C   0  0  0  0  0  0  0  0  0  0  0  0
  -15.3926    4.0872  -17.7975 C   0  0  0  0  0  0  0  0  0  0  0  0
  -14.6744    4.3119  -18.9825 C   0  0  0  0  0  0  0  0  0  0  0  0
  -11.5819    4.6069  -20.0883 C   0  0  0  0  0  0  0  0  0  0  0  0
  -12.7624    3.8424  -20.3420 O   0  0  0  0  0  0  0  0  0  0  0  0
  -15.1654    5.3384  -19.7448 O   0  0  0  0  0  0  0  0  0  0  0  0
  -14.7120    6.6463  -19.4070 C   0  0  0  0  0  0  0  0  0  0  0  0
 32 33  1  0  0  0
 33 22  1  0  0  0
 22 23  1  0  0  0
 22 31  2  0  0  0
 23 24  2  0  0  0
 24 25  1  0  0  0
 24 29  1  0  0  0
 25 26  2  0  0  0
 26 27  1  0  0  0
 27 28  2  0  0  0
 28 21  1  0  0  0
 28 29  1  0  0  0
 21  1  1  0  0  0
  1  2  1  0  0  0
  1  7  2  0  0  0
  2  3  2  0  0  0
  3  4  1  0  0  0
  4  8  1  0  0  0
  4  5  2  0  0  0
  8  9  1  0  0  0
  8 12  1  0  0  0
  9 10  2  0  0  0
  9 11  1  0  0  0
 11 14  1  0  0  0
 11 13  1  0  0  0
 14 15  1  0  0  0
 14 20  2  0  0  0
 15 16  2  0  0  0
 16 17  1  0  0  0
 17 18  1  0  0  0
 17 19  2  0  0  0
 19 20  1  0  0  0
  5  6  1  0  0  0
  5  7  1  0  0  0
 29 30  2  0  0  0
 30 31  1  0  0  0
 31 34  1  0  0  0
 34 35  1  0  0  0
M  END
> <minimizedAffinity>
-9.57208

$$$$
