CHEMBL1999428


 24 26  0  0  0  0  0  0  0  0999 V2000
  -29.2589   -7.8822   -7.5055 N   0  0  0  0  0  0  0  0  0  0  0  0
  -30.3211   -7.0904   -7.1211 C   0  0  0  0  0  0  0  0  0  0  0  0
  -31.4799   -7.4926   -7.1032 O   0  0  0  0  0  0  0  0  0  0  0  0
  -28.3103   -7.5721   -7.3594 H   0  0  0  0  0  0  0  0  0  0  0  0
  -30.0216   -5.6926   -6.6918 C   0  0  0  0  0  0  0  0  0  0  0  0
  -30.3674   -5.1925   -5.4364 C   0  0  0  0  0  0  0  0  0  0  0  0
  -30.0320   -3.8738   -5.0877 C   0  0  0  0  0  0  0  0  0  0  0  0
  -29.3284   -3.0241   -5.9641 C   0  0  0  0  0  0  0  0  0  0  0  0
  -28.9804   -3.5554   -7.2179 C   0  0  0  0  0  0  0  0  0  0  0  0
  -29.3232   -4.8655   -7.5784 C   0  0  0  0  0  0  0  0  0  0  0  0
  -28.9631   -1.6382   -5.5778 C   0  0  0  0  0  0  0  0  0  0  0  0
  -27.6801   -1.3180   -5.1088 C   0  0  0  0  0  0  0  0  0  0  0  0
  -27.3878   -0.0111   -4.7427 C   0  0  0  0  0  0  0  0  0  0  0  0
  -28.2689    1.0045   -4.8190 N   0  0  0  0  0  0  0  0  0  0  0  0
  -29.4958    0.6968   -5.2822 C   0  0  0  0  0  0  0  0  0  0  0  0
  -29.8822   -0.5818   -5.6616 C   0  0  0  0  0  0  0  0  0  0  0  0
  -28.9759  -10.2399   -6.8301 C   0  0  0  0  0  0  0  0  0  0  0  0
  -29.4645   -9.2658   -7.9062 C   0  0  0  0  0  0  0  0  0  0  0  0
  -28.8168   -9.5333   -9.2526 C   0  0  0  0  0  0  0  0  0  0  0  0
  -27.4894   -9.1301   -9.4705 C   0  0  0  0  0  0  0  0  0  0  0  0
  -26.8725   -9.3364  -10.7055 C   0  0  0  0  0  0  0  0  0  0  0  0
  -27.5701   -9.9579  -11.7378 C   0  0  0  0  0  0  0  0  0  0  0  0
  -28.8829  -10.3776  -11.5343 C   0  0  0  0  0  0  0  0  0  0  0  0
  -29.5031  -10.1694  -10.2994 C   0  0  0  0  0  0  0  0  0  0  0  0
 17 18  1  0  0  0
 18  1  1  0  0  0
 18 19  1  0  0  0
  1  2  1  0  0  0
  1  4  1  0  0  0
  2  3  2  0  0  0
  2  5  1  0  0  0
  5  6  1  0  0  0
  5 10  2  0  0  0
  6  7  2  0  0  0
  7  8  1  0  0  0
  8 11  1  0  0  0
  8  9  2  0  0  0
 11 12  1  0  0  0
 11 16  2  0  0  0
 12 13  2  0  0  0
 13 14  1  0  0  0
 14 15  2  0  0  0
 15 16  1  0  0  0
  9 10  1  0  0  0
 19 20  1  0  0  0
 19 24  2  0  0  0
 20 21  2  0  0  0
 21 22  1  0  0  0
 22 23  2  0  0  0
 23 24  1  0  0  0
M  END
> <minimizedAffinity>
-7.89337

$$$$
