CHEMBL3690588


 35 38  0  0  0  0  0  0  0  0999 V2000
  -23.3229    0.0767  -13.1794 C   0  0  0  0  0  0  0  0  0  0  0  0
  -23.4698    0.1825  -11.7222 C   0  0  0  0  0  0  0  0  0  0  0  0
  -24.5471   -0.3369  -11.1102 C   0  0  0  0  0  0  0  0  0  0  0  0
  -25.5093   -1.0164  -11.8594 N   0  0  0  0  0  0  0  0  0  0  0  0
  -26.6750   -1.6763  -11.4812 C   0  0  0  0  0  0  0  0  0  0  0  0
  -27.2130   -2.1062  -12.6893 C   0  0  0  0  0  0  0  0  0  0  0  0
  -26.4396   -1.7682  -13.7608 N   0  0  0  0  0  0  0  0  0  0  0  0
  -25.4181   -1.1227  -13.2483 C   0  0  0  0  0  0  0  0  0  0  0  0
  -24.2901   -0.5434  -13.8943 C   0  0  0  0  0  0  0  0  0  0  0  0
  -19.9901    1.6549  -15.2009 C   0  0  0  0  0  0  0  0  0  0  0  0
  -20.8605    2.4408  -14.4782 C   0  0  0  0  0  0  0  0  0  0  0  0
  -21.9466    1.9674  -13.8298 N   0  0  0  0  0  0  0  0  0  0  0  0
  -22.1539    0.6388  -13.8974 C   0  0  0  0  0  0  0  0  0  0  0  0
  -21.3633   -0.2252  -14.5589 N   0  0  0  0  0  0  0  0  0  0  0  0
  -20.3041    0.3128  -15.2054 C   0  0  0  0  0  0  0  0  0  0  0  0
  -18.8861    2.0502  -15.8890 O   0  0  0  0  0  0  0  0  0  0  0  0
  -16.9087    3.3753  -16.1103 C   0  0  0  0  0  0  0  0  0  0  0  0
  -18.2595    3.2500  -15.4328 C   0  0  0  0  0  0  0  0  0  0  0  0
  -27.2422   -1.8348  -10.1315 C   0  0  0  0  0  0  0  0  0  0  0  0
  -27.0418   -0.7965   -9.2083 C   0  0  0  0  0  0  0  0  0  0  0  0
  -27.5742   -0.8641   -7.9264 C   0  0  0  0  0  0  0  0  0  0  0  0
  -28.3218   -1.9726   -7.5415 C   0  0  0  0  0  0  0  0  0  0  0  0
  -28.5676   -3.0166   -8.4362 C   0  0  0  0  0  0  0  0  0  0  0  0
  -28.0236   -2.9373   -9.7315 C   0  0  0  0  0  0  0  0  0  0  0  0
  -29.3474   -4.1499   -8.0915 N   0  0  0  0  0  0  0  0  0  0  0  0
  -29.3551   -4.7901   -6.8747 C   0  0  0  0  0  0  0  0  0  0  0  0
  -28.7297   -4.4788   -5.8655 O   0  0  0  0  0  0  0  0  0  0  0  0
  -30.1419   -5.9207   -6.8650 N   0  0  0  0  0  0  0  0  0  0  0  0
  -29.9698   -4.5086   -8.8005 H   0  0  0  0  0  0  0  0  0  0  0  0
  -30.9494   -5.9210   -7.4719 H   0  0  0  0  0  0  0  0  0  0  0  0
  -30.2543   -6.6732   -5.6042 C   0  0  0  0  0  0  0  0  0  0  0  0
  -30.5998   -5.8500   -4.3530 C   0  0  0  0  0  0  0  0  0  0  0  0
  -29.4954   -5.4854   -3.6616 F   0  0  0  0  0  0  0  0  0  0  0  0
  -31.2256   -4.7023   -4.7193 F   0  0  0  0  0  0  0  0  0  0  0  0
  -31.4280   -6.5048   -3.5142 F   0  0  0  0  0  0  0  0  0  0  0  0
 17 18  1  0  0  0
 18 16  1  0  0  0
 16 10  1  0  0  0
 10 11  1  0  0  0
 10 15  2  0  0  0
 11 12  2  0  0  0
 12 13  1  0  0  0
 13  1  1  0  0  0
 13 14  2  0  0  0
  1  2  1  0  0  0
  1  9  2  0  0  0
  2  3  2  0  0  0
  3  4  1  0  0  0
  4  5  1  0  0  0
  4  8  1  0  0  0
  5 19  1  0  0  0
  5  6  2  0  0  0
 19 20  1  0  0  0
 19 24  2  0  0  0
 20 21  2  0  0  0
 21 22  1  0  0  0
 22 23  2  0  0  0
 23 25  1  0  0  0
 23 24  1  0  0  0
 25 26  1  0  0  0
 25 29  1  0  0  0
 26 27  2  0  0  0
 26 28  1  0  0  0
 28 31  1  0  0  0
 28 30  1  0  0  0
 31 32  1  0  0  0
 32 33  1  0  0  0
 32 34  1  0  0  0
 32 35  1  0  0  0
  6  7  1  0  0  0
  7  8  2  0  0  0
  8  9  1  0  0  0
 14 15  1  0  0  0
M  END
> <minimizedAffinity>
-7.96989

$$$$
