CHEMBL473826


 43 47  0  0  0  0  0  0  0  0999 V2000
  -15.8031   -0.1618  -13.2729 C   0  0  0  0  0  0  0  0  0  0  0  0
  -16.1980    0.5218  -12.3361 O   0  0  0  0  0  0  0  0  0  0  0  0
  -15.8473    0.1646  -14.6158 N   0  0  0  0  0  0  0  0  0  0  0  0
  -15.4626   -0.4944  -15.2761 H   0  0  0  0  0  0  0  0  0  0  0  0
  -14.2880   -4.0466  -12.2512 C   0  0  0  0  0  0  0  0  0  0  0  0
  -13.6550   -3.3267  -13.2753 C   0  0  0  0  0  0  0  0  0  0  0  0
  -14.1040   -2.0320  -13.6085 C   0  0  0  0  0  0  0  0  0  0  0  0
  -15.1856   -1.4659  -12.9182 C   0  0  0  0  0  0  0  0  0  0  0  0
  -15.8081   -2.1880  -11.8953 C   0  0  0  0  0  0  0  0  0  0  0  0
  -15.3606   -3.4623  -11.5632 C   0  0  0  0  0  0  0  0  0  0  0  0
  -13.0050   -6.1162  -12.6472 N   0  0  0  0  0  0  0  0  0  0  0  0
  -13.9887   -5.4682  -11.9167 C   0  0  0  0  0  0  0  0  0  0  0  0
  -14.6169   -5.9493  -10.9766 O   0  0  0  0  0  0  0  0  0  0  0  0
  -12.3927   -5.5558  -13.2179 H   0  0  0  0  0  0  0  0  0  0  0  0
  -14.2586   -8.2111  -14.1981 N   0  0  0  0  0  0  0  0  0  0  0  0
  -13.3063   -8.4953  -13.1951 C   0  0  0  0  0  0  0  0  0  0  0  0
  -12.8510   -9.8241  -13.0861 C   0  0  0  0  0  0  0  0  0  0  0  0
  -11.8159  -10.1721  -12.2173 C   0  0  0  0  0  0  0  0  0  0  0  0
  -11.1939   -9.1869  -11.4674 C   0  0  0  0  0  0  0  0  0  0  0  0
  -11.5999   -7.8579  -11.5974 C   0  0  0  0  0  0  0  0  0  0  0  0
  -12.6286   -7.4827  -12.4774 C   0  0  0  0  0  0  0  0  0  0  0  0
  -14.8156   -9.0246  -14.4492 H   0  0  0  0  0  0  0  0  0  0  0  0
  -14.8416   -7.4074  -14.0201 H   0  0  0  0  0  0  0  0  0  0  0  0
  -16.3299    1.3855  -15.1515 C   0  0  0  0  0  0  0  0  0  0  0  0
  -15.4997    2.3284  -15.7612 C   0  0  0  0  0  0  0  0  0  0  0  0
  -16.0226    3.5118  -16.2633 C   0  0  0  0  0  0  0  0  0  0  0  0
  -17.3830    3.7669  -16.1541 C   0  0  0  0  0  0  0  0  0  0  0  0
  -18.2554    2.8608  -15.5376 C   0  0  0  0  0  0  0  0  0  0  0  0
  -17.7084    1.6541  -15.0607 C   0  0  0  0  0  0  0  0  0  0  0  0
  -19.6299    3.1128  -15.3867 N   0  0  0  0  0  0  0  0  0  0  0  0
  -20.0427    3.8383  -15.9509 H   0  0  0  0  0  0  0  0  0  0  0  0
  -20.6365    2.3201  -14.8318 C   0  0  0  0  0  0  0  0  0  0  0  0
  -20.5607    0.9868  -14.8880 N   0  0  0  0  0  0  0  0  0  0  0  0
  -21.5859    0.2591  -14.4139 C   0  0  0  0  0  0  0  0  0  0  0  0
  -22.7294    0.7935  -13.8665 C   0  0  0  0  0  0  0  0  0  0  0  0
  -22.7022    2.1777  -13.8311 C   0  0  0  0  0  0  0  0  0  0  0  0
  -21.6875    2.9547  -14.2940 N   0  0  0  0  0  0  0  0  0  0  0  0
  -23.8353   -0.0369  -13.3790 C   0  0  0  0  0  0  0  0  0  0  0  0
  -24.5046   -0.9506  -14.2037 C   0  0  0  0  0  0  0  0  0  0  0  0
  -25.5669   -1.7061  -13.7083 C   0  0  0  0  0  0  0  0  0  0  0  0
  -25.9446   -1.5279  -12.3902 C   0  0  0  0  0  0  0  0  0  0  0  0
  -25.3366   -0.6652  -11.5537 N   0  0  0  0  0  0  0  0  0  0  0  0
  -24.3050    0.0495  -12.0627 C   0  0  0  0  0  0  0  0  0  0  0  0
 15 16  1  0  0  0
 15 22  1  0  0  0
 15 23  1  0  0  0
 16 17  1  0  0  0
 16 21  2  0  0  0
 17 18  2  0  0  0
 18 19  1  0  0  0
 19 20  2  0  0  0
 20 21  1  0  0  0
 21 11  1  0  0  0
 11 12  1  0  0  0
 11 14  1  0  0  0
 12 13  2  0  0  0
 12  5  1  0  0  0
  5  6  1  0  0  0
  5 10  2  0  0  0
  6  7  2  0  0  0
  7  8  1  0  0  0
  8  1  1  0  0  0
  8  9  2  0  0  0
  1  2  2  0  0  0
  1  3  1  0  0  0
  3 24  1  0  0  0
  3  4  1  0  0  0
 24 25  1  0  0  0
 24 29  2  0  0  0
 25 26  2  0  0  0
 26 27  1  0  0  0
 27 28  2  0  0  0
 28 30  1  0  0  0
 28 29  1  0  0  0
 30 32  1  0  0  0
 30 31  1  0  0  0
 32 33  1  0  0  0
 32 37  2  0  0  0
 33 34  2  0  0  0
 34 35  1  0  0  0
 35 38  1  0  0  0
 35 36  2  0  0  0
 38 39  1  0  0  0
 38 43  2  0  0  0
 39 40  2  0  0  0
 40 41  1  0  0  0
 41 42  2  0  0  0
 42 43  1  0  0  0
 36 37  1  0  0  0
  9 10  1  0  0  0
M  END
> <minimizedAffinity>
-11.76485

$$$$
