CHEMBL374259


 43 47  0  0  0  0  0  0  0  0999 V2000
  -29.3782   -7.2747   -7.3711 C   0  0  0  0  0  0  0  0  0  0  0  0
  -28.2684   -8.1070   -7.1983 C   0  0  0  0  0  0  0  0  0  0  0  0
  -28.3919   -9.4936   -7.2318 C   0  0  0  0  0  0  0  0  0  0  0  0
  -29.6167  -10.0724   -7.5828 C   0  0  0  0  0  0  0  0  0  0  0  0
  -30.7146   -9.2418   -7.8562 C   0  0  0  0  0  0  0  0  0  0  0  0
  -30.5910   -7.8520   -7.7365 C   0  0  0  0  0  0  0  0  0  0  0  0
  -31.6674   -7.0846   -7.9833 F   0  0  0  0  0  0  0  0  0  0  0  0
  -27.2150  -10.3335   -6.8703 C   0  0  0  0  0  0  0  0  0  0  0  0
  -27.1640  -11.5001   -7.2523 O   0  0  0  0  0  0  0  0  0  0  0  0
  -26.2998   -9.6919   -6.0546 N   0  0  0  0  0  0  0  0  0  0  0  0
  -26.6435   -8.9331   -5.4903 H   0  0  0  0  0  0  0  0  0  0  0  0
  -25.1137  -10.3245   -5.6174 C   0  0  0  0  0  0  0  0  0  0  0  0
  -24.0195  -10.2841   -6.4904 C   0  0  0  0  0  0  0  0  0  0  0  0
  -22.7981  -10.8744   -6.1214 C   0  0  0  0  0  0  0  0  0  0  0  0
  -22.7160  -11.5101   -4.8758 C   0  0  0  0  0  0  0  0  0  0  0  0
  -23.8240  -11.5653   -4.0229 C   0  0  0  0  0  0  0  0  0  0  0  0
  -25.0633  -11.0004   -4.3721 C   0  0  0  0  0  0  0  0  0  0  0  0
  -26.1811  -11.1794   -3.5651 N   0  0  0  0  0  0  0  0  0  0  0  0
  -26.8825  -12.4603   -3.4624 C   0  0  0  0  0  0  0  0  0  0  0  0
  -28.3025  -12.3411   -4.0202 C   0  0  0  0  0  0  0  0  0  0  0  0
  -29.0535  -11.1653   -3.3960 C   0  0  0  0  0  0  0  0  0  0  0  0
  -28.2596   -9.8771   -3.5597 C   0  0  0  0  0  0  0  0  0  0  0  0
  -26.8568  -10.0205   -2.9824 C   0  0  0  0  0  0  0  0  0  0  0  0
  -21.6122  -10.8172   -7.0443 C   0  0  0  0  0  0  0  0  0  0  0  0
  -21.8078  -11.4626   -8.2295 F   0  0  0  0  0  0  0  0  0  0  0  0
  -21.2590   -9.5433   -7.3684 F   0  0  0  0  0  0  0  0  0  0  0  0
  -20.4999  -11.3847   -6.4968 F   0  0  0  0  0  0  0  0  0  0  0  0
  -29.2829   -5.9048   -7.1656 O   0  0  0  0  0  0  0  0  0  0  0  0
  -29.7624   -4.0536   -5.6592 C   0  0  0  0  0  0  0  0  0  0  0  0
  -30.3515   -3.6969   -4.4231 C   0  0  0  0  0  0  0  0  0  0  0  0
  -31.0300   -4.6159   -3.6299 C   0  0  0  0  0  0  0  0  0  0  0  0
  -31.1405   -5.9019   -4.0966 C   0  0  0  0  0  0  0  0  0  0  0  0
  -30.6156   -6.3060   -5.2669 N   0  0  0  0  0  0  0  0  0  0  0  0
  -29.9105   -5.4023   -6.0160 C   0  0  0  0  0  0  0  0  0  0  0  0
  -27.8727   -2.5582   -8.3725 C   0  0  0  0  0  0  0  0  0  0  0  0
  -27.5218   -1.3415   -7.9514 N   0  0  0  0  0  0  0  0  0  0  0  0
  -27.9847   -0.9595   -6.7477 C   0  0  0  0  0  0  0  0  0  0  0  0
  -28.7712   -1.7484   -5.9416 C   0  0  0  0  0  0  0  0  0  0  0  0
  -29.1017   -2.9864   -6.4459 C   0  0  0  0  0  0  0  0  0  0  0  0
  -28.6808   -3.3718   -7.6821 N   0  0  0  0  0  0  0  0  0  0  0  0
  -26.8100   -1.9693  -10.4507 C   0  0  0  0  0  0  0  0  0  0  0  0
  -27.2527   -2.9910   -9.5323 N   0  0  0  0  0  0  0  0  0  0  0  0
  -26.5558   -3.6734   -9.2591 H   0  0  0  0  0  0  0  0  0  0  0  0
 41 42  1  0  0  0
 42 35  1  0  0  0
 42 43  1  0  0  0
 35 36  1  0  0  0
 35 40  2  0  0  0
 36 37  2  0  0  0
 37 38  1  0  0  0
 38 39  2  0  0  0
 39 29  1  0  0  0
 39 40  1  0  0  0
 29 30  1  0  0  0
 29 34  2  0  0  0
 30 31  2  0  0  0
 31 32  1  0  0  0
 32 33  2  0  0  0
 33 34  1  0  0  0
 34 28  1  0  0  0
 28  1  1  0  0  0
  1  2  1  0  0  0
  1  6  2  0  0  0
  2  3  2  0  0  0
  3  8  1  0  0  0
  3  4  1  0  0  0
  8  9  2  0  0  0
  8 10  1  0  0  0
 10 12  1  0  0  0
 10 11  1  0  0  0
 12 13  1  0  0  0
 12 17  2  0  0  0
 13 14  2  0  0  0
 14 24  1  0  0  0
 14 15  1  0  0  0
 24 25  1  0  0  0
 24 26  1  0  0  0
 24 27  1  0  0  0
 15 16  2  0  0  0
 16 17  1  0  0  0
 17 18  1  0  0  0
 18 19  1  0  0  0
 18 23  1  0  0  0
 19 20  1  0  0  0
 20 21  1  0  0  0
 21 22  1  0  0  0
 22 23  1  0  0  0
  4  5  2  0  0  0
  5  6  1  0  0  0
  6  7  1  0  0  0
M  END
> <minimizedAffinity>
-9.78503

$$$$
