CHEMBL221544


 40 43  0  0  0  0  0  0  0  0999 V2000
  -28.3175   -6.1680   -7.9173 N   0  0  0  0  0  0  0  0  0  0  0  0
  -29.2725   -5.1703   -7.9323 C   0  0  0  0  0  0  0  0  0  0  0  0
  -30.4838   -5.3638   -7.9073 O   0  0  0  0  0  0  0  0  0  0  0  0
  -27.3673   -5.8943   -7.7382 H   0  0  0  0  0  0  0  0  0  0  0  0
  -28.7639   -3.7603   -7.9158 C   0  0  0  0  0  0  0  0  0  0  0  0
  -27.8515   -3.3552   -8.9121 C   0  0  0  0  0  0  0  0  0  0  0  0
  -27.3282   -2.0586   -8.9131 C   0  0  0  0  0  0  0  0  0  0  0  0
  -27.7178   -1.1453   -7.9300 C   0  0  0  0  0  0  0  0  0  0  0  0
  -28.6260   -1.5307   -6.9464 C   0  0  0  0  0  0  0  0  0  0  0  0
  -29.1394   -2.8273   -6.9446 C   0  0  0  0  0  0  0  0  0  0  0  0
  -30.0169   -3.1473   -5.9799 F   0  0  0  0  0  0  0  0  0  0  0  0
  -26.3873   -1.6509   -9.9132 C   0  0  0  0  0  0  0  0  0  0  0  0
  -25.5761   -1.3247  -10.7401 C   0  0  0  0  0  0  0  0  0  0  0  0
  -24.6200   -0.9262  -11.7244 C   0  0  0  0  0  0  0  0  0  0  0  0
  -23.8198   -1.8174  -12.3978 C   0  0  0  0  0  0  0  0  0  0  0  0
  -22.8882   -1.4560  -13.3115 N   0  0  0  0  0  0  0  0  0  0  0  0
  -22.7556   -0.1426  -13.5417 C   0  0  0  0  0  0  0  0  0  0  0  0
  -21.7951    0.2634  -14.4412 N   0  0  0  0  0  0  0  0  0  0  0  0
  -23.5082    0.8054  -12.9745 N   0  0  0  0  0  0  0  0  0  0  0  0
  -24.4243    0.3911  -12.0698 C   0  0  0  0  0  0  0  0  0  0  0  0
  -21.5746   -0.4790  -15.0887 H   0  0  0  0  0  0  0  0  0  0  0  0
  -22.0320    1.1677  -14.8230 H   0  0  0  0  0  0  0  0  0  0  0  0
  -29.0281   -8.1791   -6.6861 C   0  0  0  0  0  0  0  0  0  0  0  0
  -29.1816   -9.5819   -6.7343 C   0  0  0  0  0  0  0  0  0  0  0  0
  -28.8678  -10.3366   -7.8716 C   0  0  0  0  0  0  0  0  0  0  0  0
  -28.4215   -9.7098   -9.0353 C   0  0  0  0  0  0  0  0  0  0  0  0
  -28.3013   -8.3136   -9.0342 C   0  0  0  0  0  0  0  0  0  0  0  0
  -28.5686   -7.5572   -7.8784 C   0  0  0  0  0  0  0  0  0  0  0  0
  -30.6617   -6.3387   -3.8544 C   0  0  0  0  0  0  0  0  0  0  0  0
  -29.3746   -6.9274   -3.2611 C   0  0  0  0  0  0  0  0  0  0  0  0
  -28.4665   -7.1348   -4.4614 C   0  0  0  0  0  0  0  0  0  0  0  0
  -29.3722   -7.5086   -5.5299 N   0  0  0  0  0  0  0  0  0  0  0  0
  -30.7410   -7.0479   -5.2428 C   0  0  0  0  0  0  0  0  0  0  0  0
  -31.8935   -4.2957   -3.1105 C   0  0  0  0  0  0  0  0  0  0  0  0
  -30.7188   -4.8599   -3.7673 N   0  0  0  0  0  0  0  0  0  0  0  0
  -29.5059   -4.2943   -3.1768 C   0  0  0  0  0  0  0  0  0  0  0  0
  -28.0446  -10.5046  -10.2594 C   0  0  0  0  0  0  0  0  0  0  0  0
  -28.0357  -11.8525  -10.0490 F   0  0  0  0  0  0  0  0  0  0  0  0
  -28.8887  -10.2995  -11.3066 F   0  0  0  0  0  0  0  0  0  0  0  0
  -26.7972  -10.1991  -10.7166 F   0  0  0  0  0  0  0  0  0  0  0  0
 34 35  1  0  0  0
 35 36  1  0  0  0
 35 29  1  0  0  0
 29 30  1  0  0  0
 29 33  1  0  0  0
 30 31  1  0  0  0
 31 32  1  0  0  0
 32 23  1  0  0  0
 32 33  1  0  0  0
 23 24  1  0  0  0
 23 28  2  0  0  0
 24 25  2  0  0  0
 25 26  1  0  0  0
 26 37  1  0  0  0
 26 27  2  0  0  0
 37 38  1  0  0  0
 37 39  1  0  0  0
 37 40  1  0  0  0
 27 28  1  0  0  0
 28  1  1  0  0  0
  1  2  1  0  0  0
  1  4  1  0  0  0
  2  3  2  0  0  0
  2  5  1  0  0  0
  5  6  1  0  0  0
  5 10  2  0  0  0
  6  7  2  0  0  0
  7 12  1  0  0  0
  7  8  1  0  0  0
 12 13  3  0  0  0
 13 14  1  0  0  0
 14 15  1  0  0  0
 14 20  2  0  0  0
 15 16  2  0  0  0
 16 17  1  0  0  0
 17 18  1  0  0  0
 17 19  2  0  0  0
 18 21  1  0  0  0
 18 22  1  0  0  0
 19 20  1  0  0  0
  8  9  2  0  0  0
  9 10  1  0  0  0
 10 11  1  0  0  0
M  END
> <minimizedAffinity>
-9.43612

$$$$
