CHEMBL3896067


 35 39  0  0  0  0  0  0  0  0999 V2000
  -17.2608    0.9698  -14.9091 C   0  0  0  0  0  0  0  0  0  0  0  0
  -18.6016    0.6062  -14.7423 C   0  0  0  0  0  0  0  0  0  0  0  0
  -19.6239    1.5773  -14.7242 C   0  0  0  0  0  0  0  0  0  0  0  0
  -20.9813    1.2930  -14.5314 C   0  0  0  0  0  0  0  0  0  0  0  0
  -21.9196    2.2597  -14.5739 N   0  0  0  0  0  0  0  0  0  0  0  0
  -21.4973    3.5046  -14.7900 C   0  0  0  0  0  0  0  0  0  0  0  0
  -20.2292    3.8856  -14.9653 N   0  0  0  0  0  0  0  0  0  0  0  0
  -19.3037    2.9195  -14.9361 C   0  0  0  0  0  0  0  0  0  0  0  0
  -17.9713    3.2723  -15.0974 C   0  0  0  0  0  0  0  0  0  0  0  0
  -16.9360    2.3280  -15.0485 C   0  0  0  0  0  0  0  0  0  0  0  0
  -15.7134   -0.3794  -13.6999 C   0  0  0  0  0  0  0  0  0  0  0  0
  -16.2335    0.0587  -14.9552 O   0  0  0  0  0  0  0  0  0  0  0  0
  -21.3958   -0.0420  -14.2535 N   0  0  0  0  0  0  0  0  0  0  0  0
  -20.6028   -0.5595  -13.8857 H   0  0  0  0  0  0  0  0  0  0  0  0
  -22.6036   -0.3444  -13.5867 C   0  0  0  0  0  0  0  0  0  0  0  0
  -22.6447   -0.3510  -12.1858 C   0  0  0  0  0  0  0  0  0  0  0  0
  -23.7798   -0.7860  -11.5034 C   0  0  0  0  0  0  0  0  0  0  0  0
  -24.9008   -1.2011  -12.2184 C   0  0  0  0  0  0  0  0  0  0  0  0
  -26.3624   -1.8884  -11.2203 Br  0  0  0  0  0  0  0  0  0  0  0  0
  -24.9010   -1.1291  -13.6168 C   0  0  0  0  0  0  0  0  0  0  0  0
  -26.2633   -1.6022  -14.5710 Cl  0  0  0  0  0  0  0  0  0  0  0  0
  -23.7585   -0.6881  -14.2977 C   0  0  0  0  0  0  0  0  0  0  0  0
  -15.6000    2.6696  -15.0656 O   0  0  0  0  0  0  0  0  0  0  0  0
  -15.2075    3.8412  -15.8035 C   0  0  0  0  0  0  0  0  0  0  0  0
  -13.7589    4.2519  -15.5331 C   0  0  0  0  0  0  0  0  0  0  0  0
  -12.9130    3.5489  -16.4578 O   0  0  0  0  0  0  0  0  0  0  0  0
  -13.6847    3.3025  -17.6380 C   0  0  0  0  0  0  0  0  0  0  0  0
  -13.3978    4.3782  -18.6647 C   0  0  0  0  0  0  0  0  0  0  0  0
  -14.7622    4.6639  -19.2332 C   0  0  0  0  0  0  0  0  0  0  0  0
  -15.6425    4.5760  -18.1017 O   0  0  0  0  0  0  0  0  0  0  0  0
  -15.1614    3.4865  -17.2882 C   0  0  0  0  0  0  0  0  0  0  0  0
  -12.2584    3.8958  -19.9206 S   0  0  0  0  0  0  0  0  0  0  0  0
  -10.7001    3.7537  -19.0722 C   0  0  0  0  0  0  0  0  0  0  0  0
  -12.6310    2.5796  -20.3960 O   0  0  0  0  0  0  0  0  0  0  0  0
  -12.1444    5.0083  -20.8508 O   0  0  0  0  0  0  0  0  0  0  0  0
 11 12  1  0  0  0
 12  1  1  0  0  0
  1  2  1  0  0  0
  1 10  2  0  0  0
  2  3  2  0  0  0
  3  4  1  0  0  0
  3  8  1  0  0  0
  4 13  1  0  0  0
  4  5  2  0  0  0
 13 15  1  0  0  0
 13 14  1  0  0  0
 15 16  1  0  0  0
 15 22  2  0  0  0
 16 17  2  0  0  0
 17 18  1  0  0  0
 18 19  1  0  0  0
 18 20  2  0  0  0
 20 21  1  0  0  0
 20 22  1  0  0  0
  5  6  1  0  0  0
  6  7  2  0  0  0
  7  8  1  0  0  0
  8  9  2  0  0  0
  9 10  1  0  0  0
 10 23  1  0  0  0
 24 25  1  0  0  0
 24 31  1  0  0  0
 24 23  1  0  0  0
 25 26  1  0  0  0
 26 27  1  0  0  0
 27 28  1  0  0  0
 27 31  1  0  0  0
 28 32  1  0  0  0
 28 29  1  0  0  0
 32 33  1  0  0  0
 32 34  2  0  0  0
 32 35  2  0  0  0
 29 30  1  0  0  0
 30 31  1  0  0  0
M  END
> <minimizedAffinity>
-8.69933

$$$$
