CHEMBL270983


 37 41  0  0  0  0  0  0  0  0999 V2000
  -30.1609   -9.3141   -7.5676 C   0  0  0  0  0  0  0  0  0  0  0  0
  -30.6748   -8.0573   -7.8518 C   0  0  0  0  0  0  0  0  0  0  0  0
  -30.4706   -7.0070   -6.9452 C   0  0  0  0  0  0  0  0  0  0  0  0
  -29.9233   -7.2196   -5.6503 C   0  0  0  0  0  0  0  0  0  0  0  0
  -29.6588   -6.2109   -4.6715 C   0  0  0  0  0  0  0  0  0  0  0  0
  -29.1371   -6.5719   -3.4116 C   0  0  0  0  0  0  0  0  0  0  0  0
  -28.8612   -7.8975   -3.1006 C   0  0  0  0  0  0  0  0  0  0  0  0
  -29.0733   -8.8782   -4.0591 C   0  0  0  0  0  0  0  0  0  0  0  0
  -29.5846   -8.5615   -5.3252 C   0  0  0  0  0  0  0  0  0  0  0  0
  -29.6886   -9.5811   -6.2833 C   0  0  0  0  0  0  0  0  0  0  0  0
  -29.8089   -4.7318   -4.8676 C   0  0  0  0  0  0  0  0  0  0  0  0
  -30.9461   -4.2686   -4.8684 O   0  0  0  0  0  0  0  0  0  0  0  0
  -28.6616   -4.0095   -5.1236 N   0  0  0  0  0  0  0  0  0  0  0  0
  -27.8104   -4.5316   -5.3017 H   0  0  0  0  0  0  0  0  0  0  0  0
  -28.5759   -2.6212   -5.4011 C   0  0  0  0  0  0  0  0  0  0  0  0
  -28.7314   -1.6312   -4.4242 C   0  0  0  0  0  0  0  0  0  0  0  0
  -28.7549   -0.2774   -4.7788 C   0  0  0  0  0  0  0  0  0  0  0  0
  -28.6069    0.0954   -6.1113 C   0  0  0  0  0  0  0  0  0  0  0  0
  -28.7052    1.7554   -6.5507 Cl  0  0  0  0  0  0  0  0  0  0  0  0
  -28.3873   -0.8675   -7.0907 C   0  0  0  0  0  0  0  0  0  0  0  0
  -28.3574   -2.2170   -6.7316 C   0  0  0  0  0  0  0  0  0  0  0  0
  -28.0743   -3.3863   -7.9778 Cl  0  0  0  0  0  0  0  0  0  0  0  0
  -30.0005  -10.3227   -8.4880 O   0  0  0  0  0  0  0  0  0  0  0  0
  -25.1487  -11.9471   -7.4902 C   0  0  0  0  0  0  0  0  0  0  0  0
  -25.2750  -11.5727   -8.8401 C   0  0  0  0  0  0  0  0  0  0  0  0
  -26.4716  -11.1316   -9.3931 C   0  0  0  0  0  0  0  0  0  0  0  0
  -26.4450  -10.6224  -10.6257 N   0  0  0  0  0  0  0  0  0  0  0  0
  -27.5734  -10.0769  -11.1218 C   0  0  0  0  0  0  0  0  0  0  0  0
  -28.7501   -9.9977  -10.4109 C   0  0  0  0  0  0  0  0  0  0  0  0
  -28.7882  -10.5330   -9.1241 C   0  0  0  0  0  0  0  0  0  0  0  0
  -27.6281  -11.1869   -8.6116 C   0  0  0  0  0  0  0  0  0  0  0  0
  -27.5402  -11.8500   -7.3600 C   0  0  0  0  0  0  0  0  0  0  0  0
  -26.3179  -12.1171   -6.7427 C   0  0  0  0  0  0  0  0  0  0  0  0
  -23.0854  -11.0062   -6.8056 C   0  0  0  0  0  0  0  0  0  0  0  0
  -23.9271  -12.1579   -6.9055 O   0  0  0  0  0  0  0  0  0  0  0  0
  -26.4973  -12.4660   -5.4389 O   0  0  0  0  0  0  0  0  0  0  0  0
  -26.3270  -11.5220   -4.3940 C   0  0  0  0  0  0  0  0  0  0  0  0
 34 35  1  0  0  0
 35 24  1  0  0  0
 24 25  1  0  0  0
 24 33  2  0  0  0
 25 26  2  0  0  0
 26 27  1  0  0  0
 26 31  1  0  0  0
 27 28  2  0  0  0
 28 29  1  0  0  0
 29 30  2  0  0  0
 30 23  1  0  0  0
 30 31  1  0  0  0
 23  1  1  0  0  0
  1  2  1  0  0  0
  1 10  2  0  0  0
  2  3  2  0  0  0
  3  4  1  0  0  0
  4  5  1  0  0  0
  4  9  2  0  0  0
  5 11  1  0  0  0
  5  6  2  0  0  0
 11 12  2  0  0  0
 11 13  1  0  0  0
 13 15  1  0  0  0
 13 14  1  0  0  0
 15 16  1  0  0  0
 15 21  2  0  0  0
 16 17  2  0  0  0
 17 18  1  0  0  0
 18 19  1  0  0  0
 18 20  2  0  0  0
 20 21  1  0  0  0
 21 22  1  0  0  0
  6  7  1  0  0  0
  7  8  2  0  0  0
  8  9  1  0  0  0
  9 10  1  0  0  0
 31 32  2  0  0  0
 32 33  1  0  0  0
 33 36  1  0  0  0
 36 37  1  0  0  0
M  END
> <minimizedAffinity>
-8.20152

$$$$
