CHEMBL187571


 28 30  0  0  0  0  0  0  0  0999 V2000
  -30.1755   -5.9849   -5.7640 C   0  0  0  0  0  0  0  0  0  0  0  0
  -31.0631   -5.9434   -4.6943 C   0  0  0  0  0  0  0  0  0  0  0  0
  -31.0748   -4.9448   -3.7804 N   0  0  0  0  0  0  0  0  0  0  0  0
  -30.1327   -3.9902   -3.9688 C   0  0  0  0  0  0  0  0  0  0  0  0
  -29.2193   -3.9917   -5.0248 C   0  0  0  0  0  0  0  0  0  0  0  0
  -29.2662   -4.9926   -5.9300 N   0  0  0  0  0  0  0  0  0  0  0  0
  -28.9584   -8.3110   -8.5234 C   0  0  0  0  0  0  0  0  0  0  0  0
  -30.1101   -9.0936   -8.6189 C   0  0  0  0  0  0  0  0  0  0  0  0
  -31.2067   -8.9613   -7.8373 N   0  0  0  0  0  0  0  0  0  0  0  0
  -31.1758   -7.9596   -6.9260 C   0  0  0  0  0  0  0  0  0  0  0  0
  -30.1136   -7.0733   -6.7485 C   0  0  0  0  0  0  0  0  0  0  0  0
  -29.0091   -7.2646   -7.5950 C   0  0  0  0  0  0  0  0  0  0  0  0
  -27.8880   -8.4893   -9.4177 N   0  0  0  0  0  0  0  0  0  0  0  0
  -28.2170   -8.4632  -10.3823 H   0  0  0  0  0  0  0  0  0  0  0  0
  -27.0168   -9.6453   -9.1835 C   0  0  0  0  0  0  0  0  0  0  0  0
  -27.0286  -10.5625  -10.4046 C   0  0  0  0  0  0  0  0  0  0  0  0
  -26.4720   -8.7396  -11.8743 O   0  0  0  0  0  0  0  0  0  0  0  0
  -27.4019   -9.7928  -11.6641 C   0  0  0  0  0  0  0  0  0  0  0  0
  -26.7156   -8.3007  -12.7083 H   0  0  0  0  0  0  0  0  0  0  0  0
  -28.1869   -3.0403   -5.0536 N   0  0  0  0  0  0  0  0  0  0  0  0
  -27.3187   -3.3411   -4.6235 H   0  0  0  0  0  0  0  0  0  0  0  0
  -28.1758   -1.6754   -5.4198 C   0  0  0  0  0  0  0  0  0  0  0  0
  -28.3592   -0.6308   -4.5028 C   0  0  0  0  0  0  0  0  0  0  0  0
  -28.4722    0.6987   -4.9125 C   0  0  0  0  0  0  0  0  0  0  0  0
  -28.4074    1.0216   -6.2641 C   0  0  0  0  0  0  0  0  0  0  0  0
  -28.2126    0.0093   -7.2011 C   0  0  0  0  0  0  0  0  0  0  0  0
  -28.0993   -1.3198   -6.7833 C   0  0  0  0  0  0  0  0  0  0  0  0
  -27.8775   -2.5379   -7.9976 Cl  0  0  0  0  0  0  0  0  0  0  0  0
 17 18  1  0  0  0
 17 19  1  0  0  0
 18 16  1  0  0  0
 16 15  1  0  0  0
 15 13  1  0  0  0
 13  7  1  0  0  0
 13 14  1  0  0  0
  7  8  1  0  0  0
  7 12  2  0  0  0
  8  9  2  0  0  0
  9 10  1  0  0  0
 10 11  2  0  0  0
 11  1  1  0  0  0
 11 12  1  0  0  0
  1  2  1  0  0  0
  1  6  2  0  0  0
  2  3  2  0  0  0
  3  4  1  0  0  0
  4  5  2  0  0  0
  5 20  1  0  0  0
  5  6  1  0  0  0
 20 22  1  0  0  0
 20 21  1  0  0  0
 22 23  1  0  0  0
 22 27  2  0  0  0
 23 24  2  0  0  0
 24 25  1  0  0  0
 25 26  2  0  0  0
 26 27  1  0  0  0
 27 28  1  0  0  0
M  END
> <minimizedAffinity>
-8.04459

$$$$
