CHEMBL1940859


 22 24  0  0  0  0  0  0  0  0999 V2000
  -28.0748    0.5018   -5.0440 C   0  0  0  0  0  0  0  0  0  0  0  0
  -28.4809   -0.8866   -5.4334 C   0  0  0  0  0  0  0  0  0  0  0  0
  -28.0950   -1.4507   -6.6504 C   0  0  0  0  0  0  0  0  0  0  0  0
  -28.4882   -2.7508   -6.9773 C   0  0  0  0  0  0  0  0  0  0  0  0
  -29.2838   -3.5017   -6.0908 C   0  0  0  0  0  0  0  0  0  0  0  0
  -29.7198   -4.8075   -6.3849 C   0  0  0  0  0  0  0  0  0  0  0  0
  -30.5389   -5.5164   -5.4940 C   0  0  0  0  0  0  0  0  0  0  0  0
  -30.8883   -4.8295   -4.3270 C   0  0  0  0  0  0  0  0  0  0  0  0
  -31.9885   -5.4244   -3.1369 Cl  0  0  0  0  0  0  0  0  0  0  0  0
  -30.4629   -3.5889   -3.9970 N   0  0  0  0  0  0  0  0  0  0  0  0
  -29.6808   -2.9386   -4.8639 C   0  0  0  0  0  0  0  0  0  0  0  0
  -29.2619   -1.6514   -4.5546 C   0  0  0  0  0  0  0  0  0  0  0  0
  -30.9887   -6.8610   -5.9159 C   0  0  0  0  0  0  0  0  0  0  0  0
  -31.1779   -7.2457   -7.1876 C   0  0  0  0  0  0  0  0  0  0  0  0
  -31.6403   -8.6212   -7.5562 C   0  0  0  0  0  0  0  0  0  0  0  0
  -32.7900   -8.9734   -7.2934 O   0  0  0  0  0  0  0  0  0  0  0  0
  -30.6545   -9.4415   -8.2479 C   0  0  0  0  0  0  0  0  0  0  0  0
  -30.7363  -10.7739   -8.6174 C   0  0  0  0  0  0  0  0  0  0  0  0
  -29.5322  -11.2526   -9.2132 C   0  0  0  0  0  0  0  0  0  0  0  0
  -28.5914  -10.2585   -9.2882 C   0  0  0  0  0  0  0  0  0  0  0  0
  -26.8699  -10.5229   -9.9776 Br  0  0  0  0  0  0  0  0  0  0  0  0
  -29.1403   -8.7678   -8.6968 S   0  0  0  0  0  0  0  0  0  0  0  0
  1  2  1  0  0  0
  2  3  1  0  0  0
  2 12  2  0  0  0
  3  4  2  0  0  0
  4  5  1  0  0  0
  5  6  1  0  0  0
  5 11  2  0  0  0
  6  7  2  0  0  0
  7 13  1  0  0  0
  7  8  1  0  0  0
 13 14  2  0  0  0
 14 15  1  0  0  0
 15 16  2  0  0  0
 15 17  1  0  0  0
 17 18  2  0  0  0
 17 22  1  0  0  0
 18 19  1  0  0  0
 19 20  2  0  0  0
 20 21  1  0  0  0
 20 22  1  0  0  0
  8  9  1  0  0  0
  8 10  2  0  0  0
 10 11  1  0  0  0
 11 12  1  0  0  0
M  END
> <minimizedAffinity>
-8.47216

$$$$
