CHEMBL2018879


 39 41  0  0  0  0  0  0  0  0999 V2000
  -27.9227  -10.1262   -6.3996 C   0  0  0  0  0  0  0  0  0  0  0  0
  -28.8153   -9.1320   -5.9688 C   0  0  0  0  0  0  0  0  0  0  0  0
  -30.1201   -9.0021   -6.5262 C   0  0  0  0  0  0  0  0  0  0  0  0
  -31.1105   -8.0695   -6.1436 C   0  0  0  0  0  0  0  0  0  0  0  0
  -32.3385   -8.0564   -6.6955 N   0  0  0  0  0  0  0  0  0  0  0  0
  -32.5820   -8.9593   -7.6458 C   0  0  0  0  0  0  0  0  0  0  0  0
  -31.7207   -9.8720   -8.0967 N   0  0  0  0  0  0  0  0  0  0  0  0
  -30.5151   -9.8980   -7.5252 C   0  0  0  0  0  0  0  0  0  0  0  0
  -29.6344  -10.8970   -7.9067 C   0  0  0  0  0  0  0  0  0  0  0  0
  -28.3737  -11.0811   -7.3129 C   0  0  0  0  0  0  0  0  0  0  0  0
  -30.8095   -7.1177   -5.1419 N   0  0  0  0  0  0  0  0  0  0  0  0
  -30.3055   -7.5488   -4.3729 H   0  0  0  0  0  0  0  0  0  0  0  0
  -30.5583   -5.7400   -5.2798 C   0  0  0  0  0  0  0  0  0  0  0  0
  -30.0086   -5.2582   -6.4682 C   0  0  0  0  0  0  0  0  0  0  0  0
  -29.5633   -3.9358   -6.5716 C   0  0  0  0  0  0  0  0  0  0  0  0
  -29.6049   -3.0623   -5.4765 C   0  0  0  0  0  0  0  0  0  0  0  0
  -30.1704   -3.5194   -4.2737 C   0  0  0  0  0  0  0  0  0  0  0  0
  -30.2516   -2.7188   -3.0009 C   0  0  0  0  0  0  0  0  0  0  0  0
  -30.6562   -4.8447   -4.2065 C   0  0  0  0  0  0  0  0  0  0  0  0
  -29.0547   -1.7675   -5.5620 N   0  0  0  0  0  0  0  0  0  0  0  0
  -27.7436   -1.4334   -5.3038 C   0  0  0  0  0  0  0  0  0  0  0  0
  -26.8278   -2.1862   -5.0211 O   0  0  0  0  0  0  0  0  0  0  0  0
  -29.6681   -0.9730   -5.5914 H   0  0  0  0  0  0  0  0  0  0  0  0
  -27.6436   -0.0756   -5.2932 O   0  0  0  0  0  0  0  0  0  0  0  0
  -28.9144    0.6076   -5.2681 C   0  0  0  0  0  0  0  0  0  0  0  0
  -29.0369    1.4122   -6.5436 C   0  0  0  0  0  0  0  0  0  0  0  0
  -26.7458  -10.1777   -5.7176 O   0  0  0  0  0  0  0  0  0  0  0  0
  -26.6131   -9.5299   -4.4332 C   0  0  0  0  0  0  0  0  0  0  0  0
  -25.2377   -9.0715   -3.9294 C   0  0  0  0  0  0  0  0  0  0  0  0
  -25.4318  -11.3635   -2.8869 C   0  0  0  0  0  0  0  0  0  0  0  0
  -24.5124  -10.1790   -3.1530 C   0  0  0  0  0  0  0  0  0  0  0  0
  -27.8010  -12.2492   -7.7435 O   0  0  0  0  0  0  0  0  0  0  0  0
  -27.1772  -12.3304   -9.0214 C   0  0  0  0  0  0  0  0  0  0  0  0
  -26.4376  -11.0598   -9.4155 C   0  0  0  0  0  0  0  0  0  0  0  0
  -26.8948  -10.5104  -10.7163 N   0  0  0  0  0  0  0  0  0  0  0  0
  -28.2331  -10.9782  -11.1327 C   0  0  0  0  0  0  0  0  0  0  0  0
  -28.9356  -10.1546  -12.2067 C   0  0  0  0  0  0  0  0  0  0  0  0
  -26.7688   -9.0468  -10.6902 C   0  0  0  0  0  0  0  0  0  0  0  0
  -27.2459   -8.4075   -9.3915 C   0  0  0  0  0  0  0  0  0  0  0  0
 30 31  1  0  0  0
 31 29  1  0  0  0
 29 28  1  0  0  0
 28 27  1  0  0  0
 27  1  1  0  0  0
  1  2  1  0  0  0
  1 10  2  0  0  0
  2  3  2  0  0  0
  3  4  1  0  0  0
  3  8  1  0  0  0
  4 11  1  0  0  0
  4  5  2  0  0  0
 11 13  1  0  0  0
 11 12  1  0  0  0
 13 14  1  0  0  0
 13 19  2  0  0  0
 14 15  2  0  0  0
 15 16  1  0  0  0
 16 20  1  0  0  0
 16 17  2  0  0  0
 20 21  1  0  0  0
 20 23  1  0  0  0
 21 22  2  0  0  0
 21 24  1  0  0  0
 24 25  1  0  0  0
 25 26  1  0  0  0
 17 18  1  0  0  0
 17 19  1  0  0  0
  5  6  1  0  0  0
  6  7  2  0  0  0
  7  8  1  0  0  0
  8  9  2  0  0  0
  9 10  1  0  0  0
 10 32  1  0  0  0
 32 33  1  0  0  0
 33 34  1  0  0  0
 34 35  1  0  0  0
 35 36  1  0  0  0
 35 38  1  0  0  0
 36 37  1  0  0  0
 38 39  1  0  0  0
M  END
> <minimizedAffinity>
-7.27147

$$$$
