CHEMBL3889841


 39 44  0  0  0  0  0  0  0  0999 V2000
  -29.2916   -5.4185   -5.4020 C   0  0  0  0  0  0  0  0  0  0  0  0
  -28.1674   -5.8406   -4.6605 C   0  0  0  0  0  0  0  0  0  0  0  0
  -27.6895   -7.1729   -4.6975 C   0  0  0  0  0  0  0  0  0  0  0  0
  -28.4788   -8.1347   -5.3554 C   0  0  0  0  0  0  0  0  0  0  0  0
  -28.5012   -9.5446   -5.6536 C   0  0  0  0  0  0  0  0  0  0  0  0
  -29.7933   -9.9249   -5.5129 N   0  0  0  0  0  0  0  0  0  0  0  0
  -30.4235   -8.8430   -5.9888 N   0  0  0  0  0  0  0  0  0  0  0  0
  -29.6824   -7.7030   -5.8915 C   0  0  0  0  0  0  0  0  0  0  0  0
  -30.0212   -6.3691   -6.1236 C   0  0  0  0  0  0  0  0  0  0  0  0
  -31.3957   -8.9243   -6.2460 H   0  0  0  0  0  0  0  0  0  0  0  0
  -31.1457   -4.0532   -4.7269 C   0  0  0  0  0  0  0  0  0  0  0  0
  -29.8003   -4.0935   -5.3151 N   0  0  0  0  0  0  0  0  0  0  0  0
  -29.2218   -2.9218   -5.8520 C   0  0  0  0  0  0  0  0  0  0  0  0
  -29.1437   -1.7159   -5.1372 C   0  0  0  0  0  0  0  0  0  0  0  0
  -28.4572   -0.6094   -5.6368 C   0  0  0  0  0  0  0  0  0  0  0  0
  -27.8287   -0.6841   -6.8725 C   0  0  0  0  0  0  0  0  0  0  0  0
  -27.8874   -1.8535   -7.6305 C   0  0  0  0  0  0  0  0  0  0  0  0
  -28.6267   -2.9438   -7.1367 C   0  0  0  0  0  0  0  0  0  0  0  0
  -27.1884   -1.9997   -8.8601 N   0  0  0  0  0  0  0  0  0  0  0  0
  -27.5755   -1.4074  -10.0531 C   0  0  0  0  0  0  0  0  0  0  0  0
  -28.5368   -0.6543  -10.2004 O   0  0  0  0  0  0  0  0  0  0  0  0
  -26.2623   -2.4061   -8.8081 H   0  0  0  0  0  0  0  0  0  0  0  0
  -26.7256   -1.6423  -11.2525 C   0  0  0  0  0  0  0  0  0  0  0  0
  -27.2299   -1.7161  -12.5500 C   0  0  0  0  0  0  0  0  0  0  0  0
  -26.3567   -1.8323  -13.6349 C   0  0  0  0  0  0  0  0  0  0  0  0
  -24.9763   -1.8554  -13.4268 C   0  0  0  0  0  0  0  0  0  0  0  0
  -24.4636   -1.7841  -12.1356 C   0  0  0  0  0  0  0  0  0  0  0  0
  -25.3352   -1.6789  -11.0531 C   0  0  0  0  0  0  0  0  0  0  0  0
  -27.8594  -10.2330   -6.7737 C   0  0  0  0  0  0  0  0  0  0  0  0
  -27.3190   -9.5837   -7.8098 C   0  0  0  0  0  0  0  0  0  0  0  0
  -27.5578   -9.9388   -9.2294 C   0  0  0  0  0  0  0  0  0  0  0  0
  -28.7632  -10.5831   -9.6288 C   0  0  0  0  0  0  0  0  0  0  0  0
  -29.1451  -10.6477  -10.9753 C   0  0  0  0  0  0  0  0  0  0  0  0
  -28.3072  -10.0648  -11.9000 C   0  0  0  0  0  0  0  0  0  0  0  0
  -27.1425   -9.4526  -11.5320 C   0  0  0  0  0  0  0  0  0  0  0  0
  -26.7335   -9.3731  -10.2096 C   0  0  0  0  0  0  0  0  0  0  0  0
  -26.4898   -8.8945  -12.5869 O   0  0  0  0  0  0  0  0  0  0  0  0
  -27.3946   -9.2181  -13.6650 C   0  0  0  0  0  0  0  0  0  0  0  0
  -28.5536   -9.9590  -13.2396 O   0  0  0  0  0  0  0  0  0  0  0  0
 11 12  1  0  0  0
 12 13  1  0  0  0
 12  1  1  0  0  0
 13 14  1  0  0  0
 13 18  2  0  0  0
 14 15  2  0  0  0
 15 16  1  0  0  0
 16 17  2  0  0  0
 17 19  1  0  0  0
 17 18  1  0  0  0
 19 20  1  0  0  0
 19 22  1  0  0  0
 20 21  2  0  0  0
 20 23  1  0  0  0
 23 24  1  0  0  0
 23 28  2  0  0  0
 24 25  2  0  0  0
 25 26  1  0  0  0
 26 27  2  0  0  0
 27 28  1  0  0  0
  1  2  1  0  0  0
  1  9  2  0  0  0
  2  3  2  0  0  0
  3  4  1  0  0  0
  4  5  1  0  0  0
  4  8  2  0  0  0
  5 29  1  0  0  0
  5  6  2  0  0  0
 29 30  2  0  0  0
 30 31  1  0  0  0
 31 32  1  0  0  0
 31 36  2  0  0  0
 32 33  2  0  0  0
 33 34  1  0  0  0
 34 35  2  0  0  0
 34 39  1  0  0  0
 35 36  1  0  0  0
 35 37  1  0  0  0
 37 38  1  0  0  0
 38 39  1  0  0  0
  6  7  1  0  0  0
  7  8  1  0  0  0
  7 10  1  0  0  0
  8  9  1  0  0  0
M  END
> <minimizedAffinity>
-10.42449

$$$$
