CHEMBL4634073


 42 46  0  0  0  0  0  0  0  0999 V2000
  -13.9509    1.8522  -14.7353 C   0  0  0  0  0  0  0  0  0  0  0  0
  -14.6903    2.2983  -16.0280 C   0  0  0  0  0  0  0  0  0  0  0  0
  -14.4827    3.2974  -16.8337 N   0  0  0  0  0  0  0  0  0  0  0  0
  -13.5549    4.2195  -16.4562 C   0  0  0  0  0  0  0  0  0  0  0  0
  -13.1799    5.4869  -16.9273 C   0  0  0  0  0  0  0  0  0  0  0  0
  -12.1995    5.9117  -16.0039 C   0  0  0  0  0  0  0  0  0  0  0  0
  -11.9988    5.0472  -15.0080 N   0  0  0  0  0  0  0  0  0  0  0  0
  -12.8842    4.0247  -15.2505 N   0  0  0  0  0  0  0  0  0  0  0  0
  -13.1373    2.9001  -14.3618 C   0  0  0  0  0  0  0  0  0  0  0  0
  -12.5073    3.0966  -13.1351 N   0  0  0  0  0  0  0  0  0  0  0  0
  -11.8198    3.8595  -13.1749 H   0  0  0  0  0  0  0  0  0  0  0  0
  -12.2124    2.3080  -12.5929 H   0  0  0  0  0  0  0  0  0  0  0  0
  -15.3915   -2.0200  -12.8263 C   0  0  0  0  0  0  0  0  0  0  0  0
  -15.7790   -0.7734  -12.3515 C   0  0  0  0  0  0  0  0  0  0  0  0
  -15.2709    0.4497  -12.9013 C   0  0  0  0  0  0  0  0  0  0  0  0
  -14.3095    0.5212  -13.9240 C   0  0  0  0  0  0  0  0  0  0  0  0
  -13.7643   -0.7688  -14.1849 C   0  0  0  0  0  0  0  0  0  0  0  0
  -14.3399   -2.0057  -13.7279 C   0  0  0  0  0  0  0  0  0  0  0  0
  -16.1724   -3.7228  -11.1590 C   0  0  0  0  0  0  0  0  0  0  0  0
  -15.7738   -3.1720  -10.1379 O   0  0  0  0  0  0  0  0  0  0  0  0
  -15.9996   -3.2436  -12.4501 N   0  0  0  0  0  0  0  0  0  0  0  0
  -16.4786   -3.8006  -13.1551 H   0  0  0  0  0  0  0  0  0  0  0  0
  -16.8913   -5.5624  -12.4231 C   0  0  0  0  0  0  0  0  0  0  0  0
  -16.9016   -4.8745  -11.1532 O   0  0  0  0  0  0  0  0  0  0  0  0
  -13.7832    6.2700  -18.0203 C   0  0  0  0  0  0  0  0  0  0  0  0
  -14.7604    5.6929  -18.8312 C   0  0  0  0  0  0  0  0  0  0  0  0
  -15.3984    6.4235  -19.8453 C   0  0  0  0  0  0  0  0  0  0  0  0
  -15.0876    7.7667  -20.0855 C   0  0  0  0  0  0  0  0  0  0  0  0
  -14.1642    8.3959  -19.2336 C   0  0  0  0  0  0  0  0  0  0  0  0
  -13.5123    7.6405  -18.2225 C   0  0  0  0  0  0  0  0  0  0  0  0
  -15.6292    8.4854  -21.1192 O   0  0  0  0  0  0  0  0  0  0  0  0
  -16.2556    7.7652  -22.1754 C   0  0  0  0  0  0  0  0  0  0  0  0
  -13.7689    9.7146  -19.2861 O   0  0  0  0  0  0  0  0  0  0  0  0
  -12.5114   10.0536  -18.7008 C   0  0  0  0  0  0  0  0  0  0  0  0
  -15.8390    1.6257  -16.2588 O   0  0  0  0  0  0  0  0  0  0  0  0
  -16.9600    1.9809  -15.4167 C   0  0  0  0  0  0  0  0  0  0  0  0
  -17.7810    0.7309  -15.1334 C   0  0  0  0  0  0  0  0  0  0  0  0
  -19.2760    0.9525  -15.1794 C   0  0  0  0  0  0  0  0  0  0  0  0
  -19.5910    2.2580  -14.6039 N   0  0  0  0  0  0  0  0  0  0  0  0
  -21.0185    2.4241  -14.3588 C   0  0  0  0  0  0  0  0  0  0  0  0
  -19.1137    3.3573  -15.4445 C   0  0  0  0  0  0  0  0  0  0  0  0
  -17.6225    3.3273  -15.6855 C   0  0  0  0  0  0  0  0  0  0  0  0
 23 24  1  0  0  0
 24 19  1  0  0  0
 19 20  2  0  0  0
 19 21  1  0  0  0
 21 13  1  0  0  0
 21 22  1  0  0  0
 13 14  1  0  0  0
 13 18  2  0  0  0
 14 15  2  0  0  0
 15 16  1  0  0  0
 16  1  1  0  0  0
 16 17  2  0  0  0
  1  2  1  0  0  0
  1  9  2  0  0  0
  2 35  1  0  0  0
  2  3  2  0  0  0
 35 36  1  0  0  0
 36 37  1  0  0  0
 36 42  1  0  0  0
 37 38  1  0  0  0
 38 39  1  0  0  0
 39 40  1  0  0  0
 39 41  1  0  0  0
 41 42  1  0  0  0
  3  4  1  0  0  0
  4  5  2  0  0  0
  4  8  1  0  0  0
  5 25  1  0  0  0
  5  6  1  0  0  0
 25 26  1  0  0  0
 25 30  2  0  0  0
 26 27  2  0  0  0
 27 28  1  0  0  0
 28 31  1  0  0  0
 28 29  2  0  0  0
 31 32  1  0  0  0
 29 33  1  0  0  0
 29 30  1  0  0  0
 33 34  1  0  0  0
  6  7  2  0  0  0
  7  8  1  0  0  0
  8  9  1  0  0  0
  9 10  1  0  0  0
 10 11  1  0  0  0
 10 12  1  0  0  0
 17 18  1  0  0  0
M  END
> <minimizedAffinity>
-8.63467

$$$$
