CHEMBL1945502


 34 37  0  0  0  0  0  0  0  0999 V2000
  -27.8927   -2.4578   -8.6039 C   0  0  0  0  0  0  0  0  0  0  0  0
  -28.6666   -1.5000   -8.0607 N   0  0  0  0  0  0  0  0  0  0  0  0
  -29.5173   -1.8766   -7.1030 C   0  0  0  0  0  0  0  0  0  0  0  0
  -29.6131   -3.1729   -6.6705 C   0  0  0  0  0  0  0  0  0  0  0  0
  -28.9440   -4.1244   -7.4209 C   0  0  0  0  0  0  0  0  0  0  0  0
  -28.0829   -3.7739   -8.3986 N   0  0  0  0  0  0  0  0  0  0  0  0
  -28.9840   -5.5399   -7.0050 C   0  0  0  0  0  0  0  0  0  0  0  0
  -29.6347   -6.5129   -7.7792 C   0  0  0  0  0  0  0  0  0  0  0  0
  -29.7001   -7.8427   -7.3421 C   0  0  0  0  0  0  0  0  0  0  0  0
  -29.0222   -8.2256   -6.1866 C   0  0  0  0  0  0  0  0  0  0  0  0
  -29.0933   -9.8605   -5.6572 Cl  0  0  0  0  0  0  0  0  0  0  0  0
  -28.3591   -7.2816   -5.4075 C   0  0  0  0  0  0  0  0  0  0  0  0
  -28.4442   -5.9338   -5.7570 C   0  0  0  0  0  0  0  0  0  0  0  0
  -28.0931   -4.9946   -4.7607 N   0  0  0  0  0  0  0  0  0  0  0  0
  -28.8020   -3.8455   -4.4786 C   0  0  0  0  0  0  0  0  0  0  0  0
  -28.2743   -2.8290   -3.2585 S   0  0  0  0  0  0  0  0  0  0  0  0
  -30.0666   -3.5258   -5.2918 C   0  0  0  0  0  0  0  0  0  0  0  0
  -27.3974   -5.2581   -4.0697 H   0  0  0  0  0  0  0  0  0  0  0  0
  -26.7970   -1.9452   -9.2955 N   0  0  0  0  0  0  0  0  0  0  0  0
  -26.1050   -1.6435   -8.6231 H   0  0  0  0  0  0  0  0  0  0  0  0
  -25.4540   -1.6006  -13.2810 C   0  0  0  0  0  0  0  0  0  0  0  0
  -26.8114   -1.7971  -13.0120 C   0  0  0  0  0  0  0  0  0  0  0  0
  -27.2698   -1.9708  -11.7048 C   0  0  0  0  0  0  0  0  0  0  0  0
  -26.3876   -1.9677  -10.6296 C   0  0  0  0  0  0  0  0  0  0  0  0
  -25.0174   -1.8663  -10.9155 C   0  0  0  0  0  0  0  0  0  0  0  0
  -24.5370   -1.6701  -12.2220 C   0  0  0  0  0  0  0  0  0  0  0  0
  -25.8911   -0.9193  -15.5069 C   0  0  0  0  0  0  0  0  0  0  0  0
  -24.9456   -1.3532  -14.5305 O   0  0  0  0  0  0  0  0  0  0  0  0
  -23.0497   -1.4428  -12.4145 C   0  0  0  0  0  0  0  0  0  0  0  0
  -22.6649    0.0393  -12.5264 C   0  0  0  0  0  0  0  0  0  0  0  0
  -22.2806    0.5219  -13.9390 C   0  0  0  0  0  0  0  0  0  0  0  0
  -21.0541    1.3398  -14.0132 N   0  0  0  0  0  0  0  0  0  0  0  0
  -20.1393    0.8645  -15.0527 C   0  0  0  0  0  0  0  0  0  0  0  0
  -21.4036    2.7400  -14.2630 C   0  0  0  0  0  0  0  0  0  0  0  0
 27 28  1  0  0  0
 28 21  1  0  0  0
 21 22  1  0  0  0
 21 26  2  0  0  0
 22 23  2  0  0  0
 23 24  1  0  0  0
 24 19  1  0  0  0
 24 25  2  0  0  0
 19  1  1  0  0  0
 19 20  1  0  0  0
  1  2  1  0  0  0
  1  6  2  0  0  0
  2  3  2  0  0  0
  3  4  1  0  0  0
  4  5  2  0  0  0
  4 17  1  0  0  0
  5  6  1  0  0  0
  5  7  1  0  0  0
  7  8  1  0  0  0
  7 13  2  0  0  0
  8  9  2  0  0  0
  9 10  1  0  0  0
 10 11  1  0  0  0
 10 12  2  0  0  0
 12 13  1  0  0  0
 13 14  1  0  0  0
 14 15  1  0  0  0
 14 18  1  0  0  0
 15 16  2  0  0  0
 15 17  1  0  0  0
 25 26  1  0  0  0
 26 29  1  0  0  0
 29 30  1  0  0  0
 30 31  1  0  0  0
 31 32  1  0  0  0
 32 33  1  0  0  0
 32 34  1  0  0  0
M  END
> <minimizedAffinity>
-8.24784

$$$$
