CHEMBL230002


 38 42  0  0  0  0  0  0  0  0999 V2000
  -27.8228   -2.4999   -8.5799 C   0  0  0  0  0  0  0  0  0  0  0  0
  -27.7944   -3.7869   -8.8775 N   0  0  0  0  0  0  0  0  0  0  0  0
  -28.3647   -4.4060   -7.7991 C   0  0  0  0  0  0  0  0  0  0  0  0
  -28.6314   -5.7591   -7.5373 C   0  0  0  0  0  0  0  0  0  0  0  0
  -29.2233   -6.0904   -6.3054 C   0  0  0  0  0  0  0  0  0  0  0  0
  -29.4963   -5.0938   -5.3563 C   0  0  0  0  0  0  0  0  0  0  0  0
  -29.2831   -3.7352   -5.6290 C   0  0  0  0  0  0  0  0  0  0  0  0
  -28.7048   -3.4528   -6.8568 C   0  0  0  0  0  0  0  0  0  0  0  0
  -28.3568   -2.2276   -7.3474 O   0  0  0  0  0  0  0  0  0  0  0  0
  -27.4407   -1.4167   -9.2966 N   0  0  0  0  0  0  0  0  0  0  0  0
  -27.9088   -0.5501   -9.0645 H   0  0  0  0  0  0  0  0  0  0  0  0
  -25.0587   -1.1198  -12.1910 C   0  0  0  0  0  0  0  0  0  0  0  0
  -25.6176   -1.0763  -10.9063 C   0  0  0  0  0  0  0  0  0  0  0  0
  -26.9340   -1.4453  -10.6148 C   0  0  0  0  0  0  0  0  0  0  0  0
  -27.7527   -1.7857  -11.6931 C   0  0  0  0  0  0  0  0  0  0  0  0
  -27.2311   -1.8311  -12.9966 C   0  0  0  0  0  0  0  0  0  0  0  0
  -25.8854   -1.5173  -13.2424 C   0  0  0  0  0  0  0  0  0  0  0  0
  -25.2955   -1.6494  -14.8587 Cl  0  0  0  0  0  0  0  0  0  0  0  0
  -23.7346   -0.7977  -12.4365 O   0  0  0  0  0  0  0  0  0  0  0  0
  -23.5202    0.5977  -12.7099 C   0  0  0  0  0  0  0  0  0  0  0  0
  -22.4733    3.3234  -13.8084 C   0  0  0  0  0  0  0  0  0  0  0  0
  -21.8306    2.0166  -13.8490 N   0  0  0  0  0  0  0  0  0  0  0  0
  -20.8890    1.8998  -14.9581 C   0  0  0  0  0  0  0  0  0  0  0  0
  -20.5980    0.4096  -14.9946 C   0  0  0  0  0  0  0  0  0  0  0  0
  -21.8440   -0.2630  -14.4218 C   0  0  0  0  0  0  0  0  0  0  0  0
  -22.7687    0.8833  -14.0106 C   0  0  0  0  0  0  0  0  0  0  0  0
  -29.4494   -7.4384   -6.0915 O   0  0  0  0  0  0  0  0  0  0  0  0
  -30.5189   -8.0574   -6.7016 C   0  0  0  0  0  0  0  0  0  0  0  0
  -31.8140   -7.5317   -6.6877 C   0  0  0  0  0  0  0  0  0  0  0  0
  -32.8271   -8.2671   -7.2749 C   0  0  0  0  0  0  0  0  0  0  0  0
  -32.6293   -9.4360   -7.9161 N   0  0  0  0  0  0  0  0  0  0  0  0
  -31.3417   -9.8837   -7.9806 C   0  0  0  0  0  0  0  0  0  0  0  0
  -30.2629   -9.2334   -7.3980 C   0  0  0  0  0  0  0  0  0  0  0  0
  -31.1322  -11.1631   -8.7332 C   0  0  0  0  0  0  0  0  0  0  0  0
  -32.2064  -12.0110   -8.7452 N   0  0  0  0  0  0  0  0  0  0  0  0
  -30.0785  -11.4414   -9.2908 O   0  0  0  0  0  0  0  0  0  0  0  0
  -33.0622  -11.7356   -8.2754 H   0  0  0  0  0  0  0  0  0  0  0  0
  -32.1523  -12.8885   -9.2414 H   0  0  0  0  0  0  0  0  0  0  0  0
 21 22  1  0  0  0
 22 23  1  0  0  0
 22 26  1  0  0  0
 23 24  1  0  0  0
 24 25  1  0  0  0
 25 26  1  0  0  0
 26 20  1  0  0  0
 20 19  1  0  0  0
 19 12  1  0  0  0
 12 13  1  0  0  0
 12 17  2  0  0  0
 13 14  2  0  0  0
 14 10  1  0  0  0
 14 15  1  0  0  0
 10  1  1  0  0  0
 10 11  1  0  0  0
  1  2  2  0  0  0
  1  9  1  0  0  0
  2  3  1  0  0  0
  3  4  1  0  0  0
  3  8  2  0  0  0
  4  5  2  0  0  0
  5 27  1  0  0  0
  5  6  1  0  0  0
 27 28  1  0  0  0
 28 29  1  0  0  0
 28 33  2  0  0  0
 29 30  2  0  0  0
 30 31  1  0  0  0
 31 32  2  0  0  0
 32 34  1  0  0  0
 32 33  1  0  0  0
 34 35  1  0  0  0
 34 36  2  0  0  0
 35 37  1  0  0  0
 35 38  1  0  0  0
  6  7  2  0  0  0
  7  8  1  0  0  0
  8  9  1  0  0  0
 15 16  2  0  0  0
 16 17  1  0  0  0
 17 18  1  0  0  0
M  END
> <minimizedAffinity>
-9.49225

$$$$
