CHEMBL3979170


 34 38  0  0  0  0  0  0  0  0999 V2000
  -29.7322   12.0927  -13.6068 N   0  0  0  0  0  0  0  0  0  0  0  0
  -28.8336   11.8603  -14.7299 C   0  0  0  0  0  0  0  0  0  0  0  0
  -29.1361   10.7076  -15.4573 C   0  0  0  0  0  0  0  0  0  0  0  0
  -28.1266   10.0071  -16.0841 C   0  0  0  0  0  0  0  0  0  0  0  0
  -26.8504   10.4964  -16.1674 C   0  0  0  0  0  0  0  0  0  0  0  0
  -25.9589    9.6052  -16.6102 N   0  0  0  0  0  0  0  0  0  0  0  0
  -24.7421   10.0765  -16.9081 C   0  0  0  0  0  0  0  0  0  0  0  0
  -24.4562   11.4214  -16.8714 C   0  0  0  0  0  0  0  0  0  0  0  0
  -25.3137   12.3302  -16.2744 N   0  0  0  0  0  0  0  0  0  0  0  0
  -26.5461   11.8380  -15.8147 C   0  0  0  0  0  0  0  0  0  0  0  0
  -27.5877   12.4778  -15.0097 C   0  0  0  0  0  0  0  0  0  0  0  0
  -23.2881   11.8175  -17.6759 C   0  0  0  0  0  0  0  0  0  0  0  0
  -23.2604   12.5639  -18.8834 C   0  0  0  0  0  0  0  0  0  0  0  0
  -22.0859   12.4855  -19.5269 N   0  0  0  0  0  0  0  0  0  0  0  0
  -21.3569   11.6714  -18.7469 N   0  0  0  0  0  0  0  0  0  0  0  0
  -19.9418   11.4989  -18.9884 C   0  0  0  0  0  0  0  0  0  0  0  0
  -22.0834   11.1315  -17.7158 C   0  0  0  0  0  0  0  0  0  0  0  0
  -30.1463   12.5992   -9.9186 C   0  0  0  0  0  0  0  0  0  0  0  0
  -28.8190   12.6588   -9.4980 C   0  0  0  0  0  0  0  0  0  0  0  0
  -27.7950   12.6363  -10.4396 C   0  0  0  0  0  0  0  0  0  0  0  0
  -28.0910   12.5127  -11.8048 C   0  0  0  0  0  0  0  0  0  0  0  0
  -29.4117   12.4397  -12.2710 C   0  0  0  0  0  0  0  0  0  0  0  0
  -30.4337   12.5287  -11.3021 C   0  0  0  0  0  0  0  0  0  0  0  0
  -30.9916   12.0832   -7.7406 C   0  0  0  0  0  0  0  0  0  0  0  0
  -31.2244   12.5641   -9.0689 O   0  0  0  0  0  0  0  0  0  0  0  0
  -26.4601   12.6476  -10.1276 O   0  0  0  0  0  0  0  0  0  0  0  0
  -25.5808   12.4300  -11.2279 C   0  0  0  0  0  0  0  0  0  0  0  0
  -30.9042   11.1412  -13.7985 C   0  0  0  0  0  0  0  0  0  0  0  0
  -32.3607   11.6713  -13.6519 C   0  0  0  0  0  0  0  0  0  0  0  0
  -33.1357   10.7191  -12.7273 C   0  0  0  0  0  0  0  0  0  0  0  0
  -34.5688   11.1859  -12.8647 C   0  0  0  0  0  0  0  0  0  0  0  0
  -34.6393   11.7117  -14.2914 C   0  0  0  0  0  0  0  0  0  0  0  0
  -33.2622   11.6351  -14.8230 N   0  0  0  0  0  0  0  0  0  0  0  0
  -33.0769   12.4204  -15.4460 H   0  0  0  0  0  0  0  0  0  0  0  0
 24 25  1  0  0  0
 25 18  1  0  0  0
 18 19  1  0  0  0
 18 23  2  0  0  0
 19 20  2  0  0  0
 20 26  1  0  0  0
 20 21  1  0  0  0
 26 27  1  0  0  0
 21 22  2  0  0  0
 22  1  1  0  0  0
 22 23  1  0  0  0
  1 28  1  0  0  0
  1  2  1  0  0  0
 28 29  1  0  0  0
 29 30  1  0  0  0
 29 33  1  0  0  0
 30 31  1  0  0  0
 31 32  1  0  0  0
 32 33  1  0  0  0
 33 34  1  0  0  0
  2  3  1  0  0  0
  2 11  2  0  0  0
  3  4  2  0  0  0
  4  5  1  0  0  0
  5  6  1  0  0  0
  5 10  2  0  0  0
  6  7  2  0  0  0
  7  8  1  0  0  0
  8 12  1  0  0  0
  8  9  2  0  0  0
 12 13  1  0  0  0
 12 17  2  0  0  0
 13 14  2  0  0  0
 14 15  1  0  0  0
 15 16  1  0  0  0
 15 17  1  0  0  0
  9 10  1  0  0  0
 10 11  1  0  0  0
M  END
> <minimizedAffinity>
-6.45277

$$$$
