CHEMBL3958756


 35 39  0  0  0  0  0  0  0  0999 V2000
  -29.2274   -9.0109   -5.8566 N   0  0  0  0  0  0  0  0  0  0  0  0
  -29.1456   -7.5715   -5.6136 C   0  0  0  0  0  0  0  0  0  0  0  0
  -29.9947   -6.8235   -6.3669 C   0  0  0  0  0  0  0  0  0  0  0  0
  -29.8914   -5.4953   -6.1822 C   0  0  0  0  0  0  0  0  0  0  0  0
  -28.9549   -4.8488   -5.4043 C   0  0  0  0  0  0  0  0  0  0  0  0
  -28.4530   -4.0147   -6.2317 N   0  0  0  0  0  0  0  0  0  0  0  0
  -29.0688   -2.8818   -6.1603 C   0  0  0  0  0  0  0  0  0  0  0  0
  -28.7334   -2.1880   -5.1172 C   0  0  0  0  0  0  0  0  0  0  0  0
  -28.1769   -3.2731   -4.0906 N   0  0  0  0  0  0  0  0  0  0  0  0
  -28.2030   -5.0250   -4.3632 C   0  0  0  0  0  0  0  0  0  0  0  0
  -28.2494   -6.7440   -4.6534 C   0  0  0  0  0  0  0  0  0  0  0  0
  -29.0942   -0.5468   -5.6227 C   0  0  0  0  0  0  0  0  0  0  0  0
  -28.2630    0.6042   -6.3594 C   0  0  0  0  0  0  0  0  0  0  0  0
  -28.9816    1.6885   -6.7611 N   0  0  0  0  0  0  0  0  0  0  0  0
  -30.2416    1.4128   -6.3718 N   0  0  0  0  0  0  0  0  0  0  0  0
  -31.3573    2.3155   -6.7569 C   0  0  0  0  0  0  0  0  0  0  0  0
  -30.2956    0.1629   -5.6781 C   0  0  0  0  0  0  0  0  0  0  0  0
  -26.4552  -11.2733   -4.5673 C   0  0  0  0  0  0  0  0  0  0  0  0
  -27.1433  -11.9908   -3.6246 C   0  0  0  0  0  0  0  0  0  0  0  0
  -28.5117  -11.7993   -3.4946 C   0  0  0  0  0  0  0  0  0  0  0  0
  -29.1810  -10.8809   -4.3036 C   0  0  0  0  0  0  0  0  0  0  0  0
  -28.5167  -10.0432   -5.1888 C   0  0  0  0  0  0  0  0  0  0  0  0
  -27.1561  -10.3676   -5.3683 C   0  0  0  0  0  0  0  0  0  0  0  0
  -24.3201  -11.5150   -3.5969 C   0  0  0  0  0  0  0  0  0  0  0  0
  -25.1018  -11.3039   -4.7658 O   0  0  0  0  0  0  0  0  0  0  0  0
  -29.2871  -12.4359   -2.5665 O   0  0  0  0  0  0  0  0  0  0  0  0
  -30.6821  -12.3000   -2.8036 C   0  0  0  0  0  0  0  0  0  0  0  0
  -29.7763   -9.3087   -7.2601 C   0  0  0  0  0  0  0  0  0  0  0  0
  -28.8206   -9.7624   -8.3627 C   0  0  0  0  0  0  0  0  0  0  0  0
  -27.9113   -8.8664   -8.9393 C   0  0  0  0  0  0  0  0  0  0  0  0
  -27.1197   -9.2283  -10.0297 C   0  0  0  0  0  0  0  0  0  0  0  0
  -27.1914  -10.5208  -10.5383 C   0  0  0  0  0  0  0  0  0  0  0  0
  -28.0431  -11.4556   -9.9514 C   0  0  0  0  0  0  0  0  0  0  0  0
  -28.9059  -11.0615   -8.9212 C   0  0  0  0  0  0  0  0  0  0  0  0
  -30.2327  -12.1299   -8.5725 Cl  0  0  0  0  0  0  0  0  0  0  0  0
 24 25  1  0  0  0
 25 18  1  0  0  0
 18 19  1  0  0  0
 18 23  2  0  0  0
 19 20  2  0  0  0
 20 26  1  0  0  0
 20 21  1  0  0  0
 26 27  1  0  0  0
 21 22  2  0  0  0
 22  1  1  0  0  0
 22 23  1  0  0  0
  1 28  1  0  0  0
  1  2  1  0  0  0
 28 29  1  0  0  0
 29 30  1  0  0  0
 29 34  2  0  0  0
 30 31  2  0  0  0
 31 32  1  0  0  0
 32 33  2  0  0  0
 33 34  1  0  0  0
 34 35  1  0  0  0
  2  3  1  0  0  0
  2 11  2  0  0  0
  3  4  2  0  0  0
  4  5  1  0  0  0
  5  6  1  0  0  0
  5 10  2  0  0  0
  6  7  2  0  0  0
  7  8  1  0  0  0
  8 12  1  0  0  0
  8  9  2  0  0  0
 12 13  1  0  0  0
 12 17  2  0  0  0
 13 14  2  0  0  0
 14 15  1  0  0  0
 15 16  1  0  0  0
 15 17  1  0  0  0
  9 10  1  0  0  0
 10 11  1  0  0  0
M  END
> <minimizedAffinity>
-8.49349

$$$$
