CHEMBL1978195


 21 23  0  0  0  0  0  0  0  0999 V2000
  -27.8075   -2.2556   -8.6459 C   0  0  0  0  0  0  0  0  0  0  0  0
  -28.3978   -3.4800   -8.4049 C   0  0  0  0  0  0  0  0  0  0  0  0
  -28.9442   -3.6317   -7.0770 C   0  0  0  0  0  0  0  0  0  0  0  0
  -29.5596   -4.7338   -6.4134 C   0  0  0  0  0  0  0  0  0  0  0  0
  -30.0312   -4.4648   -5.1223 C   0  0  0  0  0  0  0  0  0  0  0  0
  -29.9463   -3.2828   -4.4761 N   0  0  0  0  0  0  0  0  0  0  0  0
  -29.3401   -2.2549   -5.0995 C   0  0  0  0  0  0  0  0  0  0  0  0
  -28.8290   -2.4180   -6.3865 C   0  0  0  0  0  0  0  0  0  0  0  0
  -27.9984   -1.2221   -7.3073 S   0  0  0  0  0  0  0  0  0  0  0  0
  -29.7055   -6.0658   -7.0419 C   0  0  0  0  0  0  0  0  0  0  0  0
  -30.8931   -6.8148   -6.9412 C   0  0  0  0  0  0  0  0  0  0  0  0
  -31.0046   -8.0984   -7.4851 C   0  0  0  0  0  0  0  0  0  0  0  0
  -29.9419   -8.6398   -8.1973 C   0  0  0  0  0  0  0  0  0  0  0  0
  -30.0850  -10.3753   -8.9289 Br  0  0  0  0  0  0  0  0  0  0  0  0
  -28.7747   -7.9054   -8.3720 C   0  0  0  0  0  0  0  0  0  0  0  0
  -28.6558   -6.6375   -7.7908 C   0  0  0  0  0  0  0  0  0  0  0  0
  -27.8505   -1.8291  -11.0102 N   0  0  0  0  0  0  0  0  0  0  0  0
  -27.1162   -1.8593   -9.8578 C   0  0  0  0  0  0  0  0  0  0  0  0
  -25.9303   -1.5431   -9.8974 O   0  0  0  0  0  0  0  0  0  0  0  0
  -27.3852   -1.5387  -11.8585 H   0  0  0  0  0  0  0  0  0  0  0  0
  -28.8331   -2.0584  -11.0283 H   0  0  0  0  0  0  0  0  0  0  0  0
 17 18  1  0  0  0
 17 20  1  0  0  0
 17 21  1  0  0  0
 18 19  2  0  0  0
 18  1  1  0  0  0
  1  2  2  0  0  0
  1  9  1  0  0  0
  2  3  1  0  0  0
  3  4  1  0  0  0
  3  8  2  0  0  0
  4 10  1  0  0  0
  4  5  2  0  0  0
 10 11  1  0  0  0
 10 16  2  0  0  0
 11 12  2  0  0  0
 12 13  1  0  0  0
 13 14  1  0  0  0
 13 15  2  0  0  0
 15 16  1  0  0  0
  5  6  1  0  0  0
  6  7  2  0  0  0
  7  8  1  0  0  0
  8  9  1  0  0  0
M  END
> <minimizedAffinity>
-7.72095

$$$$
