CHEMBL3409417


 32 34  0  0  0  0  0  0  0  0999 V2000
  -21.2247    0.0028  -14.8881 N   0  0  0  0  0  0  0  0  0  0  0  0
  -22.3185    0.0579  -14.0436 C   0  0  0  0  0  0  0  0  0  0  0  0
  -22.6617    1.0345  -13.3864 O   0  0  0  0  0  0  0  0  0  0  0  0
  -22.9845   -1.1612  -13.9805 N   0  0  0  0  0  0  0  0  0  0  0  0
  -21.1744   -0.7843  -15.5156 H   0  0  0  0  0  0  0  0  0  0  0  0
  -22.3813   -1.9667  -14.0659 H   0  0  0  0  0  0  0  0  0  0  0  0
  -24.1225   -1.3120  -13.1555 C   0  0  0  0  0  0  0  0  0  0  0  0
  -23.9806   -1.1499  -11.7824 C   0  0  0  0  0  0  0  0  0  0  0  0
  -25.1060   -1.2243  -10.9595 C   0  0  0  0  0  0  0  0  0  0  0  0
  -26.3742   -1.5009  -11.4926 C   0  0  0  0  0  0  0  0  0  0  0  0
  -27.6718   -1.5987  -10.3608 Cl  0  0  0  0  0  0  0  0  0  0  0  0
  -26.5356   -1.6859  -12.8684 C   0  0  0  0  0  0  0  0  0  0  0  0
  -25.3883   -1.5886  -13.6885 C   0  0  0  0  0  0  0  0  0  0  0  0
  -27.8504   -1.9683  -13.5495 C   0  0  0  0  0  0  0  0  0  0  0  0
  -28.2523   -3.2661  -13.5754 F   0  0  0  0  0  0  0  0  0  0  0  0
  -28.8823   -1.2850  -12.9750 F   0  0  0  0  0  0  0  0  0  0  0  0
  -27.8375   -1.5715  -14.8559 F   0  0  0  0  0  0  0  0  0  0  0  0
  -18.1857    2.9328  -15.1477 C   0  0  0  0  0  0  0  0  0  0  0  0
  -19.5167    3.3305  -15.1360 C   0  0  0  0  0  0  0  0  0  0  0  0
  -20.5343    2.3750  -15.0772 C   0  0  0  0  0  0  0  0  0  0  0  0
  -20.2399    1.0099  -15.0362 C   0  0  0  0  0  0  0  0  0  0  0  0
  -18.9019    0.6164  -15.1112 C   0  0  0  0  0  0  0  0  0  0  0  0
  -17.8802    1.5702  -15.1958 C   0  0  0  0  0  0  0  0  0  0  0  0
  -17.2510    3.9421  -15.1595 O   0  0  0  0  0  0  0  0  0  0  0  0
  -14.7103    4.2844  -17.7911 C   0  0  0  0  0  0  0  0  0  0  0  0
  -15.9160    4.4834  -17.1363 C   0  0  0  0  0  0  0  0  0  0  0  0
  -16.1251    3.8048  -15.9377 C   0  0  0  0  0  0  0  0  0  0  0  0
  -15.1817    2.8879  -15.4899 C   0  0  0  0  0  0  0  0  0  0  0  0
  -14.0164    2.7424  -16.2208 C   0  0  0  0  0  0  0  0  0  0  0  0
  -13.7510    3.4321  -17.3505 N   0  0  0  0  0  0  0  0  0  0  0  0
  -14.1339    5.5698  -19.9721 N   0  0  0  0  0  0  0  0  0  0  0  0
  -14.4000    5.0219  -18.9869 C   0  0  0  0  0  0  0  0  0  0  0  0
 31 32  3  0  0  0
 32 25  1  0  0  0
 25 26  1  0  0  0
 25 30  2  0  0  0
 26 27  2  0  0  0
 27 24  1  0  0  0
 27 28  1  0  0  0
 24 18  1  0  0  0
 18 19  1  0  0  0
 18 23  2  0  0  0
 19 20  2  0  0  0
 20 21  1  0  0  0
 21  1  1  0  0  0
 21 22  2  0  0  0
  1  2  1  0  0  0
  1  5  1  0  0  0
  2  3  2  0  0  0
  2  4  1  0  0  0
  4  7  1  0  0  0
  4  6  1  0  0  0
  7  8  1  0  0  0
  7 13  2  0  0  0
  8  9  2  0  0  0
  9 10  1  0  0  0
 10 11  1  0  0  0
 10 12  2  0  0  0
 12 14  1  0  0  0
 12 13  1  0  0  0
 14 15  1  0  0  0
 14 16  1  0  0  0
 14 17  1  0  0  0
 22 23  1  0  0  0
 28 29  2  0  0  0
 29 30  1  0  0  0
M  END
> <minimizedAffinity>
-9.37617

$$$$
