CHEMBL272767


 33 36  0  0  0  0  0  0  0  0999 V2000
  -25.0905   -1.5893  -12.7703 C   0  0  0  0  0  0  0  0  0  0  0  0
  -23.8431   -1.7343  -12.1576 C   0  0  0  0  0  0  0  0  0  0  0  0
  -22.6981   -1.1951  -12.7532 C   0  0  0  0  0  0  0  0  0  0  0  0
  -22.7650   -0.4982  -13.9711 C   0  0  0  0  0  0  0  0  0  0  0  0
  -24.0025   -0.5068  -14.6375 C   0  0  0  0  0  0  0  0  0  0  0  0
  -25.1571   -1.0347  -14.0431 C   0  0  0  0  0  0  0  0  0  0  0  0
  -21.5827    0.2132  -14.4833 C   0  0  0  0  0  0  0  0  0  0  0  0
  -20.5535   -0.5659  -14.9455 N   0  0  0  0  0  0  0  0  0  0  0  0
  -19.4148    0.0043  -15.3980 C   0  0  0  0  0  0  0  0  0  0  0  0
  -19.1812    1.3646  -15.4477 C   0  0  0  0  0  0  0  0  0  0  0  0
  -20.2215    2.1494  -14.9603 C   0  0  0  0  0  0  0  0  0  0  0  0
  -20.3365    3.5072  -14.8456 N   0  0  0  0  0  0  0  0  0  0  0  0
  -21.4797    3.9129  -14.2826 N   0  0  0  0  0  0  0  0  0  0  0  0
  -22.1237    2.7811  -14.0158 C   0  0  0  0  0  0  0  0  0  0  0  0
  -23.3019    2.8079  -13.3709 N   0  0  0  0  0  0  0  0  0  0  0  0
  -21.4139    1.6207  -14.4585 C   0  0  0  0  0  0  0  0  0  0  0  0
  -19.6652    4.2109  -15.1251 H   0  0  0  0  0  0  0  0  0  0  0  0
  -23.5586    3.7144  -12.9919 H   0  0  0  0  0  0  0  0  0  0  0  0
  -23.5269    2.0507  -12.7325 H   0  0  0  0  0  0  0  0  0  0  0  0
  -27.6120   -2.3127  -10.2657 N   0  0  0  0  0  0  0  0  0  0  0  0
  -26.3546   -1.9404  -10.7159 C   0  0  0  0  0  0  0  0  0  0  0  0
  -25.4240   -1.6123   -9.9914 O   0  0  0  0  0  0  0  0  0  0  0  0
  -26.2867   -1.9493  -12.1076 N   0  0  0  0  0  0  0  0  0  0  0  0
  -28.1208   -2.9430  -10.8693 H   0  0  0  0  0  0  0  0  0  0  0  0
  -27.1491   -1.6821  -12.5613 H   0  0  0  0  0  0  0  0  0  0  0  0
  -29.6621   -4.5108   -6.3496 C   0  0  0  0  0  0  0  0  0  0  0  0
  -29.0552   -3.2935   -6.9845 C   0  0  0  0  0  0  0  0  0  0  0  0
  -28.8616   -2.1256   -6.2365 C   0  0  0  0  0  0  0  0  0  0  0  0
  -28.2821   -0.9965   -6.8200 C   0  0  0  0  0  0  0  0  0  0  0  0
  -28.0663    0.2640   -6.0382 C   0  0  0  0  0  0  0  0  0  0  0  0
  -27.8802   -1.0525   -8.1626 C   0  0  0  0  0  0  0  0  0  0  0  0
  -28.0401   -2.2169   -8.9208 C   0  0  0  0  0  0  0  0  0  0  0  0
  -28.6579   -3.3251   -8.3324 C   0  0  0  0  0  0  0  0  0  0  0  0
 26 27  1  0  0  0
 27 28  1  0  0  0
 27 33  2  0  0  0
 28 29  2  0  0  0
 29 30  1  0  0  0
 29 31  1  0  0  0
 31 32  2  0  0  0
 32 20  1  0  0  0
 32 33  1  0  0  0
 20 21  1  0  0  0
 20 24  1  0  0  0
 21 22  2  0  0  0
 21 23  1  0  0  0
 23  1  1  0  0  0
 23 25  1  0  0  0
  1  2  1  0  0  0
  1  6  2  0  0  0
  2  3  2  0  0  0
  3  4  1  0  0  0
  4  7  1  0  0  0
  4  5  2  0  0  0
  7  8  1  0  0  0
  7 16  2  0  0  0
  8  9  2  0  0  0
  9 10  1  0  0  0
 10 11  2  0  0  0
 11 12  1  0  0  0
 11 16  1  0  0  0
 12 13  1  0  0  0
 12 17  1  0  0  0
 13 14  2  0  0  0
 14 15  1  0  0  0
 14 16  1  0  0  0
 15 18  1  0  0  0
 15 19  1  0  0  0
  5  6  1  0  0  0
M  END
> <minimizedAffinity>
-10.11357

$$$$
