CHEMBL1083042


 35 41  0  0  0  0  0  0  0  0999 V2000
  -28.3556   -5.0354   -7.7215 N   0  0  0  0  0  0  0  0  0  0  0  0
  -28.6830   -6.3877   -7.4751 C   0  0  0  0  0  0  0  0  0  0  0  0
  -28.6171   -7.5329   -8.2868 C   0  0  0  0  0  0  0  0  0  0  0  0
  -28.9726   -8.7780   -7.7225 C   0  0  0  0  0  0  0  0  0  0  0  0
  -29.3790   -8.8973   -6.3871 C   0  0  0  0  0  0  0  0  0  0  0  0
  -29.5690   -7.7243   -5.6426 C   0  0  0  0  0  0  0  0  0  0  0  0
  -29.2023   -6.4782   -6.1703 C   0  0  0  0  0  0  0  0  0  0  0  0
  -29.2143   -5.1655   -5.7648 C   0  0  0  0  0  0  0  0  0  0  0  0
  -29.8990   -4.6824   -4.6433 C   0  0  0  0  0  0  0  0  0  0  0  0
  -30.1083   -3.2883   -4.6305 C   0  0  0  0  0  0  0  0  0  0  0  0
  -29.5528   -2.4232   -5.6028 C   0  0  0  0  0  0  0  0  0  0  0  0
  -28.3482   -2.9522   -6.1597 C   0  0  0  0  0  0  0  0  0  0  0  0
  -28.5370   -4.2892   -6.5721 C   0  0  0  0  0  0  0  0  0  0  0  0
  -27.1568   -2.5865   -5.1524 C   0  0  0  0  0  0  0  0  0  0  0  0
  -27.2770   -1.2365   -4.3378 C   0  0  0  0  0  0  0  0  0  0  0  0
  -28.4611   -0.4583   -4.7810 C   0  0  0  0  0  0  0  0  0  0  0  0
  -29.5613   -1.0071   -5.3918 C   0  0  0  0  0  0  0  0  0  0  0  0
  -30.3070    0.0789   -5.8574 C   0  0  0  0  0  0  0  0  0  0  0  0
  -29.8151    1.2408   -5.4070 N   0  0  0  0  0  0  0  0  0  0  0  0
  -28.7492    0.8697   -4.6576 N   0  0  0  0  0  0  0  0  0  0  0  0
  -28.1209    1.8404   -3.7973 C   0  0  0  0  0  0  0  0  0  0  0  0
  -30.7868   -2.9645   -3.4046 C   0  0  0  0  0  0  0  0  0  0  0  0
  -31.1315   -1.9160   -2.8766 O   0  0  0  0  0  0  0  0  0  0  0  0
  -30.9435   -4.1952   -2.7689 N   0  0  0  0  0  0  0  0  0  0  0  0
  -30.4507   -5.3561   -3.4790 C   0  0  0  0  0  0  0  0  0  0  0  0
  -31.2811   -4.2186   -1.8186 H   0  0  0  0  0  0  0  0  0  0  0  0
  -29.4053  -10.2081   -5.6094 C   0  0  0  0  0  0  0  0  0  0  0  0
  -29.0848  -10.1751   -4.1126 C   0  0  0  0  0  0  0  0  0  0  0  0
  -27.5994  -10.3327   -3.8348 C   0  0  0  0  0  0  0  0  0  0  0  0
  -27.0936  -11.5790   -4.5429 C   0  0  0  0  0  0  0  0  0  0  0  0
  -27.3745  -11.4646   -6.0329 C   0  0  0  0  0  0  0  0  0  0  0  0
  -28.7628  -11.2918   -6.2985 O   0  0  0  0  0  0  0  0  0  0  0  0
  -28.0072   -4.5071   -9.0359 C   0  0  0  0  0  0  0  0  0  0  0  0
  -27.1729   -2.1391   -9.5524 C   0  0  0  0  0  0  0  0  0  0  0  0
  -28.3708   -3.0292   -9.2535 C   0  0  0  0  0  0  0  0  0  0  0  0
 34 35  1  0  0  0
 35 33  1  0  0  0
 33  1  1  0  0  0
  1  2  1  0  0  0
  1 13  1  0  0  0
  2  3  1  0  0  0
  2  7  2  0  0  0
  3  4  2  0  0  0
  4  5  1  0  0  0
  5 27  1  0  0  0
  5  6  2  0  0  0
 27 28  1  0  0  0
 27 32  1  0  0  0
 28 29  1  0  0  0
 29 30  1  0  0  0
 30 31  1  0  0  0
 31 32  1  0  0  0
  6  7  1  0  0  0
  7  8  1  0  0  0
  8  9  1  0  0  0
  8 13  2  0  0  0
  9 10  2  0  0  0
  9 25  1  0  0  0
 10 11  1  0  0  0
 10 22  1  0  0  0
 11 12  2  0  0  0
 11 17  1  0  0  0
 12 13  1  0  0  0
 12 14  1  0  0  0
 14 15  1  0  0  0
 15 16  1  0  0  0
 16 17  2  0  0  0
 16 20  1  0  0  0
 17 18  1  0  0  0
 18 19  2  0  0  0
 19 20  1  0  0  0
 20 21  1  0  0  0
 22 23  2  0  0  0
 22 24  1  0  0  0
 24 25  1  0  0  0
 24 26  1  0  0  0
M  END
> <minimizedAffinity>
-5.21344

$$$$
