CHEMBL2430260


 34 38  0  0  0  0  0  0  0  0999 V2000
  -11.8080    1.1386  -13.3809 C   0  0  0  0  0  0  0  0  0  0  0  0
  -12.9714    1.7212  -14.1042 C   0  0  0  0  0  0  0  0  0  0  0  0
  -12.8088    2.8051  -14.9569 N   0  0  0  0  0  0  0  0  0  0  0  0
  -13.9967    3.1275  -15.5587 C   0  0  0  0  0  0  0  0  0  0  0  0
  -14.9329    2.2295  -15.0802 C   0  0  0  0  0  0  0  0  0  0  0  0
  -14.3076    1.3364  -14.1535 C   0  0  0  0  0  0  0  0  0  0  0  0
  -16.3656    2.2123  -15.4685 C   0  0  0  0  0  0  0  0  0  0  0  0
  -16.7813    3.2969  -16.4455 C   0  0  0  0  0  0  0  0  0  0  0  0
  -15.7202    4.2722  -16.9651 C   0  0  0  0  0  0  0  0  0  0  0  0
  -14.2616    4.1770  -16.5028 C   0  0  0  0  0  0  0  0  0  0  0  0
  -13.3772    5.0717  -17.0165 C   0  0  0  0  0  0  0  0  0  0  0  0
  -11.8868    5.2053  -16.7421 C   0  0  0  0  0  0  0  0  0  0  0  0
  -11.1825    4.5344  -16.0094 O   0  0  0  0  0  0  0  0  0  0  0  0
  -11.4475    6.2731  -17.5063 N   0  0  0  0  0  0  0  0  0  0  0  0
  -12.4788    6.8429  -18.2421 C   0  0  0  0  0  0  0  0  0  0  0  0
  -12.3700    7.9297  -19.0985 C   0  0  0  0  0  0  0  0  0  0  0  0
  -13.5229    8.3669  -19.7489 C   0  0  0  0  0  0  0  0  0  0  0  0
  -14.7332    7.7100  -19.5246 C   0  0  0  0  0  0  0  0  0  0  0  0
  -15.8414    8.1306  -20.1495 F   0  0  0  0  0  0  0  0  0  0  0  0
  -14.8215    6.6206  -18.6600 C   0  0  0  0  0  0  0  0  0  0  0  0
  -13.6813    6.1700  -17.9993 C   0  0  0  0  0  0  0  0  0  0  0  0
  -11.9237    3.2746  -15.1273 H   0  0  0  0  0  0  0  0  0  0  0  0
  -10.4864    6.5798  -17.5099 H   0  0  0  0  0  0  0  0  0  0  0  0
  -15.0082    0.2350  -13.4792 C   0  0  0  0  0  0  0  0  0  0  0  0
  -15.4785    0.3653  -12.3504 O   0  0  0  0  0  0  0  0  0  0  0  0
  -15.0400   -0.9723  -14.1367 N   0  0  0  0  0  0  0  0  0  0  0  0
  -14.5284   -1.0794  -14.9995 H   0  0  0  0  0  0  0  0  0  0  0  0
  -15.5588   -2.1537  -13.4724 C   0  0  0  0  0  0  0  0  0  0  0  0
  -14.5064   -2.9149  -12.6452 C   0  0  0  0  0  0  0  0  0  0  0  0
  -14.9357   -4.2130  -12.0929 N   0  0  0  0  0  0  0  0  0  0  0  0
  -14.8715   -5.2755  -13.1125 C   0  0  0  0  0  0  0  0  0  0  0  0
  -16.3003   -5.7226  -13.3619 C   0  0  0  0  0  0  0  0  0  0  0  0
  -16.9614   -5.4848  -12.0239 C   0  0  0  0  0  0  0  0  0  0  0  0
  -16.3077   -4.1949  -11.5520 C   0  0  0  0  0  0  0  0  0  0  0  0
  1  2  1  0  0  0
  2  3  1  0  0  0
  2  6  2  0  0  0
  3  4  1  0  0  0
  3 22  1  0  0  0
  4  5  2  0  0  0
  4 10  1  0  0  0
  5  6  1  0  0  0
  5  7  1  0  0  0
  6 24  1  0  0  0
 24 25  2  0  0  0
 24 26  1  0  0  0
 26 28  1  0  0  0
 26 27  1  0  0  0
 28 29  1  0  0  0
 29 30  1  0  0  0
 30 31  1  0  0  0
 30 34  1  0  0  0
 31 32  1  0  0  0
 32 33  1  0  0  0
 33 34  1  0  0  0
  7  8  1  0  0  0
  8  9  1  0  0  0
  9 10  1  0  0  0
 10 11  2  0  0  0
 11 12  1  0  0  0
 11 21  1  0  0  0
 12 13  2  0  0  0
 12 14  1  0  0  0
 14 15  1  0  0  0
 14 23  1  0  0  0
 15 16  1  0  0  0
 15 21  2  0  0  0
 16 17  2  0  0  0
 17 18  1  0  0  0
 18 19  1  0  0  0
 18 20  2  0  0  0
 20 21  1  0  0  0
M  END
> <minimizedAffinity>
-7.56522

$$$$
