CHEMBL271861


 38 44  0  0  0  0  0  0  0  0999 V2000
  -28.1057   -3.0413   -8.0883 C   0  0  0  0  0  0  0  0  0  0  0  0
  -29.0550   -2.8346   -7.0742 C   0  0  0  0  0  0  0  0  0  0  0  0
  -29.6280   -3.9355   -6.4850 C   0  0  0  0  0  0  0  0  0  0  0  0
  -29.3668   -5.1882   -7.0338 C   0  0  0  0  0  0  0  0  0  0  0  0
  -28.4307   -5.4517   -8.0472 C   0  0  0  0  0  0  0  0  0  0  0  0
  -27.7575   -4.3268   -8.5674 C   0  0  0  0  0  0  0  0  0  0  0  0
  -28.4796   -6.8554   -8.1629 C   0  0  0  0  0  0  0  0  0  0  0  0
  -27.6600   -7.7604   -8.8687 C   0  0  0  0  0  0  0  0  0  0  0  0
  -27.8337   -9.2635   -8.6514 C   0  0  0  0  0  0  0  0  0  0  0  0
  -28.9235   -9.9062   -7.8103 C   0  0  0  0  0  0  0  0  0  0  0  0
  -29.8385   -8.8074   -7.4966 C   0  0  0  0  0  0  0  0  0  0  0  0
  -29.5412   -7.3969   -7.5460 C   0  0  0  0  0  0  0  0  0  0  0  0
  -29.9751   -6.3664   -6.6923 N   0  0  0  0  0  0  0  0  0  0  0  0
  -30.7463   -9.1280   -6.3524 C   0  0  0  0  0  0  0  0  0  0  0  0
  -30.3950   -9.5321   -4.9190 C   0  0  0  0  0  0  0  0  0  0  0  0
  -29.1831  -10.4681   -5.0711 C   0  0  0  0  0  0  0  0  0  0  0  0
  -29.1109  -11.3862   -4.1076 N   0  0  0  0  0  0  0  0  0  0  0  0
  -30.0948  -12.1766   -4.5679 N   0  0  0  0  0  0  0  0  0  0  0  0
  -31.1469  -12.4660   -3.5654 C   0  0  0  0  0  0  0  0  0  0  0  0
  -30.0143  -12.0554   -6.0582 C   0  0  0  0  0  0  0  0  0  0  0  0
  -28.9605  -11.0434   -6.4369 C   0  0  0  0  0  0  0  0  0  0  0  0
  -27.0492   -9.7845   -9.8074 C   0  0  0  0  0  0  0  0  0  0  0  0
  -26.8411  -10.9050  -10.2615 O   0  0  0  0  0  0  0  0  0  0  0  0
  -26.5522   -8.6637  -10.5258 N   0  0  0  0  0  0  0  0  0  0  0  0
  -26.7936   -7.3603   -9.9724 C   0  0  0  0  0  0  0  0  0  0  0  0
  -26.1230   -8.7612  -11.4399 H   0  0  0  0  0  0  0  0  0  0  0  0
  -27.5365   -1.7942   -8.7083 C   0  0  0  0  0  0  0  0  0  0  0  0
  -27.3608   -0.8663   -7.9091 O   0  0  0  0  0  0  0  0  0  0  0  0
  -28.1493   -2.0862  -13.7220 C   0  0  0  0  0  0  0  0  0  0  0  0
  -27.4275   -1.8831  -12.4364 C   0  0  0  0  0  0  0  0  0  0  0  0
  -26.0787   -1.6144  -12.3037 C   0  0  0  0  0  0  0  0  0  0  0  0
  -25.5800   -1.5876  -10.6649 S   0  0  0  0  0  0  0  0  0  0  0  0
  -27.1838   -1.7514  -10.0853 C   0  0  0  0  0  0  0  0  0  0  0  0
  -28.0626   -1.9382  -11.1675 C   0  0  0  0  0  0  0  0  0  0  0  0
  -30.6642   -6.5430   -5.4276 C   0  0  0  0  0  0  0  0  0  0  0  0
  -30.4438   -5.7673   -4.1413 C   0  0  0  0  0  0  0  0  0  0  0  0
  -31.8012   -5.5196   -3.4975 C   0  0  0  0  0  0  0  0  0  0  0  0
  -29.5744   -6.6443   -3.2061 C   0  0  0  0  0  0  0  0  0  0  0  0
 29 30  1  0  0  0
 30 31  2  0  0  0
 30 34  1  0  0  0
 31 32  1  0  0  0
 32 33  1  0  0  0
 33 27  1  0  0  0
 33 34  2  0  0  0
 27 28  2  0  0  0
 27  1  1  0  0  0
  1  2  1  0  0  0
  1  6  2  0  0  0
  2  3  2  0  0  0
  3  4  1  0  0  0
  4  5  2  0  0  0
  4 13  1  0  0  0
  5  6  1  0  0  0
  5  7  1  0  0  0
  7  8  1  0  0  0
  7 12  2  0  0  0
  8  9  2  0  0  0
  8 25  1  0  0  0
  9 10  1  0  0  0
  9 22  1  0  0  0
 10 11  2  0  0  0
 10 21  1  0  0  0
 11 12  1  0  0  0
 11 14  1  0  0  0
 12 13  1  0  0  0
 13 35  1  0  0  0
 35 36  1  0  0  0
 36 37  1  0  0  0
 36 38  1  0  0  0
 14 15  1  0  0  0
 15 16  1  0  0  0
 16 17  2  0  0  0
 16 21  1  0  0  0
 17 18  1  0  0  0
 18 19  1  0  0  0
 18 20  1  0  0  0
 20 21  2  0  0  0
 22 23  2  0  0  0
 22 24  1  0  0  0
 24 25  1  0  0  0
 24 26  1  0  0  0
M  END
> <minimizedAffinity>
-7.05835

$$$$
