CHEMBL1254752


 30 33  0  0  0  0  0  0  0  0999 V2000
  -23.1597   -0.8234  -13.7076 C   0  0  0  0  0  0  0  0  0  0  0  0
  -24.3956   -0.8900  -14.3304 C   0  0  0  0  0  0  0  0  0  0  0  0
  -25.5184   -1.3264  -13.6334 C   0  0  0  0  0  0  0  0  0  0  0  0
  -25.4284   -1.7732  -12.3092 C   0  0  0  0  0  0  0  0  0  0  0  0
  -24.1738   -1.7605  -11.6971 C   0  0  0  0  0  0  0  0  0  0  0  0
  -23.0434   -1.2901  -12.3922 C   0  0  0  0  0  0  0  0  0  0  0  0
  -26.5613   -2.2161  -11.5765 N   0  0  0  0  0  0  0  0  0  0  0  0
  -26.7633   -1.9911  -10.2261 C   0  0  0  0  0  0  0  0  0  0  0  0
  -26.0380   -1.3022   -9.5158 O   0  0  0  0  0  0  0  0  0  0  0  0
  -27.8674   -2.6702   -9.7184 N   0  0  0  0  0  0  0  0  0  0  0  0
  -27.3261   -2.6166  -12.0987 H   0  0  0  0  0  0  0  0  0  0  0  0
  -28.0106   -3.5829  -10.1267 H   0  0  0  0  0  0  0  0  0  0  0  0
  -28.1206   -2.5587   -8.3250 C   0  0  0  0  0  0  0  0  0  0  0  0
  -28.6708   -3.6335   -7.6106 C   0  0  0  0  0  0  0  0  0  0  0  0
  -29.1343   -3.4573   -6.3078 C   0  0  0  0  0  0  0  0  0  0  0  0
  -29.0305   -2.2056   -5.7115 C   0  0  0  0  0  0  0  0  0  0  0  0
  -29.6854   -1.9550   -4.1405 Cl  0  0  0  0  0  0  0  0  0  0  0  0
  -28.4225   -1.1472   -6.3899 C   0  0  0  0  0  0  0  0  0  0  0  0
  -27.9426   -1.3280   -7.6927 C   0  0  0  0  0  0  0  0  0  0  0  0
  -22.0133   -0.3879  -14.3354 O   0  0  0  0  0  0  0  0  0  0  0  0
  -19.1677   -0.5101  -15.4832 C   0  0  0  0  0  0  0  0  0  0  0  0
  -19.3643    0.9010  -15.2374 N   0  0  0  0  0  0  0  0  0  0  0  0
  -18.4209    1.8693  -15.4753 C   0  0  0  0  0  0  0  0  0  0  0  0
  -18.9770    3.0902  -15.1621 C   0  0  0  0  0  0  0  0  0  0  0  0
  -20.2917    2.8476  -14.7060 C   0  0  0  0  0  0  0  0  0  0  0  0
  -21.2173    3.7345  -14.2919 N   0  0  0  0  0  0  0  0  0  0  0  0
  -22.3596    3.1639  -13.8923 C   0  0  0  0  0  0  0  0  0  0  0  0
  -22.6592    1.8550  -13.8615 N   0  0  0  0  0  0  0  0  0  0  0  0
  -21.7408    0.9780  -14.3287 C   0  0  0  0  0  0  0  0  0  0  0  0
  -20.5133    1.4758  -14.7438 C   0  0  0  0  0  0  0  0  0  0  0  0
 21 22  1  0  0  0
 22 23  1  0  0  0
 22 30  1  0  0  0
 23 24  2  0  0  0
 24 25  1  0  0  0
 25 26  1  0  0  0
 25 30  2  0  0  0
 26 27  2  0  0  0
 27 28  1  0  0  0
 28 29  2  0  0  0
 29 20  1  0  0  0
 29 30  1  0  0  0
 20  1  1  0  0  0
  1  2  1  0  0  0
  1  6  2  0  0  0
  2  3  2  0  0  0
  3  4  1  0  0  0
  4  7  1  0  0  0
  4  5  2  0  0  0
  7  8  1  0  0  0
  7 11  1  0  0  0
  8  9  2  0  0  0
  8 10  1  0  0  0
 10 13  1  0  0  0
 10 12  1  0  0  0
 13 14  1  0  0  0
 13 19  2  0  0  0
 14 15  2  0  0  0
 15 16  1  0  0  0
 16 17  1  0  0  0
 16 18  2  0  0  0
 18 19  1  0  0  0
  5  6  1  0  0  0
M  END
> <minimizedAffinity>
-10.55525

$$$$
