CHEMBL393418


 29 32  0  0  0  0  0  0  0  0999 V2000
  -25.1122   -9.0808   -3.6696 C   0  0  0  0  0  0  0  0  0  0  0  0
  -25.8808   -9.4758   -4.8227 N   0  0  0  0  0  0  0  0  0  0  0  0
  -25.3645  -10.1801   -5.8768 C   0  0  0  0  0  0  0  0  0  0  0  0
  -26.2826  -10.4571   -6.7706 N   0  0  0  0  0  0  0  0  0  0  0  0
  -27.4372   -9.9679   -6.2429 C   0  0  0  0  0  0  0  0  0  0  0  0
  -27.2358   -9.3199   -5.0362 C   0  0  0  0  0  0  0  0  0  0  0  0
  -28.2376   -8.6798   -4.2170 C   0  0  0  0  0  0  0  0  0  0  0  0
  -29.0580   -9.3130   -3.5547 O   0  0  0  0  0  0  0  0  0  0  0  0
  -28.2678   -7.3005   -4.2699 N   0  0  0  0  0  0  0  0  0  0  0  0
  -27.7993   -6.8433   -5.0358 H   0  0  0  0  0  0  0  0  0  0  0  0
  -29.2804   -6.5398   -3.5682 C   0  0  0  0  0  0  0  0  0  0  0  0
  -29.1884   -5.0558   -3.8384 C   0  0  0  0  0  0  0  0  0  0  0  0
  -30.3418   -4.2409   -3.7500 C   0  0  0  0  0  0  0  0  0  0  0  0
  -30.2910   -2.8770   -4.0557 C   0  0  0  0  0  0  0  0  0  0  0  0
  -29.0807   -2.3512   -4.4467 C   0  0  0  0  0  0  0  0  0  0  0  0
  -27.9487   -3.1295   -4.5349 C   0  0  0  0  0  0  0  0  0  0  0  0
  -27.9698   -4.4764   -4.2357 C   0  0  0  0  0  0  0  0  0  0  0  0
  -26.8648   -2.4218   -4.9519 O   0  0  0  0  0  0  0  0  0  0  0  0
  -27.4478   -1.1143   -5.1337 C   0  0  0  0  0  0  0  0  0  0  0  0
  -28.8499   -1.0588   -4.7972 O   0  0  0  0  0  0  0  0  0  0  0  0
  -28.6193  -10.1254   -6.8493 N   0  0  0  0  0  0  0  0  0  0  0  0
  -29.3768  -10.5769   -6.3472 H   0  0  0  0  0  0  0  0  0  0  0  0
  -28.9664   -9.4441   -8.0763 C   0  0  0  0  0  0  0  0  0  0  0  0
  -29.2449   -7.9694   -7.8506 C   0  0  0  0  0  0  0  0  0  0  0  0
  -30.4678   -7.5810   -7.2855 C   0  0  0  0  0  0  0  0  0  0  0  0
  -30.6987   -6.2362   -7.0312 C   0  0  0  0  0  0  0  0  0  0  0  0
  -29.8093   -5.2566   -7.2919 N   0  0  0  0  0  0  0  0  0  0  0  0
  -28.6338   -5.6436   -7.8290 C   0  0  0  0  0  0  0  0  0  0  0  0
  -28.3061   -6.9621   -8.1104 C   0  0  0  0  0  0  0  0  0  0  0  0
  1  2  1  0  0  0
  2  3  1  0  0  0
  2  6  1  0  0  0
  3  4  2  0  0  0
  4  5  1  0  0  0
  5 21  1  0  0  0
  5  6  2  0  0  0
 21 23  1  0  0  0
 21 22  1  0  0  0
 23 24  1  0  0  0
 24 25  1  0  0  0
 24 29  2  0  0  0
 25 26  2  0  0  0
 26 27  1  0  0  0
 27 28  2  0  0  0
 28 29  1  0  0  0
  6  7  1  0  0  0
  7  8  2  0  0  0
  7  9  1  0  0  0
  9 11  1  0  0  0
  9 10  1  0  0  0
 11 12  1  0  0  0
 12 13  1  0  0  0
 12 17  2  0  0  0
 13 14  2  0  0  0
 14 15  1  0  0  0
 15 16  2  0  0  0
 15 20  1  0  0  0
 16 17  1  0  0  0
 16 18  1  0  0  0
 18 19  1  0  0  0
 19 20  1  0  0  0
M  END
> <minimizedAffinity>
-7.44808

$$$$
