CHEMBL3321902


 29 33  0  0  0  0  0  0  0  0999 V2000
  -23.2158    0.3134  -13.6054 C   0  0  0  0  0  0  0  0  0  0  0  0
  -23.0600    1.6245  -13.5479 N   0  0  0  0  0  0  0  0  0  0  0  0
  -21.8339    1.8865  -14.1034 C   0  0  0  0  0  0  0  0  0  0  0  0
  -21.1590    3.1016  -14.2464 C   0  0  0  0  0  0  0  0  0  0  0  0
  -19.8934    3.0898  -14.8480 C   0  0  0  0  0  0  0  0  0  0  0  0
  -19.3037    1.9091  -15.3367 C   0  0  0  0  0  0  0  0  0  0  0  0
  -19.9729    0.6857  -15.1657 C   0  0  0  0  0  0  0  0  0  0  0  0
  -21.2325    0.7215  -14.5551 C   0  0  0  0  0  0  0  0  0  0  0  0
  -22.1360   -0.2578  -14.2407 N   0  0  0  0  0  0  0  0  0  0  0  0
  -22.0236   -1.2457  -14.4094 H   0  0  0  0  0  0  0  0  0  0  0  0
  -25.2376   -1.0281  -15.6808 Cl  0  0  0  0  0  0  0  0  0  0  0  0
  -25.3381   -1.0444  -13.9507 C   0  0  0  0  0  0  0  0  0  0  0  0
  -26.4270   -1.7304  -13.3969 C   0  0  0  0  0  0  0  0  0  0  0  0
  -26.5774   -1.8190  -12.0142 C   0  0  0  0  0  0  0  0  0  0  0  0
  -25.6340   -1.2314  -11.1784 C   0  0  0  0  0  0  0  0  0  0  0  0
  -24.5443   -0.5514  -11.7274 C   0  0  0  0  0  0  0  0  0  0  0  0
  -24.3815   -0.4332  -13.1203 C   0  0  0  0  0  0  0  0  0  0  0  0
  -17.9918    1.9185  -15.8702 N   0  0  0  0  0  0  0  0  0  0  0  0
  -17.8370    2.6394  -16.5648 H   0  0  0  0  0  0  0  0  0  0  0  0
  -16.8008    1.6838  -15.1394 C   0  0  0  0  0  0  0  0  0  0  0  0
  -16.8551    0.8371  -14.0935 N   0  0  0  0  0  0  0  0  0  0  0  0
  -15.7121    0.5867  -13.4574 C   0  0  0  0  0  0  0  0  0  0  0  0
  -14.5131    1.0895  -13.7676 N   0  0  0  0  0  0  0  0  0  0  0  0
  -14.4690    1.9345  -14.8022 C   0  0  0  0  0  0  0  0  0  0  0  0
  -13.2340    2.4448  -15.1806 C   0  0  0  0  0  0  0  0  0  0  0  0
  -13.0977    3.3317  -16.2503 C   0  0  0  0  0  0  0  0  0  0  0  0
  -14.2211    3.7348  -16.9591 C   0  0  0  0  0  0  0  0  0  0  0  0
  -15.4709    3.2277  -16.6079 C   0  0  0  0  0  0  0  0  0  0  0  0
  -15.6055    2.3135  -15.5313 C   0  0  0  0  0  0  0  0  0  0  0  0
 11 12  1  0  0  0
 12 13  1  0  0  0
 12 17  2  0  0  0
 13 14  2  0  0  0
 14 15  1  0  0  0
 15 16  2  0  0  0
 16 17  1  0  0  0
 17  1  1  0  0  0
  1  2  2  0  0  0
  1  9  1  0  0  0
  2  3  1  0  0  0
  3  4  1  0  0  0
  3  8  2  0  0  0
  4  5  2  0  0  0
  5  6  1  0  0  0
  6 18  1  0  0  0
  6  7  2  0  0  0
 18 20  1  0  0  0
 18 19  1  0  0  0
 20 21  1  0  0  0
 20 29  2  0  0  0
 21 22  2  0  0  0
 22 23  1  0  0  0
 23 24  2  0  0  0
 24 25  1  0  0  0
 24 29  1  0  0  0
 25 26  2  0  0  0
 26 27  1  0  0  0
 27 28  2  0  0  0
 28 29  1  0  0  0
  7  8  1  0  0  0
  8  9  1  0  0  0
  9 10  1  0  0  0
M  END
> <minimizedAffinity>
-10.29056

$$$$
