CHEMBL328106


 23 25  0  0  0  0  0  0  0  0999 V2000
  -29.7267   -4.7234   -5.7484 C   0  0  0  0  0  0  0  0  0  0  0  0
  -29.1909   -3.4811   -5.3622 C   0  0  0  0  0  0  0  0  0  0  0  0
  -28.6386   -2.5913   -6.2718 C   0  0  0  0  0  0  0  0  0  0  0  0
  -28.2560   -1.3874   -5.8376 N   0  0  0  0  0  0  0  0  0  0  0  0
  -27.7985   -0.5398   -6.7628 C   0  0  0  0  0  0  0  0  0  0  0  0
  -27.6894   -0.7848   -8.0664 N   0  0  0  0  0  0  0  0  0  0  0  0
  -28.0640   -2.0048   -8.4991 C   0  0  0  0  0  0  0  0  0  0  0  0
  -28.5437   -2.9809   -7.6088 C   0  0  0  0  0  0  0  0  0  0  0  0
  -28.9444   -4.2850   -7.9756 C   0  0  0  0  0  0  0  0  0  0  0  0
  -29.5546   -5.1538   -7.0662 C   0  0  0  0  0  0  0  0  0  0  0  0
  -29.5852   -6.4303   -4.1154 C   0  0  0  0  0  0  0  0  0  0  0  0
  -30.3982   -5.5115   -4.8520 O   0  0  0  0  0  0  0  0  0  0  0  0
  -28.0057   -2.3147   -9.8874 N   0  0  0  0  0  0  0  0  0  0  0  0
  -28.9382   -2.2483  -10.2762 H   0  0  0  0  0  0  0  0  0  0  0  0
  -27.0362   -1.9088  -10.8285 C   0  0  0  0  0  0  0  0  0  0  0  0
  -25.7286   -1.5692  -10.4666 C   0  0  0  0  0  0  0  0  0  0  0  0
  -24.7947   -1.1696  -11.4234 C   0  0  0  0  0  0  0  0  0  0  0  0
  -25.1491   -1.1529  -12.7663 C   0  0  0  0  0  0  0  0  0  0  0  0
  -23.8976   -0.5765  -14.0579 Br  0  0  0  0  0  0  0  0  0  0  0  0
  -26.4199   -1.5606  -13.1610 C   0  0  0  0  0  0  0  0  0  0  0  0
  -27.3544   -1.9482  -12.1952 C   0  0  0  0  0  0  0  0  0  0  0  0
  -29.9267   -6.3207   -7.6685 O   0  0  0  0  0  0  0  0  0  0  0  0
  -28.9485   -7.2900   -8.0008 C   0  0  0  0  0  0  0  0  0  0  0  0
 11 12  1  0  0  0
 12  1  1  0  0  0
  1  2  1  0  0  0
  1 10  2  0  0  0
  2  3  2  0  0  0
  3  4  1  0  0  0
  3  8  1  0  0  0
  4  5  2  0  0  0
  5  6  1  0  0  0
  6  7  2  0  0  0
  7 13  1  0  0  0
  7  8  1  0  0  0
 13 15  1  0  0  0
 13 14  1  0  0  0
 15 16  1  0  0  0
 15 21  2  0  0  0
 16 17  2  0  0  0
 17 18  1  0  0  0
 18 19  1  0  0  0
 18 20  2  0  0  0
 20 21  1  0  0  0
  8  9  2  0  0  0
  9 10  1  0  0  0
 10 22  1  0  0  0
 22 23  1  0  0  0
M  END
> <minimizedAffinity>
-7.84381

$$$$
