CHEMBL2409789


 32 36  0  0  0  0  0  0  0  0999 V2000
  -18.5059    2.5365  -16.2804 O   0  0  0  0  0  0  0  0  0  0  0  0
  -19.6326    2.2552  -15.5234 C   0  0  0  0  0  0  0  0  0  0  0  0
  -20.3269    3.4165  -14.9727 C   0  0  0  0  0  0  0  0  0  0  0  0
  -21.4589    3.2884  -14.2456 C   0  0  0  0  0  0  0  0  0  0  0  0
  -21.9978    1.9907  -14.0028 C   0  0  0  0  0  0  0  0  0  0  0  0
  -23.0698    1.5578  -13.3669 N   0  0  0  0  0  0  0  0  0  0  0  0
  -23.0362    0.2042  -13.5888 C   0  0  0  0  0  0  0  0  0  0  0  0
  -21.9691   -0.2227  -14.2556 N   0  0  0  0  0  0  0  0  0  0  0  0
  -21.2980    0.9054  -14.5257 N   0  0  0  0  0  0  0  0  0  0  0  0
  -20.1177    1.0324  -15.2413 C   0  0  0  0  0  0  0  0  0  0  0  0
  -24.0550   -0.5822  -13.1202 N   0  0  0  0  0  0  0  0  0  0  0  0
  -24.9442   -1.2253  -13.9502 C   0  0  0  0  0  0  0  0  0  0  0  0
  -25.0056   -1.1380  -15.1678 O   0  0  0  0  0  0  0  0  0  0  0  0
  -24.1668   -0.5864  -12.1210 H   0  0  0  0  0  0  0  0  0  0  0  0
  -25.9816   -2.0781  -13.2960 C   0  0  0  0  0  0  0  0  0  0  0  0
  -27.4459   -1.8666  -13.5972 C   0  0  0  0  0  0  0  0  0  0  0  0
  -26.9267   -1.6590  -12.2023 C   0  0  0  0  0  0  0  0  0  0  0  0
  -13.3522    1.1009  -14.3418 C   0  0  0  0  0  0  0  0  0  0  0  0
  -14.7539    1.4227  -14.7849 C   0  0  0  0  0  0  0  0  0  0  0  0
  -14.9656    2.7280  -15.2874 C   0  0  0  0  0  0  0  0  0  0  0  0
  -16.2122    3.1371  -15.7470 C   0  0  0  0  0  0  0  0  0  0  0  0
  -17.2566    2.2252  -15.7792 C   0  0  0  0  0  0  0  0  0  0  0  0
  -17.0746    0.9451  -15.2415 C   0  0  0  0  0  0  0  0  0  0  0  0
  -15.8399    0.5164  -14.7173 C   0  0  0  0  0  0  0  0  0  0  0  0
  -15.6702   -0.7862  -14.1253 N   0  0  0  0  0  0  0  0  0  0  0  0
  -15.6692   -1.0623  -12.7541 C   0  0  0  0  0  0  0  0  0  0  0  0
  -15.8482   -0.1992  -11.8844 O   0  0  0  0  0  0  0  0  0  0  0  0
  -15.5167   -1.5599  -14.7565 H   0  0  0  0  0  0  0  0  0  0  0  0
  -15.4320   -2.4806  -12.2394 C   0  0  0  0  0  0  0  0  0  0  0  0
  -16.2272   -3.7700  -12.5361 C   0  0  0  0  0  0  0  0  0  0  0  0
  -15.8890   -4.2089  -11.0829 C   0  0  0  0  0  0  0  0  0  0  0  0
  -15.8253   -2.7115  -10.7469 C   0  0  0  0  0  0  0  0  0  0  0  0
 18 19  1  0  0  0
 19 20  1  0  0  0
 19 24  2  0  0  0
 20 21  2  0  0  0
 21 22  1  0  0  0
 22  1  1  0  0  0
 22 23  2  0  0  0
  1  2  1  0  0  0
  2  3  1  0  0  0
  2 10  2  0  0  0
  3  4  2  0  0  0
  4  5  1  0  0  0
  5  6  2  0  0  0
  5  9  1  0  0  0
  6  7  1  0  0  0
  7 11  1  0  0  0
  7  8  2  0  0  0
 11 12  1  0  0  0
 11 14  1  0  0  0
 12 13  2  0  0  0
 12 15  1  0  0  0
 15 16  1  0  0  0
 15 17  1  0  0  0
 16 17  1  0  0  0
  8  9  1  0  0  0
  9 10  1  0  0  0
 23 24  1  0  0  0
 24 25  1  0  0  0
 25 26  1  0  0  0
 25 28  1  0  0  0
 26 27  2  0  0  0
 26 29  1  0  0  0
 29 30  1  0  0  0
 29 32  1  0  0  0
 30 31  1  0  0  0
 31 32  1  0  0  0
M  END
> <minimizedAffinity>
-10.18269

$$$$
