CHEMBL3690591


 35 38  0  0  0  0  0  0  0  0999 V2000
  -18.9464    2.0919  -15.1646 C   0  0  0  0  0  0  0  0  0  0  0  0
  -19.5066    0.7414  -15.2658 C   0  0  0  0  0  0  0  0  0  0  0  0
  -20.7599    0.5056  -14.8695 C   0  0  0  0  0  0  0  0  0  0  0  0
  -21.5371    1.5441  -14.3484 N   0  0  0  0  0  0  0  0  0  0  0  0
  -22.8440    1.5573  -13.8702 C   0  0  0  0  0  0  0  0  0  0  0  0
  -23.0465    2.8741  -13.4931 C   0  0  0  0  0  0  0  0  0  0  0  0
  -21.9474    3.6557  -13.7211 N   0  0  0  0  0  0  0  0  0  0  0  0
  -21.0464    2.8420  -14.2266 C   0  0  0  0  0  0  0  0  0  0  0  0
  -19.7077    3.0883  -14.6476 C   0  0  0  0  0  0  0  0  0  0  0  0
  -15.4923    1.6214  -16.2514 C   0  0  0  0  0  0  0  0  0  0  0  0
  -15.0946    2.9124  -16.5432 C   0  0  0  0  0  0  0  0  0  0  0  0
  -16.0162    3.9046  -16.3086 C   0  0  0  0  0  0  0  0  0  0  0  0
  -17.2519    3.6710  -15.8419 N   0  0  0  0  0  0  0  0  0  0  0  0
  -17.5541    2.3864  -15.5784 C   0  0  0  0  0  0  0  0  0  0  0  0
  -16.7129    1.3508  -15.7477 N   0  0  0  0  0  0  0  0  0  0  0  0
  -14.1758    0.3839  -17.9693 C   0  0  0  0  0  0  0  0  0  0  0  0
  -14.5535    0.4580  -16.4906 C   0  0  0  0  0  0  0  0  0  0  0  0
  -13.2984    0.5413  -15.6168 C   0  0  0  0  0  0  0  0  0  0  0  0
  -23.7333    0.4006  -13.7109 C   0  0  0  0  0  0  0  0  0  0  0  0
  -24.0197   -0.3970  -14.8220 C   0  0  0  0  0  0  0  0  0  0  0  0
  -24.8179   -1.5195  -14.7040 C   0  0  0  0  0  0  0  0  0  0  0  0
  -25.2942   -1.8948  -13.4548 C   0  0  0  0  0  0  0  0  0  0  0  0
  -24.9689   -1.1802  -12.2984 C   0  0  0  0  0  0  0  0  0  0  0  0
  -24.2166    0.0013  -12.4431 C   0  0  0  0  0  0  0  0  0  0  0  0
  -25.3349   -1.6333  -10.9970 N   0  0  0  0  0  0  0  0  0  0  0  0
  -26.6367   -1.7163  -10.5338 C   0  0  0  0  0  0  0  0  0  0  0  0
  -27.6423   -1.4012  -11.1337 O   0  0  0  0  0  0  0  0  0  0  0  0
  -26.7431   -2.1603   -9.2331 N   0  0  0  0  0  0  0  0  0  0  0  0
  -24.6010   -2.0072  -10.4162 H   0  0  0  0  0  0  0  0  0  0  0  0
  -25.9758   -2.6219   -8.7713 H   0  0  0  0  0  0  0  0  0  0  0  0
  -28.1005   -2.2652   -8.6698 C   0  0  0  0  0  0  0  0  0  0  0  0
  -28.4789   -3.5973   -8.0190 C   0  0  0  0  0  0  0  0  0  0  0  0
  -27.7168   -4.6175   -8.4754 F   0  0  0  0  0  0  0  0  0  0  0  0
  -28.2986   -3.5355   -6.6771 F   0  0  0  0  0  0  0  0  0  0  0  0
  -29.7758   -3.9106   -8.2349 F   0  0  0  0  0  0  0  0  0  0  0  0
 16 17  1  0  0  0
 17 18  1  0  0  0
 17 10  1  0  0  0
 10 11  1  0  0  0
 10 15  2  0  0  0
 11 12  2  0  0  0
 12 13  1  0  0  0
 13 14  2  0  0  0
 14  1  1  0  0  0
 14 15  1  0  0  0
  1  2  1  0  0  0
  1  9  2  0  0  0
  2  3  2  0  0  0
  3  4  1  0  0  0
  4  5  1  0  0  0
  4  8  1  0  0  0
  5 19  1  0  0  0
  5  6  2  0  0  0
 19 20  1  0  0  0
 19 24  2  0  0  0
 20 21  2  0  0  0
 21 22  1  0  0  0
 22 23  2  0  0  0
 23 25  1  0  0  0
 23 24  1  0  0  0
 25 26  1  0  0  0
 25 29  1  0  0  0
 26 27  2  0  0  0
 26 28  1  0  0  0
 28 31  1  0  0  0
 28 30  1  0  0  0
 31 32  1  0  0  0
 32 33  1  0  0  0
 32 34  1  0  0  0
 32 35  1  0  0  0
  6  7  1  0  0  0
  7  8  2  0  0  0
  8  9  1  0  0  0
M  END
> <minimizedAffinity>
-10.12987

$$$$
