CHEMBL1988608


 32 35  0  0  0  0  0  0  0  0999 V2000
  -16.2225    0.4587  -14.4060 C   0  0  0  0  0  0  0  0  0  0  0  0
  -15.6403    0.0321  -13.2330 C   0  0  0  0  0  0  0  0  0  0  0  0
  -14.3757    0.7369  -13.5488 C   0  0  0  0  0  0  0  0  0  0  0  0
  -13.3058    0.9474  -13.0329 O   0  0  0  0  0  0  0  0  0  0  0  0
  -14.9610    1.0884  -14.8640 C   0  0  0  0  0  0  0  0  0  0  0  0
  -14.5559    1.7085  -15.8096 O   0  0  0  0  0  0  0  0  0  0  0  0
  -17.4026    0.3965  -15.0115 N   0  0  0  0  0  0  0  0  0  0  0  0
  -17.4837   -0.2854  -15.7717 H   0  0  0  0  0  0  0  0  0  0  0  0
  -17.9686    1.6498  -15.5305 C   0  0  0  0  0  0  0  0  0  0  0  0
  -21.5336    0.9050  -14.3509 C   0  0  0  0  0  0  0  0  0  0  0  0
  -21.9929    2.1979  -14.0940 C   0  0  0  0  0  0  0  0  0  0  0  0
  -21.1803    3.3055  -14.3398 C   0  0  0  0  0  0  0  0  0  0  0  0
  -19.8881    3.1320  -14.8296 C   0  0  0  0  0  0  0  0  0  0  0  0
  -19.3849    1.8436  -15.0519 C   0  0  0  0  0  0  0  0  0  0  0  0
  -20.2195    0.7345  -14.8114 C   0  0  0  0  0  0  0  0  0  0  0  0
  -23.5549   -2.0201  -13.0779 C   0  0  0  0  0  0  0  0  0  0  0  0
  -22.7596   -0.7480  -12.9413 C   0  0  0  0  0  0  0  0  0  0  0  0
  -22.5570   -0.2603  -11.8340 O   0  0  0  0  0  0  0  0  0  0  0  0
  -22.3324   -0.2455  -14.1603 N   0  0  0  0  0  0  0  0  0  0  0  0
  -22.7218   -0.6680  -14.9943 H   0  0  0  0  0  0  0  0  0  0  0  0
  -15.9318   -0.6664  -12.1567 N   0  0  0  0  0  0  0  0  0  0  0  0
  -15.9792   -0.2089  -11.2460 H   0  0  0  0  0  0  0  0  0  0  0  0
  -15.8461   -2.0729  -12.0109 C   0  0  0  0  0  0  0  0  0  0  0  0
  -15.6816   -2.6846  -10.7585 C   0  0  0  0  0  0  0  0  0  0  0  0
  -15.5197   -4.0671  -10.6148 C   0  0  0  0  0  0  0  0  0  0  0  0
  -15.5193   -4.8222  -11.7862 C   0  0  0  0  0  0  0  0  0  0  0  0
  -15.3333   -6.1614  -12.0059 N   0  0  0  0  0  0  0  0  0  0  0  0
  -15.4565   -6.5255  -13.2959 N   0  0  0  0  0  0  0  0  0  0  0  0
  -15.7112   -5.3722  -13.9203 C   0  0  0  0  0  0  0  0  0  0  0  0
  -15.7189   -4.2660  -13.0431 C   0  0  0  0  0  0  0  0  0  0  0  0
  -15.8759   -2.8717  -13.1630 C   0  0  0  0  0  0  0  0  0  0  0  0
  -15.1070   -6.8737  -11.3209 H   0  0  0  0  0  0  0  0  0  0  0  0
 16 17  1  0  0  0
 17 18  2  0  0  0
 17 19  1  0  0  0
 19 10  1  0  0  0
 19 20  1  0  0  0
 10 11  1  0  0  0
 10 15  2  0  0  0
 11 12  2  0  0  0
 12 13  1  0  0  0
 13 14  2  0  0  0
 14  9  1  0  0  0
 14 15  1  0  0  0
  9  7  1  0  0  0
  7  1  1  0  0  0
  7  8  1  0  0  0
  1  2  2  0  0  0
  1  5  1  0  0  0
  2 21  1  0  0  0
  2  3  1  0  0  0
 21 23  1  0  0  0
 21 22  1  0  0  0
 23 24  1  0  0  0
 23 31  2  0  0  0
 24 25  2  0  0  0
 25 26  1  0  0  0
 26 27  1  0  0  0
 26 30  2  0  0  0
 27 28  1  0  0  0
 27 32  1  0  0  0
 28 29  2  0  0  0
 29 30  1  0  0  0
 30 31  1  0  0  0
  3  4  2  0  0  0
  3  5  1  0  0  0
  5  6  2  0  0  0
M  END
> <minimizedAffinity>
-9.48270

$$$$
