CHEMBL3125883


 41 45  0  0  0  0  0  0  0  0999 V2000
  -14.1349   -1.0039  -13.3263 C   0  0  0  0  0  0  0  0  0  0  0  0
  -12.9862   -0.2702  -13.6208 C   0  0  0  0  0  0  0  0  0  0  0  0
  -13.0637    0.8071  -14.4957 C   0  0  0  0  0  0  0  0  0  0  0  0
  -14.2852    1.1386  -15.0839 C   0  0  0  0  0  0  0  0  0  0  0  0
  -15.4482    0.4220  -14.7791 C   0  0  0  0  0  0  0  0  0  0  0  0
  -15.3778   -0.6132  -13.8445 C   0  0  0  0  0  0  0  0  0  0  0  0
  -16.6961    0.7028  -15.3844 N   0  0  0  0  0  0  0  0  0  0  0  0
  -17.8155    1.1191  -14.6887 C   0  0  0  0  0  0  0  0  0  0  0  0
  -17.8218    1.4307  -13.5013 O   0  0  0  0  0  0  0  0  0  0  0  0
  -18.9472    1.1233  -15.4925 N   0  0  0  0  0  0  0  0  0  0  0  0
  -16.6926    0.9301  -16.3704 H   0  0  0  0  0  0  0  0  0  0  0  0
  -18.9628    0.3827  -16.1812 H   0  0  0  0  0  0  0  0  0  0  0  0
  -20.1950    1.5502  -14.9844 C   0  0  0  0  0  0  0  0  0  0  0  0
  -20.5123    2.9076  -14.8789 C   0  0  0  0  0  0  0  0  0  0  0  0
  -21.7328    3.3102  -14.3373 C   0  0  0  0  0  0  0  0  0  0  0  0
  -22.6338    2.3552  -13.8720 C   0  0  0  0  0  0  0  0  0  0  0  0
  -22.3279    0.9886  -13.9596 C   0  0  0  0  0  0  0  0  0  0  0  0
  -21.1155    0.5919  -14.5551 C   0  0  0  0  0  0  0  0  0  0  0  0
  -23.2512   -0.0498  -13.3750 C   0  0  0  0  0  0  0  0  0  0  0  0
  -24.1836    0.4627  -12.5229 F   0  0  0  0  0  0  0  0  0  0  0  0
  -23.9482   -0.7233  -14.3305 F   0  0  0  0  0  0  0  0  0  0  0  0
  -22.5807   -0.9980  -12.6657 F   0  0  0  0  0  0  0  0  0  0  0  0
  -13.9601   -2.0908  -12.4995 O   0  0  0  0  0  0  0  0  0  0  0  0
  -13.2696   -4.1834  -13.3642 C   0  0  0  0  0  0  0  0  0  0  0  0
  -14.3133   -3.3456  -12.9429 C   0  0  0  0  0  0  0  0  0  0  0  0
  -15.6396   -3.7795  -13.0288 C   0  0  0  0  0  0  0  0  0  0  0  0
  -15.9352   -5.0846  -13.4364 C   0  0  0  0  0  0  0  0  0  0  0  0
  -14.8981   -5.9516  -13.8337 C   0  0  0  0  0  0  0  0  0  0  0  0
  -15.0680   -7.2423  -14.2928 N   0  0  0  0  0  0  0  0  0  0  0  0
  -13.9096   -7.7386  -14.6239 C   0  0  0  0  0  0  0  0  0  0  0  0
  -12.5456   -6.7602  -14.3448 S   0  0  0  0  0  0  0  0  0  0  0  0
  -13.5775   -5.4863  -13.7965 C   0  0  0  0  0  0  0  0  0  0  0  0
  -13.5922   -8.9312  -15.1950 N   0  0  0  0  0  0  0  0  0  0  0  0
  -13.2255   -9.0836  -16.5066 C   0  0  0  0  0  0  0  0  0  0  0  0
  -13.1491   -8.2543  -17.3945 O   0  0  0  0  0  0  0  0  0  0  0  0
  -13.5842   -9.7341  -14.5862 H   0  0  0  0  0  0  0  0  0  0  0  0
  -12.8472  -10.5213  -16.7595 C   0  0  0  0  0  0  0  0  0  0  0  0
  -13.9606  -10.9316  -17.8230 C   0  0  0  0  0  0  0  0  0  0  0  0
  -12.7004  -11.6089  -17.8198 C   0  0  0  0  0  0  0  0  0  0  0  0
  -10.7887   -3.4278  -13.3836 N   0  0  0  0  0  0  0  0  0  0  0  0
  -11.9072   -3.7565  -13.3820 C   0  0  0  0  0  0  0  0  0  0  0  0
 40 41  3  0  0  0
 41 24  1  0  0  0
 24 25  1  0  0  0
 24 32  2  0  0  0
 25 23  1  0  0  0
 25 26  2  0  0  0
 23  1  1  0  0  0
  1  2  1  0  0  0
  1  6  2  0  0  0
  2  3  2  0  0  0
  3  4  1  0  0  0
  4  5  2  0  0  0
  5  7  1  0  0  0
  5  6  1  0  0  0
  7  8  1  0  0  0
  7 11  1  0  0  0
  8  9  2  0  0  0
  8 10  1  0  0  0
 10 13  1  0  0  0
 10 12  1  0  0  0
 13 14  1  0  0  0
 13 18  2  0  0  0
 14 15  2  0  0  0
 15 16  1  0  0  0
 16 17  2  0  0  0
 17 19  1  0  0  0
 17 18  1  0  0  0
 19 20  1  0  0  0
 19 21  1  0  0  0
 19 22  1  0  0  0
 26 27  1  0  0  0
 27 28  2  0  0  0
 28 29  1  0  0  0
 28 32  1  0  0  0
 29 30  2  0  0  0
 30 33  1  0  0  0
 30 31  1  0  0  0
 33 34  1  0  0  0
 33 36  1  0  0  0
 34 35  2  0  0  0
 34 37  1  0  0  0
 37 38  1  0  0  0
 37 39  1  0  0  0
 38 39  1  0  0  0
 31 32  1  0  0  0
M  END
> <minimizedAffinity>
-9.48694

$$$$
