CHEMBL1278149


 23 25  0  0  0  0  0  0  0  0999 V2000
  -12.2982   -5.8576  -10.3351 C   0  0  0  0  0  0  0  0  0  0  0  0
  -13.5164   -6.3388  -10.8480 C   0  0  0  0  0  0  0  0  0  0  0  0
  -14.5750   -5.5044  -11.1748 C   0  0  0  0  0  0  0  0  0  0  0  0
  -15.6669   -6.0366  -11.7351 N   0  0  0  0  0  0  0  0  0  0  0  0
  -16.6445   -5.1926  -12.0913 C   0  0  0  0  0  0  0  0  0  0  0  0
  -16.6206   -3.8658  -11.9587 N   0  0  0  0  0  0  0  0  0  0  0  0
  -15.5023   -3.3631  -11.4041 C   0  0  0  0  0  0  0  0  0  0  0  0
  -14.4330   -4.1380  -10.9381 C   0  0  0  0  0  0  0  0  0  0  0  0
  -13.2647   -3.6548  -10.3018 C   0  0  0  0  0  0  0  0  0  0  0  0
  -12.1906   -4.5040   -9.9974 C   0  0  0  0  0  0  0  0  0  0  0  0
  -11.2097   -7.8498  -11.0040 C   0  0  0  0  0  0  0  0  0  0  0  0
  -11.2338   -6.7002  -10.1440 O   0  0  0  0  0  0  0  0  0  0  0  0
  -11.1498   -3.8300   -9.4231 O   0  0  0  0  0  0  0  0  0  0  0  0
  -11.3498   -3.1130   -8.2149 C   0  0  0  0  0  0  0  0  0  0  0  0
  -15.4030   -1.9819  -11.2932 O   0  0  0  0  0  0  0  0  0  0  0  0
  -15.3024   -1.2414  -12.4555 C   0  0  0  0  0  0  0  0  0  0  0  0
  -16.1487   -0.1306  -12.5486 C   0  0  0  0  0  0  0  0  0  0  0  0
  -16.0864    0.7174  -13.6595 C   0  0  0  0  0  0  0  0  0  0  0  0
  -15.1675    0.4588  -14.6762 C   0  0  0  0  0  0  0  0  0  0  0  0
  -15.0701    1.6221  -16.1641 Br  0  0  0  0  0  0  0  0  0  0  0  0
  -14.3202   -0.6419  -14.5774 C   0  0  0  0  0  0  0  0  0  0  0  0
  -13.4300   -0.9090  -15.5461 F   0  0  0  0  0  0  0  0  0  0  0  0
  -14.3708   -1.4847  -13.4689 C   0  0  0  0  0  0  0  0  0  0  0  0
 11 12  1  0  0  0
 12  1  1  0  0  0
  1  2  1  0  0  0
  1 10  2  0  0  0
  2  3  2  0  0  0
  3  4  1  0  0  0
  3  8  1  0  0  0
  4  5  2  0  0  0
  5  6  1  0  0  0
  6  7  2  0  0  0
  7 15  1  0  0  0
  7  8  1  0  0  0
 15 16  1  0  0  0
 16 17  1  0  0  0
 16 23  2  0  0  0
 17 18  2  0  0  0
 18 19  1  0  0  0
 19 20  1  0  0  0
 19 21  2  0  0  0
 21 22  1  0  0  0
 21 23  1  0  0  0
  8  9  2  0  0  0
  9 10  1  0  0  0
 10 13  1  0  0  0
 13 14  1  0  0  0
M  END
> <minimizedAffinity>
-6.19465

$$$$
