CHEMBL429743


 36 40  0  0  0  0  0  0  0  0999 V2000
  -27.4196   -1.6392  -10.1748 C   0  0  0  0  0  0  0  0  0  0  0  0
  -26.0695   -1.4760   -9.8939 C   0  0  0  0  0  0  0  0  0  0  0  0
  -25.1773   -1.2290  -10.9428 C   0  0  0  0  0  0  0  0  0  0  0  0
  -25.5659   -1.3215  -12.3071 C   0  0  0  0  0  0  0  0  0  0  0  0
  -24.7432   -1.0463  -13.4423 C   0  0  0  0  0  0  0  0  0  0  0  0
  -25.2543   -1.1968  -14.7467 C   0  0  0  0  0  0  0  0  0  0  0  0
  -26.5581   -1.6097  -14.9601 C   0  0  0  0  0  0  0  0  0  0  0  0
  -27.3890   -1.8408  -13.8697 C   0  0  0  0  0  0  0  0  0  0  0  0
  -26.9202   -1.6821  -12.5570 C   0  0  0  0  0  0  0  0  0  0  0  0
  -27.8268   -1.8214  -11.4940 C   0  0  0  0  0  0  0  0  0  0  0  0
  -23.3493   -0.5019  -13.3867 C   0  0  0  0  0  0  0  0  0  0  0  0
  -22.6086   -0.9313  -12.5073 O   0  0  0  0  0  0  0  0  0  0  0  0
  -23.0347    0.4977  -14.2867 N   0  0  0  0  0  0  0  0  0  0  0  0
  -23.7943    0.8630  -14.8449 H   0  0  0  0  0  0  0  0  0  0  0  0
  -21.8031    1.1811  -14.3910 C   0  0  0  0  0  0  0  0  0  0  0  0
  -21.6229    2.5265  -14.0547 C   0  0  0  0  0  0  0  0  0  0  0  0
  -20.3972    3.1613  -14.2859 C   0  0  0  0  0  0  0  0  0  0  0  0
  -19.3401    2.4459  -14.8379 C   0  0  0  0  0  0  0  0  0  0  0  0
  -17.8517    3.2379  -15.1773 Cl  0  0  0  0  0  0  0  0  0  0  0  0
  -19.4867    1.0918  -15.1257 C   0  0  0  0  0  0  0  0  0  0  0  0
  -20.7126    0.4598  -14.8932 C   0  0  0  0  0  0  0  0  0  0  0  0
  -28.4255   -1.5697   -9.2404 O   0  0  0  0  0  0  0  0  0  0  0  0
  -28.9669   -5.2877   -5.6066 C   0  0  0  0  0  0  0  0  0  0  0  0
  -28.4172   -4.1227   -5.0456 C   0  0  0  0  0  0  0  0  0  0  0  0
  -28.1265   -2.9921   -5.7994 C   0  0  0  0  0  0  0  0  0  0  0  0
  -27.7518   -1.8803   -5.1450 N   0  0  0  0  0  0  0  0  0  0  0  0
  -27.5771   -0.7465   -5.8517 C   0  0  0  0  0  0  0  0  0  0  0  0
  -27.7913   -0.6563   -7.2087 C   0  0  0  0  0  0  0  0  0  0  0  0
  -28.1782   -1.8072   -7.8946 C   0  0  0  0  0  0  0  0  0  0  0  0
  -28.2856   -3.0434   -7.1939 C   0  0  0  0  0  0  0  0  0  0  0  0
  -28.5744   -4.3082   -7.7589 C   0  0  0  0  0  0  0  0  0  0  0  0
  -29.0201   -5.3912   -6.9939 C   0  0  0  0  0  0  0  0  0  0  0  0
  -30.7799   -6.2472   -4.4067 C   0  0  0  0  0  0  0  0  0  0  0  0
  -29.4204   -6.3244   -4.8367 O   0  0  0  0  0  0  0  0  0  0  0  0
  -29.4990   -6.3970   -7.7836 O   0  0  0  0  0  0  0  0  0  0  0  0
  -28.6474   -7.4623   -8.1705 C   0  0  0  0  0  0  0  0  0  0  0  0
 33 34  1  0  0  0
 34 23  1  0  0  0
 23 24  1  0  0  0
 23 32  2  0  0  0
 24 25  2  0  0  0
 25 26  1  0  0  0
 25 30  1  0  0  0
 26 27  2  0  0  0
 27 28  1  0  0  0
 28 29  2  0  0  0
 29 22  1  0  0  0
 29 30  1  0  0  0
 22  1  1  0  0  0
  1  2  1  0  0  0
  1 10  2  0  0  0
  2  3  2  0  0  0
  3  4  1  0  0  0
  4  5  1  0  0  0
  4  9  2  0  0  0
  5 11  1  0  0  0
  5  6  2  0  0  0
 11 12  2  0  0  0
 11 13  1  0  0  0
 13 15  1  0  0  0
 13 14  1  0  0  0
 15 16  1  0  0  0
 15 21  2  0  0  0
 16 17  2  0  0  0
 17 18  1  0  0  0
 18 19  1  0  0  0
 18 20  2  0  0  0
 20 21  1  0  0  0
  6  7  1  0  0  0
  7  8  2  0  0  0
  8  9  1  0  0  0
  9 10  1  0  0  0
 30 31  2  0  0  0
 31 32  1  0  0  0
 32 35  1  0  0  0
 35 36  1  0  0  0
M  END
> <minimizedAffinity>
-11.55617

$$$$
