CHEMBL1230790


 23 25  0  0  0  0  0  0  0  0999 V2000
  -15.0661    2.9461  -16.3373 N   0  0  0  0  0  0  0  0  0  0  0  0
  -16.4105    2.8890  -16.4511 N   0  0  0  0  0  0  0  0  0  0  0  0
  -16.8101    2.1516  -15.3950 C   0  0  0  0  0  0  0  0  0  0  0  0
  -15.6844    1.7002  -14.6282 C   0  0  0  0  0  0  0  0  0  0  0  0
  -15.4127    0.9029  -13.5032 C   0  0  0  0  0  0  0  0  0  0  0  0
  -16.3540    0.1938  -12.7679 N   0  0  0  0  0  0  0  0  0  0  0  0
  -14.1350    0.7824  -13.0849 N   0  0  0  0  0  0  0  0  0  0  0  0
  -13.1669    1.4156  -13.7712 C   0  0  0  0  0  0  0  0  0  0  0  0
  -13.2968    2.1648  -14.8747 N   0  0  0  0  0  0  0  0  0  0  0  0
  -14.5827    2.2685  -15.2510 C   0  0  0  0  0  0  0  0  0  0  0  0
  -17.1295   -0.1707  -13.3076 H   0  0  0  0  0  0  0  0  0  0  0  0
  -15.8974   -0.4730  -12.1555 H   0  0  0  0  0  0  0  0  0  0  0  0
  -18.2437    1.9110  -15.1715 C   0  0  0  0  0  0  0  0  0  0  0  0
  -18.7915    0.6268  -15.2998 C   0  0  0  0  0  0  0  0  0  0  0  0
  -20.1632    0.4101  -15.1445 C   0  0  0  0  0  0  0  0  0  0  0  0
  -21.0000    1.4654  -14.7951 C   0  0  0  0  0  0  0  0  0  0  0  0
  -20.4534    2.7320  -14.6050 C   0  0  0  0  0  0  0  0  0  0  0  0
  -21.2332    3.7817  -14.2180 O   0  0  0  0  0  0  0  0  0  0  0  0
  -19.0937    2.9629  -14.8000 C   0  0  0  0  0  0  0  0  0  0  0  0
  -22.1232    3.4491  -14.0164 H   0  0  0  0  0  0  0  0  0  0  0  0
  -13.9155    2.7206  -18.5093 C   0  0  0  0  0  0  0  0  0  0  0  0
  -14.2767    3.6440  -17.3445 C   0  0  0  0  0  0  0  0  0  0  0  0
  -14.9744    4.9095  -17.8425 C   0  0  0  0  0  0  0  0  0  0  0  0
 21 22  1  0  0  0
 22 23  1  0  0  0
 22  1  1  0  0  0
  1  2  1  0  0  0
  1 10  1  0  0  0
  2  3  2  0  0  0
  3 13  1  0  0  0
  3  4  1  0  0  0
 13 14  1  0  0  0
 13 19  2  0  0  0
 14 15  2  0  0  0
 15 16  1  0  0  0
 16 17  2  0  0  0
 17 18  1  0  0  0
 17 19  1  0  0  0
 18 20  1  0  0  0
  4  5  1  0  0  0
  4 10  2  0  0  0
  5  6  1  0  0  0
  5  7  2  0  0  0
  6 11  1  0  0  0
  6 12  1  0  0  0
  7  8  1  0  0  0
  8  9  2  0  0  0
  9 10  1  0  0  0
M  END
> <minimizedAffinity>
-7.24331

$$$$
