CHEMBL1271837


 25 27  0  0  0  0  0  0  0  0999 V2000
  -22.6476   -0.2675  -12.1390 O   0  0  0  0  0  0  0  0  0  0  0  0
  -23.3900   -0.0306  -13.0893 C   0  0  0  0  0  0  0  0  0  0  0  0
  -23.0759    0.7928  -14.1558 N   0  0  0  0  0  0  0  0  0  0  0  0
  -23.8182    1.0135  -14.8166 H   0  0  0  0  0  0  0  0  0  0  0  0
  -24.7370   -0.6457  -13.0548 C   0  0  0  0  0  0  0  0  0  0  0  0
  -25.3636   -0.7820  -11.8070 C   0  0  0  0  0  0  0  0  0  0  0  0
  -26.5965   -1.4135  -11.7241 C   0  0  0  0  0  0  0  0  0  0  0  0
  -27.3677   -1.6098  -10.2003 Cl  0  0  0  0  0  0  0  0  0  0  0  0
  -27.1700   -1.8872  -12.8991 C   0  0  0  0  0  0  0  0  0  0  0  0
  -28.3649   -2.5499  -12.8910 O   0  0  0  0  0  0  0  0  0  0  0  0
  -26.6118   -1.7555  -14.1208 N   0  0  0  0  0  0  0  0  0  0  0  0
  -25.4162   -1.1381  -14.1594 C   0  0  0  0  0  0  0  0  0  0  0  0
  -24.9278   -1.0511  -15.4236 O   0  0  0  0  0  0  0  0  0  0  0  0
  -28.6379   -2.6249  -11.9596 H   0  0  0  0  0  0  0  0  0  0  0  0
  -25.6259   -1.5415  -15.9037 H   0  0  0  0  0  0  0  0  0  0  0  0
  -21.8414    1.4632  -14.3033 C   0  0  0  0  0  0  0  0  0  0  0  0
  -21.6961    2.8431  -14.2238 C   0  0  0  0  0  0  0  0  0  0  0  0
  -20.5376    3.5101  -14.4396 N   0  0  0  0  0  0  0  0  0  0  0  0
  -19.4649    2.7904  -14.7824 C   0  0  0  0  0  0  0  0  0  0  0  0
  -18.2923    3.4605  -15.0960 C   0  0  0  0  0  0  0  0  0  0  0  0
  -17.1465    2.7752  -15.5012 C   0  0  0  0  0  0  0  0  0  0  0  0
  -17.1639    1.3867  -15.5781 C   0  0  0  0  0  0  0  0  0  0  0  0
  -18.3259    0.6879  -15.2476 C   0  0  0  0  0  0  0  0  0  0  0  0
  -19.4853    1.3813  -14.8592 C   0  0  0  0  0  0  0  0  0  0  0  0
  -20.6954    0.7197  -14.5735 C   0  0  0  0  0  0  0  0  0  0  0  0
  1  2  2  0  0  0
  2  3  1  0  0  0
  2  5  1  0  0  0
  3 16  1  0  0  0
  3  4  1  0  0  0
 16 17  1  0  0  0
 16 25  2  0  0  0
 17 18  2  0  0  0
 18 19  1  0  0  0
 19 20  1  0  0  0
 19 24  2  0  0  0
 20 21  2  0  0  0
 21 22  1  0  0  0
 22 23  2  0  0  0
 23 24  1  0  0  0
 24 25  1  0  0  0
  5  6  1  0  0  0
  5 12  2  0  0  0
  6  7  2  0  0  0
  7  8  1  0  0  0
  7  9  1  0  0  0
  9 10  1  0  0  0
  9 11  2  0  0  0
 10 14  1  0  0  0
 11 12  1  0  0  0
 12 13  1  0  0  0
 13 15  1  0  0  0
M  END
> <minimizedAffinity>
-10.43586

$$$$
