CHEMBL3690459


 33 36  0  0  0  0  0  0  0  0999 V2000
  -25.0328   -1.1852  -12.3125 C   0  0  0  0  0  0  0  0  0  0  0  0
  -25.4488   -1.8738  -13.4491 C   0  0  0  0  0  0  0  0  0  0  0  0
  -24.9811   -1.4989  -14.7096 C   0  0  0  0  0  0  0  0  0  0  0  0
  -24.0871   -0.4363  -14.8416 C   0  0  0  0  0  0  0  0  0  0  0  0
  -23.6661    0.2846  -13.7178 C   0  0  0  0  0  0  0  0  0  0  0  0
  -24.1715   -0.0899  -12.4628 C   0  0  0  0  0  0  0  0  0  0  0  0
  -22.7691    1.4343  -13.8790 C   0  0  0  0  0  0  0  0  0  0  0  0
  -22.9967    2.7688  -13.5725 C   0  0  0  0  0  0  0  0  0  0  0  0
  -21.8962    3.5482  -13.7925 N   0  0  0  0  0  0  0  0  0  0  0  0
  -20.9837    2.7227  -14.2503 C   0  0  0  0  0  0  0  0  0  0  0  0
  -19.6408    2.9736  -14.6461 C   0  0  0  0  0  0  0  0  0  0  0  0
  -18.8744    1.9928  -15.1817 C   0  0  0  0  0  0  0  0  0  0  0  0
  -19.4336    0.6402  -15.2995 C   0  0  0  0  0  0  0  0  0  0  0  0
  -20.7001    0.3977  -14.9279 C   0  0  0  0  0  0  0  0  0  0  0  0
  -21.4713    1.4250  -14.3802 N   0  0  0  0  0  0  0  0  0  0  0  0
  -17.4983    2.3037  -15.6441 C   0  0  0  0  0  0  0  0  0  0  0  0
  -17.0832    3.6152  -15.8902 C   0  0  0  0  0  0  0  0  0  0  0  0
  -15.7931    3.8450  -16.3628 C   0  0  0  0  0  0  0  0  0  0  0  0
  -14.9637    2.7622  -16.5919 C   0  0  0  0  0  0  0  0  0  0  0  0
  -13.7218    2.9481  -17.0550 F   0  0  0  0  0  0  0  0  0  0  0  0
  -15.4452    1.4899  -16.3450 C   0  0  0  0  0  0  0  0  0  0  0  0
  -16.6934    1.2349  -15.8807 N   0  0  0  0  0  0  0  0  0  0  0  0
  -27.7386   -1.4513  -11.0958 O   0  0  0  0  0  0  0  0  0  0  0  0
  -26.6888   -1.6403  -10.4997 C   0  0  0  0  0  0  0  0  0  0  0  0
  -26.6764   -2.0356   -9.1770 N   0  0  0  0  0  0  0  0  0  0  0  0
  -25.4138   -1.5258  -11.0003 N   0  0  0  0  0  0  0  0  0  0  0  0
  -25.8618   -1.7632   -8.6457 H   0  0  0  0  0  0  0  0  0  0  0  0
  -24.6676   -1.7756  -10.3670 H   0  0  0  0  0  0  0  0  0  0  0  0
  -27.9443   -2.0483   -8.4413 C   0  0  0  0  0  0  0  0  0  0  0  0
  -28.4308   -3.4421   -8.0209 C   0  0  0  0  0  0  0  0  0  0  0  0
  -29.7061   -3.6699   -8.4154 F   0  0  0  0  0  0  0  0  0  0  0  0
  -27.6553   -4.4293   -8.5108 F   0  0  0  0  0  0  0  0  0  0  0  0
  -28.4190   -3.5465   -6.6685 F   0  0  0  0  0  0  0  0  0  0  0  0
 23 24  2  0  0  0
 24 25  1  0  0  0
 24 26  1  0  0  0
 25 29  1  0  0  0
 25 27  1  0  0  0
 29 30  1  0  0  0
 30 31  1  0  0  0
 30 32  1  0  0  0
 30 33  1  0  0  0
 26  1  1  0  0  0
 26 28  1  0  0  0
  1  2  1  0  0  0
  1  6  2  0  0  0
  2  3  2  0  0  0
  3  4  1  0  0  0
  4  5  2  0  0  0
  5  7  1  0  0  0
  5  6  1  0  0  0
  7  8  2  0  0  0
  7 15  1  0  0  0
  8  9  1  0  0  0
  9 10  2  0  0  0
 10 11  1  0  0  0
 10 15  1  0  0  0
 11 12  2  0  0  0
 12 16  1  0  0  0
 12 13  1  0  0  0
 16 17  1  0  0  0
 16 22  2  0  0  0
 17 18  2  0  0  0
 18 19  1  0  0  0
 19 20  1  0  0  0
 19 21  2  0  0  0
 21 22  1  0  0  0
 13 14  2  0  0  0
 14 15  1  0  0  0
M  END
> <minimizedAffinity>
-10.49739

$$$$
