CHEMBL497049


 37 41  0  0  0  0  0  0  0  0999 V2000
  -27.6486   -2.5640   -8.8428 C   0  0  0  0  0  0  0  0  0  0  0  0
  -28.0871   -2.1797   -7.5548 C   0  0  0  0  0  0  0  0  0  0  0  0
  -28.5301   -3.1349   -6.6173 C   0  0  0  0  0  0  0  0  0  0  0  0
  -28.5492   -4.4702   -6.9861 C   0  0  0  0  0  0  0  0  0  0  0  0
  -28.0806   -4.8246   -8.2589 C   0  0  0  0  0  0  0  0  0  0  0  0
  -27.6186   -3.9162   -9.1890 C   0  0  0  0  0  0  0  0  0  0  0  0
  -28.2126   -6.1850   -8.4804 N   0  0  0  0  0  0  0  0  0  0  0  0
  -28.8425   -6.8071   -7.4210 C   0  0  0  0  0  0  0  0  0  0  0  0
  -29.2814   -7.9407   -7.4522 O   0  0  0  0  0  0  0  0  0  0  0  0
  -28.9693   -5.7390   -6.3458 C   0  0  0  0  0  0  0  0  0  0  0  0
  -29.4012   -6.0388   -5.0978 C   0  0  0  0  0  0  0  0  0  0  0  0
  -28.0395   -6.6640   -9.3511 H   0  0  0  0  0  0  0  0  0  0  0  0
  -29.7917   -4.9700   -4.1559 C   0  0  0  0  0  0  0  0  0  0  0  0
  -28.7952   -4.1995   -3.5394 C   0  0  0  0  0  0  0  0  0  0  0  0
  -29.1421   -3.1381   -2.7034 C   0  0  0  0  0  0  0  0  0  0  0  0
  -30.4855   -2.8405   -2.4776 C   0  0  0  0  0  0  0  0  0  0  0  0
  -31.4826   -3.5992   -3.0916 C   0  0  0  0  0  0  0  0  0  0  0  0
  -31.1385   -4.6577   -3.9350 C   0  0  0  0  0  0  0  0  0  0  0  0
  -27.2612   -1.5935   -9.9053 C   0  0  0  0  0  0  0  0  0  0  0  0
  -28.0727   -0.9673  -10.5646 O   0  0  0  0  0  0  0  0  0  0  0  0
  -25.4185   -1.5506  -11.3292 C   0  0  0  0  0  0  0  0  0  0  0  0
  -25.9128   -1.4800   -9.9902 O   0  0  0  0  0  0  0  0  0  0  0  0
  -29.5888   -7.3047   -4.5651 N   0  0  0  0  0  0  0  0  0  0  0  0
  -30.4848   -7.4646   -4.1106 H   0  0  0  0  0  0  0  0  0  0  0  0
  -28.5782   -8.2081   -4.1593 C   0  0  0  0  0  0  0  0  0  0  0  0
  -27.2119   -7.9404   -4.3376 C   0  0  0  0  0  0  0  0  0  0  0  0
  -26.2505   -8.9427   -4.1930 C   0  0  0  0  0  0  0  0  0  0  0  0
  -26.6321  -10.2398   -3.8371 C   0  0  0  0  0  0  0  0  0  0  0  0
  -27.9808  -10.4891   -3.5494 C   0  0  0  0  0  0  0  0  0  0  0  0
  -28.9423   -9.4843   -3.7148 C   0  0  0  0  0  0  0  0  0  0  0  0
  -25.6339  -11.3737   -3.9142 C   0  0  0  0  0  0  0  0  0  0  0  0
  -24.2102  -10.9763   -3.8331 N   0  0  0  0  0  0  0  0  0  0  0  0
  -23.6215  -11.4599   -2.5744 C   0  0  0  0  0  0  0  0  0  0  0  0
  -22.1053  -11.2753   -2.5108 C   0  0  0  0  0  0  0  0  0  0  0  0
  -21.4304  -11.9425   -3.6987 C   0  0  0  0  0  0  0  0  0  0  0  0
  -21.9962  -11.3611   -4.9844 C   0  0  0  0  0  0  0  0  0  0  0  0
  -23.5184  -11.4955   -5.0278 C   0  0  0  0  0  0  0  0  0  0  0  0
 21 22  1  0  0  0
 22 19  1  0  0  0
 19 20  2  0  0  0
 19  1  1  0  0  0
  1  2  1  0  0  0
  1  6  2  0  0  0
  2  3  2  0  0  0
  3  4  1  0  0  0
  4  5  2  0  0  0
  4 10  1  0  0  0
  5  6  1  0  0  0
  5  7  1  0  0  0
  7  8  1  0  0  0
  7 12  1  0  0  0
  8  9  2  0  0  0
  8 10  1  0  0  0
 10 11  2  0  0  0
 11 23  1  0  0  0
 11 13  1  0  0  0
 23 25  1  0  0  0
 23 24  1  0  0  0
 25 26  1  0  0  0
 25 30  2  0  0  0
 26 27  2  0  0  0
 27 28  1  0  0  0
 28 31  1  0  0  0
 28 29  2  0  0  0
 31 32  1  0  0  0
 32 33  1  0  0  0
 32 37  1  0  0  0
 33 34  1  0  0  0
 34 35  1  0  0  0
 35 36  1  0  0  0
 36 37  1  0  0  0
 29 30  1  0  0  0
 13 14  1  0  0  0
 13 18  2  0  0  0
 14 15  2  0  0  0
 15 16  1  0  0  0
 16 17  2  0  0  0
 17 18  1  0  0  0
M  END
> <minimizedAffinity>
-8.77187

$$$$
