CHEMBL3909529


 35 38  0  0  0  0  0  0  0  0999 V2000
  -28.2131   -2.2107   -8.4766 N   0  0  0  0  0  0  0  0  0  0  0  0
  -28.8041   -3.4763   -8.0696 C   0  0  0  0  0  0  0  0  0  0  0  0
  -30.0636   -3.3557   -7.4846 C   0  0  0  0  0  0  0  0  0  0  0  0
  -30.5031   -4.2926   -6.5671 C   0  0  0  0  0  0  0  0  0  0  0  0
  -29.8079   -5.4516   -6.3366 C   0  0  0  0  0  0  0  0  0  0  0  0
  -30.2730   -6.1593   -5.2986 N   0  0  0  0  0  0  0  0  0  0  0  0
  -29.7623   -7.3848   -5.1344 C   0  0  0  0  0  0  0  0  0  0  0  0
  -28.8722   -7.9355   -6.0315 C   0  0  0  0  0  0  0  0  0  0  0  0
  -28.3017   -7.1657   -7.0285 N   0  0  0  0  0  0  0  0  0  0  0  0
  -28.7270   -5.8363   -7.1604 C   0  0  0  0  0  0  0  0  0  0  0  0
  -28.1937   -4.7633   -7.9969 C   0  0  0  0  0  0  0  0  0  0  0  0
  -28.7142   -9.3870   -5.9491 C   0  0  0  0  0  0  0  0  0  0  0  0
  -29.7111  -10.4002   -5.9108 C   0  0  0  0  0  0  0  0  0  0  0  0
  -29.2283  -11.6017   -5.5650 N   0  0  0  0  0  0  0  0  0  0  0  0
  -27.9207  -11.3667   -5.3684 N   0  0  0  0  0  0  0  0  0  0  0  0
  -26.9916  -12.4656   -5.2348 C   0  0  0  0  0  0  0  0  0  0  0  0
  -27.6056  -10.0343   -5.4214 C   0  0  0  0  0  0  0  0  0  0  0  0
  -25.5627   -1.5221  -11.0365 C   0  0  0  0  0  0  0  0  0  0  0  0
  -26.2905   -1.6154  -12.2237 C   0  0  0  0  0  0  0  0  0  0  0  0
  -27.6654   -1.8274  -12.1794 C   0  0  0  0  0  0  0  0  0  0  0  0
  -28.3090   -1.9516  -10.9409 C   0  0  0  0  0  0  0  0  0  0  0  0
  -27.6209   -1.8764   -9.7242 C   0  0  0  0  0  0  0  0  0  0  0  0
  -26.2322   -1.6290   -9.7949 C   0  0  0  0  0  0  0  0  0  0  0  0
  -23.4234   -2.0635  -11.9545 C   0  0  0  0  0  0  0  0  0  0  0  0
  -24.1995   -1.3668  -10.9768 O   0  0  0  0  0  0  0  0  0  0  0  0
  -28.4818   -1.9711  -13.2706 O   0  0  0  0  0  0  0  0  0  0  0  0
  -27.8602   -1.9582  -14.5509 C   0  0  0  0  0  0  0  0  0  0  0  0
  -27.5503   -1.6197   -7.2410 C   0  0  0  0  0  0  0  0  0  0  0  0
  -28.1534   -0.3524   -6.5986 C   0  0  0  0  0  0  0  0  0  0  0  0
  -28.3394   -0.3437   -5.0804 C   0  0  0  0  0  0  0  0  0  0  0  0
  -29.4000   -1.3268   -4.7301 N   0  0  0  0  0  0  0  0  0  0  0  0
  -29.5859   -1.9045   -5.5515 H   0  0  0  0  0  0  0  0  0  0  0  0
  -29.1117   -2.2125   -3.5911 C   0  0  0  0  0  0  0  0  0  0  0  0
  -30.3510   -2.9456   -3.0739 C   0  0  0  0  0  0  0  0  0  0  0  0
  -28.0735   -3.2622   -4.0252 C   0  0  0  0  0  0  0  0  0  0  0  0
 24 25  1  0  0  0
 25 18  1  0  0  0
 18 19  1  0  0  0
 18 23  2  0  0  0
 19 20  2  0  0  0
 20 26  1  0  0  0
 20 21  1  0  0  0
 26 27  1  0  0  0
 21 22  2  0  0  0
 22  1  1  0  0  0
 22 23  1  0  0  0
  1 28  1  0  0  0
  1  2  1  0  0  0
 28 29  1  0  0  0
 29 30  1  0  0  0
 30 31  1  0  0  0
 31 33  1  0  0  0
 31 32  1  0  0  0
 33 34  1  0  0  0
 33 35  1  0  0  0
  2  3  1  0  0  0
  2 11  2  0  0  0
  3  4  2  0  0  0
  4  5  1  0  0  0
  5  6  1  0  0  0
  5 10  2  0  0  0
  6  7  2  0  0  0
  7  8  1  0  0  0
  8 12  1  0  0  0
  8  9  2  0  0  0
 12 13  1  0  0  0
 12 17  2  0  0  0
 13 14  2  0  0  0
 14 15  1  0  0  0
 15 16  1  0  0  0
 15 17  1  0  0  0
  9 10  1  0  0  0
 10 11  1  0  0  0
M  END
> <minimizedAffinity>
-6.64845

$$$$
