CHEMBL195254


 36 39  0  0  0  0  0  0  0  0999 V2000
  -30.3894   -7.2870   -4.1386 N   0  0  0  0  0  0  0  0  0  0  0  0
  -31.1779   -7.5633   -4.7178 H   0  0  0  0  0  0  0  0  0  0  0  0
  -28.3130   -9.1526   -7.8017 C   0  0  0  0  0  0  0  0  0  0  0  0
  -27.4275   -9.7323   -6.9181 C   0  0  0  0  0  0  0  0  0  0  0  0
  -27.7270   -9.3249   -5.6614 N   0  0  0  0  0  0  0  0  0  0  0  0
  -27.0506   -9.7409   -4.5844 N   0  0  0  0  0  0  0  0  0  0  0  0
  -27.5301   -9.3080   -3.4688 C   0  0  0  0  0  0  0  0  0  0  0  0
  -28.6181   -8.5055   -3.3197 N   0  0  0  0  0  0  0  0  0  0  0  0
  -29.2855   -8.0870   -4.3597 C   0  0  0  0  0  0  0  0  0  0  0  0
  -28.8150   -8.4862   -5.6707 C   0  0  0  0  0  0  0  0  0  0  0  0
  -29.1979   -8.2965   -7.0120 C   0  0  0  0  0  0  0  0  0  0  0  0
  -30.3263   -7.5054   -7.6647 C   0  0  0  0  0  0  0  0  0  0  0  0
  -31.7043   -7.9580   -7.1761 C   0  0  0  0  0  0  0  0  0  0  0  0
  -30.2237   -5.9874   -7.6346 C   0  0  0  0  0  0  0  0  0  0  0  0
  -28.3417   -9.4770   -9.2308 C   0  0  0  0  0  0  0  0  0  0  0  0
  -27.4418   -9.2008  -10.0176 O   0  0  0  0  0  0  0  0  0  0  0  0
  -29.5414  -10.0153   -9.6029 O   0  0  0  0  0  0  0  0  0  0  0  0
  -31.1453  -11.4269   -8.5393 C   0  0  0  0  0  0  0  0  0  0  0  0
  -29.7695  -11.3628   -9.1800 C   0  0  0  0  0  0  0  0  0  0  0  0
  -30.3090   -5.8698   -4.0548 C   0  0  0  0  0  0  0  0  0  0  0  0
  -29.2768   -5.1426   -4.6738 C   0  0  0  0  0  0  0  0  0  0  0  0
  -29.2031   -3.7423   -4.5635 C   0  0  0  0  0  0  0  0  0  0  0  0
  -30.1666   -3.0812   -3.7954 C   0  0  0  0  0  0  0  0  0  0  0  0
  -30.1377   -1.7468   -3.6492 F   0  0  0  0  0  0  0  0  0  0  0  0
  -31.1859   -3.7794   -3.1570 C   0  0  0  0  0  0  0  0  0  0  0  0
  -31.2434   -5.1596   -3.2879 C   0  0  0  0  0  0  0  0  0  0  0  0
  -32.2365   -5.8305   -2.6812 F   0  0  0  0  0  0  0  0  0  0  0  0
  -28.1051   -3.0208   -5.2782 C   0  0  0  0  0  0  0  0  0  0  0  0
  -27.0112   -2.9072   -4.7369 O   0  0  0  0  0  0  0  0  0  0  0  0
  -28.4146   -2.5352   -6.5246 N   0  0  0  0  0  0  0  0  0  0  0  0
  -29.3250   -2.6380   -6.9585 H   0  0  0  0  0  0  0  0  0  0  0  0
  -27.3848   -1.9015   -7.2559 O   0  0  0  0  0  0  0  0  0  0  0  0
  -27.6976   -0.5128   -7.3980 C   0  0  0  0  0  0  0  0  0  0  0  0
  -28.6966   -0.1194   -6.3567 C   0  0  0  0  0  0  0  0  0  0  0  0
  -29.2212    1.2953   -6.3226 C   0  0  0  0  0  0  0  0  0  0  0  0
  -28.3204    0.8046   -5.2247 C   0  0  0  0  0  0  0  0  0  0  0  0
 18 19  1  0  0  0
 19 17  1  0  0  0
 17 15  1  0  0  0
 15 16  2  0  0  0
 15  3  1  0  0  0
  3  4  2  0  0  0
  3 11  1  0  0  0
  4  5  1  0  0  0
  5  6  1  0  0  0
  5 10  1  0  0  0
  6  7  2  0  0  0
  7  8  1  0  0  0
  8  9  2  0  0  0
  9  1  1  0  0  0
  9 10  1  0  0  0
  1 20  1  0  0  0
  1  2  1  0  0  0
 20 21  1  0  0  0
 20 26  2  0  0  0
 21 22  2  0  0  0
 22 28  1  0  0  0
 22 23  1  0  0  0
 28 29  2  0  0  0
 28 30  1  0  0  0
 30 32  1  0  0  0
 30 31  1  0  0  0
 32 33  1  0  0  0
 33 34  1  0  0  0
 34 35  1  0  0  0
 34 36  1  0  0  0
 35 36  1  0  0  0
 23 24  1  0  0  0
 23 25  2  0  0  0
 25 26  1  0  0  0
 26 27  1  0  0  0
 10 11  2  0  0  0
 11 12  1  0  0  0
 12 13  1  0  0  0
 12 14  1  0  0  0
M  END
> <minimizedAffinity>
-8.40128

$$$$
