CHEMBL218110


 41 44  0  0  0  0  0  0  0  0999 V2000
  -14.9015    1.2986  -14.2917 N   0  0  0  0  0  0  0  0  0  0  0  0
  -14.0411    0.3625  -14.8613 C   0  0  0  0  0  0  0  0  0  0  0  0
  -14.0482    0.1307  -16.0691 O   0  0  0  0  0  0  0  0  0  0  0  0
  -14.7392    1.6578  -13.3630 H   0  0  0  0  0  0  0  0  0  0  0  0
  -13.0782   -0.4174  -14.0135 C   0  0  0  0  0  0  0  0  0  0  0  0
  -13.1766   -1.8003  -13.7519 C   0  0  0  0  0  0  0  0  0  0  0  0
  -12.0690   -2.4972  -13.2105 C   0  0  0  0  0  0  0  0  0  0  0  0
  -10.8791   -1.8160  -12.9263 C   0  0  0  0  0  0  0  0  0  0  0  0
  -10.8011   -0.4420  -13.1189 C   0  0  0  0  0  0  0  0  0  0  0  0
  -11.8947    0.2455  -13.6394 C   0  0  0  0  0  0  0  0  0  0  0  0
  -11.7668    1.5739  -13.7715 F   0  0  0  0  0  0  0  0  0  0  0  0
  -12.0997   -3.9122  -12.9403 C   0  0  0  0  0  0  0  0  0  0  0  0
  -12.1752   -5.1105  -12.8191 C   0  0  0  0  0  0  0  0  0  0  0  0
  -12.1806   -6.5408  -12.7757 C   0  0  0  0  0  0  0  0  0  0  0  0
  -12.1262   -7.2063  -11.5747 C   0  0  0  0  0  0  0  0  0  0  0  0
  -12.1506   -8.5457  -11.4469 N   0  0  0  0  0  0  0  0  0  0  0  0
  -12.2493   -9.2474  -12.5825 C   0  0  0  0  0  0  0  0  0  0  0  0
  -12.2970  -10.6200  -12.4600 N   0  0  0  0  0  0  0  0  0  0  0  0
  -12.2745   -8.7149  -13.8076 N   0  0  0  0  0  0  0  0  0  0  0  0
  -12.2489   -7.3627  -13.8852 C   0  0  0  0  0  0  0  0  0  0  0  0
  -11.8876  -10.9010  -11.5813 H   0  0  0  0  0  0  0  0  0  0  0  0
  -11.9603  -11.0661  -13.3009 H   0  0  0  0  0  0  0  0  0  0  0  0
  -15.8558    3.0306  -15.8897 C   0  0  0  0  0  0  0  0  0  0  0  0
  -17.0925    3.5934  -16.3130 C   0  0  0  0  0  0  0  0  0  0  0  0
  -18.3450    3.0292  -16.0608 C   0  0  0  0  0  0  0  0  0  0  0  0
  -18.4384    1.8613  -15.3220 C   0  0  0  0  0  0  0  0  0  0  0  0
  -17.2512    1.3089  -14.8181 C   0  0  0  0  0  0  0  0  0  0  0  0
  -15.9724    1.8872  -15.0462 C   0  0  0  0  0  0  0  0  0  0  0  0
  -12.8998    3.6180  -18.0728 C   0  0  0  0  0  0  0  0  0  0  0  0
  -11.9467    4.2535  -17.0369 C   0  0  0  0  0  0  0  0  0  0  0  0
  -12.4119    4.1326  -15.5857 C   0  0  0  0  0  0  0  0  0  0  0  0
  -13.8885    4.4959  -15.4364 C   0  0  0  0  0  0  0  0  0  0  0  0
  -14.6903    3.6473  -16.3528 N   0  0  0  0  0  0  0  0  0  0  0  0
  -14.3818    3.9785  -17.7466 C   0  0  0  0  0  0  0  0  0  0  0  0
  -13.6324    1.6735  -19.3806 C   0  0  0  0  0  0  0  0  0  0  0  0
  -12.6973    2.1774  -18.3752 N   0  0  0  0  0  0  0  0  0  0  0  0
  -11.3354    1.7767  -18.7218 C   0  0  0  0  0  0  0  0  0  0  0  0
  -19.7769    1.2412  -15.0192 C   0  0  0  0  0  0  0  0  0  0  0  0
  -20.0650    1.2084  -13.6853 F   0  0  0  0  0  0  0  0  0  0  0  0
  -20.8147    1.8951  -15.6045 F   0  0  0  0  0  0  0  0  0  0  0  0
  -19.8571   -0.0523  -15.4401 F   0  0  0  0  0  0  0  0  0  0  0  0
 35 36  1  0  0  0
 36 37  1  0  0  0
 36 29  1  0  0  0
 29 30  1  0  0  0
 29 34  1  0  0  0
 30 31  1  0  0  0
 31 32  1  0  0  0
 32 33  1  0  0  0
 33 23  1  0  0  0
 33 34  1  0  0  0
 23 24  1  0  0  0
 23 28  2  0  0  0
 24 25  2  0  0  0
 25 26  1  0  0  0
 26 38  1  0  0  0
 26 27  2  0  0  0
 38 39  1  0  0  0
 38 40  1  0  0  0
 38 41  1  0  0  0
 27 28  1  0  0  0
 28  1  1  0  0  0
  1  2  1  0  0  0
  1  4  1  0  0  0
  2  3  2  0  0  0
  2  5  1  0  0  0
  5  6  1  0  0  0
  5 10  2  0  0  0
  6  7  2  0  0  0
  7 12  1  0  0  0
  7  8  1  0  0  0
 12 13  3  0  0  0
 13 14  1  0  0  0
 14 15  1  0  0  0
 14 20  2  0  0  0
 15 16  2  0  0  0
 16 17  1  0  0  0
 17 18  1  0  0  0
 17 19  2  0  0  0
 18 21  1  0  0  0
 18 22  1  0  0  0
 19 20  1  0  0  0
  8  9  2  0  0  0
  9 10  1  0  0  0
 10 11  1  0  0  0
M  END
> <minimizedAffinity>
-8.01567

$$$$
