CHEMBL47787


 45 50  0  0  0  0  0  0  0  0999 V2000
  -28.0753   -2.5678   -8.4430 C   0  0  0  0  0  0  0  0  0  0  0  0
  -28.6649   -3.7376   -8.6940 N   0  0  0  0  0  0  0  0  0  0  0  0
  -29.2881   -4.0495   -7.5646 N   0  0  0  0  0  0  0  0  0  0  0  0
  -29.3016   -3.0280   -6.6576 C   0  0  0  0  0  0  0  0  0  0  0  0
  -29.9679   -2.9624   -5.4865 N   0  0  0  0  0  0  0  0  0  0  0  0
  -29.7524   -1.7741   -4.8865 C   0  0  0  0  0  0  0  0  0  0  0  0
  -28.9697   -0.7483   -5.2897 N   0  0  0  0  0  0  0  0  0  0  0  0
  -28.3123   -0.8740   -6.4591 C   0  0  0  0  0  0  0  0  0  0  0  0
  -27.5197    0.1822   -6.8726 N   0  0  0  0  0  0  0  0  0  0  0  0
  -28.4812   -2.0492   -7.2006 C   0  0  0  0  0  0  0  0  0  0  0  0
  -27.7437    1.0371   -6.3832 H   0  0  0  0  0  0  0  0  0  0  0  0
  -27.3926    0.2700   -7.8689 H   0  0  0  0  0  0  0  0  0  0  0  0
  -27.3298   -1.4238  -11.8774 C   0  0  0  0  0  0  0  0  0  0  0  0
  -27.9489   -1.9087  -10.7418 C   0  0  0  0  0  0  0  0  0  0  0  0
  -27.3008   -2.0175   -9.5106 C   0  0  0  0  0  0  0  0  0  0  0  0
  -25.9634   -1.6685   -9.4171 C   0  0  0  0  0  0  0  0  0  0  0  0
  -25.3316   -1.1385  -10.5327 C   0  0  0  0  0  0  0  0  0  0  0  0
  -25.9983   -1.0025  -11.7717 C   0  0  0  0  0  0  0  0  0  0  0  0
  -25.3504   -0.4266  -12.8857 N   0  0  0  0  0  0  0  0  0  0  0  0
  -24.2138   -0.9125  -13.4635 C   0  0  0  0  0  0  0  0  0  0  0  0
  -23.6646   -1.9890  -13.2127 O   0  0  0  0  0  0  0  0  0  0  0  0
  -25.7387    0.4240  -13.2691 H   0  0  0  0  0  0  0  0  0  0  0  0
  -23.7008   -0.0148  -14.3316 O   0  0  0  0  0  0  0  0  0  0  0  0
  -23.1950    1.1543  -13.6793 C   0  0  0  0  0  0  0  0  0  0  0  0
  -21.8688    1.5759  -14.2422 C   0  0  0  0  0  0  0  0  0  0  0  0
  -21.5526    2.9330  -14.3653 C   0  0  0  0  0  0  0  0  0  0  0  0
  -20.3077    3.3200  -14.8566 C   0  0  0  0  0  0  0  0  0  0  0  0
  -19.3734    2.3548  -15.2301 C   0  0  0  0  0  0  0  0  0  0  0  0
  -19.6822    1.0007  -15.1205 C   0  0  0  0  0  0  0  0  0  0  0  0
  -20.9280    0.6105  -14.6326 C   0  0  0  0  0  0  0  0  0  0  0  0
  -28.4105   -2.7061  -13.5400 C   0  0  0  0  0  0  0  0  0  0  0  0
  -27.9757   -1.4096  -13.0918 O   0  0  0  0  0  0  0  0  0  0  0  0
  -29.8333   -5.3983   -7.4877 C   0  0  0  0  0  0  0  0  0  0  0  0
  -28.6589   -6.3978   -7.4692 C   0  0  0  0  0  0  0  0  0  0  0  0
  -28.2529   -6.9024   -6.0971 C   0  0  0  0  0  0  0  0  0  0  0  0
  -29.4588   -7.4240   -5.3083 C   0  0  0  0  0  0  0  0  0  0  0  0
  -30.3854   -6.2196   -5.0523 C   0  0  0  0  0  0  0  0  0  0  0  0
  -30.8518   -5.4712   -6.3049 C   0  0  0  0  0  0  0  0  0  0  0  0
  -30.1030   -8.6383   -5.8272 N   0  0  0  0  0  0  0  0  0  0  0  0
  -29.2717   -9.8369   -5.9723 C   0  0  0  0  0  0  0  0  0  0  0  0
  -28.8634  -10.1734   -7.4301 C   0  0  0  0  0  0  0  0  0  0  0  0
  -29.9916  -10.2206   -8.3805 N   0  0  0  0  0  0  0  0  0  0  0  0
  -29.5119  -10.3484   -9.7579 C   0  0  0  0  0  0  0  0  0  0  0  0
  -30.8556   -9.0415   -8.2572 C   0  0  0  0  0  0  0  0  0  0  0  0
  -31.1886   -8.6402   -6.8023 C   0  0  0  0  0  0  0  0  0  0  0  0
 31 32  1  0  0  0
 32 13  1  0  0  0
 13 14  1  0  0  0
 13 18  2  0  0  0
 14 15  2  0  0  0
 15  1  1  0  0  0
 15 16  1  0  0  0
  1  2  2  0  0  0
  1 10  1  0  0  0
  2  3  1  0  0  0
  3  4  1  0  0  0
 33 34  1  0  0  0
 33 38  1  0  0  0
 33  3  1  0  0  0
 34 35  1  0  0  0
 35 36  1  0  0  0
 36 37  1  0  0  0
 36 39  1  0  0  0
 39 40  1  0  0  0
 39 45  1  0  0  0
 40 41  1  0  0  0
 41 42  1  0  0  0
 42 43  1  0  0  0
 42 44  1  0  0  0
 44 45  1  0  0  0
 37 38  1  0  0  0
  4  5  1  0  0  0
  4 10  2  0  0  0
  5  6  2  0  0  0
  6  7  1  0  0  0
  7  8  2  0  0  0
  8  9  1  0  0  0
  8 10  1  0  0  0
  9 11  1  0  0  0
  9 12  1  0  0  0
 16 17  2  0  0  0
 17 18  1  0  0  0
 18 19  1  0  0  0
 19 20  1  0  0  0
 19 22  1  0  0  0
 20 21  2  0  0  0
 20 23  1  0  0  0
 23 24  1  0  0  0
 24 25  1  0  0  0
 25 26  1  0  0  0
 25 30  2  0  0  0
 26 27  2  0  0  0
 27 28  1  0  0  0
 28 29  2  0  0  0
 29 30  1  0  0  0
M  END
> <minimizedAffinity>
-9.27227

$$$$
