CHEMBL4168788


 37 40  0  0  0  0  0  0  0  0999 V2000
  -13.9509   -4.1025  -12.6663 C   0  0  0  0  0  0  0  0  0  0  0  0
  -13.5022   -3.3036  -13.7248 C   0  0  0  0  0  0  0  0  0  0  0  0
  -14.2407   -2.1931  -14.1663 C   0  0  0  0  0  0  0  0  0  0  0  0
  -15.4196   -1.8105  -13.5176 C   0  0  0  0  0  0  0  0  0  0  0  0
  -15.7880   -2.5173  -12.3796 C   0  0  0  0  0  0  0  0  0  0  0  0
  -15.0896   -3.6564  -11.9803 C   0  0  0  0  0  0  0  0  0  0  0  0
  -15.8026   -6.5777  -14.0186 N   0  0  0  0  0  0  0  0  0  0  0  0
  -14.8425   -7.2264  -13.3392 C   0  0  0  0  0  0  0  0  0  0  0  0
  -14.8210   -8.5558  -13.3200 N   0  0  0  0  0  0  0  0  0  0  0  0
  -13.7796   -8.8443  -12.5380 N   0  0  0  0  0  0  0  0  0  0  0  0
  -13.1157   -7.7521  -12.0482 C   0  0  0  0  0  0  0  0  0  0  0  0
  -12.0106   -7.6779  -11.1996 C   0  0  0  0  0  0  0  0  0  0  0  0
  -11.5396   -6.4139  -10.8646 C   0  0  0  0  0  0  0  0  0  0  0  0
  -12.1566   -5.2790  -11.3805 C   0  0  0  0  0  0  0  0  0  0  0  0
  -13.2894   -5.3445  -12.2345 C   0  0  0  0  0  0  0  0  0  0  0  0
  -13.7782   -6.6382  -12.5780 C   0  0  0  0  0  0  0  0  0  0  0  0
  -16.5565   -7.1658  -14.3572 H   0  0  0  0  0  0  0  0  0  0  0  0
  -16.1283   -5.6827  -13.6725 H   0  0  0  0  0  0  0  0  0  0  0  0
  -13.5666   -9.8184  -12.3590 H   0  0  0  0  0  0  0  0  0  0  0  0
  -16.1670   -0.7586  -14.0889 N   0  0  0  0  0  0  0  0  0  0  0  0
  -17.1705   -0.9019  -14.0927 H   0  0  0  0  0  0  0  0  0  0  0  0
  -15.7801    0.4646  -14.6330 C   0  0  0  0  0  0  0  0  0  0  0  0
  -14.5837    1.5210  -14.1038 S   0  0  0  0  0  0  0  0  0  0  0  0
  -16.6480    0.7875  -15.6900 N   0  0  0  0  0  0  0  0  0  0  0  0
  -16.5984    0.1184  -16.4540 H   0  0  0  0  0  0  0  0  0  0  0  0
  -17.9318    1.3630  -15.4958 C   0  0  0  0  0  0  0  0  0  0  0  0
  -19.0236    0.5179  -15.2371 C   0  0  0  0  0  0  0  0  0  0  0  0
  -20.3086    1.0304  -15.1156 C   0  0  0  0  0  0  0  0  0  0  0  0
  -20.5005    2.4054  -15.2791 C   0  0  0  0  0  0  0  0  0  0  0  0
  -19.4155    3.2653  -15.4779 C   0  0  0  0  0  0  0  0  0  0  0  0
  -18.1274    2.7454  -15.5633 C   0  0  0  0  0  0  0  0  0  0  0  0
  -16.6793    3.9417  -15.8449 Br  0  0  0  0  0  0  0  0  0  0  0  0
  -21.4422    0.3190  -14.8671 O   0  0  0  0  0  0  0  0  0  0  0  0
  -22.0816    0.4168  -13.6008 C   0  0  0  0  0  0  0  0  0  0  0  0
  -23.1192    1.2804  -13.5838 F   0  0  0  0  0  0  0  0  0  0  0  0
  -22.5713   -0.8039  -13.2844 F   0  0  0  0  0  0  0  0  0  0  0  0
  -21.1893    0.7711  -12.6531 F   0  0  0  0  0  0  0  0  0  0  0  0
  7  8  1  0  0  0
  7 17  1  0  0  0
  7 18  1  0  0  0
  8  9  2  0  0  0
  8 16  1  0  0  0
  9 10  1  0  0  0
 10 11  1  0  0  0
 10 19  1  0  0  0
 11 12  1  0  0  0
 11 16  2  0  0  0
 12 13  2  0  0  0
 13 14  1  0  0  0
 14 15  2  0  0  0
 15  1  1  0  0  0
 15 16  1  0  0  0
  1  2  1  0  0  0
  1  6  2  0  0  0
  2  3  2  0  0  0
  3  4  1  0  0  0
  4 20  1  0  0  0
  4  5  2  0  0  0
 20 22  1  0  0  0
 20 21  1  0  0  0
 22 23  2  0  0  0
 22 24  1  0  0  0
 24 26  1  0  0  0
 24 25  1  0  0  0
 26 27  1  0  0  0
 26 31  2  0  0  0
 27 28  2  0  0  0
 28 33  1  0  0  0
 28 29  1  0  0  0
 33 34  1  0  0  0
 34 35  1  0  0  0
 34 36  1  0  0  0
 34 37  1  0  0  0
 29 30  2  0  0  0
 30 31  1  0  0  0
 31 32  1  0  0  0
  5  6  1  0  0  0
M  END
> <minimizedAffinity>
-9.20046

$$$$
