CHEMBL4294041


 31 34  0  0  0  0  0  0  0  0999 V2000
  -27.7170   -2.0296   -9.3977 C   0  0  0  0  0  0  0  0  0  0  0  0
  -26.6923   -2.5394  -10.1872 C   0  0  0  0  0  0  0  0  0  0  0  0
  -26.4775   -1.9831  -11.4444 C   0  0  0  0  0  0  0  0  0  0  0  0
  -27.2262   -0.8798  -11.8247 C   0  0  0  0  0  0  0  0  0  0  0  0
  -28.2103   -0.4162  -10.9577 C   0  0  0  0  0  0  0  0  0  0  0  0
  -28.4964   -0.9781   -9.7555 N   0  0  0  0  0  0  0  0  0  0  0  0
  -27.4554   -2.2295   -7.0589 O   0  0  0  0  0  0  0  0  0  0  0  0
  -27.9663   -2.6881   -8.0745 C   0  0  0  0  0  0  0  0  0  0  0  0
  -28.7794   -3.8024   -8.0700 N   0  0  0  0  0  0  0  0  0  0  0  0
  -29.2910   -4.0032   -8.9207 H   0  0  0  0  0  0  0  0  0  0  0  0
  -29.0703   -4.4965   -6.8237 C   0  0  0  0  0  0  0  0  0  0  0  0
  -29.3929   -5.9746   -7.0632 C   0  0  0  0  0  0  0  0  0  0  0  0
  -29.6877   -6.6950   -5.7479 C   0  0  0  0  0  0  0  0  0  0  0  0
  -30.8077   -6.0084   -4.9708 C   0  0  0  0  0  0  0  0  0  0  0  0
  -30.5062   -4.5299   -4.7410 C   0  0  0  0  0  0  0  0  0  0  0  0
  -30.2018   -3.8055   -6.0513 C   0  0  0  0  0  0  0  0  0  0  0  0
  -25.5186   -2.4186  -12.3367 O   0  0  0  0  0  0  0  0  0  0  0  0
  -24.5068   -1.5680  -12.7284 C   0  0  0  0  0  0  0  0  0  0  0  0
  -24.4059   -1.0257  -14.0154 C   0  0  0  0  0  0  0  0  0  0  0  0
  -23.3070   -0.2454  -14.3697 C   0  0  0  0  0  0  0  0  0  0  0  0
  -22.3312    0.0843  -13.4270 C   0  0  0  0  0  0  0  0  0  0  0  0
  -22.4856   -0.3870  -12.1119 C   0  0  0  0  0  0  0  0  0  0  0  0
  -23.5653   -1.2105  -11.7652 C   0  0  0  0  0  0  0  0  0  0  0  0
  -21.1206    0.8369  -13.7855 C   0  0  0  0  0  0  0  0  0  0  0  0
  -20.4685    0.7545  -14.9565 C   0  0  0  0  0  0  0  0  0  0  0  0
  -19.2424    1.5146  -15.2508 C   0  0  0  0  0  0  0  0  0  0  0  0
  -19.2903    2.8809  -15.4970 C   0  0  0  0  0  0  0  0  0  0  0  0
  -18.1025    3.5584  -15.7721 C   0  0  0  0  0  0  0  0  0  0  0  0
  -16.9058    2.8476  -15.7814 C   0  0  0  0  0  0  0  0  0  0  0  0
  -16.9449    1.4923  -15.5169 C   0  0  0  0  0  0  0  0  0  0  0  0
  -18.0835    0.8139  -15.2547 N   0  0  0  0  0  0  0  0  0  0  0  0
  7  8  2  0  0  0
  8  9  1  0  0  0
  8  1  1  0  0  0
  9 11  1  0  0  0
  9 10  1  0  0  0
 11 12  1  0  0  0
 11 16  1  0  0  0
 12 13  1  0  0  0
 13 14  1  0  0  0
 14 15  1  0  0  0
 15 16  1  0  0  0
  1  2  1  0  0  0
  1  6  2  0  0  0
  2  3  2  0  0  0
  3 17  1  0  0  0
  3  4  1  0  0  0
 17 18  1  0  0  0
 18 19  1  0  0  0
 18 23  2  0  0  0
 19 20  2  0  0  0
 20 21  1  0  0  0
 21 24  1  0  0  0
 21 22  2  0  0  0
 24 25  2  0  0  0
 25 26  1  0  0  0
 26 27  1  0  0  0
 26 31  2  0  0  0
 27 28  2  0  0  0
 28 29  1  0  0  0
 29 30  2  0  0  0
 30 31  1  0  0  0
 22 23  1  0  0  0
  4  5  2  0  0  0
  5  6  1  0  0  0
M  END
> <minimizedAffinity>
-9.92748

$$$$
