CHEMBL411520


 37 43  0  0  0  0  0  0  0  0999 V2000
  -28.7375   -9.1201   -4.8713 N   0  0  0  0  0  0  0  0  0  0  0  0
  -28.3474   -9.8012   -6.0513 C   0  0  0  0  0  0  0  0  0  0  0  0
  -27.7869  -11.0795   -6.2682 C   0  0  0  0  0  0  0  0  0  0  0  0
  -27.3171  -11.4065   -7.5604 C   0  0  0  0  0  0  0  0  0  0  0  0
  -27.4561  -10.5161   -8.6274 C   0  0  0  0  0  0  0  0  0  0  0  0
  -28.0656   -9.2788   -8.4108 C   0  0  0  0  0  0  0  0  0  0  0  0
  -28.4688   -8.9027   -7.1213 C   0  0  0  0  0  0  0  0  0  0  0  0
  -28.8704   -7.7400   -6.5006 C   0  0  0  0  0  0  0  0  0  0  0  0
  -28.6767   -6.4789   -7.0856 C   0  0  0  0  0  0  0  0  0  0  0  0
  -28.6012   -5.3991   -6.1833 C   0  0  0  0  0  0  0  0  0  0  0  0
  -28.8175   -5.5237   -4.7986 C   0  0  0  0  0  0  0  0  0  0  0  0
  -29.5922   -6.6884   -4.4542 C   0  0  0  0  0  0  0  0  0  0  0  0
  -29.2144   -7.8382   -5.1818 C   0  0  0  0  0  0  0  0  0  0  0  0
  -31.1116   -6.2971   -4.1775 C   0  0  0  0  0  0  0  0  0  0  0  0
  -31.4883   -4.7943   -4.5257 C   0  0  0  0  0  0  0  0  0  0  0  0
  -30.4495   -3.9410   -3.8884 C   0  0  0  0  0  0  0  0  0  0  0  0
  -30.6156   -3.0313   -2.9294 N   0  0  0  0  0  0  0  0  0  0  0  0
  -29.3627   -2.9112   -2.4213 N   0  0  0  0  0  0  0  0  0  0  0  0
  -29.1353   -2.0846   -1.2608 C   0  0  0  0  0  0  0  0  0  0  0  0
  -28.4597   -3.7901   -2.9689 C   0  0  0  0  0  0  0  0  0  0  0  0
  -29.1117   -4.3352   -4.0432 C   0  0  0  0  0  0  0  0  0  0  0  0
  -28.4255   -4.2005   -6.9643 C   0  0  0  0  0  0  0  0  0  0  0  0
  -28.3564   -3.0111   -6.6849 O   0  0  0  0  0  0  0  0  0  0  0  0
  -28.4043   -4.6456   -8.2810 N   0  0  0  0  0  0  0  0  0  0  0  0
  -28.4786   -6.0738   -8.4732 C   0  0  0  0  0  0  0  0  0  0  0  0
  -28.3654   -3.9737   -9.0321 H   0  0  0  0  0  0  0  0  0  0  0  0
  -26.8515  -10.7041   -9.9767 C   0  0  0  0  0  0  0  0  0  0  0  0
  -25.7518  -11.2531  -10.0343 O   0  0  0  0  0  0  0  0  0  0  0  0
  -27.5268  -10.2697  -11.1790 C   0  0  0  0  0  0  0  0  0  0  0  0
  -27.1392   -9.3839  -12.2153 C   0  0  0  0  0  0  0  0  0  0  0  0
  -28.1713   -9.3817  -13.1305 C   0  0  0  0  0  0  0  0  0  0  0  0
  -29.1632  -10.2141  -12.7360 O   0  0  0  0  0  0  0  0  0  0  0  0
  -28.7588  -10.7718  -11.5615 C   0  0  0  0  0  0  0  0  0  0  0  0
  -28.4444   -9.6036   -3.5191 C   0  0  0  0  0  0  0  0  0  0  0  0
  -26.3526  -11.0557   -3.1878 C   0  0  0  0  0  0  0  0  0  0  0  0
  -26.9367   -9.6420   -3.1534 C   0  0  0  0  0  0  0  0  0  0  0  0
  -26.1153   -8.7361   -4.0807 C   0  0  0  0  0  0  0  0  0  0  0  0
 35 36  1  0  0  0
 36 37  1  0  0  0
 36 34  1  0  0  0
 34  1  1  0  0  0
  1  2  1  0  0  0
  1 13  1  0  0  0
  2  3  1  0  0  0
  2  7  2  0  0  0
  3  4  2  0  0  0
  4  5  1  0  0  0
  5 27  1  0  0  0
  5  6  2  0  0  0
 27 28  2  0  0  0
 27 29  1  0  0  0
 29 30  1  0  0  0
 29 33  2  0  0  0
 30 31  2  0  0  0
 31 32  1  0  0  0
 32 33  1  0  0  0
  6  7  1  0  0  0
  7  8  1  0  0  0
  8  9  1  0  0  0
  8 13  2  0  0  0
  9 10  2  0  0  0
  9 25  1  0  0  0
 10 11  1  0  0  0
 10 22  1  0  0  0
 11 12  2  0  0  0
 11 21  1  0  0  0
 12 13  1  0  0  0
 12 14  1  0  0  0
 14 15  1  0  0  0
 15 16  1  0  0  0
 16 17  2  0  0  0
 16 21  1  0  0  0
 17 18  1  0  0  0
 18 19  1  0  0  0
 18 20  1  0  0  0
 20 21  2  0  0  0
 22 23  2  0  0  0
 22 24  1  0  0  0
 24 25  1  0  0  0
 24 26  1  0  0  0
M  END
> <minimizedAffinity>
-7.00113

$$$$
