CHEMBL1681951


 34 36  0  0  0  0  0  0  0  0999 V2000
  -29.8606   -8.6616   -7.4265 C   0  0  0  0  0  0  0  0  0  0  0  0
  -31.0827   -8.0052   -7.3265 C   0  0  0  0  0  0  0  0  0  0  0  0
  -31.2170   -6.8932   -6.4883 C   0  0  0  0  0  0  0  0  0  0  0  0
  -30.1590   -6.4380   -5.7014 C   0  0  0  0  0  0  0  0  0  0  0  0
  -28.9779   -7.2082   -5.6931 C   0  0  0  0  0  0  0  0  0  0  0  0
  -27.6477   -6.7763   -4.6718 Cl  0  0  0  0  0  0  0  0  0  0  0  0
  -28.8257   -8.3148   -6.5541 C   0  0  0  0  0  0  0  0  0  0  0  0
  -30.2425   -5.2226   -4.9633 N   0  0  0  0  0  0  0  0  0  0  0  0
  -29.7771   -3.9967   -5.4178 C   0  0  0  0  0  0  0  0  0  0  0  0
  -29.2901   -3.8020   -6.5269 O   0  0  0  0  0  0  0  0  0  0  0  0
  -29.8505   -2.9994   -4.4571 N   0  0  0  0  0  0  0  0  0  0  0  0
  -30.5069   -5.3063   -3.9901 H   0  0  0  0  0  0  0  0  0  0  0  0
  -29.7144   -3.3136   -3.5078 H   0  0  0  0  0  0  0  0  0  0  0  0
  -29.3776   -1.6956   -4.7587 C   0  0  0  0  0  0  0  0  0  0  0  0
  -28.0163   -1.4203   -4.5964 C   0  0  0  0  0  0  0  0  0  0  0  0
  -27.4999   -0.1777   -4.9802 C   0  0  0  0  0  0  0  0  0  0  0  0
  -28.3501    0.8090   -5.4776 C   0  0  0  0  0  0  0  0  0  0  0  0
  -29.7088    0.5432   -5.5985 C   0  0  0  0  0  0  0  0  0  0  0  0
  -30.5253    1.4968   -6.0666 F   0  0  0  0  0  0  0  0  0  0  0  0
  -30.2283   -0.6992   -5.2511 C   0  0  0  0  0  0  0  0  0  0  0  0
  -29.6618   -9.6560   -8.3686 O   0  0  0  0  0  0  0  0  0  0  0  0
  -27.4518  -10.5712   -8.6615 C   0  0  0  0  0  0  0  0  0  0  0  0
  -26.5434  -11.5428   -8.2494 C   0  0  0  0  0  0  0  0  0  0  0  0
  -25.2156  -11.5626   -8.6746 N   0  0  0  0  0  0  0  0  0  0  0  0
  -26.8339  -12.4648   -7.3168 N   0  0  0  0  0  0  0  0  0  0  0  0
  -28.0675  -12.4314   -6.8079 C   0  0  0  0  0  0  0  0  0  0  0  0
  -29.0240  -11.5652   -7.1470 N   0  0  0  0  0  0  0  0  0  0  0  0
  -28.6891  -10.6126   -8.0503 C   0  0  0  0  0  0  0  0  0  0  0  0
  -25.1386  -11.3772   -9.6752 H   0  0  0  0  0  0  0  0  0  0  0  0
  -24.7691  -12.4195   -8.3664 H   0  0  0  0  0  0  0  0  0  0  0  0
  -26.6557  -10.0014  -10.8542 N   0  0  0  0  0  0  0  0  0  0  0  0
  -27.1121   -9.5957   -9.7090 C   0  0  0  0  0  0  0  0  0  0  0  0
  -27.0990   -9.1355  -12.9173 C   0  0  0  0  0  0  0  0  0  0  0  0
  -26.3988   -8.9133  -11.6940 O   0  0  0  0  0  0  0  0  0  0  0  0
 33 34  1  0  0  0
 34 31  1  0  0  0
 31 32  2  0  0  0
 32 22  1  0  0  0
 22 23  1  0  0  0
 22 28  2  0  0  0
 23 24  1  0  0  0
 23 25  2  0  0  0
 24 29  1  0  0  0
 24 30  1  0  0  0
 25 26  1  0  0  0
 26 27  2  0  0  0
 27 28  1  0  0  0
 28 21  1  0  0  0
 21  1  1  0  0  0
  1  2  1  0  0  0
  1  7  2  0  0  0
  2  3  2  0  0  0
  3  4  1  0  0  0
  4  8  1  0  0  0
  4  5  2  0  0  0
  8  9  1  0  0  0
  8 12  1  0  0  0
  9 10  2  0  0  0
  9 11  1  0  0  0
 11 14  1  0  0  0
 11 13  1  0  0  0
 14 15  1  0  0  0
 14 20  2  0  0  0
 15 16  2  0  0  0
 16 17  1  0  0  0
 17 18  2  0  0  0
 18 19  1  0  0  0
 18 20  1  0  0  0
  5  6  1  0  0  0
  5  7  1  0  0  0
M  END
> <minimizedAffinity>
-8.32117

$$$$
