CHEMBL4159393


 31 35  0  0  0  0  0  0  0  0999 V2000
  -21.7879    0.8082  -14.2014 C   0  0  0  0  0  0  0  0  0  0  0  0
  -21.1037    0.1207  -15.0864 N   0  0  0  0  0  0  0  0  0  0  0  0
  -19.9088    0.7831  -15.1026 C   0  0  0  0  0  0  0  0  0  0  0  0
  -18.6657    0.2988  -15.5011 C   0  0  0  0  0  0  0  0  0  0  0  0
  -17.5432    1.0321  -15.0939 C   0  0  0  0  0  0  0  0  0  0  0  0
  -17.6710    2.3120  -14.5368 C   0  0  0  0  0  0  0  0  0  0  0  0
  -18.9283    2.8798  -14.2813 C   0  0  0  0  0  0  0  0  0  0  0  0
  -20.0199    2.0454  -14.5189 C   0  0  0  0  0  0  0  0  0  0  0  0
  -21.3684    2.1181  -14.2555 N   0  0  0  0  0  0  0  0  0  0  0  0
  -22.1727    3.3020  -14.1959 C   0  0  0  0  0  0  0  0  0  0  0  0
  -22.2569    0.2461  -13.0663 N   0  0  0  0  0  0  0  0  0  0  0  0
  -21.5336   -0.2043  -12.5119 H   0  0  0  0  0  0  0  0  0  0  0  0
  -26.1054   -1.3299  -12.5920 C   0  0  0  0  0  0  0  0  0  0  0  0
  -25.5356   -0.5597  -11.5773 C   0  0  0  0  0  0  0  0  0  0  0  0
  -24.2425   -0.0654  -11.7150 C   0  0  0  0  0  0  0  0  0  0  0  0
  -23.5074   -0.3396  -12.8689 C   0  0  0  0  0  0  0  0  0  0  0  0
  -24.1081   -1.0442  -13.9152 C   0  0  0  0  0  0  0  0  0  0  0  0
  -25.3969   -1.5545  -13.7716 C   0  0  0  0  0  0  0  0  0  0  0  0
  -27.9383   -2.2147  -13.8023 C   0  0  0  0  0  0  0  0  0  0  0  0
  -27.3500   -1.8970  -12.5447 O   0  0  0  0  0  0  0  0  0  0  0  0
  -16.2619    0.5392  -15.2224 O   0  0  0  0  0  0  0  0  0  0  0  0
  -15.2361    1.4595  -15.4170 C   0  0  0  0  0  0  0  0  0  0  0  0
  -15.1409    2.1736  -16.5677 N   0  0  0  0  0  0  0  0  0  0  0  0
  -14.1610    3.0927  -16.6637 C   0  0  0  0  0  0  0  0  0  0  0  0
  -13.2084    3.3830  -15.7574 N   0  0  0  0  0  0  0  0  0  0  0  0
  -13.3245    2.6119  -14.6612 C   0  0  0  0  0  0  0  0  0  0  0  0
  -14.2846    1.6482  -14.4271 C   0  0  0  0  0  0  0  0  0  0  0  0
  -13.9854    1.1407  -13.1500 C   0  0  0  0  0  0  0  0  0  0  0  0
  -12.9133    1.7252  -12.6020 N   0  0  0  0  0  0  0  0  0  0  0  0
  -12.5338    2.6206  -13.5442 N   0  0  0  0  0  0  0  0  0  0  0  0
  -11.3975    3.4771  -13.3202 C   0  0  0  0  0  0  0  0  0  0  0  0
 19 20  1  0  0  0
 20 13  1  0  0  0
 13 14  1  0  0  0
 13 18  2  0  0  0
 14 15  2  0  0  0
 15 16  1  0  0  0
 16 11  1  0  0  0
 16 17  2  0  0  0
 11  1  1  0  0  0
 11 12  1  0  0  0
  1  2  2  0  0  0
  1  9  1  0  0  0
  2  3  1  0  0  0
  3  4  1  0  0  0
  3  8  2  0  0  0
  4  5  2  0  0  0
  5 21  1  0  0  0
  5  6  1  0  0  0
 21 22  1  0  0  0
 22 23  1  0  0  0
 22 27  2  0  0  0
 23 24  2  0  0  0
 24 25  1  0  0  0
 25 26  2  0  0  0
 26 27  1  0  0  0
 26 30  1  0  0  0
 27 28  1  0  0  0
 28 29  2  0  0  0
 29 30  1  0  0  0
 30 31  1  0  0  0
  6  7  2  0  0  0
  7  8  1  0  0  0
  8  9  1  0  0  0
  9 10  1  0  0  0
 17 18  1  0  0  0
M  END
> <minimizedAffinity>
-8.96609

$$$$
