CHEMBL3221541


 37 40  0  0  0  0  0  0  0  0999 V2000
  -29.4878  -10.0170   -6.1101 C   0  0  0  0  0  0  0  0  0  0  0  0
  -29.4695  -10.7981   -7.2065 N   0  0  0  0  0  0  0  0  0  0  0  0
  -29.5804  -10.3338   -8.4638 C   0  0  0  0  0  0  0  0  0  0  0  0
  -29.7635   -8.9970   -8.6685 N   0  0  0  0  0  0  0  0  0  0  0  0
  -29.8055   -8.1492   -7.6172 C   0  0  0  0  0  0  0  0  0  0  0  0
  -29.9656   -6.7853   -7.8491 C   0  0  0  0  0  0  0  0  0  0  0  0
  -29.9798   -5.8172   -6.7995 C   0  0  0  0  0  0  0  0  0  0  0  0
  -29.8116   -6.3158   -5.4383 C   0  0  0  0  0  0  0  0  0  0  0  0
  -29.6536   -7.6934   -5.2553 C   0  0  0  0  0  0  0  0  0  0  0  0
  -29.6595   -8.6136   -6.2974 C   0  0  0  0  0  0  0  0  0  0  0  0
  -29.3398  -10.5859   -4.8033 N   0  0  0  0  0  0  0  0  0  0  0  0
  -30.1560  -10.6948   -4.1964 H   0  0  0  0  0  0  0  0  0  0  0  0
  -25.6430  -11.2952   -2.7730 C   0  0  0  0  0  0  0  0  0  0  0  0
  -26.6388  -12.2801   -2.8084 C   0  0  0  0  0  0  0  0  0  0  0  0
  -27.8417  -12.0587   -3.5045 C   0  0  0  0  0  0  0  0  0  0  0  0
  -28.0629  -10.8470   -4.1802 C   0  0  0  0  0  0  0  0  0  0  0  0
  -27.0379   -9.8923   -4.1640 C   0  0  0  0  0  0  0  0  0  0  0  0
  -25.8288  -10.0994   -3.4928 C   0  0  0  0  0  0  0  0  0  0  0  0
  -24.7746   -9.0216   -3.5938 C   0  0  0  0  0  0  0  0  0  0  0  0
  -23.3366  -12.0699   -2.6086 C   0  0  0  0  0  0  0  0  0  0  0  0
  -22.3319  -12.2274   -1.9019 O   0  0  0  0  0  0  0  0  0  0  0  0
  -24.4461  -11.5379   -2.0203 N   0  0  0  0  0  0  0  0  0  0  0  0
  -24.4278  -11.2670   -1.0324 H   0  0  0  0  0  0  0  0  0  0  0  0
  -23.3116  -12.4287   -3.9095 O   0  0  0  0  0  0  0  0  0  0  0  0
  -21.2635  -12.4426   -5.1778 C   0  0  0  0  0  0  0  0  0  0  0  0
  -22.5891  -11.7451   -4.8813 C   0  0  0  0  0  0  0  0  0  0  0  0
  -29.7892   -5.6578   -4.2353 O   0  0  0  0  0  0  0  0  0  0  0  0
  -29.0536   -4.7509   -3.4972 C   0  0  0  0  0  0  0  0  0  0  0  0
  -30.2091   -4.4867   -7.1150 O   0  0  0  0  0  0  0  0  0  0  0  0
  -29.1260   -3.6253   -7.0716 C   0  0  0  0  0  0  0  0  0  0  0  0
  -29.1855   -2.4037   -6.1878 C   0  0  0  0  0  0  0  0  0  0  0  0
  -27.9010   -1.6498   -6.3805 N   0  0  0  0  0  0  0  0  0  0  0  0
  -27.2909   -1.2204   -5.1171 C   0  0  0  0  0  0  0  0  0  0  0  0
  -28.1093   -0.0721   -4.5133 C   0  0  0  0  0  0  0  0  0  0  0  0
  -28.1435    1.0424   -5.3932 O   0  0  0  0  0  0  0  0  0  0  0  0
  -28.7390    0.6828   -6.6267 C   0  0  0  0  0  0  0  0  0  0  0  0
  -27.9660   -0.4682   -7.2800 C   0  0  0  0  0  0  0  0  0  0  0  0
 25 26  1  0  0  0
 26 24  1  0  0  0
 24 20  1  0  0  0
 20 21  2  0  0  0
 20 22  1  0  0  0
 22 13  1  0  0  0
 22 23  1  0  0  0
 13 14  1  0  0  0
 13 18  2  0  0  0
 14 15  2  0  0  0
 15 16  1  0  0  0
 16 11  1  0  0  0
 16 17  2  0  0  0
 11  1  1  0  0  0
 11 12  1  0  0  0
  1  2  1  0  0  0
  1 10  2  0  0  0
  2  3  2  0  0  0
  3  4  1  0  0  0
  4  5  2  0  0  0
  5  6  1  0  0  0
  5 10  1  0  0  0
  6  7  2  0  0  0
  7 29  1  0  0  0
  7  8  1  0  0  0
 29 30  1  0  0  0
 30 31  1  0  0  0
 31 32  1  0  0  0
 32 33  1  0  0  0
 32 37  1  0  0  0
 33 34  1  0  0  0
 34 35  1  0  0  0
 35 36  1  0  0  0
 36 37  1  0  0  0
  8 27  1  0  0  0
  8  9  2  0  0  0
 27 28  1  0  0  0
  9 10  1  0  0  0
 17 18  1  0  0  0
 18 19  1  0  0  0
M  END
> <minimizedAffinity>
-7.05446

$$$$
