CHEMBL3753886


 29 31  0  0  0  0  0  0  0  0999 V2000
  -29.2168   -6.6326   -5.5201 C   0  0  0  0  0  0  0  0  0  0  0  0
  -28.7129   -7.2438   -6.6838 C   0  0  0  0  0  0  0  0  0  0  0  0
  -29.5274   -7.9951   -7.5501 C   0  0  0  0  0  0  0  0  0  0  0  0
  -30.8903   -8.0739   -7.2312 C   0  0  0  0  0  0  0  0  0  0  0  0
  -31.4049   -7.4464   -6.0879 C   0  0  0  0  0  0  0  0  0  0  0  0
  -30.5777   -6.7235   -5.2241 C   0  0  0  0  0  0  0  0  0  0  0  0
  -26.8819   -4.4842   -3.8972 O   0  0  0  0  0  0  0  0  0  0  0  0
  -27.7846   -4.7682   -4.6698 C   0  0  0  0  0  0  0  0  0  0  0  0
  -28.4434   -3.8893   -5.5124 N   0  0  0  0  0  0  0  0  0  0  0  0
  -28.3055   -6.0443   -4.6313 N   0  0  0  0  0  0  0  0  0  0  0  0
  -29.3049   -4.2369   -5.9056 H   0  0  0  0  0  0  0  0  0  0  0  0
  -28.0896   -6.5186   -3.7628 H   0  0  0  0  0  0  0  0  0  0  0  0
  -28.2387   -2.4991   -5.6125 C   0  0  0  0  0  0  0  0  0  0  0  0
  -28.3643   -1.6160   -4.5479 C   0  0  0  0  0  0  0  0  0  0  0  0
  -28.1745   -0.2640   -4.7773 C   0  0  0  0  0  0  0  0  0  0  0  0
  -27.8715    0.2598   -5.9870 N   0  0  0  0  0  0  0  0  0  0  0  0
  -27.7498   -0.6096   -7.0036 C   0  0  0  0  0  0  0  0  0  0  0  0
  -27.9157   -1.9825   -6.8718 C   0  0  0  0  0  0  0  0  0  0  0  0
  -28.9500   -8.7020   -8.7181 C   0  0  0  0  0  0  0  0  0  0  0  0
  -29.7085   -9.5855   -9.5004 C   0  0  0  0  0  0  0  0  0  0  0  0
  -29.1369  -10.2674  -10.5743 C   0  0  0  0  0  0  0  0  0  0  0  0
  -27.8040  -10.0342  -10.8589 C   0  0  0  0  0  0  0  0  0  0  0  0
  -27.0329   -9.1827  -10.1580 N   0  0  0  0  0  0  0  0  0  0  0  0
  -27.6192   -8.5433   -9.1134 C   0  0  0  0  0  0  0  0  0  0  0  0
  -31.2243   -6.2030   -4.1428 O   0  0  0  0  0  0  0  0  0  0  0  0
  -31.4690   -4.8039   -4.0744 C   0  0  0  0  0  0  0  0  0  0  0  0
  -32.6924   -4.4804   -3.6099 F   0  0  0  0  0  0  0  0  0  0  0  0
  -30.5602   -4.2487   -3.2423 F   0  0  0  0  0  0  0  0  0  0  0  0
  -31.2992   -4.2731   -5.3040 F   0  0  0  0  0  0  0  0  0  0  0  0
  7  8  2  0  0  0
  8  9  1  0  0  0
  8 10  1  0  0  0
  9 13  1  0  0  0
  9 11  1  0  0  0
 13 14  1  0  0  0
 13 18  2  0  0  0
 14 15  2  0  0  0
 15 16  1  0  0  0
 16 17  2  0  0  0
 17 18  1  0  0  0
 10  1  1  0  0  0
 10 12  1  0  0  0
  1  2  1  0  0  0
  1  6  2  0  0  0
  2  3  2  0  0  0
  3 19  1  0  0  0
  3  4  1  0  0  0
 19 20  1  0  0  0
 19 24  2  0  0  0
 20 21  2  0  0  0
 21 22  1  0  0  0
 22 23  2  0  0  0
 23 24  1  0  0  0
  4  5  2  0  0  0
  5  6  1  0  0  0
  6 25  1  0  0  0
 25 26  1  0  0  0
 26 27  1  0  0  0
 26 28  1  0  0  0
 26 29  1  0  0  0
M  END
> <minimizedAffinity>
-8.30253

$$$$
