CHEMBL3690528


 36 39  0  0  0  0  0  0  0  0999 V2000
  -18.2052    1.9258  -15.0533 C   0  0  0  0  0  0  0  0  0  0  0  0
  -17.1580    1.4371  -14.1340 C   0  0  0  0  0  0  0  0  0  0  0  0
  -15.8599    1.5052  -14.5126 C   0  0  0  0  0  0  0  0  0  0  0  0
  -15.5481    2.2198  -15.6849 N   0  0  0  0  0  0  0  0  0  0  0  0
  -14.3401    2.7347  -16.1974 C   0  0  0  0  0  0  0  0  0  0  0  0
  -14.6414    4.0613  -15.8435 C   0  0  0  0  0  0  0  0  0  0  0  0
  -15.9706    4.2982  -16.1617 N   0  0  0  0  0  0  0  0  0  0  0  0
  -16.5039    3.0864  -16.2076 C   0  0  0  0  0  0  0  0  0  0  0  0
  -17.8511    2.6632  -16.1309 C   0  0  0  0  0  0  0  0  0  0  0  0
  -19.5491   -0.7140  -15.4724 C   0  0  0  0  0  0  0  0  0  0  0  0
  -20.2665    0.5189  -15.0244 C   0  0  0  0  0  0  0  0  0  0  0  0
  -21.6180    0.5024  -14.7639 C   0  0  0  0  0  0  0  0  0  0  0  0
  -22.3076    1.5698  -14.3243 N   0  0  0  0  0  0  0  0  0  0  0  0
  -21.6122    2.6922  -14.1330 C   0  0  0  0  0  0  0  0  0  0  0  0
  -22.3054    3.7816  -13.6519 N   0  0  0  0  0  0  0  0  0  0  0  0
  -20.3127    2.8458  -14.3947 N   0  0  0  0  0  0  0  0  0  0  0  0
  -19.6520    1.7486  -14.8203 C   0  0  0  0  0  0  0  0  0  0  0  0
  -23.2861    3.6950  -13.8781 H   0  0  0  0  0  0  0  0  0  0  0  0
  -21.8347    4.6365  -13.9079 H   0  0  0  0  0  0  0  0  0  0  0  0
  -13.8538    2.4433  -17.5969 C   0  0  0  0  0  0  0  0  0  0  0  0
  -12.9104    3.2586  -18.2314 C   0  0  0  0  0  0  0  0  0  0  0  0
  -12.2327    2.7979  -19.3649 C   0  0  0  0  0  0  0  0  0  0  0  0
  -12.4938    1.5256  -19.8863 C   0  0  0  0  0  0  0  0  0  0  0  0
  -13.4612    0.7064  -19.3121 C   0  0  0  0  0  0  0  0  0  0  0  0
  -14.1531    1.1872  -18.1887 C   0  0  0  0  0  0  0  0  0  0  0  0
  -13.7572   -0.6019  -19.7859 N   0  0  0  0  0  0  0  0  0  0  0  0
  -13.5003   -1.7905  -19.1393 C   0  0  0  0  0  0  0  0  0  0  0  0
  -13.0140   -1.9341  -18.0220 O   0  0  0  0  0  0  0  0  0  0  0  0
  -13.8156   -2.8884  -19.9153 N   0  0  0  0  0  0  0  0  0  0  0  0
  -14.2057   -0.6595  -20.6871 H   0  0  0  0  0  0  0  0  0  0  0  0
  -14.5869   -2.7864  -20.5515 H   0  0  0  0  0  0  0  0  0  0  0  0
  -13.5506   -4.2316  -19.3667 C   0  0  0  0  0  0  0  0  0  0  0  0
  -14.4692   -5.3555  -19.8651 C   0  0  0  0  0  0  0  0  0  0  0  0
  -14.0180   -5.9088  -21.0141 F   0  0  0  0  0  0  0  0  0  0  0  0
  -14.5156   -6.3523  -18.9445 F   0  0  0  0  0  0  0  0  0  0  0  0
  -15.7363   -4.9384  -20.0647 F   0  0  0  0  0  0  0  0  0  0  0  0
 10 11  1  0  0  0
 11 12  1  0  0  0
 11 17  2  0  0  0
 12 13  2  0  0  0
 13 14  1  0  0  0
 14 15  1  0  0  0
 14 16  2  0  0  0
 15 18  1  0  0  0
 15 19  1  0  0  0
 16 17  1  0  0  0
 17  1  1  0  0  0
  1  2  1  0  0  0
  1  9  2  0  0  0
  2  3  2  0  0  0
  3  4  1  0  0  0
  4  5  1  0  0  0
  4  8  1  0  0  0
  5 20  1  0  0  0
  5  6  2  0  0  0
 20 21  1  0  0  0
 20 25  2  0  0  0
 21 22  2  0  0  0
 22 23  1  0  0  0
 23 24  2  0  0  0
 24 26  1  0  0  0
 24 25  1  0  0  0
 26 27  1  0  0  0
 26 30  1  0  0  0
 27 28  2  0  0  0
 27 29  1  0  0  0
 29 32  1  0  0  0
 29 31  1  0  0  0
 32 33  1  0  0  0
 33 34  1  0  0  0
 33 35  1  0  0  0
 33 36  1  0  0  0
  6  7  1  0  0  0
  7  8  2  0  0  0
  8  9  1  0  0  0
M  END
> <minimizedAffinity>
-7.59904

$$$$
