CHEMBL2006933


 18 20  0  0  0  0  0  0  0  0999 V2000
  -30.1821   -6.6974   -6.4970 C   0  0  0  0  0  0  0  0  0  0  0  0
  -29.4517   -6.0320   -7.4630 C   0  0  0  0  0  0  0  0  0  0  0  0
  -29.0349   -4.7473   -7.3619 N   0  0  0  0  0  0  0  0  0  0  0  0
  -29.3230   -4.0427   -6.2451 C   0  0  0  0  0  0  0  0  0  0  0  0
  -30.0486   -4.6259   -5.1782 C   0  0  0  0  0  0  0  0  0  0  0  0
  -30.3203   -3.8445   -4.0296 C   0  0  0  0  0  0  0  0  0  0  0  0
  -29.8859   -2.5260   -3.9291 C   0  0  0  0  0  0  0  0  0  0  0  0
  -29.1749   -1.9469   -4.9785 C   0  0  0  0  0  0  0  0  0  0  0  0
  -28.7274   -0.6248   -4.9224 C   0  0  0  0  0  0  0  0  0  0  0  0
  -28.0387   -0.0048   -5.9052 N   0  0  0  0  0  0  0  0  0  0  0  0
  -27.7766   -0.7385   -7.0036 C   0  0  0  0  0  0  0  0  0  0  0  0
  -28.1723   -2.0576   -7.1609 C   0  0  0  0  0  0  0  0  0  0  0  0
  -28.8910   -2.7006   -6.1370 C   0  0  0  0  0  0  0  0  0  0  0  0
  -30.4673   -5.9748   -5.3347 C   0  0  0  0  0  0  0  0  0  0  0  0
  -31.1631   -6.6347   -4.3470 O   0  0  0  0  0  0  0  0  0  0  0  0
  -31.1389   -6.1407   -3.5164 H   0  0  0  0  0  0  0  0  0  0  0  0
  -32.3737   -8.2313   -7.1865 C   0  0  0  0  0  0  0  0  0  0  0  0
  -30.6188   -8.4074   -6.7643 S   0  0  0  0  0  0  0  0  0  0  0  0
 17 18  1  0  0  0
 18  1  1  0  0  0
  1  2  1  0  0  0
  1 14  2  0  0  0
  2  3  2  0  0  0
  3  4  1  0  0  0
  4  5  1  0  0  0
  4 13  2  0  0  0
  5  6  2  0  0  0
  5 14  1  0  0  0
  6  7  1  0  0  0
  7  8  2  0  0  0
  8  9  1  0  0  0
  8 13  1  0  0  0
  9 10  2  0  0  0
 10 11  1  0  0  0
 11 12  2  0  0  0
 12 13  1  0  0  0
 14 15  1  0  0  0
 15 16  1  0  0  0
M  END
> <minimizedAffinity>
-7.06284

$$$$
