CHEMBL3915268


 36 40  0  0  0  0  0  0  0  0999 V2000
  -28.3830   -9.9320   -5.5566 N   0  0  0  0  0  0  0  0  0  0  0  0
  -28.4356   -8.5427   -5.1737 C   0  0  0  0  0  0  0  0  0  0  0  0
  -28.8881   -8.3195   -3.8734 C   0  0  0  0  0  0  0  0  0  0  0  0
  -29.5048   -7.1306   -3.5428 C   0  0  0  0  0  0  0  0  0  0  0  0
  -29.5483   -6.0739   -4.4115 C   0  0  0  0  0  0  0  0  0  0  0  0
  -30.3404   -5.0750   -4.0235 N   0  0  0  0  0  0  0  0  0  0  0  0
  -30.2783   -3.9400   -4.7302 C   0  0  0  0  0  0  0  0  0  0  0  0
  -29.3810   -3.7705   -5.7587 C   0  0  0  0  0  0  0  0  0  0  0  0
  -28.6527   -4.8411   -6.2506 N   0  0  0  0  0  0  0  0  0  0  0  0
  -28.7808   -6.0839   -5.6045 C   0  0  0  0  0  0  0  0  0  0  0  0
  -28.2724   -7.3897   -5.9924 C   0  0  0  0  0  0  0  0  0  0  0  0
  -29.1205   -2.3817   -6.1369 C   0  0  0  0  0  0  0  0  0  0  0  0
  -28.0012   -1.8411   -6.8227 C   0  0  0  0  0  0  0  0  0  0  0  0
  -27.9319   -0.5063   -6.7469 N   0  0  0  0  0  0  0  0  0  0  0  0
  -29.0025   -0.1785   -6.0048 N   0  0  0  0  0  0  0  0  0  0  0  0
  -29.4090    1.2027   -5.8774 C   0  0  0  0  0  0  0  0  0  0  0  0
  -29.6521   -1.2716   -5.4956 C   0  0  0  0  0  0  0  0  0  0  0  0
  -31.1417  -11.2044   -7.7736 C   0  0  0  0  0  0  0  0  0  0  0  0
  -30.4239  -11.5843   -8.9097 C   0  0  0  0  0  0  0  0  0  0  0  0
  -29.0349  -11.4895   -8.9124 C   0  0  0  0  0  0  0  0  0  0  0  0
  -28.3661  -11.0158   -7.7759 C   0  0  0  0  0  0  0  0  0  0  0  0
  -29.0446  -10.6173   -6.6120 C   0  0  0  0  0  0  0  0  0  0  0  0
  -30.4506  -10.7418   -6.6289 C   0  0  0  0  0  0  0  0  0  0  0  0
  -33.1029  -11.3154   -6.4016 C   0  0  0  0  0  0  0  0  0  0  0  0
  -32.5171  -11.1950   -7.7008 O   0  0  0  0  0  0  0  0  0  0  0  0
  -28.2113  -11.7895   -9.9672 O   0  0  0  0  0  0  0  0  0  0  0  0
  -27.4323  -10.7266  -10.5014 C   0  0  0  0  0  0  0  0  0  0  0  0
  -28.0642  -10.7759   -4.3305 C   0  0  0  0  0  0  0  0  0  0  0  0
  -26.6065  -11.2966   -4.2522 C   0  0  0  0  0  0  0  0  0  0  0  0
  -25.6335  -10.3942   -3.4039 C   0  0  0  0  0  0  0  0  0  0  0  0
  -25.0045   -9.2901   -4.2872 C   0  0  0  0  0  0  0  0  0  0  0  0
  -23.9194   -9.8395   -5.2184 C   0  0  0  0  0  0  0  0  0  0  0  0
  -22.8716  -10.5442   -4.4772 N   0  0  0  0  0  0  0  0  0  0  0  0
  -23.4285  -11.6354   -3.6749 C   0  0  0  0  0  0  0  0  0  0  0  0
  -24.5011  -11.1418   -2.7026 C   0  0  0  0  0  0  0  0  0  0  0  0
  -22.3985   -9.8832   -3.8606 H   0  0  0  0  0  0  0  0  0  0  0  0
 24 25  1  0  0  0
 25 18  1  0  0  0
 18 19  1  0  0  0
 18 23  2  0  0  0
 19 20  2  0  0  0
 20 26  1  0  0  0
 20 21  1  0  0  0
 26 27  1  0  0  0
 21 22  2  0  0  0
 22  1  1  0  0  0
 22 23  1  0  0  0
  1 28  1  0  0  0
  1  2  1  0  0  0
 28 29  1  0  0  0
 29 30  1  0  0  0
 30 31  1  0  0  0
 30 35  1  0  0  0
 31 32  1  0  0  0
 32 33  1  0  0  0
 33 34  1  0  0  0
 33 36  1  0  0  0
 34 35  1  0  0  0
  2  3  1  0  0  0
  2 11  2  0  0  0
  3  4  2  0  0  0
  4  5  1  0  0  0
  5  6  1  0  0  0
  5 10  2  0  0  0
  6  7  2  0  0  0
  7  8  1  0  0  0
  8 12  1  0  0  0
  8  9  2  0  0  0
 12 13  1  0  0  0
 12 17  2  0  0  0
 13 14  2  0  0  0
 14 15  1  0  0  0
 15 16  1  0  0  0
 15 17  1  0  0  0
  9 10  1  0  0  0
 10 11  1  0  0  0
M  END
> <minimizedAffinity>
-8.09579

$$$$
