CHEMBL2386800


 45 49  0  0  0  0  0  0  0  0999 V2000
  -22.5065    1.0027  -13.8735 C   0  0  0  0  0  0  0  0  0  0  0  0
  -21.3378    0.4886  -14.4991 C   0  0  0  0  0  0  0  0  0  0  0  0
  -20.5773    1.5702  -14.8763 C   0  0  0  0  0  0  0  0  0  0  0  0
  -21.3010    2.6575  -14.4634 N   0  0  0  0  0  0  0  0  0  0  0  0
  -22.4631    2.3474  -13.8635 N   0  0  0  0  0  0  0  0  0  0  0  0
  -21.0688    3.6376  -14.5553 H   0  0  0  0  0  0  0  0  0  0  0  0
  -25.7633   -1.2801  -12.2156 C   0  0  0  0  0  0  0  0  0  0  0  0
  -25.2606   -1.5705  -13.4883 C   0  0  0  0  0  0  0  0  0  0  0  0
  -24.2056   -0.8256  -14.0255 C   0  0  0  0  0  0  0  0  0  0  0  0
  -23.6187    0.2277  -13.3053 C   0  0  0  0  0  0  0  0  0  0  0  0
  -24.1214    0.5116  -12.0290 C   0  0  0  0  0  0  0  0  0  0  0  0
  -25.1765   -0.2363  -11.4868 C   0  0  0  0  0  0  0  0  0  0  0  0
  -26.9118   -2.0792  -11.6498 C   0  0  0  0  0  0  0  0  0  0  0  0
  -27.0760   -3.1893   -9.1144 O   0  0  0  0  0  0  0  0  0  0  0  0
  -27.5298   -2.0640   -9.2698 C   0  0  0  0  0  0  0  0  0  0  0  0
  -27.5166   -1.4383  -10.4992 N   0  0  0  0  0  0  0  0  0  0  0  0
  -28.1210   -1.2744   -8.3018 N   0  0  0  0  0  0  0  0  0  0  0  0
  -27.6212   -0.4382  -10.5326 H   0  0  0  0  0  0  0  0  0  0  0  0
  -28.5417   -0.4168   -8.6225 H   0  0  0  0  0  0  0  0  0  0  0  0
  -28.2801   -1.5841   -6.9323 C   0  0  0  0  0  0  0  0  0  0  0  0
  -27.5804   -0.9431   -5.9068 C   0  0  0  0  0  0  0  0  0  0  0  0
  -27.7700   -1.3081   -4.5700 C   0  0  0  0  0  0  0  0  0  0  0  0
  -28.6743   -2.3135   -4.2465 C   0  0  0  0  0  0  0  0  0  0  0  0
  -28.8975   -2.7678   -2.6028 Cl  0  0  0  0  0  0  0  0  0  0  0  0
  -29.3919   -2.9560   -5.2538 C   0  0  0  0  0  0  0  0  0  0  0  0
  -29.1951   -2.5915   -6.5908 C   0  0  0  0  0  0  0  0  0  0  0  0
  -19.3437    1.5839  -15.5287 N   0  0  0  0  0  0  0  0  0  0  0  0
  -18.3103    2.5330  -15.1889 C   0  0  0  0  0  0  0  0  0  0  0  0
  -18.4644    3.3308  -14.2803 O   0  0  0  0  0  0  0  0  0  0  0  0
  -19.1660    0.8860  -16.2338 H   0  0  0  0  0  0  0  0  0  0  0  0
  -17.0477    2.5286  -15.9547 C   0  0  0  0  0  0  0  0  0  0  0  0
  -16.4657    3.6836  -16.4834 C   0  0  0  0  0  0  0  0  0  0  0  0
  -15.1980    3.6062  -17.0767 C   0  0  0  0  0  0  0  0  0  0  0  0
  -14.5096    2.3892  -17.1227 C   0  0  0  0  0  0  0  0  0  0  0  0
  -15.1195    1.2314  -16.6502 C   0  0  0  0  0  0  0  0  0  0  0  0
  -16.3788    1.2998  -16.0601 C   0  0  0  0  0  0  0  0  0  0  0  0
  -13.2387    2.2146  -17.5928 O   0  0  0  0  0  0  0  0  0  0  0  0
  -12.3813    1.4256  -16.7609 C   0  0  0  0  0  0  0  0  0  0  0  0
  -11.7471    2.3388  -15.7002 C   0  0  0  0  0  0  0  0  0  0  0  0
  -11.1941    1.6103  -14.5429 N   0  0  0  0  0  0  0  0  0  0  0  0
  -12.0674    0.5199  -14.0542 C   0  0  0  0  0  0  0  0  0  0  0  0
  -13.3502    1.0184  -13.3720 C   0  0  0  0  0  0  0  0  0  0  0  0
  -13.0426    1.8808  -12.2712 O   0  0  0  0  0  0  0  0  0  0  0  0
  -12.2435    2.9927  -12.6956 C   0  0  0  0  0  0  0  0  0  0  0  0
  -10.9553    2.5298  -13.4028 C   0  0  0  0  0  0  0  0  0  0  0  0
 14 15  2  0  0  0
 15 16  1  0  0  0
 15 17  1  0  0  0
 16 13  1  0  0  0
 16 18  1  0  0  0
 13  7  1  0  0  0
  7  8  1  0  0  0
  7 12  2  0  0  0
  8  9  2  0  0  0
  9 10  1  0  0  0
 10  1  1  0  0  0
 10 11  2  0  0  0
  1  2  1  0  0  0
  1  5  2  0  0  0
  2  3  2  0  0  0
  3 27  1  0  0  0
  3  4  1  0  0  0
 27 28  1  0  0  0
 27 30  1  0  0  0
 28 29  2  0  0  0
 28 31  1  0  0  0
 31 32  1  0  0  0
 31 36  2  0  0  0
 32 33  2  0  0  0
 33 34  1  0  0  0
 34 37  1  0  0  0
 34 35  2  0  0  0
 37 38  1  0  0  0
 38 39  1  0  0  0
 39 40  1  0  0  0
 40 41  1  0  0  0
 40 45  1  0  0  0
 41 42  1  0  0  0
 42 43  1  0  0  0
 43 44  1  0  0  0
 44 45  1  0  0  0
 35 36  1  0  0  0
  4  5  1  0  0  0
  4  6  1  0  0  0
 11 12  1  0  0  0
 17 20  1  0  0  0
 17 19  1  0  0  0
 20 21  1  0  0  0
 20 26  2  0  0  0
 21 22  2  0  0  0
 22 23  1  0  0  0
 23 24  1  0  0  0
 23 25  2  0  0  0
 25 26  1  0  0  0
M  END
> <minimizedAffinity>
-10.84883

$$$$
