CHEMBL3354186


 32 36  0  0  0  0  0  0  0  0999 V2000
  -27.2279   -1.9507  -10.7675 N   0  0  0  0  0  0  0  0  0  0  0  0
  -27.7516   -2.5817  -11.3580 H   0  0  0  0  0  0  0  0  0  0  0  0
  -26.0047   -1.6498  -11.3725 C   0  0  0  0  0  0  0  0  0  0  0  0
  -25.7079   -0.3651  -11.8167 C   0  0  0  0  0  0  0  0  0  0  0  0
  -24.4769   -0.1858  -12.4345 C   0  0  0  0  0  0  0  0  0  0  0  0
  -23.8890    0.9539  -12.9215 N   0  0  0  0  0  0  0  0  0  0  0  0
  -22.6762    0.6556  -13.4800 C   0  0  0  0  0  0  0  0  0  0  0  0
  -22.4774   -0.7040  -13.3450 C   0  0  0  0  0  0  0  0  0  0  0  0
  -23.6023   -1.2432  -12.6550 C   0  0  0  0  0  0  0  0  0  0  0  0
  -23.9797   -2.5121  -12.2045 C   0  0  0  0  0  0  0  0  0  0  0  0
  -25.1681   -2.6965  -11.5654 N   0  0  0  0  0  0  0  0  0  0  0  0
  -24.2976    1.8766  -12.8725 H   0  0  0  0  0  0  0  0  0  0  0  0
  -21.7688    1.6409  -14.1003 C   0  0  0  0  0  0  0  0  0  0  0  0
  -21.8824    3.0415  -14.1470 C   0  0  0  0  0  0  0  0  0  0  0  0
  -20.8680    3.6096  -14.8113 N   0  0  0  0  0  0  0  0  0  0  0  0
  -20.1126    2.5635  -15.1871 N   0  0  0  0  0  0  0  0  0  0  0  0
  -20.6073    1.3580  -14.7782 C   0  0  0  0  0  0  0  0  0  0  0  0
  -19.2718    2.7473  -15.7251 H   0  0  0  0  0  0  0  0  0  0  0  0
  -28.0588   -3.1487   -7.4644 C   0  0  0  0  0  0  0  0  0  0  0  0
  -28.0565   -2.0230   -6.7358 N   0  0  0  0  0  0  0  0  0  0  0  0
  -27.7841   -0.8700   -7.3660 C   0  0  0  0  0  0  0  0  0  0  0  0
  -27.5384   -0.7854   -8.7103 C   0  0  0  0  0  0  0  0  0  0  0  0
  -27.5668   -1.9729   -9.4055 C   0  0  0  0  0  0  0  0  0  0  0  0
  -27.8183   -3.1399   -8.7818 N   0  0  0  0  0  0  0  0  0  0  0  0
  -30.4073   -5.9687   -5.8081 C   0  0  0  0  0  0  0  0  0  0  0  0
  -30.0982   -5.9143   -7.3102 C   0  0  0  0  0  0  0  0  0  0  0  0
  -28.6346   -5.5504   -7.5669 C   0  0  0  0  0  0  0  0  0  0  0  0
  -28.2588   -4.3518   -6.8257 N   0  0  0  0  0  0  0  0  0  0  0  0
  -28.5213   -4.3591   -5.3941 C   0  0  0  0  0  0  0  0  0  0  0  0
  -30.0047   -4.6395   -5.1592 C   0  0  0  0  0  0  0  0  0  0  0  0
  -29.7131   -7.1469   -3.8369 C   0  0  0  0  0  0  0  0  0  0  0  0
  -29.6993   -7.0892   -5.2570 O   0  0  0  0  0  0  0  0  0  0  0  0
 31 32  1  0  0  0
 32 25  1  0  0  0
 25 26  1  0  0  0
 25 30  1  0  0  0
 26 27  1  0  0  0
 27 28  1  0  0  0
 28 19  1  0  0  0
 28 29  1  0  0  0
 19 20  1  0  0  0
 19 24  2  0  0  0
 20 21  2  0  0  0
 21 22  1  0  0  0
 22 23  2  0  0  0
 23  1  1  0  0  0
 23 24  1  0  0  0
  1  3  1  0  0  0
  1  2  1  0  0  0
  3  4  1  0  0  0
  3 11  2  0  0  0
  4  5  2  0  0  0
  5  6  1  0  0  0
  5  9  1  0  0  0
  6  7  1  0  0  0
  6 12  1  0  0  0
  7 13  1  0  0  0
  7  8  2  0  0  0
 13 14  1  0  0  0
 13 17  2  0  0  0
 14 15  2  0  0  0
 15 16  1  0  0  0
 16 17  1  0  0  0
 16 18  1  0  0  0
  8  9  1  0  0  0
  9 10  2  0  0  0
 10 11  1  0  0  0
 29 30  1  0  0  0
M  END
> <minimizedAffinity>
-9.00238

$$$$
