CHEMBL3236670


 35 39  0  0  0  0  0  0  0  0999 V2000
  -29.7712   -5.0198   -5.0280 C   0  0  0  0  0  0  0  0  0  0  0  0
  -30.6463   -4.1891   -4.2690 O   0  0  0  0  0  0  0  0  0  0  0  0
  -30.5835   -6.0817   -5.8847 C   0  0  0  0  0  0  0  0  0  0  0  0
  -31.7585   -6.3516   -5.6657 O   0  0  0  0  0  0  0  0  0  0  0  0
  -29.8450   -6.6882   -6.9758 C   0  0  0  0  0  0  0  0  0  0  0  0
  -28.8140   -5.9828   -7.5876 C   0  0  0  0  0  0  0  0  0  0  0  0
  -28.1633   -6.7896   -8.4652 O   0  0  0  0  0  0  0  0  0  0  0  0
  -28.8817   -7.9469   -8.5283 C   0  0  0  0  0  0  0  0  0  0  0  0
  -28.5951   -8.9997   -9.3840 C   0  0  0  0  0  0  0  0  0  0  0  0
  -29.6287   -9.9173   -9.5179 C   0  0  0  0  0  0  0  0  0  0  0  0
  -29.6491  -10.7244  -10.6216 O   0  0  0  0  0  0  0  0  0  0  0  0
  -30.7282   -9.9411   -8.6639 C   0  0  0  0  0  0  0  0  0  0  0  0
  -31.6878  -10.9025   -8.8133 O   0  0  0  0  0  0  0  0  0  0  0  0
  -30.8916   -8.9651   -7.6856 C   0  0  0  0  0  0  0  0  0  0  0  0
  -29.9821   -7.8998   -7.6758 C   0  0  0  0  0  0  0  0  0  0  0  0
  -28.5429   -4.6393   -7.2249 C   0  0  0  0  0  0  0  0  0  0  0  0
  -28.0588   -3.6152   -7.9807 O   0  0  0  0  0  0  0  0  0  0  0  0
  -28.1228   -2.4971   -7.1928 C   0  0  0  0  0  0  0  0  0  0  0  0
  -27.9001   -1.1820   -7.6000 C   0  0  0  0  0  0  0  0  0  0  0  0
  -28.0194   -0.2225   -6.5968 C   0  0  0  0  0  0  0  0  0  0  0  0
  -28.0818    1.1016   -6.9279 O   0  0  0  0  0  0  0  0  0  0  0  0
  -28.1908   -0.5712   -5.2544 C   0  0  0  0  0  0  0  0  0  0  0  0
  -28.1143    0.3900   -4.2871 O   0  0  0  0  0  0  0  0  0  0  0  0
  -28.4646   -1.8764   -4.8789 C   0  0  0  0  0  0  0  0  0  0  0  0
  -28.5109   -2.8397   -5.8976 C   0  0  0  0  0  0  0  0  0  0  0  0
  -28.9684   -4.1702   -5.9934 C   0  0  0  0  0  0  0  0  0  0  0  0
  -31.3706   -4.7789   -3.9663 H   0  0  0  0  0  0  0  0  0  0  0  0
  -29.5035  -10.1112  -11.3707 H   0  0  0  0  0  0  0  0  0  0  0  0
  -31.3460  -11.5008   -9.5076 H   0  0  0  0  0  0  0  0  0  0  0  0
  -28.8674    1.4387   -6.4490 H   0  0  0  0  0  0  0  0  0  0  0  0
  -27.5395    1.0895   -4.6532 H   0  0  0  0  0  0  0  0  0  0  0  0
  -28.7877   -5.7330   -4.0942 C   0  0  0  0  0  0  0  0  0  0  0  0
  -28.6651   -8.2584   -3.7700 C   0  0  0  0  0  0  0  0  0  0  0  0
  -29.3608   -6.9661   -3.4427 C   0  0  0  0  0  0  0  0  0  0  0  0
  -30.3162   -6.9266   -2.6726 O   0  0  0  0  0  0  0  0  0  0  0  0
 33 34  1  0  0  0
 34 35  2  0  0  0
 34 32  1  0  0  0
 32  1  1  0  0  0
  1  2  1  0  0  0
  1  3  1  0  0  0
  1 26  1  0  0  0
  2 27  1  0  0  0
  3  4  2  0  0  0
  3  5  1  0  0  0
  5  6  2  0  0  0
  5 15  1  0  0  0
  6  7  1  0  0  0
  6 16  1  0  0  0
  7  8  1  0  0  0
  8  9  1  0  0  0
  8 15  2  0  0  0
  9 10  2  0  0  0
 10 11  1  0  0  0
 10 12  1  0  0  0
 11 28  1  0  0  0
 12 13  1  0  0  0
 12 14  2  0  0  0
 13 29  1  0  0  0
 14 15  1  0  0  0
 16 17  1  0  0  0
 16 26  2  0  0  0
 17 18  1  0  0  0
 18 19  1  0  0  0
 18 25  2  0  0  0
 19 20  2  0  0  0
 20 21  1  0  0  0
 20 22  1  0  0  0
 21 30  1  0  0  0
 22 23  1  0  0  0
 22 24  2  0  0  0
 23 31  1  0  0  0
 24 25  1  0  0  0
 25 26  1  0  0  0
M  END
> <minimizedAffinity>
-10.22126

$$$$
