CHEMBL411903


 38 41  0  0  0  0  0  0  0  0999 V2000
  -26.6790   -1.5567  -10.1891 C   0  0  0  0  0  0  0  0  0  0  0  0
  -27.2377   -1.2883  -11.4341 C   0  0  0  0  0  0  0  0  0  0  0  0
  -26.4166   -1.0111  -12.5244 C   0  0  0  0  0  0  0  0  0  0  0  0
  -25.0242   -0.9946  -12.4059 C   0  0  0  0  0  0  0  0  0  0  0  0
  -24.4607   -1.2972  -11.1606 C   0  0  0  0  0  0  0  0  0  0  0  0
  -25.2856   -1.5820  -10.0571 C   0  0  0  0  0  0  0  0  0  0  0  0
  -28.4284    0.9252   -6.4247 N   0  0  0  0  0  0  0  0  0  0  0  0
  -28.6737   -0.3980   -6.0218 C   0  0  0  0  0  0  0  0  0  0  0  0
  -29.4345   -0.5478   -4.9269 N   0  0  0  0  0  0  0  0  0  0  0  0
  -29.7106   -1.8125   -4.5883 C   0  0  0  0  0  0  0  0  0  0  0  0
  -29.3187   -2.9193   -5.2358 N   0  0  0  0  0  0  0  0  0  0  0  0
  -28.5698   -2.7332   -6.3404 C   0  0  0  0  0  0  0  0  0  0  0  0
  -28.2032   -1.4613   -6.7969 C   0  0  0  0  0  0  0  0  0  0  0  0
  -27.3600   -1.1893   -7.9108 N   0  0  0  0  0  0  0  0  0  0  0  0
  -27.5642   -1.8299   -9.0205 C   0  0  0  0  0  0  0  0  0  0  0  0
  -28.6832   -2.8443   -9.1887 C   0  0  0  0  0  0  0  0  0  0  0  0
  -28.3722   -4.0998   -8.3903 C   0  0  0  0  0  0  0  0  0  0  0  0
  -28.1764   -3.9192   -6.9550 N   0  0  0  0  0  0  0  0  0  0  0  0
  -28.6931    1.5484   -5.6730 H   0  0  0  0  0  0  0  0  0  0  0  0
  -27.4639    1.0064   -6.7364 H   0  0  0  0  0  0  0  0  0  0  0  0
  -28.5933   -4.6680   -6.4041 H   0  0  0  0  0  0  0  0  0  0  0  0
  -24.1692   -0.7042  -13.4966 N   0  0  0  0  0  0  0  0  0  0  0  0
  -23.0288    0.0758  -13.4271 C   0  0  0  0  0  0  0  0  0  0  0  0
  -22.5593    0.5547  -12.4008 O   0  0  0  0  0  0  0  0  0  0  0  0
  -22.4626    0.3007  -14.6748 N   0  0  0  0  0  0  0  0  0  0  0  0
  -24.3268   -1.2058  -14.3586 H   0  0  0  0  0  0  0  0  0  0  0  0
  -23.1386    0.4561  -15.4128 H   0  0  0  0  0  0  0  0  0  0  0  0
  -21.2998    1.1121  -14.7529 C   0  0  0  0  0  0  0  0  0  0  0  0
  -20.0253    0.5465  -14.8968 C   0  0  0  0  0  0  0  0  0  0  0  0
  -18.8726    1.3454  -14.8350 C   0  0  0  0  0  0  0  0  0  0  0  0
  -19.0179    2.7269  -14.6279 C   0  0  0  0  0  0  0  0  0  0  0  0
  -20.2888    3.2987  -14.5192 C   0  0  0  0  0  0  0  0  0  0  0  0
  -21.4198    2.4920  -14.6049 C   0  0  0  0  0  0  0  0  0  0  0  0
  -22.6342    3.0423  -14.4597 F   0  0  0  0  0  0  0  0  0  0  0  0
  -17.4979    0.7336  -14.9700 C   0  0  0  0  0  0  0  0  0  0  0  0
  -16.8448    1.0876  -16.1113 F   0  0  0  0  0  0  0  0  0  0  0  0
  -16.6745    1.0959  -13.9462 F   0  0  0  0  0  0  0  0  0  0  0  0
  -17.5262   -0.6276  -14.9597 F   0  0  0  0  0  0  0  0  0  0  0  0
  7  8  1  0  0  0
  7 19  1  0  0  0
  7 20  1  0  0  0
  8  9  1  0  0  0
  8 13  2  0  0  0
  9 10  2  0  0  0
 10 11  1  0  0  0
 11 12  2  0  0  0
 12 13  1  0  0  0
 12 18  1  0  0  0
 13 14  1  0  0  0
 14 15  2  0  0  0
 15  1  1  0  0  0
 15 16  1  0  0  0
  1  2  1  0  0  0
  1  6  2  0  0  0
  2  3  2  0  0  0
  3  4  1  0  0  0
  4 22  1  0  0  0
  4  5  2  0  0  0
 22 23  1  0  0  0
 22 26  1  0  0  0
 23 24  2  0  0  0
 23 25  1  0  0  0
 25 28  1  0  0  0
 25 27  1  0  0  0
 28 29  1  0  0  0
 28 33  2  0  0  0
 29 30  2  0  0  0
 30 35  1  0  0  0
 30 31  1  0  0  0
 35 36  1  0  0  0
 35 37  1  0  0  0
 35 38  1  0  0  0
 31 32  2  0  0  0
 32 33  1  0  0  0
 33 34  1  0  0  0
  5  6  1  0  0  0
 16 17  1  0  0  0
 17 18  1  0  0  0
 18 21  1  0  0  0
M  END
> <minimizedAffinity>
-9.81515

$$$$
