CHEMBL185614


 31 34  0  0  0  0  0  0  0  0999 V2000
  -25.8549   -1.7886  -12.0435 C   0  0  0  0  0  0  0  0  0  0  0  0
  -24.7114   -1.4709  -11.3328 C   0  0  0  0  0  0  0  0  0  0  0  0
  -23.5644   -1.0499  -12.0173 C   0  0  0  0  0  0  0  0  0  0  0  0
  -23.5412   -0.7826  -13.4061 C   0  0  0  0  0  0  0  0  0  0  0  0
  -24.7300   -1.1146  -14.1015 C   0  0  0  0  0  0  0  0  0  0  0  0
  -24.9684   -0.8597  -15.8015 Cl  0  0  0  0  0  0  0  0  0  0  0  0
  -25.8509   -1.6411  -13.4300 C   0  0  0  0  0  0  0  0  0  0  0  0
  -22.3312   -0.1297  -14.0090 C   0  0  0  0  0  0  0  0  0  0  0  0
  -21.2839   -0.8680  -14.6129 C   0  0  0  0  0  0  0  0  0  0  0  0
  -20.1984   -0.2644  -15.2899 C   0  0  0  0  0  0  0  0  0  0  0  0
  -20.0862    1.1164  -15.3563 C   0  0  0  0  0  0  0  0  0  0  0  0
  -21.0654    1.8451  -14.7211 C   0  0  0  0  0  0  0  0  0  0  0  0
  -22.1585    1.2648  -14.0526 C   0  0  0  0  0  0  0  0  0  0  0  0
  -22.9843    2.3762  -13.4734 C   0  0  0  0  0  0  0  0  0  0  0  0
  -22.3272    3.5692  -13.9362 N   0  0  0  0  0  0  0  0  0  0  0  0
  -21.1763    3.3057  -14.6284 C   0  0  0  0  0  0  0  0  0  0  0  0
  -20.3907    4.1172  -15.0747 O   0  0  0  0  0  0  0  0  0  0  0  0
  -22.5815    4.5140  -13.6777 H   0  0  0  0  0  0  0  0  0  0  0  0
  -28.2092   -2.6615   -9.4377 N   0  0  0  0  0  0  0  0  0  0  0  0
  -27.0460   -2.1355   -9.9701 C   0  0  0  0  0  0  0  0  0  0  0  0
  -26.1741   -1.5487   -9.3434 O   0  0  0  0  0  0  0  0  0  0  0  0
  -26.9824   -2.2919  -11.3503 N   0  0  0  0  0  0  0  0  0  0  0  0
  -28.7462   -3.2830  -10.0252 H   0  0  0  0  0  0  0  0  0  0  0  0
  -27.8744   -2.1904  -11.8113 H   0  0  0  0  0  0  0  0  0  0  0  0
  -28.1988   -0.0762   -5.1974 C   0  0  0  0  0  0  0  0  0  0  0  0
  -28.6109   -1.2829   -5.9953 C   0  0  0  0  0  0  0  0  0  0  0  0
  -29.3907   -2.2732   -5.3880 C   0  0  0  0  0  0  0  0  0  0  0  0
  -29.7783   -3.3927   -6.1086 C   0  0  0  0  0  0  0  0  0  0  0  0
  -29.3880   -3.5318   -7.4459 C   0  0  0  0  0  0  0  0  0  0  0  0
  -28.6184   -2.5528   -8.0785 C   0  0  0  0  0  0  0  0  0  0  0  0
  -28.2297   -1.4274   -7.3416 C   0  0  0  0  0  0  0  0  0  0  0  0
 25 26  1  0  0  0
 26 27  1  0  0  0
 26 31  2  0  0  0
 27 28  2  0  0  0
 28 29  1  0  0  0
 29 30  2  0  0  0
 30 19  1  0  0  0
 30 31  1  0  0  0
 19 20  1  0  0  0
 19 23  1  0  0  0
 20 21  2  0  0  0
 20 22  1  0  0  0
 22  1  1  0  0  0
 22 24  1  0  0  0
  1  2  1  0  0  0
  1  7  2  0  0  0
  2  3  2  0  0  0
  3  4  1  0  0  0
  4  8  1  0  0  0
  4  5  2  0  0  0
  8  9  1  0  0  0
  8 13  2  0  0  0
  9 10  2  0  0  0
 10 11  1  0  0  0
 11 12  2  0  0  0
 12 13  1  0  0  0
 12 16  1  0  0  0
 13 14  1  0  0  0
 14 15  1  0  0  0
 15 16  1  0  0  0
 15 18  1  0  0  0
 16 17  2  0  0  0
  5  6  1  0  0  0
  5  7  1  0  0  0
M  END
> <minimizedAffinity>
-10.94952

$$$$
