CHEMBL3690483


 34 37  0  0  0  0  0  0  0  0999 V2000
  -27.8352   -1.9213   -9.0195 C   0  0  0  0  0  0  0  0  0  0  0  0
  -28.4397   -3.2364   -8.8357 C   0  0  0  0  0  0  0  0  0  0  0  0
  -28.8153   -3.6291   -7.6067 C   0  0  0  0  0  0  0  0  0  0  0  0
  -28.6355   -2.7777   -6.5154 N   0  0  0  0  0  0  0  0  0  0  0  0
  -28.9559   -2.9258   -5.1697 C   0  0  0  0  0  0  0  0  0  0  0  0
  -28.4454   -1.7754   -4.5808 C   0  0  0  0  0  0  0  0  0  0  0  0
  -27.8782   -0.9285   -5.4897 N   0  0  0  0  0  0  0  0  0  0  0  0
  -28.0184   -1.5341   -6.6454 C   0  0  0  0  0  0  0  0  0  0  0  0
  -27.6258   -1.1219   -7.9505 C   0  0  0  0  0  0  0  0  0  0  0  0
  -29.6299   -4.0621   -4.5276 C   0  0  0  0  0  0  0  0  0  0  0  0
  -31.0195   -4.0072   -4.3501 C   0  0  0  0  0  0  0  0  0  0  0  0
  -31.7021   -5.0596   -3.7500 C   0  0  0  0  0  0  0  0  0  0  0  0
  -31.0070   -6.1881   -3.3247 C   0  0  0  0  0  0  0  0  0  0  0  0
  -29.6295   -6.2996   -3.5222 C   0  0  0  0  0  0  0  0  0  0  0  0
  -28.9502   -5.2279   -4.1263 C   0  0  0  0  0  0  0  0  0  0  0  0
  -28.8857   -7.4471   -3.1509 N   0  0  0  0  0  0  0  0  0  0  0  0
  -28.0951   -8.2024   -3.9827 C   0  0  0  0  0  0  0  0  0  0  0  0
  -27.8682   -7.9992   -5.1648 O   0  0  0  0  0  0  0  0  0  0  0  0
  -27.5623   -9.3069   -3.3571 N   0  0  0  0  0  0  0  0  0  0  0  0
  -28.9344   -7.7273   -2.1803 H   0  0  0  0  0  0  0  0  0  0  0  0
  -27.3676   -9.2263   -2.3675 H   0  0  0  0  0  0  0  0  0  0  0  0
  -26.6615  -10.1622   -4.1469 C   0  0  0  0  0  0  0  0  0  0  0  0
  -25.1628   -9.8395   -4.0445 C   0  0  0  0  0  0  0  0  0  0  0  0
  -24.4273  -10.9270   -3.7179 F   0  0  0  0  0  0  0  0  0  0  0  0
  -24.7053   -9.4065   -5.2470 F   0  0  0  0  0  0  0  0  0  0  0  0
  -24.9039   -8.8680   -3.1455 F   0  0  0  0  0  0  0  0  0  0  0  0
  -27.3895   -1.4789  -10.3970 C   0  0  0  0  0  0  0  0  0  0  0  0
  -25.8913   -1.4956  -10.7297 C   0  0  0  0  0  0  0  0  0  0  0  0
  -23.0727   -0.7857  -11.9968 C   0  0  0  0  0  0  0  0  0  0  0  0
  -24.2912   -1.0989  -12.7003 N   0  0  0  0  0  0  0  0  0  0  0  0
  -24.3895   -1.1804  -14.0628 C   0  0  0  0  0  0  0  0  0  0  0  0
  -25.6014   -1.5068  -14.4448 N   0  0  0  0  0  0  0  0  0  0  0  0
  -26.3112   -1.6486  -13.2860 C   0  0  0  0  0  0  0  0  0  0  0  0
  -25.5275   -1.3958  -12.1747 C   0  0  0  0  0  0  0  0  0  0  0  0
 29 30  1  0  0  0
 30 31  1  0  0  0
 30 34  1  0  0  0
 31 32  2  0  0  0
 32 33  1  0  0  0
 33 34  2  0  0  0
 34 28  1  0  0  0
 28 27  1  0  0  0
 27  1  1  0  0  0
  1  2  1  0  0  0
  1  9  2  0  0  0
  2  3  2  0  0  0
  3  4  1  0  0  0
  4  5  1  0  0  0
  4  8  1  0  0  0
  5 10  1  0  0  0
  5  6  2  0  0  0
 10 11  1  0  0  0
 10 15  2  0  0  0
 11 12  2  0  0  0
 12 13  1  0  0  0
 13 14  2  0  0  0
 14 16  1  0  0  0
 14 15  1  0  0  0
 16 17  1  0  0  0
 16 20  1  0  0  0
 17 18  2  0  0  0
 17 19  1  0  0  0
 19 22  1  0  0  0
 19 21  1  0  0  0
 22 23  1  0  0  0
 23 24  1  0  0  0
 23 25  1  0  0  0
 23 26  1  0  0  0
  6  7  1  0  0  0
  7  8  2  0  0  0
  8  9  1  0  0  0
M  END
> <minimizedAffinity>
-9.42656

$$$$
