CHEMBL3905501


 35 39  0  0  0  0  0  0  0  0999 V2000
  -13.9161   -0.0971  -14.0708 C   0  0  0  0  0  0  0  0  0  0  0  0
  -14.2420    0.9698  -14.9178 C   0  0  0  0  0  0  0  0  0  0  0  0
  -15.5494    1.5109  -14.9499 C   0  0  0  0  0  0  0  0  0  0  0  0
  -15.9923    2.5488  -15.7881 C   0  0  0  0  0  0  0  0  0  0  0  0
  -17.2354    3.0557  -15.7116 N   0  0  0  0  0  0  0  0  0  0  0  0
  -18.0556    2.5039  -14.8122 C   0  0  0  0  0  0  0  0  0  0  0  0
  -17.7513    1.5073  -13.9818 N   0  0  0  0  0  0  0  0  0  0  0  0
  -16.5029    1.0313  -14.0536 C   0  0  0  0  0  0  0  0  0  0  0  0
  -16.1600    0.0033  -13.1998 C   0  0  0  0  0  0  0  0  0  0  0  0
  -14.8976   -0.6152  -13.2224 C   0  0  0  0  0  0  0  0  0  0  0  0
  -11.6822    0.1598  -13.2997 C   0  0  0  0  0  0  0  0  0  0  0  0
  -12.6064   -0.4798  -14.1691 O   0  0  0  0  0  0  0  0  0  0  0  0
  -15.1149    3.0684  -16.7613 N   0  0  0  0  0  0  0  0  0  0  0  0
  -15.4494    2.8532  -17.6963 H   0  0  0  0  0  0  0  0  0  0  0  0
  -14.3717    4.2683  -16.6939 C   0  0  0  0  0  0  0  0  0  0  0  0
  -13.6193    4.5661  -15.5498 C   0  0  0  0  0  0  0  0  0  0  0  0
  -12.6995    5.6116  -15.5483 C   0  0  0  0  0  0  0  0  0  0  0  0
  -12.5254    6.3900  -16.6936 C   0  0  0  0  0  0  0  0  0  0  0  0
  -11.1456    7.6978  -16.6318 Br  0  0  0  0  0  0  0  0  0  0  0  0
  -13.3131    6.1626  -17.8321 C   0  0  0  0  0  0  0  0  0  0  0  0
  -13.1349    7.1631  -19.2411 Cl  0  0  0  0  0  0  0  0  0  0  0  0
  -14.2330    5.0978  -17.8271 C   0  0  0  0  0  0  0  0  0  0  0  0
  -15.2292    4.7565  -19.2164 Cl  0  0  0  0  0  0  0  0  0  0  0  0
  -14.6047   -1.6782  -12.3977 O   0  0  0  0  0  0  0  0  0  0  0  0
  -15.7194   -2.1328  -11.6189 C   0  0  0  0  0  0  0  0  0  0  0  0
  -15.9635   -3.6327  -11.7555 C   0  0  0  0  0  0  0  0  0  0  0  0
  -14.7003   -4.4349  -11.3902 C   0  0  0  0  0  0  0  0  0  0  0  0
  -14.9019   -5.8683  -11.6684 N   0  0  0  0  0  0  0  0  0  0  0  0
  -13.7179   -6.6608  -11.3027 C   0  0  0  0  0  0  0  0  0  0  0  0
  -13.7191   -8.0895  -11.8824 C   0  0  0  0  0  0  0  0  0  0  0  0
  -14.0719   -8.1343  -13.2713 O   0  0  0  0  0  0  0  0  0  0  0  0
  -15.3374   -7.4922  -13.4824 C   0  0  0  0  0  0  0  0  0  0  0  0
  -15.2197   -6.0125  -13.1129 C   0  0  0  0  0  0  0  0  0  0  0  0
  -16.5162   -5.2472  -13.4171 C   0  0  0  0  0  0  0  0  0  0  0  0
  -16.3597   -3.8512  -13.1291 O   0  0  0  0  0  0  0  0  0  0  0  0
 11 12  1  0  0  0
 12  1  1  0  0  0
  1  2  1  0  0  0
  1 10  2  0  0  0
  2  3  2  0  0  0
  3  4  1  0  0  0
  3  8  1  0  0  0
  4 13  1  0  0  0
  4  5  2  0  0  0
 13 15  1  0  0  0
 13 14  1  0  0  0
 15 16  1  0  0  0
 15 22  2  0  0  0
 16 17  2  0  0  0
 17 18  1  0  0  0
 18 19  1  0  0  0
 18 20  2  0  0  0
 20 21  1  0  0  0
 20 22  1  0  0  0
 22 23  1  0  0  0
  5  6  1  0  0  0
  6  7  2  0  0  0
  7  8  1  0  0  0
  8  9  2  0  0  0
  9 10  1  0  0  0
 10 24  1  0  0  0
 24 25  1  0  0  0
 26 27  1  0  0  0
 26 35  1  0  0  0
 26 25  1  0  0  0
 27 28  1  0  0  0
 28 29  1  0  0  0
 28 33  1  0  0  0
 29 30  1  0  0  0
 30 31  1  0  0  0
 31 32  1  0  0  0
 32 33  1  0  0  0
 33 34  1  0  0  0
 34 35  1  0  0  0
M  END
> <minimizedAffinity>
-7.68338

$$$$
