CHEMBL3966200


 37 40  0  0  0  0  0  0  0  0999 V2000
  -16.7652    2.0055  -15.1578 N   0  0  0  0  0  0  0  0  0  0  0  0
  -18.2020    1.8341  -15.3193 C   0  0  0  0  0  0  0  0  0  0  0  0
  -18.8752    3.0136  -15.6366 C   0  0  0  0  0  0  0  0  0  0  0  0
  -20.1697    3.2050  -15.2059 C   0  0  0  0  0  0  0  0  0  0  0  0
  -20.9032    2.1898  -14.6543 C   0  0  0  0  0  0  0  0  0  0  0  0
  -22.0467    2.6010  -14.1056 N   0  0  0  0  0  0  0  0  0  0  0  0
  -22.9316    1.6427  -13.7671 C   0  0  0  0  0  0  0  0  0  0  0  0
  -22.6898    0.3133  -14.0183 C   0  0  0  0  0  0  0  0  0  0  0  0
  -21.4422   -0.1188  -14.4382 N   0  0  0  0  0  0  0  0  0  0  0  0
  -20.4530    0.8488  -14.6960 C   0  0  0  0  0  0  0  0  0  0  0  0
  -19.0220    0.7149  -14.9651 C   0  0  0  0  0  0  0  0  0  0  0  0
  -23.8992   -0.5206  -14.0523 C   0  0  0  0  0  0  0  0  0  0  0  0
  -24.7267   -0.8525  -15.1590 C   0  0  0  0  0  0  0  0  0  0  0  0
  -25.9167   -1.3532  -14.8012 N   0  0  0  0  0  0  0  0  0  0  0  0
  -25.8773   -1.3301  -13.4595 N   0  0  0  0  0  0  0  0  0  0  0  0
  -26.9025   -1.9922  -12.6847 C   0  0  0  0  0  0  0  0  0  0  0  0
  -24.7589   -0.7037  -12.9731 C   0  0  0  0  0  0  0  0  0  0  0  0
  -14.0615    3.9754  -16.8616 C   0  0  0  0  0  0  0  0  0  0  0  0
  -13.5745    3.0415  -17.7744 C   0  0  0  0  0  0  0  0  0  0  0  0
  -14.1824    1.7945  -17.8871 C   0  0  0  0  0  0  0  0  0  0  0  0
  -15.2850    1.4805  -17.0774 C   0  0  0  0  0  0  0  0  0  0  0  0
  -15.8027    2.3824  -16.1333 C   0  0  0  0  0  0  0  0  0  0  0  0
  -15.1801    3.6481  -16.0602 C   0  0  0  0  0  0  0  0  0  0  0  0
  -12.8356    5.4226  -15.4019 C   0  0  0  0  0  0  0  0  0  0  0  0
  -13.4980    5.2123  -16.6536 O   0  0  0  0  0  0  0  0  0  0  0  0
  -13.7733    0.7873  -18.7222 O   0  0  0  0  0  0  0  0  0  0  0  0
  -13.5551   -0.4906  -18.1319 C   0  0  0  0  0  0  0  0  0  0  0  0
  -16.3218    0.9488  -14.1611 C   0  0  0  0  0  0  0  0  0  0  0  0
  -14.8380    0.8479  -13.7595 C   0  0  0  0  0  0  0  0  0  0  0  0
  -14.2736   -0.5323  -13.3763 C   0  0  0  0  0  0  0  0  0  0  0  0
  -15.2569   -1.1694  -12.4749 N   0  0  0  0  0  0  0  0  0  0  0  0
  -16.1962   -1.0210  -12.8521 H   0  0  0  0  0  0  0  0  0  0  0  0
  -15.0612   -2.6224  -12.2993 C   0  0  0  0  0  0  0  0  0  0  0  0
  -15.7112   -3.2140  -11.0196 C   0  0  0  0  0  0  0  0  0  0  0  0
  -14.7951   -4.0590  -10.1562 C   0  0  0  0  0  0  0  0  0  0  0  0
  -16.2126   -2.1985  -10.2613 F   0  0  0  0  0  0  0  0  0  0  0  0
  -16.7822   -3.9744  -11.3813 F   0  0  0  0  0  0  0  0  0  0  0  0
 24 25  1  0  0  0
 25 18  1  0  0  0
 18 19  1  0  0  0
 18 23  2  0  0  0
 19 20  2  0  0  0
 20 26  1  0  0  0
 20 21  1  0  0  0
 26 27  1  0  0  0
 21 22  2  0  0  0
 22  1  1  0  0  0
 22 23  1  0  0  0
  1 28  1  0  0  0
  1  2  1  0  0  0
 28 29  1  0  0  0
 29 30  1  0  0  0
 30 31  1  0  0  0
 31 33  1  0  0  0
 31 32  1  0  0  0
 33 34  1  0  0  0
 34 35  1  0  0  0
 34 36  1  0  0  0
 34 37  1  0  0  0
  2  3  1  0  0  0
  2 11  2  0  0  0
  3  4  2  0  0  0
  4  5  1  0  0  0
  5  6  1  0  0  0
  5 10  2  0  0  0
  6  7  2  0  0  0
  7  8  1  0  0  0
  8 12  1  0  0  0
  8  9  2  0  0  0
 12 13  1  0  0  0
 12 17  2  0  0  0
 13 14  2  0  0  0
 14 15  1  0  0  0
 15 16  1  0  0  0
 15 17  1  0  0  0
  9 10  1  0  0  0
 10 11  1  0  0  0
M  END
> <minimizedAffinity>
-8.46401

$$$$
