CHEMBL1972220


 43 47  0  0  0  0  0  0  0  0999 V2000
  -22.9642   -0.5340  -13.6530 C   0  0  0  0  0  0  0  0  0  0  0  0
  -22.9515   -1.0611  -12.3564 C   0  0  0  0  0  0  0  0  0  0  0  0
  -24.1062   -1.5885  -11.7869 C   0  0  0  0  0  0  0  0  0  0  0  0
  -25.3280   -1.5340  -12.4581 C   0  0  0  0  0  0  0  0  0  0  0  0
  -25.3480   -1.0516  -13.7673 C   0  0  0  0  0  0  0  0  0  0  0  0
  -24.1666   -0.5798  -14.3679 C   0  0  0  0  0  0  0  0  0  0  0  0
  -23.1021    2.8055  -13.4469 N   0  0  0  0  0  0  0  0  0  0  0  0
  -21.8535    2.6386  -14.0331 C   0  0  0  0  0  0  0  0  0  0  0  0
  -21.2112    3.7979  -14.2765 N   0  0  0  0  0  0  0  0  0  0  0  0
  -19.9790    3.7833  -14.8119 C   0  0  0  0  0  0  0  0  0  0  0  0
  -19.2759    2.6411  -15.1522 C   0  0  0  0  0  0  0  0  0  0  0  0
  -19.9504    1.4246  -14.9119 C   0  0  0  0  0  0  0  0  0  0  0  0
  -19.3758   -0.1686  -15.2551 S   0  0  0  0  0  0  0  0  0  0  0  0
  -20.7746   -0.8961  -14.6686 C   0  0  0  0  0  0  0  0  0  0  0  0
  -21.7174    0.0049  -14.2134 C   0  0  0  0  0  0  0  0  0  0  0  0
  -21.2496    1.3889  -14.3548 C   0  0  0  0  0  0  0  0  0  0  0  0
  -23.1942    3.7731  -13.1540 H   0  0  0  0  0  0  0  0  0  0  0  0
  -23.3010    2.1232  -12.7264 H   0  0  0  0  0  0  0  0  0  0  0  0
  -17.9562    2.7050  -15.7512 C   0  0  0  0  0  0  0  0  0  0  0  0
  -16.9123    1.7560  -15.8699 C   0  0  0  0  0  0  0  0  0  0  0  0
  -15.8582    2.2243  -16.5448 N   0  0  0  0  0  0  0  0  0  0  0  0
  -16.2184    3.4802  -16.8588 N   0  0  0  0  0  0  0  0  0  0  0  0
  -17.4537    3.8217  -16.3883 C   0  0  0  0  0  0  0  0  0  0  0  0
  -15.3374    4.3098  -17.6587 C   0  0  0  0  0  0  0  0  0  0  0  0
  -14.1476    4.8297  -16.8616 C   0  0  0  0  0  0  0  0  0  0  0  0
  -14.4566    4.9363  -15.4722 O   0  0  0  0  0  0  0  0  0  0  0  0
  -14.9918    5.7439  -15.3654 H   0  0  0  0  0  0  0  0  0  0  0  0
  -26.5312   -1.9586  -11.8446 N   0  0  0  0  0  0  0  0  0  0  0  0
  -26.7461   -1.8669  -10.4806 C   0  0  0  0  0  0  0  0  0  0  0  0
  -25.9985   -1.2815   -9.7017 O   0  0  0  0  0  0  0  0  0  0  0  0
  -27.8862   -2.5491  -10.0696 N   0  0  0  0  0  0  0  0  0  0  0  0
  -27.3554   -2.0323  -12.4241 H   0  0  0  0  0  0  0  0  0  0  0  0
  -28.0523   -3.3965  -10.5933 H   0  0  0  0  0  0  0  0  0  0  0  0
  -28.1397   -2.6079   -8.6794 C   0  0  0  0  0  0  0  0  0  0  0  0
  -27.8197   -1.5311   -7.8468 C   0  0  0  0  0  0  0  0  0  0  0  0
  -27.8678   -1.6608   -6.4568 C   0  0  0  0  0  0  0  0  0  0  0  0
  -28.2503   -2.8777   -5.8956 C   0  0  0  0  0  0  0  0  0  0  0  0
  -28.6150   -3.9383   -6.7286 C   0  0  0  0  0  0  0  0  0  0  0  0
  -28.5982   -3.8043   -8.1204 C   0  0  0  0  0  0  0  0  0  0  0  0
  -28.2529   -3.1685   -4.5592 O   0  0  0  0  0  0  0  0  0  0  0  0
  -28.8298   -2.1913   -3.7118 C   0  0  0  0  0  0  0  0  0  0  0  0
  -30.0761   -1.8982   -4.1581 F   0  0  0  0  0  0  0  0  0  0  0  0
  -28.9815   -2.7603   -2.4880 F   0  0  0  0  0  0  0  0  0  0  0  0
  7  8  1  0  0  0
  7 17  1  0  0  0
  7 18  1  0  0  0
  8  9  1  0  0  0
  8 16  2  0  0  0
  9 10  2  0  0  0
 10 11  1  0  0  0
 11 19  1  0  0  0
 11 12  2  0  0  0
 19 20  1  0  0  0
 19 23  2  0  0  0
 20 21  2  0  0  0
 21 22  1  0  0  0
 22 24  1  0  0  0
 22 23  1  0  0  0
 24 25  1  0  0  0
 25 26  1  0  0  0
 26 27  1  0  0  0
 12 13  1  0  0  0
 12 16  1  0  0  0
 13 14  1  0  0  0
 14 15  2  0  0  0
 15  1  1  0  0  0
 15 16  1  0  0  0
  1  2  1  0  0  0
  1  6  2  0  0  0
  2  3  2  0  0  0
  3  4  1  0  0  0
  4 28  1  0  0  0
  4  5  2  0  0  0
 28 29  1  0  0  0
 28 32  1  0  0  0
 29 30  2  0  0  0
 29 31  1  0  0  0
 31 34  1  0  0  0
 31 33  1  0  0  0
 34 35  1  0  0  0
 34 39  2  0  0  0
 35 36  2  0  0  0
 36 37  1  0  0  0
 37 40  1  0  0  0
 37 38  2  0  0  0
 40 41  1  0  0  0
 41 42  1  0  0  0
 41 43  1  0  0  0
 38 39  1  0  0  0
  5  6  1  0  0  0
M  END
> <minimizedAffinity>
-9.78649

$$$$
