CHEMBL3690417


 42 46  0  0  0  0  0  0  0  0999 V2000
  -26.0080   -1.3362  -10.8503 C   0  0  0  0  0  0  0  0  0  0  0  0
  -24.8272   -0.4781  -10.6309 C   0  0  0  0  0  0  0  0  0  0  0  0
  -23.9236   -0.2999  -11.6132 C   0  0  0  0  0  0  0  0  0  0  0  0
  -24.2614   -0.6636  -12.9164 N   0  0  0  0  0  0  0  0  0  0  0  0
  -23.7042   -0.2845  -14.1340 C   0  0  0  0  0  0  0  0  0  0  0  0
  -24.5180   -0.9086  -15.0717 C   0  0  0  0  0  0  0  0  0  0  0  0
  -25.5542   -1.5881  -14.4964 N   0  0  0  0  0  0  0  0  0  0  0  0
  -25.4195   -1.3825  -13.2058 C   0  0  0  0  0  0  0  0  0  0  0  0
  -26.2595   -1.7502  -12.1209 C   0  0  0  0  0  0  0  0  0  0  0  0
  -29.1251   -4.0470   -4.7559 C   0  0  0  0  0  0  0  0  0  0  0  0
  -29.2132   -3.1549   -3.9288 O   0  0  0  0  0  0  0  0  0  0  0  0
  -29.1126   -3.8034   -6.1208 N   0  0  0  0  0  0  0  0  0  0  0  0
  -29.3257   -4.8514   -7.1318 C   0  0  0  0  0  0  0  0  0  0  0  0
  -28.2353   -4.8378   -8.2088 C   0  0  0  0  0  0  0  0  0  0  0  0
  -27.8937   -3.4392   -8.5941 C   0  0  0  0  0  0  0  0  0  0  0  0
  -27.1507   -3.1844   -9.7129 N   0  0  0  0  0  0  0  0  0  0  0  0
  -26.8688   -1.8939   -9.8238 C   0  0  0  0  0  0  0  0  0  0  0  0
  -27.5933   -0.9366   -8.5473 S   0  0  0  0  0  0  0  0  0  0  0  0
  -28.2531   -2.3466   -7.8447 C   0  0  0  0  0  0  0  0  0  0  0  0
  -29.0833   -2.4051   -6.5952 C   0  0  0  0  0  0  0  0  0  0  0  0
  -29.0095   -5.3731   -4.4541 O   0  0  0  0  0  0  0  0  0  0  0  0
  -30.6092   -7.0064   -5.3411 C   0  0  0  0  0  0  0  0  0  0  0  0
  -30.1909   -6.1608   -4.1338 C   0  0  0  0  0  0  0  0  0  0  0  0
  -31.3441   -5.2924   -3.6110 C   0  0  0  0  0  0  0  0  0  0  0  0
  -29.7766   -7.1186   -3.0004 C   0  0  0  0  0  0  0  0  0  0  0  0
  -22.6182    0.6828  -14.3784 C   0  0  0  0  0  0  0  0  0  0  0  0
  -22.8364    2.0332  -14.0857 C   0  0  0  0  0  0  0  0  0  0  0  0
  -21.8029    2.9628  -14.1957 C   0  0  0  0  0  0  0  0  0  0  0  0
  -20.5308    2.5642  -14.5928 C   0  0  0  0  0  0  0  0  0  0  0  0
  -20.2754    1.2250  -14.8752 C   0  0  0  0  0  0  0  0  0  0  0  0
  -21.3213    0.2940  -14.7743 C   0  0  0  0  0  0  0  0  0  0  0  0
  -18.9849    0.7436  -15.2774 N   0  0  0  0  0  0  0  0  0  0  0  0
  -17.8083    0.9261  -14.5945 C   0  0  0  0  0  0  0  0  0  0  0  0
  -17.6479    1.4866  -13.5180 O   0  0  0  0  0  0  0  0  0  0  0  0
  -16.7180    0.4069  -15.2744 N   0  0  0  0  0  0  0  0  0  0  0  0
  -18.9327    0.2027  -16.1331 H   0  0  0  0  0  0  0  0  0  0  0  0
  -16.8905   -0.3836  -15.8720 H   0  0  0  0  0  0  0  0  0  0  0  0
  -15.3901    0.4949  -14.6455 C   0  0  0  0  0  0  0  0  0  0  0  0
  -15.0531   -0.5893  -13.6092 C   0  0  0  0  0  0  0  0  0  0  0  0
  -13.7331   -0.8834  -13.5874 F   0  0  0  0  0  0  0  0  0  0  0  0
  -15.3749   -0.1522  -12.3646 F   0  0  0  0  0  0  0  0  0  0  0  0
  -15.7389   -1.7317  -13.8188 F   0  0  0  0  0  0  0  0  0  0  0  0
 22 23  1  0  0  0
 23 24  1  0  0  0
 23 25  1  0  0  0
 23 21  1  0  0  0
 21 10  1  0  0  0
 10 11  2  0  0  0
 10 12  1  0  0  0
 12 13  1  0  0  0
 12 20  1  0  0  0
 13 14  1  0  0  0
 14 15  1  0  0  0
 15 16  1  0  0  0
 15 19  2  0  0  0
 16 17  2  0  0  0
 17  1  1  0  0  0
 17 18  1  0  0  0
  1  2  1  0  0  0
  1  9  2  0  0  0
  2  3  2  0  0  0
  3  4  1  0  0  0
  4  5  1  0  0  0
  4  8  1  0  0  0
  5 26  1  0  0  0
  5  6  2  0  0  0
 26 27  1  0  0  0
 26 31  2  0  0  0
 27 28  2  0  0  0
 28 29  1  0  0  0
 29 30  2  0  0  0
 30 32  1  0  0  0
 30 31  1  0  0  0
 32 33  1  0  0  0
 32 36  1  0  0  0
 33 34  2  0  0  0
 33 35  1  0  0  0
 35 38  1  0  0  0
 35 37  1  0  0  0
 38 39  1  0  0  0
 39 40  1  0  0  0
 39 41  1  0  0  0
 39 42  1  0  0  0
  6  7  1  0  0  0
  7  8  2  0  0  0
  8  9  1  0  0  0
 18 19  1  0  0  0
 19 20  1  0  0  0
M  END
> <minimizedAffinity>
-9.44630

$$$$
