CHEMBL352977


 34 38  0  0  0  0  0  0  0  0999 V2000
  -13.9914   -1.6336  -13.7059 C   0  0  0  0  0  0  0  0  0  0  0  0
  -13.8972   -3.0213  -13.8426 C   0  0  0  0  0  0  0  0  0  0  0  0
  -14.7034   -3.8958  -13.0871 C   0  0  0  0  0  0  0  0  0  0  0  0
  -14.5901   -5.2974  -13.1338 C   0  0  0  0  0  0  0  0  0  0  0  0
  -15.4603   -6.0982  -12.5045 N   0  0  0  0  0  0  0  0  0  0  0  0
  -16.4157   -5.4964  -11.7893 C   0  0  0  0  0  0  0  0  0  0  0  0
  -16.5627   -4.1754  -11.6151 N   0  0  0  0  0  0  0  0  0  0  0  0
  -15.7064   -3.3836  -12.2615 C   0  0  0  0  0  0  0  0  0  0  0  0
  -15.8140   -2.0027  -12.1523 C   0  0  0  0  0  0  0  0  0  0  0  0
  -14.9875   -1.1158  -12.8613 C   0  0  0  0  0  0  0  0  0  0  0  0
  -11.9483   -0.3715  -13.7539 C   0  0  0  0  0  0  0  0  0  0  0  0
  -13.1679   -0.7722  -14.3679 O   0  0  0  0  0  0  0  0  0  0  0  0
  -13.4889   -5.8753  -13.8110 N   0  0  0  0  0  0  0  0  0  0  0  0
  -12.7549   -6.0949  -13.1418 H   0  0  0  0  0  0  0  0  0  0  0  0
  -13.5475   -6.8187  -14.8664 C   0  0  0  0  0  0  0  0  0  0  0  0
  -13.3472   -8.2036  -14.6192 C   0  0  0  0  0  0  0  0  0  0  0  0
  -13.2731   -8.7894  -12.9888 Cl  0  0  0  0  0  0  0  0  0  0  0  0
  -13.2165   -9.1424  -15.6513 C   0  0  0  0  0  0  0  0  0  0  0  0
  -13.2806   -8.7487  -16.9880 C   0  0  0  0  0  0  0  0  0  0  0  0
  -13.5230   -7.3987  -17.2207 C   0  0  0  0  0  0  0  0  0  0  0  0
  -13.6370   -6.8309  -18.4533 O   0  0  0  0  0  0  0  0  0  0  0  0
  -13.8523   -5.5060  -18.2624 C   0  0  0  0  0  0  0  0  0  0  0  0
  -13.8648   -5.2102  -16.9212 C   0  0  0  0  0  0  0  0  0  0  0  0
  -13.6632   -6.4370  -16.2262 C   0  0  0  0  0  0  0  0  0  0  0  0
  -15.2734    0.2030  -12.6297 O   0  0  0  0  0  0  0  0  0  0  0  0
  -15.6019    1.0482  -13.7383 C   0  0  0  0  0  0  0  0  0  0  0  0
  -16.8688    0.6139  -14.4811 C   0  0  0  0  0  0  0  0  0  0  0  0
  -18.0249    1.5819  -14.2026 C   0  0  0  0  0  0  0  0  0  0  0  0
  -18.9857    1.6978  -15.3144 N   0  0  0  0  0  0  0  0  0  0  0  0
  -19.6027    3.0485  -15.3215 C   0  0  0  0  0  0  0  0  0  0  0  0
  -20.6332    3.2775  -14.1974 C   0  0  0  0  0  0  0  0  0  0  0  0
  -21.6522    2.2691  -14.1951 O   0  0  0  0  0  0  0  0  0  0  0  0
  -21.0749    0.9613  -14.0972 C   0  0  0  0  0  0  0  0  0  0  0  0
  -20.0890    0.7112  -15.2488 C   0  0  0  0  0  0  0  0  0  0  0  0
 11 12  1  0  0  0
 12  1  1  0  0  0
  1  2  1  0  0  0
  1 10  2  0  0  0
  2  3  2  0  0  0
  3  4  1  0  0  0
  3  8  1  0  0  0
  4 13  1  0  0  0
  4  5  2  0  0  0
 13 15  1  0  0  0
 13 14  1  0  0  0
 15 16  1  0  0  0
 15 24  2  0  0  0
 16 17  1  0  0  0
 16 18  2  0  0  0
 18 19  1  0  0  0
 19 20  2  0  0  0
 20 21  1  0  0  0
 20 24  1  0  0  0
 21 22  1  0  0  0
 22 23  2  0  0  0
 23 24  1  0  0  0
  5  6  1  0  0  0
  6  7  2  0  0  0
  7  8  1  0  0  0
  8  9  2  0  0  0
  9 10  1  0  0  0
 10 25  1  0  0  0
 25 26  1  0  0  0
 26 27  1  0  0  0
 27 28  1  0  0  0
 28 29  1  0  0  0
 29 30  1  0  0  0
 29 34  1  0  0  0
 30 31  1  0  0  0
 31 32  1  0  0  0
 32 33  1  0  0  0
 33 34  1  0  0  0
M  END
> <minimizedAffinity>
-7.46026

$$$$
