CHEMBL4083853


 44 48  0  0  0  0  0  0  0  0999 V2000
  -18.5896    4.0160  -15.8110 C   0  0  0  0  0  0  0  0  0  0  0  0
  -17.7186    2.8766  -15.3535 C   0  0  0  0  0  0  0  0  0  0  0  0
  -18.2307    1.9742  -14.4121 C   0  0  0  0  0  0  0  0  0  0  0  0
  -17.4436    0.9272  -13.9388 C   0  0  0  0  0  0  0  0  0  0  0  0
  -16.1314    0.7590  -14.3966 C   0  0  0  0  0  0  0  0  0  0  0  0
  -15.6145    1.6327  -15.3567 C   0  0  0  0  0  0  0  0  0  0  0  0
  -16.4033    2.6956  -15.8278 C   0  0  0  0  0  0  0  0  0  0  0  0
  -15.3657   -0.3860  -13.8463 C   0  0  0  0  0  0  0  0  0  0  0  0
  -14.1513   -0.3770  -14.0292 O   0  0  0  0  0  0  0  0  0  0  0  0
  -16.0984   -1.4079  -13.2542 N   0  0  0  0  0  0  0  0  0  0  0  0
  -17.1058   -1.3658  -13.3370 H   0  0  0  0  0  0  0  0  0  0  0  0
  -15.5470   -2.6390  -12.8153 C   0  0  0  0  0  0  0  0  0  0  0  0
  -15.5706   -3.7947  -13.5898 C   0  0  0  0  0  0  0  0  0  0  0  0
  -15.1443   -5.0154  -13.0690 C   0  0  0  0  0  0  0  0  0  0  0  0
  -14.6734   -5.1196  -11.7517 C   0  0  0  0  0  0  0  0  0  0  0  0
  -14.5629   -3.9467  -10.9730 C   0  0  0  0  0  0  0  0  0  0  0  0
  -14.9939   -2.7130  -11.5307 C   0  0  0  0  0  0  0  0  0  0  0  0
  -14.0617   -3.9172   -9.5398 C   0  0  0  0  0  0  0  0  0  0  0  0
  -14.3357   -2.8066   -8.8079 F   0  0  0  0  0  0  0  0  0  0  0  0
  -14.5974   -4.9446   -8.8123 F   0  0  0  0  0  0  0  0  0  0  0  0
  -12.7111   -4.0993   -9.4674 F   0  0  0  0  0  0  0  0  0  0  0  0
  -14.3747   -6.5100  -11.2266 C   0  0  0  0  0  0  0  0  0  0  0  0
  -13.4091   -7.2273  -12.0588 N   0  0  0  0  0  0  0  0  0  0  0  0
  -12.0004   -6.9175  -11.7619 C   0  0  0  0  0  0  0  0  0  0  0  0
  -11.0583   -7.6781  -12.7256 C   0  0  0  0  0  0  0  0  0  0  0  0
  -11.2327   -9.1451  -12.7331 N   0  0  0  0  0  0  0  0  0  0  0  0
  -10.6984   -9.7511  -11.5181 C   0  0  0  0  0  0  0  0  0  0  0  0
  -12.6660   -9.4580  -12.9157 C   0  0  0  0  0  0  0  0  0  0  0  0
  -13.6294   -8.6831  -11.9861 C   0  0  0  0  0  0  0  0  0  0  0  0
  -15.8324    3.5966  -16.7850 C   0  0  0  0  0  0  0  0  0  0  0  0
  -15.3304    4.3247  -17.5996 C   0  0  0  0  0  0  0  0  0  0  0  0
  -14.6911    5.1850  -18.5486 C   0  0  0  0  0  0  0  0  0  0  0  0
  -13.6110    4.7305  -19.2942 C   0  0  0  0  0  0  0  0  0  0  0  0
  -12.9625    5.4792  -20.2128 N   0  0  0  0  0  0  0  0  0  0  0  0
  -13.4279    6.7400  -20.3810 C   0  0  0  0  0  0  0  0  0  0  0  0
  -14.4976    7.3236  -19.6852 C   0  0  0  0  0  0  0  0  0  0  0  0
  -15.1366    6.4956  -18.7559 C   0  0  0  0  0  0  0  0  0  0  0  0
  -14.8787    8.6329  -19.9639 N   0  0  0  0  0  0  0  0  0  0  0  0
  -13.8672    9.6799  -20.1909 C   0  0  0  0  0  0  0  0  0  0  0  0
  -14.5299   11.0742  -20.0315 C   0  0  0  0  0  0  0  0  0  0  0  0
  -15.6931   11.2613  -20.9315 N   0  0  0  0  0  0  0  0  0  0  0  0
  -16.3192   12.5628  -20.7075 C   0  0  0  0  0  0  0  0  0  0  0  0
  -16.6696   10.1732  -20.6965 C   0  0  0  0  0  0  0  0  0  0  0  0
  -16.0429    8.7711  -20.8683 C   0  0  0  0  0  0  0  0  0  0  0  0
  1  2  1  0  0  0
  2  3  1  0  0  0
  2  7  2  0  0  0
  3  4  2  0  0  0
  4  5  1  0  0  0
  5  8  1  0  0  0
  5  6  2  0  0  0
  8  9  2  0  0  0
  8 10  1  0  0  0
 10 12  1  0  0  0
 10 11  1  0  0  0
 12 13  1  0  0  0
 12 17  2  0  0  0
 13 14  2  0  0  0
 14 15  1  0  0  0
 15 22  1  0  0  0
 15 16  2  0  0  0
 22 23  1  0  0  0
 23 24  1  0  0  0
 23 29  1  0  0  0
 24 25  1  0  0  0
 25 26  1  0  0  0
 26 27  1  0  0  0
 26 28  1  0  0  0
 28 29  1  0  0  0
 16 18  1  0  0  0
 16 17  1  0  0  0
 18 19  1  0  0  0
 18 20  1  0  0  0
 18 21  1  0  0  0
  6  7  1  0  0  0
  7 30  1  0  0  0
 30 31  3  0  0  0
 31 32  1  0  0  0
 32 33  1  0  0  0
 32 37  2  0  0  0
 33 34  2  0  0  0
 34 35  1  0  0  0
 35 36  2  0  0  0
 36 38  1  0  0  0
 36 37  1  0  0  0
 38 39  1  0  0  0
 38 44  1  0  0  0
 39 40  1  0  0  0
 40 41  1  0  0  0
 41 42  1  0  0  0
 41 43  1  0  0  0
 43 44  1  0  0  0
M  END
> <minimizedAffinity>
-8.31736

$$$$
