CHEMBL484109


 34 38  0  0  0  0  0  0  0  0999 V2000
  -14.6748    4.7177  -16.6003 N   0  0  0  0  0  0  0  0  0  0  0  0
  -15.6012    3.7747  -16.2006 C   0  0  0  0  0  0  0  0  0  0  0  0
  -15.1310    2.5349  -16.0133 N   0  0  0  0  0  0  0  0  0  0  0  0
  -15.9492    1.5442  -15.5707 C   0  0  0  0  0  0  0  0  0  0  0  0
  -17.2859    1.8892  -15.3167 C   0  0  0  0  0  0  0  0  0  0  0  0
  -18.4561    1.2267  -14.8592 C   0  0  0  0  0  0  0  0  0  0  0  0
  -19.4804    2.1598  -14.7776 C   0  0  0  0  0  0  0  0  0  0  0  0
  -18.9669    3.3469  -15.2522 N   0  0  0  0  0  0  0  0  0  0  0  0
  -17.6454    3.2073  -15.5478 C   0  0  0  0  0  0  0  0  0  0  0  0
  -16.8465    4.1987  -15.9783 N   0  0  0  0  0  0  0  0  0  0  0  0
  -13.7543    4.3957  -16.3266 H   0  0  0  0  0  0  0  0  0  0  0  0
  -14.9616    5.6287  -16.2767 H   0  0  0  0  0  0  0  0  0  0  0  0
  -19.4650    4.2307  -15.2949 H   0  0  0  0  0  0  0  0  0  0  0  0
  -15.4350    0.2616  -15.3253 N   0  0  0  0  0  0  0  0  0  0  0  0
  -14.6852   -0.0180  -15.9418 H   0  0  0  0  0  0  0  0  0  0  0  0
  -15.5744   -0.5389  -14.1731 C   0  0  0  0  0  0  0  0  0  0  0  0
  -15.6074    0.0037  -12.8815 C   0  0  0  0  0  0  0  0  0  0  0  0
  -15.7533   -0.8081  -11.7524 C   0  0  0  0  0  0  0  0  0  0  0  0
  -15.8999   -2.1839  -11.8993 C   0  0  0  0  0  0  0  0  0  0  0  0
  -15.9134   -2.7319  -13.1794 C   0  0  0  0  0  0  0  0  0  0  0  0
  -16.1732   -4.5944  -13.3884 Br  0  0  0  0  0  0  0  0  0  0  0  0
  -15.7521   -1.9225  -14.3088 C   0  0  0  0  0  0  0  0  0  0  0  0
  -20.8915    2.0217  -14.2497 C   0  0  0  0  0  0  0  0  0  0  0  0
  -21.3359    0.5540  -14.3505 C   0  0  0  0  0  0  0  0  0  0  0  0
  -22.6275    0.0584  -13.7512 C   0  0  0  0  0  0  0  0  0  0  0  0
  -22.5858   -0.1537  -12.3636 C   0  0  0  0  0  0  0  0  0  0  0  0
  -23.7258   -0.5045  -11.6581 C   0  0  0  0  0  0  0  0  0  0  0  0
  -24.9042   -0.7925  -12.3421 C   0  0  0  0  0  0  0  0  0  0  0  0
  -26.0394   -1.1645  -11.6248 C   0  0  0  0  0  0  0  0  0  0  0  0
  -26.9959   -1.9634  -12.2302 C   0  0  0  0  0  0  0  0  0  0  0  0
  -26.9915   -2.0894  -13.6135 C   0  0  0  0  0  0  0  0  0  0  0  0
  -26.0337   -1.4036  -14.3746 C   0  0  0  0  0  0  0  0  0  0  0  0
  -24.9205   -0.8031  -13.7503 C   0  0  0  0  0  0  0  0  0  0  0  0
  -23.8024   -0.2686  -14.4440 C   0  0  0  0  0  0  0  0  0  0  0  0
  1  2  1  0  0  0
  1 11  1  0  0  0
  1 12  1  0  0  0
  2  3  1  0  0  0
  2 10  2  0  0  0
  3  4  2  0  0  0
  4 14  1  0  0  0
  4  5  1  0  0  0
 14 16  1  0  0  0
 14 15  1  0  0  0
 16 17  1  0  0  0
 16 22  2  0  0  0
 17 18  2  0  0  0
 18 19  1  0  0  0
 19 20  2  0  0  0
 20 21  1  0  0  0
 20 22  1  0  0  0
  5  6  1  0  0  0
  5  9  2  0  0  0
  6  7  2  0  0  0
  7 23  1  0  0  0
  7  8  1  0  0  0
 23 24  1  0  0  0
 24 25  1  0  0  0
 25 26  1  0  0  0
 25 34  2  0  0  0
 26 27  2  0  0  0
 27 28  1  0  0  0
 28 29  1  0  0  0
 28 33  2  0  0  0
 29 30  2  0  0  0
 30 31  1  0  0  0
 31 32  2  0  0  0
 32 33  1  0  0  0
 33 34  1  0  0  0
  8  9  1  0  0  0
  8 13  1  0  0  0
  9 10  1  0  0  0
M  END
> <minimizedAffinity>
-10.62472

$$$$
