CHEMBL1994638


 33 36  0  0  0  0  0  0  0  0999 V2000
  -27.9496   -1.8927   -7.9538 C   0  0  0  0  0  0  0  0  0  0  0  0
  -27.8313   -1.6556   -6.5875 C   0  0  0  0  0  0  0  0  0  0  0  0
  -28.5510   -2.4409   -5.6699 C   0  0  0  0  0  0  0  0  0  0  0  0
  -29.3945   -3.4951   -6.0824 C   0  0  0  0  0  0  0  0  0  0  0  0
  -29.5288   -3.6613   -7.4656 C   0  0  0  0  0  0  0  0  0  0  0  0
  -30.3622   -4.5880   -7.9624 F   0  0  0  0  0  0  0  0  0  0  0  0
  -28.7942   -2.9133   -8.3859 C   0  0  0  0  0  0  0  0  0  0  0  0
  -30.1117   -4.3321   -5.0901 C   0  0  0  0  0  0  0  0  0  0  0  0
  -31.0761   -3.7380   -4.2299 C   0  0  0  0  0  0  0  0  0  0  0  0
  -31.7696   -4.4568   -3.2572 C   0  0  0  0  0  0  0  0  0  0  0  0
  -31.5707   -5.8226   -3.1144 C   0  0  0  0  0  0  0  0  0  0  0  0
  -30.6336   -6.4214   -3.9589 C   0  0  0  0  0  0  0  0  0  0  0  0
  -30.2507   -7.7315   -4.0421 N   0  0  0  0  0  0  0  0  0  0  0  0
  -29.2683   -7.9643   -4.9109 N   0  0  0  0  0  0  0  0  0  0  0  0
  -29.0020   -6.7635   -5.4170 C   0  0  0  0  0  0  0  0  0  0  0  0
  -27.9939   -6.6285   -6.2935 N   0  0  0  0  0  0  0  0  0  0  0  0
  -29.8745   -5.7342   -4.9153 C   0  0  0  0  0  0  0  0  0  0  0  0
  -30.6146   -8.5143   -3.5123 H   0  0  0  0  0  0  0  0  0  0  0  0
  -27.7024   -7.5011   -6.7210 H   0  0  0  0  0  0  0  0  0  0  0  0
  -28.0307   -5.8828   -6.9726 H   0  0  0  0  0  0  0  0  0  0  0  0
  -26.0338   -0.6671  -10.7905 N   0  0  0  0  0  0  0  0  0  0  0  0
  -26.6909   -1.6131  -10.0268 C   0  0  0  0  0  0  0  0  0  0  0  0
  -26.8232   -2.7963  -10.3282 O   0  0  0  0  0  0  0  0  0  0  0  0
  -27.2417   -1.0736   -8.8691 N   0  0  0  0  0  0  0  0  0  0  0  0
  -25.7625    0.1877  -10.3255 H   0  0  0  0  0  0  0  0  0  0  0  0
  -27.5347   -0.1099   -8.9410 H   0  0  0  0  0  0  0  0  0  0  0  0
  -22.3527   -0.0807  -14.0602 C   0  0  0  0  0  0  0  0  0  0  0  0
  -23.7242   -0.5784  -13.7179 C   0  0  0  0  0  0  0  0  0  0  0  0
  -24.4928   -1.2225  -14.6943 C   0  0  0  0  0  0  0  0  0  0  0  0
  -25.7640   -1.6788  -14.3949 C   0  0  0  0  0  0  0  0  0  0  0  0
  -26.2847   -1.4910  -13.1154 C   0  0  0  0  0  0  0  0  0  0  0  0
  -25.5340   -0.8740  -12.1042 C   0  0  0  0  0  0  0  0  0  0  0  0
  -24.2509   -0.4117  -12.4205 C   0  0  0  0  0  0  0  0  0  0  0  0
 27 28  1  0  0  0
 28 29  1  0  0  0
 28 33  2  0  0  0
 29 30  2  0  0  0
 30 31  1  0  0  0
 31 32  2  0  0  0
 32 21  1  0  0  0
 32 33  1  0  0  0
 21 22  1  0  0  0
 21 25  1  0  0  0
 22 23  2  0  0  0
 22 24  1  0  0  0
 24  1  1  0  0  0
 24 26  1  0  0  0
  1  2  1  0  0  0
  1  7  2  0  0  0
  2  3  2  0  0  0
  3  4  1  0  0  0
  4  8  1  0  0  0
  4  5  2  0  0  0
  8  9  1  0  0  0
  8 17  2  0  0  0
  9 10  2  0  0  0
 10 11  1  0  0  0
 11 12  2  0  0  0
 12 13  1  0  0  0
 12 17  1  0  0  0
 13 14  1  0  0  0
 13 18  1  0  0  0
 14 15  2  0  0  0
 15 16  1  0  0  0
 15 17  1  0  0  0
 16 19  1  0  0  0
 16 20  1  0  0  0
  5  6  1  0  0  0
  5  7  1  0  0  0
M  END
> <minimizedAffinity>
-10.11149

$$$$
