CHEMBL212762


 43 48  0  0  0  0  0  0  0  0999 V2000
  -15.6343    1.5819  -16.0163 C   0  0  0  0  0  0  0  0  0  0  0  0
  -14.7907    1.7627  -17.0917 C   0  0  0  0  0  0  0  0  0  0  0  0
  -13.6835    0.8656  -17.0569 C   0  0  0  0  0  0  0  0  0  0  0  0
  -13.7402    0.0227  -15.9679 C   0  0  0  0  0  0  0  0  0  0  0  0
  -15.0856    0.3515  -14.9758 S   0  0  0  0  0  0  0  0  0  0  0  0
  -22.4436    1.2294  -13.9079 C   0  0  0  0  0  0  0  0  0  0  0  0
  -22.3916    2.6461  -13.8822 C   0  0  0  0  0  0  0  0  0  0  0  0
  -21.2636    3.3462  -14.3182 C   0  0  0  0  0  0  0  0  0  0  0  0
  -20.1893    2.6003  -14.7310 C   0  0  0  0  0  0  0  0  0  0  0  0
  -20.1796    1.1828  -14.7098 C   0  0  0  0  0  0  0  0  0  0  0  0
  -21.3149    0.4943  -14.3217 C   0  0  0  0  0  0  0  0  0  0  0  0
  -18.8248    0.5755  -15.1188 C   0  0  0  0  0  0  0  0  0  0  0  0
  -18.1258    1.8599  -15.4067 C   0  0  0  0  0  0  0  0  0  0  0  0
  -16.8721    2.3716  -15.7673 C   0  0  0  0  0  0  0  0  0  0  0  0
  -16.9020    3.7208  -15.8391 N   0  0  0  0  0  0  0  0  0  0  0  0
  -18.1641    4.0496  -15.4715 N   0  0  0  0  0  0  0  0  0  0  0  0
  -18.9017    2.9636  -15.1991 C   0  0  0  0  0  0  0  0  0  0  0  0
  -18.4163    5.0277  -15.4213 H   0  0  0  0  0  0  0  0  0  0  0  0
  -23.7274    0.5157  -13.5284 C   0  0  0  0  0  0  0  0  0  0  0  0
  -26.7652   -1.8716  -10.7162 C   0  0  0  0  0  0  0  0  0  0  0  0
  -25.7261   -2.0368  -11.7273 N   0  0  0  0  0  0  0  0  0  0  0  0
  -26.1115   -1.3900  -12.9921 C   0  0  0  0  0  0  0  0  0  0  0  0
  -24.9990   -1.5378  -14.0543 C   0  0  0  0  0  0  0  0  0  0  0  0
  -23.7014   -0.9513  -13.6553 N   0  0  0  0  0  0  0  0  0  0  0  0
  -23.3260   -1.5669  -12.3559 C   0  0  0  0  0  0  0  0  0  0  0  0
  -24.4273   -1.5173  -11.2594 C   0  0  0  0  0  0  0  0  0  0  0  0
  -12.8118   -1.0629  -15.5772 C   0  0  0  0  0  0  0  0  0  0  0  0
  -13.3828   -2.3326  -15.9745 N   0  0  0  0  0  0  0  0  0  0  0  0
  -13.1678   -3.3713  -15.1046 C   0  0  0  0  0  0  0  0  0  0  0  0
  -12.4732   -3.2173  -14.1016 O   0  0  0  0  0  0  0  0  0  0  0  0
  -13.7593   -4.5478  -15.5157 N   0  0  0  0  0  0  0  0  0  0  0  0
  -14.2867   -2.3106  -16.4202 H   0  0  0  0  0  0  0  0  0  0  0  0
  -13.9600   -4.6073  -16.5034 H   0  0  0  0  0  0  0  0  0  0  0  0
  -13.6393   -5.7571  -14.7949 C   0  0  0  0  0  0  0  0  0  0  0  0
  -14.5666   -6.1252  -13.8159 C   0  0  0  0  0  0  0  0  0  0  0  0
  -14.3326   -7.2141  -12.9785 C   0  0  0  0  0  0  0  0  0  0  0  0
  -13.1807   -7.9833  -13.1299 C   0  0  0  0  0  0  0  0  0  0  0  0
  -12.3043   -7.6874  -14.1898 C   0  0  0  0  0  0  0  0  0  0  0  0
  -12.5371   -6.5838  -15.0239 C   0  0  0  0  0  0  0  0  0  0  0  0
  -12.8753   -9.0849  -12.1451 C   0  0  0  0  0  0  0  0  0  0  0  0
  -13.9493   -9.4460  -11.3861 F   0  0  0  0  0  0  0  0  0  0  0  0
  -12.4451  -10.2268  -12.7476 F   0  0  0  0  0  0  0  0  0  0  0  0
  -11.9006   -8.7355  -11.2601 F   0  0  0  0  0  0  0  0  0  0  0  0
 20 21  1  0  0  0
 21 22  1  0  0  0
 21 26  1  0  0  0
 22 23  1  0  0  0
 23 24  1  0  0  0
 24 19  1  0  0  0
 24 25  1  0  0  0
 19  6  1  0  0  0
  6  7  1  0  0  0
  6 11  2  0  0  0
  7  8  2  0  0  0
  8  9  1  0  0  0
  9 10  2  0  0  0
  9 17  1  0  0  0
 10 11  1  0  0  0
 10 12  1  0  0  0
 12 13  1  0  0  0
 13 14  1  0  0  0
 13 17  2  0  0  0
 14  1  1  0  0  0
 14 15  2  0  0  0
  1  2  2  0  0  0
  1  5  1  0  0  0
  2  3  1  0  0  0
  3  4  2  0  0  0
  4 27  1  0  0  0
  4  5  1  0  0  0
 27 28  1  0  0  0
 28 29  1  0  0  0
 28 32  1  0  0  0
 29 30  2  0  0  0
 29 31  1  0  0  0
 31 34  1  0  0  0
 31 33  1  0  0  0
 34 35  1  0  0  0
 34 39  2  0  0  0
 35 36  2  0  0  0
 36 37  1  0  0  0
 37 40  1  0  0  0
 37 38  2  0  0  0
 40 41  1  0  0  0
 40 42  1  0  0  0
 40 43  1  0  0  0
 38 39  1  0  0  0
 15 16  1  0  0  0
 16 17  1  0  0  0
 16 18  1  0  0  0
 25 26  1  0  0  0
M  END
> <minimizedAffinity>
-11.27450

$$$$
