CHEMBL519213


 30 33  0  0  0  0  0  0  0  0999 V2000
  -24.0975  -10.5773   -5.4890 C   0  0  0  0  0  0  0  0  0  0  0  0
  -24.8623  -10.7467   -6.6655 C   0  0  0  0  0  0  0  0  0  0  0  0
  -26.1925  -10.2944   -6.7393 C   0  0  0  0  0  0  0  0  0  0  0  0
  -26.7509   -9.6847   -5.6283 C   0  0  0  0  0  0  0  0  0  0  0  0
  -25.9724   -9.5183   -4.4750 C   0  0  0  0  0  0  0  0  0  0  0  0
  -24.6607   -9.9379   -4.3782 C   0  0  0  0  0  0  0  0  0  0  0  0
  -26.7068   -8.9154   -3.4618 N   0  0  0  0  0  0  0  0  0  0  0  0
  -28.0055   -8.6699   -3.8625 C   0  0  0  0  0  0  0  0  0  0  0  0
  -28.9248   -8.2900   -3.1596 O   0  0  0  0  0  0  0  0  0  0  0  0
  -28.0625   -9.0853   -5.3121 C   0  0  0  0  0  0  0  0  0  0  0  0
  -29.1771   -8.8613   -6.0443 C   0  0  0  0  0  0  0  0  0  0  0  0
  -26.3894   -8.7509   -2.5174 H   0  0  0  0  0  0  0  0  0  0  0  0
  -29.3592   -9.5044   -7.3624 C   0  0  0  0  0  0  0  0  0  0  0  0
  -28.9475   -8.8000   -8.5068 C   0  0  0  0  0  0  0  0  0  0  0  0
  -29.0549   -9.3727   -9.7728 C   0  0  0  0  0  0  0  0  0  0  0  0
  -29.5750  -10.6577   -9.9089 C   0  0  0  0  0  0  0  0  0  0  0  0
  -29.9905  -11.3651   -8.7818 C   0  0  0  0  0  0  0  0  0  0  0  0
  -29.8838  -10.7923   -7.5114 C   0  0  0  0  0  0  0  0  0  0  0  0
  -22.7054  -11.0855   -5.3475 C   0  0  0  0  0  0  0  0  0  0  0  0
  -22.1459  -11.2004   -4.2675 O   0  0  0  0  0  0  0  0  0  0  0  0
  -21.2520  -10.4810   -7.0680 C   0  0  0  0  0  0  0  0  0  0  0  0
  -22.1851  -11.4324   -6.5499 O   0  0  0  0  0  0  0  0  0  0  0  0
  -30.3108   -8.1703   -5.6071 N   0  0  0  0  0  0  0  0  0  0  0  0
  -30.5074   -8.4330   -4.6324 H   0  0  0  0  0  0  0  0  0  0  0  0
  -30.3609   -6.7369   -5.5829 C   0  0  0  0  0  0  0  0  0  0  0  0
  -29.8041   -5.9207   -6.5761 C   0  0  0  0  0  0  0  0  0  0  0  0
  -29.8672   -4.5265   -6.4788 C   0  0  0  0  0  0  0  0  0  0  0  0
  -30.5047   -3.9286   -5.3956 C   0  0  0  0  0  0  0  0  0  0  0  0
  -31.0975   -4.7245   -4.4192 C   0  0  0  0  0  0  0  0  0  0  0  0
  -31.0343   -6.1174   -4.5189 C   0  0  0  0  0  0  0  0  0  0  0  0
 21 22  1  0  0  0
 22 19  1  0  0  0
 19 20  2  0  0  0
 19  1  1  0  0  0
  1  2  1  0  0  0
  1  6  2  0  0  0
  2  3  2  0  0  0
  3  4  1  0  0  0
  4  5  2  0  0  0
  4 10  1  0  0  0
  5  6  1  0  0  0
  5  7  1  0  0  0
  7  8  1  0  0  0
  7 12  1  0  0  0
  8  9  2  0  0  0
  8 10  1  0  0  0
 10 11  2  0  0  0
 11 23  1  0  0  0
 11 13  1  0  0  0
 23 25  1  0  0  0
 23 24  1  0  0  0
 25 26  1  0  0  0
 25 30  2  0  0  0
 26 27  2  0  0  0
 27 28  1  0  0  0
 28 29  2  0  0  0
 29 30  1  0  0  0
 13 14  1  0  0  0
 13 18  2  0  0  0
 14 15  2  0  0  0
 15 16  1  0  0  0
 16 17  2  0  0  0
 17 18  1  0  0  0
M  END
> <minimizedAffinity>
-8.03425

$$$$
