CHEMBL3976632


 38 41  0  0  0  0  0  0  0  0999 V2000
  -20.8732    3.3385  -14.2604 C   0  0  0  0  0  0  0  0  0  0  0  0
  -19.8382    2.3286  -14.6774 C   0  0  0  0  0  0  0  0  0  0  0  0
  -18.4915    2.7514  -14.6406 C   0  0  0  0  0  0  0  0  0  0  0  0
  -17.4329    1.8626  -14.8391 C   0  0  0  0  0  0  0  0  0  0  0  0
  -17.7200    0.5534  -15.1912 C   0  0  0  0  0  0  0  0  0  0  0  0
  -19.0505    0.1355  -15.2959 C   0  0  0  0  0  0  0  0  0  0  0  0
  -20.1315    0.9958  -15.0433 C   0  0  0  0  0  0  0  0  0  0  0  0
  -21.4821    0.5464  -15.1522 N   0  0  0  0  0  0  0  0  0  0  0  0
  -22.2818    0.1323  -14.0920 C   0  0  0  0  0  0  0  0  0  0  0  0
  -21.9452    0.1145  -12.9123 O   0  0  0  0  0  0  0  0  0  0  0  0
  -23.5235   -0.3454  -14.5012 N   0  0  0  0  0  0  0  0  0  0  0  0
  -21.8709    0.4759  -16.0799 H   0  0  0  0  0  0  0  0  0  0  0  0
  -23.5118   -0.8180  -15.3931 H   0  0  0  0  0  0  0  0  0  0  0  0
  -24.4459   -0.8510  -13.5437 C   0  0  0  0  0  0  0  0  0  0  0  0
  -24.0437   -0.9549  -12.2160 C   0  0  0  0  0  0  0  0  0  0  0  0
  -24.9595   -1.3620  -11.2417 C   0  0  0  0  0  0  0  0  0  0  0  0
  -26.2675   -1.7303  -11.5868 C   0  0  0  0  0  0  0  0  0  0  0  0
  -27.2943   -2.2050  -10.2834 Cl  0  0  0  0  0  0  0  0  0  0  0  0
  -26.6792   -1.6926  -12.9214 C   0  0  0  0  0  0  0  0  0  0  0  0
  -25.7540   -1.2256  -13.8889 C   0  0  0  0  0  0  0  0  0  0  0  0
  -28.0468   -2.1089  -13.4019 C   0  0  0  0  0  0  0  0  0  0  0  0
  -29.1050   -1.6729  -12.6681 F   0  0  0  0  0  0  0  0  0  0  0  0
  -28.2960   -1.6984  -14.6776 F   0  0  0  0  0  0  0  0  0  0  0  0
  -28.1753   -3.4684  -13.4268 F   0  0  0  0  0  0  0  0  0  0  0  0
  -16.1013    2.2023  -14.7130 O   0  0  0  0  0  0  0  0  0  0  0  0
  -15.2200    1.2652  -14.2072 C   0  0  0  0  0  0  0  0  0  0  0  0
  -13.8461    1.3164  -14.4252 C   0  0  0  0  0  0  0  0  0  0  0  0
  -13.0878    0.2662  -13.9653 C   0  0  0  0  0  0  0  0  0  0  0  0
  -13.5968   -0.7544  -13.2556 N   0  0  0  0  0  0  0  0  0  0  0  0
  -14.9086   -0.7578  -12.9601 C   0  0  0  0  0  0  0  0  0  0  0  0
  -15.7586    0.2422  -13.4225 C   0  0  0  0  0  0  0  0  0  0  0  0
  -15.4339   -1.7989  -12.1748 N   0  0  0  0  0  0  0  0  0  0  0  0
  -15.8597   -3.0065  -12.6898 C   0  0  0  0  0  0  0  0  0  0  0  0
  -15.8665   -3.3522  -13.8639 O   0  0  0  0  0  0  0  0  0  0  0  0
  -15.5236   -1.6369  -11.1835 H   0  0  0  0  0  0  0  0  0  0  0  0
  -16.3974   -4.0002  -11.7115 C   0  0  0  0  0  0  0  0  0  0  0  0
  -15.5416   -5.1804  -11.3123 C   0  0  0  0  0  0  0  0  0  0  0  0
  -16.8598   -5.4045  -11.9961 C   0  0  0  0  0  0  0  0  0  0  0  0
  1  2  1  0  0  0
  2  3  1  0  0  0
  2  7  2  0  0  0
  3  4  2  0  0  0
  4 25  1  0  0  0
  4  5  1  0  0  0
 25 26  1  0  0  0
 26 27  1  0  0  0
 26 31  2  0  0  0
 27 28  2  0  0  0
 28 29  1  0  0  0
 29 30  2  0  0  0
 30 32  1  0  0  0
 30 31  1  0  0  0
 32 33  1  0  0  0
 32 35  1  0  0  0
 33 34  2  0  0  0
 33 36  1  0  0  0
 36 37  1  0  0  0
 36 38  1  0  0  0
 37 38  1  0  0  0
  5  6  2  0  0  0
  6  7  1  0  0  0
  7  8  1  0  0  0
  8  9  1  0  0  0
  8 12  1  0  0  0
  9 10  2  0  0  0
  9 11  1  0  0  0
 11 14  1  0  0  0
 11 13  1  0  0  0
 14 15  1  0  0  0
 14 20  2  0  0  0
 15 16  2  0  0  0
 16 17  1  0  0  0
 17 18  1  0  0  0
 17 19  2  0  0  0
 19 21  1  0  0  0
 19 20  1  0  0  0
 21 22  1  0  0  0
 21 23  1  0  0  0
 21 24  1  0  0  0
M  END
> <minimizedAffinity>
-10.50175

$$$$
