CHEMBL3981706


 42 46  0  0  0  0  0  0  0  0999 V2000
  -27.6992   -2.0966   -8.7168 N   0  0  0  0  0  0  0  0  0  0  0  0
  -27.2161   -1.4752   -9.9391 C   0  0  0  0  0  0  0  0  0  0  0  0
  -28.0575   -1.5877  -11.0454 C   0  0  0  0  0  0  0  0  0  0  0  0
  -27.5370   -1.6423  -12.3278 C   0  0  0  0  0  0  0  0  0  0  0  0
  -26.2168   -1.3839  -12.5609 C   0  0  0  0  0  0  0  0  0  0  0  0
  -25.8361   -1.6574  -13.8180 N   0  0  0  0  0  0  0  0  0  0  0  0
  -24.6270   -1.2228  -14.1897 C   0  0  0  0  0  0  0  0  0  0  0  0
  -23.8370   -0.4628  -13.3598 C   0  0  0  0  0  0  0  0  0  0  0  0
  -24.1598   -0.3016  -12.0186 N   0  0  0  0  0  0  0  0  0  0  0  0
  -25.3738   -0.8445  -11.5597 C   0  0  0  0  0  0  0  0  0  0  0  0
  -25.9036   -0.9853  -10.2097 C   0  0  0  0  0  0  0  0  0  0  0  0
  -22.7929    0.3111  -14.0424 C   0  0  0  0  0  0  0  0  0  0  0  0
  -21.5567   -0.1397  -14.5847 C   0  0  0  0  0  0  0  0  0  0  0  0
  -20.6997    0.8559  -14.8485 N   0  0  0  0  0  0  0  0  0  0  0  0
  -21.3686    1.9552  -14.4645 N   0  0  0  0  0  0  0  0  0  0  0  0
  -20.8558    3.2700  -14.7774 C   0  0  0  0  0  0  0  0  0  0  0  0
  -22.5541    1.6651  -13.8415 C   0  0  0  0  0  0  0  0  0  0  0  0
  -28.8198    0.1739   -5.9529 C   0  0  0  0  0  0  0  0  0  0  0  0
  -28.7192   -0.6830   -4.8546 C   0  0  0  0  0  0  0  0  0  0  0  0
  -28.1917   -1.9600   -5.0213 C   0  0  0  0  0  0  0  0  0  0  0  0
  -27.7474   -2.3678   -6.2849 C   0  0  0  0  0  0  0  0  0  0  0  0
  -27.8847   -1.5671   -7.4246 C   0  0  0  0  0  0  0  0  0  0  0  0
  -28.3935   -0.2675   -7.2255 C   0  0  0  0  0  0  0  0  0  0  0  0
  -30.7699    1.5517   -6.0961 C   0  0  0  0  0  0  0  0  0  0  0  0
  -29.3589    1.4386   -5.9020 O   0  0  0  0  0  0  0  0  0  0  0  0
  -28.0948   -2.9222   -4.0507 O   0  0  0  0  0  0  0  0  0  0  0  0
  -28.9893   -2.8247   -2.9498 C   0  0  0  0  0  0  0  0  0  0  0  0
  -27.5617   -3.5998   -8.8742 C   0  0  0  0  0  0  0  0  0  0  0  0
  -28.3261   -4.6649   -8.0410 C   0  0  0  0  0  0  0  0  0  0  0  0
  -28.0490   -6.1173   -8.1588 N   0  0  0  0  0  0  0  0  0  0  0  0
  -27.0568   -6.2907   -7.9958 H   0  0  0  0  0  0  0  0  0  0  0  0
  -28.8618   -6.9012   -7.1785 C   0  0  0  0  0  0  0  0  0  0  0  0
  -30.0198   -7.6792   -7.8329 C   0  0  0  0  0  0  0  0  0  0  0  0
  -30.9227   -8.4295   -6.8347 C   0  0  0  0  0  0  0  0  0  0  0  0
  -32.2069   -8.8496   -7.5858 C   0  0  0  0  0  0  0  0  0  0  0  0
  -30.2625   -9.7287   -6.3346 C   0  0  0  0  0  0  0  0  0  0  0  0
  -31.3566   -7.5655   -5.7366 N   0  0  0  0  0  0  0  0  0  0  0  0
  -30.3593   -6.7072   -5.0843 C   0  0  0  0  0  0  0  0  0  0  0  0
  -31.1790   -5.6558   -4.3049 C   0  0  0  0  0  0  0  0  0  0  0  0
  -29.5359   -7.4795   -4.0359 C   0  0  0  0  0  0  0  0  0  0  0  0
  -29.4547   -5.9704   -6.1047 C   0  0  0  0  0  0  0  0  0  0  0  0
  -31.8819   -8.0989   -5.0434 H   0  0  0  0  0  0  0  0  0  0  0  0
 24 25  1  0  0  0
 25 18  1  0  0  0
 18 19  1  0  0  0
 18 23  2  0  0  0
 19 20  2  0  0  0
 20 26  1  0  0  0
 20 21  1  0  0  0
 26 27  1  0  0  0
 21 22  2  0  0  0
 22  1  1  0  0  0
 22 23  1  0  0  0
  1 28  1  0  0  0
  1  2  1  0  0  0
 28 29  1  0  0  0
 29 30  1  0  0  0
 30 32  1  0  0  0
 30 31  1  0  0  0
 32 33  1  0  0  0
 32 41  1  0  0  0
 33 34  1  0  0  0
 34 35  1  0  0  0
 34 36  1  0  0  0
 34 37  1  0  0  0
 37 38  1  0  0  0
 37 42  1  0  0  0
 38 39  1  0  0  0
 38 40  1  0  0  0
 38 41  1  0  0  0
  2  3  1  0  0  0
  2 11  2  0  0  0
  3  4  2  0  0  0
  4  5  1  0  0  0
  5  6  1  0  0  0
  5 10  2  0  0  0
  6  7  2  0  0  0
  7  8  1  0  0  0
  8 12  1  0  0  0
  8  9  2  0  0  0
 12 13  1  0  0  0
 12 17  2  0  0  0
 13 14  2  0  0  0
 14 15  1  0  0  0
 15 16  1  0  0  0
 15 17  1  0  0  0
  9 10  1  0  0  0
 10 11  1  0  0  0
M  END
> <minimizedAffinity>
-10.39246

$$$$
