CHEMBL3589737


 30 33  0  0  0  0  0  0  0  0999 V2000
  -27.8046   -2.2494   -7.9136 C   0  0  0  0  0  0  0  0  0  0  0  0
  -28.3903   -3.4940   -8.0557 C   0  0  0  0  0  0  0  0  0  0  0  0
  -29.4319   -3.8695   -7.2409 C   0  0  0  0  0  0  0  0  0  0  0  0
  -29.8001   -3.1334   -6.1136 C   0  0  0  0  0  0  0  0  0  0  0  0
  -29.2395   -1.8687   -5.9659 C   0  0  0  0  0  0  0  0  0  0  0  0
  -28.2493   -1.4203   -6.8725 C   0  0  0  0  0  0  0  0  0  0  0  0
  -30.7395   -3.6970   -5.2116 N   0  0  0  0  0  0  0  0  0  0  0  0
  -30.2197   -4.5684   -4.3834 C   0  0  0  0  0  0  0  0  0  0  0  0
  -28.8637   -4.4098   -3.6380 C   0  0  0  0  0  0  0  0  0  0  0  0
  -28.4507   -3.4000   -3.1124 O   0  0  0  0  0  0  0  0  0  0  0  0
  -28.2149   -5.6199   -3.7828 N   0  0  0  0  0  0  0  0  0  0  0  0
  -29.0075   -6.5056   -4.5100 C   0  0  0  0  0  0  0  0  0  0  0  0
  -28.5358   -7.5665   -5.2644 C   0  0  0  0  0  0  0  0  0  0  0  0
  -29.4157   -8.1310   -6.1956 C   0  0  0  0  0  0  0  0  0  0  0  0
  -30.7498   -7.6887   -6.3039 C   0  0  0  0  0  0  0  0  0  0  0  0
  -31.2089   -6.6131   -5.5396 C   0  0  0  0  0  0  0  0  0  0  0  0
  -30.3152   -6.0157   -4.6731 C   0  0  0  0  0  0  0  0  0  0  0  0
  -27.2326   -5.7297   -3.5789 H   0  0  0  0  0  0  0  0  0  0  0  0
  -28.0904   -1.5690  -10.6908 O   0  0  0  0  0  0  0  0  0  0  0  0
  -26.9857   -1.6268  -10.1611 C   0  0  0  0  0  0  0  0  0  0  0  0
  -25.8041   -1.4982  -10.8589 N   0  0  0  0  0  0  0  0  0  0  0  0
  -26.7804   -1.8438   -8.7994 N   0  0  0  0  0  0  0  0  0  0  0  0
  -24.9538   -1.4433  -10.3195 H   0  0  0  0  0  0  0  0  0  0  0  0
  -25.9096   -1.5454   -8.3914 H   0  0  0  0  0  0  0  0  0  0  0  0
  -25.6830   -1.4100  -12.2684 C   0  0  0  0  0  0  0  0  0  0  0  0
  -26.6974   -1.7368  -13.1732 C   0  0  0  0  0  0  0  0  0  0  0  0
  -26.4941   -1.6437  -14.5504 C   0  0  0  0  0  0  0  0  0  0  0  0
  -25.2679   -1.2095  -15.0401 C   0  0  0  0  0  0  0  0  0  0  0  0
  -24.2497   -0.8694  -14.1495 C   0  0  0  0  0  0  0  0  0  0  0  0
  -24.4527   -0.9794  -12.7723 C   0  0  0  0  0  0  0  0  0  0  0  0
 19 20  2  0  0  0
 20 21  1  0  0  0
 20 22  1  0  0  0
 21 25  1  0  0  0
 21 23  1  0  0  0
 25 26  1  0  0  0
 25 30  2  0  0  0
 26 27  2  0  0  0
 27 28  1  0  0  0
 28 29  2  0  0  0
 29 30  1  0  0  0
 22  1  1  0  0  0
 22 24  1  0  0  0
  1  2  1  0  0  0
  1  6  2  0  0  0
  2  3  2  0  0  0
  3  4  1  0  0  0
  4  7  1  0  0  0
  4  5  2  0  0  0
  7  8  2  0  0  0
  8  9  1  0  0  0
  8 17  1  0  0  0
  9 10  2  0  0  0
  9 11  1  0  0  0
 11 12  1  0  0  0
 11 18  1  0  0  0
 12 13  1  0  0  0
 12 17  2  0  0  0
 13 14  2  0  0  0
 14 15  1  0  0  0
 15 16  2  0  0  0
 16 17  1  0  0  0
  5  6  1  0  0  0
M  END
> <minimizedAffinity>
-10.16860

$$$$
