CHEMBL3586056


 26 28  0  0  0  0  0  0  0  0999 V2000
  -26.3508   -1.1913   -9.2149 O   0  0  0  0  0  0  0  0  0  0  0  0
  -26.7344   -2.1222   -9.9108 C   0  0  0  0  0  0  0  0  0  0  0  0
  -26.3563   -2.3257  -11.2312 N   0  0  0  0  0  0  0  0  0  0  0  0
  -27.6337   -3.0900   -9.4916 N   0  0  0  0  0  0  0  0  0  0  0  0
  -26.8918   -2.9965  -11.7588 H   0  0  0  0  0  0  0  0  0  0  0  0
  -27.7724   -3.8787  -10.1070 H   0  0  0  0  0  0  0  0  0  0  0  0
  -28.3230   -3.1217   -8.2582 C   0  0  0  0  0  0  0  0  0  0  0  0
  -29.3987   -3.9732   -7.9869 C   0  0  0  0  0  0  0  0  0  0  0  0
  -30.0317   -3.9547   -6.7403 C   0  0  0  0  0  0  0  0  0  0  0  0
  -29.5922   -3.0870   -5.7428 C   0  0  0  0  0  0  0  0  0  0  0  0
  -30.4206   -3.1153   -4.2288 Cl  0  0  0  0  0  0  0  0  0  0  0  0
  -28.5106   -2.2394   -5.9973 C   0  0  0  0  0  0  0  0  0  0  0  0
  -27.8933   -1.1489   -4.8070 Cl  0  0  0  0  0  0  0  0  0  0  0  0
  -27.8819   -2.2568   -7.2504 C   0  0  0  0  0  0  0  0  0  0  0  0
  -25.5204   -1.4713  -11.9844 C   0  0  0  0  0  0  0  0  0  0  0  0
  -25.1041   -1.7501  -13.2839 C   0  0  0  0  0  0  0  0  0  0  0  0
  -24.1652   -0.9352  -13.9255 C   0  0  0  0  0  0  0  0  0  0  0  0
  -23.6288    0.2014  -13.3011 C   0  0  0  0  0  0  0  0  0  0  0  0
  -24.1270    0.5173  -12.0246 C   0  0  0  0  0  0  0  0  0  0  0  0
  -25.0585   -0.3044  -11.3742 C   0  0  0  0  0  0  0  0  0  0  0  0
  -22.5582    0.9929  -13.9447 C   0  0  0  0  0  0  0  0  0  0  0  0
  -21.4284    0.4011  -14.5292 C   0  0  0  0  0  0  0  0  0  0  0  0
  -20.4128    1.1864  -15.0748 C   0  0  0  0  0  0  0  0  0  0  0  0
  -20.5542    2.5611  -15.0391 C   0  0  0  0  0  0  0  0  0  0  0  0
  -21.6189    3.1850  -14.5005 N   0  0  0  0  0  0  0  0  0  0  0  0
  -22.5799    2.3905  -13.9647 C   0  0  0  0  0  0  0  0  0  0  0  0
  1  2  2  0  0  0
  2  3  1  0  0  0
  2  4  1  0  0  0
  3 15  1  0  0  0
  3  5  1  0  0  0
 15 16  1  0  0  0
 15 20  2  0  0  0
 16 17  2  0  0  0
 17 18  1  0  0  0
 18 21  1  0  0  0
 18 19  2  0  0  0
 21 22  1  0  0  0
 21 26  2  0  0  0
 22 23  2  0  0  0
 23 24  1  0  0  0
 24 25  2  0  0  0
 25 26  1  0  0  0
 19 20  1  0  0  0
  4  7  1  0  0  0
  4  6  1  0  0  0
  7  8  1  0  0  0
  7 14  2  0  0  0
  8  9  2  0  0  0
  9 10  1  0  0  0
 10 11  1  0  0  0
 10 12  2  0  0  0
 12 13  1  0  0  0
 12 14  1  0  0  0
M  END
> <minimizedAffinity>
-10.75718

$$$$
