CHEMBL183844


 31 34  0  0  0  0  0  0  0  0999 V2000
  -25.4017   -1.9364  -12.0943 C   0  0  0  0  0  0  0  0  0  0  0  0
  -24.1944   -1.7668  -11.4164 C   0  0  0  0  0  0  0  0  0  0  0  0
  -23.0819   -1.2371  -12.0696 C   0  0  0  0  0  0  0  0  0  0  0  0
  -23.1474   -0.7967  -13.3979 C   0  0  0  0  0  0  0  0  0  0  0  0
  -24.3682   -0.9942  -14.0700 C   0  0  0  0  0  0  0  0  0  0  0  0
  -25.4977   -1.5545  -13.4376 C   0  0  0  0  0  0  0  0  0  0  0  0
  -26.7961   -1.6064  -14.1894 C   0  0  0  0  0  0  0  0  0  0  0  0
  -22.0181   -0.0920  -14.0484 C   0  0  0  0  0  0  0  0  0  0  0  0
  -20.9809   -0.8002  -14.7034 C   0  0  0  0  0  0  0  0  0  0  0  0
  -19.9313   -0.1510  -15.3886 C   0  0  0  0  0  0  0  0  0  0  0  0
  -19.8766    1.2376  -15.4388 C   0  0  0  0  0  0  0  0  0  0  0  0
  -20.8839    1.9268  -14.8004 C   0  0  0  0  0  0  0  0  0  0  0  0
  -21.9353    1.3025  -14.1153 C   0  0  0  0  0  0  0  0  0  0  0  0
  -22.8493    2.3578  -13.5735 C   0  0  0  0  0  0  0  0  0  0  0  0
  -22.2536    3.5823  -14.0388 N   0  0  0  0  0  0  0  0  0  0  0  0
  -21.0842    3.3766  -14.7233 C   0  0  0  0  0  0  0  0  0  0  0  0
  -20.3403    4.2276  -15.1776 O   0  0  0  0  0  0  0  0  0  0  0  0
  -22.5731    4.5111  -13.7933 H   0  0  0  0  0  0  0  0  0  0  0  0
  -27.8315   -2.7651   -9.5322 N   0  0  0  0  0  0  0  0  0  0  0  0
  -26.7376   -2.1135  -10.0805 C   0  0  0  0  0  0  0  0  0  0  0  0
  -26.0489   -1.2752   -9.5080 O   0  0  0  0  0  0  0  0  0  0  0  0
  -26.5158   -2.4777  -11.4030 N   0  0  0  0  0  0  0  0  0  0  0  0
  -28.3551   -3.3835  -10.1300 H   0  0  0  0  0  0  0  0  0  0  0  0
  -27.3539   -2.6183  -11.9436 H   0  0  0  0  0  0  0  0  0  0  0  0
  -27.9276    0.0233   -5.4301 C   0  0  0  0  0  0  0  0  0  0  0  0
  -28.3552   -1.1955   -6.1930 C   0  0  0  0  0  0  0  0  0  0  0  0
  -29.1706   -2.1493   -5.5706 C   0  0  0  0  0  0  0  0  0  0  0  0
  -29.5757   -3.2793   -6.2623 C   0  0  0  0  0  0  0  0  0  0  0  0
  -29.1589   -3.4772   -7.5754 C   0  0  0  0  0  0  0  0  0  0  0  0
  -28.3209   -2.5595   -8.2173 C   0  0  0  0  0  0  0  0  0  0  0  0
  -27.9432   -1.3996   -7.5233 C   0  0  0  0  0  0  0  0  0  0  0  0
 25 26  1  0  0  0
 26 27  1  0  0  0
 26 31  2  0  0  0
 27 28  2  0  0  0
 28 29  1  0  0  0
 29 30  2  0  0  0
 30 19  1  0  0  0
 30 31  1  0  0  0
 19 20  1  0  0  0
 19 23  1  0  0  0
 20 21  2  0  0  0
 20 22  1  0  0  0
 22  1  1  0  0  0
 22 24  1  0  0  0
  1  2  1  0  0  0
  1  6  2  0  0  0
  2  3  2  0  0  0
  3  4  1  0  0  0
  4  8  1  0  0  0
  4  5  2  0  0  0
  8  9  1  0  0  0
  8 13  2  0  0  0
  9 10  2  0  0  0
 10 11  1  0  0  0
 11 12  2  0  0  0
 12 13  1  0  0  0
 12 16  1  0  0  0
 13 14  1  0  0  0
 14 15  1  0  0  0
 15 16  1  0  0  0
 15 18  1  0  0  0
 16 17  2  0  0  0
  5  6  1  0  0  0
  6  7  1  0  0  0
M  END
> <minimizedAffinity>
-11.18249

$$$$
