CHEMBL484876


 30 34  0  0  0  0  0  0  0  0999 V2000
  -17.5234    2.0891  -15.3785 C   0  0  0  0  0  0  0  0  0  0  0  0
  -18.3125    0.9507  -15.4546 C   0  0  0  0  0  0  0  0  0  0  0  0
  -19.6184    1.2684  -14.9954 C   0  0  0  0  0  0  0  0  0  0  0  0
  -20.7892    0.5206  -14.7741 C   0  0  0  0  0  0  0  0  0  0  0  0
  -21.9277    1.1616  -14.2737 C   0  0  0  0  0  0  0  0  0  0  0  0
  -21.9035    2.5310  -13.9987 C   0  0  0  0  0  0  0  0  0  0  0  0
  -20.7495    3.2920  -14.2112 C   0  0  0  0  0  0  0  0  0  0  0  0
  -19.6235    2.6262  -14.6996 C   0  0  0  0  0  0  0  0  0  0  0  0
  -18.3538    3.0954  -14.9355 N   0  0  0  0  0  0  0  0  0  0  0  0
  -18.0435    4.0307  -14.6958 H   0  0  0  0  0  0  0  0  0  0  0  0
  -16.0619    0.6426  -12.9285 O   0  0  0  0  0  0  0  0  0  0  0  0
  -15.1068    0.8639  -13.6436 C   0  0  0  0  0  0  0  0  0  0  0  0
  -13.8192    0.4483  -13.3921 N   0  0  0  0  0  0  0  0  0  0  0  0
  -12.8626    0.9749  -14.3251 C   0  0  0  0  0  0  0  0  0  0  0  0
  -13.7218    1.7633  -15.2554 C   0  0  0  0  0  0  0  0  0  0  0  0
  -13.3322    2.4934  -16.3652 C   0  0  0  0  0  0  0  0  0  0  0  0
  -14.3226    3.1304  -17.1088 C   0  0  0  0  0  0  0  0  0  0  0  0
  -15.6784    3.0083  -16.7527 C   0  0  0  0  0  0  0  0  0  0  0  0
  -16.0901    2.2596  -15.6334 C   0  0  0  0  0  0  0  0  0  0  0  0
  -15.0731    1.6723  -14.8829 C   0  0  0  0  0  0  0  0  0  0  0  0
  -13.5999   -0.0957  -12.5676 H   0  0  0  0  0  0  0  0  0  0  0  0
  -23.0013    0.3393  -14.0357 O   0  0  0  0  0  0  0  0  0  0  0  0
  -23.0798   -0.1382  -12.6909 C   0  0  0  0  0  0  0  0  0  0  0  0
  -23.3839   -1.6445  -12.7021 C   0  0  0  0  0  0  0  0  0  0  0  0
  -24.7656   -1.9544  -12.2855 N   0  0  0  0  0  0  0  0  0  0  0  0
  -25.1021   -1.3296  -10.9974 C   0  0  0  0  0  0  0  0  0  0  0  0
  -26.5055   -1.7229  -10.5438 C   0  0  0  0  0  0  0  0  0  0  0  0
  -27.5454   -1.3579  -11.5916 C   0  0  0  0  0  0  0  0  0  0  0  0
  -27.1520   -1.9278  -12.9497 C   0  0  0  0  0  0  0  0  0  0  0  0
  -25.7202   -1.5423  -13.3283 C   0  0  0  0  0  0  0  0  0  0  0  0
 11 12  2  0  0  0
 12 13  1  0  0  0
 12 20  1  0  0  0
 13 14  1  0  0  0
 13 21  1  0  0  0
 14 15  1  0  0  0
 15 16  1  0  0  0
 15 20  2  0  0  0
 16 17  2  0  0  0
 17 18  1  0  0  0
 18 19  2  0  0  0
 19  1  1  0  0  0
 19 20  1  0  0  0
  1  2  2  0  0  0
  1  9  1  0  0  0
  2  3  1  0  0  0
  3  4  1  0  0  0
  3  8  2  0  0  0
  4  5  2  0  0  0
  5 22  1  0  0  0
  5  6  1  0  0  0
 22 23  1  0  0  0
 23 24  1  0  0  0
 24 25  1  0  0  0
 25 26  1  0  0  0
 25 30  1  0  0  0
 26 27  1  0  0  0
 27 28  1  0  0  0
 28 29  1  0  0  0
 29 30  1  0  0  0
  6  7  2  0  0  0
  7  8  1  0  0  0
  8  9  1  0  0  0
  9 10  1  0  0  0
M  END
> <minimizedAffinity>
-9.56409

$$$$
