CHEMBL1907764


 31 34  0  0  0  0  0  0  0  0999 V2000
  -27.0478   -9.2268   -4.6852 C   0  0  0  0  0  0  0  0  0  0  0  0
  -27.7996   -8.0601   -4.5310 C   0  0  0  0  0  0  0  0  0  0  0  0
  -28.6409   -7.5764   -5.5620 C   0  0  0  0  0  0  0  0  0  0  0  0
  -29.3786   -6.3869   -5.4832 C   0  0  0  0  0  0  0  0  0  0  0  0
  -30.2263   -6.0059   -6.4540 N   0  0  0  0  0  0  0  0  0  0  0  0
  -30.2995   -6.8002   -7.5225 C   0  0  0  0  0  0  0  0  0  0  0  0
  -29.6168   -7.9339   -7.7205 N   0  0  0  0  0  0  0  0  0  0  0  0
  -28.8037   -8.3136   -6.7335 C   0  0  0  0  0  0  0  0  0  0  0  0
  -28.0618   -9.4776   -6.8750 C   0  0  0  0  0  0  0  0  0  0  0  0
  -27.1677   -9.9414   -5.8895 C   0  0  0  0  0  0  0  0  0  0  0  0
  -24.9414   -8.9434   -3.5530 C   0  0  0  0  0  0  0  0  0  0  0  0
  -26.1528   -9.6746   -3.7484 O   0  0  0  0  0  0  0  0  0  0  0  0
  -29.1809   -5.5393   -4.3713 N   0  0  0  0  0  0  0  0  0  0  0  0
  -28.7655   -6.0429   -3.5916 H   0  0  0  0  0  0  0  0  0  0  0  0
  -28.8958   -4.1623   -4.3535 C   0  0  0  0  0  0  0  0  0  0  0  0
  -27.6600   -3.6598   -4.7741 C   0  0  0  0  0  0  0  0  0  0  0  0
  -27.4714   -2.2871   -4.9517 C   0  0  0  0  0  0  0  0  0  0  0  0
  -28.5208   -1.4045   -4.7005 C   0  0  0  0  0  0  0  0  0  0  0  0
  -28.2950    0.4380   -5.0525 Br  0  0  0  0  0  0  0  0  0  0  0  0
  -29.7446   -1.8746   -4.2358 C   0  0  0  0  0  0  0  0  0  0  0  0
  -29.9212   -3.2448   -4.0759 C   0  0  0  0  0  0  0  0  0  0  0  0
  -31.1181   -3.7022   -3.6726 F   0  0  0  0  0  0  0  0  0  0  0  0
  -26.3941  -11.0794   -6.0495 O   0  0  0  0  0  0  0  0  0  0  0  0
  -25.7113  -11.1965   -7.3050 C   0  0  0  0  0  0  0  0  0  0  0  0
  -24.1849  -11.1759   -7.1693 C   0  0  0  0  0  0  0  0  0  0  0  0
  -23.4920  -12.1346   -8.1395 C   0  0  0  0  0  0  0  0  0  0  0  0
  -21.9797  -12.0622   -7.9442 C   0  0  0  0  0  0  0  0  0  0  0  0
  -21.5946  -12.2930   -6.4811 C   0  0  0  0  0  0  0  0  0  0  0  0
  -22.2898  -11.3586   -5.5839 N   0  0  0  0  0  0  0  0  0  0  0  0
  -21.9071  -11.6079   -4.1930 C   0  0  0  0  0  0  0  0  0  0  0  0
  -23.7512  -11.4698   -5.7273 C   0  0  0  0  0  0  0  0  0  0  0  0
 11 12  1  0  0  0
 12  1  1  0  0  0
  1  2  1  0  0  0
  1 10  2  0  0  0
  2  3  2  0  0  0
  3  4  1  0  0  0
  3  8  1  0  0  0
  4 13  1  0  0  0
  4  5  2  0  0  0
 13 15  1  0  0  0
 13 14  1  0  0  0
 15 16  1  0  0  0
 15 21  2  0  0  0
 16 17  2  0  0  0
 17 18  1  0  0  0
 18 19  1  0  0  0
 18 20  2  0  0  0
 20 21  1  0  0  0
 21 22  1  0  0  0
  5  6  1  0  0  0
  6  7  2  0  0  0
  7  8  1  0  0  0
  8  9  2  0  0  0
  9 10  1  0  0  0
 10 23  1  0  0  0
 23 24  1  0  0  0
 24 25  1  0  0  0
 25 26  1  0  0  0
 25 31  1  0  0  0
 26 27  1  0  0  0
 27 28  1  0  0  0
 28 29  1  0  0  0
 29 30  1  0  0  0
 29 31  1  0  0  0
M  END
> <minimizedAffinity>
-7.90761

$$$$
