CHEMBL1940843


 23 25  0  0  0  0  0  0  0  0999 V2000
  -21.4162    0.7628  -12.9142 C   0  0  0  0  0  0  0  0  0  0  0  0
  -22.7497    0.1202  -13.1570 C   0  0  0  0  0  0  0  0  0  0  0  0
  -23.1862   -0.1794  -14.4465 C   0  0  0  0  0  0  0  0  0  0  0  0
  -24.4370   -0.7763  -14.6476 C   0  0  0  0  0  0  0  0  0  0  0  0
  -25.2783   -1.0825  -13.5856 C   0  0  0  0  0  0  0  0  0  0  0  0
  -26.4707   -1.6492  -13.8230 N   0  0  0  0  0  0  0  0  0  0  0  0
  -27.2670   -1.9228  -12.7597 C   0  0  0  0  0  0  0  0  0  0  0  0
  -28.7580   -2.6386  -13.2528 Cl  0  0  0  0  0  0  0  0  0  0  0  0
  -26.9579   -1.6464  -11.4241 C   0  0  0  0  0  0  0  0  0  0  0  0
  -25.6975   -1.0766  -11.2093 C   0  0  0  0  0  0  0  0  0  0  0  0
  -24.8421   -0.7806  -12.2844 C   0  0  0  0  0  0  0  0  0  0  0  0
  -23.5829   -0.1875  -12.0766 C   0  0  0  0  0  0  0  0  0  0  0  0
  -27.8603   -1.9650  -10.2931 C   0  0  0  0  0  0  0  0  0  0  0  0
  -27.5137   -2.6273   -9.1813 C   0  0  0  0  0  0  0  0  0  0  0  0
  -28.5280   -2.9039   -8.1242 C   0  0  0  0  0  0  0  0  0  0  0  0
  -29.3962   -3.7574   -8.2659 O   0  0  0  0  0  0  0  0  0  0  0  0
  -28.3402   -2.1245   -6.8965 C   0  0  0  0  0  0  0  0  0  0  0  0
  -28.2820   -0.6885   -6.7805 C   0  0  0  0  0  0  0  0  0  0  0  0
  -28.0848   -0.2560   -5.4871 C   0  0  0  0  0  0  0  0  0  0  0  0
  -27.9634    1.1393   -4.9775 C   0  0  0  0  0  0  0  0  0  0  0  0
  -27.9874   -1.5656   -4.4000 S   0  0  0  0  0  0  0  0  0  0  0  0
  -28.2099   -2.7162   -5.6463 C   0  0  0  0  0  0  0  0  0  0  0  0
  -28.2137   -4.1736   -5.3094 C   0  0  0  0  0  0  0  0  0  0  0  0
  1  2  1  0  0  0
  2  3  1  0  0  0
  2 12  2  0  0  0
  3  4  2  0  0  0
  4  5  1  0  0  0
  5  6  1  0  0  0
  5 11  2  0  0  0
  6  7  2  0  0  0
  7  8  1  0  0  0
  7  9  1  0  0  0
  9 13  1  0  0  0
  9 10  2  0  0  0
 13 14  2  0  0  0
 14 15  1  0  0  0
 15 16  2  0  0  0
 15 17  1  0  0  0
 17 18  1  0  0  0
 17 22  2  0  0  0
 18 19  2  0  0  0
 19 20  1  0  0  0
 19 21  1  0  0  0
 21 22  1  0  0  0
 22 23  1  0  0  0
 10 11  1  0  0  0
 11 12  1  0  0  0
M  END
> <minimizedAffinity>
-8.96212

$$$$
