CHEMBL3980417


 39 43  0  0  0  0  0  0  0  0999 V2000
  -28.6542   -8.0750   -5.7988 N   0  0  0  0  0  0  0  0  0  0  0  0
  -28.4182   -6.6563   -5.6885 C   0  0  0  0  0  0  0  0  0  0  0  0
  -28.1631   -6.2810   -4.4098 C   0  0  0  0  0  0  0  0  0  0  0  0
  -28.6355   -5.0501   -4.0630 C   0  0  0  0  0  0  0  0  0  0  0  0
  -29.1389   -4.1538   -4.9368 C   0  0  0  0  0  0  0  0  0  0  0  0
  -29.7821   -3.3457   -4.1625 N   0  0  0  0  0  0  0  0  0  0  0  0
  -29.5944   -2.0936   -4.4397 C   0  0  0  0  0  0  0  0  0  0  0  0
  -29.1905   -1.5979   -5.6609 C   0  0  0  0  0  0  0  0  0  0  0  0
  -28.8863   -2.5503   -6.6681 N   0  0  0  0  0  0  0  0  0  0  0  0
  -28.7977   -4.0473   -6.2691 C   0  0  0  0  0  0  0  0  0  0  0  0
  -28.5547   -5.5459   -6.6703 C   0  0  0  0  0  0  0  0  0  0  0  0
  -29.4556   -0.0905   -5.5798 C   0  0  0  0  0  0  0  0  0  0  0  0
  -28.6386    0.7868   -6.4246 C   0  0  0  0  0  0  0  0  0  0  0  0
  -29.2795    1.8062   -6.9815 N   0  0  0  0  0  0  0  0  0  0  0  0
  -30.5140    1.7168   -6.4811 N   0  0  0  0  0  0  0  0  0  0  0  0
  -31.4814    2.6664   -7.0066 C   0  0  0  0  0  0  0  0  0  0  0  0
  -30.6681    0.6256   -5.6185 C   0  0  0  0  0  0  0  0  0  0  0  0
  -29.0825  -10.2393   -8.7987 C   0  0  0  0  0  0  0  0  0  0  0  0
  -30.4696  -10.3768   -8.8589 C   0  0  0  0  0  0  0  0  0  0  0  0
  -31.2604   -9.7372   -7.9091 C   0  0  0  0  0  0  0  0  0  0  0  0
  -30.6523   -8.9619   -6.9112 C   0  0  0  0  0  0  0  0  0  0  0  0
  -29.2614   -8.7782   -6.8549 C   0  0  0  0  0  0  0  0  0  0  0  0
  -28.4903   -9.3942   -7.8495 C   0  0  0  0  0  0  0  0  0  0  0  0
  -28.7645  -10.7135  -11.0531 C   0  0  0  0  0  0  0  0  0  0  0  0
  -28.3575  -10.9675   -9.7070 O   0  0  0  0  0  0  0  0  0  0  0  0
  -32.6285   -9.7716   -7.8603 O   0  0  0  0  0  0  0  0  0  0  0  0
  -33.2611   -8.6961   -7.1764 C   0  0  0  0  0  0  0  0  0  0  0  0
  -27.9182   -8.9505   -4.7077 C   0  0  0  0  0  0  0  0  0  0  0  0
  -26.5037   -9.4937   -4.8291 C   0  0  0  0  0  0  0  0  0  0  0  0
  -25.2904   -9.9596   -4.9333 C   0  0  0  0  0  0  0  0  0  0  0  0
  -23.9687  -10.5099   -5.0766 C   0  0  0  0  0  0  0  0  0  0  0  0
  -23.0974  -10.0975   -6.0849 C   0  0  0  0  0  0  0  0  0  0  0  0
  -21.8628  -10.7521   -6.2233 C   0  0  0  0  0  0  0  0  0  0  0  0
  -21.5538  -11.7729   -5.3205 C   0  0  0  0  0  0  0  0  0  0  0  0
  -22.4682  -12.0871   -4.3297 C   0  0  0  0  0  0  0  0  0  0  0  0
  -23.6691  -11.4828   -4.1902 N   0  0  0  0  0  0  0  0  0  0  0  0
  -20.9115  -10.4426   -7.3512 C   0  0  0  0  0  0  0  0  0  0  0  0
  -20.3830   -9.1262   -7.2434 O   0  0  0  0  0  0  0  0  0  0  0  0
  -21.0603   -8.5645   -6.8306 H   0  0  0  0  0  0  0  0  0  0  0  0
 24 25  1  0  0  0
 25 18  1  0  0  0
 18 19  1  0  0  0
 18 23  2  0  0  0
 19 20  2  0  0  0
 20 26  1  0  0  0
 20 21  1  0  0  0
 26 27  1  0  0  0
 21 22  2  0  0  0
 22  1  1  0  0  0
 22 23  1  0  0  0
  1 28  1  0  0  0
  1  2  1  0  0  0
 28 29  1  0  0  0
 29 30  3  0  0  0
 30 31  1  0  0  0
 31 32  1  0  0  0
 31 36  2  0  0  0
 32 33  2  0  0  0
 33 37  1  0  0  0
 33 34  1  0  0  0
 37 38  1  0  0  0
 38 39  1  0  0  0
 34 35  2  0  0  0
 35 36  1  0  0  0
  2  3  1  0  0  0
  2 11  2  0  0  0
  3  4  2  0  0  0
  4  5  1  0  0  0
  5  6  1  0  0  0
  5 10  2  0  0  0
  6  7  2  0  0  0
  7  8  1  0  0  0
  8 12  1  0  0  0
  8  9  2  0  0  0
 12 13  1  0  0  0
 12 17  2  0  0  0
 13 14  2  0  0  0
 14 15  1  0  0  0
 15 16  1  0  0  0
 15 17  1  0  0  0
  9 10  1  0  0  0
 10 11  1  0  0  0
M  END
> <minimizedAffinity>
-9.37988

$$$$
