CHEMBL3986713


 40 44  0  0  0  0  0  0  0  0999 V2000
  -29.2893   -4.4575   -4.0137 C   0  0  0  0  0  0  0  0  0  0  0  0
  -28.0434   -4.5712   -3.5185 N   0  0  0  0  0  0  0  0  0  0  0  0
  -27.5597   -5.6554   -4.1323 N   0  0  0  0  0  0  0  0  0  0  0  0
  -28.4707   -6.2638   -4.9491 C   0  0  0  0  0  0  0  0  0  0  0  0
  -28.3153   -7.2181   -5.9527 C   0  0  0  0  0  0  0  0  0  0  0  0
  -29.4767   -7.7282   -6.5558 C   0  0  0  0  0  0  0  0  0  0  0  0
  -30.7362   -7.2746   -6.1385 C   0  0  0  0  0  0  0  0  0  0  0  0
  -30.8581   -6.2133   -5.2225 C   0  0  0  0  0  0  0  0  0  0  0  0
  -29.6905   -5.6673   -4.6565 C   0  0  0  0  0  0  0  0  0  0  0  0
  -26.5775   -5.8788   -4.0111 H   0  0  0  0  0  0  0  0  0  0  0  0
  -29.0728   -2.0743   -4.3054 C   0  0  0  0  0  0  0  0  0  0  0  0
  -29.8686   -3.1613   -4.2901 C   0  0  0  0  0  0  0  0  0  0  0  0
  -28.5181   -0.9834   -6.4700 C   0  0  0  0  0  0  0  0  0  0  0  0
  -28.4634    0.1645   -7.2673 C   0  0  0  0  0  0  0  0  0  0  0  0
  -29.0990    1.3352   -6.8506 C   0  0  0  0  0  0  0  0  0  0  0  0
  -29.8135    1.3611   -5.6523 C   0  0  0  0  0  0  0  0  0  0  0  0
  -29.8666    0.2298   -4.8362 C   0  0  0  0  0  0  0  0  0  0  0  0
  -29.2009   -0.9346   -5.2215 C   0  0  0  0  0  0  0  0  0  0  0  0
  -27.8985   -4.2025   -7.9806 O   0  0  0  0  0  0  0  0  0  0  0  0
  -28.4569   -3.1386   -7.7364 C   0  0  0  0  0  0  0  0  0  0  0  0
  -27.9369   -2.2045   -6.8900 N   0  0  0  0  0  0  0  0  0  0  0  0
  -27.0149   -2.4398   -6.5358 H   0  0  0  0  0  0  0  0  0  0  0  0
  -29.3965   -8.6922   -7.7032 C   0  0  0  0  0  0  0  0  0  0  0  0
  -30.3530   -8.8166   -8.4629 O   0  0  0  0  0  0  0  0  0  0  0  0
  -28.1551   -9.4653   -7.9817 C   0  0  0  0  0  0  0  0  0  0  0  0
  -27.7400   -9.6649   -9.3017 C   0  0  0  0  0  0  0  0  0  0  0  0
  -26.6963  -10.5331   -9.5812 C   0  0  0  0  0  0  0  0  0  0  0  0
  -25.9889  -11.1090   -8.5325 C   0  0  0  0  0  0  0  0  0  0  0  0
  -26.2767  -10.7967   -7.1975 C   0  0  0  0  0  0  0  0  0  0  0  0
  -27.4048  -10.0120   -6.9217 C   0  0  0  0  0  0  0  0  0  0  0  0
  -25.4509  -11.2330   -6.1236 N   0  0  0  0  0  0  0  0  0  0  0  0
  -24.2546  -10.6094   -5.7621 C   0  0  0  0  0  0  0  0  0  0  0  0
  -23.7655   -9.6256   -6.3103 O   0  0  0  0  0  0  0  0  0  0  0  0
  -25.8523  -11.8994   -5.4809 H   0  0  0  0  0  0  0  0  0  0  0  0
  -23.5352  -11.1413   -4.5805 C   0  0  0  0  0  0  0  0  0  0  0  0
  -22.1639  -11.3971   -4.5591 C   0  0  0  0  0  0  0  0  0  0  0  0
  -21.5534  -11.8031   -3.3672 C   0  0  0  0  0  0  0  0  0  0  0  0
  -22.3071  -11.9567   -2.2005 C   0  0  0  0  0  0  0  0  0  0  0  0
  -23.6770  -11.7096   -2.2148 C   0  0  0  0  0  0  0  0  0  0  0  0
  -24.2877  -11.3020   -3.3974 C   0  0  0  0  0  0  0  0  0  0  0  0
 19 20  2  0  0  0
 20 21  1  0  0  0
 21 13  1  0  0  0
 21 22  1  0  0  0
 13 14  1  0  0  0
 13 18  2  0  0  0
 14 15  2  0  0  0
 15 16  1  0  0  0
 16 17  2  0  0  0
 17 18  1  0  0  0
 18 11  1  0  0  0
 11 12  2  0  0  0
 12  1  1  0  0  0
  1  2  2  0  0  0
  1  9  1  0  0  0
  2  3  1  0  0  0
  3  4  1  0  0  0
  3 10  1  0  0  0
  4  5  1  0  0  0
  4  9  2  0  0  0
  5  6  2  0  0  0
  6 23  1  0  0  0
  6  7  1  0  0  0
 23 24  2  0  0  0
 23 25  1  0  0  0
 25 26  1  0  0  0
 25 30  2  0  0  0
 26 27  2  0  0  0
 27 28  1  0  0  0
 28 29  2  0  0  0
 29 31  1  0  0  0
 29 30  1  0  0  0
 31 32  1  0  0  0
 31 34  1  0  0  0
 32 33  2  0  0  0
 32 35  1  0  0  0
 35 36  1  0  0  0
 35 40  2  0  0  0
 36 37  2  0  0  0
 37 38  1  0  0  0
 38 39  2  0  0  0
 39 40  1  0  0  0
  7  8  2  0  0  0
  8  9  1  0  0  0
M  END
> <minimizedAffinity>
-10.12761

$$$$
