CHEMBL3914717


 45 50  0  0  0  0  0  0  0  0999 V2000
  -28.6927   -3.6699   -7.4282 C   0  0  0  0  0  0  0  0  0  0  0  0
  -28.1591   -4.3583   -8.5152 C   0  0  0  0  0  0  0  0  0  0  0  0
  -27.3632   -3.7089   -9.4428 C   0  0  0  0  0  0  0  0  0  0  0  0
  -27.2329   -2.3161   -9.4706 C   0  0  0  0  0  0  0  0  0  0  0  0
  -27.8228   -1.5742   -8.3798 C   0  0  0  0  0  0  0  0  0  0  0  0
  -27.7104   -0.1660   -8.2369 C   0  0  0  0  0  0  0  0  0  0  0  0
  -28.0827    0.5169   -7.0781 C   0  0  0  0  0  0  0  0  0  0  0  0
  -28.6864   -0.1732   -6.0468 C   0  0  0  0  0  0  0  0  0  0  0  0
  -28.9347   -1.5364   -6.1891 C   0  0  0  0  0  0  0  0  0  0  0  0
  -28.5161   -2.2672   -7.3293 C   0  0  0  0  0  0  0  0  0  0  0  0
  -26.4252   -1.7154  -10.5791 C   0  0  0  0  0  0  0  0  0  0  0  0
  -25.1199   -1.2153  -10.3386 C   0  0  0  0  0  0  0  0  0  0  0  0
  -24.3656   -0.5652  -11.3091 C   0  0  0  0  0  0  0  0  0  0  0  0
  -24.8256   -0.4650  -12.6140 C   0  0  0  0  0  0  0  0  0  0  0  0
  -26.0451   -1.0882  -12.9141 C   0  0  0  0  0  0  0  0  0  0  0  0
  -26.6741   -1.3004  -14.1090 N   0  0  0  0  0  0  0  0  0  0  0  0
  -27.8629   -1.8908  -14.0245 N   0  0  0  0  0  0  0  0  0  0  0  0
  -28.0093   -2.1183  -12.7252 C   0  0  0  0  0  0  0  0  0  0  0  0
  -29.1188   -2.7324  -12.2964 N   0  0  0  0  0  0  0  0  0  0  0  0
  -26.8759   -1.6797  -11.9456 C   0  0  0  0  0  0  0  0  0  0  0  0
  -26.3439   -1.0603  -15.0325 H   0  0  0  0  0  0  0  0  0  0  0  0
  -29.8284   -2.9420  -12.9885 H   0  0  0  0  0  0  0  0  0  0  0  0
  -29.4699   -2.6161  -11.3552 H   0  0  0  0  0  0  0  0  0  0  0  0
  -23.9580    0.1609  -13.4890 O   0  0  0  0  0  0  0  0  0  0  0  0
  -22.5838    0.1339  -13.1188 C   0  0  0  0  0  0  0  0  0  0  0  0
  -21.7299    0.1127  -14.3815 C   0  0  0  0  0  0  0  0  0  0  0  0
  -21.2168    1.5265  -14.6683 C   0  0  0  0  0  0  0  0  0  0  0  0
  -19.9281    1.8438  -14.0392 N   0  0  0  0  0  0  0  0  0  0  0  0
  -19.6380    3.2853  -14.1597 C   0  0  0  0  0  0  0  0  0  0  0  0
  -18.9892    3.4352  -15.5288 C   0  0  0  0  0  0  0  0  0  0  0  0
  -18.1791    2.1611  -15.6797 C   0  0  0  0  0  0  0  0  0  0  0  0
  -18.7768    1.1817  -14.6758 C   0  0  0  0  0  0  0  0  0  0  0  0
  -29.6222   -6.4686   -5.3040 N   0  0  0  0  0  0  0  0  0  0  0  0
  -29.0294   -5.8180   -6.3651 C   0  0  0  0  0  0  0  0  0  0  0  0
  -28.2991   -6.3521   -7.1943 O   0  0  0  0  0  0  0  0  0  0  0  0
  -29.3021   -4.4502   -6.3955 N   0  0  0  0  0  0  0  0  0  0  0  0
  -30.3383   -5.9837   -4.7869 H   0  0  0  0  0  0  0  0  0  0  0  0
  -29.4169   -4.0206   -5.4919 H   0  0  0  0  0  0  0  0  0  0  0  0
  -30.1911  -11.2596   -6.5321 C   0  0  0  0  0  0  0  0  0  0  0  0
  -29.6956  -10.2027   -5.5948 C   0  0  0  0  0  0  0  0  0  0  0  0
  -29.0413  -10.5830   -4.4165 C   0  0  0  0  0  0  0  0  0  0  0  0
  -28.5743   -9.6247   -3.5279 C   0  0  0  0  0  0  0  0  0  0  0  0
  -28.7681   -8.2706   -3.8182 C   0  0  0  0  0  0  0  0  0  0  0  0
  -29.4121   -7.8473   -4.9887 C   0  0  0  0  0  0  0  0  0  0  0  0
  -29.8766   -8.8286   -5.8745 C   0  0  0  0  0  0  0  0  0  0  0  0
 39 40  1  0  0  0
 40 41  1  0  0  0
 40 45  2  0  0  0
 41 42  2  0  0  0
 42 43  1  0  0  0
 43 44  2  0  0  0
 44 33  1  0  0  0
 44 45  1  0  0  0
 33 34  1  0  0  0
 33 37  1  0  0  0
 34 35  2  0  0  0
 34 36  1  0  0  0
 36  1  1  0  0  0
 36 38  1  0  0  0
  1  2  1  0  0  0
  1 10  2  0  0  0
  2  3  2  0  0  0
  3  4  1  0  0  0
  4 11  1  0  0  0
  4  5  2  0  0  0
 11 12  1  0  0  0
 11 20  2  0  0  0
 12 13  2  0  0  0
 13 14  1  0  0  0
 14 24  1  0  0  0
 14 15  2  0  0  0
 24 25  1  0  0  0
 25 26  1  0  0  0
 26 27  1  0  0  0
 27 28  1  0  0  0
 28 29  1  0  0  0
 28 32  1  0  0  0
 29 30  1  0  0  0
 30 31  1  0  0  0
 31 32  1  0  0  0
 15 16  1  0  0  0
 15 20  1  0  0  0
 16 17  1  0  0  0
 16 21  1  0  0  0
 17 18  2  0  0  0
 18 19  1  0  0  0
 18 20  1  0  0  0
 19 22  1  0  0  0
 19 23  1  0  0  0
  5  6  1  0  0  0
  5 10  1  0  0  0
  6  7  2  0  0  0
  7  8  1  0  0  0
  8  9  2  0  0  0
  9 10  1  0  0  0
M  END
> <minimizedAffinity>
-6.81468

$$$$
