CHEMBL2012881


 24 27  0  0  0  0  0  0  0  0999 V2000
  -27.3838   -2.7577   -8.7580 O   0  0  0  0  0  0  0  0  0  0  0  0
  -27.9012   -2.2231   -7.7901 C   0  0  0  0  0  0  0  0  0  0  0  0
  -27.8110   -0.8623   -7.4874 N   0  0  0  0  0  0  0  0  0  0  0  0
  -28.4649   -0.5774   -6.3185 N   0  0  0  0  0  0  0  0  0  0  0  0
  -28.9343   -1.7301   -5.9489 C   0  0  0  0  0  0  0  0  0  0  0  0
  -29.7238   -1.9848   -4.7379 C   0  0  0  0  0  0  0  0  0  0  0  0
  -30.1313   -3.2302   -4.4363 C   0  0  0  0  0  0  0  0  0  0  0  0
  -29.7672   -4.3545   -5.3467 C   0  0  0  0  0  0  0  0  0  0  0  0
  -30.1237   -5.6781   -5.0679 C   0  0  0  0  0  0  0  0  0  0  0  0
  -29.8198   -6.7073   -5.9636 C   0  0  0  0  0  0  0  0  0  0  0  0
  -29.1477   -6.4501   -7.1629 C   0  0  0  0  0  0  0  0  0  0  0  0
  -28.7517   -5.1340   -7.4364 C   0  0  0  0  0  0  0  0  0  0  0  0
  -29.0480   -4.0923   -6.5380 C   0  0  0  0  0  0  0  0  0  0  0  0
  -28.6523   -2.7650   -6.7745 N   0  0  0  0  0  0  0  0  0  0  0  0
  -27.3052   -0.1650   -8.0177 H   0  0  0  0  0  0  0  0  0  0  0  0
  -28.8931   -7.5564   -8.0903 C   0  0  0  0  0  0  0  0  0  0  0  0
  -29.6796   -8.6578   -8.3949 C   0  0  0  0  0  0  0  0  0  0  0  0
  -28.9614   -9.4905   -9.2842 C   0  0  0  0  0  0  0  0  0  0  0  0
  -27.7575   -8.8749   -9.5237 C   0  0  0  0  0  0  0  0  0  0  0  0
  -27.7317   -7.6980   -8.8210 N   0  0  0  0  0  0  0  0  0  0  0  0
  -26.9558   -7.0494   -8.8066 H   0  0  0  0  0  0  0  0  0  0  0  0
  -30.9268   -3.4754   -3.1814 C   0  0  0  0  0  0  0  0  0  0  0  0
  -30.3206   -2.8389   -2.0654 O   0  0  0  0  0  0  0  0  0  0  0  0
  -29.4087   -3.1703   -2.0026 H   0  0  0  0  0  0  0  0  0  0  0  0
  1  2  2  0  0  0
  2  3  1  0  0  0
  2 14  1  0  0  0
  3  4  1  0  0  0
  3 15  1  0  0  0
  4  5  2  0  0  0
  5  6  1  0  0  0
  5 14  1  0  0  0
  6  7  2  0  0  0
  7 22  1  0  0  0
  7  8  1  0  0  0
 22 23  1  0  0  0
 23 24  1  0  0  0
  8  9  1  0  0  0
  8 13  2  0  0  0
  9 10  2  0  0  0
 10 11  1  0  0  0
 11 16  1  0  0  0
 11 12  2  0  0  0
 16 17  2  0  0  0
 16 20  1  0  0  0
 17 18  1  0  0  0
 18 19  2  0  0  0
 19 20  1  0  0  0
 20 21  1  0  0  0
 12 13  1  0  0  0
 13 14  1  0  0  0
M  END
> <minimizedAffinity>
-8.39213

$$$$
