CHEMBL1975212


 18 20  0  0  0  0  0  0  0  0999 V2000
  -30.6665   -3.1630   -2.9533 N   0  0  0  0  0  0  0  0  0  0  0  0
  -30.5899   -4.1923   -3.8826 C   0  0  0  0  0  0  0  0  0  0  0  0
  -31.1363   -5.3536   -3.4769 N   0  0  0  0  0  0  0  0  0  0  0  0
  -31.1463   -6.3928   -4.3191 C   0  0  0  0  0  0  0  0  0  0  0  0
  -30.6740   -6.4240   -5.5629 N   0  0  0  0  0  0  0  0  0  0  0  0
  -30.1208   -5.2580   -5.9324 C   0  0  0  0  0  0  0  0  0  0  0  0
  -29.4684   -5.1055   -7.4941 S   0  0  0  0  0  0  0  0  0  0  0  0
  -28.9843   -3.5015   -7.1952 C   0  0  0  0  0  0  0  0  0  0  0  0
  -29.3230   -3.0526   -5.9277 C   0  0  0  0  0  0  0  0  0  0  0  0
  -30.0153   -4.0967   -5.1712 C   0  0  0  0  0  0  0  0  0  0  0  0
  -31.2956   -3.4235   -2.2016 H   0  0  0  0  0  0  0  0  0  0  0  0
  -30.8311   -2.2503   -3.3592 H   0  0  0  0  0  0  0  0  0  0  0  0
  -28.9756   -1.6803   -5.5255 C   0  0  0  0  0  0  0  0  0  0  0  0
  -27.6822   -1.3629   -5.0754 C   0  0  0  0  0  0  0  0  0  0  0  0
  -27.3366   -0.0469   -4.7514 C   0  0  0  0  0  0  0  0  0  0  0  0
  -28.2690    0.9756   -4.8995 C   0  0  0  0  0  0  0  0  0  0  0  0
  -29.5626    0.6736   -5.3135 C   0  0  0  0  0  0  0  0  0  0  0  0
  -29.9207   -0.6496   -5.5867 C   0  0  0  0  0  0  0  0  0  0  0  0
  1  2  1  0  0  0
  1 11  1  0  0  0
  1 12  1  0  0  0
  2  3  1  0  0  0
  2 10  2  0  0  0
  3  4  2  0  0  0
  4  5  1  0  0  0
  5  6  2  0  0  0
  6  7  1  0  0  0
  6 10  1  0  0  0
  7  8  1  0  0  0
  8  9  2  0  0  0
  9 13  1  0  0  0
  9 10  1  0  0  0
 13 14  1  0  0  0
 13 18  2  0  0  0
 14 15  2  0  0  0
 15 16  1  0  0  0
 16 17  2  0  0  0
 17 18  1  0  0  0
M  END
> <minimizedAffinity>
-7.10317

$$$$
