CHEMBL3656062


 41 44  0  0  0  0  0  0  0  0999 V2000
  -23.2525   -0.8706  -14.3899 O   0  0  0  0  0  0  0  0  0  0  0  0
  -20.6976    1.7732  -14.4739 C   0  0  0  0  0  0  0  0  0  0  0  0
  -21.2360    0.4962  -14.5467 C   0  0  0  0  0  0  0  0  0  0  0  0
  -22.5838    0.3244  -14.2388 C   0  0  0  0  0  0  0  0  0  0  0  0
  -23.3141    1.3948  -13.7421 C   0  0  0  0  0  0  0  0  0  0  0  0
  -22.6786    2.6200  -13.6435 C   0  0  0  0  0  0  0  0  0  0  0  0
  -21.3963    2.8365  -14.0134 N   0  0  0  0  0  0  0  0  0  0  0  0
  -17.0979    1.7504  -15.5490 C   0  0  0  0  0  0  0  0  0  0  0  0
  -18.2606    1.1474  -15.1019 C   0  0  0  0  0  0  0  0  0  0  0  0
  -19.3589    2.0599  -14.9810 C   0  0  0  0  0  0  0  0  0  0  0  0
  -18.9745    3.3379  -15.3424 C   0  0  0  0  0  0  0  0  0  0  0  0
  -17.3458    3.4224  -15.8384 S   0  0  0  0  0  0  0  0  0  0  0  0
  -15.2728    0.4758  -14.6710 N   0  0  0  0  0  0  0  0  0  0  0  0
  -15.8017    1.1207  -15.7630 C   0  0  0  0  0  0  0  0  0  0  0  0
  -15.2039    1.1464  -16.8363 O   0  0  0  0  0  0  0  0  0  0  0  0
  -15.8044    0.4522  -13.8058 H   0  0  0  0  0  0  0  0  0  0  0  0
  -13.9945   -0.2064  -14.7054 C   0  0  0  0  0  0  0  0  0  0  0  0
  -13.2115    0.1165  -13.4433 C   0  0  0  0  0  0  0  0  0  0  0  0
  -12.3136   -0.5837  -12.9883 O   0  0  0  0  0  0  0  0  0  0  0  0
  -12.6119    2.2504  -12.6973 C   0  0  0  0  0  0  0  0  0  0  0  0
  -13.6466    1.2875  -12.9019 O   0  0  0  0  0  0  0  0  0  0  0  0
  -24.2238   -1.2054  -13.4773 C   0  0  0  0  0  0  0  0  0  0  0  0
  -23.8015   -1.4415  -12.1765 C   0  0  0  0  0  0  0  0  0  0  0  0
  -24.7196   -1.8578  -11.2020 C   0  0  0  0  0  0  0  0  0  0  0  0
  -26.0706   -2.0529  -11.5226 C   0  0  0  0  0  0  0  0  0  0  0  0
  -26.4958   -1.7482  -12.8152 C   0  0  0  0  0  0  0  0  0  0  0  0
  -25.5826   -1.2966  -13.7776 C   0  0  0  0  0  0  0  0  0  0  0  0
  -27.0223   -2.5623  -10.6072 N   0  0  0  0  0  0  0  0  0  0  0  0
  -27.2523   -2.0859   -9.3247 C   0  0  0  0  0  0  0  0  0  0  0  0
  -26.7148   -1.1010   -8.8408 O   0  0  0  0  0  0  0  0  0  0  0  0
  -28.1566   -2.8761   -8.6273 N   0  0  0  0  0  0  0  0  0  0  0  0
  -27.6410   -3.2887  -10.9355 H   0  0  0  0  0  0  0  0  0  0  0  0
  -28.0314   -3.8702   -8.7675 H   0  0  0  0  0  0  0  0  0  0  0  0
  -28.4862   -2.5029   -7.2983 C   0  0  0  0  0  0  0  0  0  0  0  0
  -28.2971   -1.1893   -6.8464 C   0  0  0  0  0  0  0  0  0  0  0  0
  -28.5343   -0.8532   -5.5068 C   0  0  0  0  0  0  0  0  0  0  0  0
  -28.3306    0.5537   -5.0263 C   0  0  0  0  0  0  0  0  0  0  0  0
  -28.9501   -1.8522   -4.6159 C   0  0  0  0  0  0  0  0  0  0  0  0
  -29.1586   -3.1583   -5.0671 C   0  0  0  0  0  0  0  0  0  0  0  0
  -28.9497   -3.4690   -6.4074 C   0  0  0  0  0  0  0  0  0  0  0  0
  -29.1224   -4.7339   -6.8253 F   0  0  0  0  0  0  0  0  0  0  0  0
 20 21  1  0  0  0
 21 18  1  0  0  0
 18 19  2  0  0  0
 18 17  1  0  0  0
 17 13  1  0  0  0
 13 14  1  0  0  0
 13 16  1  0  0  0
 14 15  2  0  0  0
 14  8  1  0  0  0
  8  9  2  0  0  0
  8 12  1  0  0  0
  9 10  1  0  0  0
 10  2  1  0  0  0
 10 11  2  0  0  0
  2  3  1  0  0  0
  2  7  2  0  0  0
  3  4  2  0  0  0
  4  1  1  0  0  0
  4  5  1  0  0  0
  1 22  1  0  0  0
 22 23  1  0  0  0
 22 27  2  0  0  0
 23 24  2  0  0  0
 24 25  1  0  0  0
 25 28  1  0  0  0
 25 26  2  0  0  0
 28 29  1  0  0  0
 28 32  1  0  0  0
 29 30  2  0  0  0
 29 31  1  0  0  0
 31 34  1  0  0  0
 31 33  1  0  0  0
 34 35  1  0  0  0
 34 40  2  0  0  0
 35 36  2  0  0  0
 36 37  1  0  0  0
 36 38  1  0  0  0
 38 39  2  0  0  0
 39 40  1  0  0  0
 40 41  1  0  0  0
 26 27  1  0  0  0
  5  6  2  0  0  0
  6  7  1  0  0  0
 11 12  1  0  0  0
M  END
> <minimizedAffinity>
-11.10449

$$$$
