CHEMBL2071272


 34 37  0  0  0  0  0  0  0  0999 V2000
  -28.9304   -6.9802   -5.3359 C   0  0  0  0  0  0  0  0  0  0  0  0
  -29.3312   -7.3820   -4.1204 N   0  0  0  0  0  0  0  0  0  0  0  0
  -30.2157   -6.5820   -3.5051 C   0  0  0  0  0  0  0  0  0  0  0  0
  -30.6836   -5.4018   -4.0348 C   0  0  0  0  0  0  0  0  0  0  0  0
  -31.9917   -4.6422   -3.2183 Cl  0  0  0  0  0  0  0  0  0  0  0  0
  -30.0732   -4.9670   -5.2095 C   0  0  0  0  0  0  0  0  0  0  0  0
  -29.2267   -5.7725   -5.8660 N   0  0  0  0  0  0  0  0  0  0  0  0
  -28.1878   -7.9269   -6.0396 N   0  0  0  0  0  0  0  0  0  0  0  0
  -27.2707   -7.9971   -5.6165 H   0  0  0  0  0  0  0  0  0  0  0  0
  -29.3615  -10.3647   -8.2509 N   0  0  0  0  0  0  0  0  0  0  0  0
  -29.0153  -10.0126   -6.9825 C   0  0  0  0  0  0  0  0  0  0  0  0
  -28.5689   -8.7185   -7.0557 C   0  0  0  0  0  0  0  0  0  0  0  0
  -28.5867   -8.4053   -8.4273 C   0  0  0  0  0  0  0  0  0  0  0  0
  -29.0768   -9.4054   -9.1707 N   0  0  0  0  0  0  0  0  0  0  0  0
  -30.0836  -11.5669   -8.6279 C   0  0  0  0  0  0  0  0  0  0  0  0
  -32.0925  -10.1551   -8.7276 N   0  0  0  0  0  0  0  0  0  0  0  0
  -31.5854  -11.4138   -8.6075 C   0  0  0  0  0  0  0  0  0  0  0  0
  -32.3393  -12.3630   -8.3933 O   0  0  0  0  0  0  0  0  0  0  0  0
  -33.0943  -10.0309   -8.7576 H   0  0  0  0  0  0  0  0  0  0  0  0
  -31.4852   -9.3880   -9.0188 H   0  0  0  0  0  0  0  0  0  0  0  0
  -30.2455   -3.6796   -5.7770 N   0  0  0  0  0  0  0  0  0  0  0  0
  -30.5075   -3.8177   -6.7641 H   0  0  0  0  0  0  0  0  0  0  0  0
  -29.1001   -2.7829   -5.6167 C   0  0  0  0  0  0  0  0  0  0  0  0
  -27.9895   -2.6592   -6.7100 C   0  0  0  0  0  0  0  0  0  0  0  0
  -27.6433   -1.1446   -6.5932 C   0  0  0  0  0  0  0  0  0  0  0  0
  -27.3220   -0.7534   -5.1565 C   0  0  0  0  0  0  0  0  0  0  0  0
  -28.4785   -0.7375   -4.4751 C   0  0  0  0  0  0  0  0  0  0  0  0
  -29.5325   -1.2811   -5.4149 C   0  0  0  0  0  0  0  0  0  0  0  0
  -29.0544   -0.5548   -6.6746 C   0  0  0  0  0  0  0  0  0  0  0  0
  -28.3842   -3.0410   -8.1339 C   0  0  0  0  0  0  0  0  0  0  0  0
  -27.4845   -2.7402   -9.1201 N   0  0  0  0  0  0  0  0  0  0  0  0
  -29.4050   -3.6620   -8.4149 O   0  0  0  0  0  0  0  0  0  0  0  0
  -26.6387   -2.2051   -8.9840 H   0  0  0  0  0  0  0  0  0  0  0  0
  -27.7412   -2.9662  -10.0742 H   0  0  0  0  0  0  0  0  0  0  0  0
 16 17  1  0  0  0
 16 19  1  0  0  0
 16 20  1  0  0  0
 17 18  2  0  0  0
 17 15  1  0  0  0
 15 10  1  0  0  0
 10 11  1  0  0  0
 10 14  1  0  0  0
 11 12  2  0  0  0
 12  8  1  0  0  0
 12 13  1  0  0  0
  8  1  1  0  0  0
  8  9  1  0  0  0
  1  2  1  0  0  0
  1  7  2  0  0  0
  2  3  2  0  0  0
  3  4  1  0  0  0
  4  5  1  0  0  0
  4  6  2  0  0  0
  6 21  1  0  0  0
  6  7  1  0  0  0
 21 22  1  0  0  0
 23 24  1  0  0  0
 23 28  1  0  0  0
 23 21  1  0  0  0
 24 30  1  0  0  0
 24 25  1  0  0  0
 30 31  1  0  0  0
 30 32  2  0  0  0
 31 33  1  0  0  0
 31 34  1  0  0  0
 25 26  1  0  0  0
 25 29  1  0  0  0
 26 27  2  0  0  0
 27 28  1  0  0  0
 28 29  1  0  0  0
 13 14  2  0  0  0
M  END
> <minimizedAffinity>
-8.35631

$$$$
