CHEMBL2016921


 33 37  0  0  0  0  0  0  0  0999 V2000
  -27.0007   -1.8692   -9.6864 C   0  0  0  0  0  0  0  0  0  0  0  0
  -27.2146   -1.0895   -8.6335 N   0  0  0  0  0  0  0  0  0  0  0  0
  -27.8952   -1.8640   -7.7354 C   0  0  0  0  0  0  0  0  0  0  0  0
  -28.0881   -3.1165   -8.2295 C   0  0  0  0  0  0  0  0  0  0  0  0
  -27.5244   -3.1222   -9.4649 N   0  0  0  0  0  0  0  0  0  0  0  0
  -28.7247   -4.2562   -7.5917 C   0  0  0  0  0  0  0  0  0  0  0  0
  -29.2413   -3.9217   -6.2656 N   0  0  0  0  0  0  0  0  0  0  0  0
  -29.9066   -4.8964   -5.5144 C   0  0  0  0  0  0  0  0  0  0  0  0
  -30.2893   -4.6799   -4.3606 O   0  0  0  0  0  0  0  0  0  0  0  0
  -29.0871   -2.5788   -5.6536 C   0  0  0  0  0  0  0  0  0  0  0  0
  -28.3665   -1.4402   -6.4124 C   0  0  0  0  0  0  0  0  0  0  0  0
  -27.4873   -3.8941  -10.1245 H   0  0  0  0  0  0  0  0  0  0  0  0
  -22.4870    0.1113  -13.3052 C   0  0  0  0  0  0  0  0  0  0  0  0
  -23.1342   -0.1102  -14.5239 C   0  0  0  0  0  0  0  0  0  0  0  0
  -24.4179   -0.6620  -14.5540 C   0  0  0  0  0  0  0  0  0  0  0  0
  -25.0520   -0.9844  -13.3596 C   0  0  0  0  0  0  0  0  0  0  0  0
  -26.3288   -1.5558  -13.3772 N   0  0  0  0  0  0  0  0  0  0  0  0
  -27.0142   -1.9061  -12.2445 C   0  0  0  0  0  0  0  0  0  0  0  0
  -28.1213   -2.4397  -12.3239 O   0  0  0  0  0  0  0  0  0  0  0  0
  -26.3562   -1.6086  -10.9242 C   0  0  0  0  0  0  0  0  0  0  0  0
  -25.1259   -1.0690  -10.8975 C   0  0  0  0  0  0  0  0  0  0  0  0
  -24.4216   -0.7493  -12.1335 C   0  0  0  0  0  0  0  0  0  0  0  0
  -23.1385   -0.2052  -12.1109 C   0  0  0  0  0  0  0  0  0  0  0  0
  -26.7821   -1.7500  -14.2623 H   0  0  0  0  0  0  0  0  0  0  0  0
  -20.7082    1.3785  -14.2333 C   0  0  0  0  0  0  0  0  0  0  0  0
  -21.2316    0.6278  -13.1458 O   0  0  0  0  0  0  0  0  0  0  0  0
  -30.2404   -6.2432   -6.1958 C   0  0  0  0  0  0  0  0  0  0  0  0
  -29.6249   -7.4078   -5.5171 N   0  0  0  0  0  0  0  0  0  0  0  0
  -29.8340   -8.6438   -6.2850 C   0  0  0  0  0  0  0  0  0  0  0  0
  -29.2127   -9.8523   -5.5816 C   0  0  0  0  0  0  0  0  0  0  0  0
  -27.7319   -9.6267   -5.3070 C   0  0  0  0  0  0  0  0  0  0  0  0
  -27.5424   -8.3330   -4.5264 C   0  0  0  0  0  0  0  0  0  0  0  0
  -28.2042   -7.1545   -5.2443 C   0  0  0  0  0  0  0  0  0  0  0  0
 25 26  1  0  0  0
 26 13  1  0  0  0
 13 14  1  0  0  0
 13 23  2  0  0  0
 14 15  2  0  0  0
 15 16  1  0  0  0
 16 17  1  0  0  0
 16 22  2  0  0  0
 17 18  1  0  0  0
 17 24  1  0  0  0
 18 19  2  0  0  0
 18 20  1  0  0  0
 20  1  1  0  0  0
 20 21  2  0  0  0
  1  2  2  0  0  0
  1  5  1  0  0  0
  2  3  1  0  0  0
  3  4  2  0  0  0
  3 11  1  0  0  0
  4  5  1  0  0  0
  4  6  1  0  0  0
  5 12  1  0  0  0
  6  7  1  0  0  0
  7  8  1  0  0  0
  7 10  1  0  0  0
  8  9  2  0  0  0
  8 27  1  0  0  0
 27 28  1  0  0  0
 28 29  1  0  0  0
 28 33  1  0  0  0
 29 30  1  0  0  0
 30 31  1  0  0  0
 31 32  1  0  0  0
 32 33  1  0  0  0
 10 11  1  0  0  0
 21 22  1  0  0  0
 22 23  1  0  0  0
M  END
> <minimizedAffinity>
-9.96290

$$$$
