CHEMBL1969537


 22 26  0  0  0  0  0  0  0  0999 V2000
  -28.5068   -8.5333   -7.8141 S   0  0  0  0  0  0  0  0  0  0  0  0
  -28.4781   -6.8860   -7.6712 C   0  0  0  0  0  0  0  0  0  0  0  0
  -27.9480   -6.0282   -8.6450 N   0  0  0  0  0  0  0  0  0  0  0  0
  -28.1283   -4.7145   -8.2919 N   0  0  0  0  0  0  0  0  0  0  0  0
  -28.7500   -4.7889   -7.1530 C   0  0  0  0  0  0  0  0  0  0  0  0
  -29.1434   -3.6997   -6.3157 C   0  0  0  0  0  0  0  0  0  0  0  0
  -28.6879   -2.3720   -6.2172 C   0  0  0  0  0  0  0  0  0  0  0  0
  -29.1930   -1.7465   -5.1063 C   0  0  0  0  0  0  0  0  0  0  0  0
  -30.2952   -2.6456   -4.2440 S   0  0  0  0  0  0  0  0  0  0  0  0
  -29.9916   -3.9825   -5.2583 C   0  0  0  0  0  0  0  0  0  0  0  0
  -30.3674   -5.2679   -4.9462 N   0  0  0  0  0  0  0  0  0  0  0  0
  -30.9737   -5.7892   -3.8273 C   0  0  0  0  0  0  0  0  0  0  0  0
  -32.1810   -5.2199   -2.8435 S   0  0  0  0  0  0  0  0  0  0  0  0
  -30.3996   -7.0562   -3.6679 N   0  0  0  0  0  0  0  0  0  0  0  0
  -29.5801   -7.3466   -4.7443 N   0  0  0  0  0  0  0  0  0  0  0  0
  -29.6331   -6.2795   -5.4826 C   0  0  0  0  0  0  0  0  0  0  0  0
  -28.9979   -6.0589   -6.6912 N   0  0  0  0  0  0  0  0  0  0  0  0
  -28.6007   -0.4122   -4.8410 C   0  0  0  0  0  0  0  0  0  0  0  0
  -27.9648   -0.1161   -6.2293 C   0  0  0  0  0  0  0  0  0  0  0  0
  -27.6896   -1.5072   -6.8932 C   0  0  0  0  0  0  0  0  0  0  0  0
  -27.5406   -6.2993   -9.5340 H   0  0  0  0  0  0  0  0  0  0  0  0
  -30.1346   -7.3799   -2.7408 H   0  0  0  0  0  0  0  0  0  0  0  0
  1  2  2  0  0  0
  2  3  1  0  0  0
  2 17  1  0  0  0
  3  4  1  0  0  0
  3 21  1  0  0  0
  4  5  2  0  0  0
  5  6  1  0  0  0
  5 17  1  0  0  0
  6  7  1  0  0  0
  6 10  2  0  0  0
  7  8  2  0  0  0
  7 20  1  0  0  0
  8  9  1  0  0  0
  8 18  1  0  0  0
  9 10  1  0  0  0
 10 11  1  0  0  0
 11 12  1  0  0  0
 11 16  1  0  0  0
 12 13  2  0  0  0
 12 14  1  0  0  0
 14 15  1  0  0  0
 14 22  1  0  0  0
 15 16  2  0  0  0
 16 17  1  0  0  0
 18 19  1  0  0  0
 19 20  1  0  0  0
M  END
> <minimizedAffinity>
-7.95903

$$$$
