CHEMBL3894696


 38 41  0  0  0  0  0  0  0  0999 V2000
  -12.8017   -0.1305  -17.2342 C   0  0  0  0  0  0  0  0  0  0  0  0
  -13.0925   -0.7344  -15.8868 C   0  0  0  0  0  0  0  0  0  0  0  0
  -12.1035   -1.6003  -15.3694 C   0  0  0  0  0  0  0  0  0  0  0  0
  -12.2432   -2.1826  -14.1078 C   0  0  0  0  0  0  0  0  0  0  0  0
  -13.3268   -1.8433  -13.3099 C   0  0  0  0  0  0  0  0  0  0  0  0
  -14.3385   -1.0288  -13.8327 C   0  0  0  0  0  0  0  0  0  0  0  0
  -14.2533   -0.4656  -15.1183 C   0  0  0  0  0  0  0  0  0  0  0  0
  -15.3112    0.3308  -15.6615 N   0  0  0  0  0  0  0  0  0  0  0  0
  -16.4287    0.7953  -14.9701 C   0  0  0  0  0  0  0  0  0  0  0  0
  -16.5981    0.7134  -13.7601 O   0  0  0  0  0  0  0  0  0  0  0  0
  -17.4010    1.3277  -15.8179 N   0  0  0  0  0  0  0  0  0  0  0  0
  -15.1959    0.6647  -16.6081 H   0  0  0  0  0  0  0  0  0  0  0  0
  -17.4492    0.8836  -16.7239 H   0  0  0  0  0  0  0  0  0  0  0  0
  -18.6368    1.8040  -15.2926 C   0  0  0  0  0  0  0  0  0  0  0  0
  -18.8554    3.1823  -15.2261 C   0  0  0  0  0  0  0  0  0  0  0  0
  -20.0937    3.6751  -14.8045 C   0  0  0  0  0  0  0  0  0  0  0  0
  -21.0929    2.7971  -14.3929 C   0  0  0  0  0  0  0  0  0  0  0  0
  -22.2653    3.3130  -13.9964 F   0  0  0  0  0  0  0  0  0  0  0  0
  -20.8855    1.4219  -14.3920 C   0  0  0  0  0  0  0  0  0  0  0  0
  -19.6451    0.9341  -14.8662 C   0  0  0  0  0  0  0  0  0  0  0  0
  -21.9514    0.4852  -13.8986 C   0  0  0  0  0  0  0  0  0  0  0  0
  -21.9981    0.3214  -12.5464 F   0  0  0  0  0  0  0  0  0  0  0  0
  -23.2049    0.8766  -14.2613 F   0  0  0  0  0  0  0  0  0  0  0  0
  -21.7977   -0.7701  -14.4096 F   0  0  0  0  0  0  0  0  0  0  0  0
  -13.4994   -2.3019  -12.0150 O   0  0  0  0  0  0  0  0  0  0  0  0
  -14.3022   -3.4058  -11.7949 C   0  0  0  0  0  0  0  0  0  0  0  0
  -15.6905   -3.3481  -11.7879 C   0  0  0  0  0  0  0  0  0  0  0  0
  -16.3765   -4.4938  -11.4514 C   0  0  0  0  0  0  0  0  0  0  0  0
  -15.7748   -5.6704  -11.2072 N   0  0  0  0  0  0  0  0  0  0  0  0
  -14.4349   -5.7544  -11.3079 C   0  0  0  0  0  0  0  0  0  0  0  0
  -13.6601   -4.6347  -11.6021 C   0  0  0  0  0  0  0  0  0  0  0  0
  -13.8072   -6.9958  -11.1053 N   0  0  0  0  0  0  0  0  0  0  0  0
  -13.5631   -7.9050  -12.1180 C   0  0  0  0  0  0  0  0  0  0  0  0
  -13.8506   -7.7930  -13.3010 O   0  0  0  0  0  0  0  0  0  0  0  0
  -13.5378   -7.2315  -10.1671 H   0  0  0  0  0  0  0  0  0  0  0  0
  -12.8971   -9.1862  -11.7286 C   0  0  0  0  0  0  0  0  0  0  0  0
  -11.3874   -9.2624  -11.7362 C   0  0  0  0  0  0  0  0  0  0  0  0
  -12.1910  -10.1674  -12.6250 C   0  0  0  0  0  0  0  0  0  0  0  0
  1  2  1  0  0  0
  2  3  1  0  0  0
  2  7  2  0  0  0
  3  4  2  0  0  0
  4  5  1  0  0  0
  5 25  1  0  0  0
  5  6  2  0  0  0
 25 26  1  0  0  0
 26 27  1  0  0  0
 26 31  2  0  0  0
 27 28  2  0  0  0
 28 29  1  0  0  0
 29 30  2  0  0  0
 30 32  1  0  0  0
 30 31  1  0  0  0
 32 33  1  0  0  0
 32 35  1  0  0  0
 33 34  2  0  0  0
 33 36  1  0  0  0
 36 37  1  0  0  0
 36 38  1  0  0  0
 37 38  1  0  0  0
  6  7  1  0  0  0
  7  8  1  0  0  0
  8  9  1  0  0  0
  8 12  1  0  0  0
  9 10  2  0  0  0
  9 11  1  0  0  0
 11 14  1  0  0  0
 11 13  1  0  0  0
 14 15  1  0  0  0
 14 20  2  0  0  0
 15 16  2  0  0  0
 16 17  1  0  0  0
 17 18  1  0  0  0
 17 19  2  0  0  0
 19 21  1  0  0  0
 19 20  1  0  0  0
 21 22  1  0  0  0
 21 23  1  0  0  0
 21 24  1  0  0  0
M  END
> <minimizedAffinity>
-10.51846

$$$$
