CHEMBL267293


 32 35  0  0  0  0  0  0  0  0999 V2000
  -28.7181   -3.4581   -8.2535 C   0  0  0  0  0  0  0  0  0  0  0  0
  -29.3404   -4.3585   -7.2464 C   0  0  0  0  0  0  0  0  0  0  0  0
  -29.8124   -5.5845   -7.6535 N   0  0  0  0  0  0  0  0  0  0  0  0
  -30.3839   -6.2650   -6.6140 C   0  0  0  0  0  0  0  0  0  0  0  0
  -30.2889   -5.4486   -5.4951 C   0  0  0  0  0  0  0  0  0  0  0  0
  -30.7644   -5.7590   -4.1109 C   0  0  0  0  0  0  0  0  0  0  0  0
  -29.6318   -4.2254   -5.8921 C   0  0  0  0  0  0  0  0  0  0  0  0
  -29.7553   -5.9240   -8.6093 H   0  0  0  0  0  0  0  0  0  0  0  0
  -30.9416   -7.5596   -6.7696 C   0  0  0  0  0  0  0  0  0  0  0  0
  -30.5208   -8.5938   -7.5120 C   0  0  0  0  0  0  0  0  0  0  0  0
  -29.3359   -8.7587   -8.4337 C   0  0  0  0  0  0  0  0  0  0  0  0
  -28.4736   -7.9477   -8.7073 O   0  0  0  0  0  0  0  0  0  0  0  0
  -29.4328  -10.0580   -8.9181 N   0  0  0  0  0  0  0  0  0  0  0  0
  -30.5422  -10.7163   -8.3974 C   0  0  0  0  0  0  0  0  0  0  0  0
  -30.9409  -12.0128   -8.6568 C   0  0  0  0  0  0  0  0  0  0  0  0
  -32.0951  -12.4659   -8.0137 C   0  0  0  0  0  0  0  0  0  0  0  0
  -32.8039  -11.6227   -7.1463 C   0  0  0  0  0  0  0  0  0  0  0  0
  -33.9067  -12.0843   -6.5432 F   0  0  0  0  0  0  0  0  0  0  0  0
  -32.3919  -10.3180   -6.8939 C   0  0  0  0  0  0  0  0  0  0  0  0
  -31.2475   -9.8741   -7.5329 C   0  0  0  0  0  0  0  0  0  0  0  0
  -28.7644  -10.4488   -9.5652 H   0  0  0  0  0  0  0  0  0  0  0  0
  -29.3831   -3.0881   -5.0024 C   0  0  0  0  0  0  0  0  0  0  0  0
  -30.2065   -2.7155   -4.1701 O   0  0  0  0  0  0  0  0  0  0  0  0
  -28.1420   -2.5026   -5.0965 N   0  0  0  0  0  0  0  0  0  0  0  0
  -27.4732   -2.8769   -5.7526 H   0  0  0  0  0  0  0  0  0  0  0  0
  -27.7570   -1.3900   -4.2442 C   0  0  0  0  0  0  0  0  0  0  0  0
  -27.4205   -0.1136   -5.0183 C   0  0  0  0  0  0  0  0  0  0  0  0
  -28.6016    0.5359   -5.5390 N   0  0  0  0  0  0  0  0  0  0  0  0
  -28.7116    1.2828   -6.6701 C   0  0  0  0  0  0  0  0  0  0  0  0
  -29.9560    1.6771   -6.8136 N   0  0  0  0  0  0  0  0  0  0  0  0
  -30.5779    1.1290   -5.7277 C   0  0  0  0  0  0  0  0  0  0  0  0
  -29.7901    0.4144   -4.9190 N   0  0  0  0  0  0  0  0  0  0  0  0
  1  2  1  0  0  0
  2  3  1  0  0  0
  2  7  2  0  0  0
  3  4  1  0  0  0
  3  8  1  0  0  0
  4  9  1  0  0  0
  4  5  2  0  0  0
  9 10  2  0  0  0
 10 11  1  0  0  0
 10 20  1  0  0  0
 11 12  2  0  0  0
 11 13  1  0  0  0
 13 14  1  0  0  0
 13 21  1  0  0  0
 14 15  1  0  0  0
 14 20  2  0  0  0
 15 16  2  0  0  0
 16 17  1  0  0  0
 17 18  1  0  0  0
 17 19  2  0  0  0
 19 20  1  0  0  0
  5  6  1  0  0  0
  5  7  1  0  0  0
  7 22  1  0  0  0
 22 23  2  0  0  0
 22 24  1  0  0  0
 24 26  1  0  0  0
 24 25  1  0  0  0
 26 27  1  0  0  0
 27 28  1  0  0  0
 28 29  1  0  0  0
 28 32  1  0  0  0
 29 30  2  0  0  0
 30 31  1  0  0  0
 31 32  2  0  0  0
M  END
> <minimizedAffinity>
-8.07262

$$$$
