CHEMBL1761933


 34 37  0  0  0  0  0  0  0  0999 V2000
  -12.3087   -1.8599  -12.9837 C   0  0  0  0  0  0  0  0  0  0  0  0
  -13.5881   -2.4036  -12.9171 C   0  0  0  0  0  0  0  0  0  0  0  0
  -14.6593   -1.7764  -13.5595 C   0  0  0  0  0  0  0  0  0  0  0  0
  -14.4840   -0.5799  -14.2613 C   0  0  0  0  0  0  0  0  0  0  0  0
  -13.2256    0.0203  -14.2400 C   0  0  0  0  0  0  0  0  0  0  0  0
  -12.1551   -0.6086  -13.5943 C   0  0  0  0  0  0  0  0  0  0  0  0
  -15.4946    0.0257  -15.0406 N   0  0  0  0  0  0  0  0  0  0  0  0
  -16.5963    0.6975  -14.5472 C   0  0  0  0  0  0  0  0  0  0  0  0
  -16.7611    1.0032  -13.3743 O   0  0  0  0  0  0  0  0  0  0  0  0
  -17.5423    0.9453  -15.5380 N   0  0  0  0  0  0  0  0  0  0  0  0
  -15.3701    0.0242  -16.0418 H   0  0  0  0  0  0  0  0  0  0  0  0
  -17.6056    0.2283  -16.2453 H   0  0  0  0  0  0  0  0  0  0  0  0
  -18.7516    1.5990  -15.1978 C   0  0  0  0  0  0  0  0  0  0  0  0
  -19.8953    0.8691  -14.8534 C   0  0  0  0  0  0  0  0  0  0  0  0
  -21.1098    1.5148  -14.6367 C   0  0  0  0  0  0  0  0  0  0  0  0
  -21.1889    2.8977  -14.7687 C   0  0  0  0  0  0  0  0  0  0  0  0
  -20.0452    3.6353  -15.0795 C   0  0  0  0  0  0  0  0  0  0  0  0
  -18.8190    2.9908  -15.2707 C   0  0  0  0  0  0  0  0  0  0  0  0
  -11.2203   -2.5450  -12.4056 N   0  0  0  0  0  0  0  0  0  0  0  0
  -10.4080   -1.9496  -12.2784 H   0  0  0  0  0  0  0  0  0  0  0  0
  -11.2014   -7.6220  -11.8258 C   0  0  0  0  0  0  0  0  0  0  0  0
  -11.3453   -7.0009  -10.5709 C   0  0  0  0  0  0  0  0  0  0  0  0
  -11.3729   -5.6267  -10.4119 C   0  0  0  0  0  0  0  0  0  0  0  0
  -11.5984   -5.1392   -9.1895 N   0  0  0  0  0  0  0  0  0  0  0  0
  -11.6857   -3.8124   -9.0850 C   0  0  0  0  0  0  0  0  0  0  0  0
  -11.5617   -2.9413  -10.0850 N   0  0  0  0  0  0  0  0  0  0  0  0
  -11.3186   -3.4435  -11.3113 C   0  0  0  0  0  0  0  0  0  0  0  0
  -11.1987   -4.8225  -11.5377 C   0  0  0  0  0  0  0  0  0  0  0  0
  -10.9702   -5.4323  -12.7933 C   0  0  0  0  0  0  0  0  0  0  0  0
  -10.9862   -6.8241  -12.9536 C   0  0  0  0  0  0  0  0  0  0  0  0
  -12.5329   -9.5357  -12.2286 C   0  0  0  0  0  0  0  0  0  0  0  0
  -11.2421   -8.9879  -11.9459 O   0  0  0  0  0  0  0  0  0  0  0  0
  -10.8084   -7.1759  -14.2600 O   0  0  0  0  0  0  0  0  0  0  0  0
  -11.9069   -7.2455  -15.1521 C   0  0  0  0  0  0  0  0  0  0  0  0
 31 32  1  0  0  0
 32 21  1  0  0  0
 21 22  1  0  0  0
 21 30  2  0  0  0
 22 23  2  0  0  0
 23 24  1  0  0  0
 23 28  1  0  0  0
 24 25  2  0  0  0
 25 26  1  0  0  0
 26 27  2  0  0  0
 27 19  1  0  0  0
 27 28  1  0  0  0
 19  1  1  0  0  0
 19 20  1  0  0  0
  1  2  1  0  0  0
  1  6  2  0  0  0
  2  3  2  0  0  0
  3  4  1  0  0  0
  4  7  1  0  0  0
  4  5  2  0  0  0
  7  8  1  0  0  0
  7 11  1  0  0  0
  8  9  2  0  0  0
  8 10  1  0  0  0
 10 13  1  0  0  0
 10 12  1  0  0  0
 13 14  1  0  0  0
 13 18  2  0  0  0
 14 15  2  0  0  0
 15 16  1  0  0  0
 16 17  2  0  0  0
 17 18  1  0  0  0
  5  6  1  0  0  0
 28 29  2  0  0  0
 29 30  1  0  0  0
 30 33  1  0  0  0
 33 34  1  0  0  0
M  END
> <minimizedAffinity>
-7.80040

$$$$
