CHEMBL3676349


 36 38  0  0  0  0  0  0  0  0999 V2000
  -29.0207   -7.1776   -7.4818 C   0  0  0  0  0  0  0  0  0  0  0  0
  -28.6859   -6.3243   -6.4274 C   0  0  0  0  0  0  0  0  0  0  0  0
  -29.6400   -5.9989   -5.4519 C   0  0  0  0  0  0  0  0  0  0  0  0
  -29.4588   -5.0085   -4.4686 C   0  0  0  0  0  0  0  0  0  0  0  0
  -30.4145   -4.7344   -3.5647 N   0  0  0  0  0  0  0  0  0  0  0  0
  -31.5523   -5.4223   -3.6502 C   0  0  0  0  0  0  0  0  0  0  0  0
  -31.8519   -6.3349   -4.5790 N   0  0  0  0  0  0  0  0  0  0  0  0
  -30.9049   -6.6084   -5.4798 C   0  0  0  0  0  0  0  0  0  0  0  0
  -31.1957   -7.4981   -6.5133 C   0  0  0  0  0  0  0  0  0  0  0  0
  -30.2708   -7.8043   -7.5161 C   0  0  0  0  0  0  0  0  0  0  0  0
  -27.3636   -8.2944   -8.8908 C   0  0  0  0  0  0  0  0  0  0  0  0
  -26.8452   -8.3837  -10.0020 O   0  0  0  0  0  0  0  0  0  0  0  0
  -28.1539   -7.2073   -8.5837 N   0  0  0  0  0  0  0  0  0  0  0  0
  -28.4903   -6.7857   -9.4434 H   0  0  0  0  0  0  0  0  0  0  0  0
  -26.4079  -10.3868   -8.1078 C   0  0  0  0  0  0  0  0  0  0  0  0
  -27.2383   -9.3649   -7.8699 C   0  0  0  0  0  0  0  0  0  0  0  0
  -28.2947   -4.1925   -4.4944 N   0  0  0  0  0  0  0  0  0  0  0  0
  -27.7529   -4.2817   -3.6399 H   0  0  0  0  0  0  0  0  0  0  0  0
  -28.2715   -2.8743   -5.0122 C   0  0  0  0  0  0  0  0  0  0  0  0
  -27.7483   -2.6215   -6.2903 C   0  0  0  0  0  0  0  0  0  0  0  0
  -27.8328   -1.3557   -6.8769 C   0  0  0  0  0  0  0  0  0  0  0  0
  -28.4248   -0.3153   -6.1435 C   0  0  0  0  0  0  0  0  0  0  0  0
  -28.6258    1.2613   -6.8252 Cl  0  0  0  0  0  0  0  0  0  0  0  0
  -28.8866   -0.5300   -4.8429 C   0  0  0  0  0  0  0  0  0  0  0  0
  -28.7979   -1.8021   -4.2878 C   0  0  0  0  0  0  0  0  0  0  0  0
  -29.2624   -2.0082   -3.0458 F   0  0  0  0  0  0  0  0  0  0  0  0
  -27.3794   -1.0655   -8.1383 O   0  0  0  0  0  0  0  0  0  0  0  0
  -27.8033   -1.9203   -9.1955 C   0  0  0  0  0  0  0  0  0  0  0  0
  -30.7181   -8.6526   -8.5050 O   0  0  0  0  0  0  0  0  0  0  0  0
  -30.9469  -10.0008   -8.0683 C   0  0  0  0  0  0  0  0  0  0  0  0
  -30.2207  -11.0190   -8.9538 C   0  0  0  0  0  0  0  0  0  0  0  0
  -29.9686  -10.4760  -10.2840 N   0  0  0  0  0  0  0  0  0  0  0  0
  -28.9097  -10.9098  -11.0485 C   0  0  0  0  0  0  0  0  0  0  0  0
  -28.7008  -10.1414  -12.3280 C   0  0  0  0  0  0  0  0  0  0  0  0
  -28.1848  -11.8454  -10.7266 O   0  0  0  0  0  0  0  0  0  0  0  0
  -30.4605   -9.6338  -10.5577 H   0  0  0  0  0  0  0  0  0  0  0  0
 15 16  2  0  0  0
 16 11  1  0  0  0
 11 12  2  0  0  0
 11 13  1  0  0  0
 13  1  1  0  0  0
 13 14  1  0  0  0
  1  2  1  0  0  0
  1 10  2  0  0  0
  2  3  2  0  0  0
  3  4  1  0  0  0
  3  8  1  0  0  0
  4 17  1  0  0  0
  4  5  2  0  0  0
 17 19  1  0  0  0
 17 18  1  0  0  0
 19 20  1  0  0  0
 19 25  2  0  0  0
 20 21  2  0  0  0
 21 27  1  0  0  0
 21 22  1  0  0  0
 27 28  1  0  0  0
 22 23  1  0  0  0
 22 24  2  0  0  0
 24 25  1  0  0  0
 25 26  1  0  0  0
  5  6  1  0  0  0
  6  7  2  0  0  0
  7  8  1  0  0  0
  8  9  2  0  0  0
  9 10  1  0  0  0
 10 29  1  0  0  0
 29 30  1  0  0  0
 30 31  1  0  0  0
 31 32  1  0  0  0
 32 33  1  0  0  0
 32 36  1  0  0  0
 33 34  1  0  0  0
 33 35  2  0  0  0
M  END
> <minimizedAffinity>
-8.31383

$$$$
