CHEMBL3975007


 30 34  0  0  0  0  0  0  0  0999 V2000
  -21.7654    1.1721  -13.9468 C   0  0  0  0  0  0  0  0  0  0  0  0
  -22.1028    2.4904  -14.2247 C   0  0  0  0  0  0  0  0  0  0  0  0
  -21.2091    3.3806  -14.7226 N   0  0  0  0  0  0  0  0  0  0  0  0
  -19.9574    2.9206  -14.9234 C   0  0  0  0  0  0  0  0  0  0  0  0
  -18.9737    3.7797  -15.3785 C   0  0  0  0  0  0  0  0  0  0  0  0
  -17.6530    3.3438  -15.5423 C   0  0  0  0  0  0  0  0  0  0  0  0
  -17.2702    2.0134  -15.3090 C   0  0  0  0  0  0  0  0  0  0  0  0
  -18.2937    1.1537  -14.8775 C   0  0  0  0  0  0  0  0  0  0  0  0
  -19.6069    1.5802  -14.6575 C   0  0  0  0  0  0  0  0  0  0  0  0
  -20.5152    0.7097  -14.1783 N   0  0  0  0  0  0  0  0  0  0  0  0
  -24.4887   -1.0541  -13.1959 N   0  0  0  0  0  0  0  0  0  0  0  0
  -23.8645   -0.1716  -14.0257 C   0  0  0  0  0  0  0  0  0  0  0  0
  -22.7128    0.2284  -13.3841 C   0  0  0  0  0  0  0  0  0  0  0  0
  -22.7330   -0.4959  -12.1703 C   0  0  0  0  0  0  0  0  0  0  0  0
  -23.8202   -1.2645  -12.0466 N   0  0  0  0  0  0  0  0  0  0  0  0
  -25.7496   -1.7200  -13.4415 C   0  0  0  0  0  0  0  0  0  0  0  0
  -26.4461   -2.6252  -11.3202 O   0  0  0  0  0  0  0  0  0  0  0  0
  -26.6974   -1.5840  -12.2610 C   0  0  0  0  0  0  0  0  0  0  0  0
  -27.0277   -2.4648  -10.5561 H   0  0  0  0  0  0  0  0  0  0  0  0
  -15.9180    1.5842  -15.4872 N   0  0  0  0  0  0  0  0  0  0  0  0
  -15.1456    1.7211  -16.6795 C   0  0  0  0  0  0  0  0  0  0  0  0
  -14.8207    2.9634  -17.2525 C   0  0  0  0  0  0  0  0  0  0  0  0
  -14.1335    3.0642  -18.4708 C   0  0  0  0  0  0  0  0  0  0  0  0
  -13.7574    1.9207  -19.1627 C   0  0  0  0  0  0  0  0  0  0  0  0
  -14.0357    0.6762  -18.6158 C   0  0  0  0  0  0  0  0  0  0  0  0
  -14.6926    0.5846  -17.3814 C   0  0  0  0  0  0  0  0  0  0  0  0
  -15.2240    1.0855  -14.2670 C   0  0  0  0  0  0  0  0  0  0  0  0
  -15.5409   -0.3676  -14.0051 C   0  0  0  0  0  0  0  0  0  0  0  0
  -15.5431   -0.9494  -12.6050 C   0  0  0  0  0  0  0  0  0  0  0  0
  -14.4496   -1.3149  -13.5658 C   0  0  0  0  0  0  0  0  0  0  0  0
 17 18  1  0  0  0
 17 19  1  0  0  0
 18 16  1  0  0  0
 16 11  1  0  0  0
 11 12  1  0  0  0
 11 15  1  0  0  0
 12 13  2  0  0  0
 13  1  1  0  0  0
 13 14  1  0  0  0
  1  2  1  0  0  0
  1 10  2  0  0  0
  2  3  2  0  0  0
  3  4  1  0  0  0
  4  5  1  0  0  0
  4  9  2  0  0  0
  5  6  2  0  0  0
  6  7  1  0  0  0
  7 20  1  0  0  0
  7  8  2  0  0  0
 20 27  1  0  0  0
 20 21  1  0  0  0
 27 28  1  0  0  0
 28 29  1  0  0  0
 28 30  1  0  0  0
 29 30  1  0  0  0
 21 22  1  0  0  0
 21 26  2  0  0  0
 22 23  2  0  0  0
 23 24  1  0  0  0
 24 25  2  0  0  0
 25 26  1  0  0  0
  8  9  1  0  0  0
  9 10  1  0  0  0
 14 15  2  0  0  0
M  END
> <minimizedAffinity>
-8.76947

$$$$
