CHEMBL3644025


 32 33  0  0  0  0  0  0  0  0999 V2000
  -15.0758   -6.6589  -12.3966 C   0  0  0  0  0  0  0  0  0  0  0  0
  -15.0473   -7.7925  -13.0862 N   0  0  0  0  0  0  0  0  0  0  0  0
  -13.9425   -8.5494  -12.9402 C   0  0  0  0  0  0  0  0  0  0  0  0
  -12.8676   -8.2479  -12.1158 C   0  0  0  0  0  0  0  0  0  0  0  0
  -13.0443   -7.1050  -11.3610 C   0  0  0  0  0  0  0  0  0  0  0  0
  -14.1263   -6.3352  -11.5233 N   0  0  0  0  0  0  0  0  0  0  0  0
  -11.6802   -9.1458  -12.1950 C   0  0  0  0  0  0  0  0  0  0  0  0
  -10.6994   -8.6464  -13.0219 F   0  0  0  0  0  0  0  0  0  0  0  0
  -11.0520   -9.3358  -11.0027 F   0  0  0  0  0  0  0  0  0  0  0  0
  -11.9452  -10.3823  -12.6916 F   0  0  0  0  0  0  0  0  0  0  0  0
  -16.0773   -5.7269  -12.6957 N   0  0  0  0  0  0  0  0  0  0  0  0
  -16.5326   -6.0848  -13.5278 H   0  0  0  0  0  0  0  0  0  0  0  0
  -15.5062   -1.5464  -12.8790 C   0  0  0  0  0  0  0  0  0  0  0  0
  -15.8281   -2.1432  -11.6623 C   0  0  0  0  0  0  0  0  0  0  0  0
  -15.9957   -3.5250  -11.5967 C   0  0  0  0  0  0  0  0  0  0  0  0
  -15.8712   -4.3298  -12.7392 C   0  0  0  0  0  0  0  0  0  0  0  0
  -15.4982   -3.7187  -13.9441 C   0  0  0  0  0  0  0  0  0  0  0  0
  -15.3341   -2.3271  -14.0249 C   0  0  0  0  0  0  0  0  0  0  0  0
  -15.4905    0.2330  -12.9856 S   0  0  0  0  0  0  0  0  0  0  0  0
  -14.1379    0.6693  -12.6800 O   0  0  0  0  0  0  0  0  0  0  0  0
  -16.5948    0.6903  -12.1591 O   0  0  0  0  0  0  0  0  0  0  0  0
  -15.8161    0.5985  -14.7245 C   0  0  0  0  0  0  0  0  0  0  0  0
  -18.4285    1.2338  -15.0460 C   0  0  0  0  0  0  0  0  0  0  0  0
  -17.2515    0.9386  -14.9136 C   0  0  0  0  0  0  0  0  0  0  0  0
  -12.1401   -6.6416  -10.4212 O   0  0  0  0  0  0  0  0  0  0  0  0
  -12.1818   -5.1834  -10.1674 C   0  0  0  0  0  0  0  0  0  0  0  0
  -10.7891   -4.5787  -10.4131 C   0  0  0  0  0  0  0  0  0  0  0  0
  -12.7242   -4.9064   -8.7353 C   0  0  0  0  0  0  0  0  0  0  0  0
  -11.7557   -5.3016   -7.6204 C   0  0  0  0  0  0  0  0  0  0  0  0
  -13.1363   -3.4348   -8.6016 C   0  0  0  0  0  0  0  0  0  0  0  0
  -13.9202   -5.6813   -8.5489 O   0  0  0  0  0  0  0  0  0  0  0  0
  -13.6785   -6.6108   -8.7084 H   0  0  0  0  0  0  0  0  0  0  0  0
 23 24  3  0  0  0
 24 22  1  0  0  0
 22 19  1  0  0  0
 19 20  2  0  0  0
 19 21  2  0  0  0
 19 13  1  0  0  0
 13 14  1  0  0  0
 13 18  2  0  0  0
 14 15  2  0  0  0
 15 16  1  0  0  0
 16 11  1  0  0  0
 16 17  2  0  0  0
 11  1  1  0  0  0
 11 12  1  0  0  0
  1  2  1  0  0  0
  1  6  2  0  0  0
  2  3  2  0  0  0
  3  4  1  0  0  0
  4  7  1  0  0  0
  4  5  2  0  0  0
  7  8  1  0  0  0
  7  9  1  0  0  0
  7 10  1  0  0  0
  5 25  1  0  0  0
  5  6  1  0  0  0
 26 28  1  0  0  0
 26 27  1  0  0  0
 26 25  1  0  0  0
 28 29  1  0  0  0
 28 30  1  0  0  0
 28 31  1  0  0  0
 31 32  1  0  0  0
 17 18  1  0  0  0
M  END
> <minimizedAffinity>
-7.74914

$$$$
