CHEMBL3905015


 29 32  0  0  0  0  0  0  0  0999 V2000
  -29.2246   -5.1441   -6.1225 C   0  0  0  0  0  0  0  0  0  0  0  0
  -29.0090   -4.0651   -5.2749 C   0  0  0  0  0  0  0  0  0  0  0  0
  -28.5852   -2.8530   -5.8047 C   0  0  0  0  0  0  0  0  0  0  0  0
  -28.2576   -2.6867   -7.1109 C   0  0  0  0  0  0  0  0  0  0  0  0
  -28.0320   -1.4249   -7.3621 N   0  0  0  0  0  0  0  0  0  0  0  0
  -27.6009   -1.1154   -8.5880 C   0  0  0  0  0  0  0  0  0  0  0  0
  -27.3173   -2.0628   -9.5476 C   0  0  0  0  0  0  0  0  0  0  0  0
  -27.6164   -3.4057   -9.3133 N   0  0  0  0  0  0  0  0  0  0  0  0
  -28.1620   -3.7634   -8.0384 C   0  0  0  0  0  0  0  0  0  0  0  0
  -28.7234   -5.0320   -7.4741 C   0  0  0  0  0  0  0  0  0  0  0  0
  -26.6769   -1.4691  -10.7492 C   0  0  0  0  0  0  0  0  0  0  0  0
  -27.1269   -1.5073  -12.1107 C   0  0  0  0  0  0  0  0  0  0  0  0
  -26.1382   -1.4089  -13.0142 N   0  0  0  0  0  0  0  0  0  0  0  0
  -25.0252   -1.3692  -12.2649 N   0  0  0  0  0  0  0  0  0  0  0  0
  -23.7175   -1.2994  -12.8850 C   0  0  0  0  0  0  0  0  0  0  0  0
  -25.2915   -1.4915  -10.9245 C   0  0  0  0  0  0  0  0  0  0  0  0
  -30.1513   -6.1258   -5.6046 N   0  0  0  0  0  0  0  0  0  0  0  0
  -30.0803   -9.7740   -6.4820 C   0  0  0  0  0  0  0  0  0  0  0  0
  -31.2871   -9.9227   -7.1547 C   0  0  0  0  0  0  0  0  0  0  0  0
  -32.1088   -8.8080   -7.3375 C   0  0  0  0  0  0  0  0  0  0  0  0
  -31.7484   -7.5559   -6.8057 C   0  0  0  0  0  0  0  0  0  0  0  0
  -30.5491   -7.3839   -6.0993 C   0  0  0  0  0  0  0  0  0  0  0  0
  -29.7141   -8.5116   -5.9932 C   0  0  0  0  0  0  0  0  0  0  0  0
  -27.7980  -10.4319   -6.4817 C   0  0  0  0  0  0  0  0  0  0  0  0
  -29.1624  -10.7627   -6.2509 O   0  0  0  0  0  0  0  0  0  0  0  0
  -30.8852   -5.5873   -4.3971 C   0  0  0  0  0  0  0  0  0  0  0  0
  -30.8196   -6.4050   -3.0843 C   0  0  0  0  0  0  0  0  0  0  0  0
  -29.4918   -6.7751   -2.7136 O   0  0  0  0  0  0  0  0  0  0  0  0
  -29.3993   -7.7252   -2.9049 H   0  0  0  0  0  0  0  0  0  0  0  0
 24 25  1  0  0  0
 25 18  1  0  0  0
 18 19  1  0  0  0
 18 23  2  0  0  0
 19 20  2  0  0  0
 20 21  1  0  0  0
 21 22  2  0  0  0
 22 17  1  0  0  0
 22 23  1  0  0  0
 17 26  1  0  0  0
 17  1  1  0  0  0
 26 27  1  0  0  0
 27 28  1  0  0  0
 28 29  1  0  0  0
  1  2  1  0  0  0
  1 10  2  0  0  0
  2  3  2  0  0  0
  3  4  1  0  0  0
  4  5  1  0  0  0
  4  9  2  0  0  0
  5  6  2  0  0  0
  6  7  1  0  0  0
  7 11  1  0  0  0
  7  8  2  0  0  0
 11 12  1  0  0  0
 11 16  2  0  0  0
 12 13  2  0  0  0
 13 14  1  0  0  0
 14 15  1  0  0  0
 14 16  1  0  0  0
  8  9  1  0  0  0
  9 10  1  0  0  0
M  END
> <minimizedAffinity>
-7.58564

$$$$
