CHEMBL3690440


 28 30  0  0  0  0  0  0  0  0999 V2000
  -30.3191   -6.9063   -6.2311 C   0  0  0  0  0  0  0  0  0  0  0  0
  -31.4355   -7.4505   -6.8795 C   0  0  0  0  0  0  0  0  0  0  0  0
  -31.3039   -8.5663   -7.7007 C   0  0  0  0  0  0  0  0  0  0  0  0
  -30.0456   -9.1130   -7.9349 C   0  0  0  0  0  0  0  0  0  0  0  0
  -28.9036   -8.5477   -7.3648 C   0  0  0  0  0  0  0  0  0  0  0  0
  -29.0509   -7.4547   -6.4980 C   0  0  0  0  0  0  0  0  0  0  0  0
  -28.7925   -0.4048   -5.2244 C   0  0  0  0  0  0  0  0  0  0  0  0
  -29.2034   -1.8490   -5.2816 C   0  0  0  0  0  0  0  0  0  0  0  0
  -29.9459   -2.3984   -4.2937 C   0  0  0  0  0  0  0  0  0  0  0  0
  -30.3416   -3.7639   -4.3502 C   0  0  0  0  0  0  0  0  0  0  0  0
  -31.0597   -4.4812   -3.5153 N   0  0  0  0  0  0  0  0  0  0  0  0
  -31.1320   -5.7227   -4.0859 C   0  0  0  0  0  0  0  0  0  0  0  0
  -30.4487   -5.7887   -5.2906 C   0  0  0  0  0  0  0  0  0  0  0  0
  -29.9448   -4.5023   -5.4604 N   0  0  0  0  0  0  0  0  0  0  0  0
  -29.1977   -3.9425   -6.4991 C   0  0  0  0  0  0  0  0  0  0  0  0
  -28.7980   -2.6573   -6.4440 C   0  0  0  0  0  0  0  0  0  0  0  0
  -27.9619   -2.0572   -7.5367 C   0  0  0  0  0  0  0  0  0  0  0  0
  -27.6043   -9.0549   -7.5979 N   0  0  0  0  0  0  0  0  0  0  0  0
  -26.8710   -9.7974   -6.6998 C   0  0  0  0  0  0  0  0  0  0  0  0
  -27.2550  -10.2321   -5.6204 O   0  0  0  0  0  0  0  0  0  0  0  0
  -25.5688   -9.9847   -7.1048 N   0  0  0  0  0  0  0  0  0  0  0  0
  -27.2326   -8.9520   -8.5278 H   0  0  0  0  0  0  0  0  0  0  0  0
  -25.3923   -9.9910   -8.0977 H   0  0  0  0  0  0  0  0  0  0  0  0
  -24.6877  -10.7756   -6.2368 C   0  0  0  0  0  0  0  0  0  0  0  0
  -23.6513   -9.9834   -5.4261 C   0  0  0  0  0  0  0  0  0  0  0  0
  -22.8955   -9.1799   -6.2089 F   0  0  0  0  0  0  0  0  0  0  0  0
  -24.2849   -9.1772   -4.5365 F   0  0  0  0  0  0  0  0  0  0  0  0
  -22.8260  -10.7848   -4.7211 F   0  0  0  0  0  0  0  0  0  0  0  0
  7  8  1  0  0  0
  8  9  2  0  0  0
  8 16  1  0  0  0
  9 10  1  0  0  0
 10 11  2  0  0  0
 10 14  1  0  0  0
 11 12  1  0  0  0
 12 13  2  0  0  0
 13  1  1  0  0  0
 13 14  1  0  0  0
  1  2  1  0  0  0
  1  6  2  0  0  0
  2  3  2  0  0  0
  3  4  1  0  0  0
  4  5  2  0  0  0
  5 18  1  0  0  0
  5  6  1  0  0  0
 18 19  1  0  0  0
 18 22  1  0  0  0
 19 20  2  0  0  0
 19 21  1  0  0  0
 21 24  1  0  0  0
 21 23  1  0  0  0
 24 25  1  0  0  0
 25 26  1  0  0  0
 25 27  1  0  0  0
 25 28  1  0  0  0
 14 15  1  0  0  0
 15 16  2  0  0  0
 16 17  1  0  0  0
M  END
> <minimizedAffinity>
-8.60150

$$$$
