CHEMBL1940845


 22 24  0  0  0  0  0  0  0  0999 V2000
  -15.2218    1.9210  -16.4095 C   0  0  0  0  0  0  0  0  0  0  0  0
  -16.6141    2.2914  -15.9919 C   0  0  0  0  0  0  0  0  0  0  0  0
  -17.0578    3.6124  -16.0442 C   0  0  0  0  0  0  0  0  0  0  0  0
  -18.3611    3.9337  -15.6463 C   0  0  0  0  0  0  0  0  0  0  0  0
  -19.2463    2.9666  -15.1894 C   0  0  0  0  0  0  0  0  0  0  0  0
  -20.4842    3.3234  -14.8173 N   0  0  0  0  0  0  0  0  0  0  0  0
  -21.3185    2.3528  -14.3730 C   0  0  0  0  0  0  0  0  0  0  0  0
  -22.8601    2.9849  -13.9250 Cl  0  0  0  0  0  0  0  0  0  0  0  0
  -20.9909    0.9997  -14.2561 C   0  0  0  0  0  0  0  0  0  0  0  0
  -19.6990    0.6540  -14.6705 C   0  0  0  0  0  0  0  0  0  0  0  0
  -18.8028    1.6319  -15.1350 C   0  0  0  0  0  0  0  0  0  0  0  0
  -17.4958    1.3034  -15.5384 C   0  0  0  0  0  0  0  0  0  0  0  0
  -21.9432   -0.0281  -13.7883 C   0  0  0  0  0  0  0  0  0  0  0  0
  -22.3596   -0.1534  -12.5179 C   0  0  0  0  0  0  0  0  0  0  0  0
  -23.3196   -1.2370  -12.1224 C   0  0  0  0  0  0  0  0  0  0  0  0
  -23.0895   -1.9141  -11.1243 O   0  0  0  0  0  0  0  0  0  0  0  0
  -24.5039   -1.3827  -12.9591 C   0  0  0  0  0  0  0  0  0  0  0  0
  -24.6369   -1.2439  -14.3320 C   0  0  0  0  0  0  0  0  0  0  0  0
  -25.9774   -1.4562  -14.7751 C   0  0  0  0  0  0  0  0  0  0  0  0
  -26.8034   -1.7447  -13.7222 C   0  0  0  0  0  0  0  0  0  0  0  0
  -28.4916   -2.0468  -13.8021 Cl  0  0  0  0  0  0  0  0  0  0  0  0
  -26.0054   -1.7970  -12.2326 S   0  0  0  0  0  0  0  0  0  0  0  0
  1  2  1  0  0  0
  2  3  1  0  0  0
  2 12  2  0  0  0
  3  4  2  0  0  0
  4  5  1  0  0  0
  5  6  1  0  0  0
  5 11  2  0  0  0
  6  7  2  0  0  0
  7  8  1  0  0  0
  7  9  1  0  0  0
  9 13  1  0  0  0
  9 10  2  0  0  0
 13 14  2  0  0  0
 14 15  1  0  0  0
 15 16  2  0  0  0
 15 17  1  0  0  0
 17 18  2  0  0  0
 17 22  1  0  0  0
 18 19  1  0  0  0
 19 20  2  0  0  0
 20 21  1  0  0  0
 20 22  1  0  0  0
 10 11  1  0  0  0
 11 12  1  0  0  0
M  END
> <minimizedAffinity>
-9.61947

$$$$
