CHEMBL1241771


 24 26  0  0  0  0  0  0  0  0999 V2000
  -14.8727    2.8809  -16.4771 N   0  0  0  0  0  0  0  0  0  0  0  0
  -16.2209    2.8002  -16.5198 N   0  0  0  0  0  0  0  0  0  0  0  0
  -16.5513    2.0574  -15.4458 C   0  0  0  0  0  0  0  0  0  0  0  0
  -15.3814    1.6005  -14.7543 C   0  0  0  0  0  0  0  0  0  0  0  0
  -15.0427    0.8074  -13.6454 C   0  0  0  0  0  0  0  0  0  0  0  0
  -15.9390    0.1189  -12.8370 N   0  0  0  0  0  0  0  0  0  0  0  0
  -13.7426    0.6728  -13.3150 N   0  0  0  0  0  0  0  0  0  0  0  0
  -12.8163    1.2917  -14.0674 C   0  0  0  0  0  0  0  0  0  0  0  0
  -13.0145    2.0537  -15.1546 N   0  0  0  0  0  0  0  0  0  0  0  0
  -14.3216    2.1688  -15.4458 C   0  0  0  0  0  0  0  0  0  0  0  0
  -16.7303   -0.2789  -13.3266 H   0  0  0  0  0  0  0  0  0  0  0  0
  -15.4403   -0.5262  -12.2334 H   0  0  0  0  0  0  0  0  0  0  0  0
  -17.9683    1.8275  -15.1318 C   0  0  0  0  0  0  0  0  0  0  0  0
  -18.5666    0.5774  -15.3478 C   0  0  0  0  0  0  0  0  0  0  0  0
  -19.9236    0.3702  -15.0857 C   0  0  0  0  0  0  0  0  0  0  0  0
  -20.6872    1.3942  -14.5247 C   0  0  0  0  0  0  0  0  0  0  0  0
  -20.0878    2.6238  -14.2628 C   0  0  0  0  0  0  0  0  0  0  0  0
  -20.7966    3.6148  -13.6998 F   0  0  0  0  0  0  0  0  0  0  0  0
  -18.7475    2.8485  -14.5727 C   0  0  0  0  0  0  0  0  0  0  0  0
  -22.0592    1.1691  -14.2033 C   0  0  0  0  0  0  0  0  0  0  0  0
  -23.1657    0.9865  -13.8965 N   0  0  0  0  0  0  0  0  0  0  0  0
  -13.8346    2.9654  -18.7350 C   0  0  0  0  0  0  0  0  0  0  0  0
  -14.1523    3.7120  -17.4376 C   0  0  0  0  0  0  0  0  0  0  0  0
  -14.9100    5.0075  -17.7334 C   0  0  0  0  0  0  0  0  0  0  0  0
 22 23  1  0  0  0
 23 24  1  0  0  0
 23  1  1  0  0  0
  1  2  1  0  0  0
  1 10  1  0  0  0
  2  3  2  0  0  0
  3 13  1  0  0  0
  3  4  1  0  0  0
 13 14  1  0  0  0
 13 19  2  0  0  0
 14 15  2  0  0  0
 15 16  1  0  0  0
 16 20  1  0  0  0
 16 17  2  0  0  0
 20 21  3  0  0  0
 17 18  1  0  0  0
 17 19  1  0  0  0
  4  5  1  0  0  0
  4 10  2  0  0  0
  5  6  1  0  0  0
  5  7  2  0  0  0
  6 11  1  0  0  0
  6 12  1  0  0  0
  7  8  1  0  0  0
  8  9  2  0  0  0
  9 10  1  0  0  0
M  END
> <minimizedAffinity>
-7.22980

$$$$
