CHEMBL1095465


 33 36  0  0  0  0  0  0  0  0999 V2000
  -15.7665   -2.7056  -12.8528 C   0  0  0  0  0  0  0  0  0  0  0  0
  -16.3395   -1.9769  -13.8821 C   0  0  0  0  0  0  0  0  0  0  0  0
  -15.5879   -0.7721  -14.0279 C   0  0  0  0  0  0  0  0  0  0  0  0
  -15.7073    0.4307  -14.7469 C   0  0  0  0  0  0  0  0  0  0  0  0
  -14.7656    1.3854  -14.5257 N   0  0  0  0  0  0  0  0  0  0  0  0
  -13.7625    1.1586  -13.6684 C   0  0  0  0  0  0  0  0  0  0  0  0
  -12.9171    2.2280  -13.4259 N   0  0  0  0  0  0  0  0  0  0  0  0
  -13.5564    0.0455  -12.9569 N   0  0  0  0  0  0  0  0  0  0  0  0
  -14.5003   -0.8795  -13.1792 C   0  0  0  0  0  0  0  0  0  0  0  0
  -14.5683   -2.0946  -12.5527 N   0  0  0  0  0  0  0  0  0  0  0  0
  -13.4216    3.0797  -13.6384 H   0  0  0  0  0  0  0  0  0  0  0  0
  -12.5482    2.1464  -12.4885 H   0  0  0  0  0  0  0  0  0  0  0  0
  -13.8914   -2.4206  -11.8776 H   0  0  0  0  0  0  0  0  0  0  0  0
  -16.8044    0.6740  -15.5862 N   0  0  0  0  0  0  0  0  0  0  0  0
  -16.6425    0.4025  -16.5459 H   0  0  0  0  0  0  0  0  0  0  0  0
  -17.9695    1.4320  -15.3795 C   0  0  0  0  0  0  0  0  0  0  0  0
  -18.0180    2.8240  -15.5351 C   0  0  0  0  0  0  0  0  0  0  0  0
  -19.1958    3.5421  -15.3205 C   0  0  0  0  0  0  0  0  0  0  0  0
  -20.3528    2.8721  -14.9134 C   0  0  0  0  0  0  0  0  0  0  0  0
  -20.3113    1.4958  -14.7235 C   0  0  0  0  0  0  0  0  0  0  0  0
  -21.8733    0.5833  -14.1701 Br  0  0  0  0  0  0  0  0  0  0  0  0
  -19.1319    0.7797  -14.9428 C   0  0  0  0  0  0  0  0  0  0  0  0
  -16.2886   -3.8485  -12.0394 C   0  0  0  0  0  0  0  0  0  0  0  0
  -14.6107   -7.2448  -12.4798 C   0  0  0  0  0  0  0  0  0  0  0  0
  -13.6753   -7.2345  -11.4522 C   0  0  0  0  0  0  0  0  0  0  0  0
  -13.5949   -6.1413  -10.5845 C   0  0  0  0  0  0  0  0  0  0  0  0
  -14.4418   -5.0374  -10.7346 C   0  0  0  0  0  0  0  0  0  0  0  0
  -15.3405   -5.0024  -11.8147 C   0  0  0  0  0  0  0  0  0  0  0  0
  -15.4236   -6.1248  -12.6657 C   0  0  0  0  0  0  0  0  0  0  0  0
  -13.8238   -8.5109  -14.3272 C   0  0  0  0  0  0  0  0  0  0  0  0
  -14.8317   -8.2756  -13.3506 O   0  0  0  0  0  0  0  0  0  0  0  0
  -14.4766   -3.9720   -9.8701 O   0  0  0  0  0  0  0  0  0  0  0  0
  -13.2622   -3.6716   -9.1876 C   0  0  0  0  0  0  0  0  0  0  0  0
 30 31  1  0  0  0
 31 24  1  0  0  0
 24 25  1  0  0  0
 24 29  2  0  0  0
 25 26  2  0  0  0
 26 27  1  0  0  0
 27 32  1  0  0  0
 27 28  2  0  0  0
 32 33  1  0  0  0
 28 23  1  0  0  0
 28 29  1  0  0  0
 23  1  1  0  0  0
  1  2  2  0  0  0
  1 10  1  0  0  0
  2  3  1  0  0  0
  3  4  1  0  0  0
  3  9  2  0  0  0
  4 14  1  0  0  0
  4  5  2  0  0  0
 14 16  1  0  0  0
 14 15  1  0  0  0
 16 17  1  0  0  0
 16 22  2  0  0  0
 17 18  2  0  0  0
 18 19  1  0  0  0
 19 20  2  0  0  0
 20 21  1  0  0  0
 20 22  1  0  0  0
  5  6  1  0  0  0
  6  7  1  0  0  0
  6  8  2  0  0  0
  7 11  1  0  0  0
  7 12  1  0  0  0
  8  9  1  0  0  0
  9 10  1  0  0  0
 10 13  1  0  0  0
M  END
> <minimizedAffinity>
-8.81043

$$$$
