CHEMBL2332119


 26 27  0  0  0  0  0  0  0  0999 V2000
  -14.6668    2.3996  -15.0400 C   0  0  0  0  0  0  0  0  0  0  0  0
  -14.4006    1.5062  -14.0619 C   0  0  0  0  0  0  0  0  0  0  0  0
  -13.1659    1.2257  -13.4894 N   0  0  0  0  0  0  0  0  0  0  0  0
  -15.5308    0.7081  -13.4797 C   0  0  0  0  0  0  0  0  0  0  0  0
  -15.3995    0.0840  -12.4319 O   0  0  0  0  0  0  0  0  0  0  0  0
  -16.8082    0.6902  -14.1912 C   0  0  0  0  0  0  0  0  0  0  0  0
  -17.0975    1.5677  -15.1543 C   0  0  0  0  0  0  0  0  0  0  0  0
  -16.0493    2.5561  -15.5714 C   0  0  0  0  0  0  0  0  0  0  0  0
  -16.3543    3.4623  -16.3503 O   0  0  0  0  0  0  0  0  0  0  0  0
  -12.4614    1.9558  -13.6326 H   0  0  0  0  0  0  0  0  0  0  0  0
  -13.2410    0.8800  -12.5295 H   0  0  0  0  0  0  0  0  0  0  0  0
  -13.6553    4.5791  -15.4466 N   0  0  0  0  0  0  0  0  0  0  0  0
  -13.5394    3.2303  -15.5722 C   0  0  0  0  0  0  0  0  0  0  0  0
  -12.5302    2.7558  -16.0889 O   0  0  0  0  0  0  0  0  0  0  0  0
  -12.8903    5.1625  -15.7568 H   0  0  0  0  0  0  0  0  0  0  0  0
  -14.4045    5.0071  -14.9041 H   0  0  0  0  0  0  0  0  0  0  0  0
  -18.3153    1.6305  -15.8149 N   0  0  0  0  0  0  0  0  0  0  0  0
  -18.3083    2.2625  -16.6233 H   0  0  0  0  0  0  0  0  0  0  0  0
  -19.5810    1.7452  -15.1786 C   0  0  0  0  0  0  0  0  0  0  0  0
  -20.4026    0.6404  -14.9130 C   0  0  0  0  0  0  0  0  0  0  0  0
  -21.6505    0.8032  -14.3077 C   0  0  0  0  0  0  0  0  0  0  0  0
  -22.1065    2.0767  -13.9782 C   0  0  0  0  0  0  0  0  0  0  0  0
  -21.3146    3.1940  -14.2491 C   0  0  0  0  0  0  0  0  0  0  0  0
  -20.0594    3.0232  -14.8397 C   0  0  0  0  0  0  0  0  0  0  0  0
  -19.2671    4.1111  -15.0930 O   0  0  0  0  0  0  0  0  0  0  0  0
  -19.7674    4.9159  -14.8813 H   0  0  0  0  0  0  0  0  0  0  0  0
 12 13  1  0  0  0
 12 15  1  0  0  0
 12 16  1  0  0  0
 13 14  2  0  0  0
 13  1  1  0  0  0
  1  2  2  0  0  0
  1  8  1  0  0  0
  2  3  1  0  0  0
  2  4  1  0  0  0
  3 10  1  0  0  0
  3 11  1  0  0  0
  4  5  2  0  0  0
  4  6  1  0  0  0
  6  7  2  0  0  0
  7 17  1  0  0  0
  7  8  1  0  0  0
 17 19  1  0  0  0
 17 18  1  0  0  0
 19 20  1  0  0  0
 19 24  2  0  0  0
 20 21  2  0  0  0
 21 22  1  0  0  0
 22 23  2  0  0  0
 23 24  1  0  0  0
 24 25  1  0  0  0
 25 26  1  0  0  0
  8  9  2  0  0  0
M  END
> <minimizedAffinity>
-7.31490

$$$$
