CHEMBL3895870


 30 33  0  0  0  0  0  0  0  0999 V2000
  -19.3979    2.3590  -15.1267 C   0  0  0  0  0  0  0  0  0  0  0  0
  -19.5295    0.9730  -15.1659 C   0  0  0  0  0  0  0  0  0  0  0  0
  -20.7388    0.3592  -14.7994 C   0  0  0  0  0  0  0  0  0  0  0  0
  -21.8418    1.1116  -14.3839 C   0  0  0  0  0  0  0  0  0  0  0  0
  -21.7012    2.5048  -14.3346 C   0  0  0  0  0  0  0  0  0  0  0  0
  -20.4864    3.1225  -14.6949 C   0  0  0  0  0  0  0  0  0  0  0  0
  -23.0965    0.5346  -14.0324 N   0  0  0  0  0  0  0  0  0  0  0  0
  -23.3294   -0.2920  -12.9390 C   0  0  0  0  0  0  0  0  0  0  0  0
  -22.5049   -0.5792  -12.0748 O   0  0  0  0  0  0  0  0  0  0  0  0
  -23.8980    0.8379  -14.5698 H   0  0  0  0  0  0  0  0  0  0  0  0
  -24.7132   -0.8303  -12.7569 C   0  0  0  0  0  0  0  0  0  0  0  0
  -25.4089   -0.7733  -11.5430 C   0  0  0  0  0  0  0  0  0  0  0  0
  -26.7297   -1.2433  -11.4734 C   0  0  0  0  0  0  0  0  0  0  0  0
  -27.3582   -1.7639  -12.6057 C   0  0  0  0  0  0  0  0  0  0  0  0
  -26.6762   -1.8120  -13.8182 C   0  0  0  0  0  0  0  0  0  0  0  0
  -25.3631   -1.3436  -13.8921 C   0  0  0  0  0  0  0  0  0  0  0  0
  -17.1359    3.4724  -15.9268 C   0  0  0  0  0  0  0  0  0  0  0  0
  -18.1752    2.9852  -15.5572 C   0  0  0  0  0  0  0  0  0  0  0  0
  -10.6987    6.2257  -16.0576 N   0  0  0  0  0  0  0  0  0  0  0  0
  -11.9073    5.7107  -16.2683 C   0  0  0  0  0  0  0  0  0  0  0  0
  -12.8258    5.3319  -15.3259 C   0  0  0  0  0  0  0  0  0  0  0  0
  -13.8950    4.8687  -16.0445 N   0  0  0  0  0  0  0  0  0  0  0  0
  -15.0705    4.3721  -15.5280 N   0  0  0  0  0  0  0  0  0  0  0  0
  -15.8947    4.0018  -16.4573 C   0  0  0  0  0  0  0  0  0  0  0  0
  -15.6690    4.0696  -17.9233 C   0  0  0  0  0  0  0  0  0  0  0  0
  -14.4989    4.5684  -18.3414 C   0  0  0  0  0  0  0  0  0  0  0  0
  -13.5514    4.9941  -17.3861 C   0  0  0  0  0  0  0  0  0  0  0  0
  -12.3470    5.5077  -17.5341 N   0  0  0  0  0  0  0  0  0  0  0  0
  -10.3273    6.4416  -15.1430 H   0  0  0  0  0  0  0  0  0  0  0  0
  -10.1284    6.5042  -16.8478 H   0  0  0  0  0  0  0  0  0  0  0  0
 19 20  1  0  0  0
 19 29  1  0  0  0
 19 30  1  0  0  0
 20 21  2  0  0  0
 20 28  1  0  0  0
 21 22  1  0  0  0
 22 23  1  0  0  0
 22 27  1  0  0  0
 23 24  2  0  0  0
 24 17  1  0  0  0
 24 25  1  0  0  0
 17 18  3  0  0  0
 18  1  1  0  0  0
  1  2  1  0  0  0
  1  6  2  0  0  0
  2  3  2  0  0  0
  3  4  1  0  0  0
  4  7  1  0  0  0
  4  5  2  0  0  0
  7  8  1  0  0  0
  7 10  1  0  0  0
  8  9  2  0  0  0
  8 11  1  0  0  0
 11 12  1  0  0  0
 11 16  2  0  0  0
 12 13  2  0  0  0
 13 14  1  0  0  0
 14 15  2  0  0  0
 15 16  1  0  0  0
  5  6  1  0  0  0
 25 26  2  0  0  0
 26 27  1  0  0  0
 27 28  2  0  0  0
M  END
> <minimizedAffinity>
-10.47299

$$$$
