CHEMBL2096839


 40 45  0  0  0  0  0  0  0  0999 V2000
  -28.2436   -3.2751   -4.8746 C   0  0  0  0  0  0  0  0  0  0  0  0
  -27.1995   -3.8197   -4.2264 N   0  0  0  0  0  0  0  0  0  0  0  0
  -27.7437   -4.7858   -3.4396 N   0  0  0  0  0  0  0  0  0  0  0  0
  -29.0984   -4.9259   -3.5944 C   0  0  0  0  0  0  0  0  0  0  0  0
  -29.4641   -3.7845   -4.3383 C   0  0  0  0  0  0  0  0  0  0  0  0
  -30.7455   -4.0057   -5.0561 C   0  0  0  0  0  0  0  0  0  0  0  0
  -30.3581   -5.4459   -5.3594 C   0  0  0  0  0  0  0  0  0  0  0  0
  -29.8119   -5.8445   -6.5793 C   0  0  0  0  0  0  0  0  0  0  0  0
  -29.2092   -7.0887   -6.6641 C   0  0  0  0  0  0  0  0  0  0  0  0
  -29.3430   -7.9667   -5.5901 C   0  0  0  0  0  0  0  0  0  0  0  0
  -29.4995   -7.4257   -4.2902 C   0  0  0  0  0  0  0  0  0  0  0  0
  -29.8405   -6.0769   -4.2042 C   0  0  0  0  0  0  0  0  0  0  0  0
  -27.1093   -5.3837   -2.9237 H   0  0  0  0  0  0  0  0  0  0  0  0
  -28.1371   -1.9771   -8.6680 C   0  0  0  0  0  0  0  0  0  0  0  0
  -27.9075   -0.8879   -7.8462 C   0  0  0  0  0  0  0  0  0  0  0  0
  -27.9129   -1.2361   -6.4531 C   0  0  0  0  0  0  0  0  0  0  0  0
  -28.1232   -2.5867   -6.2362 C   0  0  0  0  0  0  0  0  0  0  0  0
  -28.3942   -3.3977   -7.7247 S   0  0  0  0  0  0  0  0  0  0  0  0
  -28.0011   -2.0968  -10.1627 C   0  0  0  0  0  0  0  0  0  0  0  0
  -24.7507   -1.8855  -11.7715 N   0  0  0  0  0  0  0  0  0  0  0  0
  -26.0574   -1.5602  -11.4694 C   0  0  0  0  0  0  0  0  0  0  0  0
  -26.6634   -0.5714  -11.8717 O   0  0  0  0  0  0  0  0  0  0  0  0
  -26.6803   -2.4861  -10.6337 N   0  0  0  0  0  0  0  0  0  0  0  0
  -24.4366   -2.7988  -11.4772 H   0  0  0  0  0  0  0  0  0  0  0  0
  -26.0831   -2.9711   -9.9821 H   0  0  0  0  0  0  0  0  0  0  0  0
  -20.9592    1.1950  -14.8277 C   0  0  0  0  0  0  0  0  0  0  0  0
  -21.9606    0.4035  -14.0373 C   0  0  0  0  0  0  0  0  0  0  0  0
  -23.0097   -0.2575  -14.6828 C   0  0  0  0  0  0  0  0  0  0  0  0
  -23.9388   -1.0096  -13.9540 C   0  0  0  0  0  0  0  0  0  0  0  0
  -23.8470   -1.1258  -12.5641 C   0  0  0  0  0  0  0  0  0  0  0  0
  -22.8003   -0.4545  -11.9177 C   0  0  0  0  0  0  0  0  0  0  0  0
  -21.8646    0.2989  -12.6456 C   0  0  0  0  0  0  0  0  0  0  0  0
  -29.6437   -9.4193   -5.9443 C   0  0  0  0  0  0  0  0  0  0  0  0
  -29.3794   -9.6773   -7.3857 N   0  0  0  0  0  0  0  0  0  0  0  0
  -27.9496   -9.8656   -7.7337 C   0  0  0  0  0  0  0  0  0  0  0  0
  -27.7515   -9.9842   -9.2601 C   0  0  0  0  0  0  0  0  0  0  0  0
  -28.4835  -11.0986   -9.8840 N   0  0  0  0  0  0  0  0  0  0  0  0
  -27.8370  -12.3836   -9.6171 C   0  0  0  0  0  0  0  0  0  0  0  0
  -29.8865  -11.0724   -9.4227 C   0  0  0  0  0  0  0  0  0  0  0  0
  -30.1064  -10.8577   -7.8949 C   0  0  0  0  0  0  0  0  0  0  0  0
 26 27  1  0  0  0
 27 28  1  0  0  0
 27 32  2  0  0  0
 28 29  2  0  0  0
 29 30  1  0  0  0
 30 20  1  0  0  0
 30 31  2  0  0  0
 20 21  1  0  0  0
 20 24  1  0  0  0
 21 22  2  0  0  0
 21 23  1  0  0  0
 23 19  1  0  0  0
 23 25  1  0  0  0
 19 14  1  0  0  0
 14 15  2  0  0  0
 14 18  1  0  0  0
 15 16  1  0  0  0
 16 17  2  0  0  0
 17  1  1  0  0  0
 17 18  1  0  0  0
  1  2  2  0  0  0
  1  5  1  0  0  0
  2  3  1  0  0  0
  3  4  1  0  0  0
  3 13  1  0  0  0
  4  5  2  0  0  0
  4 12  1  0  0  0
  5  6  1  0  0  0
  6  7  1  0  0  0
  7  8  1  0  0  0
  7 12  2  0  0  0
  8  9  2  0  0  0
  9 10  1  0  0  0
 10 33  1  0  0  0
 10 11  2  0  0  0
 33 34  1  0  0  0
 34 35  1  0  0  0
 34 40  1  0  0  0
 35 36  1  0  0  0
 36 37  1  0  0  0
 37 38  1  0  0  0
 37 39  1  0  0  0
 39 40  1  0  0  0
 11 12  1  0  0  0
 31 32  1  0  0  0
M  END
> <minimizedAffinity>
-11.05747

$$$$
