CHEMBL2032017


 42 47  0  0  0  0  0  0  0  0999 V2000
  -27.9968   -4.4694   -6.6591 N   0  0  0  0  0  0  0  0  0  0  0  0
  -28.8505   -5.5538   -6.7028 C   0  0  0  0  0  0  0  0  0  0  0  0
  -29.6293   -5.8137   -7.6240 O   0  0  0  0  0  0  0  0  0  0  0  0
  -27.3817   -4.3612   -5.8620 H   0  0  0  0  0  0  0  0  0  0  0  0
  -28.8112   -6.5065   -5.5726 C   0  0  0  0  0  0  0  0  0  0  0  0
  -29.3394   -6.2927   -4.3478 C   0  0  0  0  0  0  0  0  0  0  0  0
  -29.3907   -7.4503   -3.5632 N   0  0  0  0  0  0  0  0  0  0  0  0
  -29.3359   -7.4599   -2.1015 C   0  0  0  0  0  0  0  0  0  0  0  0
  -28.6188   -8.4081   -4.2511 N   0  0  0  0  0  0  0  0  0  0  0  0
  -28.3066   -7.9028   -5.5274 C   0  0  0  0  0  0  0  0  0  0  0  0
  -27.7510   -8.4480   -6.4699 O   0  0  0  0  0  0  0  0  0  0  0  0
  -29.7590   -4.9877   -3.8346 C   0  0  0  0  0  0  0  0  0  0  0  0
  -31.0939   -4.6512   -3.6437 C   0  0  0  0  0  0  0  0  0  0  0  0
  -31.4887   -3.4589   -3.1278 N   0  0  0  0  0  0  0  0  0  0  0  0
  -30.4820   -2.5914   -2.8537 C   0  0  0  0  0  0  0  0  0  0  0  0
  -29.1482   -2.9144   -3.0471 C   0  0  0  0  0  0  0  0  0  0  0  0
  -28.7548   -4.1180   -3.5193 N   0  0  0  0  0  0  0  0  0  0  0  0
  -28.6096   -9.7719   -3.8932 C   0  0  0  0  0  0  0  0  0  0  0  0
  -27.3995  -10.3659   -3.5155 C   0  0  0  0  0  0  0  0  0  0  0  0
  -27.3633  -11.7004   -3.1028 C   0  0  0  0  0  0  0  0  0  0  0  0
  -28.5289  -12.4641   -3.1040 C   0  0  0  0  0  0  0  0  0  0  0  0
  -29.7372  -11.8857   -3.4870 C   0  0  0  0  0  0  0  0  0  0  0  0
  -29.7822  -10.5370   -3.8598 C   0  0  0  0  0  0  0  0  0  0  0  0
  -27.6844   -1.6927   -9.8119 C   0  0  0  0  0  0  0  0  0  0  0  0
  -28.1723   -1.2854   -8.5698 C   0  0  0  0  0  0  0  0  0  0  0  0
  -28.2752   -2.2067   -7.5084 C   0  0  0  0  0  0  0  0  0  0  0  0
  -27.8907   -3.5286   -7.7139 C   0  0  0  0  0  0  0  0  0  0  0  0
  -27.4007   -3.9160   -8.9055 N   0  0  0  0  0  0  0  0  0  0  0  0
  -27.2789   -3.0111   -9.9072 C   0  0  0  0  0  0  0  0  0  0  0  0
  -27.6685   -0.7597  -10.8257 O   0  0  0  0  0  0  0  0  0  0  0  0
  -23.2125   -0.3255  -13.4196 C   0  0  0  0  0  0  0  0  0  0  0  0
  -23.5404   -0.0494  -12.1021 C   0  0  0  0  0  0  0  0  0  0  0  0
  -24.7988   -0.3801  -11.6169 C   0  0  0  0  0  0  0  0  0  0  0  0
  -25.8024   -0.8953  -12.4686 C   0  0  0  0  0  0  0  0  0  0  0  0
  -27.1515   -1.0763  -12.0749 C   0  0  0  0  0  0  0  0  0  0  0  0
  -28.0394   -1.6755  -12.9564 C   0  0  0  0  0  0  0  0  0  0  0  0
  -27.5852   -2.0271  -14.2111 C   0  0  0  0  0  0  0  0  0  0  0  0
  -26.3241   -1.7980  -14.6431 N   0  0  0  0  0  0  0  0  0  0  0  0
  -25.4535   -1.2288  -13.7896 C   0  0  0  0  0  0  0  0  0  0  0  0
  -24.1606   -0.9446  -14.2410 C   0  0  0  0  0  0  0  0  0  0  0  0
  -21.6237    1.3270  -14.0038 C   0  0  0  0  0  0  0  0  0  0  0  0
  -22.0059   -0.0469  -13.9957 O   0  0  0  0  0  0  0  0  0  0  0  0
 41 42  1  0  0  0
 42 31  1  0  0  0
 31 32  1  0  0  0
 31 40  2  0  0  0
 32 33  2  0  0  0
 33 34  1  0  0  0
 34 35  1  0  0  0
 34 39  2  0  0  0
 35 30  1  0  0  0
 35 36  2  0  0  0
 30 24  1  0  0  0
 24 25  1  0  0  0
 24 29  2  0  0  0
 25 26  2  0  0  0
 26 27  1  0  0  0
 27  1  1  0  0  0
 27 28  2  0  0  0
  1  2  1  0  0  0
  1  4  1  0  0  0
  2  3  2  0  0  0
  2  5  1  0  0  0
  5  6  2  0  0  0
  5 10  1  0  0  0
  6 12  1  0  0  0
  6  7  1  0  0  0
 12 13  1  0  0  0
 12 17  2  0  0  0
 13 14  2  0  0  0
 14 15  1  0  0  0
 15 16  2  0  0  0
 16 17  1  0  0  0
  7  8  1  0  0  0
  7  9  1  0  0  0
  9 18  1  0  0  0
  9 10  1  0  0  0
 18 19  1  0  0  0
 18 23  2  0  0  0
 19 20  2  0  0  0
 20 21  1  0  0  0
 21 22  2  0  0  0
 22 23  1  0  0  0
 10 11  2  0  0  0
 28 29  1  0  0  0
 36 37  1  0  0  0
 37 38  2  0  0  0
 38 39  1  0  0  0
 39 40  1  0  0  0
M  END
> <minimizedAffinity>
-7.03368

$$$$
