CHEMBL3928627


 30 34  0  0  0  0  0  0  0  0999 V2000
  -29.0484   -5.0026   -5.3489 C   0  0  0  0  0  0  0  0  0  0  0  0
  -29.4625   -5.4062   -6.6218 C   0  0  0  0  0  0  0  0  0  0  0  0
  -29.2794   -6.7156   -7.0764 C   0  0  0  0  0  0  0  0  0  0  0  0
  -28.5431   -7.6244   -6.3437 C   0  0  0  0  0  0  0  0  0  0  0  0
  -28.3295   -8.8414   -6.8696 N   0  0  0  0  0  0  0  0  0  0  0  0
  -27.5096   -9.6525   -6.1613 C   0  0  0  0  0  0  0  0  0  0  0  0
  -26.9218   -9.2709   -4.9671 C   0  0  0  0  0  0  0  0  0  0  0  0
  -27.1852   -8.0614   -4.4086 N   0  0  0  0  0  0  0  0  0  0  0  0
  -28.0005   -7.2357   -5.1008 C   0  0  0  0  0  0  0  0  0  0  0  0
  -28.3071   -5.9622   -4.6110 C   0  0  0  0  0  0  0  0  0  0  0  0
  -25.9679  -10.1381   -4.2871 C   0  0  0  0  0  0  0  0  0  0  0  0
  -24.8639   -9.8266   -3.4578 C   0  0  0  0  0  0  0  0  0  0  0  0
  -24.2413  -10.9143   -3.0035 N   0  0  0  0  0  0  0  0  0  0  0  0
  -24.9445  -11.9341   -3.5315 N   0  0  0  0  0  0  0  0  0  0  0  0
  -25.9887  -11.5115   -4.3027 C   0  0  0  0  0  0  0  0  0  0  0  0
  -24.6535  -12.8811   -3.3249 H   0  0  0  0  0  0  0  0  0  0  0  0
  -29.3319   -3.6889   -4.8372 N   0  0  0  0  0  0  0  0  0  0  0  0
  -27.8718   -1.1642   -7.2789 C   0  0  0  0  0  0  0  0  0  0  0  0
  -28.2634    0.0348   -6.7208 C   0  0  0  0  0  0  0  0  0  0  0  0
  -29.1144   -0.0052   -5.6257 C   0  0  0  0  0  0  0  0  0  0  0  0
  -29.5750    1.1501   -5.1246 F   0  0  0  0  0  0  0  0  0  0  0  0
  -29.5092   -1.2121   -5.0271 C   0  0  0  0  0  0  0  0  0  0  0  0
  -29.0550   -2.4521   -5.4925 C   0  0  0  0  0  0  0  0  0  0  0  0
  -28.3085   -2.3673   -6.6911 C   0  0  0  0  0  0  0  0  0  0  0  0
  -27.6342   -1.9973   -9.5043 C   0  0  0  0  0  0  0  0  0  0  0  0
  -27.0748   -1.3311   -8.3791 O   0  0  0  0  0  0  0  0  0  0  0  0
  -30.2216   -3.7560   -3.6390 C   0  0  0  0  0  0  0  0  0  0  0  0
  -31.6155   -4.3171   -3.8117 C   0  0  0  0  0  0  0  0  0  0  0  0
  -32.3874   -5.0364   -2.7339 C   0  0  0  0  0  0  0  0  0  0  0  0
  -31.7813   -5.8291   -3.8477 C   0  0  0  0  0  0  0  0  0  0  0  0
 25 26  1  0  0  0
 26 18  1  0  0  0
 18 19  1  0  0  0
 18 24  2  0  0  0
 19 20  2  0  0  0
 20 21  1  0  0  0
 20 22  1  0  0  0
 22 23  2  0  0  0
 23 17  1  0  0  0
 23 24  1  0  0  0
 17 27  1  0  0  0
 17  1  1  0  0  0
 27 28  1  0  0  0
 28 29  1  0  0  0
 28 30  1  0  0  0
 29 30  1  0  0  0
  1  2  1  0  0  0
  1 10  2  0  0  0
  2  3  2  0  0  0
  3  4  1  0  0  0
  4  5  1  0  0  0
  4  9  2  0  0  0
  5  6  2  0  0  0
  6  7  1  0  0  0
  7 11  1  0  0  0
  7  8  2  0  0  0
 11 12  1  0  0  0
 11 15  2  0  0  0
 12 13  2  0  0  0
 13 14  1  0  0  0
 14 15  1  0  0  0
 14 16  1  0  0  0
  8  9  1  0  0  0
  9 10  1  0  0  0
M  END
> <minimizedAffinity>
-8.79896

$$$$
