CHEMBL292930


 42 46  0  0  0  0  0  0  0  0999 V2000
  -30.6201   -7.6583   -7.2120 C   0  0  0  0  0  0  0  0  0  0  0  0
  -31.7659   -8.2387   -6.7211 N   0  0  0  0  0  0  0  0  0  0  0  0
  -31.8707   -9.5229   -7.1462 C   0  0  0  0  0  0  0  0  0  0  0  0
  -30.7535   -9.8360   -7.8864 C   0  0  0  0  0  0  0  0  0  0  0  0
  -29.9664   -8.6336   -7.9810 C   0  0  0  0  0  0  0  0  0  0  0  0
  -30.5446  -11.2314   -8.3943 C   0  0  0  0  0  0  0  0  0  0  0  0
  -31.8358  -12.0751   -8.3280 C   0  0  0  0  0  0  0  0  0  0  0  0
  -32.6141  -11.8658   -7.0196 C   0  0  0  0  0  0  0  0  0  0  0  0
  -33.0317  -10.4005   -6.8480 C   0  0  0  0  0  0  0  0  0  0  0  0
  -32.4850   -7.7571   -6.1963 H   0  0  0  0  0  0  0  0  0  0  0  0
  -28.7693   -2.2532   -5.1336 C   0  0  0  0  0  0  0  0  0  0  0  0
  -28.2886   -2.4050   -3.8175 C   0  0  0  0  0  0  0  0  0  0  0  0
  -28.3602   -3.6396   -3.1872 C   0  0  0  0  0  0  0  0  0  0  0  0
  -28.9033   -4.6827   -3.9079 C   0  0  0  0  0  0  0  0  0  0  0  0
  -29.3719   -4.5697   -5.2277 C   0  0  0  0  0  0  0  0  0  0  0  0
  -29.3051   -3.3368   -5.8630 C   0  0  0  0  0  0  0  0  0  0  0  0
  -29.8095   -5.9365   -5.6156 C   0  0  0  0  0  0  0  0  0  0  0  0
  -30.2835   -6.3222   -6.8186 C   0  0  0  0  0  0  0  0  0  0  0  0
  -29.5840   -6.8059   -4.3914 C   0  0  0  0  0  0  0  0  0  0  0  0
  -29.7754   -7.9967   -4.2376 O   0  0  0  0  0  0  0  0  0  0  0  0
  -29.0404   -5.9754   -3.4388 N   0  0  0  0  0  0  0  0  0  0  0  0
  -28.7684   -6.3126   -2.5288 H   0  0  0  0  0  0  0  0  0  0  0  0
  -28.5626   -0.6581   -5.8987 S   0  0  0  0  0  0  0  0  0  0  0  0
  -28.3276   -0.8742   -7.3086 O   0  0  0  0  0  0  0  0  0  0  0  0
  -27.6467    0.1220   -5.0881 O   0  0  0  0  0  0  0  0  0  0  0  0
  -30.2642    1.4250   -6.1649 C   0  0  0  0  0  0  0  0  0  0  0  0
  -30.0927    0.0266   -5.7813 N   0  0  0  0  0  0  0  0  0  0  0  0
  -30.8080   -0.6310   -6.0935 H   0  0  0  0  0  0  0  0  0  0  0  0
  -28.6660   -8.4135   -8.7001 C   0  0  0  0  0  0  0  0  0  0  0  0
  -27.4462   -9.2236   -8.2569 C   0  0  0  0  0  0  0  0  0  0  0  0
  -27.3393   -9.4779   -6.7400 C   0  0  0  0  0  0  0  0  0  0  0  0
  -26.6328  -10.7418   -6.4257 N   0  0  0  0  0  0  0  0  0  0  0  0
  -26.7815  -11.1778   -5.0279 C   0  0  0  0  0  0  0  0  0  0  0  0
  -25.9989  -10.3074   -4.0228 C   0  0  0  0  0  0  0  0  0  0  0  0
  -24.5345  -10.2114   -4.2771 N   0  0  0  0  0  0  0  0  0  0  0  0
  -24.3394   -9.8544   -5.7108 C   0  0  0  0  0  0  0  0  0  0  0  0
  -25.1892  -10.6545   -6.7386 C   0  0  0  0  0  0  0  0  0  0  0  0
  -23.8424  -11.4983   -3.9738 C   0  0  0  0  0  0  0  0  0  0  0  0
  -22.4168  -11.2368   -3.4850 C   0  0  0  0  0  0  0  0  0  0  0  0
  -22.0970  -11.0983   -2.3147 O   0  0  0  0  0  0  0  0  0  0  0  0
  -21.5222  -11.2159   -4.5074 O   0  0  0  0  0  0  0  0  0  0  0  0
  -22.0380  -11.3000   -5.3438 H   0  0  0  0  0  0  0  0  0  0  0  0
 26 27  1  0  0  0
 27 23  1  0  0  0
 27 28  1  0  0  0
 23 24  2  0  0  0
 23 25  2  0  0  0
 23 11  1  0  0  0
 11 12  1  0  0  0
 11 16  2  0  0  0
 12 13  2  0  0  0
 13 14  1  0  0  0
 14 15  2  0  0  0
 14 21  1  0  0  0
 15 16  1  0  0  0
 15 17  1  0  0  0
 17 18  2  0  0  0
 17 19  1  0  0  0
 18  1  1  0  0  0
  1  2  1  0  0  0
  1  5  2  0  0  0
  2  3  1  0  0  0
  2 10  1  0  0  0
  3  4  2  0  0  0
  3  9  1  0  0  0
  4  5  1  0  0  0
  4  6  1  0  0  0
  5 29  1  0  0  0
 29 30  1  0  0  0
 30 31  1  0  0  0
 31 32  1  0  0  0
 32 33  1  0  0  0
 32 37  1  0  0  0
 33 34  1  0  0  0
 34 35  1  0  0  0
 35 38  1  0  0  0
 35 36  1  0  0  0
 38 39  1  0  0  0
 39 40  2  0  0  0
 39 41  1  0  0  0
 41 42  1  0  0  0
 36 37  1  0  0  0
  6  7  1  0  0  0
  7  8  1  0  0  0
  8  9  1  0  0  0
 19 20  2  0  0  0
 19 21  1  0  0  0
 21 22  1  0  0  0
M  END
> <minimizedAffinity>
-8.89722

$$$$
