CHEMBL3916953


 40 43  0  0  0  0  0  0  0  0999 V2000
  -28.5471   -5.2524   -6.9581 C   0  0  0  0  0  0  0  0  0  0  0  0
  -28.3869   -4.2579   -7.9299 C   0  0  0  0  0  0  0  0  0  0  0  0
  -28.1111   -2.9206   -7.5711 C   0  0  0  0  0  0  0  0  0  0  0  0
  -28.0986   -1.8478   -8.4921 C   0  0  0  0  0  0  0  0  0  0  0  0
  -27.9059   -0.5832   -8.0928 N   0  0  0  0  0  0  0  0  0  0  0  0
  -27.7017   -0.3966   -6.7820 C   0  0  0  0  0  0  0  0  0  0  0  0
  -27.6947   -1.3375   -5.8377 N   0  0  0  0  0  0  0  0  0  0  0  0
  -27.9193   -2.5998   -6.2275 C   0  0  0  0  0  0  0  0  0  0  0  0
  -27.9591   -3.6305   -5.2835 C   0  0  0  0  0  0  0  0  0  0  0  0
  -28.2247   -4.9715   -5.6228 C   0  0  0  0  0  0  0  0  0  0  0  0
  -30.4658   -6.5479   -7.3870 C   0  0  0  0  0  0  0  0  0  0  0  0
  -29.0370   -6.4861   -7.3132 O   0  0  0  0  0  0  0  0  0  0  0  0
  -28.3150   -2.1042   -9.8768 N   0  0  0  0  0  0  0  0  0  0  0  0
  -28.8787   -2.9436   -9.9687 H   0  0  0  0  0  0  0  0  0  0  0  0
  -27.3690   -1.9502  -10.9163 C   0  0  0  0  0  0  0  0  0  0  0  0
  -27.7983   -1.7438  -12.2336 C   0  0  0  0  0  0  0  0  0  0  0  0
  -26.8735   -1.5442  -13.2671 C   0  0  0  0  0  0  0  0  0  0  0  0
  -25.5036   -1.5167  -12.9937 C   0  0  0  0  0  0  0  0  0  0  0  0
  -24.4215   -1.2619  -14.3153 Cl  0  0  0  0  0  0  0  0  0  0  0  0
  -25.0609   -1.6754  -11.6788 C   0  0  0  0  0  0  0  0  0  0  0  0
  -23.3860   -1.6187  -11.2517 Cl  0  0  0  0  0  0  0  0  0  0  0  0
  -25.9931   -1.8845  -10.6509 C   0  0  0  0  0  0  0  0  0  0  0  0
  -28.1427   -5.8489   -4.5580 O   0  0  0  0  0  0  0  0  0  0  0  0
  -29.3872   -6.2704   -3.9941 C   0  0  0  0  0  0  0  0  0  0  0  0
  -29.5184   -7.7875   -3.8363 C   0  0  0  0  0  0  0  0  0  0  0  0
  -28.3566   -8.6709   -4.3242 C   0  0  0  0  0  0  0  0  0  0  0  0
  -28.3621   -9.1444   -5.8005 C   0  0  0  0  0  0  0  0  0  0  0  0
  -29.1961  -10.3298   -6.0823 N   0  0  0  0  0  0  0  0  0  0  0  0
  -29.5311  -10.6702   -7.4013 C   0  0  0  0  0  0  0  0  0  0  0  0
  -30.0454  -11.7410   -7.6969 O   0  0  0  0  0  0  0  0  0  0  0  0
  -29.1201  -11.4279   -5.0551 C   0  0  0  0  0  0  0  0  0  0  0  0
  -30.2692  -12.4637   -5.1411 C   0  0  0  0  0  0  0  0  0  0  0  0
  -27.7846  -12.1960   -5.1853 C   0  0  0  0  0  0  0  0  0  0  0  0
  -29.2069  -10.8047   -3.6403 C   0  0  0  0  0  0  0  0  0  0  0  0
  -28.2135   -9.7949   -3.4273 O   0  0  0  0  0  0  0  0  0  0  0  0
  -29.1990   -9.7408   -8.3530 O   0  0  0  0  0  0  0  0  0  0  0  0
  -28.1031  -10.0691   -9.2716 C   0  0  0  0  0  0  0  0  0  0  0  0
  -27.2504  -11.2810   -8.8399 C   0  0  0  0  0  0  0  0  0  0  0  0
  -28.7439  -10.4526  -10.6208 C   0  0  0  0  0  0  0  0  0  0  0  0
  -27.2285   -8.8196   -9.4794 C   0  0  0  0  0  0  0  0  0  0  0  0
 11 12  1  0  0  0
 12  1  1  0  0  0
  1  2  1  0  0  0
  1 10  2  0  0  0
  2  3  2  0  0  0
  3  4  1  0  0  0
  3  8  1  0  0  0
  4 13  1  0  0  0
  4  5  2  0  0  0
 13 15  1  0  0  0
 13 14  1  0  0  0
 15 16  1  0  0  0
 15 22  2  0  0  0
 16 17  2  0  0  0
 17 18  1  0  0  0
 18 19  1  0  0  0
 18 20  2  0  0  0
 20 21  1  0  0  0
 20 22  1  0  0  0
  5  6  1  0  0  0
  6  7  2  0  0  0
  7  8  1  0  0  0
  8  9  2  0  0  0
  9 10  1  0  0  0
 10 23  1  0  0  0
 23 24  1  0  0  0
 24 25  1  0  0  0
 25 26  1  0  0  0
 26 27  1  0  0  0
 26 35  1  0  0  0
 27 28  1  0  0  0
 28 29  1  0  0  0
 28 31  1  0  0  0
 29 30  2  0  0  0
 29 36  1  0  0  0
 36 37  1  0  0  0
 37 38  1  0  0  0
 37 39  1  0  0  0
 37 40  1  0  0  0
 31 32  1  0  0  0
 31 33  1  0  0  0
 31 34  1  0  0  0
 34 35  1  0  0  0
M  END
> <minimizedAffinity>
-8.50571

$$$$
