CHEMBL3323613


 30 34  0  0  0  0  0  0  0  0999 V2000
  -28.5834   -4.2578   -5.8576 C   0  0  0  0  0  0  0  0  0  0  0  0
  -28.6796   -4.5859   -4.5832 N   0  0  0  0  0  0  0  0  0  0  0  0
  -28.8993   -5.9388   -4.5540 C   0  0  0  0  0  0  0  0  0  0  0  0
  -29.1050   -6.7961   -3.4673 C   0  0  0  0  0  0  0  0  0  0  0  0
  -29.3203   -8.1594   -3.7231 C   0  0  0  0  0  0  0  0  0  0  0  0
  -29.3277   -8.6713   -5.0309 C   0  0  0  0  0  0  0  0  0  0  0  0
  -29.0862   -7.8160   -6.1165 C   0  0  0  0  0  0  0  0  0  0  0  0
  -28.9014   -6.4635   -5.8393 C   0  0  0  0  0  0  0  0  0  0  0  0
  -28.6941   -5.3774   -6.6470 N   0  0  0  0  0  0  0  0  0  0  0  0
  -28.6275   -5.3999   -7.6545 H   0  0  0  0  0  0  0  0  0  0  0  0
  -28.1104    0.8529   -5.0459 Cl  0  0  0  0  0  0  0  0  0  0  0  0
  -28.1253   -0.5189   -6.0848 C   0  0  0  0  0  0  0  0  0  0  0  0
  -27.9091   -0.3535   -7.4500 C   0  0  0  0  0  0  0  0  0  0  0  0
  -27.9116   -1.4717   -8.2774 C   0  0  0  0  0  0  0  0  0  0  0  0
  -27.6497   -1.2815   -9.9683 Cl  0  0  0  0  0  0  0  0  0  0  0  0
  -28.1277   -2.7449   -7.7523 C   0  0  0  0  0  0  0  0  0  0  0  0
  -28.3571   -2.9119   -6.3809 C   0  0  0  0  0  0  0  0  0  0  0  0
  -28.3498   -1.7863   -5.5468 C   0  0  0  0  0  0  0  0  0  0  0  0
  -29.5351  -10.0486   -5.2262 N   0  0  0  0  0  0  0  0  0  0  0  0
  -29.2884  -10.6185   -4.4265 H   0  0  0  0  0  0  0  0  0  0  0  0
  -29.9527  -10.7695   -6.3686 C   0  0  0  0  0  0  0  0  0  0  0  0
  -31.2996  -11.0939   -6.5517 C   0  0  0  0  0  0  0  0  0  0  0  0
  -31.6717  -11.7918   -7.6819 C   0  0  0  0  0  0  0  0  0  0  0  0
  -30.8080  -12.1872   -8.6353 N   0  0  0  0  0  0  0  0  0  0  0  0
  -29.5085  -11.8986   -8.4669 C   0  0  0  0  0  0  0  0  0  0  0  0
  -28.6207  -12.2976   -9.4566 C   0  0  0  0  0  0  0  0  0  0  0  0
  -27.2488  -12.0581   -9.3619 C   0  0  0  0  0  0  0  0  0  0  0  0
  -26.7409  -11.4198   -8.2406 C   0  0  0  0  0  0  0  0  0  0  0  0
  -27.6106  -11.0043   -7.2342 C   0  0  0  0  0  0  0  0  0  0  0  0
  -29.0103  -11.2100   -7.3364 C   0  0  0  0  0  0  0  0  0  0  0  0
 11 12  1  0  0  0
 12 13  1  0  0  0
 12 18  2  0  0  0
 13 14  2  0  0  0
 14 15  1  0  0  0
 14 16  1  0  0  0
 16 17  2  0  0  0
 17  1  1  0  0  0
 17 18  1  0  0  0
  1  2  2  0  0  0
  1  9  1  0  0  0
  2  3  1  0  0  0
  3  4  1  0  0  0
  3  8  2  0  0  0
  4  5  2  0  0  0
  5  6  1  0  0  0
  6 19  1  0  0  0
  6  7  2  0  0  0
 19 21  1  0  0  0
 19 20  1  0  0  0
 21 22  1  0  0  0
 21 30  2  0  0  0
 22 23  2  0  0  0
 23 24  1  0  0  0
 24 25  2  0  0  0
 25 26  1  0  0  0
 25 30  1  0  0  0
 26 27  2  0  0  0
 27 28  1  0  0  0
 28 29  2  0  0  0
 29 30  1  0  0  0
  7  8  1  0  0  0
  8  9  1  0  0  0
  9 10  1  0  0  0
M  END
> <minimizedAffinity>
-7.75267

$$$$
