CHEMBL1987054


 42 47  0  0  0  0  0  0  0  0999 V2000
  -27.9203   -1.9155   -8.4608 N   0  0  0  0  0  0  0  0  0  0  0  0
  -27.9538   -3.2506   -8.2605 N   0  0  0  0  0  0  0  0  0  0  0  0
  -28.4299   -3.3857   -7.0088 C   0  0  0  0  0  0  0  0  0  0  0  0
  -28.6304   -2.1027   -6.3862 C   0  0  0  0  0  0  0  0  0  0  0  0
  -29.0376   -1.5685   -5.1541 C   0  0  0  0  0  0  0  0  0  0  0  0
  -29.3842   -2.2930   -4.0214 N   0  0  0  0  0  0  0  0  0  0  0  0
  -29.1049   -0.2266   -5.0155 N   0  0  0  0  0  0  0  0  0  0  0  0
  -28.7661    0.5470   -6.0638 C   0  0  0  0  0  0  0  0  0  0  0  0
  -28.3462    0.1533   -7.2746 N   0  0  0  0  0  0  0  0  0  0  0  0
  -28.3022   -1.1861   -7.3694 C   0  0  0  0  0  0  0  0  0  0  0  0
  -28.8691   -3.1532   -3.8791 H   0  0  0  0  0  0  0  0  0  0  0  0
  -29.4562   -1.6899   -3.2098 H   0  0  0  0  0  0  0  0  0  0  0  0
  -26.2421   -1.7410  -12.4256 C   0  0  0  0  0  0  0  0  0  0  0  0
  -27.7432   -1.4730  -12.2616 C   0  0  0  0  0  0  0  0  0  0  0  0
  -28.2661   -1.9678  -10.9150 C   0  0  0  0  0  0  0  0  0  0  0  0
  -27.4686   -1.3831   -9.7413 C   0  0  0  0  0  0  0  0  0  0  0  0
  -25.9605   -1.5955   -9.9113 C   0  0  0  0  0  0  0  0  0  0  0  0
  -25.4685   -1.1064  -11.2640 C   0  0  0  0  0  0  0  0  0  0  0  0
  -25.8358   -1.1898  -13.6842 O   0  0  0  0  0  0  0  0  0  0  0  0
  -24.4808   -1.4957  -14.0163 C   0  0  0  0  0  0  0  0  0  0  0  0
  -23.7102   -0.2239  -14.3407 C   0  0  0  0  0  0  0  0  0  0  0  0
  -21.6223    0.7981  -13.9471 C   0  0  0  0  0  0  0  0  0  0  0  0
  -22.3441   -0.4236  -13.9740 O   0  0  0  0  0  0  0  0  0  0  0  0
  -28.6417   -4.7133   -6.4324 C   0  0  0  0  0  0  0  0  0  0  0  0
  -29.1894   -5.7652   -7.1721 C   0  0  0  0  0  0  0  0  0  0  0  0
  -29.1965   -7.0734   -6.6563 C   0  0  0  0  0  0  0  0  0  0  0  0
  -28.6242   -7.3574   -5.4061 C   0  0  0  0  0  0  0  0  0  0  0  0
  -28.2027   -6.2713   -4.6349 C   0  0  0  0  0  0  0  0  0  0  0  0
  -28.2450   -4.9682   -5.1237 C   0  0  0  0  0  0  0  0  0  0  0  0
  -28.4708   -8.6946   -4.9882 N   0  0  0  0  0  0  0  0  0  0  0  0
  -29.2318   -9.3111   -5.2374 H   0  0  0  0  0  0  0  0  0  0  0  0
  -27.2906   -9.2859   -4.7085 C   0  0  0  0  0  0  0  0  0  0  0  0
  -26.6144   -9.3526   -3.5781 N   0  0  0  0  0  0  0  0  0  0  0  0
  -25.4618   -9.9970   -3.9059 C   0  0  0  0  0  0  0  0  0  0  0  0
  -24.3613  -10.3421   -3.1093 C   0  0  0  0  0  0  0  0  0  0  0  0
  -23.2830  -11.0124   -3.7121 C   0  0  0  0  0  0  0  0  0  0  0  0
  -22.0949  -11.4190   -2.8874 C   0  0  0  0  0  0  0  0  0  0  0  0
  -23.3185  -11.3079   -5.0872 C   0  0  0  0  0  0  0  0  0  0  0  0
  -24.4180  -10.9612   -5.8878 C   0  0  0  0  0  0  0  0  0  0  0  0
  -24.4435  -11.3223   -7.5604 Cl  0  0  0  0  0  0  0  0  0  0  0  0
  -25.4682  -10.3119   -5.2504 C   0  0  0  0  0  0  0  0  0  0  0  0
  -26.6546   -9.8711   -5.7740 O   0  0  0  0  0  0  0  0  0  0  0  0
 22 23  1  0  0  0
 23 21  1  0  0  0
 21 20  1  0  0  0
 20 19  1  0  0  0
 19 13  1  0  0  0
 13 14  1  0  0  0
 13 18  1  0  0  0
 14 15  1  0  0  0
 15 16  1  0  0  0
 16  1  1  0  0  0
 16 17  1  0  0  0
  1  2  1  0  0  0
  1 10  1  0  0  0
  2  3  2  0  0  0
  3 24  1  0  0  0
  3  4  1  0  0  0
 24 25  1  0  0  0
 24 29  2  0  0  0
 25 26  2  0  0  0
 26 27  1  0  0  0
 27 30  1  0  0  0
 27 28  2  0  0  0
 30 32  1  0  0  0
 30 31  1  0  0  0
 32 33  2  0  0  0
 32 42  1  0  0  0
 33 34  1  0  0  0
 34 35  1  0  0  0
 34 41  2  0  0  0
 35 36  2  0  0  0
 36 37  1  0  0  0
 36 38  1  0  0  0
 38 39  2  0  0  0
 39 40  1  0  0  0
 39 41  1  0  0  0
 41 42  1  0  0  0
 28 29  1  0  0  0
  4  5  1  0  0  0
  4 10  2  0  0  0
  5  6  1  0  0  0
  5  7  2  0  0  0
  6 11  1  0  0  0
  6 12  1  0  0  0
  7  8  1  0  0  0
  8  9  2  0  0  0
  9 10  1  0  0  0
 17 18  1  0  0  0
M  END
> <minimizedAffinity>
-9.11032

$$$$
