CHEMBL3125886


 42 46  0  0  0  0  0  0  0  0999 V2000
  -29.4560   -3.9692   -7.0836 C   0  0  0  0  0  0  0  0  0  0  0  0
  -29.0011   -3.1628   -6.0347 C   0  0  0  0  0  0  0  0  0  0  0  0
  -28.3312   -1.9696   -6.3147 C   0  0  0  0  0  0  0  0  0  0  0  0
  -28.1272   -1.5893   -7.6378 C   0  0  0  0  0  0  0  0  0  0  0  0
  -27.4188   -0.4800   -7.9017 F   0  0  0  0  0  0  0  0  0  0  0  0
  -28.5807   -2.3842   -8.6911 C   0  0  0  0  0  0  0  0  0  0  0  0
  -29.2911   -3.5499   -8.4073 C   0  0  0  0  0  0  0  0  0  0  0  0
  -28.2599   -2.0160  -10.0193 N   0  0  0  0  0  0  0  0  0  0  0  0
  -26.9369   -1.8294  -10.3976 C   0  0  0  0  0  0  0  0  0  0  0  0
  -25.9795   -2.0520   -9.6614 O   0  0  0  0  0  0  0  0  0  0  0  0
  -26.8316   -1.3013  -11.6774 N   0  0  0  0  0  0  0  0  0  0  0  0
  -28.9403   -1.4274  -10.4793 H   0  0  0  0  0  0  0  0  0  0  0  0
  -27.6144   -0.7408  -11.9773 H   0  0  0  0  0  0  0  0  0  0  0  0
  -25.5708   -0.9462  -12.2048 C   0  0  0  0  0  0  0  0  0  0  0  0
  -24.7056   -0.0929  -11.5152 C   0  0  0  0  0  0  0  0  0  0  0  0
  -23.5187    0.3398  -12.1089 C   0  0  0  0  0  0  0  0  0  0  0  0
  -23.1891   -0.0646  -13.4091 C   0  0  0  0  0  0  0  0  0  0  0  0
  -24.0419   -0.9600  -14.0766 C   0  0  0  0  0  0  0  0  0  0  0  0
  -25.2127   -1.4218  -13.4665 C   0  0  0  0  0  0  0  0  0  0  0  0
  -21.9608    0.4727  -14.1016 C   0  0  0  0  0  0  0  0  0  0  0  0
  -21.3372   -0.4385  -14.8990 F   0  0  0  0  0  0  0  0  0  0  0  0
  -22.2392    1.5394  -14.9014 F   0  0  0  0  0  0  0  0  0  0  0  0
  -21.0163    0.9053  -13.2201 F   0  0  0  0  0  0  0  0  0  0  0  0
  -30.0720   -5.1492   -6.7268 O   0  0  0  0  0  0  0  0  0  0  0  0
  -28.7923   -6.7791   -5.5598 C   0  0  0  0  0  0  0  0  0  0  0  0
  -29.3451   -6.3245   -6.7619 C   0  0  0  0  0  0  0  0  0  0  0  0
  -29.1123   -7.0271   -7.9472 C   0  0  0  0  0  0  0  0  0  0  0  0
  -28.4061   -8.2318   -7.9391 C   0  0  0  0  0  0  0  0  0  0  0  0
  -27.8558   -8.7116   -6.7383 C   0  0  0  0  0  0  0  0  0  0  0  0
  -27.0889   -9.8577   -6.6143 N   0  0  0  0  0  0  0  0  0  0  0  0
  -26.7008   -9.9839   -5.3773 C   0  0  0  0  0  0  0  0  0  0  0  0
  -27.2698   -8.8226   -4.2695 S   0  0  0  0  0  0  0  0  0  0  0  0
  -28.0556   -7.9788   -5.5592 C   0  0  0  0  0  0  0  0  0  0  0  0
  -25.8710  -10.8993   -4.8086 N   0  0  0  0  0  0  0  0  0  0  0  0
  -24.5056  -10.7867   -4.7871 C   0  0  0  0  0  0  0  0  0  0  0  0
  -23.7850   -9.9322   -5.2692 O   0  0  0  0  0  0  0  0  0  0  0  0
  -26.3099  -11.6765   -4.3432 H   0  0  0  0  0  0  0  0  0  0  0  0
  -23.9187  -11.9255   -3.9898 C   0  0  0  0  0  0  0  0  0  0  0  0
  -23.2217  -11.1236   -2.8056 C   0  0  0  0  0  0  0  0  0  0  0  0
  -23.6655  -12.4660   -2.5866 C   0  0  0  0  0  0  0  0  0  0  0  0
  -29.0748   -5.5061   -3.3169 N   0  0  0  0  0  0  0  0  0  0  0  0
  -28.9455   -6.0641   -4.3222 C   0  0  0  0  0  0  0  0  0  0  0  0
 41 42  3  0  0  0
 42 25  1  0  0  0
 25 26  1  0  0  0
 25 33  2  0  0  0
 26 24  1  0  0  0
 26 27  2  0  0  0
 24  1  1  0  0  0
  1  2  1  0  0  0
  1  7  2  0  0  0
  2  3  2  0  0  0
  3  4  1  0  0  0
  4  5  1  0  0  0
  4  6  2  0  0  0
  6  8  1  0  0  0
  6  7  1  0  0  0
  8  9  1  0  0  0
  8 12  1  0  0  0
  9 10  2  0  0  0
  9 11  1  0  0  0
 11 14  1  0  0  0
 11 13  1  0  0  0
 14 15  1  0  0  0
 14 19  2  0  0  0
 15 16  2  0  0  0
 16 17  1  0  0  0
 17 20  1  0  0  0
 17 18  2  0  0  0
 20 21  1  0  0  0
 20 22  1  0  0  0
 20 23  1  0  0  0
 18 19  1  0  0  0
 27 28  1  0  0  0
 28 29  2  0  0  0
 29 30  1  0  0  0
 29 33  1  0  0  0
 30 31  2  0  0  0
 31 34  1  0  0  0
 31 32  1  0  0  0
 34 35  1  0  0  0
 34 37  1  0  0  0
 35 36  2  0  0  0
 35 38  1  0  0  0
 38 39  1  0  0  0
 38 40  1  0  0  0
 39 40  1  0  0  0
 32 33  1  0  0  0
M  END
> <minimizedAffinity>
-9.87893

$$$$
