CHEMBL1971245


 35 39  0  0  0  0  0  0  0  0999 V2000
  -28.9180   -8.6852   -3.9875 C   0  0  0  0  0  0  0  0  0  0  0  0
  -28.6057   -9.7488   -3.2403 N   0  0  0  0  0  0  0  0  0  0  0  0
  -28.7052  -10.9646   -3.7949 C   0  0  0  0  0  0  0  0  0  0  0  0
  -29.1167  -11.1563   -5.0838 C   0  0  0  0  0  0  0  0  0  0  0  0
  -29.3529  -10.0135   -5.8093 C   0  0  0  0  0  0  0  0  0  0  0  0
  -29.2568   -8.7802   -5.2787 N   0  0  0  0  0  0  0  0  0  0  0  0
  -29.6886  -10.0248   -7.2303 C   0  0  0  0  0  0  0  0  0  0  0  0
  -30.9033   -9.7627   -7.8626 C   0  0  0  0  0  0  0  0  0  0  0  0
  -30.7653   -9.8047   -9.2450 N   0  0  0  0  0  0  0  0  0  0  0  0
  -29.5096  -10.1163   -9.4616 C   0  0  0  0  0  0  0  0  0  0  0  0
  -28.8128  -10.3391  -10.6826 C   0  0  0  0  0  0  0  0  0  0  0  0
  -27.4906  -10.5910  -10.6685 C   0  0  0  0  0  0  0  0  0  0  0  0
  -26.7447  -10.6158   -9.4248 C   0  0  0  0  0  0  0  0  0  0  0  0
  -27.3976  -10.4145   -8.2684 C   0  0  0  0  0  0  0  0  0  0  0  0
  -28.7845  -10.2029   -8.2734 N   0  0  0  0  0  0  0  0  0  0  0  0
  -32.1945   -9.4591   -7.2419 C   0  0  0  0  0  0  0  0  0  0  0  0
  -32.2231   -8.2334   -6.6371 N   0  0  0  0  0  0  0  0  0  0  0  0
  -33.1860  -10.1796   -7.2589 O   0  0  0  0  0  0  0  0  0  0  0  0
  -31.4150   -7.6274   -6.7038 H   0  0  0  0  0  0  0  0  0  0  0  0
  -33.0746   -7.9236   -6.1972 H   0  0  0  0  0  0  0  0  0  0  0  0
  -28.8679   -7.4034   -3.4497 N   0  0  0  0  0  0  0  0  0  0  0  0
  -28.2465   -7.3856   -2.6543 H   0  0  0  0  0  0  0  0  0  0  0  0
  -29.7137   -3.9167   -4.4711 C   0  0  0  0  0  0  0  0  0  0  0  0
  -31.0587   -3.8704   -4.0839 C   0  0  0  0  0  0  0  0  0  0  0  0
  -31.6953   -4.9770   -3.5330 C   0  0  0  0  0  0  0  0  0  0  0  0
  -30.9907   -6.1606   -3.3537 C   0  0  0  0  0  0  0  0  0  0  0  0
  -29.6442   -6.2652   -3.7068 C   0  0  0  0  0  0  0  0  0  0  0  0
  -29.0358   -5.1370   -4.2823 C   0  0  0  0  0  0  0  0  0  0  0  0
  -28.3214    1.0341   -6.5971 C   0  0  0  0  0  0  0  0  0  0  0  0
  -28.0890   -0.2751   -5.9966 N   0  0  0  0  0  0  0  0  0  0  0  0
  -28.7514   -0.3700   -4.6738 C   0  0  0  0  0  0  0  0  0  0  0  0
  -28.5561   -1.7571   -4.0198 C   0  0  0  0  0  0  0  0  0  0  0  0
  -29.0470   -2.7997   -4.9342 N   0  0  0  0  0  0  0  0  0  0  0  0
  -28.4318   -2.7591   -6.2684 C   0  0  0  0  0  0  0  0  0  0  0  0
  -28.6102   -1.3478   -6.8744 C   0  0  0  0  0  0  0  0  0  0  0  0
 29 30  1  0  0  0
 30 31  1  0  0  0
 30 35  1  0  0  0
 31 32  1  0  0  0
 32 33  1  0  0  0
 33 23  1  0  0  0
 33 34  1  0  0  0
 23 24  1  0  0  0
 23 28  2  0  0  0
 24 25  2  0  0  0
 25 26  1  0  0  0
 26 27  2  0  0  0
 27 21  1  0  0  0
 27 28  1  0  0  0
 21  1  1  0  0  0
 21 22  1  0  0  0
  1  2  1  0  0  0
  1  6  2  0  0  0
  2  3  2  0  0  0
  3  4  1  0  0  0
  4  5  2  0  0  0
  5  7  1  0  0  0
  5  6  1  0  0  0
  7  8  2  0  0  0
  7 15  1  0  0  0
  8 16  1  0  0  0
  8  9  1  0  0  0
 16 17  1  0  0  0
 16 18  2  0  0  0
 17 19  1  0  0  0
 17 20  1  0  0  0
  9 10  2  0  0  0
 10 11  1  0  0  0
 10 15  1  0  0  0
 11 12  2  0  0  0
 12 13  1  0  0  0
 13 14  2  0  0  0
 14 15  1  0  0  0
 34 35  1  0  0  0
M  END
> <minimizedAffinity>
-9.00738

$$$$
