CHEMBL453737


 47 52  0  0  0  0  0  0  0  0999 V2000
  -28.7091   -2.2896   -7.6750 C   0  0  0  0  0  0  0  0  0  0  0  0
  -28.1096   -1.0391   -7.8568 C   0  0  0  0  0  0  0  0  0  0  0  0
  -27.2866   -0.8076   -8.9664 C   0  0  0  0  0  0  0  0  0  0  0  0
  -27.0002   -1.8380   -9.8719 C   0  0  0  0  0  0  0  0  0  0  0  0
  -27.5459   -3.1059   -9.6549 C   0  0  0  0  0  0  0  0  0  0  0  0
  -28.3943   -3.3179   -8.5685 C   0  0  0  0  0  0  0  0  0  0  0  0
  -28.9230   -4.5389   -8.3990 F   0  0  0  0  0  0  0  0  0  0  0  0
  -26.0705   -1.6043  -10.9789 C   0  0  0  0  0  0  0  0  0  0  0  0
  -24.7767   -1.4018  -10.7267 C   0  0  0  0  0  0  0  0  0  0  0  0
  -23.8243   -1.1365  -11.6612 N   0  0  0  0  0  0  0  0  0  0  0  0
  -24.1323   -1.1922  -12.9257 C   0  0  0  0  0  0  0  0  0  0  0  0
  -25.4314   -1.5191  -13.3276 N   0  0  0  0  0  0  0  0  0  0  0  0
  -25.8286   -1.6359  -14.7215 C   0  0  0  0  0  0  0  0  0  0  0  0
  -26.4751   -1.5573  -12.4033 C   0  0  0  0  0  0  0  0  0  0  0  0
  -27.6676   -1.5381  -12.7088 O   0  0  0  0  0  0  0  0  0  0  0  0
  -23.1569   -0.9358  -13.8743 N   0  0  0  0  0  0  0  0  0  0  0  0
  -22.7837   -1.6957  -14.4179 H   0  0  0  0  0  0  0  0  0  0  0  0
  -22.4383    0.2755  -13.9919 C   0  0  0  0  0  0  0  0  0  0  0  0
  -23.0656    1.4950  -13.6928 C   0  0  0  0  0  0  0  0  0  0  0  0
  -22.4048    2.7106  -13.9096 C   0  0  0  0  0  0  0  0  0  0  0  0
  -21.1129    2.7133  -14.4221 C   0  0  0  0  0  0  0  0  0  0  0  0
  -20.4914    3.8776  -14.6498 F   0  0  0  0  0  0  0  0  0  0  0  0
  -20.4635    1.5240  -14.7104 C   0  0  0  0  0  0  0  0  0  0  0  0
  -21.1274    0.3143  -14.4967 C   0  0  0  0  0  0  0  0  0  0  0  0
  -29.6229   -2.6072   -6.6884 O   0  0  0  0  0  0  0  0  0  0  0  0
  -29.9564   -6.8080   -5.6050 C   0  0  0  0  0  0  0  0  0  0  0  0
  -29.6919   -5.5136   -6.0339 C   0  0  0  0  0  0  0  0  0  0  0  0
  -29.2476   -4.5090   -5.1492 C   0  0  0  0  0  0  0  0  0  0  0  0
  -29.2036   -3.1380   -5.4826 C   0  0  0  0  0  0  0  0  0  0  0  0
  -28.6682   -2.2191   -4.5864 C   0  0  0  0  0  0  0  0  0  0  0  0
  -28.2586   -2.6890   -3.3553 C   0  0  0  0  0  0  0  0  0  0  0  0
  -28.3637   -3.9790   -2.9747 N   0  0  0  0  0  0  0  0  0  0  0  0
  -28.8598   -4.8720   -3.8467 C   0  0  0  0  0  0  0  0  0  0  0  0
  -28.9860   -6.2051   -3.4708 C   0  0  0  0  0  0  0  0  0  0  0  0
  -29.5171   -7.1790   -4.3310 C   0  0  0  0  0  0  0  0  0  0  0  0
  -30.0276   -7.9698   -7.7027 C   0  0  0  0  0  0  0  0  0  0  0  0
  -30.5737   -7.7239   -6.4054 O   0  0  0  0  0  0  0  0  0  0  0  0
  -29.5270   -8.4437   -3.7985 O   0  0  0  0  0  0  0  0  0  0  0  0
  -28.5983   -9.4030   -4.3245 C   0  0  0  0  0  0  0  0  0  0  0  0
  -27.3385   -9.6018   -3.4704 C   0  0  0  0  0  0  0  0  0  0  0  0
  -26.0630   -9.4122   -4.2980 C   0  0  0  0  0  0  0  0  0  0  0  0
  -25.6216  -10.6350   -4.9953 N   0  0  0  0  0  0  0  0  0  0  0  0
  -24.7442  -11.4433   -4.1117 C   0  0  0  0  0  0  0  0  0  0  0  0
  -23.3360  -10.8493   -3.9109 C   0  0  0  0  0  0  0  0  0  0  0  0
  -22.6770  -10.6165   -5.1621 O   0  0  0  0  0  0  0  0  0  0  0  0
  -23.4671   -9.7648   -6.0020 C   0  0  0  0  0  0  0  0  0  0  0  0
  -24.8603  -10.3692   -6.2400 C   0  0  0  0  0  0  0  0  0  0  0  0
 36 37  1  0  0  0
 37 26  1  0  0  0
 26 27  1  0  0  0
 26 35  2  0  0  0
 27 28  2  0  0  0
 28 29  1  0  0  0
 28 33  1  0  0  0
 29 25  1  0  0  0
 29 30  2  0  0  0
 25  1  1  0  0  0
  1  2  1  0  0  0
  1  6  2  0  0  0
  2  3  2  0  0  0
  3  4  1  0  0  0
  4  8  1  0  0  0
  4  5  2  0  0  0
  8  9  2  0  0  0
  8 14  1  0  0  0
  9 10  1  0  0  0
 10 11  2  0  0  0
 11 16  1  0  0  0
 11 12  1  0  0  0
 16 18  1  0  0  0
 16 17  1  0  0  0
 18 19  1  0  0  0
 18 24  2  0  0  0
 19 20  2  0  0  0
 20 21  1  0  0  0
 21 22  1  0  0  0
 21 23  2  0  0  0
 23 24  1  0  0  0
 12 13  1  0  0  0
 12 14  1  0  0  0
 14 15  2  0  0  0
  5  6  1  0  0  0
  6  7  1  0  0  0
 30 31  1  0  0  0
 31 32  2  0  0  0
 32 33  1  0  0  0
 33 34  2  0  0  0
 34 35  1  0  0  0
 35 38  1  0  0  0
 38 39  1  0  0  0
 39 40  1  0  0  0
 40 41  1  0  0  0
 41 42  1  0  0  0
 42 43  1  0  0  0
 42 47  1  0  0  0
 43 44  1  0  0  0
 44 45  1  0  0  0
 45 46  1  0  0  0
 46 47  1  0  0  0
M  END
> <minimizedAffinity>
-9.42744

$$$$
