CHEMBL3955038


 38 40  0  0  0  0  0  0  0  0999 V2000
  -29.0093   -4.6040   -5.9204 C   0  0  0  0  0  0  0  0  0  0  0  0
  -28.1808   -3.5142   -5.6476 C   0  0  0  0  0  0  0  0  0  0  0  0
  -27.8716   -2.5942   -6.6472 C   0  0  0  0  0  0  0  0  0  0  0  0
  -28.3797   -2.7361   -7.9433 C   0  0  0  0  0  0  0  0  0  0  0  0
  -29.2161   -3.8250   -8.2165 C   0  0  0  0  0  0  0  0  0  0  0  0
  -29.5266   -4.7570   -7.2133 C   0  0  0  0  0  0  0  0  0  0  0  0
  -28.0969   -1.8220   -8.9878 N   0  0  0  0  0  0  0  0  0  0  0  0
  -27.2896   -2.0774  -10.0811 C   0  0  0  0  0  0  0  0  0  0  0  0
  -26.7864   -3.1612  -10.3540 O   0  0  0  0  0  0  0  0  0  0  0  0
  -27.0709   -0.9414  -10.8503 N   0  0  0  0  0  0  0  0  0  0  0  0
  -28.6060   -0.9518   -8.9877 H   0  0  0  0  0  0  0  0  0  0  0  0
  -26.9651   -0.0923  -10.3079 H   0  0  0  0  0  0  0  0  0  0  0  0
  -26.2215   -1.0349  -11.9833 C   0  0  0  0  0  0  0  0  0  0  0  0
  -24.9301   -0.4903  -11.9756 C   0  0  0  0  0  0  0  0  0  0  0  0
  -24.1444   -0.4908  -13.1408 C   0  0  0  0  0  0  0  0  0  0  0  0
  -24.6787   -1.0409  -14.3180 C   0  0  0  0  0  0  0  0  0  0  0  0
  -25.9551   -1.6094  -14.3202 C   0  0  0  0  0  0  0  0  0  0  0  0
  -26.7061   -1.6242  -13.1490 C   0  0  0  0  0  0  0  0  0  0  0  0
  -27.9432   -2.1434  -13.1682 F   0  0  0  0  0  0  0  0  0  0  0  0
  -22.7543    0.0995  -13.1393 C   0  0  0  0  0  0  0  0  0  0  0  0
  -22.7229    1.4414  -13.3556 F   0  0  0  0  0  0  0  0  0  0  0  0
  -22.1172   -0.0985  -11.9508 F   0  0  0  0  0  0  0  0  0  0  0  0
  -21.9485   -0.4536  -14.0877 F   0  0  0  0  0  0  0  0  0  0  0  0
  -29.2589   -5.6093   -4.8600 C   0  0  0  0  0  0  0  0  0  0  0  0
  -29.9771   -5.2651   -3.7666 C   0  0  0  0  0  0  0  0  0  0  0  0
  -26.9021   -8.5921   -4.4227 C   0  0  0  0  0  0  0  0  0  0  0  0
  -27.7071   -9.6332   -4.8829 C   0  0  0  0  0  0  0  0  0  0  0  0
  -28.9747   -9.3592   -5.3919 C   0  0  0  0  0  0  0  0  0  0  0  0
  -29.4473   -8.0466   -5.4260 C   0  0  0  0  0  0  0  0  0  0  0  0
  -28.6667   -6.9816   -4.9477 C   0  0  0  0  0  0  0  0  0  0  0  0
  -27.3827   -7.2755   -4.4615 C   0  0  0  0  0  0  0  0  0  0  0  0
  -24.7713   -9.6337   -4.5688 C   0  0  0  0  0  0  0  0  0  0  0  0
  -25.6441   -8.7298   -3.9002 O   0  0  0  0  0  0  0  0  0  0  0  0
  -30.6984   -3.9799   -3.5743 C   0  0  0  0  0  0  0  0  0  0  0  0
  -30.1142   -3.1533   -2.6636 N   0  0  0  0  0  0  0  0  0  0  0  0
  -31.7415   -3.6690   -4.1278 O   0  0  0  0  0  0  0  0  0  0  0  0
  -29.2309   -3.3425   -2.2117 H   0  0  0  0  0  0  0  0  0  0  0  0
  -30.5556   -2.2615   -2.5077 H   0  0  0  0  0  0  0  0  0  0  0  0
 32 33  1  0  0  0
 33 26  1  0  0  0
 26 27  1  0  0  0
 26 31  2  0  0  0
 27 28  2  0  0  0
 28 29  1  0  0  0
 29 30  2  0  0  0
 30 24  1  0  0  0
 30 31  1  0  0  0
 24 25  2  0  0  0
 24  1  1  0  0  0
 25 34  1  0  0  0
 34 35  1  0  0  0
 34 36  2  0  0  0
 35 37  1  0  0  0
 35 38  1  0  0  0
  1  2  1  0  0  0
  1  6  2  0  0  0
  2  3  2  0  0  0
  3  4  1  0  0  0
  4  7  1  0  0  0
  4  5  2  0  0  0
  7  8  1  0  0  0
  7 11  1  0  0  0
  8  9  2  0  0  0
  8 10  1  0  0  0
 10 13  1  0  0  0
 10 12  1  0  0  0
 13 14  1  0  0  0
 13 18  2  0  0  0
 14 15  2  0  0  0
 15 20  1  0  0  0
 15 16  1  0  0  0
 20 21  1  0  0  0
 20 22  1  0  0  0
 20 23  1  0  0  0
 16 17  2  0  0  0
 17 18  1  0  0  0
 18 19  1  0  0  0
  5  6  1  0  0  0
M  END
> <minimizedAffinity>
-9.68749

$$$$
