CHEMBL3916200


 39 42  0  0  0  0  0  0  0  0999 V2000
  -29.1451   -8.3084   -6.0285 C   0  0  0  0  0  0  0  0  0  0  0  0
  -28.9391   -8.2553   -4.6482 C   0  0  0  0  0  0  0  0  0  0  0  0
  -28.9996   -7.1688   -3.8970 C   0  0  0  0  0  0  0  0  0  0  0  0
  -29.2137   -5.9755   -4.4399 C   0  0  0  0  0  0  0  0  0  0  0  0
  -29.2765   -5.0089   -3.5452 N   0  0  0  0  0  0  0  0  0  0  0  0
  -29.3235   -3.7507   -3.8747 C   0  0  0  0  0  0  0  0  0  0  0  0
  -29.2012   -3.3618   -5.2058 C   0  0  0  0  0  0  0  0  0  0  0  0
  -29.2781   -4.3764   -6.2012 N   0  0  0  0  0  0  0  0  0  0  0  0
  -29.3199   -5.7456   -5.8227 C   0  0  0  0  0  0  0  0  0  0  0  0
  -29.3646   -6.9801   -6.6749 C   0  0  0  0  0  0  0  0  0  0  0  0
  -28.7202   -1.8943   -5.2781 C   0  0  0  0  0  0  0  0  0  0  0  0
  -27.8534   -1.1195   -4.5243 C   0  0  0  0  0  0  0  0  0  0  0  0
  -27.9842    0.2053   -4.8823 N   0  0  0  0  0  0  0  0  0  0  0  0
  -28.8848    0.2846   -5.8475 N   0  0  0  0  0  0  0  0  0  0  0  0
  -29.3137   -0.9362   -6.1435 C   0  0  0  0  0  0  0  0  0  0  0  0
  -29.4425    1.5254   -6.4469 C   0  0  0  0  0  0  0  0  0  0  0  0
  -30.9947    1.6092   -6.3363 C   0  0  0  0  0  0  0  0  0  0  0  0
  -31.6224    2.6301   -7.2966 C   0  0  0  0  0  0  0  0  0  0  0  0
  -32.9651    2.2035   -7.6971 N   0  0  0  0  0  0  0  0  0  0  0  0
  -32.9049    1.3227   -8.2557 H   0  0  0  0  0  0  0  0  0  0  0  0
  -33.3834    2.9419   -8.3029 H   0  0  0  0  0  0  0  0  0  0  0  0
  -29.0105   -9.6985   -6.5595 N   0  0  0  0  0  0  0  0  0  0  0  0
  -27.9236  -10.2999   -7.3602 C   0  0  0  0  0  0  0  0  0  0  0  0
  -26.9449  -11.1274   -6.7141 C   0  0  0  0  0  0  0  0  0  0  0  0
  -25.8572  -11.7073   -7.3886 C   0  0  0  0  0  0  0  0  0  0  0  0
  -25.7428  -11.5247   -8.7424 C   0  0  0  0  0  0  0  0  0  0  0  0
  -26.7009  -10.7745   -9.4571 C   0  0  0  0  0  0  0  0  0  0  0  0
  -27.7811  -10.1536   -8.7673 C   0  0  0  0  0  0  0  0  0  0  0  0
  -24.9320  -12.4626   -6.7502 O   0  0  0  0  0  0  0  0  0  0  0  0
  -24.5025  -12.3289   -5.4301 C   0  0  0  0  0  0  0  0  0  0  0  0
  -26.6092  -10.6570  -10.8213 O   0  0  0  0  0  0  0  0  0  0  0  0
  -27.0728   -9.5606  -11.5452 C   0  0  0  0  0  0  0  0  0  0  0  0
  -30.1513  -10.6160   -6.1924 C   0  0  0  0  0  0  0  0  0  0  0  0
  -31.1464  -11.0511   -7.3532 C   0  0  0  0  0  0  0  0  0  0  0  0
  -32.3019  -11.6625   -6.8402 O   0  0  0  0  0  0  0  0  0  0  0  0
  -32.9987  -10.9705   -6.7149 H   0  0  0  0  0  0  0  0  0  0  0  0
  -31.4920   -9.8451   -8.2787 C   0  0  0  0  0  0  0  0  0  0  0  0
  -32.8117   -8.2705   -7.2173 C   0  0  0  0  0  0  0  0  0  0  0  0
  -32.8222   -9.3944   -8.0847 O   0  0  0  0  0  0  0  0  0  0  0  0
 38 39  1  0  0  0
 39 37  1  0  0  0
 34 33  1  0  0  0
 34 35  1  0  0  0
 34 37  1  0  0  0
 35 36  1  0  0  0
 33 22  1  0  0  0
 22 23  1  0  0  0
 22  1  1  0  0  0
 23 24  1  0  0  0
 23 28  2  0  0  0
 24 25  2  0  0  0
 25 29  1  0  0  0
 25 26  1  0  0  0
 29 30  1  0  0  0
 26 27  2  0  0  0
 27 31  1  0  0  0
 27 28  1  0  0  0
 31 32  1  0  0  0
  1  2  1  0  0  0
  1 10  2  0  0  0
  2  3  2  0  0  0
  3  4  1  0  0  0
  4  5  1  0  0  0
  4  9  2  0  0  0
  5  6  2  0  0  0
  6  7  1  0  0  0
  7 11  1  0  0  0
  7  8  2  0  0  0
 11 12  1  0  0  0
 11 15  2  0  0  0
 12 13  2  0  0  0
 13 14  1  0  0  0
 14 16  1  0  0  0
 14 15  1  0  0  0
 16 17  1  0  0  0
 17 18  1  0  0  0
 18 19  1  0  0  0
 19 20  1  0  0  0
 19 21  1  0  0  0
  8  9  1  0  0  0
  9 10  1  0  0  0
M  END
> <minimizedAffinity>
-7.51988

$$$$
