CHEMBL3752825


 29 31  0  0  0  0  0  0  0  0999 V2000
  -28.5734   -4.1746   -5.4724 C   0  0  0  0  0  0  0  0  0  0  0  0
  -27.9789   -3.3823   -4.4840 C   0  0  0  0  0  0  0  0  0  0  0  0
  -27.6448   -2.0526   -4.7371 C   0  0  0  0  0  0  0  0  0  0  0  0
  -27.9327   -1.4858   -5.9813 C   0  0  0  0  0  0  0  0  0  0  0  0
  -28.4523   -2.2851   -7.0070 C   0  0  0  0  0  0  0  0  0  0  0  0
  -28.7904   -3.6219   -6.7420 C   0  0  0  0  0  0  0  0  0  0  0  0
  -29.4682   -9.0405   -5.7482 C   0  0  0  0  0  0  0  0  0  0  0  0
  -29.3207   -7.6872   -5.2798 N   0  0  0  0  0  0  0  0  0  0  0  0
  -29.4706   -7.2582   -3.9941 C   0  0  0  0  0  0  0  0  0  0  0  0
  -29.2351   -5.9729   -3.8888 N   0  0  0  0  0  0  0  0  0  0  0  0
  -28.9094   -5.5517   -5.1606 C   0  0  0  0  0  0  0  0  0  0  0  0
  -28.9815   -6.6066   -6.0458 C   0  0  0  0  0  0  0  0  0  0  0  0
  -28.5885   -1.7483   -8.3125 N   0  0  0  0  0  0  0  0  0  0  0  0
  -27.6326   -1.9478   -9.2932 C   0  0  0  0  0  0  0  0  0  0  0  0
  -26.6789   -2.7081   -9.1669 O   0  0  0  0  0  0  0  0  0  0  0  0
  -27.8934   -1.1944  -10.4261 N   0  0  0  0  0  0  0  0  0  0  0  0
  -29.5364   -1.6423   -8.6499 H   0  0  0  0  0  0  0  0  0  0  0  0
  -28.3573   -0.3121  -10.2599 H   0  0  0  0  0  0  0  0  0  0  0  0
  -27.1965   -1.3449  -11.6499 C   0  0  0  0  0  0  0  0  0  0  0  0
  -25.8600   -0.9779  -11.7963 C   0  0  0  0  0  0  0  0  0  0  0  0
  -25.2566   -1.1315  -13.0328 C   0  0  0  0  0  0  0  0  0  0  0  0
  -25.8849   -1.6327  -14.1149 N   0  0  0  0  0  0  0  0  0  0  0  0
  -27.1714   -2.0030  -13.9459 C   0  0  0  0  0  0  0  0  0  0  0  0
  -27.8604   -1.8978  -12.7450 C   0  0  0  0  0  0  0  0  0  0  0  0
  -27.6989   -0.1637   -6.2437 O   0  0  0  0  0  0  0  0  0  0  0  0
  -28.6435    0.7517   -5.6775 C   0  0  0  0  0  0  0  0  0  0  0  0
  -29.8501    0.2196   -5.3902 F   0  0  0  0  0  0  0  0  0  0  0  0
  -28.1210    1.2489   -4.5341 F   0  0  0  0  0  0  0  0  0  0  0  0
  -28.8304    1.7803   -6.5335 F   0  0  0  0  0  0  0  0  0  0  0  0
  7  8  1  0  0  0
  8  9  1  0  0  0
  8 12  1  0  0  0
  9 10  2  0  0  0
 10 11  1  0  0  0
 11  1  1  0  0  0
 11 12  2  0  0  0
  1  2  1  0  0  0
  1  6  2  0  0  0
  2  3  2  0  0  0
  3  4  1  0  0  0
  4 25  1  0  0  0
  4  5  2  0  0  0
 25 26  1  0  0  0
 26 27  1  0  0  0
 26 28  1  0  0  0
 26 29  1  0  0  0
  5 13  1  0  0  0
  5  6  1  0  0  0
 13 14  1  0  0  0
 13 17  1  0  0  0
 14 15  2  0  0  0
 14 16  1  0  0  0
 16 19  1  0  0  0
 16 18  1  0  0  0
 19 20  1  0  0  0
 19 24  2  0  0  0
 20 21  2  0  0  0
 21 22  1  0  0  0
 22 23  2  0  0  0
 23 24  1  0  0  0
M  END
> <minimizedAffinity>
-8.81419

$$$$
