CHEMBL224027


 34 39  0  0  0  0  0  0  0  0999 V2000
  -12.8155   -4.0480  -10.9929 C   0  0  0  0  0  0  0  0  0  0  0  0
  -13.4089   -3.4382   -9.9503 N   0  0  0  0  0  0  0  0  0  0  0  0
  -14.4495   -4.2824   -9.7196 N   0  0  0  0  0  0  0  0  0  0  0  0
  -14.2570   -5.4937  -10.3450 C   0  0  0  0  0  0  0  0  0  0  0  0
  -12.8840   -5.4562  -10.6517 C   0  0  0  0  0  0  0  0  0  0  0  0
  -12.4980   -6.7718  -11.2511 C   0  0  0  0  0  0  0  0  0  0  0  0
  -13.7731   -6.9296  -12.0685 C   0  0  0  0  0  0  0  0  0  0  0  0
  -13.6682   -7.2876  -13.4144 C   0  0  0  0  0  0  0  0  0  0  0  0
  -14.5113   -6.6158  -14.2986 C   0  0  0  0  0  0  0  0  0  0  0  0
  -15.6444   -5.9244  -13.7823 C   0  0  0  0  0  0  0  0  0  0  0  0
  -15.8360   -5.7223  -12.3856 C   0  0  0  0  0  0  0  0  0  0  0  0
  -14.8443   -6.1713  -11.5241 C   0  0  0  0  0  0  0  0  0  0  0  0
  -15.0056   -4.0956   -8.8952 H   0  0  0  0  0  0  0  0  0  0  0  0
  -14.2451   -1.8167  -13.6803 C   0  0  0  0  0  0  0  0  0  0  0  0
  -14.1432   -2.4391  -12.4581 C   0  0  0  0  0  0  0  0  0  0  0  0
  -13.0495   -3.3941  -12.3402 C   0  0  0  0  0  0  0  0  0  0  0  0
  -12.4566   -3.5719  -13.5681 C   0  0  0  0  0  0  0  0  0  0  0  0
  -13.1193   -2.5065  -14.7718 S   0  0  0  0  0  0  0  0  0  0  0  0
  -15.9177    0.2813  -14.2342 C   0  0  0  0  0  0  0  0  0  0  0  0
  -15.2076   -0.7874  -14.0026 C   0  0  0  0  0  0  0  0  0  0  0  0
  -16.7455    1.5272  -14.5041 C   0  0  0  0  0  0  0  0  0  0  0  0
  -17.7395    1.2542  -15.4832 O   0  0  0  0  0  0  0  0  0  0  0  0
  -19.0305    1.5101  -15.0976 C   0  0  0  0  0  0  0  0  0  0  0  0
  -20.0784    0.5827  -15.0684 C   0  0  0  0  0  0  0  0  0  0  0  0
  -21.3585    0.9723  -14.6622 C   0  0  0  0  0  0  0  0  0  0  0  0
  -21.6012    2.2908  -14.2854 C   0  0  0  0  0  0  0  0  0  0  0  0
  -20.5626    3.2214  -14.3139 C   0  0  0  0  0  0  0  0  0  0  0  0
  -19.2820    2.8282  -14.7139 C   0  0  0  0  0  0  0  0  0  0  0  0
  -13.8842   -6.2131  -15.6340 C   0  0  0  0  0  0  0  0  0  0  0  0
  -14.0449   -6.9836  -16.8474 N   0  0  0  0  0  0  0  0  0  0  0  0
  -13.9891   -6.3129  -18.1368 C   0  0  0  0  0  0  0  0  0  0  0  0
  -12.6278   -6.5275  -18.7918 C   0  0  0  0  0  0  0  0  0  0  0  0
  -11.9277   -8.0136  -18.0318 S   0  0  0  0  0  0  0  0  0  0  0  0
  -13.3060   -8.2236  -16.8960 C   0  0  0  0  0  0  0  0  0  0  0  0
 19 20  3  0  0  0
 19 21  1  0  0  0
 20 14  1  0  0  0
 14 15  2  0  0  0
 14 18  1  0  0  0
 15 16  1  0  0  0
 16  1  1  0  0  0
 16 17  2  0  0  0
  1  2  2  0  0  0
  1  5  1  0  0  0
  2  3  1  0  0  0
  3  4  1  0  0  0
  3 13  1  0  0  0
  4  5  2  0  0  0
  4 12  1  0  0  0
  5  6  1  0  0  0
  6  7  1  0  0  0
  7  8  1  0  0  0
  7 12  2  0  0  0
  8  9  2  0  0  0
  9 29  1  0  0  0
  9 10  1  0  0  0
 29 30  1  0  0  0
 30 31  1  0  0  0
 30 34  1  0  0  0
 31 32  1  0  0  0
 32 33  1  0  0  0
 33 34  1  0  0  0
 10 11  2  0  0  0
 11 12  1  0  0  0
 17 18  1  0  0  0
 21 22  1  0  0  0
 22 23  1  0  0  0
 23 24  1  0  0  0
 23 28  2  0  0  0
 24 25  2  0  0  0
 25 26  1  0  0  0
 26 27  2  0  0  0
 27 28  1  0  0  0
M  END
> <minimizedAffinity>
-8.47335

$$$$
