CHEMBL3754709


 27 29  0  0  0  0  0  0  0  0999 V2000
  -28.2497   -0.9836   -6.6496 C   0  0  0  0  0  0  0  0  0  0  0  0
  -27.5966   -0.7966   -7.8681 C   0  0  0  0  0  0  0  0  0  0  0  0
  -27.4974   -1.8235   -8.7865 C   0  0  0  0  0  0  0  0  0  0  0  0
  -28.0193   -3.0861   -8.4686 C   0  0  0  0  0  0  0  0  0  0  0  0
  -28.6584   -3.3469   -7.2345 C   0  0  0  0  0  0  0  0  0  0  0  0
  -28.8176   -2.2440   -6.3460 C   0  0  0  0  0  0  0  0  0  0  0  0
  -26.8610   -1.6754  -10.0260 N   0  0  0  0  0  0  0  0  0  0  0  0
  -27.4065   -1.4506  -11.2725 C   0  0  0  0  0  0  0  0  0  0  0  0
  -28.6038   -1.3898  -11.5372 O   0  0  0  0  0  0  0  0  0  0  0  0
  -26.5056   -1.2087  -12.2798 N   0  0  0  0  0  0  0  0  0  0  0  0
  -25.8452   -1.7148  -10.0115 H   0  0  0  0  0  0  0  0  0  0  0  0
  -26.8906   -0.9165  -13.1622 H   0  0  0  0  0  0  0  0  0  0  0  0
  -25.1491   -1.2413  -12.1243 C   0  0  0  0  0  0  0  0  0  0  0  0
  -24.4260   -2.2918  -11.8110 N   0  0  0  0  0  0  0  0  0  0  0  0
  -23.1131   -1.9066  -11.6586 C   0  0  0  0  0  0  0  0  0  0  0  0
  -22.8724   -0.5610  -11.8343 C   0  0  0  0  0  0  0  0  0  0  0  0
  -24.3272    0.2349  -12.2939 S   0  0  0  0  0  0  0  0  0  0  0  0
  -29.0746   -4.7474   -6.9064 C   0  0  0  0  0  0  0  0  0  0  0  0
  -30.1516   -5.3941   -7.5383 C   0  0  0  0  0  0  0  0  0  0  0  0
  -30.4560   -6.7323   -7.2633 C   0  0  0  0  0  0  0  0  0  0  0  0
  -29.6860   -7.4060   -6.3350 C   0  0  0  0  0  0  0  0  0  0  0  0
  -28.6499   -6.8435   -5.6903 N   0  0  0  0  0  0  0  0  0  0  0  0
  -28.3701   -5.5474   -5.9972 C   0  0  0  0  0  0  0  0  0  0  0  0
  -29.2065    1.0728   -5.8990 C   0  0  0  0  0  0  0  0  0  0  0  0
  -28.2855    0.0044   -5.6964 O   0  0  0  0  0  0  0  0  0  0  0  0
  -29.5158   -2.5111   -5.1896 O   0  0  0  0  0  0  0  0  0  0  0  0
  -28.7877   -2.5800   -3.9708 C   0  0  0  0  0  0  0  0  0  0  0  0
 24 25  1  0  0  0
 25  1  1  0  0  0
  1  2  1  0  0  0
  1  6  2  0  0  0
  2  3  2  0  0  0
  3  7  1  0  0  0
  3  4  1  0  0  0
  7  8  1  0  0  0
  7 11  1  0  0  0
  8  9  2  0  0  0
  8 10  1  0  0  0
 10 13  1  0  0  0
 10 12  1  0  0  0
 13 14  2  0  0  0
 13 17  1  0  0  0
 14 15  1  0  0  0
 15 16  2  0  0  0
 16 17  1  0  0  0
  4  5  2  0  0  0
  5 18  1  0  0  0
  5  6  1  0  0  0
 18 19  1  0  0  0
 18 23  2  0  0  0
 19 20  2  0  0  0
 20 21  1  0  0  0
 21 22  2  0  0  0
 22 23  1  0  0  0
  6 26  1  0  0  0
 26 27  1  0  0  0
M  END
> <minimizedAffinity>
-7.58117

$$$$
