CHEMBL3969593


 36 39  0  0  0  0  0  0  0  0999 V2000
  -25.5227   -1.9345  -12.0653 C   0  0  0  0  0  0  0  0  0  0  0  0
  -25.7048   -1.4911  -13.3765 C   0  0  0  0  0  0  0  0  0  0  0  0
  -24.6221   -1.1088  -14.1679 C   0  0  0  0  0  0  0  0  0  0  0  0
  -23.3378   -1.0669  -13.6304 C   0  0  0  0  0  0  0  0  0  0  0  0
  -23.1357   -1.5146  -12.3235 C   0  0  0  0  0  0  0  0  0  0  0  0
  -24.2228   -1.9424  -11.5419 C   0  0  0  0  0  0  0  0  0  0  0  0
  -26.0704   -1.2731   -9.3025 O   0  0  0  0  0  0  0  0  0  0  0  0
  -26.7964   -2.0346   -9.9302 C   0  0  0  0  0  0  0  0  0  0  0  0
  -26.5897   -2.3967  -11.2522 N   0  0  0  0  0  0  0  0  0  0  0  0
  -27.9444   -2.6100   -9.4032 N   0  0  0  0  0  0  0  0  0  0  0  0
  -27.3322   -2.8897  -11.7237 H   0  0  0  0  0  0  0  0  0  0  0  0
  -28.4137   -3.3006   -9.9697 H   0  0  0  0  0  0  0  0  0  0  0  0
  -28.4895   -2.3587   -8.1212 C   0  0  0  0  0  0  0  0  0  0  0  0
  -29.1300   -3.3278   -7.3402 C   0  0  0  0  0  0  0  0  0  0  0  0
  -29.6366   -3.0188   -6.0755 C   0  0  0  0  0  0  0  0  0  0  0  0
  -29.4967   -1.7350   -5.5640 C   0  0  0  0  0  0  0  0  0  0  0  0
  -28.8477   -0.7473   -6.3162 C   0  0  0  0  0  0  0  0  0  0  0  0
  -28.3582   -1.0678   -7.5988 C   0  0  0  0  0  0  0  0  0  0  0  0
  -28.6513    0.6398   -5.7613 C   0  0  0  0  0  0  0  0  0  0  0  0
  -28.4103    1.5833   -6.7134 F   0  0  0  0  0  0  0  0  0  0  0  0
  -29.7411    1.0766   -5.0707 F   0  0  0  0  0  0  0  0  0  0  0  0
  -27.6067    0.7090   -4.8911 F   0  0  0  0  0  0  0  0  0  0  0  0
  -22.2352   -0.6292  -14.3383 O   0  0  0  0  0  0  0  0  0  0  0  0
  -21.9496    0.7249  -14.3582 C   0  0  0  0  0  0  0  0  0  0  0  0
  -22.7182    1.6779  -13.6947 C   0  0  0  0  0  0  0  0  0  0  0  0
  -22.3768    3.0007  -13.8483 C   0  0  0  0  0  0  0  0  0  0  0  0
  -21.3023    3.4076  -14.5435 N   0  0  0  0  0  0  0  0  0  0  0  0
  -20.5082    2.4876  -15.1177 C   0  0  0  0  0  0  0  0  0  0  0  0
  -20.8038    1.1296  -15.0537 C   0  0  0  0  0  0  0  0  0  0  0  0
  -19.3473    2.9097  -15.7933 N   0  0  0  0  0  0  0  0  0  0  0  0
  -18.0666    2.5911  -15.3794 C   0  0  0  0  0  0  0  0  0  0  0  0
  -17.7427    1.9335  -14.4011 O   0  0  0  0  0  0  0  0  0  0  0  0
  -19.4674    3.4393  -16.6387 H   0  0  0  0  0  0  0  0  0  0  0  0
  -16.9416    3.0908  -16.2279 C   0  0  0  0  0  0  0  0  0  0  0  0
  -15.4992    3.2545  -15.8343 C   0  0  0  0  0  0  0  0  0  0  0  0
  -16.3747    4.4677  -15.9682 C   0  0  0  0  0  0  0  0  0  0  0  0
  7  8  2  0  0  0
  8  9  1  0  0  0
  8 10  1  0  0  0
  9  1  1  0  0  0
  9 11  1  0  0  0
  1  2  1  0  0  0
  1  6  2  0  0  0
  2  3  2  0  0  0
  3  4  1  0  0  0
  4 23  1  0  0  0
  4  5  2  0  0  0
 23 24  1  0  0  0
 24 25  1  0  0  0
 24 29  2  0  0  0
 25 26  2  0  0  0
 26 27  1  0  0  0
 27 28  2  0  0  0
 28 30  1  0  0  0
 28 29  1  0  0  0
 30 31  1  0  0  0
 30 33  1  0  0  0
 31 32  2  0  0  0
 31 34  1  0  0  0
 34 35  1  0  0  0
 34 36  1  0  0  0
 35 36  1  0  0  0
  5  6  1  0  0  0
 10 13  1  0  0  0
 10 12  1  0  0  0
 13 14  1  0  0  0
 13 18  2  0  0  0
 14 15  2  0  0  0
 15 16  1  0  0  0
 16 17  2  0  0  0
 17 19  1  0  0  0
 17 18  1  0  0  0
 19 20  1  0  0  0
 19 21  1  0  0  0
 19 22  1  0  0  0
M  END
> <minimizedAffinity>
-11.38987

$$$$
