CHEMBL205502


 32 35  0  0  0  0  0  0  0  0999 V2000
  -20.6018    1.4692  -14.6428 C   0  0  0  0  0  0  0  0  0  0  0  0
  -20.5249    2.6694  -14.1107 N   0  0  0  0  0  0  0  0  0  0  0  0
  -19.2070    3.0732  -14.2225 N   0  0  0  0  0  0  0  0  0  0  0  0
  -18.5686    2.1114  -14.8532 C   0  0  0  0  0  0  0  0  0  0  0  0
  -19.4036    1.0651  -15.1593 O   0  0  0  0  0  0  0  0  0  0  0  0
  -17.1727    1.9633  -15.2640 C   0  0  0  0  0  0  0  0  0  0  0  0
  -16.6599    2.8193  -16.2642 C   0  0  0  0  0  0  0  0  0  0  0  0
  -15.3467    2.7106  -16.7073 C   0  0  0  0  0  0  0  0  0  0  0  0
  -14.5609    1.7348  -16.1456 C   0  0  0  0  0  0  0  0  0  0  0  0
  -15.0013    0.8959  -15.1887 N   0  0  0  0  0  0  0  0  0  0  0  0
  -16.2838    1.0139  -14.7312 C   0  0  0  0  0  0  0  0  0  0  0  0
  -16.6629   -0.0042  -13.6677 C   0  0  0  0  0  0  0  0  0  0  0  0
  -15.4896   -0.9400  -13.3104 C   0  0  0  0  0  0  0  0  0  0  0  0
  -15.8116   -2.2104  -12.5559 C   0  0  0  0  0  0  0  0  0  0  0  0
  -16.1666   -3.3484  -13.2936 C   0  0  0  0  0  0  0  0  0  0  0  0
  -16.4354   -4.5330  -12.6270 C   0  0  0  0  0  0  0  0  0  0  0  0
  -16.3648   -4.6682  -11.2883 N   0  0  0  0  0  0  0  0  0  0  0  0
  -16.0019   -3.5687  -10.5926 C   0  0  0  0  0  0  0  0  0  0  0  0
  -15.7133   -2.3380  -11.1702 C   0  0  0  0  0  0  0  0  0  0  0  0
  -21.6820    0.6728  -14.7798 N   0  0  0  0  0  0  0  0  0  0  0  0
  -22.1249    0.7110  -15.6907 H   0  0  0  0  0  0  0  0  0  0  0  0
  -24.2478   -0.9288  -11.7915 C   0  0  0  0  0  0  0  0  0  0  0  0
  -23.4465   -1.7807  -12.5433 C   0  0  0  0  0  0  0  0  0  0  0  0
  -22.5918   -1.2664  -13.5292 C   0  0  0  0  0  0  0  0  0  0  0  0
  -22.5016    0.1063  -13.7827 C   0  0  0  0  0  0  0  0  0  0  0  0
  -23.3382    0.9507  -13.0378 C   0  0  0  0  0  0  0  0  0  0  0  0
  -24.1987    0.4400  -12.0565 C   0  0  0  0  0  0  0  0  0  0  0  0
  -25.1253   -1.2955  -10.8137 O   0  0  0  0  0  0  0  0  0  0  0  0
  -26.4996   -2.5352  -12.0669 F   0  0  0  0  0  0  0  0  0  0  0  0
  -26.4892   -1.5231  -11.1590 C   0  0  0  0  0  0  0  0  0  0  0  0
  -27.0095   -0.4414  -11.7946 F   0  0  0  0  0  0  0  0  0  0  0  0
  -27.4800   -1.9908   -9.7739 Cl  0  0  0  0  0  0  0  0  0  0  0  0
 29 30  1  0  0  0
 30 31  1  0  0  0
 30 32  1  0  0  0
 30 28  1  0  0  0
 28 22  1  0  0  0
 22 23  1  0  0  0
 22 27  2  0  0  0
 23 24  2  0  0  0
 24 25  1  0  0  0
 25 20  1  0  0  0
 25 26  2  0  0  0
 20  1  1  0  0  0
 20 21  1  0  0  0
  1  2  2  0  0  0
  1  5  1  0  0  0
  2  3  1  0  0  0
  3  4  2  0  0  0
  4  6  1  0  0  0
  4  5  1  0  0  0
  6  7  1  0  0  0
  6 11  2  0  0  0
  7  8  2  0  0  0
  8  9  1  0  0  0
  9 10  2  0  0  0
 10 11  1  0  0  0
 11 12  1  0  0  0
 12 13  1  0  0  0
 13 14  1  0  0  0
 14 15  1  0  0  0
 14 19  2  0  0  0
 15 16  2  0  0  0
 16 17  1  0  0  0
 17 18  2  0  0  0
 18 19  1  0  0  0
 26 27  1  0  0  0
M  END
> <minimizedAffinity>
-9.76172

$$$$
