CHEMBL3932363


 38 42  0  0  0  0  0  0  0  0999 V2000
  -28.5219   -3.4893   -6.8499 C   0  0  0  0  0  0  0  0  0  0  0  0
  -28.5620   -2.1138   -6.6620 C   0  0  0  0  0  0  0  0  0  0  0  0
  -28.3115   -1.2441   -7.6244 C   0  0  0  0  0  0  0  0  0  0  0  0
  -27.9194   -1.6427   -8.8249 C   0  0  0  0  0  0  0  0  0  0  0  0
  -27.9253   -0.6725   -9.7150 N   0  0  0  0  0  0  0  0  0  0  0  0
  -27.4639   -0.8077  -10.9265 C   0  0  0  0  0  0  0  0  0  0  0  0
  -26.7419   -1.9305  -11.2830 C   0  0  0  0  0  0  0  0  0  0  0  0
  -26.8559   -3.0754  -10.4133 N   0  0  0  0  0  0  0  0  0  0  0  0
  -27.5229   -2.9536   -9.1530 C   0  0  0  0  0  0  0  0  0  0  0  0
  -27.8745   -3.9624   -8.1073 C   0  0  0  0  0  0  0  0  0  0  0  0
  -25.8491   -1.5764  -12.5079 C   0  0  0  0  0  0  0  0  0  0  0  0
  -25.9954   -1.5479  -13.8966 C   0  0  0  0  0  0  0  0  0  0  0  0
  -24.7980   -1.2146  -14.4791 N   0  0  0  0  0  0  0  0  0  0  0  0
  -23.8793   -1.0653  -13.5295 N   0  0  0  0  0  0  0  0  0  0  0  0
  -24.4682   -1.2552  -12.3522 C   0  0  0  0  0  0  0  0  0  0  0  0
  -22.4474   -0.7233  -13.7116 C   0  0  0  0  0  0  0  0  0  0  0  0
  -22.2133    0.6703  -14.3839 C   0  0  0  0  0  0  0  0  0  0  0  0
  -20.7227    0.9860  -14.6458 C   0  0  0  0  0  0  0  0  0  0  0  0
  -20.5652    2.4265  -15.1749 C   0  0  0  0  0  0  0  0  0  0  0  0
  -21.0880    3.3632  -14.2503 O   0  0  0  0  0  0  0  0  0  0  0  0
  -22.4869    3.1804  -14.1398 C   0  0  0  0  0  0  0  0  0  0  0  0
  -22.7997    1.8097  -13.5118 C   0  0  0  0  0  0  0  0  0  0  0  0
  -29.2293   -4.1922   -5.7574 N   0  0  0  0  0  0  0  0  0  0  0  0
  -29.3923   -5.6290   -5.7590 C   0  0  0  0  0  0  0  0  0  0  0  0
  -28.6204   -6.4632   -4.9410 C   0  0  0  0  0  0  0  0  0  0  0  0
  -28.7695   -7.8734   -5.0103 C   0  0  0  0  0  0  0  0  0  0  0  0
  -29.6971   -8.4333   -5.8936 C   0  0  0  0  0  0  0  0  0  0  0  0
  -30.4824   -7.6350   -6.7103 C   0  0  0  0  0  0  0  0  0  0  0  0
  -30.3227   -6.2437   -6.6497 C   0  0  0  0  0  0  0  0  0  0  0  0
  -28.0535   -8.7264   -4.2400 O   0  0  0  0  0  0  0  0  0  0  0  0
  -27.2027   -9.7013   -4.7047 C   0  0  0  0  0  0  0  0  0  0  0  0
  -31.3843   -8.2401   -7.5304 O   0  0  0  0  0  0  0  0  0  0  0  0
  -32.6804   -8.5909   -7.2027 C   0  0  0  0  0  0  0  0  0  0  0  0
  -29.0933   -3.6170   -4.3623 C   0  0  0  0  0  0  0  0  0  0  0  0
  -30.4163   -3.1335   -3.6844 C   0  0  0  0  0  0  0  0  0  0  0  0
  -32.0672   -4.9654   -3.4029 C   0  0  0  0  0  0  0  0  0  0  0  0
  -31.0055   -4.1515   -2.7835 N   0  0  0  0  0  0  0  0  0  0  0  0
  -30.2410   -4.8270   -2.5435 H   0  0  0  0  0  0  0  0  0  0  0  0
 36 37  1  0  0  0
 37 35  1  0  0  0
 37 38  1  0  0  0
 35 34  1  0  0  0
 34 23  1  0  0  0
 23 24  1  0  0  0
 23  1  1  0  0  0
 24 25  1  0  0  0
 24 29  2  0  0  0
 25 26  2  0  0  0
 26 30  1  0  0  0
 26 27  1  0  0  0
 30 31  1  0  0  0
 27 28  2  0  0  0
 28 32  1  0  0  0
 28 29  1  0  0  0
 32 33  1  0  0  0
  1  2  1  0  0  0
  1 10  2  0  0  0
  2  3  2  0  0  0
  3  4  1  0  0  0
  4  5  1  0  0  0
  4  9  2  0  0  0
  5  6  2  0  0  0
  6  7  1  0  0  0
  7 11  1  0  0  0
  7  8  2  0  0  0
 11 12  1  0  0  0
 11 15  2  0  0  0
 12 13  2  0  0  0
 13 14  1  0  0  0
 14 16  1  0  0  0
 14 15  1  0  0  0
 16 17  1  0  0  0
 17 18  1  0  0  0
 17 22  1  0  0  0
 18 19  1  0  0  0
 19 20  1  0  0  0
 20 21  1  0  0  0
 21 22  1  0  0  0
  8  9  1  0  0  0
  9 10  1  0  0  0
M  END
> <minimizedAffinity>
-8.00584

$$$$
