CHEMBL3800021


 26 29  0  0  0  0  0  0  0  0999 V2000
  -13.4827    4.0557  -16.1943 C   0  0  0  0  0  0  0  0  0  0  0  0
  -13.4471    3.0951  -15.1674 C   0  0  0  0  0  0  0  0  0  0  0  0
  -14.5374    2.2995  -14.8498 C   0  0  0  0  0  0  0  0  0  0  0  0
  -14.3807    1.3398  -13.9355 N   0  0  0  0  0  0  0  0  0  0  0  0
  -15.4417    0.5607  -13.7061 C   0  0  0  0  0  0  0  0  0  0  0  0
  -16.6317    0.6614  -14.2991 N   0  0  0  0  0  0  0  0  0  0  0  0
  -16.7887    1.6409  -15.2091 C   0  0  0  0  0  0  0  0  0  0  0  0
  -15.7395    2.5195  -15.5248 C   0  0  0  0  0  0  0  0  0  0  0  0
  -15.8202    3.5691  -16.4625 C   0  0  0  0  0  0  0  0  0  0  0  0
  -14.6998    4.3249  -16.8250 C   0  0  0  0  0  0  0  0  0  0  0  0
  -12.1006    5.9525  -15.8602 C   0  0  0  0  0  0  0  0  0  0  0  0
  -12.3545    4.7371  -16.5705 O   0  0  0  0  0  0  0  0  0  0  0  0
  -18.0318    1.7834  -15.8838 N   0  0  0  0  0  0  0  0  0  0  0  0
  -18.0441    1.1679  -16.6873 H   0  0  0  0  0  0  0  0  0  0  0  0
  -19.3250    1.8715  -15.3011 C   0  0  0  0  0  0  0  0  0  0  0  0
  -19.9159    3.1060  -14.9971 C   0  0  0  0  0  0  0  0  0  0  0  0
  -21.1720    3.1972  -14.3868 C   0  0  0  0  0  0  0  0  0  0  0  0
  -21.8738    2.0156  -14.1174 C   0  0  0  0  0  0  0  0  0  0  0  0
  -23.0997    1.6773  -13.5068 C   0  0  0  0  0  0  0  0  0  0  0  0
  -23.3372    0.3633  -13.5218 N   0  0  0  0  0  0  0  0  0  0  0  0
  -22.2561   -0.1406  -14.1456 N   0  0  0  0  0  0  0  0  0  0  0  0
  -21.3257    0.7996  -14.5036 C   0  0  0  0  0  0  0  0  0  0  0  0
  -20.0701    0.6905  -15.1165 C   0  0  0  0  0  0  0  0  0  0  0  0
  -22.2082   -1.1433  -14.2833 H   0  0  0  0  0  0  0  0  0  0  0  0
  -15.0061    5.2235  -17.8062 O   0  0  0  0  0  0  0  0  0  0  0  0
  -15.1733    4.7864  -19.1425 C   0  0  0  0  0  0  0  0  0  0  0  0
 11 12  1  0  0  0
 12  1  1  0  0  0
  1  2  1  0  0  0
  1 10  2  0  0  0
  2  3  2  0  0  0
  3  4  1  0  0  0
  3  8  1  0  0  0
  4  5  2  0  0  0
  5  6  1  0  0  0
  6  7  2  0  0  0
  7 13  1  0  0  0
  7  8  1  0  0  0
 13 15  1  0  0  0
 13 14  1  0  0  0
 15 16  1  0  0  0
 15 23  2  0  0  0
 16 17  2  0  0  0
 17 18  1  0  0  0
 18 19  1  0  0  0
 18 22  2  0  0  0
 19 20  2  0  0  0
 20 21  1  0  0  0
 21 22  1  0  0  0
 21 24  1  0  0  0
 22 23  1  0  0  0
  8  9  2  0  0  0
  9 10  1  0  0  0
 10 25  1  0  0  0
 25 26  1  0  0  0
M  END
> <minimizedAffinity>
-7.33142

$$$$
