CHEMBL293712


 38 42  0  0  0  0  0  0  0  0999 V2000
  -16.2707    0.9678  -15.4417 C   0  0  0  0  0  0  0  0  0  0  0  0
  -16.0194    1.3906  -16.7317 N   0  0  0  0  0  0  0  0  0  0  0  0
  -14.6662    1.4864  -16.9333 C   0  0  0  0  0  0  0  0  0  0  0  0
  -14.0231    1.1063  -15.7743 C   0  0  0  0  0  0  0  0  0  0  0  0
  -15.0394    0.8616  -14.7916 C   0  0  0  0  0  0  0  0  0  0  0  0
  -12.5328    0.9401  -15.7167 C   0  0  0  0  0  0  0  0  0  0  0  0
  -11.8231    1.6068  -16.9107 C   0  0  0  0  0  0  0  0  0  0  0  0
  -12.5565    1.3511  -18.2369 C   0  0  0  0  0  0  0  0  0  0  0  0
  -13.9998    1.8918  -18.2055 C   0  0  0  0  0  0  0  0  0  0  0  0
  -16.7233    1.5540  -17.4374 H   0  0  0  0  0  0  0  0  0  0  0  0
  -22.2180    0.8819  -14.0067 C   0  0  0  0  0  0  0  0  0  0  0  0
  -22.6883    2.2080  -14.0536 C   0  0  0  0  0  0  0  0  0  0  0  0
  -21.8124    3.2408  -14.3652 C   0  0  0  0  0  0  0  0  0  0  0  0
  -20.4901    2.9005  -14.6104 C   0  0  0  0  0  0  0  0  0  0  0  0
  -19.9891    1.5928  -14.5726 C   0  0  0  0  0  0  0  0  0  0  0  0
  -20.8604    0.5538  -14.2642 C   0  0  0  0  0  0  0  0  0  0  0  0
  -18.5391    1.7091  -14.8954 C   0  0  0  0  0  0  0  0  0  0  0  0
  -17.6226    0.7319  -15.0389 C   0  0  0  0  0  0  0  0  0  0  0  0
  -18.2645    3.1948  -15.0826 C   0  0  0  0  0  0  0  0  0  0  0  0
  -17.2203    3.7670  -15.2969 O   0  0  0  0  0  0  0  0  0  0  0  0
  -19.4894    3.8026  -14.9141 N   0  0  0  0  0  0  0  0  0  0  0  0
  -19.5987    4.8055  -14.9856 H   0  0  0  0  0  0  0  0  0  0  0  0
  -23.4049   -0.4026  -13.6337 S   0  0  0  0  0  0  0  0  0  0  0  0
  -22.6916   -1.5394  -13.0928 O   0  0  0  0  0  0  0  0  0  0  0  0
  -24.2778   -0.5208  -14.7794 O   0  0  0  0  0  0  0  0  0  0  0  0
  -25.3547   -0.5013  -11.7885 C   0  0  0  0  0  0  0  0  0  0  0  0
  -24.2834    0.3020  -12.3787 N   0  0  0  0  0  0  0  0  0  0  0  0
  -23.6806    0.7880  -11.7153 H   0  0  0  0  0  0  0  0  0  0  0  0
  -14.8283    0.4592  -13.3633 C   0  0  0  0  0  0  0  0  0  0  0  0
  -14.5869   -1.0400  -13.1354 C   0  0  0  0  0  0  0  0  0  0  0  0
  -15.7862   -1.9612  -13.4098 C   0  0  0  0  0  0  0  0  0  0  0  0
  -15.9032   -3.0593  -12.4564 N   0  0  0  0  0  0  0  0  0  0  0  0
  -16.2989   -4.3428  -13.0514 C   0  0  0  0  0  0  0  0  0  0  0  0
  -16.6336   -5.3167  -11.9048 C   0  0  0  0  0  0  0  0  0  0  0  0
  -15.4896   -5.6059  -11.0154 N   0  0  0  0  0  0  0  0  0  0  0  0
  -14.5051   -6.4380  -11.7070 C   0  0  0  0  0  0  0  0  0  0  0  0
  -14.8898   -4.3253  -10.5663 C   0  0  0  0  0  0  0  0  0  0  0  0
  -14.6707   -3.2575  -11.6709 C   0  0  0  0  0  0  0  0  0  0  0  0
 26 27  1  0  0  0
 27 23  1  0  0  0
 27 28  1  0  0  0
 23 24  2  0  0  0
 23 25  2  0  0  0
 23 11  1  0  0  0
 11 12  1  0  0  0
 11 16  2  0  0  0
 12 13  2  0  0  0
 13 14  1  0  0  0
 14 15  2  0  0  0
 14 21  1  0  0  0
 15 16  1  0  0  0
 15 17  1  0  0  0
 17 18  2  0  0  0
 17 19  1  0  0  0
 18  1  1  0  0  0
  1  2  1  0  0  0
  1  5  2  0  0  0
  2  3  1  0  0  0
  2 10  1  0  0  0
  3  4  2  0  0  0
  3  9  1  0  0  0
  4  5  1  0  0  0
  4  6  1  0  0  0
  5 29  1  0  0  0
 29 30  1  0  0  0
 30 31  1  0  0  0
 31 32  1  0  0  0
 32 33  1  0  0  0
 32 38  1  0  0  0
 33 34  1  0  0  0
 34 35  1  0  0  0
 35 36  1  0  0  0
 35 37  1  0  0  0
 37 38  1  0  0  0
  6  7  1  0  0  0
  7  8  1  0  0  0
  8  9  1  0  0  0
 19 20  2  0  0  0
 19 21  1  0  0  0
 21 22  1  0  0  0
M  END
> <minimizedAffinity>
-9.77326

$$$$
