CHEMBL205089


 33 36  0  0  0  0  0  0  0  0999 V2000
  -27.4508   -1.8155  -10.6977 C   0  0  0  0  0  0  0  0  0  0  0  0
  -26.1461   -1.6193  -10.2560 C   0  0  0  0  0  0  0  0  0  0  0  0
  -25.1331   -1.3100  -11.1613 C   0  0  0  0  0  0  0  0  0  0  0  0
  -25.3845   -1.2445  -12.5318 C   0  0  0  0  0  0  0  0  0  0  0  0
  -26.6741   -1.5688  -12.9851 C   0  0  0  0  0  0  0  0  0  0  0  0
  -27.7048   -1.8542  -12.0689 C   0  0  0  0  0  0  0  0  0  0  0  0
  -24.3947   -0.8556  -13.4705 N   0  0  0  0  0  0  0  0  0  0  0  0
  -23.3269   -0.0156  -13.2182 C   0  0  0  0  0  0  0  0  0  0  0  0
  -23.0671    0.5298  -12.1521 O   0  0  0  0  0  0  0  0  0  0  0  0
  -22.4924    0.1351  -14.3061 N   0  0  0  0  0  0  0  0  0  0  0  0
  -24.4860   -1.2137  -14.4090 H   0  0  0  0  0  0  0  0  0  0  0  0
  -22.8991    0.0441  -15.2244 H   0  0  0  0  0  0  0  0  0  0  0  0
  -21.2881    0.9574  -14.1730 C   0  0  0  0  0  0  0  0  0  0  0  0
  -21.6013    2.4531  -14.3346 C   0  0  0  0  0  0  0  0  0  0  0  0
  -20.3370    3.3104  -14.2617 C   0  0  0  0  0  0  0  0  0  0  0  0
  -19.2745    2.8362  -15.2486 C   0  0  0  0  0  0  0  0  0  0  0  0
  -18.9531    1.3586  -15.0494 C   0  0  0  0  0  0  0  0  0  0  0  0
  -20.2093    0.4960  -15.1551 C   0  0  0  0  0  0  0  0  0  0  0  0
  -28.4983   -1.9892   -9.8151 O   0  0  0  0  0  0  0  0  0  0  0  0
  -28.8009   -4.9829   -5.7151 C   0  0  0  0  0  0  0  0  0  0  0  0
  -28.2083   -3.7564   -5.3693 C   0  0  0  0  0  0  0  0  0  0  0  0
  -28.0256   -2.7355   -6.2814 C   0  0  0  0  0  0  0  0  0  0  0  0
  -27.5781   -1.5554   -5.8297 N   0  0  0  0  0  0  0  0  0  0  0  0
  -27.5104   -0.5585   -6.7088 C   0  0  0  0  0  0  0  0  0  0  0  0
  -27.8306   -0.6309   -7.9997 N   0  0  0  0  0  0  0  0  0  0  0  0
  -28.2034   -1.8494   -8.4523 C   0  0  0  0  0  0  0  0  0  0  0  0
  -28.3537   -2.9618   -7.6193 C   0  0  0  0  0  0  0  0  0  0  0  0
  -28.8130   -4.2383   -8.0095 C   0  0  0  0  0  0  0  0  0  0  0  0
  -29.0651   -5.2453   -7.0650 C   0  0  0  0  0  0  0  0  0  0  0  0
  -30.4621   -5.8808   -4.2798 C   0  0  0  0  0  0  0  0  0  0  0  0
  -29.1108   -5.9091   -4.7536 O   0  0  0  0  0  0  0  0  0  0  0  0
  -29.5858   -6.3629   -7.6524 O   0  0  0  0  0  0  0  0  0  0  0  0
  -28.7391   -7.4336   -8.0338 C   0  0  0  0  0  0  0  0  0  0  0  0
 30 31  1  0  0  0
 31 20  1  0  0  0
 20 21  1  0  0  0
 20 29  2  0  0  0
 21 22  2  0  0  0
 22 23  1  0  0  0
 22 27  1  0  0  0
 23 24  2  0  0  0
 24 25  1  0  0  0
 25 26  2  0  0  0
 26 19  1  0  0  0
 26 27  1  0  0  0
 19  1  1  0  0  0
  1  2  1  0  0  0
  1  6  2  0  0  0
  2  3  2  0  0  0
  3  4  1  0  0  0
  4  7  1  0  0  0
  4  5  2  0  0  0
  7  8  1  0  0  0
  7 11  1  0  0  0
  8  9  2  0  0  0
  8 10  1  0  0  0
 10 13  1  0  0  0
 10 12  1  0  0  0
 13 14  1  0  0  0
 13 18  1  0  0  0
 14 15  1  0  0  0
 15 16  1  0  0  0
 16 17  1  0  0  0
 17 18  1  0  0  0
  5  6  1  0  0  0
 27 28  2  0  0  0
 28 29  1  0  0  0
 29 32  1  0  0  0
 32 33  1  0  0  0
M  END
> <minimizedAffinity>
-10.06303

$$$$
