CHEMBL596761


 34 36  0  0  0  0  0  0  0  0999 V2000
  -25.8595   12.5391  -12.6927 C   0  0  0  0  0  0  0  0  0  0  0  0
  -26.2471   12.6588  -11.3500 C   0  0  0  0  0  0  0  0  0  0  0  0
  -27.5665   12.5455  -10.9493 C   0  0  0  0  0  0  0  0  0  0  0  0
  -27.8272   12.5556   -9.6408 N   0  0  0  0  0  0  0  0  0  0  0  0
  -29.0983   12.3452   -9.2859 C   0  0  0  0  0  0  0  0  0  0  0  0
  -30.1311   12.1546  -10.1138 N   0  0  0  0  0  0  0  0  0  0  0  0
  -29.8560   12.1820  -11.4295 C   0  0  0  0  0  0  0  0  0  0  0  0
  -28.5558   12.3829  -11.9224 C   0  0  0  0  0  0  0  0  0  0  0  0
  -28.1856   12.3697  -13.2924 C   0  0  0  0  0  0  0  0  0  0  0  0
  -26.8448   12.4229  -13.6836 C   0  0  0  0  0  0  0  0  0  0  0  0
  -23.7861   11.3829  -12.8106 C   0  0  0  0  0  0  0  0  0  0  0  0
  -24.5367   12.5745  -13.0476 O   0  0  0  0  0  0  0  0  0  0  0  0
  -30.9002   11.9412  -12.3382 N   0  0  0  0  0  0  0  0  0  0  0  0
  -31.7265   12.4734  -12.0720 H   0  0  0  0  0  0  0  0  0  0  0  0
  -31.1953   10.5475  -12.6217 C   0  0  0  0  0  0  0  0  0  0  0  0
  -32.6203   10.2561  -12.2033 C   0  0  0  0  0  0  0  0  0  0  0  0
  -33.3916   11.2603  -11.5932 C   0  0  0  0  0  0  0  0  0  0  0  0
  -34.7192   11.0233  -11.2379 C   0  0  0  0  0  0  0  0  0  0  0  0
  -35.2939    9.7812  -11.4937 C   0  0  0  0  0  0  0  0  0  0  0  0
  -34.5399    8.7761  -12.0994 C   0  0  0  0  0  0  0  0  0  0  0  0
  -33.2094    9.0115  -12.4537 C   0  0  0  0  0  0  0  0  0  0  0  0
  -26.6596   12.3562  -15.0458 O   0  0  0  0  0  0  0  0  0  0  0  0
  -26.1573   11.1107  -15.5241 C   0  0  0  0  0  0  0  0  0  0  0  0
  -25.4401   11.2867  -16.8658 C   0  0  0  0  0  0  0  0  0  0  0  0
  -23.9323   11.2264  -16.6136 C   0  0  0  0  0  0  0  0  0  0  0  0
  -23.1555   10.4406  -17.6659 C   0  0  0  0  0  0  0  0  0  0  0  0
  -22.3967   11.4120  -18.5769 C   0  0  0  0  0  0  0  0  0  0  0  0
  -20.8865   11.2449  -18.4524 C   0  0  0  0  0  0  0  0  0  0  0  0
  -20.1903   11.3219  -19.7986 C   0  0  0  0  0  0  0  0  0  0  0  0
  -19.0787   10.8647  -20.0423 O   0  0  0  0  0  0  0  0  0  0  0  0
  -20.9370   11.9743  -20.7512 N   0  0  0  0  0  0  0  0  0  0  0  0
  -20.3922   11.9958  -22.0552 O   0  0  0  0  0  0  0  0  0  0  0  0
  -21.9335   12.1366  -20.6696 H   0  0  0  0  0  0  0  0  0  0  0  0
  -19.5275   11.5452  -21.9291 H   0  0  0  0  0  0  0  0  0  0  0  0
 11 12  1  0  0  0
 12  1  1  0  0  0
  1  2  1  0  0  0
  1 10  2  0  0  0
  2  3  2  0  0  0
  3  4  1  0  0  0
  3  8  1  0  0  0
  4  5  2  0  0  0
  5  6  1  0  0  0
  6  7  2  0  0  0
  7 13  1  0  0  0
  7  8  1  0  0  0
 13 15  1  0  0  0
 13 14  1  0  0  0
 15 16  1  0  0  0
 16 17  1  0  0  0
 16 21  2  0  0  0
 17 18  2  0  0  0
 18 19  1  0  0  0
 19 20  2  0  0  0
 20 21  1  0  0  0
  8  9  2  0  0  0
  9 10  1  0  0  0
 10 22  1  0  0  0
 22 23  1  0  0  0
 23 24  1  0  0  0
 24 25  1  0  0  0
 25 26  1  0  0  0
 26 27  1  0  0  0
 27 28  1  0  0  0
 28 29  1  0  0  0
 29 30  2  0  0  0
 29 31  1  0  0  0
 31 32  1  0  0  0
 31 33  1  0  0  0
 32 34  1  0  0  0
M  END
> <minimizedAffinity>
-5.40747

$$$$
