CHEMBL2063318


 40 44  0  0  0  0  0  0  0  0999 V2000
  -25.0872   -1.2674  -11.7803 C   0  0  0  0  0  0  0  0  0  0  0  0
  -23.9862   -0.4547  -11.8545 C   0  0  0  0  0  0  0  0  0  0  0  0
  -23.7293   -0.2351  -13.2358 C   0  0  0  0  0  0  0  0  0  0  0  0
  -24.6452   -0.8764  -13.9808 N   0  0  0  0  0  0  0  0  0  0  0  0
  -25.4308   -1.5028  -13.0851 N   0  0  0  0  0  0  0  0  0  0  0  0
  -26.2009   -2.0556  -13.4425 H   0  0  0  0  0  0  0  0  0  0  0  0
  -22.6261    0.5509  -13.8013 C   0  0  0  0  0  0  0  0  0  0  0  0
  -21.5818   -0.1009  -14.4704 C   0  0  0  0  0  0  0  0  0  0  0  0
  -20.5222    0.6107  -15.0349 C   0  0  0  0  0  0  0  0  0  0  0  0
  -20.4719    1.9974  -14.9457 C   0  0  0  0  0  0  0  0  0  0  0  0
  -21.5040    2.6633  -14.2731 C   0  0  0  0  0  0  0  0  0  0  0  0
  -22.5745    1.9464  -13.7069 C   0  0  0  0  0  0  0  0  0  0  0  0
  -19.4094    2.7540  -15.4729 N   0  0  0  0  0  0  0  0  0  0  0  0
  -18.1418    2.8880  -14.9480 C   0  0  0  0  0  0  0  0  0  0  0  0
  -17.6422    2.2629  -14.0216 O   0  0  0  0  0  0  0  0  0  0  0  0
  -19.6036    3.3739  -16.2496 H   0  0  0  0  0  0  0  0  0  0  0  0
  -17.5016    3.9323  -15.5996 O   0  0  0  0  0  0  0  0  0  0  0  0
  -16.4134    3.4915  -16.3662 C   0  0  0  0  0  0  0  0  0  0  0  0
  -15.7121    4.4275  -17.1209 C   0  0  0  0  0  0  0  0  0  0  0  0
  -14.5572    4.0238  -17.8026 C   0  0  0  0  0  0  0  0  0  0  0  0
  -14.1177    2.7024  -17.7166 C   0  0  0  0  0  0  0  0  0  0  0  0
  -14.8212    1.7732  -16.9526 C   0  0  0  0  0  0  0  0  0  0  0  0
  -15.9645    2.1702  -16.2664 C   0  0  0  0  0  0  0  0  0  0  0  0
  -27.1152   -1.5655  -10.3744 C   0  0  0  0  0  0  0  0  0  0  0  0
  -27.8290   -0.9555  -11.1569 O   0  0  0  0  0  0  0  0  0  0  0  0
  -25.7114   -1.7703  -10.6421 N   0  0  0  0  0  0  0  0  0  0  0  0
  -25.1461   -2.2822   -9.9808 H   0  0  0  0  0  0  0  0  0  0  0  0
  -28.7150   -3.2914   -6.7605 C   0  0  0  0  0  0  0  0  0  0  0  0
  -28.3654   -1.9318   -6.8207 C   0  0  0  0  0  0  0  0  0  0  0  0
  -27.8495   -1.3412   -7.9779 C   0  0  0  0  0  0  0  0  0  0  0  0
  -27.6736   -2.1170   -9.1207 C   0  0  0  0  0  0  0  0  0  0  0  0
  -28.0009   -3.4775   -9.0854 C   0  0  0  0  0  0  0  0  0  0  0  0
  -28.5234   -4.0500   -7.9200 C   0  0  0  0  0  0  0  0  0  0  0  0
  -32.0221   -5.2663   -2.7336 C   0  0  0  0  0  0  0  0  0  0  0  0
  -30.7668   -4.8249   -3.3371 N   0  0  0  0  0  0  0  0  0  0  0  0
  -30.4159   -5.6783   -4.4965 C   0  0  0  0  0  0  0  0  0  0  0  0
  -29.1222   -5.2156   -5.2144 C   0  0  0  0  0  0  0  0  0  0  0  0
  -29.2755   -3.8061   -5.6115 N   0  0  0  0  0  0  0  0  0  0  0  0
  -29.5831   -2.9195   -4.4724 C   0  0  0  0  0  0  0  0  0  0  0  0
  -30.8700   -3.4142   -3.7745 C   0  0  0  0  0  0  0  0  0  0  0  0
 34 35  1  0  0  0
 35 36  1  0  0  0
 35 40  1  0  0  0
 36 37  1  0  0  0
 37 38  1  0  0  0
 38 28  1  0  0  0
 38 39  1  0  0  0
 28 29  1  0  0  0
 28 33  2  0  0  0
 29 30  2  0  0  0
 30 31  1  0  0  0
 31 24  1  0  0  0
 31 32  2  0  0  0
 24 25  2  0  0  0
 24 26  1  0  0  0
 26  1  1  0  0  0
 26 27  1  0  0  0
  1  2  2  0  0  0
  1  5  1  0  0  0
  2  3  1  0  0  0
  3  7  1  0  0  0
  3  4  2  0  0  0
  7  8  1  0  0  0
  7 12  2  0  0  0
  8  9  2  0  0  0
  9 10  1  0  0  0
 10 13  1  0  0  0
 10 11  2  0  0  0
 13 14  1  0  0  0
 13 16  1  0  0  0
 14 15  2  0  0  0
 14 17  1  0  0  0
 17 18  1  0  0  0
 18 19  1  0  0  0
 18 23  2  0  0  0
 19 20  2  0  0  0
 20 21  1  0  0  0
 21 22  2  0  0  0
 22 23  1  0  0  0
 11 12  1  0  0  0
  4  5  1  0  0  0
  5  6  1  0  0  0
 32 33  1  0  0  0
 39 40  1  0  0  0
M  END
> <minimizedAffinity>
-10.97307

$$$$
