CHEMBL482767


 31 34  0  0  0  0  0  0  0  0999 V2000
  -29.8398   -6.8040   -5.0274 C   0  0  0  0  0  0  0  0  0  0  0  0
  -29.6075   -7.0578   -6.2894 N   0  0  0  0  0  0  0  0  0  0  0  0
  -28.6768   -8.0650   -6.3692 C   0  0  0  0  0  0  0  0  0  0  0  0
  -28.2260   -8.5831   -5.1632 C   0  0  0  0  0  0  0  0  0  0  0  0
  -28.9842   -7.7306   -3.8785 S   0  0  0  0  0  0  0  0  0  0  0  0
  -31.3615   -3.8215   -4.0082 O   0  0  0  0  0  0  0  0  0  0  0  0
  -30.4850   -4.5246   -4.5088 C   0  0  0  0  0  0  0  0  0  0  0  0
  -29.3118   -4.0701   -5.0599 N   0  0  0  0  0  0  0  0  0  0  0  0
  -30.6981   -5.8748   -4.5294 N   0  0  0  0  0  0  0  0  0  0  0  0
  -28.7804   -4.7689   -5.5744 H   0  0  0  0  0  0  0  0  0  0  0  0
  -31.5629   -6.1885   -4.1197 H   0  0  0  0  0  0  0  0  0  0  0  0
  -28.8651   -2.7357   -5.1411 C   0  0  0  0  0  0  0  0  0  0  0  0
  -27.5352   -2.3640   -4.9377 C   0  0  0  0  0  0  0  0  0  0  0  0
  -27.1587   -1.0194   -4.9662 C   0  0  0  0  0  0  0  0  0  0  0  0
  -28.1148   -0.0328   -5.1959 C   0  0  0  0  0  0  0  0  0  0  0  0
  -29.4369   -0.4023   -5.4304 C   0  0  0  0  0  0  0  0  0  0  0  0
  -30.6237    0.8184   -5.6932 Cl  0  0  0  0  0  0  0  0  0  0  0  0
  -29.8141   -1.7458   -5.4270 C   0  0  0  0  0  0  0  0  0  0  0  0
  -27.2834   -9.7402   -4.9239 C   0  0  0  0  0  0  0  0  0  0  0  0
  -25.9180   -9.1666   -4.5428 C   0  0  0  0  0  0  0  0  0  0  0  0
  -25.3046   -9.7408   -3.3548 N   0  0  0  0  0  0  0  0  0  0  0  0
  -24.1606  -10.3521   -3.5073 C   0  0  0  0  0  0  0  0  0  0  0  0
  -23.5763  -10.8801   -2.3756 N   0  0  0  0  0  0  0  0  0  0  0  0
  -22.3822  -11.5471   -2.3873 C   0  0  0  0  0  0  0  0  0  0  0  0
  -21.6236  -11.7894   -3.4158 N   0  0  0  0  0  0  0  0  0  0  0  0
  -22.1606  -11.2740   -4.6194 C   0  0  0  0  0  0  0  0  0  0  0  0
  -21.4946  -11.4320   -5.8617 C   0  0  0  0  0  0  0  0  0  0  0  0
  -22.2044  -10.8497   -6.8844 C   0  0  0  0  0  0  0  0  0  0  0  0
  -23.6471  -10.1323   -6.3294 S   0  0  0  0  0  0  0  0  0  0  0  0
  -23.3573  -10.5843   -4.7145 C   0  0  0  0  0  0  0  0  0  0  0  0
  -24.0800  -10.7419   -1.5151 H   0  0  0  0  0  0  0  0  0  0  0  0
  6  7  2  0  0  0
  7  8  1  0  0  0
  7  9  1  0  0  0
  8 12  1  0  0  0
  8 10  1  0  0  0
 12 13  1  0  0  0
 12 18  2  0  0  0
 13 14  2  0  0  0
 14 15  1  0  0  0
 15 16  2  0  0  0
 16 17  1  0  0  0
 16 18  1  0  0  0
  9  1  1  0  0  0
  9 11  1  0  0  0
  1  2  2  0  0  0
  1  5  1  0  0  0
  2  3  1  0  0  0
  3  4  2  0  0  0
  4 19  1  0  0  0
  4  5  1  0  0  0
 19 20  1  0  0  0
 20 21  1  0  0  0
 21 22  2  0  0  0
 22 23  1  0  0  0
 22 30  1  0  0  0
 23 24  1  0  0  0
 23 31  1  0  0  0
 24 25  2  0  0  0
 25 26  1  0  0  0
 26 27  1  0  0  0
 26 30  2  0  0  0
 27 28  2  0  0  0
 28 29  1  0  0  0
 29 30  1  0  0  0
M  END
> <minimizedAffinity>
-8.99193

$$$$
