CHEMBL3352835


 34 37  0  0  0  0  0  0  0  0999 V2000
  -29.1482   -3.6652   -7.1820 C   0  0  0  0  0  0  0  0  0  0  0  0
  -28.5627   -3.5361   -8.4430 C   0  0  0  0  0  0  0  0  0  0  0  0
  -27.7372   -2.4701   -8.7498 C   0  0  0  0  0  0  0  0  0  0  0  0
  -27.5647   -1.4940   -7.7733 C   0  0  0  0  0  0  0  0  0  0  0  0
  -28.2343   -1.6490   -6.5586 C   0  0  0  0  0  0  0  0  0  0  0  0
  -29.0211   -2.7048   -6.2465 N   0  0  0  0  0  0  0  0  0  0  0  0
  -27.0581   -2.3565   -9.9922 N   0  0  0  0  0  0  0  0  0  0  0  0
  -27.3479   -1.4373  -11.0003 C   0  0  0  0  0  0  0  0  0  0  0  0
  -28.2181   -0.5776  -10.9404 O   0  0  0  0  0  0  0  0  0  0  0  0
  -26.2340   -2.9345  -10.1022 H   0  0  0  0  0  0  0  0  0  0  0  0
  -26.5077   -1.4635  -12.2356 C   0  0  0  0  0  0  0  0  0  0  0  0
  -27.0587   -1.8917  -13.4647 C   0  0  0  0  0  0  0  0  0  0  0  0
  -28.6823   -2.4279  -13.6866 Cl  0  0  0  0  0  0  0  0  0  0  0  0
  -26.3020   -1.8790  -14.6440 C   0  0  0  0  0  0  0  0  0  0  0  0
  -25.0061   -1.3870  -14.6390 C   0  0  0  0  0  0  0  0  0  0  0  0
  -24.4595   -0.9241  -13.4489 C   0  0  0  0  0  0  0  0  0  0  0  0
  -25.1935   -0.9674  -12.2525 C   0  0  0  0  0  0  0  0  0  0  0  0
  -24.3899   -0.3128  -10.8642 Cl  0  0  0  0  0  0  0  0  0  0  0  0
  -29.9079   -4.8090   -6.8905 N   0  0  0  0  0  0  0  0  0  0  0  0
  -30.8919   -4.6380   -7.0397 H   0  0  0  0  0  0  0  0  0  0  0  0
  -28.5571   -7.5407   -4.9564 C   0  0  0  0  0  0  0  0  0  0  0  0
  -29.2713   -7.4903   -3.8233 N   0  0  0  0  0  0  0  0  0  0  0  0
  -30.1606   -6.4896   -3.6894 C   0  0  0  0  0  0  0  0  0  0  0  0
  -30.3794   -5.5283   -4.6434 C   0  0  0  0  0  0  0  0  0  0  0  0
  -29.6385   -5.6574   -5.7920 C   0  0  0  0  0  0  0  0  0  0  0  0
  -28.7152   -6.6306   -5.9244 N   0  0  0  0  0  0  0  0  0  0  0  0
  -26.7234  -11.2067   -4.5738 C   0  0  0  0  0  0  0  0  0  0  0  0
  -27.8699  -10.9521   -5.5613 C   0  0  0  0  0  0  0  0  0  0  0  0
  -27.8131   -9.5553   -6.1781 C   0  0  0  0  0  0  0  0  0  0  0  0
  -27.6426   -8.5481   -5.1437 N   0  0  0  0  0  0  0  0  0  0  0  0
  -26.5185   -8.7108   -4.2406 C   0  0  0  0  0  0  0  0  0  0  0  0
  -26.6203  -10.0699   -3.5513 C   0  0  0  0  0  0  0  0  0  0  0  0
  -24.3700  -11.5829   -4.3386 C   0  0  0  0  0  0  0  0  0  0  0  0
  -25.4484  -11.3155   -5.2233 O   0  0  0  0  0  0  0  0  0  0  0  0
 33 34  1  0  0  0
 34 27  1  0  0  0
 27 28  1  0  0  0
 27 32  1  0  0  0
 28 29  1  0  0  0
 29 30  1  0  0  0
 30 21  1  0  0  0
 30 31  1  0  0  0
 21 22  1  0  0  0
 21 26  2  0  0  0
 22 23  2  0  0  0
 23 24  1  0  0  0
 24 25  2  0  0  0
 25 19  1  0  0  0
 25 26  1  0  0  0
 19  1  1  0  0  0
 19 20  1  0  0  0
  1  2  1  0  0  0
  1  6  2  0  0  0
  2  3  2  0  0  0
  3  7  1  0  0  0
  3  4  1  0  0  0
  7  8  1  0  0  0
  7 10  1  0  0  0
  8  9  2  0  0  0
  8 11  1  0  0  0
 11 12  1  0  0  0
 11 17  2  0  0  0
 12 13  1  0  0  0
 12 14  2  0  0  0
 14 15  1  0  0  0
 15 16  2  0  0  0
 16 17  1  0  0  0
 17 18  1  0  0  0
  4  5  2  0  0  0
  5  6  1  0  0  0
 31 32  1  0  0  0
M  END
> <minimizedAffinity>
-8.81014

$$$$
