CHEMBL3660278


 38 41  0  0  0  0  0  0  0  0999 V2000
  -17.0268    1.2021  -15.1598 C   0  0  0  0  0  0  0  0  0  0  0  0
  -17.2040    0.9686  -13.7969 C   0  0  0  0  0  0  0  0  0  0  0  0
  -16.2589    0.2347  -13.0802 C   0  0  0  0  0  0  0  0  0  0  0  0
  -15.0885   -0.2297  -13.6882 C   0  0  0  0  0  0  0  0  0  0  0  0
  -14.8407    0.1254  -15.0169 C   0  0  0  0  0  0  0  0  0  0  0  0
  -15.8163    0.8230  -15.7457 C   0  0  0  0  0  0  0  0  0  0  0  0
  -15.5777    1.0986  -17.0365 F   0  0  0  0  0  0  0  0  0  0  0  0
  -14.1576   -1.0310  -12.9813 N   0  0  0  0  0  0  0  0  0  0  0  0
  -14.1831   -2.4189  -12.9896 C   0  0  0  0  0  0  0  0  0  0  0  0
  -14.9118   -3.0956  -13.7135 O   0  0  0  0  0  0  0  0  0  0  0  0
  -13.3060   -2.9650  -12.0692 N   0  0  0  0  0  0  0  0  0  0  0  0
  -13.2719   -0.6134  -12.7267 H   0  0  0  0  0  0  0  0  0  0  0  0
  -13.2443   -2.4416  -11.2039 H   0  0  0  0  0  0  0  0  0  0  0  0
  -13.2177   -4.3752  -11.9131 C   0  0  0  0  0  0  0  0  0  0  0  0
  -12.2911   -5.1503  -12.6240 C   0  0  0  0  0  0  0  0  0  0  0  0
  -12.2554   -6.5460  -12.4634 C   0  0  0  0  0  0  0  0  0  0  0  0
  -11.2545   -7.3852  -13.2058 C   0  0  0  0  0  0  0  0  0  0  0  0
  -13.1783   -7.1617  -11.6071 C   0  0  0  0  0  0  0  0  0  0  0  0
  -14.1027   -6.3942  -10.8976 C   0  0  0  0  0  0  0  0  0  0  0  0
  -14.0996   -5.0099  -11.0375 C   0  0  0  0  0  0  0  0  0  0  0  0
  -15.0059   -4.2822  -10.3660 F   0  0  0  0  0  0  0  0  0  0  0  0
  -17.9915    1.8038  -15.9484 O   0  0  0  0  0  0  0  0  0  0  0  0
  -21.2536    1.5476  -14.2571 C   0  0  0  0  0  0  0  0  0  0  0  0
  -20.1158    1.1507  -14.9442 C   0  0  0  0  0  0  0  0  0  0  0  0
  -19.2056    2.1175  -15.3638 C   0  0  0  0  0  0  0  0  0  0  0  0
  -19.5255    3.4579  -15.1986 C   0  0  0  0  0  0  0  0  0  0  0  0
  -20.7109    3.7664  -14.5444 C   0  0  0  0  0  0  0  0  0  0  0  0
  -21.5742    2.8456  -14.0487 N   0  0  0  0  0  0  0  0  0  0  0  0
  -23.8986   -0.8658  -13.2391 C   0  0  0  0  0  0  0  0  0  0  0  0
  -23.0321   -0.8565  -12.1575 C   0  0  0  0  0  0  0  0  0  0  0  0
  -21.9792   -0.0218  -12.4536 N   0  0  0  0  0  0  0  0  0  0  0  0
  -22.1640    0.5594  -13.6877 C   0  0  0  0  0  0  0  0  0  0  0  0
  -23.3200    0.0034  -14.2053 C   0  0  0  0  0  0  0  0  0  0  0  0
  -21.1819    0.1719  -11.8576 H   0  0  0  0  0  0  0  0  0  0  0  0
  -25.1536   -1.5845  -13.3974 C   0  0  0  0  0  0  0  0  0  0  0  0
  -25.6760   -1.7671  -14.4939 O   0  0  0  0  0  0  0  0  0  0  0  0
  -26.7984   -1.1976  -11.7925 C   0  0  0  0  0  0  0  0  0  0  0  0
  -25.6965   -2.0011  -12.2163 O   0  0  0  0  0  0  0  0  0  0  0  0
 37 38  1  0  0  0
 38 35  1  0  0  0
 35 36  2  0  0  0
 35 29  1  0  0  0
 29 30  2  0  0  0
 29 33  1  0  0  0
 30 31  1  0  0  0
 31 32  1  0  0  0
 31 34  1  0  0  0
 32 23  1  0  0  0
 32 33  2  0  0  0
 23 24  1  0  0  0
 23 28  2  0  0  0
 24 25  2  0  0  0
 25 22  1  0  0  0
 25 26  1  0  0  0
 22  1  1  0  0  0
  1  2  1  0  0  0
  1  6  2  0  0  0
  2  3  2  0  0  0
  3  4  1  0  0  0
  4  8  1  0  0  0
  4  5  2  0  0  0
  8  9  1  0  0  0
  8 12  1  0  0  0
  9 10  2  0  0  0
  9 11  1  0  0  0
 11 14  1  0  0  0
 11 13  1  0  0  0
 14 15  1  0  0  0
 14 20  2  0  0  0
 15 16  2  0  0  0
 16 17  1  0  0  0
 16 18  1  0  0  0
 18 19  2  0  0  0
 19 20  1  0  0  0
 20 21  1  0  0  0
  5  6  1  0  0  0
  6  7  1  0  0  0
 26 27  2  0  0  0
 27 28  1  0  0  0
M  END
> <minimizedAffinity>
-9.10954

$$$$
