CHEMBL3633696


 32 35  0  0  0  0  0  0  0  0999 V2000
  -27.6133   -1.9077   -9.7935 C   0  0  0  0  0  0  0  0  0  0  0  0
  -27.5697   -1.6682  -11.1416 C   0  0  0  0  0  0  0  0  0  0  0  0
  -26.2404   -1.4236  -11.4059 N   0  0  0  0  0  0  0  0  0  0  0  0
  -25.5302   -1.4878  -10.2486 N   0  0  0  0  0  0  0  0  0  0  0  0
  -26.3669   -1.7671   -9.2588 N   0  0  0  0  0  0  0  0  0  0  0  0
  -25.6045   -1.1726  -12.6502 C   0  0  0  0  0  0  0  0  0  0  0  0
  -26.1567   -1.7186  -13.8168 C   0  0  0  0  0  0  0  0  0  0  0  0
  -25.5724   -1.4604  -15.0524 C   0  0  0  0  0  0  0  0  0  0  0  0
  -24.4417   -0.6498  -15.1312 C   0  0  0  0  0  0  0  0  0  0  0  0
  -23.8672   -0.0700  -13.9838 C   0  0  0  0  0  0  0  0  0  0  0  0
  -24.4567   -0.3651  -12.7365 C   0  0  0  0  0  0  0  0  0  0  0  0
  -22.7052    0.8384  -14.0890 C   0  0  0  0  0  0  0  0  0  0  0  0
  -21.4219    0.3709  -14.3868 C   0  0  0  0  0  0  0  0  0  0  0  0
  -20.3638    1.2711  -14.4757 C   0  0  0  0  0  0  0  0  0  0  0  0
  -20.6040    2.6218  -14.2613 C   0  0  0  0  0  0  0  0  0  0  0  0
  -21.9021    3.0120  -13.9825 C   0  0  0  0  0  0  0  0  0  0  0  0
  -22.9518    2.1604  -13.8995 N   0  0  0  0  0  0  0  0  0  0  0  0
  -28.6938   -2.2718   -9.0805 N   0  0  0  0  0  0  0  0  0  0  0  0
  -29.5810   -1.7972   -9.2219 H   0  0  0  0  0  0  0  0  0  0  0  0
  -28.8955   -5.1169   -6.6966 C   0  0  0  0  0  0  0  0  0  0  0  0
  -28.6098   -4.4869   -5.4852 C   0  0  0  0  0  0  0  0  0  0  0  0
  -28.4043   -3.1040   -5.4552 C   0  0  0  0  0  0  0  0  0  0  0  0
  -28.4567   -2.3542   -6.6352 C   0  0  0  0  0  0  0  0  0  0  0  0
  -28.7231   -3.0010   -7.8655 C   0  0  0  0  0  0  0  0  0  0  0  0
  -28.9727   -4.3817   -7.8785 C   0  0  0  0  0  0  0  0  0  0  0  0
  -29.0154   -6.8895   -6.7738 S   0  0  0  0  0  0  0  0  0  0  0  0
  -28.1541   -7.4131   -5.7277 O   0  0  0  0  0  0  0  0  0  0  0  0
  -28.8028   -7.2585   -8.1588 O   0  0  0  0  0  0  0  0  0  0  0  0
  -31.3779   -8.0626   -7.4192 C   0  0  0  0  0  0  0  0  0  0  0  0
  -30.6986   -7.2533   -6.3301 C   0  0  0  0  0  0  0  0  0  0  0  0
  -28.2409   -0.9976   -6.6966 O   0  0  0  0  0  0  0  0  0  0  0  0
  -27.6510   -0.3890   -5.5509 C   0  0  0  0  0  0  0  0  0  0  0  0
 29 30  1  0  0  0
 30 26  1  0  0  0
 26 27  2  0  0  0
 26 28  2  0  0  0
 26 20  1  0  0  0
 20 21  1  0  0  0
 20 25  2  0  0  0
 21 22  2  0  0  0
 22 23  1  0  0  0
 23 31  1  0  0  0
 23 24  2  0  0  0
 31 32  1  0  0  0
 24 18  1  0  0  0
 24 25  1  0  0  0
 18  1  1  0  0  0
 18 19  1  0  0  0
  1  2  2  0  0  0
  1  5  1  0  0  0
  2  3  1  0  0  0
  3  6  1  0  0  0
  3  4  1  0  0  0
  6  7  1  0  0  0
  6 11  2  0  0  0
  7  8  2  0  0  0
  8  9  1  0  0  0
  9 10  2  0  0  0
 10 12  1  0  0  0
 10 11  1  0  0  0
 12 13  1  0  0  0
 12 17  2  0  0  0
 13 14  2  0  0  0
 14 15  1  0  0  0
 15 16  2  0  0  0
 16 17  1  0  0  0
  4  5  2  0  0  0
M  END
> <minimizedAffinity>
-9.66532

$$$$
