CHEMBL2430266


 34 37  0  0  0  0  0  0  0  0999 V2000
  -29.5300   -5.3815   -4.3954 C   0  0  0  0  0  0  0  0  0  0  0  0
  -29.8074   -6.5732   -3.7346 C   0  0  0  0  0  0  0  0  0  0  0  0
  -30.3121   -6.8490   -2.3627 C   0  0  0  0  0  0  0  0  0  0  0  0
  -29.6010   -7.6143   -4.6302 N   0  0  0  0  0  0  0  0  0  0  0  0
  -29.2163   -7.1210   -5.8463 C   0  0  0  0  0  0  0  0  0  0  0  0
  -29.1551   -5.7482   -5.7223 C   0  0  0  0  0  0  0  0  0  0  0  0
  -28.7776   -4.8048   -6.8061 C   0  0  0  0  0  0  0  0  0  0  0  0
  -28.3889   -5.4566   -8.1175 C   0  0  0  0  0  0  0  0  0  0  0  0
  -28.5018   -6.9762   -8.2330 C   0  0  0  0  0  0  0  0  0  0  0  0
  -28.9244   -7.8464   -7.0461 C   0  0  0  0  0  0  0  0  0  0  0  0
  -28.9957   -9.1916   -7.2364 C   0  0  0  0  0  0  0  0  0  0  0  0
  -29.3892  -10.2963   -6.2650 C   0  0  0  0  0  0  0  0  0  0  0  0
  -29.7258  -10.1964   -5.0986 O   0  0  0  0  0  0  0  0  0  0  0  0
  -29.2888  -11.4818   -6.9813 N   0  0  0  0  0  0  0  0  0  0  0  0
  -28.8679  -11.2733   -8.2840 C   0  0  0  0  0  0  0  0  0  0  0  0
  -28.6632  -12.2343   -9.2629 C   0  0  0  0  0  0  0  0  0  0  0  0
  -28.2347  -11.8123  -10.5290 C   0  0  0  0  0  0  0  0  0  0  0  0
  -28.0354  -10.4495  -10.7937 C   0  0  0  0  0  0  0  0  0  0  0  0
  -27.5735   -9.9190  -12.1212 C   0  0  0  0  0  0  0  0  0  0  0  0
  -28.2679   -9.5137   -9.7791 C   0  0  0  0  0  0  0  0  0  0  0  0
  -28.6811   -9.9127   -8.5148 C   0  0  0  0  0  0  0  0  0  0  0  0
  -29.7518   -8.5983   -4.4178 H   0  0  0  0  0  0  0  0  0  0  0  0
  -29.4938  -12.3764   -6.5608 H   0  0  0  0  0  0  0  0  0  0  0  0
  -28.4787   -3.2779   -3.8545 N   0  0  0  0  0  0  0  0  0  0  0  0
  -29.6468   -3.9969   -3.9331 C   0  0  0  0  0  0  0  0  0  0  0  0
  -30.7353   -3.4820   -3.6856 O   0  0  0  0  0  0  0  0  0  0  0  0
  -27.6779   -3.6101   -4.3782 H   0  0  0  0  0  0  0  0  0  0  0  0
  -28.5492   -1.8725   -3.5232 C   0  0  0  0  0  0  0  0  0  0  0  0
  -27.8561   -0.9787   -4.5593 C   0  0  0  0  0  0  0  0  0  0  0  0
  -28.7368   -0.4778   -5.6413 N   0  0  0  0  0  0  0  0  0  0  0  0
  -30.3170    1.3864   -6.2934 C   0  0  0  0  0  0  0  0  0  0  0  0
  -29.5536    0.6633   -5.1882 C   0  0  0  0  0  0  0  0  0  0  0  0
  -27.9562   -0.2061   -6.8626 C   0  0  0  0  0  0  0  0  0  0  0  0
  -27.8179   -1.3617   -7.8525 C   0  0  0  0  0  0  0  0  0  0  0  0
 31 32  1  0  0  0
 32 30  1  0  0  0
 30 33  1  0  0  0
 30 29  1  0  0  0
 33 34  1  0  0  0
 29 28  1  0  0  0
 28 24  1  0  0  0
 24 25  1  0  0  0
 24 27  1  0  0  0
 25 26  2  0  0  0
 25  1  1  0  0  0
  1  2  2  0  0  0
  1  6  1  0  0  0
  2  3  1  0  0  0
  2  4  1  0  0  0
  4  5  1  0  0  0
  4 22  1  0  0  0
  5  6  2  0  0  0
  5 10  1  0  0  0
  6  7  1  0  0  0
  7  8  1  0  0  0
  8  9  1  0  0  0
  9 10  1  0  0  0
 10 11  2  0  0  0
 11 12  1  0  0  0
 11 21  1  0  0  0
 12 13  2  0  0  0
 12 14  1  0  0  0
 14 15  1  0  0  0
 14 23  1  0  0  0
 15 16  1  0  0  0
 15 21  2  0  0  0
 16 17  2  0  0  0
 17 18  1  0  0  0
 18 19  1  0  0  0
 18 20  2  0  0  0
 20 21  1  0  0  0
M  END
> <minimizedAffinity>
-7.32889

$$$$
