CHEMBL509435


 29 32  0  0  0  0  0  0  0  0999 V2000
  -13.2527    0.4003  -13.7669 C   0  0  0  0  0  0  0  0  0  0  0  0
  -13.7022    1.5499  -14.3308 C   0  0  0  0  0  0  0  0  0  0  0  0
  -12.7074    2.5875  -13.9467 C   0  0  0  0  0  0  0  0  0  0  0  0
  -12.7586    3.7867  -14.1422 O   0  0  0  0  0  0  0  0  0  0  0  0
  -11.6832    1.9513  -13.2854 N   0  0  0  0  0  0  0  0  0  0  0  0
  -11.9002    0.5562  -13.1491 C   0  0  0  0  0  0  0  0  0  0  0  0
  -10.8600    2.4633  -13.0025 H   0  0  0  0  0  0  0  0  0  0  0  0
  -14.6663    1.6782  -15.3748 C   0  0  0  0  0  0  0  0  0  0  0  0
  -14.3956    2.2564  -16.5967 C   0  0  0  0  0  0  0  0  0  0  0  0
  -15.4982    3.0176  -16.8923 N   0  0  0  0  0  0  0  0  0  0  0  0
  -15.4520    4.1914  -17.7307 C   0  0  0  0  0  0  0  0  0  0  0  0
  -16.5607    2.6440  -16.0988 C   0  0  0  0  0  0  0  0  0  0  0  0
  -17.8680    3.1551  -16.0075 C   0  0  0  0  0  0  0  0  0  0  0  0
  -18.7494    2.5541  -15.1055 C   0  0  0  0  0  0  0  0  0  0  0  0
  -18.3491    1.4691  -14.3355 C   0  0  0  0  0  0  0  0  0  0  0  0
  -17.0228    1.0249  -14.3730 C   0  0  0  0  0  0  0  0  0  0  0  0
  -16.0925    1.6432  -15.2420 C   0  0  0  0  0  0  0  0  0  0  0  0
  -15.3093   -2.7115  -13.0659 C   0  0  0  0  0  0  0  0  0  0  0  0
  -14.7943   -1.4072  -12.9843 C   0  0  0  0  0  0  0  0  0  0  0  0
  -13.8026   -0.9635  -13.8687 C   0  0  0  0  0  0  0  0  0  0  0  0
  -13.3041   -1.8412  -14.8357 C   0  0  0  0  0  0  0  0  0  0  0  0
  -13.7964   -3.1576  -14.9147 C   0  0  0  0  0  0  0  0  0  0  0  0
  -14.8280   -3.5819  -14.0606 C   0  0  0  0  0  0  0  0  0  0  0  0
  -15.9010   -3.0171  -10.7731 C   0  0  0  0  0  0  0  0  0  0  0  0
  -16.2007   -3.2115  -12.1470 O   0  0  0  0  0  0  0  0  0  0  0  0
  -13.3437   -4.0603  -15.8521 O   0  0  0  0  0  0  0  0  0  0  0  0
  -13.1528   -3.5451  -17.1663 C   0  0  0  0  0  0  0  0  0  0  0  0
  -15.2373   -4.8898  -14.2449 O   0  0  0  0  0  0  0  0  0  0  0  0
  -14.6739   -5.8834  -13.3948 C   0  0  0  0  0  0  0  0  0  0  0  0
 24 25  1  0  0  0
 25 18  1  0  0  0
 18 19  1  0  0  0
 18 23  2  0  0  0
 19 20  2  0  0  0
 20  1  1  0  0  0
 20 21  1  0  0  0
  1  2  2  0  0  0
  1  6  1  0  0  0
  2  8  1  0  0  0
  2  3  1  0  0  0
  8  9  2  0  0  0
  8 17  1  0  0  0
  9 10  1  0  0  0
 10 11  1  0  0  0
 10 12  1  0  0  0
 12 13  1  0  0  0
 12 17  2  0  0  0
 13 14  2  0  0  0
 14 15  1  0  0  0
 15 16  2  0  0  0
 16 17  1  0  0  0
  3  4  2  0  0  0
  3  5  1  0  0  0
  5  6  1  0  0  0
  5  7  1  0  0  0
 21 22  2  0  0  0
 22 26  1  0  0  0
 22 23  1  0  0  0
 26 27  1  0  0  0
 23 28  1  0  0  0
 28 29  1  0  0  0
M  END
> <minimizedAffinity>
-6.59402

$$$$
