CHEMBL382610


 31 34  0  0  0  0  0  0  0  0999 V2000
  -27.5378   -2.1970   -9.7229 C   0  0  0  0  0  0  0  0  0  0  0  0
  -26.4492   -1.6379   -9.2357 N   0  0  0  0  0  0  0  0  0  0  0  0
  -25.6745   -1.2578  -10.3151 N   0  0  0  0  0  0  0  0  0  0  0  0
  -26.3561   -1.5662  -11.3980 C   0  0  0  0  0  0  0  0  0  0  0  0
  -27.5549   -2.1643  -11.0898 O   0  0  0  0  0  0  0  0  0  0  0  0
  -26.0613   -1.3889  -12.8207 C   0  0  0  0  0  0  0  0  0  0  0  0
  -27.0599   -1.6891  -13.7721 C   0  0  0  0  0  0  0  0  0  0  0  0
  -26.8261   -1.5545  -15.1367 C   0  0  0  0  0  0  0  0  0  0  0  0
  -25.5822   -1.1232  -15.5342 C   0  0  0  0  0  0  0  0  0  0  0  0
  -24.5975   -0.8220  -14.6672 N   0  0  0  0  0  0  0  0  0  0  0  0
  -24.8308   -0.9302  -13.3242 C   0  0  0  0  0  0  0  0  0  0  0  0
  -23.6326   -0.5832  -12.4554 C   0  0  0  0  0  0  0  0  0  0  0  0
  -22.3164   -0.5079  -13.2575 C   0  0  0  0  0  0  0  0  0  0  0  0
  -21.9048    0.8467  -13.7861 C   0  0  0  0  0  0  0  0  0  0  0  0
  -20.7261    0.9374  -14.5422 C   0  0  0  0  0  0  0  0  0  0  0  0
  -20.3412    2.1643  -15.0594 C   0  0  0  0  0  0  0  0  0  0  0  0
  -21.0500    3.3000  -14.8889 N   0  0  0  0  0  0  0  0  0  0  0  0
  -22.1915    3.1936  -14.1785 C   0  0  0  0  0  0  0  0  0  0  0  0
  -22.6592    2.0106  -13.6217 C   0  0  0  0  0  0  0  0  0  0  0  0
  -28.5926   -2.7046   -9.0535 N   0  0  0  0  0  0  0  0  0  0  0  0
  -29.4929   -2.3238   -9.3241 H   0  0  0  0  0  0  0  0  0  0  0  0
  -28.7485   -4.6263   -5.2548 C   0  0  0  0  0  0  0  0  0  0  0  0
  -29.0904   -5.3259   -6.4151 C   0  0  0  0  0  0  0  0  0  0  0  0
  -29.0291   -4.7138   -7.6742 C   0  0  0  0  0  0  0  0  0  0  0  0
  -28.6237   -3.3869   -7.8204 C   0  0  0  0  0  0  0  0  0  0  0  0
  -28.2970   -2.6850   -6.6485 C   0  0  0  0  0  0  0  0  0  0  0  0
  -28.3299   -3.2931   -5.3784 C   0  0  0  0  0  0  0  0  0  0  0  0
  -29.4450   -6.4564   -3.8937 C   0  0  0  0  0  0  0  0  0  0  0  0
  -28.8784   -5.1558   -3.9997 O   0  0  0  0  0  0  0  0  0  0  0  0
  -27.9672   -2.4515   -4.3559 O   0  0  0  0  0  0  0  0  0  0  0  0
  -27.6271   -1.1176   -4.7252 C   0  0  0  0  0  0  0  0  0  0  0  0
 28 29  1  0  0  0
 29 22  1  0  0  0
 22 23  1  0  0  0
 22 27  2  0  0  0
 23 24  2  0  0  0
 24 25  1  0  0  0
 25 20  1  0  0  0
 25 26  2  0  0  0
 20  1  1  0  0  0
 20 21  1  0  0  0
  1  2  2  0  0  0
  1  5  1  0  0  0
  2  3  1  0  0  0
  3  4  2  0  0  0
  4  6  1  0  0  0
  4  5  1  0  0  0
  6  7  1  0  0  0
  6 11  2  0  0  0
  7  8  2  0  0  0
  8  9  1  0  0  0
  9 10  2  0  0  0
 10 11  1  0  0  0
 11 12  1  0  0  0
 12 13  1  0  0  0
 13 14  1  0  0  0
 14 15  1  0  0  0
 14 19  2  0  0  0
 15 16  2  0  0  0
 16 17  1  0  0  0
 17 18  2  0  0  0
 18 19  1  0  0  0
 26 27  1  0  0  0
 27 30  1  0  0  0
 30 31  1  0  0  0
M  END
> <minimizedAffinity>
-9.10336

$$$$
