CHEMBL4465918


 41 46  0  0  0  0  0  0  0  0999 V2000
  -28.0437   -0.9094  -10.7094 C   0  0  0  0  0  0  0  0  0  0  0  0
  -27.9213   -1.7181   -9.4117 C   0  0  0  0  0  0  0  0  0  0  0  0
  -27.3613    0.1237   -7.9420 O   0  0  0  0  0  0  0  0  0  0  0  0
  -27.6749   -1.0641   -8.0400 C   0  0  0  0  0  0  0  0  0  0  0  0
  -27.8196   -1.9033   -6.9232 N   0  0  0  0  0  0  0  0  0  0  0  0
  -27.6960   -1.5000   -5.5002 C   0  0  0  0  0  0  0  0  0  0  0  0
  -29.1310   -1.6596   -4.9326 C   0  0  0  0  0  0  0  0  0  0  0  0
  -29.4974   -2.9278   -5.7099 C   0  0  0  0  0  0  0  0  0  0  0  0
  -28.7058   -2.9972   -6.8674 C   0  0  0  0  0  0  0  0  0  0  0  0
  -28.6379   -4.1135   -7.6888 C   0  0  0  0  0  0  0  0  0  0  0  0
  -29.3654   -5.2416   -7.3174 C   0  0  0  0  0  0  0  0  0  0  0  0
  -29.2463   -6.3562   -8.0919 O   0  0  0  0  0  0  0  0  0  0  0  0
  -30.1112   -5.2476   -6.1286 C   0  0  0  0  0  0  0  0  0  0  0  0
  -30.6812   -6.4563   -5.6964 C   0  0  0  0  0  0  0  0  0  0  0  0
  -31.3135   -6.5512   -4.4644 C   0  0  0  0  0  0  0  0  0  0  0  0
  -31.4489   -5.4160   -3.6734 C   0  0  0  0  0  0  0  0  0  0  0  0
  -30.9270   -4.1854   -4.0972 C   0  0  0  0  0  0  0  0  0  0  0  0
  -30.2117   -4.0787   -5.3088 C   0  0  0  0  0  0  0  0  0  0  0  0
  -28.6804   -6.1721   -8.8604 H   0  0  0  0  0  0  0  0  0  0  0  0
  -29.7816   -0.2890   -5.2030 C   0  0  0  0  0  0  0  0  0  0  0  0
  -28.7074    1.0895   -4.9545 Cl  0  0  0  0  0  0  0  0  0  0  0  0
  -26.7364   -0.4698  -11.3724 C   0  0  0  0  0  0  0  0  0  0  0  0
  -25.5828   -1.4950  -11.3679 C   0  0  0  0  0  0  0  0  0  0  0  0
  -25.8398   -2.6974  -11.2433 O   0  0  0  0  0  0  0  0  0  0  0  0
  -24.2689   -1.0646  -11.4850 N   0  0  0  0  0  0  0  0  0  0  0  0
  -23.1164   -1.9981  -11.5654 C   0  0  0  0  0  0  0  0  0  0  0  0
  -22.6775   -1.9339  -13.0463 C   0  0  0  0  0  0  0  0  0  0  0  0
  -22.9386   -0.4393  -13.2496 C   0  0  0  0  0  0  0  0  0  0  0  0
  -23.8899   -0.0042  -12.3086 C   0  0  0  0  0  0  0  0  0  0  0  0
  -24.1961    1.3233  -12.0846 C   0  0  0  0  0  0  0  0  0  0  0  0
  -23.5295    2.2737  -12.8275 C   0  0  0  0  0  0  0  0  0  0  0  0
  -23.8265    3.5957  -12.6096 O   0  0  0  0  0  0  0  0  0  0  0  0
  -22.5180    1.9042  -13.7337 C   0  0  0  0  0  0  0  0  0  0  0  0
  -21.7471    2.9002  -14.3418 C   0  0  0  0  0  0  0  0  0  0  0  0
  -20.6778    2.5754  -15.1656 C   0  0  0  0  0  0  0  0  0  0  0  0
  -20.3955    1.2426  -15.4355 C   0  0  0  0  0  0  0  0  0  0  0  0
  -21.1645    0.2229  -14.8605 C   0  0  0  0  0  0  0  0  0  0  0  0
  -22.2190    0.5270  -13.9733 C   0  0  0  0  0  0  0  0  0  0  0  0
  -24.5885    3.6540  -12.0076 H   0  0  0  0  0  0  0  0  0  0  0  0
  -23.5063   -3.0290  -13.7449 C   0  0  0  0  0  0  0  0  0  0  0  0
  -24.9058   -2.4189  -14.6367 Cl  0  0  0  0  0  0  0  0  0  0  0  0
  3  4  2  0  0  0
  4  2  1  0  0  0
  4  5  1  0  0  0
  2  1  1  0  0  0
  1 22  1  0  0  0
 22 23  1  0  0  0
 23 24  2  0  0  0
 23 25  1  0  0  0
 25 26  1  0  0  0
 25 29  1  0  0  0
 26 27  1  0  0  0
 27 40  1  0  0  0
 27 28  1  0  0  0
 40 41  1  0  0  0
 28 29  1  0  0  0
 28 38  2  0  0  0
 29 30  2  0  0  0
 30 31  1  0  0  0
 31 32  1  0  0  0
 31 33  2  0  0  0
 32 39  1  0  0  0
 33 34  1  0  0  0
 33 38  1  0  0  0
 34 35  2  0  0  0
 35 36  1  0  0  0
 36 37  2  0  0  0
 37 38  1  0  0  0
  5  6  1  0  0  0
  5  9  1  0  0  0
  6  7  1  0  0  0
  7 20  1  0  0  0
  7  8  1  0  0  0
 20 21  1  0  0  0
  8  9  1  0  0  0
  8 18  2  0  0  0
  9 10  2  0  0  0
 10 11  1  0  0  0
 11 12  1  0  0  0
 11 13  2  0  0  0
 12 19  1  0  0  0
 13 14  1  0  0  0
 13 18  1  0  0  0
 14 15  2  0  0  0
 15 16  1  0  0  0
 16 17  2  0  0  0
 17 18  1  0  0  0
M  END
> <minimizedAffinity>
-7.91676

$$$$
