CHEMBL2016918


 32 36  0  0  0  0  0  0  0  0999 V2000
  -16.4416    3.7545  -16.0154 O   0  0  0  0  0  0  0  0  0  0  0  0
  -16.9549    2.6340  -15.9343 C   0  0  0  0  0  0  0  0  0  0  0  0
  -18.2942    2.4517  -15.5645 N   0  0  0  0  0  0  0  0  0  0  0  0
  -19.0401    3.7030  -15.3265 C   0  0  0  0  0  0  0  0  0  0  0  0
  -20.5602    3.6292  -15.1280 C   0  0  0  0  0  0  0  0  0  0  0  0
  -20.9811    2.2923  -14.6991 C   0  0  0  0  0  0  0  0  0  0  0  0
  -22.2565    1.9545  -14.3716 N   0  0  0  0  0  0  0  0  0  0  0  0
  -22.2053    0.6717  -14.0404 C   0  0  0  0  0  0  0  0  0  0  0  0
  -20.9205    0.1964  -14.1486 N   0  0  0  0  0  0  0  0  0  0  0  0
  -20.1377    1.2192  -14.6096 C   0  0  0  0  0  0  0  0  0  0  0  0
  -18.7070    1.1859  -14.9290 C   0  0  0  0  0  0  0  0  0  0  0  0
  -20.6302   -0.7482  -13.9057 H   0  0  0  0  0  0  0  0  0  0  0  0
  -23.2546   -0.1637  -13.5741 C   0  0  0  0  0  0  0  0  0  0  0  0
  -24.2818   -0.4126  -14.4085 C   0  0  0  0  0  0  0  0  0  0  0  0
  -25.4730   -1.1151  -13.9493 C   0  0  0  0  0  0  0  0  0  0  0  0
  -26.5671   -1.3326  -14.7867 C   0  0  0  0  0  0  0  0  0  0  0  0
  -26.5163   -0.9766  -16.0799 F   0  0  0  0  0  0  0  0  0  0  0  0
  -27.7382   -1.8985  -14.2939 C   0  0  0  0  0  0  0  0  0  0  0  0
  -27.8138   -2.2716  -12.9518 C   0  0  0  0  0  0  0  0  0  0  0  0
  -26.7085   -2.0975  -12.1116 C   0  0  0  0  0  0  0  0  0  0  0  0
  -25.5462   -1.5190  -12.6139 C   0  0  0  0  0  0  0  0  0  0  0  0
  -24.4416   -1.3244  -11.7714 N   0  0  0  0  0  0  0  0  0  0  0  0
  -23.2858   -0.7044  -12.1757 C   0  0  0  0  0  0  0  0  0  0  0  0
  -22.3324   -0.5819  -11.4068 O   0  0  0  0  0  0  0  0  0  0  0  0
  -24.4638   -1.6468  -10.8162 H   0  0  0  0  0  0  0  0  0  0  0  0
  -16.1308    1.3894  -16.2888 C   0  0  0  0  0  0  0  0  0  0  0  0
  -14.8648    1.3640  -15.5291 N   0  0  0  0  0  0  0  0  0  0  0  0
  -15.0305    0.7373  -14.2065 C   0  0  0  0  0  0  0  0  0  0  0  0
  -13.7381    0.8729  -13.4036 C   0  0  0  0  0  0  0  0  0  0  0  0
  -12.5709    0.2317  -14.1434 C   0  0  0  0  0  0  0  0  0  0  0  0
  -12.4716    0.7779  -15.5644 C   0  0  0  0  0  0  0  0  0  0  0  0
  -13.8108    0.6944  -16.2985 C   0  0  0  0  0  0  0  0  0  0  0  0
  1  2  2  0  0  0
  2 26  1  0  0  0
  2  3  1  0  0  0
 26 27  1  0  0  0
 27 28  1  0  0  0
 27 32  1  0  0  0
 28 29  1  0  0  0
 29 30  1  0  0  0
 30 31  1  0  0  0
 31 32  1  0  0  0
  3  4  1  0  0  0
  3 11  1  0  0  0
  4  5  1  0  0  0
  5  6  1  0  0  0
  6  7  1  0  0  0
  6 10  2  0  0  0
  7  8  2  0  0  0
  8 13  1  0  0  0
  8  9  1  0  0  0
 13 14  2  0  0  0
 13 23  1  0  0  0
 14 15  1  0  0  0
 15 16  1  0  0  0
 15 21  2  0  0  0
 16 17  1  0  0  0
 16 18  2  0  0  0
 18 19  1  0  0  0
 19 20  2  0  0  0
 20 21  1  0  0  0
 21 22  1  0  0  0
 22 23  1  0  0  0
 22 25  1  0  0  0
 23 24  2  0  0  0
  9 10  1  0  0  0
  9 12  1  0  0  0
 10 11  1  0  0  0
M  END
> <minimizedAffinity>
-8.86903

$$$$
