CHEMBL3906938


 39 43  0  0  0  0  0  0  0  0999 V2000
  -28.8229   -2.6857   -7.9984 N   0  0  0  0  0  0  0  0  0  0  0  0
  -27.8887   -2.0210   -8.8785 C   0  0  0  0  0  0  0  0  0  0  0  0
  -28.5287   -1.2038   -9.7891 C   0  0  0  0  0  0  0  0  0  0  0  0
  -27.9623   -1.0272  -11.0143 C   0  0  0  0  0  0  0  0  0  0  0  0
  -26.7082   -1.4408  -11.3051 C   0  0  0  0  0  0  0  0  0  0  0  0
  -26.6254   -1.5065  -12.6039 N   0  0  0  0  0  0  0  0  0  0  0  0
  -25.4472   -1.2272  -13.1289 C   0  0  0  0  0  0  0  0  0  0  0  0
  -24.3012   -0.9024  -12.4146 C   0  0  0  0  0  0  0  0  0  0  0  0
  -24.3581   -1.1864  -11.0315 N   0  0  0  0  0  0  0  0  0  0  0  0
  -25.7011   -1.5825  -10.3751 C   0  0  0  0  0  0  0  0  0  0  0  0
  -26.4420   -2.1069   -9.0912 C   0  0  0  0  0  0  0  0  0  0  0  0
  -23.4286   -0.0239  -13.3223 C   0  0  0  0  0  0  0  0  0  0  0  0
  -22.2996   -0.5717  -14.0652 C   0  0  0  0  0  0  0  0  0  0  0  0
  -21.4863    0.3112  -14.6170 N   0  0  0  0  0  0  0  0  0  0  0  0
  -22.0799    1.4754  -14.3609 N   0  0  0  0  0  0  0  0  0  0  0  0
  -21.4449    2.6275  -14.9728 C   0  0  0  0  0  0  0  0  0  0  0  0
  -23.2188    1.3398  -13.5513 C   0  0  0  0  0  0  0  0  0  0  0  0
  -30.3994   -3.2478   -4.5848 C   0  0  0  0  0  0  0  0  0  0  0  0
  -29.7361   -2.2741   -3.8547 C   0  0  0  0  0  0  0  0  0  0  0  0
  -28.8817   -1.3811   -4.5091 C   0  0  0  0  0  0  0  0  0  0  0  0
  -28.6413   -1.4862   -5.8881 C   0  0  0  0  0  0  0  0  0  0  0  0
  -29.2006   -2.5049   -6.6401 C   0  0  0  0  0  0  0  0  0  0  0  0
  -30.1593   -3.3202   -5.9614 C   0  0  0  0  0  0  0  0  0  0  0  0
  -30.9573   -5.5398   -4.2189 C   0  0  0  0  0  0  0  0  0  0  0  0
  -31.2837   -4.1582   -4.0629 O   0  0  0  0  0  0  0  0  0  0  0  0
  -28.1954   -0.3552   -3.9126 O   0  0  0  0  0  0  0  0  0  0  0  0
  -28.0790    0.8316   -4.6819 C   0  0  0  0  0  0  0  0  0  0  0  0
  -29.5168   -3.8363   -8.6723 C   0  0  0  0  0  0  0  0  0  0  0  0
  -29.1273   -5.0769   -8.0276 C   0  0  0  0  0  0  0  0  0  0  0  0
  -28.8179   -6.1163   -7.5040 C   0  0  0  0  0  0  0  0  0  0  0  0
  -28.4914   -7.3839   -6.9311 C   0  0  0  0  0  0  0  0  0  0  0  0
  -28.2532   -7.3392   -5.5962 N   0  0  0  0  0  0  0  0  0  0  0  0
  -27.9998   -8.5182   -5.0008 C   0  0  0  0  0  0  0  0  0  0  0  0
  -28.0292   -9.7347   -5.6638 C   0  0  0  0  0  0  0  0  0  0  0  0
  -28.2715   -9.7388   -7.0375 C   0  0  0  0  0  0  0  0  0  0  0  0
  -28.4328   -8.5400   -7.7234 C   0  0  0  0  0  0  0  0  0  0  0  0
  -28.7426   -8.5596   -9.0975 N   0  0  0  0  0  0  0  0  0  0  0  0
  -28.3217   -9.3393   -9.5916 H   0  0  0  0  0  0  0  0  0  0  0  0
  -28.5267   -7.6765   -9.5617 H   0  0  0  0  0  0  0  0  0  0  0  0
 24 25  1  0  0  0
 25 18  1  0  0  0
 18 19  1  0  0  0
 18 23  2  0  0  0
 19 20  2  0  0  0
 20 26  1  0  0  0
 20 21  1  0  0  0
 26 27  1  0  0  0
 21 22  2  0  0  0
 22  1  1  0  0  0
 22 23  1  0  0  0
  1 28  1  0  0  0
  1  2  1  0  0  0
 28 29  1  0  0  0
 29 30  3  0  0  0
 30 31  1  0  0  0
 31 32  1  0  0  0
 31 36  2  0  0  0
 32 33  2  0  0  0
 33 34  1  0  0  0
 34 35  2  0  0  0
 35 36  1  0  0  0
 36 37  1  0  0  0
 37 38  1  0  0  0
 37 39  1  0  0  0
  2  3  1  0  0  0
  2 11  2  0  0  0
  3  4  2  0  0  0
  4  5  1  0  0  0
  5  6  1  0  0  0
  5 10  2  0  0  0
  6  7  2  0  0  0
  7  8  1  0  0  0
  8 12  1  0  0  0
  8  9  2  0  0  0
 12 13  1  0  0  0
 12 17  2  0  0  0
 13 14  2  0  0  0
 14 15  1  0  0  0
 15 16  1  0  0  0
 15 17  1  0  0  0
  9 10  1  0  0  0
 10 11  1  0  0  0
M  END
> <minimizedAffinity>
-6.88880

$$$$
