CHEMBL3908707


 34 37  0  0  0  0  0  0  0  0999 V2000
  -29.1471  -10.0066   -5.6057 N   0  0  0  0  0  0  0  0  0  0  0  0
  -28.8758   -8.5909   -5.4321 C   0  0  0  0  0  0  0  0  0  0  0  0
  -29.0494   -8.1843   -4.1205 C   0  0  0  0  0  0  0  0  0  0  0  0
  -29.5692   -6.9135   -3.9072 C   0  0  0  0  0  0  0  0  0  0  0  0
  -29.6463   -5.9980   -4.8868 C   0  0  0  0  0  0  0  0  0  0  0  0
  -30.4882   -5.0381   -4.5579 N   0  0  0  0  0  0  0  0  0  0  0  0
  -30.3601   -3.8792   -5.1715 C   0  0  0  0  0  0  0  0  0  0  0  0
  -29.2859   -3.5660   -5.9758 C   0  0  0  0  0  0  0  0  0  0  0  0
  -28.6001   -4.6510   -6.5516 N   0  0  0  0  0  0  0  0  0  0  0  0
  -28.8806   -6.0391   -6.0484 C   0  0  0  0  0  0  0  0  0  0  0  0
  -28.6489   -7.5185   -6.3745 C   0  0  0  0  0  0  0  0  0  0  0  0
  -28.9032   -2.1117   -5.7584 C   0  0  0  0  0  0  0  0  0  0  0  0
  -28.1965   -1.3471   -6.7710 C   0  0  0  0  0  0  0  0  0  0  0  0
  -27.8482   -0.1214   -6.4212 N   0  0  0  0  0  0  0  0  0  0  0  0
  -28.3834    0.0122   -5.2071 N   0  0  0  0  0  0  0  0  0  0  0  0
  -28.2780    1.3386   -4.6320 C   0  0  0  0  0  0  0  0  0  0  0  0
  -28.9883   -1.1604   -4.7436 C   0  0  0  0  0  0  0  0  0  0  0  0
  -31.7116  -11.9479   -7.6321 C   0  0  0  0  0  0  0  0  0  0  0  0
  -31.0165  -12.1051   -8.8185 C   0  0  0  0  0  0  0  0  0  0  0  0
  -29.7074  -11.6345   -8.9179 C   0  0  0  0  0  0  0  0  0  0  0  0
  -29.0926  -10.9878   -7.8347 C   0  0  0  0  0  0  0  0  0  0  0  0
  -29.7703  -10.7456   -6.6464 C   0  0  0  0  0  0  0  0  0  0  0  0
  -31.0755  -11.3068   -6.5558 C   0  0  0  0  0  0  0  0  0  0  0  0
  -33.6772  -11.8046   -6.2869 C   0  0  0  0  0  0  0  0  0  0  0  0
  -32.9960  -12.3777   -7.4042 O   0  0  0  0  0  0  0  0  0  0  0  0
  -28.9104  -11.7333  -10.0251 O   0  0  0  0  0  0  0  0  0  0  0  0
  -28.7958  -10.5613  -10.8182 C   0  0  0  0  0  0  0  0  0  0  0  0
  -28.6994  -10.8087   -4.3882 C   0  0  0  0  0  0  0  0  0  0  0  0
  -27.6096  -11.7979   -4.8281 C   0  0  0  0  0  0  0  0  0  0  0  0
  -26.1781  -11.4045   -4.7466 N   0  0  0  0  0  0  0  0  0  0  0  0
  -25.7702  -10.6810   -5.9615 C   0  0  0  0  0  0  0  0  0  0  0  0
  -25.9865  -10.5554   -3.5297 C   0  0  0  0  0  0  0  0  0  0  0  0
  -25.0227  -11.1940   -2.5091 C   0  0  0  0  0  0  0  0  0  0  0  0
  -25.4425   -9.1550   -3.8457 C   0  0  0  0  0  0  0  0  0  0  0  0
 24 25  1  0  0  0
 25 18  1  0  0  0
 18 19  1  0  0  0
 18 23  2  0  0  0
 19 20  2  0  0  0
 20 26  1  0  0  0
 20 21  1  0  0  0
 26 27  1  0  0  0
 21 22  2  0  0  0
 22  1  1  0  0  0
 22 23  1  0  0  0
  1 28  1  0  0  0
  1  2  1  0  0  0
 28 29  1  0  0  0
 29 30  1  0  0  0
 30 31  1  0  0  0
 30 32  1  0  0  0
 32 33  1  0  0  0
 32 34  1  0  0  0
  2  3  1  0  0  0
  2 11  2  0  0  0
  3  4  2  0  0  0
  4  5  1  0  0  0
  5  6  1  0  0  0
  5 10  2  0  0  0
  6  7  2  0  0  0
  7  8  1  0  0  0
  8 12  1  0  0  0
  8  9  2  0  0  0
 12 13  1  0  0  0
 12 17  2  0  0  0
 13 14  2  0  0  0
 14 15  1  0  0  0
 15 16  1  0  0  0
 15 17  1  0  0  0
  9 10  1  0  0  0
 10 11  1  0  0  0
M  END
> <minimizedAffinity>
-6.92134

$$$$
