CHEMBL4065713


 33 38  0  0  0  0  0  0  0  0999 V2000
  -27.1082   -1.0728   -7.6185 O   0  0  0  0  0  0  0  0  0  0  0  0
  -27.8587   -1.9414   -8.0335 C   0  0  0  0  0  0  0  0  0  0  0  0
  -28.1217   -2.3494   -9.3229 N   0  0  0  0  0  0  0  0  0  0  0  0
  -28.7455   -2.5471   -7.1246 N   0  0  0  0  0  0  0  0  0  0  0  0
  -29.4617   -1.8443   -6.1745 C   0  0  0  0  0  0  0  0  0  0  0  0
  -30.2012   -2.7242   -5.4253 C   0  0  0  0  0  0  0  0  0  0  0  0
  -29.8487   -4.0328   -5.8414 C   0  0  0  0  0  0  0  0  0  0  0  0
  -30.1679   -5.3167   -5.3510 C   0  0  0  0  0  0  0  0  0  0  0  0
  -29.5692   -6.4506   -5.9194 C   0  0  0  0  0  0  0  0  0  0  0  0
  -28.6996   -6.3054   -6.9992 C   0  0  0  0  0  0  0  0  0  0  0  0
  -28.4004   -5.0454   -7.5339 C   0  0  0  0  0  0  0  0  0  0  0  0
  -28.9723   -3.9112   -6.9264 C   0  0  0  0  0  0  0  0  0  0  0  0
  -28.9805   -2.8486   -9.5187 H   0  0  0  0  0  0  0  0  0  0  0  0
  -27.4138   -1.8527  -10.4049 C   0  0  0  0  0  0  0  0  0  0  0  0
  -26.0374   -2.0870  -10.6491 C   0  0  0  0  0  0  0  0  0  0  0  0
  -25.7706   -1.4128  -11.8174 C   0  0  0  0  0  0  0  0  0  0  0  0
  -26.9049   -0.7929  -12.2344 O   0  0  0  0  0  0  0  0  0  0  0  0
  -27.9325   -1.0727  -11.3577 N   0  0  0  0  0  0  0  0  0  0  0  0
  -24.4408   -1.3695  -12.5460 C   0  0  0  0  0  0  0  0  0  0  0  0
  -23.1894   -1.7552  -11.7833 C   0  0  0  0  0  0  0  0  0  0  0  0
  -23.4343   -0.3231  -12.1099 C   0  0  0  0  0  0  0  0  0  0  0  0
  -29.8199   -7.6359   -5.2590 O   0  0  0  0  0  0  0  0  0  0  0  0
  -29.4416   -8.8231   -5.8636 C   0  0  0  0  0  0  0  0  0  0  0  0
  -28.2097   -9.2924   -5.5917 N   0  0  0  0  0  0  0  0  0  0  0  0
  -27.8721  -10.4062   -6.2410 C   0  0  0  0  0  0  0  0  0  0  0  0
  -28.6361  -11.0571   -7.1302 N   0  0  0  0  0  0  0  0  0  0  0  0
  -29.8562  -10.5316   -7.3979 C   0  0  0  0  0  0  0  0  0  0  0  0
  -30.3175   -9.3935   -6.7753 C   0  0  0  0  0  0  0  0  0  0  0  0
  -31.6506   -8.8088   -7.0872 C   0  0  0  0  0  0  0  0  0  0  0  0
  -32.5510   -9.6443   -8.0054 C   0  0  0  0  0  0  0  0  0  0  0  0
  -31.9902  -10.7291   -8.7897 N   0  0  0  0  0  0  0  0  0  0  0  0
  -30.6732  -11.2500   -8.4395 C   0  0  0  0  0  0  0  0  0  0  0  0
  -32.0586  -10.5547   -9.7893 H   0  0  0  0  0  0  0  0  0  0  0  0
  1  2  2  0  0  0
  2  3  1  0  0  0
  2  4  1  0  0  0
  3 14  1  0  0  0
  3 13  1  0  0  0
 14 15  1  0  0  0
 14 18  2  0  0  0
 15 16  2  0  0  0
 16 19  1  0  0  0
 16 17  1  0  0  0
 19 20  1  0  0  0
 19 21  1  0  0  0
 20 21  1  0  0  0
 17 18  1  0  0  0
  4  5  1  0  0  0
  4 12  1  0  0  0
  5  6  2  0  0  0
  6  7  1  0  0  0
  7  8  1  0  0  0
  7 12  2  0  0  0
  8  9  2  0  0  0
  9 22  1  0  0  0
  9 10  1  0  0  0
 22 23  1  0  0  0
 23 24  1  0  0  0
 23 28  2  0  0  0
 24 25  2  0  0  0
 25 26  1  0  0  0
 26 27  2  0  0  0
 27 28  1  0  0  0
 27 32  1  0  0  0
 28 29  1  0  0  0
 29 30  1  0  0  0
 30 31  1  0  0  0
 31 32  1  0  0  0
 31 33  1  0  0  0
 10 11  2  0  0  0
 11 12  1  0  0  0
M  END
> <minimizedAffinity>
-9.79783

$$$$
