CHEMBL151863


 37 42  0  0  0  0  0  0  0  0999 V2000
  -26.8277   -1.8046  -10.3736 C   0  0  0  0  0  0  0  0  0  0  0  0
  -27.0080   -0.6196   -9.6462 C   0  0  0  0  0  0  0  0  0  0  0  0
  -27.7074   -0.5987   -8.4428 C   0  0  0  0  0  0  0  0  0  0  0  0
  -28.2238   -1.8165   -7.9617 C   0  0  0  0  0  0  0  0  0  0  0  0
  -27.9919   -3.0448   -8.6475 C   0  0  0  0  0  0  0  0  0  0  0  0
  -27.2886   -3.0252   -9.8474 C   0  0  0  0  0  0  0  0  0  0  0  0
  -28.5555   -3.9637   -7.8269 C   0  0  0  0  0  0  0  0  0  0  0  0
  -28.2145   -5.3323   -7.6780 C   0  0  0  0  0  0  0  0  0  0  0  0
  -28.4418   -5.8902   -6.3669 C   0  0  0  0  0  0  0  0  0  0  0  0
  -29.0951   -5.0950   -5.4144 C   0  0  0  0  0  0  0  0  0  0  0  0
  -30.0167   -4.2770   -6.0575 C   0  0  0  0  0  0  0  0  0  0  0  0
  -29.4136   -3.4152   -6.9118 C   0  0  0  0  0  0  0  0  0  0  0  0
  -28.8600   -2.1295   -6.7546 N   0  0  0  0  0  0  0  0  0  0  0  0
  -31.2995   -4.3380   -5.3535 C   0  0  0  0  0  0  0  0  0  0  0  0
  -30.7176   -4.2108   -3.9776 C   0  0  0  0  0  0  0  0  0  0  0  0
  -31.1642   -3.1598   -3.1787 C   0  0  0  0  0  0  0  0  0  0  0  0
  -30.2277   -2.5243   -2.3925 C   0  0  0  0  0  0  0  0  0  0  0  0
  -28.9126   -3.0193   -2.3437 C   0  0  0  0  0  0  0  0  0  0  0  0
  -28.4889   -4.1495   -3.1106 C   0  0  0  0  0  0  0  0  0  0  0  0
  -29.3823   -4.7695   -3.9991 C   0  0  0  0  0  0  0  0  0  0  0  0
  -28.4696   -7.3159   -6.5604 C   0  0  0  0  0  0  0  0  0  0  0  0
  -28.7804   -8.2508   -5.8259 O   0  0  0  0  0  0  0  0  0  0  0  0
  -28.2023   -7.5029   -7.9461 N   0  0  0  0  0  0  0  0  0  0  0  0
  -28.0068   -6.3064   -8.7332 C   0  0  0  0  0  0  0  0  0  0  0  0
  -28.5643   -8.3601   -8.3656 H   0  0  0  0  0  0  0  0  0  0  0  0
  -26.2062   -1.7737  -11.7367 C   0  0  0  0  0  0  0  0  0  0  0  0
  -27.2679   -2.0959  -12.7914 C   0  0  0  0  0  0  0  0  0  0  0  0
  -25.1552   -2.7399  -11.7218 O   0  0  0  0  0  0  0  0  0  0  0  0
  -24.0457   -2.3472  -12.5055 C   0  0  0  0  0  0  0  0  0  0  0  0
  -23.1273   -1.4941  -11.6400 C   0  0  0  0  0  0  0  0  0  0  0  0
  -23.3641   -0.2074  -13.7922 C   0  0  0  0  0  0  0  0  0  0  0  0
  -22.6257   -0.3221  -12.4778 C   0  0  0  0  0  0  0  0  0  0  0  0
  -28.4833   -1.5695   -5.4392 C   0  0  0  0  0  0  0  0  0  0  0  0
  -29.1247   -0.2522   -4.9725 C   0  0  0  0  0  0  0  0  0  0  0  0
  -28.1532    0.9170   -4.8347 C   0  0  0  0  0  0  0  0  0  0  0  0
  -28.0032    1.5560   -6.1028 O   0  0  0  0  0  0  0  0  0  0  0  0
  -27.5746    0.9272   -6.7103 H   0  0  0  0  0  0  0  0  0  0  0  0
 31 32  1  0  0  0
 32 30  1  0  0  0
 30 29  1  0  0  0
 29 28  1  0  0  0
 28 26  1  0  0  0
 26 27  1  0  0  0
 26  1  1  0  0  0
  1  2  1  0  0  0
  1  6  2  0  0  0
  2  3  2  0  0  0
  3  4  1  0  0  0
  4  5  2  0  0  0
  4 13  1  0  0  0
  5  6  1  0  0  0
  5  7  1  0  0  0
  7  8  1  0  0  0
  7 12  2  0  0  0
  8  9  2  0  0  0
  8 24  1  0  0  0
  9 10  1  0  0  0
  9 21  1  0  0  0
 10 11  2  0  0  0
 10 20  1  0  0  0
 11 12  1  0  0  0
 11 14  1  0  0  0
 12 13  1  0  0  0
 13 33  1  0  0  0
 33 34  1  0  0  0
 34 35  1  0  0  0
 35 36  1  0  0  0
 36 37  1  0  0  0
 14 15  1  0  0  0
 15 16  1  0  0  0
 15 20  2  0  0  0
 16 17  2  0  0  0
 17 18  1  0  0  0
 18 19  2  0  0  0
 19 20  1  0  0  0
 21 22  2  0  0  0
 21 23  1  0  0  0
 23 24  1  0  0  0
 23 25  1  0  0  0
M  END
> <minimizedAffinity>
-7.51289

$$$$
