CHEMBL175760


 29 32  0  0  0  0  0  0  0  0999 V2000
  -29.7304   -4.3286   -6.0018 C   0  0  0  0  0  0  0  0  0  0  0  0
  -29.0998   -3.5802   -6.8917 N   0  0  0  0  0  0  0  0  0  0  0  0
  -28.4609   -4.2438   -7.8227 C   0  0  0  0  0  0  0  0  0  0  0  0
  -27.6762   -3.2969   -9.0087 Cl  0  0  0  0  0  0  0  0  0  0  0  0
  -28.4215   -5.5474   -8.0170 N   0  0  0  0  0  0  0  0  0  0  0  0
  -29.0906   -6.2168   -7.0832 C   0  0  0  0  0  0  0  0  0  0  0  0
  -29.7594   -5.6474   -6.0844 N   0  0  0  0  0  0  0  0  0  0  0  0
  -30.4233   -3.7274   -4.9678 N   0  0  0  0  0  0  0  0  0  0  0  0
  -31.1344   -3.1423   -5.4183 H   0  0  0  0  0  0  0  0  0  0  0  0
  -30.5393   -2.6614   -2.7072 C   0  0  0  0  0  0  0  0  0  0  0  0
  -29.6752   -2.9814   -3.9438 C   0  0  0  0  0  0  0  0  0  0  0  0
  -28.4422   -3.8206   -3.5220 C   0  0  0  0  0  0  0  0  0  0  0  0
  -29.2466   -1.6230   -4.5493 C   0  0  0  0  0  0  0  0  0  0  0  0
  -30.2008   -0.7843   -5.1591 C   0  0  0  0  0  0  0  0  0  0  0  0
  -29.8717    0.5053   -5.5779 C   0  0  0  0  0  0  0  0  0  0  0  0
  -28.5721    0.9763   -5.4286 C   0  0  0  0  0  0  0  0  0  0  0  0
  -27.5921    0.1406   -4.9034 C   0  0  0  0  0  0  0  0  0  0  0  0
  -27.9201   -1.1550   -4.4888 C   0  0  0  0  0  0  0  0  0  0  0  0
  -29.1001   -7.6059   -7.2277 N   0  0  0  0  0  0  0  0  0  0  0  0
  -28.2166   -8.0174   -6.9726 H   0  0  0  0  0  0  0  0  0  0  0  0
  -30.2249   -8.4436   -7.2350 C   0  0  0  0  0  0  0  0  0  0  0  0
  -31.4988   -7.8952   -7.4117 C   0  0  0  0  0  0  0  0  0  0  0  0
  -32.6500   -8.6867   -7.3040 C   0  0  0  0  0  0  0  0  0  0  0  0
  -32.5307  -10.0570   -7.0042 C   0  0  0  0  0  0  0  0  0  0  0  0
  -33.5760  -10.9444   -6.8327 N   0  0  0  0  0  0  0  0  0  0  0  0
  -33.0970  -12.1289   -6.5278 C   0  0  0  0  0  0  0  0  0  0  0  0
  -31.3937  -12.2708   -6.4623 S   0  0  0  0  0  0  0  0  0  0  0  0
  -31.2519  -10.5989   -6.8469 C   0  0  0  0  0  0  0  0  0  0  0  0
  -30.0975   -9.8164   -6.9727 C   0  0  0  0  0  0  0  0  0  0  0  0
 10 11  1  0  0  0
 11 12  1  0  0  0
 11  8  1  0  0  0
 11 13  1  0  0  0
  8  1  1  0  0  0
  8  9  1  0  0  0
  1  2  1  0  0  0
  1  7  2  0  0  0
  2  3  2  0  0  0
  3  4  1  0  0  0
  3  5  1  0  0  0
  5  6  2  0  0  0
  6 19  1  0  0  0
  6  7  1  0  0  0
 19 21  1  0  0  0
 19 20  1  0  0  0
 21 22  1  0  0  0
 21 29  2  0  0  0
 22 23  2  0  0  0
 23 24  1  0  0  0
 24 25  1  0  0  0
 24 28  2  0  0  0
 25 26  2  0  0  0
 26 27  1  0  0  0
 27 28  1  0  0  0
 28 29  1  0  0  0
 13 14  1  0  0  0
 13 18  2  0  0  0
 14 15  2  0  0  0
 15 16  1  0  0  0
 16 17  2  0  0  0
 17 18  1  0  0  0
M  END
> <minimizedAffinity>
-8.83977

$$$$
