CHEMBL461776


 31 34  0  0  0  0  0  0  0  0999 V2000
  -29.3099   -7.0496   -5.6802 C   0  0  0  0  0  0  0  0  0  0  0  0
  -28.7122   -6.3096   -4.6774 C   0  0  0  0  0  0  0  0  0  0  0  0
  -28.4153   -4.9791   -5.0609 C   0  0  0  0  0  0  0  0  0  0  0  0
  -28.7733   -4.6935   -6.3675 C   0  0  0  0  0  0  0  0  0  0  0  0
  -29.4125   -6.1155   -7.1177 S   0  0  0  0  0  0  0  0  0  0  0  0
  -31.2081  -11.7773   -8.4204 C   0  0  0  0  0  0  0  0  0  0  0  0
  -30.0716  -10.9750   -8.0116 N   0  0  0  0  0  0  0  0  0  0  0  0
  -29.9872  -10.5797   -6.6789 C   0  0  0  0  0  0  0  0  0  0  0  0
  -30.5968  -11.1072   -5.7528 O   0  0  0  0  0  0  0  0  0  0  0  0
  -29.2062   -9.3244   -6.4888 C   0  0  0  0  0  0  0  0  0  0  0  0
  -29.7243   -8.4152   -5.6394 C   0  0  0  0  0  0  0  0  0  0  0  0
  -28.1280   -9.0504   -7.3102 O   0  0  0  0  0  0  0  0  0  0  0  0
  -28.1418   -9.6044   -8.5622 C   0  0  0  0  0  0  0  0  0  0  0  0
  -27.1423   -9.1696   -9.4360 C   0  0  0  0  0  0  0  0  0  0  0  0
  -27.1365   -9.6197  -10.7517 C   0  0  0  0  0  0  0  0  0  0  0  0
  -28.1313  -10.4935  -11.1851 C   0  0  0  0  0  0  0  0  0  0  0  0
  -29.1234  -10.9355  -10.3004 C   0  0  0  0  0  0  0  0  0  0  0  0
  -29.1310  -10.5042   -8.9700 C   0  0  0  0  0  0  0  0  0  0  0  0
  -28.6796   -3.4717   -7.1040 C   0  0  0  0  0  0  0  0  0  0  0  0
  -28.0426   -3.4072   -8.2892 C   0  0  0  0  0  0  0  0  0  0  0  0
  -27.9064   -2.1278   -9.0239 C   0  0  0  0  0  0  0  0  0  0  0  0
  -27.9525   -1.0333   -8.4606 O   0  0  0  0  0  0  0  0  0  0  0  0
  -27.7206   -2.2927  -10.3728 N   0  0  0  0  0  0  0  0  0  0  0  0
  -27.7287   -3.2152  -10.7839 H   0  0  0  0  0  0  0  0  0  0  0  0
  -27.5569   -1.1569  -11.2583 C   0  0  0  0  0  0  0  0  0  0  0  0
  -26.2565   -1.2071  -12.0118 C   0  0  0  0  0  0  0  0  0  0  0  0
  -25.0373   -0.9000  -11.3980 C   0  0  0  0  0  0  0  0  0  0  0  0
  -23.8641   -0.8780  -12.1492 C   0  0  0  0  0  0  0  0  0  0  0  0
  -23.9458   -1.1608  -13.5014 C   0  0  0  0  0  0  0  0  0  0  0  0
  -25.0931   -1.5023  -14.1253 N   0  0  0  0  0  0  0  0  0  0  0  0
  -26.2160   -1.5219  -13.3678 C   0  0  0  0  0  0  0  0  0  0  0  0
  6  7  1  0  0  0
  7  8  1  0  0  0
  7 18  1  0  0  0
  8  9  2  0  0  0
  8 10  1  0  0  0
 10 11  2  0  0  0
 10 12  1  0  0  0
 11  1  1  0  0  0
  1  2  2  0  0  0
  1  5  1  0  0  0
  2  3  1  0  0  0
  3  4  2  0  0  0
  4 19  1  0  0  0
  4  5  1  0  0  0
 19 20  2  0  0  0
 20 21  1  0  0  0
 21 22  2  0  0  0
 21 23  1  0  0  0
 23 25  1  0  0  0
 23 24  1  0  0  0
 25 26  1  0  0  0
 26 27  1  0  0  0
 26 31  2  0  0  0
 27 28  2  0  0  0
 28 29  1  0  0  0
 29 30  2  0  0  0
 30 31  1  0  0  0
 12 13  1  0  0  0
 13 14  1  0  0  0
 13 18  2  0  0  0
 14 15  2  0  0  0
 15 16  1  0  0  0
 16 17  2  0  0  0
 17 18  1  0  0  0
M  END
> <minimizedAffinity>
-9.09426

$$$$
