CHEMBL443921


 28 31  0  0  0  0  0  0  0  0999 V2000
  -27.9621   -5.6956   -8.3604 O   0  0  0  0  0  0  0  0  0  0  0  0
  -28.7739   -5.1879   -7.5813 C   0  0  0  0  0  0  0  0  0  0  0  0
  -29.9619   -5.7832   -7.1762 N   0  0  0  0  0  0  0  0  0  0  0  0
  -30.5794   -5.1676   -6.6526 H   0  0  0  0  0  0  0  0  0  0  0  0
  -30.3715   -7.0723   -7.4202 C   0  0  0  0  0  0  0  0  0  0  0  0
  -29.5854   -8.0049   -8.0025 C   0  0  0  0  0  0  0  0  0  0  0  0
  -30.0720   -9.4082   -8.0347 C   0  0  0  0  0  0  0  0  0  0  0  0
  -29.7034  -10.4553   -9.0380 C   0  0  0  0  0  0  0  0  0  0  0  0
  -30.6209  -11.3704   -9.1672 N   0  0  0  0  0  0  0  0  0  0  0  0
  -31.7257  -10.9006   -8.4606 N   0  0  0  0  0  0  0  0  0  0  0  0
  -31.5686   -9.4547   -8.3233 C   0  0  0  0  0  0  0  0  0  0  0  0
  -32.2998   -8.6094   -7.3346 C   0  0  0  0  0  0  0  0  0  0  0  0
  -31.7105   -7.4589   -6.9369 C   0  0  0  0  0  0  0  0  0  0  0  0
  -31.7463  -11.3467   -7.5387 H   0  0  0  0  0  0  0  0  0  0  0  0
  -28.5550   -3.8369   -7.0430 C   0  0  0  0  0  0  0  0  0  0  0  0
  -28.7755   -3.5774   -5.7439 N   0  0  0  0  0  0  0  0  0  0  0  0
  -28.3768   -1.9967   -5.4409 S   0  0  0  0  0  0  0  0  0  0  0  0
  -27.9610   -1.5921   -7.0485 C   0  0  0  0  0  0  0  0  0  0  0  0
  -28.1154   -2.7093   -7.8383 C   0  0  0  0  0  0  0  0  0  0  0  0
  -27.8418   -2.7865   -9.1730 N   0  0  0  0  0  0  0  0  0  0  0  0
  -27.9820   -3.6984   -9.6183 H   0  0  0  0  0  0  0  0  0  0  0  0
  -27.9281   -1.6654  -10.0914 C   0  0  0  0  0  0  0  0  0  0  0  0
  -26.8584   -1.6733  -11.1671 C   0  0  0  0  0  0  0  0  0  0  0  0
  -27.2531   -1.7958  -12.5078 C   0  0  0  0  0  0  0  0  0  0  0  0
  -26.2970   -1.7115  -13.5104 C   0  0  0  0  0  0  0  0  0  0  0  0
  -24.9854   -1.5143  -13.2791 N   0  0  0  0  0  0  0  0  0  0  0  0
  -24.6163   -1.3931  -11.9876 C   0  0  0  0  0  0  0  0  0  0  0  0
  -25.4979   -1.4546  -10.9168 C   0  0  0  0  0  0  0  0  0  0  0  0
  1  2  2  0  0  0
  2  3  1  0  0  0
  2 15  1  0  0  0
  3  5  1  0  0  0
  3  4  1  0  0  0
  5  6  2  0  0  0
  5 13  1  0  0  0
  6  7  1  0  0  0
  7  8  1  0  0  0
  7 11  1  0  0  0
  8  9  2  0  0  0
  9 10  1  0  0  0
 10 11  1  0  0  0
 10 14  1  0  0  0
 11 12  1  0  0  0
 12 13  2  0  0  0
 15 16  2  0  0  0
 15 19  1  0  0  0
 16 17  1  0  0  0
 17 18  1  0  0  0
 18 19  2  0  0  0
 19 20  1  0  0  0
 20 22  1  0  0  0
 20 21  1  0  0  0
 22 23  1  0  0  0
 23 24  1  0  0  0
 23 28  2  0  0  0
 24 25  2  0  0  0
 25 26  1  0  0  0
 26 27  2  0  0  0
 27 28  1  0  0  0
M  END
> <minimizedAffinity>
-8.39165

$$$$
