CHEMBL4245241


 37 41  0  0  0  0  0  0  0  0999 V2000
  -27.3440   -1.9972   -9.6357 C   0  0  0  0  0  0  0  0  0  0  0  0
  -25.9546   -1.8049   -9.6076 C   0  0  0  0  0  0  0  0  0  0  0  0
  -25.2680   -1.2703  -10.6935 C   0  0  0  0  0  0  0  0  0  0  0  0
  -25.9324   -0.9672  -11.8800 C   0  0  0  0  0  0  0  0  0  0  0  0
  -27.3202   -1.0958  -11.9164 C   0  0  0  0  0  0  0  0  0  0  0  0
  -28.0171   -1.5828  -10.7955 C   0  0  0  0  0  0  0  0  0  0  0  0
  -27.7542    0.5126   -7.4339 N   0  0  0  0  0  0  0  0  0  0  0  0
  -28.2347   -0.6173   -6.8745 C   0  0  0  0  0  0  0  0  0  0  0  0
  -28.7497   -0.4668   -5.6208 O   0  0  0  0  0  0  0  0  0  0  0  0
  -29.2856   -1.6666   -5.1787 N   0  0  0  0  0  0  0  0  0  0  0  0
  -29.0787   -2.5347   -6.1662 C   0  0  0  0  0  0  0  0  0  0  0  0
  -29.4697   -3.8357   -6.1772 N   0  0  0  0  0  0  0  0  0  0  0  0
  -29.1226   -4.4973   -7.3159 C   0  0  0  0  0  0  0  0  0  0  0  0
  -28.4264   -3.9124   -8.4076 C   0  0  0  0  0  0  0  0  0  0  0  0
  -28.0027   -2.5619   -8.4562 C   0  0  0  0  0  0  0  0  0  0  0  0
  -28.3806   -1.9251   -7.2643 C   0  0  0  0  0  0  0  0  0  0  0  0
  -27.9590    1.3857   -6.9596 H   0  0  0  0  0  0  0  0  0  0  0  0
  -27.7781    0.6073   -8.4481 H   0  0  0  0  0  0  0  0  0  0  0  0
  -29.5297   -5.9229   -7.3643 C   0  0  0  0  0  0  0  0  0  0  0  0
  -28.7557   -6.8748   -8.0523 C   0  0  0  0  0  0  0  0  0  0  0  0
  -29.1402   -8.2184   -8.1128 C   0  0  0  0  0  0  0  0  0  0  0  0
  -30.3075   -8.6391   -7.4828 C   0  0  0  0  0  0  0  0  0  0  0  0
  -31.0870   -7.7195   -6.7886 C   0  0  0  0  0  0  0  0  0  0  0  0
  -30.7035   -6.3778   -6.7325 C   0  0  0  0  0  0  0  0  0  0  0  0
  -25.2403   -0.5297  -13.0312 N   0  0  0  0  0  0  0  0  0  0  0  0
  -23.9384   -0.0624  -12.9973 C   0  0  0  0  0  0  0  0  0  0  0  0
  -23.2073   -0.1125  -12.0130 O   0  0  0  0  0  0  0  0  0  0  0  0
  -23.5578    0.5174  -14.2018 N   0  0  0  0  0  0  0  0  0  0  0  0
  -25.5775   -0.8399  -13.9309 H   0  0  0  0  0  0  0  0  0  0  0  0
  -24.3121    1.0118  -14.6575 H   0  0  0  0  0  0  0  0  0  0  0  0
  -22.2820    1.1273  -14.2631 C   0  0  0  0  0  0  0  0  0  0  0  0
  -22.1332    2.4984  -14.0081 C   0  0  0  0  0  0  0  0  0  0  0  0
  -20.9254    3.1365  -14.2807 C   0  0  0  0  0  0  0  0  0  0  0  0
  -19.8734    2.3958  -14.8002 C   0  0  0  0  0  0  0  0  0  0  0  0
  -18.7356    3.0163  -15.1366 F   0  0  0  0  0  0  0  0  0  0  0  0
  -19.9905    1.0225  -15.0005 C   0  0  0  0  0  0  0  0  0  0  0  0
  -21.1926    0.3756  -14.7056 C   0  0  0  0  0  0  0  0  0  0  0  0
  7  8  1  0  0  0
  7 17  1  0  0  0
  7 18  1  0  0  0
  8  9  1  0  0  0
  8 16  2  0  0  0
  9 10  1  0  0  0
 10 11  2  0  0  0
 11 12  1  0  0  0
 11 16  1  0  0  0
 12 13  2  0  0  0
 13 19  1  0  0  0
 13 14  1  0  0  0
 19 20  1  0  0  0
 19 24  2  0  0  0
 20 21  2  0  0  0
 21 22  1  0  0  0
 22 23  2  0  0  0
 23 24  1  0  0  0
 14 15  2  0  0  0
 15  1  1  0  0  0
 15 16  1  0  0  0
  1  2  1  0  0  0
  1  6  2  0  0  0
  2  3  2  0  0  0
  3  4  1  0  0  0
  4 25  1  0  0  0
  4  5  2  0  0  0
 25 26  1  0  0  0
 25 29  1  0  0  0
 26 27  2  0  0  0
 26 28  1  0  0  0
 28 31  1  0  0  0
 28 30  1  0  0  0
 31 32  1  0  0  0
 31 37  2  0  0  0
 32 33  2  0  0  0
 33 34  1  0  0  0
 34 35  1  0  0  0
 34 36  2  0  0  0
 36 37  1  0  0  0
  5  6  1  0  0  0
M  END
> <minimizedAffinity>
-10.10302

$$$$
