CHEMBL2349010


 37 41  0  0  0  0  0  0  0  0999 V2000
  -26.7231   -9.3881   -5.1340 C   0  0  0  0  0  0  0  0  0  0  0  0
  -27.2525   -8.2255   -4.6221 C   0  0  0  0  0  0  0  0  0  0  0  0
  -28.1943   -7.8266   -5.5309 N   0  0  0  0  0  0  0  0  0  0  0  0
  -28.8492   -6.6338   -5.5143 N   0  0  0  0  0  0  0  0  0  0  0  0
  -29.6124   -6.4793   -6.5494 C   0  0  0  0  0  0  0  0  0  0  0  0
  -29.8911   -7.4792   -7.6075 C   0  0  0  0  0  0  0  0  0  0  0  0
  -29.1959   -8.6255   -7.5444 C   0  0  0  0  0  0  0  0  0  0  0  0
  -28.2623   -8.8135   -6.4983 C   0  0  0  0  0  0  0  0  0  0  0  0
  -27.3774   -9.7622   -6.2731 N   0  0  0  0  0  0  0  0  0  0  0  0
  -24.3753  -10.1136   -5.0603 C   0  0  0  0  0  0  0  0  0  0  0  0
  -23.9926   -9.5364   -6.0737 O   0  0  0  0  0  0  0  0  0  0  0  0
  -25.6695  -10.0637   -4.5688 N   0  0  0  0  0  0  0  0  0  0  0  0
  -25.8344  -10.4925   -3.6696 H   0  0  0  0  0  0  0  0  0  0  0  0
  -21.5613  -11.3363   -5.9230 C   0  0  0  0  0  0  0  0  0  0  0  0
  -22.2090  -11.4421   -4.5768 C   0  0  0  0  0  0  0  0  0  0  0  0
  -21.6058  -12.1413   -3.4780 C   0  0  0  0  0  0  0  0  0  0  0  0
  -22.3727  -12.1035   -2.3385 C   0  0  0  0  0  0  0  0  0  0  0  0
  -23.8196  -11.2412   -2.5758 S   0  0  0  0  0  0  0  0  0  0  0  0
  -23.4439  -10.8973   -4.2249 C   0  0  0  0  0  0  0  0  0  0  0  0
  -30.2834   -5.2935   -6.8526 O   0  0  0  0  0  0  0  0  0  0  0  0
  -29.5245   -4.1047   -7.0031 C   0  0  0  0  0  0  0  0  0  0  0  0
  -29.4876   -3.1572   -5.9780 C   0  0  0  0  0  0  0  0  0  0  0  0
  -28.7658   -1.9887   -6.1541 C   0  0  0  0  0  0  0  0  0  0  0  0
  -28.0159   -1.8086   -7.3140 C   0  0  0  0  0  0  0  0  0  0  0  0
  -27.9293   -2.8054   -8.2959 C   0  0  0  0  0  0  0  0  0  0  0  0
  -28.7310   -3.9515   -8.1534 C   0  0  0  0  0  0  0  0  0  0  0  0
  -27.0434   -2.6847   -9.4074 N   0  0  0  0  0  0  0  0  0  0  0  0
  -27.2692   -1.8308  -10.4860 C   0  0  0  0  0  0  0  0  0  0  0  0
  -28.2123   -1.0478  -10.5899 O   0  0  0  0  0  0  0  0  0  0  0  0
  -26.1292   -3.1052   -9.3113 H   0  0  0  0  0  0  0  0  0  0  0  0
  -26.2866   -1.8005  -11.6050 C   0  0  0  0  0  0  0  0  0  0  0  0
  -26.6437   -1.7129  -12.9556 C   0  0  0  0  0  0  0  0  0  0  0  0
  -25.6466   -1.5672  -13.9320 C   0  0  0  0  0  0  0  0  0  0  0  0
  -24.2990   -1.5080  -13.5644 C   0  0  0  0  0  0  0  0  0  0  0  0
  -23.9518   -1.6039  -12.2244 C   0  0  0  0  0  0  0  0  0  0  0  0
  -22.6617   -1.5350  -11.8676 F   0  0  0  0  0  0  0  0  0  0  0  0
  -24.9256   -1.7502  -11.2493 C   0  0  0  0  0  0  0  0  0  0  0  0
 14 15  1  0  0  0
 15 16  1  0  0  0
 15 19  2  0  0  0
 16 17  2  0  0  0
 17 18  1  0  0  0
 18 19  1  0  0  0
 19 10  1  0  0  0
 10 11  2  0  0  0
 10 12  1  0  0  0
 12  1  1  0  0  0
 12 13  1  0  0  0
  1  2  2  0  0  0
  1  9  1  0  0  0
  2  3  1  0  0  0
  3  4  1  0  0  0
  3  8  1  0  0  0
  4  5  2  0  0  0
  5 20  1  0  0  0
  5  6  1  0  0  0
 20 21  1  0  0  0
 21 22  1  0  0  0
 21 26  2  0  0  0
 22 23  2  0  0  0
 23 24  1  0  0  0
 24 25  2  0  0  0
 25 27  1  0  0  0
 25 26  1  0  0  0
 27 28  1  0  0  0
 27 30  1  0  0  0
 28 29  2  0  0  0
 28 31  1  0  0  0
 31 32  1  0  0  0
 31 37  2  0  0  0
 32 33  2  0  0  0
 33 34  1  0  0  0
 34 35  2  0  0  0
 35 36  1  0  0  0
 35 37  1  0  0  0
  6  7  2  0  0  0
  7  8  1  0  0  0
  8  9  2  0  0  0
M  END
> <minimizedAffinity>
-11.18162

$$$$
