CHEMBL1993996


 34 37  0  0  0  0  0  0  0  0999 V2000
  -30.0014   -6.7426   -5.7374 C   0  0  0  0  0  0  0  0  0  0  0  0
  -29.0058   -7.6238   -5.3158 C   0  0  0  0  0  0  0  0  0  0  0  0
  -28.6229   -8.7064   -6.1138 C   0  0  0  0  0  0  0  0  0  0  0  0
  -29.2440   -8.9618   -7.3444 C   0  0  0  0  0  0  0  0  0  0  0  0
  -30.3188   -8.1149   -7.6932 C   0  0  0  0  0  0  0  0  0  0  0  0
  -30.6861   -7.0074   -6.9172 C   0  0  0  0  0  0  0  0  0  0  0  0
  -28.8169  -10.0833   -8.2153 C   0  0  0  0  0  0  0  0  0  0  0  0
  -29.2387  -11.4185   -8.0010 C   0  0  0  0  0  0  0  0  0  0  0  0
  -29.9844  -11.7297   -6.9279 F   0  0  0  0  0  0  0  0  0  0  0  0
  -28.9445  -12.4635   -8.8747 C   0  0  0  0  0  0  0  0  0  0  0  0
  -28.2644  -12.2233  -10.0629 C   0  0  0  0  0  0  0  0  0  0  0  0
  -27.8130  -10.9186  -10.2702 C   0  0  0  0  0  0  0  0  0  0  0  0
  -27.1614  -10.3612  -11.3374 N   0  0  0  0  0  0  0  0  0  0  0  0
  -26.7216   -9.1168  -11.1225 N   0  0  0  0  0  0  0  0  0  0  0  0
  -27.1852   -8.8229   -9.9117 C   0  0  0  0  0  0  0  0  0  0  0  0
  -26.8869   -7.6622   -9.3111 N   0  0  0  0  0  0  0  0  0  0  0  0
  -27.9905   -9.8737   -9.3598 C   0  0  0  0  0  0  0  0  0  0  0  0
  -26.9741  -10.7867  -12.2378 H   0  0  0  0  0  0  0  0  0  0  0  0
  -26.1898   -7.0672   -9.7423 H   0  0  0  0  0  0  0  0  0  0  0  0
  -26.9771   -7.5464   -8.3067 H   0  0  0  0  0  0  0  0  0  0  0  0
  -29.9206   -3.3182   -4.5764 N   0  0  0  0  0  0  0  0  0  0  0  0
  -29.5602   -4.4132   -5.3421 C   0  0  0  0  0  0  0  0  0  0  0  0
  -28.7305   -4.3929   -6.2460 O   0  0  0  0  0  0  0  0  0  0  0  0
  -30.2790   -5.5541   -5.0219 N   0  0  0  0  0  0  0  0  0  0  0  0
  -30.4881   -3.5008   -3.7624 H   0  0  0  0  0  0  0  0  0  0  0  0
  -31.2454   -5.3865   -4.7838 H   0  0  0  0  0  0  0  0  0  0  0  0
  -30.5356    1.4120   -6.0202 C   0  0  0  0  0  0  0  0  0  0  0  0
  -29.6757    0.3347   -5.4339 C   0  0  0  0  0  0  0  0  0  0  0  0
  -30.1899   -0.9570   -5.2673 C   0  0  0  0  0  0  0  0  0  0  0  0
  -29.4184   -2.0016   -4.7420 C   0  0  0  0  0  0  0  0  0  0  0  0
  -28.0978   -1.7232   -4.3518 C   0  0  0  0  0  0  0  0  0  0  0  0
  -27.5854   -0.4384   -4.4942 C   0  0  0  0  0  0  0  0  0  0  0  0
  -28.3657    0.5774   -5.0414 C   0  0  0  0  0  0  0  0  0  0  0  0
  -27.8434    1.8037   -5.1812 F   0  0  0  0  0  0  0  0  0  0  0  0
 27 28  1  0  0  0
 28 29  1  0  0  0
 28 33  2  0  0  0
 29 30  2  0  0  0
 30 21  1  0  0  0
 30 31  1  0  0  0
 21 22  1  0  0  0
 21 25  1  0  0  0
 22 23  2  0  0  0
 22 24  1  0  0  0
 24  1  1  0  0  0
 24 26  1  0  0  0
  1  2  1  0  0  0
  1  6  2  0  0  0
  2  3  2  0  0  0
  3  4  1  0  0  0
  4  7  1  0  0  0
  4  5  2  0  0  0
  7  8  1  0  0  0
  7 17  2  0  0  0
  8  9  1  0  0  0
  8 10  2  0  0  0
 10 11  1  0  0  0
 11 12  2  0  0  0
 12 13  1  0  0  0
 12 17  1  0  0  0
 13 14  1  0  0  0
 13 18  1  0  0  0
 14 15  2  0  0  0
 15 16  1  0  0  0
 15 17  1  0  0  0
 16 19  1  0  0  0
 16 20  1  0  0  0
  5  6  1  0  0  0
 31 32  2  0  0  0
 32 33  1  0  0  0
 33 34  1  0  0  0
M  END
> <minimizedAffinity>
-9.65805

$$$$
