CHEMBL1965570


 36 40  0  0  0  0  0  0  0  0999 V2000
  -15.0942    3.1431  -16.6187 C   0  0  0  0  0  0  0  0  0  0  0  0
  -14.2737    2.0135  -16.7026 C   0  0  0  0  0  0  0  0  0  0  0  0
  -14.6159    0.8293  -16.0602 C   0  0  0  0  0  0  0  0  0  0  0  0
  -15.7502    0.7484  -15.2569 C   0  0  0  0  0  0  0  0  0  0  0  0
  -16.5801    1.8688  -15.1639 C   0  0  0  0  0  0  0  0  0  0  0  0
  -16.2705    3.0452  -15.8721 C   0  0  0  0  0  0  0  0  0  0  0  0
  -12.8212    4.7192  -14.7532 N   0  0  0  0  0  0  0  0  0  0  0  0
  -12.9024    5.5865  -15.8358 C   0  0  0  0  0  0  0  0  0  0  0  0
  -12.0972    6.6615  -15.7327 N   0  0  0  0  0  0  0  0  0  0  0  0
  -12.0399    7.5560  -16.7343 C   0  0  0  0  0  0  0  0  0  0  0  0
  -12.7487    7.4695  -17.9205 C   0  0  0  0  0  0  0  0  0  0  0  0
  -13.6041    6.3503  -18.0256 C   0  0  0  0  0  0  0  0  0  0  0  0
  -14.5860    5.9090  -19.3790 S   0  0  0  0  0  0  0  0  0  0  0  0
  -15.2469    4.5847  -18.5817 C   0  0  0  0  0  0  0  0  0  0  0  0
  -14.6896    4.3571  -17.3384 C   0  0  0  0  0  0  0  0  0  0  0  0
  -13.7195    5.3985  -16.9859 C   0  0  0  0  0  0  0  0  0  0  0  0
  -12.0199    4.9805  -14.1876 H   0  0  0  0  0  0  0  0  0  0  0  0
  -12.8522    3.7429  -15.0185 H   0  0  0  0  0  0  0  0  0  0  0  0
  -12.6076    8.4604  -18.9762 C   0  0  0  0  0  0  0  0  0  0  0  0
  -13.2678    9.7029  -19.1977 C   0  0  0  0  0  0  0  0  0  0  0  0
  -12.7581   10.2240  -20.3627 C   0  0  0  0  0  0  0  0  0  0  0  0
  -11.8056    9.4035  -20.8675 O   0  0  0  0  0  0  0  0  0  0  0  0
  -11.7161    8.3412  -20.0262 C   0  0  0  0  0  0  0  0  0  0  0  0
  -16.1046   -0.4280  -14.5614 N   0  0  0  0  0  0  0  0  0  0  0  0
  -15.4265   -0.9355  -13.4639 C   0  0  0  0  0  0  0  0  0  0  0  0
  -14.5202   -0.3602  -12.8692 O   0  0  0  0  0  0  0  0  0  0  0  0
  -15.8632   -2.2009  -13.1209 N   0  0  0  0  0  0  0  0  0  0  0  0
  -16.9908   -0.8565  -14.7777 H   0  0  0  0  0  0  0  0  0  0  0  0
  -16.1440   -2.7886  -13.8923 H   0  0  0  0  0  0  0  0  0  0  0  0
  -15.2955   -2.8882  -12.0136 C   0  0  0  0  0  0  0  0  0  0  0  0
  -15.7595   -2.7023  -10.7055 C   0  0  0  0  0  0  0  0  0  0  0  0
  -15.1341   -3.3448   -9.6365 C   0  0  0  0  0  0  0  0  0  0  0  0
  -14.0455   -4.1867   -9.8664 C   0  0  0  0  0  0  0  0  0  0  0  0
  -13.5857   -4.3843  -11.1720 C   0  0  0  0  0  0  0  0  0  0  0  0
  -14.2236   -3.7504  -12.2325 C   0  0  0  0  0  0  0  0  0  0  0  0
  -13.7517   -3.9228  -13.4788 F   0  0  0  0  0  0  0  0  0  0  0  0
  7  8  1  0  0  0
  7 17  1  0  0  0
  7 18  1  0  0  0
  8  9  1  0  0  0
  8 16  2  0  0  0
  9 10  2  0  0  0
 10 11  1  0  0  0
 11 19  1  0  0  0
 11 12  2  0  0  0
 19 20  1  0  0  0
 19 23  2  0  0  0
 20 21  2  0  0  0
 21 22  1  0  0  0
 22 23  1  0  0  0
 12 13  1  0  0  0
 12 16  1  0  0  0
 13 14  1  0  0  0
 14 15  2  0  0  0
 15  1  1  0  0  0
 15 16  1  0  0  0
  1  2  1  0  0  0
  1  6  2  0  0  0
  2  3  2  0  0  0
  3  4  1  0  0  0
  4 24  1  0  0  0
  4  5  2  0  0  0
 24 25  1  0  0  0
 24 28  1  0  0  0
 25 26  2  0  0  0
 25 27  1  0  0  0
 27 30  1  0  0  0
 27 29  1  0  0  0
 30 31  1  0  0  0
 30 35  2  0  0  0
 31 32  2  0  0  0
 32 33  1  0  0  0
 33 34  2  0  0  0
 34 35  1  0  0  0
 35 36  1  0  0  0
  5  6  1  0  0  0
M  END
> <minimizedAffinity>
-7.38094

$$$$
