CHEMBL384939


 38 43  0  0  0  0  0  0  0  0999 V2000
  -22.3209    1.2495  -13.9662 C   0  0  0  0  0  0  0  0  0  0  0  0
  -22.2271    2.6625  -13.8528 C   0  0  0  0  0  0  0  0  0  0  0  0
  -21.0972    3.3647  -14.2683 C   0  0  0  0  0  0  0  0  0  0  0  0
  -20.0496    2.6194  -14.7423 C   0  0  0  0  0  0  0  0  0  0  0  0
  -20.0725    1.1995  -14.7986 C   0  0  0  0  0  0  0  0  0  0  0  0
  -21.2195    0.5101  -14.4338 C   0  0  0  0  0  0  0  0  0  0  0  0
  -18.7316    0.5970  -15.2638 C   0  0  0  0  0  0  0  0  0  0  0  0
  -18.0091    1.8846  -15.4843 C   0  0  0  0  0  0  0  0  0  0  0  0
  -16.7478    2.3957  -15.8214 C   0  0  0  0  0  0  0  0  0  0  0  0
  -16.7564    3.7484  -15.8118 N   0  0  0  0  0  0  0  0  0  0  0  0
  -18.0137    4.0792  -15.4228 N   0  0  0  0  0  0  0  0  0  0  0  0
  -18.7641    2.9867  -15.2070 C   0  0  0  0  0  0  0  0  0  0  0  0
  -18.2556    5.0586  -15.3179 H   0  0  0  0  0  0  0  0  0  0  0  0
  -15.5149    1.6055  -16.1238 C   0  0  0  0  0  0  0  0  0  0  0  0
  -14.7016    1.8214  -17.2161 C   0  0  0  0  0  0  0  0  0  0  0  0
  -13.5925    0.9239  -17.2457 C   0  0  0  0  0  0  0  0  0  0  0  0
  -13.6027    0.0466  -16.1799 C   0  0  0  0  0  0  0  0  0  0  0  0
  -14.9310    0.3382  -15.1434 S   0  0  0  0  0  0  0  0  0  0  0  0
  -12.6586   -1.0658  -15.8728 C   0  0  0  0  0  0  0  0  0  0  0  0
  -13.4005   -2.2988  -15.9103 N   0  0  0  0  0  0  0  0  0  0  0  0
  -13.2136   -3.2511  -14.9507 C   0  0  0  0  0  0  0  0  0  0  0  0
  -12.3334   -3.2317  -14.1060 O   0  0  0  0  0  0  0  0  0  0  0  0
  -14.2979   -2.3263  -16.3731 H   0  0  0  0  0  0  0  0  0  0  0  0
  -14.2284   -4.1862  -15.0469 O   0  0  0  0  0  0  0  0  0  0  0  0
  -14.9521   -4.3809  -13.8625 C   0  0  0  0  0  0  0  0  0  0  0  0
  -15.4433   -3.2913  -13.1351 C   0  0  0  0  0  0  0  0  0  0  0  0
  -16.2564   -3.5161  -12.0270 C   0  0  0  0  0  0  0  0  0  0  0  0
  -16.5932   -4.8179  -11.6665 C   0  0  0  0  0  0  0  0  0  0  0  0
  -16.1244   -5.9014  -12.4130 C   0  0  0  0  0  0  0  0  0  0  0  0
  -15.3022   -5.6842  -13.5212 C   0  0  0  0  0  0  0  0  0  0  0  0
  -23.6226    0.5572  -13.5991 C   0  0  0  0  0  0  0  0  0  0  0  0
  -26.6227   -1.8582  -10.7488 C   0  0  0  0  0  0  0  0  0  0  0  0
  -25.5857   -2.0253  -11.7622 N   0  0  0  0  0  0  0  0  0  0  0  0
  -25.9843   -1.3951  -13.0310 C   0  0  0  0  0  0  0  0  0  0  0  0
  -24.8716   -1.5282  -14.0946 C   0  0  0  0  0  0  0  0  0  0  0  0
  -23.5826   -0.9145  -13.7033 N   0  0  0  0  0  0  0  0  0  0  0  0
  -23.1933   -1.5183  -12.4047 C   0  0  0  0  0  0  0  0  0  0  0  0
  -24.2915   -1.4830  -11.3050 C   0  0  0  0  0  0  0  0  0  0  0  0
 32 33  1  0  0  0
 33 34  1  0  0  0
 33 38  1  0  0  0
 34 35  1  0  0  0
 35 36  1  0  0  0
 36 31  1  0  0  0
 36 37  1  0  0  0
 31  1  1  0  0  0
  1  2  1  0  0  0
  1  6  2  0  0  0
  2  3  2  0  0  0
  3  4  1  0  0  0
  4  5  2  0  0  0
  4 12  1  0  0  0
  5  6  1  0  0  0
  5  7  1  0  0  0
  7  8  1  0  0  0
  8  9  1  0  0  0
  8 12  2  0  0  0
  9 14  1  0  0  0
  9 10  2  0  0  0
 14 15  2  0  0  0
 14 18  1  0  0  0
 15 16  1  0  0  0
 16 17  2  0  0  0
 17 19  1  0  0  0
 17 18  1  0  0  0
 19 20  1  0  0  0
 20 21  1  0  0  0
 20 23  1  0  0  0
 21 22  2  0  0  0
 21 24  1  0  0  0
 24 25  1  0  0  0
 25 26  1  0  0  0
 25 30  2  0  0  0
 26 27  2  0  0  0
 27 28  1  0  0  0
 28 29  2  0  0  0
 29 30  1  0  0  0
 10 11  1  0  0  0
 11 12  1  0  0  0
 11 13  1  0  0  0
 37 38  1  0  0  0
M  END
> <minimizedAffinity>
-11.09338

$$$$
