CHEMBL256715


 36 39  0  0  0  0  0  0  0  0999 V2000
  -27.4002   -1.7728  -10.3496 C   0  0  0  0  0  0  0  0  0  0  0  0
  -26.0875   -1.5538   -9.9308 C   0  0  0  0  0  0  0  0  0  0  0  0
  -25.0749   -1.3884  -10.8773 C   0  0  0  0  0  0  0  0  0  0  0  0
  -25.3661   -1.3378  -12.2471 C   0  0  0  0  0  0  0  0  0  0  0  0
  -26.6878   -1.4861  -12.6584 C   0  0  0  0  0  0  0  0  0  0  0  0
  -27.6908   -1.7047  -11.7102 C   0  0  0  0  0  0  0  0  0  0  0  0
  -28.9527   -1.8708  -12.1341 F   0  0  0  0  0  0  0  0  0  0  0  0
  -24.2587   -1.1126  -13.0886 N   0  0  0  0  0  0  0  0  0  0  0  0
  -23.3578   -1.1539  -12.6089 H   0  0  0  0  0  0  0  0  0  0  0  0
  -24.1527   -0.6793  -14.3920 C   0  0  0  0  0  0  0  0  0  0  0  0
  -25.0889   -1.0582  -15.7199 S   0  0  0  0  0  0  0  0  0  0  0  0
  -23.1843    0.3013  -14.5851 N   0  0  0  0  0  0  0  0  0  0  0  0
  -22.3037    0.8332  -13.6540 C   0  0  0  0  0  0  0  0  0  0  0  0
  -22.0337    0.2732  -12.5912 O   0  0  0  0  0  0  0  0  0  0  0  0
  -23.2155    0.7270  -15.5035 H   0  0  0  0  0  0  0  0  0  0  0  0
  -21.7303    2.1852  -14.0210 C   0  0  0  0  0  0  0  0  0  0  0  0
  -20.3657    2.1430  -14.6563 C   0  0  0  0  0  0  0  0  0  0  0  0
  -19.7259    3.3331  -15.0323 C   0  0  0  0  0  0  0  0  0  0  0  0
  -18.4288    3.3083  -15.5472 C   0  0  0  0  0  0  0  0  0  0  0  0
  -17.7566    2.0963  -15.6884 C   0  0  0  0  0  0  0  0  0  0  0  0
  -18.3816    0.9077  -15.3170 C   0  0  0  0  0  0  0  0  0  0  0  0
  -19.6789    0.9294  -14.8013 C   0  0  0  0  0  0  0  0  0  0  0  0
  -28.4434   -2.0305   -9.4893 O   0  0  0  0  0  0  0  0  0  0  0  0
  -28.8575   -5.2160   -6.1250 C   0  0  0  0  0  0  0  0  0  0  0  0
  -28.5260   -4.1885   -5.2630 C   0  0  0  0  0  0  0  0  0  0  0  0
  -28.2638   -2.9625   -5.9349 C   0  0  0  0  0  0  0  0  0  0  0  0
  -27.8784   -1.8129   -5.3181 N   0  0  0  0  0  0  0  0  0  0  0  0
  -27.6076   -0.7788   -6.1317 C   0  0  0  0  0  0  0  0  0  0  0  0
  -27.7250   -0.7979   -7.5062 C   0  0  0  0  0  0  0  0  0  0  0  0
  -28.2219   -1.9438   -8.1292 C   0  0  0  0  0  0  0  0  0  0  0  0
  -28.4411   -3.0677   -7.3139 C   0  0  0  0  0  0  0  0  0  0  0  0
  -28.9255   -4.6608   -7.7447 S   0  0  0  0  0  0  0  0  0  0  0  0
  -30.2828   -7.2158   -6.6377 C   0  0  0  0  0  0  0  0  0  0  0  0
  -29.1313   -6.6581   -5.8107 C   0  0  0  0  0  0  0  0  0  0  0  0
  -27.9420   -7.3918   -6.0897 O   0  0  0  0  0  0  0  0  0  0  0  0
  -27.6956   -7.2202   -7.0132 H   0  0  0  0  0  0  0  0  0  0  0  0
 33 34  1  0  0  0
 34 35  1  0  0  0
 34 24  1  0  0  0
 35 36  1  0  0  0
 24 25  2  0  0  0
 24 32  1  0  0  0
 25 26  1  0  0  0
 26 27  1  0  0  0
 26 31  2  0  0  0
 27 28  2  0  0  0
 28 29  1  0  0  0
 29 30  2  0  0  0
 30 23  1  0  0  0
 30 31  1  0  0  0
 23  1  1  0  0  0
  1  2  1  0  0  0
  1  6  2  0  0  0
  2  3  2  0  0  0
  3  4  1  0  0  0
  4  8  1  0  0  0
  4  5  2  0  0  0
  8 10  1  0  0  0
  8  9  1  0  0  0
 10 11  2  0  0  0
 10 12  1  0  0  0
 12 13  1  0  0  0
 12 15  1  0  0  0
 13 14  2  0  0  0
 13 16  1  0  0  0
 16 17  1  0  0  0
 17 18  1  0  0  0
 17 22  2  0  0  0
 18 19  2  0  0  0
 19 20  1  0  0  0
 20 21  2  0  0  0
 21 22  1  0  0  0
  5  6  1  0  0  0
  6  7  1  0  0  0
 31 32  1  0  0  0
M  END
> <minimizedAffinity>
-9.21417

$$$$
