CHEMBL3982107


 37 41  0  0  0  0  0  0  0  0999 V2000
  -29.1936   -9.3247   -5.6028 N   0  0  0  0  0  0  0  0  0  0  0  0
  -29.0943   -7.9304   -5.4634 C   0  0  0  0  0  0  0  0  0  0  0  0
  -30.0891   -7.2328   -6.0659 C   0  0  0  0  0  0  0  0  0  0  0  0
  -29.9102   -5.9004   -6.0190 C   0  0  0  0  0  0  0  0  0  0  0  0
  -28.8875   -5.2075   -5.4239 C   0  0  0  0  0  0  0  0  0  0  0  0
  -28.6219   -4.4500   -6.4635 N   0  0  0  0  0  0  0  0  0  0  0  0
  -29.1184   -3.2845   -6.2618 C   0  0  0  0  0  0  0  0  0  0  0  0
  -28.5411   -2.6005   -5.3166 C   0  0  0  0  0  0  0  0  0  0  0  0
  -27.7695   -3.6393   -4.4335 N   0  0  0  0  0  0  0  0  0  0  0  0
  -27.9101   -5.3790   -4.5415 C   0  0  0  0  0  0  0  0  0  0  0  0
  -28.0683   -7.0966   -4.6661 C   0  0  0  0  0  0  0  0  0  0  0  0
  -28.9318   -0.9377   -5.7075 C   0  0  0  0  0  0  0  0  0  0  0  0
  -28.0513    0.2269   -6.3035 C   0  0  0  0  0  0  0  0  0  0  0  0
  -28.7002    1.3835   -6.5950 N   0  0  0  0  0  0  0  0  0  0  0  0
  -29.9774    1.1467   -6.2434 N   0  0  0  0  0  0  0  0  0  0  0  0
  -31.0271    2.1535   -6.5488 C   0  0  0  0  0  0  0  0  0  0  0  0
  -30.1072   -0.1714   -5.6919 C   0  0  0  0  0  0  0  0  0  0  0  0
  -31.3047  -11.1972   -8.0412 C   0  0  0  0  0  0  0  0  0  0  0  0
  -30.3077  -11.2901   -9.0635 C   0  0  0  0  0  0  0  0  0  0  0  0
  -28.9515  -10.6682   -8.7722 C   0  0  0  0  0  0  0  0  0  0  0  0
  -28.6262   -9.8930   -7.7450 C   0  0  0  0  0  0  0  0  0  0  0  0
  -29.5344   -9.8996   -6.7766 C   0  0  0  0  0  0  0  0  0  0  0  0
  -30.7406  -10.6350   -6.9381 C   0  0  0  0  0  0  0  0  0  0  0  0
  -33.3953  -11.8497   -6.3775 C   0  0  0  0  0  0  0  0  0  0  0  0
  -32.6354  -11.7014   -7.8183 O   0  0  0  0  0  0  0  0  0  0  0  0
  -27.8054  -10.5889   -9.4728 O   0  0  0  0  0  0  0  0  0  0  0  0
  -27.0472  -10.2800  -10.6467 C   0  0  0  0  0  0  0  0  0  0  0  0
  -29.0702  -10.1449   -4.3155 C   0  0  0  0  0  0  0  0  0  0  0  0
  -27.8288  -11.0482   -4.0715 C   0  0  0  0  0  0  0  0  0  0  0  0
  -26.4813  -10.5084   -4.3574 N   0  0  0  0  0  0  0  0  0  0  0  0
  -25.9673  -11.1399   -5.5823 C   0  0  0  0  0  0  0  0  0  0  0  0
  -24.9211  -10.2944   -6.2639 C   0  0  0  0  0  0  0  0  0  0  0  0
  -23.6966   -9.9242   -5.4469 C   0  0  0  0  0  0  0  0  0  0  0  0
  -23.4082  -10.7418   -4.2706 N   0  0  0  0  0  0  0  0  0  0  0  0
  -24.2630  -10.3237   -3.1567 C   0  0  0  0  0  0  0  0  0  0  0  0
  -25.6393  -10.9640   -3.2077 C   0  0  0  0  0  0  0  0  0  0  0  0
  -22.4427  -10.5704   -3.9974 H   0  0  0  0  0  0  0  0  0  0  0  0
 24 25  1  0  0  0
 25 18  1  0  0  0
 18 19  1  0  0  0
 18 23  2  0  0  0
 19 20  2  0  0  0
 20 26  1  0  0  0
 20 21  1  0  0  0
 26 27  1  0  0  0
 21 22  2  0  0  0
 22  1  1  0  0  0
 22 23  1  0  0  0
  1 28  1  0  0  0
  1  2  1  0  0  0
 28 29  1  0  0  0
 29 30  1  0  0  0
 30 31  1  0  0  0
 30 36  1  0  0  0
 31 32  1  0  0  0
 32 33  1  0  0  0
 33 34  1  0  0  0
 34 35  1  0  0  0
 34 37  1  0  0  0
 35 36  1  0  0  0
  2  3  1  0  0  0
  2 11  2  0  0  0
  3  4  2  0  0  0
  4  5  1  0  0  0
  5  6  1  0  0  0
  5 10  2  0  0  0
  6  7  2  0  0  0
  7  8  1  0  0  0
  8 12  1  0  0  0
  8  9  2  0  0  0
 12 13  1  0  0  0
 12 17  2  0  0  0
 13 14  2  0  0  0
 14 15  1  0  0  0
 15 16  1  0  0  0
 15 17  1  0  0  0
  9 10  1  0  0  0
 10 11  1  0  0  0
M  END
> <minimizedAffinity>
-8.36264

$$$$
