CHEMBL394790


 31 34  0  0  0  0  0  0  0  0999 V2000
  -29.6583   -8.4970   -6.4857 C   0  0  0  0  0  0  0  0  0  0  0  0
  -28.6576   -7.9715   -5.6594 C   0  0  0  0  0  0  0  0  0  0  0  0
  -28.8260   -6.7476   -5.0144 C   0  0  0  0  0  0  0  0  0  0  0  0
  -29.9685   -5.9778   -5.2252 C   0  0  0  0  0  0  0  0  0  0  0  0
  -30.9919   -6.5065   -6.0111 C   0  0  0  0  0  0  0  0  0  0  0  0
  -30.8485   -7.7686   -6.6140 C   0  0  0  0  0  0  0  0  0  0  0  0
  -27.6269   -7.9216   -9.1075 N   0  0  0  0  0  0  0  0  0  0  0  0
  -27.8415   -9.2891   -9.2350 C   0  0  0  0  0  0  0  0  0  0  0  0
  -27.1996   -9.8485  -10.2854 N   0  0  0  0  0  0  0  0  0  0  0  0
  -27.2715  -11.1705  -10.4958 C   0  0  0  0  0  0  0  0  0  0  0  0
  -27.9719  -12.0399   -9.6950 C   0  0  0  0  0  0  0  0  0  0  0  0
  -28.6560  -11.4664   -8.6181 C   0  0  0  0  0  0  0  0  0  0  0  0
  -29.5985  -12.3369   -7.4784 S   0  0  0  0  0  0  0  0  0  0  0  0
  -29.9985  -10.9231   -6.6359 C   0  0  0  0  0  0  0  0  0  0  0  0
  -29.4294   -9.7782   -7.1692 C   0  0  0  0  0  0  0  0  0  0  0  0
  -28.6252  -10.0875   -8.3560 C   0  0  0  0  0  0  0  0  0  0  0  0
  -26.8660   -7.6588   -9.7262 H   0  0  0  0  0  0  0  0  0  0  0  0
  -27.5123   -7.6279   -8.1454 H   0  0  0  0  0  0  0  0  0  0  0  0
  -30.1204   -4.6963   -4.6486 N   0  0  0  0  0  0  0  0  0  0  0  0
  -29.6580   -3.5324   -5.2325 C   0  0  0  0  0  0  0  0  0  0  0  0
  -29.2052   -3.4525   -6.3741 O   0  0  0  0  0  0  0  0  0  0  0  0
  -29.7367   -2.4499   -4.3715 N   0  0  0  0  0  0  0  0  0  0  0  0
  -30.8410   -4.5820   -3.9505 H   0  0  0  0  0  0  0  0  0  0  0  0
  -29.5754   -2.6774   -3.4032 H   0  0  0  0  0  0  0  0  0  0  0  0
  -29.3759   -1.1493   -4.7973 C   0  0  0  0  0  0  0  0  0  0  0  0
  -28.0928   -0.6341   -4.5644 C   0  0  0  0  0  0  0  0  0  0  0  0
  -27.7550    0.6500   -4.9921 C   0  0  0  0  0  0  0  0  0  0  0  0
  -28.7053    1.4349   -5.6404 C   0  0  0  0  0  0  0  0  0  0  0  0
  -29.9854    0.9263   -5.8583 C   0  0  0  0  0  0  0  0  0  0  0  0
  -31.1755    1.9176   -6.6113 Cl  0  0  0  0  0  0  0  0  0  0  0  0
  -30.3212   -0.3692   -5.4601 C   0  0  0  0  0  0  0  0  0  0  0  0
  7  8  1  0  0  0
  7 17  1  0  0  0
  7 18  1  0  0  0
  8  9  1  0  0  0
  8 16  2  0  0  0
  9 10  2  0  0  0
 10 11  1  0  0  0
 11 12  2  0  0  0
 12 13  1  0  0  0
 12 16  1  0  0  0
 13 14  1  0  0  0
 14 15  2  0  0  0
 15  1  1  0  0  0
 15 16  1  0  0  0
  1  2  1  0  0  0
  1  6  2  0  0  0
  2  3  2  0  0  0
  3  4  1  0  0  0
  4 19  1  0  0  0
  4  5  2  0  0  0
 19 20  1  0  0  0
 19 23  1  0  0  0
 20 21  2  0  0  0
 20 22  1  0  0  0
 22 25  1  0  0  0
 22 24  1  0  0  0
 25 26  1  0  0  0
 25 31  2  0  0  0
 26 27  2  0  0  0
 27 28  1  0  0  0
 28 29  2  0  0  0
 29 30  1  0  0  0
 29 31  1  0  0  0
  5  6  1  0  0  0
M  END
> <minimizedAffinity>
-8.54835

$$$$
