CHEMBL199759


 27 29  0  0  0  0  0  0  0  0999 V2000
  -12.2411    2.4542  -15.7259 C   0  0  0  0  0  0  0  0  0  0  0  0
  -13.5064    3.1848  -15.9530 C   0  0  0  0  0  0  0  0  0  0  0  0
  -13.4641    4.4854  -16.3419 N   0  0  0  0  0  0  0  0  0  0  0  0
  -14.7644    4.8682  -16.3956 N   0  0  0  0  0  0  0  0  0  0  0  0
  -15.5899    3.8625  -16.0339 C   0  0  0  0  0  0  0  0  0  0  0  0
  -17.2106    3.6619  -15.8090 S   0  0  0  0  0  0  0  0  0  0  0  0
  -16.9218    1.9986  -15.3143 C   0  0  0  0  0  0  0  0  0  0  0  0
  -15.5564    1.6619  -15.3539 C   0  0  0  0  0  0  0  0  0  0  0  0
  -14.8370    2.7920  -15.7809 C   0  0  0  0  0  0  0  0  0  0  0  0
  -14.9860    5.8189  -16.6555 H   0  0  0  0  0  0  0  0  0  0  0  0
  -18.0487    1.1399  -14.9878 C   0  0  0  0  0  0  0  0  0  0  0  0
  -19.1831    1.7586  -14.5350 N   0  0  0  0  0  0  0  0  0  0  0  0
  -18.0357   -0.0821  -15.1211 O   0  0  0  0  0  0  0  0  0  0  0  0
  -19.2471    2.7700  -14.4897 H   0  0  0  0  0  0  0  0  0  0  0  0
  -20.0157    1.2100  -14.3815 H   0  0  0  0  0  0  0  0  0  0  0  0
  -15.0644    0.4017  -14.9934 N   0  0  0  0  0  0  0  0  0  0  0  0
  -14.5951    0.1565  -13.7096 C   0  0  0  0  0  0  0  0  0  0  0  0
  -14.4477    1.0275  -12.8499 O   0  0  0  0  0  0  0  0  0  0  0  0
  -14.6090   -0.1229  -15.7382 H   0  0  0  0  0  0  0  0  0  0  0  0
  -14.2338   -1.3007  -13.4267 C   0  0  0  0  0  0  0  0  0  0  0  0
  -14.9530   -1.6985  -12.2634 O   0  0  0  0  0  0  0  0  0  0  0  0
  -15.6138   -2.8952  -12.2967 C   0  0  0  0  0  0  0  0  0  0  0  0
  -15.9885   -3.6679  -11.1971 C   0  0  0  0  0  0  0  0  0  0  0  0
  -16.6310   -4.8986  -11.3897 C   0  0  0  0  0  0  0  0  0  0  0  0
  -16.9071   -5.3574  -12.6772 C   0  0  0  0  0  0  0  0  0  0  0  0
  -16.5541   -4.5805  -13.7766 C   0  0  0  0  0  0  0  0  0  0  0  0
  -15.9132   -3.3546  -13.5836 C   0  0  0  0  0  0  0  0  0  0  0  0
  1  2  1  0  0  0
  2  3  2  0  0  0
  2  9  1  0  0  0
  3  4  1  0  0  0
  4  5  1  0  0  0
  4 10  1  0  0  0
  5  6  1  0  0  0
  5  9  2  0  0  0
  6  7  1  0  0  0
  7 11  1  0  0  0
  7  8  2  0  0  0
 11 12  1  0  0  0
 11 13  2  0  0  0
 12 14  1  0  0  0
 12 15  1  0  0  0
  8 16  1  0  0  0
  8  9  1  0  0  0
 16 17  1  0  0  0
 16 19  1  0  0  0
 17 18  2  0  0  0
 17 20  1  0  0  0
 20 21  1  0  0  0
 21 22  1  0  0  0
 22 23  1  0  0  0
 22 27  2  0  0  0
 23 24  2  0  0  0
 24 25  1  0  0  0
 25 26  2  0  0  0
 26 27  1  0  0  0
M  END
> <minimizedAffinity>
-7.05747

$$$$
