CHEMBL197353


 35 38  0  0  0  0  0  0  0  0999 V2000
  -30.2801   -6.3184   -5.1645 C   0  0  0  0  0  0  0  0  0  0  0  0
  -29.2750   -7.2252   -4.8288 C   0  0  0  0  0  0  0  0  0  0  0  0
  -29.0582   -8.3671   -5.6067 C   0  0  0  0  0  0  0  0  0  0  0  0
  -29.8927   -8.6953   -6.6821 C   0  0  0  0  0  0  0  0  0  0  0  0
  -30.9783   -7.8383   -6.9235 C   0  0  0  0  0  0  0  0  0  0  0  0
  -31.1532   -6.6431   -6.1983 C   0  0  0  0  0  0  0  0  0  0  0  0
  -29.6087   -9.8623   -7.5583 C   0  0  0  0  0  0  0  0  0  0  0  0
  -30.2163  -11.1126   -7.3451 C   0  0  0  0  0  0  0  0  0  0  0  0
  -29.6373  -12.2921   -8.4425 S   0  0  0  0  0  0  0  0  0  0  0  0
  -28.6365  -11.1883   -9.2432 C   0  0  0  0  0  0  0  0  0  0  0  0
  -27.9104  -11.6233  -10.2860 N   0  0  0  0  0  0  0  0  0  0  0  0
  -27.1523  -10.6645  -10.8114 C   0  0  0  0  0  0  0  0  0  0  0  0
  -27.0554   -9.3997  -10.3912 N   0  0  0  0  0  0  0  0  0  0  0  0
  -27.7860   -9.0040   -9.3316 C   0  0  0  0  0  0  0  0  0  0  0  0
  -27.5703   -7.6844   -8.9605 N   0  0  0  0  0  0  0  0  0  0  0  0
  -28.6629   -9.9175   -8.6931 C   0  0  0  0  0  0  0  0  0  0  0  0
  -26.7593   -7.3243   -9.4534 H   0  0  0  0  0  0  0  0  0  0  0  0
  -27.5535   -7.5410   -7.9563 H   0  0  0  0  0  0  0  0  0  0  0  0
  -31.2073  -11.5490   -6.2832 C   0  0  0  0  0  0  0  0  0  0  0  0
  -32.6734  -11.6733   -6.6957 C   0  0  0  0  0  0  0  0  0  0  0  0
  -33.4979  -11.0152   -5.7329 O   0  0  0  0  0  0  0  0  0  0  0  0
  -33.4576  -11.5306   -4.9097 H   0  0  0  0  0  0  0  0  0  0  0  0
  -29.8645   -2.8048   -4.3349 N   0  0  0  0  0  0  0  0  0  0  0  0
  -29.6972   -3.9744   -5.0577 C   0  0  0  0  0  0  0  0  0  0  0  0
  -29.0467   -4.0622   -6.1030 O   0  0  0  0  0  0  0  0  0  0  0  0
  -30.3694   -5.0567   -4.5147 N   0  0  0  0  0  0  0  0  0  0  0  0
  -30.2755   -2.8902   -3.4174 H   0  0  0  0  0  0  0  0  0  0  0  0
  -31.2618   -4.8329   -4.0942 H   0  0  0  0  0  0  0  0  0  0  0  0
  -30.7337    1.6639   -6.3417 C   0  0  0  0  0  0  0  0  0  0  0  0
  -29.8012    0.6765   -5.7013 C   0  0  0  0  0  0  0  0  0  0  0  0
  -28.4670    1.0333   -5.4879 C   0  0  0  0  0  0  0  0  0  0  0  0
  -27.5923    0.1282   -4.9011 C   0  0  0  0  0  0  0  0  0  0  0  0
  -28.0425   -1.1330   -4.5223 C   0  0  0  0  0  0  0  0  0  0  0  0
  -29.3730   -1.5218   -4.7126 C   0  0  0  0  0  0  0  0  0  0  0  0
  -30.2493   -0.6032   -5.3086 C   0  0  0  0  0  0  0  0  0  0  0  0
 29 30  1  0  0  0
 30 31  1  0  0  0
 30 35  2  0  0  0
 31 32  2  0  0  0
 32 33  1  0  0  0
 33 34  2  0  0  0
 34 23  1  0  0  0
 34 35  1  0  0  0
 23 24  1  0  0  0
 23 27  1  0  0  0
 24 25  2  0  0  0
 24 26  1  0  0  0
 26  1  1  0  0  0
 26 28  1  0  0  0
  1  2  1  0  0  0
  1  6  2  0  0  0
  2  3  2  0  0  0
  3  4  1  0  0  0
  4  7  1  0  0  0
  4  5  2  0  0  0
  7  8  2  0  0  0
  7 16  1  0  0  0
  8 19  1  0  0  0
  8  9  1  0  0  0
 19 20  1  0  0  0
 20 21  1  0  0  0
 21 22  1  0  0  0
  9 10  1  0  0  0
 10 11  1  0  0  0
 10 16  2  0  0  0
 11 12  2  0  0  0
 12 13  1  0  0  0
 13 14  2  0  0  0
 14 15  1  0  0  0
 14 16  1  0  0  0
 15 17  1  0  0  0
 15 18  1  0  0  0
  5  6  1  0  0  0
M  END
> <minimizedAffinity>
-9.30610

$$$$
