CHEMBL2000568


 19 21  0  0  0  0  0  0  0  0999 V2000
  -29.2306   -3.1793   -6.3203 C   0  0  0  0  0  0  0  0  0  0  0  0
  -28.1479   -2.8602   -7.1541 C   0  0  0  0  0  0  0  0  0  0  0  0
  -27.5837   -1.6376   -7.3390 N   0  0  0  0  0  0  0  0  0  0  0  0
  -28.1865   -0.6789   -6.6175 C   0  0  0  0  0  0  0  0  0  0  0  0
  -27.8202    0.6381   -6.6202 N   0  0  0  0  0  0  0  0  0  0  0  0
  -28.6438    1.3504   -5.7852 C   0  0  0  0  0  0  0  0  0  0  0  0
  -29.5472    0.4678   -5.2285 C   0  0  0  0  0  0  0  0  0  0  0  0
  -29.2638   -0.8218   -5.7539 C   0  0  0  0  0  0  0  0  0  0  0  0
  -29.7953   -2.1122   -5.5970 C   0  0  0  0  0  0  0  0  0  0  0  0
  -27.0545    1.0019   -7.1675 H   0  0  0  0  0  0  0  0  0  0  0  0
  -29.8629   -6.8799   -6.9792 C   0  0  0  0  0  0  0  0  0  0  0  0
  -30.6170   -7.2364   -5.8589 C   0  0  0  0  0  0  0  0  0  0  0  0
  -30.9450   -6.2702   -4.9099 C   0  0  0  0  0  0  0  0  0  0  0  0
  -30.5144   -4.9507   -5.0727 C   0  0  0  0  0  0  0  0  0  0  0  0
  -29.7406   -4.5608   -6.1808 C   0  0  0  0  0  0  0  0  0  0  0  0
  -29.4410   -5.5496   -7.1352 C   0  0  0  0  0  0  0  0  0  0  0  0
  -30.3563   -9.0528   -8.2833 C   0  0  0  0  0  0  0  0  0  0  0  0
  -29.4610   -7.8711   -8.0218 C   0  0  0  0  0  0  0  0  0  0  0  0
  -28.4171   -7.7136   -8.6485 O   0  0  0  0  0  0  0  0  0  0  0  0
 17 18  1  0  0  0
 18 19  2  0  0  0
 18 11  1  0  0  0
 11 12  1  0  0  0
 11 16  2  0  0  0
 12 13  2  0  0  0
 13 14  1  0  0  0
 14 15  2  0  0  0
 15  1  1  0  0  0
 15 16  1  0  0  0
  1  2  1  0  0  0
  1  9  2  0  0  0
  2  3  2  0  0  0
  3  4  1  0  0  0
  4  5  1  0  0  0
  4  8  2  0  0  0
  5  6  1  0  0  0
  5 10  1  0  0  0
  6  7  2  0  0  0
  7  8  1  0  0  0
  8  9  1  0  0  0
M  END
> <minimizedAffinity>
-7.53725

$$$$
