CHEMBL3827268


 38 43  0  0  0  0  0  0  0  0999 V2000
  -29.8632   -5.1837   -6.5114 C   0  0  0  0  0  0  0  0  0  0  0  0
  -30.1501   -4.7589   -5.2109 C   0  0  0  0  0  0  0  0  0  0  0  0
  -29.8964   -3.4437   -4.7880 C   0  0  0  0  0  0  0  0  0  0  0  0
  -29.3049   -2.5846   -5.7175 C   0  0  0  0  0  0  0  0  0  0  0  0
  -28.9106   -1.2747   -5.6404 N   0  0  0  0  0  0  0  0  0  0  0  0
  -28.2947   -0.8124   -6.7476 N   0  0  0  0  0  0  0  0  0  0  0  0
  -28.3408   -1.8606   -7.5842 C   0  0  0  0  0  0  0  0  0  0  0  0
  -28.9738   -2.9867   -7.0041 C   0  0  0  0  0  0  0  0  0  0  0  0
  -29.2601   -4.3039   -7.4122 C   0  0  0  0  0  0  0  0  0  0  0  0
  -29.0115   -0.6481   -4.8500 H   0  0  0  0  0  0  0  0  0  0  0  0
  -27.7374   -1.8206   -8.9444 C   0  0  0  0  0  0  0  0  0  0  0  0
  -26.4568   -1.6870   -9.2184 N   0  0  0  0  0  0  0  0  0  0  0  0
  -26.3789   -1.6888  -10.5846 C   0  0  0  0  0  0  0  0  0  0  0  0
  -25.2519   -1.6218  -11.4138 C   0  0  0  0  0  0  0  0  0  0  0  0
  -25.4008   -1.6932  -12.8162 C   0  0  0  0  0  0  0  0  0  0  0  0
  -26.7002   -1.7047  -13.3484 C   0  0  0  0  0  0  0  0  0  0  0  0
  -27.8448   -1.7595  -12.5364 C   0  0  0  0  0  0  0  0  0  0  0  0
  -27.6372   -1.7879  -11.1632 C   0  0  0  0  0  0  0  0  0  0  0  0
  -28.4852   -1.9003  -10.0945 N   0  0  0  0  0  0  0  0  0  0  0  0
  -29.4868   -2.0050  -10.1103 H   0  0  0  0  0  0  0  0  0  0  0  0
  -24.1317   -1.7690  -13.6664 C   0  0  0  0  0  0  0  0  0  0  0  0
  -22.7967   -1.4411  -12.9727 C   0  0  0  0  0  0  0  0  0  0  0  0
  -22.5710    0.0609  -12.7586 C   0  0  0  0  0  0  0  0  0  0  0  0
  -22.7329    0.8346  -13.9955 N   0  0  0  0  0  0  0  0  0  0  0  0
  -22.5574    2.2631  -13.7219 C   0  0  0  0  0  0  0  0  0  0  0  0
  -24.0452    0.5983  -14.6096 C   0  0  0  0  0  0  0  0  0  0  0  0
  -24.2448   -0.8839  -14.9268 C   0  0  0  0  0  0  0  0  0  0  0  0
  -30.1686   -6.4907   -6.7934 O   0  0  0  0  0  0  0  0  0  0  0  0
  -28.6231   -7.6461   -8.3036 C   0  0  0  0  0  0  0  0  0  0  0  0
  -29.0849   -7.4337   -6.8573 C   0  0  0  0  0  0  0  0  0  0  0  0
  -29.4766   -8.7866   -6.2660 C   0  0  0  0  0  0  0  0  0  0  0  0
  -28.7184   -9.3311   -5.2049 C   0  0  0  0  0  0  0  0  0  0  0  0
  -27.3748   -8.5174   -4.4796 Cl  0  0  0  0  0  0  0  0  0  0  0  0
  -29.0180  -10.6046   -4.7243 C   0  0  0  0  0  0  0  0  0  0  0  0
  -30.0116  -11.3789   -5.2052 N   0  0  0  0  0  0  0  0  0  0  0  0
  -30.7308  -10.8516   -6.2233 C   0  0  0  0  0  0  0  0  0  0  0  0
  -30.5044   -9.5945   -6.7851 C   0  0  0  0  0  0  0  0  0  0  0  0
  -31.4905   -9.1657   -8.1356 Cl  0  0  0  0  0  0  0  0  0  0  0  0
 29 30  1  0  0  0
 30 28  1  0  0  0
 30 31  1  0  0  0
 28  1  1  0  0  0
  1  2  1  0  0  0
  1  9  2  0  0  0
  2  3  2  0  0  0
  3  4  1  0  0  0
  4  5  1  0  0  0
  4  8  2  0  0  0
  5  6  1  0  0  0
  5 10  1  0  0  0
  6  7  2  0  0  0
  7 11  1  0  0  0
  7  8  1  0  0  0
 11 12  2  0  0  0
 11 19  1  0  0  0
 12 13  1  0  0  0
 13 14  1  0  0  0
 13 18  2  0  0  0
 14 15  2  0  0  0
 15 21  1  0  0  0
 15 16  1  0  0  0
 21 22  1  0  0  0
 21 27  1  0  0  0
 22 23  1  0  0  0
 23 24  1  0  0  0
 24 25  1  0  0  0
 24 26  1  0  0  0
 26 27  1  0  0  0
 16 17  2  0  0  0
 17 18  1  0  0  0
 18 19  1  0  0  0
 19 20  1  0  0  0
  8  9  1  0  0  0
 31 32  1  0  0  0
 31 37  2  0  0  0
 32 33  1  0  0  0
 32 34  2  0  0  0
 34 35  1  0  0  0
 35 36  2  0  0  0
 36 37  1  0  0  0
 37 38  1  0  0  0
M  END
> <minimizedAffinity>
-9.81759

$$$$
