CHEMBL211515


 38 43  0  0  0  0  0  0  0  0999 V2000
  -13.8155   -4.4063  -11.9439 C   0  0  0  0  0  0  0  0  0  0  0  0
  -12.5005   -4.6586  -11.9227 N   0  0  0  0  0  0  0  0  0  0  0  0
  -12.4112   -6.0350  -11.9801 N   0  0  0  0  0  0  0  0  0  0  0  0
  -13.6356   -6.6847  -11.9575 C   0  0  0  0  0  0  0  0  0  0  0  0
  -14.5133   -5.6231  -11.7144 C   0  0  0  0  0  0  0  0  0  0  0  0
  -15.8685   -5.9994  -12.1533 C   0  0  0  0  0  0  0  0  0  0  0  0
  -15.2948   -6.6204  -13.4365 C   0  0  0  0  0  0  0  0  0  0  0  0
  -14.8275   -5.9718  -14.6130 C   0  0  0  0  0  0  0  0  0  0  0  0
  -14.0342   -6.6891  -15.5208 C   0  0  0  0  0  0  0  0  0  0  0  0
  -13.9250   -8.0483  -15.2686 C   0  0  0  0  0  0  0  0  0  0  0  0
  -13.9585   -8.4622  -13.9358 C   0  0  0  0  0  0  0  0  0  0  0  0
  -14.3669   -7.5635  -12.9773 C   0  0  0  0  0  0  0  0  0  0  0  0
  -11.4946   -6.4547  -11.9536 H   0  0  0  0  0  0  0  0  0  0  0  0
  -15.1322   -0.8549  -13.1952 C   0  0  0  0  0  0  0  0  0  0  0  0
  -15.8204   -1.1878  -12.0598 C   0  0  0  0  0  0  0  0  0  0  0  0
  -15.6007   -2.5403  -11.7427 C   0  0  0  0  0  0  0  0  0  0  0  0
  -14.5216   -3.1178  -12.4067 C   0  0  0  0  0  0  0  0  0  0  0  0
  -14.2167   -2.1897  -13.8144 S   0  0  0  0  0  0  0  0  0  0  0  0
  -15.1330    0.4912  -13.8293 C   0  0  0  0  0  0  0  0  0  0  0  0
  -17.0925    1.2500  -15.1006 C   0  0  0  0  0  0  0  0  0  0  0  0
  -16.5125    1.1477  -16.1655 O   0  0  0  0  0  0  0  0  0  0  0  0
  -16.4966    0.9287  -13.8898 N   0  0  0  0  0  0  0  0  0  0  0  0
  -16.9536    1.1832  -13.0246 H   0  0  0  0  0  0  0  0  0  0  0  0
  -21.9506    0.4670  -14.2906 C   0  0  0  0  0  0  0  0  0  0  0  0
  -20.8464    1.4182  -14.6368 C   0  0  0  0  0  0  0  0  0  0  0  0
  -21.0827    2.7690  -14.8764 C   0  0  0  0  0  0  0  0  0  0  0  0
  -20.0304    3.6337  -15.1821 C   0  0  0  0  0  0  0  0  0  0  0  0
  -18.7138    3.1587  -15.2874 C   0  0  0  0  0  0  0  0  0  0  0  0
  -18.4652    1.8043  -15.0531 C   0  0  0  0  0  0  0  0  0  0  0  0
  -19.5219    0.9294  -14.7134 C   0  0  0  0  0  0  0  0  0  0  0  0
  -13.0813   -6.0456  -16.5193 C   0  0  0  0  0  0  0  0  0  0  0  0
  -13.7394   -5.2089  -17.5345 N   0  0  0  0  0  0  0  0  0  0  0  0
  -12.8848   -4.0740  -17.9073 C   0  0  0  0  0  0  0  0  0  0  0  0
  -13.5457   -3.1858  -18.9820 C   0  0  0  0  0  0  0  0  0  0  0  0
  -13.9298   -3.8940  -20.2179 N   0  0  0  0  0  0  0  0  0  0  0  0
  -12.7616   -4.2215  -21.0308 C   0  0  0  0  0  0  0  0  0  0  0  0
  -14.7087   -5.0983  -19.8611 C   0  0  0  0  0  0  0  0  0  0  0  0
  -14.0879   -5.9860  -18.7462 C   0  0  0  0  0  0  0  0  0  0  0  0
 24 25  1  0  0  0
 25 26  1  0  0  0
 25 30  2  0  0  0
 26 27  2  0  0  0
 27 28  1  0  0  0
 28 29  2  0  0  0
 29 20  1  0  0  0
 29 30  1  0  0  0
 20 21  2  0  0  0
 20 22  1  0  0  0
 22 19  1  0  0  0
 22 23  1  0  0  0
 19 14  1  0  0  0
 14 15  2  0  0  0
 14 18  1  0  0  0
 15 16  1  0  0  0
 16 17  2  0  0  0
 17  1  1  0  0  0
 17 18  1  0  0  0
  1  2  2  0  0  0
  1  5  1  0  0  0
  2  3  1  0  0  0
  3  4  1  0  0  0
  3 13  1  0  0  0
  4  5  2  0  0  0
  4 12  1  0  0  0
  5  6  1  0  0  0
  6  7  1  0  0  0
  7  8  1  0  0  0
  7 12  2  0  0  0
  8  9  2  0  0  0
  9 31  1  0  0  0
  9 10  1  0  0  0
 31 32  1  0  0  0
 32 33  1  0  0  0
 32 38  1  0  0  0
 33 34  1  0  0  0
 34 35  1  0  0  0
 35 36  1  0  0  0
 35 37  1  0  0  0
 37 38  1  0  0  0
 10 11  2  0  0  0
 11 12  1  0  0  0
M  END
> <minimizedAffinity>
-10.07830

$$$$
