CHEMBL69129


 32 36  0  0  0  0  0  0  0  0999 V2000
  -33.0313   -8.2928   -7.2715 N   0  0  0  0  0  0  0  0  0  0  0  0
  -32.1262   -9.3285   -7.4772 C   0  0  0  0  0  0  0  0  0  0  0  0
  -32.6688  -10.5114   -7.8040 N   0  0  0  0  0  0  0  0  0  0  0  0
  -31.8481  -11.5492   -8.0393 C   0  0  0  0  0  0  0  0  0  0  0  0
  -30.5079  -11.5693   -7.9931 N   0  0  0  0  0  0  0  0  0  0  0  0
  -29.9986  -10.3754   -7.6506 C   0  0  0  0  0  0  0  0  0  0  0  0
  -30.7228   -9.2149   -7.3724 C   0  0  0  0  0  0  0  0  0  0  0  0
  -29.7556   -8.2049   -7.0366 C   0  0  0  0  0  0  0  0  0  0  0  0
  -28.5039   -8.7870   -7.1391 C   0  0  0  0  0  0  0  0  0  0  0  0
  -28.6646  -10.0939   -7.5193 N   0  0  0  0  0  0  0  0  0  0  0  0
  -33.9593   -8.5489   -7.5997 H   0  0  0  0  0  0  0  0  0  0  0  0
  -32.7021   -7.3806   -7.5620 H   0  0  0  0  0  0  0  0  0  0  0  0
  -27.5552  -11.0050   -7.7444 C   0  0  0  0  0  0  0  0  0  0  0  0
  -27.1976  -11.8732   -6.5264 C   0  0  0  0  0  0  0  0  0  0  0  0
  -25.7306  -11.5732   -6.2307 C   0  0  0  0  0  0  0  0  0  0  0  0
  -25.1534  -11.1532   -7.5745 C   0  0  0  0  0  0  0  0  0  0  0  0
  -24.8608  -12.2851   -8.3861 O   0  0  0  0  0  0  0  0  0  0  0  0
  -26.2597  -10.3178   -8.2012 C   0  0  0  0  0  0  0  0  0  0  0  0
  -25.6269  -12.8843   -8.4027 H   0  0  0  0  0  0  0  0  0  0  0  0
  -29.9166   -6.8179   -6.6155 C   0  0  0  0  0  0  0  0  0  0  0  0
  -29.8018   -5.7951   -7.5558 C   0  0  0  0  0  0  0  0  0  0  0  0
  -29.8659   -4.4608   -7.1667 C   0  0  0  0  0  0  0  0  0  0  0  0
  -30.2638   -4.1394   -5.8716 C   0  0  0  0  0  0  0  0  0  0  0  0
  -30.4031   -5.1429   -4.9221 C   0  0  0  0  0  0  0  0  0  0  0  0
  -30.2040   -6.4801   -5.2856 C   0  0  0  0  0  0  0  0  0  0  0  0
  -30.5643   -2.8535   -5.4666 O   0  0  0  0  0  0  0  0  0  0  0  0
  -29.5385   -1.9403   -5.3750 C   0  0  0  0  0  0  0  0  0  0  0  0
  -28.1876   -2.2876   -5.2415 C   0  0  0  0  0  0  0  0  0  0  0  0
  -27.2265   -1.3057   -5.0187 C   0  0  0  0  0  0  0  0  0  0  0  0
  -27.6036    0.0365   -5.0136 C   0  0  0  0  0  0  0  0  0  0  0  0
  -28.9313    0.3901   -5.2487 C   0  0  0  0  0  0  0  0  0  0  0  0
  -29.8987   -0.5983   -5.4209 C   0  0  0  0  0  0  0  0  0  0  0  0
  1  2  1  0  0  0
  1 11  1  0  0  0
  1 12  1  0  0  0
  2  3  1  0  0  0
  2  7  2  0  0  0
  3  4  2  0  0  0
  4  5  1  0  0  0
  5  6  2  0  0  0
  6  7  1  0  0  0
  6 10  1  0  0  0
  7  8  1  0  0  0
  8 20  1  0  0  0
  8  9  2  0  0  0
 20 21  1  0  0  0
 20 25  2  0  0  0
 21 22  2  0  0  0
 22 23  1  0  0  0
 23 26  1  0  0  0
 23 24  2  0  0  0
 26 27  1  0  0  0
 27 28  1  0  0  0
 27 32  2  0  0  0
 28 29  2  0  0  0
 29 30  1  0  0  0
 30 31  2  0  0  0
 31 32  1  0  0  0
 24 25  1  0  0  0
  9 10  1  0  0  0
 10 13  1  0  0  0
 13 14  1  0  0  0
 13 18  1  0  0  0
 14 15  1  0  0  0
 15 16  1  0  0  0
 16 17  1  0  0  0
 16 18  1  0  0  0
 17 19  1  0  0  0
M  END
> <minimizedAffinity>
-8.72166

$$$$
