CHEMBL3657544


 34 38  0  0  0  0  0  0  0  0999 V2000
  -15.8202    1.3137  -14.2743 C   0  0  0  0  0  0  0  0  0  0  0  0
  -15.2489    1.9878  -15.2786 N   0  0  0  0  0  0  0  0  0  0  0  0
  -16.0649    2.6080  -16.1455 C   0  0  0  0  0  0  0  0  0  0  0  0
  -17.4394    2.5580  -16.0743 C   0  0  0  0  0  0  0  0  0  0  0  0
  -17.9388    1.8667  -14.9920 C   0  0  0  0  0  0  0  0  0  0  0  0
  -17.1406    1.2672  -14.0839 N   0  0  0  0  0  0  0  0  0  0  0  0
  -19.3423    1.7851  -14.7852 N   0  0  0  0  0  0  0  0  0  0  0  0
  -20.1021    0.6380  -14.8953 C   0  0  0  0  0  0  0  0  0  0  0  0
  -21.3290    0.9059  -14.3198 C   0  0  0  0  0  0  0  0  0  0  0  0
  -21.3276    2.3241  -14.2214 C   0  0  0  0  0  0  0  0  0  0  0  0
  -22.4659    3.2469  -13.9777 C   0  0  0  0  0  0  0  0  0  0  0  0
  -20.1100    2.8483  -14.4505 N   0  0  0  0  0  0  0  0  0  0  0  0
  -22.4119   -0.0848  -14.0096 C   0  0  0  0  0  0  0  0  0  0  0  0
  -22.6423   -0.1808  -12.5536 N   0  0  0  0  0  0  0  0  0  0  0  0
  -23.0385   -1.5328  -12.0925 C   0  0  0  0  0  0  0  0  0  0  0  0
  -24.5270   -1.1398  -12.1660 C   0  0  0  0  0  0  0  0  0  0  0  0
  -25.2931   -1.6041  -13.3030 O   0  0  0  0  0  0  0  0  0  0  0  0
  -24.0077    0.3122  -12.2308 C   0  0  0  0  0  0  0  0  0  0  0  0
  -24.7059   -2.2179  -13.7766 H   0  0  0  0  0  0  0  0  0  0  0  0
  -14.9896    0.5948  -13.4146 N   0  0  0  0  0  0  0  0  0  0  0  0
  -14.3043    1.2305  -13.0268 H   0  0  0  0  0  0  0  0  0  0  0  0
  -14.9718   -4.3918  -12.7222 C   0  0  0  0  0  0  0  0  0  0  0  0
  -14.1717   -5.3158  -13.3762 C   0  0  0  0  0  0  0  0  0  0  0  0
  -13.3501   -4.6432  -14.2417 N   0  0  0  0  0  0  0  0  0  0  0  0
  -12.4159   -5.2664  -15.1549 C   0  0  0  0  0  0  0  0  0  0  0  0
  -13.5682   -3.2879  -14.1498 C   0  0  0  0  0  0  0  0  0  0  0  0
  -12.9571   -2.2182  -14.8135 C   0  0  0  0  0  0  0  0  0  0  0  0
  -13.4302   -0.9311  -14.5475 C   0  0  0  0  0  0  0  0  0  0  0  0
  -14.4867   -0.6991  -13.6599 C   0  0  0  0  0  0  0  0  0  0  0  0
  -15.0335   -1.7826  -12.9588 C   0  0  0  0  0  0  0  0  0  0  0  0
  -14.5888   -3.1004  -13.2148 C   0  0  0  0  0  0  0  0  0  0  0  0
  -17.1714   -5.5611  -12.1459 C   0  0  0  0  0  0  0  0  0  0  0  0
  -16.0118   -4.6902  -11.7336 C   0  0  0  0  0  0  0  0  0  0  0  0
  -15.9553   -4.2559  -10.5826 O   0  0  0  0  0  0  0  0  0  0  0  0
 32 33  1  0  0  0
 33 34  2  0  0  0
 33 22  1  0  0  0
 22 23  2  0  0  0
 22 31  1  0  0  0
 23 24  1  0  0  0
 24 25  1  0  0  0
 24 26  1  0  0  0
 26 27  1  0  0  0
 26 31  2  0  0  0
 27 28  2  0  0  0
 28 29  1  0  0  0
 29 20  1  0  0  0
 29 30  2  0  0  0
 20  1  1  0  0  0
 20 21  1  0  0  0
  1  2  1  0  0  0
  1  6  2  0  0  0
  2  3  2  0  0  0
  3  4  1  0  0  0
  4  5  2  0  0  0
  5  7  1  0  0  0
  5  6  1  0  0  0
  7  8  1  0  0  0
  7 12  1  0  0  0
  8  9  2  0  0  0
  9 13  1  0  0  0
  9 10  1  0  0  0
 13 14  1  0  0  0
 14 15  1  0  0  0
 14 18  1  0  0  0
 15 16  1  0  0  0
 16 17  1  0  0  0
 16 18  1  0  0  0
 17 19  1  0  0  0
 10 11  1  0  0  0
 10 12  2  0  0  0
 30 31  1  0  0  0
M  END
> <minimizedAffinity>
-9.02592

$$$$
