CHEMBL3891572


 41 43  0  0  0  0  0  0  0  0999 V2000
  -27.9100   -1.5250   -7.1439 C   0  0  0  0  0  0  0  0  0  0  0  0
  -27.9754   -2.7806   -6.5147 C   0  0  0  0  0  0  0  0  0  0  0  0
  -28.3661   -2.8593   -5.1724 C   0  0  0  0  0  0  0  0  0  0  0  0
  -28.7026   -1.6790   -4.5307 C   0  0  0  0  0  0  0  0  0  0  0  0
  -28.6608   -0.4508   -5.1161 N   0  0  0  0  0  0  0  0  0  0  0  0
  -28.2522   -0.3834   -6.4018 C   0  0  0  0  0  0  0  0  0  0  0  0
  -28.0480    0.9080   -6.8799 N   0  0  0  0  0  0  0  0  0  0  0  0
  -28.4902    1.5737   -6.2552 H   0  0  0  0  0  0  0  0  0  0  0  0
  -28.2605    1.0425   -7.8603 H   0  0  0  0  0  0  0  0  0  0  0  0
  -27.1341   -1.4035   -9.6698 C   0  0  0  0  0  0  0  0  0  0  0  0
  -27.5028   -1.4442   -8.5302 C   0  0  0  0  0  0  0  0  0  0  0  0
  -25.1924   -0.5654  -12.7784 C   0  0  0  0  0  0  0  0  0  0  0  0
  -25.8848   -1.3342  -13.7161 C   0  0  0  0  0  0  0  0  0  0  0  0
  -26.9372   -2.1576  -13.3255 C   0  0  0  0  0  0  0  0  0  0  0  0
  -27.3331   -2.1934  -11.9884 C   0  0  0  0  0  0  0  0  0  0  0  0
  -26.6428   -1.4470  -11.0280 C   0  0  0  0  0  0  0  0  0  0  0  0
  -25.5363   -0.6761  -11.4197 C   0  0  0  0  0  0  0  0  0  0  0  0
  -22.9399    0.0335  -13.6915 C   0  0  0  0  0  0  0  0  0  0  0  0
  -22.5713   -1.1137  -13.9285 O   0  0  0  0  0  0  0  0  0  0  0  0
  -24.1904    0.3614  -13.1586 N   0  0  0  0  0  0  0  0  0  0  0  0
  -24.4574    1.3366  -13.2276 H   0  0  0  0  0  0  0  0  0  0  0  0
  -20.0114    0.2297  -15.2489 C   0  0  0  0  0  0  0  0  0  0  0  0
  -20.8708    1.2992  -14.6737 C   0  0  0  0  0  0  0  0  0  0  0  0
  -20.5746    2.6922  -14.7010 C   0  0  0  0  0  0  0  0  0  0  0  0
  -21.6174    3.3241  -14.0776 C   0  0  0  0  0  0  0  0  0  0  0  0
  -22.5448    2.4278  -13.6640 O   0  0  0  0  0  0  0  0  0  0  0  0
  -22.1012    1.1815  -14.0205 C   0  0  0  0  0  0  0  0  0  0  0  0
  -28.4016   -4.1494   -4.4196 C   0  0  0  0  0  0  0  0  0  0  0  0
  -28.5321   -4.0654   -3.2013 O   0  0  0  0  0  0  0  0  0  0  0  0
  -28.1763   -5.3828   -5.0642 N   0  0  0  0  0  0  0  0  0  0  0  0
  -29.3438   -6.3787   -5.2714 S   0  0  0  0  0  0  0  0  0  0  0  0
  -29.7816   -7.0432   -3.6721 C   0  0  0  0  0  0  0  0  0  0  0  0
  -30.5733   -6.0312   -5.9567 O   0  0  0  0  0  0  0  0  0  0  0  0
  -28.6615   -7.8037   -6.1223 C   0  0  0  0  0  0  0  0  0  0  0  0
  -28.8972   -7.7820   -7.6344 C   0  0  0  0  0  0  0  0  0  0  0  0
  -29.8745   -8.8681   -8.0962 C   0  0  0  0  0  0  0  0  0  0  0  0
  -30.7963   -9.3423   -6.9732 C   0  0  0  0  0  0  0  0  0  0  0  0
  -32.2375   -8.9691   -7.2274 C   0  0  0  0  0  0  0  0  0  0  0  0
  -32.9219   -9.3859   -8.1466 O   0  0  0  0  0  0  0  0  0  0  0  0
  -32.7171   -8.1070   -6.3027 O   0  0  0  0  0  0  0  0  0  0  0  0
  -32.0737   -7.8478   -5.6193 H   0  0  0  0  0  0  0  0  0  0  0  0
 22 23  1  0  0  0
 23 24  1  0  0  0
 23 27  2  0  0  0
 24 25  2  0  0  0
 25 26  1  0  0  0
 26 27  1  0  0  0
 27 18  1  0  0  0
 18 19  2  0  0  0
 18 20  1  0  0  0
 20 12  1  0  0  0
 20 21  1  0  0  0
 12 13  1  0  0  0
 12 17  2  0  0  0
 13 14  2  0  0  0
 14 15  1  0  0  0
 15 16  2  0  0  0
 16 10  1  0  0  0
 16 17  1  0  0  0
 10 11  3  0  0  0
 11  1  1  0  0  0
  1  2  1  0  0  0
  1  6  2  0  0  0
  2  3  2  0  0  0
  3 28  1  0  0  0
  3  4  1  0  0  0
 28 29  2  0  0  0
 28 30  1  0  0  0
 30 31  2  0  0  0
 31 32  1  0  0  0
 31 33  2  0  0  0
 31 34  1  0  0  0
 34 35  1  0  0  0
 35 36  1  0  0  0
 36 37  1  0  0  0
 37 38  1  0  0  0
 38 39  2  0  0  0
 38 40  1  0  0  0
 40 41  1  0  0  0
  4  5  2  0  0  0
  5  6  1  0  0  0
  6  7  1  0  0  0
  7  8  1  0  0  0
  7  9  1  0  0  0
M  END
> <minimizedAffinity>
-9.97266

$$$$
