CHEMBL175830


 31 34  0  0  0  0  0  0  0  0999 V2000
  -16.0695    0.6082  -15.0144 C   0  0  0  0  0  0  0  0  0  0  0  0
  -15.0180    1.3902  -15.1347 N   0  0  0  0  0  0  0  0  0  0  0  0
  -15.2679    2.5953  -15.5602 C   0  0  0  0  0  0  0  0  0  0  0  0
  -14.1789    3.3873  -15.7030 O   0  0  0  0  0  0  0  0  0  0  0  0
  -16.4500    3.1257  -15.8417 N   0  0  0  0  0  0  0  0  0  0  0  0
  -17.4530    2.2798  -15.6718 C   0  0  0  0  0  0  0  0  0  0  0  0
  -17.3045    1.0102  -15.2623 N   0  0  0  0  0  0  0  0  0  0  0  0
  -13.4955    2.7175  -15.4683 H   0  0  0  0  0  0  0  0  0  0  0  0
  -15.9169   -0.7142  -14.6197 N   0  0  0  0  0  0  0  0  0  0  0  0
  -16.7888   -1.1848  -14.8347 H   0  0  0  0  0  0  0  0  0  0  0  0
  -13.8085   -0.7926  -13.3577 C   0  0  0  0  0  0  0  0  0  0  0  0
  -15.3366   -1.0359  -13.3066 C   0  0  0  0  0  0  0  0  0  0  0  0
  -15.9122   -0.0044  -12.3021 C   0  0  0  0  0  0  0  0  0  0  0  0
  -15.7364   -2.4440  -12.8217 C   0  0  0  0  0  0  0  0  0  0  0  0
  -16.1209   -3.4686  -13.7088 C   0  0  0  0  0  0  0  0  0  0  0  0
  -16.5615   -4.7088  -13.2394 C   0  0  0  0  0  0  0  0  0  0  0  0
  -16.6108   -4.9598  -11.8722 C   0  0  0  0  0  0  0  0  0  0  0  0
  -16.2228   -3.9710  -10.9734 C   0  0  0  0  0  0  0  0  0  0  0  0
  -15.7962   -2.7240  -11.4423 C   0  0  0  0  0  0  0  0  0  0  0  0
  -18.7332    2.7815  -15.9577 N   0  0  0  0  0  0  0  0  0  0  0  0
  -18.6268    3.7792  -16.0849 H   0  0  0  0  0  0  0  0  0  0  0  0
  -19.9140    2.4363  -15.2804 C   0  0  0  0  0  0  0  0  0  0  0  0
  -20.5619    3.4249  -14.5257 C   0  0  0  0  0  0  0  0  0  0  0  0
  -21.7874    3.1844  -13.8837 C   0  0  0  0  0  0  0  0  0  0  0  0
  -22.2390    1.8671  -13.9167 C   0  0  0  0  0  0  0  0  0  0  0  0
  -23.3943    1.2501  -13.5189 N   0  0  0  0  0  0  0  0  0  0  0  0
  -23.1064   -0.0776  -13.3835 C   0  0  0  0  0  0  0  0  0  0  0  0
  -22.0609   -0.3908  -14.1136 N   0  0  0  0  0  0  0  0  0  0  0  0
  -21.5156    0.8206  -14.4733 C   0  0  0  0  0  0  0  0  0  0  0  0
  -20.3783    1.1112  -15.2354 C   0  0  0  0  0  0  0  0  0  0  0  0
  -24.3113    1.6705  -13.4608 H   0  0  0  0  0  0  0  0  0  0  0  0
 11 12  1  0  0  0
 12 13  1  0  0  0
 12  9  1  0  0  0
 12 14  1  0  0  0
  9  1  1  0  0  0
  9 10  1  0  0  0
  1  2  1  0  0  0
  1  7  2  0  0  0
  2  3  2  0  0  0
  3  4  1  0  0  0
  3  5  1  0  0  0
  4  8  1  0  0  0
  5  6  2  0  0  0
  6 20  1  0  0  0
  6  7  1  0  0  0
 20 22  1  0  0  0
 20 21  1  0  0  0
 22 23  1  0  0  0
 22 30  2  0  0  0
 23 24  2  0  0  0
 24 25  1  0  0  0
 25 26  1  0  0  0
 25 29  2  0  0  0
 26 27  1  0  0  0
 26 31  1  0  0  0
 27 28  2  0  0  0
 28 29  1  0  0  0
 29 30  1  0  0  0
 14 15  1  0  0  0
 14 19  2  0  0  0
 15 16  2  0  0  0
 16 17  1  0  0  0
 17 18  2  0  0  0
 18 19  1  0  0  0
M  END
> <minimizedAffinity>
-9.16245

$$$$
