CHEMBL3128227


 27 30  0  0  0  0  0  0  0  0999 V2000
  -26.2221   -2.1544  -11.8756 C   0  0  0  0  0  0  0  0  0  0  0  0
  -27.0394   -2.1320  -12.9553 N   0  0  0  0  0  0  0  0  0  0  0  0
  -26.5449   -1.6960  -14.1293 C   0  0  0  0  0  0  0  0  0  0  0  0
  -25.3050   -1.2551  -14.3943 N   0  0  0  0  0  0  0  0  0  0  0  0
  -24.5231   -1.2891  -13.3027 C   0  0  0  0  0  0  0  0  0  0  0  0
  -24.8963   -1.7411  -12.0503 C   0  0  0  0  0  0  0  0  0  0  0  0
  -23.7384   -1.6011  -11.2621 C   0  0  0  0  0  0  0  0  0  0  0  0
  -22.7079   -1.0841  -11.9410 N   0  0  0  0  0  0  0  0  0  0  0  0
  -23.2233   -0.8638  -13.1789 N   0  0  0  0  0  0  0  0  0  0  0  0
  -26.6876   -2.5504  -10.6216 N   0  0  0  0  0  0  0  0  0  0  0  0
  -26.7557   -3.5675  -10.6302 H   0  0  0  0  0  0  0  0  0  0  0  0
  -28.0484   -0.4791  -10.4815 C   0  0  0  0  0  0  0  0  0  0  0  0
  -27.9716   -1.9833  -10.1867 C   0  0  0  0  0  0  0  0  0  0  0  0
  -28.0824   -2.2229   -8.6846 C   0  0  0  0  0  0  0  0  0  0  0  0
  -27.7002   -1.2304   -7.7699 C   0  0  0  0  0  0  0  0  0  0  0  0
  -27.8282   -1.4466   -6.3953 C   0  0  0  0  0  0  0  0  0  0  0  0
  -28.3368   -2.6538   -5.9185 C   0  0  0  0  0  0  0  0  0  0  0  0
  -28.7137   -3.6513   -6.8134 C   0  0  0  0  0  0  0  0  0  0  0  0
  -28.5872   -3.4374   -8.1858 C   0  0  0  0  0  0  0  0  0  0  0  0
  -22.3716   -0.2578  -14.1884 C   0  0  0  0  0  0  0  0  0  0  0  0
  -22.2245    1.2619  -14.0928 C   0  0  0  0  0  0  0  0  0  0  0  0
  -20.8791    1.7400  -14.5823 C   0  0  0  0  0  0  0  0  0  0  0  0
  -19.8622    0.8144  -14.8609 C   0  0  0  0  0  0  0  0  0  0  0  0
  -18.6194    1.2473  -15.3235 C   0  0  0  0  0  0  0  0  0  0  0  0
  -18.3794    2.6075  -15.5067 C   0  0  0  0  0  0  0  0  0  0  0  0
  -19.3813    3.5353  -15.2259 C   0  0  0  0  0  0  0  0  0  0  0  0
  -20.6260    3.1047  -14.7635 C   0  0  0  0  0  0  0  0  0  0  0  0
 12 13  1  0  0  0
 13 10  1  0  0  0
 13 14  1  0  0  0
 10  1  1  0  0  0
 10 11  1  0  0  0
  1  2  1  0  0  0
  1  6  2  0  0  0
  2  3  2  0  0  0
  3  4  1  0  0  0
  4  5  2  0  0  0
  5  6  1  0  0  0
  5  9  1  0  0  0
  6  7  1  0  0  0
  7  8  2  0  0  0
  8  9  1  0  0  0
  9 20  1  0  0  0
 20 21  1  0  0  0
 21 22  1  0  0  0
 22 23  1  0  0  0
 22 27  2  0  0  0
 23 24  2  0  0  0
 24 25  1  0  0  0
 25 26  2  0  0  0
 26 27  1  0  0  0
 14 15  1  0  0  0
 14 19  2  0  0  0
 15 16  2  0  0  0
 16 17  1  0  0  0
 17 18  2  0  0  0
 18 19  1  0  0  0
M  END
> <minimizedAffinity>
-9.68671

$$$$
