CHEMBL3894754


 39 43  0  0  0  0  0  0  0  0999 V2000
  -27.5538   -2.4161   -9.0568 N   0  0  0  0  0  0  0  0  0  0  0  0
  -27.0472   -1.9385  -10.3042 C   0  0  0  0  0  0  0  0  0  0  0  0
  -27.7755   -2.2720  -11.4477 C   0  0  0  0  0  0  0  0  0  0  0  0
  -27.3458   -1.9498  -12.7218 C   0  0  0  0  0  0  0  0  0  0  0  0
  -26.1639   -1.2931  -12.9314 C   0  0  0  0  0  0  0  0  0  0  0  0
  -25.8241   -1.1818  -14.2221 N   0  0  0  0  0  0  0  0  0  0  0  0
  -24.6497   -0.5891  -14.4822 C   0  0  0  0  0  0  0  0  0  0  0  0
  -23.8570   -0.0290  -13.4971 C   0  0  0  0  0  0  0  0  0  0  0  0
  -24.2192   -0.1192  -12.1672 N   0  0  0  0  0  0  0  0  0  0  0  0
  -25.3800   -0.8189  -11.8519 C   0  0  0  0  0  0  0  0  0  0  0  0
  -25.8660   -1.1654  -10.5339 C   0  0  0  0  0  0  0  0  0  0  0  0
  -22.5907    0.5788  -13.9067 C   0  0  0  0  0  0  0  0  0  0  0  0
  -21.4058   -0.0256  -14.4223 C   0  0  0  0  0  0  0  0  0  0  0  0
  -20.4328    0.8536  -14.6735 N   0  0  0  0  0  0  0  0  0  0  0  0
  -20.9854    2.0307  -14.3310 N   0  0  0  0  0  0  0  0  0  0  0  0
  -20.2437    3.2548  -14.5188 C   0  0  0  0  0  0  0  0  0  0  0  0
  -22.2560    1.9137  -13.8378 C   0  0  0  0  0  0  0  0  0  0  0  0
  -27.8219   -1.5876   -7.9006 C   0  0  0  0  0  0  0  0  0  0  0  0
  -28.5310   -0.3702   -7.9792 C   0  0  0  0  0  0  0  0  0  0  0  0
  -28.7285    0.4388   -6.8469 C   0  0  0  0  0  0  0  0  0  0  0  0
  -28.2810    0.0139   -5.5940 C   0  0  0  0  0  0  0  0  0  0  0  0
  -27.6508   -1.2152   -5.4550 C   0  0  0  0  0  0  0  0  0  0  0  0
  -27.4126   -1.9919   -6.6030 C   0  0  0  0  0  0  0  0  0  0  0  0
  -29.3276    1.6703   -6.8138 O   0  0  0  0  0  0  0  0  0  0  0  0
  -30.6965    1.7370   -6.4451 C   0  0  0  0  0  0  0  0  0  0  0  0
  -27.2178   -1.7506   -4.2689 O   0  0  0  0  0  0  0  0  0  0  0  0
  -28.1926   -2.4161   -3.4665 C   0  0  0  0  0  0  0  0  0  0  0  0
  -27.6021   -3.8816   -8.8270 C   0  0  0  0  0  0  0  0  0  0  0  0
  -28.9987   -4.5758   -6.6258 C   0  0  0  0  0  0  0  0  0  0  0  0
  -28.3782   -4.2671   -7.6156 C   0  0  0  0  0  0  0  0  0  0  0  0
  -30.0783   -6.4795   -3.7772 C   0  0  0  0  0  0  0  0  0  0  0  0
  -31.2418   -5.8443   -3.3960 C   0  0  0  0  0  0  0  0  0  0  0  0
  -31.5451   -4.7130   -4.0759 C   0  0  0  0  0  0  0  0  0  0  0  0
  -30.8171   -4.2365   -5.1185 N   0  0  0  0  0  0  0  0  0  0  0  0
  -29.7252   -4.9575   -5.4356 C   0  0  0  0  0  0  0  0  0  0  0  0
  -29.2970   -6.0607   -4.7974 N   0  0  0  0  0  0  0  0  0  0  0  0
  -29.7647   -7.6476   -3.1059 O   0  0  0  0  0  0  0  0  0  0  0  0
  -28.9412   -9.7858   -3.8082 C   0  0  0  0  0  0  0  0  0  0  0  0
  -28.6214   -8.3071   -3.6524 C   0  0  0  0  0  0  0  0  0  0  0  0
 38 39  1  0  0  0
 39 37  1  0  0  0
 37 31  1  0  0  0
 31 32  1  0  0  0
 31 36  2  0  0  0
 32 33  2  0  0  0
 33 34  1  0  0  0
 34 35  2  0  0  0
 35 29  1  0  0  0
 35 36  1  0  0  0
 29 30  3  0  0  0
 30 28  1  0  0  0
 28  1  1  0  0  0
  1 18  1  0  0  0
  1  2  1  0  0  0
 18 19  1  0  0  0
 18 23  2  0  0  0
 19 20  2  0  0  0
 20 24  1  0  0  0
 20 21  1  0  0  0
 24 25  1  0  0  0
 21 22  2  0  0  0
 22 26  1  0  0  0
 22 23  1  0  0  0
 26 27  1  0  0  0
  2  3  1  0  0  0
  2 11  2  0  0  0
  3  4  2  0  0  0
  4  5  1  0  0  0
  5  6  1  0  0  0
  5 10  2  0  0  0
  6  7  2  0  0  0
  7  8  1  0  0  0
  8 12  1  0  0  0
  8  9  2  0  0  0
 12 13  1  0  0  0
 12 17  2  0  0  0
 13 14  2  0  0  0
 14 15  1  0  0  0
 15 16  1  0  0  0
 15 17  1  0  0  0
  9 10  1  0  0  0
 10 11  1  0  0  0
M  END
> <minimizedAffinity>
-8.36190

$$$$
