CHEMBL2322701


 27 30  0  0  0  0  0  0  0  0999 V2000
  -25.6960  -10.4842   -4.2644 C   0  0  0  0  0  0  0  0  0  0  0  0
  -26.9928   -9.7874   -4.1521 C   0  0  0  0  0  0  0  0  0  0  0  0
  -27.5784   -9.4770   -2.9539 N   0  0  0  0  0  0  0  0  0  0  0  0
  -28.7618   -8.8456   -3.0699 N   0  0  0  0  0  0  0  0  0  0  0  0
  -28.9342   -8.7349   -4.3883 C   0  0  0  0  0  0  0  0  0  0  0  0
  -27.8761   -9.3346   -5.0985 C   0  0  0  0  0  0  0  0  0  0  0  0
  -27.7829   -9.5996   -6.4586 N   0  0  0  0  0  0  0  0  0  0  0  0
  -28.2233   -8.7392   -7.3287 C   0  0  0  0  0  0  0  0  0  0  0  0
  -28.7692   -7.3589   -7.0417 C   0  0  0  0  0  0  0  0  0  0  0  0
  -28.4010   -6.2998   -7.8957 C   0  0  0  0  0  0  0  0  0  0  0  0
  -28.8979   -5.0058   -7.7050 C   0  0  0  0  0  0  0  0  0  0  0  0
  -28.6273   -3.9949   -8.6351 N   0  0  0  0  0  0  0  0  0  0  0  0
  -29.8519   -4.7942   -6.7122 C   0  0  0  0  0  0  0  0  0  0  0  0
  -30.2165   -5.8258   -5.8477 C   0  0  0  0  0  0  0  0  0  0  0  0
  -29.6632   -7.1091   -5.9811 C   0  0  0  0  0  0  0  0  0  0  0  0
  -29.9484   -8.0578   -4.9700 N   0  0  0  0  0  0  0  0  0  0  0  0
  -27.2275   -9.6679   -2.0229 H   0  0  0  0  0  0  0  0  0  0  0  0
  -27.7358   -4.0982   -9.1101 H   0  0  0  0  0  0  0  0  0  0  0  0
  -28.7516   -3.0557   -8.2660 H   0  0  0  0  0  0  0  0  0  0  0  0
  -30.6274   -7.7210   -4.2975 H   0  0  0  0  0  0  0  0  0  0  0  0
  -28.2279   -9.2292   -8.7645 C   0  0  0  0  0  0  0  0  0  0  0  0
  -27.0240   -9.1788   -9.4940 C   0  0  0  0  0  0  0  0  0  0  0  0
  -26.9912   -9.4996  -10.8549 C   0  0  0  0  0  0  0  0  0  0  0  0
  -28.1626   -9.8474  -11.5180 C   0  0  0  0  0  0  0  0  0  0  0  0
  -29.3634   -9.9026  -10.8135 C   0  0  0  0  0  0  0  0  0  0  0  0
  -29.4033   -9.6091   -9.4416 C   0  0  0  0  0  0  0  0  0  0  0  0
  -30.9471   -9.8058   -8.6808 Cl  0  0  0  0  0  0  0  0  0  0  0  0
  1  2  1  0  0  0
  2  3  1  0  0  0
  2  6  2  0  0  0
  3  4  1  0  0  0
  3 17  1  0  0  0
  4  5  2  0  0  0
  5  6  1  0  0  0
  5 16  1  0  0  0
  6  7  1  0  0  0
  7  8  2  0  0  0
  8 21  1  0  0  0
  8  9  1  0  0  0
 21 22  1  0  0  0
 21 26  2  0  0  0
 22 23  2  0  0  0
 23 24  1  0  0  0
 24 25  2  0  0  0
 25 26  1  0  0  0
 26 27  1  0  0  0
  9 10  1  0  0  0
  9 15  2  0  0  0
 10 11  2  0  0  0
 11 12  1  0  0  0
 11 13  1  0  0  0
 12 18  1  0  0  0
 12 19  1  0  0  0
 13 14  2  0  0  0
 14 15  1  0  0  0
 15 16  1  0  0  0
 16 20  1  0  0  0
M  END
> <minimizedAffinity>
-7.64189

$$$$
