CHEMBL358672


 31 34  0  0  0  0  0  0  0  0999 V2000
  -17.6963    0.9230  -15.1117 C   0  0  0  0  0  0  0  0  0  0  0  0
  -19.0302    0.5396  -14.9400 C   0  0  0  0  0  0  0  0  0  0  0  0
  -20.0504    1.5014  -14.7467 C   0  0  0  0  0  0  0  0  0  0  0  0
  -21.3812    1.2136  -14.4044 C   0  0  0  0  0  0  0  0  0  0  0  0
  -22.2992    2.1881  -14.2572 N   0  0  0  0  0  0  0  0  0  0  0  0
  -21.8977    3.4426  -14.4581 C   0  0  0  0  0  0  0  0  0  0  0  0
  -20.6583    3.8248  -14.7675 N   0  0  0  0  0  0  0  0  0  0  0  0
  -19.7520    2.8557  -14.8916 C   0  0  0  0  0  0  0  0  0  0  0  0
  -18.4467    3.2231  -15.1522 C   0  0  0  0  0  0  0  0  0  0  0  0
  -17.3949    2.2937  -15.1973 C   0  0  0  0  0  0  0  0  0  0  0  0
  -16.0985   -0.4129  -13.9333 C   0  0  0  0  0  0  0  0  0  0  0  0
  -16.6584    0.0281  -15.1718 O   0  0  0  0  0  0  0  0  0  0  0  0
  -21.7658   -0.1357  -14.1963 N   0  0  0  0  0  0  0  0  0  0  0  0
  -20.9453   -0.7234  -14.0624 H   0  0  0  0  0  0  0  0  0  0  0  0
  -22.8542   -0.6040  -13.4270 C   0  0  0  0  0  0  0  0  0  0  0  0
  -22.7606   -0.8080  -12.0464 C   0  0  0  0  0  0  0  0  0  0  0  0
  -23.8584   -1.2476  -11.3045 C   0  0  0  0  0  0  0  0  0  0  0  0
  -25.0898   -1.4443  -11.9311 C   0  0  0  0  0  0  0  0  0  0  0  0
  -25.2241   -1.1838  -13.2967 C   0  0  0  0  0  0  0  0  0  0  0  0
  -24.1154   -0.7618  -14.0234 C   0  0  0  0  0  0  0  0  0  0  0  0
  -24.2580   -0.5118  -15.3348 F   0  0  0  0  0  0  0  0  0  0  0  0
  -26.2125   -1.9080  -11.1681 C   0  0  0  0  0  0  0  0  0  0  0  0
  -27.1128   -2.2867  -10.5532 N   0  0  0  0  0  0  0  0  0  0  0  0
  -16.0711    2.6824  -15.2932 O   0  0  0  0  0  0  0  0  0  0  0  0
  -15.8452    3.8342  -16.1289 C   0  0  0  0  0  0  0  0  0  0  0  0
  -15.2137    3.4714  -17.4629 C   0  0  0  0  0  0  0  0  0  0  0  0
  -14.9340    4.6268  -18.2818 N   0  0  0  0  0  0  0  0  0  0  0  0
  -14.2733    5.7618  -17.9264 C   0  0  0  0  0  0  0  0  0  0  0  0
  -14.3955    6.5669  -19.0319 C   0  0  0  0  0  0  0  0  0  0  0  0
  -15.1066    5.9129  -19.9978 N   0  0  0  0  0  0  0  0  0  0  0  0
  -15.4371    4.7183  -19.5255 N   0  0  0  0  0  0  0  0  0  0  0  0
 11 12  1  0  0  0
 12  1  1  0  0  0
  1  2  1  0  0  0
  1 10  2  0  0  0
  2  3  2  0  0  0
  3  4  1  0  0  0
  3  8  1  0  0  0
  4 13  1  0  0  0
  4  5  2  0  0  0
 13 15  1  0  0  0
 13 14  1  0  0  0
 15 16  1  0  0  0
 15 20  2  0  0  0
 16 17  2  0  0  0
 17 18  1  0  0  0
 18 22  1  0  0  0
 18 19  2  0  0  0
 22 23  3  0  0  0
 19 20  1  0  0  0
 20 21  1  0  0  0
  5  6  1  0  0  0
  6  7  2  0  0  0
  7  8  1  0  0  0
  8  9  2  0  0  0
  9 10  1  0  0  0
 10 24  1  0  0  0
 24 25  1  0  0  0
 25 26  1  0  0  0
 26 27  1  0  0  0
 27 28  1  0  0  0
 27 31  1  0  0  0
 28 29  2  0  0  0
 29 30  1  0  0  0
 30 31  2  0  0  0
M  END
> <minimizedAffinity>
-8.44368

$$$$
