CHEMBL3639752


 35 37  0  0  0  0  0  0  0  0999 V2000
  -26.4028   12.1181  -13.5537 C   0  0  0  0  0  0  0  0  0  0  0  0
  -25.6725   11.5710  -14.6093 C   0  0  0  0  0  0  0  0  0  0  0  0
  -26.2941   10.7352  -15.5471 C   0  0  0  0  0  0  0  0  0  0  0  0
  -25.6000   10.0335  -16.5463 C   0  0  0  0  0  0  0  0  0  0  0  0
  -26.2388    9.2947  -17.4639 N   0  0  0  0  0  0  0  0  0  0  0  0
  -27.5700    9.2188  -17.3560 C   0  0  0  0  0  0  0  0  0  0  0  0
  -28.3201    9.7957  -16.4058 N   0  0  0  0  0  0  0  0  0  0  0  0
  -27.6848   10.5486  -15.5068 C   0  0  0  0  0  0  0  0  0  0  0  0
  -28.4084   11.1697  -14.4843 C   0  0  0  0  0  0  0  0  0  0  0  0
  -27.7949   11.9650  -13.5050 C   0  0  0  0  0  0  0  0  0  0  0  0
  -24.4899   12.0558  -12.0287 C   0  0  0  0  0  0  0  0  0  0  0  0
  -23.7565   12.6560  -11.2493 O   0  0  0  0  0  0  0  0  0  0  0  0
  -25.6660   12.6293  -12.4714 N   0  0  0  0  0  0  0  0  0  0  0  0
  -25.5739   13.6378  -12.4128 H   0  0  0  0  0  0  0  0  0  0  0  0
  -23.2031   10.7084  -13.6003 C   0  0  0  0  0  0  0  0  0  0  0  0
  -24.1069   10.7450  -12.6190 C   0  0  0  0  0  0  0  0  0  0  0  0
  -24.1671   10.0597  -16.5597 N   0  0  0  0  0  0  0  0  0  0  0  0
  -23.8182    9.1062  -16.4927 H   0  0  0  0  0  0  0  0  0  0  0  0
  -23.4324   10.8099  -17.5108 C   0  0  0  0  0  0  0  0  0  0  0  0
  -24.0864   11.3700  -18.6112 C   0  0  0  0  0  0  0  0  0  0  0  0
  -23.3562   11.9500  -19.6411 C   0  0  0  0  0  0  0  0  0  0  0  0
  -24.0171   12.3994  -20.7171 F   0  0  0  0  0  0  0  0  0  0  0  0
  -21.9667   12.0203  -19.5708 C   0  0  0  0  0  0  0  0  0  0  0  0
  -20.9708   12.6590  -21.0455 Br  0  0  0  0  0  0  0  0  0  0  0  0
  -21.3031   11.5687  -18.4310 C   0  0  0  0  0  0  0  0  0  0  0  0
  -22.0409   10.9708  -17.4093 C   0  0  0  0  0  0  0  0  0  0  0  0
  -21.3927   10.4903  -16.3360 F   0  0  0  0  0  0  0  0  0  0  0  0
  -28.6391   12.4830  -12.5396 O   0  0  0  0  0  0  0  0  0  0  0  0
  -29.9982   12.6442  -12.9793 C   0  0  0  0  0  0  0  0  0  0  0  0
  -31.0223   12.0303  -12.0164 C   0  0  0  0  0  0  0  0  0  0  0  0
  -31.7795   10.9565  -12.6608 N   0  0  0  0  0  0  0  0  0  0  0  0
  -32.9758   10.5031  -12.1598 C   0  0  0  0  0  0  0  0  0  0  0  0
  -33.5542    9.3108  -12.8856 C   0  0  0  0  0  0  0  0  0  0  0  0
  -33.5453   11.0159  -11.2019 O   0  0  0  0  0  0  0  0  0  0  0  0
  -31.3468   10.4608  -13.4296 H   0  0  0  0  0  0  0  0  0  0  0  0
 15 16  2  0  0  0
 16 11  1  0  0  0
 11 12  2  0  0  0
 11 13  1  0  0  0
 13  1  1  0  0  0
 13 14  1  0  0  0
  1  2  1  0  0  0
  1 10  2  0  0  0
  2  3  2  0  0  0
  3  4  1  0  0  0
  3  8  1  0  0  0
  4 17  1  0  0  0
  4  5  2  0  0  0
 17 19  1  0  0  0
 17 18  1  0  0  0
 19 20  1  0  0  0
 19 26  2  0  0  0
 20 21  2  0  0  0
 21 22  1  0  0  0
 21 23  1  0  0  0
 23 24  1  0  0  0
 23 25  2  0  0  0
 25 26  1  0  0  0
 26 27  1  0  0  0
  5  6  1  0  0  0
  6  7  2  0  0  0
  7  8  1  0  0  0
  8  9  2  0  0  0
  9 10  1  0  0  0
 10 28  1  0  0  0
 28 29  1  0  0  0
 29 30  1  0  0  0
 30 31  1  0  0  0
 31 32  1  0  0  0
 31 35  1  0  0  0
 32 33  1  0  0  0
 32 34  2  0  0  0
M  END
> <minimizedAffinity>
-5.09323

$$$$
