CHEMBL3648127


 27 28  0  0  0  0  0  0  0  0999 V2000
  -25.2835   -1.7337  -11.5408 C   0  0  0  0  0  0  0  0  0  0  0  0
  -25.6886   -1.6093  -10.2598 N   0  0  0  0  0  0  0  0  0  0  0  0
  -26.9903   -1.4167  -10.0039 C   0  0  0  0  0  0  0  0  0  0  0  0
  -27.9164   -1.3229  -10.9667 N   0  0  0  0  0  0  0  0  0  0  0  0
  -27.4796   -1.4150  -12.2423 C   0  0  0  0  0  0  0  0  0  0  0  0
  -26.1684   -1.6360  -12.5971 C   0  0  0  0  0  0  0  0  0  0  0  0
  -25.7205   -1.8091  -14.4200 Br  0  0  0  0  0  0  0  0  0  0  0  0
  -27.4557   -1.3405   -8.6924 N   0  0  0  0  0  0  0  0  0  0  0  0
  -27.3277   -0.4088   -8.3268 H   0  0  0  0  0  0  0  0  0  0  0  0
  -27.8408   -2.3417   -7.7917 C   0  0  0  0  0  0  0  0  0  0  0  0
  -28.3250   -3.5882   -8.2100 C   0  0  0  0  0  0  0  0  0  0  0  0
  -28.7799   -4.5397   -7.2981 C   0  0  0  0  0  0  0  0  0  0  0  0
  -28.7615   -4.2528   -5.9397 C   0  0  0  0  0  0  0  0  0  0  0  0
  -28.2848   -3.0187   -5.4856 C   0  0  0  0  0  0  0  0  0  0  0  0
  -27.8339   -2.0711   -6.4144 C   0  0  0  0  0  0  0  0  0  0  0  0
  -29.4169   -5.4514   -4.7947 S   0  0  0  0  0  0  0  0  0  0  0  0
  -28.9487   -7.0071   -5.5069 C   0  0  0  0  0  0  0  0  0  0  0  0
  -28.6282   -5.2471   -3.4862 N   0  0  0  0  0  0  0  0  0  0  0  0
  -30.8630   -5.3969   -4.8959 O   0  0  0  0  0  0  0  0  0  0  0  0
  -27.6917   -5.6458   -3.5032 H   0  0  0  0  0  0  0  0  0  0  0  0
  -23.5286   -2.0194  -11.7790 S   0  0  0  0  0  0  0  0  0  0  0  0
  -22.9423   -0.3485  -12.3427 C   0  0  0  0  0  0  0  0  0  0  0  0
  -24.0904    0.6610  -12.1410 C   0  0  0  0  0  0  0  0  0  0  0  0
  -23.9031    1.8510  -12.9037 O   0  0  0  0  0  0  0  0  0  0  0  0
  -23.0703    2.2514  -12.5953 H   0  0  0  0  0  0  0  0  0  0  0  0
  -21.4302    0.5912  -14.1879 C   0  0  0  0  0  0  0  0  0  0  0  0
  -22.5066   -0.4200  -13.8168 C   0  0  0  0  0  0  0  0  0  0  0  0
 26 27  1  0  0  0
 27 22  1  0  0  0
 22 23  1  0  0  0
 22 21  1  0  0  0
 23 24  1  0  0  0
 24 25  1  0  0  0
 21  1  1  0  0  0
  1  2  1  0  0  0
  1  6  2  0  0  0
  2  3  2  0  0  0
  3  8  1  0  0  0
  3  4  1  0  0  0
  8 10  1  0  0  0
  8  9  1  0  0  0
 10 11  1  0  0  0
 10 15  2  0  0  0
 11 12  2  0  0  0
 12 13  1  0  0  0
 13 16  1  0  0  0
 13 14  2  0  0  0
 16 17  1  0  0  0
 16 18  2  0  0  0
 16 19  2  0  0  0
 18 20  1  0  0  0
 14 15  1  0  0  0
  4  5  2  0  0  0
  5  6  1  0  0  0
  6  7  1  0  0  0
M  END
> <minimizedAffinity>
-7.66534

$$$$
