CHEMBL410186


 30 33  0  0  0  0  0  0  0  0999 V2000
  -29.6133   -7.1289   -7.7337 C   0  0  0  0  0  0  0  0  0  0  0  0
  -28.8426   -8.2686   -7.8078 C   0  0  0  0  0  0  0  0  0  0  0  0
  -29.7074   -9.3918   -7.8512 C   0  0  0  0  0  0  0  0  0  0  0  0
  -30.9855   -8.8882   -7.6950 C   0  0  0  0  0  0  0  0  0  0  0  0
  -30.9264   -7.5179   -7.6607 N   0  0  0  0  0  0  0  0  0  0  0  0
  -32.2280   -9.6841   -7.5154 C   0  0  0  0  0  0  0  0  0  0  0  0
  -31.8533  -11.1047   -7.0616 C   0  0  0  0  0  0  0  0  0  0  0  0
  -30.7240  -11.6967   -7.9246 C   0  0  0  0  0  0  0  0  0  0  0  0
  -29.4005  -10.8701   -7.8718 C   0  0  0  0  0  0  0  0  0  0  0  0
  -31.7145   -6.9027   -7.5149 H   0  0  0  0  0  0  0  0  0  0  0  0
  -27.8946   -1.3119   -5.1966 C   0  0  0  0  0  0  0  0  0  0  0  0
  -27.8736   -1.5159   -6.5901 C   0  0  0  0  0  0  0  0  0  0  0  0
  -28.2727   -2.7399   -7.1509 C   0  0  0  0  0  0  0  0  0  0  0  0
  -28.6920   -3.7428   -6.2962 C   0  0  0  0  0  0  0  0  0  0  0  0
  -28.6898   -3.5287   -4.9141 C   0  0  0  0  0  0  0  0  0  0  0  0
  -28.2923   -2.3407   -4.3415 C   0  0  0  0  0  0  0  0  0  0  0  0
  -29.1398   -4.6561   -4.2368 N   0  0  0  0  0  0  0  0  0  0  0  0
  -29.4716   -5.6767   -5.1123 C   0  0  0  0  0  0  0  0  0  0  0  0
  -29.9310   -6.7571   -4.7995 O   0  0  0  0  0  0  0  0  0  0  0  0
  -29.1657   -5.1230   -6.4865 C   0  0  0  0  0  0  0  0  0  0  0  0
  -29.2739   -5.7616   -7.6597 C   0  0  0  0  0  0  0  0  0  0  0  0
  -29.2466   -4.7446   -3.2391 H   0  0  0  0  0  0  0  0  0  0  0  0
  -28.2676    1.0017   -4.8713 C   0  0  0  0  0  0  0  0  0  0  0  0
  -27.5121   -0.1621   -4.5600 O   0  0  0  0  0  0  0  0  0  0  0  0
  -28.4885  -11.3246   -9.0359 C   0  0  0  0  0  0  0  0  0  0  0  0
  -28.9360  -10.8393  -10.4142 C   0  0  0  0  0  0  0  0  0  0  0  0
  -27.8519  -10.1417  -11.1953 C   0  0  0  0  0  0  0  0  0  0  0  0
  -26.6749  -10.0772  -10.8842 O   0  0  0  0  0  0  0  0  0  0  0  0
  -28.3348   -9.5948  -12.3395 O   0  0  0  0  0  0  0  0  0  0  0  0
  -29.2908   -9.7461  -12.4688 H   0  0  0  0  0  0  0  0  0  0  0  0
 23 24  1  0  0  0
 24 11  1  0  0  0
 11 12  1  0  0  0
 11 16  2  0  0  0
 12 13  2  0  0  0
 13 14  1  0  0  0
 14 15  2  0  0  0
 14 20  1  0  0  0
 15 16  1  0  0  0
 15 17  1  0  0  0
 17 18  1  0  0  0
 17 22  1  0  0  0
 18 19  2  0  0  0
 18 20  1  0  0  0
 20 21  2  0  0  0
 21  1  1  0  0  0
  1  2  2  0  0  0
  1  5  1  0  0  0
  2  3  1  0  0  0
  3  4  2  0  0  0
  3  9  1  0  0  0
  4  5  1  0  0  0
  4  6  1  0  0  0
  5 10  1  0  0  0
  6  7  1  0  0  0
  7  8  1  0  0  0
  8  9  1  0  0  0
  9 25  1  0  0  0
 25 26  1  0  0  0
 26 27  1  0  0  0
 27 28  2  0  0  0
 27 29  1  0  0  0
 29 30  1  0  0  0
M  END
> <minimizedAffinity>
-8.34968

$$$$
