CHEMBL3906284


 44 47  0  0  0  0  0  0  0  0999 V2000
  -17.1912    1.9613  -15.7568 N   0  0  0  0  0  0  0  0  0  0  0  0
  -18.6282    1.8526  -15.4934 C   0  0  0  0  0  0  0  0  0  0  0  0
  -19.2353    3.1043  -15.4470 C   0  0  0  0  0  0  0  0  0  0  0  0
  -20.4717    3.3041  -14.9810 C   0  0  0  0  0  0  0  0  0  0  0  0
  -21.2244    2.2599  -14.5414 C   0  0  0  0  0  0  0  0  0  0  0  0
  -22.3526    2.6373  -13.9706 N   0  0  0  0  0  0  0  0  0  0  0  0
  -23.2199    1.7712  -13.5027 C   0  0  0  0  0  0  0  0  0  0  0  0
  -23.0378    0.3996  -13.6572 C   0  0  0  0  0  0  0  0  0  0  0  0
  -21.7941   -0.0330  -14.1937 N   0  0  0  0  0  0  0  0  0  0  0  0
  -20.8305    0.9144  -14.6254 C   0  0  0  0  0  0  0  0  0  0  0  0
  -19.4549    0.6871  -15.1259 C   0  0  0  0  0  0  0  0  0  0  0  0
  -24.3279   -0.3834  -13.2949 C   0  0  0  0  0  0  0  0  0  0  0  0
  -24.8812   -0.3298  -11.9935 C   0  0  0  0  0  0  0  0  0  0  0  0
  -26.0244   -0.9906  -11.9256 N   0  0  0  0  0  0  0  0  0  0  0  0
  -26.2681   -1.5036  -13.1061 N   0  0  0  0  0  0  0  0  0  0  0  0
  -27.5067   -2.2340  -13.3321 C   0  0  0  0  0  0  0  0  0  0  0  0
  -25.2617   -1.1803  -13.9835 C   0  0  0  0  0  0  0  0  0  0  0  0
  -13.8651    0.1704  -15.5442 C   0  0  0  0  0  0  0  0  0  0  0  0
  -13.9283   -0.3992  -14.2754 C   0  0  0  0  0  0  0  0  0  0  0  0
  -15.0778   -0.2220  -13.4703 C   0  0  0  0  0  0  0  0  0  0  0  0
  -16.1675    0.5327  -13.9572 C   0  0  0  0  0  0  0  0  0  0  0  0
  -16.1151    1.1360  -15.2316 C   0  0  0  0  0  0  0  0  0  0  0  0
  -14.9485    0.8995  -16.0135 C   0  0  0  0  0  0  0  0  0  0  0  0
  -11.5212   -0.7640  -17.7197 H   0  0  0  0  0  0  0  0  0  0  0  0
  -12.5550   -0.8721  -17.3291 C   0  0  0  0  0  0  0  0  0  0  0  0
  -13.2724   -0.7349  -18.1641 H   0  0  0  0  0  0  0  0  0  0  0  0
  -12.6529   -1.8925  -16.8992 H   0  0  0  0  0  0  0  0  0  0  0  0
  -12.7660    0.0740  -16.3473 O   0  0  0  0  0  0  0  0  0  0  0  0
  -15.1449   -0.7492  -12.2206 O   0  0  0  0  0  0  0  0  0  0  0  0
  -15.5952   -2.0231  -11.9261 C   0  0  0  0  0  0  0  0  0  0  0  0
  -16.6674   -2.1368  -12.1981 H   0  0  0  0  0  0  0  0  0  0  0  0
  -14.9885   -2.7715  -12.4835 H   0  0  0  0  0  0  0  0  0  0  0  0
  -15.4783   -2.2166  -10.8424 H   0  0  0  0  0  0  0  0  0  0  0  0
  -16.8186    3.1063  -16.6386 C   0  0  0  0  0  0  0  0  0  0  0  0
  -16.0771    2.7896  -17.4038 H   0  0  0  0  0  0  0  0  0  0  0  0
  -17.6896    3.3971  -17.2587 H   0  0  0  0  0  0  0  0  0  0  0  0
  -16.1921    4.3363  -15.9065 C   0  0  0  0  0  0  0  0  0  0  0  0
  -16.7428    5.2771  -16.1024 H   0  0  0  0  0  0  0  0  0  0  0  0
  -16.1849    4.2120  -14.8091 H   0  0  0  0  0  0  0  0  0  0  0  0
  -14.7211    4.5172  -16.3124 C   0  0  0  0  0  0  0  0  0  0  0  0
  -14.2706    3.5476  -16.6274 H   0  0  0  0  0  0  0  0  0  0  0  0
  -14.6458    5.1970  -17.1910 H   0  0  0  0  0  0  0  0  0  0  0  0
  -13.9800    5.0568  -15.2544 O   0  0  0  0  0  0  0  0  0  0  0  0
  -13.9449    4.3514  -14.5558 H   0  0  0  0  0  0  0  0  0  0  0  0
 24 25  1  0  0  0
 25 26  1  0  0  0
 25 27  1  0  0  0
 25 28  1  0  0  0
 28 18  1  0  0  0
 18 19  1  0  0  0
 18 23  2  0  0  0
 19 20  2  0  0  0
 20 29  1  0  0  0
 20 21  1  0  0  0
 29 30  1  0  0  0
 30 31  1  0  0  0
 30 32  1  0  0  0
 30 33  1  0  0  0
 21 22  2  0  0  0
 22  1  1  0  0  0
 22 23  1  0  0  0
  1  2  1  0  0  0
  1 34  1  0  0  0
  2  3  1  0  0  0
  2 11  2  0  0  0
  3  4  2  0  0  0
  4  5  1  0  0  0
  5  6  1  0  0  0
  5 10  2  0  0  0
  6  7  2  0  0  0
  7  8  1  0  0  0
  8 12  1  0  0  0
  8  9  2  0  0  0
 12 13  1  0  0  0
 12 17  2  0  0  0
 13 14  2  0  0  0
 14 15  1  0  0  0
 15 16  1  0  0  0
 15 17  1  0  0  0
  9 10  1  0  0  0
 10 11  1  0  0  0
 34 35  1  0  0  0
 34 36  1  0  0  0
 34 37  1  0  0  0
 37 38  1  0  0  0
 37 39  1  0  0  0
 37 40  1  0  0  0
 40 41  1  0  0  0
 40 42  1  0  0  0
 40 43  1  0  0  0
 43 44  1  0  0  0
M  ISO 1  24   2
M  ISO 1  26   2
M  ISO 1  27   2
M  ISO 1  31   2
M  ISO 1  32   2
M  ISO 1  33   2
M  ISO 1  35   2
M  ISO 1  36   2
M  ISO 1  38   2
M  ISO 1  39   2
M  ISO 1  41   2
M  ISO 1  42   2
M  END
> <minimizedAffinity>
-8.65346

$$$$
