CHEMBL2003271


 27 29  0  0  0  0  0  0  0  0999 V2000
  -28.6236  -10.2695   -5.4711 C   0  0  0  0  0  0  0  0  0  0  0  0
  -28.6917  -11.8444   -6.1317 S   0  0  0  0  0  0  0  0  0  0  0  0
  -28.3224  -11.3044   -7.7117 C   0  0  0  0  0  0  0  0  0  0  0  0
  -28.2265  -12.1313   -8.8510 C   0  0  0  0  0  0  0  0  0  0  0  0
  -27.8780  -11.5690  -10.0760 C   0  0  0  0  0  0  0  0  0  0  0  0
  -27.6284  -10.2085  -10.1731 C   0  0  0  0  0  0  0  0  0  0  0  0
  -27.1646   -9.5849  -11.7172 Cl  0  0  0  0  0  0  0  0  0  0  0  0
  -27.7447   -9.3924   -9.0374 C   0  0  0  0  0  0  0  0  0  0  0  0
  -27.4269   -7.7003   -9.0955 Cl  0  0  0  0  0  0  0  0  0  0  0  0
  -28.1097   -9.9207   -7.7619 C   0  0  0  0  0  0  0  0  0  0  0  0
  -28.2642   -9.3340   -6.4304 C   0  0  0  0  0  0  0  0  0  0  0  0
  -29.8239  -11.0461   -3.5421 N   0  0  0  0  0  0  0  0  0  0  0  0
  -29.0232  -10.0719   -4.0844 C   0  0  0  0  0  0  0  0  0  0  0  0
  -28.7296   -9.0959   -3.4039 O   0  0  0  0  0  0  0  0  0  0  0  0
  -30.0802  -10.9588   -2.5686 H   0  0  0  0  0  0  0  0  0  0  0  0
  -30.0165  -11.9069   -4.0304 H   0  0  0  0  0  0  0  0  0  0  0  0
  -28.0848   -7.9638   -6.1761 N   0  0  0  0  0  0  0  0  0  0  0  0
  -29.1528   -7.0791   -6.2398 C   0  0  0  0  0  0  0  0  0  0  0  0
  -30.3083   -7.3903   -6.5219 O   0  0  0  0  0  0  0  0  0  0  0  0
  -27.3758   -7.7322   -5.4877 H   0  0  0  0  0  0  0  0  0  0  0  0
  -28.8663   -5.6835   -5.7913 C   0  0  0  0  0  0  0  0  0  0  0  0
  -29.3460   -4.5632   -6.4859 C   0  0  0  0  0  0  0  0  0  0  0  0
  -29.0652   -3.2727   -6.0171 C   0  0  0  0  0  0  0  0  0  0  0  0
  -28.3014   -3.1013   -4.8618 C   0  0  0  0  0  0  0  0  0  0  0  0
  -27.9653   -1.5157   -4.2863 Cl  0  0  0  0  0  0  0  0  0  0  0  0
  -27.8174   -4.2079   -4.1674 C   0  0  0  0  0  0  0  0  0  0  0  0
  -28.1022   -5.4959   -4.6305 C   0  0  0  0  0  0  0  0  0  0  0  0
 12 13  1  0  0  0
 12 15  1  0  0  0
 12 16  1  0  0  0
 13 14  2  0  0  0
 13  1  1  0  0  0
  1  2  1  0  0  0
  1 11  2  0  0  0
  2  3  1  0  0  0
  3  4  1  0  0  0
  3 10  2  0  0  0
  4  5  2  0  0  0
  5  6  1  0  0  0
  6  7  1  0  0  0
  6  8  2  0  0  0
  8  9  1  0  0  0
  8 10  1  0  0  0
 10 11  1  0  0  0
 11 17  1  0  0  0
 17 18  1  0  0  0
 17 20  1  0  0  0
 18 19  2  0  0  0
 18 21  1  0  0  0
 21 22  1  0  0  0
 21 27  2  0  0  0
 22 23  2  0  0  0
 23 24  1  0  0  0
 24 25  1  0  0  0
 24 26  2  0  0  0
 26 27  1  0  0  0
M  END
> <minimizedAffinity>
-7.34905

$$$$
