CHEMBL477768


 28 30  0  0  0  0  0  0  0  0999 V2000
  -27.7815   -5.7065   -5.0919 O   0  0  0  0  0  0  0  0  0  0  0  0
  -28.9985   -5.8033   -5.2014 C   0  0  0  0  0  0  0  0  0  0  0  0
  -29.6081   -6.7912   -6.1181 C   0  0  0  0  0  0  0  0  0  0  0  0
  -28.8471   -7.3728   -7.1413 C   0  0  0  0  0  0  0  0  0  0  0  0
  -29.4450   -8.2818   -8.0196 C   0  0  0  0  0  0  0  0  0  0  0  0
  -30.7904   -8.5905   -7.8625 C   0  0  0  0  0  0  0  0  0  0  0  0
  -31.4346   -9.4633   -8.6993 O   0  0  0  0  0  0  0  0  0  0  0  0
  -31.5400   -8.0175   -6.8339 C   0  0  0  0  0  0  0  0  0  0  0  0
  -32.8637   -8.3512   -6.7143 O   0  0  0  0  0  0  0  0  0  0  0  0
  -30.9542   -7.1253   -5.9402 C   0  0  0  0  0  0  0  0  0  0  0  0
  -31.7432   -6.6011   -4.9513 O   0  0  0  0  0  0  0  0  0  0  0  0
  -31.0084   -6.0230   -3.8718 C   0  0  0  0  0  0  0  0  0  0  0  0
  -29.9726   -4.9981   -4.3432 C   0  0  0  0  0  0  0  0  0  0  0  0
  -29.3257   -4.4790   -3.1745 O   0  0  0  0  0  0  0  0  0  0  0  0
  -30.8007   -9.7752   -9.3681 H   0  0  0  0  0  0  0  0  0  0  0  0
  -33.0365   -8.9708   -7.4499 H   0  0  0  0  0  0  0  0  0  0  0  0
  -28.4304   -4.8751   -3.1567 H   0  0  0  0  0  0  0  0  0  0  0  0
  -30.6403   -3.8583   -5.1515 C   0  0  0  0  0  0  0  0  0  0  0  0
  -29.7653   -2.6669   -5.4880 C   0  0  0  0  0  0  0  0  0  0  0  0
  -29.8390   -1.4867   -4.7283 C   0  0  0  0  0  0  0  0  0  0  0  0
  -29.0678   -0.3666   -5.0548 C   0  0  0  0  0  0  0  0  0  0  0  0
  -28.2270   -0.4227   -6.1572 C   0  0  0  0  0  0  0  0  0  0  0  0
  -27.4547    0.6440   -6.5330 O   0  0  0  0  0  0  0  0  0  0  0  0
  -28.1531   -1.5815   -6.9244 C   0  0  0  0  0  0  0  0  0  0  0  0
  -27.3337   -1.6195   -8.0175 O   0  0  0  0  0  0  0  0  0  0  0  0
  -28.9116   -2.7009   -6.6021 C   0  0  0  0  0  0  0  0  0  0  0  0
  -27.6050    1.3601   -5.8956 H   0  0  0  0  0  0  0  0  0  0  0  0
  -26.9230   -0.7321   -8.0413 H   0  0  0  0  0  0  0  0  0  0  0  0
  1  2  2  0  0  0
  2  3  1  0  0  0
  2 13  1  0  0  0
  3  4  1  0  0  0
  3 10  2  0  0  0
  4  5  2  0  0  0
  5  6  1  0  0  0
  6  7  1  0  0  0
  6  8  2  0  0  0
  7 15  1  0  0  0
  8  9  1  0  0  0
  8 10  1  0  0  0
  9 16  1  0  0  0
 10 11  1  0  0  0
 11 12  1  0  0  0
 12 13  1  0  0  0
 13 18  1  0  0  0
 13 14  1  0  0  0
 14 17  1  0  0  0
 18 19  1  0  0  0
 19 20  1  0  0  0
 19 26  2  0  0  0
 20 21  2  0  0  0
 21 22  1  0  0  0
 22 23  1  0  0  0
 22 24  2  0  0  0
 23 27  1  0  0  0
 24 25  1  0  0  0
 24 26  1  0  0  0
 25 28  1  0  0  0
M  END
> <minimizedAffinity>
-9.06046

$$$$
