CHEMBL3960327


 36 40  0  0  0  0  0  0  0  0999 V2000
  -17.0469    2.0316  -15.4259 N   0  0  0  0  0  0  0  0  0  0  0  0
  -18.4929    1.9608  -15.4832 C   0  0  0  0  0  0  0  0  0  0  0  0
  -19.1318    3.1840  -15.6744 C   0  0  0  0  0  0  0  0  0  0  0  0
  -20.3958    3.3920  -15.1599 C   0  0  0  0  0  0  0  0  0  0  0  0
  -21.1157    2.3760  -14.5932 C   0  0  0  0  0  0  0  0  0  0  0  0
  -22.2338    2.7827  -13.9846 N   0  0  0  0  0  0  0  0  0  0  0  0
  -23.0638    1.8249  -13.5574 C   0  0  0  0  0  0  0  0  0  0  0  0
  -22.8189    0.4800  -13.7849 C   0  0  0  0  0  0  0  0  0  0  0  0
  -21.6117    0.0563  -14.2957 N   0  0  0  0  0  0  0  0  0  0  0  0
  -20.6858    1.0291  -14.6726 C   0  0  0  0  0  0  0  0  0  0  0  0
  -19.3084    0.8584  -15.0839 C   0  0  0  0  0  0  0  0  0  0  0  0
  -23.9382   -0.4188  -13.5457 C   0  0  0  0  0  0  0  0  0  0  0  0
  -24.7485   -1.1236  -14.4775 C   0  0  0  0  0  0  0  0  0  0  0  0
  -25.8297   -1.6742  -13.9069 N   0  0  0  0  0  0  0  0  0  0  0  0
  -25.7129   -1.3189  -12.6171 N   0  0  0  0  0  0  0  0  0  0  0  0
  -26.4783   -1.9915  -11.5939 C   0  0  0  0  0  0  0  0  0  0  0  0
  -24.7097   -0.4140  -12.4024 C   0  0  0  0  0  0  0  0  0  0  0  0
  -15.2796   -0.4322  -13.1537 C   0  0  0  0  0  0  0  0  0  0  0  0
  -14.2009   -0.7918  -13.9472 C   0  0  0  0  0  0  0  0  0  0  0  0
  -14.0199   -0.1655  -15.1809 C   0  0  0  0  0  0  0  0  0  0  0  0
  -14.9414    0.7933  -15.6357 C   0  0  0  0  0  0  0  0  0  0  0  0
  -16.0889    1.1229  -14.9090 C   0  0  0  0  0  0  0  0  0  0  0  0
  -16.1805    0.5384  -13.6216 C   0  0  0  0  0  0  0  0  0  0  0  0
  -15.5914   -2.3682  -11.7969 C   0  0  0  0  0  0  0  0  0  0  0  0
  -15.5605   -0.9471  -11.9133 O   0  0  0  0  0  0  0  0  0  0  0  0
  -12.9827   -0.4074  -16.0433 O   0  0  0  0  0  0  0  0  0  0  0  0
  -13.2551   -0.2315  -17.4278 C   0  0  0  0  0  0  0  0  0  0  0  0
  -16.6250    3.4754  -15.5824 C   0  0  0  0  0  0  0  0  0  0  0  0
  -15.9177    3.6727  -16.9428 C   0  0  0  0  0  0  0  0  0  0  0  0
  -14.5763    4.2755  -16.9333 N   0  0  0  0  0  0  0  0  0  0  0  0
  -13.9342    4.2964  -15.6096 C   0  0  0  0  0  0  0  0  0  0  0  0
  -12.5491    3.6758  -15.7806 C   0  0  0  0  0  0  0  0  0  0  0  0
  -12.2984    3.6747  -17.2832 C   0  0  0  0  0  0  0  0  0  0  0  0
  -13.6989    3.5021  -17.8364 C   0  0  0  0  0  0  0  0  0  0  0  0
  -11.6859    4.9239  -17.7413 C   0  0  0  0  0  0  0  0  0  0  0  0
  -11.1913    5.9324  -18.0694 N   0  0  0  0  0  0  0  0  0  0  0  0
 24 25  1  0  0  0
 25 18  1  0  0  0
 18 19  1  0  0  0
 18 23  2  0  0  0
 19 20  2  0  0  0
 20 26  1  0  0  0
 20 21  1  0  0  0
 26 27  1  0  0  0
 21 22  2  0  0  0
 22  1  1  0  0  0
 22 23  1  0  0  0
  1 28  1  0  0  0
  1  2  1  0  0  0
 28 29  1  0  0  0
 29 30  1  0  0  0
 30 31  1  0  0  0
 30 34  1  0  0  0
 31 32  1  0  0  0
 32 33  1  0  0  0
 33 35  1  0  0  0
 33 34  1  0  0  0
 35 36  3  0  0  0
  2  3  1  0  0  0
  2 11  2  0  0  0
  3  4  2  0  0  0
  4  5  1  0  0  0
  5  6  1  0  0  0
  5 10  2  0  0  0
  6  7  2  0  0  0
  7  8  1  0  0  0
  8 12  1  0  0  0
  8  9  2  0  0  0
 12 13  1  0  0  0
 12 17  2  0  0  0
 13 14  2  0  0  0
 14 15  1  0  0  0
 15 16  1  0  0  0
 15 17  1  0  0  0
  9 10  1  0  0  0
 10 11  1  0  0  0
M  END
> <minimizedAffinity>
-8.59957

$$$$
