CHEMBL272823


 36 40  0  0  0  0  0  0  0  0999 V2000
  -29.5656   -5.7620   -6.1319 C   0  0  0  0  0  0  0  0  0  0  0  0
  -29.6910   -5.3826   -7.4639 C   0  0  0  0  0  0  0  0  0  0  0  0
  -29.1514   -4.1756   -7.9034 C   0  0  0  0  0  0  0  0  0  0  0  0
  -28.5894   -3.2381   -7.0077 C   0  0  0  0  0  0  0  0  0  0  0  0
  -28.0089   -1.9920   -7.3869 C   0  0  0  0  0  0  0  0  0  0  0  0
  -27.4672   -1.1376   -6.4095 C   0  0  0  0  0  0  0  0  0  0  0  0
  -27.4918   -1.4869   -5.0649 C   0  0  0  0  0  0  0  0  0  0  0  0
  -28.0391   -2.7071   -4.6799 C   0  0  0  0  0  0  0  0  0  0  0  0
  -28.5774   -3.5936   -5.6270 C   0  0  0  0  0  0  0  0  0  0  0  0
  -29.0580   -4.8514   -5.2073 C   0  0  0  0  0  0  0  0  0  0  0  0
  -27.8346   -1.5111   -8.7958 C   0  0  0  0  0  0  0  0  0  0  0  0
  -28.6045   -0.6418   -9.1944 O   0  0  0  0  0  0  0  0  0  0  0  0
  -26.8712   -2.1446   -9.5615 N   0  0  0  0  0  0  0  0  0  0  0  0
  -26.4277   -2.9588   -9.1561 H   0  0  0  0  0  0  0  0  0  0  0  0
  -26.5527   -1.8699  -10.9115 C   0  0  0  0  0  0  0  0  0  0  0  0
  -27.4466   -2.0353  -11.9748 C   0  0  0  0  0  0  0  0  0  0  0  0
  -27.0308   -1.8399  -13.2947 C   0  0  0  0  0  0  0  0  0  0  0  0
  -25.7191   -1.4587  -13.5603 C   0  0  0  0  0  0  0  0  0  0  0  0
  -25.1874   -1.2778  -15.1862 Cl  0  0  0  0  0  0  0  0  0  0  0  0
  -24.8316   -1.2360  -12.5104 C   0  0  0  0  0  0  0  0  0  0  0  0
  -25.2518   -1.4308  -11.1899 C   0  0  0  0  0  0  0  0  0  0  0  0
  -29.9063   -7.0295   -5.6998 O   0  0  0  0  0  0  0  0  0  0  0  0
  -29.2081  -10.3298   -9.5171 C   0  0  0  0  0  0  0  0  0  0  0  0
  -30.5696  -10.2526   -9.1875 C   0  0  0  0  0  0  0  0  0  0  0  0
  -31.0494   -9.3918   -8.2193 C   0  0  0  0  0  0  0  0  0  0  0  0
  -32.3737   -9.2908   -8.0884 N   0  0  0  0  0  0  0  0  0  0  0  0
  -32.8274   -8.3777   -7.2224 C   0  0  0  0  0  0  0  0  0  0  0  0
  -32.0663   -7.5887   -6.4632 N   0  0  0  0  0  0  0  0  0  0  0  0
  -30.7320   -7.7741   -6.5518 C   0  0  0  0  0  0  0  0  0  0  0  0
  -30.1379   -8.6534   -7.4611 C   0  0  0  0  0  0  0  0  0  0  0  0
  -28.7534   -8.8343   -7.6769 C   0  0  0  0  0  0  0  0  0  0  0  0
  -28.2805   -9.6448   -8.7211 C   0  0  0  0  0  0  0  0  0  0  0  0
  -28.8426  -10.4063  -11.8590 C   0  0  0  0  0  0  0  0  0  0  0  0
  -28.7898  -11.0698  -10.5910 O   0  0  0  0  0  0  0  0  0  0  0  0
  -26.9166   -9.6198   -8.8143 O   0  0  0  0  0  0  0  0  0  0  0  0
  -26.1612  -10.6703   -8.2281 C   0  0  0  0  0  0  0  0  0  0  0  0
 33 34  1  0  0  0
 34 23  1  0  0  0
 23 24  1  0  0  0
 23 32  2  0  0  0
 24 25  2  0  0  0
 25 26  1  0  0  0
 25 30  1  0  0  0
 26 27  2  0  0  0
 27 28  1  0  0  0
 28 29  2  0  0  0
 29 22  1  0  0  0
 29 30  1  0  0  0
 22  1  1  0  0  0
  1  2  1  0  0  0
  1 10  2  0  0  0
  2  3  2  0  0  0
  3  4  1  0  0  0
  4  5  1  0  0  0
  4  9  2  0  0  0
  5 11  1  0  0  0
  5  6  2  0  0  0
 11 12  2  0  0  0
 11 13  1  0  0  0
 13 15  1  0  0  0
 13 14  1  0  0  0
 15 16  1  0  0  0
 15 21  2  0  0  0
 16 17  2  0  0  0
 17 18  1  0  0  0
 18 19  1  0  0  0
 18 20  2  0  0  0
 20 21  1  0  0  0
  6  7  1  0  0  0
  7  8  2  0  0  0
  8  9  1  0  0  0
  9 10  1  0  0  0
 30 31  2  0  0  0
 31 32  1  0  0  0
 32 35  1  0  0  0
 35 36  1  0  0  0
M  END
> <minimizedAffinity>
-10.60073

$$$$
