CHEMBL3657548


 36 41  0  0  0  0  0  0  0  0999 V2000
  -15.2042   -4.5900  -13.6574 C   0  0  0  0  0  0  0  0  0  0  0  0
  -15.9399   -5.4169  -12.8397 C   0  0  0  0  0  0  0  0  0  0  0  0
  -16.5024   -4.8163  -11.7431 C   0  0  0  0  0  0  0  0  0  0  0  0
  -16.4036   -3.5035  -11.4803 N   0  0  0  0  0  0  0  0  0  0  0  0
  -15.7078   -2.7476  -12.3362 C   0  0  0  0  0  0  0  0  0  0  0  0
  -15.0668   -3.2582  -13.4173 N   0  0  0  0  0  0  0  0  0  0  0  0
  -12.4915   -4.9215  -17.6816 C   0  0  0  0  0  0  0  0  0  0  0  0
  -13.4270   -5.3397  -16.6022 C   0  0  0  0  0  0  0  0  0  0  0  0
  -13.8490   -4.4539  -15.6925 N   0  0  0  0  0  0  0  0  0  0  0  0
  -14.5371   -5.1922  -14.7801 N   0  0  0  0  0  0  0  0  0  0  0  0
  -14.4922   -6.5325  -15.0944 C   0  0  0  0  0  0  0  0  0  0  0  0
  -13.9360   -6.6471  -16.3587 C   0  0  0  0  0  0  0  0  0  0  0  0
  -13.7315   -7.8552  -17.2231 C   0  0  0  0  0  0  0  0  0  0  0  0
  -12.5556   -8.6652  -16.8446 N   0  0  0  0  0  0  0  0  0  0  0  0
  -12.1393   -9.7000  -17.8278 C   0  0  0  0  0  0  0  0  0  0  0  0
  -13.1697  -10.6809  -17.2326 C   0  0  0  0  0  0  0  0  0  0  0  0
  -14.4731  -10.7434  -17.8652 O   0  0  0  0  0  0  0  0  0  0  0  0
  -13.0250   -9.7903  -15.9696 C   0  0  0  0  0  0  0  0  0  0  0  0
  -14.4038  -10.1763  -18.6547 H   0  0  0  0  0  0  0  0  0  0  0  0
  -15.5942   -1.3775  -12.1595 N   0  0  0  0  0  0  0  0  0  0  0  0
  -16.0599   -1.1257  -11.2992 H   0  0  0  0  0  0  0  0  0  0  0  0
  -15.4067   -0.2969  -13.0499 C   0  0  0  0  0  0  0  0  0  0  0  0
  -14.1856    0.1266  -13.5816 C   0  0  0  0  0  0  0  0  0  0  0  0
  -14.1002    1.1479  -14.5572 C   0  0  0  0  0  0  0  0  0  0  0  0
  -15.2960    1.6985  -15.0459 C   0  0  0  0  0  0  0  0  0  0  0  0
  -16.5262    1.3397  -14.4921 C   0  0  0  0  0  0  0  0  0  0  0  0
  -16.5511    0.4114  -13.4300 C   0  0  0  0  0  0  0  0  0  0  0  0
  -17.5497    2.0142  -15.2192 C   0  0  0  0  0  0  0  0  0  0  0  0
  -16.9332    2.7539  -16.2044 C   0  0  0  0  0  0  0  0  0  0  0  0
  -15.5715    2.6173  -16.0435 N   0  0  0  0  0  0  0  0  0  0  0  0
  -14.5998    3.3360  -16.8389 C   0  0  0  0  0  0  0  0  0  0  0  0
  -19.0236    1.8848  -14.9584 C   0  0  0  0  0  0  0  0  0  0  0  0
  -19.6460    0.7393  -15.1561 N   0  0  0  0  0  0  0  0  0  0  0  0
  -20.9681    0.8425  -14.7992 C   0  0  0  0  0  0  0  0  0  0  0  0
  -21.3544    2.0813  -14.3356 C   0  0  0  0  0  0  0  0  0  0  0  0
  -20.0238    3.1612  -14.3891 S   0  0  0  0  0  0  0  0  0  0  0  0
  7  8  1  0  0  0
  8  9  2  0  0  0
  8 12  1  0  0  0
  9 10  1  0  0  0
 10  1  1  0  0  0
 10 11  1  0  0  0
  1  2  1  0  0  0
  1  6  2  0  0  0
  2  3  2  0  0  0
  3  4  1  0  0  0
  4  5  2  0  0  0
  5 20  1  0  0  0
  5  6  1  0  0  0
 20 22  1  0  0  0
 20 21  1  0  0  0
 22 23  1  0  0  0
 22 27  2  0  0  0
 23 24  2  0  0  0
 24 25  1  0  0  0
 25 26  2  0  0  0
 25 30  1  0  0  0
 26 27  1  0  0  0
 26 28  1  0  0  0
 28 32  1  0  0  0
 28 29  2  0  0  0
 32 33  2  0  0  0
 32 36  1  0  0  0
 33 34  1  0  0  0
 34 35  2  0  0  0
 35 36  1  0  0  0
 29 30  1  0  0  0
 30 31  1  0  0  0
 11 12  2  0  0  0
 12 13  1  0  0  0
 13 14  1  0  0  0
 14 15  1  0  0  0
 14 18  1  0  0  0
 15 16  1  0  0  0
 16 17  1  0  0  0
 16 18  1  0  0  0
 17 19  1  0  0  0
M  END
> <minimizedAffinity>
-8.49087

$$$$
