CHEMBL3633291


 32 35  0  0  0  0  0  0  0  0999 V2000
  -29.1684   -3.0912   -6.1030 C   0  0  0  0  0  0  0  0  0  0  0  0
  -28.6645   -1.9398   -5.4632 C   0  0  0  0  0  0  0  0  0  0  0  0
  -27.9647   -0.9664   -6.1613 C   0  0  0  0  0  0  0  0  0  0  0  0
  -27.7723   -1.1132   -7.5273 C   0  0  0  0  0  0  0  0  0  0  0  0
  -28.1951   -2.2653   -8.1999 C   0  0  0  0  0  0  0  0  0  0  0  0
  -28.8830   -3.2502   -7.4748 C   0  0  0  0  0  0  0  0  0  0  0  0
  -28.2819   -6.1360   -7.3302 N   0  0  0  0  0  0  0  0  0  0  0  0
  -29.2037   -6.4155   -6.3930 C   0  0  0  0  0  0  0  0  0  0  0  0
  -29.5715   -7.6754   -6.1813 N   0  0  0  0  0  0  0  0  0  0  0  0
  -30.4994   -7.5798   -5.2266 N   0  0  0  0  0  0  0  0  0  0  0  0
  -30.7383   -6.3043   -4.7953 C   0  0  0  0  0  0  0  0  0  0  0  0
  -31.6329   -5.8416   -3.8260 C   0  0  0  0  0  0  0  0  0  0  0  0
  -31.6565   -4.4755   -3.5829 C   0  0  0  0  0  0  0  0  0  0  0  0
  -30.8227   -3.6198   -4.2968 C   0  0  0  0  0  0  0  0  0  0  0  0
  -29.9330   -4.0755   -5.3082 C   0  0  0  0  0  0  0  0  0  0  0  0
  -29.8887   -5.4817   -5.5445 C   0  0  0  0  0  0  0  0  0  0  0  0
  -28.0559   -6.9206   -7.9330 H   0  0  0  0  0  0  0  0  0  0  0  0
  -28.3676   -5.2682   -7.8462 H   0  0  0  0  0  0  0  0  0  0  0  0
  -30.9457   -8.4302   -4.9045 H   0  0  0  0  0  0  0  0  0  0  0  0
  -27.9411   -2.4757   -9.5832 N   0  0  0  0  0  0  0  0  0  0  0  0
  -26.8367   -1.9532  -10.2349 C   0  0  0  0  0  0  0  0  0  0  0  0
  -25.9846   -1.2671   -9.6811 O   0  0  0  0  0  0  0  0  0  0  0  0
  -26.7750   -2.2853  -11.5787 N   0  0  0  0  0  0  0  0  0  0  0  0
  -28.4260   -3.2393  -10.0309 H   0  0  0  0  0  0  0  0  0  0  0  0
  -27.6537   -2.4593  -12.0429 H   0  0  0  0  0  0  0  0  0  0  0  0
  -25.6605   -1.9461  -12.3930 C   0  0  0  0  0  0  0  0  0  0  0  0
  -24.3405   -1.9776  -11.9069 C   0  0  0  0  0  0  0  0  0  0  0  0
  -23.2669   -1.5330  -12.6773 C   0  0  0  0  0  0  0  0  0  0  0  0
  -23.4941   -1.0877  -13.9738 C   0  0  0  0  0  0  0  0  0  0  0  0
  -24.7905   -1.1210  -14.4837 C   0  0  0  0  0  0  0  0  0  0  0  0
  -24.9999   -0.7036  -15.7385 F   0  0  0  0  0  0  0  0  0  0  0  0
  -25.8701   -1.5465  -13.7128 C   0  0  0  0  0  0  0  0  0  0  0  0
  7  8  1  0  0  0
  7 17  1  0  0  0
  7 18  1  0  0  0
  8  9  2  0  0  0
  8 16  1  0  0  0
  9 10  1  0  0  0
 10 11  1  0  0  0
 10 19  1  0  0  0
 11 12  1  0  0  0
 11 16  2  0  0  0
 12 13  2  0  0  0
 13 14  1  0  0  0
 14 15  2  0  0  0
 15  1  1  0  0  0
 15 16  1  0  0  0
  1  2  1  0  0  0
  1  6  2  0  0  0
  2  3  2  0  0  0
  3  4  1  0  0  0
  4  5  2  0  0  0
  5 20  1  0  0  0
  5  6  1  0  0  0
 20 21  1  0  0  0
 20 24  1  0  0  0
 21 22  2  0  0  0
 21 23  1  0  0  0
 23 26  1  0  0  0
 23 25  1  0  0  0
 26 27  1  0  0  0
 26 32  2  0  0  0
 27 28  2  0  0  0
 28 29  1  0  0  0
 29 30  2  0  0  0
 30 31  1  0  0  0
 30 32  1  0  0  0
M  END
> <minimizedAffinity>
-11.75955

$$$$
