CHEMBL3950907


 37 41  0  0  0  0  0  0  0  0999 V2000
  -14.8981    0.1958  -14.2779 N   0  0  0  0  0  0  0  0  0  0  0  0
  -15.0097   -1.1331  -13.6821 C   0  0  0  0  0  0  0  0  0  0  0  0
  -15.8068   -1.1508  -12.5416 C   0  0  0  0  0  0  0  0  0  0  0  0
  -15.6205   -2.0720  -11.5673 C   0  0  0  0  0  0  0  0  0  0  0  0
  -14.7511   -3.0873  -11.7465 C   0  0  0  0  0  0  0  0  0  0  0  0
  -14.4491   -3.8149  -10.6653 N   0  0  0  0  0  0  0  0  0  0  0  0
  -13.7136   -4.9136  -10.7277 C   0  0  0  0  0  0  0  0  0  0  0  0
  -13.4125   -5.4563  -11.9766 C   0  0  0  0  0  0  0  0  0  0  0  0
  -13.5389   -4.6379  -13.1080 N   0  0  0  0  0  0  0  0  0  0  0  0
  -14.1536   -3.3848  -12.9936 C   0  0  0  0  0  0  0  0  0  0  0  0
  -14.2443   -2.3341  -14.0048 C   0  0  0  0  0  0  0  0  0  0  0  0
  -13.4121   -6.9760  -11.9374 C   0  0  0  0  0  0  0  0  0  0  0  0
  -14.4100   -7.7706  -12.5428 C   0  0  0  0  0  0  0  0  0  0  0  0
  -13.9912   -9.0282  -12.6559 N   0  0  0  0  0  0  0  0  0  0  0  0
  -12.7866   -9.0944  -12.1304 N   0  0  0  0  0  0  0  0  0  0  0  0
  -11.9774  -10.2942  -12.2684 C   0  0  0  0  0  0  0  0  0  0  0  0
  -12.4063   -7.8868  -11.6357 C   0  0  0  0  0  0  0  0  0  0  0  0
  -16.8409    3.0897  -15.7961 C   0  0  0  0  0  0  0  0  0  0  0  0
  -18.1577    2.5826  -15.7767 C   0  0  0  0  0  0  0  0  0  0  0  0
  -18.4056    1.2897  -15.2912 C   0  0  0  0  0  0  0  0  0  0  0  0
  -17.3330    0.5321  -14.8098 C   0  0  0  0  0  0  0  0  0  0  0  0
  -15.9933    1.0264  -14.7708 C   0  0  0  0  0  0  0  0  0  0  0  0
  -15.7742    2.3143  -15.3004 C   0  0  0  0  0  0  0  0  0  0  0  0
  -15.5055    4.6252  -17.1535 C   0  0  0  0  0  0  0  0  0  0  0  0
  -16.5625    4.3168  -16.3194 O   0  0  0  0  0  0  0  0  0  0  0  0
  -19.6493    0.7293  -15.2618 O   0  0  0  0  0  0  0  0  0  0  0  0
  -20.7842    1.2403  -14.6583 C   0  0  0  0  0  0  0  0  0  0  0  0
  -13.5263    0.8112  -14.3082 C   0  0  0  0  0  0  0  0  0  0  0  0
  -12.4725    0.4012  -15.4076 C   0  0  0  0  0  0  0  0  0  0  0  0
  -12.9598    0.6084  -16.8583 C   0  0  0  0  0  0  0  0  0  0  0  0
  -13.2377   -0.6798  -17.5218 N   0  0  0  0  0  0  0  0  0  0  0  0
  -12.3159   -1.7910  -17.2117 C   0  0  0  0  0  0  0  0  0  0  0  0
  -11.9411   -2.4321  -18.5484 C   0  0  0  0  0  0  0  0  0  0  0  0
  -13.0887   -2.0222  -19.4445 C   0  0  0  0  0  0  0  0  0  0  0  0
  -12.7807   -2.1236  -20.7888 F   0  0  0  0  0  0  0  0  0  0  0  0
  -14.2184   -2.7707  -19.1551 F   0  0  0  0  0  0  0  0  0  0  0  0
  -13.2860   -0.5886  -18.9863 C   0  0  0  0  0  0  0  0  0  0  0  0
 24 25  1  0  0  0
 25 18  1  0  0  0
 18 19  1  0  0  0
 18 23  2  0  0  0
 19 20  2  0  0  0
 20 26  1  0  0  0
 20 21  1  0  0  0
 26 27  1  0  0  0
 21 22  2  0  0  0
 22  1  1  0  0  0
 22 23  1  0  0  0
  1 28  1  0  0  0
  1  2  1  0  0  0
 28 29  1  0  0  0
 29 30  1  0  0  0
 30 31  1  0  0  0
 31 32  1  0  0  0
 31 37  1  0  0  0
 32 33  1  0  0  0
 33 34  1  0  0  0
 34 35  1  0  0  0
 34 36  1  0  0  0
 34 37  1  0  0  0
  2  3  1  0  0  0
  2 11  2  0  0  0
  3  4  2  0  0  0
  4  5  1  0  0  0
  5  6  1  0  0  0
  5 10  2  0  0  0
  6  7  2  0  0  0
  7  8  1  0  0  0
  8 12  1  0  0  0
  8  9  2  0  0  0
 12 13  1  0  0  0
 12 17  2  0  0  0
 13 14  2  0  0  0
 14 15  1  0  0  0
 15 16  1  0  0  0
 15 17  1  0  0  0
  9 10  1  0  0  0
 10 11  1  0  0  0
M  END
> <minimizedAffinity>
-7.54479

$$$$
