CHEMBL3894762


 40 44  0  0  0  0  0  0  0  0999 V2000
  -14.6115    2.1183  -16.0967 N   0  0  0  0  0  0  0  0  0  0  0  0
  -14.2522    1.2570  -15.0037 C   0  0  0  0  0  0  0  0  0  0  0  0
  -13.1259    1.6525  -14.2823 C   0  0  0  0  0  0  0  0  0  0  0  0
  -12.3849    0.7207  -13.5818 C   0  0  0  0  0  0  0  0  0  0  0  0
  -12.8005   -0.5781  -13.4572 C   0  0  0  0  0  0  0  0  0  0  0  0
  -11.8953   -1.3772  -12.8837 N   0  0  0  0  0  0  0  0  0  0  0  0
  -12.2944   -2.6325  -12.6269 C   0  0  0  0  0  0  0  0  0  0  0  0
  -13.5860   -3.0576  -12.8528 C   0  0  0  0  0  0  0  0  0  0  0  0
  -14.4960   -2.2659  -13.5184 N   0  0  0  0  0  0  0  0  0  0  0  0
  -14.0805   -0.9922  -13.8969 C   0  0  0  0  0  0  0  0  0  0  0  0
  -14.7805   -0.0350  -14.7223 C   0  0  0  0  0  0  0  0  0  0  0  0
  -13.9432   -4.3429  -12.2671 C   0  0  0  0  0  0  0  0  0  0  0  0
  -14.6960   -4.6347  -11.0996 C   0  0  0  0  0  0  0  0  0  0  0  0
  -14.6063   -5.9192  -10.7291 N   0  0  0  0  0  0  0  0  0  0  0  0
  -13.7900   -6.4530  -11.6532 N   0  0  0  0  0  0  0  0  0  0  0  0
  -13.6556   -7.8855  -11.7789 C   0  0  0  0  0  0  0  0  0  0  0  0
  -13.2413   -5.5167  -12.4854 C   0  0  0  0  0  0  0  0  0  0  0  0
  -13.4523    3.6897  -19.3053 C   0  0  0  0  0  0  0  0  0  0  0  0
  -12.7157    2.6545  -19.8563 C   0  0  0  0  0  0  0  0  0  0  0  0
  -12.7492    1.3932  -19.2563 C   0  0  0  0  0  0  0  0  0  0  0  0
  -13.4337    1.1978  -18.0456 C   0  0  0  0  0  0  0  0  0  0  0  0
  -14.1035    2.2442  -17.4124 C   0  0  0  0  0  0  0  0  0  0  0  0
  -14.1939    3.4548  -18.1445 C   0  0  0  0  0  0  0  0  0  0  0  0
  -14.6471    5.7440  -19.3978 C   0  0  0  0  0  0  0  0  0  0  0  0
  -13.5061    4.9760  -19.7701 O   0  0  0  0  0  0  0  0  0  0  0  0
  -12.0964    0.2861  -19.7302 O   0  0  0  0  0  0  0  0  0  0  0  0
  -12.0110    0.1729  -21.1461 C   0  0  0  0  0  0  0  0  0  0  0  0
  -15.4671    3.2448  -15.5804 C   0  0  0  0  0  0  0  0  0  0  0  0
  -16.9731    3.0104  -15.7529 C   0  0  0  0  0  0  0  0  0  0  0  0
  -17.5352    3.3526  -16.7957 O   0  0  0  0  0  0  0  0  0  0  0  0
  -17.6279    2.4826  -14.6662 N   0  0  0  0  0  0  0  0  0  0  0  0
  -17.2329    2.6242  -13.7512 H   0  0  0  0  0  0  0  0  0  0  0  0
  -18.9963    2.2474  -14.6147 C   0  0  0  0  0  0  0  0  0  0  0  0
  -19.8911    3.2346  -14.2794 C   0  0  0  0  0  0  0  0  0  0  0  0
  -21.2346    2.8971  -14.2647 C   0  0  0  0  0  0  0  0  0  0  0  0
  -22.1977    3.8238  -13.9922 O   0  0  0  0  0  0  0  0  0  0  0  0
  -21.6356    1.6008  -14.5398 C   0  0  0  0  0  0  0  0  0  0  0  0
  -20.6613    0.6927  -14.8882 C   0  0  0  0  0  0  0  0  0  0  0  0
  -19.3482    0.9942  -14.9783 N   0  0  0  0  0  0  0  0  0  0  0  0
  -21.7728    4.6957  -13.9185 H   0  0  0  0  0  0  0  0  0  0  0  0
 24 25  1  0  0  0
 25 18  1  0  0  0
 18 19  1  0  0  0
 18 23  2  0  0  0
 19 20  2  0  0  0
 20 26  1  0  0  0
 20 21  1  0  0  0
 26 27  1  0  0  0
 21 22  2  0  0  0
 22  1  1  0  0  0
 22 23  1  0  0  0
  1 28  1  0  0  0
  1  2  1  0  0  0
 28 29  1  0  0  0
 29 30  2  0  0  0
 29 31  1  0  0  0
 31 33  1  0  0  0
 31 32  1  0  0  0
 33 34  1  0  0  0
 33 39  2  0  0  0
 34 35  2  0  0  0
 35 36  1  0  0  0
 35 37  1  0  0  0
 36 40  1  0  0  0
 37 38  2  0  0  0
 38 39  1  0  0  0
  2  3  1  0  0  0
  2 11  2  0  0  0
  3  4  2  0  0  0
  4  5  1  0  0  0
  5  6  1  0  0  0
  5 10  2  0  0  0
  6  7  2  0  0  0
  7  8  1  0  0  0
  8 12  1  0  0  0
  8  9  2  0  0  0
 12 13  1  0  0  0
 12 17  2  0  0  0
 13 14  2  0  0  0
 14 15  1  0  0  0
 15 16  1  0  0  0
 15 17  1  0  0  0
  9 10  1  0  0  0
 10 11  1  0  0  0
M  END
> <minimizedAffinity>
-7.72796

$$$$
