CHEMBL3656038


 40 43  0  0  0  0  0  0  0  0999 V2000
  -29.6062   -4.3439   -4.4177 C   0  0  0  0  0  0  0  0  0  0  0  0
  -30.6803   -4.1437   -3.5545 C   0  0  0  0  0  0  0  0  0  0  0  0
  -31.7282   -5.0458   -3.5974 C   0  0  0  0  0  0  0  0  0  0  0  0
  -31.7990   -6.0759   -4.4666 N   0  0  0  0  0  0  0  0  0  0  0  0
  -30.7733   -6.2097   -5.3437 C   0  0  0  0  0  0  0  0  0  0  0  0
  -29.6643   -5.3749   -5.3510 C   0  0  0  0  0  0  0  0  0  0  0  0
  -30.9465   -7.2989   -6.2985 C   0  0  0  0  0  0  0  0  0  0  0  0
  -30.0659   -7.9363   -7.1537 C   0  0  0  0  0  0  0  0  0  0  0  0
  -30.7730   -8.9310   -7.8966 C   0  0  0  0  0  0  0  0  0  0  0  0
  -32.0843   -8.8701   -7.4546 C   0  0  0  0  0  0  0  0  0  0  0  0
  -32.1720   -7.8948   -6.4953 N   0  0  0  0  0  0  0  0  0  0  0  0
  -33.0040   -7.6232   -5.9845 H   0  0  0  0  0  0  0  0  0  0  0  0
  -30.1879   -9.8231   -8.8951 C   0  0  0  0  0  0  0  0  0  0  0  0
  -30.4070  -11.0308   -8.9030 O   0  0  0  0  0  0  0  0  0  0  0  0
  -29.3694   -9.2139   -9.8168 N   0  0  0  0  0  0  0  0  0  0  0  0
  -29.0266   -8.2826   -9.6180 H   0  0  0  0  0  0  0  0  0  0  0  0
  -28.6537   -9.9883  -10.8090 C   0  0  0  0  0  0  0  0  0  0  0  0
  -27.1501   -9.7168  -10.7318 C   0  0  0  0  0  0  0  0  0  0  0  0
  -26.7545   -8.9416  -11.8749 O   0  0  0  0  0  0  0  0  0  0  0  0
  -26.9692   -8.0091  -11.6904 H   0  0  0  0  0  0  0  0  0  0  0  0
  -26.7896   -8.9956   -9.4279 C   0  0  0  0  0  0  0  0  0  0  0  0
  -26.9677   -7.5871   -9.5483 O   0  0  0  0  0  0  0  0  0  0  0  0
  -26.5716   -7.3024  -10.3906 H   0  0  0  0  0  0  0  0  0  0  0  0
  -28.4869   -3.5389   -4.4635 O   0  0  0  0  0  0  0  0  0  0  0  0
  -27.8882   -1.1623   -7.1879 C   0  0  0  0  0  0  0  0  0  0  0  0
  -28.5502   -0.0306   -6.7056 C   0  0  0  0  0  0  0  0  0  0  0  0
  -29.1313   -0.0280   -5.4375 C   0  0  0  0  0  0  0  0  0  0  0  0
  -29.0776   -1.1683   -4.6441 C   0  0  0  0  0  0  0  0  0  0  0  0
  -28.5263   -2.3450   -5.1549 C   0  0  0  0  0  0  0  0  0  0  0  0
  -27.9089   -2.3327   -6.4153 C   0  0  0  0  0  0  0  0  0  0  0  0
  -27.5241   -1.9199   -9.5497 C   0  0  0  0  0  0  0  0  0  0  0  0
  -28.4975   -2.6621   -9.6418 O   0  0  0  0  0  0  0  0  0  0  0  0
  -27.1950   -1.1795   -8.4180 N   0  0  0  0  0  0  0  0  0  0  0  0
  -26.4278   -0.5267   -8.5417 H   0  0  0  0  0  0  0  0  0  0  0  0
  -28.1261   -1.9505  -12.7421 C   0  0  0  0  0  0  0  0  0  0  0  0
  -26.8354   -1.7317  -12.0384 C   0  0  0  0  0  0  0  0  0  0  0  0
  -25.5694   -1.4911  -12.6419 C   0  0  0  0  0  0  0  0  0  0  0  0
  -24.6710   -1.3393  -11.6109 C   0  0  0  0  0  0  0  0  0  0  0  0
  -25.2902   -1.4668  -10.4118 O   0  0  0  0  0  0  0  0  0  0  0  0
  -26.6147   -1.7157  -10.6660 C   0  0  0  0  0  0  0  0  0  0  0  0
 35 36  1  0  0  0
 36 37  1  0  0  0
 36 40  2  0  0  0
 37 38  2  0  0  0
 38 39  1  0  0  0
 39 40  1  0  0  0
 40 31  1  0  0  0
 31 32  2  0  0  0
 31 33  1  0  0  0
 33 25  1  0  0  0
 33 34  1  0  0  0
 25 26  1  0  0  0
 25 30  2  0  0  0
 26 27  2  0  0  0
 27 28  1  0  0  0
 28 29  2  0  0  0
 29 24  1  0  0  0
 29 30  1  0  0  0
 24  1  1  0  0  0
  1  2  1  0  0  0
  1  6  2  0  0  0
  2  3  2  0  0  0
  3  4  1  0  0  0
  4  5  2  0  0  0
  5  7  1  0  0  0
  5  6  1  0  0  0
  7  8  2  0  0  0
  7 11  1  0  0  0
  8  9  1  0  0  0
  9 13  1  0  0  0
  9 10  2  0  0  0
 13 14  2  0  0  0
 13 15  1  0  0  0
 15 17  1  0  0  0
 15 16  1  0  0  0
 17 18  1  0  0  0
 18 19  1  0  0  0
 18 21  1  0  0  0
 19 20  1  0  0  0
 21 22  1  0  0  0
 22 23  1  0  0  0
 10 11  1  0  0  0
 11 12  1  0  0  0
M  END
> <minimizedAffinity>
-10.29692

$$$$
