CHEMBL296185


 37 41  0  0  0  0  0  0  0  0999 V2000
  -16.2973    0.8164  -15.2805 C   0  0  0  0  0  0  0  0  0  0  0  0
  -16.0623    0.9981  -16.6245 N   0  0  0  0  0  0  0  0  0  0  0  0
  -14.7211    1.0593  -16.8539 C   0  0  0  0  0  0  0  0  0  0  0  0
  -14.0677    0.9570  -15.6491 C   0  0  0  0  0  0  0  0  0  0  0  0
  -15.0596    0.7713  -14.6207 C   0  0  0  0  0  0  0  0  0  0  0  0
  -12.5739    0.9501  -15.6111 C   0  0  0  0  0  0  0  0  0  0  0  0
  -11.8768    1.2486  -16.9381 C   0  0  0  0  0  0  0  0  0  0  0  0
  -12.6272    0.6423  -18.1208 C   0  0  0  0  0  0  0  0  0  0  0  0
  -14.0686    1.1830  -18.1910 C   0  0  0  0  0  0  0  0  0  0  0  0
  -16.7770    1.0254  -17.3369 H   0  0  0  0  0  0  0  0  0  0  0  0
  -22.1489    1.0593  -13.7303 C   0  0  0  0  0  0  0  0  0  0  0  0
  -22.6172    2.3679  -13.9747 C   0  0  0  0  0  0  0  0  0  0  0  0
  -21.7427    3.3552  -14.4341 C   0  0  0  0  0  0  0  0  0  0  0  0
  -20.4340    2.9831  -14.6590 C   0  0  0  0  0  0  0  0  0  0  0  0
  -19.9484    1.6841  -14.4478 C   0  0  0  0  0  0  0  0  0  0  0  0
  -20.8052    0.7010  -13.9737 C   0  0  0  0  0  0  0  0  0  0  0  0
  -18.5166    1.7248  -14.8264 C   0  0  0  0  0  0  0  0  0  0  0  0
  -17.6482    0.6962  -14.8445 C   0  0  0  0  0  0  0  0  0  0  0  0
  -18.2155    3.1514  -15.2286 C   0  0  0  0  0  0  0  0  0  0  0  0
  -17.1636    3.6543  -15.5679 O   0  0  0  0  0  0  0  0  0  0  0  0
  -19.4164    3.8215  -15.0974 N   0  0  0  0  0  0  0  0  0  0  0  0
  -19.5160    4.7989  -15.3298 H   0  0  0  0  0  0  0  0  0  0  0  0
  -23.3314   -0.1596  -13.2257 S   0  0  0  0  0  0  0  0  0  0  0  0
  -24.2892    0.4935  -12.3514 O   0  0  0  0  0  0  0  0  0  0  0  0
  -22.6229   -1.3506  -12.8200 O   0  0  0  0  0  0  0  0  0  0  0  0
  -25.2626   -1.4645  -14.5945 C   0  0  0  0  0  0  0  0  0  0  0  0
  -24.1767   -0.4899  -14.6453 N   0  0  0  0  0  0  0  0  0  0  0  0
  -24.3449    0.3630  -15.1822 H   0  0  0  0  0  0  0  0  0  0  0  0
  -14.9058    0.4710  -13.1461 C   0  0  0  0  0  0  0  0  0  0  0  0
  -15.6575   -0.7200  -12.5408 C   0  0  0  0  0  0  0  0  0  0  0  0
  -14.9361   -2.0684  -12.6372 C   0  0  0  0  0  0  0  0  0  0  0  0
  -14.6331   -2.6297  -11.3095 N   0  0  0  0  0  0  0  0  0  0  0  0
  -13.6971   -3.7786  -11.3872 C   0  0  0  0  0  0  0  0  0  0  0  0
  -14.3111   -5.0498  -12.0010 C   0  0  0  0  0  0  0  0  0  0  0  0
  -15.5592   -5.4075  -11.3877 O   0  0  0  0  0  0  0  0  0  0  0  0
  -16.4752   -4.3049  -11.3741 C   0  0  0  0  0  0  0  0  0  0  0  0
  -15.8614   -3.1006  -10.6458 C   0  0  0  0  0  0  0  0  0  0  0  0
 26 27  1  0  0  0
 27 23  1  0  0  0
 27 28  1  0  0  0
 23 24  2  0  0  0
 23 25  2  0  0  0
 23 11  1  0  0  0
 11 12  1  0  0  0
 11 16  2  0  0  0
 12 13  2  0  0  0
 13 14  1  0  0  0
 14 15  2  0  0  0
 14 21  1  0  0  0
 15 16  1  0  0  0
 15 17  1  0  0  0
 17 18  2  0  0  0
 17 19  1  0  0  0
 18  1  1  0  0  0
  1  2  1  0  0  0
  1  5  2  0  0  0
  2  3  1  0  0  0
  2 10  1  0  0  0
  3  4  2  0  0  0
  3  9  1  0  0  0
  4  5  1  0  0  0
  4  6  1  0  0  0
  5 29  1  0  0  0
 29 30  1  0  0  0
 30 31  1  0  0  0
 31 32  1  0  0  0
 32 33  1  0  0  0
 32 37  1  0  0  0
 33 34  1  0  0  0
 34 35  1  0  0  0
 35 36  1  0  0  0
 36 37  1  0  0  0
  6  7  1  0  0  0
  7  8  1  0  0  0
  8  9  1  0  0  0
 19 20  2  0  0  0
 19 21  1  0  0  0
 21 22  1  0  0  0
M  END
> <minimizedAffinity>
-9.55838

$$$$
