CHEMBL3676369


 37 39  0  0  0  0  0  0  0  0999 V2000
  -29.8329   -5.1874   -7.1092 C   0  0  0  0  0  0  0  0  0  0  0  0
  -29.1785   -4.3719   -8.0332 C   0  0  0  0  0  0  0  0  0  0  0  0
  -28.6238   -3.1382   -7.6244 C   0  0  0  0  0  0  0  0  0  0  0  0
  -28.0692   -2.1831   -8.4909 C   0  0  0  0  0  0  0  0  0  0  0  0
  -27.5621   -1.0239   -8.0335 N   0  0  0  0  0  0  0  0  0  0  0  0
  -27.6240   -0.8064   -6.7177 C   0  0  0  0  0  0  0  0  0  0  0  0
  -28.1713   -1.6227   -5.8176 N   0  0  0  0  0  0  0  0  0  0  0  0
  -28.6749   -2.7713   -6.2727 C   0  0  0  0  0  0  0  0  0  0  0  0
  -29.2880   -3.6257   -5.3638 C   0  0  0  0  0  0  0  0  0  0  0  0
  -29.8515   -4.8437   -5.7520 C   0  0  0  0  0  0  0  0  0  0  0  0
  -30.1068   -7.5360   -7.7316 C   0  0  0  0  0  0  0  0  0  0  0  0
  -30.8701   -8.4922   -7.8213 O   0  0  0  0  0  0  0  0  0  0  0  0
  -30.6020   -6.2598   -7.5972 N   0  0  0  0  0  0  0  0  0  0  0  0
  -31.5631   -6.3093   -7.2741 H   0  0  0  0  0  0  0  0  0  0  0  0
  -28.0411   -8.4100   -8.6853 C   0  0  0  0  0  0  0  0  0  0  0  0
  -28.6272   -7.6992   -7.7156 C   0  0  0  0  0  0  0  0  0  0  0  0
  -28.1199   -2.3777   -9.8981 N   0  0  0  0  0  0  0  0  0  0  0  0
  -28.4133   -3.3257  -10.1256 H   0  0  0  0  0  0  0  0  0  0  0  0
  -27.1153   -1.9056  -10.7798 C   0  0  0  0  0  0  0  0  0  0  0  0
  -25.8438   -1.5689  -10.2963 C   0  0  0  0  0  0  0  0  0  0  0  0
  -24.8088   -1.2493  -11.1724 C   0  0  0  0  0  0  0  0  0  0  0  0
  -25.0389   -1.2307  -12.5492 C   0  0  0  0  0  0  0  0  0  0  0  0
  -23.5447   -0.8842  -13.6692 Br  0  0  0  0  0  0  0  0  0  0  0  0
  -26.3221   -1.4853  -13.0480 C   0  0  0  0  0  0  0  0  0  0  0  0
  -26.6803   -1.4407  -14.7384 Cl  0  0  0  0  0  0  0  0  0  0  0  0
  -27.3498   -1.8114  -12.1564 C   0  0  0  0  0  0  0  0  0  0  0  0
  -28.5845   -2.0852  -12.6138 F   0  0  0  0  0  0  0  0  0  0  0  0
  -30.4352   -5.5537   -4.7319 O   0  0  0  0  0  0  0  0  0  0  0  0
  -29.5289   -6.0521   -3.7493 C   0  0  0  0  0  0  0  0  0  0  0  0
  -29.1290   -7.4979   -4.0647 C   0  0  0  0  0  0  0  0  0  0  0  0
  -27.6834   -7.6693   -4.0324 N   0  0  0  0  0  0  0  0  0  0  0  0
  -27.0998   -8.8469   -4.4481 C   0  0  0  0  0  0  0  0  0  0  0  0
  -27.7234   -9.7689   -4.9704 O   0  0  0  0  0  0  0  0  0  0  0  0
  -27.1278   -6.9933   -3.5219 H   0  0  0  0  0  0  0  0  0  0  0  0
  -25.6030   -8.9629   -4.1550 C   0  0  0  0  0  0  0  0  0  0  0  0
  -25.1141   -7.8578   -3.4105 O   0  0  0  0  0  0  0  0  0  0  0  0
  -25.7823   -7.1488   -3.5070 H   0  0  0  0  0  0  0  0  0  0  0  0
 15 16  2  0  0  0
 16 11  1  0  0  0
 11 12  2  0  0  0
 11 13  1  0  0  0
 13  1  1  0  0  0
 13 14  1  0  0  0
  1  2  1  0  0  0
  1 10  2  0  0  0
  2  3  2  0  0  0
  3  4  1  0  0  0
  3  8  1  0  0  0
  4 17  1  0  0  0
  4  5  2  0  0  0
 17 19  1  0  0  0
 17 18  1  0  0  0
 19 20  1  0  0  0
 19 26  2  0  0  0
 20 21  2  0  0  0
 21 22  1  0  0  0
 22 23  1  0  0  0
 22 24  2  0  0  0
 24 25  1  0  0  0
 24 26  1  0  0  0
 26 27  1  0  0  0
  5  6  1  0  0  0
  6  7  2  0  0  0
  7  8  1  0  0  0
  8  9  2  0  0  0
  9 10  1  0  0  0
 10 28  1  0  0  0
 28 29  1  0  0  0
 29 30  1  0  0  0
 30 31  1  0  0  0
 31 32  1  0  0  0
 31 34  1  0  0  0
 32 33  2  0  0  0
 32 35  1  0  0  0
 35 36  1  0  0  0
 36 37  1  0  0  0
M  END
> <minimizedAffinity>
-9.08954

$$$$
