CHEMBL3964493


 46 50  0  0  0  0  0  0  0  0999 V2000
  -27.9228   -1.9921  -10.2113 N   0  0  0  0  0  0  0  0  0  0  0  0
  -26.6301   -1.7142  -10.6479 C   0  0  0  0  0  0  0  0  0  0  0  0
  -25.6630   -1.5014   -9.9241 O   0  0  0  0  0  0  0  0  0  0  0  0
  -26.5258   -1.6343  -12.0299 N   0  0  0  0  0  0  0  0  0  0  0  0
  -28.6004   -2.2740  -10.9043 H   0  0  0  0  0  0  0  0  0  0  0  0
  -27.3368   -1.2361  -12.4811 H   0  0  0  0  0  0  0  0  0  0  0  0
  -25.2651   -1.3232  -12.6122 C   0  0  0  0  0  0  0  0  0  0  0  0
  -25.1441   -1.3335  -14.0031 C   0  0  0  0  0  0  0  0  0  0  0  0
  -23.9279   -0.9895  -14.6116 C   0  0  0  0  0  0  0  0  0  0  0  0
  -22.8233   -0.6128  -13.8385 C   0  0  0  0  0  0  0  0  0  0  0  0
  -22.9438   -0.6466  -12.4482 C   0  0  0  0  0  0  0  0  0  0  0  0
  -21.8869   -0.3441  -11.6743 F   0  0  0  0  0  0  0  0  0  0  0  0
  -24.1498   -0.9860  -11.8334 C   0  0  0  0  0  0  0  0  0  0  0  0
  -21.5910   -0.2635  -14.3655 O   0  0  0  0  0  0  0  0  0  0  0  0
  -21.2564    1.0725  -14.5028 C   0  0  0  0  0  0  0  0  0  0  0  0
  -22.0585    2.1128  -14.0418 C   0  0  0  0  0  0  0  0  0  0  0  0
  -21.6503    3.4017  -14.2999 C   0  0  0  0  0  0  0  0  0  0  0  0
  -20.4910    3.7006  -14.9091 N   0  0  0  0  0  0  0  0  0  0  0  0
  -19.6713    2.7067  -15.2786 C   0  0  0  0  0  0  0  0  0  0  0  0
  -20.0186    1.3696  -15.0925 C   0  0  0  0  0  0  0  0  0  0  0  0
  -18.4340    3.0301  -15.8775 N   0  0  0  0  0  0  0  0  0  0  0  0
  -17.2267    2.4975  -15.4673 C   0  0  0  0  0  0  0  0  0  0  0  0
  -17.0370    1.6867  -14.5638 O   0  0  0  0  0  0  0  0  0  0  0  0
  -18.4389    3.6963  -16.6303 H   0  0  0  0  0  0  0  0  0  0  0  0
  -15.9996    2.9567  -16.1898 C   0  0  0  0  0  0  0  0  0  0  0  0
  -15.4144    4.3086  -15.8525 C   0  0  0  0  0  0  0  0  0  0  0  0
  -15.9020    4.0223  -17.2437 C   0  0  0  0  0  0  0  0  0  0  0  0
  -29.1591   -1.9922   -6.1117 C   0  0  0  0  0  0  0  0  0  0  0  0
  -29.1771   -3.1490   -6.8870 C   0  0  0  0  0  0  0  0  0  0  0  0
  -28.7849   -3.1478   -8.2196 C   0  0  0  0  0  0  0  0  0  0  0  0
  -28.3344   -1.9943   -8.8493 C   0  0  0  0  0  0  0  0  0  0  0  0
  -28.2729   -0.8246   -8.0784 C   0  0  0  0  0  0  0  0  0  0  0  0
  -28.6532   -0.8166   -6.6988 C   0  0  0  0  0  0  0  0  0  0  0  0
  -28.5118    0.4819   -5.9332 C   0  0  0  0  0  0  0  0  0  0  0  0
  -27.5235    0.5374   -4.9947 F   0  0  0  0  0  0  0  0  0  0  0  0
  -28.2496    1.5308   -6.7731 F   0  0  0  0  0  0  0  0  0  0  0  0
  -29.6584    0.8320   -5.2783 F   0  0  0  0  0  0  0  0  0  0  0  0
  -29.5403   -2.0394   -4.7684 N   0  0  0  0  0  0  0  0  0  0  0  0
  -29.5980   -1.0914   -4.3925 H   0  0  0  0  0  0  0  0  0  0  0  0
  -32.3938   -5.1302   -2.9958 C   0  0  0  0  0  0  0  0  0  0  0  0
  -30.9849   -4.7313   -2.9222 N   0  0  0  0  0  0  0  0  0  0  0  0
  -30.3714   -4.8844   -4.2508 C   0  0  0  0  0  0  0  0  0  0  0  0
  -28.9217   -4.4090   -4.2545 C   0  0  0  0  0  0  0  0  0  0  0  0
  -28.8324   -2.9403   -3.8255 C   0  0  0  0  0  0  0  0  0  0  0  0
  -29.4616   -2.8143   -2.4374 C   0  0  0  0  0  0  0  0  0  0  0  0
  -30.8947   -3.3459   -2.4324 C   0  0  0  0  0  0  0  0  0  0  0  0
 40 41  1  0  0  0
 41 42  1  0  0  0
 41 46  1  0  0  0
 42 43  1  0  0  0
 43 44  1  0  0  0
 44 38  1  0  0  0
 44 45  1  0  0  0
 38 28  1  0  0  0
 38 39  1  0  0  0
 28 29  1  0  0  0
 28 33  2  0  0  0
 29 30  2  0  0  0
 30 31  1  0  0  0
 31  1  1  0  0  0
 31 32  2  0  0  0
  1  2  1  0  0  0
  1  5  1  0  0  0
  2  3  2  0  0  0
  2  4  1  0  0  0
  4  7  1  0  0  0
  4  6  1  0  0  0
  7  8  1  0  0  0
  7 13  2  0  0  0
  8  9  2  0  0  0
  9 10  1  0  0  0
 10 14  1  0  0  0
 10 11  2  0  0  0
 14 15  1  0  0  0
 15 16  1  0  0  0
 15 20  2  0  0  0
 16 17  2  0  0  0
 17 18  1  0  0  0
 18 19  2  0  0  0
 19 21  1  0  0  0
 19 20  1  0  0  0
 21 22  1  0  0  0
 21 24  1  0  0  0
 22 23  2  0  0  0
 22 25  1  0  0  0
 25 26  1  0  0  0
 25 27  1  0  0  0
 26 27  1  0  0  0
 11 12  1  0  0  0
 11 13  1  0  0  0
 32 33  1  0  0  0
 33 34  1  0  0  0
 34 35  1  0  0  0
 34 36  1  0  0  0
 34 37  1  0  0  0
 45 46  1  0  0  0
M  END
> <minimizedAffinity>
-11.86601

$$$$
