CHEMBL3690389


 31 34  0  0  0  0  0  0  0  0999 V2000
  -28.0895   -1.2438   -6.9104 C   0  0  0  0  0  0  0  0  0  0  0  0
  -27.5561   -0.4691   -5.8847 C   0  0  0  0  0  0  0  0  0  0  0  0
  -27.7103   -0.7480   -4.5699 N   0  0  0  0  0  0  0  0  0  0  0  0
  -28.4375   -1.8443   -4.2651 C   0  0  0  0  0  0  0  0  0  0  0  0
  -29.0598   -2.6757   -5.1961 C   0  0  0  0  0  0  0  0  0  0  0  0
  -28.8455   -2.3675   -6.5452 C   0  0  0  0  0  0  0  0  0  0  0  0
  -29.8246   -3.8616   -4.7884 C   0  0  0  0  0  0  0  0  0  0  0  0
  -30.7450   -4.0240   -3.7632 C   0  0  0  0  0  0  0  0  0  0  0  0
  -31.4299   -5.2058   -3.8708 N   0  0  0  0  0  0  0  0  0  0  0  0
  -30.9220   -5.8028   -4.9259 C   0  0  0  0  0  0  0  0  0  0  0  0
  -31.2989   -7.0036   -5.5966 C   0  0  0  0  0  0  0  0  0  0  0  0
  -30.5648   -7.4871   -6.6323 C   0  0  0  0  0  0  0  0  0  0  0  0
  -29.3163   -6.7924   -6.9919 C   0  0  0  0  0  0  0  0  0  0  0  0
  -28.9940   -5.6310   -6.4042 C   0  0  0  0  0  0  0  0  0  0  0  0
  -29.8348   -5.0961   -5.4288 N   0  0  0  0  0  0  0  0  0  0  0  0
  -31.0679   -8.6571   -7.3029 C   0  0  0  0  0  0  0  0  0  0  0  0
  -32.2875   -8.8372   -7.7823 N   0  0  0  0  0  0  0  0  0  0  0  0
  -32.4676  -10.0622   -8.3886 N   0  0  0  0  0  0  0  0  0  0  0  0
  -31.3675  -10.7788   -8.3761 C   0  0  0  0  0  0  0  0  0  0  0  0
  -30.0329  -10.0198   -7.6273 S   0  0  0  0  0  0  0  0  0  0  0  0
  -27.1308   -3.0106   -9.0719 O   0  0  0  0  0  0  0  0  0  0  0  0
  -27.4539   -1.8454   -9.2413 C   0  0  0  0  0  0  0  0  0  0  0  0
  -27.3881   -1.2406  -10.4781 N   0  0  0  0  0  0  0  0  0  0  0  0
  -27.9261   -0.9739   -8.2853 N   0  0  0  0  0  0  0  0  0  0  0  0
  -27.2238   -0.2449  -10.4704 H   0  0  0  0  0  0  0  0  0  0  0  0
  -28.2064   -0.0610   -8.6074 H   0  0  0  0  0  0  0  0  0  0  0  0
  -26.7761   -1.9777  -11.5909 C   0  0  0  0  0  0  0  0  0  0  0  0
  -25.4644   -1.3835  -12.1230 C   0  0  0  0  0  0  0  0  0  0  0  0
  -25.2916   -0.1020  -11.7224 F   0  0  0  0  0  0  0  0  0  0  0  0
  -24.3858   -2.0943  -11.7387 F   0  0  0  0  0  0  0  0  0  0  0  0
  -25.4812   -1.3678  -13.4793 F   0  0  0  0  0  0  0  0  0  0  0  0
 21 22  2  0  0  0
 22 23  1  0  0  0
 22 24  1  0  0  0
 23 27  1  0  0  0
 23 25  1  0  0  0
 27 28  1  0  0  0
 28 29  1  0  0  0
 28 30  1  0  0  0
 28 31  1  0  0  0
 24  1  1  0  0  0
 24 26  1  0  0  0
  1  2  1  0  0  0
  1  6  2  0  0  0
  2  3  2  0  0  0
  3  4  1  0  0  0
  4  5  2  0  0  0
  5  7  1  0  0  0
  5  6  1  0  0  0
  7  8  2  0  0  0
  7 15  1  0  0  0
  8  9  1  0  0  0
  9 10  2  0  0  0
 10 11  1  0  0  0
 10 15  1  0  0  0
 11 12  2  0  0  0
 12 16  1  0  0  0
 12 13  1  0  0  0
 16 17  2  0  0  0
 16 20  1  0  0  0
 17 18  1  0  0  0
 18 19  2  0  0  0
 19 20  1  0  0  0
 13 14  2  0  0  0
 14 15  1  0  0  0
M  END
> <minimizedAffinity>
-9.15950

$$$$
