CHEMBL3890006


 28 31  0  0  0  0  0  0  0  0999 V2000
  -24.5640   -0.8069  -14.0313 C   0  0  0  0  0  0  0  0  0  0  0  0
  -25.4371   -1.1580  -15.0630 C   0  0  0  0  0  0  0  0  0  0  0  0
  -26.6976   -1.6888  -14.7821 C   0  0  0  0  0  0  0  0  0  0  0  0
  -27.1042   -1.8781  -13.4603 C   0  0  0  0  0  0  0  0  0  0  0  0
  -26.2380   -1.5617  -12.4077 C   0  0  0  0  0  0  0  0  0  0  0  0
  -24.9603   -1.0463  -12.7002 C   0  0  0  0  0  0  0  0  0  0  0  0
  -22.9234    1.0841  -13.9272 C   0  0  0  0  0  0  0  0  0  0  0  0
  -23.6049    1.8927  -13.3062 O   0  0  0  0  0  0  0  0  0  0  0  0
  -23.2985   -0.2119  -14.2799 N   0  0  0  0  0  0  0  0  0  0  0  0
  -22.5688   -0.8334  -14.6023 H   0  0  0  0  0  0  0  0  0  0  0  0
  -17.5594    2.7532  -15.4287 C   0  0  0  0  0  0  0  0  0  0  0  0
  -18.9437    2.3299  -15.0289 C   0  0  0  0  0  0  0  0  0  0  0  0
  -19.8758    3.2567  -14.5487 C   0  0  0  0  0  0  0  0  0  0  0  0
  -21.1635    2.8416  -14.1886 C   0  0  0  0  0  0  0  0  0  0  0  0
  -21.5322    1.4907  -14.2933 C   0  0  0  0  0  0  0  0  0  0  0  0
  -20.6081    0.5679  -14.7901 C   0  0  0  0  0  0  0  0  0  0  0  0
  -19.3230    0.9863  -15.1494 C   0  0  0  0  0  0  0  0  0  0  0  0
  -26.6861   -1.7247  -11.0447 C   0  0  0  0  0  0  0  0  0  0  0  0
  -27.1040   -1.8961   -9.9253 C   0  0  0  0  0  0  0  0  0  0  0  0
  -27.6684   -2.1217   -8.6057 C   0  0  0  0  0  0  0  0  0  0  0  0
  -28.5361   -3.2950   -8.3177 C   0  0  0  0  0  0  0  0  0  0  0  0
  -29.0402   -3.3964   -7.0794 C   0  0  0  0  0  0  0  0  0  0  0  0
  -28.7216   -2.4108   -6.1246 C   0  0  0  0  0  0  0  0  0  0  0  0
  -29.0893   -2.2706   -4.8647 N   0  0  0  0  0  0  0  0  0  0  0  0
  -28.4645   -1.1267   -4.4343 C   0  0  0  0  0  0  0  0  0  0  0  0
  -27.7086   -0.5683   -5.4399 C   0  0  0  0  0  0  0  0  0  0  0  0
  -27.8815   -1.3827   -6.5284 N   0  0  0  0  0  0  0  0  0  0  0  0
  -27.3284   -1.1912   -7.7692 N   0  0  0  0  0  0  0  0  0  0  0  0
 11 12  1  0  0  0
 12 13  1  0  0  0
 12 17  2  0  0  0
 13 14  2  0  0  0
 14 15  1  0  0  0
 15  7  1  0  0  0
 15 16  2  0  0  0
  7  8  2  0  0  0
  7  9  1  0  0  0
  9  1  1  0  0  0
  9 10  1  0  0  0
  1  2  1  0  0  0
  1  6  2  0  0  0
  2  3  2  0  0  0
  3  4  1  0  0  0
  4  5  2  0  0  0
  5 18  1  0  0  0
  5  6  1  0  0  0
 18 19  3  0  0  0
 19 20  1  0  0  0
 20 21  1  0  0  0
 20 28  2  0  0  0
 21 22  2  0  0  0
 22 23  1  0  0  0
 23 24  2  0  0  0
 23 27  1  0  0  0
 24 25  1  0  0  0
 25 26  2  0  0  0
 26 27  1  0  0  0
 27 28  1  0  0  0
 16 17  1  0  0  0
M  END
> <minimizedAffinity>
-11.72646

$$$$
