CHEMBL4213626


 37 39  0  0  0  0  0  0  0  0999 V2000
  -26.4000   -2.3271  -12.2499 C   0  0  0  0  0  0  0  0  0  0  0  0
  -23.3984    0.5511  -13.4912 C   0  0  0  0  0  0  0  0  0  0  0  0
  -23.8371    0.5217  -12.1584 C   0  0  0  0  0  0  0  0  0  0  0  0
  -24.7913   -0.4195  -11.7414 C   0  0  0  0  0  0  0  0  0  0  0  0
  -25.3180   -1.3495  -12.6472 C   0  0  0  0  0  0  0  0  0  0  0  0
  -24.8629   -1.3096  -13.9699 C   0  0  0  0  0  0  0  0  0  0  0  0
  -25.3394   -2.1882  -14.8621 F   0  0  0  0  0  0  0  0  0  0  0  0
  -23.9206   -0.3767  -14.3954 C   0  0  0  0  0  0  0  0  0  0  0  0
  -21.1469    1.1013  -14.6517 C   0  0  0  0  0  0  0  0  0  0  0  0
  -20.2717    2.0289  -15.0876 C   0  0  0  0  0  0  0  0  0  0  0  0
  -20.5350    3.4670  -14.8529 C   0  0  0  0  0  0  0  0  0  0  0  0
  -19.7580    4.3277  -15.2528 O   0  0  0  0  0  0  0  0  0  0  0  0
  -21.6922    3.7637  -14.1839 N   0  0  0  0  0  0  0  0  0  0  0  0
  -22.5853    2.8208  -13.7434 C   0  0  0  0  0  0  0  0  0  0  0  0
  -22.3669    1.5064  -13.9467 C   0  0  0  0  0  0  0  0  0  0  0  0
  -21.8753    4.7487  -14.0406 H   0  0  0  0  0  0  0  0  0  0  0  0
  -21.0306   -0.2614  -14.8134 O   0  0  0  0  0  0  0  0  0  0  0  0
  -18.7024    0.1422  -15.1313 C   0  0  0  0  0  0  0  0  0  0  0  0
  -19.8732   -0.7551  -15.4847 C   0  0  0  0  0  0  0  0  0  0  0  0
  -27.2354   -1.9097  -11.0514 C   0  0  0  0  0  0  0  0  0  0  0  0
  -27.9633   -0.9203  -11.0953 O   0  0  0  0  0  0  0  0  0  0  0  0
  -27.0647   -2.7253   -9.9420 N   0  0  0  0  0  0  0  0  0  0  0  0
  -26.1774   -3.2126   -9.8905 H   0  0  0  0  0  0  0  0  0  0  0  0
  -27.7397   -2.5065   -8.7242 C   0  0  0  0  0  0  0  0  0  0  0  0
  -28.5139   -3.5376   -8.2091 C   0  0  0  0  0  0  0  0  0  0  0  0
  -29.1265   -3.3933   -6.9627 C   0  0  0  0  0  0  0  0  0  0  0  0
  -29.0062   -2.2072   -6.2089 C   0  0  0  0  0  0  0  0  0  0  0  0
  -28.3294   -1.1092   -6.7927 C   0  0  0  0  0  0  0  0  0  0  0  0
  -27.6714   -1.2933   -8.0344 C   0  0  0  0  0  0  0  0  0  0  0  0
  -28.2601    0.2813   -6.1889 C   0  0  0  0  0  0  0  0  0  0  0  0
  -27.7903    1.2582   -7.0128 F   0  0  0  0  0  0  0  0  0  0  0  0
  -29.4721    0.7222   -5.7518 F   0  0  0  0  0  0  0  0  0  0  0  0
  -27.4369    0.3238   -5.1003 F   0  0  0  0  0  0  0  0  0  0  0  0
  -29.6426   -2.1311   -4.8245 C   0  0  0  0  0  0  0  0  0  0  0  0
  -29.7348   -3.4140   -4.0903 N   0  0  0  0  0  0  0  0  0  0  0  0
  -28.4368   -3.8048   -3.5239 C   0  0  0  0  0  0  0  0  0  0  0  0
  -30.7024   -3.2702   -2.9939 C   0  0  0  0  0  0  0  0  0  0  0  0
 18 19  1  0  0  0
 19 17  1  0  0  0
 17  9  1  0  0  0
  9 10  2  0  0  0
  9 15  1  0  0  0
 10 11  1  0  0  0
 11 12  2  0  0  0
 11 13  1  0  0  0
 13 14  1  0  0  0
 13 16  1  0  0  0
 14 15  2  0  0  0
 15  2  1  0  0  0
  2  3  1  0  0  0
  2  8  2  0  0  0
  3  4  2  0  0  0
  4  5  1  0  0  0
  5  1  1  0  0  0
  5  6  2  0  0  0
  1 20  1  0  0  0
 20 21  2  0  0  0
 20 22  1  0  0  0
 22 24  1  0  0  0
 22 23  1  0  0  0
 24 25  1  0  0  0
 24 29  2  0  0  0
 25 26  2  0  0  0
 26 27  1  0  0  0
 27 34  1  0  0  0
 27 28  2  0  0  0
 34 35  1  0  0  0
 35 36  1  0  0  0
 35 37  1  0  0  0
 28 30  1  0  0  0
 28 29  1  0  0  0
 30 31  1  0  0  0
 30 32  1  0  0  0
 30 33  1  0  0  0
  6  7  1  0  0  0
  6  8  1  0  0  0
M  END
> <minimizedAffinity>
-8.61306

$$$$
