CHEMBL3902261


 45 49  0  0  0  0  0  0  0  0999 V2000
  -17.1580    1.1623  -14.4825 N   0  0  0  0  0  0  0  0  0  0  0  0
  -17.1772    1.9304  -15.6194 C   0  0  0  0  0  0  0  0  0  0  0  0
  -16.1958    2.1629  -16.3213 O   0  0  0  0  0  0  0  0  0  0  0  0
  -18.4077    2.3920  -16.0212 N   0  0  0  0  0  0  0  0  0  0  0  0
  -18.0151    0.9500  -14.0005 H   0  0  0  0  0  0  0  0  0  0  0  0
  -18.4015    2.6203  -17.0082 H   0  0  0  0  0  0  0  0  0  0  0  0
  -19.6392    2.1736  -15.3861 C   0  0  0  0  0  0  0  0  0  0  0  0
  -20.0595    0.8592  -15.1957 C   0  0  0  0  0  0  0  0  0  0  0  0
  -21.2206    0.6003  -14.4601 C   0  0  0  0  0  0  0  0  0  0  0  0
  -21.9569    1.6548  -13.9028 C   0  0  0  0  0  0  0  0  0  0  0  0
  -21.5724    2.9659  -14.1855 C   0  0  0  0  0  0  0  0  0  0  0  0
  -22.2891    3.9986  -13.7183 F   0  0  0  0  0  0  0  0  0  0  0  0
  -20.4256    3.2321  -14.9280 C   0  0  0  0  0  0  0  0  0  0  0  0
  -23.0833    1.4800  -13.1280 O   0  0  0  0  0  0  0  0  0  0  0  0
  -23.8216    0.3151  -13.2384 C   0  0  0  0  0  0  0  0  0  0  0  0
  -24.0531   -0.3404  -14.4419 C   0  0  0  0  0  0  0  0  0  0  0  0
  -24.8626   -1.4567  -14.4125 C   0  0  0  0  0  0  0  0  0  0  0  0
  -25.3716   -1.9698  -13.2806 N   0  0  0  0  0  0  0  0  0  0  0  0
  -25.0788   -1.3914  -12.1136 C   0  0  0  0  0  0  0  0  0  0  0  0
  -24.3031   -0.2331  -12.0479 C   0  0  0  0  0  0  0  0  0  0  0  0
  -25.5726   -1.9472  -10.9208 N   0  0  0  0  0  0  0  0  0  0  0  0
  -26.8748   -1.7787  -10.4806 C   0  0  0  0  0  0  0  0  0  0  0  0
  -27.7804   -1.1744  -11.0304 O   0  0  0  0  0  0  0  0  0  0  0  0
  -24.9423   -2.4893  -10.3509 H   0  0  0  0  0  0  0  0  0  0  0  0
  -27.1350   -2.3925   -9.1385 C   0  0  0  0  0  0  0  0  0  0  0  0
  -28.5475   -2.7174   -8.6958 C   0  0  0  0  0  0  0  0  0  0  0  0
  -27.8264   -1.5516   -8.0881 C   0  0  0  0  0  0  0  0  0  0  0  0
  -15.0079   -1.6286  -13.3572 C   0  0  0  0  0  0  0  0  0  0  0  0
  -16.1459   -0.8903  -13.7100 C   0  0  0  0  0  0  0  0  0  0  0  0
  -16.0372    0.4464  -14.0725 C   0  0  0  0  0  0  0  0  0  0  0  0
  -14.8346    1.1232  -13.9383 C   0  0  0  0  0  0  0  0  0  0  0  0
  -13.6968    0.4343  -13.5105 C   0  0  0  0  0  0  0  0  0  0  0  0
  -13.7778   -0.9550  -13.2799 C   0  0  0  0  0  0  0  0  0  0  0  0
  -12.4179    1.1871  -13.2493 C   0  0  0  0  0  0  0  0  0  0  0  0
  -12.5455    2.1533  -12.2940 F   0  0  0  0  0  0  0  0  0  0  0  0
  -11.4279    0.3644  -12.8011 F   0  0  0  0  0  0  0  0  0  0  0  0
  -11.9241    1.8101  -14.3502 F   0  0  0  0  0  0  0  0  0  0  0  0
  -15.1366   -3.1059  -13.0320 C   0  0  0  0  0  0  0  0  0  0  0  0
  -13.5756   -5.2031   -8.9930 C   0  0  0  0  0  0  0  0  0  0  0  0
  -14.7744   -4.7461   -9.6890 N   0  0  0  0  0  0  0  0  0  0  0  0
  -14.7268   -3.2937   -9.9246 C   0  0  0  0  0  0  0  0  0  0  0  0
  -15.9687   -2.8049  -10.7058 C   0  0  0  0  0  0  0  0  0  0  0  0
  -16.1573   -3.4514  -12.0247 N   0  0  0  0  0  0  0  0  0  0  0  0
  -16.1713   -4.9180  -11.7849 C   0  0  0  0  0  0  0  0  0  0  0  0
  -14.9693   -5.4637  -10.9628 C   0  0  0  0  0  0  0  0  0  0  0  0
 39 40  1  0  0  0
 40 41  1  0  0  0
 40 45  1  0  0  0
 41 42  1  0  0  0
 42 43  1  0  0  0
 43 38  1  0  0  0
 43 44  1  0  0  0
 38 28  1  0  0  0
 28 29  1  0  0  0
 28 33  2  0  0  0
 29 30  2  0  0  0
 30  1  1  0  0  0
 30 31  1  0  0  0
  1  2  1  0  0  0
  1  5  1  0  0  0
  2  3  2  0  0  0
  2  4  1  0  0  0
  4  7  1  0  0  0
  4  6  1  0  0  0
  7  8  1  0  0  0
  7 13  2  0  0  0
  8  9  2  0  0  0
  9 10  1  0  0  0
 10 14  1  0  0  0
 10 11  2  0  0  0
 14 15  1  0  0  0
 15 16  1  0  0  0
 15 20  2  0  0  0
 16 17  2  0  0  0
 17 18  1  0  0  0
 18 19  2  0  0  0
 19 21  1  0  0  0
 19 20  1  0  0  0
 21 22  1  0  0  0
 21 24  1  0  0  0
 22 23  2  0  0  0
 22 25  1  0  0  0
 25 26  1  0  0  0
 25 27  1  0  0  0
 26 27  1  0  0  0
 11 12  1  0  0  0
 11 13  1  0  0  0
 31 32  2  0  0  0
 32 34  1  0  0  0
 32 33  1  0  0  0
 34 35  1  0  0  0
 34 36  1  0  0  0
 34 37  1  0  0  0
 44 45  1  0  0  0
M  END
> <minimizedAffinity>
-11.26859

$$$$
