CHEMBL3128231


 39 43  0  0  0  0  0  0  0  0999 V2000
  -15.0489    0.9314  -16.4921 C   0  0  0  0  0  0  0  0  0  0  0  0
  -18.5410    1.8600  -15.1679 C   0  0  0  0  0  0  0  0  0  0  0  0
  -18.4903    3.2497  -15.3173 C   0  0  0  0  0  0  0  0  0  0  0  0
  -17.3755    3.8779  -15.8720 C   0  0  0  0  0  0  0  0  0  0  0  0
  -16.2721    3.1245  -16.2574 C   0  0  0  0  0  0  0  0  0  0  0  0
  -16.2631    1.7353  -16.0651 C   0  0  0  0  0  0  0  0  0  0  0  0
  -17.4093    1.1090  -15.5265 C   0  0  0  0  0  0  0  0  0  0  0  0
  -21.2618    2.9010  -14.9095 O   0  0  0  0  0  0  0  0  0  0  0  0
  -20.9495    1.7681  -14.5598 C   0  0  0  0  0  0  0  0  0  0  0  0
  -19.6915    1.1883  -14.6723 N   0  0  0  0  0  0  0  0  0  0  0  0
  -19.6154    0.1875  -14.5460 H   0  0  0  0  0  0  0  0  0  0  0  0
  -22.0483    0.9285  -14.0095 C   0  0  0  0  0  0  0  0  0  0  0  0
  -23.0304    1.5837  -13.2471 C   0  0  0  0  0  0  0  0  0  0  0  0
  -24.0259    0.8633  -12.5890 C   0  0  0  0  0  0  0  0  0  0  0  0
  -24.0315   -0.5325  -12.6835 C   0  0  0  0  0  0  0  0  0  0  0  0
  -23.0569   -1.2000  -13.4460 C   0  0  0  0  0  0  0  0  0  0  0  0
  -22.0617   -0.4657  -14.1118 C   0  0  0  0  0  0  0  0  0  0  0  0
  -25.0531   -1.2994  -11.9555 N   0  0  0  0  0  0  0  0  0  0  0  0
  -26.0503   -1.6787  -12.5856 O   0  0  0  0  0  0  0  0  0  0  0  0
  -24.8509   -1.5242  -10.7529 O   0  0  0  0  0  0  0  0  0  0  0  0
  -14.1812    0.7594  -15.3428 N   0  0  0  0  0  0  0  0  0  0  0  0
  -14.2762    1.4832  -14.6419 H   0  0  0  0  0  0  0  0  0  0  0  0
  -14.0730   -0.5196  -14.8030 C   0  0  0  0  0  0  0  0  0  0  0  0
  -13.2855   -1.4562  -15.3802 N   0  0  0  0  0  0  0  0  0  0  0  0
  -13.1616   -2.6623  -14.7808 C   0  0  0  0  0  0  0  0  0  0  0  0
  -13.7372   -3.0904  -13.6429 N   0  0  0  0  0  0  0  0  0  0  0  0
  -14.5127   -2.1376  -13.0964 C   0  0  0  0  0  0  0  0  0  0  0  0
  -14.7318   -0.8722  -13.6142 C   0  0  0  0  0  0  0  0  0  0  0  0
  -15.6262   -0.2737  -12.7086 C   0  0  0  0  0  0  0  0  0  0  0  0
  -15.9476   -1.0707  -11.6865 N   0  0  0  0  0  0  0  0  0  0  0  0
  -15.2275   -2.1977  -11.9222 N   0  0  0  0  0  0  0  0  0  0  0  0
  -15.3418   -3.2920  -10.9726 C   0  0  0  0  0  0  0  0  0  0  0  0
  -16.3361   -4.3893  -11.3460 C   0  0  0  0  0  0  0  0  0  0  0  0
  -15.6610   -5.5909  -11.9655 C   0  0  0  0  0  0  0  0  0  0  0  0
  -16.1062   -6.0898  -13.1980 C   0  0  0  0  0  0  0  0  0  0  0  0
  -15.4634   -7.1736  -13.7977 C   0  0  0  0  0  0  0  0  0  0  0  0
  -14.3758   -7.7747  -13.1680 C   0  0  0  0  0  0  0  0  0  0  0  0
  -13.9389   -7.3006  -11.9321 C   0  0  0  0  0  0  0  0  0  0  0  0
  -14.5806   -6.2160  -11.3297 C   0  0  0  0  0  0  0  0  0  0  0  0
  8  9  2  0  0  0
  9 10  1  0  0  0
  9 12  1  0  0  0
 10  2  1  0  0  0
 10 11  1  0  0  0
  2  3  1  0  0  0
  2  7  2  0  0  0
  3  4  2  0  0  0
  4  5  1  0  0  0
  5  6  2  0  0  0
  6  1  1  0  0  0
  6  7  1  0  0  0
  1 21  1  0  0  0
 21 23  1  0  0  0
 21 22  1  0  0  0
 23 24  1  0  0  0
 23 28  2  0  0  0
 24 25  2  0  0  0
 25 26  1  0  0  0
 26 27  2  0  0  0
 27 28  1  0  0  0
 27 31  1  0  0  0
 28 29  1  0  0  0
 29 30  2  0  0  0
 30 31  1  0  0  0
 31 32  1  0  0  0
 32 33  1  0  0  0
 33 34  1  0  0  0
 34 35  1  0  0  0
 34 39  2  0  0  0
 35 36  2  0  0  0
 36 37  1  0  0  0
 37 38  2  0  0  0
 38 39  1  0  0  0
 12 13  1  0  0  0
 12 17  2  0  0  0
 13 14  2  0  0  0
 14 15  1  0  0  0
 15 18  1  0  0  0
 15 16  2  0  0  0
 18 19  2  0  0  0
 18 20  1  0  0  0
 16 17  1  0  0  0
M  CHG 1  18   1
M  CHG 1  20  -1
M  END
> <minimizedAffinity>
-10.32893

$$$$
