CHEMBL3910031


 33 37  0  0  0  0  0  0  0  0999 V2000
  -13.7203    0.6877  -13.5682 C   0  0  0  0  0  0  0  0  0  0  0  0
  -13.5911    1.6930  -14.5306 C   0  0  0  0  0  0  0  0  0  0  0  0
  -14.7236    2.2355  -15.1777 C   0  0  0  0  0  0  0  0  0  0  0  0
  -14.6798    3.2364  -16.1571 C   0  0  0  0  0  0  0  0  0  0  0  0
  -15.8007    3.7498  -16.7039 N   0  0  0  0  0  0  0  0  0  0  0  0
  -16.9615    3.2448  -16.2876 C   0  0  0  0  0  0  0  0  0  0  0  0
  -17.1142    2.2816  -15.3736 N   0  0  0  0  0  0  0  0  0  0  0  0
  -15.9989    1.7902  -14.8283 C   0  0  0  0  0  0  0  0  0  0  0  0
  -16.1170    0.7890  -13.8758 C   0  0  0  0  0  0  0  0  0  0  0  0
  -15.0037    0.2098  -13.2515 C   0  0  0  0  0  0  0  0  0  0  0  0
  -11.5805   -0.3565  -13.6823 C   0  0  0  0  0  0  0  0  0  0  0  0
  -12.6563    0.1446  -12.8916 O   0  0  0  0  0  0  0  0  0  0  0  0
  -13.4226    3.7334  -16.6034 N   0  0  0  0  0  0  0  0  0  0  0  0
  -13.2536    3.3884  -17.5432 H   0  0  0  0  0  0  0  0  0  0  0  0
  -13.0182    5.0763  -16.4318 C   0  0  0  0  0  0  0  0  0  0  0  0
  -13.1182    5.9811  -17.4965 C   0  0  0  0  0  0  0  0  0  0  0  0
  -12.6141    7.2759  -17.3877 C   0  0  0  0  0  0  0  0  0  0  0  0
  -12.0147    7.6898  -16.1983 C   0  0  0  0  0  0  0  0  0  0  0  0
  -11.2615    9.4316  -16.1634 Br  0  0  0  0  0  0  0  0  0  0  0  0
  -11.9666    6.8167  -15.1057 C   0  0  0  0  0  0  0  0  0  0  0  0
  -11.2610    7.2627  -13.5912 Cl  0  0  0  0  0  0  0  0  0  0  0  0
  -12.4797    5.5178  -15.2195 C   0  0  0  0  0  0  0  0  0  0  0  0
  -15.0935   -0.8491  -12.3754 O   0  0  0  0  0  0  0  0  0  0  0  0
  -15.5567   -2.1089  -12.8971 C   0  0  0  0  0  0  0  0  0  0  0  0
  -14.5844   -2.6998  -13.9189 C   0  0  0  0  0  0  0  0  0  0  0  0
  -13.6279   -3.4928  -13.2028 O   0  0  0  0  0  0  0  0  0  0  0  0
  -14.3035   -4.0195  -12.0542 C   0  0  0  0  0  0  0  0  0  0  0  0
  -14.8796   -5.3998  -12.3632 C   0  0  0  0  0  0  0  0  0  0  0  0
  -16.2067   -5.3460  -11.6332 C   0  0  0  0  0  0  0  0  0  0  0  0
  -16.6795   -4.0031  -11.8104 O   0  0  0  0  0  0  0  0  0  0  0  0
  -15.5209   -3.1443  -11.7762 C   0  0  0  0  0  0  0  0  0  0  0  0
  -14.0790   -6.4871  -11.9054 O   0  0  0  0  0  0  0  0  0  0  0  0
  -14.3136   -7.6814  -12.6469 C   0  0  0  0  0  0  0  0  0  0  0  0
 11 12  1  0  0  0
 12  1  1  0  0  0
  1  2  1  0  0  0
  1 10  2  0  0  0
  2  3  2  0  0  0
  3  4  1  0  0  0
  3  8  1  0  0  0
  4 13  1  0  0  0
  4  5  2  0  0  0
 13 15  1  0  0  0
 13 14  1  0  0  0
 15 16  1  0  0  0
 15 22  2  0  0  0
 16 17  2  0  0  0
 17 18  1  0  0  0
 18 19  1  0  0  0
 18 20  2  0  0  0
 20 21  1  0  0  0
 20 22  1  0  0  0
  5  6  1  0  0  0
  6  7  2  0  0  0
  7  8  1  0  0  0
  8  9  2  0  0  0
  9 10  1  0  0  0
 10 23  1  0  0  0
 24 25  1  0  0  0
 24 31  1  0  0  0
 24 23  1  0  0  0
 25 26  1  0  0  0
 26 27  1  0  0  0
 27 28  1  0  0  0
 27 31  1  0  0  0
 28 32  1  0  0  0
 28 29  1  0  0  0
 32 33  1  0  0  0
 29 30  1  0  0  0
 30 31  1  0  0  0
M  END
> <minimizedAffinity>
-6.94239

$$$$
