CHEMBL3892025


 36 39  0  0  0  0  0  0  0  0999 V2000
  -16.0442    1.8426  -15.5270 N   0  0  0  0  0  0  0  0  0  0  0  0
  -17.4711    1.9610  -15.5666 C   0  0  0  0  0  0  0  0  0  0  0  0
  -17.9563    3.2091  -15.9784 C   0  0  0  0  0  0  0  0  0  0  0  0
  -19.2034    3.6415  -15.5837 C   0  0  0  0  0  0  0  0  0  0  0  0
  -20.0700    2.8201  -14.9103 C   0  0  0  0  0  0  0  0  0  0  0  0
  -21.1535    3.4456  -14.4564 N   0  0  0  0  0  0  0  0  0  0  0  0
  -22.0952    2.6751  -13.8990 C   0  0  0  0  0  0  0  0  0  0  0  0
  -21.9986    1.2995  -13.8548 C   0  0  0  0  0  0  0  0  0  0  0  0
  -20.8427    0.6543  -14.2359 N   0  0  0  0  0  0  0  0  0  0  0  0
  -19.7968    1.4409  -14.7263 C   0  0  0  0  0  0  0  0  0  0  0  0
  -18.4384    1.0451  -15.0439 C   0  0  0  0  0  0  0  0  0  0  0  0
  -23.2218    0.5961  -13.4748 C   0  0  0  0  0  0  0  0  0  0  0  0
  -23.8187    0.4275  -12.1962 C   0  0  0  0  0  0  0  0  0  0  0  0
  -24.7814   -0.5050  -12.1844 N   0  0  0  0  0  0  0  0  0  0  0  0
  -24.8012   -0.9480  -13.4527 N   0  0  0  0  0  0  0  0  0  0  0  0
  -25.8829   -1.7807  -13.9260 C   0  0  0  0  0  0  0  0  0  0  0  0
  -23.7805   -0.4395  -14.2091 C   0  0  0  0  0  0  0  0  0  0  0  0
  -13.3401    4.4157  -15.9731 C   0  0  0  0  0  0  0  0  0  0  0  0
  -12.6187    3.8698  -17.0206 C   0  0  0  0  0  0  0  0  0  0  0  0
  -13.1145    2.7366  -17.6755 C   0  0  0  0  0  0  0  0  0  0  0  0
  -14.2997    2.1180  -17.2405 C   0  0  0  0  0  0  0  0  0  0  0  0
  -14.9914    2.5858  -16.1246 C   0  0  0  0  0  0  0  0  0  0  0  0
  -14.5378    3.8142  -15.5826 C   0  0  0  0  0  0  0  0  0  0  0  0
  -11.6105    5.6392  -14.8873 C   0  0  0  0  0  0  0  0  0  0  0  0
  -12.9835    5.5168  -15.2394 O   0  0  0  0  0  0  0  0  0  0  0  0
  -12.5170    2.1312  -18.7495 O   0  0  0  0  0  0  0  0  0  0  0  0
  -12.6191    0.7208  -18.8315 C   0  0  0  0  0  0  0  0  0  0  0  0
  -15.6590    0.5244  -14.8983 C   0  0  0  0  0  0  0  0  0  0  0  0
  -14.7157    0.6794  -13.6952 C   0  0  0  0  0  0  0  0  0  0  0  0
  -15.1375    0.6386  -12.5409 O   0  0  0  0  0  0  0  0  0  0  0  0
  -13.3826    0.8419  -13.9890 N   0  0  0  0  0  0  0  0  0  0  0  0
  -13.1472    1.0312  -14.9569 H   0  0  0  0  0  0  0  0  0  0  0  0
  -12.3748    1.1159  -12.9878 C   0  0  0  0  0  0  0  0  0  0  0  0
  -12.2387    2.6091  -12.7024 C   0  0  0  0  0  0  0  0  0  0  0  0
  -12.5950    2.8874  -11.3478 O   0  0  0  0  0  0  0  0  0  0  0  0
  -13.5214    2.5979  -11.2539 H   0  0  0  0  0  0  0  0  0  0  0  0
 24 25  1  0  0  0
 25 18  1  0  0  0
 18 19  1  0  0  0
 18 23  2  0  0  0
 19 20  2  0  0  0
 20 26  1  0  0  0
 20 21  1  0  0  0
 26 27  1  0  0  0
 21 22  2  0  0  0
 22  1  1  0  0  0
 22 23  1  0  0  0
  1 28  1  0  0  0
  1  2  1  0  0  0
 28 29  1  0  0  0
 29 30  2  0  0  0
 29 31  1  0  0  0
 31 33  1  0  0  0
 31 32  1  0  0  0
 33 34  1  0  0  0
 34 35  1  0  0  0
 35 36  1  0  0  0
  2  3  1  0  0  0
  2 11  2  0  0  0
  3  4  2  0  0  0
  4  5  1  0  0  0
  5  6  1  0  0  0
  5 10  2  0  0  0
  6  7  2  0  0  0
  7  8  1  0  0  0
  8 12  1  0  0  0
  8  9  2  0  0  0
 12 13  1  0  0  0
 12 17  2  0  0  0
 13 14  2  0  0  0
 14 15  1  0  0  0
 15 16  1  0  0  0
 15 17  1  0  0  0
  9 10  1  0  0  0
 10 11  1  0  0  0
M  END
> <minimizedAffinity>
-8.64709

$$$$
