CHEMBL3890300


 38 43  0  0  0  0  0  0  0  0999 V2000
  -13.2028    2.2659  -15.1873 C   0  0  0  0  0  0  0  0  0  0  0  0
  -14.0105    1.4665  -14.3828 C   0  0  0  0  0  0  0  0  0  0  0  0
  -15.3945    1.3573  -14.6155 C   0  0  0  0  0  0  0  0  0  0  0  0
  -16.2697    0.6105  -13.8077 C   0  0  0  0  0  0  0  0  0  0  0  0
  -17.5806    0.5237  -14.0870 N   0  0  0  0  0  0  0  0  0  0  0  0
  -18.0179    1.1780  -15.1640 C   0  0  0  0  0  0  0  0  0  0  0  0
  -17.2727    1.9247  -15.9914 N   0  0  0  0  0  0  0  0  0  0  0  0
  -15.9688    2.0129  -15.7103 C   0  0  0  0  0  0  0  0  0  0  0  0
  -15.1528    2.7995  -16.5200 C   0  0  0  0  0  0  0  0  0  0  0  0
  -13.7842    2.9517  -16.2625 C   0  0  0  0  0  0  0  0  0  0  0  0
  -11.4496    3.2164  -13.8840 C   0  0  0  0  0  0  0  0  0  0  0  0
  -11.8530    2.4204  -14.9948 O   0  0  0  0  0  0  0  0  0  0  0  0
  -15.7401   -0.0650  -12.6697 N   0  0  0  0  0  0  0  0  0  0  0  0
  -16.1228    0.3473  -11.8251 H   0  0  0  0  0  0  0  0  0  0  0  0
  -15.5323   -1.4495  -12.5054 C   0  0  0  0  0  0  0  0  0  0  0  0
  -15.8322   -2.1147  -11.3177 C   0  0  0  0  0  0  0  0  0  0  0  0
  -15.5980   -3.4843  -11.1741 C   0  0  0  0  0  0  0  0  0  0  0  0
  -15.0987   -4.2547  -12.2222 C   0  0  0  0  0  0  0  0  0  0  0  0
  -14.8997   -3.5993  -13.4471 C   0  0  0  0  0  0  0  0  0  0  0  0
  -15.1217   -2.2235  -13.5929 C   0  0  0  0  0  0  0  0  0  0  0  0
  -14.8213   -5.6025  -12.0877 N   0  0  0  0  0  0  0  0  0  0  0  0
  -14.0266   -6.1426  -10.9732 C   0  0  0  0  0  0  0  0  0  0  0  0
  -12.7386   -6.8388  -11.4713 C   0  0  0  0  0  0  0  0  0  0  0  0
  -12.9281   -7.8369  -12.5466 N   0  0  0  0  0  0  0  0  0  0  0  0
  -13.6534   -9.0120  -12.0644 C   0  0  0  0  0  0  0  0  0  0  0  0
  -13.6551   -7.1864  -13.6550 C   0  0  0  0  0  0  0  0  0  0  0  0
  -13.9191   -8.1210  -14.6096 F   0  0  0  0  0  0  0  0  0  0  0  0
  -14.9817   -6.4887  -13.2600 C   0  0  0  0  0  0  0  0  0  0  0  0
  -12.9718    3.8181  -16.9464 O   0  0  0  0  0  0  0  0  0  0  0  0
  -13.3141    5.2089  -16.9756 C   0  0  0  0  0  0  0  0  0  0  0  0
  -12.2678    6.0732  -16.2712 C   0  0  0  0  0  0  0  0  0  0  0  0
  -11.6938    6.9894  -17.2166 O   0  0  0  0  0  0  0  0  0  0  0  0
  -12.5145    6.9945  -18.3841 C   0  0  0  0  0  0  0  0  0  0  0  0
  -13.6421    8.0026  -18.3153 C   0  0  0  0  0  0  0  0  0  0  0  0
  -13.2878    9.1586  -18.9286 F   0  0  0  0  0  0  0  0  0  0  0  0
  -14.7542    7.3163  -19.0769 C   0  0  0  0  0  0  0  0  0  0  0  0
  -14.5395    5.8988  -18.9911 O   0  0  0  0  0  0  0  0  0  0  0  0
  -13.2363    5.6699  -18.4320 C   0  0  0  0  0  0  0  0  0  0  0  0
 11 12  1  0  0  0
 12  1  1  0  0  0
  1  2  1  0  0  0
  1 10  2  0  0  0
  2  3  2  0  0  0
  3  4  1  0  0  0
  3  8  1  0  0  0
  4 13  1  0  0  0
  4  5  2  0  0  0
 13 15  1  0  0  0
 13 14  1  0  0  0
 15 16  1  0  0  0
 15 20  2  0  0  0
 16 17  2  0  0  0
 17 18  1  0  0  0
 18 21  1  0  0  0
 18 19  2  0  0  0
 21 22  1  0  0  0
 21 28  1  0  0  0
 22 23  1  0  0  0
 23 24  1  0  0  0
 24 25  1  0  0  0
 24 26  1  0  0  0
 26 27  1  0  0  0
 26 28  1  0  0  0
 19 20  1  0  0  0
  5  6  1  0  0  0
  6  7  2  0  0  0
  7  8  1  0  0  0
  8  9  2  0  0  0
  9 10  1  0  0  0
 10 29  1  0  0  0
 30 31  1  0  0  0
 30 38  1  0  0  0
 30 29  1  0  0  0
 31 32  1  0  0  0
 32 33  1  0  0  0
 33 34  1  0  0  0
 33 38  1  0  0  0
 34 35  1  0  0  0
 34 36  1  0  0  0
 36 37  1  0  0  0
 37 38  1  0  0  0
M  END
> <minimizedAffinity>
-7.44360

$$$$
