CHEMBL178174


 36 39  0  0  0  0  0  0  0  0999 V2000
  -28.2395   -1.8424   -7.5701 C   0  0  0  0  0  0  0  0  0  0  0  0
  -27.8319   -0.6626   -7.1857 N   0  0  0  0  0  0  0  0  0  0  0  0
  -27.4354   -0.4382   -5.9028 C   0  0  0  0  0  0  0  0  0  0  0  0
  -27.4123   -1.3045   -4.9489 N   0  0  0  0  0  0  0  0  0  0  0  0
  -27.8337   -2.5221   -5.3134 N   0  0  0  0  0  0  0  0  0  0  0  0
  -27.8934   -3.5756   -4.4594 C   0  0  0  0  0  0  0  0  0  0  0  0
  -28.3959   -4.6630   -5.1247 C   0  0  0  0  0  0  0  0  0  0  0  0
  -28.6535   -4.2435   -6.4905 C   0  0  0  0  0  0  0  0  0  0  0  0
  -28.2633   -2.8927   -6.5627 C   0  0  0  0  0  0  0  0  0  0  0  0
  -28.5986   -5.9095   -4.5439 N   0  0  0  0  0  0  0  0  0  0  0  0
  -29.7321   -6.2965   -3.8669 C   0  0  0  0  0  0  0  0  0  0  0  0
  -30.7640   -5.6584   -3.6867 O   0  0  0  0  0  0  0  0  0  0  0  0
  -27.8091   -6.5224   -4.4287 H   0  0  0  0  0  0  0  0  0  0  0  0
  -29.4982   -7.5046   -3.2700 O   0  0  0  0  0  0  0  0  0  0  0  0
  -28.4914   -8.2883   -3.9281 C   0  0  0  0  0  0  0  0  0  0  0  0
  -29.0173   -9.4380   -4.7828 C   0  0  0  0  0  0  0  0  0  0  0  0
  -28.2950   -9.5754   -6.1190 C   0  0  0  0  0  0  0  0  0  0  0  0
  -29.2170   -9.5707   -7.2443 N   0  0  0  0  0  0  0  0  0  0  0  0
  -30.5427   -9.3739   -7.0624 N   0  0  0  0  0  0  0  0  0  0  0  0
  -30.9989   -9.4786   -8.3159 C   0  0  0  0  0  0  0  0  0  0  0  0
  -29.9370   -9.7279   -9.1914 C   0  0  0  0  0  0  0  0  0  0  0  0
  -28.7862   -9.7918   -8.5100 N   0  0  0  0  0  0  0  0  0  0  0  0
  -29.1907   -5.1162   -7.6119 C   0  0  0  0  0  0  0  0  0  0  0  0
  -28.1959   -6.2005   -8.0431 C   0  0  0  0  0  0  0  0  0  0  0  0
  -30.5463   -5.7486   -7.2891 C   0  0  0  0  0  0  0  0  0  0  0  0
  -28.5874   -2.0004   -8.9015 N   0  0  0  0  0  0  0  0  0  0  0  0
  -29.4943   -2.3784   -9.1203 H   0  0  0  0  0  0  0  0  0  0  0  0
  -25.0491   -1.2230  -13.3789 C   0  0  0  0  0  0  0  0  0  0  0  0
  -25.9634   -1.4077  -12.2019 C   0  0  0  0  0  0  0  0  0  0  0  0
  -27.3443   -1.2732  -12.3559 C   0  0  0  0  0  0  0  0  0  0  0  0
  -28.2012   -1.4640  -11.2669 C   0  0  0  0  0  0  0  0  0  0  0  0
  -27.7147   -1.8202  -10.0000 C   0  0  0  0  0  0  0  0  0  0  0  0
  -26.3251   -1.9187   -9.8393 C   0  0  0  0  0  0  0  0  0  0  0  0
  -25.4673   -1.7095  -10.9306 C   0  0  0  0  0  0  0  0  0  0  0  0
  -24.1104   -1.7926  -10.7740 O   0  0  0  0  0  0  0  0  0  0  0  0
  -23.9043   -1.8836   -9.8304 H   0  0  0  0  0  0  0  0  0  0  0  0
 28 29  1  0  0  0
 29 30  1  0  0  0
 29 34  2  0  0  0
 30 31  2  0  0  0
 31 32  1  0  0  0
 32 26  1  0  0  0
 32 33  2  0  0  0
 26  1  1  0  0  0
 26 27  1  0  0  0
  1  2  2  0  0  0
  1  9  1  0  0  0
  2  3  1  0  0  0
  3  4  2  0  0  0
  4  5  1  0  0  0
  5  6  1  0  0  0
  5  9  1  0  0  0
  6  7  2  0  0  0
  7 10  1  0  0  0
  7  8  1  0  0  0
 10 11  1  0  0  0
 10 13  1  0  0  0
 11 12  2  0  0  0
 11 14  1  0  0  0
 14 15  1  0  0  0
 15 16  1  0  0  0
 16 17  1  0  0  0
 17 18  1  0  0  0
 18 19  1  0  0  0
 18 22  1  0  0  0
 19 20  2  0  0  0
 20 21  1  0  0  0
 21 22  2  0  0  0
  8 23  1  0  0  0
  8  9  2  0  0  0
 23 24  1  0  0  0
 23 25  1  0  0  0
 33 34  1  0  0  0
 34 35  1  0  0  0
 35 36  1  0  0  0
M  END
> <minimizedAffinity>
-7.71137

$$$$
