CHEMBL153843


 29 31  0  0  0  0  0  0  0  0999 V2000
  -16.1156    1.0688  -15.2376 C   0  0  0  0  0  0  0  0  0  0  0  0
  -15.9291    1.8400  -16.4068 C   0  0  0  0  0  0  0  0  0  0  0  0
  -14.7616    1.7471  -17.1551 C   0  0  0  0  0  0  0  0  0  0  0  0
  -13.7737    0.8643  -16.7543 C   0  0  0  0  0  0  0  0  0  0  0  0
  -13.9524    0.0877  -15.6034 C   0  0  0  0  0  0  0  0  0  0  0  0
  -15.0968    0.1989  -14.7827 C   0  0  0  0  0  0  0  0  0  0  0  0
  -17.3609    1.4054  -13.3042 O   0  0  0  0  0  0  0  0  0  0  0  0
  -17.4035    1.3250  -14.5290 C   0  0  0  0  0  0  0  0  0  0  0  0
  -18.5330    1.4779  -15.3146 N   0  0  0  0  0  0  0  0  0  0  0  0
  -18.3951    1.4161  -16.3185 H   0  0  0  0  0  0  0  0  0  0  0  0
  -19.8328    1.8044  -14.8532 C   0  0  0  0  0  0  0  0  0  0  0  0
  -20.2916    3.1171  -14.6856 C   0  0  0  0  0  0  0  0  0  0  0  0
  -21.5982    3.3754  -14.2601 C   0  0  0  0  0  0  0  0  0  0  0  0
  -22.4662    2.3260  -13.9903 C   0  0  0  0  0  0  0  0  0  0  0  0
  -22.0333    1.0012  -14.1426 C   0  0  0  0  0  0  0  0  0  0  0  0
  -20.7118    0.7534  -14.5683 C   0  0  0  0  0  0  0  0  0  0  0  0
  -22.9658   -0.1488  -13.8586 C   0  0  0  0  0  0  0  0  0  0  0  0
  -22.3320   -1.3465  -13.7158 F   0  0  0  0  0  0  0  0  0  0  0  0
  -23.6763    0.0344  -12.7105 F   0  0  0  0  0  0  0  0  0  0  0  0
  -23.8880   -0.3301  -14.8431 F   0  0  0  0  0  0  0  0  0  0  0  0
  -15.2519   -0.6121  -13.6265 N   0  0  0  0  0  0  0  0  0  0  0  0
  -14.9165   -0.1140  -12.7989 H   0  0  0  0  0  0  0  0  0  0  0  0
  -14.6294   -1.9408  -13.6803 C   0  0  0  0  0  0  0  0  0  0  0  0
  -15.4076   -2.9373  -12.8619 C   0  0  0  0  0  0  0  0  0  0  0  0
  -15.9662   -4.0700  -13.4634 C   0  0  0  0  0  0  0  0  0  0  0  0
  -16.6049   -5.0020  -12.6611 C   0  0  0  0  0  0  0  0  0  0  0  0
  -16.7261   -4.8809  -11.3225 N   0  0  0  0  0  0  0  0  0  0  0  0
  -16.1875   -3.7784  -10.7608 C   0  0  0  0  0  0  0  0  0  0  0  0
  -15.5285   -2.7916  -11.4770 C   0  0  0  0  0  0  0  0  0  0  0  0
  7  8  2  0  0  0
  8  9  1  0  0  0
  8  1  1  0  0  0
  9 11  1  0  0  0
  9 10  1  0  0  0
 11 12  1  0  0  0
 11 16  2  0  0  0
 12 13  2  0  0  0
 13 14  1  0  0  0
 14 15  2  0  0  0
 15 17  1  0  0  0
 15 16  1  0  0  0
 17 18  1  0  0  0
 17 19  1  0  0  0
 17 20  1  0  0  0
  1  2  1  0  0  0
  1  6  2  0  0  0
  2  3  2  0  0  0
  3  4  1  0  0  0
  4  5  2  0  0  0
  5  6  1  0  0  0
  6 21  1  0  0  0
 21 23  1  0  0  0
 21 22  1  0  0  0
 23 24  1  0  0  0
 24 25  1  0  0  0
 24 29  2  0  0  0
 25 26  2  0  0  0
 26 27  1  0  0  0
 27 28  2  0  0  0
 28 29  1  0  0  0
M  END
> <minimizedAffinity>
-9.26166

$$$$
