CHEMBL3671482


 38 41  0  0  0  0  0  0  0  0999 V2000
  -16.1491    0.2475  -14.6224 C   0  0  0  0  0  0  0  0  0  0  0  0
  -15.4624    1.4103  -14.9741 C   0  0  0  0  0  0  0  0  0  0  0  0
  -14.2176    1.7271  -14.4212 C   0  0  0  0  0  0  0  0  0  0  0  0
  -13.5357    2.9177  -14.7070 C   0  0  0  0  0  0  0  0  0  0  0  0
  -12.3427    3.1952  -14.1569 N   0  0  0  0  0  0  0  0  0  0  0  0
  -11.8455    2.2781  -13.3216 C   0  0  0  0  0  0  0  0  0  0  0  0
  -12.4190    1.1107  -12.9822 N   0  0  0  0  0  0  0  0  0  0  0  0
  -13.6045    0.8400  -13.5364 C   0  0  0  0  0  0  0  0  0  0  0  0
  -14.2750   -0.3541  -13.2373 C   0  0  0  0  0  0  0  0  0  0  0  0
  -15.5384   -0.6827  -13.7688 C   0  0  0  0  0  0  0  0  0  0  0  0
  -18.4280    1.0421  -14.7314 C   0  0  0  0  0  0  0  0  0  0  0  0
  -18.2493    2.0269  -14.0276 O   0  0  0  0  0  0  0  0  0  0  0  0
  -17.4515    0.1504  -15.1473 N   0  0  0  0  0  0  0  0  0  0  0  0
  -17.7381   -0.7026  -15.5966 H   0  0  0  0  0  0  0  0  0  0  0  0
  -20.8320    1.4305  -14.9014 C   0  0  0  0  0  0  0  0  0  0  0  0
  -19.7883    0.6408  -15.1751 C   0  0  0  0  0  0  0  0  0  0  0  0
  -14.1387    3.8672  -15.5780 N   0  0  0  0  0  0  0  0  0  0  0  0
  -14.4314    4.6796  -15.0349 H   0  0  0  0  0  0  0  0  0  0  0  0
  -13.5969    4.2408  -16.8276 C   0  0  0  0  0  0  0  0  0  0  0  0
  -13.7652    3.4540  -17.9747 C   0  0  0  0  0  0  0  0  0  0  0  0
  -14.5525    2.3670  -17.9407 F   0  0  0  0  0  0  0  0  0  0  0  0
  -13.1563    3.7832  -19.1805 C   0  0  0  0  0  0  0  0  0  0  0  0
  -12.3706    4.9300  -19.2553 C   0  0  0  0  0  0  0  0  0  0  0  0
  -11.4819    5.3469  -20.8699 Br  0  0  0  0  0  0  0  0  0  0  0  0
  -12.2279    5.7646  -18.1509 C   0  0  0  0  0  0  0  0  0  0  0  0
  -12.8485    5.4169  -16.9535 C   0  0  0  0  0  0  0  0  0  0  0  0
  -12.6989    6.2200  -15.8883 F   0  0  0  0  0  0  0  0  0  0  0  0
  -16.0212   -1.8758  -13.2811 O   0  0  0  0  0  0  0  0  0  0  0  0
  -15.6222   -2.2874  -11.9840 C   0  0  0  0  0  0  0  0  0  0  0  0
  -16.0189   -3.7279  -11.6183 C   0  0  0  0  0  0  0  0  0  0  0  0
  -14.9362   -4.4840  -10.8286 C   0  0  0  0  0  0  0  0  0  0  0  0
  -13.8655   -5.0991  -11.7245 C   0  0  0  0  0  0  0  0  0  0  0  0
  -14.5036   -5.9211  -12.7483 N   0  0  0  0  0  0  0  0  0  0  0  0
  -14.5795   -7.3042  -12.7705 C   0  0  0  0  0  0  0  0  0  0  0  0
  -13.8798   -8.1068  -11.7013 C   0  0  0  0  0  0  0  0  0  0  0  0
  -15.2019   -7.9116  -13.6463 O   0  0  0  0  0  0  0  0  0  0  0  0
  -15.3698   -5.1635  -13.6457 C   0  0  0  0  0  0  0  0  0  0  0  0
  -16.5058   -4.5303  -12.8432 C   0  0  0  0  0  0  0  0  0  0  0  0
 15 16  2  0  0  0
 16 11  1  0  0  0
 11 12  2  0  0  0
 11 13  1  0  0  0
 13  1  1  0  0  0
 13 14  1  0  0  0
  1  2  1  0  0  0
  1 10  2  0  0  0
  2  3  2  0  0  0
  3  4  1  0  0  0
  3  8  1  0  0  0
  4 17  1  0  0  0
  4  5  2  0  0  0
 17 19  1  0  0  0
 17 18  1  0  0  0
 19 20  1  0  0  0
 19 26  2  0  0  0
 20 21  1  0  0  0
 20 22  2  0  0  0
 22 23  1  0  0  0
 23 24  1  0  0  0
 23 25  2  0  0  0
 25 26  1  0  0  0
 26 27  1  0  0  0
  5  6  1  0  0  0
  6  7  2  0  0  0
  7  8  1  0  0  0
  8  9  2  0  0  0
  9 10  1  0  0  0
 10 28  1  0  0  0
 28 29  1  0  0  0
 29 30  1  0  0  0
 30 31  1  0  0  0
 30 38  1  0  0  0
 31 32  1  0  0  0
 32 33  1  0  0  0
 33 34  1  0  0  0
 33 37  1  0  0  0
 34 35  1  0  0  0
 34 36  2  0  0  0
 37 38  1  0  0  0
M  END
> <minimizedAffinity>
-8.17685

$$$$
