CHEMBL3753162


 38 43  0  0  0  0  0  0  0  0999 V2000
  -22.2279    0.9173  -14.1331 N   0  0  0  0  0  0  0  0  0  0  0  0
  -21.4293    0.1799  -15.1605 C   0  0  0  0  0  0  0  0  0  0  0  0
  -19.8789    0.3299  -15.0821 C   0  0  0  0  0  0  0  0  0  0  0  0
  -19.4715    1.7357  -14.9227 N   0  0  0  0  0  0  0  0  0  0  0  0
  -20.2787    2.5623  -14.0282 C   0  0  0  0  0  0  0  0  0  0  0  0
  -21.7879    2.3293  -14.2068 C   0  0  0  0  0  0  0  0  0  0  0  0
  -18.2098    2.1087  -15.3835 C   0  0  0  0  0  0  0  0  0  0  0  0
  -18.1620    3.2169  -16.1538 N   0  0  0  0  0  0  0  0  0  0  0  0
  -16.9719    3.7800  -16.5678 N   0  0  0  0  0  0  0  0  0  0  0  0
  -15.7905    3.2681  -16.1669 C   0  0  0  0  0  0  0  0  0  0  0  0
  -15.7556    2.1364  -15.3212 C   0  0  0  0  0  0  0  0  0  0  0  0
  -14.5591    1.6091  -14.7517 C   0  0  0  0  0  0  0  0  0  0  0  0
  -14.5193    0.4038  -14.0556 C   0  0  0  0  0  0  0  0  0  0  0  0
  -15.6799   -0.3198  -13.9126 C   0  0  0  0  0  0  0  0  0  0  0  0
  -16.8740    0.2075  -14.4011 C   0  0  0  0  0  0  0  0  0  0  0  0
  -16.9810    1.4821  -15.0233 C   0  0  0  0  0  0  0  0  0  0  0  0
  -14.6066    3.9341  -16.7780 C   0  0  0  0  0  0  0  0  0  0  0  0
  -13.7784    4.7901  -16.0259 C   0  0  0  0  0  0  0  0  0  0  0  0
  -12.6693    5.4280  -16.5987 C   0  0  0  0  0  0  0  0  0  0  0  0
  -12.3506    5.2128  -17.9362 C   0  0  0  0  0  0  0  0  0  0  0  0
  -13.1630    4.3960  -18.7112 C   0  0  0  0  0  0  0  0  0  0  0  0
  -14.2927    3.7985  -18.1454 C   0  0  0  0  0  0  0  0  0  0  0  0
  -21.9910    0.2915  -12.8088 C   0  0  0  0  0  0  0  0  0  0  0  0
  -23.0125   -1.8508  -12.6428 O   0  0  0  0  0  0  0  0  0  0  0  0
  -23.0943   -0.6571  -12.3526 C   0  0  0  0  0  0  0  0  0  0  0  0
  -24.1157   -0.0561  -11.6547 N   0  0  0  0  0  0  0  0  0  0  0  0
  -23.9780    0.8693  -11.2718 H   0  0  0  0  0  0  0  0  0  0  0  0
  -25.2485   -0.7529  -11.3331 C   0  0  0  0  0  0  0  0  0  0  0  0
  -25.6553   -1.1276  -10.1491 N   0  0  0  0  0  0  0  0  0  0  0  0
  -26.8645   -1.7930  -10.2423 C   0  0  0  0  0  0  0  0  0  0  0  0
  -27.3544   -1.9076  -11.5307 C   0  0  0  0  0  0  0  0  0  0  0  0
  -26.2459   -1.1963  -12.6432 S   0  0  0  0  0  0  0  0  0  0  0  0
  -27.5572   -2.2476   -9.0405 C   0  0  0  0  0  0  0  0  0  0  0  0
  -27.6973   -1.3638   -7.9593 C   0  0  0  0  0  0  0  0  0  0  0  0
  -28.4022   -1.7398   -6.8136 C   0  0  0  0  0  0  0  0  0  0  0  0
  -28.9621   -3.0119   -6.7285 C   0  0  0  0  0  0  0  0  0  0  0  0
  -28.8021   -3.9126   -7.7803 C   0  0  0  0  0  0  0  0  0  0  0  0
  -28.1005   -3.5349   -8.9302 C   0  0  0  0  0  0  0  0  0  0  0  0
 24 25  2  0  0  0
 25 23  1  0  0  0
 25 26  1  0  0  0
 23  1  1  0  0  0
  1  2  1  0  0  0
  1  6  1  0  0  0
  2  3  1  0  0  0
  3  4  1  0  0  0
  4  7  1  0  0  0
  4  5  1  0  0  0
  7  8  1  0  0  0
  7 16  2  0  0  0
  8  9  2  0  0  0
  9 10  1  0  0  0
 10 17  1  0  0  0
 10 11  2  0  0  0
 17 18  1  0  0  0
 17 22  2  0  0  0
 18 19  2  0  0  0
 19 20  1  0  0  0
 20 21  2  0  0  0
 21 22  1  0  0  0
 11 12  1  0  0  0
 11 16  1  0  0  0
 12 13  2  0  0  0
 13 14  1  0  0  0
 14 15  2  0  0  0
 15 16  1  0  0  0
  5  6  1  0  0  0
 26 28  1  0  0  0
 26 27  1  0  0  0
 28 29  2  0  0  0
 28 32  1  0  0  0
 29 30  1  0  0  0
 30 33  1  0  0  0
 30 31  2  0  0  0
 33 34  1  0  0  0
 33 38  2  0  0  0
 34 35  2  0  0  0
 35 36  1  0  0  0
 36 37  2  0  0  0
 37 38  1  0  0  0
 31 32  1  0  0  0
M  END
> <minimizedAffinity>
-8.96162

$$$$
