CHEMBL3961613


 38 41  0  0  0  0  0  0  0  0999 V2000
  -25.7589   -1.8801  -11.8691 C   0  0  0  0  0  0  0  0  0  0  0  0
  -26.0420   -1.6217  -13.2154 C   0  0  0  0  0  0  0  0  0  0  0  0
  -25.0518   -1.1499  -14.0852 C   0  0  0  0  0  0  0  0  0  0  0  0
  -23.7576   -0.9224  -13.6227 C   0  0  0  0  0  0  0  0  0  0  0  0
  -23.5013   -1.0859  -12.2603 C   0  0  0  0  0  0  0  0  0  0  0  0
  -22.2984   -0.7946  -11.7451 F   0  0  0  0  0  0  0  0  0  0  0  0
  -24.4795   -1.5754  -11.3929 C   0  0  0  0  0  0  0  0  0  0  0  0
  -26.1773   -1.2353   -9.0609 O   0  0  0  0  0  0  0  0  0  0  0  0
  -26.8531   -2.0747   -9.6424 C   0  0  0  0  0  0  0  0  0  0  0  0
  -26.6855   -2.4470  -10.9645 N   0  0  0  0  0  0  0  0  0  0  0  0
  -27.9184   -2.7399   -9.0546 N   0  0  0  0  0  0  0  0  0  0  0  0
  -27.4268   -3.0048  -11.3635 H   0  0  0  0  0  0  0  0  0  0  0  0
  -28.1408   -3.6635   -9.4055 H   0  0  0  0  0  0  0  0  0  0  0  0
  -28.5315   -2.3852   -7.8215 C   0  0  0  0  0  0  0  0  0  0  0  0
  -28.4620   -1.0833   -7.3082 C   0  0  0  0  0  0  0  0  0  0  0  0
  -29.0941   -0.7296   -6.1041 C   0  0  0  0  0  0  0  0  0  0  0  0
  -29.8350   -1.7008   -5.4187 C   0  0  0  0  0  0  0  0  0  0  0  0
  -29.9227   -3.0024   -5.9184 C   0  0  0  0  0  0  0  0  0  0  0  0
  -29.2736   -3.3434   -7.1104 C   0  0  0  0  0  0  0  0  0  0  0  0
  -29.3929   -4.9761   -7.6695 Cl  0  0  0  0  0  0  0  0  0  0  0  0
  -28.9787    0.6760   -5.5599 C   0  0  0  0  0  0  0  0  0  0  0  0
  -30.1578    1.1932   -5.1152 F   0  0  0  0  0  0  0  0  0  0  0  0
  -28.1191    0.7527   -4.5071 F   0  0  0  0  0  0  0  0  0  0  0  0
  -28.5127    1.5546   -6.4890 F   0  0  0  0  0  0  0  0  0  0  0  0
  -22.8562   -0.4698  -14.5575 O   0  0  0  0  0  0  0  0  0  0  0  0
  -22.3103    0.7917  -14.4567 C   0  0  0  0  0  0  0  0  0  0  0  0
  -22.8848    1.8607  -13.7813 C   0  0  0  0  0  0  0  0  0  0  0  0
  -22.2240    3.0712  -13.8164 C   0  0  0  0  0  0  0  0  0  0  0  0
  -21.0341    3.2566  -14.4200 N   0  0  0  0  0  0  0  0  0  0  0  0
  -20.4479    2.2064  -15.0158 C   0  0  0  0  0  0  0  0  0  0  0  0
  -21.0536    0.9543  -15.0479 C   0  0  0  0  0  0  0  0  0  0  0  0
  -19.1885    2.3489  -15.6164 N   0  0  0  0  0  0  0  0  0  0  0  0
  -17.9955    1.9895  -15.0314 C   0  0  0  0  0  0  0  0  0  0  0  0
  -17.8075    1.5369  -13.9114 O   0  0  0  0  0  0  0  0  0  0  0  0
  -19.1645    2.7313  -16.5479 H   0  0  0  0  0  0  0  0  0  0  0  0
  -16.8184    2.1862  -15.9386 C   0  0  0  0  0  0  0  0  0  0  0  0
  -15.4335    2.2368  -15.3314 C   0  0  0  0  0  0  0  0  0  0  0  0
  -16.0331    3.4795  -15.9211 C   0  0  0  0  0  0  0  0  0  0  0  0
  8  9  2  0  0  0
  9 10  1  0  0  0
  9 11  1  0  0  0
 10  1  1  0  0  0
 10 12  1  0  0  0
  1  2  1  0  0  0
  1  7  2  0  0  0
  2  3  2  0  0  0
  3  4  1  0  0  0
  4 25  1  0  0  0
  4  5  2  0  0  0
 25 26  1  0  0  0
 26 27  1  0  0  0
 26 31  2  0  0  0
 27 28  2  0  0  0
 28 29  1  0  0  0
 29 30  2  0  0  0
 30 32  1  0  0  0
 30 31  1  0  0  0
 32 33  1  0  0  0
 32 35  1  0  0  0
 33 34  2  0  0  0
 33 36  1  0  0  0
 36 37  1  0  0  0
 36 38  1  0  0  0
 37 38  1  0  0  0
  5  6  1  0  0  0
  5  7  1  0  0  0
 11 14  1  0  0  0
 11 13  1  0  0  0
 14 15  1  0  0  0
 14 19  2  0  0  0
 15 16  2  0  0  0
 16 21  1  0  0  0
 16 17  1  0  0  0
 21 22  1  0  0  0
 21 23  1  0  0  0
 21 24  1  0  0  0
 17 18  2  0  0  0
 18 19  1  0  0  0
 19 20  1  0  0  0
M  END
> <minimizedAffinity>
-11.40578

$$$$
