CHEMBL399438


 36 41  0  0  0  0  0  0  0  0999 V2000
  -29.5750   -2.7224   -3.7548 C   0  0  0  0  0  0  0  0  0  0  0  0
  -28.4567   -1.9171   -3.8847 C   0  0  0  0  0  0  0  0  0  0  0  0
  -27.7655   -1.7498   -5.0364 N   0  0  0  0  0  0  0  0  0  0  0  0
  -28.2236   -2.3572   -6.1265 C   0  0  0  0  0  0  0  0  0  0  0  0
  -27.5973   -2.0318   -7.3233 C   0  0  0  0  0  0  0  0  0  0  0  0
  -28.0233   -2.5317   -8.5592 C   0  0  0  0  0  0  0  0  0  0  0  0
  -29.0622   -3.4668   -8.5436 C   0  0  0  0  0  0  0  0  0  0  0  0
  -29.6969   -3.8277   -7.3514 C   0  0  0  0  0  0  0  0  0  0  0  0
  -29.3271   -3.2531   -6.1118 C   0  0  0  0  0  0  0  0  0  0  0  0
  -30.0030   -3.4801   -4.8540 C   0  0  0  0  0  0  0  0  0  0  0  0
  -27.4384   -2.0673   -9.8301 C   0  0  0  0  0  0  0  0  0  0  0  0
  -26.1157   -1.6041   -9.8786 C   0  0  0  0  0  0  0  0  0  0  0  0
  -25.5263   -1.2149  -11.0830 C   0  0  0  0  0  0  0  0  0  0  0  0
  -26.2381   -1.2669  -12.2869 C   0  0  0  0  0  0  0  0  0  0  0  0
  -27.5661   -1.7151  -12.2511 C   0  0  0  0  0  0  0  0  0  0  0  0
  -28.1549   -2.1089  -11.0382 C   0  0  0  0  0  0  0  0  0  0  0  0
  -25.6099   -0.7318  -13.5539 C   0  0  0  0  0  0  0  0  0  0  0  0
  -24.2256   -1.0646  -13.8778 N   0  0  0  0  0  0  0  0  0  0  0  0
  -23.3775   -1.5389  -12.7840 C   0  0  0  0  0  0  0  0  0  0  0  0
  -22.5788   -0.4401  -12.0654 C   0  0  0  0  0  0  0  0  0  0  0  0
  -21.8555    0.3944  -12.9789 O   0  0  0  0  0  0  0  0  0  0  0  0
  -22.7109    0.9531  -13.9821 C   0  0  0  0  0  0  0  0  0  0  0  0
  -23.4925   -0.1320  -14.7363 C   0  0  0  0  0  0  0  0  0  0  0  0
  -30.9268   -2.5411   -1.5515 N   0  0  0  0  0  0  0  0  0  0  0  0
  -30.2941   -2.6412   -2.5200 C   0  0  0  0  0  0  0  0  0  0  0  0
  -31.1425   -4.3566   -4.8010 N   0  0  0  0  0  0  0  0  0  0  0  0
  -31.8089   -4.1044   -5.5251 H   0  0  0  0  0  0  0  0  0  0  0  0
  -31.0060   -5.8467   -4.7158 C   0  0  0  0  0  0  0  0  0  0  0  0
  -29.6466   -6.4663   -4.7754 C   0  0  0  0  0  0  0  0  0  0  0  0
  -30.5737   -6.5861   -5.9684 C   0  0  0  0  0  0  0  0  0  0  0  0
  -30.8038   -7.9958   -6.4661 C   0  0  0  0  0  0  0  0  0  0  0  0
  -30.0136   -9.1130   -6.1680 C   0  0  0  0  0  0  0  0  0  0  0  0
  -30.4553  -10.4156   -6.4870 C   0  0  0  0  0  0  0  0  0  0  0  0
  -31.6866  -10.6140   -7.1119 C   0  0  0  0  0  0  0  0  0  0  0  0
  -32.4619   -9.5198   -7.4609 C   0  0  0  0  0  0  0  0  0  0  0  0
  -32.0134   -8.2323   -7.1466 C   0  0  0  0  0  0  0  0  0  0  0  0
 24 25  3  0  0  0
 25  1  1  0  0  0
  1  2  1  0  0  0
  1 10  2  0  0  0
  2  3  2  0  0  0
  3  4  1  0  0  0
  4  5  1  0  0  0
  4  9  2  0  0  0
  5  6  2  0  0  0
  6 11  1  0  0  0
  6  7  1  0  0  0
 11 12  1  0  0  0
 11 16  2  0  0  0
 12 13  2  0  0  0
 13 14  1  0  0  0
 14 17  1  0  0  0
 14 15  2  0  0  0
 17 18  1  0  0  0
 18 19  1  0  0  0
 18 23  1  0  0  0
 19 20  1  0  0  0
 20 21  1  0  0  0
 21 22  1  0  0  0
 22 23  1  0  0  0
 15 16  1  0  0  0
  7  8  2  0  0  0
  8  9  1  0  0  0
  9 10  1  0  0  0
 10 26  1  0  0  0
 26 28  1  0  0  0
 26 27  1  0  0  0
 28 29  1  0  0  0
 28 30  1  0  0  0
 29 30  1  0  0  0
 30 31  1  0  0  0
 31 32  1  0  0  0
 31 36  2  0  0  0
 32 33  2  0  0  0
 33 34  1  0  0  0
 34 35  2  0  0  0
 35 36  1  0  0  0
M  END
> <minimizedAffinity>
-8.64237

$$$$
