CHEMBL1242847


 23 25  0  0  0  0  0  0  0  0999 V2000
  -29.5512   -4.8608   -6.5160 C   0  0  0  0  0  0  0  0  0  0  0  0
  -28.8339   -3.8223   -6.9921 N   0  0  0  0  0  0  0  0  0  0  0  0
  -28.9959   -2.8495   -6.0627 N   0  0  0  0  0  0  0  0  0  0  0  0
  -29.7767   -3.2301   -5.0057 C   0  0  0  0  0  0  0  0  0  0  0  0
  -30.1209   -2.4794   -3.9454 N   0  0  0  0  0  0  0  0  0  0  0  0
  -30.8784   -3.1667   -3.0781 C   0  0  0  0  0  0  0  0  0  0  0  0
  -31.2603   -4.4554   -3.1578 N   0  0  0  0  0  0  0  0  0  0  0  0
  -30.8789   -5.1764   -4.2289 C   0  0  0  0  0  0  0  0  0  0  0  0
  -31.2581   -6.5114   -4.2132 N   0  0  0  0  0  0  0  0  0  0  0  0
  -30.1258   -4.5503   -5.2376 C   0  0  0  0  0  0  0  0  0  0  0  0
  -31.6054   -6.7730   -3.2971 H   0  0  0  0  0  0  0  0  0  0  0  0
  -30.5813   -7.1502   -4.6150 H   0  0  0  0  0  0  0  0  0  0  0  0
  -29.7229   -8.7282   -8.3472 C   0  0  0  0  0  0  0  0  0  0  0  0
  -28.5606   -7.9637   -8.4473 C   0  0  0  0  0  0  0  0  0  0  0  0
  -28.5150   -6.6715   -7.8971 C   0  0  0  0  0  0  0  0  0  0  0  0
  -29.6344   -6.1287   -7.2543 C   0  0  0  0  0  0  0  0  0  0  0  0
  -30.8279   -6.8578   -7.2788 C   0  0  0  0  0  0  0  0  0  0  0  0
  -30.8591   -8.1622   -7.7768 C   0  0  0  0  0  0  0  0  0  0  0  0
  -29.3023  -10.3871   -9.9960 C   0  0  0  0  0  0  0  0  0  0  0  0
  -29.8884  -10.0212   -8.7550 O   0  0  0  0  0  0  0  0  0  0  0  0
  -28.3392   -1.5557   -6.2168 C   0  0  0  0  0  0  0  0  0  0  0  0
  -27.2271   -1.3481   -5.1904 C   0  0  0  0  0  0  0  0  0  0  0  0
  -27.8202   -1.3544   -7.6429 C   0  0  0  0  0  0  0  0  0  0  0  0
 19 20  1  0  0  0
 20 13  1  0  0  0
 13 14  1  0  0  0
 13 18  2  0  0  0
 14 15  2  0  0  0
 15 16  1  0  0  0
 16  1  1  0  0  0
 16 17  2  0  0  0
  1  2  2  0  0  0
  1 10  1  0  0  0
  2  3  1  0  0  0
  3 21  1  0  0  0
  3  4  1  0  0  0
 21 22  1  0  0  0
 21 23  1  0  0  0
  4  5  1  0  0  0
  4 10  2  0  0  0
  5  6  2  0  0  0
  6  7  1  0  0  0
  7  8  2  0  0  0
  8  9  1  0  0  0
  8 10  1  0  0  0
  9 11  1  0  0  0
  9 12  1  0  0  0
 17 18  1  0  0  0
M  END
> <minimizedAffinity>
-7.45569

$$$$
