CHEMBL3746370


 33 38  0  0  0  0  0  0  0  0999 V2000
  -15.2169    3.4734  -17.2779 N   0  0  0  0  0  0  0  0  0  0  0  0
  -16.1663    3.7802  -16.3260 C   0  0  0  0  0  0  0  0  0  0  0  0
  -16.7430    4.8256  -16.0944 O   0  0  0  0  0  0  0  0  0  0  0  0
  -16.5954    2.6289  -15.6496 N   0  0  0  0  0  0  0  0  0  0  0  0
  -17.9255    2.3175  -15.4481 C   0  0  0  0  0  0  0  0  0  0  0  0
  -18.0173    1.1116  -14.7997 C   0  0  0  0  0  0  0  0  0  0  0  0
  -16.6964    0.6982  -14.4863 C   0  0  0  0  0  0  0  0  0  0  0  0
  -16.1730   -0.3989  -13.7704 C   0  0  0  0  0  0  0  0  0  0  0  0
  -14.7920   -0.4819  -13.5551 C   0  0  0  0  0  0  0  0  0  0  0  0
  -13.9359    0.4869  -14.0673 C   0  0  0  0  0  0  0  0  0  0  0  0
  -14.4309    1.5746  -14.7924 C   0  0  0  0  0  0  0  0  0  0  0  0
  -15.8205    1.6536  -15.0158 C   0  0  0  0  0  0  0  0  0  0  0  0
  -14.9758    2.5085  -17.4620 H   0  0  0  0  0  0  0  0  0  0  0  0
  -13.5767    6.2295  -18.7982 C   0  0  0  0  0  0  0  0  0  0  0  0
  -13.7098    5.3919  -17.7130 C   0  0  0  0  0  0  0  0  0  0  0  0
  -14.6730    4.4342  -18.1116 C   0  0  0  0  0  0  0  0  0  0  0  0
  -15.0045    4.6146  -19.3913 N   0  0  0  0  0  0  0  0  0  0  0  0
  -14.3149    5.7246  -19.8226 O   0  0  0  0  0  0  0  0  0  0  0  0
  -11.6349    7.6019  -19.8204 C   0  0  0  0  0  0  0  0  0  0  0  0
  -12.8187    7.5624  -18.8861 C   0  0  0  0  0  0  0  0  0  0  0  0
  -13.6907    8.8115  -18.7851 C   0  0  0  0  0  0  0  0  0  0  0  0
  -12.7715    8.4672  -17.6647 C   0  0  0  0  0  0  0  0  0  0  0  0
  -14.3318   -1.6087  -12.9201 O   0  0  0  0  0  0  0  0  0  0  0  0
  -14.5382   -2.8551  -13.5015 C   0  0  0  0  0  0  0  0  0  0  0  0
  -13.7993   -3.2830  -14.5466 N   0  0  0  0  0  0  0  0  0  0  0  0
  -13.9395   -4.5822  -14.8866 C   0  0  0  0  0  0  0  0  0  0  0  0
  -14.6901   -5.4999  -14.2529 N   0  0  0  0  0  0  0  0  0  0  0  0
  -15.3843   -5.0049  -13.2234 C   0  0  0  0  0  0  0  0  0  0  0  0
  -15.3886   -3.6858  -12.8403 C   0  0  0  0  0  0  0  0  0  0  0  0
  -16.2231   -3.5161  -11.6324 C   0  0  0  0  0  0  0  0  0  0  0  0
  -16.1489   -4.8463  -10.9755 N   0  0  0  0  0  0  0  0  0  0  0  0
  -16.0519   -5.8008  -12.1279 C   0  0  0  0  0  0  0  0  0  0  0  0
  -15.2346   -4.8730  -10.5132 H   0  0  0  0  0  0  0  0  0  0  0  0
 19 20  1  0  0  0
 20 14  1  0  0  0
 20 21  1  0  0  0
 20 22  1  0  0  0
 14 15  2  0  0  0
 14 18  1  0  0  0
 15 16  1  0  0  0
 16  1  1  0  0  0
 16 17  2  0  0  0
  1  2  1  0  0  0
  1 13  1  0  0  0
  2  3  2  0  0  0
  2  4  1  0  0  0
  4  5  1  0  0  0
  4 12  1  0  0  0
  5  6  2  0  0  0
  6  7  1  0  0  0
  7  8  1  0  0  0
  7 12  2  0  0  0
  8  9  2  0  0  0
  9 23  1  0  0  0
  9 10  1  0  0  0
 23 24  1  0  0  0
 24 25  1  0  0  0
 24 29  2  0  0  0
 25 26  2  0  0  0
 26 27  1  0  0  0
 27 28  2  0  0  0
 28 29  1  0  0  0
 28 32  1  0  0  0
 29 30  1  0  0  0
 30 31  1  0  0  0
 31 32  1  0  0  0
 31 33  1  0  0  0
 10 11  2  0  0  0
 11 12  1  0  0  0
 17 18  1  0  0  0
 21 22  1  0  0  0
M  END
> <minimizedAffinity>
-7.99719

$$$$
