CHEMBL3745816


 33 37  0  0  0  0  0  0  0  0999 V2000
  -26.8653   -2.1174  -10.0218 N   0  0  0  0  0  0  0  0  0  0  0  0
  -27.5293   -1.5275  -11.0694 C   0  0  0  0  0  0  0  0  0  0  0  0
  -28.6850   -1.1348  -11.1426 O   0  0  0  0  0  0  0  0  0  0  0  0
  -26.7607   -1.5434  -12.2531 N   0  0  0  0  0  0  0  0  0  0  0  0
  -27.3232   -1.7963  -13.4961 C   0  0  0  0  0  0  0  0  0  0  0  0
  -26.3535   -1.7354  -14.4606 C   0  0  0  0  0  0  0  0  0  0  0  0
  -25.1474   -1.3611  -13.8229 C   0  0  0  0  0  0  0  0  0  0  0  0
  -23.8680   -1.0487  -14.3214 C   0  0  0  0  0  0  0  0  0  0  0  0
  -22.8658   -0.6200  -13.4574 C   0  0  0  0  0  0  0  0  0  0  0  0
  -23.1106   -0.5834  -12.0798 C   0  0  0  0  0  0  0  0  0  0  0  0
  -24.3786   -0.8866  -11.5540 C   0  0  0  0  0  0  0  0  0  0  0  0
  -25.3974   -1.2781  -12.4435 C   0  0  0  0  0  0  0  0  0  0  0  0
  -25.9880   -2.5955  -10.1842 H   0  0  0  0  0  0  0  0  0  0  0  0
  -28.2680   -1.8486   -6.7696 C   0  0  0  0  0  0  0  0  0  0  0  0
  -27.5823   -1.2667   -7.8143 C   0  0  0  0  0  0  0  0  0  0  0  0
  -27.4519   -2.2897   -8.7809 C   0  0  0  0  0  0  0  0  0  0  0  0
  -27.9912   -3.4250   -8.3292 N   0  0  0  0  0  0  0  0  0  0  0  0
  -28.4989   -3.1514   -7.0785 O   0  0  0  0  0  0  0  0  0  0  0  0
  -27.6434   -0.9284   -4.5699 C   0  0  0  0  0  0  0  0  0  0  0  0
  -28.8255   -1.3195   -5.4762 C   0  0  0  0  0  0  0  0  0  0  0  0
  -29.6674   -2.4074   -4.7868 C   0  0  0  0  0  0  0  0  0  0  0  0
  -29.7138   -0.0781   -5.6835 C   0  0  0  0  0  0  0  0  0  0  0  0
  -21.6700   -0.2705  -14.0623 O   0  0  0  0  0  0  0  0  0  0  0  0
  -21.4784    1.0628  -14.3504 C   0  0  0  0  0  0  0  0  0  0  0  0
  -22.4511    1.9472  -14.0642 N   0  0  0  0  0  0  0  0  0  0  0  0
  -22.1018    3.2472  -14.0855 C   0  0  0  0  0  0  0  0  0  0  0  0
  -20.8744    3.7357  -14.3343 N   0  0  0  0  0  0  0  0  0  0  0  0
  -19.9764    2.7994  -14.6671 C   0  0  0  0  0  0  0  0  0  0  0  0
  -20.2328    1.4561  -14.7517 C   0  0  0  0  0  0  0  0  0  0  0  0
  -18.9995    0.7209  -15.0897 C   0  0  0  0  0  0  0  0  0  0  0  0
  -17.9208    1.6003  -14.5686 N   0  0  0  0  0  0  0  0  0  0  0  0
  -18.4791    2.9813  -14.7391 C   0  0  0  0  0  0  0  0  0  0  0  0
  -17.8856    1.4298  -13.5597 H   0  0  0  0  0  0  0  0  0  0  0  0
 19 20  1  0  0  0
 20 21  1  0  0  0
 20 22  1  0  0  0
 20 14  1  0  0  0
 14 15  2  0  0  0
 14 18  1  0  0  0
 15 16  1  0  0  0
 16  1  1  0  0  0
 16 17  2  0  0  0
  1  2  1  0  0  0
  1 13  1  0  0  0
  2  3  2  0  0  0
  2  4  1  0  0  0
  4  5  1  0  0  0
  4 12  1  0  0  0
  5  6  2  0  0  0
  6  7  1  0  0  0
  7  8  1  0  0  0
  7 12  2  0  0  0
  8  9  2  0  0  0
  9 23  1  0  0  0
  9 10  1  0  0  0
 23 24  1  0  0  0
 24 25  1  0  0  0
 24 29  2  0  0  0
 25 26  2  0  0  0
 26 27  1  0  0  0
 27 28  2  0  0  0
 28 29  1  0  0  0
 28 32  1  0  0  0
 29 30  1  0  0  0
 30 31  1  0  0  0
 31 32  1  0  0  0
 31 33  1  0  0  0
 10 11  2  0  0  0
 11 12  1  0  0  0
 17 18  1  0  0  0
M  END
> <minimizedAffinity>
-11.71003

$$$$
