CHEMBL3954328


 33 37  0  0  0  0  0  0  0  0999 V2000
  -15.4693    0.6684  -13.9616 C   0  0  0  0  0  0  0  0  0  0  0  0
  -14.4388    1.5198  -14.3507 C   0  0  0  0  0  0  0  0  0  0  0  0
  -13.1223    1.0787  -14.3643 C   0  0  0  0  0  0  0  0  0  0  0  0
  -12.8177   -0.2248  -13.9750 C   0  0  0  0  0  0  0  0  0  0  0  0
  -13.8138   -1.1126  -13.5466 C   0  0  0  0  0  0  0  0  0  0  0  0
  -15.1423   -0.6337  -13.5450 C   0  0  0  0  0  0  0  0  0  0  0  0
  -13.4834   -2.3903  -13.1261 N   0  0  0  0  0  0  0  0  0  0  0  0
  -12.0975   -2.8603  -13.1131 C   0  0  0  0  0  0  0  0  0  0  0  0
  -11.6019   -2.9905  -11.6701 C   0  0  0  0  0  0  0  0  0  0  0  0
  -12.6231   -3.6797  -10.8048 C   0  0  0  0  0  0  0  0  0  0  0  0
  -13.9052   -3.8080  -11.2034 C   0  0  0  0  0  0  0  0  0  0  0  0
  -14.7997   -4.5271  -10.2489 C   0  0  0  0  0  0  0  0  0  0  0  0
  -14.4552   -5.0238   -9.0982 N   0  0  0  0  0  0  0  0  0  0  0  0
  -13.1457   -4.8520   -8.7433 C   0  0  0  0  0  0  0  0  0  0  0  0
  -12.4495   -5.2259   -7.6200 C   0  0  0  0  0  0  0  0  0  0  0  0
  -11.1398   -4.7712   -7.8308 C   0  0  0  0  0  0  0  0  0  0  0  0
  -10.9904   -4.1531   -9.0020 N   0  0  0  0  0  0  0  0  0  0  0  0
  -12.2254   -4.1943   -9.5692 N   0  0  0  0  0  0  0  0  0  0  0  0
  -14.4747   -3.2655  -12.4789 C   0  0  0  0  0  0  0  0  0  0  0  0
  -17.0398    1.7991  -16.1708 O   0  0  0  0  0  0  0  0  0  0  0  0
  -17.4997    1.6123  -15.0471 C   0  0  0  0  0  0  0  0  0  0  0  0
  -16.8316    1.0605  -13.9636 N   0  0  0  0  0  0  0  0  0  0  0  0
  -17.3802    0.7901  -13.1581 H   0  0  0  0  0  0  0  0  0  0  0  0
  -18.9349    1.9421  -14.8464 C   0  0  0  0  0  0  0  0  0  0  0  0
  -19.3508    3.2415  -15.1693 C   0  0  0  0  0  0  0  0  0  0  0  0
  -20.6732    3.6301  -14.9731 C   0  0  0  0  0  0  0  0  0  0  0  0
  -21.5918    2.7191  -14.4558 C   0  0  0  0  0  0  0  0  0  0  0  0
  -21.1962    1.4120  -14.1246 C   0  0  0  0  0  0  0  0  0  0  0  0
  -19.8527    1.0317  -14.3096 C   0  0  0  0  0  0  0  0  0  0  0  0
  -22.1982    0.4184  -13.5891 C   0  0  0  0  0  0  0  0  0  0  0  0
  -22.2000   -0.7694  -14.2547 F   0  0  0  0  0  0  0  0  0  0  0  0
  -21.9631    0.1138  -12.2824 F   0  0  0  0  0  0  0  0  0  0  0  0
  -23.4761    0.8821  -13.6411 F   0  0  0  0  0  0  0  0  0  0  0  0
 20 21  2  0  0  0
 21 22  1  0  0  0
 21 24  1  0  0  0
 22  1  1  0  0  0
 22 23  1  0  0  0
  1  2  1  0  0  0
  1  6  2  0  0  0
  2  3  2  0  0  0
  3  4  1  0  0  0
  4  5  2  0  0  0
  5  7  1  0  0  0
  5  6  1  0  0  0
  7  8  1  0  0  0
  7 19  1  0  0  0
  8  9  1  0  0  0
  9 10  1  0  0  0
 10 11  2  0  0  0
 10 18  1  0  0  0
 11 12  1  0  0  0
 11 19  1  0  0  0
 12 13  2  0  0  0
 13 14  1  0  0  0
 14 15  2  0  0  0
 14 18  1  0  0  0
 15 16  1  0  0  0
 16 17  2  0  0  0
 17 18  1  0  0  0
 24 25  1  0  0  0
 24 29  2  0  0  0
 25 26  2  0  0  0
 26 27  1  0  0  0
 27 28  2  0  0  0
 28 30  1  0  0  0
 28 29  1  0  0  0
 30 31  1  0  0  0
 30 32  1  0  0  0
 30 33  1  0  0  0
M  END
> <minimizedAffinity>
-10.29988

$$$$
