CHEMBL3671580


 34 36  0  0  0  0  0  0  0  0999 V2000
  -28.3831   -8.9921   -7.5479 C   0  0  0  0  0  0  0  0  0  0  0  0
  -28.9156   -7.7447   -7.2171 C   0  0  0  0  0  0  0  0  0  0  0  0
  -29.2077   -7.3976   -5.8824 C   0  0  0  0  0  0  0  0  0  0  0  0
  -29.7907   -6.1820   -5.4824 C   0  0  0  0  0  0  0  0  0  0  0  0
  -30.0622   -5.9288   -4.1968 N   0  0  0  0  0  0  0  0  0  0  0  0
  -29.7596   -6.8836   -3.3065 C   0  0  0  0  0  0  0  0  0  0  0  0
  -29.2068   -8.0597   -3.5807 N   0  0  0  0  0  0  0  0  0  0  0  0
  -28.9304   -8.3180   -4.8637 C   0  0  0  0  0  0  0  0  0  0  0  0
  -28.3388   -9.5312   -5.1977 C   0  0  0  0  0  0  0  0  0  0  0  0
  -28.0152   -9.8726   -6.5202 C   0  0  0  0  0  0  0  0  0  0  0  0
  -29.2786  -10.0269   -9.5626 C   0  0  0  0  0  0  0  0  0  0  0  0
  -30.3200  -10.4305   -9.0579 O   0  0  0  0  0  0  0  0  0  0  0  0
  -28.3005   -9.2955   -8.9189 N   0  0  0  0  0  0  0  0  0  0  0  0
  -27.5033   -8.9623   -9.4390 H   0  0  0  0  0  0  0  0  0  0  0  0
  -27.7099  -10.0293  -11.4392 C   0  0  0  0  0  0  0  0  0  0  0  0
  -28.9289  -10.3307  -10.9742 C   0  0  0  0  0  0  0  0  0  0  0  0
  -30.0930   -5.2015   -6.4754 N   0  0  0  0  0  0  0  0  0  0  0  0
  -31.1006   -5.0798   -6.5250 H   0  0  0  0  0  0  0  0  0  0  0  0
  -29.4072   -3.9907   -6.7300 C   0  0  0  0  0  0  0  0  0  0  0  0
  -28.6587   -3.7866   -7.9005 C   0  0  0  0  0  0  0  0  0  0  0  0
  -27.9741   -2.5926   -8.1228 C   0  0  0  0  0  0  0  0  0  0  0  0
  -28.0753   -1.5627   -7.1993 C   0  0  0  0  0  0  0  0  0  0  0  0
  -27.3938   -0.4287   -7.4226 F   0  0  0  0  0  0  0  0  0  0  0  0
  -28.8773   -1.7071   -6.0733 C   0  0  0  0  0  0  0  0  0  0  0  0
  -29.0451   -0.4131   -4.9466 Cl  0  0  0  0  0  0  0  0  0  0  0  0
  -29.5540   -2.9102   -5.8443 C   0  0  0  0  0  0  0  0  0  0  0  0
  -27.4439  -11.1198   -6.6383 O   0  0  0  0  0  0  0  0  0  0  0  0
  -26.0922  -11.1928   -6.1993 C   0  0  0  0  0  0  0  0  0  0  0  0
  -25.0981  -10.8417   -7.3085 C   0  0  0  0  0  0  0  0  0  0  0  0
  -23.7835  -11.4202   -7.0511 N   0  0  0  0  0  0  0  0  0  0  0  0
  -22.7404  -10.6652   -6.5559 C   0  0  0  0  0  0  0  0  0  0  0  0
  -21.4409  -11.4065   -6.4069 C   0  0  0  0  0  0  0  0  0  0  0  0
  -22.8290   -9.4722   -6.2906 O   0  0  0  0  0  0  0  0  0  0  0  0
  -23.6865  -12.4274   -7.0857 H   0  0  0  0  0  0  0  0  0  0  0  0
 15 16  2  0  0  0
 16 11  1  0  0  0
 11 12  2  0  0  0
 11 13  1  0  0  0
 13  1  1  0  0  0
 13 14  1  0  0  0
  1  2  1  0  0  0
  1 10  2  0  0  0
  2  3  2  0  0  0
  3  4  1  0  0  0
  3  8  1  0  0  0
  4 17  1  0  0  0
  4  5  2  0  0  0
 17 19  1  0  0  0
 17 18  1  0  0  0
 19 20  1  0  0  0
 19 26  2  0  0  0
 20 21  2  0  0  0
 21 22  1  0  0  0
 22 23  1  0  0  0
 22 24  2  0  0  0
 24 25  1  0  0  0
 24 26  1  0  0  0
  5  6  1  0  0  0
  6  7  2  0  0  0
  7  8  1  0  0  0
  8  9  2  0  0  0
  9 10  1  0  0  0
 10 27  1  0  0  0
 27 28  1  0  0  0
 28 29  1  0  0  0
 29 30  1  0  0  0
 30 31  1  0  0  0
 30 34  1  0  0  0
 31 32  1  0  0  0
 31 33  2  0  0  0
M  END
> <minimizedAffinity>
-8.04404

$$$$
