CHEMBL373435


 34 37  0  0  0  0  0  0  0  0999 V2000
  -13.1897   -3.2753  -11.9982 C   0  0  0  0  0  0  0  0  0  0  0  0
  -12.5031   -2.5262  -12.9551 C   0  0  0  0  0  0  0  0  0  0  0  0
  -13.1777   -1.6911  -13.8487 C   0  0  0  0  0  0  0  0  0  0  0  0
  -14.5554   -1.4959  -13.7578 C   0  0  0  0  0  0  0  0  0  0  0  0
  -15.2466   -2.1488  -12.7374 C   0  0  0  0  0  0  0  0  0  0  0  0
  -14.5779   -3.0396  -11.8854 C   0  0  0  0  0  0  0  0  0  0  0  0
  -12.5988   -6.4966  -12.5684 C   0  0  0  0  0  0  0  0  0  0  0  0
  -12.0425   -7.6951  -12.4044 N   0  0  0  0  0  0  0  0  0  0  0  0
  -11.4027   -7.6219  -11.2394 N   0  0  0  0  0  0  0  0  0  0  0  0
  -10.6965   -8.7852  -10.7571 C   0  0  0  0  0  0  0  0  0  0  0  0
  -11.5018   -6.4035  -10.6203 C   0  0  0  0  0  0  0  0  0  0  0  0
  -10.9782   -5.9521   -9.4028 C   0  0  0  0  0  0  0  0  0  0  0  0
  -11.2154   -4.6284   -9.0481 C   0  0  0  0  0  0  0  0  0  0  0  0
  -11.9388   -3.7887   -9.8891 C   0  0  0  0  0  0  0  0  0  0  0  0
  -12.4850   -4.2311  -11.1216 C   0  0  0  0  0  0  0  0  0  0  0  0
  -12.2670   -5.6034  -11.4790 C   0  0  0  0  0  0  0  0  0  0  0  0
  -14.0598   -5.4812  -15.8409 C   0  0  0  0  0  0  0  0  0  0  0  0
  -12.9321   -5.7859  -14.8867 C   0  0  0  0  0  0  0  0  0  0  0  0
  -11.7696   -5.5841  -15.2218 O   0  0  0  0  0  0  0  0  0  0  0  0
  -13.4037   -6.2090  -13.6576 N   0  0  0  0  0  0  0  0  0  0  0  0
  -14.3976   -6.1954  -13.4919 H   0  0  0  0  0  0  0  0  0  0  0  0
  -15.2637   -0.6335  -14.6255 N   0  0  0  0  0  0  0  0  0  0  0  0
  -16.3133    0.1862  -14.2501 C   0  0  0  0  0  0  0  0  0  0  0  0
  -16.6403    0.4102  -13.0881 O   0  0  0  0  0  0  0  0  0  0  0  0
  -16.9858    0.6884  -15.3548 N   0  0  0  0  0  0  0  0  0  0  0  0
  -14.8628   -0.4562  -15.5346 H   0  0  0  0  0  0  0  0  0  0  0  0
  -16.9654    0.0895  -16.1673 H   0  0  0  0  0  0  0  0  0  0  0  0
  -18.1394    1.4951  -15.2042 C   0  0  0  0  0  0  0  0  0  0  0  0
  -18.0448    2.8579  -15.4879 C   0  0  0  0  0  0  0  0  0  0  0  0
  -19.1905    3.6554  -15.4573 C   0  0  0  0  0  0  0  0  0  0  0  0
  -20.4234    3.1059  -15.0998 C   0  0  0  0  0  0  0  0  0  0  0  0
  -20.5226    1.7524  -14.7666 C   0  0  0  0  0  0  0  0  0  0  0  0
  -21.8331    1.1429  -14.3643 C   0  0  0  0  0  0  0  0  0  0  0  0
  -19.3725    0.9544  -14.8204 C   0  0  0  0  0  0  0  0  0  0  0  0
 17 18  1  0  0  0
 18 19  2  0  0  0
 18 20  1  0  0  0
 20  7  1  0  0  0
 20 21  1  0  0  0
  7  8  2  0  0  0
  7 16  1  0  0  0
  8  9  1  0  0  0
  9 10  1  0  0  0
  9 11  1  0  0  0
 11 12  1  0  0  0
 11 16  2  0  0  0
 12 13  2  0  0  0
 13 14  1  0  0  0
 14 15  2  0  0  0
 15  1  1  0  0  0
 15 16  1  0  0  0
  1  2  1  0  0  0
  1  6  2  0  0  0
  2  3  2  0  0  0
  3  4  1  0  0  0
  4 22  1  0  0  0
  4  5  2  0  0  0
 22 23  1  0  0  0
 22 26  1  0  0  0
 23 24  2  0  0  0
 23 25  1  0  0  0
 25 28  1  0  0  0
 25 27  1  0  0  0
 28 29  1  0  0  0
 28 34  2  0  0  0
 29 30  2  0  0  0
 30 31  1  0  0  0
 31 32  2  0  0  0
 32 33  1  0  0  0
 32 34  1  0  0  0
  5  6  1  0  0  0
M  END
> <minimizedAffinity>
-8.66083

$$$$
