CHEMBL4800071


 33 36  0  0  0  0  0  0  0  0999 V2000
  -26.9154   -1.8238  -10.5412 C   0  0  0  0  0  0  0  0  0  0  0  0
  -25.5594   -1.9167  -10.2278 C   0  0  0  0  0  0  0  0  0  0  0  0
  -24.6019   -1.2400  -10.9944 C   0  0  0  0  0  0  0  0  0  0  0  0
  -24.9781   -0.4698  -12.0974 C   0  0  0  0  0  0  0  0  0  0  0  0
  -26.3211   -0.4661  -12.4791 C   0  0  0  0  0  0  0  0  0  0  0  0
  -27.2730   -1.1464  -11.7145 C   0  0  0  0  0  0  0  0  0  0  0  0
  -24.0904    0.3514  -12.8290 N   0  0  0  0  0  0  0  0  0  0  0  0
  -22.9750   -0.0738  -13.5310 C   0  0  0  0  0  0  0  0  0  0  0  0
  -22.6370   -1.2325  -13.7384 O   0  0  0  0  0  0  0  0  0  0  0  0
  -24.2164    1.3471  -12.6996 H   0  0  0  0  0  0  0  0  0  0  0  0
  -22.0725    1.0000  -14.0279 C   0  0  0  0  0  0  0  0  0  0  0  0
  -22.4057    2.3606  -13.9645 C   0  0  0  0  0  0  0  0  0  0  0  0
  -21.5126    3.3177  -14.4570 C   0  0  0  0  0  0  0  0  0  0  0  0
  -20.2961    2.9187  -15.0120 C   0  0  0  0  0  0  0  0  0  0  0  0
  -19.9813    1.5662  -15.0808 C   0  0  0  0  0  0  0  0  0  0  0  0
  -18.8167    1.1866  -15.6211 F   0  0  0  0  0  0  0  0  0  0  0  0
  -20.8570    0.6046  -14.6000 C   0  0  0  0  0  0  0  0  0  0  0  0
  -27.8834   -2.4333   -9.7174 N   0  0  0  0  0  0  0  0  0  0  0  0
  -27.9707   -3.4324   -9.8789 H   0  0  0  0  0  0  0  0  0  0  0  0
  -29.9267   -4.8857   -5.7244 C   0  0  0  0  0  0  0  0  0  0  0  0
  -29.4508   -3.6269   -5.3136 C   0  0  0  0  0  0  0  0  0  0  0  0
  -28.8314   -2.7396   -6.1780 C   0  0  0  0  0  0  0  0  0  0  0  0
  -28.4982   -1.5333   -5.7115 N   0  0  0  0  0  0  0  0  0  0  0  0
  -27.9686   -0.6800   -6.5901 C   0  0  0  0  0  0  0  0  0  0  0  0
  -27.7400   -0.9287   -7.8789 N   0  0  0  0  0  0  0  0  0  0  0  0
  -28.0659   -2.1539   -8.3367 C   0  0  0  0  0  0  0  0  0  0  0  0
  -28.6207   -3.1335   -7.4994 C   0  0  0  0  0  0  0  0  0  0  0  0
  -29.0168   -4.4288   -7.9041 C   0  0  0  0  0  0  0  0  0  0  0  0
  -29.6839   -5.3038   -7.0364 C   0  0  0  0  0  0  0  0  0  0  0  0
  -29.7796   -6.6054   -4.1057 C   0  0  0  0  0  0  0  0  0  0  0  0
  -30.6002   -5.7035   -4.8538 O   0  0  0  0  0  0  0  0  0  0  0  0
  -30.0270   -6.4621   -7.6706 O   0  0  0  0  0  0  0  0  0  0  0  0
  -29.0443   -7.4095   -8.0488 C   0  0  0  0  0  0  0  0  0  0  0  0
 30 31  1  0  0  0
 31 20  1  0  0  0
 20 21  1  0  0  0
 20 29  2  0  0  0
 21 22  2  0  0  0
 22 23  1  0  0  0
 22 27  1  0  0  0
 23 24  2  0  0  0
 24 25  1  0  0  0
 25 26  2  0  0  0
 26 18  1  0  0  0
 26 27  1  0  0  0
 18  1  1  0  0  0
 18 19  1  0  0  0
  1  2  1  0  0  0
  1  6  2  0  0  0
  2  3  2  0  0  0
  3  4  1  0  0  0
  4  7  1  0  0  0
  4  5  2  0  0  0
  7  8  1  0  0  0
  7 10  1  0  0  0
  8  9  2  0  0  0
  8 11  1  0  0  0
 11 12  1  0  0  0
 11 17  2  0  0  0
 12 13  2  0  0  0
 13 14  1  0  0  0
 14 15  2  0  0  0
 15 16  1  0  0  0
 15 17  1  0  0  0
  5  6  1  0  0  0
 27 28  2  0  0  0
 28 29  1  0  0  0
 29 32  1  0  0  0
 32 33  1  0  0  0
M  END
> <minimizedAffinity>
-9.76172

$$$$
