CHEMBL88483


 28 31  0  0  0  0  0  0  0  0999 V2000
  -28.7755   -1.6037   -5.3015 C   0  0  0  0  0  0  0  0  0  0  0  0
  -28.4503   -1.8067   -3.9444 C   0  0  0  0  0  0  0  0  0  0  0  0
  -28.2491   -3.0972   -3.4642 C   0  0  0  0  0  0  0  0  0  0  0  0
  -28.3891   -4.1355   -4.3645 C   0  0  0  0  0  0  0  0  0  0  0  0
  -28.7134   -3.9541   -5.7178 C   0  0  0  0  0  0  0  0  0  0  0  0
  -28.9157   -2.6750   -6.2058 C   0  0  0  0  0  0  0  0  0  0  0  0
  -28.7497   -5.3061   -6.3084 C   0  0  0  0  0  0  0  0  0  0  0  0
  -28.9508   -5.6269   -7.5987 C   0  0  0  0  0  0  0  0  0  0  0  0
  -28.4670   -6.2772   -5.1777 C   0  0  0  0  0  0  0  0  0  0  0  0
  -28.4681   -7.4915   -5.1812 O   0  0  0  0  0  0  0  0  0  0  0  0
  -28.2427   -5.4821   -4.0693 N   0  0  0  0  0  0  0  0  0  0  0  0
  -28.0314   -5.8770   -3.1664 H   0  0  0  0  0  0  0  0  0  0  0  0
  -28.8733   -6.9675   -8.0508 C   0  0  0  0  0  0  0  0  0  0  0  0
  -29.7842   -8.0087   -8.0836 C   0  0  0  0  0  0  0  0  0  0  0  0
  -29.2036   -9.0590   -8.8384 C   0  0  0  0  0  0  0  0  0  0  0  0
  -27.9280   -8.6567   -9.1749 C   0  0  0  0  0  0  0  0  0  0  0  0
  -27.7205   -7.4018   -8.6685 N   0  0  0  0  0  0  0  0  0  0  0  0
  -26.9626   -9.4196  -10.0109 C   0  0  0  0  0  0  0  0  0  0  0  0
  -27.7249  -10.4766  -10.8331 C   0  0  0  0  0  0  0  0  0  0  0  0
  -28.7420  -11.2515   -9.9727 C   0  0  0  0  0  0  0  0  0  0  0  0
  -29.8045  -10.3306   -9.3384 C   0  0  0  0  0  0  0  0  0  0  0  0
  -26.8915   -6.8432   -8.8170 H   0  0  0  0  0  0  0  0  0  0  0  0
  -27.9237    0.9000   -4.8669 N   0  0  0  0  0  0  0  0  0  0  0  0
  -28.9772    0.0607   -5.8728 S   0  0  0  0  0  0  0  0  0  0  0  0
  -30.3095    0.5065   -5.5369 O   0  0  0  0  0  0  0  0  0  0  0  0
  -28.4218    0.1783   -7.1979 O   0  0  0  0  0  0  0  0  0  0  0  0
  -28.4068    1.6961   -4.4477 H   0  0  0  0  0  0  0  0  0  0  0  0
  -27.0773    1.1572   -5.3749 H   0  0  0  0  0  0  0  0  0  0  0  0
 23 24  1  0  0  0
 23 27  1  0  0  0
 23 28  1  0  0  0
 24 25  2  0  0  0
 24 26  2  0  0  0
 24  1  1  0  0  0
  1  2  1  0  0  0
  1  6  2  0  0  0
  2  3  2  0  0  0
  3  4  1  0  0  0
  4  5  2  0  0  0
  4 11  1  0  0  0
  5  6  1  0  0  0
  5  7  1  0  0  0
  7  8  2  0  0  0
  7  9  1  0  0  0
  8 13  1  0  0  0
 13 14  2  0  0  0
 13 17  1  0  0  0
 14 15  1  0  0  0
 15 16  2  0  0  0
 15 21  1  0  0  0
 16 17  1  0  0  0
 16 18  1  0  0  0
 17 22  1  0  0  0
 18 19  1  0  0  0
 19 20  1  0  0  0
 20 21  1  0  0  0
  9 10  2  0  0  0
  9 11  1  0  0  0
 11 12  1  0  0  0
M  END
> <minimizedAffinity>
-9.47471

$$$$
