CHEMBL271441


 33 36  0  0  0  0  0  0  0  0999 V2000
  -28.3181   -2.2485   -8.2170 C   0  0  0  0  0  0  0  0  0  0  0  0
  -29.1062   -3.3645   -8.4988 C   0  0  0  0  0  0  0  0  0  0  0  0
  -29.6477   -4.1312   -7.4610 C   0  0  0  0  0  0  0  0  0  0  0  0
  -29.4079   -3.8179   -6.1110 C   0  0  0  0  0  0  0  0  0  0  0  0
  -28.4918   -2.7803   -5.8624 C   0  0  0  0  0  0  0  0  0  0  0  0
  -27.9635   -1.9903   -6.8963 C   0  0  0  0  0  0  0  0  0  0  0  0
  -30.1053   -4.5458   -5.0293 C   0  0  0  0  0  0  0  0  0  0  0  0
  -31.1242   -3.9465   -4.2684 C   0  0  0  0  0  0  0  0  0  0  0  0
  -31.8020   -4.5031   -3.2333 N   0  0  0  0  0  0  0  0  0  0  0  0
  -31.5026   -5.7634   -2.8737 C   0  0  0  0  0  0  0  0  0  0  0  0
  -30.5132   -6.4367   -3.5685 C   0  0  0  0  0  0  0  0  0  0  0  0
  -30.0313   -7.7040   -3.4097 N   0  0  0  0  0  0  0  0  0  0  0  0
  -29.0406   -8.0215   -4.2465 N   0  0  0  0  0  0  0  0  0  0  0  0
  -28.8652   -6.9155   -4.9639 C   0  0  0  0  0  0  0  0  0  0  0  0
  -27.8857   -6.8530   -5.8795 N   0  0  0  0  0  0  0  0  0  0  0  0
  -29.7896   -5.8726   -4.6244 C   0  0  0  0  0  0  0  0  0  0  0  0
  -30.3308   -8.4021   -2.7384 H   0  0  0  0  0  0  0  0  0  0  0  0
  -27.2327   -7.6291   -5.8550 H   0  0  0  0  0  0  0  0  0  0  0  0
  -27.4197   -5.9637   -6.0274 H   0  0  0  0  0  0  0  0  0  0  0  0
  -26.7132   -0.7714  -11.1166 N   0  0  0  0  0  0  0  0  0  0  0  0
  -27.0330   -1.7763  -10.2218 C   0  0  0  0  0  0  0  0  0  0  0  0
  -26.6519   -2.9458  -10.2899 O   0  0  0  0  0  0  0  0  0  0  0  0
  -27.9284   -1.3471   -9.2410 N   0  0  0  0  0  0  0  0  0  0  0  0
  -27.2150    0.1011  -11.0186 H   0  0  0  0  0  0  0  0  0  0  0  0
  -28.6491   -0.7312   -9.5814 H   0  0  0  0  0  0  0  0  0  0  0  0
  -22.3236    0.2344  -13.1667 C   0  0  0  0  0  0  0  0  0  0  0  0
  -23.6933   -0.3740  -13.2652 C   0  0  0  0  0  0  0  0  0  0  0  0
  -24.1028   -0.9732  -14.4594 C   0  0  0  0  0  0  0  0  0  0  0  0
  -25.3565   -1.5648  -14.5446 C   0  0  0  0  0  0  0  0  0  0  0  0
  -26.2163   -1.5479  -13.4501 C   0  0  0  0  0  0  0  0  0  0  0  0
  -27.3458   -2.2531  -13.5783 F   0  0  0  0  0  0  0  0  0  0  0  0
  -25.8655   -0.9027  -12.2494 C   0  0  0  0  0  0  0  0  0  0  0  0
  -24.5778   -0.3456  -12.1677 C   0  0  0  0  0  0  0  0  0  0  0  0
 26 27  1  0  0  0
 27 28  1  0  0  0
 27 33  2  0  0  0
 28 29  2  0  0  0
 29 30  1  0  0  0
 30 31  1  0  0  0
 30 32  2  0  0  0
 32 20  1  0  0  0
 32 33  1  0  0  0
 20 21  1  0  0  0
 20 24  1  0  0  0
 21 22  2  0  0  0
 21 23  1  0  0  0
 23  1  1  0  0  0
 23 25  1  0  0  0
  1  2  1  0  0  0
  1  6  2  0  0  0
  2  3  2  0  0  0
  3  4  1  0  0  0
  4  7  1  0  0  0
  4  5  2  0  0  0
  7  8  1  0  0  0
  7 16  2  0  0  0
  8  9  2  0  0  0
  9 10  1  0  0  0
 10 11  2  0  0  0
 11 12  1  0  0  0
 11 16  1  0  0  0
 12 13  1  0  0  0
 12 17  1  0  0  0
 13 14  2  0  0  0
 14 15  1  0  0  0
 14 16  1  0  0  0
 15 18  1  0  0  0
 15 19  1  0  0  0
  5  6  1  0  0  0
M  END
> <minimizedAffinity>
-10.06852

$$$$
