CHEMBL3967039


 35 40  0  0  0  0  0  0  0  0999 V2000
  -15.4573   -0.8575  -13.4709 C   0  0  0  0  0  0  0  0  0  0  0  0
  -14.6285   -1.8402  -14.0382 C   0  0  0  0  0  0  0  0  0  0  0  0
  -14.3136   -3.0263  -13.3638 C   0  0  0  0  0  0  0  0  0  0  0  0
  -14.8290   -3.2344  -12.0741 C   0  0  0  0  0  0  0  0  0  0  0  0
  -14.7857   -4.2678  -11.1033 C   0  0  0  0  0  0  0  0  0  0  0  0
  -15.4810   -3.9558   -9.9986 N   0  0  0  0  0  0  0  0  0  0  0  0
  -15.9589   -2.7286  -10.2648 N   0  0  0  0  0  0  0  0  0  0  0  0
  -15.6236   -2.2528  -11.5039 C   0  0  0  0  0  0  0  0  0  0  0  0
  -15.9554   -1.0655  -12.1647 C   0  0  0  0  0  0  0  0  0  0  0  0
  -16.5236   -2.2698   -9.5590 H   0  0  0  0  0  0  0  0  0  0  0  0
  -14.0827   -5.5673  -11.2756 C   0  0  0  0  0  0  0  0  0  0  0  0
  -14.6268   -6.7238  -11.8003 C   0  0  0  0  0  0  0  0  0  0  0  0
  -13.5923   -7.6941  -11.8159 C   0  0  0  0  0  0  0  0  0  0  0  0
  -13.4721   -9.0297  -12.2339 C   0  0  0  0  0  0  0  0  0  0  0  0
  -12.2385   -9.6751  -12.0704 C   0  0  0  0  0  0  0  0  0  0  0  0
  -11.1451   -9.0139  -11.5026 C   0  0  0  0  0  0  0  0  0  0  0  0
  -11.2432   -7.6828  -11.0862 C   0  0  0  0  0  0  0  0  0  0  0  0
  -12.4779   -7.0703  -11.2694 C   0  0  0  0  0  0  0  0  0  0  0  0
  -12.7721   -5.7824  -10.9482 O   0  0  0  0  0  0  0  0  0  0  0  0
  -16.7807    3.8996  -16.2546 O   0  0  0  0  0  0  0  0  0  0  0  0
  -16.4562    2.7486  -15.5903 C   0  0  0  0  0  0  0  0  0  0  0  0
  -15.2378    2.1211  -15.8389 C   0  0  0  0  0  0  0  0  0  0  0  0
  -14.9070    0.9490  -15.1505 C   0  0  0  0  0  0  0  0  0  0  0  0
  -15.7872    0.3774  -14.2169 C   0  0  0  0  0  0  0  0  0  0  0  0
  -17.0097    1.0311  -13.9983 C   0  0  0  0  0  0  0  0  0  0  0  0
  -17.3434    2.2221  -14.6504 C   0  0  0  0  0  0  0  0  0  0  0  0
  -16.0664    4.1197  -16.8727 H   0  0  0  0  0  0  0  0  0  0  0  0
  -18.5073    2.9074  -14.4097 O   0  0  0  0  0  0  0  0  0  0  0  0
  -19.5443    2.6917  -15.3719 C   0  0  0  0  0  0  0  0  0  0  0  0
  -20.7869    2.0908  -14.7641 C   0  0  0  0  0  0  0  0  0  0  0  0
  -21.8238    2.8780  -14.2522 C   0  0  0  0  0  0  0  0  0  0  0  0
  -22.9426    2.2795  -13.6766 C   0  0  0  0  0  0  0  0  0  0  0  0
  -23.0384    0.8897  -13.6097 C   0  0  0  0  0  0  0  0  0  0  0  0
  -22.0161    0.0946  -14.1225 C   0  0  0  0  0  0  0  0  0  0  0  0
  -20.8966    0.6918  -14.6995 C   0  0  0  0  0  0  0  0  0  0  0  0
 20 21  1  0  0  0
 20 27  1  0  0  0
 21 22  1  0  0  0
 21 26  2  0  0  0
 22 23  2  0  0  0
 23 24  1  0  0  0
 24  1  1  0  0  0
 24 25  2  0  0  0
  1  2  1  0  0  0
  1  9  2  0  0  0
  2  3  2  0  0  0
  3  4  1  0  0  0
  4  5  1  0  0  0
  4  8  2  0  0  0
  5 11  1  0  0  0
  5  6  2  0  0  0
 11 12  2  0  0  0
 11 19  1  0  0  0
 12 13  1  0  0  0
 13 14  1  0  0  0
 13 18  2  0  0  0
 14 15  2  0  0  0
 15 16  1  0  0  0
 16 17  2  0  0  0
 17 18  1  0  0  0
 18 19  1  0  0  0
  6  7  1  0  0  0
  7  8  1  0  0  0
  7 10  1  0  0  0
  8  9  1  0  0  0
 25 26  1  0  0  0
 26 28  1  0  0  0
 28 29  1  0  0  0
 29 30  1  0  0  0
 30 31  1  0  0  0
 30 35  2  0  0  0
 31 32  2  0  0  0
 32 33  1  0  0  0
 33 34  2  0  0  0
 34 35  1  0  0  0
M  END
> <minimizedAffinity>
-11.15196

$$$$
