CHEMBL234626


 30 33  0  0  0  0  0  0  0  0999 V2000
  -28.3713   -7.9029   -4.5035 C   0  0  0  0  0  0  0  0  0  0  0  0
  -29.0083   -8.0937   -5.6641 N   0  0  0  0  0  0  0  0  0  0  0  0
  -28.5180   -9.0746   -6.4522 C   0  0  0  0  0  0  0  0  0  0  0  0
  -27.4211   -9.8580   -6.1546 C   0  0  0  0  0  0  0  0  0  0  0  0
  -26.9979  -11.1406   -7.2005 Cl  0  0  0  0  0  0  0  0  0  0  0  0
  -26.7760   -9.5444   -4.9609 C   0  0  0  0  0  0  0  0  0  0  0  0
  -27.2781   -8.5822   -4.1293 N   0  0  0  0  0  0  0  0  0  0  0  0
  -25.5475  -10.1543   -4.4438 C   0  0  0  0  0  0  0  0  0  0  0  0
  -25.4364  -10.6610   -3.1234 C   0  0  0  0  0  0  0  0  0  0  0  0
  -24.2607  -11.2377   -2.6273 C   0  0  0  0  0  0  0  0  0  0  0  0
  -23.1695  -11.4561   -3.4665 C   0  0  0  0  0  0  0  0  0  0  0  0
  -23.2282  -10.9433   -4.7668 C   0  0  0  0  0  0  0  0  0  0  0  0
  -22.3686  -10.9750   -5.9064 C   0  0  0  0  0  0  0  0  0  0  0  0
  -22.5088   -9.6568   -6.3333 C   0  0  0  0  0  0  0  0  0  0  0  0
  -23.8808   -9.4373   -6.2388 N   0  0  0  0  0  0  0  0  0  0  0  0
  -24.3388  -10.1923   -5.1613 C   0  0  0  0  0  0  0  0  0  0  0  0
  -24.3209   -8.5699   -6.5050 H   0  0  0  0  0  0  0  0  0  0  0  0
  -28.8883   -6.9302   -3.6482 N   0  0  0  0  0  0  0  0  0  0  0  0
  -29.7405   -7.2968   -3.2431 H   0  0  0  0  0  0  0  0  0  0  0  0
  -29.0539   -2.7705   -4.4142 C   0  0  0  0  0  0  0  0  0  0  0  0
  -30.2325   -3.5104   -4.2775 C   0  0  0  0  0  0  0  0  0  0  0  0
  -30.1824   -4.8804   -4.0249 C   0  0  0  0  0  0  0  0  0  0  0  0
  -28.9601   -5.5522   -3.9351 C   0  0  0  0  0  0  0  0  0  0  0  0
  -27.7798   -4.8132   -4.0607 C   0  0  0  0  0  0  0  0  0  0  0  0
  -27.8259   -3.4389   -4.3180 C   0  0  0  0  0  0  0  0  0  0  0  0
  -29.1156   -1.2860   -4.6807 C   0  0  0  0  0  0  0  0  0  0  0  0
  -27.7524   -0.7076   -5.1159 C   0  0  0  0  0  0  0  0  0  0  0  0
  -27.8888   -1.0584   -7.4896 C   0  0  0  0  0  0  0  0  0  0  0  0
  -27.7524   -0.0475   -6.4354 N   0  0  0  0  0  0  0  0  0  0  0  0
  -28.8289    0.9360   -6.5588 C   0  0  0  0  0  0  0  0  0  0  0  0
 28 29  1  0  0  0
 29 30  1  0  0  0
 29 27  1  0  0  0
 27 26  1  0  0  0
 26 20  1  0  0  0
 20 21  1  0  0  0
 20 25  2  0  0  0
 21 22  2  0  0  0
 22 23  1  0  0  0
 23 18  1  0  0  0
 23 24  2  0  0  0
 18  1  1  0  0  0
 18 19  1  0  0  0
  1  2  1  0  0  0
  1  7  2  0  0  0
  2  3  2  0  0  0
  3  4  1  0  0  0
  4  5  1  0  0  0
  4  6  2  0  0  0
  6  8  1  0  0  0
  6  7  1  0  0  0
  8  9  1  0  0  0
  8 16  2  0  0  0
  9 10  2  0  0  0
 10 11  1  0  0  0
 11 12  2  0  0  0
 12 13  1  0  0  0
 12 16  1  0  0  0
 13 14  2  0  0  0
 14 15  1  0  0  0
 15 16  1  0  0  0
 15 17  1  0  0  0
 24 25  1  0  0  0
M  END
> <minimizedAffinity>
-8.29232

$$$$
