CHEMBL3353341


 40 46  0  0  0  0  0  0  0  0999 V2000
  -15.0567    4.1248  -17.2873 C   0  0  0  0  0  0  0  0  0  0  0  0
  -14.5003    2.8321  -17.2230 C   0  0  0  0  0  0  0  0  0  0  0  0
  -15.0401    1.8068  -16.4214 C   0  0  0  0  0  0  0  0  0  0  0  0
  -16.1869    2.0773  -15.6474 C   0  0  0  0  0  0  0  0  0  0  0  0
  -17.0200    1.3731  -14.7225 C   0  0  0  0  0  0  0  0  0  0  0  0
  -18.0194    2.1537  -14.2831 N   0  0  0  0  0  0  0  0  0  0  0  0
  -17.8285    3.3205  -14.9103 N   0  0  0  0  0  0  0  0  0  0  0  0
  -16.7398    3.3489  -15.7340 C   0  0  0  0  0  0  0  0  0  0  0  0
  -16.2190    4.3719  -16.5380 C   0  0  0  0  0  0  0  0  0  0  0  0
  -18.4809    4.0758  -14.7250 H   0  0  0  0  0  0  0  0  0  0  0  0
  -11.4091    5.8552  -14.5874 C   0  0  0  0  0  0  0  0  0  0  0  0
  -11.3459    7.2419  -14.3420 C   0  0  0  0  0  0  0  0  0  0  0  0
  -11.8698    8.1597  -15.2503 C   0  0  0  0  0  0  0  0  0  0  0  0
  -12.4766    7.6445  -16.3740 C   0  0  0  0  0  0  0  0  0  0  0  0
  -12.6014    6.2677  -16.6341 C   0  0  0  0  0  0  0  0  0  0  0  0
  -12.0192    5.3664  -15.7523 C   0  0  0  0  0  0  0  0  0  0  0  0
  -13.3434    6.1148  -17.9335 C   0  0  0  0  0  0  0  0  0  0  0  0
  -13.1201    4.9541  -18.8572 C   0  0  0  0  0  0  0  0  0  0  0  0
  -14.4860    5.1585  -18.2348 C   0  0  0  0  0  0  0  0  0  0  0  0
  -13.5010    7.5399  -18.4264 C   0  0  0  0  0  0  0  0  0  0  0  0
  -13.9870    7.8664  -19.4962 O   0  0  0  0  0  0  0  0  0  0  0  0
  -13.0166    8.3725  -17.4348 N   0  0  0  0  0  0  0  0  0  0  0  0
  -13.0167    9.3773  -17.5179 H   0  0  0  0  0  0  0  0  0  0  0  0
  -11.3334    3.7659  -13.4495 C   0  0  0  0  0  0  0  0  0  0  0  0
  -10.8446    5.0925  -13.6000 O   0  0  0  0  0  0  0  0  0  0  0  0
  -16.8246    0.0226  -14.2672 C   0  0  0  0  0  0  0  0  0  0  0  0
  -15.8346   -0.3491  -13.4319 C   0  0  0  0  0  0  0  0  0  0  0  0
  -15.5207   -1.7185  -13.0062 C   0  0  0  0  0  0  0  0  0  0  0  0
  -15.8456   -2.2187  -11.7525 C   0  0  0  0  0  0  0  0  0  0  0  0
  -15.5991   -3.5594  -11.4570 C   0  0  0  0  0  0  0  0  0  0  0  0
  -15.0463   -4.4112  -12.4081 C   0  0  0  0  0  0  0  0  0  0  0  0
  -14.7463   -3.9417  -13.6366 N   0  0  0  0  0  0  0  0  0  0  0  0
  -14.9738   -2.6289  -13.9031 C   0  0  0  0  0  0  0  0  0  0  0  0
  -14.7680   -5.7246  -12.1286 N   0  0  0  0  0  0  0  0  0  0  0  0
  -13.9837   -6.1531  -10.9743 C   0  0  0  0  0  0  0  0  0  0  0  0
  -13.0026   -7.2691  -11.3982 C   0  0  0  0  0  0  0  0  0  0  0  0
  -13.6871   -8.4125  -12.0419 N   0  0  0  0  0  0  0  0  0  0  0  0
  -12.7158   -9.4289  -12.4378 C   0  0  0  0  0  0  0  0  0  0  0  0
  -14.4377   -7.9183  -13.2238 C   0  0  0  0  0  0  0  0  0  0  0  0
  -15.4394   -6.7928  -12.8746 C   0  0  0  0  0  0  0  0  0  0  0  0
 24 25  1  0  0  0
 25 11  1  0  0  0
 11 12  1  0  0  0
 11 16  2  0  0  0
 12 13  2  0  0  0
 13 14  1  0  0  0
 14 15  2  0  0  0
 14 22  1  0  0  0
 15 16  1  0  0  0
 17 15  1  0  0  0
 17 18  1  0  0  0
 17 19  1  0  0  0
 17 20  1  0  0  0
 18 19  1  0  0  0
 19  1  1  0  0  0
  1  2  1  0  0  0
  1  9  2  0  0  0
  2  3  2  0  0  0
  3  4  1  0  0  0
  4  5  1  0  0  0
  4  8  2  0  0  0
  5 26  1  0  0  0
  5  6  2  0  0  0
 26 27  2  0  0  0
 27 28  1  0  0  0
 28 29  1  0  0  0
 28 33  2  0  0  0
 29 30  2  0  0  0
 30 31  1  0  0  0
 31 34  1  0  0  0
 31 32  2  0  0  0
 34 35  1  0  0  0
 34 40  1  0  0  0
 35 36  1  0  0  0
 36 37  1  0  0  0
 37 38  1  0  0  0
 37 39  1  0  0  0
 39 40  1  0  0  0
 32 33  1  0  0  0
  6  7  1  0  0  0
  7  8  1  0  0  0
  7 10  1  0  0  0
  8  9  1  0  0  0
 20 21  2  0  0  0
 20 22  1  0  0  0
 22 23  1  0  0  0
M  END
> <minimizedAffinity>
-9.43344

$$$$
