CHEMBL2000071


 23 25  0  0  0  0  0  0  0  0999 V2000
  -29.8892   -4.5290   -6.9223 C   0  0  0  0  0  0  0  0  0  0  0  0
  -30.1823   -5.7985   -7.3099 N   0  0  0  0  0  0  0  0  0  0  0  0
  -30.5525   -6.7019   -6.3883 C   0  0  0  0  0  0  0  0  0  0  0  0
  -30.6664   -6.5260   -5.0663 N   0  0  0  0  0  0  0  0  0  0  0  0
  -30.3470   -5.2735   -4.7132 C   0  0  0  0  0  0  0  0  0  0  0  0
  -30.3556   -4.8367   -3.4218 N   0  0  0  0  0  0  0  0  0  0  0  0
  -29.9712   -3.5256   -3.3771 C   0  0  0  0  0  0  0  0  0  0  0  0
  -29.7202   -3.0943   -4.6712 C   0  0  0  0  0  0  0  0  0  0  0  0
  -29.9557   -4.2264   -5.5394 C   0  0  0  0  0  0  0  0  0  0  0  0
  -30.5997   -5.4209   -2.6350 H   0  0  0  0  0  0  0  0  0  0  0  0
  -29.2889   -1.7230   -4.9472 C   0  0  0  0  0  0  0  0  0  0  0  0
  -30.1823   -0.7653   -5.4409 C   0  0  0  0  0  0  0  0  0  0  0  0
  -29.7775    0.5573   -5.6481 C   0  0  0  0  0  0  0  0  0  0  0  0
  -28.4564    0.9288   -5.4145 C   0  0  0  0  0  0  0  0  0  0  0  0
  -27.5408   -0.0210   -4.9717 C   0  0  0  0  0  0  0  0  0  0  0  0
  -27.9567   -1.3341   -4.7301 C   0  0  0  0  0  0  0  0  0  0  0  0
  -29.5240   -3.5942   -7.8915 N   0  0  0  0  0  0  0  0  0  0  0  0
  -30.0751   -3.7122   -8.7357 H   0  0  0  0  0  0  0  0  0  0  0  0
  -28.0991   -3.3828   -8.0833 C   0  0  0  0  0  0  0  0  0  0  0  0
  -27.8266   -1.9115   -8.3828 C   0  0  0  0  0  0  0  0  0  0  0  0
  -26.0824   -1.9933  -10.0280 O   0  0  0  0  0  0  0  0  0  0  0  0
  -27.4648   -1.7172   -9.8478 C   0  0  0  0  0  0  0  0  0  0  0  0
  -25.8891   -1.8863  -10.9746 H   0  0  0  0  0  0  0  0  0  0  0  0
 21 22  1  0  0  0
 21 23  1  0  0  0
 22 20  1  0  0  0
 20 19  1  0  0  0
 19 17  1  0  0  0
 17  1  1  0  0  0
 17 18  1  0  0  0
  1  2  1  0  0  0
  1  9  2  0  0  0
  2  3  2  0  0  0
  3  4  1  0  0  0
  4  5  2  0  0  0
  5  6  1  0  0  0
  5  9  1  0  0  0
  6  7  1  0  0  0
  6 10  1  0  0  0
  7  8  2  0  0  0
  8 11  1  0  0  0
  8  9  1  0  0  0
 11 12  1  0  0  0
 11 16  2  0  0  0
 12 13  2  0  0  0
 13 14  1  0  0  0
 14 15  2  0  0  0
 15 16  1  0  0  0
M  END
> <minimizedAffinity>
-7.64790

$$$$
