CHEMBL400512


 33 35  0  0  0  0  0  0  0  0999 V2000
  -27.7895   -3.6917   -8.6385 O   0  0  0  0  0  0  0  0  0  0  0  0
  -27.7545   -2.5079   -8.3178 C   0  0  0  0  0  0  0  0  0  0  0  0
  -27.2649   -1.4688   -9.0893 N   0  0  0  0  0  0  0  0  0  0  0  0
  -27.3415   -0.5342   -8.6955 H   0  0  0  0  0  0  0  0  0  0  0  0
  -26.7417   -1.5722  -10.4002 C   0  0  0  0  0  0  0  0  0  0  0  0
  -25.3734   -1.5752  -10.6907 C   0  0  0  0  0  0  0  0  0  0  0  0
  -24.9032   -1.7397  -12.0040 C   0  0  0  0  0  0  0  0  0  0  0  0
  -25.8322   -1.8644  -13.0462 C   0  0  0  0  0  0  0  0  0  0  0  0
  -27.2100   -1.8535  -12.7831 C   0  0  0  0  0  0  0  0  0  0  0  0
  -27.6519   -1.7095  -11.4543 C   0  0  0  0  0  0  0  0  0  0  0  0
  -23.4225   -1.8281  -12.2935 C   0  0  0  0  0  0  0  0  0  0  0  0
  -23.0309   -3.0142  -12.8332 F   0  0  0  0  0  0  0  0  0  0  0  0
  -23.0186   -0.8684  -13.1731 F   0  0  0  0  0  0  0  0  0  0  0  0
  -22.6626   -1.6528  -11.1779 F   0  0  0  0  0  0  0  0  0  0  0  0
  -28.2148   -2.0214  -13.8979 C   0  0  0  0  0  0  0  0  0  0  0  0
  -28.5833   -3.3148  -14.1084 F   0  0  0  0  0  0  0  0  0  0  0  0
  -29.3675   -1.3378  -13.6579 F   0  0  0  0  0  0  0  0  0  0  0  0
  -27.7486   -1.5638  -15.0916 F   0  0  0  0  0  0  0  0  0  0  0  0
  -28.3016   -2.1537   -6.9842 C   0  0  0  0  0  0  0  0  0  0  0  0
  -27.6960   -1.0575   -6.3430 C   0  0  0  0  0  0  0  0  0  0  0  0
  -28.1683   -0.6276   -5.1121 C   0  0  0  0  0  0  0  0  0  0  0  0
  -29.2339   -1.3041   -4.5705 C   0  0  0  0  0  0  0  0  0  0  0  0
  -29.8470   -2.3523   -5.1745 N   0  0  0  0  0  0  0  0  0  0  0  0
  -29.4083   -2.7749   -6.3855 C   0  0  0  0  0  0  0  0  0  0  0  0
  -30.0242   -3.9080   -6.9482 N   0  0  0  0  0  0  0  0  0  0  0  0
  -30.9756   -3.7292   -7.2461 H   0  0  0  0  0  0  0  0  0  0  0  0
  -29.9343   -5.1490   -6.1690 C   0  0  0  0  0  0  0  0  0  0  0  0
  -29.9141   -6.4281   -6.9931 C   0  0  0  0  0  0  0  0  0  0  0  0
  -28.8414   -6.8569   -7.7833 C   0  0  0  0  0  0  0  0  0  0  0  0
  -28.9375   -8.0750   -8.4458 C   0  0  0  0  0  0  0  0  0  0  0  0
  -30.0148   -8.8866   -8.3884 N   0  0  0  0  0  0  0  0  0  0  0  0
  -31.0482   -8.4569   -7.6391 C   0  0  0  0  0  0  0  0  0  0  0  0
  -31.0436   -7.2600   -6.9365 C   0  0  0  0  0  0  0  0  0  0  0  0
  1  2  2  0  0  0
  2  3  1  0  0  0
  2 19  1  0  0  0
  3  5  1  0  0  0
  3  4  1  0  0  0
  5  6  1  0  0  0
  5 10  2  0  0  0
  6  7  2  0  0  0
  7 11  1  0  0  0
  7  8  1  0  0  0
 11 12  1  0  0  0
 11 13  1  0  0  0
 11 14  1  0  0  0
  8  9  2  0  0  0
  9 15  1  0  0  0
  9 10  1  0  0  0
 15 16  1  0  0  0
 15 17  1  0  0  0
 15 18  1  0  0  0
 19 20  1  0  0  0
 19 24  2  0  0  0
 20 21  2  0  0  0
 21 22  1  0  0  0
 22 23  2  0  0  0
 23 24  1  0  0  0
 24 25  1  0  0  0
 25 27  1  0  0  0
 25 26  1  0  0  0
 27 28  1  0  0  0
 28 29  1  0  0  0
 28 33  2  0  0  0
 29 30  2  0  0  0
 30 31  1  0  0  0
 31 32  2  0  0  0
 32 33  1  0  0  0
M  END
> <minimizedAffinity>
-9.89396

$$$$
