CHEMBL3968968


 42 46  0  0  0  0  0  0  0  0999 V2000
  -29.3805   -6.6330   -6.9502 C   0  0  0  0  0  0  0  0  0  0  0  0
  -30.5004   -7.1550   -7.6108 C   0  0  0  0  0  0  0  0  0  0  0  0
  -30.9711   -8.4388   -7.3184 C   0  0  0  0  0  0  0  0  0  0  0  0
  -30.3197   -9.2368   -6.3692 C   0  0  0  0  0  0  0  0  0  0  0  0
  -29.2064   -8.7124   -5.7002 C   0  0  0  0  0  0  0  0  0  0  0  0
  -28.7424   -7.4254   -5.9892 C   0  0  0  0  0  0  0  0  0  0  0  0
  -27.3945   -2.4052   -8.9938 C   0  0  0  0  0  0  0  0  0  0  0  0
  -27.4168   -1.1502   -8.4872 N   0  0  0  0  0  0  0  0  0  0  0  0
  -27.9889   -0.9528   -7.2818 C   0  0  0  0  0  0  0  0  0  0  0  0
  -28.5659   -1.8572   -6.4735 N   0  0  0  0  0  0  0  0  0  0  0  0
  -28.5180   -3.0841   -7.0137 C   0  0  0  0  0  0  0  0  0  0  0  0
  -29.0467   -4.2063   -6.4457 N   0  0  0  0  0  0  0  0  0  0  0  0
  -28.8689   -5.2998   -7.2698 C   0  0  0  0  0  0  0  0  0  0  0  0
  -28.1571   -4.8396   -8.3702 C   0  0  0  0  0  0  0  0  0  0  0  0
  -27.9563   -3.4371   -8.2248 C   0  0  0  0  0  0  0  0  0  0  0  0
  -29.5147   -4.2096   -5.5531 H   0  0  0  0  0  0  0  0  0  0  0  0
  -26.8556   -2.6732  -10.2527 N   0  0  0  0  0  0  0  0  0  0  0  0
  -25.8933   -2.9736  -10.1092 H   0  0  0  0  0  0  0  0  0  0  0  0
  -27.6696   -2.0029  -12.4937 C   0  0  0  0  0  0  0  0  0  0  0  0
  -26.8956   -1.5854  -11.2367 C   0  0  0  0  0  0  0  0  0  0  0  0
  -25.4501   -1.2579  -11.6027 C   0  0  0  0  0  0  0  0  0  0  0  0
  -24.5037   -2.2783  -11.7783 C   0  0  0  0  0  0  0  0  0  0  0  0
  -23.1953   -1.9722  -12.1650 C   0  0  0  0  0  0  0  0  0  0  0  0
  -22.8173   -0.6472  -12.3775 C   0  0  0  0  0  0  0  0  0  0  0  0
  -23.7397    0.3778  -12.1860 C   0  0  0  0  0  0  0  0  0  0  0  0
  -25.0444    0.0747  -11.7985 C   0  0  0  0  0  0  0  0  0  0  0  0
  -30.7786  -10.6508   -6.0939 C   0  0  0  0  0  0  0  0  0  0  0  0
  -30.6107  -11.5627   -7.2281 N   0  0  0  0  0  0  0  0  0  0  0  0
  -30.9990  -11.1393   -8.0679 H   0  0  0  0  0  0  0  0  0  0  0  0
  -29.2071  -11.8929   -7.4709 C   0  0  0  0  0  0  0  0  0  0  0  0
  -28.6667  -11.1436   -8.6669 C   0  0  0  0  0  0  0  0  0  0  0  0
  -27.3546  -10.6438   -8.6639 C   0  0  0  0  0  0  0  0  0  0  0  0
  -26.8306  -10.0122   -9.7936 C   0  0  0  0  0  0  0  0  0  0  0  0
  -27.6183   -9.8680  -10.9425 C   0  0  0  0  0  0  0  0  0  0  0  0
  -28.9324  -10.3493  -10.9471 C   0  0  0  0  0  0  0  0  0  0  0  0
  -29.4543  -10.9777   -9.8151 C   0  0  0  0  0  0  0  0  0  0  0  0
  -27.0781   -9.2698  -12.1920 C   0  0  0  0  0  0  0  0  0  0  0  0
  -26.0584   -8.5863  -12.1839 O   0  0  0  0  0  0  0  0  0  0  0  0
  -27.7604   -9.5468  -13.3548 N   0  0  0  0  0  0  0  0  0  0  0  0
  -27.1469   -9.0685  -14.5371 O   0  0  0  0  0  0  0  0  0  0  0  0
  -28.3751  -10.3457  -13.4590 H   0  0  0  0  0  0  0  0  0  0  0  0
  -26.3810   -8.5641  -14.1819 H   0  0  0  0  0  0  0  0  0  0  0  0
 19 20  1  0  0  0
 20 17  1  0  0  0
 20 21  1  0  0  0
 17  7  1  0  0  0
 17 18  1  0  0  0
  7  8  1  0  0  0
  7 15  2  0  0  0
  8  9  2  0  0  0
  9 10  1  0  0  0
 10 11  2  0  0  0
 11 12  1  0  0  0
 11 15  1  0  0  0
 12 13  1  0  0  0
 12 16  1  0  0  0
 13  1  1  0  0  0
 13 14  2  0  0  0
  1  2  1  0  0  0
  1  6  2  0  0  0
  2  3  2  0  0  0
  3  4  1  0  0  0
  4 27  1  0  0  0
  4  5  2  0  0  0
 27 28  1  0  0  0
 28 30  1  0  0  0
 28 29  1  0  0  0
 30 31  1  0  0  0
 31 32  1  0  0  0
 31 36  2  0  0  0
 32 33  2  0  0  0
 33 34  1  0  0  0
 34 37  1  0  0  0
 34 35  2  0  0  0
 37 38  2  0  0  0
 37 39  1  0  0  0
 39 40  1  0  0  0
 39 41  1  0  0  0
 40 42  1  0  0  0
 35 36  1  0  0  0
  5  6  1  0  0  0
 14 15  1  0  0  0
 21 22  1  0  0  0
 21 26  2  0  0  0
 22 23  2  0  0  0
 23 24  1  0  0  0
 24 25  2  0  0  0
 25 26  1  0  0  0
M  END
> <minimizedAffinity>
-10.25133

$$$$
