CHEMBL3986068


 35 38  0  0  0  0  0  0  0  0999 V2000
  -15.7283    1.1659  -15.0089 N   0  0  0  0  0  0  0  0  0  0  0  0
  -17.0527    1.7943  -15.0699 C   0  0  0  0  0  0  0  0  0  0  0  0
  -17.2489    3.1587  -15.4212 C   0  0  0  0  0  0  0  0  0  0  0  0
  -18.5277    3.7347  -15.4523 C   0  0  0  0  0  0  0  0  0  0  0  0
  -19.6403    2.9864  -15.0700 C   0  0  0  0  0  0  0  0  0  0  0  0
  -20.8819    3.5406  -15.0446 N   0  0  0  0  0  0  0  0  0  0  0  0
  -21.9606    2.8281  -14.6132 C   0  0  0  0  0  0  0  0  0  0  0  0
  -21.7861    1.5020  -14.1863 C   0  0  0  0  0  0  0  0  0  0  0  0
  -20.5503    0.9474  -14.2481 N   0  0  0  0  0  0  0  0  0  0  0  0
  -19.4731    1.6528  -14.6803 C   0  0  0  0  0  0  0  0  0  0  0  0
  -18.2130    1.0608  -14.7039 C   0  0  0  0  0  0  0  0  0  0  0  0
  -22.9005    0.6951  -13.6461 C   0  0  0  0  0  0  0  0  0  0  0  0
  -23.4720    0.8208  -12.3928 C   0  0  0  0  0  0  0  0  0  0  0  0
  -24.4608   -0.0851  -12.2700 N   0  0  0  0  0  0  0  0  0  0  0  0
  -24.5199   -0.7668  -13.4031 N   0  0  0  0  0  0  0  0  0  0  0  0
  -25.4626   -1.8532  -13.6522 C   0  0  0  0  0  0  0  0  0  0  0  0
  -23.5984   -0.3200  -14.2688 C   0  0  0  0  0  0  0  0  0  0  0  0
  -13.7330    0.6499  -18.2269 C   0  0  0  0  0  0  0  0  0  0  0  0
  -12.9286    1.7812  -18.2770 C   0  0  0  0  0  0  0  0  0  0  0  0
  -12.8865    2.6740  -17.2155 C   0  0  0  0  0  0  0  0  0  0  0  0
  -13.6804    2.4349  -16.0524 C   0  0  0  0  0  0  0  0  0  0  0  0
  -13.1796    3.3353  -14.6127 Cl  0  0  0  0  0  0  0  0  0  0  0  0
  -14.6923    1.3845  -16.0531 C   0  0  0  0  0  0  0  0  0  0  0  0
  -14.5976    0.4800  -17.1503 C   0  0  0  0  0  0  0  0  0  0  0  0
  -13.5421   -1.6548  -19.0161 C   0  0  0  0  0  0  0  0  0  0  0  0
  -13.7192   -0.2982  -19.2024 O   0  0  0  0  0  0  0  0  0  0  0  0
  -12.0569    3.7420  -17.4026 O   0  0  0  0  0  0  0  0  0  0  0  0
  -11.5619    4.2616  -18.5870 C   0  0  0  0  0  0  0  0  0  0  0  0
  -15.4953    0.3582  -13.7875 C   0  0  0  0  0  0  0  0  0  0  0  0
  -14.3247   -0.6553  -13.8325 C   0  0  0  0  0  0  0  0  0  0  0  0
  -14.2480   -1.6587  -12.7660 N   0  0  0  0  0  0  0  0  0  0  0  0
  -13.8872   -1.1995  -11.8986 H   0  0  0  0  0  0  0  0  0  0  0  0
  -15.6180   -2.1915  -12.4909 C   0  0  0  0  0  0  0  0  0  0  0  0
  -16.0017   -3.3951  -13.3935 C   0  0  0  0  0  0  0  0  0  0  0  0
  -15.7302   -2.6348  -11.0311 C   0  0  0  0  0  0  0  0  0  0  0  0
 25 26  1  0  0  0
 26 18  1  0  0  0
 18 19  1  0  0  0
 18 24  2  0  0  0
 19 20  2  0  0  0
 20 27  1  0  0  0
 20 21  1  0  0  0
 27 28  1  0  0  0
 21 22  1  0  0  0
 21 23  2  0  0  0
 23  1  1  0  0  0
 23 24  1  0  0  0
  1 29  1  0  0  0
  1  2  1  0  0  0
 29 30  1  0  0  0
 30 31  1  0  0  0
 31 33  1  0  0  0
 31 32  1  0  0  0
 33 34  1  0  0  0
 33 35  1  0  0  0
  2  3  1  0  0  0
  2 11  2  0  0  0
  3  4  2  0  0  0
  4  5  1  0  0  0
  5  6  1  0  0  0
  5 10  2  0  0  0
  6  7  2  0  0  0
  7  8  1  0  0  0
  8 12  1  0  0  0
  8  9  2  0  0  0
 12 13  1  0  0  0
 12 17  2  0  0  0
 13 14  2  0  0  0
 14 15  1  0  0  0
 15 16  1  0  0  0
 15 17  1  0  0  0
  9 10  1  0  0  0
 10 11  1  0  0  0
M  END
> <minimizedAffinity>
-7.98074

$$$$
