CHEMBL3690549


 36 39  0  0  0  0  0  0  0  0999 V2000
  -14.8687    0.4456  -15.0554 C   0  0  0  0  0  0  0  0  0  0  0  0
  -13.6003    0.3108  -15.6064 C   0  0  0  0  0  0  0  0  0  0  0  0
  -12.9014   -0.7286  -15.0639 N   0  0  0  0  0  0  0  0  0  0  0  0
  -13.7098   -1.2491  -14.1682 C   0  0  0  0  0  0  0  0  0  0  0  0
  -13.5163   -2.3625  -13.3041 C   0  0  0  0  0  0  0  0  0  0  0  0
  -14.4732   -2.7408  -12.4167 C   0  0  0  0  0  0  0  0  0  0  0  0
  -15.7238   -1.9691  -12.3622 C   0  0  0  0  0  0  0  0  0  0  0  0
  -15.9058   -0.9115  -13.1695 C   0  0  0  0  0  0  0  0  0  0  0  0
  -14.9180   -0.5605  -14.0933 N   0  0  0  0  0  0  0  0  0  0  0  0
  -18.1573    2.3615  -15.0688 C   0  0  0  0  0  0  0  0  0  0  0  0
  -17.7820    3.4910  -15.7961 C   0  0  0  0  0  0  0  0  0  0  0  0
  -16.4984    3.5890  -16.3316 C   0  0  0  0  0  0  0  0  0  0  0  0
  -15.5624    2.5825  -16.1010 C   0  0  0  0  0  0  0  0  0  0  0  0
  -15.8981    1.4531  -15.3422 C   0  0  0  0  0  0  0  0  0  0  0  0
  -17.2189    1.3335  -14.8824 C   0  0  0  0  0  0  0  0  0  0  0  0
  -20.1666    0.1944  -15.4369 O   0  0  0  0  0  0  0  0  0  0  0  0
  -20.3208    1.1661  -14.7097 C   0  0  0  0  0  0  0  0  0  0  0  0
  -21.4716    1.3221  -13.9652 N   0  0  0  0  0  0  0  0  0  0  0  0
  -19.4346    2.1912  -14.4894 N   0  0  0  0  0  0  0  0  0  0  0  0
  -21.7469    2.2743  -13.7715 H   0  0  0  0  0  0  0  0  0  0  0  0
  -19.7209    2.8888  -13.8202 H   0  0  0  0  0  0  0  0  0  0  0  0
  -22.5648    0.3573  -14.1392 C   0  0  0  0  0  0  0  0  0  0  0  0
  -22.9423   -0.4432  -12.8850 C   0  0  0  0  0  0  0  0  0  0  0  0
  -22.1252   -0.1669  -11.8424 F   0  0  0  0  0  0  0  0  0  0  0  0
  -24.2135   -0.2211  -12.4957 F   0  0  0  0  0  0  0  0  0  0  0  0
  -22.8203   -1.7717  -13.1331 F   0  0  0  0  0  0  0  0  0  0  0  0
  -14.2496   -3.9321  -11.5586 C   0  0  0  0  0  0  0  0  0  0  0  0
  -14.1014   -3.8411  -10.1888 C   0  0  0  0  0  0  0  0  0  0  0  0
  -13.8829   -5.0186   -9.5156 C   0  0  0  0  0  0  0  0  0  0  0  0
  -13.8249   -6.2161  -10.1211 N   0  0  0  0  0  0  0  0  0  0  0  0
  -13.9993   -6.2396  -11.4645 C   0  0  0  0  0  0  0  0  0  0  0  0
  -14.2178   -5.1215  -12.2043 N   0  0  0  0  0  0  0  0  0  0  0  0
  -13.9525   -7.5933  -12.1869 C   0  0  0  0  0  0  0  0  0  0  0  0
  -15.0916   -7.8962  -12.8772 F   0  0  0  0  0  0  0  0  0  0  0  0
  -12.9408   -7.6733  -13.1033 F   0  0  0  0  0  0  0  0  0  0  0  0
  -13.7570   -8.6467  -11.3342 F   0  0  0  0  0  0  0  0  0  0  0  0
 16 17  2  0  0  0
 17 18  1  0  0  0
 17 19  1  0  0  0
 18 22  1  0  0  0
 18 20  1  0  0  0
 22 23  1  0  0  0
 23 24  1  0  0  0
 23 25  1  0  0  0
 23 26  1  0  0  0
 19 10  1  0  0  0
 19 21  1  0  0  0
 10 11  1  0  0  0
 10 15  2  0  0  0
 11 12  2  0  0  0
 12 13  1  0  0  0
 13 14  2  0  0  0
 14  1  1  0  0  0
 14 15  1  0  0  0
  1  2  2  0  0  0
  1  9  1  0  0  0
  2  3  1  0  0  0
  3  4  2  0  0  0
  4  5  1  0  0  0
  4  9  1  0  0  0
  5  6  2  0  0  0
  6 27  1  0  0  0
  6  7  1  0  0  0
 27 28  1  0  0  0
 27 32  2  0  0  0
 28 29  2  0  0  0
 29 30  1  0  0  0
 30 31  2  0  0  0
 31 33  1  0  0  0
 31 32  1  0  0  0
 33 34  1  0  0  0
 33 35  1  0  0  0
 33 36  1  0  0  0
  7  8  2  0  0  0
  8  9  1  0  0  0
M  END
> <minimizedAffinity>
-9.81099

$$$$
