CHEMBL4067760


 41 45  0  0  0  0  0  0  0  0999 V2000
  -22.9842   -0.6234  -13.0869 C   0  0  0  0  0  0  0  0  0  0  0  0
  -22.3347   -0.3990  -12.0699 O   0  0  0  0  0  0  0  0  0  0  0  0
  -22.5584   -0.4173  -14.3931 N   0  0  0  0  0  0  0  0  0  0  0  0
  -23.2559   -0.4673  -15.1249 H   0  0  0  0  0  0  0  0  0  0  0  0
  -28.5238   -2.3091  -12.6880 C   0  0  0  0  0  0  0  0  0  0  0  0
  -27.0889   -1.8568  -12.7352 C   0  0  0  0  0  0  0  0  0  0  0  0
  -26.4564   -1.7453  -13.9795 C   0  0  0  0  0  0  0  0  0  0  0  0
  -25.1239   -1.3493  -14.0593 C   0  0  0  0  0  0  0  0  0  0  0  0
  -24.3950   -1.0575  -12.8988 C   0  0  0  0  0  0  0  0  0  0  0  0
  -25.0177   -1.1457  -11.6489 C   0  0  0  0  0  0  0  0  0  0  0  0
  -26.3620   -1.5515  -11.5676 C   0  0  0  0  0  0  0  0  0  0  0  0
  -26.9806   -1.6633  -10.2770 C   0  0  0  0  0  0  0  0  0  0  0  0
  -27.4635   -1.7426   -9.1786 C   0  0  0  0  0  0  0  0  0  0  0  0
  -28.0284   -1.8126   -7.8686 C   0  0  0  0  0  0  0  0  0  0  0  0
  -27.9453   -0.7592   -6.9700 C   0  0  0  0  0  0  0  0  0  0  0  0
  -28.4416   -0.7803   -5.7115 N   0  0  0  0  0  0  0  0  0  0  0  0
  -29.0669   -1.8983   -5.2731 C   0  0  0  0  0  0  0  0  0  0  0  0
  -29.1923   -2.9955   -6.1273 C   0  0  0  0  0  0  0  0  0  0  0  0
  -28.6820   -2.9754   -7.4301 C   0  0  0  0  0  0  0  0  0  0  0  0
  -28.9816   -4.2461   -8.0043 C   0  0  0  0  0  0  0  0  0  0  0  0
  -29.6523   -4.9930   -7.0605 C   0  0  0  0  0  0  0  0  0  0  0  0
  -29.7758   -4.2293   -5.9311 N   0  0  0  0  0  0  0  0  0  0  0  0
  -30.4252   -4.6605   -4.7112 C   0  0  0  0  0  0  0  0  0  0  0  0
  -21.3053    0.1466  -14.7481 C   0  0  0  0  0  0  0  0  0  0  0  0
  -20.2795   -0.5942  -15.3279 C   0  0  0  0  0  0  0  0  0  0  0  0
  -19.0206   -0.0324  -15.5404 C   0  0  0  0  0  0  0  0  0  0  0  0
  -18.7459    1.2968  -15.1821 C   0  0  0  0  0  0  0  0  0  0  0  0
  -19.7909    2.0896  -14.6602 C   0  0  0  0  0  0  0  0  0  0  0  0
  -21.0677    1.4965  -14.4648 C   0  0  0  0  0  0  0  0  0  0  0  0
  -19.6359    3.5391  -14.2356 C   0  0  0  0  0  0  0  0  0  0  0  0
  -18.6042    3.8373  -13.4048 F   0  0  0  0  0  0  0  0  0  0  0  0
  -19.4449    4.3503  -15.3204 F   0  0  0  0  0  0  0  0  0  0  0  0
  -20.7631    4.0160  -13.6313 F   0  0  0  0  0  0  0  0  0  0  0  0
  -17.3168    1.7801  -15.3348 C   0  0  0  0  0  0  0  0  0  0  0  0
  -16.3302    0.7594  -14.9798 N   0  0  0  0  0  0  0  0  0  0  0  0
  -15.0561    0.8653  -15.7099 C   0  0  0  0  0  0  0  0  0  0  0  0
  -14.0908   -0.2734  -15.3011 C   0  0  0  0  0  0  0  0  0  0  0  0
  -13.8062   -0.3566  -13.8542 N   0  0  0  0  0  0  0  0  0  0  0  0
  -12.9248    0.7237  -13.4209 C   0  0  0  0  0  0  0  0  0  0  0  0
  -15.0833   -0.3522  -13.1117 C   0  0  0  0  0  0  0  0  0  0  0  0
  -16.0790    0.7566  -13.5266 C   0  0  0  0  0  0  0  0  0  0  0  0
  5  6  1  0  0  0
  6  7  1  0  0  0
  6 11  2  0  0  0
  7  8  2  0  0  0
  8  9  1  0  0  0
  9  1  1  0  0  0
  9 10  2  0  0  0
  1  2  2  0  0  0
  1  3  1  0  0  0
  3 24  1  0  0  0
  3  4  1  0  0  0
 24 25  1  0  0  0
 24 29  2  0  0  0
 25 26  2  0  0  0
 26 27  1  0  0  0
 27 34  1  0  0  0
 27 28  2  0  0  0
 34 35  1  0  0  0
 35 36  1  0  0  0
 35 41  1  0  0  0
 36 37  1  0  0  0
 37 38  1  0  0  0
 38 39  1  0  0  0
 38 40  1  0  0  0
 40 41  1  0  0  0
 28 30  1  0  0  0
 28 29  1  0  0  0
 30 31  1  0  0  0
 30 32  1  0  0  0
 30 33  1  0  0  0
 10 11  1  0  0  0
 11 12  1  0  0  0
 12 13  3  0  0  0
 13 14  1  0  0  0
 14 15  1  0  0  0
 14 19  2  0  0  0
 15 16  2  0  0  0
 16 17  1  0  0  0
 17 18  2  0  0  0
 18 19  1  0  0  0
 18 22  1  0  0  0
 19 20  1  0  0  0
 20 21  2  0  0  0
 21 22  1  0  0  0
 22 23  1  0  0  0
M  END
> <minimizedAffinity>
-11.06217

$$$$
