CHEMBL1991674


 27 30  0  0  0  0  0  0  0  0999 V2000
  -30.1295   -3.4878   -5.0868 C   0  0  0  0  0  0  0  0  0  0  0  0
  -30.9783   -3.7178   -4.0268 C   0  0  0  0  0  0  0  0  0  0  0  0
  -31.3625   -5.0240   -3.8464 C   0  0  0  0  0  0  0  0  0  0  0  0
  -32.3489   -5.4770   -2.5187 Cl  0  0  0  0  0  0  0  0  0  0  0  0
  -31.0377   -6.0336   -4.6567 N   0  0  0  0  0  0  0  0  0  0  0  0
  -30.2539   -5.6996   -5.6864 C   0  0  0  0  0  0  0  0  0  0  0  0
  -29.7646   -4.4616   -5.9273 N   0  0  0  0  0  0  0  0  0  0  0  0
  -29.9717   -6.7459   -6.6578 C   0  0  0  0  0  0  0  0  0  0  0  0
  -28.7712   -6.8689   -7.3381 C   0  0  0  0  0  0  0  0  0  0  0  0
  -28.8576   -7.9422   -8.1786 N   0  0  0  0  0  0  0  0  0  0  0  0
  -30.0964   -8.5099   -8.0847 C   0  0  0  0  0  0  0  0  0  0  0  0
  -30.4981   -9.5727   -8.8047 N   0  0  0  0  0  0  0  0  0  0  0  0
  -31.7779   -9.9265   -8.5470 C   0  0  0  0  0  0  0  0  0  0  0  0
  -32.6283   -9.2981   -7.6482 C   0  0  0  0  0  0  0  0  0  0  0  0
  -32.1543   -8.2055   -6.9228 C   0  0  0  0  0  0  0  0  0  0  0  0
  -30.8289   -7.7897   -7.1499 C   0  0  0  0  0  0  0  0  0  0  0  0
  -28.1380   -8.2785   -8.8038 H   0  0  0  0  0  0  0  0  0  0  0  0
  -29.7190   -2.1634   -5.3056 N   0  0  0  0  0  0  0  0  0  0  0  0
  -30.1205   -1.8629   -6.1891 H   0  0  0  0  0  0  0  0  0  0  0  0
  -29.0298    1.9308   -7.0120 O   0  0  0  0  0  0  0  0  0  0  0  0
  -28.2677    0.8821   -6.4221 C   0  0  0  0  0  0  0  0  0  0  0  0
  -28.7515    0.6290   -4.9963 C   0  0  0  0  0  0  0  0  0  0  0  0
  -28.0399   -0.5800   -4.3881 C   0  0  0  0  0  0  0  0  0  0  0  0
  -28.2851   -1.8533   -5.2179 C   0  0  0  0  0  0  0  0  0  0  0  0
  -27.7581   -1.6015   -6.6473 C   0  0  0  0  0  0  0  0  0  0  0  0
  -28.3891   -0.3651   -7.2976 C   0  0  0  0  0  0  0  0  0  0  0  0
  -28.9649    2.7056   -6.4284 H   0  0  0  0  0  0  0  0  0  0  0  0
 20 21  1  0  0  0
 20 27  1  0  0  0
 21 22  1  0  0  0
 21 26  1  0  0  0
 22 23  1  0  0  0
 23 24  1  0  0  0
 24 18  1  0  0  0
 24 25  1  0  0  0
 18  1  1  0  0  0
 18 19  1  0  0  0
  1  2  1  0  0  0
  1  7  2  0  0  0
  2  3  2  0  0  0
  3  4  1  0  0  0
  3  5  1  0  0  0
  5  6  2  0  0  0
  6  8  1  0  0  0
  6  7  1  0  0  0
  8  9  2  0  0  0
  8 16  1  0  0  0
  9 10  1  0  0  0
 10 11  1  0  0  0
 10 17  1  0  0  0
 11 12  1  0  0  0
 11 16  2  0  0  0
 12 13  2  0  0  0
 13 14  1  0  0  0
 14 15  2  0  0  0
 15 16  1  0  0  0
 25 26  1  0  0  0
M  END
> <minimizedAffinity>
-9.05756

$$$$
