CHEMBL3690579


 39 42  0  0  0  0  0  0  0  0999 V2000
  -14.5597   -3.2933  -12.9925 C   0  0  0  0  0  0  0  0  0  0  0  0
  -15.8556   -2.9282  -13.5805 C   0  0  0  0  0  0  0  0  0  0  0  0
  -16.0808   -1.6722  -14.0055 C   0  0  0  0  0  0  0  0  0  0  0  0
  -15.0996   -0.6892  -13.8377 N   0  0  0  0  0  0  0  0  0  0  0  0
  -15.0825    0.6773  -14.1379 C   0  0  0  0  0  0  0  0  0  0  0  0
  -13.7945    1.0683  -13.8009 C   0  0  0  0  0  0  0  0  0  0  0  0
  -13.0556    0.0485  -13.2703 N   0  0  0  0  0  0  0  0  0  0  0  0
  -13.8620   -0.9910  -13.2722 C   0  0  0  0  0  0  0  0  0  0  0  0
  -13.6260   -2.3242  -12.8284 C   0  0  0  0  0  0  0  0  0  0  0  0
  -15.1790   -7.8737  -13.9434 N   0  0  0  0  0  0  0  0  0  0  0  0
  -14.5380   -6.9681  -13.1111 C   0  0  0  0  0  0  0  0  0  0  0  0
  -14.8771   -5.6769  -13.3218 N   0  0  0  0  0  0  0  0  0  0  0  0
  -14.2402   -4.7023  -12.6215 C   0  0  0  0  0  0  0  0  0  0  0  0
  -13.2533   -5.0022  -11.6912 C   0  0  0  0  0  0  0  0  0  0  0  0
  -12.9152   -6.3315  -11.4817 C   0  0  0  0  0  0  0  0  0  0  0  0
  -13.5500   -7.3448  -12.2117 C   0  0  0  0  0  0  0  0  0  0  0  0
  -15.9128   -7.3874  -14.4525 H   0  0  0  0  0  0  0  0  0  0  0  0
  -15.5097   -8.7167  -13.4862 H   0  0  0  0  0  0  0  0  0  0  0  0
  -13.1147   -8.7624  -11.9997 C   0  0  0  0  0  0  0  0  0  0  0  0
  -12.8310   -9.4708  -13.1279 F   0  0  0  0  0  0  0  0  0  0  0  0
  -12.0062   -8.8518  -11.2105 F   0  0  0  0  0  0  0  0  0  0  0  0
  -14.0738   -9.4924  -11.3564 F   0  0  0  0  0  0  0  0  0  0  0  0
  -16.1950    1.5120  -14.6287 C   0  0  0  0  0  0  0  0  0  0  0  0
  -16.0263    2.3417  -15.7414 C   0  0  0  0  0  0  0  0  0  0  0  0
  -17.0748    3.1140  -16.2266 C   0  0  0  0  0  0  0  0  0  0  0  0
  -18.3385    3.0106  -15.6542 C   0  0  0  0  0  0  0  0  0  0  0  0
  -18.5781    2.1350  -14.5956 C   0  0  0  0  0  0  0  0  0  0  0  0
  -17.4894    1.4194  -14.0615 C   0  0  0  0  0  0  0  0  0  0  0  0
  -19.8764    1.9280  -14.0550 N   0  0  0  0  0  0  0  0  0  0  0  0
  -20.7651    0.9471  -14.4446 C   0  0  0  0  0  0  0  0  0  0  0  0
  -20.5976    0.0924  -15.3085 O   0  0  0  0  0  0  0  0  0  0  0  0
  -21.9686    1.0158  -13.7786 N   0  0  0  0  0  0  0  0  0  0  0  0
  -20.1512    2.5210  -13.2867 H   0  0  0  0  0  0  0  0  0  0  0  0
  -21.9486    1.3600  -12.8294 H   0  0  0  0  0  0  0  0  0  0  0  0
  -22.9973    0.0148  -14.1079 C   0  0  0  0  0  0  0  0  0  0  0  0
  -23.5731   -0.7867  -12.9303 C   0  0  0  0  0  0  0  0  0  0  0  0
  -22.6054   -1.2728  -12.1195 F   0  0  0  0  0  0  0  0  0  0  0  0
  -24.3530    0.0197  -12.1645 F   0  0  0  0  0  0  0  0  0  0  0  0
  -24.3442   -1.8177  -13.3335 F   0  0  0  0  0  0  0  0  0  0  0  0
 10 11  1  0  0  0
 10 17  1  0  0  0
 10 18  1  0  0  0
 11 12  1  0  0  0
 11 16  2  0  0  0
 12 13  2  0  0  0
 13  1  1  0  0  0
 13 14  1  0  0  0
  1  2  1  0  0  0
  1  9  2  0  0  0
  2  3  2  0  0  0
  3  4  1  0  0  0
  4  5  1  0  0  0
  4  8  1  0  0  0
  5 23  1  0  0  0
  5  6  2  0  0  0
 23 24  1  0  0  0
 23 28  2  0  0  0
 24 25  2  0  0  0
 25 26  1  0  0  0
 26 27  2  0  0  0
 27 29  1  0  0  0
 27 28  1  0  0  0
 29 30  1  0  0  0
 29 33  1  0  0  0
 30 31  2  0  0  0
 30 32  1  0  0  0
 32 35  1  0  0  0
 32 34  1  0  0  0
 35 36  1  0  0  0
 36 37  1  0  0  0
 36 38  1  0  0  0
 36 39  1  0  0  0
  6  7  1  0  0  0
  7  8  2  0  0  0
  8  9  1  0  0  0
 14 15  2  0  0  0
 15 16  1  0  0  0
 16 19  1  0  0  0
 19 20  1  0  0  0
 19 21  1  0  0  0
 19 22  1  0  0  0
M  END
> <minimizedAffinity>
-9.73318

$$$$
