CHEMBL390156


 36 41  0  0  0  0  0  0  0  0999 V2000
  -16.9654   10.9126  -21.1855 C   0  0  0  0  0  0  0  0  0  0  0  0
  -17.6398   11.3878  -22.3430 C   0  0  0  0  0  0  0  0  0  0  0  0
  -18.9638   11.8267  -22.3054 C   0  0  0  0  0  0  0  0  0  0  0  0
  -19.6162   11.7164  -21.1065 C   0  0  0  0  0  0  0  0  0  0  0  0
  -18.9958   11.1895  -19.9384 C   0  0  0  0  0  0  0  0  0  0  0  0
  -17.6622   10.8084  -19.9687 C   0  0  0  0  0  0  0  0  0  0  0  0
  -19.9568   11.0950  -18.7391 C   0  0  0  0  0  0  0  0  0  0  0  0
  -21.1552   11.6754  -19.4103 C   0  0  0  0  0  0  0  0  0  0  0  0
  -22.4874   12.0096  -19.1679 C   0  0  0  0  0  0  0  0  0  0  0  0
  -23.0621   12.5685  -20.2587 N   0  0  0  0  0  0  0  0  0  0  0  0
  -22.0809   12.5505  -21.1993 N   0  0  0  0  0  0  0  0  0  0  0  0
  -20.9419   12.0205  -20.7118 C   0  0  0  0  0  0  0  0  0  0  0  0
  -22.2784   12.9169  -22.1235 H   0  0  0  0  0  0  0  0  0  0  0  0
  -23.1865   11.7868  -17.9054 C   0  0  0  0  0  0  0  0  0  0  0  0
  -22.6221   11.9082  -16.6520 C   0  0  0  0  0  0  0  0  0  0  0  0
  -23.7445   11.5958  -15.4046 S   0  0  0  0  0  0  0  0  0  0  0  0
  -24.9862   11.2807  -16.5320 C   0  0  0  0  0  0  0  0  0  0  0  0
  -24.5608   11.4119  -17.8339 C   0  0  0  0  0  0  0  0  0  0  0  0
  -26.3001   10.9243  -16.1307 C   0  0  0  0  0  0  0  0  0  0  0  0
  -27.4950   10.6041  -15.7187 C   0  0  0  0  0  0  0  0  0  0  0  0
  -28.8880   10.2309  -15.2385 C   0  0  0  0  0  0  0  0  0  0  0  0
  -29.2663   11.0730  -14.1538 O   0  0  0  0  0  0  0  0  0  0  0  0
  -30.5776   10.9826  -13.7650 C   0  0  0  0  0  0  0  0  0  0  0  0
  -31.0268   10.5343  -12.5200 C   0  0  0  0  0  0  0  0  0  0  0  0
  -32.3944   10.4586  -12.2481 C   0  0  0  0  0  0  0  0  0  0  0  0
  -33.3213   10.8459  -13.2121 C   0  0  0  0  0  0  0  0  0  0  0  0
  -32.8811   11.3151  -14.4481 C   0  0  0  0  0  0  0  0  0  0  0  0
  -31.5133   11.3774  -14.7246 C   0  0  0  0  0  0  0  0  0  0  0  0
  -15.4960   10.5329  -21.2720 C   0  0  0  0  0  0  0  0  0  0  0  0
  -13.7111    6.3760  -19.5807 C   0  0  0  0  0  0  0  0  0  0  0  0
  -14.1066    7.1021  -20.7813 N   0  0  0  0  0  0  0  0  0  0  0  0
  -15.5298    7.4716  -20.7377 C   0  0  0  0  0  0  0  0  0  0  0  0
  -15.9314    8.2140  -22.0319 C   0  0  0  0  0  0  0  0  0  0  0  0
  -15.1893    9.4755  -22.2551 N   0  0  0  0  0  0  0  0  0  0  0  0
  -13.7429    9.1370  -22.2254 C   0  0  0  0  0  0  0  0  0  0  0  0
  -13.2820    8.3074  -20.9926 C   0  0  0  0  0  0  0  0  0  0  0  0
 30 31  1  0  0  0
 31 32  1  0  0  0
 31 36  1  0  0  0
 32 33  1  0  0  0
 33 34  1  0  0  0
 34 29  1  0  0  0
 34 35  1  0  0  0
 29  1  1  0  0  0
  1  2  1  0  0  0
  1  6  2  0  0  0
  2  3  2  0  0  0
  3  4  1  0  0  0
  4  5  2  0  0  0
  4 12  1  0  0  0
  5  6  1  0  0  0
  5  7  1  0  0  0
  7  8  1  0  0  0
  8  9  1  0  0  0
  8 12  2  0  0  0
  9 14  1  0  0  0
  9 10  2  0  0  0
 14 15  2  0  0  0
 14 18  1  0  0  0
 15 16  1  0  0  0
 16 17  1  0  0  0
 17 19  1  0  0  0
 17 18  2  0  0  0
 19 20  3  0  0  0
 20 21  1  0  0  0
 21 22  1  0  0  0
 22 23  1  0  0  0
 23 24  1  0  0  0
 23 28  2  0  0  0
 24 25  2  0  0  0
 25 26  1  0  0  0
 26 27  2  0  0  0
 27 28  1  0  0  0
 10 11  1  0  0  0
 11 12  1  0  0  0
 11 13  1  0  0  0
 35 36  1  0  0  0
M  END
> <minimizedAffinity>
-6.18109

$$$$
