CHEMBL3646211


 44 48  0  0  0  0  0  0  0  0999 V2000
  -21.9177    0.2444  -14.3091 C   0  0  0  0  0  0  0  0  0  0  0  0
  -21.1386   -0.8155  -14.7284 C   0  0  0  0  0  0  0  0  0  0  0  0
  -19.6291   -0.3483  -15.3158 S   0  0  0  0  0  0  0  0  0  0  0  0
  -19.9220    1.3272  -15.0075 C   0  0  0  0  0  0  0  0  0  0  0  0
  -19.0357    2.4042  -15.2326 C   0  0  0  0  0  0  0  0  0  0  0  0
  -19.5475    3.6607  -14.9636 C   0  0  0  0  0  0  0  0  0  0  0  0
  -20.7826    3.9019  -14.4981 N   0  0  0  0  0  0  0  0  0  0  0  0
  -21.6173    2.8767  -14.2383 C   0  0  0  0  0  0  0  0  0  0  0  0
  -22.8325    3.2834  -13.7007 N   0  0  0  0  0  0  0  0  0  0  0  0
  -21.2249    1.5297  -14.4957 C   0  0  0  0  0  0  0  0  0  0  0  0
  -22.7625    4.2702  -13.4707 H   0  0  0  0  0  0  0  0  0  0  0  0
  -23.1400    2.6981  -12.9338 H   0  0  0  0  0  0  0  0  0  0  0  0
  -25.6698   -0.8429  -12.5407 C   0  0  0  0  0  0  0  0  0  0  0  0
  -25.3277   -1.2896  -13.8170 C   0  0  0  0  0  0  0  0  0  0  0  0
  -24.1159   -0.9150  -14.3955 C   0  0  0  0  0  0  0  0  0  0  0  0
  -23.2360   -0.0500  -13.7263 C   0  0  0  0  0  0  0  0  0  0  0  0
  -23.6510    0.4934  -12.5051 C   0  0  0  0  0  0  0  0  0  0  0  0
  -24.8512    0.0874  -11.9024 C   0  0  0  0  0  0  0  0  0  0  0  0
  -27.8884   -2.2044  -10.0225 N   0  0  0  0  0  0  0  0  0  0  0  0
  -26.7024   -1.7004  -10.5185 C   0  0  0  0  0  0  0  0  0  0  0  0
  -25.6806   -1.5285   -9.8616 O   0  0  0  0  0  0  0  0  0  0  0  0
  -26.7988   -1.3586  -11.8639 N   0  0  0  0  0  0  0  0  0  0  0  0
  -28.5802   -2.4888  -10.7006 H   0  0  0  0  0  0  0  0  0  0  0  0
  -27.6982   -0.9952  -12.1395 H   0  0  0  0  0  0  0  0  0  0  0  0
  -28.7332   -3.1843   -5.9871 C   0  0  0  0  0  0  0  0  0  0  0  0
  -28.1452   -1.9651   -6.2901 C   0  0  0  0  0  0  0  0  0  0  0  0
  -27.8582   -1.6338   -7.6174 C   0  0  0  0  0  0  0  0  0  0  0  0
  -28.1449   -2.5059   -8.6660 C   0  0  0  0  0  0  0  0  0  0  0  0
  -28.7425   -3.7401   -8.3584 C   0  0  0  0  0  0  0  0  0  0  0  0
  -29.0318   -4.0702   -7.0225 C   0  0  0  0  0  0  0  0  0  0  0  0
  -27.9940   -4.1632   -3.9566 C   0  0  0  0  0  0  0  0  0  0  0  0
  -29.0604   -3.6123   -4.7266 O   0  0  0  0  0  0  0  0  0  0  0  0
  -17.6789    2.2253  -15.7137 C   0  0  0  0  0  0  0  0  0  0  0  0
  -16.8103    1.1072  -15.7099 C   0  0  0  0  0  0  0  0  0  0  0  0
  -15.6065    1.3857  -16.2216 N   0  0  0  0  0  0  0  0  0  0  0  0
  -15.7283    2.6599  -16.6301 N   0  0  0  0  0  0  0  0  0  0  0  0
  -16.9198    3.2278  -16.2853 C   0  0  0  0  0  0  0  0  0  0  0  0
  -14.6307    3.2853  -17.3433 C   0  0  0  0  0  0  0  0  0  0  0  0
  -13.3308    3.3316  -16.5368 C   0  0  0  0  0  0  0  0  0  0  0  0
  -12.7922    2.0232  -16.2869 O   0  0  0  0  0  0  0  0  0  0  0  0
  -13.5454    1.4127  -16.1319 H   0  0  0  0  0  0  0  0  0  0  0  0
  -13.4756    4.0637  -15.1999 C   0  0  0  0  0  0  0  0  0  0  0  0
  -14.0835    5.3363  -15.4129 O   0  0  0  0  0  0  0  0  0  0  0  0
  -13.5891    5.7439  -16.1520 H   0  0  0  0  0  0  0  0  0  0  0  0
 31 32  1  0  0  0
 32 25  1  0  0  0
 25 26  1  0  0  0
 25 30  2  0  0  0
 26 27  2  0  0  0
 27 28  1  0  0  0
 28 19  1  0  0  0
 28 29  2  0  0  0
 19 20  1  0  0  0
 19 23  1  0  0  0
 20 21  2  0  0  0
 20 22  1  0  0  0
 22 13  1  0  0  0
 22 24  1  0  0  0
 13 14  1  0  0  0
 13 18  2  0  0  0
 14 15  2  0  0  0
 15 16  1  0  0  0
 16  1  1  0  0  0
 16 17  2  0  0  0
  1  2  2  0  0  0
  1 10  1  0  0  0
  2  3  1  0  0  0
  3  4  1  0  0  0
  4  5  1  0  0  0
  4 10  2  0  0  0
  5 33  1  0  0  0
  5  6  2  0  0  0
 33 34  1  0  0  0
 33 37  2  0  0  0
 34 35  2  0  0  0
 35 36  1  0  0  0
 36 38  1  0  0  0
 36 37  1  0  0  0
 39 42  1  0  0  0
 39 40  1  0  0  0
 39 38  1  0  0  0
 40 41  1  0  0  0
 42 43  1  0  0  0
 43 44  1  0  0  0
  6  7  1  0  0  0
  7  8  2  0  0  0
  8  9  1  0  0  0
  8 10  1  0  0  0
  9 11  1  0  0  0
  9 12  1  0  0  0
 17 18  1  0  0  0
 29 30  1  0  0  0
M  END
> <minimizedAffinity>
-10.06210

$$$$
