CHEMBL203394


 31 34  0  0  0  0  0  0  0  0999 V2000
  -11.9884    2.3255  -13.4800 C   0  0  0  0  0  0  0  0  0  0  0  0
  -13.0248    2.7113  -14.4083 N   0  0  0  0  0  0  0  0  0  0  0  0
  -12.9889    3.8140  -15.2183 C   0  0  0  0  0  0  0  0  0  0  0  0
  -14.1046    3.9512  -15.9020 N   0  0  0  0  0  0  0  0  0  0  0  0
  -14.8566    2.8703  -15.5586 C   0  0  0  0  0  0  0  0  0  0  0  0
  -14.2232    2.0763  -14.6299 C   0  0  0  0  0  0  0  0  0  0  0  0
  -14.6863    0.9094  -13.9620 C   0  0  0  0  0  0  0  0  0  0  0  0
  -14.6871    0.7564  -12.6527 N   0  0  0  0  0  0  0  0  0  0  0  0
  -15.2275   -0.4777  -12.3975 N   0  0  0  0  0  0  0  0  0  0  0  0
  -15.5297   -1.0102  -13.5654 C   0  0  0  0  0  0  0  0  0  0  0  0
  -15.2039   -0.1924  -14.6052 O   0  0  0  0  0  0  0  0  0  0  0  0
  -16.0502   -2.2049  -13.8961 N   0  0  0  0  0  0  0  0  0  0  0  0
  -16.7188   -2.2399  -14.6511 H   0  0  0  0  0  0  0  0  0  0  0  0
  -15.6445   -3.4425  -13.3675 C   0  0  0  0  0  0  0  0  0  0  0  0
  -16.3345   -4.0743  -12.3214 C   0  0  0  0  0  0  0  0  0  0  0  0
  -15.8492   -5.2475  -11.7371 C   0  0  0  0  0  0  0  0  0  0  0  0
  -14.6549   -5.7950  -12.1870 C   0  0  0  0  0  0  0  0  0  0  0  0
  -14.0374   -7.2180  -11.4450 Cl  0  0  0  0  0  0  0  0  0  0  0  0
  -13.9531   -5.1896  -13.2254 C   0  0  0  0  0  0  0  0  0  0  0  0
  -14.4478   -4.0200  -13.8142 C   0  0  0  0  0  0  0  0  0  0  0  0
  -16.0817    2.6488  -16.0590 N   0  0  0  0  0  0  0  0  0  0  0  0
  -16.1557    2.1187  -16.9211 H   0  0  0  0  0  0  0  0  0  0  0  0
  -17.1667    3.5776  -15.8373 C   0  0  0  0  0  0  0  0  0  0  0  0
  -18.4296    2.8193  -15.4531 C   0  0  0  0  0  0  0  0  0  0  0  0
  -18.4079    1.4139  -15.4210 C   0  0  0  0  0  0  0  0  0  0  0  0
  -19.5627    0.6875  -15.1058 C   0  0  0  0  0  0  0  0  0  0  0  0
  -20.7457    1.3618  -14.8271 C   0  0  0  0  0  0  0  0  0  0  0  0
  -21.8453    0.6609  -14.5191 F   0  0  0  0  0  0  0  0  0  0  0  0
  -20.7879    2.7475  -14.8725 C   0  0  0  0  0  0  0  0  0  0  0  0
  -21.9306    3.3984  -14.6038 F   0  0  0  0  0  0  0  0  0  0  0  0
  -19.6467    3.4778  -15.1959 C   0  0  0  0  0  0  0  0  0  0  0  0
  1  2  1  0  0  0
  2  3  1  0  0  0
  2  6  1  0  0  0
  3  4  2  0  0  0
  4  5  1  0  0  0
  5 21  1  0  0  0
  5  6  2  0  0  0
 21 23  1  0  0  0
 21 22  1  0  0  0
 23 24  1  0  0  0
 24 25  1  0  0  0
 24 31  2  0  0  0
 25 26  2  0  0  0
 26 27  1  0  0  0
 27 28  1  0  0  0
 27 29  2  0  0  0
 29 30  1  0  0  0
 29 31  1  0  0  0
  6  7  1  0  0  0
  7  8  2  0  0  0
  7 11  1  0  0  0
  8  9  1  0  0  0
  9 10  2  0  0  0
 10 12  1  0  0  0
 10 11  1  0  0  0
 12 14  1  0  0  0
 12 13  1  0  0  0
 14 15  1  0  0  0
 14 20  2  0  0  0
 15 16  2  0  0  0
 16 17  1  0  0  0
 17 18  1  0  0  0
 17 19  2  0  0  0
 19 20  1  0  0  0
M  END
> <minimizedAffinity>
-9.29530

$$$$
