CHEMBL3622955


 32 36  0  0  0  0  0  0  0  0999 V2000
  -28.4714   -8.5023   -6.1967 C   0  0  0  0  0  0  0  0  0  0  0  0
  -29.0859   -8.9502   -7.3416 C   0  0  0  0  0  0  0  0  0  0  0  0
  -30.2080   -8.2694   -7.7239 C   0  0  0  0  0  0  0  0  0  0  0  0
  -30.6829   -7.1995   -7.0648 N   0  0  0  0  0  0  0  0  0  0  0  0
  -30.0233   -6.7939   -5.9710 C   0  0  0  0  0  0  0  0  0  0  0  0
  -28.9331   -7.4333   -5.4911 N   0  0  0  0  0  0  0  0  0  0  0  0
  -24.8470   -9.8271   -3.2441 C   0  0  0  0  0  0  0  0  0  0  0  0
  -25.6748   -9.7645   -4.4783 C   0  0  0  0  0  0  0  0  0  0  0  0
  -26.7057   -8.9147   -4.5540 N   0  0  0  0  0  0  0  0  0  0  0  0
  -27.3301   -9.2323   -5.7223 N   0  0  0  0  0  0  0  0  0  0  0  0
  -26.7165  -10.2957   -6.3377 C   0  0  0  0  0  0  0  0  0  0  0  0
  -25.5485  -10.5618   -5.6513 C   0  0  0  0  0  0  0  0  0  0  0  0
  -24.4590  -11.5520   -5.9329 C   0  0  0  0  0  0  0  0  0  0  0  0
  -23.5821  -11.1624   -7.0583 N   0  0  0  0  0  0  0  0  0  0  0  0
  -22.2782  -11.8726   -7.1387 C   0  0  0  0  0  0  0  0  0  0  0  0
  -21.6728  -10.8723   -6.1318 C   0  0  0  0  0  0  0  0  0  0  0  0
  -21.6947  -11.2456   -4.7290 O   0  0  0  0  0  0  0  0  0  0  0  0
  -22.8070   -9.9445   -6.6407 C   0  0  0  0  0  0  0  0  0  0  0  0
  -21.9157  -12.1935   -4.7181 H   0  0  0  0  0  0  0  0  0  0  0  0
  -30.4409   -5.6630   -5.2611 N   0  0  0  0  0  0  0  0  0  0  0  0
  -31.3512   -5.8486   -4.8663 H   0  0  0  0  0  0  0  0  0  0  0  0
  -30.0566   -4.3084   -5.2978 C   0  0  0  0  0  0  0  0  0  0  0  0
  -30.1845   -3.4192   -4.2266 C   0  0  0  0  0  0  0  0  0  0  0  0
  -29.6863   -2.1023   -4.2704 C   0  0  0  0  0  0  0  0  0  0  0  0
  -28.9936   -1.6967   -5.4191 C   0  0  0  0  0  0  0  0  0  0  0  0
  -28.8809   -2.5367   -6.5323 C   0  0  0  0  0  0  0  0  0  0  0  0
  -29.4818   -3.8167   -6.4853 C   0  0  0  0  0  0  0  0  0  0  0  0
  -28.0836   -1.8533   -7.4898 C   0  0  0  0  0  0  0  0  0  0  0  0
  -27.5938   -2.4757   -8.9944 Cl  0  0  0  0  0  0  0  0  0  0  0  0
  -27.7169   -0.6432   -6.9534 C   0  0  0  0  0  0  0  0  0  0  0  0
  -28.3144   -0.5320   -5.7249 N   0  0  0  0  0  0  0  0  0  0  0  0
  -28.1919    0.6276   -4.8691 C   0  0  0  0  0  0  0  0  0  0  0  0
  7  8  1  0  0  0
  8  9  2  0  0  0
  8 12  1  0  0  0
  9 10  1  0  0  0
 10  1  1  0  0  0
 10 11  1  0  0  0
  1  2  1  0  0  0
  1  6  2  0  0  0
  2  3  2  0  0  0
  3  4  1  0  0  0
  4  5  2  0  0  0
  5 20  1  0  0  0
  5  6  1  0  0  0
 20 22  1  0  0  0
 20 21  1  0  0  0
 22 23  1  0  0  0
 22 27  2  0  0  0
 23 24  2  0  0  0
 24 25  1  0  0  0
 25 26  2  0  0  0
 25 31  1  0  0  0
 26 27  1  0  0  0
 26 28  1  0  0  0
 28 29  1  0  0  0
 28 30  2  0  0  0
 30 31  1  0  0  0
 31 32  1  0  0  0
 11 12  2  0  0  0
 12 13  1  0  0  0
 13 14  1  0  0  0
 14 15  1  0  0  0
 14 18  1  0  0  0
 15 16  1  0  0  0
 16 17  1  0  0  0
 16 18  1  0  0  0
 17 19  1  0  0  0
M  END
> <minimizedAffinity>
-8.69724

$$$$
