CHEMBL4528844


 30 33  0  0  0  0  0  0  0  0999 V2000
  -30.4212   -9.0457   -6.6491 C   0  0  0  0  0  0  0  0  0  0  0  0
  -29.5233   -4.7965   -6.3739 C   0  0  0  0  0  0  0  0  0  0  0  0
  -29.9684   -5.5203   -5.2555 C   0  0  0  0  0  0  0  0  0  0  0  0
  -30.2673   -6.8833   -5.3338 C   0  0  0  0  0  0  0  0  0  0  0  0
  -30.1408   -7.5685   -6.5500 C   0  0  0  0  0  0  0  0  0  0  0  0
  -29.7303   -6.8580   -7.6792 C   0  0  0  0  0  0  0  0  0  0  0  0
  -29.4151   -5.4988   -7.5891 C   0  0  0  0  0  0  0  0  0  0  0  0
  -28.5140   -0.6782   -6.2336 C   0  0  0  0  0  0  0  0  0  0  0  0
  -29.4872   -1.1310   -5.3630 C   0  0  0  0  0  0  0  0  0  0  0  0
  -29.8301   -2.4835   -5.4002 C   0  0  0  0  0  0  0  0  0  0  0  0
  -29.1909   -3.3595   -6.2916 C   0  0  0  0  0  0  0  0  0  0  0  0
  -28.2100   -2.7816   -7.1023 C   0  0  0  0  0  0  0  0  0  0  0  0
  -27.8540   -1.4761   -7.0935 N   0  0  0  0  0  0  0  0  0  0  0  0
  -29.3762    1.4599   -6.4735 C   0  0  0  0  0  0  0  0  0  0  0  0
  -28.2214    0.6688   -6.2020 O   0  0  0  0  0  0  0  0  0  0  0  0
  -29.2315   -9.8155   -6.9556 N   0  0  0  0  0  0  0  0  0  0  0  0
  -28.0389   -9.7838   -6.2944 C   0  0  0  0  0  0  0  0  0  0  0  0
  -27.1855  -10.4835   -7.1168 C   0  0  0  0  0  0  0  0  0  0  0  0
  -27.8752  -10.9177   -8.2176 N   0  0  0  0  0  0  0  0  0  0  0  0
  -29.1344  -10.5083   -8.1057 N   0  0  0  0  0  0  0  0  0  0  0  0
  -25.7655  -10.6757   -6.9011 C   0  0  0  0  0  0  0  0  0  0  0  0
  -25.0656  -11.6819   -7.5802 C   0  0  0  0  0  0  0  0  0  0  0  0
  -23.7045  -11.8886   -7.3423 C   0  0  0  0  0  0  0  0  0  0  0  0
  -23.0136  -11.0935   -6.4179 C   0  0  0  0  0  0  0  0  0  0  0  0
  -23.7135  -10.0812   -5.7424 C   0  0  0  0  0  0  0  0  0  0  0  0
  -25.0758   -9.8714   -5.9866 C   0  0  0  0  0  0  0  0  0  0  0  0
  -21.5445  -11.3139   -6.1525 C   0  0  0  0  0  0  0  0  0  0  0  0
  -21.2397  -11.4003   -4.8265 F   0  0  0  0  0  0  0  0  0  0  0  0
  -21.0769  -12.4612   -6.7166 F   0  0  0  0  0  0  0  0  0  0  0  0
  -20.7684  -10.3091   -6.6455 F   0  0  0  0  0  0  0  0  0  0  0  0
 14 15  1  0  0  0
 15  8  1  0  0  0
  8  9  1  0  0  0
  8 13  2  0  0  0
  9 10  2  0  0  0
 10 11  1  0  0  0
 11  2  1  0  0  0
 11 12  2  0  0  0
  2  3  1  0  0  0
  2  7  2  0  0  0
  3  4  2  0  0  0
  4  5  1  0  0  0
  5  1  1  0  0  0
  5  6  2  0  0  0
  1 16  1  0  0  0
 16 17  1  0  0  0
 16 20  1  0  0  0
 17 18  2  0  0  0
 18 21  1  0  0  0
 18 19  1  0  0  0
 21 22  1  0  0  0
 21 26  2  0  0  0
 22 23  2  0  0  0
 23 24  1  0  0  0
 24 27  1  0  0  0
 24 25  2  0  0  0
 27 28  1  0  0  0
 27 29  1  0  0  0
 27 30  1  0  0  0
 25 26  1  0  0  0
 19 20  2  0  0  0
  6  7  1  0  0  0
 12 13  1  0  0  0
M  END
> <minimizedAffinity>
-8.34207

$$$$
