CHEMBL3968499


 33 36  0  0  0  0  0  0  0  0999 V2000
  -14.7330    0.6363  -13.9518 N   0  0  0  0  0  0  0  0  0  0  0  0
  -14.7548   -0.6606  -13.3128 C   0  0  0  0  0  0  0  0  0  0  0  0
  -15.6928   -0.8744  -12.2971 C   0  0  0  0  0  0  0  0  0  0  0  0
  -15.7693   -2.0295  -11.5546 C   0  0  0  0  0  0  0  0  0  0  0  0
  -14.9559   -3.0806  -11.7963 C   0  0  0  0  0  0  0  0  0  0  0  0
  -15.1706   -4.0384  -10.9034 N   0  0  0  0  0  0  0  0  0  0  0  0
  -14.6038   -5.2084  -11.1579 C   0  0  0  0  0  0  0  0  0  0  0  0
  -13.8544   -5.4248  -12.2942 C   0  0  0  0  0  0  0  0  0  0  0  0
  -13.5419   -4.3904  -13.1695 N   0  0  0  0  0  0  0  0  0  0  0  0
  -14.0883   -3.1164  -12.9090 C   0  0  0  0  0  0  0  0  0  0  0  0
  -13.9513   -1.8175  -13.6098 C   0  0  0  0  0  0  0  0  0  0  0  0
  -13.5775   -6.8360  -12.5518 C   0  0  0  0  0  0  0  0  0  0  0  0
  -14.4644   -7.8763  -12.9342 C   0  0  0  0  0  0  0  0  0  0  0  0
  -13.9486   -9.1003  -12.7522 N   0  0  0  0  0  0  0  0  0  0  0  0
  -12.7346   -8.8544  -12.2321 N   0  0  0  0  0  0  0  0  0  0  0  0
  -11.7580   -9.9096  -12.0938 C   0  0  0  0  0  0  0  0  0  0  0  0
  -12.5362   -7.5323  -11.9499 C   0  0  0  0  0  0  0  0  0  0  0  0
  -15.7544    1.3934  -14.6364 C   0  0  0  0  0  0  0  0  0  0  0  0
  -17.1285    1.0254  -14.5445 C   0  0  0  0  0  0  0  0  0  0  0  0
  -18.1653    1.5741  -15.2885 C   0  0  0  0  0  0  0  0  0  0  0  0
  -17.8773    2.6678  -16.0862 C   0  0  0  0  0  0  0  0  0  0  0  0
  -16.5878    3.2079  -16.0610 C   0  0  0  0  0  0  0  0  0  0  0  0
  -15.5263    2.5469  -15.3846 C   0  0  0  0  0  0  0  0  0  0  0  0
  -19.4688    1.1563  -15.2841 O   0  0  0  0  0  0  0  0  0  0  0  0
  -20.3374    1.7472  -14.3181 C   0  0  0  0  0  0  0  0  0  0  0  0
  -16.2637    4.3870  -16.6951 O   0  0  0  0  0  0  0  0  0  0  0  0
  -15.1246    4.3111  -17.5429 C   0  0  0  0  0  0  0  0  0  0  0  0
  -13.3559    1.2314  -14.1537 C   0  0  0  0  0  0  0  0  0  0  0  0
  -12.6896    1.8024  -12.8959 C   0  0  0  0  0  0  0  0  0  0  0  0
  -11.8131    3.0097  -13.1728 C   0  0  0  0  0  0  0  0  0  0  0  0
  -11.7255    4.9029  -14.6457 C   0  0  0  0  0  0  0  0  0  0  0  0
  -12.5867    3.9117  -14.0259 N   0  0  0  0  0  0  0  0  0  0  0  0
  -13.0782    3.3812  -14.7434 H   0  0  0  0  0  0  0  0  0  0  0  0
 31 32  1  0  0  0
 32 30  1  0  0  0
 32 33  1  0  0  0
 30 29  1  0  0  0
 29 28  1  0  0  0
 28  1  1  0  0  0
  1 18  1  0  0  0
  1  2  1  0  0  0
 18 19  1  0  0  0
 18 23  2  0  0  0
 19 20  2  0  0  0
 20 24  1  0  0  0
 20 21  1  0  0  0
 24 25  1  0  0  0
 21 22  2  0  0  0
 22 26  1  0  0  0
 22 23  1  0  0  0
 26 27  1  0  0  0
  2  3  1  0  0  0
  2 11  2  0  0  0
  3  4  2  0  0  0
  4  5  1  0  0  0
  5  6  1  0  0  0
  5 10  2  0  0  0
  6  7  2  0  0  0
  7  8  1  0  0  0
  8 12  1  0  0  0
  8  9  2  0  0  0
 12 13  1  0  0  0
 12 17  2  0  0  0
 13 14  2  0  0  0
 14 15  1  0  0  0
 15 16  1  0  0  0
 15 17  1  0  0  0
  9 10  1  0  0  0
 10 11  1  0  0  0
M  END
> <minimizedAffinity>
-7.25075

$$$$
