CHEMBL493253


 40 44  0  0  0  0  0  0  0  0999 V2000
  -29.4114  -12.3975   -7.1687 N   0  0  0  0  0  0  0  0  0  0  0  0
  -29.6399  -11.7637   -5.8750 C   0  0  0  0  0  0  0  0  0  0  0  0
  -28.8664  -10.4619   -5.6387 C   0  0  0  0  0  0  0  0  0  0  0  0
  -27.3971  -10.5805   -5.9692 C   0  0  0  0  0  0  0  0  0  0  0  0
  -27.0133  -11.5603   -6.9046 C   0  0  0  0  0  0  0  0  0  0  0  0
  -25.6571  -11.6823   -7.2496 C   0  0  0  0  0  0  0  0  0  0  0  0
  -24.6941  -10.8402   -6.6950 C   0  0  0  0  0  0  0  0  0  0  0  0
  -25.0732   -9.8476   -5.7893 C   0  0  0  0  0  0  0  0  0  0  0  0
  -26.4183   -9.7028   -5.4234 C   0  0  0  0  0  0  0  0  0  0  0  0
  -28.0162  -12.4645   -7.5975 C   0  0  0  0  0  0  0  0  0  0  0  0
  -26.8210   -8.5221   -4.6051 C   0  0  0  0  0  0  0  0  0  0  0  0
  -26.4424   -8.4954   -3.4360 O   0  0  0  0  0  0  0  0  0  0  0  0
  -27.5964   -7.5385   -5.2211 N   0  0  0  0  0  0  0  0  0  0  0  0
  -27.7252   -7.6045   -6.2172 H   0  0  0  0  0  0  0  0  0  0  0  0
  -28.1205   -6.3838   -4.5725 C   0  0  0  0  0  0  0  0  0  0  0  0
  -27.3235   -5.3271   -4.1357 C   0  0  0  0  0  0  0  0  0  0  0  0
  -27.8815   -4.2037   -3.5203 C   0  0  0  0  0  0  0  0  0  0  0  0
  -29.2586   -4.1097   -3.3229 C   0  0  0  0  0  0  0  0  0  0  0  0
  -29.8222   -2.6746   -2.5505 Cl  0  0  0  0  0  0  0  0  0  0  0  0
  -30.0943   -5.1499   -3.7435 C   0  0  0  0  0  0  0  0  0  0  0  0
  -29.5005   -6.2927   -4.3534 C   0  0  0  0  0  0  0  0  0  0  0  0
  -31.5962   -5.1252   -3.6141 C   0  0  0  0  0  0  0  0  0  0  0  0
  -32.1046   -5.2303   -2.3574 F   0  0  0  0  0  0  0  0  0  0  0  0
  -32.1210   -3.9712   -4.1192 F   0  0  0  0  0  0  0  0  0  0  0  0
  -32.1811   -6.1300   -4.3267 F   0  0  0  0  0  0  0  0  0  0  0  0
  -30.3852  -12.0674   -8.2165 C   0  0  0  0  0  0  0  0  0  0  0  0
  -29.7859   -6.7705   -7.9782 C   0  0  0  0  0  0  0  0  0  0  0  0
  -31.0491   -7.1267   -7.4974 C   0  0  0  0  0  0  0  0  0  0  0  0
  -31.5013   -8.4369   -7.4911 C   0  0  0  0  0  0  0  0  0  0  0  0
  -32.7680   -8.6275   -7.0970 N   0  0  0  0  0  0  0  0  0  0  0  0
  -33.2566   -9.8788   -7.1202 C   0  0  0  0  0  0  0  0  0  0  0  0
  -32.5139  -10.9773   -7.4937 C   0  0  0  0  0  0  0  0  0  0  0  0
  -31.1712  -10.8051   -7.8721 C   0  0  0  0  0  0  0  0  0  0  0  0
  -30.6449   -9.4818   -7.9147 C   0  0  0  0  0  0  0  0  0  0  0  0
  -29.3447   -9.1222   -8.3470 C   0  0  0  0  0  0  0  0  0  0  0  0
  -28.9072   -7.7878   -8.3584 C   0  0  0  0  0  0  0  0  0  0  0  0
  -30.0763   -4.5046   -7.3230 C   0  0  0  0  0  0  0  0  0  0  0  0
  -29.3856   -5.4667   -8.1204 O   0  0  0  0  0  0  0  0  0  0  0  0
  -27.6455   -7.6134   -8.8627 O   0  0  0  0  0  0  0  0  0  0  0  0
  -27.0497   -8.7466   -9.4891 C   0  0  0  0  0  0  0  0  0  0  0  0
 37 38  1  0  0  0
 38 27  1  0  0  0
 27 28  1  0  0  0
 27 36  2  0  0  0
 28 29  2  0  0  0
 29 30  1  0  0  0
 29 34  1  0  0  0
 30 31  2  0  0  0
 31 32  1  0  0  0
 32 33  2  0  0  0
 33 26  1  0  0  0
 33 34  1  0  0  0
 26  1  1  0  0  0
  1  2  1  0  0  0
  1 10  1  0  0  0
  2  3  1  0  0  0
  3  4  1  0  0  0
  4  5  1  0  0  0
  4  9  2  0  0  0
  5  6  2  0  0  0
  5 10  1  0  0  0
  6  7  1  0  0  0
  7  8  2  0  0  0
  8  9  1  0  0  0
  9 11  1  0  0  0
 11 12  2  0  0  0
 11 13  1  0  0  0
 13 15  1  0  0  0
 13 14  1  0  0  0
 15 16  1  0  0  0
 15 21  2  0  0  0
 16 17  2  0  0  0
 17 18  1  0  0  0
 18 19  1  0  0  0
 18 20  2  0  0  0
 20 22  1  0  0  0
 20 21  1  0  0  0
 22 23  1  0  0  0
 22 24  1  0  0  0
 22 25  1  0  0  0
 34 35  2  0  0  0
 35 36  1  0  0  0
 36 39  1  0  0  0
 39 40  1  0  0  0
M  END
> <minimizedAffinity>
-7.90984

$$$$
