CHEMBL246167


 28 31  0  0  0  0  0  0  0  0999 V2000
  -27.8305   -1.8743   -8.0800 C   0  0  0  0  0  0  0  0  0  0  0  0
  -27.7589   -0.8160   -7.2549 N   0  0  0  0  0  0  0  0  0  0  0  0
  -28.3733   -1.2426   -6.1392 N   0  0  0  0  0  0  0  0  0  0  0  0
  -28.8006   -2.5358   -6.2047 C   0  0  0  0  0  0  0  0  0  0  0  0
  -28.4490   -2.9926   -7.4556 C   0  0  0  0  0  0  0  0  0  0  0  0
  -28.4570   -0.5981   -5.3577 H   0  0  0  0  0  0  0  0  0  0  0  0
  -25.9822   -1.6467  -11.1938 C   0  0  0  0  0  0  0  0  0  0  0  0
  -27.2606   -1.8545  -11.6863 C   0  0  0  0  0  0  0  0  0  0  0  0
  -28.0657   -1.9670  -10.5868 N   0  0  0  0  0  0  0  0  0  0  0  0
  -27.2894   -1.7956   -9.4709 C   0  0  0  0  0  0  0  0  0  0  0  0
  -26.0344   -1.5811   -9.8077 N   0  0  0  0  0  0  0  0  0  0  0  0
  -29.0617   -2.1415  -10.5565 H   0  0  0  0  0  0  0  0  0  0  0  0
  -24.3340   -0.2180  -12.1306 F   0  0  0  0  0  0  0  0  0  0  0  0
  -24.6873   -1.5194  -11.9430 C   0  0  0  0  0  0  0  0  0  0  0  0
  -24.7553   -2.0803  -13.1797 F   0  0  0  0  0  0  0  0  0  0  0  0
  -23.6513   -2.1117  -11.2938 F   0  0  0  0  0  0  0  0  0  0  0  0
  -28.6162   -4.3167   -7.9662 C   0  0  0  0  0  0  0  0  0  0  0  0
  -29.0706   -5.3796   -7.2844 C   0  0  0  0  0  0  0  0  0  0  0  0
  -29.0560   -6.7251   -7.8732 C   0  0  0  0  0  0  0  0  0  0  0  0
  -27.8970   -7.1304   -8.5379 C   0  0  0  0  0  0  0  0  0  0  0  0
  -27.7173   -8.3443   -9.1005 N   0  0  0  0  0  0  0  0  0  0  0  0
  -28.7537   -9.2039   -8.9986 C   0  0  0  0  0  0  0  0  0  0  0  0
  -29.9684   -8.9176   -8.3708 C   0  0  0  0  0  0  0  0  0  0  0  0
  -31.0014   -9.8692   -8.2996 C   0  0  0  0  0  0  0  0  0  0  0  0
  -32.2100   -9.5593   -7.6795 C   0  0  0  0  0  0  0  0  0  0  0  0
  -32.4012   -8.2956   -7.1316 C   0  0  0  0  0  0  0  0  0  0  0  0
  -31.3781   -7.3448   -7.1885 C   0  0  0  0  0  0  0  0  0  0  0  0
  -30.1365   -7.6350   -7.7999 C   0  0  0  0  0  0  0  0  0  0  0  0
 13 14  1  0  0  0
 14 15  1  0  0  0
 14 16  1  0  0  0
 14  7  1  0  0  0
  7  8  2  0  0  0
  7 11  1  0  0  0
  8  9  1  0  0  0
  9 10  1  0  0  0
  9 12  1  0  0  0
 10  1  1  0  0  0
 10 11  2  0  0  0
  1  2  2  0  0  0
  1  5  1  0  0  0
  2  3  1  0  0  0
  3  4  1  0  0  0
  3  6  1  0  0  0
  4  5  2  0  0  0
  5 17  1  0  0  0
 17 18  2  0  0  0
 18 19  1  0  0  0
 19 20  1  0  0  0
 19 28  2  0  0  0
 20 21  2  0  0  0
 21 22  1  0  0  0
 22 23  2  0  0  0
 23 24  1  0  0  0
 23 28  1  0  0  0
 24 25  2  0  0  0
 25 26  1  0  0  0
 26 27  2  0  0  0
 27 28  1  0  0  0
M  END
> <minimizedAffinity>
-9.33575

$$$$
