CHEMBL3690465


 36 39  0  0  0  0  0  0  0  0999 V2000
  -29.3129   -7.1435   -6.2937 C   0  0  0  0  0  0  0  0  0  0  0  0
  -28.2848   -7.0282   -5.2275 C   0  0  0  0  0  0  0  0  0  0  0  0
  -28.0308   -5.8241   -4.6652 C   0  0  0  0  0  0  0  0  0  0  0  0
  -28.9044   -4.7622   -4.9574 N   0  0  0  0  0  0  0  0  0  0  0  0
  -29.1134   -3.5010   -4.3612 C   0  0  0  0  0  0  0  0  0  0  0  0
  -30.3016   -3.8884   -3.7230 C   0  0  0  0  0  0  0  0  0  0  0  0
  -31.0472   -4.6359   -4.6229 N   0  0  0  0  0  0  0  0  0  0  0  0
  -30.1497   -5.0676   -5.4969 C   0  0  0  0  0  0  0  0  0  0  0  0
  -30.1883   -6.1185   -6.4461 C   0  0  0  0  0  0  0  0  0  0  0  0
  -32.1322  -10.1203   -8.7234 N   0  0  0  0  0  0  0  0  0  0  0  0
  -30.8384   -9.7883   -8.3152 C   0  0  0  0  0  0  0  0  0  0  0  0
  -30.7031   -8.6454   -7.6221 N   0  0  0  0  0  0  0  0  0  0  0  0
  -29.4693   -8.3467   -7.1543 C   0  0  0  0  0  0  0  0  0  0  0  0
  -28.3707   -9.1022   -7.3569 N   0  0  0  0  0  0  0  0  0  0  0  0
  -28.5572  -10.2471   -8.0460 C   0  0  0  0  0  0  0  0  0  0  0  0
  -29.7747  -10.6409   -8.5411 C   0  0  0  0  0  0  0  0  0  0  0  0
  -29.9111  -11.7881   -9.2193 F   0  0  0  0  0  0  0  0  0  0  0  0
  -32.7534   -9.3367   -8.5454 H   0  0  0  0  0  0  0  0  0  0  0  0
  -32.1702  -10.4595   -9.6783 H   0  0  0  0  0  0  0  0  0  0  0  0
  -29.0767   -2.2114   -5.1429 C   0  0  0  0  0  0  0  0  0  0  0  0
  -29.5647   -1.0175   -4.5986 C   0  0  0  0  0  0  0  0  0  0  0  0
  -29.2539    0.2075   -5.1953 C   0  0  0  0  0  0  0  0  0  0  0  0
  -28.4725    0.2629   -6.3485 C   0  0  0  0  0  0  0  0  0  0  0  0
  -28.0125   -0.9021   -6.9495 C   0  0  0  0  0  0  0  0  0  0  0  0
  -28.3339   -2.1327   -6.3518 C   0  0  0  0  0  0  0  0  0  0  0  0
  -27.1999   -0.8983   -8.1215 N   0  0  0  0  0  0  0  0  0  0  0  0
  -27.4466   -1.5823   -9.2971 C   0  0  0  0  0  0  0  0  0  0  0  0
  -28.4240   -2.2904   -9.5457 O   0  0  0  0  0  0  0  0  0  0  0  0
  -26.4194   -1.4849  -10.2029 N   0  0  0  0  0  0  0  0  0  0  0  0
  -26.3402   -0.3560   -8.0930 H   0  0  0  0  0  0  0  0  0  0  0  0
  -25.9223   -0.6022  -10.2283 H   0  0  0  0  0  0  0  0  0  0  0  0
  -26.5360   -2.2191  -11.4747 C   0  0  0  0  0  0  0  0  0  0  0  0
  -26.0169   -1.4981  -12.7358 C   0  0  0  0  0  0  0  0  0  0  0  0
  -26.9229   -1.5173  -13.7380 F   0  0  0  0  0  0  0  0  0  0  0  0
  -25.7754   -0.1908  -12.4533 F   0  0  0  0  0  0  0  0  0  0  0  0
  -24.8620   -2.0228  -13.1964 F   0  0  0  0  0  0  0  0  0  0  0  0
 10 11  1  0  0  0
 10 18  1  0  0  0
 10 19  1  0  0  0
 11 12  1  0  0  0
 11 16  2  0  0  0
 12 13  2  0  0  0
 13  1  1  0  0  0
 13 14  1  0  0  0
  1  2  1  0  0  0
  1  9  2  0  0  0
  2  3  2  0  0  0
  3  4  1  0  0  0
  4  5  1  0  0  0
  4  8  1  0  0  0
  5 20  1  0  0  0
  5  6  2  0  0  0
 20 21  1  0  0  0
 20 25  2  0  0  0
 21 22  2  0  0  0
 22 23  1  0  0  0
 23 24  2  0  0  0
 24 26  1  0  0  0
 24 25  1  0  0  0
 26 27  1  0  0  0
 26 30  1  0  0  0
 27 28  2  0  0  0
 27 29  1  0  0  0
 29 32  1  0  0  0
 29 31  1  0  0  0
 32 33  1  0  0  0
 33 34  1  0  0  0
 33 35  1  0  0  0
 33 36  1  0  0  0
  6  7  1  0  0  0
  7  8  2  0  0  0
  8  9  1  0  0  0
 14 15  2  0  0  0
 15 16  1  0  0  0
 16 17  1  0  0  0
M  END
> <minimizedAffinity>
-9.88745

$$$$
