CHEMBL272827


 31 34  0  0  0  0  0  0  0  0999 V2000
  -15.0388   -5.2370  -12.1924 C   0  0  0  0  0  0  0  0  0  0  0  0
  -16.1024   -4.3547  -12.0332 C   0  0  0  0  0  0  0  0  0  0  0  0
  -15.9877   -3.0328  -12.4669 C   0  0  0  0  0  0  0  0  0  0  0  0
  -14.7748   -2.5092  -12.9760 C   0  0  0  0  0  0  0  0  0  0  0  0
  -14.5831   -1.1616  -13.4124 C   0  0  0  0  0  0  0  0  0  0  0  0
  -13.3090   -0.7342  -13.8308 C   0  0  0  0  0  0  0  0  0  0  0  0
  -12.2402   -1.6223  -13.8715 C   0  0  0  0  0  0  0  0  0  0  0  0
  -12.4243   -2.9477  -13.4882 C   0  0  0  0  0  0  0  0  0  0  0  0
  -13.6716   -3.4034  -13.0392 C   0  0  0  0  0  0  0  0  0  0  0  0
  -13.8181   -4.7519  -12.6560 C   0  0  0  0  0  0  0  0  0  0  0  0
  -15.7009   -0.1516  -13.4084 C   0  0  0  0  0  0  0  0  0  0  0  0
  -15.9898    0.4268  -12.3677 O   0  0  0  0  0  0  0  0  0  0  0  0
  -16.3197    0.0509  -14.6362 N   0  0  0  0  0  0  0  0  0  0  0  0
  -15.9878   -0.4953  -15.4197 H   0  0  0  0  0  0  0  0  0  0  0  0
  -17.4119    0.9023  -14.9197 C   0  0  0  0  0  0  0  0  0  0  0  0
  -17.3023    2.2827  -15.1064 C   0  0  0  0  0  0  0  0  0  0  0  0
  -18.4440    3.0668  -15.3140 C   0  0  0  0  0  0  0  0  0  0  0  0
  -19.7007    2.4711  -15.3510 C   0  0  0  0  0  0  0  0  0  0  0  0
  -21.1051    3.4394  -15.5692 Cl  0  0  0  0  0  0  0  0  0  0  0  0
  -19.8246    1.0934  -15.2009 C   0  0  0  0  0  0  0  0  0  0  0  0
  -18.6835    0.3131  -14.9836 C   0  0  0  0  0  0  0  0  0  0  0  0
  -15.1099   -6.5828  -11.8980 O   0  0  0  0  0  0  0  0  0  0  0  0
  -13.5564   -8.6445  -14.5338 C   0  0  0  0  0  0  0  0  0  0  0  0
  -14.3371   -7.6584  -13.9533 C   0  0  0  0  0  0  0  0  0  0  0  0
  -14.2811   -7.4532  -12.5755 C   0  0  0  0  0  0  0  0  0  0  0  0
  -13.3445   -8.1474  -11.8259 C   0  0  0  0  0  0  0  0  0  0  0  0
  -12.5568   -9.0696  -12.4897 C   0  0  0  0  0  0  0  0  0  0  0  0
  -12.6586   -9.3409  -13.8117 N   0  0  0  0  0  0  0  0  0  0  0  0
  -13.0171  -10.1935  -16.3643 C   0  0  0  0  0  0  0  0  0  0  0  0
  -13.7112   -9.0404  -15.8461 N   0  0  0  0  0  0  0  0  0  0  0  0
  -14.6737   -8.8991  -16.1332 H   0  0  0  0  0  0  0  0  0  0  0  0
 29 30  1  0  0  0
 30 23  1  0  0  0
 30 31  1  0  0  0
 23 24  1  0  0  0
 23 28  2  0  0  0
 24 25  2  0  0  0
 25 22  1  0  0  0
 25 26  1  0  0  0
 22  1  1  0  0  0
  1  2  1  0  0  0
  1 10  2  0  0  0
  2  3  2  0  0  0
  3  4  1  0  0  0
  4  5  1  0  0  0
  4  9  2  0  0  0
  5 11  1  0  0  0
  5  6  2  0  0  0
 11 12  2  0  0  0
 11 13  1  0  0  0
 13 15  1  0  0  0
 13 14  1  0  0  0
 15 16  1  0  0  0
 15 21  2  0  0  0
 16 17  2  0  0  0
 17 18  1  0  0  0
 18 19  1  0  0  0
 18 20  2  0  0  0
 20 21  1  0  0  0
  6  7  1  0  0  0
  7  8  2  0  0  0
  8  9  1  0  0  0
  9 10  1  0  0  0
 26 27  2  0  0  0
 27 28  1  0  0  0
M  END
> <minimizedAffinity>
-8.80895

$$$$
