CHEMBL3959495


 34 37  0  0  0  0  0  0  0  0999 V2000
  -30.1522   -8.5799   -6.3736 C   0  0  0  0  0  0  0  0  0  0  0  0
  -29.2117   -9.5967   -6.5849 C   0  0  0  0  0  0  0  0  0  0  0  0
  -27.9424   -9.5640   -5.9686 C   0  0  0  0  0  0  0  0  0  0  0  0
  -26.8764  -10.4293   -6.2757 C   0  0  0  0  0  0  0  0  0  0  0  0
  -25.7006  -10.3514   -5.6288 N   0  0  0  0  0  0  0  0  0  0  0  0
  -25.5909   -9.4203   -4.6798 C   0  0  0  0  0  0  0  0  0  0  0  0
  -26.5285   -8.5390   -4.3267 N   0  0  0  0  0  0  0  0  0  0  0  0
  -27.6892   -8.6048   -4.9867 C   0  0  0  0  0  0  0  0  0  0  0  0
  -28.6682   -7.6594   -4.7081 C   0  0  0  0  0  0  0  0  0  0  0  0
  -29.8736   -7.5775   -5.4310 C   0  0  0  0  0  0  0  0  0  0  0  0
  -31.5780   -9.5595   -8.0121 C   0  0  0  0  0  0  0  0  0  0  0  0
  -31.3304   -8.5104   -7.0734 O   0  0  0  0  0  0  0  0  0  0  0  0
  -27.0282  -11.3727   -7.3371 N   0  0  0  0  0  0  0  0  0  0  0  0
  -27.4557  -12.2161   -6.9628 H   0  0  0  0  0  0  0  0  0  0  0  0
  -27.4620  -11.1230   -8.6601 C   0  0  0  0  0  0  0  0  0  0  0  0
  -28.6342  -11.6858   -9.1774 C   0  0  0  0  0  0  0  0  0  0  0  0
  -29.0692  -11.4015  -10.4754 C   0  0  0  0  0  0  0  0  0  0  0  0
  -28.3570  -10.5102  -11.2688 C   0  0  0  0  0  0  0  0  0  0  0  0
  -28.9317  -10.2211  -12.8708 Cl  0  0  0  0  0  0  0  0  0  0  0  0
  -27.2208   -9.8808  -10.7508 C   0  0  0  0  0  0  0  0  0  0  0  0
  -26.3147   -8.7178  -11.6526 Cl  0  0  0  0  0  0  0  0  0  0  0  0
  -26.7825  -10.1837   -9.4502 C   0  0  0  0  0  0  0  0  0  0  0  0
  -30.7797   -6.5338   -5.2703 O   0  0  0  0  0  0  0  0  0  0  0  0
  -30.7356   -5.9064   -3.9743 C   0  0  0  0  0  0  0  0  0  0  0  0
  -31.1316   -4.4158   -3.9688 C   0  0  0  0  0  0  0  0  0  0  0  0
  -29.8781   -3.5549   -3.6582 C   0  0  0  0  0  0  0  0  0  0  0  0
  -29.9640   -2.0318   -3.9537 C   0  0  0  0  0  0  0  0  0  0  0  0
  -29.6295   -1.5940   -5.3288 N   0  0  0  0  0  0  0  0  0  0  0  0
  -29.5486   -0.1286   -5.3778 C   0  0  0  0  0  0  0  0  0  0  0  0
  -28.4120   -2.2801   -5.8572 C   0  0  0  0  0  0  0  0  0  0  0  0
  -28.2871   -2.0340   -7.3774 C   0  0  0  0  0  0  0  0  0  0  0  0
  -27.0879   -1.8347   -5.1921 C   0  0  0  0  0  0  0  0  0  0  0  0
  -28.5885   -3.8055   -5.6419 C   0  0  0  0  0  0  0  0  0  0  0  0
  -28.6989   -4.1275   -4.2503 O   0  0  0  0  0  0  0  0  0  0  0  0
 11 12  1  0  0  0
 12  1  1  0  0  0
  1  2  1  0  0  0
  1 10  2  0  0  0
  2  3  2  0  0  0
  3  4  1  0  0  0
  3  8  1  0  0  0
  4 13  1  0  0  0
  4  5  2  0  0  0
 13 15  1  0  0  0
 13 14  1  0  0  0
 15 16  1  0  0  0
 15 22  2  0  0  0
 16 17  2  0  0  0
 17 18  1  0  0  0
 18 19  1  0  0  0
 18 20  2  0  0  0
 20 21  1  0  0  0
 20 22  1  0  0  0
  5  6  1  0  0  0
  6  7  2  0  0  0
  7  8  1  0  0  0
  8  9  2  0  0  0
  9 10  1  0  0  0
 10 23  1  0  0  0
 23 24  1  0  0  0
 24 25  1  0  0  0
 25 26  1  0  0  0
 26 27  1  0  0  0
 26 34  1  0  0  0
 27 28  1  0  0  0
 28 29  1  0  0  0
 28 30  1  0  0  0
 30 31  1  0  0  0
 30 32  1  0  0  0
 30 33  1  0  0  0
 33 34  1  0  0  0
M  END
> <minimizedAffinity>
-7.77840

$$$$
