CHEMBL3671509


 37 39  0  0  0  0  0  0  0  0999 V2000
  -28.2163   -9.0744   -7.5122 C   0  0  0  0  0  0  0  0  0  0  0  0
  -28.7042   -7.8092   -7.1918 C   0  0  0  0  0  0  0  0  0  0  0  0
  -29.0182   -7.4894   -5.8529 C   0  0  0  0  0  0  0  0  0  0  0  0
  -29.6721   -6.3198   -5.4464 C   0  0  0  0  0  0  0  0  0  0  0  0
  -29.9678   -6.0853   -4.1530 N   0  0  0  0  0  0  0  0  0  0  0  0
  -29.6319   -7.0326   -3.2694 C   0  0  0  0  0  0  0  0  0  0  0  0
  -29.0512   -8.1965   -3.5567 N   0  0  0  0  0  0  0  0  0  0  0  0
  -28.7579   -8.4248   -4.8394 C   0  0  0  0  0  0  0  0  0  0  0  0
  -28.2084   -9.6524   -5.1804 C   0  0  0  0  0  0  0  0  0  0  0  0
  -27.9121   -9.9925   -6.5029 C   0  0  0  0  0  0  0  0  0  0  0  0
  -29.3547   -9.9418   -9.4862 C   0  0  0  0  0  0  0  0  0  0  0  0
  -29.4616   -9.8919  -10.7080 O   0  0  0  0  0  0  0  0  0  0  0  0
  -28.2224   -9.4595   -8.8702 N   0  0  0  0  0  0  0  0  0  0  0  0
  -27.7596   -8.8280   -9.5141 H   0  0  0  0  0  0  0  0  0  0  0  0
  -31.5667   -9.7515   -8.4707 C   0  0  0  0  0  0  0  0  0  0  0  0
  -30.4424  -10.4632   -8.6163 C   0  0  0  0  0  0  0  0  0  0  0  0
  -30.1183   -5.3821   -6.4168 N   0  0  0  0  0  0  0  0  0  0  0  0
  -30.1098   -5.7920   -7.3475 H   0  0  0  0  0  0  0  0  0  0  0  0
  -29.7052   -4.0277   -6.4373 C   0  0  0  0  0  0  0  0  0  0  0  0
  -30.2979   -3.0814   -5.5868 C   0  0  0  0  0  0  0  0  0  0  0  0
  -29.8035   -1.7786   -5.5129 C   0  0  0  0  0  0  0  0  0  0  0  0
  -28.7282   -1.4052   -6.3123 C   0  0  0  0  0  0  0  0  0  0  0  0
  -27.9940    0.3272   -6.1316 Br  0  0  0  0  0  0  0  0  0  0  0  0
  -28.1741   -2.3037   -7.2217 C   0  0  0  0  0  0  0  0  0  0  0  0
  -28.6752   -3.6004   -7.2834 C   0  0  0  0  0  0  0  0  0  0  0  0
  -28.1246   -4.4730   -8.1425 F   0  0  0  0  0  0  0  0  0  0  0  0
  -27.4020  -11.2556   -6.6694 O   0  0  0  0  0  0  0  0  0  0  0  0
  -26.0716  -11.4390   -6.1787 C   0  0  0  0  0  0  0  0  0  0  0  0
  -25.0502  -10.9039   -7.1869 C   0  0  0  0  0  0  0  0  0  0  0  0
  -23.7132  -11.4053   -6.8588 N   0  0  0  0  0  0  0  0  0  0  0  0
  -23.4883  -12.3315   -7.1925 H   0  0  0  0  0  0  0  0  0  0  0  0
  -22.6693  -10.6727   -6.3763 C   0  0  0  0  0  0  0  0  0  0  0  0
  -21.2284  -10.3838   -7.1537 S   0  0  0  0  0  0  0  0  0  0  0  0
  -22.8469  -10.1759   -5.1171 N   0  0  0  0  0  0  0  0  0  0  0  0
  -22.5111   -9.2214   -5.0071 H   0  0  0  0  0  0  0  0  0  0  0  0
  -22.9267  -10.9873   -3.9097 C   0  0  0  0  0  0  0  0  0  0  0  0
  -21.6058  -11.6621   -3.5890 C   0  0  0  0  0  0  0  0  0  0  0  0
 15 16  2  0  0  0
 16 11  1  0  0  0
 11 12  2  0  0  0
 11 13  1  0  0  0
 13  1  1  0  0  0
 13 14  1  0  0  0
  1  2  1  0  0  0
  1 10  2  0  0  0
  2  3  2  0  0  0
  3  4  1  0  0  0
  3  8  1  0  0  0
  4 17  1  0  0  0
  4  5  2  0  0  0
 17 19  1  0  0  0
 17 18  1  0  0  0
 19 20  1  0  0  0
 19 25  2  0  0  0
 20 21  2  0  0  0
 21 22  1  0  0  0
 22 23  1  0  0  0
 22 24  2  0  0  0
 24 25  1  0  0  0
 25 26  1  0  0  0
  5  6  1  0  0  0
  6  7  2  0  0  0
  7  8  1  0  0  0
  8  9  2  0  0  0
  9 10  1  0  0  0
 10 27  1  0  0  0
 27 28  1  0  0  0
 28 29  1  0  0  0
 29 30  1  0  0  0
 30 32  1  0  0  0
 30 31  1  0  0  0
 32 33  2  0  0  0
 32 34  1  0  0  0
 34 36  1  0  0  0
 34 35  1  0  0  0
 36 37  1  0  0  0
M  END
> <minimizedAffinity>
-7.44859

$$$$
