CHEMBL4087221


 30 33  0  0  0  0  0  0  0  0999 V2000
  -28.7530   -8.1610   -6.5006 C   0  0  0  0  0  0  0  0  0  0  0  0
  -28.7529   -6.8243   -6.9091 C   0  0  0  0  0  0  0  0  0  0  0  0
  -28.5214   -5.7811   -5.9984 C   0  0  0  0  0  0  0  0  0  0  0  0
  -28.2088   -6.0501   -4.6611 C   0  0  0  0  0  0  0  0  0  0  0  0
  -28.0785   -7.3792   -4.2848 C   0  0  0  0  0  0  0  0  0  0  0  0
  -28.3670   -8.4144   -5.1787 C   0  0  0  0  0  0  0  0  0  0  0  0
  -32.2783   -7.8764   -6.8482 C   0  0  0  0  0  0  0  0  0  0  0  0
  -31.7767   -9.0345   -7.6336 C   0  0  0  0  0  0  0  0  0  0  0  0
  -32.6856   -9.7574   -8.3080 N   0  0  0  0  0  0  0  0  0  0  0  0
  -31.9626  -10.7345   -8.8711 N   0  0  0  0  0  0  0  0  0  0  0  0
  -30.6314  -10.6693   -8.6010 C   0  0  0  0  0  0  0  0  0  0  0  0
  -29.7202  -11.5571   -9.0334 N   0  0  0  0  0  0  0  0  0  0  0  0
  -28.4751  -11.2762   -8.6135 C   0  0  0  0  0  0  0  0  0  0  0  0
  -28.1261  -10.1878   -7.8302 C   0  0  0  0  0  0  0  0  0  0  0  0
  -29.1101   -9.2741   -7.3904 C   0  0  0  0  0  0  0  0  0  0  0  0
  -30.4429   -9.5430   -7.7991 C   0  0  0  0  0  0  0  0  0  0  0  0
  -32.4287  -11.4381   -9.4332 H   0  0  0  0  0  0  0  0  0  0  0  0
  -28.0858   -4.9394   -3.7927 N   0  0  0  0  0  0  0  0  0  0  0  0
  -27.3548   -5.0289   -3.0960 H   0  0  0  0  0  0  0  0  0  0  0  0
  -28.7962   -3.7440   -3.6821 C   0  0  0  0  0  0  0  0  0  0  0  0
  -30.4423   -3.5203   -3.4530 S   0  0  0  0  0  0  0  0  0  0  0  0
  -27.9090   -2.6772   -3.9012 N   0  0  0  0  0  0  0  0  0  0  0  0
  -26.9835   -2.8492   -3.5233 H   0  0  0  0  0  0  0  0  0  0  0  0
  -27.9757   -1.7497   -4.9633 C   0  0  0  0  0  0  0  0  0  0  0  0
  -28.2306   -0.4064   -4.6720 C   0  0  0  0  0  0  0  0  0  0  0  0
  -28.2856    0.5348   -5.7017 C   0  0  0  0  0  0  0  0  0  0  0  0
  -28.1127    0.1305   -7.0284 C   0  0  0  0  0  0  0  0  0  0  0  0
  -27.8992   -1.2127   -7.3169 C   0  0  0  0  0  0  0  0  0  0  0  0
  -27.6808   -1.7712   -9.1112 Br  0  0  0  0  0  0  0  0  0  0  0  0
  -27.8426   -2.1549   -6.2926 C   0  0  0  0  0  0  0  0  0  0  0  0
  7  8  1  0  0  0
  8  9  2  0  0  0
  8 16  1  0  0  0
  9 10  1  0  0  0
 10 11  1  0  0  0
 10 17  1  0  0  0
 11 12  1  0  0  0
 11 16  2  0  0  0
 12 13  2  0  0  0
 13 14  1  0  0  0
 14 15  2  0  0  0
 15  1  1  0  0  0
 15 16  1  0  0  0
  1  2  1  0  0  0
  1  6  2  0  0  0
  2  3  2  0  0  0
  3  4  1  0  0  0
  4 18  1  0  0  0
  4  5  2  0  0  0
 18 20  1  0  0  0
 18 19  1  0  0  0
 20 21  2  0  0  0
 20 22  1  0  0  0
 22 24  1  0  0  0
 22 23  1  0  0  0
 24 25  1  0  0  0
 24 30  2  0  0  0
 25 26  2  0  0  0
 26 27  1  0  0  0
 27 28  2  0  0  0
 28 29  1  0  0  0
 28 30  1  0  0  0
  5  6  1  0  0  0
M  END
> <minimizedAffinity>
-8.77468

$$$$
