CHEMBL203965


 30 33  0  0  0  0  0  0  0  0999 V2000
  -29.2941   -9.5507   -8.4860 C   0  0  0  0  0  0  0  0  0  0  0  0
  -29.1650   -9.5448   -9.8886 C   0  0  0  0  0  0  0  0  0  0  0  0
  -28.6452  -10.6553  -10.5552 C   0  0  0  0  0  0  0  0  0  0  0  0
  -28.2752  -11.7722   -9.8289 C   0  0  0  0  0  0  0  0  0  0  0  0
  -28.4992  -11.8260   -8.4520 C   0  0  0  0  0  0  0  0  0  0  0  0
  -29.0533  -10.7342   -7.7554 C   0  0  0  0  0  0  0  0  0  0  0  0
  -28.6299   -7.3350   -7.7373 N   0  0  0  0  0  0  0  0  0  0  0  0
  -29.6647   -8.2675   -7.8284 C   0  0  0  0  0  0  0  0  0  0  0  0
  -30.8224   -8.1354   -7.4405 O   0  0  0  0  0  0  0  0  0  0  0  0
  -27.7511   -7.5665   -8.1789 H   0  0  0  0  0  0  0  0  0  0  0  0
  -28.6771   -3.5989   -5.7035 C   0  0  0  0  0  0  0  0  0  0  0  0
  -28.4531   -4.8114   -5.0178 C   0  0  0  0  0  0  0  0  0  0  0  0
  -28.4329   -6.0398   -5.6747 C   0  0  0  0  0  0  0  0  0  0  0  0
  -28.6578   -6.1131   -7.0445 C   0  0  0  0  0  0  0  0  0  0  0  0
  -28.8921   -4.9348   -7.7423 C   0  0  0  0  0  0  0  0  0  0  0  0
  -28.9143   -3.6900   -7.0835 C   0  0  0  0  0  0  0  0  0  0  0  0
  -27.3415   -1.5371   -4.9893 C   0  0  0  0  0  0  0  0  0  0  0  0
  -28.7014   -2.2826   -4.9184 C   0  0  0  0  0  0  0  0  0  0  0  0
  -29.0097   -2.5915   -3.4396 C   0  0  0  0  0  0  0  0  0  0  0  0
  -29.7654   -1.2951   -5.4447 C   0  0  0  0  0  0  0  0  0  0  0  0
  -29.4018  -10.9222   -6.2885 C   0  0  0  0  0  0  0  0  0  0  0  0
  -28.5335  -10.1990   -5.3649 N   0  0  0  0  0  0  0  0  0  0  0  0
  -28.9882   -9.4266   -4.3210 C   0  0  0  0  0  0  0  0  0  0  0  0
  -27.8974   -8.9080   -3.6644 C   0  0  0  0  0  0  0  0  0  0  0  0
  -26.7332   -9.3253   -4.3623 C   0  0  0  0  0  0  0  0  0  0  0  0
  -25.3608   -9.1197   -4.1695 C   0  0  0  0  0  0  0  0  0  0  0  0
  -24.4530   -9.6299   -5.0355 N   0  0  0  0  0  0  0  0  0  0  0  0
  -24.9008  -10.3294   -6.0996 C   0  0  0  0  0  0  0  0  0  0  0  0
  -26.2352  -10.5797   -6.3855 C   0  0  0  0  0  0  0  0  0  0  0  0
  -27.1580  -10.0820   -5.4601 C   0  0  0  0  0  0  0  0  0  0  0  0
 17 18  1  0  0  0
 18 19  1  0  0  0
 18 20  1  0  0  0
 18 11  1  0  0  0
 11 12  1  0  0  0
 11 16  2  0  0  0
 12 13  2  0  0  0
 13 14  1  0  0  0
 14  7  1  0  0  0
 14 15  2  0  0  0
  7  8  1  0  0  0
  7 10  1  0  0  0
  8  9  2  0  0  0
  8  1  1  0  0  0
  1  2  1  0  0  0
  1  6  2  0  0  0
  2  3  2  0  0  0
  3  4  1  0  0  0
  4  5  2  0  0  0
  5  6  1  0  0  0
  6 21  1  0  0  0
 21 22  1  0  0  0
 22 23  1  0  0  0
 22 30  1  0  0  0
 23 24  2  0  0  0
 24 25  1  0  0  0
 25 26  1  0  0  0
 25 30  2  0  0  0
 26 27  2  0  0  0
 27 28  1  0  0  0
 28 29  2  0  0  0
 29 30  1  0  0  0
 15 16  1  0  0  0
M  END
> <minimizedAffinity>
-8.30451

$$$$
