CHEMBL3892018


 32 35  0  0  0  0  0  0  0  0999 V2000
  -15.5265    2.1842  -16.0528 N   0  0  0  0  0  0  0  0  0  0  0  0
  -16.9224    2.2405  -15.7075 C   0  0  0  0  0  0  0  0  0  0  0  0
  -17.4234    1.0815  -15.1839 C   0  0  0  0  0  0  0  0  0  0  0  0
  -18.6699    1.0525  -14.7209 C   0  0  0  0  0  0  0  0  0  0  0  0
  -19.5505    2.0592  -14.8694 C   0  0  0  0  0  0  0  0  0  0  0  0
  -20.5957    1.5065  -15.2839 N   0  0  0  0  0  0  0  0  0  0  0  0
  -21.3895    1.2865  -14.2916 C   0  0  0  0  0  0  0  0  0  0  0  0
  -22.2871    2.2173  -14.0020 C   0  0  0  0  0  0  0  0  0  0  0  0
  -21.2173    3.3751  -14.4894 N   0  0  0  0  0  0  0  0  0  0  0  0
  -19.5793    3.3809  -15.1208 C   0  0  0  0  0  0  0  0  0  0  0  0
  -17.9357    3.3571  -15.7354 C   0  0  0  0  0  0  0  0  0  0  0  0
  -23.2744    0.7688  -13.4449 C   0  0  0  0  0  0  0  0  0  0  0  0
  -23.8153   -0.5521  -14.1320 C   0  0  0  0  0  0  0  0  0  0  0  0
  -24.6012   -1.4097  -13.4395 N   0  0  0  0  0  0  0  0  0  0  0  0
  -24.7262   -0.8570  -12.2290 N   0  0  0  0  0  0  0  0  0  0  0  0
  -25.4594   -1.6091  -11.1558 C   0  0  0  0  0  0  0  0  0  0  0  0
  -23.9954    0.4350  -12.2158 C   0  0  0  0  0  0  0  0  0  0  0  0
  -14.7427    3.2514  -16.5370 C   0  0  0  0  0  0  0  0  0  0  0  0
  -14.8701    3.7270  -17.8422 C   0  0  0  0  0  0  0  0  0  0  0  0
  -14.1891    4.8143  -18.3414 C   0  0  0  0  0  0  0  0  0  0  0  0
  -13.3573    5.5003  -17.4859 C   0  0  0  0  0  0  0  0  0  0  0  0
  -13.2584    5.1319  -16.1514 C   0  0  0  0  0  0  0  0  0  0  0  0
  -13.8307    3.9337  -15.7379 C   0  0  0  0  0  0  0  0  0  0  0  0
  -14.3452    5.2830  -19.6153 O   0  0  0  0  0  0  0  0  0  0  0  0
  -14.6953    6.6672  -19.7401 C   0  0  0  0  0  0  0  0  0  0  0  0
  -12.6716    5.9063  -15.1858 O   0  0  0  0  0  0  0  0  0  0  0  0
  -11.4148    6.4785  -15.5567 C   0  0  0  0  0  0  0  0  0  0  0  0
  -14.7592    0.9155  -15.6408 C   0  0  0  0  0  0  0  0  0  0  0  0
  -13.6584    0.5846  -16.6526 C   0  0  0  0  0  0  0  0  0  0  0  0
  -14.0401    0.2862  -18.9708 C   0  0  0  0  0  0  0  0  0  0  0  0
  -14.0806   -0.3828  -17.6743 N   0  0  0  0  0  0  0  0  0  0  0  0
  -13.4479   -1.1813  -17.6816 H   0  0  0  0  0  0  0  0  0  0  0  0
 30 31  1  0  0  0
 31 29  1  0  0  0
 31 32  1  0  0  0
 29 28  1  0  0  0
 28  1  1  0  0  0
  1 18  1  0  0  0
  1  2  1  0  0  0
 18 19  1  0  0  0
 18 23  2  0  0  0
 19 20  2  0  0  0
 20 24  1  0  0  0
 20 21  1  0  0  0
 24 25  1  0  0  0
 21 22  2  0  0  0
 22 26  1  0  0  0
 22 23  1  0  0  0
 26 27  1  0  0  0
  2  3  1  0  0  0
  2 11  2  0  0  0
  3  4  2  0  0  0
  4  5  1  0  0  0
  5  6  1  0  0  0
  5 10  2  0  0  0
  6  7  2  0  0  0
  7  8  1  0  0  0
  8 12  1  0  0  0
  8  9  2  0  0  0
 12 13  1  0  0  0
 12 17  2  0  0  0
 13 14  2  0  0  0
 14 15  1  0  0  0
 15 16  1  0  0  0
 15 17  1  0  0  0
  9 10  1  0  0  0
 10 11  1  0  0  0
M  END
> <minimizedAffinity>
-8.70672

$$$$
