CHEMBL1242754


 25 28  0  0  0  0  0  0  0  0999 V2000
  -24.8015   -1.1754  -11.8190 N   0  0  0  0  0  0  0  0  0  0  0  0
  -25.2233   -1.3176  -10.5527 N   0  0  0  0  0  0  0  0  0  0  0  0
  -26.5141   -1.6780  -10.6471 C   0  0  0  0  0  0  0  0  0  0  0  0
  -26.9139   -1.7740  -12.0214 C   0  0  0  0  0  0  0  0  0  0  0  0
  -28.0571   -2.0478  -12.7918 C   0  0  0  0  0  0  0  0  0  0  0  0
  -29.3162   -2.3767  -12.2788 N   0  0  0  0  0  0  0  0  0  0  0  0
  -27.9808   -1.9813  -14.1292 N   0  0  0  0  0  0  0  0  0  0  0  0
  -26.8093   -1.6425  -14.6945 C   0  0  0  0  0  0  0  0  0  0  0  0
  -25.6617   -1.3591  -14.0764 N   0  0  0  0  0  0  0  0  0  0  0  0
  -25.7781   -1.4306  -12.7397 C   0  0  0  0  0  0  0  0  0  0  0  0
  -29.5759   -1.8325  -11.4714 H   0  0  0  0  0  0  0  0  0  0  0  0
  -29.9891   -2.3448  -13.0403 H   0  0  0  0  0  0  0  0  0  0  0  0
  -27.2573   -1.8601   -9.4116 C   0  0  0  0  0  0  0  0  0  0  0  0
  -27.7619   -3.1271   -9.1154 C   0  0  0  0  0  0  0  0  0  0  0  0
  -28.5021   -3.4428   -8.0281 N   0  0  0  0  0  0  0  0  0  0  0  0
  -28.6201   -2.5056   -7.0816 C   0  0  0  0  0  0  0  0  0  0  0  0
  -29.2450   -2.8452   -5.9005 C   0  0  0  0  0  0  0  0  0  0  0  0
  -29.0029   -2.1083   -4.7461 C   0  0  0  0  0  0  0  0  0  0  0  0
  -28.3997   -0.8600   -4.8432 C   0  0  0  0  0  0  0  0  0  0  0  0
  -28.0435   -0.3621   -6.0962 C   0  0  0  0  0  0  0  0  0  0  0  0
  -28.0666   -1.2168   -7.2140 C   0  0  0  0  0  0  0  0  0  0  0  0
  -27.5023   -0.8749   -8.4558 C   0  0  0  0  0  0  0  0  0  0  0  0
  -22.7318   -1.6354  -13.0704 C   0  0  0  0  0  0  0  0  0  0  0  0
  -23.4458   -0.7116  -12.0823 C   0  0  0  0  0  0  0  0  0  0  0  0
  -23.4066    0.7348  -12.5859 C   0  0  0  0  0  0  0  0  0  0  0  0
 23 24  1  0  0  0
 24 25  1  0  0  0
 24  1  1  0  0  0
  1  2  1  0  0  0
  1 10  1  0  0  0
  2  3  2  0  0  0
  3 13  1  0  0  0
  3  4  1  0  0  0
 13 14  1  0  0  0
 13 22  2  0  0  0
 14 15  2  0  0  0
 15 16  1  0  0  0
 16 17  1  0  0  0
 16 21  2  0  0  0
 17 18  2  0  0  0
 18 19  1  0  0  0
 19 20  2  0  0  0
 20 21  1  0  0  0
 21 22  1  0  0  0
  4  5  1  0  0  0
  4 10  2  0  0  0
  5  6  1  0  0  0
  5  7  2  0  0  0
  6 11  1  0  0  0
  6 12  1  0  0  0
  7  8  1  0  0  0
  8  9  2  0  0  0
  9 10  1  0  0  0
M  END
> <minimizedAffinity>
-7.30025

$$$$
