CHEMBL2036725


 24 27  0  0  0  0  0  0  0  0999 V2000
  -27.3860   -1.7448   -9.6285 C   0  0  0  0  0  0  0  0  0  0  0  0
  -28.3227   -1.6309  -10.6246 C   0  0  0  0  0  0  0  0  0  0  0  0
  -27.8146   -1.4427  -11.8876 C   0  0  0  0  0  0  0  0  0  0  0  0
  -26.4966   -1.3722  -12.1618 N   0  0  0  0  0  0  0  0  0  0  0  0
  -25.6566   -1.5503  -11.1355 C   0  0  0  0  0  0  0  0  0  0  0  0
  -26.0648   -1.7339   -9.8734 N   0  0  0  0  0  0  0  0  0  0  0  0
  -28.2019   -4.4332   -8.2249 C   0  0  0  0  0  0  0  0  0  0  0  0
  -28.1498   -3.1145   -7.6359 N   0  0  0  0  0  0  0  0  0  0  0  0
  -27.7573   -1.9229   -8.2246 C   0  0  0  0  0  0  0  0  0  0  0  0
  -27.7641   -0.9507   -7.3239 N   0  0  0  0  0  0  0  0  0  0  0  0
  -28.2488   -1.5022   -6.1666 C   0  0  0  0  0  0  0  0  0  0  0  0
  -28.5143   -0.8944   -4.9305 C   0  0  0  0  0  0  0  0  0  0  0  0
  -29.0107   -1.6820   -3.8846 C   0  0  0  0  0  0  0  0  0  0  0  0
  -29.2300   -3.0491   -4.0621 C   0  0  0  0  0  0  0  0  0  0  0  0
  -28.9714   -3.6709   -5.2884 C   0  0  0  0  0  0  0  0  0  0  0  0
  -28.4877   -2.8615   -6.3234 C   0  0  0  0  0  0  0  0  0  0  0  0
  -24.2892   -1.4856  -11.3862 N   0  0  0  0  0  0  0  0  0  0  0  0
  -23.7494   -1.8765  -10.6283 H   0  0  0  0  0  0  0  0  0  0  0  0
  -23.6169   -0.6242  -12.2666 C   0  0  0  0  0  0  0  0  0  0  0  0
  -23.8429    0.7604  -12.2727 C   0  0  0  0  0  0  0  0  0  0  0  0
  -23.2178    1.5923  -13.2024 C   0  0  0  0  0  0  0  0  0  0  0  0
  -22.3666    1.0458  -14.1564 C   0  0  0  0  0  0  0  0  0  0  0  0
  -22.1286   -0.3272  -14.1662 C   0  0  0  0  0  0  0  0  0  0  0  0
  -22.7402   -1.1551  -13.2198 C   0  0  0  0  0  0  0  0  0  0  0  0
  7  8  1  0  0  0
  8  9  1  0  0  0
  8 16  1  0  0  0
  9  1  1  0  0  0
  9 10  2  0  0  0
  1  2  1  0  0  0
  1  6  2  0  0  0
  2  3  2  0  0  0
  3  4  1  0  0  0
  4  5  2  0  0  0
  5 17  1  0  0  0
  5  6  1  0  0  0
 17 19  1  0  0  0
 17 18  1  0  0  0
 19 20  1  0  0  0
 19 24  2  0  0  0
 20 21  2  0  0  0
 21 22  1  0  0  0
 22 23  2  0  0  0
 23 24  1  0  0  0
 10 11  1  0  0  0
 11 12  1  0  0  0
 11 16  2  0  0  0
 12 13  2  0  0  0
 13 14  1  0  0  0
 14 15  2  0  0  0
 15 16  1  0  0  0
M  END
> <minimizedAffinity>
-8.63945

$$$$
