CHEMBL374240


 25 27  0  0  0  0  0  0  0  0999 V2000
  -29.8702   11.9995  -12.2372 C   0  0  0  0  0  0  0  0  0  0  0  0
  -28.9329   12.0480  -11.2110 C   0  0  0  0  0  0  0  0  0  0  0  0
  -27.5635   11.9133  -11.4293 N   0  0  0  0  0  0  0  0  0  0  0  0
  -29.2575   12.3538   -9.9428 N   0  0  0  0  0  0  0  0  0  0  0  0
  -30.5492   12.5876   -9.6950 C   0  0  0  0  0  0  0  0  0  0  0  0
  -31.5333   12.5560  -10.5949 N   0  0  0  0  0  0  0  0  0  0  0  0
  -31.1715   12.2927  -11.8715 C   0  0  0  0  0  0  0  0  0  0  0  0
  -27.3568   11.1568  -12.0821 H   0  0  0  0  0  0  0  0  0  0  0  0
  -27.0772   11.8531  -10.5418 H   0  0  0  0  0  0  0  0  0  0  0  0
  -29.1222   10.4357  -13.9189 N   0  0  0  0  0  0  0  0  0  0  0  0
  -29.5095   11.6385  -13.6192 C   0  0  0  0  0  0  0  0  0  0  0  0
  -27.5258   10.8726  -15.4991 C   0  0  0  0  0  0  0  0  0  0  0  0
  -28.8382   10.3586  -15.2886 O   0  0  0  0  0  0  0  0  0  0  0  0
  -32.1683   12.2988  -12.8482 O   0  0  0  0  0  0  0  0  0  0  0  0
  -32.8859   11.1284  -13.0351 C   0  0  0  0  0  0  0  0  0  0  0  0
  -32.8666   10.0897  -12.0974 C   0  0  0  0  0  0  0  0  0  0  0  0
  -33.5509    8.8914  -12.3222 C   0  0  0  0  0  0  0  0  0  0  0  0
  -34.3121    8.7901  -13.4901 C   0  0  0  0  0  0  0  0  0  0  0  0
  -35.0706    7.7424  -13.9623 N   0  0  0  0  0  0  0  0  0  0  0  0
  -35.6890    8.0982  -15.1302 C   0  0  0  0  0  0  0  0  0  0  0  0
  -35.3012    9.3861  -15.4351 C   0  0  0  0  0  0  0  0  0  0  0  0
  -34.4124    9.8305  -14.4165 C   0  0  0  0  0  0  0  0  0  0  0  0
  -33.6838   11.0173  -14.1809 C   0  0  0  0  0  0  0  0  0  0  0  0
  -33.7479   12.0315  -15.0558 F   0  0  0  0  0  0  0  0  0  0  0  0
  -35.1612    6.8460  -13.5033 H   0  0  0  0  0  0  0  0  0  0  0  0
 12 13  1  0  0  0
 13 10  1  0  0  0
 10 11  2  0  0  0
 11  1  1  0  0  0
  1  2  1  0  0  0
  1  7  2  0  0  0
  2  3  1  0  0  0
  2  4  2  0  0  0
  3  8  1  0  0  0
  3  9  1  0  0  0
  4  5  1  0  0  0
  5  6  2  0  0  0
  6  7  1  0  0  0
  7 14  1  0  0  0
 14 15  1  0  0  0
 15 16  1  0  0  0
 15 23  2  0  0  0
 16 17  2  0  0  0
 17 18  1  0  0  0
 18 19  1  0  0  0
 18 22  2  0  0  0
 19 20  1  0  0  0
 19 25  1  0  0  0
 20 21  2  0  0  0
 21 22  1  0  0  0
 22 23  1  0  0  0
 23 24  1  0  0  0
M  END
> <minimizedAffinity>
-5.40106

$$$$
