CHEMBL565990


 41 45  0  0  0  0  0  0  0  0999 V2000
  -14.7380   -1.2172  -13.5728 C   0  0  0  0  0  0  0  0  0  0  0  0
  -14.6752   -0.2412  -14.6288 C   0  0  0  0  0  0  0  0  0  0  0  0
  -15.7586    0.6842  -14.9041 C   0  0  0  0  0  0  0  0  0  0  0  0
  -16.7585    0.8939  -13.9517 C   0  0  0  0  0  0  0  0  0  0  0  0
  -16.5562    0.1758  -12.7596 C   0  0  0  0  0  0  0  0  0  0  0  0
  -15.6064   -0.8582  -12.5743 C   0  0  0  0  0  0  0  0  0  0  0  0
  -15.5801   -1.4752  -11.3909 F   0  0  0  0  0  0  0  0  0  0  0  0
  -17.9002    1.7988  -14.1518 N   0  0  0  0  0  0  0  0  0  0  0  0
  -19.0409    1.4364  -14.8794 C   0  0  0  0  0  0  0  0  0  0  0  0
  -19.1001    0.3158  -15.3771 O   0  0  0  0  0  0  0  0  0  0  0  0
  -17.8263    2.7324  -13.7674 H   0  0  0  0  0  0  0  0  0  0  0  0
  -20.2655    2.3732  -15.0441 C   0  0  0  0  0  0  0  0  0  0  0  0
  -21.5421    1.7450  -14.4039 C   0  0  0  0  0  0  0  0  0  0  0  0
  -22.4386    2.4396  -13.9214 O   0  0  0  0  0  0  0  0  0  0  0  0
  -21.6465    0.3527  -14.3299 N   0  0  0  0  0  0  0  0  0  0  0  0
  -20.8155   -0.2161  -14.4003 H   0  0  0  0  0  0  0  0  0  0  0  0
  -22.8030   -0.2029  -13.6898 C   0  0  0  0  0  0  0  0  0  0  0  0
  -22.7550   -0.5132  -12.3226 C   0  0  0  0  0  0  0  0  0  0  0  0
  -23.8354   -1.1082  -11.6724 C   0  0  0  0  0  0  0  0  0  0  0  0
  -24.8997   -1.5859  -12.4219 C   0  0  0  0  0  0  0  0  0  0  0  0
  -24.9186   -1.3624  -13.7982 C   0  0  0  0  0  0  0  0  0  0  0  0
  -23.9610   -0.5253  -14.3988 C   0  0  0  0  0  0  0  0  0  0  0  0
  -14.3948   -2.5888  -13.8292 O   0  0  0  0  0  0  0  0  0  0  0  0
  -13.6468   -6.8938  -15.2671 C   0  0  0  0  0  0  0  0  0  0  0  0
  -14.7705   -7.1886  -14.5556 C   0  0  0  0  0  0  0  0  0  0  0  0
  -15.0517   -6.0550  -13.8902 C   0  0  0  0  0  0  0  0  0  0  0  0
  -16.0284   -5.7674  -13.1801 N   0  0  0  0  0  0  0  0  0  0  0  0
  -16.9824   -5.5225  -12.4997 C   0  0  0  0  0  0  0  0  0  0  0  0
  -16.2803   -4.3172  -12.4842 C   0  0  0  0  0  0  0  0  0  0  0  0
  -14.7587   -3.8247  -13.1736 C   0  0  0  0  0  0  0  0  0  0  0  0
  -14.2505   -4.9420  -13.9134 C   0  0  0  0  0  0  0  0  0  0  0  0
  -13.0302   -5.2914  -15.0398 S   0  0  0  0  0  0  0  0  0  0  0  0
  -13.0102   -7.7973  -16.1647 C   0  0  0  0  0  0  0  0  0  0  0  0
  -12.3208   -8.7310  -15.7754 O   0  0  0  0  0  0  0  0  0  0  0  0
  -13.9616   -6.6197  -19.4778 N   0  0  0  0  0  0  0  0  0  0  0  0
  -13.3900   -7.8328  -19.7098 C   0  0  0  0  0  0  0  0  0  0  0  0
  -13.0084   -8.4058  -18.5926 N   0  0  0  0  0  0  0  0  0  0  0  0
  -13.3268   -7.5227  -17.5778 C   0  0  0  0  0  0  0  0  0  0  0  0
  -13.9436   -6.4052  -18.1310 C   0  0  0  0  0  0  0  0  0  0  0  0
  -14.3708   -4.2543  -19.9507 C   0  0  0  0  0  0  0  0  0  0  0  0
  -14.4302   -5.6777  -20.4729 C   0  0  0  0  0  0  0  0  0  0  0  0
 40 41  1  0  0  0
 41 35  1  0  0  0
 35 36  1  0  0  0
 35 39  1  0  0  0
 36 37  2  0  0  0
 37 38  1  0  0  0
 38 33  1  0  0  0
 38 39  2  0  0  0
 33 34  2  0  0  0
 33 24  1  0  0  0
 24 25  2  0  0  0
 24 32  1  0  0  0
 25 26  1  0  0  0
 26 27  1  0  0  0
 26 31  2  0  0  0
 27 28  2  0  0  0
 28 29  1  0  0  0
 29 30  2  0  0  0
 30 23  1  0  0  0
 30 31  1  0  0  0
 23  1  1  0  0  0
  1  2  1  0  0  0
  1  6  2  0  0  0
  2  3  2  0  0  0
  3  4  1  0  0  0
  4  8  1  0  0  0
  4  5  2  0  0  0
  8  9  1  0  0  0
  8 11  1  0  0  0
  9 10  2  0  0  0
  9 12  1  0  0  0
 12 13  1  0  0  0
 13 14  2  0  0  0
 13 15  1  0  0  0
 15 17  1  0  0  0
 15 16  1  0  0  0
 17 18  1  0  0  0
 17 22  2  0  0  0
 18 19  2  0  0  0
 19 20  1  0  0  0
 20 21  2  0  0  0
 21 22  1  0  0  0
  5  6  1  0  0  0
  6  7  1  0  0  0
 31 32  1  0  0  0
M  END
> <minimizedAffinity>
-9.65279

$$$$
