CHEMBL1085295


 37 44  0  0  0  0  0  0  0  0999 V2000
  -13.2715   -9.0690  -12.7246 C   0  0  0  0  0  0  0  0  0  0  0  0
  -14.0375   -7.8641  -12.9363 N   0  0  0  0  0  0  0  0  0  0  0  0
  -15.1971   -7.9101  -13.6263 N   0  0  0  0  0  0  0  0  0  0  0  0
  -15.0835   -6.8487  -14.4472 C   0  0  0  0  0  0  0  0  0  0  0  0
  -13.7992   -6.2289  -14.3627 C   0  0  0  0  0  0  0  0  0  0  0  0
  -13.4660   -6.6374  -13.0690 C   0  0  0  0  0  0  0  0  0  0  0  0
  -12.8092   -5.8380  -11.9882 C   0  0  0  0  0  0  0  0  0  0  0  0
  -12.0858   -4.6854  -12.6665 C   0  0  0  0  0  0  0  0  0  0  0  0
  -13.0371   -4.1004  -13.6851 C   0  0  0  0  0  0  0  0  0  0  0  0
  -13.3640   -4.9063  -14.7708 C   0  0  0  0  0  0  0  0  0  0  0  0
  -12.7870   -4.3731  -15.9275 C   0  0  0  0  0  0  0  0  0  0  0  0
  -12.6199   -2.9487  -16.0920 C   0  0  0  0  0  0  0  0  0  0  0  0
  -13.2620   -2.1909  -15.0871 C   0  0  0  0  0  0  0  0  0  0  0  0
  -13.6912   -0.8784  -15.0493 C   0  0  0  0  0  0  0  0  0  0  0  0
  -13.5023    0.3120  -15.7538 C   0  0  0  0  0  0  0  0  0  0  0  0
  -14.2181    1.4783  -15.3846 C   0  0  0  0  0  0  0  0  0  0  0  0
  -15.2631    1.3785  -14.4569 C   0  0  0  0  0  0  0  0  0  0  0  0
  -15.4982    0.1848  -13.7746 C   0  0  0  0  0  0  0  0  0  0  0  0
  -14.6325   -0.8987  -13.9891 C   0  0  0  0  0  0  0  0  0  0  0  0
  -14.5162   -2.1172  -13.3429 N   0  0  0  0  0  0  0  0  0  0  0  0
  -13.4607   -2.8214  -13.8905 C   0  0  0  0  0  0  0  0  0  0  0  0
  -11.7907   -2.6050  -17.2364 C   0  0  0  0  0  0  0  0  0  0  0  0
  -11.4584   -3.9546  -17.6805 N   0  0  0  0  0  0  0  0  0  0  0  0
  -12.0218   -5.0100  -16.9585 C   0  0  0  0  0  0  0  0  0  0  0  0
  -11.7346   -6.1872  -17.1837 O   0  0  0  0  0  0  0  0  0  0  0  0
  -10.6793   -4.1501  -18.2946 H   0  0  0  0  0  0  0  0  0  0  0  0
  -13.7332    2.7880  -15.9663 C   0  0  0  0  0  0  0  0  0  0  0  0
  -14.5701    4.0824  -15.8764 C   0  0  0  0  0  0  0  0  0  0  0  0
  -15.4003    4.4437  -17.1089 C   0  0  0  0  0  0  0  0  0  0  0  0
  -14.8216    3.9137  -18.4154 C   0  0  0  0  0  0  0  0  0  0  0  0
  -14.3436    2.5055  -18.2313 C   0  0  0  0  0  0  0  0  0  0  0  0
  -13.2658    2.5333  -17.2888 O   0  0  0  0  0  0  0  0  0  0  0  0
  -15.3653   -2.7223  -12.3399 C   0  0  0  0  0  0  0  0  0  0  0  0
  -14.7250   -3.0909  -10.9988 C   0  0  0  0  0  0  0  0  0  0  0  0
  -15.7453   -4.0366  -10.3546 C   0  0  0  0  0  0  0  0  0  0  0  0
  -16.6965   -4.4825  -11.4704 C   0  0  0  0  0  0  0  0  0  0  0  0
  -16.0827   -3.9855  -12.7714 C   0  0  0  0  0  0  0  0  0  0  0  0
  1  2  1  0  0  0
  2  3  1  0  0  0
  2  6  1  0  0  0
  3  4  2  0  0  0
  4  5  1  0  0  0
  5  6  2  0  0  0
  5 10  1  0  0  0
  6  7  1  0  0  0
  7  8  1  0  0  0
  8  9  1  0  0  0
  9 10  1  0  0  0
  9 21  2  0  0  0
 10 11  2  0  0  0
 11 12  1  0  0  0
 11 24  1  0  0  0
 12 13  2  0  0  0
 12 22  1  0  0  0
 13 14  1  0  0  0
 13 21  1  0  0  0
 14 15  1  0  0  0
 14 19  2  0  0  0
 15 16  2  0  0  0
 16 27  1  0  0  0
 16 17  1  0  0  0
 27 28  1  0  0  0
 27 32  1  0  0  0
 28 29  1  0  0  0
 29 30  1  0  0  0
 30 31  1  0  0  0
 31 32  1  0  0  0
 17 18  2  0  0  0
 18 19  1  0  0  0
 19 20  1  0  0  0
 20 33  1  0  0  0
 20 21  1  0  0  0
 33 34  1  0  0  0
 33 37  1  0  0  0
 34 35  1  0  0  0
 35 36  1  0  0  0
 36 37  1  0  0  0
 22 23  1  0  0  0
 23 24  1  0  0  0
 23 26  1  0  0  0
 24 25  2  0  0  0
M  END
> <minimizedAffinity>
-8.07399

$$$$
