CHEMBL3696095


 43 46  0  0  0  0  0  0  0  0999 V2000
  -27.6009   -2.4980   -8.8641 C   0  0  0  0  0  0  0  0  0  0  0  0
  -27.9361   -3.7756   -9.0906 N   0  0  0  0  0  0  0  0  0  0  0  0
  -28.6000   -4.4362   -7.7436 S   0  0  0  0  0  0  0  0  0  0  0  0
  -28.4885   -3.0331   -6.7939 C   0  0  0  0  0  0  0  0  0  0  0  0
  -27.9404   -2.0011   -7.5384 C   0  0  0  0  0  0  0  0  0  0  0  0
  -25.6316   -0.6331  -12.1774 C   0  0  0  0  0  0  0  0  0  0  0  0
  -26.9986   -0.9176  -12.2208 C   0  0  0  0  0  0  0  0  0  0  0  0
  -27.6356   -1.4868  -11.1220 C   0  0  0  0  0  0  0  0  0  0  0  0
  -26.9129   -1.8040   -9.9635 C   0  0  0  0  0  0  0  0  0  0  0  0
  -25.5361   -1.5373   -9.9350 C   0  0  0  0  0  0  0  0  0  0  0  0
  -24.8938   -0.9663  -11.0432 C   0  0  0  0  0  0  0  0  0  0  0  0
  -23.1759    1.0443  -14.2393 N   0  0  0  0  0  0  0  0  0  0  0  0
  -23.6653    0.3938  -13.1255 C   0  0  0  0  0  0  0  0  0  0  0  0
  -23.0055    0.1058  -12.1337 O   0  0  0  0  0  0  0  0  0  0  0  0
  -25.0026    0.0376  -13.2515 N   0  0  0  0  0  0  0  0  0  0  0  0
  -23.8568    1.4174  -14.8914 H   0  0  0  0  0  0  0  0  0  0  0  0
  -25.2847   -0.2224  -14.1843 H   0  0  0  0  0  0  0  0  0  0  0  0
  -17.6897    2.5658  -15.0272 C   0  0  0  0  0  0  0  0  0  0  0  0
  -19.1193    2.1703  -14.8166 C   0  0  0  0  0  0  0  0  0  0  0  0
  -19.5218    0.8627  -15.0643 C   0  0  0  0  0  0  0  0  0  0  0  0
  -20.8551    0.4880  -14.8800 C   0  0  0  0  0  0  0  0  0  0  0  0
  -21.8179    1.3980  -14.4366 C   0  0  0  0  0  0  0  0  0  0  0  0
  -21.4173    2.7104  -14.1882 C   0  0  0  0  0  0  0  0  0  0  0  0
  -20.0766    3.0986  -14.3785 C   0  0  0  0  0  0  0  0  0  0  0  0
  -28.8786   -3.0739   -5.4647 N   0  0  0  0  0  0  0  0  0  0  0  0
  -30.1104   -3.6079   -5.1427 C   0  0  0  0  0  0  0  0  0  0  0  0
  -30.9589   -3.9826   -5.9448 O   0  0  0  0  0  0  0  0  0  0  0  0
  -30.3163   -3.6770   -3.7877 N   0  0  0  0  0  0  0  0  0  0  0  0
  -28.5836   -2.2869   -4.8961 H   0  0  0  0  0  0  0  0  0  0  0  0
  -29.6259   -3.2984   -3.1554 H   0  0  0  0  0  0  0  0  0  0  0  0
  -31.5882   -4.1541   -3.2833 C   0  0  0  0  0  0  0  0  0  0  0  0
  -31.7497   -5.6540   -3.4716 C   0  0  0  0  0  0  0  0  0  0  0  0
  -30.4026   -6.3776   -3.3424 C   0  0  0  0  0  0  0  0  0  0  0  0
  -29.6686   -6.4244   -4.6182 N   0  0  0  0  0  0  0  0  0  0  0  0
  -30.0380   -7.5573   -5.4795 C   0  0  0  0  0  0  0  0  0  0  0  0
  -29.1865   -8.7188   -5.0085 C   0  0  0  0  0  0  0  0  0  0  0  0
  -27.8876   -8.0641   -4.5796 C   0  0  0  0  0  0  0  0  0  0  0  0
  -28.2195   -6.5862   -4.3940 C   0  0  0  0  0  0  0  0  0  0  0  0
  -27.8119   -0.6635   -6.9905 C   0  0  0  0  0  0  0  0  0  0  0  0
  -28.4446    0.3391   -7.6671 N   0  0  0  0  0  0  0  0  0  0  0  0
  -27.2371   -0.4324   -5.9299 O   0  0  0  0  0  0  0  0  0  0  0  0
  -29.1064    0.1578   -8.4116 H   0  0  0  0  0  0  0  0  0  0  0  0
  -28.4609    1.2547   -7.2376 H   0  0  0  0  0  0  0  0  0  0  0  0
 18 19  1  0  0  0
 19 20  1  0  0  0
 19 24  2  0  0  0
 20 21  2  0  0  0
 21 22  1  0  0  0
 22 12  1  0  0  0
 22 23  2  0  0  0
 12 13  1  0  0  0
 12 16  1  0  0  0
 13 14  2  0  0  0
 13 15  1  0  0  0
 15  6  1  0  0  0
 15 17  1  0  0  0
  6  7  1  0  0  0
  6 11  2  0  0  0
  7  8  2  0  0  0
  8  9  1  0  0  0
  9  1  1  0  0  0
  9 10  2  0  0  0
  1  2  2  0  0  0
  1  5  1  0  0  0
  2  3  1  0  0  0
  3  4  1  0  0  0
  4 25  1  0  0  0
  4  5  2  0  0  0
 25 26  1  0  0  0
 25 29  1  0  0  0
 26 27  2  0  0  0
 26 28  1  0  0  0
 28 31  1  0  0  0
 28 30  1  0  0  0
 31 32  1  0  0  0
 32 33  1  0  0  0
 33 34  1  0  0  0
 34 35  1  0  0  0
 34 38  1  0  0  0
 35 36  1  0  0  0
 36 37  1  0  0  0
 37 38  1  0  0  0
  5 39  1  0  0  0
 39 40  1  0  0  0
 39 41  2  0  0  0
 40 42  1  0  0  0
 40 43  1  0  0  0
 10 11  1  0  0  0
 23 24  1  0  0  0
M  END
> <minimizedAffinity>
-8.27431

$$$$
