CHEMBL3945523


 38 41  0  0  0  0  0  0  0  0999 V2000
  -30.0940   -5.8648   -3.5560 C   0  0  0  0  0  0  0  0  0  0  0  0
  -29.6084   -6.6514   -4.7455 C   0  0  0  0  0  0  0  0  0  0  0  0
  -28.9866   -7.8749   -4.4328 C   0  0  0  0  0  0  0  0  0  0  0  0
  -28.4675   -8.7472   -5.3892 C   0  0  0  0  0  0  0  0  0  0  0  0
  -28.6526   -8.4179   -6.7258 C   0  0  0  0  0  0  0  0  0  0  0  0
  -29.2814   -7.2103   -7.0676 C   0  0  0  0  0  0  0  0  0  0  0  0
  -29.6916   -6.2787   -6.0955 C   0  0  0  0  0  0  0  0  0  0  0  0
  -27.7879   -9.9389   -5.0244 N   0  0  0  0  0  0  0  0  0  0  0  0
  -26.4132  -10.0101   -4.8305 C   0  0  0  0  0  0  0  0  0  0  0  0
  -25.6347   -9.0752   -4.9882 O   0  0  0  0  0  0  0  0  0  0  0  0
  -25.9572  -11.2763   -4.4889 N   0  0  0  0  0  0  0  0  0  0  0  0
  -28.3303  -10.7868   -4.9689 H   0  0  0  0  0  0  0  0  0  0  0  0
  -26.4183  -12.0255   -4.9851 H   0  0  0  0  0  0  0  0  0  0  0  0
  -24.5503  -11.4241   -4.2958 C   0  0  0  0  0  0  0  0  0  0  0  0
  -24.0017  -11.3393   -3.0080 C   0  0  0  0  0  0  0  0  0  0  0  0
  -22.6224  -11.3613   -2.8438 C   0  0  0  0  0  0  0  0  0  0  0  0
  -22.1023  -11.2770   -1.6125 F   0  0  0  0  0  0  0  0  0  0  0  0
  -21.7714  -11.4503   -3.9367 C   0  0  0  0  0  0  0  0  0  0  0  0
  -22.3013  -11.5413   -5.2330 C   0  0  0  0  0  0  0  0  0  0  0  0
  -23.7055  -11.5539   -5.4047 C   0  0  0  0  0  0  0  0  0  0  0  0
  -21.3676  -11.5845   -6.4219 C   0  0  0  0  0  0  0  0  0  0  0  0
  -22.0917  -11.9869   -7.6985 C   0  0  0  0  0  0  0  0  0  0  0  0
  -20.7726  -10.3767   -6.6511 F   0  0  0  0  0  0  0  0  0  0  0  0
  -20.3386  -12.4611   -6.2320 F   0  0  0  0  0  0  0  0  0  0  0  0
  -30.1963   -5.0377   -6.4739 O   0  0  0  0  0  0  0  0  0  0  0  0
  -29.2937   -4.0213   -6.7917 C   0  0  0  0  0  0  0  0  0  0  0  0
  -28.4910   -3.4043   -5.8312 C   0  0  0  0  0  0  0  0  0  0  0  0
  -27.6267   -2.4118   -6.2367 C   0  0  0  0  0  0  0  0  0  0  0  0
  -27.5318   -1.9942   -7.5053 N   0  0  0  0  0  0  0  0  0  0  0  0
  -28.3196   -2.5539   -8.4429 C   0  0  0  0  0  0  0  0  0  0  0  0
  -29.2156   -3.5780   -8.1243 C   0  0  0  0  0  0  0  0  0  0  0  0
  -28.2099   -2.0811   -9.7678 N   0  0  0  0  0  0  0  0  0  0  0  0
  -27.0088   -1.6840  -10.3310 C   0  0  0  0  0  0  0  0  0  0  0  0
  -25.8961   -1.6856   -9.8027 O   0  0  0  0  0  0  0  0  0  0  0  0
  -29.0526   -2.0140  -10.3194 H   0  0  0  0  0  0  0  0  0  0  0  0
  -27.0976   -1.1663  -11.7360 C   0  0  0  0  0  0  0  0  0  0  0  0
  -27.1663   -2.1570  -12.8867 C   0  0  0  0  0  0  0  0  0  0  0  0
  -25.9188   -1.3567  -12.6680 C   0  0  0  0  0  0  0  0  0  0  0  0
  1  2  1  0  0  0
  2  3  1  0  0  0
  2  7  2  0  0  0
  3  4  2  0  0  0
  4  8  1  0  0  0
  4  5  1  0  0  0
  8  9  1  0  0  0
  8 12  1  0  0  0
  9 10  2  0  0  0
  9 11  1  0  0  0
 11 14  1  0  0  0
 11 13  1  0  0  0
 14 15  1  0  0  0
 14 20  2  0  0  0
 15 16  2  0  0  0
 16 17  1  0  0  0
 16 18  1  0  0  0
 18 19  2  0  0  0
 19 21  1  0  0  0
 19 20  1  0  0  0
 21 22  1  0  0  0
 21 23  1  0  0  0
 21 24  1  0  0  0
  5  6  2  0  0  0
  6  7  1  0  0  0
  7 25  1  0  0  0
 25 26  1  0  0  0
 26 27  1  0  0  0
 26 31  2  0  0  0
 27 28  2  0  0  0
 28 29  1  0  0  0
 29 30  2  0  0  0
 30 32  1  0  0  0
 30 31  1  0  0  0
 32 33  1  0  0  0
 32 35  1  0  0  0
 33 34  2  0  0  0
 33 36  1  0  0  0
 36 37  1  0  0  0
 36 38  1  0  0  0
 37 38  1  0  0  0
M  END
> <minimizedAffinity>
-9.99807

$$$$
