CHEMBL257533


 30 33  0  0  0  0  0  0  0  0999 V2000
  -29.3824   -3.6133   -6.3946 C   0  0  0  0  0  0  0  0  0  0  0  0
  -29.6239   -3.9250   -7.7404 C   0  0  0  0  0  0  0  0  0  0  0  0
  -29.0511   -3.1896   -8.7766 C   0  0  0  0  0  0  0  0  0  0  0  0
  -28.2668   -2.0672   -8.5175 C   0  0  0  0  0  0  0  0  0  0  0  0
  -27.9639   -1.7695   -7.1898 C   0  0  0  0  0  0  0  0  0  0  0  0
  -28.4927   -2.5541   -6.1478 C   0  0  0  0  0  0  0  0  0  0  0  0
  -28.1097   -6.7766   -6.6423 N   0  0  0  0  0  0  0  0  0  0  0  0
  -28.9915   -6.8533   -5.6329 C   0  0  0  0  0  0  0  0  0  0  0  0
  -29.1875   -8.0057   -4.9957 N   0  0  0  0  0  0  0  0  0  0  0  0
  -30.0704   -7.6882   -4.0378 N   0  0  0  0  0  0  0  0  0  0  0  0
  -30.4483   -6.3806   -4.0440 C   0  0  0  0  0  0  0  0  0  0  0  0
  -31.2940   -5.8237   -3.1598 N   0  0  0  0  0  0  0  0  0  0  0  0
  -31.4994   -4.5151   -3.3890 C   0  0  0  0  0  0  0  0  0  0  0  0
  -30.9318   -3.7904   -4.4248 C   0  0  0  0  0  0  0  0  0  0  0  0
  -30.0368   -4.4020   -5.3343 C   0  0  0  0  0  0  0  0  0  0  0  0
  -29.7821   -5.7802   -5.1105 C   0  0  0  0  0  0  0  0  0  0  0  0
  -27.5213   -7.5957   -6.7544 H   0  0  0  0  0  0  0  0  0  0  0  0
  -27.6009   -5.9112   -6.7801 H   0  0  0  0  0  0  0  0  0  0  0  0
  -30.3806   -8.4007   -3.3912 H   0  0  0  0  0  0  0  0  0  0  0  0
  -27.7730   -1.2346   -9.5518 N   0  0  0  0  0  0  0  0  0  0  0  0
  -26.8364   -1.6547  -10.4857 C   0  0  0  0  0  0  0  0  0  0  0  0
  -26.4530   -2.8157  -10.5866 O   0  0  0  0  0  0  0  0  0  0  0  0
  -26.3763   -0.6225  -11.2791 N   0  0  0  0  0  0  0  0  0  0  0  0
  -28.3187   -0.4203   -9.7885 H   0  0  0  0  0  0  0  0  0  0  0  0
  -26.5653    0.3294  -10.9982 H   0  0  0  0  0  0  0  0  0  0  0  0
  -25.4084   -0.8138  -12.2722 C   0  0  0  0  0  0  0  0  0  0  0  0
  -25.5758   -1.4822  -13.5309 C   0  0  0  0  0  0  0  0  0  0  0  0
  -24.4063   -1.5838  -14.2505 C   0  0  0  0  0  0  0  0  0  0  0  0
  -23.1091   -0.8150  -13.4539 S   0  0  0  0  0  0  0  0  0  0  0  0
  -24.1121   -0.3626  -12.1376 C   0  0  0  0  0  0  0  0  0  0  0  0
  7  8  1  0  0  0
  7 17  1  0  0  0
  7 18  1  0  0  0
  8  9  2  0  0  0
  8 16  1  0  0  0
  9 10  1  0  0  0
 10 11  1  0  0  0
 10 19  1  0  0  0
 11 12  1  0  0  0
 11 16  2  0  0  0
 12 13  2  0  0  0
 13 14  1  0  0  0
 14 15  2  0  0  0
 15  1  1  0  0  0
 15 16  1  0  0  0
  1  2  1  0  0  0
  1  6  2  0  0  0
  2  3  2  0  0  0
  3  4  1  0  0  0
  4 20  1  0  0  0
  4  5  2  0  0  0
 20 21  1  0  0  0
 20 24  1  0  0  0
 21 22  2  0  0  0
 21 23  1  0  0  0
 23 26  1  0  0  0
 23 25  1  0  0  0
 26 27  1  0  0  0
 26 30  2  0  0  0
 27 28  2  0  0  0
 28 29  1  0  0  0
 29 30  1  0  0  0
  5  6  1  0  0  0
M  END
> <minimizedAffinity>
-8.18813

$$$$
