CHEMBL3950262


 30 33  0  0  0  0  0  0  0  0999 V2000
  -18.3466    2.3621  -15.2932 C   0  0  0  0  0  0  0  0  0  0  0  0
  -19.1585    3.4644  -15.5469 C   0  0  0  0  0  0  0  0  0  0  0  0
  -20.4375    3.5753  -15.0461 C   0  0  0  0  0  0  0  0  0  0  0  0
  -21.0681    2.5305  -14.4524 C   0  0  0  0  0  0  0  0  0  0  0  0
  -22.2849    2.8590  -14.0212 N   0  0  0  0  0  0  0  0  0  0  0  0
  -23.0687    1.8493  -13.6667 C   0  0  0  0  0  0  0  0  0  0  0  0
  -22.6772    0.5300  -13.7842 C   0  0  0  0  0  0  0  0  0  0  0  0
  -21.3657    0.2038  -14.0946 N   0  0  0  0  0  0  0  0  0  0  0  0
  -20.4776    1.2381  -14.4157 C   0  0  0  0  0  0  0  0  0  0  0  0
  -19.0452    1.2335  -14.7547 C   0  0  0  0  0  0  0  0  0  0  0  0
  -23.7743   -0.4281  -13.7220 C   0  0  0  0  0  0  0  0  0  0  0  0
  -24.5525   -0.9758  -14.7749 C   0  0  0  0  0  0  0  0  0  0  0  0
  -25.6918   -1.5425  -14.3497 N   0  0  0  0  0  0  0  0  0  0  0  0
  -25.6660   -1.3400  -13.0220 N   0  0  0  0  0  0  0  0  0  0  0  0
  -26.6455   -1.9569  -12.1574 C   0  0  0  0  0  0  0  0  0  0  0  0
  -24.6148   -0.5614  -12.6235 C   0  0  0  0  0  0  0  0  0  0  0  0
  -16.9517    2.4251  -15.6672 N   0  0  0  0  0  0  0  0  0  0  0  0
  -15.8655    1.5045  -15.4275 C   0  0  0  0  0  0  0  0  0  0  0  0
  -15.0150    1.0239  -16.4329 C   0  0  0  0  0  0  0  0  0  0  0  0
  -14.0713    0.0117  -16.1489 C   0  0  0  0  0  0  0  0  0  0  0  0
  -13.9547   -0.5202  -14.8581 C   0  0  0  0  0  0  0  0  0  0  0  0
  -14.7673   -0.0491  -13.8438 C   0  0  0  0  0  0  0  0  0  0  0  0
  -15.7037    0.9401  -14.1332 C   0  0  0  0  0  0  0  0  0  0  0  0
  -13.2067   -0.5716  -17.0381 O   0  0  0  0  0  0  0  0  0  0  0  0
  -12.7605   -1.8847  -16.7465 C   0  0  0  0  0  0  0  0  0  0  0  0
  -14.7768   -0.5230  -12.5609 O   0  0  0  0  0  0  0  0  0  0  0  0
  -15.5952   -1.6726  -12.3685 C   0  0  0  0  0  0  0  0  0  0  0  0
  -16.3742    3.7990  -15.8737 C   0  0  0  0  0  0  0  0  0  0  0  0
  -15.0193    4.9087  -17.7342 C   0  0  0  0  0  0  0  0  0  0  0  0
  -15.9221    4.0187  -17.2970 C   0  0  0  0  0  0  0  0  0  0  0  0
 29 30  2  0  0  0
 30 28  1  0  0  0
 28 17  1  0  0  0
 17 18  1  0  0  0
 17  1  1  0  0  0
 18 19  1  0  0  0
 18 23  2  0  0  0
 19 20  2  0  0  0
 20 24  1  0  0  0
 20 21  1  0  0  0
 24 25  1  0  0  0
 21 22  2  0  0  0
 22 26  1  0  0  0
 22 23  1  0  0  0
 26 27  1  0  0  0
  1  2  1  0  0  0
  1 10  2  0  0  0
  2  3  2  0  0  0
  3  4  1  0  0  0
  4  5  1  0  0  0
  4  9  2  0  0  0
  5  6  2  0  0  0
  6  7  1  0  0  0
  7 11  1  0  0  0
  7  8  2  0  0  0
 11 12  1  0  0  0
 11 16  2  0  0  0
 12 13  2  0  0  0
 13 14  1  0  0  0
 14 15  1  0  0  0
 14 16  1  0  0  0
  8  9  1  0  0  0
  9 10  1  0  0  0
M  END
> <minimizedAffinity>
-8.27598

$$$$
