CHEMBL3114019


 28 31  0  0  0  0  0  0  0  0999 V2000
  -14.9743    1.4969  -14.6810 C   0  0  0  0  0  0  0  0  0  0  0  0
  -14.4764    2.6773  -15.1939 C   0  0  0  0  0  0  0  0  0  0  0  0
  -15.3453    3.4514  -15.9270 C   0  0  0  0  0  0  0  0  0  0  0  0
  -16.6283    3.1254  -16.1510 N   0  0  0  0  0  0  0  0  0  0  0  0
  -17.0462    1.9662  -15.6285 C   0  0  0  0  0  0  0  0  0  0  0  0
  -16.2535    1.1582  -14.9161 N   0  0  0  0  0  0  0  0  0  0  0  0
  -14.1629    0.5984  -13.9437 N   0  0  0  0  0  0  0  0  0  0  0  0
  -13.1063    1.2266  -13.1495 C   0  0  0  0  0  0  0  0  0  0  0  0
  -16.7313   -5.3128  -11.9299 C   0  0  0  0  0  0  0  0  0  0  0  0
  -15.8644   -4.5616  -12.8705 C   0  0  0  0  0  0  0  0  0  0  0  0
  -15.4917   -3.2432  -12.9498 C   0  0  0  0  0  0  0  0  0  0  0  0
  -15.8772   -2.2334  -12.0776 C   0  0  0  0  0  0  0  0  0  0  0  0
  -15.3528   -0.9861  -12.4853 C   0  0  0  0  0  0  0  0  0  0  0  0
  -14.5218   -0.7520  -13.6487 C   0  0  0  0  0  0  0  0  0  0  0  0
  -14.1326   -1.8393  -14.4759 C   0  0  0  0  0  0  0  0  0  0  0  0
  -14.6525   -3.0981  -14.1079 C   0  0  0  0  0  0  0  0  0  0  0  0
  -14.5062   -4.2973  -14.6977 N   0  0  0  0  0  0  0  0  0  0  0  0
  -15.2342   -5.1487  -13.9424 N   0  0  0  0  0  0  0  0  0  0  0  0
  -15.3019   -6.5419  -14.3233 C   0  0  0  0  0  0  0  0  0  0  0  0
  -18.3605    1.6023  -15.9193 N   0  0  0  0  0  0  0  0  0  0  0  0
  -18.3706    0.9420  -16.6811 H   0  0  0  0  0  0  0  0  0  0  0  0
  -19.5558    1.8219  -15.2225 C   0  0  0  0  0  0  0  0  0  0  0  0
  -19.9543    3.1420  -14.9589 C   0  0  0  0  0  0  0  0  0  0  0  0
  -21.1741    3.4205  -14.3330 C   0  0  0  0  0  0  0  0  0  0  0  0
  -22.0178    2.3796  -13.9542 C   0  0  0  0  0  0  0  0  0  0  0  0
  -21.6322    1.0663  -14.2002 C   0  0  0  0  0  0  0  0  0  0  0  0
  -22.7712   -0.3586  -13.6990 Br  0  0  0  0  0  0  0  0  0  0  0  0
  -20.4150    0.7896  -14.8235 C   0  0  0  0  0  0  0  0  0  0  0  0
  9 10  1  0  0  0
 10 11  2  0  0  0
 10 18  1  0  0  0
 11 12  1  0  0  0
 11 16  1  0  0  0
 12 13  2  0  0  0
 13 14  1  0  0  0
 14  7  1  0  0  0
 14 15  2  0  0  0
  7  8  1  0  0  0
  7  1  1  0  0  0
  1  2  1  0  0  0
  1  6  2  0  0  0
  2  3  2  0  0  0
  3  4  1  0  0  0
  4  5  2  0  0  0
  5 20  1  0  0  0
  5  6  1  0  0  0
 20 22  1  0  0  0
 20 21  1  0  0  0
 22 23  1  0  0  0
 22 28  2  0  0  0
 23 24  2  0  0  0
 24 25  1  0  0  0
 25 26  2  0  0  0
 26 27  1  0  0  0
 26 28  1  0  0  0
 15 16  1  0  0  0
 16 17  2  0  0  0
 17 18  1  0  0  0
 18 19  1  0  0  0
M  END
> <minimizedAffinity>
-8.69547

$$$$
