CHEMBL3954671


 37 41  0  0  0  0  0  0  0  0999 V2000
  -17.0077    1.9713  -15.5209 N   0  0  0  0  0  0  0  0  0  0  0  0
  -18.4555    1.8777  -15.5204 C   0  0  0  0  0  0  0  0  0  0  0  0
  -19.1054    3.0773  -15.7356 C   0  0  0  0  0  0  0  0  0  0  0  0
  -20.3637    3.2869  -15.2037 C   0  0  0  0  0  0  0  0  0  0  0  0
  -21.0591    2.2747  -14.6022 C   0  0  0  0  0  0  0  0  0  0  0  0
  -22.1510    2.6813  -13.9609 N   0  0  0  0  0  0  0  0  0  0  0  0
  -22.9673    1.7317  -13.5024 C   0  0  0  0  0  0  0  0  0  0  0  0
  -22.7480    0.3925  -13.7648 C   0  0  0  0  0  0  0  0  0  0  0  0
  -21.5608   -0.0421  -14.3126 N   0  0  0  0  0  0  0  0  0  0  0  0
  -20.6226    0.9296  -14.6838 C   0  0  0  0  0  0  0  0  0  0  0  0
  -19.2457    0.7657  -15.1129 C   0  0  0  0  0  0  0  0  0  0  0  0
  -23.9147   -0.4687  -13.6059 C   0  0  0  0  0  0  0  0  0  0  0  0
  -24.7280   -1.0675  -14.6072 C   0  0  0  0  0  0  0  0  0  0  0  0
  -25.8714   -1.5678  -14.1244 N   0  0  0  0  0  0  0  0  0  0  0  0
  -25.8039   -1.2865  -12.8128 N   0  0  0  0  0  0  0  0  0  0  0  0
  -26.7126   -1.9125  -11.8811 C   0  0  0  0  0  0  0  0  0  0  0  0
  -24.7451   -0.4796  -12.4942 C   0  0  0  0  0  0  0  0  0  0  0  0
  -15.4819   -0.3544  -13.0036 C   0  0  0  0  0  0  0  0  0  0  0  0
  -14.3281   -0.7582  -13.6768 C   0  0  0  0  0  0  0  0  0  0  0  0
  -14.0295   -0.2206  -14.9253 C   0  0  0  0  0  0  0  0  0  0  0  0
  -14.8876    0.7250  -15.4996 C   0  0  0  0  0  0  0  0  0  0  0  0
  -16.0565    1.1636  -14.8592 C   0  0  0  0  0  0  0  0  0  0  0  0
  -16.3265    0.6180  -13.5878 C   0  0  0  0  0  0  0  0  0  0  0  0
  -15.6278   -2.2545  -11.5567 C   0  0  0  0  0  0  0  0  0  0  0  0
  -15.8900   -0.8650  -11.7955 O   0  0  0  0  0  0  0  0  0  0  0  0
  -12.9499   -0.5527  -15.7004 O   0  0  0  0  0  0  0  0  0  0  0  0
  -12.9224   -1.8683  -16.2394 C   0  0  0  0  0  0  0  0  0  0  0  0
  -16.6167    3.4161  -15.7814 C   0  0  0  0  0  0  0  0  0  0  0  0
  -15.6348    3.6275  -16.9789 C   0  0  0  0  0  0  0  0  0  0  0  0
  -14.9705    4.9665  -17.0338 N   0  0  0  0  0  0  0  0  0  0  0  0
  -14.7748    5.4824  -18.4094 C   0  0  0  0  0  0  0  0  0  0  0  0
  -13.4888    4.8329  -18.8804 C   0  0  0  0  0  0  0  0  0  0  0  0
  -12.6063    4.8888  -17.6495 C   0  0  0  0  0  0  0  0  0  0  0  0
  -13.5819    5.0120  -16.4689 C   0  0  0  0  0  0  0  0  0  0  0  0
  -13.2172    4.0543  -15.3239 C   0  0  0  0  0  0  0  0  0  0  0  0
  -12.4300    4.7170  -14.3385 O   0  0  0  0  0  0  0  0  0  0  0  0
  -12.6788    5.6598  -14.3673 H   0  0  0  0  0  0  0  0  0  0  0  0
 24 25  1  0  0  0
 25 18  1  0  0  0
 18 19  1  0  0  0
 18 23  2  0  0  0
 19 20  2  0  0  0
 20 26  1  0  0  0
 20 21  1  0  0  0
 26 27  1  0  0  0
 21 22  2  0  0  0
 22  1  1  0  0  0
 22 23  1  0  0  0
  1 28  1  0  0  0
  1  2  1  0  0  0
 28 29  1  0  0  0
 29 30  1  0  0  0
 30 31  1  0  0  0
 30 34  1  0  0  0
 31 32  1  0  0  0
 32 33  1  0  0  0
 33 34  1  0  0  0
 34 35  1  0  0  0
 35 36  1  0  0  0
 36 37  1  0  0  0
  2  3  1  0  0  0
  2 11  2  0  0  0
  3  4  2  0  0  0
  4  5  1  0  0  0
  5  6  1  0  0  0
  5 10  2  0  0  0
  6  7  2  0  0  0
  7  8  1  0  0  0
  8 12  1  0  0  0
  8  9  2  0  0  0
 12 13  1  0  0  0
 12 17  2  0  0  0
 13 14  2  0  0  0
 14 15  1  0  0  0
 15 16  1  0  0  0
 15 17  1  0  0  0
  9 10  1  0  0  0
 10 11  1  0  0  0
M  END
> <minimizedAffinity>
-8.84217

$$$$
