CHEMBL591924


 43 47  0  0  0  0  0  0  0  0999 V2000
  -28.6982   -3.2339   -6.8610 C   0  0  0  0  0  0  0  0  0  0  0  0
  -28.3511   -3.8657   -8.0612 C   0  0  0  0  0  0  0  0  0  0  0  0
  -27.6265   -3.1912   -9.0559 C   0  0  0  0  0  0  0  0  0  0  0  0
  -27.2296   -1.8677   -8.8613 C   0  0  0  0  0  0  0  0  0  0  0  0
  -27.6973   -1.1959   -7.7355 C   0  0  0  0  0  0  0  0  0  0  0  0
  -27.4213    0.1051   -7.5598 F   0  0  0  0  0  0  0  0  0  0  0  0
  -28.4362   -1.8615   -6.7543 C   0  0  0  0  0  0  0  0  0  0  0  0
  -29.3719   -3.8812   -5.8084 N   0  0  0  0  0  0  0  0  0  0  0  0
  -30.3654   -3.6507   -5.8430 H   0  0  0  0  0  0  0  0  0  0  0  0
  -28.8163   -3.7334   -4.4189 C   0  0  0  0  0  0  0  0  0  0  0  0
  -29.7579   -2.9678   -3.4405 C   0  0  0  0  0  0  0  0  0  0  0  0
  -30.0929   -1.7394   -3.9021 F   0  0  0  0  0  0  0  0  0  0  0  0
  -30.9119   -3.6467   -3.2414 F   0  0  0  0  0  0  0  0  0  0  0  0
  -29.1875   -2.7733   -2.2267 F   0  0  0  0  0  0  0  0  0  0  0  0
  -28.5352   -5.1272   -3.8406 C   0  0  0  0  0  0  0  0  0  0  0  0
  -28.2245   -6.9748   -5.3804 N   0  0  0  0  0  0  0  0  0  0  0  0
  -29.1515   -6.2250   -4.6766 C   0  0  0  0  0  0  0  0  0  0  0  0
  -30.3729   -6.3466   -4.7172 O   0  0  0  0  0  0  0  0  0  0  0  0
  -27.2454   -6.9245   -5.1204 H   0  0  0  0  0  0  0  0  0  0  0  0
  -28.3219   -9.2843   -6.1464 C   0  0  0  0  0  0  0  0  0  0  0  0
  -28.4796  -10.2192   -7.1791 C   0  0  0  0  0  0  0  0  0  0  0  0
  -28.8764   -9.8070   -8.4491 C   0  0  0  0  0  0  0  0  0  0  0  0
  -29.0997   -8.4583   -8.6993 C   0  0  0  0  0  0  0  0  0  0  0  0
  -28.8989   -7.5152   -7.6899 C   0  0  0  0  0  0  0  0  0  0  0  0
  -28.4977   -7.9086   -6.4099 C   0  0  0  0  0  0  0  0  0  0  0  0
  -29.0399  -10.3692   -4.1861 C   0  0  0  0  0  0  0  0  0  0  0  0
  -27.9970   -9.6511   -4.8574 O   0  0  0  0  0  0  0  0  0  0  0  0
  -26.4463   -1.1671   -9.7527 O   0  0  0  0  0  0  0  0  0  0  0  0
  -26.5907   -1.3951  -11.1112 C   0  0  0  0  0  0  0  0  0  0  0  0
  -27.6319   -2.1473  -11.6640 C   0  0  0  0  0  0  0  0  0  0  0  0
  -27.7198   -2.2745  -13.0370 C   0  0  0  0  0  0  0  0  0  0  0  0
  -26.8478   -1.7623  -13.9187 N   0  0  0  0  0  0  0  0  0  0  0  0
  -25.7798   -1.1118  -13.3853 C   0  0  0  0  0  0  0  0  0  0  0  0
  -24.7165   -0.5504  -14.1484 C   0  0  0  0  0  0  0  0  0  0  0  0
  -23.7331   -0.0015  -13.3575 C   0  0  0  0  0  0  0  0  0  0  0  0
  -24.1279   -0.0946  -11.7004 S   0  0  0  0  0  0  0  0  0  0  0  0
  -25.6119   -0.9211  -12.0103 C   0  0  0  0  0  0  0  0  0  0  0  0
  -22.4893    0.6021  -13.9244 C   0  0  0  0  0  0  0  0  0  0  0  0
  -22.1464    1.9372  -13.9186 C   0  0  0  0  0  0  0  0  0  0  0  0
  -20.9403    1.9947  -14.5638 N   0  0  0  0  0  0  0  0  0  0  0  0
  -20.1707    3.1805  -14.8479 C   0  0  0  0  0  0  0  0  0  0  0  0
  -20.5963    0.7255  -14.9198 C   0  0  0  0  0  0  0  0  0  0  0  0
  -21.5043   -0.1433  -14.5379 N   0  0  0  0  0  0  0  0  0  0  0  0
 26 27  1  0  0  0
 27 20  1  0  0  0
 20 21  1  0  0  0
 20 25  2  0  0  0
 21 22  2  0  0  0
 22 23  1  0  0  0
 23 24  2  0  0  0
 24 25  1  0  0  0
 25 16  1  0  0  0
 16 17  1  0  0  0
 16 19  1  0  0  0
 17 18  2  0  0  0
 17 15  1  0  0  0
 15 10  1  0  0  0
 10  8  1  0  0  0
 10 11  1  0  0  0
  8  1  1  0  0  0
  8  9  1  0  0  0
  1  2  1  0  0  0
  1  7  2  0  0  0
  2  3  2  0  0  0
  3  4  1  0  0  0
  4 28  1  0  0  0
  4  5  2  0  0  0
 28 29  1  0  0  0
 29 30  1  0  0  0
 29 37  2  0  0  0
 30 31  2  0  0  0
 31 32  1  0  0  0
 32 33  2  0  0  0
 33 34  1  0  0  0
 33 37  1  0  0  0
 34 35  2  0  0  0
 35 38  1  0  0  0
 35 36  1  0  0  0
 38 39  2  0  0  0
 38 43  1  0  0  0
 39 40  1  0  0  0
 40 41  1  0  0  0
 40 42  1  0  0  0
 42 43  2  0  0  0
 36 37  1  0  0  0
  5  6  1  0  0  0
  5  7  1  0  0  0
 11 12  1  0  0  0
 11 13  1  0  0  0
 11 14  1  0  0  0
M  END
> <minimizedAffinity>
-9.47031

$$$$
