CHEMBL1242478


 37 41  0  0  0  0  0  0  0  0999 V2000
  -26.5352   -2.2102  -10.8848 C   0  0  0  0  0  0  0  0  0  0  0  0
  -25.4752   -1.4106  -10.4713 C   0  0  0  0  0  0  0  0  0  0  0  0
  -24.7204   -0.6912  -11.4118 C   0  0  0  0  0  0  0  0  0  0  0  0
  -24.9962   -0.7597  -12.7874 C   0  0  0  0  0  0  0  0  0  0  0  0
  -26.1061   -1.5282  -13.1813 C   0  0  0  0  0  0  0  0  0  0  0  0
  -26.8393   -2.2744  -12.2469 C   0  0  0  0  0  0  0  0  0  0  0  0
  -26.5697   -1.6195  -14.4713 O   0  0  0  0  0  0  0  0  0  0  0  0
  -25.6090   -1.2317  -15.4500 C   0  0  0  0  0  0  0  0  0  0  0  0
  -24.8864    0.0527  -15.0777 C   0  0  0  0  0  0  0  0  0  0  0  0
  -24.1934   -0.0916  -13.7893 N   0  0  0  0  0  0  0  0  0  0  0  0
  -22.8444    0.2182  -13.5503 C   0  0  0  0  0  0  0  0  0  0  0  0
  -22.2795   -0.0703  -12.4971 O   0  0  0  0  0  0  0  0  0  0  0  0
  -22.1689    0.8365  -14.5920 N   0  0  0  0  0  0  0  0  0  0  0  0
  -22.7222    1.3096  -15.2858 H   0  0  0  0  0  0  0  0  0  0  0  0
  -20.7830    1.1471  -14.6159 C   0  0  0  0  0  0  0  0  0  0  0  0
  -20.2434    2.3512  -14.1479 C   0  0  0  0  0  0  0  0  0  0  0  0
  -18.8829    2.6381  -14.2953 C   0  0  0  0  0  0  0  0  0  0  0  0
  -18.0409    1.7054  -14.8877 C   0  0  0  0  0  0  0  0  0  0  0  0
  -16.3791    2.0782  -15.1196 Cl  0  0  0  0  0  0  0  0  0  0  0  0
  -18.5448    0.4738  -15.2998 C   0  0  0  0  0  0  0  0  0  0  0  0
  -19.9100    0.1938  -15.1577 C   0  0  0  0  0  0  0  0  0  0  0  0
  -27.2052   -2.9245   -9.9071 O   0  0  0  0  0  0  0  0  0  0  0  0
  -29.8481   -4.2316   -5.7042 C   0  0  0  0  0  0  0  0  0  0  0  0
  -29.5382   -2.8657   -5.6785 C   0  0  0  0  0  0  0  0  0  0  0  0
  -28.8123   -2.2389   -6.6775 C   0  0  0  0  0  0  0  0  0  0  0  0
  -28.6115   -0.9220   -6.5396 N   0  0  0  0  0  0  0  0  0  0  0  0
  -27.8933   -0.2792   -7.4842 C   0  0  0  0  0  0  0  0  0  0  0  0
  -27.3623   -0.9038   -8.5819 C   0  0  0  0  0  0  0  0  0  0  0  0
  -27.6401   -2.2608   -8.7695 C   0  0  0  0  0  0  0  0  0  0  0  0
  -28.3412   -2.9877   -7.7720 C   0  0  0  0  0  0  0  0  0  0  0  0
  -28.6119   -4.3826   -7.7868 C   0  0  0  0  0  0  0  0  0  0  0  0
  -29.3560   -5.0097   -6.7607 C   0  0  0  0  0  0  0  0  0  0  0  0
  -29.6465   -6.4691   -6.9306 C   0  0  0  0  0  0  0  0  0  0  0  0
  -28.7519   -7.5340   -6.3451 C   0  0  0  0  0  0  0  0  0  0  0  0
  -30.6474   -6.7954   -7.5722 O   0  0  0  0  0  0  0  0  0  0  0  0
  -31.0141   -4.0029   -3.6400 C   0  0  0  0  0  0  0  0  0  0  0  0
  -30.6007   -4.8279   -4.7288 O   0  0  0  0  0  0  0  0  0  0  0  0
 36 37  1  0  0  0
 37 23  1  0  0  0
 23 24  1  0  0  0
 23 32  2  0  0  0
 24 25  2  0  0  0
 25 26  1  0  0  0
 25 30  1  0  0  0
 26 27  2  0  0  0
 27 28  1  0  0  0
 28 29  2  0  0  0
 29 22  1  0  0  0
 29 30  1  0  0  0
 22  1  1  0  0  0
  1  2  1  0  0  0
  1  6  2  0  0  0
  2  3  2  0  0  0
  3  4  1  0  0  0
  4  5  2  0  0  0
  4 10  1  0  0  0
  5  6  1  0  0  0
  5  7  1  0  0  0
  7  8  1  0  0  0
  8  9  1  0  0  0
  9 10  1  0  0  0
 10 11  1  0  0  0
 11 12  2  0  0  0
 11 13  1  0  0  0
 13 15  1  0  0  0
 13 14  1  0  0  0
 15 16  1  0  0  0
 15 21  2  0  0  0
 16 17  2  0  0  0
 17 18  1  0  0  0
 18 19  1  0  0  0
 18 20  2  0  0  0
 20 21  1  0  0  0
 30 31  2  0  0  0
 31 32  1  0  0  0
 32 33  1  0  0  0
 33 34  1  0  0  0
 33 35  2  0  0  0
M  END
> <minimizedAffinity>
-9.10775

$$$$
