CHEMBL1172957


 30 33  0  0  0  0  0  0  0  0999 V2000
  -28.8671   -5.0058   -4.9838 C   0  0  0  0  0  0  0  0  0  0  0  0
  -28.4333   -3.7480   -5.2653 N   0  0  0  0  0  0  0  0  0  0  0  0
  -29.0444   -2.6549   -4.7663 C   0  0  0  0  0  0  0  0  0  0  0  0
  -30.1143   -2.7003   -3.9536 N   0  0  0  0  0  0  0  0  0  0  0  0
  -30.5585   -3.9407   -3.7419 C   0  0  0  0  0  0  0  0  0  0  0  0
  -31.6404   -4.3023   -2.9948 N   0  0  0  0  0  0  0  0  0  0  0  0
  -31.7420   -5.6662   -3.0551 C   0  0  0  0  0  0  0  0  0  0  0  0
  -30.7681   -6.2014   -3.7640 N   0  0  0  0  0  0  0  0  0  0  0  0
  -30.0297   -5.1265   -4.2085 C   0  0  0  0  0  0  0  0  0  0  0  0
  -32.2445   -3.6631   -2.5002 H   0  0  0  0  0  0  0  0  0  0  0  0
  -28.5397   -1.4312   -5.1141 N   0  0  0  0  0  0  0  0  0  0  0  0
  -29.1836   -0.1862   -4.6941 C   0  0  0  0  0  0  0  0  0  0  0  0
  -29.6152    0.6271   -5.9226 C   0  0  0  0  0  0  0  0  0  0  0  0
  -28.5228    0.8200   -6.8396 O   0  0  0  0  0  0  0  0  0  0  0  0
  -28.0275   -0.4499   -7.2962 C   0  0  0  0  0  0  0  0  0  0  0  0
  -27.5049   -1.3077   -6.1332 C   0  0  0  0  0  0  0  0  0  0  0  0
  -28.1473   -6.1221   -5.4560 N   0  0  0  0  0  0  0  0  0  0  0  0
  -27.2594   -5.8306   -5.8553 H   0  0  0  0  0  0  0  0  0  0  0  0
  -29.9303   -9.3425   -7.5003 C   0  0  0  0  0  0  0  0  0  0  0  0
  -29.3000   -9.5801   -6.2818 C   0  0  0  0  0  0  0  0  0  0  0  0
  -28.7110   -8.5127   -5.6033 C   0  0  0  0  0  0  0  0  0  0  0  0
  -28.7299   -7.2115   -6.1368 C   0  0  0  0  0  0  0  0  0  0  0  0
  -29.3926   -6.9882   -7.3484 C   0  0  0  0  0  0  0  0  0  0  0  0
  -29.9817   -8.0526   -8.0400 C   0  0  0  0  0  0  0  0  0  0  0  0
  -32.1387   -9.9653   -8.8770 N   0  0  0  0  0  0  0  0  0  0  0  0
  -30.7131  -10.6802   -8.3435 S   0  0  0  0  0  0  0  0  0  0  0  0
  -31.0903  -11.6880   -7.3829 O   0  0  0  0  0  0  0  0  0  0  0  0
  -29.9738  -10.9853   -9.5502 O   0  0  0  0  0  0  0  0  0  0  0  0
  -32.9242  -10.5807   -8.6658 H   0  0  0  0  0  0  0  0  0  0  0  0
  -32.0620   -9.7163   -9.8626 H   0  0  0  0  0  0  0  0  0  0  0  0
 25 26  1  0  0  0
 25 29  1  0  0  0
 25 30  1  0  0  0
 26 27  2  0  0  0
 26 28  2  0  0  0
 26 19  1  0  0  0
 19 20  1  0  0  0
 19 24  2  0  0  0
 20 21  2  0  0  0
 21 22  1  0  0  0
 22 17  1  0  0  0
 22 23  2  0  0  0
 17  1  1  0  0  0
 17 18  1  0  0  0
  1  2  1  0  0  0
  1  9  2  0  0  0
  2  3  2  0  0  0
  3 11  1  0  0  0
  3  4  1  0  0  0
 11 12  1  0  0  0
 11 16  1  0  0  0
 12 13  1  0  0  0
 13 14  1  0  0  0
 14 15  1  0  0  0
 15 16  1  0  0  0
  4  5  2  0  0  0
  5  6  1  0  0  0
  5  9  1  0  0  0
  6  7  1  0  0  0
  6 10  1  0  0  0
  7  8  2  0  0  0
  8  9  1  0  0  0
 23 24  1  0  0  0
M  END
> <minimizedAffinity>
-8.10393

$$$$
