CHEMBL2377464


 34 39  0  0  0  0  0  0  0  0999 V2000
  -32.0090   -5.4153   -3.7586 O   0  0  0  0  0  0  0  0  0  0  0  0
  -30.8289   -5.1186   -3.9335 C   0  0  0  0  0  0  0  0  0  0  0  0
  -30.3879   -3.8266   -3.8114 N   0  0  0  0  0  0  0  0  0  0  0  0
  -29.0540   -3.4628   -3.8578 C   0  0  0  0  0  0  0  0  0  0  0  0
  -28.0587   -4.2690   -4.0849 N   0  0  0  0  0  0  0  0  0  0  0  0
  -28.4523   -5.5965   -4.3048 C   0  0  0  0  0  0  0  0  0  0  0  0
  -27.5591   -6.6388   -4.6256 C   0  0  0  0  0  0  0  0  0  0  0  0
  -28.2424   -7.8175   -4.8630 C   0  0  0  0  0  0  0  0  0  0  0  0
  -29.9382   -7.6342   -4.6519 S   0  0  0  0  0  0  0  0  0  0  0  0
  -29.7581   -6.0053   -4.2516 C   0  0  0  0  0  0  0  0  0  0  0  0
  -31.0576   -3.1195   -3.5294 H   0  0  0  0  0  0  0  0  0  0  0  0
  -27.6042   -9.0910   -5.3007 C   0  0  0  0  0  0  0  0  0  0  0  0
  -28.1842   -9.9543   -6.2014 C   0  0  0  0  0  0  0  0  0  0  0  0
  -27.2864  -10.9571   -6.4669 N   0  0  0  0  0  0  0  0  0  0  0  0
  -26.1686  -10.8146   -5.6670 C   0  0  0  0  0  0  0  0  0  0  0  0
  -25.0223  -11.6152   -5.5279 C   0  0  0  0  0  0  0  0  0  0  0  0
  -24.0461  -11.2206   -4.6073 C   0  0  0  0  0  0  0  0  0  0  0  0
  -24.2024  -10.0676   -3.8486 C   0  0  0  0  0  0  0  0  0  0  0  0
  -25.3417   -9.2723   -3.9972 C   0  0  0  0  0  0  0  0  0  0  0  0
  -26.3421   -9.6377   -4.9256 C   0  0  0  0  0  0  0  0  0  0  0  0
  -27.4863  -11.9632   -7.5060 C   0  0  0  0  0  0  0  0  0  0  0  0
  -27.6665  -11.3390   -8.8654 C   0  0  0  0  0  0  0  0  0  0  0  0
  -26.6293  -10.6085   -9.4664 C   0  0  0  0  0  0  0  0  0  0  0  0
  -26.8217   -9.9855  -10.6994 C   0  0  0  0  0  0  0  0  0  0  0  0
  -28.0456  -10.0997  -11.3529 C   0  0  0  0  0  0  0  0  0  0  0  0
  -29.0716  -10.8524  -10.7836 C   0  0  0  0  0  0  0  0  0  0  0  0
  -28.8826  -11.4724   -9.5488 C   0  0  0  0  0  0  0  0  0  0  0  0
  -28.8233   -1.9714   -3.6588 C   0  0  0  0  0  0  0  0  0  0  0  0
  -29.0891   -1.2295   -4.9200 N   0  0  0  0  0  0  0  0  0  0  0  0
  -29.8267    0.0174   -4.6265 C   0  0  0  0  0  0  0  0  0  0  0  0
  -30.0177    0.8862   -5.8691 C   0  0  0  0  0  0  0  0  0  0  0  0
  -28.6769    1.2059   -6.5123 C   0  0  0  0  0  0  0  0  0  0  0  0
  -27.9498   -0.0908   -6.8359 C   0  0  0  0  0  0  0  0  0  0  0  0
  -27.8026   -0.9622   -5.5888 C   0  0  0  0  0  0  0  0  0  0  0  0
  1  2  2  0  0  0
  2  3  1  0  0  0
  2 10  1  0  0  0
  3  4  1  0  0  0
  3 11  1  0  0  0
  4 28  1  0  0  0
  4  5  2  0  0  0
 28 29  1  0  0  0
 29 30  1  0  0  0
 29 34  1  0  0  0
 30 31  1  0  0  0
 31 32  1  0  0  0
 32 33  1  0  0  0
 33 34  1  0  0  0
  5  6  1  0  0  0
  6  7  1  0  0  0
  6 10  2  0  0  0
  7  8  2  0  0  0
  8 12  1  0  0  0
  8  9  1  0  0  0
 12 13  2  0  0  0
 12 20  1  0  0  0
 13 14  1  0  0  0
 14 21  1  0  0  0
 14 15  1  0  0  0
 21 22  1  0  0  0
 22 23  1  0  0  0
 22 27  2  0  0  0
 23 24  2  0  0  0
 24 25  1  0  0  0
 25 26  2  0  0  0
 26 27  1  0  0  0
 15 16  1  0  0  0
 15 20  2  0  0  0
 16 17  2  0  0  0
 17 18  1  0  0  0
 18 19  2  0  0  0
 19 20  1  0  0  0
  9 10  1  0  0  0
M  END
> <minimizedAffinity>
-8.83174

$$$$
