CHEMBL92279


 21 24  0  0  0  0  0  0  0  0999 V2000
  -30.3719   -6.4232   -6.6714 C   0  0  0  0  0  0  0  0  0  0  0  0
  -29.6764   -5.2632   -7.3082 C   0  0  0  0  0  0  0  0  0  0  0  0
  -29.4555   -4.1039   -6.7635 N   0  0  0  0  0  0  0  0  0  0  0  0
  -29.9059   -3.9430   -5.4757 C   0  0  0  0  0  0  0  0  0  0  0  0
  -29.8739   -2.8723   -4.5961 C   0  0  0  0  0  0  0  0  0  0  0  0
  -30.4856   -3.3683   -3.4237 C   0  0  0  0  0  0  0  0  0  0  0  0
  -30.8879   -4.6344   -3.5305 N   0  0  0  0  0  0  0  0  0  0  0  0
  -30.5446   -4.9875   -4.7909 N   0  0  0  0  0  0  0  0  0  0  0  0
  -30.7712   -6.2131   -5.4075 C   0  0  0  0  0  0  0  0  0  0  0  0
  -29.8518   -9.4349   -8.8088 C   0  0  0  0  0  0  0  0  0  0  0  0
  -29.5847   -8.2479   -8.1478 C   0  0  0  0  0  0  0  0  0  0  0  0
  -30.5996   -7.6794   -7.3774 C   0  0  0  0  0  0  0  0  0  0  0  0
  -31.8377   -8.3171   -7.3035 C   0  0  0  0  0  0  0  0  0  0  0  0
  -32.0059   -9.5013   -8.0013 C   0  0  0  0  0  0  0  0  0  0  0  0
  -31.0395  -10.0735   -8.7499 N   0  0  0  0  0  0  0  0  0  0  0  0
  -29.3208   -1.5522   -4.8674 C   0  0  0  0  0  0  0  0  0  0  0  0
  -27.9694   -1.2675   -4.6600 C   0  0  0  0  0  0  0  0  0  0  0  0
  -27.4991   -0.0002   -4.9643 C   0  0  0  0  0  0  0  0  0  0  0  0
  -28.2709    0.9891   -5.4592 N   0  0  0  0  0  0  0  0  0  0  0  0
  -29.5732    0.6975   -5.6517 C   0  0  0  0  0  0  0  0  0  0  0  0
  -30.1376   -0.5390   -5.3770 C   0  0  0  0  0  0  0  0  0  0  0  0
 10 11  1  0  0  0
 10 15  2  0  0  0
 11 12  2  0  0  0
 12  1  1  0  0  0
 12 13  1  0  0  0
  1  2  1  0  0  0
  1  9  2  0  0  0
  2  3  2  0  0  0
  3  4  1  0  0  0
  4  5  2  0  0  0
  4  8  1  0  0  0
  5 16  1  0  0  0
  5  6  1  0  0  0
 16 17  1  0  0  0
 16 21  2  0  0  0
 17 18  2  0  0  0
 18 19  1  0  0  0
 19 20  2  0  0  0
 20 21  1  0  0  0
  6  7  2  0  0  0
  7  8  1  0  0  0
  8  9  1  0  0  0
 13 14  2  0  0  0
 14 15  1  0  0  0
M  END
> <minimizedAffinity>
-8.02485

$$$$
