CHEMBL4458435


 29 33  0  0  0  0  0  0  0  0999 V2000
  -14.5716   -1.4648  -12.9267 N   0  0  0  0  0  0  0  0  0  0  0  0
  -13.4085   -2.3898  -12.9589 C   0  0  0  0  0  0  0  0  0  0  0  0
  -13.5853   -3.7148  -12.1743 C   0  0  0  0  0  0  0  0  0  0  0  0
  -13.2524   -3.6326  -10.6838 C   0  0  0  0  0  0  0  0  0  0  0  0
  -14.6413   -3.4940  -10.0155 C   0  0  0  0  0  0  0  0  0  0  0  0
  -15.5968   -3.0153  -11.1679 C   0  0  0  0  0  0  0  0  0  0  0  0
  -15.8463   -1.8921  -12.2597 C   0  0  0  0  0  0  0  0  0  0  0  0
  -14.9995   -4.0103  -12.1054 N   0  0  0  0  0  0  0  0  0  0  0  0
  -15.6106   -5.2155  -12.3774 C   0  0  0  0  0  0  0  0  0  0  0  0
  -16.7430   -5.4963  -12.0343 O   0  0  0  0  0  0  0  0  0  0  0  0
  -15.8816    1.1994  -14.9442 C   0  0  0  0  0  0  0  0  0  0  0  0
  -15.1062    1.2349  -16.0338 N   0  0  0  0  0  0  0  0  0  0  0  0
  -14.0898    0.3713  -16.0646 C   0  0  0  0  0  0  0  0  0  0  0  0
  -13.8435   -0.5430  -15.0626 C   0  0  0  0  0  0  0  0  0  0  0  0
  -14.7178   -0.5519  -13.9846 C   0  0  0  0  0  0  0  0  0  0  0  0
  -15.7197    0.3396  -13.9207 N   0  0  0  0  0  0  0  0  0  0  0  0
  -16.8970    2.1199  -14.7893 N   0  0  0  0  0  0  0  0  0  0  0  0
  -16.5766    2.8149  -14.1123 H   0  0  0  0  0  0  0  0  0  0  0  0
  -21.5422    3.0011  -14.4210 C   0  0  0  0  0  0  0  0  0  0  0  0
  -20.3374    2.3896  -14.9194 N   0  0  0  0  0  0  0  0  0  0  0  0
  -19.1204    2.9956  -14.9716 C   0  0  0  0  0  0  0  0  0  0  0  0
  -18.2130    1.9715  -14.9873 C   0  0  0  0  0  0  0  0  0  0  0  0
  -18.9760    0.7978  -15.1432 C   0  0  0  0  0  0  0  0  0  0  0  0
  -20.2866    1.0496  -15.0994 N   0  0  0  0  0  0  0  0  0  0  0  0
  -14.7858   -6.1832  -13.1383 C   0  0  0  0  0  0  0  0  0  0  0  0
  -15.0213   -7.6726  -13.1846 C   0  0  0  0  0  0  0  0  0  0  0  0
  -13.9613   -7.1129  -12.3318 C   0  0  0  0  0  0  0  0  0  0  0  0
  -14.0718   -7.1802  -10.9550 F   0  0  0  0  0  0  0  0  0  0  0  0
  -12.6270   -7.2739  -12.6309 F   0  0  0  0  0  0  0  0  0  0  0  0
 19 20  1  0  0  0
 20 21  1  0  0  0
 20 24  1  0  0  0
 21 22  2  0  0  0
 22 17  1  0  0  0
 22 23  1  0  0  0
 17 11  1  0  0  0
 17 18  1  0  0  0
 11 12  1  0  0  0
 11 16  2  0  0  0
 12 13  2  0  0  0
 13 14  1  0  0  0
 14 15  2  0  0  0
 15  1  1  0  0  0
 15 16  1  0  0  0
  1  2  1  0  0  0
  1  7  1  0  0  0
  2  3  1  0  0  0
  3  4  1  0  0  0
  3  8  1  0  0  0
  4  5  1  0  0  0
  5  6  1  0  0  0
  6  7  1  0  0  0
  6  8  1  0  0  0
  8  9  1  0  0  0
  9 10  2  0  0  0
  9 25  1  0  0  0
 25 26  1  0  0  0
 25 27  1  0  0  0
 26 27  1  0  0  0
 27 28  1  0  0  0
 27 29  1  0  0  0
 23 24  2  0  0  0
M  END
> <minimizedAffinity>
-7.55725

$$$$
