CHEMBL4102888


 34 39  0  0  0  0  0  0  0  0999 V2000
  -12.8215   -0.3362  -13.2501 O   0  0  0  0  0  0  0  0  0  0  0  0
  -13.9078   -0.5301  -13.7590 C   0  0  0  0  0  0  0  0  0  0  0  0
  -14.7666   -1.6093  -13.6284 N   0  0  0  0  0  0  0  0  0  0  0  0
  -14.3887    0.3538  -14.7470 N   0  0  0  0  0  0  0  0  0  0  0  0
  -13.6869    0.7711  -15.8604 C   0  0  0  0  0  0  0  0  0  0  0  0
  -14.5237    1.5342  -16.6446 C   0  0  0  0  0  0  0  0  0  0  0  0
  -15.7539    1.6855  -15.9485 C   0  0  0  0  0  0  0  0  0  0  0  0
  -16.9597    2.3744  -16.2191 C   0  0  0  0  0  0  0  0  0  0  0  0
  -18.0065    2.3322  -15.2856 C   0  0  0  0  0  0  0  0  0  0  0  0
  -17.8583    1.6054  -14.1048 C   0  0  0  0  0  0  0  0  0  0  0  0
  -16.6713    0.9358  -13.8072 C   0  0  0  0  0  0  0  0  0  0  0  0
  -15.6409    0.9574  -14.7615 C   0  0  0  0  0  0  0  0  0  0  0  0
  -15.2350   -1.9075  -14.4771 H   0  0  0  0  0  0  0  0  0  0  0  0
  -14.4039   -2.6379  -12.7834 C   0  0  0  0  0  0  0  0  0  0  0  0
  -13.6943   -3.8074  -13.1471 C   0  0  0  0  0  0  0  0  0  0  0  0
  -13.6182   -4.5391  -11.9879 C   0  0  0  0  0  0  0  0  0  0  0  0
  -14.2029   -3.8306  -10.9814 O   0  0  0  0  0  0  0  0  0  0  0  0
  -14.6359   -2.6029  -11.4728 N   0  0  0  0  0  0  0  0  0  0  0  0
  -12.9828   -5.9137  -11.8601 C   0  0  0  0  0  0  0  0  0  0  0  0
  -13.5244   -7.0442  -12.7076 C   0  0  0  0  0  0  0  0  0  0  0  0
  -13.7980   -7.0340  -11.2444 C   0  0  0  0  0  0  0  0  0  0  0  0
  -19.1895    2.9555  -15.6399 O   0  0  0  0  0  0  0  0  0  0  0  0
  -20.3542    2.6070  -14.9590 C   0  0  0  0  0  0  0  0  0  0  0  0
  -20.6569    1.2611  -14.8701 C   0  0  0  0  0  0  0  0  0  0  0  0
  -21.8782    0.9434  -14.2955 C   0  0  0  0  0  0  0  0  0  0  0  0
  -22.6931    1.9035  -13.7957 N   0  0  0  0  0  0  0  0  0  0  0  0
  -22.2828    3.1746  -13.9100 C   0  0  0  0  0  0  0  0  0  0  0  0
  -21.1666    3.5810  -14.5032 N   0  0  0  0  0  0  0  0  0  0  0  0
  -22.4518   -0.4499  -14.3389 C   0  0  0  0  0  0  0  0  0  0  0  0
  -23.3076   -0.7613  -13.2127 N   0  0  0  0  0  0  0  0  0  0  0  0
  -22.7972   -1.0535  -11.9917 N   0  0  0  0  0  0  0  0  0  0  0  0
  -23.8839   -1.5720  -11.4094 C   0  0  0  0  0  0  0  0  0  0  0  0
  -24.9825   -1.5995  -12.2128 N   0  0  0  0  0  0  0  0  0  0  0  0
  -24.6041   -1.0919  -13.3781 N   0  0  0  0  0  0  0  0  0  0  0  0
  1  2  2  0  0  0
  2  3  1  0  0  0
  2  4  1  0  0  0
  3 14  1  0  0  0
  3 13  1  0  0  0
 14 15  1  0  0  0
 14 18  2  0  0  0
 15 16  2  0  0  0
 16 19  1  0  0  0
 16 17  1  0  0  0
 19 20  1  0  0  0
 19 21  1  0  0  0
 20 21  1  0  0  0
 17 18  1  0  0  0
  4  5  1  0  0  0
  4 12  1  0  0  0
  5  6  2  0  0  0
  6  7  1  0  0  0
  7  8  1  0  0  0
  7 12  2  0  0  0
  8  9  2  0  0  0
  9 22  1  0  0  0
  9 10  1  0  0  0
 22 23  1  0  0  0
 23 24  1  0  0  0
 23 28  2  0  0  0
 24 25  2  0  0  0
 25 29  1  0  0  0
 25 26  1  0  0  0
 29 30  1  0  0  0
 30 31  1  0  0  0
 30 34  1  0  0  0
 31 32  2  0  0  0
 32 33  1  0  0  0
 33 34  2  0  0  0
 26 27  2  0  0  0
 27 28  1  0  0  0
 10 11  2  0  0  0
 11 12  1  0  0  0
M  END
> <minimizedAffinity>
-9.27408

$$$$
