CHEMBL1203981


 38 42  0  0  0  0  0  0  0  0999 V2000
  -27.5347   -2.8217   -8.8235 C   0  0  0  0  0  0  0  0  0  0  0  0
  -27.9857   -2.4915   -7.5194 C   0  0  0  0  0  0  0  0  0  0  0  0
  -28.4979   -3.4580   -6.6514 C   0  0  0  0  0  0  0  0  0  0  0  0
  -28.5643   -4.7773   -7.0790 C   0  0  0  0  0  0  0  0  0  0  0  0
  -28.1398   -5.1285   -8.3432 C   0  0  0  0  0  0  0  0  0  0  0  0
  -27.6425   -4.1750   -9.2412 C   0  0  0  0  0  0  0  0  0  0  0  0
  -28.2788   -6.5167   -8.5568 N   0  0  0  0  0  0  0  0  0  0  0  0
  -28.7740   -7.0559   -7.4191 C   0  0  0  0  0  0  0  0  0  0  0  0
  -29.0254   -8.2451   -7.2981 O   0  0  0  0  0  0  0  0  0  0  0  0
  -29.0128   -6.0082   -6.4013 C   0  0  0  0  0  0  0  0  0  0  0  0
  -29.5438   -6.1649   -5.1601 C   0  0  0  0  0  0  0  0  0  0  0  0
  -28.0479   -7.0301   -9.4198 H   0  0  0  0  0  0  0  0  0  0  0  0
  -29.8636   -5.0255   -4.2833 C   0  0  0  0  0  0  0  0  0  0  0  0
  -28.8152   -4.3271   -3.6694 C   0  0  0  0  0  0  0  0  0  0  0  0
  -29.0870   -3.2270   -2.8527 C   0  0  0  0  0  0  0  0  0  0  0  0
  -30.4073   -2.8172   -2.6473 C   0  0  0  0  0  0  0  0  0  0  0  0
  -31.4580   -3.5086   -3.2579 C   0  0  0  0  0  0  0  0  0  0  0  0
  -31.1904   -4.6106   -4.0768 C   0  0  0  0  0  0  0  0  0  0  0  0
  -26.8422   -0.4966  -11.8658 C   0  0  0  0  0  0  0  0  0  0  0  0
  -27.4990   -1.5178  -11.0465 N   0  0  0  0  0  0  0  0  0  0  0  0
  -28.7114   -2.1236  -11.5828 C   0  0  0  0  0  0  0  0  0  0  0  0
  -26.9931   -1.7931   -9.7905 C   0  0  0  0  0  0  0  0  0  0  0  0
  -26.0487   -1.1278   -9.3834 O   0  0  0  0  0  0  0  0  0  0  0  0
  -29.8554   -7.4592   -4.6644 N   0  0  0  0  0  0  0  0  0  0  0  0
  -30.8433   -7.6863   -4.4757 H   0  0  0  0  0  0  0  0  0  0  0  0
  -28.8324   -8.3667   -4.2468 C   0  0  0  0  0  0  0  0  0  0  0  0
  -27.4794   -7.9721   -4.1684 C   0  0  0  0  0  0  0  0  0  0  0  0
  -26.4869   -8.8884   -3.8134 C   0  0  0  0  0  0  0  0  0  0  0  0
  -26.8219  -10.2181   -3.5348 C   0  0  0  0  0  0  0  0  0  0  0  0
  -28.1735  -10.6057   -3.5618 C   0  0  0  0  0  0  0  0  0  0  0  0
  -29.1693   -9.6863   -3.9114 C   0  0  0  0  0  0  0  0  0  0  0  0
  -25.7378  -11.2446   -3.3082 C   0  0  0  0  0  0  0  0  0  0  0  0
  -24.3692  -10.8016   -3.6626 N   0  0  0  0  0  0  0  0  0  0  0  0
  -23.3692  -11.5184   -2.8351 C   0  0  0  0  0  0  0  0  0  0  0  0
  -21.9338  -11.2082   -3.2877 C   0  0  0  0  0  0  0  0  0  0  0  0
  -21.7618  -11.5913   -4.7561 C   0  0  0  0  0  0  0  0  0  0  0  0
  -22.7543  -10.7834   -5.5845 C   0  0  0  0  0  0  0  0  0  0  0  0
  -24.1793  -11.0826   -5.1108 C   0  0  0  0  0  0  0  0  0  0  0  0
 19 20  1  0  0  0
 20 21  1  0  0  0
 20 22  1  0  0  0
 22 23  2  0  0  0
 22  1  1  0  0  0
  1  2  1  0  0  0
  1  6  2  0  0  0
  2  3  2  0  0  0
  3  4  1  0  0  0
  4  5  2  0  0  0
  4 10  1  0  0  0
  5  6  1  0  0  0
  5  7  1  0  0  0
  7  8  1  0  0  0
  7 12  1  0  0  0
  8  9  2  0  0  0
  8 10  1  0  0  0
 10 11  2  0  0  0
 11 24  1  0  0  0
 11 13  1  0  0  0
 24 26  1  0  0  0
 24 25  1  0  0  0
 26 27  1  0  0  0
 26 31  2  0  0  0
 27 28  2  0  0  0
 28 29  1  0  0  0
 29 32  1  0  0  0
 29 30  2  0  0  0
 32 33  1  0  0  0
 33 34  1  0  0  0
 33 38  1  0  0  0
 34 35  1  0  0  0
 35 36  1  0  0  0
 36 37  1  0  0  0
 37 38  1  0  0  0
 30 31  1  0  0  0
 13 14  1  0  0  0
 13 18  2  0  0  0
 14 15  2  0  0  0
 15 16  1  0  0  0
 16 17  2  0  0  0
 17 18  1  0  0  0
M  END
> <minimizedAffinity>
-6.71058

$$$$
