CHEMBL3918251


 44 48  0  0  0  0  0  0  0  0999 V2000
  -24.8471  -11.3643   -3.3518 O   0  0  0  0  0  0  0  0  0  0  0  0
  -23.9288  -11.5672   -4.3647 C   0  0  0  0  0  0  0  0  0  0  0  0
  -22.5546  -11.6697   -4.1440 C   0  0  0  0  0  0  0  0  0  0  0  0
  -21.7133  -11.8731   -5.2201 C   0  0  0  0  0  0  0  0  0  0  0  0
  -22.0994  -11.9337   -6.5047 N   0  0  0  0  0  0  0  0  0  0  0  0
  -23.4284  -11.7644   -6.7316 C   0  0  0  0  0  0  0  0  0  0  0  0
  -24.0297  -11.7441   -8.0217 C   0  0  0  0  0  0  0  0  0  0  0  0
  -25.3945  -11.5536   -7.9767 C   0  0  0  0  0  0  0  0  0  0  0  0
  -25.9417  -11.4112   -6.3570 S   0  0  0  0  0  0  0  0  0  0  0  0
  -24.3579  -11.5844   -5.7065 C   0  0  0  0  0  0  0  0  0  0  0  0
  -26.3007  -11.4794   -9.1167 C   0  0  0  0  0  0  0  0  0  0  0  0
  -26.0046  -10.9384  -10.1790 O   0  0  0  0  0  0  0  0  0  0  0  0
  -27.5282  -12.0683   -8.9216 N   0  0  0  0  0  0  0  0  0  0  0  0
  -27.6951  -12.4825   -8.0141 H   0  0  0  0  0  0  0  0  0  0  0  0
  -28.5472  -12.1407   -9.9478 C   0  0  0  0  0  0  0  0  0  0  0  0
  -29.8415  -11.4603   -9.5016 C   0  0  0  0  0  0  0  0  0  0  0  0
  -29.6235   -9.9713   -9.1877 C   0  0  0  0  0  0  0  0  0  0  0  0
  -29.3213   -9.6810   -7.7765 N   0  0  0  0  0  0  0  0  0  0  0  0
  -30.5063   -9.3562   -6.9498 C   0  0  0  0  0  0  0  0  0  0  0  0
  -31.1284   -7.9811   -7.2474 C   0  0  0  0  0  0  0  0  0  0  0  0
  -30.1618   -6.9325   -7.1157 O   0  0  0  0  0  0  0  0  0  0  0  0
  -29.0354   -7.1666   -7.9689 C   0  0  0  0  0  0  0  0  0  0  0  0
  -28.3838   -8.5320   -7.6735 C   0  0  0  0  0  0  0  0  0  0  0  0
  -27.7862   -8.4430   -3.9646 C   0  0  0  0  0  0  0  0  0  0  0  0
  -26.4246   -8.1402   -4.0648 C   0  0  0  0  0  0  0  0  0  0  0  0
  -25.4628   -9.1352   -3.8346 C   0  0  0  0  0  0  0  0  0  0  0  0
  -25.8578  -10.4396   -3.5183 C   0  0  0  0  0  0  0  0  0  0  0  0
  -27.2167  -10.7517   -3.4620 C   0  0  0  0  0  0  0  0  0  0  0  0
  -28.1644   -9.7455   -3.6403 C   0  0  0  0  0  0  0  0  0  0  0  0
  -29.4680  -10.0572   -3.5617 F   0  0  0  0  0  0  0  0  0  0  0  0
  -29.4757   -5.3104   -4.6946 N   0  0  0  0  0  0  0  0  0  0  0  0
  -28.4059   -6.1481   -4.4283 C   0  0  0  0  0  0  0  0  0  0  0  0
  -27.2300   -5.8278   -4.4219 O   0  0  0  0  0  0  0  0  0  0  0  0
  -28.7960   -7.4742   -4.2434 N   0  0  0  0  0  0  0  0  0  0  0  0
  -30.3716   -5.7427   -4.8473 H   0  0  0  0  0  0  0  0  0  0  0  0
  -29.4825   -7.7837   -4.9181 H   0  0  0  0  0  0  0  0  0  0  0  0
  -27.9506   -1.6834   -7.7337 C   0  0  0  0  0  0  0  0  0  0  0  0
  -28.5974   -2.1260   -6.4515 C   0  0  0  0  0  0  0  0  0  0  0  0
  -29.0230   -1.1664   -5.5307 C   0  0  0  0  0  0  0  0  0  0  0  0
  -29.6471   -1.5563   -4.3590 C   0  0  0  0  0  0  0  0  0  0  0  0
  -29.8396   -2.9110   -4.0833 C   0  0  0  0  0  0  0  0  0  0  0  0
  -30.5743   -3.1837   -3.0003 F   0  0  0  0  0  0  0  0  0  0  0  0
  -29.3751   -3.9098   -4.9525 C   0  0  0  0  0  0  0  0  0  0  0  0
  -28.7754   -3.4983   -6.1599 C   0  0  0  0  0  0  0  0  0  0  0  0
 37 38  1  0  0  0
 38 39  1  0  0  0
 38 44  2  0  0  0
 39 40  2  0  0  0
 40 41  1  0  0  0
 41 42  1  0  0  0
 41 43  2  0  0  0
 43 31  1  0  0  0
 43 44  1  0  0  0
 31 32  1  0  0  0
 31 35  1  0  0  0
 32 33  2  0  0  0
 32 34  1  0  0  0
 34 24  1  0  0  0
 34 36  1  0  0  0
 24 25  1  0  0  0
 24 29  2  0  0  0
 25 26  2  0  0  0
 26 27  1  0  0  0
 27  1  1  0  0  0
 27 28  2  0  0  0
  1  2  1  0  0  0
  2  3  1  0  0  0
  2 10  2  0  0  0
  3  4  2  0  0  0
  4  5  1  0  0  0
  5  6  2  0  0  0
  6  7  1  0  0  0
  6 10  1  0  0  0
  7  8  2  0  0  0
  8 11  1  0  0  0
  8  9  1  0  0  0
 11 12  2  0  0  0
 11 13  1  0  0  0
 13 15  1  0  0  0
 13 14  1  0  0  0
 15 16  1  0  0  0
 16 17  1  0  0  0
 17 18  1  0  0  0
 18 19  1  0  0  0
 18 23  1  0  0  0
 19 20  1  0  0  0
 20 21  1  0  0  0
 21 22  1  0  0  0
 22 23  1  0  0  0
  9 10  1  0  0  0
 28 29  1  0  0  0
 29 30  1  0  0  0
M  END
> <minimizedAffinity>
-8.37511

$$$$
