CHEMBL363389


 31 34  0  0  0  0  0  0  0  0999 V2000
  -16.0721    0.9808  -15.0202 C   0  0  0  0  0  0  0  0  0  0  0  0
  -15.3174   -0.0292  -14.4272 C   0  0  0  0  0  0  0  0  0  0  0  0
  -14.0054    0.1084  -14.7597 O   0  0  0  0  0  0  0  0  0  0  0  0
  -13.8861    1.2242  -15.5182 C   0  0  0  0  0  0  0  0  0  0  0  0
  -12.6938    1.6454  -15.9628 N   0  0  0  0  0  0  0  0  0  0  0  0
  -12.8086    2.7743  -16.6627 C   0  0  0  0  0  0  0  0  0  0  0  0
  -13.9327    3.4547  -16.9424 N   0  0  0  0  0  0  0  0  0  0  0  0
  -15.1154    2.9814  -16.4989 C   0  0  0  0  0  0  0  0  0  0  0  0
  -16.2099    3.7260  -16.8650 N   0  0  0  0  0  0  0  0  0  0  0  0
  -15.1268    1.8123  -15.7212 C   0  0  0  0  0  0  0  0  0  0  0  0
  -15.9962    4.6389  -17.2456 H   0  0  0  0  0  0  0  0  0  0  0  0
  -17.1380    3.5263  -16.5390 H   0  0  0  0  0  0  0  0  0  0  0  0
  -20.3174    1.2990  -14.5393 C   0  0  0  0  0  0  0  0  0  0  0  0
  -19.7617    0.2209  -15.2252 C   0  0  0  0  0  0  0  0  0  0  0  0
  -18.3776    0.1510  -15.4270 C   0  0  0  0  0  0  0  0  0  0  0  0
  -17.5200    1.1089  -14.8758 C   0  0  0  0  0  0  0  0  0  0  0  0
  -18.0890    2.1948  -14.1960 C   0  0  0  0  0  0  0  0  0  0  0  0
  -19.4766    2.3018  -14.0579 C   0  0  0  0  0  0  0  0  0  0  0  0
  -22.4002    0.3400  -13.9244 C   0  0  0  0  0  0  0  0  0  0  0  0
  -21.6468    1.4905  -14.2875 O   0  0  0  0  0  0  0  0  0  0  0  0
  -15.5775   -1.1195  -13.4901 C   0  0  0  0  0  0  0  0  0  0  0  0
  -15.7752   -0.8783  -12.1238 C   0  0  0  0  0  0  0  0  0  0  0  0
  -16.0358   -1.9345  -11.2454 C   0  0  0  0  0  0  0  0  0  0  0  0
  -16.1217   -3.2406  -11.7286 C   0  0  0  0  0  0  0  0  0  0  0  0
  -15.9525   -3.4925  -13.0925 C   0  0  0  0  0  0  0  0  0  0  0  0
  -15.6680   -2.4343  -13.9624 C   0  0  0  0  0  0  0  0  0  0  0  0
  -16.0744   -4.8880  -13.5954 C   0  0  0  0  0  0  0  0  0  0  0  0
  -17.1451   -5.6216  -13.1745 N   0  0  0  0  0  0  0  0  0  0  0  0
  -15.2295   -5.3794  -14.3350 O   0  0  0  0  0  0  0  0  0  0  0  0
  -17.7416   -5.3433  -12.4058 H   0  0  0  0  0  0  0  0  0  0  0  0
  -17.1681   -6.5918  -13.4523 H   0  0  0  0  0  0  0  0  0  0  0  0
 19 20  1  0  0  0
 20 13  1  0  0  0
 13 14  1  0  0  0
 13 18  2  0  0  0
 14 15  2  0  0  0
 15 16  1  0  0  0
 16  1  1  0  0  0
 16 17  2  0  0  0
  1  2  2  0  0  0
  1 10  1  0  0  0
  2 21  1  0  0  0
  2  3  1  0  0  0
 21 22  1  0  0  0
 21 26  2  0  0  0
 22 23  2  0  0  0
 23 24  1  0  0  0
 24 25  2  0  0  0
 25 27  1  0  0  0
 25 26  1  0  0  0
 27 28  1  0  0  0
 27 29  2  0  0  0
 28 30  1  0  0  0
 28 31  1  0  0  0
  3  4  1  0  0  0
  4  5  1  0  0  0
  4 10  2  0  0  0
  5  6  2  0  0  0
  6  7  1  0  0  0
  7  8  2  0  0  0
  8  9  1  0  0  0
  8 10  1  0  0  0
  9 11  1  0  0  0
  9 12  1  0  0  0
 17 18  1  0  0  0
M  END
> <minimizedAffinity>
-7.66847

$$$$
