CHEMBL3589746


 35 38  0  0  0  0  0  0  0  0999 V2000
  -28.4245   -2.0526   -7.4849 C   0  0  0  0  0  0  0  0  0  0  0  0
  -29.1242   -3.2055   -7.7882 C   0  0  0  0  0  0  0  0  0  0  0  0
  -29.7282   -3.9374   -6.7958 C   0  0  0  0  0  0  0  0  0  0  0  0
  -29.4896   -3.6988   -5.4439 C   0  0  0  0  0  0  0  0  0  0  0  0
  -28.7871   -2.5430   -5.1149 C   0  0  0  0  0  0  0  0  0  0  0  0
  -28.2645   -1.7113   -6.1334 C   0  0  0  0  0  0  0  0  0  0  0  0
  -30.0129   -4.6047   -4.4880 N   0  0  0  0  0  0  0  0  0  0  0  0
  -29.3731   -5.7451   -4.4221 C   0  0  0  0  0  0  0  0  0  0  0  0
  -27.8326   -5.9303   -4.4310 C   0  0  0  0  0  0  0  0  0  0  0  0
  -27.0268   -5.2393   -3.8456 O   0  0  0  0  0  0  0  0  0  0  0  0
  -27.5855   -6.9779   -5.2939 N   0  0  0  0  0  0  0  0  0  0  0  0
  -28.7750   -7.4378   -5.8475 C   0  0  0  0  0  0  0  0  0  0  0  0
  -28.9039   -8.0307   -7.0925 C   0  0  0  0  0  0  0  0  0  0  0  0
  -30.1924   -8.0978   -7.6386 C   0  0  0  0  0  0  0  0  0  0  0  0
  -31.3087   -7.6493   -6.9103 C   0  0  0  0  0  0  0  0  0  0  0  0
  -32.5172   -7.6896   -7.4857 F   0  0  0  0  0  0  0  0  0  0  0  0
  -31.1765   -7.0504   -5.6624 C   0  0  0  0  0  0  0  0  0  0  0  0
  -29.8897   -6.9190   -5.1711 C   0  0  0  0  0  0  0  0  0  0  0  0
  -26.6530   -7.1916   -5.6217 H   0  0  0  0  0  0  0  0  0  0  0  0
  -27.0803   -2.9194   -9.8685 O   0  0  0  0  0  0  0  0  0  0  0  0
  -27.2555   -1.7296   -9.6352 C   0  0  0  0  0  0  0  0  0  0  0  0
  -27.9202   -1.2307   -8.5198 N   0  0  0  0  0  0  0  0  0  0  0  0
  -26.8004   -0.7369  -10.4717 N   0  0  0  0  0  0  0  0  0  0  0  0
  -28.2465   -0.2774   -8.5493 H   0  0  0  0  0  0  0  0  0  0  0  0
  -26.7324    0.1889  -10.0821 H   0  0  0  0  0  0  0  0  0  0  0  0
  -26.1744   -0.9749  -11.7158 C   0  0  0  0  0  0  0  0  0  0  0  0
  -26.7871   -1.6473  -12.7810 C   0  0  0  0  0  0  0  0  0  0  0  0
  -26.1123   -1.8654  -13.9798 C   0  0  0  0  0  0  0  0  0  0  0  0
  -24.8221   -1.3880  -14.1442 C   0  0  0  0  0  0  0  0  0  0  0  0
  -24.1934   -0.6770  -13.1016 C   0  0  0  0  0  0  0  0  0  0  0  0
  -24.8793   -0.4851  -11.8879 C   0  0  0  0  0  0  0  0  0  0  0  0
  -22.8003   -0.1307  -13.2548 C   0  0  0  0  0  0  0  0  0  0  0  0
  -22.0610   -0.1998  -12.1186 F   0  0  0  0  0  0  0  0  0  0  0  0
  -22.0998   -0.7892  -14.2117 F   0  0  0  0  0  0  0  0  0  0  0  0
  -22.8049    1.1808  -13.6253 F   0  0  0  0  0  0  0  0  0  0  0  0
 20 21  2  0  0  0
 21 22  1  0  0  0
 21 23  1  0  0  0
 22  1  1  0  0  0
 22 24  1  0  0  0
  1  2  1  0  0  0
  1  6  2  0  0  0
  2  3  2  0  0  0
  3  4  1  0  0  0
  4  7  1  0  0  0
  4  5  2  0  0  0
  7  8  2  0  0  0
  8  9  1  0  0  0
  8 18  1  0  0  0
  9 10  2  0  0  0
  9 11  1  0  0  0
 11 12  1  0  0  0
 11 19  1  0  0  0
 12 13  1  0  0  0
 12 18  2  0  0  0
 13 14  2  0  0  0
 14 15  1  0  0  0
 15 16  1  0  0  0
 15 17  2  0  0  0
 17 18  1  0  0  0
  5  6  1  0  0  0
 23 26  1  0  0  0
 23 25  1  0  0  0
 26 27  1  0  0  0
 26 31  2  0  0  0
 27 28  2  0  0  0
 28 29  1  0  0  0
 29 30  2  0  0  0
 30 32  1  0  0  0
 30 31  1  0  0  0
 32 33  1  0  0  0
 32 34  1  0  0  0
 32 35  1  0  0  0
M  END
> <minimizedAffinity>
-10.84056

$$$$
