CHEMBL3932357


 40 43  0  0  0  0  0  0  0  0999 V2000
  -25.2322   -1.8643  -11.7980 C   0  0  0  0  0  0  0  0  0  0  0  0
  -23.9361   -1.5899  -11.3507 C   0  0  0  0  0  0  0  0  0  0  0  0
  -22.9622   -1.0906  -12.2195 C   0  0  0  0  0  0  0  0  0  0  0  0
  -23.2492   -0.9198  -13.5739 C   0  0  0  0  0  0  0  0  0  0  0  0
  -24.5634   -1.1052  -14.0016 C   0  0  0  0  0  0  0  0  0  0  0  0
  -24.8943   -0.8791  -15.2818 F   0  0  0  0  0  0  0  0  0  0  0  0
  -25.5553   -1.5613  -13.1241 C   0  0  0  0  0  0  0  0  0  0  0  0
  -27.6825   -2.6766   -9.2003 N   0  0  0  0  0  0  0  0  0  0  0  0
  -26.7058   -1.8864   -9.7907 C   0  0  0  0  0  0  0  0  0  0  0  0
  -26.2949   -0.8306   -9.3234 O   0  0  0  0  0  0  0  0  0  0  0  0
  -26.2274   -2.4454  -10.9708 N   0  0  0  0  0  0  0  0  0  0  0  0
  -28.0329   -3.4514   -9.7417 H   0  0  0  0  0  0  0  0  0  0  0  0
  -26.4260   -3.4230  -11.1208 H   0  0  0  0  0  0  0  0  0  0  0  0
  -30.4335   -4.1187   -5.4028 N   0  0  0  0  0  0  0  0  0  0  0  0
  -29.6148   -3.1562   -6.0056 C   0  0  0  0  0  0  0  0  0  0  0  0
  -29.0299   -3.4176   -7.2484 C   0  0  0  0  0  0  0  0  0  0  0  0
  -28.3088   -2.4429   -7.9480 C   0  0  0  0  0  0  0  0  0  0  0  0
  -28.2189   -1.1579   -7.3961 C   0  0  0  0  0  0  0  0  0  0  0  0
  -28.8604   -0.8529   -6.1782 C   0  0  0  0  0  0  0  0  0  0  0  0
  -29.5678   -1.8577   -5.5037 C   0  0  0  0  0  0  0  0  0  0  0  0
  -30.1978   -5.0734   -5.6549 H   0  0  0  0  0  0  0  0  0  0  0  0
  -30.5446   -4.0038   -4.4007 H   0  0  0  0  0  0  0  0  0  0  0  0
  -28.8148    0.5336   -5.5883 C   0  0  0  0  0  0  0  0  0  0  0  0
  -27.9170    0.6646   -4.5718 F   0  0  0  0  0  0  0  0  0  0  0  0
  -28.4770    1.4793   -6.5076 F   0  0  0  0  0  0  0  0  0  0  0  0
  -30.0156    0.9224   -5.0766 F   0  0  0  0  0  0  0  0  0  0  0  0
  -22.2944   -0.5641  -14.5076 O   0  0  0  0  0  0  0  0  0  0  0  0
  -21.7743    0.7167  -14.4512 C   0  0  0  0  0  0  0  0  0  0  0  0
  -22.4714    1.8009  -13.9260 C   0  0  0  0  0  0  0  0  0  0  0  0
  -21.9076    3.0499  -14.0460 C   0  0  0  0  0  0  0  0  0  0  0  0
  -20.6901    3.2596  -14.5716 N   0  0  0  0  0  0  0  0  0  0  0  0
  -19.9750    2.2043  -14.9946 C   0  0  0  0  0  0  0  0  0  0  0  0
  -20.4826    0.9085  -14.9526 C   0  0  0  0  0  0  0  0  0  0  0  0
  -18.6890    2.4139  -15.5189 N   0  0  0  0  0  0  0  0  0  0  0  0
  -17.5226    2.0720  -14.8631 C   0  0  0  0  0  0  0  0  0  0  0  0
  -17.4017    1.5250  -13.7772 O   0  0  0  0  0  0  0  0  0  0  0  0
  -18.6212    2.8547  -16.4219 H   0  0  0  0  0  0  0  0  0  0  0  0
  -16.2852    2.4770  -15.6033 C   0  0  0  0  0  0  0  0  0  0  0  0
  -15.5518    1.4776  -16.4745 C   0  0  0  0  0  0  0  0  0  0  0  0
  -14.9592    1.8964  -15.1621 C   0  0  0  0  0  0  0  0  0  0  0  0
 14 15  1  0  0  0
 14 21  1  0  0  0
 14 22  1  0  0  0
 15 16  1  0  0  0
 15 20  2  0  0  0
 16 17  2  0  0  0
 17  8  1  0  0  0
 17 18  1  0  0  0
  8  9  1  0  0  0
  8 12  1  0  0  0
  9 10  2  0  0  0
  9 11  1  0  0  0
 11  1  1  0  0  0
 11 13  1  0  0  0
  1  2  1  0  0  0
  1  7  2  0  0  0
  2  3  2  0  0  0
  3  4  1  0  0  0
  4 27  1  0  0  0
  4  5  2  0  0  0
 27 28  1  0  0  0
 28 29  1  0  0  0
 28 33  2  0  0  0
 29 30  2  0  0  0
 30 31  1  0  0  0
 31 32  2  0  0  0
 32 34  1  0  0  0
 32 33  1  0  0  0
 34 35  1  0  0  0
 34 37  1  0  0  0
 35 36  2  0  0  0
 35 38  1  0  0  0
 38 39  1  0  0  0
 38 40  1  0  0  0
 39 40  1  0  0  0
  5  6  1  0  0  0
  5  7  1  0  0  0
 18 19  2  0  0  0
 19 23  1  0  0  0
 19 20  1  0  0  0
 23 24  1  0  0  0
 23 25  1  0  0  0
 23 26  1  0  0  0
M  END
> <minimizedAffinity>
-11.94339

$$$$
