CHEMBL171745


 33 37  0  0  0  0  0  0  0  0999 V2000
  -28.6377   -8.7822   -7.8415 C   0  0  0  0  0  0  0  0  0  0  0  0
  -29.0850   -7.5424   -7.3902 C   0  0  0  0  0  0  0  0  0  0  0  0
  -29.3241   -7.2996   -6.0227 C   0  0  0  0  0  0  0  0  0  0  0  0
  -29.8296   -6.0915   -5.5294 C   0  0  0  0  0  0  0  0  0  0  0  0
  -29.9333   -5.8541   -4.2101 N   0  0  0  0  0  0  0  0  0  0  0  0
  -29.5723   -6.8422   -3.3906 C   0  0  0  0  0  0  0  0  0  0  0  0
  -29.1410   -8.0542   -3.7569 N   0  0  0  0  0  0  0  0  0  0  0  0
  -29.0163   -8.2735   -5.0729 C   0  0  0  0  0  0  0  0  0  0  0  0
  -28.5474   -9.4994   -5.5282 C   0  0  0  0  0  0  0  0  0  0  0  0
  -28.3571   -9.7777   -6.8964 C   0  0  0  0  0  0  0  0  0  0  0  0
  -29.4087   -9.7935   -9.8898 C   0  0  0  0  0  0  0  0  0  0  0  0
  -28.4410   -9.0471   -9.1644 O   0  0  0  0  0  0  0  0  0  0  0  0
  -30.2911   -5.1058   -6.4466 N   0  0  0  0  0  0  0  0  0  0  0  0
  -31.2327   -4.8163   -6.1871 H   0  0  0  0  0  0  0  0  0  0  0  0
  -29.5157   -3.9922   -6.8286 C   0  0  0  0  0  0  0  0  0  0  0  0
  -28.8380   -3.9761   -8.0612 C   0  0  0  0  0  0  0  0  0  0  0  0
  -28.0107   -2.9198   -8.4402 C   0  0  0  0  0  0  0  0  0  0  0  0
  -27.8401   -1.8141   -7.5994 C   0  0  0  0  0  0  0  0  0  0  0  0
  -28.5458   -1.7683   -6.3846 C   0  0  0  0  0  0  0  0  0  0  0  0
  -28.6413   -0.8494   -5.3079 C   0  0  0  0  0  0  0  0  0  0  0  0
  -29.5197   -1.3988   -4.4031 C   0  0  0  0  0  0  0  0  0  0  0  0
  -29.9623   -2.6100   -4.8370 O   0  0  0  0  0  0  0  0  0  0  0  0
  -29.3645   -2.8415   -6.0453 C   0  0  0  0  0  0  0  0  0  0  0  0
  -27.8943  -11.0551   -7.1190 O   0  0  0  0  0  0  0  0  0  0  0  0
  -26.6272  -11.4062   -6.5647 C   0  0  0  0  0  0  0  0  0  0  0  0
  -25.5015  -10.7459   -7.3523 C   0  0  0  0  0  0  0  0  0  0  0  0
  -24.1511  -11.4338   -7.1252 C   0  0  0  0  0  0  0  0  0  0  0  0
  -23.1037  -10.4937   -6.6854 N   0  0  0  0  0  0  0  0  0  0  0  0
  -21.8057  -11.1880   -6.5089 C   0  0  0  0  0  0  0  0  0  0  0  0
  -21.7106  -12.0469   -5.2323 C   0  0  0  0  0  0  0  0  0  0  0  0
  -22.0627  -11.3077   -4.0554 O   0  0  0  0  0  0  0  0  0  0  0  0
  -23.3644  -10.7241   -4.1902 C   0  0  0  0  0  0  0  0  0  0  0  0
  -23.4167   -9.8014   -5.4156 C   0  0  0  0  0  0  0  0  0  0  0  0
 11 12  1  0  0  0
 12  1  1  0  0  0
  1  2  1  0  0  0
  1 10  2  0  0  0
  2  3  2  0  0  0
  3  4  1  0  0  0
  3  8  1  0  0  0
  4 13  1  0  0  0
  4  5  2  0  0  0
 13 15  1  0  0  0
 13 14  1  0  0  0
 15 16  1  0  0  0
 15 23  2  0  0  0
 16 17  2  0  0  0
 17 18  1  0  0  0
 18 19  2  0  0  0
 19 20  1  0  0  0
 19 23  1  0  0  0
 20 21  2  0  0  0
 21 22  1  0  0  0
 22 23  1  0  0  0
  5  6  1  0  0  0
  6  7  2  0  0  0
  7  8  1  0  0  0
  8  9  2  0  0  0
  9 10  1  0  0  0
 10 24  1  0  0  0
 24 25  1  0  0  0
 25 26  1  0  0  0
 26 27  1  0  0  0
 27 28  1  0  0  0
 28 29  1  0  0  0
 28 33  1  0  0  0
 29 30  1  0  0  0
 30 31  1  0  0  0
 31 32  1  0  0  0
 32 33  1  0  0  0
M  END
> <minimizedAffinity>
-7.89634

$$$$
