CHEMBL1976376


 33 37  0  0  0  0  0  0  0  0999 V2000
  -16.4884    4.8344  -15.9429 N   0  0  0  0  0  0  0  0  0  0  0  0
  -15.3980    3.9752  -15.8872 C   0  0  0  0  0  0  0  0  0  0  0  0
  -14.2180    4.5188  -16.2486 N   0  0  0  0  0  0  0  0  0  0  0  0
  -13.1184    3.7508  -16.1949 C   0  0  0  0  0  0  0  0  0  0  0  0
  -13.0261    2.4714  -15.8109 N   0  0  0  0  0  0  0  0  0  0  0  0
  -14.2176    1.9595  -15.4581 C   0  0  0  0  0  0  0  0  0  0  0  0
  -15.4407    2.6289  -15.4701 C   0  0  0  0  0  0  0  0  0  0  0  0
  -16.4304    1.6764  -15.0398 C   0  0  0  0  0  0  0  0  0  0  0  0
  -15.7591    0.5003  -14.7549 C   0  0  0  0  0  0  0  0  0  0  0  0
  -14.4314    0.6661  -15.0450 N   0  0  0  0  0  0  0  0  0  0  0  0
  -16.1770    5.7922  -16.0545 H   0  0  0  0  0  0  0  0  0  0  0  0
  -17.1702    4.6785  -15.2110 H   0  0  0  0  0  0  0  0  0  0  0  0
  -17.8822    1.7696  -14.9396 C   0  0  0  0  0  0  0  0  0  0  0  0
  -18.6768    0.6707  -15.2692 C   0  0  0  0  0  0  0  0  0  0  0  0
  -20.0636    0.7411  -15.1954 C   0  0  0  0  0  0  0  0  0  0  0  0
  -20.6751    1.8543  -14.6198 C   0  0  0  0  0  0  0  0  0  0  0  0
  -19.9032    2.9667  -14.2924 C   0  0  0  0  0  0  0  0  0  0  0  0
  -18.5151    2.9318  -14.4710 C   0  0  0  0  0  0  0  0  0  0  0  0
  -22.0224    1.9246  -14.3366 O   0  0  0  0  0  0  0  0  0  0  0  0
  -22.6418    0.8110  -13.8062 C   0  0  0  0  0  0  0  0  0  0  0  0
  -23.6121    0.0610  -14.4808 C   0  0  0  0  0  0  0  0  0  0  0  0
  -24.2992   -0.9568  -13.8201 C   0  0  0  0  0  0  0  0  0  0  0  0
  -23.9664   -1.2919  -12.5035 C   0  0  0  0  0  0  0  0  0  0  0  0
  -22.9090   -0.6152  -11.8759 C   0  0  0  0  0  0  0  0  0  0  0  0
  -22.2538    0.4362  -12.5219 C   0  0  0  0  0  0  0  0  0  0  0  0
  -24.7455   -2.3439  -11.7632 C   0  0  0  0  0  0  0  0  0  0  0  0
  -25.2211   -1.8342  -10.5276 O   0  0  0  0  0  0  0  0  0  0  0  0
  -24.4836   -1.3459  -10.1234 H   0  0  0  0  0  0  0  0  0  0  0  0
  -13.3957   -0.3653  -14.9726 C   0  0  0  0  0  0  0  0  0  0  0  0
  -13.9557   -1.7558  -14.7467 C   0  0  0  0  0  0  0  0  0  0  0  0
  -13.8929   -1.9321  -13.2434 C   0  0  0  0  0  0  0  0  0  0  0  0
  -12.8715   -1.0606  -12.7455 O   0  0  0  0  0  0  0  0  0  0  0  0
  -12.4421   -0.1874  -13.8036 C   0  0  0  0  0  0  0  0  0  0  0  0
  1  2  1  0  0  0
  1 11  1  0  0  0
  1 12  1  0  0  0
  2  3  1  0  0  0
  2  7  2  0  0  0
  3  4  2  0  0  0
  4  5  1  0  0  0
  5  6  2  0  0  0
  6  7  1  0  0  0
  6 10  1  0  0  0
  7  8  1  0  0  0
  8 13  1  0  0  0
  8  9  2  0  0  0
 13 14  1  0  0  0
 13 18  2  0  0  0
 14 15  2  0  0  0
 15 16  1  0  0  0
 16 19  1  0  0  0
 16 17  2  0  0  0
 19 20  1  0  0  0
 20 21  1  0  0  0
 20 25  2  0  0  0
 21 22  2  0  0  0
 22 23  1  0  0  0
 23 26  1  0  0  0
 23 24  2  0  0  0
 26 27  1  0  0  0
 27 28  1  0  0  0
 24 25  1  0  0  0
 17 18  1  0  0  0
  9 10  1  0  0  0
 10 29  1  0  0  0
 29 30  1  0  0  0
 29 33  1  0  0  0
 30 31  1  0  0  0
 31 32  1  0  0  0
 32 33  1  0  0  0
M  END
> <minimizedAffinity>
-9.40305

$$$$
