CHEMBL4069672


 30 34  0  0  0  0  0  0  0  0999 V2000
  -14.4528   -1.7346  -13.4085 C   0  0  0  0  0  0  0  0  0  0  0  0
  -14.8702   -1.8952  -12.1142 N   0  0  0  0  0  0  0  0  0  0  0  0
  -15.1977   -3.1157  -11.5880 C   0  0  0  0  0  0  0  0  0  0  0  0
  -15.6404   -3.2138  -10.1633 C   0  0  0  0  0  0  0  0  0  0  0  0
  -15.1252   -4.2390  -12.3629 N   0  0  0  0  0  0  0  0  0  0  0  0
  -14.6963   -4.1065  -13.6417 C   0  0  0  0  0  0  0  0  0  0  0  0
  -14.5023   -5.0696  -14.6071 C   0  0  0  0  0  0  0  0  0  0  0  0
  -14.0060   -4.3940  -15.7129 C   0  0  0  0  0  0  0  0  0  0  0  0
  -13.9110   -3.0731  -15.4497 N   0  0  0  0  0  0  0  0  0  0  0  0
  -14.3488   -2.9014  -14.1832 C   0  0  0  0  0  0  0  0  0  0  0  0
  -13.5456   -2.3659  -16.1217 H   0  0  0  0  0  0  0  0  0  0  0  0
  -17.2759    2.0475  -15.5303 C   0  0  0  0  0  0  0  0  0  0  0  0
  -17.5862    1.0324  -14.6094 C   0  0  0  0  0  0  0  0  0  0  0  0
  -16.5874    0.2133  -14.0960 C   0  0  0  0  0  0  0  0  0  0  0  0
  -15.2420    0.3859  -14.4823 C   0  0  0  0  0  0  0  0  0  0  0  0
  -14.9265    1.4021  -15.4169 C   0  0  0  0  0  0  0  0  0  0  0  0
  -15.9440    2.2242  -15.9261 C   0  0  0  0  0  0  0  0  0  0  0  0
  -13.4993    1.6329  -15.8648 C   0  0  0  0  0  0  0  0  0  0  0  0
  -12.5553    0.5048  -15.4392 C   0  0  0  0  0  0  0  0  0  0  0  0
  -12.8281    0.1005  -14.0017 C   0  0  0  0  0  0  0  0  0  0  0  0
  -14.1921   -0.4135  -13.9110 N   0  0  0  0  0  0  0  0  0  0  0  0
  -19.3561    3.2967  -15.3739 C   0  0  0  0  0  0  0  0  0  0  0  0
  -18.2242    2.8734  -16.0434 O   0  0  0  0  0  0  0  0  0  0  0  0
  -14.7580   -6.5414  -14.5226 C   0  0  0  0  0  0  0  0  0  0  0  0
  -13.7538   -7.1963  -13.6106 C   0  0  0  0  0  0  0  0  0  0  0  0
  -14.1826   -8.1208  -12.6380 C   0  0  0  0  0  0  0  0  0  0  0  0
  -13.2576   -8.7414  -11.7952 C   0  0  0  0  0  0  0  0  0  0  0  0
  -11.8972   -8.4496  -11.9172 C   0  0  0  0  0  0  0  0  0  0  0  0
  -11.4618   -7.5365  -12.8821 C   0  0  0  0  0  0  0  0  0  0  0  0
  -12.3849   -6.9102  -13.7268 C   0  0  0  0  0  0  0  0  0  0  0  0
 22 23  1  0  0  0
 23 12  1  0  0  0
 12 13  1  0  0  0
 12 17  2  0  0  0
 13 14  2  0  0  0
 14 15  1  0  0  0
 15 16  2  0  0  0
 15 21  1  0  0  0
 16 17  1  0  0  0
 16 18  1  0  0  0
 18 19  1  0  0  0
 19 20  1  0  0  0
 20 21  1  0  0  0
 21  1  1  0  0  0
  1  2  1  0  0  0
  1 10  2  0  0  0
  2  3  2  0  0  0
  3  4  1  0  0  0
  3  5  1  0  0  0
  5  6  2  0  0  0
  6  7  1  0  0  0
  6 10  1  0  0  0
  7 24  1  0  0  0
  7  8  2  0  0  0
 24 25  1  0  0  0
 25 26  1  0  0  0
 25 30  2  0  0  0
 26 27  2  0  0  0
 27 28  1  0  0  0
 28 29  2  0  0  0
 29 30  1  0  0  0
  8  9  1  0  0  0
  9 10  1  0  0  0
  9 11  1  0  0  0
M  END
> <minimizedAffinity>
-7.73362

$$$$
