CHEMBL3690386


 33 36  0  0  0  0  0  0  0  0999 V2000
  -23.6178    0.2527  -13.7056 C   0  0  0  0  0  0  0  0  0  0  0  0
  -24.1134   -0.4462  -14.8018 C   0  0  0  0  0  0  0  0  0  0  0  0
  -24.9692   -1.4843  -14.7150 N   0  0  0  0  0  0  0  0  0  0  0  0
  -25.3515   -1.8579  -13.4687 C   0  0  0  0  0  0  0  0  0  0  0  0
  -24.9095   -1.2558  -12.2927 C   0  0  0  0  0  0  0  0  0  0  0  0
  -24.0386   -0.1722  -12.4331 C   0  0  0  0  0  0  0  0  0  0  0  0
  -18.8722    1.9729  -15.1917 C   0  0  0  0  0  0  0  0  0  0  0  0
  -19.4379    0.6223  -15.3208 C   0  0  0  0  0  0  0  0  0  0  0  0
  -20.7026    0.3825  -14.9456 C   0  0  0  0  0  0  0  0  0  0  0  0
  -21.4668    1.4142  -14.4037 N   0  0  0  0  0  0  0  0  0  0  0  0
  -22.7579    1.4179  -13.9008 C   0  0  0  0  0  0  0  0  0  0  0  0
  -23.0107    2.7562  -13.6351 C   0  0  0  0  0  0  0  0  0  0  0  0
  -21.9127    3.5404  -13.8573 N   0  0  0  0  0  0  0  0  0  0  0  0
  -20.9865    2.7138  -14.2857 C   0  0  0  0  0  0  0  0  0  0  0  0
  -19.6381    2.9588  -14.6649 C   0  0  0  0  0  0  0  0  0  0  0  0
  -13.6155    2.7275  -17.2513 C   0  0  0  0  0  0  0  0  0  0  0  0
  -14.9774    2.6123  -16.6489 C   0  0  0  0  0  0  0  0  0  0  0  0
  -15.7666    3.7284  -16.4311 C   0  0  0  0  0  0  0  0  0  0  0  0
  -17.0494    3.5549  -15.9221 C   0  0  0  0  0  0  0  0  0  0  0  0
  -17.4919    2.2667  -15.6426 C   0  0  0  0  0  0  0  0  0  0  0  0
  -16.6926    1.2008  -15.8669 N   0  0  0  0  0  0  0  0  0  0  0  0
  -15.4298    1.3715  -16.3721 N   0  0  0  0  0  0  0  0  0  0  0  0
  -25.2984   -1.6538  -10.9889 N   0  0  0  0  0  0  0  0  0  0  0  0
  -26.5902   -1.7049  -10.5280 C   0  0  0  0  0  0  0  0  0  0  0  0
  -27.6018   -1.4635  -11.1784 O   0  0  0  0  0  0  0  0  0  0  0  0
  -26.6782   -1.9990   -9.1887 N   0  0  0  0  0  0  0  0  0  0  0  0
  -24.5630   -1.8942  -10.3394 H   0  0  0  0  0  0  0  0  0  0  0  0
  -25.9371   -2.5338   -8.7614 H   0  0  0  0  0  0  0  0  0  0  0  0
  -28.0153   -2.0643   -8.5825 C   0  0  0  0  0  0  0  0  0  0  0  0
  -28.4533   -3.4296   -8.0289 C   0  0  0  0  0  0  0  0  0  0  0  0
  -29.7273   -3.7360   -8.3632 F   0  0  0  0  0  0  0  0  0  0  0  0
  -27.6671   -4.4070   -8.5481 F   0  0  0  0  0  0  0  0  0  0  0  0
  -28.3403   -3.4993   -6.6862 F   0  0  0  0  0  0  0  0  0  0  0  0
 16 17  1  0  0  0
 17 18  1  0  0  0
 17 22  2  0  0  0
 18 19  2  0  0  0
 19 20  1  0  0  0
 20  7  1  0  0  0
 20 21  2  0  0  0
  7  8  1  0  0  0
  7 15  2  0  0  0
  8  9  2  0  0  0
  9 10  1  0  0  0
 10 11  1  0  0  0
 10 14  1  0  0  0
 11  1  1  0  0  0
 11 12  2  0  0  0
  1  2  1  0  0  0
  1  6  2  0  0  0
  2  3  2  0  0  0
  3  4  1  0  0  0
  4  5  2  0  0  0
  5 23  1  0  0  0
  5  6  1  0  0  0
 23 24  1  0  0  0
 23 27  1  0  0  0
 24 25  2  0  0  0
 24 26  1  0  0  0
 26 29  1  0  0  0
 26 28  1  0  0  0
 29 30  1  0  0  0
 30 31  1  0  0  0
 30 32  1  0  0  0
 30 33  1  0  0  0
 12 13  1  0  0  0
 13 14  2  0  0  0
 14 15  1  0  0  0
 21 22  1  0  0  0
M  END
> <minimizedAffinity>
-10.18146

$$$$
