CHEMBL186412


 30 32  0  0  0  0  0  0  0  0999 V2000
  -16.3117    0.7280  -14.8090 C   0  0  0  0  0  0  0  0  0  0  0  0
  -15.7340    1.6191  -15.6994 C   0  0  0  0  0  0  0  0  0  0  0  0
  -16.4190    2.6234  -16.2964 N   0  0  0  0  0  0  0  0  0  0  0  0
  -17.7286    2.7485  -15.9653 C   0  0  0  0  0  0  0  0  0  0  0  0
  -18.4167    1.9129  -15.0818 C   0  0  0  0  0  0  0  0  0  0  0  0
  -17.6644    0.8800  -14.5012 C   0  0  0  0  0  0  0  0  0  0  0  0
  -19.8308    2.1088  -14.7363 C   0  0  0  0  0  0  0  0  0  0  0  0
  -20.5535    3.2600  -15.0332 C   0  0  0  0  0  0  0  0  0  0  0  0
  -21.8518    3.4275  -14.6907 N   0  0  0  0  0  0  0  0  0  0  0  0
  -22.4051    2.3863  -14.0216 C   0  0  0  0  0  0  0  0  0  0  0  0
  -21.7208    1.2152  -13.7080 C   0  0  0  0  0  0  0  0  0  0  0  0
  -20.4261    1.0781  -14.0780 N   0  0  0  0  0  0  0  0  0  0  0  0
  -22.3567    0.2168  -12.9435 N   0  0  0  0  0  0  0  0  0  0  0  0
  -22.0753    0.2177  -11.9718 H   0  0  0  0  0  0  0  0  0  0  0  0
  -23.6127   -0.3622  -13.2058 C   0  0  0  0  0  0  0  0  0  0  0  0
  -23.9598   -0.7676  -14.5027 C   0  0  0  0  0  0  0  0  0  0  0  0
  -25.1949   -1.3584  -14.7739 C   0  0  0  0  0  0  0  0  0  0  0  0
  -26.1158   -1.5330  -13.7452 C   0  0  0  0  0  0  0  0  0  0  0  0
  -25.7926   -1.1125  -12.4565 C   0  0  0  0  0  0  0  0  0  0  0  0
  -26.9469   -1.2988  -11.1920 Cl  0  0  0  0  0  0  0  0  0  0  0  0
  -24.5496   -0.5365  -12.1800 C   0  0  0  0  0  0  0  0  0  0  0  0
  -14.4549   -0.6921  -14.7494 O   0  0  0  0  0  0  0  0  0  0  0  0
  -15.4752   -0.3191  -14.1897 C   0  0  0  0  0  0  0  0  0  0  0  0
  -15.9411   -0.8538  -13.0052 N   0  0  0  0  0  0  0  0  0  0  0  0
  -16.8700   -0.6145  -12.6754 H   0  0  0  0  0  0  0  0  0  0  0  0
  -15.2548   -1.9427  -12.3425 C   0  0  0  0  0  0  0  0  0  0  0  0
  -15.9968   -3.2706  -12.4621 C   0  0  0  0  0  0  0  0  0  0  0  0
  -15.8254   -4.1776  -11.2502 C   0  0  0  0  0  0  0  0  0  0  0  0
  -16.8356   -5.1777  -11.2591 O   0  0  0  0  0  0  0  0  0  0  0  0
  -17.6789   -4.7352  -11.0615 H   0  0  0  0  0  0  0  0  0  0  0  0
 22 23  2  0  0  0
 23 24  1  0  0  0
 23  1  1  0  0  0
 24 26  1  0  0  0
 24 25  1  0  0  0
 26 27  1  0  0  0
 27 28  1  0  0  0
 28 29  1  0  0  0
 29 30  1  0  0  0
  1  2  1  0  0  0
  1  6  2  0  0  0
  2  3  2  0  0  0
  3  4  1  0  0  0
  4  5  2  0  0  0
  5  7  1  0  0  0
  5  6  1  0  0  0
  7  8  1  0  0  0
  7 12  2  0  0  0
  8  9  2  0  0  0
  9 10  1  0  0  0
 10 11  2  0  0  0
 11 13  1  0  0  0
 11 12  1  0  0  0
 13 15  1  0  0  0
 13 14  1  0  0  0
 15 16  1  0  0  0
 15 21  2  0  0  0
 16 17  2  0  0  0
 17 18  1  0  0  0
 18 19  2  0  0  0
 19 20  1  0  0  0
 19 21  1  0  0  0
M  END
> <minimizedAffinity>
-8.82876

$$$$
