CHEMBL469467


 37 41  0  0  0  0  0  0  0  0999 V2000
  -12.6432    0.9684  -14.6544 C   0  0  0  0  0  0  0  0  0  0  0  0
  -12.9706    2.1822  -14.0372 C   0  0  0  0  0  0  0  0  0  0  0  0
  -13.1737    3.3386  -14.7981 C   0  0  0  0  0  0  0  0  0  0  0  0
  -13.0671    3.2910  -16.1906 C   0  0  0  0  0  0  0  0  0  0  0  0
  -12.6926    2.0866  -16.8037 C   0  0  0  0  0  0  0  0  0  0  0  0
  -12.4577    0.9346  -16.0372 C   0  0  0  0  0  0  0  0  0  0  0  0
  -13.3769    4.4796  -16.9974 C   0  0  0  0  0  0  0  0  0  0  0  0
  -14.7233    4.6265  -17.6391 C   0  0  0  0  0  0  0  0  0  0  0  0
  -15.1428    5.6072  -18.3803 N   0  0  0  0  0  0  0  0  0  0  0  0
  -14.2443    6.6211  -18.5960 C   0  0  0  0  0  0  0  0  0  0  0  0
  -14.3216    7.8034  -19.3086 C   0  0  0  0  0  0  0  0  0  0  0  0
  -13.0455    8.3869  -19.1582 C   0  0  0  0  0  0  0  0  0  0  0  0
  -12.2138    7.6660  -18.4066 N   0  0  0  0  0  0  0  0  0  0  0  0
  -12.9615    6.5840  -18.0278 N   0  0  0  0  0  0  0  0  0  0  0  0
  -12.5290    5.5101  -17.2054 C   0  0  0  0  0  0  0  0  0  0  0  0
  -11.2364    5.5978  -16.6826 N   0  0  0  0  0  0  0  0  0  0  0  0
  -10.6680    6.2649  -17.2109 H   0  0  0  0  0  0  0  0  0  0  0  0
  -10.7869    4.7022  -16.5199 H   0  0  0  0  0  0  0  0  0  0  0  0
  -15.4754    8.3020  -20.0522 C   0  0  0  0  0  0  0  0  0  0  0  0
  -16.0042    9.5688  -19.7565 C   0  0  0  0  0  0  0  0  0  0  0  0
  -17.0789   10.0867  -20.4864 C   0  0  0  0  0  0  0  0  0  0  0  0
  -17.6403    9.3443  -21.5210 C   0  0  0  0  0  0  0  0  0  0  0  0
  -17.1325    8.0830  -21.8221 C   0  0  0  0  0  0  0  0  0  0  0  0
  -16.0578    7.5651  -21.0919 C   0  0  0  0  0  0  0  0  0  0  0  0
  -13.5482   -2.1211  -12.9618 N   0  0  0  0  0  0  0  0  0  0  0  0
  -13.7539   -0.9434  -13.6691 C   0  0  0  0  0  0  0  0  0  0  0  0
  -14.8345   -0.5602  -14.1046 O   0  0  0  0  0  0  0  0  0  0  0  0
  -12.5730   -0.2384  -13.9046 N   0  0  0  0  0  0  0  0  0  0  0  0
  -12.6434   -2.2449  -12.5317 H   0  0  0  0  0  0  0  0  0  0  0  0
  -11.7753   -0.8297  -14.0887 H   0  0  0  0  0  0  0  0  0  0  0  0
  -15.7157   -6.4821  -14.0164 C   0  0  0  0  0  0  0  0  0  0  0  0
  -15.6155   -5.2348  -13.1855 C   0  0  0  0  0  0  0  0  0  0  0  0
  -16.5105   -5.0463  -12.1276 C   0  0  0  0  0  0  0  0  0  0  0  0
  -16.4340   -3.9016  -11.3485 C   0  0  0  0  0  0  0  0  0  0  0  0
  -15.4652   -2.9355  -11.6182 C   0  0  0  0  0  0  0  0  0  0  0  0
  -14.5473   -3.0900  -12.6627 C   0  0  0  0  0  0  0  0  0  0  0  0
  -14.6344   -4.2526  -13.4481 C   0  0  0  0  0  0  0  0  0  0  0  0
 31 32  1  0  0  0
 32 33  1  0  0  0
 32 37  2  0  0  0
 33 34  2  0  0  0
 34 35  1  0  0  0
 35 36  2  0  0  0
 36 25  1  0  0  0
 36 37  1  0  0  0
 25 26  1  0  0  0
 25 29  1  0  0  0
 26 27  2  0  0  0
 26 28  1  0  0  0
 28  1  1  0  0  0
 28 30  1  0  0  0
  1  2  1  0  0  0
  1  6  2  0  0  0
  2  3  2  0  0  0
  3  4  1  0  0  0
  4  7  1  0  0  0
  4  5  2  0  0  0
  7  8  1  0  0  0
  7 15  2  0  0  0
  8  9  2  0  0  0
  9 10  1  0  0  0
 10 11  2  0  0  0
 10 14  1  0  0  0
 11 19  1  0  0  0
 11 12  1  0  0  0
 19 20  1  0  0  0
 19 24  2  0  0  0
 20 21  2  0  0  0
 21 22  1  0  0  0
 22 23  2  0  0  0
 23 24  1  0  0  0
 12 13  2  0  0  0
 13 14  1  0  0  0
 14 15  1  0  0  0
 15 16  1  0  0  0
 16 17  1  0  0  0
 16 18  1  0  0  0
  5  6  1  0  0  0
M  END
> <minimizedAffinity>
-7.51333

$$$$
