CHEMBL408070


 46 50  0  0  0  0  0  0  0  0999 V2000
  -21.6058    0.5134  -14.1253 C   0  0  0  0  0  0  0  0  0  0  0  0
  -22.1036   -0.1308  -15.0421 O   0  0  0  0  0  0  0  0  0  0  0  0
  -22.0660    0.5097  -12.8212 N   0  0  0  0  0  0  0  0  0  0  0  0
  -21.7006    1.2111  -12.1924 H   0  0  0  0  0  0  0  0  0  0  0  0
  -21.8510    3.6083  -14.5966 C   0  0  0  0  0  0  0  0  0  0  0  0
  -20.5648    2.8315  -14.6475 C   0  0  0  0  0  0  0  0  0  0  0  0
  -19.3777    3.5597  -14.8938 C   0  0  0  0  0  0  0  0  0  0  0  0
  -18.1237    2.9415  -14.9338 C   0  0  0  0  0  0  0  0  0  0  0  0
  -18.0328    1.5664  -14.7382 C   0  0  0  0  0  0  0  0  0  0  0  0
  -19.2028    0.8266  -14.5051 C   0  0  0  0  0  0  0  0  0  0  0  0
  -20.4707    1.4382  -14.4572 C   0  0  0  0  0  0  0  0  0  0  0  0
  -16.7467    0.8224  -14.8422 C   0  0  0  0  0  0  0  0  0  0  0  0
  -16.2031    0.8218  -15.9417 O   0  0  0  0  0  0  0  0  0  0  0  0
  -16.3017    0.1631  -13.7093 N   0  0  0  0  0  0  0  0  0  0  0  0
  -16.9387    0.0822  -12.9283 H   0  0  0  0  0  0  0  0  0  0  0  0
  -15.1160   -0.6190  -13.6382 C   0  0  0  0  0  0  0  0  0  0  0  0
  -13.8349   -0.0595  -13.6712 C   0  0  0  0  0  0  0  0  0  0  0  0
  -12.6949   -0.8652  -13.6739 C   0  0  0  0  0  0  0  0  0  0  0  0
  -12.8203   -2.2492  -13.6445 C   0  0  0  0  0  0  0  0  0  0  0  0
  -14.0897   -2.8400  -13.5892 C   0  0  0  0  0  0  0  0  0  0  0  0
  -15.2335   -2.0128  -13.5587 C   0  0  0  0  0  0  0  0  0  0  0  0
  -14.2324   -4.3416  -13.5997 C   0  0  0  0  0  0  0  0  0  0  0  0
  -14.1653   -4.8895  -14.8452 F   0  0  0  0  0  0  0  0  0  0  0  0
  -13.2677   -4.9628  -12.8663 F   0  0  0  0  0  0  0  0  0  0  0  0
  -15.4210   -4.7537  -13.0771 F   0  0  0  0  0  0  0  0  0  0  0  0
  -23.1580   -0.2564  -12.3469 C   0  0  0  0  0  0  0  0  0  0  0  0
  -23.0925   -1.5319  -11.8330 C   0  0  0  0  0  0  0  0  0  0  0  0
  -24.1729   -2.2247  -11.4090 N   0  0  0  0  0  0  0  0  0  0  0  0
  -25.3831   -1.6447  -11.5106 C   0  0  0  0  0  0  0  0  0  0  0  0
  -25.5520   -0.4061  -11.9931 N   0  0  0  0  0  0  0  0  0  0  0  0
  -24.4423    0.2583  -12.3815 C   0  0  0  0  0  0  0  0  0  0  0  0
  -26.5163   -2.3438  -11.1080 N   0  0  0  0  0  0  0  0  0  0  0  0
  -27.1851   -2.4026  -11.8627 H   0  0  0  0  0  0  0  0  0  0  0  0
  -27.0601   -2.3542   -9.8165 C   0  0  0  0  0  0  0  0  0  0  0  0
  -27.5500   -3.5251   -9.2396 C   0  0  0  0  0  0  0  0  0  0  0  0
  -28.1883   -3.4984   -8.0035 C   0  0  0  0  0  0  0  0  0  0  0  0
  -28.3673   -2.3058   -7.2950 C   0  0  0  0  0  0  0  0  0  0  0  0
  -27.8026   -1.1482   -7.8408 C   0  0  0  0  0  0  0  0  0  0  0  0
  -27.1470   -1.1704   -9.0819 C   0  0  0  0  0  0  0  0  0  0  0  0
  -29.0435   -2.3389   -6.0927 N   0  0  0  0  0  0  0  0  0  0  0  0
  -28.9237   -1.2705   -5.0976 C   0  0  0  0  0  0  0  0  0  0  0  0
  -29.1169   -1.8904   -3.6915 C   0  0  0  0  0  0  0  0  0  0  0  0
  -30.4068   -2.6104   -3.5522 N   0  0  0  0  0  0  0  0  0  0  0  0
  -30.5141   -3.2191   -2.2304 C   0  0  0  0  0  0  0  0  0  0  0  0
  -30.5028   -3.6476   -4.6080 C   0  0  0  0  0  0  0  0  0  0  0  0
  -30.3281   -3.0626   -6.0265 C   0  0  0  0  0  0  0  0  0  0  0  0
  5  6  1  0  0  0
  6  7  1  0  0  0
  6 11  2  0  0  0
  7  8  2  0  0  0
  8  9  1  0  0  0
  9 12  1  0  0  0
  9 10  2  0  0  0
 12 13  2  0  0  0
 12 14  1  0  0  0
 14 16  1  0  0  0
 14 15  1  0  0  0
 16 17  1  0  0  0
 16 21  2  0  0  0
 17 18  2  0  0  0
 18 19  1  0  0  0
 19 20  2  0  0  0
 20 22  1  0  0  0
 20 21  1  0  0  0
 22 23  1  0  0  0
 22 24  1  0  0  0
 22 25  1  0  0  0
 10 11  1  0  0  0
 11  1  1  0  0  0
  1  2  2  0  0  0
  1  3  1  0  0  0
  3 26  1  0  0  0
  3  4  1  0  0  0
 26 27  1  0  0  0
 26 31  2  0  0  0
 27 28  2  0  0  0
 28 29  1  0  0  0
 29 32  1  0  0  0
 29 30  2  0  0  0
 32 34  1  0  0  0
 32 33  1  0  0  0
 34 35  1  0  0  0
 34 39  2  0  0  0
 35 36  2  0  0  0
 36 37  1  0  0  0
 37 40  1  0  0  0
 37 38  2  0  0  0
 40 41  1  0  0  0
 40 46  1  0  0  0
 41 42  1  0  0  0
 42 43  1  0  0  0
 43 44  1  0  0  0
 43 45  1  0  0  0
 45 46  1  0  0  0
 38 39  1  0  0  0
 30 31  1  0  0  0
M  END
> <minimizedAffinity>
-9.55492

$$$$
