CHEMBL230107


 41 46  0  0  0  0  0  0  0  0999 V2000
  -15.6860   -5.2087  -13.1907 C   0  0  0  0  0  0  0  0  0  0  0  0
  -16.2659   -4.8826  -11.9549 C   0  0  0  0  0  0  0  0  0  0  0  0
  -16.3035   -3.5553  -11.4882 C   0  0  0  0  0  0  0  0  0  0  0  0
  -15.6372   -2.6237  -12.2666 C   0  0  0  0  0  0  0  0  0  0  0  0
  -15.5310   -1.2745  -12.0674 O   0  0  0  0  0  0  0  0  0  0  0  0
  -14.7707   -0.8329  -13.1277 C   0  0  0  0  0  0  0  0  0  0  0  0
  -14.3959   -1.7992  -13.9415 N   0  0  0  0  0  0  0  0  0  0  0  0
  -14.9503   -2.9301  -13.4305 C   0  0  0  0  0  0  0  0  0  0  0  0
  -14.9506   -4.2481  -13.9053 C   0  0  0  0  0  0  0  0  0  0  0  0
  -14.5158    0.4757  -13.1519 N   0  0  0  0  0  0  0  0  0  0  0  0
  -14.0572    0.8958  -12.3634 H   0  0  0  0  0  0  0  0  0  0  0  0
  -14.7531    1.3401  -14.2542 C   0  0  0  0  0  0  0  0  0  0  0  0
  -13.7453    2.1207  -14.8217 C   0  0  0  0  0  0  0  0  0  0  0  0
  -14.0262    3.0549  -15.8218 C   0  0  0  0  0  0  0  0  0  0  0  0
  -15.3332    3.2294  -16.2697 C   0  0  0  0  0  0  0  0  0  0  0  0
  -15.5987    4.4575  -17.4551 Cl  0  0  0  0  0  0  0  0  0  0  0  0
  -16.3707    2.4453  -15.7467 C   0  0  0  0  0  0  0  0  0  0  0  0
  -16.0596    1.5067  -14.7319 C   0  0  0  0  0  0  0  0  0  0  0  0
  -17.8097    2.5704  -16.2110 C   0  0  0  0  0  0  0  0  0  0  0  0
  -18.7786    2.4515  -15.1152 N   0  0  0  0  0  0  0  0  0  0  0  0
  -19.7938    3.5232  -15.1366 C   0  0  0  0  0  0  0  0  0  0  0  0
  -20.7573    3.3879  -13.9363 C   0  0  0  0  0  0  0  0  0  0  0  0
  -21.4533    2.0883  -13.8498 N   0  0  0  0  0  0  0  0  0  0  0  0
  -22.4902    1.9731  -14.8725 C   0  0  0  0  0  0  0  0  0  0  0  0
  -20.4578    1.0012  -13.9569 C   0  0  0  0  0  0  0  0  0  0  0  0
  -19.4544    1.1387  -15.1302 C   0  0  0  0  0  0  0  0  0  0  0  0
  -15.8240   -6.4269  -13.8254 O   0  0  0  0  0  0  0  0  0  0  0  0
  -12.9303   -8.4249  -17.6523 C   0  0  0  0  0  0  0  0  0  0  0  0
  -12.5063   -8.9227  -16.3979 C   0  0  0  0  0  0  0  0  0  0  0  0
  -13.0806   -8.5473  -15.2011 C   0  0  0  0  0  0  0  0  0  0  0  0
  -12.7323   -9.2048  -14.0821 N   0  0  0  0  0  0  0  0  0  0  0  0
  -13.3700   -8.8982  -12.9374 C   0  0  0  0  0  0  0  0  0  0  0  0
  -14.3862   -7.9694  -12.8522 C   0  0  0  0  0  0  0  0  0  0  0  0
  -14.7546   -7.2838  -14.0093 C   0  0  0  0  0  0  0  0  0  0  0  0
  -14.0319   -7.5181  -15.2108 C   0  0  0  0  0  0  0  0  0  0  0  0
  -14.2308   -6.8392  -16.4224 C   0  0  0  0  0  0  0  0  0  0  0  0
  -13.8033   -7.3363  -17.6542 C   0  0  0  0  0  0  0  0  0  0  0  0
  -13.3814   -9.9716  -19.3792 C   0  0  0  0  0  0  0  0  0  0  0  0
  -12.4917   -8.9888  -18.8224 O   0  0  0  0  0  0  0  0  0  0  0  0
  -14.4309   -6.6547  -18.6501 O   0  0  0  0  0  0  0  0  0  0  0  0
  -14.1528   -5.3048  -18.9505 C   0  0  0  0  0  0  0  0  0  0  0  0
 38 39  1  0  0  0
 39 28  1  0  0  0
 28 29  1  0  0  0
 28 37  2  0  0  0
 29 30  2  0  0  0
 30 31  1  0  0  0
 30 35  1  0  0  0
 31 32  2  0  0  0
 32 33  1  0  0  0
 33 34  2  0  0  0
 34 27  1  0  0  0
 34 35  1  0  0  0
 27  1  1  0  0  0
  1  2  1  0  0  0
  1  9  2  0  0  0
  2  3  2  0  0  0
  3  4  1  0  0  0
  4  5  1  0  0  0
  4  8  2  0  0  0
  5  6  1  0  0  0
  6 10  1  0  0  0
  6  7  2  0  0  0
 10 12  1  0  0  0
 10 11  1  0  0  0
 12 13  1  0  0  0
 12 18  2  0  0  0
 13 14  2  0  0  0
 14 15  1  0  0  0
 15 16  1  0  0  0
 15 17  2  0  0  0
 17 19  1  0  0  0
 17 18  1  0  0  0
 19 20  1  0  0  0
 20 21  1  0  0  0
 20 26  1  0  0  0
 21 22  1  0  0  0
 22 23  1  0  0  0
 23 24  1  0  0  0
 23 25  1  0  0  0
 25 26  1  0  0  0
  7  8  1  0  0  0
  8  9  1  0  0  0
 35 36  2  0  0  0
 36 37  1  0  0  0
 37 40  1  0  0  0
 40 41  1  0  0  0
M  END
> <minimizedAffinity>
-8.23015

$$$$
