CHEMBL3288510


 35 39  0  0  0  0  0  0  0  0999 V2000
  -25.3673   -1.3248  -13.3326 C   0  0  0  0  0  0  0  0  0  0  0  0
  -26.1232   -1.5693  -14.4895 C   0  0  0  0  0  0  0  0  0  0  0  0
  -27.4606   -1.9359  -14.3815 C   0  0  0  0  0  0  0  0  0  0  0  0
  -28.0608   -2.0139  -13.1250 C   0  0  0  0  0  0  0  0  0  0  0  0
  -27.3320   -1.7576  -11.9511 C   0  0  0  0  0  0  0  0  0  0  0  0
  -27.9617   -1.8134  -10.6870 C   0  0  0  0  0  0  0  0  0  0  0  0
  -27.2598   -1.6417   -9.4774 C   0  0  0  0  0  0  0  0  0  0  0  0
  -25.8811   -1.4603   -9.5871 C   0  0  0  0  0  0  0  0  0  0  0  0
  -25.2542   -1.3036  -10.8268 C   0  0  0  0  0  0  0  0  0  0  0  0
  -25.9571   -1.4434  -12.0409 C   0  0  0  0  0  0  0  0  0  0  0  0
  -27.9372   -1.7023   -8.1615 C   0  0  0  0  0  0  0  0  0  0  0  0
  -28.2807   -0.5056   -7.4779 C   0  0  0  0  0  0  0  0  0  0  0  0
  -28.9420   -0.4998   -6.2510 C   0  0  0  0  0  0  0  0  0  0  0  0
  -29.3123   -1.6920   -5.6430 C   0  0  0  0  0  0  0  0  0  0  0  0
  -28.9835   -2.8759   -6.3067 C   0  0  0  0  0  0  0  0  0  0  0  0
  -29.2377   -4.1728   -5.9551 N   0  0  0  0  0  0  0  0  0  0  0  0
  -28.7692   -5.0802   -6.8121 N   0  0  0  0  0  0  0  0  0  0  0  0
  -28.1819   -4.3515   -7.7559 C   0  0  0  0  0  0  0  0  0  0  0  0
  -27.5687   -4.9621   -8.7812 N   0  0  0  0  0  0  0  0  0  0  0  0
  -28.3002   -2.9349   -7.5272 C   0  0  0  0  0  0  0  0  0  0  0  0
  -29.7295   -4.5019   -5.1327 H   0  0  0  0  0  0  0  0  0  0  0  0
  -27.4934   -5.9711   -8.7230 H   0  0  0  0  0  0  0  0  0  0  0  0
  -26.7840   -4.5245   -9.2492 H   0  0  0  0  0  0  0  0  0  0  0  0
  -23.7665    0.4407  -13.8391 N   0  0  0  0  0  0  0  0  0  0  0  0
  -23.9469   -0.8874  -13.4842 C   0  0  0  0  0  0  0  0  0  0  0  0
  -23.0595   -1.7061  -13.2759 O   0  0  0  0  0  0  0  0  0  0  0  0
  -24.5904    1.0237  -13.9083 H   0  0  0  0  0  0  0  0  0  0  0  0
  -18.6631    2.7740  -15.0417 C   0  0  0  0  0  0  0  0  0  0  0  0
  -20.0061    2.1904  -14.7393 C   0  0  0  0  0  0  0  0  0  0  0  0
  -21.0396    2.9848  -14.2437 C   0  0  0  0  0  0  0  0  0  0  0  0
  -22.2912    2.4285  -13.9554 C   0  0  0  0  0  0  0  0  0  0  0  0
  -22.5374    1.0666  -14.1507 C   0  0  0  0  0  0  0  0  0  0  0  0
  -21.5028    0.2696  -14.6477 C   0  0  0  0  0  0  0  0  0  0  0  0
  -20.2603    0.8321  -14.9398 C   0  0  0  0  0  0  0  0  0  0  0  0
  -19.2914    0.0407  -15.4237 F   0  0  0  0  0  0  0  0  0  0  0  0
 28 29  1  0  0  0
 29 30  1  0  0  0
 29 34  2  0  0  0
 30 31  2  0  0  0
 31 32  1  0  0  0
 32 24  1  0  0  0
 32 33  2  0  0  0
 24 25  1  0  0  0
 24 27  1  0  0  0
 25 26  2  0  0  0
 25  1  1  0  0  0
  1  2  1  0  0  0
  1 10  2  0  0  0
  2  3  2  0  0  0
  3  4  1  0  0  0
  4  5  2  0  0  0
  5  6  1  0  0  0
  5 10  1  0  0  0
  6  7  2  0  0  0
  7 11  1  0  0  0
  7  8  1  0  0  0
 11 12  1  0  0  0
 11 20  2  0  0  0
 12 13  2  0  0  0
 13 14  1  0  0  0
 14 15  2  0  0  0
 15 16  1  0  0  0
 15 20  1  0  0  0
 16 17  1  0  0  0
 16 21  1  0  0  0
 17 18  2  0  0  0
 18 19  1  0  0  0
 18 20  1  0  0  0
 19 22  1  0  0  0
 19 23  1  0  0  0
  8  9  2  0  0  0
  9 10  1  0  0  0
 33 34  1  0  0  0
 34 35  1  0  0  0
M  END
> <minimizedAffinity>
-11.48428

$$$$
