CHEMBL250214


 37 41  0  0  0  0  0  0  0  0999 V2000
  -18.2365    1.6419  -15.3011 C   0  0  0  0  0  0  0  0  0  0  0  0
  -16.7578    1.8941  -15.4227 C   0  0  0  0  0  0  0  0  0  0  0  0
  -16.2896    2.7989  -16.3965 C   0  0  0  0  0  0  0  0  0  0  0  0
  -14.9250    3.1209  -16.5269 C   0  0  0  0  0  0  0  0  0  0  0  0
  -14.0599    2.4942  -15.6260 C   0  0  0  0  0  0  0  0  0  0  0  0
  -14.4950    1.5434  -14.7101 C   0  0  0  0  0  0  0  0  0  0  0  0
  -13.6071    0.9165  -13.9431 N   0  0  0  0  0  0  0  0  0  0  0  0
  -14.0334   -0.0543  -13.0984 N   0  0  0  0  0  0  0  0  0  0  0  0
  -15.3458   -0.3573  -13.0135 C   0  0  0  0  0  0  0  0  0  0  0  0
  -16.2854    0.2944  -13.7121 N   0  0  0  0  0  0  0  0  0  0  0  0
  -15.8580    1.2253  -14.5910 C   0  0  0  0  0  0  0  0  0  0  0  0
  -14.4556    4.0784  -17.5652 C   0  0  0  0  0  0  0  0  0  0  0  0
  -14.8575    5.4338  -17.4696 C   0  0  0  0  0  0  0  0  0  0  0  0
  -14.5140    6.3694  -18.4436 C   0  0  0  0  0  0  0  0  0  0  0  0
  -14.9507    7.6583  -18.3751 O   0  0  0  0  0  0  0  0  0  0  0  0
  -13.7266    6.0149  -19.5240 C   0  0  0  0  0  0  0  0  0  0  0  0
  -13.2810    4.7016  -19.6357 C   0  0  0  0  0  0  0  0  0  0  0  0
  -13.6520    3.7373  -18.6840 C   0  0  0  0  0  0  0  0  0  0  0  0
  -13.1175    2.1254  -19.0301 Cl  0  0  0  0  0  0  0  0  0  0  0  0
  -15.5002    7.7681  -17.5818 H   0  0  0  0  0  0  0  0  0  0  0  0
  -15.7720   -1.3822  -12.1699 N   0  0  0  0  0  0  0  0  0  0  0  0
  -16.4276   -1.0522  -11.4786 H   0  0  0  0  0  0  0  0  0  0  0  0
  -15.7196   -2.7638  -12.3975 C   0  0  0  0  0  0  0  0  0  0  0  0
  -16.3386   -3.6333  -11.4925 C   0  0  0  0  0  0  0  0  0  0  0  0
  -16.1874   -5.0186  -11.6136 C   0  0  0  0  0  0  0  0  0  0  0  0
  -15.3512   -5.5473  -12.6012 C   0  0  0  0  0  0  0  0  0  0  0  0
  -14.8005   -4.6996  -13.5612 C   0  0  0  0  0  0  0  0  0  0  0  0
  -14.9845   -3.3195  -13.4550 C   0  0  0  0  0  0  0  0  0  0  0  0
  -14.9914   -6.9867  -12.6628 C   0  0  0  0  0  0  0  0  0  0  0  0
  -15.5782   -7.6780  -13.4950 O   0  0  0  0  0  0  0  0  0  0  0  0
  -13.9666   -7.4804  -11.8532 N   0  0  0  0  0  0  0  0  0  0  0  0
  -13.1933   -6.7372  -10.8469 C   0  0  0  0  0  0  0  0  0  0  0  0
  -11.6812   -6.9974  -10.9419 C   0  0  0  0  0  0  0  0  0  0  0  0
  -11.3272   -8.4244  -10.9970 N   0  0  0  0  0  0  0  0  0  0  0  0
  -12.0686   -9.0593  -12.1051 C   0  0  0  0  0  0  0  0  0  0  0  0
  -13.5935   -8.8933  -11.9782 C   0  0  0  0  0  0  0  0  0  0  0  0
  -11.6179   -8.8646  -10.1236 H   0  0  0  0  0  0  0  0  0  0  0  0
  1  2  1  0  0  0
  2  3  1  0  0  0
  2 11  2  0  0  0
  3  4  2  0  0  0
  4 12  1  0  0  0
  4  5  1  0  0  0
 12 13  1  0  0  0
 12 18  2  0  0  0
 13 14  2  0  0  0
 14 15  1  0  0  0
 14 16  1  0  0  0
 15 20  1  0  0  0
 16 17  2  0  0  0
 17 18  1  0  0  0
 18 19  1  0  0  0
  5  6  2  0  0  0
  6  7  1  0  0  0
  6 11  1  0  0  0
  7  8  2  0  0  0
  8  9  1  0  0  0
  9 21  1  0  0  0
  9 10  2  0  0  0
 21 23  1  0  0  0
 21 22  1  0  0  0
 23 24  1  0  0  0
 23 28  2  0  0  0
 24 25  2  0  0  0
 25 26  1  0  0  0
 26 29  1  0  0  0
 26 27  2  0  0  0
 29 30  2  0  0  0
 29 31  1  0  0  0
 31 32  1  0  0  0
 31 36  1  0  0  0
 32 33  1  0  0  0
 33 34  1  0  0  0
 34 35  1  0  0  0
 34 37  1  0  0  0
 35 36  1  0  0  0
 27 28  1  0  0  0
 10 11  1  0  0  0
M  END
> <minimizedAffinity>
-9.48598

$$$$
