CHEMBL272802


 31 34  0  0  0  0  0  0  0  0999 V2000
  -22.7753   -0.1710  -13.7899 C   0  0  0  0  0  0  0  0  0  0  0  0
  -22.8970   -0.2519  -12.4065 C   0  0  0  0  0  0  0  0  0  0  0  0
  -24.0805   -0.6659  -11.8021 C   0  0  0  0  0  0  0  0  0  0  0  0
  -25.1637   -1.1382  -12.5465 C   0  0  0  0  0  0  0  0  0  0  0  0
  -25.0337   -1.1544  -13.9346 C   0  0  0  0  0  0  0  0  0  0  0  0
  -23.8563   -0.6644  -14.5468 C   0  0  0  0  0  0  0  0  0  0  0  0
  -23.0718    3.2231  -13.4872 N   0  0  0  0  0  0  0  0  0  0  0  0
  -21.8764    3.0388  -14.0776 C   0  0  0  0  0  0  0  0  0  0  0  0
  -21.0846    4.0729  -14.3708 N   0  0  0  0  0  0  0  0  0  0  0  0
  -19.9665    3.5398  -14.9644 O   0  0  0  0  0  0  0  0  0  0  0  0
  -20.0755    2.1896  -15.0122 C   0  0  0  0  0  0  0  0  0  0  0  0
  -19.1063    1.3451  -15.5465 C   0  0  0  0  0  0  0  0  0  0  0  0
  -19.3728   -0.0184  -15.4914 C   0  0  0  0  0  0  0  0  0  0  0  0
  -20.5600   -0.4896  -14.9278 C   0  0  0  0  0  0  0  0  0  0  0  0
  -21.5500    0.3779  -14.3981 C   0  0  0  0  0  0  0  0  0  0  0  0
  -21.2809    1.7826  -14.4510 C   0  0  0  0  0  0  0  0  0  0  0  0
  -23.3947    4.1758  -13.3578 H   0  0  0  0  0  0  0  0  0  0  0  0
  -23.8163    2.5391  -13.5441 H   0  0  0  0  0  0  0  0  0  0  0  0
  -26.3651   -1.6070  -11.9448 N   0  0  0  0  0  0  0  0  0  0  0  0
  -26.5370   -1.7724  -10.5798 C   0  0  0  0  0  0  0  0  0  0  0  0
  -25.6754   -1.5349   -9.7391 O   0  0  0  0  0  0  0  0  0  0  0  0
  -27.7936   -2.2470  -10.2280 N   0  0  0  0  0  0  0  0  0  0  0  0
  -27.1458   -1.8024  -12.5543 H   0  0  0  0  0  0  0  0  0  0  0  0
  -28.2797   -2.8069  -10.9121 H   0  0  0  0  0  0  0  0  0  0  0  0
  -28.1909   -2.3881   -8.8668 C   0  0  0  0  0  0  0  0  0  0  0  0
  -28.9068   -3.5056   -8.4032 C   0  0  0  0  0  0  0  0  0  0  0  0
  -29.3756   -3.5785   -7.0912 C   0  0  0  0  0  0  0  0  0  0  0  0
  -29.0981   -2.5466   -6.2053 C   0  0  0  0  0  0  0  0  0  0  0  0
  -28.3402   -1.4602   -6.6360 C   0  0  0  0  0  0  0  0  0  0  0  0
  -27.9484   -0.0671   -5.4204 Br  0  0  0  0  0  0  0  0  0  0  0  0
  -27.8790   -1.3763   -7.9586 C   0  0  0  0  0  0  0  0  0  0  0  0
  7  8  1  0  0  0
  7 17  1  0  0  0
  7 18  1  0  0  0
  8  9  2  0  0  0
  8 16  1  0  0  0
  9 10  1  0  0  0
 10 11  1  0  0  0
 11 12  1  0  0  0
 11 16  2  0  0  0
 12 13  2  0  0  0
 13 14  1  0  0  0
 14 15  2  0  0  0
 15  1  1  0  0  0
 15 16  1  0  0  0
  1  2  1  0  0  0
  1  6  2  0  0  0
  2  3  2  0  0  0
  3  4  1  0  0  0
  4 19  1  0  0  0
  4  5  2  0  0  0
 19 20  1  0  0  0
 19 23  1  0  0  0
 20 21  2  0  0  0
 20 22  1  0  0  0
 22 25  1  0  0  0
 22 24  1  0  0  0
 25 26  1  0  0  0
 25 31  2  0  0  0
 26 27  2  0  0  0
 27 28  1  0  0  0
 28 29  2  0  0  0
 29 30  1  0  0  0
 29 31  1  0  0  0
  5  6  1  0  0  0
M  END
> <minimizedAffinity>
-10.39311

$$$$
