CHEMBL2063335


 41 45  0  0  0  0  0  0  0  0999 V2000
  -20.0734    2.0672  -14.6293 C   0  0  0  0  0  0  0  0  0  0  0  0
  -21.2584    1.9355  -13.9516 C   0  0  0  0  0  0  0  0  0  0  0  0
  -21.7423    0.6299  -14.2675 C   0  0  0  0  0  0  0  0  0  0  0  0
  -20.9102    0.0125  -15.1237 N   0  0  0  0  0  0  0  0  0  0  0  0
  -19.9206    0.8930  -15.3134 N   0  0  0  0  0  0  0  0  0  0  0  0
  -19.1234    0.6419  -15.8877 H   0  0  0  0  0  0  0  0  0  0  0  0
  -22.9513   -0.0361  -13.7755 C   0  0  0  0  0  0  0  0  0  0  0  0
  -23.8825   -0.5917  -14.6618 C   0  0  0  0  0  0  0  0  0  0  0  0
  -25.0387   -1.2142  -14.1851 C   0  0  0  0  0  0  0  0  0  0  0  0
  -25.2962   -1.2862  -12.8106 C   0  0  0  0  0  0  0  0  0  0  0  0
  -24.3622   -0.7406  -11.9195 C   0  0  0  0  0  0  0  0  0  0  0  0
  -23.2062   -0.1189  -12.3984 C   0  0  0  0  0  0  0  0  0  0  0  0
  -26.5522   -1.9350  -12.3044 C   0  0  0  0  0  0  0  0  0  0  0  0
  -26.4464   -2.3189  -10.9195 N   0  0  0  0  0  0  0  0  0  0  0  0
  -27.3185   -1.8152  -10.0010 C   0  0  0  0  0  0  0  0  0  0  0  0
  -28.2858   -1.1206  -10.2719 O   0  0  0  0  0  0  0  0  0  0  0  0
  -25.6058   -2.7505  -10.5693 H   0  0  0  0  0  0  0  0  0  0  0  0
  -26.9047   -2.1328   -8.7493 O   0  0  0  0  0  0  0  0  0  0  0  0
  -27.9534   -2.2771   -7.7804 C   0  0  0  0  0  0  0  0  0  0  0  0
  -27.9667   -1.1798   -6.7432 C   0  0  0  0  0  0  0  0  0  0  0  0
  -28.4956    0.0828   -7.0551 C   0  0  0  0  0  0  0  0  0  0  0  0
  -28.6272    1.0648   -6.0706 C   0  0  0  0  0  0  0  0  0  0  0  0
  -28.2271    0.7986   -4.7639 C   0  0  0  0  0  0  0  0  0  0  0  0
  -27.6855   -0.4448   -4.4435 C   0  0  0  0  0  0  0  0  0  0  0  0
  -27.5536   -1.4299   -5.4274 C   0  0  0  0  0  0  0  0  0  0  0  0
  -19.1651    3.0693  -14.6994 N   0  0  0  0  0  0  0  0  0  0  0  0
  -19.2507    3.8495  -14.0553 H   0  0  0  0  0  0  0  0  0  0  0  0
  -15.3618    4.6753  -17.1435 C   0  0  0  0  0  0  0  0  0  0  0  0
  -15.9758    3.6179  -16.2790 C   0  0  0  0  0  0  0  0  0  0  0  0
  -17.2503    3.8177  -15.9132 N   0  0  0  0  0  0  0  0  0  0  0  0
  -17.8352    2.8849  -15.1454 C   0  0  0  0  0  0  0  0  0  0  0  0
  -17.1264    1.8035  -14.6875 C   0  0  0  0  0  0  0  0  0  0  0  0
  -15.7978    1.6923  -15.0639 C   0  0  0  0  0  0  0  0  0  0  0  0
  -15.2188    2.5786  -15.8886 N   0  0  0  0  0  0  0  0  0  0  0  0
  -15.0837    0.6118  -14.5377 N   0  0  0  0  0  0  0  0  0  0  0  0
  -13.8109    0.9148  -13.8671 C   0  0  0  0  0  0  0  0  0  0  0  0
  -13.0580   -0.4284  -13.6577 C   0  0  0  0  0  0  0  0  0  0  0  0
  -13.8437   -1.4293  -12.8886 N   0  0  0  0  0  0  0  0  0  0  0  0
  -13.1446   -2.7125  -12.8471 C   0  0  0  0  0  0  0  0  0  0  0  0
  -15.1822   -1.6040  -13.4988 C   0  0  0  0  0  0  0  0  0  0  0  0
  -15.9247   -0.2675  -13.7010 C   0  0  0  0  0  0  0  0  0  0  0  0
 28 29  1  0  0  0
 29 30  1  0  0  0
 29 34  2  0  0  0
 30 31  2  0  0  0
 31 26  1  0  0  0
 31 32  1  0  0  0
 26  1  1  0  0  0
 26 27  1  0  0  0
  1  2  2  0  0  0
  1  5  1  0  0  0
  2  3  1  0  0  0
  3  7  1  0  0  0
  3  4  2  0  0  0
  7  8  1  0  0  0
  7 12  2  0  0  0
  8  9  2  0  0  0
  9 10  1  0  0  0
 10 13  1  0  0  0
 10 11  2  0  0  0
 13 14  1  0  0  0
 14 15  1  0  0  0
 14 17  1  0  0  0
 15 16  2  0  0  0
 15 18  1  0  0  0
 18 19  1  0  0  0
 19 20  1  0  0  0
 20 21  1  0  0  0
 20 25  2  0  0  0
 21 22  2  0  0  0
 22 23  1  0  0  0
 23 24  2  0  0  0
 24 25  1  0  0  0
 11 12  1  0  0  0
  4  5  1  0  0  0
  5  6  1  0  0  0
 32 33  2  0  0  0
 33 35  1  0  0  0
 33 34  1  0  0  0
 35 36  1  0  0  0
 35 41  1  0  0  0
 36 37  1  0  0  0
 37 38  1  0  0  0
 38 39  1  0  0  0
 38 40  1  0  0  0
 40 41  1  0  0  0
M  END
> <minimizedAffinity>
-11.21540

$$$$
