CHEMBL2023220


 38 41  0  0  0  0  0  0  0  0999 V2000
  -19.4684    2.8132  -15.4157 C   0  0  0  0  0  0  0  0  0  0  0  0
  -20.2212    3.9243  -15.0794 C   0  0  0  0  0  0  0  0  0  0  0  0
  -21.3867    3.8892  -14.4179 N   0  0  0  0  0  0  0  0  0  0  0  0
  -21.9213    2.7071  -14.0555 C   0  0  0  0  0  0  0  0  0  0  0  0
  -23.1034    2.8423  -13.3449 N   0  0  0  0  0  0  0  0  0  0  0  0
  -21.2803    1.4766  -14.3977 C   0  0  0  0  0  0  0  0  0  0  0  0
  -21.6588    0.0655  -14.1809 C   0  0  0  0  0  0  0  0  0  0  0  0
  -20.7189   -0.7985  -14.7033 C   0  0  0  0  0  0  0  0  0  0  0  0
  -19.3918   -0.0056  -15.3897 S   0  0  0  0  0  0  0  0  0  0  0  0
  -20.0461    1.5668  -15.0761 C   0  0  0  0  0  0  0  0  0  0  0  0
  -23.2515    3.8123  -13.0921 H   0  0  0  0  0  0  0  0  0  0  0  0
  -23.2425    2.1651  -12.6080 H   0  0  0  0  0  0  0  0  0  0  0  0
  -22.8667   -0.4869  -13.5482 C   0  0  0  0  0  0  0  0  0  0  0  0
  -22.8543   -0.8056  -12.1943 C   0  0  0  0  0  0  0  0  0  0  0  0
  -23.9300   -1.4619  -11.6021 C   0  0  0  0  0  0  0  0  0  0  0  0
  -25.1148   -1.6878  -12.3024 C   0  0  0  0  0  0  0  0  0  0  0  0
  -25.1719   -1.3170  -13.6468 C   0  0  0  0  0  0  0  0  0  0  0  0
  -24.0528   -0.7257  -14.2656 C   0  0  0  0  0  0  0  0  0  0  0  0
  -26.2443   -2.2701  -11.6765 N   0  0  0  0  0  0  0  0  0  0  0  0
  -26.5660   -2.0429  -10.3471 C   0  0  0  0  0  0  0  0  0  0  0  0
  -25.9930   -1.2328   -9.6255 O   0  0  0  0  0  0  0  0  0  0  0  0
  -27.5939   -2.8589   -9.8997 N   0  0  0  0  0  0  0  0  0  0  0  0
  -27.0004   -2.5851  -12.2670 H   0  0  0  0  0  0  0  0  0  0  0  0
  -27.5900   -3.7905  -10.2894 H   0  0  0  0  0  0  0  0  0  0  0  0
  -28.0762   -2.7233   -8.5741 C   0  0  0  0  0  0  0  0  0  0  0  0
  -28.8307   -3.7364   -7.9703 C   0  0  0  0  0  0  0  0  0  0  0  0
  -29.3411   -3.5700   -6.6846 C   0  0  0  0  0  0  0  0  0  0  0  0
  -29.1285   -2.3740   -6.0048 C   0  0  0  0  0  0  0  0  0  0  0  0
  -28.3952   -1.3416   -6.6036 C   0  0  0  0  0  0  0  0  0  0  0  0
  -28.2740   -0.0072   -5.9293 C   0  0  0  0  0  0  0  0  0  0  0  0
  -27.8317   -1.5397   -7.8751 C   0  0  0  0  0  0  0  0  0  0  0  0
  -17.2027    3.7462  -15.8211 C   0  0  0  0  0  0  0  0  0  0  0  0
  -18.1885    2.8924  -16.1316 C   0  0  0  0  0  0  0  0  0  0  0  0
  -14.2803    5.1856  -17.6688 C   0  0  0  0  0  0  0  0  0  0  0  0
  -15.4984    4.9980  -16.9138 N   0  0  0  0  0  0  0  0  0  0  0  0
  -15.9490    3.7352  -16.6115 C   0  0  0  0  0  0  0  0  0  0  0  0
  -15.3787    2.7074  -16.9511 O   0  0  0  0  0  0  0  0  0  0  0  0
  -16.0057    5.8163  -16.6017 H   0  0  0  0  0  0  0  0  0  0  0  0
 34 35  1  0  0  0
 35 36  1  0  0  0
 35 38  1  0  0  0
 36 37  2  0  0  0
 36 32  1  0  0  0
 32 33  2  0  0  0
 33  1  1  0  0  0
  1  2  1  0  0  0
  1 10  2  0  0  0
  2  3  2  0  0  0
  3  4  1  0  0  0
  4  5  1  0  0  0
  4  6  2  0  0  0
  5 11  1  0  0  0
  5 12  1  0  0  0
  6  7  1  0  0  0
  6 10  1  0  0  0
  7 13  1  0  0  0
  7  8  2  0  0  0
 13 14  1  0  0  0
 13 18  2  0  0  0
 14 15  2  0  0  0
 15 16  1  0  0  0
 16 19  1  0  0  0
 16 17  2  0  0  0
 19 20  1  0  0  0
 19 23  1  0  0  0
 20 21  2  0  0  0
 20 22  1  0  0  0
 22 25  1  0  0  0
 22 24  1  0  0  0
 25 26  1  0  0  0
 25 31  2  0  0  0
 26 27  2  0  0  0
 27 28  1  0  0  0
 28 29  2  0  0  0
 29 30  1  0  0  0
 29 31  1  0  0  0
 17 18  1  0  0  0
  8  9  1  0  0  0
  9 10  1  0  0  0
M  END
> <minimizedAffinity>
-10.13977

$$$$
