CHEMBL512839


 41 45  0  0  0  0  0  0  0  0999 V2000
  -22.6631   -0.0449  -13.5877 C   0  0  0  0  0  0  0  0  0  0  0  0
  -22.6677   -0.4360  -12.2519 C   0  0  0  0  0  0  0  0  0  0  0  0
  -23.7826   -1.0840  -11.7119 C   0  0  0  0  0  0  0  0  0  0  0  0
  -24.9257   -1.3410  -12.4840 C   0  0  0  0  0  0  0  0  0  0  0  0
  -24.8941   -1.0031  -13.8396 C   0  0  0  0  0  0  0  0  0  0  0  0
  -23.7730   -0.3484  -14.3857 C   0  0  0  0  0  0  0  0  0  0  0  0
  -18.1599    2.6449  -15.6280 C   0  0  0  0  0  0  0  0  0  0  0  0
  -18.6311    3.9727  -15.4920 C   0  0  0  0  0  0  0  0  0  0  0  0
  -19.9160    3.9086  -15.0032 C   0  0  0  0  0  0  0  0  0  0  0  0
  -20.2502    2.5823  -14.7966 N   0  0  0  0  0  0  0  0  0  0  0  0
  -21.4486    2.0339  -14.2742 C   0  0  0  0  0  0  0  0  0  0  0  0
  -22.4858    2.9003  -13.9313 N   0  0  0  0  0  0  0  0  0  0  0  0
  -21.5115    0.6890  -14.1313 C   0  0  0  0  0  0  0  0  0  0  0  0
  -20.3070   -0.0669  -14.5989 C   0  0  0  0  0  0  0  0  0  0  0  0
  -19.2136    0.4302  -15.0838 N   0  0  0  0  0  0  0  0  0  0  0  0
  -19.1627    1.7921  -15.1820 C   0  0  0  0  0  0  0  0  0  0  0  0
  -22.1754    3.8119  -13.6092 H   0  0  0  0  0  0  0  0  0  0  0  0
  -23.1753    2.4851  -13.3083 H   0  0  0  0  0  0  0  0  0  0  0  0
  -13.8959    0.3415  -16.7895 C   0  0  0  0  0  0  0  0  0  0  0  0
  -14.9718    1.2900  -16.6751 N   0  0  0  0  0  0  0  0  0  0  0  0
  -16.1665    1.1049  -16.0351 C   0  0  0  0  0  0  0  0  0  0  0  0
  -16.8468    2.2939  -16.1530 C   0  0  0  0  0  0  0  0  0  0  0  0
  -15.9807    3.1195  -16.8933 C   0  0  0  0  0  0  0  0  0  0  0  0
  -14.8330    2.5106  -17.2169 N   0  0  0  0  0  0  0  0  0  0  0  0
  -26.1079   -1.9057  -11.9347 N   0  0  0  0  0  0  0  0  0  0  0  0
  -26.4379   -1.8144  -10.5920 C   0  0  0  0  0  0  0  0  0  0  0  0
  -25.7623   -1.2255   -9.7540 O   0  0  0  0  0  0  0  0  0  0  0  0
  -27.6299   -2.4565  -10.2688 N   0  0  0  0  0  0  0  0  0  0  0  0
  -26.8696   -2.1073  -12.5674 H   0  0  0  0  0  0  0  0  0  0  0  0
  -27.7176   -3.3708  -10.7001 H   0  0  0  0  0  0  0  0  0  0  0  0
  -28.0010   -2.4134   -8.8926 C   0  0  0  0  0  0  0  0  0  0  0  0
  -28.2313   -1.1813   -8.2664 C   0  0  0  0  0  0  0  0  0  0  0  0
  -28.3060   -1.0873   -6.8684 C   0  0  0  0  0  0  0  0  0  0  0  0
  -28.1790   -2.2606   -6.1057 C   0  0  0  0  0  0  0  0  0  0  0  0
  -28.0324   -3.5032   -6.7329 C   0  0  0  0  0  0  0  0  0  0  0  0
  -27.9652   -3.5753   -8.1230 C   0  0  0  0  0  0  0  0  0  0  0  0
  -27.7545   -4.7625   -8.7113 F   0  0  0  0  0  0  0  0  0  0  0  0
  -28.4629    0.2564   -6.1976 C   0  0  0  0  0  0  0  0  0  0  0  0
  -28.4580    1.3071   -7.0652 F   0  0  0  0  0  0  0  0  0  0  0  0
  -29.6339    0.3534   -5.5084 F   0  0  0  0  0  0  0  0  0  0  0  0
  -27.4767    0.5111   -5.2943 F   0  0  0  0  0  0  0  0  0  0  0  0
 19 20  1  0  0  0
 20 21  1  0  0  0
 20 24  1  0  0  0
 21 22  2  0  0  0
 22  7  1  0  0  0
 22 23  1  0  0  0
  7  8  1  0  0  0
  7 16  2  0  0  0
  8  9  2  0  0  0
  9 10  1  0  0  0
 10 11  1  0  0  0
 10 16  1  0  0  0
 11 12  1  0  0  0
 11 13  2  0  0  0
 12 17  1  0  0  0
 12 18  1  0  0  0
 13  1  1  0  0  0
 13 14  1  0  0  0
  1  2  1  0  0  0
  1  6  2  0  0  0
  2  3  2  0  0  0
  3  4  1  0  0  0
  4 25  1  0  0  0
  4  5  2  0  0  0
 25 26  1  0  0  0
 25 29  1  0  0  0
 26 27  2  0  0  0
 26 28  1  0  0  0
 28 31  1  0  0  0
 28 30  1  0  0  0
 31 32  1  0  0  0
 31 36  2  0  0  0
 32 33  2  0  0  0
 33 38  1  0  0  0
 33 34  1  0  0  0
 38 39  1  0  0  0
 38 40  1  0  0  0
 38 41  1  0  0  0
 34 35  2  0  0  0
 35 36  1  0  0  0
 36 37  1  0  0  0
  5  6  1  0  0  0
 14 15  2  0  0  0
 15 16  1  0  0  0
 23 24  2  0  0  0
M  END
> <minimizedAffinity>
-11.11904

$$$$
