CHEMBL1983111


 37 41  0  0  0  0  0  0  0  0999 V2000
  -22.2866    0.2977  -14.0273 C   0  0  0  0  0  0  0  0  0  0  0  0
  -21.9006   -0.0979  -15.1326 O   0  0  0  0  0  0  0  0  0  0  0  0
  -23.3797   -0.2540  -13.4101 N   0  0  0  0  0  0  0  0  0  0  0  0
  -23.9695   -1.4928  -13.8617 C   0  0  0  0  0  0  0  0  0  0  0  0
  -23.3509   -2.5038  -12.8294 C   0  0  0  0  0  0  0  0  0  0  0  0
  -23.0312   -1.5800  -11.5944 C   0  0  0  0  0  0  0  0  0  0  0  0
  -23.7568   -0.2817  -11.9908 C   0  0  0  0  0  0  0  0  0  0  0  0
  -25.2272   -0.6786  -12.0872 C   0  0  0  0  0  0  0  0  0  0  0  0
  -26.2015   -0.8458  -11.1231 C   0  0  0  0  0  0  0  0  0  0  0  0
  -27.3538   -1.5857  -11.4597 C   0  0  0  0  0  0  0  0  0  0  0  0
  -27.5514   -1.9934  -12.8042 C   0  0  0  0  0  0  0  0  0  0  0  0
  -26.5494   -1.8727  -13.7632 C   0  0  0  0  0  0  0  0  0  0  0  0
  -25.3748   -1.2985  -13.3463 C   0  0  0  0  0  0  0  0  0  0  0  0
  -28.2688   -1.9072  -10.4402 N   0  0  0  0  0  0  0  0  0  0  0  0
  -29.2420   -1.7342  -10.6444 H   0  0  0  0  0  0  0  0  0  0  0  0
  -28.0767   -2.0560   -9.0698 C   0  0  0  0  0  0  0  0  0  0  0  0
  -28.2515   -3.2578   -8.5118 N   0  0  0  0  0  0  0  0  0  0  0  0
  -28.2252   -3.3312   -7.1788 C   0  0  0  0  0  0  0  0  0  0  0  0
  -28.0296   -2.2443   -6.3651 C   0  0  0  0  0  0  0  0  0  0  0  0
  -27.7918   -1.0436   -7.0063 C   0  0  0  0  0  0  0  0  0  0  0  0
  -27.8115   -0.9496   -8.3542 N   0  0  0  0  0  0  0  0  0  0  0  0
  -28.0920   -2.4027   -4.8943 C   0  0  0  0  0  0  0  0  0  0  0  0
  -27.7895   -3.6675   -4.4779 F   0  0  0  0  0  0  0  0  0  0  0  0
  -27.2460   -1.5859   -4.2127 F   0  0  0  0  0  0  0  0  0  0  0  0
  -29.3388   -2.1506   -4.4019 F   0  0  0  0  0  0  0  0  0  0  0  0
  -27.4697    0.0999   -6.2459 N   0  0  0  0  0  0  0  0  0  0  0  0
  -26.8804   -0.1175   -5.4465 H   0  0  0  0  0  0  0  0  0  0  0  0
  -28.3272    1.2361   -6.0506 C   0  0  0  0  0  0  0  0  0  0  0  0
  -29.1762    1.0638   -4.7736 C   0  0  0  0  0  0  0  0  0  0  0  0
  -30.4580    1.0985   -5.6132 C   0  0  0  0  0  0  0  0  0  0  0  0
  -29.6170    1.1722   -6.8934 C   0  0  0  0  0  0  0  0  0  0  0  0
  -21.6039    1.4964  -13.3678 C   0  0  0  0  0  0  0  0  0  0  0  0
  -18.9359    3.1493  -15.4880 C   0  0  0  0  0  0  0  0  0  0  0  0
  -20.2972    2.9297  -14.8895 C   0  0  0  0  0  0  0  0  0  0  0  0
  -21.2457    3.6716  -15.0981 O   0  0  0  0  0  0  0  0  0  0  0  0
  -20.3650    1.8512  -14.0376 N   0  0  0  0  0  0  0  0  0  0  0  0
  -19.6030    1.1783  -14.0148 H   0  0  0  0  0  0  0  0  0  0  0  0
 33 34  1  0  0  0
 34 35  2  0  0  0
 34 36  1  0  0  0
 36 32  1  0  0  0
 36 37  1  0  0  0
 32  1  1  0  0  0
  1  2  2  0  0  0
  1  3  1  0  0  0
  3  4  1  0  0  0
  3  7  1  0  0  0
  4  5  1  0  0  0
  4 13  1  0  0  0
  5  6  1  0  0  0
  6  7  1  0  0  0
  7  8  1  0  0  0
  8  9  1  0  0  0
  8 13  2  0  0  0
  9 10  2  0  0  0
 10 14  1  0  0  0
 10 11  1  0  0  0
 14 16  1  0  0  0
 14 15  1  0  0  0
 16 17  1  0  0  0
 16 21  2  0  0  0
 17 18  2  0  0  0
 18 19  1  0  0  0
 19 22  1  0  0  0
 19 20  2  0  0  0
 22 23  1  0  0  0
 22 24  1  0  0  0
 22 25  1  0  0  0
 20 26  1  0  0  0
 20 21  1  0  0  0
 26 28  1  0  0  0
 26 27  1  0  0  0
 28 29  1  0  0  0
 28 31  1  0  0  0
 29 30  1  0  0  0
 30 31  1  0  0  0
 11 12  2  0  0  0
 12 13  1  0  0  0
M  END
> <minimizedAffinity>
-10.99335

$$$$
