CHEMBL3931966


 38 41  0  0  0  0  0  0  0  0999 V2000
  -20.9802    3.5040  -15.1575 C   0  0  0  0  0  0  0  0  0  0  0  0
  -19.7464    2.6480  -15.2348 C   0  0  0  0  0  0  0  0  0  0  0  0
  -18.5087    3.3264  -15.2956 C   0  0  0  0  0  0  0  0  0  0  0  0
  -17.2923    2.6421  -15.2649 C   0  0  0  0  0  0  0  0  0  0  0  0
  -17.3022    1.2575  -15.2219 C   0  0  0  0  0  0  0  0  0  0  0  0
  -18.5205    0.5693  -15.1973 C   0  0  0  0  0  0  0  0  0  0  0  0
  -19.7557    1.2363  -15.2218 C   0  0  0  0  0  0  0  0  0  0  0  0
  -20.9890    0.5185  -15.2573 N   0  0  0  0  0  0  0  0  0  0  0  0
  -21.8051    0.2567  -14.1617 C   0  0  0  0  0  0  0  0  0  0  0  0
  -21.6068    0.6499  -13.0155 O   0  0  0  0  0  0  0  0  0  0  0  0
  -22.8660   -0.5854  -14.4743 N   0  0  0  0  0  0  0  0  0  0  0  0
  -21.2645    0.1260  -16.1437 H   0  0  0  0  0  0  0  0  0  0  0  0
  -22.6629   -1.2694  -15.1854 H   0  0  0  0  0  0  0  0  0  0  0  0
  -23.7763   -0.9894  -13.4593 C   0  0  0  0  0  0  0  0  0  0  0  0
  -23.3115   -1.1060  -12.1499 C   0  0  0  0  0  0  0  0  0  0  0  0
  -24.2117   -1.3895  -11.1214 C   0  0  0  0  0  0  0  0  0  0  0  0
  -25.5658   -1.6170  -11.3913 C   0  0  0  0  0  0  0  0  0  0  0  0
  -26.5957   -1.9107  -10.0360 Cl  0  0  0  0  0  0  0  0  0  0  0  0
  -26.0433   -1.5794  -12.7089 C   0  0  0  0  0  0  0  0  0  0  0  0
  -25.1298   -1.2426  -13.7309 C   0  0  0  0  0  0  0  0  0  0  0  0
  -27.4806   -1.8841  -13.0765 C   0  0  0  0  0  0  0  0  0  0  0  0
  -27.7869   -1.6121  -14.5422 C   0  0  0  0  0  0  0  0  0  0  0  0
  -27.7933   -3.1986  -12.8449 F   0  0  0  0  0  0  0  0  0  0  0  0
  -28.3859   -1.1928  -12.3230 F   0  0  0  0  0  0  0  0  0  0  0  0
  -16.0660    3.2654  -15.3399 O   0  0  0  0  0  0  0  0  0  0  0  0
  -15.4149    3.2696  -16.5693 C   0  0  0  0  0  0  0  0  0  0  0  0
  -15.5790    4.3898  -17.3596 C   0  0  0  0  0  0  0  0  0  0  0  0
  -14.9269    4.3635  -18.5737 C   0  0  0  0  0  0  0  0  0  0  0  0
  -14.1614    3.3294  -18.9417 N   0  0  0  0  0  0  0  0  0  0  0  0
  -14.0830    2.2896  -18.1128 C   0  0  0  0  0  0  0  0  0  0  0  0
  -14.6963    2.1951  -16.9356 N   0  0  0  0  0  0  0  0  0  0  0  0
  -15.0697    5.4575  -19.4450 N   0  0  0  0  0  0  0  0  0  0  0  0
  -14.3450    6.6271  -19.3310 C   0  0  0  0  0  0  0  0  0  0  0  0
  -13.4934    6.9023  -18.4978 O   0  0  0  0  0  0  0  0  0  0  0  0
  -15.7228    5.3709  -20.2078 H   0  0  0  0  0  0  0  0  0  0  0  0
  -14.6931    7.6475  -20.3685 C   0  0  0  0  0  0  0  0  0  0  0  0
  -15.7499    8.6954  -20.0850 C   0  0  0  0  0  0  0  0  0  0  0  0
  -16.0497    7.5723  -21.0330 C   0  0  0  0  0  0  0  0  0  0  0  0
  1  2  1  0  0  0
  2  3  1  0  0  0
  2  7  2  0  0  0
  3  4  2  0  0  0
  4 25  1  0  0  0
  4  5  1  0  0  0
 25 26  1  0  0  0
 26 27  1  0  0  0
 26 31  2  0  0  0
 27 28  2  0  0  0
 28 32  1  0  0  0
 28 29  1  0  0  0
 32 33  1  0  0  0
 32 35  1  0  0  0
 33 34  2  0  0  0
 33 36  1  0  0  0
 36 37  1  0  0  0
 36 38  1  0  0  0
 37 38  1  0  0  0
 29 30  2  0  0  0
 30 31  1  0  0  0
  5  6  2  0  0  0
  6  7  1  0  0  0
  7  8  1  0  0  0
  8  9  1  0  0  0
  8 12  1  0  0  0
  9 10  2  0  0  0
  9 11  1  0  0  0
 11 14  1  0  0  0
 11 13  1  0  0  0
 14 15  1  0  0  0
 14 20  2  0  0  0
 15 16  2  0  0  0
 16 17  1  0  0  0
 17 18  1  0  0  0
 17 19  2  0  0  0
 19 21  1  0  0  0
 19 20  1  0  0  0
 21 22  1  0  0  0
 21 23  1  0  0  0
 21 24  1  0  0  0
M  END
> <minimizedAffinity>
-9.22427

$$$$
