CHEMBL317566


 23 26  0  0  0  0  0  0  0  0999 V2000
  -29.8003   -3.2989   -4.8823 C   0  0  0  0  0  0  0  0  0  0  0  0
  -30.5582   -3.8554   -3.8300 C   0  0  0  0  0  0  0  0  0  0  0  0
  -30.8855   -5.1340   -4.0335 N   0  0  0  0  0  0  0  0  0  0  0  0
  -30.3291   -5.4350   -5.2323 N   0  0  0  0  0  0  0  0  0  0  0  0
  -30.3942   -6.6470   -5.9133 C   0  0  0  0  0  0  0  0  0  0  0  0
  -29.7878   -6.7921   -7.1024 C   0  0  0  0  0  0  0  0  0  0  0  0
  -29.0529   -5.5838   -7.5828 C   0  0  0  0  0  0  0  0  0  0  0  0
  -28.9763   -4.4415   -6.9739 N   0  0  0  0  0  0  0  0  0  0  0  0
  -29.6391   -4.3452   -5.7753 C   0  0  0  0  0  0  0  0  0  0  0  0
  -29.5380    0.4427   -5.3153 C   0  0  0  0  0  0  0  0  0  0  0  0
  -28.1540    0.6180   -5.2686 C   0  0  0  0  0  0  0  0  0  0  0  0
  -27.3149   -0.4855   -5.1397 C   0  0  0  0  0  0  0  0  0  0  0  0
  -27.8555   -1.7653   -5.0429 C   0  0  0  0  0  0  0  0  0  0  0  0
  -29.2442   -1.9639   -5.0580 C   0  0  0  0  0  0  0  0  0  0  0  0
  -30.0763   -0.8486   -5.2213 C   0  0  0  0  0  0  0  0  0  0  0  0
  -30.8793    1.7714   -6.7557 C   0  0  0  0  0  0  0  0  0  0  0  0
  -30.4593    1.4502   -5.4334 O   0  0  0  0  0  0  0  0  0  0  0  0
  -29.8313   -8.0246   -7.8802 C   0  0  0  0  0  0  0  0  0  0  0  0
  -30.9497   -8.8563   -7.8185 C   0  0  0  0  0  0  0  0  0  0  0  0
  -30.9430  -10.0165   -8.5733 C   0  0  0  0  0  0  0  0  0  0  0  0
  -29.9162  -10.3870   -9.3673 N   0  0  0  0  0  0  0  0  0  0  0  0
  -28.8465   -9.5648   -9.4092 C   0  0  0  0  0  0  0  0  0  0  0  0
  -28.7567   -8.3838   -8.6927 C   0  0  0  0  0  0  0  0  0  0  0  0
 16 17  1  0  0  0
 17 10  1  0  0  0
 10 11  1  0  0  0
 10 15  2  0  0  0
 11 12  2  0  0  0
 12 13  1  0  0  0
 13 14  2  0  0  0
 14  1  1  0  0  0
 14 15  1  0  0  0
  1  2  1  0  0  0
  1  9  2  0  0  0
  2  3  2  0  0  0
  3  4  1  0  0  0
  4  5  1  0  0  0
  4  9  1  0  0  0
  5  6  2  0  0  0
  6 18  1  0  0  0
  6  7  1  0  0  0
 18 19  1  0  0  0
 18 23  2  0  0  0
 19 20  2  0  0  0
 20 21  1  0  0  0
 21 22  2  0  0  0
 22 23  1  0  0  0
  7  8  2  0  0  0
  8  9  1  0  0  0
M  END
> <minimizedAffinity>
-8.44014

$$$$
