CHEMBL1996255


 34 37  0  0  0  0  0  0  0  0999 V2000
  -29.9471   -6.4748   -5.8121 C   0  0  0  0  0  0  0  0  0  0  0  0
  -28.9325   -7.3177   -5.3530 C   0  0  0  0  0  0  0  0  0  0  0  0
  -28.5928   -8.4828   -6.0577 C   0  0  0  0  0  0  0  0  0  0  0  0
  -29.2643   -8.8506   -7.2337 C   0  0  0  0  0  0  0  0  0  0  0  0
  -30.3511   -8.0324   -7.6103 C   0  0  0  0  0  0  0  0  0  0  0  0
  -30.6823   -6.8537   -6.9267 C   0  0  0  0  0  0  0  0  0  0  0  0
  -28.8816  -10.0484   -8.0241 C   0  0  0  0  0  0  0  0  0  0  0  0
  -29.3337  -11.3540   -7.7124 C   0  0  0  0  0  0  0  0  0  0  0  0
  -30.0642  -11.5715   -6.6064 F   0  0  0  0  0  0  0  0  0  0  0  0
  -29.0872  -12.4632   -8.5218 C   0  0  0  0  0  0  0  0  0  0  0  0
  -28.4253  -12.3239   -9.7367 C   0  0  0  0  0  0  0  0  0  0  0  0
  -27.9398  -11.0504  -10.0376 C   0  0  0  0  0  0  0  0  0  0  0  0
  -27.2933  -10.5835  -11.1508 N   0  0  0  0  0  0  0  0  0  0  0  0
  -26.8095   -9.3435  -11.0234 N   0  0  0  0  0  0  0  0  0  0  0  0
  -27.2414   -8.9581   -9.8266 C   0  0  0  0  0  0  0  0  0  0  0  0
  -26.8908   -7.7751   -9.3011 N   0  0  0  0  0  0  0  0  0  0  0  0
  -28.0695   -9.9434   -9.1945 C   0  0  0  0  0  0  0  0  0  0  0  0
  -27.1362  -11.0724  -12.0243 H   0  0  0  0  0  0  0  0  0  0  0  0
  -26.1553   -7.2561   -9.7658 H   0  0  0  0  0  0  0  0  0  0  0  0
  -26.9272   -7.6264   -8.2967 H   0  0  0  0  0  0  0  0  0  0  0  0
  -29.8580   -2.9672   -4.8930 N   0  0  0  0  0  0  0  0  0  0  0  0
  -29.5373   -4.0935   -5.6245 C   0  0  0  0  0  0  0  0  0  0  0  0
  -28.7933   -4.1174   -6.6073 O   0  0  0  0  0  0  0  0  0  0  0  0
  -30.2161   -5.2285   -5.1876 N   0  0  0  0  0  0  0  0  0  0  0  0
  -30.6004   -3.0603   -4.2139 H   0  0  0  0  0  0  0  0  0  0  0  0
  -31.1795   -5.0620   -4.9450 H   0  0  0  0  0  0  0  0  0  0  0  0
  -30.8731    1.7047   -6.1813 C   0  0  0  0  0  0  0  0  0  0  0  0
  -29.8745    0.6477   -5.8075 C   0  0  0  0  0  0  0  0  0  0  0  0
  -28.5130    0.9627   -5.7775 C   0  0  0  0  0  0  0  0  0  0  0  0
  -27.5877    0.0024   -5.3914 C   0  0  0  0  0  0  0  0  0  0  0  0
  -28.0123   -1.2803   -5.0517 C   0  0  0  0  0  0  0  0  0  0  0  0
  -27.0675   -2.0911   -4.5592 F   0  0  0  0  0  0  0  0  0  0  0  0
  -29.3636   -1.6560   -5.1355 C   0  0  0  0  0  0  0  0  0  0  0  0
  -30.2921   -0.6608   -5.4866 C   0  0  0  0  0  0  0  0  0  0  0  0
 27 28  1  0  0  0
 28 29  1  0  0  0
 28 34  2  0  0  0
 29 30  2  0  0  0
 30 31  1  0  0  0
 31 32  1  0  0  0
 31 33  2  0  0  0
 33 21  1  0  0  0
 33 34  1  0  0  0
 21 22  1  0  0  0
 21 25  1  0  0  0
 22 23  2  0  0  0
 22 24  1  0  0  0
 24  1  1  0  0  0
 24 26  1  0  0  0
  1  2  1  0  0  0
  1  6  2  0  0  0
  2  3  2  0  0  0
  3  4  1  0  0  0
  4  7  1  0  0  0
  4  5  2  0  0  0
  7  8  1  0  0  0
  7 17  2  0  0  0
  8  9  1  0  0  0
  8 10  2  0  0  0
 10 11  1  0  0  0
 11 12  2  0  0  0
 12 13  1  0  0  0
 12 17  1  0  0  0
 13 14  1  0  0  0
 13 18  1  0  0  0
 14 15  2  0  0  0
 15 16  1  0  0  0
 15 17  1  0  0  0
 16 19  1  0  0  0
 16 20  1  0  0  0
  5  6  1  0  0  0
M  END
> <minimizedAffinity>
-9.64063

$$$$
