CHEMBL3986082


 36 40  0  0  0  0  0  0  0  0999 V2000
  -28.1618   -8.1949   -6.2798 C   0  0  0  0  0  0  0  0  0  0  0  0
  -27.7720   -9.5282   -6.1758 C   0  0  0  0  0  0  0  0  0  0  0  0
  -28.1638  -10.3111   -5.0858 C   0  0  0  0  0  0  0  0  0  0  0  0
  -27.9380  -11.7007   -5.0353 C   0  0  0  0  0  0  0  0  0  0  0  0
  -28.5435  -12.4656   -4.1198 N   0  0  0  0  0  0  0  0  0  0  0  0
  -29.2946  -11.8200   -3.2168 C   0  0  0  0  0  0  0  0  0  0  0  0
  -29.4607  -10.4875   -3.1082 N   0  0  0  0  0  0  0  0  0  0  0  0
  -28.8957   -9.7224   -4.0559 C   0  0  0  0  0  0  0  0  0  0  0  0
  -29.0123   -8.3154   -4.0631 C   0  0  0  0  0  0  0  0  0  0  0  0
  -28.5822   -7.5139   -5.1431 C   0  0  0  0  0  0  0  0  0  0  0  0
  -29.2880   -8.1826   -8.3125 C   0  0  0  0  0  0  0  0  0  0  0  0
  -28.2124   -7.6225   -7.5281 O   0  0  0  0  0  0  0  0  0  0  0  0
  -27.0703  -12.2688   -6.0129 N   0  0  0  0  0  0  0  0  0  0  0  0
  -27.6019  -12.4327   -6.8633 H   0  0  0  0  0  0  0  0  0  0  0  0
  -25.7050  -12.0558   -6.2867 C   0  0  0  0  0  0  0  0  0  0  0  0
  -25.1960  -11.9565   -7.5820 C   0  0  0  0  0  0  0  0  0  0  0  0
  -23.8512  -11.6381   -7.8090 C   0  0  0  0  0  0  0  0  0  0  0  0
  -22.9911  -11.3969   -6.7364 C   0  0  0  0  0  0  0  0  0  0  0  0
  -21.1884  -10.9552   -7.1342 Br  0  0  0  0  0  0  0  0  0  0  0  0
  -23.4837  -11.4703   -5.4331 C   0  0  0  0  0  0  0  0  0  0  0  0
  -22.4951  -11.1885   -4.0427 Cl  0  0  0  0  0  0  0  0  0  0  0  0
  -24.8340  -11.7788   -5.2166 C   0  0  0  0  0  0  0  0  0  0  0  0
  -28.6415   -6.1514   -4.9509 O   0  0  0  0  0  0  0  0  0  0  0  0
  -29.6501   -5.3634   -5.6211 C   0  0  0  0  0  0  0  0  0  0  0  0
  -29.2373   -4.6833   -6.9297 C   0  0  0  0  0  0  0  0  0  0  0  0
  -29.7023   -3.3323   -6.9756 O   0  0  0  0  0  0  0  0  0  0  0  0
  -30.2928   -2.9887   -5.7291 C   0  0  0  0  0  0  0  0  0  0  0  0
  -29.4793   -1.8897   -5.0503 C   0  0  0  0  0  0  0  0  0  0  0  0
  -29.5657   -2.3180   -3.6018 C   0  0  0  0  0  0  0  0  0  0  0  0
  -29.4458   -3.7543   -3.6463 O   0  0  0  0  0  0  0  0  0  0  0  0
  -30.2069   -4.1885   -4.7878 C   0  0  0  0  0  0  0  0  0  0  0  0
  -29.9680   -0.5685   -5.2842 O   0  0  0  0  0  0  0  0  0  0  0  0
  -28.8754    0.5467   -5.8125 S   0  0  0  0  0  0  0  0  0  0  0  0
  -27.8678   -0.5030   -6.8416 C   0  0  0  0  0  0  0  0  0  0  0  0
  -29.5678    1.4856   -6.6779 O   0  0  0  0  0  0  0  0  0  0  0  0
  -28.0727    0.9604   -4.6898 O   0  0  0  0  0  0  0  0  0  0  0  0
 11 12  1  0  0  0
 12  1  1  0  0  0
  1  2  1  0  0  0
  1 10  2  0  0  0
  2  3  2  0  0  0
  3  4  1  0  0  0
  3  8  1  0  0  0
  4 13  1  0  0  0
  4  5  2  0  0  0
 13 15  1  0  0  0
 13 14  1  0  0  0
 15 16  1  0  0  0
 15 22  2  0  0  0
 16 17  2  0  0  0
 17 18  1  0  0  0
 18 19  1  0  0  0
 18 20  2  0  0  0
 20 21  1  0  0  0
 20 22  1  0  0  0
  5  6  1  0  0  0
  6  7  2  0  0  0
  7  8  1  0  0  0
  8  9  2  0  0  0
  9 10  1  0  0  0
 10 23  1  0  0  0
 23 24  1  0  0  0
 24 25  1  0  0  0
 24 31  1  0  0  0
 25 26  1  0  0  0
 26 27  1  0  0  0
 27 28  1  0  0  0
 27 31  1  0  0  0
 28 32  1  0  0  0
 28 29  1  0  0  0
 32 33  1  0  0  0
 33 34  1  0  0  0
 33 35  2  0  0  0
 33 36  2  0  0  0
 29 30  1  0  0  0
 30 31  1  0  0  0
M  END
> <minimizedAffinity>
-7.94097

$$$$
