CHEMBL205610


 31 34  0  0  0  0  0  0  0  0999 V2000
  -15.2179   -4.7845  -13.3271 C   0  0  0  0  0  0  0  0  0  0  0  0
  -15.5110   -3.5662  -13.9683 C   0  0  0  0  0  0  0  0  0  0  0  0
  -15.7630   -2.4156  -13.2246 C   0  0  0  0  0  0  0  0  0  0  0  0
  -15.7472   -2.4753  -11.8364 C   0  0  0  0  0  0  0  0  0  0  0  0
  -15.4508   -3.6769  -11.1905 C   0  0  0  0  0  0  0  0  0  0  0  0
  -15.1663   -4.8515  -11.9180 C   0  0  0  0  0  0  0  0  0  0  0  0
  -15.9951   -6.8320  -14.1224 O   0  0  0  0  0  0  0  0  0  0  0  0
  -15.1036   -5.9948  -14.1878 C   0  0  0  0  0  0  0  0  0  0  0  0
  -13.9747   -6.0461  -14.9896 N   0  0  0  0  0  0  0  0  0  0  0  0
  -13.2650   -5.3404  -14.8341 H   0  0  0  0  0  0  0  0  0  0  0  0
  -13.6634   -7.0400  -15.9439 C   0  0  0  0  0  0  0  0  0  0  0  0
  -13.9860   -6.9400  -17.2968 C   0  0  0  0  0  0  0  0  0  0  0  0
  -13.6666   -7.9683  -18.1959 C   0  0  0  0  0  0  0  0  0  0  0  0
  -13.0158   -9.1183  -17.7492 C   0  0  0  0  0  0  0  0  0  0  0  0
  -12.6904   -9.2219  -16.3963 C   0  0  0  0  0  0  0  0  0  0  0  0
  -12.9921   -8.1856  -15.5054 C   0  0  0  0  0  0  0  0  0  0  0  0
  -12.7099  -10.2072  -18.5106 O   0  0  0  0  0  0  0  0  0  0  0  0
  -13.7676  -11.1105  -18.8165 C   0  0  0  0  0  0  0  0  0  0  0  0
  -13.3270  -12.3913  -18.7743 F   0  0  0  0  0  0  0  0  0  0  0  0
  -14.7641  -10.9730  -17.9072 F   0  0  0  0  0  0  0  0  0  0  0  0
  -14.3850  -10.7632  -20.4365 Cl  0  0  0  0  0  0  0  0  0  0  0  0
  -14.8015   -6.0985  -11.1387 C   0  0  0  0  0  0  0  0  0  0  0  0
  -13.3820   -6.4371  -11.2688 N   0  0  0  0  0  0  0  0  0  0  0  0
  -12.3521   -5.5907  -10.9273 C   0  0  0  0  0  0  0  0  0  0  0  0
  -11.1646   -6.2643  -11.0921 C   0  0  0  0  0  0  0  0  0  0  0  0
  -11.4725   -7.5780  -11.5347 C   0  0  0  0  0  0  0  0  0  0  0  0
  -10.6970   -8.7032  -11.8454 C   0  0  0  0  0  0  0  0  0  0  0  0
  -11.2798   -9.8599  -12.2428 N   0  0  0  0  0  0  0  0  0  0  0  0
  -12.6261   -9.9130  -12.3143 C   0  0  0  0  0  0  0  0  0  0  0  0
  -13.4799   -8.8620  -12.0158 C   0  0  0  0  0  0  0  0  0  0  0  0
  -12.8667   -7.6684  -11.6291 C   0  0  0  0  0  0  0  0  0  0  0  0
  7  8  2  0  0  0
  8  9  1  0  0  0
  8  1  1  0  0  0
  9 11  1  0  0  0
  9 10  1  0  0  0
 11 12  1  0  0  0
 11 16  2  0  0  0
 12 13  2  0  0  0
 13 14  1  0  0  0
 14 17  1  0  0  0
 14 15  2  0  0  0
 17 18  1  0  0  0
 18 19  1  0  0  0
 18 20  1  0  0  0
 18 21  1  0  0  0
 15 16  1  0  0  0
  1  2  1  0  0  0
  1  6  2  0  0  0
  2  3  2  0  0  0
  3  4  1  0  0  0
  4  5  2  0  0  0
  5  6  1  0  0  0
  6 22  1  0  0  0
 22 23  1  0  0  0
 23 24  1  0  0  0
 23 31  1  0  0  0
 24 25  2  0  0  0
 25 26  1  0  0  0
 26 27  1  0  0  0
 26 31  2  0  0  0
 27 28  2  0  0  0
 28 29  1  0  0  0
 29 30  2  0  0  0
 30 31  1  0  0  0
M  END
> <minimizedAffinity>
-7.12797

$$$$
