CHEMBL1979093


 34 37  0  0  0  0  0  0  0  0999 V2000
  -22.7252   -0.4121  -13.4511 C   0  0  0  0  0  0  0  0  0  0  0  0
  -23.9420   -0.6376  -14.0969 C   0  0  0  0  0  0  0  0  0  0  0  0
  -24.9828   -1.3422  -13.4886 C   0  0  0  0  0  0  0  0  0  0  0  0
  -24.8969   -1.7622  -12.1657 C   0  0  0  0  0  0  0  0  0  0  0  0
  -23.7289   -1.4650  -11.4603 C   0  0  0  0  0  0  0  0  0  0  0  0
  -22.6528   -0.8162  -12.1030 C   0  0  0  0  0  0  0  0  0  0  0  0
  -19.3242    1.4776  -15.4130 C   0  0  0  0  0  0  0  0  0  0  0  0
  -19.4762    0.0940  -15.3802 C   0  0  0  0  0  0  0  0  0  0  0  0
  -20.5743   -0.4958  -14.7537 C   0  0  0  0  0  0  0  0  0  0  0  0
  -21.6097    0.2643  -14.1519 C   0  0  0  0  0  0  0  0  0  0  0  0
  -21.4916    1.6894  -14.2310 C   0  0  0  0  0  0  0  0  0  0  0  0
  -22.2128    2.8722  -13.8499 C   0  0  0  0  0  0  0  0  0  0  0  0
  -23.4067    2.9219  -13.2240 N   0  0  0  0  0  0  0  0  0  0  0  0
  -21.5660    3.9855  -14.1785 N   0  0  0  0  0  0  0  0  0  0  0  0
  -20.4199    3.5814  -14.8172 O   0  0  0  0  0  0  0  0  0  0  0  0
  -20.3574    2.2266  -14.8477 C   0  0  0  0  0  0  0  0  0  0  0  0
  -24.0718    2.1589  -13.2717 H   0  0  0  0  0  0  0  0  0  0  0  0
  -23.8369    3.8329  -13.1044 H   0  0  0  0  0  0  0  0  0  0  0  0
  -16.9658    1.4367  -15.5901 C   0  0  0  0  0  0  0  0  0  0  0  0
  -18.2040    1.9500  -16.0740 O   0  0  0  0  0  0  0  0  0  0  0  0
  -25.9606   -2.4313  -11.5038 N   0  0  0  0  0  0  0  0  0  0  0  0
  -26.5572   -1.9966  -10.3356 C   0  0  0  0  0  0  0  0  0  0  0  0
  -26.3740   -0.9014   -9.8119 O   0  0  0  0  0  0  0  0  0  0  0  0
  -27.3755   -2.9700   -9.7664 N   0  0  0  0  0  0  0  0  0  0  0  0
  -26.4019   -3.1986  -11.9874 H   0  0  0  0  0  0  0  0  0  0  0  0
  -27.0721   -3.9173   -9.9389 H   0  0  0  0  0  0  0  0  0  0  0  0
  -28.0078   -2.7321   -8.5188 C   0  0  0  0  0  0  0  0  0  0  0  0
  -28.9847   -3.6279   -8.0785 C   0  0  0  0  0  0  0  0  0  0  0  0
  -29.5375   -3.4793   -6.8041 C   0  0  0  0  0  0  0  0  0  0  0  0
  -29.1458   -2.4162   -5.9928 C   0  0  0  0  0  0  0  0  0  0  0  0
  -29.6870   -2.3071   -4.7711 F   0  0  0  0  0  0  0  0  0  0  0  0
  -28.2010   -1.4879   -6.4253 C   0  0  0  0  0  0  0  0  0  0  0  0
  -27.7714   -0.3469   -5.5546 C   0  0  0  0  0  0  0  0  0  0  0  0
  -27.6379   -1.6540   -7.6993 C   0  0  0  0  0  0  0  0  0  0  0  0
 19 20  1  0  0  0
 20  7  1  0  0  0
  7  8  1  0  0  0
  7 16  2  0  0  0
  8  9  2  0  0  0
  9 10  1  0  0  0
 10  1  1  0  0  0
 10 11  2  0  0  0
  1  2  1  0  0  0
  1  6  2  0  0  0
  2  3  2  0  0  0
  3  4  1  0  0  0
  4 21  1  0  0  0
  4  5  2  0  0  0
 21 22  1  0  0  0
 21 25  1  0  0  0
 22 23  2  0  0  0
 22 24  1  0  0  0
 24 27  1  0  0  0
 24 26  1  0  0  0
 27 28  1  0  0  0
 27 34  2  0  0  0
 28 29  2  0  0  0
 29 30  1  0  0  0
 30 31  1  0  0  0
 30 32  2  0  0  0
 32 33  1  0  0  0
 32 34  1  0  0  0
  5  6  1  0  0  0
 11 12  1  0  0  0
 11 16  1  0  0  0
 12 13  1  0  0  0
 12 14  2  0  0  0
 13 17  1  0  0  0
 13 18  1  0  0  0
 14 15  1  0  0  0
 15 16  1  0  0  0
M  END
> <minimizedAffinity>
-10.63326

$$$$
