CHEMBL184226


 31 34  0  0  0  0  0  0  0  0999 V2000
  -24.5935   -1.6611  -12.5507 C   0  0  0  0  0  0  0  0  0  0  0  0
  -23.4576   -1.2309  -11.8590 C   0  0  0  0  0  0  0  0  0  0  0  0
  -22.5265   -0.3804  -12.4660 C   0  0  0  0  0  0  0  0  0  0  0  0
  -22.7385    0.1146  -13.7585 C   0  0  0  0  0  0  0  0  0  0  0  0
  -23.8610   -0.3780  -14.4590 C   0  0  0  0  0  0  0  0  0  0  0  0
  -24.7602   -1.2853  -13.8794 C   0  0  0  0  0  0  0  0  0  0  0  0
  -21.9524    1.2401  -14.3150 C   0  0  0  0  0  0  0  0  0  0  0  0
  -22.2224    2.5828  -13.9489 C   0  0  0  0  0  0  0  0  0  0  0  0
  -21.2951    3.6258  -14.1541 C   0  0  0  0  0  0  0  0  0  0  0  0
  -20.0271    3.3370  -14.6407 C   0  0  0  0  0  0  0  0  0  0  0  0
  -19.7862    2.0261  -14.9970 C   0  0  0  0  0  0  0  0  0  0  0  0
  -20.7508    1.0180  -14.9778 C   0  0  0  0  0  0  0  0  0  0  0  0
  -20.0962   -0.2164  -15.4960 C   0  0  0  0  0  0  0  0  0  0  0  0
  -18.7309   -0.0183  -15.0990 N   0  0  0  0  0  0  0  0  0  0  0  0
  -18.4868    1.3392  -14.9759 C   0  0  0  0  0  0  0  0  0  0  0  0
  -17.4325    1.8705  -14.6538 O   0  0  0  0  0  0  0  0  0  0  0  0
  -18.4130   -0.5353  -14.2849 H   0  0  0  0  0  0  0  0  0  0  0  0
  -27.0209   -2.8013  -10.1067 N   0  0  0  0  0  0  0  0  0  0  0  0
  -26.0103   -2.0023  -10.6189 C   0  0  0  0  0  0  0  0  0  0  0  0
  -25.5186   -1.0396  -10.0368 O   0  0  0  0  0  0  0  0  0  0  0  0
  -25.6146   -2.3971  -11.8949 N   0  0  0  0  0  0  0  0  0  0  0  0
  -27.0500   -3.7503  -10.4491 H   0  0  0  0  0  0  0  0  0  0  0  0
  -26.3721   -2.7273  -12.4756 H   0  0  0  0  0  0  0  0  0  0  0  0
  -29.7623   -4.4380   -6.3197 C   0  0  0  0  0  0  0  0  0  0  0  0
  -29.0292   -3.3262   -7.0134 C   0  0  0  0  0  0  0  0  0  0  0  0
  -28.9185   -2.0711   -6.3992 C   0  0  0  0  0  0  0  0  0  0  0  0
  -28.2191   -1.0366   -7.0218 C   0  0  0  0  0  0  0  0  0  0  0  0
  -28.0866    0.3156   -6.3859 C   0  0  0  0  0  0  0  0  0  0  0  0
  -27.6106   -1.2763   -8.2602 C   0  0  0  0  0  0  0  0  0  0  0  0
  -27.6815   -2.5291   -8.8809 C   0  0  0  0  0  0  0  0  0  0  0  0
  -28.4237   -3.5426   -8.2657 C   0  0  0  0  0  0  0  0  0  0  0  0
 24 25  1  0  0  0
 25 26  1  0  0  0
 25 31  2  0  0  0
 26 27  2  0  0  0
 27 28  1  0  0  0
 27 29  1  0  0  0
 29 30  2  0  0  0
 30 18  1  0  0  0
 30 31  1  0  0  0
 18 19  1  0  0  0
 18 22  1  0  0  0
 19 20  2  0  0  0
 19 21  1  0  0  0
 21  1  1  0  0  0
 21 23  1  0  0  0
  1  2  1  0  0  0
  1  6  2  0  0  0
  2  3  2  0  0  0
  3  4  1  0  0  0
  4  7  1  0  0  0
  4  5  2  0  0  0
  7  8  1  0  0  0
  7 12  2  0  0  0
  8  9  2  0  0  0
  9 10  1  0  0  0
 10 11  2  0  0  0
 11 12  1  0  0  0
 11 15  1  0  0  0
 12 13  1  0  0  0
 13 14  1  0  0  0
 14 15  1  0  0  0
 14 17  1  0  0  0
 15 16  2  0  0  0
  5  6  1  0  0  0
M  END
> <minimizedAffinity>
-11.55063

$$$$
