CHEMBL3921390


 32 35  0  0  0  0  0  0  0  0999 V2000
  -14.2574   -1.6472  -14.0724 C   0  0  0  0  0  0  0  0  0  0  0  0
  -14.1110   -3.0345  -14.1158 C   0  0  0  0  0  0  0  0  0  0  0  0
  -14.8590   -3.8912  -13.2725 C   0  0  0  0  0  0  0  0  0  0  0  0
  -14.7189   -5.2840  -13.2397 C   0  0  0  0  0  0  0  0  0  0  0  0
  -15.5196   -6.0735  -12.5032 N   0  0  0  0  0  0  0  0  0  0  0  0
  -16.4323   -5.4497  -11.7514 C   0  0  0  0  0  0  0  0  0  0  0  0
  -16.6152   -4.1279  -11.6662 N   0  0  0  0  0  0  0  0  0  0  0  0
  -15.8281   -3.3608  -12.4277 C   0  0  0  0  0  0  0  0  0  0  0  0
  -15.9465   -1.9863  -12.3616 C   0  0  0  0  0  0  0  0  0  0  0  0
  -15.1288   -1.1112  -13.1069 C   0  0  0  0  0  0  0  0  0  0  0  0
  -12.8922   -1.3098  -16.0417 C   0  0  0  0  0  0  0  0  0  0  0  0
  -13.5940   -0.7892  -14.9068 O   0  0  0  0  0  0  0  0  0  0  0  0
  -13.6397   -5.8625  -13.9522 N   0  0  0  0  0  0  0  0  0  0  0  0
  -12.8838   -6.0686  -13.3123 H   0  0  0  0  0  0  0  0  0  0  0  0
  -13.6752   -6.6283  -15.1316 C   0  0  0  0  0  0  0  0  0  0  0  0
  -13.8387   -5.9892  -16.3645 C   0  0  0  0  0  0  0  0  0  0  0  0
  -13.6967   -6.6798  -17.5646 C   0  0  0  0  0  0  0  0  0  0  0  0
  -13.3962   -8.0386  -17.5483 C   0  0  0  0  0  0  0  0  0  0  0  0
  -13.1530   -8.8046  -19.0823 Cl  0  0  0  0  0  0  0  0  0  0  0  0
  -13.2758   -8.7245  -16.3293 C   0  0  0  0  0  0  0  0  0  0  0  0
  -12.9464  -10.4323  -16.3415 Cl  0  0  0  0  0  0  0  0  0  0  0  0
  -13.4098   -8.0293  -15.1024 C   0  0  0  0  0  0  0  0  0  0  0  0
  -13.2773   -8.7286  -13.7697 C   0  0  0  0  0  0  0  0  0  0  0  0
  -15.1522    0.2592  -12.8935 O   0  0  0  0  0  0  0  0  0  0  0  0
  -16.3880    0.8783  -13.3114 C   0  0  0  0  0  0  0  0  0  0  0  0
  -16.7517    0.6589  -14.7886 C   0  0  0  0  0  0  0  0  0  0  0  0
  -16.2162    1.7621  -15.7154 C   0  0  0  0  0  0  0  0  0  0  0  0
  -16.8693    3.0554  -15.4261 N   0  0  0  0  0  0  0  0  0  0  0  0
  -16.3072    4.1145  -16.2516 C   0  0  0  0  0  0  0  0  0  0  0  0
  -18.3209    2.9053  -15.6374 C   0  0  0  0  0  0  0  0  0  0  0  0
  -18.8906    1.7713  -14.7675 C   0  0  0  0  0  0  0  0  0  0  0  0
  -18.1903    0.5279  -14.9553 O   0  0  0  0  0  0  0  0  0  0  0  0
 11 12  1  0  0  0
 12  1  1  0  0  0
  1  2  1  0  0  0
  1 10  2  0  0  0
  2  3  2  0  0  0
  3  4  1  0  0  0
  3  8  1  0  0  0
  4 13  1  0  0  0
  4  5  2  0  0  0
 13 15  1  0  0  0
 13 14  1  0  0  0
 15 16  1  0  0  0
 15 22  2  0  0  0
 16 17  2  0  0  0
 17 18  1  0  0  0
 18 19  1  0  0  0
 18 20  2  0  0  0
 20 21  1  0  0  0
 20 22  1  0  0  0
 22 23  1  0  0  0
  5  6  1  0  0  0
  6  7  2  0  0  0
  7  8  1  0  0  0
  8  9  2  0  0  0
  9 10  1  0  0  0
 10 24  1  0  0  0
 24 25  1  0  0  0
 25 26  1  0  0  0
 26 27  1  0  0  0
 26 32  1  0  0  0
 27 28  1  0  0  0
 28 29  1  0  0  0
 28 30  1  0  0  0
 30 31  1  0  0  0
 31 32  1  0  0  0
M  END
> <minimizedAffinity>
-7.25366

$$$$
