CHEMBL460466


 40 44  0  0  0  0  0  0  0  0999 V2000
  -27.1226   -1.7486   -9.9772 C   0  0  0  0  0  0  0  0  0  0  0  0
  -27.8190   -1.1791  -10.8118 O   0  0  0  0  0  0  0  0  0  0  0  0
  -25.7677   -2.0002  -10.1025 N   0  0  0  0  0  0  0  0  0  0  0  0
  -25.3458   -2.5631   -9.3612 H   0  0  0  0  0  0  0  0  0  0  0  0
  -28.9196   -2.5319   -6.7988 N   0  0  0  0  0  0  0  0  0  0  0  0
  -28.3311   -1.6533   -7.7172 C   0  0  0  0  0  0  0  0  0  0  0  0
  -28.3668   -0.1652   -7.5574 C   0  0  0  0  0  0  0  0  0  0  0  0
  -27.7303   -2.3065   -8.7362 C   0  0  0  0  0  0  0  0  0  0  0  0
  -27.8117   -3.7474   -8.3692 C   0  0  0  0  0  0  0  0  0  0  0  0
  -27.4092   -4.6429   -9.1010 O   0  0  0  0  0  0  0  0  0  0  0  0
  -28.4569   -3.8258   -7.1276 N   0  0  0  0  0  0  0  0  0  0  0  0
  -29.0171   -5.0235   -6.6361 C   0  0  0  0  0  0  0  0  0  0  0  0
  -30.1533   -5.5582   -7.2602 C   0  0  0  0  0  0  0  0  0  0  0  0
  -30.6914   -6.7761   -6.8384 C   0  0  0  0  0  0  0  0  0  0  0  0
  -30.1140   -7.4594   -5.7704 C   0  0  0  0  0  0  0  0  0  0  0  0
  -29.0089   -6.9204   -5.1167 C   0  0  0  0  0  0  0  0  0  0  0  0
  -28.4663   -5.7062   -5.5468 C   0  0  0  0  0  0  0  0  0  0  0  0
  -29.3500   -2.2133   -5.4323 C   0  0  0  0  0  0  0  0  0  0  0  0
  -28.6890   -2.9020   -3.1205 C   0  0  0  0  0  0  0  0  0  0  0  0
  -28.2219   -2.2282   -4.4064 C   0  0  0  0  0  0  0  0  0  0  0  0
  -24.9077   -1.6594  -11.1718 C   0  0  0  0  0  0  0  0  0  0  0  0
  -23.5342   -1.4213  -11.0496 C   0  0  0  0  0  0  0  0  0  0  0  0
  -22.7701   -1.0184  -12.1635 C   0  0  0  0  0  0  0  0  0  0  0  0
  -23.3753   -0.8410  -13.4118 C   0  0  0  0  0  0  0  0  0  0  0  0
  -24.7228   -1.1791  -13.5439 C   0  0  0  0  0  0  0  0  0  0  0  0
  -25.3390   -1.1004  -14.7342 F   0  0  0  0  0  0  0  0  0  0  0  0
  -25.4880   -1.5556  -12.4399 C   0  0  0  0  0  0  0  0  0  0  0  0
  -22.5921   -0.3620  -14.4432 O   0  0  0  0  0  0  0  0  0  0  0  0
  -22.1156    0.9453  -14.3849 C   0  0  0  0  0  0  0  0  0  0  0  0
  -22.9008    2.0013  -13.9218 C   0  0  0  0  0  0  0  0  0  0  0  0
  -22.3895    3.2780  -13.9883 C   0  0  0  0  0  0  0  0  0  0  0  0
  -21.1365    3.5603  -14.3909 N   0  0  0  0  0  0  0  0  0  0  0  0
  -20.3393    2.5392  -14.7425 C   0  0  0  0  0  0  0  0  0  0  0  0
  -19.0302    2.8419  -15.0838 C   0  0  0  0  0  0  0  0  0  0  0  0
  -18.1062    1.8559  -15.4438 C   0  0  0  0  0  0  0  0  0  0  0  0
  -18.5154    0.5290  -15.4827 C   0  0  0  0  0  0  0  0  0  0  0  0
  -19.8460    0.1997  -15.1612 C   0  0  0  0  0  0  0  0  0  0  0  0
  -20.7717    1.1926  -14.7674 C   0  0  0  0  0  0  0  0  0  0  0  0
  -16.8563    2.3269  -15.7199 O   0  0  0  0  0  0  0  0  0  0  0  0
  -16.7121    3.7329  -15.8850 C   0  0  0  0  0  0  0  0  0  0  0  0
 19 20  1  0  0  0
 20 18  1  0  0  0
 18  5  1  0  0  0
  5  6  1  0  0  0
  5 11  1  0  0  0
  6  7  1  0  0  0
  6  8  2  0  0  0
  8  1  1  0  0  0
  8  9  1  0  0  0
  1  2  2  0  0  0
  1  3  1  0  0  0
  3 21  1  0  0  0
  3  4  1  0  0  0
 21 22  1  0  0  0
 21 27  2  0  0  0
 22 23  2  0  0  0
 23 24  1  0  0  0
 24 28  1  0  0  0
 24 25  2  0  0  0
 28 29  1  0  0  0
 29 30  1  0  0  0
 29 38  2  0  0  0
 30 31  2  0  0  0
 31 32  1  0  0  0
 32 33  2  0  0  0
 33 34  1  0  0  0
 33 38  1  0  0  0
 34 35  2  0  0  0
 35 39  1  0  0  0
 35 36  1  0  0  0
 39 40  1  0  0  0
 36 37  2  0  0  0
 37 38  1  0  0  0
 25 26  1  0  0  0
 25 27  1  0  0  0
  9 10  2  0  0  0
  9 11  1  0  0  0
 11 12  1  0  0  0
 12 13  1  0  0  0
 12 17  2  0  0  0
 13 14  2  0  0  0
 14 15  1  0  0  0
 15 16  2  0  0  0
 16 17  1  0  0  0
M  END
> <minimizedAffinity>
-10.70756

$$$$
