CHEMBL206136


 31 35  0  0  0  0  0  0  0  0999 V2000
  -28.3540   -2.5623   -7.0033 C   0  0  0  0  0  0  0  0  0  0  0  0
  -27.5198   -1.5484   -6.9491 N   0  0  0  0  0  0  0  0  0  0  0  0
  -27.1853   -1.2492   -8.2501 N   0  0  0  0  0  0  0  0  0  0  0  0
  -27.7998   -2.1261   -9.0137 C   0  0  0  0  0  0  0  0  0  0  0  0
  -28.5241   -3.0251   -8.2845 O   0  0  0  0  0  0  0  0  0  0  0  0
  -30.2262   -3.0812   -3.7973 C   0  0  0  0  0  0  0  0  0  0  0  0
  -30.6801   -4.3657   -3.9944 C   0  0  0  0  0  0  0  0  0  0  0  0
  -30.3906   -5.0962   -5.0915 N   0  0  0  0  0  0  0  0  0  0  0  0
  -29.6221   -4.5333   -6.0720 C   0  0  0  0  0  0  0  0  0  0  0  0
  -29.1378   -3.2198   -5.9696 C   0  0  0  0  0  0  0  0  0  0  0  0
  -29.4447   -2.5090   -4.7926 C   0  0  0  0  0  0  0  0  0  0  0  0
  -29.4276   -5.4386   -7.2684 C   0  0  0  0  0  0  0  0  0  0  0  0
  -29.2958   -6.9524   -7.0360 C   0  0  0  0  0  0  0  0  0  0  0  0
  -30.3919   -7.8780   -7.5033 C   0  0  0  0  0  0  0  0  0  0  0  0
  -30.1720   -8.9777   -8.3310 C   0  0  0  0  0  0  0  0  0  0  0  0
  -31.2426   -9.8104   -8.6306 C   0  0  0  0  0  0  0  0  0  0  0  0
  -32.4962   -9.6325   -8.1652 N   0  0  0  0  0  0  0  0  0  0  0  0
  -32.6918   -8.5715   -7.3538 C   0  0  0  0  0  0  0  0  0  0  0  0
  -31.6873   -7.6868   -7.0000 C   0  0  0  0  0  0  0  0  0  0  0  0
  -27.9044   -2.2679  -10.3454 N   0  0  0  0  0  0  0  0  0  0  0  0
  -28.8444   -2.3718  -10.7063 H   0  0  0  0  0  0  0  0  0  0  0  0
  -26.9607   -1.8430  -11.2957 C   0  0  0  0  0  0  0  0  0  0  0  0
  -27.2635   -1.8944  -12.6564 C   0  0  0  0  0  0  0  0  0  0  0  0
  -26.4213   -1.5575  -13.6621 N   0  0  0  0  0  0  0  0  0  0  0  0
  -25.1878   -1.1474  -13.3280 C   0  0  0  0  0  0  0  0  0  0  0  0
  -24.2673   -0.8576  -14.3236 C   0  0  0  0  0  0  0  0  0  0  0  0
  -22.9641   -0.4520  -14.0223 C   0  0  0  0  0  0  0  0  0  0  0  0
  -22.5757   -0.2916  -12.6952 C   0  0  0  0  0  0  0  0  0  0  0  0
  -23.4824   -0.5696  -11.6777 C   0  0  0  0  0  0  0  0  0  0  0  0
  -24.7761   -1.0232  -11.9866 C   0  0  0  0  0  0  0  0  0  0  0  0
  -25.6809   -1.3881  -10.9797 C   0  0  0  0  0  0  0  0  0  0  0  0
  6  7  1  0  0  0
  6 11  2  0  0  0
  7  8  2  0  0  0
  8  9  1  0  0  0
  9 12  1  0  0  0
  9 10  2  0  0  0
 12 13  1  0  0  0
 13 14  1  0  0  0
 14 15  1  0  0  0
 14 19  2  0  0  0
 15 16  2  0  0  0
 16 17  1  0  0  0
 17 18  2  0  0  0
 18 19  1  0  0  0
 10  1  1  0  0  0
 10 11  1  0  0  0
  1  2  2  0  0  0
  1  5  1  0  0  0
  2  3  1  0  0  0
  3  4  2  0  0  0
  4 20  1  0  0  0
  4  5  1  0  0  0
 20 22  1  0  0  0
 20 21  1  0  0  0
 22 23  1  0  0  0
 22 31  2  0  0  0
 23 24  2  0  0  0
 24 25  1  0  0  0
 25 26  1  0  0  0
 25 30  2  0  0  0
 26 27  2  0  0  0
 27 28  1  0  0  0
 28 29  2  0  0  0
 29 30  1  0  0  0
 30 31  1  0  0  0
M  END
> <minimizedAffinity>
-11.16665

$$$$
