CHEMBL3904192


 31 34  0  0  0  0  0  0  0  0999 V2000
  -30.5895   -7.8006   -6.2393 C   0  0  0  0  0  0  0  0  0  0  0  0
  -29.7823   -8.8713   -6.6224 C   0  0  0  0  0  0  0  0  0  0  0  0
  -28.5140   -9.1019   -6.0346 C   0  0  0  0  0  0  0  0  0  0  0  0
  -27.6583  -10.1537   -6.3704 C   0  0  0  0  0  0  0  0  0  0  0  0
  -26.4734  -10.3377   -5.7570 N   0  0  0  0  0  0  0  0  0  0  0  0
  -26.1437   -9.4575   -4.8097 C   0  0  0  0  0  0  0  0  0  0  0  0
  -26.8870   -8.4223   -4.4106 N   0  0  0  0  0  0  0  0  0  0  0  0
  -28.0592   -8.2620   -5.0280 C   0  0  0  0  0  0  0  0  0  0  0  0
  -28.8543   -7.1976   -4.6561 C   0  0  0  0  0  0  0  0  0  0  0  0
  -30.0810   -6.8919   -5.2837 C   0  0  0  0  0  0  0  0  0  0  0  0
  -32.5583   -8.7040   -7.2839 C   0  0  0  0  0  0  0  0  0  0  0  0
  -31.8522   -7.5858   -6.7302 O   0  0  0  0  0  0  0  0  0  0  0  0
  -28.0469  -11.0558   -7.3949 N   0  0  0  0  0  0  0  0  0  0  0  0
  -28.9238  -11.5008   -7.1316 H   0  0  0  0  0  0  0  0  0  0  0  0
  -28.0146  -10.7483   -8.7746 C   0  0  0  0  0  0  0  0  0  0  0  0
  -26.8166  -10.3181   -9.3661 C   0  0  0  0  0  0  0  0  0  0  0  0
  -26.7710   -9.9624  -10.7112 C   0  0  0  0  0  0  0  0  0  0  0  0
  -27.9255  -10.0502  -11.4862 C   0  0  0  0  0  0  0  0  0  0  0  0
  -27.8796   -9.5587  -13.1321 Cl  0  0  0  0  0  0  0  0  0  0  0  0
  -29.1160  -10.5260  -10.9343 C   0  0  0  0  0  0  0  0  0  0  0  0
  -29.1529  -10.8832   -9.5879 C   0  0  0  0  0  0  0  0  0  0  0  0
  -30.6405  -11.4673   -8.9260 Cl  0  0  0  0  0  0  0  0  0  0  0  0
  -30.7749   -5.7246   -5.0007 O   0  0  0  0  0  0  0  0  0  0  0  0
  -30.2238   -4.5873   -5.6955 C   0  0  0  0  0  0  0  0  0  0  0  0
  -30.0924   -3.2858   -4.8913 C   0  0  0  0  0  0  0  0  0  0  0  0
  -29.6942   -2.0610   -5.7284 C   0  0  0  0  0  0  0  0  0  0  0  0
  -28.3173   -2.1736   -6.2546 N   0  0  0  0  0  0  0  0  0  0  0  0
  -27.9707   -0.9790   -7.0199 C   0  0  0  0  0  0  0  0  0  0  0  0
  -27.3835   -2.3670   -5.1279 C   0  0  0  0  0  0  0  0  0  0  0  0
  -27.7867   -3.5676   -4.2589 C   0  0  0  0  0  0  0  0  0  0  0  0
  -29.1468   -3.4702   -3.8001 O   0  0  0  0  0  0  0  0  0  0  0  0
 11 12  1  0  0  0
 12  1  1  0  0  0
  1  2  1  0  0  0
  1 10  2  0  0  0
  2  3  2  0  0  0
  3  4  1  0  0  0
  3  8  1  0  0  0
  4 13  1  0  0  0
  4  5  2  0  0  0
 13 15  1  0  0  0
 13 14  1  0  0  0
 15 16  1  0  0  0
 15 21  2  0  0  0
 16 17  2  0  0  0
 17 18  1  0  0  0
 18 19  1  0  0  0
 18 20  2  0  0  0
 20 21  1  0  0  0
 21 22  1  0  0  0
  5  6  1  0  0  0
  6  7  2  0  0  0
  7  8  1  0  0  0
  8  9  2  0  0  0
  9 10  1  0  0  0
 10 23  1  0  0  0
 23 24  1  0  0  0
 24 25  1  0  0  0
 25 26  1  0  0  0
 25 31  1  0  0  0
 26 27  1  0  0  0
 27 28  1  0  0  0
 27 29  1  0  0  0
 29 30  1  0  0  0
 30 31  1  0  0  0
M  END
> <minimizedAffinity>
-7.79083

$$$$
