CHEMBL3939494


 34 38  0  0  0  0  0  0  0  0999 V2000
  -16.5304    2.0724  -15.4890 N   0  0  0  0  0  0  0  0  0  0  0  0
  -17.9922    1.8272  -15.4685 C   0  0  0  0  0  0  0  0  0  0  0  0
  -18.7053    3.0242  -15.5361 C   0  0  0  0  0  0  0  0  0  0  0  0
  -19.9799    3.1375  -15.1458 C   0  0  0  0  0  0  0  0  0  0  0  0
  -20.6858    2.0537  -14.7504 C   0  0  0  0  0  0  0  0  0  0  0  0
  -21.8483    2.3584  -14.2056 N   0  0  0  0  0  0  0  0  0  0  0  0
  -22.7147    1.4475  -13.8259 C   0  0  0  0  0  0  0  0  0  0  0  0
  -22.5168    0.1139  -14.1393 C   0  0  0  0  0  0  0  0  0  0  0  0
  -21.2242   -0.2674  -14.5983 N   0  0  0  0  0  0  0  0  0  0  0  0
  -20.2402    0.7374  -14.8623 C   0  0  0  0  0  0  0  0  0  0  0  0
  -18.7942    0.5933  -15.2021 C   0  0  0  0  0  0  0  0  0  0  0  0
  -23.8877   -0.6242  -14.1414 C   0  0  0  0  0  0  0  0  0  0  0  0
  -24.8388   -0.8976  -15.1304 C   0  0  0  0  0  0  0  0  0  0  0  0
  -26.0045   -1.3052  -14.5454 N   0  0  0  0  0  0  0  0  0  0  0  0
  -25.8297   -1.3298  -13.2319 N   0  0  0  0  0  0  0  0  0  0  0  0
  -26.8491   -1.5509  -12.1902 C   0  0  0  0  0  0  0  0  0  0  0  0
  -24.5783   -0.9858  -12.9523 C   0  0  0  0  0  0  0  0  0  0  0  0
  -14.0365    2.4946  -18.3986 C   0  0  0  0  0  0  0  0  0  0  0  0
  -14.1669    3.8672  -18.6161 C   0  0  0  0  0  0  0  0  0  0  0  0
  -15.0066    4.6362  -17.8219 C   0  0  0  0  0  0  0  0  0  0  0  0
  -15.7542    4.0288  -16.7920 C   0  0  0  0  0  0  0  0  0  0  0  0
  -15.7077    2.6614  -16.5549 C   0  0  0  0  0  0  0  0  0  0  0  0
  -14.8060    1.9007  -17.3737 C   0  0  0  0  0  0  0  0  0  0  0  0
  -13.5956    0.8281  -20.1458 C   0  0  0  0  0  0  0  0  0  0  0  0
  -13.2039    1.7244  -19.1570 O   0  0  0  0  0  0  0  0  0  0  0  0
  -15.0950    5.9584  -18.0855 O   0  0  0  0  0  0  0  0  0  0  0  0
  -14.6286    6.5399  -19.2401 C   0  0  0  0  0  0  0  0  0  0  0  0
  -15.8148    1.6215  -14.2399 C   0  0  0  0  0  0  0  0  0  0  0  0
  -15.1453    0.2445  -14.4994 C   0  0  0  0  0  0  0  0  0  0  0  0
  -15.3752   -0.8135  -13.5108 N   0  0  0  0  0  0  0  0  0  0  0  0
  -15.6582   -0.7568  -12.1912 C   0  0  0  0  0  0  0  0  0  0  0  0
  -15.8029   -2.0469  -11.7007 C   0  0  0  0  0  0  0  0  0  0  0  0
  -15.6119   -2.9047  -12.7645 C   0  0  0  0  0  0  0  0  0  0  0  0
  -15.3517   -2.1157  -13.8582 C   0  0  0  0  0  0  0  0  0  0  0  0
 24 25  1  0  0  0
 25 18  1  0  0  0
 18 19  1  0  0  0
 18 23  2  0  0  0
 19 20  2  0  0  0
 20 26  1  0  0  0
 20 21  1  0  0  0
 26 27  1  0  0  0
 21 22  2  0  0  0
 22  1  1  0  0  0
 22 23  1  0  0  0
  1 28  1  0  0  0
  1  2  1  0  0  0
 28 29  1  0  0  0
 29 30  1  0  0  0
 30 31  1  0  0  0
 30 34  1  0  0  0
 31 32  2  0  0  0
 32 33  1  0  0  0
 33 34  2  0  0  0
  2  3  1  0  0  0
  2 11  2  0  0  0
  3  4  2  0  0  0
  4  5  1  0  0  0
  5  6  1  0  0  0
  5 10  2  0  0  0
  6  7  2  0  0  0
  7  8  1  0  0  0
  8 12  1  0  0  0
  8  9  2  0  0  0
 12 13  1  0  0  0
 12 17  2  0  0  0
 13 14  2  0  0  0
 14 15  1  0  0  0
 15 16  1  0  0  0
 15 17  1  0  0  0
  9 10  1  0  0  0
 10 11  1  0  0  0
M  END
> <minimizedAffinity>
-8.10463

$$$$
