CHEMBL222778


 22 24  0  0  0  0  0  0  0  0999 V2000
  -29.3632   -4.0401   -5.9931 C   0  0  0  0  0  0  0  0  0  0  0  0
  -28.9660   -4.6152   -7.2302 C   0  0  0  0  0  0  0  0  0  0  0  0
  -29.3028   -5.9161   -7.6021 C   0  0  0  0  0  0  0  0  0  0  0  0
  -30.0377   -6.7288   -6.7479 C   0  0  0  0  0  0  0  0  0  0  0  0
  -30.4336   -6.1740   -5.5291 C   0  0  0  0  0  0  0  0  0  0  0  0
  -31.1345   -6.7389   -4.5010 N   0  0  0  0  0  0  0  0  0  0  0  0
  -31.3718   -5.9182   -3.4768 N   0  0  0  0  0  0  0  0  0  0  0  0
  -30.7940   -4.7811   -3.8456 C   0  0  0  0  0  0  0  0  0  0  0  0
  -30.8739   -3.6978   -3.0556 N   0  0  0  0  0  0  0  0  0  0  0  0
  -30.1399   -4.8679   -5.1231 C   0  0  0  0  0  0  0  0  0  0  0  0
  -31.4936   -7.6857   -4.4466 H   0  0  0  0  0  0  0  0  0  0  0  0
  -31.5055   -3.7806   -2.2674 H   0  0  0  0  0  0  0  0  0  0  0  0
  -30.8755   -2.7754   -3.4761 H   0  0  0  0  0  0  0  0  0  0  0  0
  -27.8646    1.3496   -4.7429 N   0  0  0  0  0  0  0  0  0  0  0  0
  -28.2512    0.0232   -4.9598 C   0  0  0  0  0  0  0  0  0  0  0  0
  -29.5415   -0.2787   -5.3855 C   0  0  0  0  0  0  0  0  0  0  0  0
  -29.9051   -1.5991   -5.6887 C   0  0  0  0  0  0  0  0  0  0  0  0
  -28.9709   -2.6515   -5.6574 C   0  0  0  0  0  0  0  0  0  0  0  0
  -27.6479   -2.2979   -5.3571 C   0  0  0  0  0  0  0  0  0  0  0  0
  -27.2972   -0.9907   -4.9917 C   0  0  0  0  0  0  0  0  0  0  0  0
  -28.6256    1.9624   -4.4687 H   0  0  0  0  0  0  0  0  0  0  0  0
  -27.0574    1.4432   -4.1337 H   0  0  0  0  0  0  0  0  0  0  0  0
 14 15  1  0  0  0
 14 21  1  0  0  0
 14 22  1  0  0  0
 15 16  1  0  0  0
 15 20  2  0  0  0
 16 17  2  0  0  0
 17 18  1  0  0  0
 18  1  1  0  0  0
 18 19  2  0  0  0
  1  2  1  0  0  0
  1 10  2  0  0  0
  2  3  2  0  0  0
  3  4  1  0  0  0
  4  5  2  0  0  0
  5  6  1  0  0  0
  5 10  1  0  0  0
  6  7  1  0  0  0
  6 11  1  0  0  0
  7  8  2  0  0  0
  8  9  1  0  0  0
  8 10  1  0  0  0
  9 12  1  0  0  0
  9 13  1  0  0  0
 19 20  1  0  0  0
M  END
> <minimizedAffinity>
-8.13242

$$$$
