CHEMBL3962492


 31 34  0  0  0  0  0  0  0  0999 V2000
  -29.4496   -4.9682   -6.1979 C   0  0  0  0  0  0  0  0  0  0  0  0
  -29.4317   -3.9354   -5.2532 C   0  0  0  0  0  0  0  0  0  0  0  0
  -28.9748   -2.6620   -5.5903 C   0  0  0  0  0  0  0  0  0  0  0  0
  -28.4821   -2.3907   -6.8528 C   0  0  0  0  0  0  0  0  0  0  0  0
  -28.0773   -1.1459   -7.1384 N   0  0  0  0  0  0  0  0  0  0  0  0
  -27.5795   -0.9545   -8.3835 C   0  0  0  0  0  0  0  0  0  0  0  0
  -27.4861   -1.9690   -9.3227 C   0  0  0  0  0  0  0  0  0  0  0  0
  -27.9220   -3.2182   -9.0497 N   0  0  0  0  0  0  0  0  0  0  0  0
  -28.4261   -3.4330   -7.8106 C   0  0  0  0  0  0  0  0  0  0  0  0
  -28.9167   -4.6838   -7.4685 C   0  0  0  0  0  0  0  0  0  0  0  0
  -26.8874   -1.7401  -10.6245 C   0  0  0  0  0  0  0  0  0  0  0  0
  -27.4622   -1.7134  -11.9151 C   0  0  0  0  0  0  0  0  0  0  0  0
  -26.5790   -1.4340  -12.8739 N   0  0  0  0  0  0  0  0  0  0  0  0
  -25.4248   -1.2667  -12.1969 N   0  0  0  0  0  0  0  0  0  0  0  0
  -24.2218   -0.9086  -12.9057 C   0  0  0  0  0  0  0  0  0  0  0  0
  -25.5560   -1.4457  -10.8524 C   0  0  0  0  0  0  0  0  0  0  0  0
  -30.0335   -6.2334   -5.9354 N   0  0  0  0  0  0  0  0  0  0  0  0
  -29.2841   -8.8827   -8.5212 C   0  0  0  0  0  0  0  0  0  0  0  0
  -30.5385   -9.4662   -8.6823 C   0  0  0  0  0  0  0  0  0  0  0  0
  -31.6126   -8.9522   -7.9664 C   0  0  0  0  0  0  0  0  0  0  0  0
  -32.8639   -9.4881   -8.0807 O   0  0  0  0  0  0  0  0  0  0  0  0
  -31.4504   -7.8733   -7.0964 C   0  0  0  0  0  0  0  0  0  0  0  0
  -30.1921   -7.2798   -6.8844 C   0  0  0  0  0  0  0  0  0  0  0  0
  -29.1209   -7.8089   -7.6255 C   0  0  0  0  0  0  0  0  0  0  0  0
  -32.8241  -10.2707   -8.6536 H   0  0  0  0  0  0  0  0  0  0  0  0
  -27.1176   -9.8750   -8.3773 C   0  0  0  0  0  0  0  0  0  0  0  0
  -28.1363   -9.2677   -9.1627 O   0  0  0  0  0  0  0  0  0  0  0  0
  -30.3893   -6.5138   -4.5167 C   0  0  0  0  0  0  0  0  0  0  0  0
  -29.3223   -7.3410   -3.7658 C   0  0  0  0  0  0  0  0  0  0  0  0
  -29.3456   -7.1161   -2.3588 O   0  0  0  0  0  0  0  0  0  0  0  0
  -28.8082   -6.3197   -2.2003 H   0  0  0  0  0  0  0  0  0  0  0  0
 26 27  1  0  0  0
 27 18  1  0  0  0
 18 19  1  0  0  0
 18 24  2  0  0  0
 19 20  2  0  0  0
 20 21  1  0  0  0
 20 22  1  0  0  0
 21 25  1  0  0  0
 22 23  2  0  0  0
 23 17  1  0  0  0
 23 24  1  0  0  0
 17 28  1  0  0  0
 17  1  1  0  0  0
 28 29  1  0  0  0
 29 30  1  0  0  0
 30 31  1  0  0  0
  1  2  1  0  0  0
  1 10  2  0  0  0
  2  3  2  0  0  0
  3  4  1  0  0  0
  4  5  1  0  0  0
  4  9  2  0  0  0
  5  6  2  0  0  0
  6  7  1  0  0  0
  7 11  1  0  0  0
  7  8  2  0  0  0
 11 12  1  0  0  0
 11 16  2  0  0  0
 12 13  2  0  0  0
 13 14  1  0  0  0
 14 15  1  0  0  0
 14 16  1  0  0  0
  8  9  1  0  0  0
  9 10  1  0  0  0
M  END
> <minimizedAffinity>
-8.93633

$$$$
