CHEMBL3759127


 41 45  0  0  0  0  0  0  0  0999 V2000
  -14.6671   -0.1263  -13.7718 C   0  0  0  0  0  0  0  0  0  0  0  0
  -15.5888    0.8598  -14.1082 C   0  0  0  0  0  0  0  0  0  0  0  0
  -15.4789    1.5937  -15.3076 C   0  0  0  0  0  0  0  0  0  0  0  0
  -16.3248    2.6599  -15.6460 C   0  0  0  0  0  0  0  0  0  0  0  0
  -16.1794    3.3406  -16.7949 N   0  0  0  0  0  0  0  0  0  0  0  0
  -15.1902    2.9523  -17.6017 C   0  0  0  0  0  0  0  0  0  0  0  0
  -14.3175    1.9657  -17.3660 N   0  0  0  0  0  0  0  0  0  0  0  0
  -14.4630    1.2962  -16.2180 C   0  0  0  0  0  0  0  0  0  0  0  0
  -13.5917    0.2576  -15.9129 C   0  0  0  0  0  0  0  0  0  0  0  0
  -13.6983   -0.4819  -14.7265 C   0  0  0  0  0  0  0  0  0  0  0  0
  -15.6006   -1.8858  -12.4060 C   0  0  0  0  0  0  0  0  0  0  0  0
  -14.7130   -0.7827  -12.5738 O   0  0  0  0  0  0  0  0  0  0  0  0
  -17.3493    3.0417  -14.7363 N   0  0  0  0  0  0  0  0  0  0  0  0
  -16.9509    3.1439  -13.8083 H   0  0  0  0  0  0  0  0  0  0  0  0
  -18.6548    2.5139  -14.6967 C   0  0  0  0  0  0  0  0  0  0  0  0
  -19.7212    3.3306  -14.3261 C   0  0  0  0  0  0  0  0  0  0  0  0
  -21.0119    2.8054  -14.2105 C   0  0  0  0  0  0  0  0  0  0  0  0
  -21.2754    1.4601  -14.4902 C   0  0  0  0  0  0  0  0  0  0  0  0
  -20.2283    0.6695  -14.9656 C   0  0  0  0  0  0  0  0  0  0  0  0
  -18.9348    1.1964  -15.0752 C   0  0  0  0  0  0  0  0  0  0  0  0
  -22.5385    0.8485  -14.2818 N   0  0  0  0  0  0  0  0  0  0  0  0
  -22.9152    0.1500  -13.1448 C   0  0  0  0  0  0  0  0  0  0  0  0
  -22.2613    0.0672  -12.1079 O   0  0  0  0  0  0  0  0  0  0  0  0
  -23.1968    0.9228  -15.0453 H   0  0  0  0  0  0  0  0  0  0  0  0
  -24.2228   -0.5706  -13.1666 C   0  0  0  0  0  0  0  0  0  0  0  0
  -25.0747   -0.7014  -12.0627 C   0  0  0  0  0  0  0  0  0  0  0  0
  -26.3311   -1.2981  -12.2257 C   0  0  0  0  0  0  0  0  0  0  0  0
  -26.7425   -1.7594  -13.4802 C   0  0  0  0  0  0  0  0  0  0  0  0
  -25.8977   -1.6402  -14.5758 C   0  0  0  0  0  0  0  0  0  0  0  0
  -24.6425   -1.0532  -14.4155 C   0  0  0  0  0  0  0  0  0  0  0  0
  -12.8062   -1.5319  -14.6502 O   0  0  0  0  0  0  0  0  0  0  0  0
  -13.2850   -2.7555  -15.2048 C   0  0  0  0  0  0  0  0  0  0  0  0
  -12.9267   -3.9618  -14.3383 C   0  0  0  0  0  0  0  0  0  0  0  0
  -12.7216   -5.1542  -15.2854 C   0  0  0  0  0  0  0  0  0  0  0  0
  -13.4892   -6.3610  -14.9709 N   0  0  0  0  0  0  0  0  0  0  0  0
  -12.6417   -7.5453  -14.7486 C   0  0  0  0  0  0  0  0  0  0  0  0
  -13.4918   -8.7863  -14.3823 C   0  0  0  0  0  0  0  0  0  0  0  0
  -14.3824   -8.6184  -13.2160 N   0  0  0  0  0  0  0  0  0  0  0  0
  -13.6390   -8.6496  -11.9601 C   0  0  0  0  0  0  0  0  0  0  0  0
  -15.1502   -7.3667  -13.3680 C   0  0  0  0  0  0  0  0  0  0  0  0
  -14.3131   -6.1281  -13.7620 C   0  0  0  0  0  0  0  0  0  0  0  0
 11 12  1  0  0  0
 12  1  1  0  0  0
  1  2  1  0  0  0
  1 10  2  0  0  0
  2  3  2  0  0  0
  3  4  1  0  0  0
  3  8  1  0  0  0
  4 13  1  0  0  0
  4  5  2  0  0  0
 13 15  1  0  0  0
 13 14  1  0  0  0
 15 16  1  0  0  0
 15 20  2  0  0  0
 16 17  2  0  0  0
 17 18  1  0  0  0
 18 21  1  0  0  0
 18 19  2  0  0  0
 21 22  1  0  0  0
 21 24  1  0  0  0
 22 23  2  0  0  0
 22 25  1  0  0  0
 25 26  1  0  0  0
 25 30  2  0  0  0
 26 27  2  0  0  0
 27 28  1  0  0  0
 28 29  2  0  0  0
 29 30  1  0  0  0
 19 20  1  0  0  0
  5  6  1  0  0  0
  6  7  2  0  0  0
  7  8  1  0  0  0
  8  9  2  0  0  0
  9 10  1  0  0  0
 10 31  1  0  0  0
 31 32  1  0  0  0
 32 33  1  0  0  0
 33 34  1  0  0  0
 34 35  1  0  0  0
 35 36  1  0  0  0
 35 41  1  0  0  0
 36 37  1  0  0  0
 37 38  1  0  0  0
 38 39  1  0  0  0
 38 40  1  0  0  0
 40 41  1  0  0  0
M  END
> <minimizedAffinity>
-9.43408

$$$$
