CHEMBL458333


 42 46  0  0  0  0  0  0  0  0999 V2000
  -14.7903   -0.8391  -13.8222 N   0  0  0  0  0  0  0  0  0  0  0  0
  -13.6934   -1.4751  -14.2885 N   0  0  0  0  0  0  0  0  0  0  0  0
  -13.4042   -0.8424  -15.4331 C   0  0  0  0  0  0  0  0  0  0  0  0
  -14.3209    0.2095  -15.6894 C   0  0  0  0  0  0  0  0  0  0  0  0
  -14.6085    1.1298  -16.6886 C   0  0  0  0  0  0  0  0  0  0  0  0
  -15.6688    1.9676  -16.5443 N   0  0  0  0  0  0  0  0  0  0  0  0
  -16.4433    1.8688  -15.4427 C   0  0  0  0  0  0  0  0  0  0  0  0
  -16.2279    1.0149  -14.4303 N   0  0  0  0  0  0  0  0  0  0  0  0
  -15.1801    0.2044  -14.6120 C   0  0  0  0  0  0  0  0  0  0  0  0
  -12.4039   -1.1687  -16.2908 N   0  0  0  0  0  0  0  0  0  0  0  0
  -11.4649   -1.2335  -15.9189 H   0  0  0  0  0  0  0  0  0  0  0  0
  -12.5214   -1.7175  -17.5912 C   0  0  0  0  0  0  0  0  0  0  0  0
  -12.9634   -3.0471  -17.8081 C   0  0  0  0  0  0  0  0  0  0  0  0
  -13.5032   -3.9457  -16.7238 C   0  0  0  0  0  0  0  0  0  0  0  0
  -12.9367   -3.5881  -19.1051 C   0  0  0  0  0  0  0  0  0  0  0  0
  -12.5125   -2.8283  -20.1875 C   0  0  0  0  0  0  0  0  0  0  0  0
  -12.1126   -1.5114  -19.9915 C   0  0  0  0  0  0  0  0  0  0  0  0
  -12.1089   -0.9433  -18.7065 C   0  0  0  0  0  0  0  0  0  0  0  0
  -11.6264    0.4760  -18.5575 C   0  0  0  0  0  0  0  0  0  0  0  0
  -17.5594    2.7116  -15.4096 N   0  0  0  0  0  0  0  0  0  0  0  0
  -17.4506    3.4297  -16.1119 H   0  0  0  0  0  0  0  0  0  0  0  0
  -18.8880    2.4004  -15.0717 C   0  0  0  0  0  0  0  0  0  0  0  0
  -19.4068    1.1044  -15.1602 C   0  0  0  0  0  0  0  0  0  0  0  0
  -20.7177    0.8112  -14.7942 C   0  0  0  0  0  0  0  0  0  0  0  0
  -21.5370    1.8074  -14.2790 C   0  0  0  0  0  0  0  0  0  0  0  0
  -21.0452    3.1070  -14.1758 C   0  0  0  0  0  0  0  0  0  0  0  0
  -19.7264    3.3980  -14.5550 C   0  0  0  0  0  0  0  0  0  0  0  0
  -22.8207    1.6008  -13.8491 O   0  0  0  0  0  0  0  0  0  0  0  0
  -23.1681    0.2190  -13.6631 C   0  0  0  0  0  0  0  0  0  0  0  0
  -24.0442    0.0997  -12.4124 C   0  0  0  0  0  0  0  0  0  0  0  0
  -24.4492   -1.2794  -12.0722 N   0  0  0  0  0  0  0  0  0  0  0  0
  -24.9792   -1.9618  -13.2670 C   0  0  0  0  0  0  0  0  0  0  0  0
  -26.4434   -1.5653  -13.3206 C   0  0  0  0  0  0  0  0  0  0  0  0
  -26.8497   -1.5301  -11.8603 C   0  0  0  0  0  0  0  0  0  0  0  0
  -25.5457   -1.3554  -11.0896 C   0  0  0  0  0  0  0  0  0  0  0  0
  -15.5249   -1.4158  -12.7060 C   0  0  0  0  0  0  0  0  0  0  0  0
  -15.8568   -2.8958  -12.9147 C   0  0  0  0  0  0  0  0  0  0  0  0
  -15.5847   -3.7877  -11.6772 C   0  0  0  0  0  0  0  0  0  0  0  0
  -16.6454   -4.9015  -11.6591 C   0  0  0  0  0  0  0  0  0  0  0  0
  -15.6752   -2.9683  -10.3806 C   0  0  0  0  0  0  0  0  0  0  0  0
  -13.8055   -5.2634  -10.9003 C   0  0  0  0  0  0  0  0  0  0  0  0
  -14.2656   -4.3247  -11.8621 O   0  0  0  0  0  0  0  0  0  0  0  0
 41 42  1  0  0  0
 42 38  1  0  0  0
 38 39  1  0  0  0
 38 40  1  0  0  0
 38 37  1  0  0  0
 37 36  1  0  0  0
 36  1  1  0  0  0
  1  2  1  0  0  0
  1  9  1  0  0  0
  2  3  2  0  0  0
  3 10  1  0  0  0
  3  4  1  0  0  0
 10 12  1  0  0  0
 10 11  1  0  0  0
 12 13  1  0  0  0
 12 18  2  0  0  0
 13 14  1  0  0  0
 13 15  2  0  0  0
 15 16  1  0  0  0
 16 17  2  0  0  0
 17 18  1  0  0  0
 18 19  1  0  0  0
  4  5  1  0  0  0
  4  9  2  0  0  0
  5  6  2  0  0  0
  6  7  1  0  0  0
  7 20  1  0  0  0
  7  8  2  0  0  0
 20 22  1  0  0  0
 20 21  1  0  0  0
 22 23  1  0  0  0
 22 27  2  0  0  0
 23 24  2  0  0  0
 24 25  1  0  0  0
 25 28  1  0  0  0
 25 26  2  0  0  0
 28 29  1  0  0  0
 29 30  1  0  0  0
 30 31  1  0  0  0
 31 32  1  0  0  0
 31 35  1  0  0  0
 32 33  1  0  0  0
 33 34  1  0  0  0
 34 35  1  0  0  0
 26 27  1  0  0  0
  8  9  1  0  0  0
M  END
> <minimizedAffinity>
-8.66619

$$$$
