CHEMBL4795322


 37 41  0  0  0  0  0  0  0  0999 V2000
  -29.2280  -11.1514   -4.7967 N   0  0  0  0  0  0  0  0  0  0  0  0
  -28.0513  -11.6899   -4.9715 C   0  0  0  0  0  0  0  0  0  0  0  0
  -26.8320  -11.3639   -4.0976 C   0  0  0  0  0  0  0  0  0  0  0  0
  -26.7643  -11.5133   -2.8982 O   0  0  0  0  0  0  0  0  0  0  0  0
  -25.9574  -10.7697   -4.9811 N   0  0  0  0  0  0  0  0  0  0  0  0
  -26.3448  -11.0414   -6.3054 C   0  0  0  0  0  0  0  0  0  0  0  0
  -25.7774  -10.5909   -7.4787 C   0  0  0  0  0  0  0  0  0  0  0  0
  -26.3754  -10.9871   -8.6809 C   0  0  0  0  0  0  0  0  0  0  0  0
  -27.5172  -11.8157   -8.6875 C   0  0  0  0  0  0  0  0  0  0  0  0
  -28.1895  -12.2994  -10.1960 Cl  0  0  0  0  0  0  0  0  0  0  0  0
  -28.1296  -12.2156   -7.5010 C   0  0  0  0  0  0  0  0  0  0  0  0
  -27.5155  -11.8167   -6.3313 C   0  0  0  0  0  0  0  0  0  0  0  0
  -29.0985   -9.8961   -4.2100 N   0  0  0  0  0  0  0  0  0  0  0  0
  -28.2243   -9.8037   -3.6833 H   0  0  0  0  0  0  0  0  0  0  0  0
  -29.3106   -6.4166   -5.6073 C   0  0  0  0  0  0  0  0  0  0  0  0
  -29.5990   -7.2430   -4.1192 S   0  0  0  0  0  0  0  0  0  0  0  0
  -29.2320   -8.7280   -4.8742 C   0  0  0  0  0  0  0  0  0  0  0  0
  -28.9473   -8.6689   -6.1563 N   0  0  0  0  0  0  0  0  0  0  0  0
  -29.0365   -7.3605   -6.5953 C   0  0  0  0  0  0  0  0  0  0  0  0
  -28.7911   -7.1041   -8.0436 C   0  0  0  0  0  0  0  0  0  0  0  0
  -28.3011   -4.4771   -5.3515 N   0  0  0  0  0  0  0  0  0  0  0  0
  -29.3707   -5.0579   -5.6102 N   0  0  0  0  0  0  0  0  0  0  0  0
  -28.8362   -0.2868   -5.2119 C   0  0  0  0  0  0  0  0  0  0  0  0
  -27.5429   -0.8023   -5.1402 C   0  0  0  0  0  0  0  0  0  0  0  0
  -27.3381   -2.1886   -5.1668 C   0  0  0  0  0  0  0  0  0  0  0  0
  -28.4188   -3.0774   -5.2669 C   0  0  0  0  0  0  0  0  0  0  0  0
  -29.7101   -2.5450   -5.3388 C   0  0  0  0  0  0  0  0  0  0  0  0
  -29.9163   -1.1650   -5.3134 C   0  0  0  0  0  0  0  0  0  0  0  0
  -30.3945    1.3889   -5.8495 C   0  0  0  0  0  0  0  0  0  0  0  0
  -29.1830    1.0338   -5.1974 O   0  0  0  0  0  0  0  0  0  0  0  0
  -24.9042   -9.8864   -4.5599 C   0  0  0  0  0  0  0  0  0  0  0  0
  -23.6132  -10.5902   -4.2579 C   0  0  0  0  0  0  0  0  0  0  0  0
  -23.2717  -10.9048   -2.9363 C   0  0  0  0  0  0  0  0  0  0  0  0
  -22.1029  -11.6105   -2.6605 C   0  0  0  0  0  0  0  0  0  0  0  0
  -21.2643  -12.0046   -3.7043 C   0  0  0  0  0  0  0  0  0  0  0  0
  -21.5905  -11.6879   -5.0220 C   0  0  0  0  0  0  0  0  0  0  0  0
  -22.7604  -10.9819   -5.2983 C   0  0  0  0  0  0  0  0  0  0  0  0
 29 30  1  0  0  0
 30 23  1  0  0  0
 23 24  1  0  0  0
 23 28  2  0  0  0
 24 25  2  0  0  0
 25 26  1  0  0  0
 26 21  1  0  0  0
 26 27  2  0  0  0
 21 22  2  0  0  0
 22 15  1  0  0  0
 15 16  1  0  0  0
 15 19  2  0  0  0
 16 17  1  0  0  0
 17 13  1  0  0  0
 17 18  2  0  0  0
 13  1  1  0  0  0
 13 14  1  0  0  0
  1  2  2  0  0  0
  2  3  1  0  0  0
  2 12  1  0  0  0
  3  4  2  0  0  0
  3  5  1  0  0  0
  5 31  1  0  0  0
  5  6  1  0  0  0
 31 32  1  0  0  0
 32 33  1  0  0  0
 32 37  2  0  0  0
 33 34  2  0  0  0
 34 35  1  0  0  0
 35 36  2  0  0  0
 36 37  1  0  0  0
  6  7  1  0  0  0
  6 12  2  0  0  0
  7  8  2  0  0  0
  8  9  1  0  0  0
  9 10  1  0  0  0
  9 11  2  0  0  0
 11 12  1  0  0  0
 18 19  1  0  0  0
 19 20  1  0  0  0
 27 28  1  0  0  0
M  END
> <minimizedAffinity>
-8.90319

$$$$
