CHEMBL2332849


 33 36  0  0  0  0  0  0  0  0999 V2000
  -25.7161   -1.4726  -12.3313 C   0  0  0  0  0  0  0  0  0  0  0  0
  -25.6296   -1.5365  -13.7233 C   0  0  0  0  0  0  0  0  0  0  0  0
  -24.4560   -1.1835  -14.3898 C   0  0  0  0  0  0  0  0  0  0  0  0
  -23.3645   -0.6906  -13.6799 C   0  0  0  0  0  0  0  0  0  0  0  0
  -23.4465   -0.5975  -12.2888 C   0  0  0  0  0  0  0  0  0  0  0  0
  -24.6192   -0.9770  -11.6174 C   0  0  0  0  0  0  0  0  0  0  0  0
  -25.9709   -1.8186   -9.4712 O   0  0  0  0  0  0  0  0  0  0  0  0
  -26.9086   -2.0483  -10.2245 C   0  0  0  0  0  0  0  0  0  0  0  0
  -26.8475   -1.9197  -11.6061 N   0  0  0  0  0  0  0  0  0  0  0  0
  -28.1657   -2.4388   -9.7954 N   0  0  0  0  0  0  0  0  0  0  0  0
  -27.7189   -1.9543  -12.1107 H   0  0  0  0  0  0  0  0  0  0  0  0
  -28.8184   -2.7440  -10.5000 H   0  0  0  0  0  0  0  0  0  0  0  0
  -28.5837   -2.5587   -8.4479 C   0  0  0  0  0  0  0  0  0  0  0  0
  -28.2957   -1.6149   -7.4570 C   0  0  0  0  0  0  0  0  0  0  0  0
  -28.7166   -1.8007   -6.1372 C   0  0  0  0  0  0  0  0  0  0  0  0
  -29.4473   -2.9356   -5.7772 C   0  0  0  0  0  0  0  0  0  0  0  0
  -29.7642   -3.8711   -6.7730 C   0  0  0  0  0  0  0  0  0  0  0  0
  -29.3349   -3.6846   -8.0944 C   0  0  0  0  0  0  0  0  0  0  0  0
  -29.8809   -3.1534   -4.3494 C   0  0  0  0  0  0  0  0  0  0  0  0
  -29.0065   -3.9010   -3.6191 F   0  0  0  0  0  0  0  0  0  0  0  0
  -30.0332   -1.9851   -3.6669 F   0  0  0  0  0  0  0  0  0  0  0  0
  -31.0792   -3.7953   -4.2639 F   0  0  0  0  0  0  0  0  0  0  0  0
  -22.1593   -0.3543  -14.2559 O   0  0  0  0  0  0  0  0  0  0  0  0
  -21.8079    0.9883  -14.3127 C   0  0  0  0  0  0  0  0  0  0  0  0
  -22.6927    1.9447  -13.9286 N   0  0  0  0  0  0  0  0  0  0  0  0
  -22.3179    3.2338  -14.0282 C   0  0  0  0  0  0  0  0  0  0  0  0
  -21.1316    3.7202  -14.4350 N   0  0  0  0  0  0  0  0  0  0  0  0
  -20.2818    2.7285  -14.7520 C   0  0  0  0  0  0  0  0  0  0  0  0
  -18.9943    2.8623  -15.1801 N   0  0  0  0  0  0  0  0  0  0  0  0
  -18.3810    1.6834  -15.4262 N   0  0  0  0  0  0  0  0  0  0  0  0
  -19.3294    0.7800  -15.1443 C   0  0  0  0  0  0  0  0  0  0  0  0
  -20.5332    1.3706  -14.7174 C   0  0  0  0  0  0  0  0  0  0  0  0
  -18.4844    3.7252  -15.3234 H   0  0  0  0  0  0  0  0  0  0  0  0
  7  8  2  0  0  0
  8  9  1  0  0  0
  8 10  1  0  0  0
  9  1  1  0  0  0
  9 11  1  0  0  0
  1  2  1  0  0  0
  1  6  2  0  0  0
  2  3  2  0  0  0
  3  4  1  0  0  0
  4 23  1  0  0  0
  4  5  2  0  0  0
 23 24  1  0  0  0
 24 25  1  0  0  0
 24 32  2  0  0  0
 25 26  2  0  0  0
 26 27  1  0  0  0
 27 28  2  0  0  0
 28 29  1  0  0  0
 28 32  1  0  0  0
 29 30  1  0  0  0
 29 33  1  0  0  0
 30 31  2  0  0  0
 31 32  1  0  0  0
  5  6  1  0  0  0
 10 13  1  0  0  0
 10 12  1  0  0  0
 13 14  1  0  0  0
 13 18  2  0  0  0
 14 15  2  0  0  0
 15 16  1  0  0  0
 16 19  1  0  0  0
 16 17  2  0  0  0
 19 20  1  0  0  0
 19 21  1  0  0  0
 19 22  1  0  0  0
 17 18  1  0  0  0
M  END
> <minimizedAffinity>
-11.14613

$$$$
