CHEMBL434311


 33 36  0  0  0  0  0  0  0  0999 V2000
  -29.2386   -5.3593   -7.2646 C   0  0  0  0  0  0  0  0  0  0  0  0
  -28.5370   -4.5271   -8.1401 C   0  0  0  0  0  0  0  0  0  0  0  0
  -28.3279   -3.1626   -7.8489 C   0  0  0  0  0  0  0  0  0  0  0  0
  -27.6511   -2.2707   -8.7035 C   0  0  0  0  0  0  0  0  0  0  0  0
  -27.3989   -0.9976   -8.3539 N   0  0  0  0  0  0  0  0  0  0  0  0
  -27.8737   -0.6034   -7.1669 C   0  0  0  0  0  0  0  0  0  0  0  0
  -28.5662   -1.3507   -6.3007 N   0  0  0  0  0  0  0  0  0  0  0  0
  -28.7820   -2.6248   -6.6437 C   0  0  0  0  0  0  0  0  0  0  0  0
  -29.4509   -3.4657   -5.7612 C   0  0  0  0  0  0  0  0  0  0  0  0
  -29.6538   -4.8280   -6.0290 C   0  0  0  0  0  0  0  0  0  0  0  0
  -28.6082   -7.4417   -8.2971 C   0  0  0  0  0  0  0  0  0  0  0  0
  -29.5408   -6.6602   -7.5578 O   0  0  0  0  0  0  0  0  0  0  0  0
  -27.2648   -2.7192   -9.9874 N   0  0  0  0  0  0  0  0  0  0  0  0
  -27.9945   -3.2946  -10.4014 H   0  0  0  0  0  0  0  0  0  0  0  0
  -26.4974   -2.0345  -10.9497 C   0  0  0  0  0  0  0  0  0  0  0  0
  -25.1649   -1.6812  -10.7098 C   0  0  0  0  0  0  0  0  0  0  0  0
  -24.3637   -1.1822  -11.7402 C   0  0  0  0  0  0  0  0  0  0  0  0
  -24.8938   -1.0277  -13.0200 C   0  0  0  0  0  0  0  0  0  0  0  0
  -23.8792   -0.4906  -14.3008 Cl  0  0  0  0  0  0  0  0  0  0  0  0
  -26.2254   -1.3354  -13.2747 C   0  0  0  0  0  0  0  0  0  0  0  0
  -27.0084   -1.8413  -12.2421 C   0  0  0  0  0  0  0  0  0  0  0  0
  -28.2846   -2.1721  -12.4992 F   0  0  0  0  0  0  0  0  0  0  0  0
  -30.2570   -5.5015   -4.9858 O   0  0  0  0  0  0  0  0  0  0  0  0
  -29.3826   -5.8702   -3.9226 C   0  0  0  0  0  0  0  0  0  0  0  0
  -29.1754   -7.3889   -3.8386 C   0  0  0  0  0  0  0  0  0  0  0  0
  -27.8893   -7.7007   -4.6089 C   0  0  0  0  0  0  0  0  0  0  0  0
  -27.5197   -9.1801   -4.7542 C   0  0  0  0  0  0  0  0  0  0  0  0
  -26.5986   -9.5643   -3.6701 N   0  0  0  0  0  0  0  0  0  0  0  0
  -25.2377   -8.9942   -3.7765 C   0  0  0  0  0  0  0  0  0  0  0  0
  -24.3126   -9.7285   -4.7577 C   0  0  0  0  0  0  0  0  0  0  0  0
  -24.2172  -11.1180   -4.4300 O   0  0  0  0  0  0  0  0  0  0  0  0
  -25.5152  -11.7228   -4.4581 C   0  0  0  0  0  0  0  0  0  0  0  0
  -26.4883  -11.0263   -3.4919 C   0  0  0  0  0  0  0  0  0  0  0  0
 11 12  1  0  0  0
 12  1  1  0  0  0
  1  2  1  0  0  0
  1 10  2  0  0  0
  2  3  2  0  0  0
  3  4  1  0  0  0
  3  8  1  0  0  0
  4 13  1  0  0  0
  4  5  2  0  0  0
 13 15  1  0  0  0
 13 14  1  0  0  0
 15 16  1  0  0  0
 15 21  2  0  0  0
 16 17  2  0  0  0
 17 18  1  0  0  0
 18 19  1  0  0  0
 18 20  2  0  0  0
 20 21  1  0  0  0
 21 22  1  0  0  0
  5  6  1  0  0  0
  6  7  2  0  0  0
  7  8  1  0  0  0
  8  9  2  0  0  0
  9 10  1  0  0  0
 10 23  1  0  0  0
 23 24  1  0  0  0
 24 25  1  0  0  0
 25 26  1  0  0  0
 26 27  1  0  0  0
 27 28  1  0  0  0
 28 29  1  0  0  0
 28 33  1  0  0  0
 29 30  1  0  0  0
 30 31  1  0  0  0
 31 32  1  0  0  0
 32 33  1  0  0  0
M  END
> <minimizedAffinity>
-8.41566

$$$$
