CHEMBL3128233


 40 44  0  0  0  0  0  0  0  0999 V2000
  -26.0497   -1.9944  -11.4338 C   0  0  0  0  0  0  0  0  0  0  0  0
  -26.8154   -1.9886  -12.5995 C   0  0  0  0  0  0  0  0  0  0  0  0
  -26.2484   -1.6612  -13.8273 C   0  0  0  0  0  0  0  0  0  0  0  0
  -24.9071   -1.2961  -13.9023 C   0  0  0  0  0  0  0  0  0  0  0  0
  -24.1282   -1.2023  -12.7388 C   0  0  0  0  0  0  0  0  0  0  0  0
  -24.7098   -1.5685  -11.5032 C   0  0  0  0  0  0  0  0  0  0  0  0
  -27.6385   -1.7780   -9.5254 C   0  0  0  0  0  0  0  0  0  0  0  0
  -28.2846   -0.8138   -9.9286 O   0  0  0  0  0  0  0  0  0  0  0  0
  -26.5930   -2.4133  -10.1941 N   0  0  0  0  0  0  0  0  0  0  0  0
  -26.2881   -3.3148   -9.8510 H   0  0  0  0  0  0  0  0  0  0  0  0
  -28.8923   -3.5043   -5.7884 C   0  0  0  0  0  0  0  0  0  0  0  0
  -29.1342   -4.1589   -7.0055 C   0  0  0  0  0  0  0  0  0  0  0  0
  -28.7139   -3.5997   -8.2143 C   0  0  0  0  0  0  0  0  0  0  0  0
  -28.0529   -2.3664   -8.2263 C   0  0  0  0  0  0  0  0  0  0  0  0
  -27.8451   -1.6928   -7.0244 C   0  0  0  0  0  0  0  0  0  0  0  0
  -28.2325   -2.2627   -5.8048 C   0  0  0  0  0  0  0  0  0  0  0  0
  -28.4595   -4.8440   -3.8789 C   0  0  0  0  0  0  0  0  0  0  0  0
  -29.3507   -3.9914   -4.5923 O   0  0  0  0  0  0  0  0  0  0  0  0
  -27.9302   -1.4597   -4.7362 O   0  0  0  0  0  0  0  0  0  0  0  0
  -27.8697   -0.0611   -4.9799 C   0  0  0  0  0  0  0  0  0  0  0  0
  -22.6855   -0.7255  -12.8315 C   0  0  0  0  0  0  0  0  0  0  0  0
  -22.4171   -0.2368  -14.1710 N   0  0  0  0  0  0  0  0  0  0  0  0
  -23.1897   -0.3820  -14.8102 H   0  0  0  0  0  0  0  0  0  0  0  0
  -21.8668    1.0402  -14.2893 C   0  0  0  0  0  0  0  0  0  0  0  0
  -22.5657    2.1448  -13.9504 N   0  0  0  0  0  0  0  0  0  0  0  0
  -21.9655    3.3519  -14.0330 C   0  0  0  0  0  0  0  0  0  0  0  0
  -20.7066    3.6339  -14.4405 N   0  0  0  0  0  0  0  0  0  0  0  0
  -20.0440    2.5163  -14.7706 C   0  0  0  0  0  0  0  0  0  0  0  0
  -20.5443    1.2283  -14.7302 C   0  0  0  0  0  0  0  0  0  0  0  0
  -19.4844    0.4164  -15.1755 C   0  0  0  0  0  0  0  0  0  0  0  0
  -18.3870    1.1175  -15.4883 N   0  0  0  0  0  0  0  0  0  0  0  0
  -18.7396    2.3984  -15.2070 N   0  0  0  0  0  0  0  0  0  0  0  0
  -17.7387    3.4334  -15.4149 C   0  0  0  0  0  0  0  0  0  0  0  0
  -16.3453    2.9221  -15.7754 C   0  0  0  0  0  0  0  0  0  0  0  0
  -15.4038    3.9128  -16.4229 C   0  0  0  0  0  0  0  0  0  0  0  0
  -14.2518    4.2855  -15.7096 C   0  0  0  0  0  0  0  0  0  0  0  0
  -13.2964    5.1269  -16.2766 C   0  0  0  0  0  0  0  0  0  0  0  0
  -13.4746    5.6024  -17.5715 C   0  0  0  0  0  0  0  0  0  0  0  0
  -14.6128    5.2446  -18.2920 C   0  0  0  0  0  0  0  0  0  0  0  0
  -15.5731    4.4026  -17.7235 C   0  0  0  0  0  0  0  0  0  0  0  0
 17 18  1  0  0  0
 18 11  1  0  0  0
 11 12  1  0  0  0
 11 16  2  0  0  0
 12 13  2  0  0  0
 13 14  1  0  0  0
 14  7  1  0  0  0
 14 15  2  0  0  0
  7  8  2  0  0  0
  7  9  1  0  0  0
  9  1  1  0  0  0
  9 10  1  0  0  0
  1  2  1  0  0  0
  1  6  2  0  0  0
  2  3  2  0  0  0
  3  4  1  0  0  0
  4  5  2  0  0  0
  5 21  1  0  0  0
  5  6  1  0  0  0
 21 22  1  0  0  0
 22 24  1  0  0  0
 22 23  1  0  0  0
 24 25  1  0  0  0
 24 29  2  0  0  0
 25 26  2  0  0  0
 26 27  1  0  0  0
 27 28  2  0  0  0
 28 29  1  0  0  0
 28 32  1  0  0  0
 29 30  1  0  0  0
 30 31  2  0  0  0
 31 32  1  0  0  0
 32 33  1  0  0  0
 33 34  1  0  0  0
 34 35  1  0  0  0
 35 36  1  0  0  0
 35 40  2  0  0  0
 36 37  2  0  0  0
 37 38  1  0  0  0
 38 39  2  0  0  0
 39 40  1  0  0  0
 15 16  1  0  0  0
 16 19  1  0  0  0
 19 20  1  0  0  0
M  END
> <minimizedAffinity>
-10.83212

$$$$
