CHEMBL472503


 35 38  0  0  0  0  0  0  0  0999 V2000
  -20.1777    2.0593  -15.1457 C   0  0  0  0  0  0  0  0  0  0  0  0
  -20.2737    0.6626  -15.1494 C   0  0  0  0  0  0  0  0  0  0  0  0
  -21.3517    0.0184  -14.5325 C   0  0  0  0  0  0  0  0  0  0  0  0
  -22.3566    0.7668  -13.9127 C   0  0  0  0  0  0  0  0  0  0  0  0
  -22.2288    2.1622  -13.8589 C   0  0  0  0  0  0  0  0  0  0  0  0
  -21.1304    2.8060  -14.4517 C   0  0  0  0  0  0  0  0  0  0  0  0
  -23.5406    0.0969  -13.3551 C   0  0  0  0  0  0  0  0  0  0  0  0
  -23.7592    0.0623  -11.8695 C   0  0  0  0  0  0  0  0  0  0  0  0
  -24.7538   -0.4906  -11.2325 N   0  0  0  0  0  0  0  0  0  0  0  0
  -25.6858   -1.0972  -12.0273 C   0  0  0  0  0  0  0  0  0  0  0  0
  -26.8484   -1.7781  -11.7104 C   0  0  0  0  0  0  0  0  0  0  0  0
  -27.3703   -2.1864  -12.9484 C   0  0  0  0  0  0  0  0  0  0  0  0
  -26.6180   -1.8094  -13.9832 N   0  0  0  0  0  0  0  0  0  0  0  0
  -25.5863   -1.1138  -13.4213 N   0  0  0  0  0  0  0  0  0  0  0  0
  -24.5030   -0.4925  -14.0998 C   0  0  0  0  0  0  0  0  0  0  0  0
  -24.5158   -0.5526  -15.4930 N   0  0  0  0  0  0  0  0  0  0  0  0
  -25.1292   -1.2984  -15.8360 H   0  0  0  0  0  0  0  0  0  0  0  0
  -23.5990   -0.5318  -15.9288 H   0  0  0  0  0  0  0  0  0  0  0  0
  -27.3989   -2.0204  -10.3949 C   0  0  0  0  0  0  0  0  0  0  0  0
  -28.1508   -1.2366   -9.8327 O   0  0  0  0  0  0  0  0  0  0  0  0
  -27.0218   -3.1928   -9.8192 O   0  0  0  0  0  0  0  0  0  0  0  0
  -26.4162   -3.6977  -10.4096 H   0  0  0  0  0  0  0  0  0  0  0  0
  -16.9700    3.2793  -16.3472 N   0  0  0  0  0  0  0  0  0  0  0  0
  -17.8422    2.6090  -15.5020 C   0  0  0  0  0  0  0  0  0  0  0  0
  -17.5052    1.9329  -14.5318 O   0  0  0  0  0  0  0  0  0  0  0  0
  -19.1728    2.7290  -15.8964 N   0  0  0  0  0  0  0  0  0  0  0  0
  -17.3749    3.9538  -16.9794 H   0  0  0  0  0  0  0  0  0  0  0  0
  -19.3022    2.7484  -16.8979 H   0  0  0  0  0  0  0  0  0  0  0  0
  -12.6807    5.5381  -15.2248 C   0  0  0  0  0  0  0  0  0  0  0  0
  -13.4374    4.3443  -15.7323 C   0  0  0  0  0  0  0  0  0  0  0  0
  -12.7331    3.2047  -16.1326 C   0  0  0  0  0  0  0  0  0  0  0  0
  -13.4177    2.0945  -16.6064 C   0  0  0  0  0  0  0  0  0  0  0  0
  -14.8098    2.1125  -16.6846 C   0  0  0  0  0  0  0  0  0  0  0  0
  -15.5493    3.2295  -16.2818 C   0  0  0  0  0  0  0  0  0  0  0  0
  -14.8467    4.3506  -15.8081 C   0  0  0  0  0  0  0  0  0  0  0  0
 29 30  1  0  0  0
 30 31  1  0  0  0
 30 35  2  0  0  0
 31 32  2  0  0  0
 32 33  1  0  0  0
 33 34  2  0  0  0
 34 23  1  0  0  0
 34 35  1  0  0  0
 23 24  1  0  0  0
 23 27  1  0  0  0
 24 25  2  0  0  0
 24 26  1  0  0  0
 26  1  1  0  0  0
 26 28  1  0  0  0
  1  2  1  0  0  0
  1  6  2  0  0  0
  2  3  2  0  0  0
  3  4  1  0  0  0
  4  7  1  0  0  0
  4  5  2  0  0  0
  7  8  1  0  0  0
  7 15  2  0  0  0
  8  9  2  0  0  0
  9 10  1  0  0  0
 10 11  2  0  0  0
 10 14  1  0  0  0
 11 19  1  0  0  0
 11 12  1  0  0  0
 19 20  2  0  0  0
 19 21  1  0  0  0
 21 22  1  0  0  0
 12 13  2  0  0  0
 13 14  1  0  0  0
 14 15  1  0  0  0
 15 16  1  0  0  0
 16 17  1  0  0  0
 16 18  1  0  0  0
  5  6  1  0  0  0
M  END
> <minimizedAffinity>
-9.81845

$$$$
