CHEMBL565612


 35 40  0  0  0  0  0  0  0  0999 V2000
  -30.6781   -9.7465   -7.3593 C   0  0  0  0  0  0  0  0  0  0  0  0
  -31.2142   -8.5365   -7.1363 C   0  0  0  0  0  0  0  0  0  0  0  0
  -32.6768   -8.7248   -7.0108 C   0  0  0  0  0  0  0  0  0  0  0  0
  -33.4980   -7.8819   -6.7045 O   0  0  0  0  0  0  0  0  0  0  0  0
  -32.9293  -10.0321   -7.2386 N   0  0  0  0  0  0  0  0  0  0  0  0
  -31.7782  -10.7233   -7.3701 C   0  0  0  0  0  0  0  0  0  0  0  0
  -31.6666  -11.9348   -7.4118 O   0  0  0  0  0  0  0  0  0  0  0  0
  -33.8364  -10.4541   -7.1414 H   0  0  0  0  0  0  0  0  0  0  0  0
  -27.3831  -10.7282   -6.2763 C   0  0  0  0  0  0  0  0  0  0  0  0
  -28.6733  -10.3677   -6.2533 N   0  0  0  0  0  0  0  0  0  0  0  0
  -29.2659  -10.0940   -7.4385 C   0  0  0  0  0  0  0  0  0  0  0  0
  -28.6085  -10.1713   -8.6721 C   0  0  0  0  0  0  0  0  0  0  0  0
  -29.1622   -9.8770   -9.9470 C   0  0  0  0  0  0  0  0  0  0  0  0
  -28.4123  -10.0494  -11.1065 C   0  0  0  0  0  0  0  0  0  0  0  0
  -27.1003  -10.4884  -11.0070 C   0  0  0  0  0  0  0  0  0  0  0  0
  -26.5501  -10.7424   -9.7487 C   0  0  0  0  0  0  0  0  0  0  0  0
  -27.2871  -10.5937   -8.5815 C   0  0  0  0  0  0  0  0  0  0  0  0
  -26.6937  -10.8615   -7.4182 N   0  0  0  0  0  0  0  0  0  0  0  0
  -24.4050  -11.9543   -1.7012 C   0  0  0  0  0  0  0  0  0  0  0  0
  -25.3084  -11.1964   -2.5661 N   0  0  0  0  0  0  0  0  0  0  0  0
  -24.6095  -10.7762   -3.8054 C   0  0  0  0  0  0  0  0  0  0  0  0
  -25.5351  -10.0442   -4.8110 C   0  0  0  0  0  0  0  0  0  0  0  0
  -26.6925  -10.8883   -5.0960 N   0  0  0  0  0  0  0  0  0  0  0  0
  -27.4406  -11.3152   -3.9098 C   0  0  0  0  0  0  0  0  0  0  0  0
  -26.4840  -12.0236   -2.9248 C   0  0  0  0  0  0  0  0  0  0  0  0
  -30.5687   -7.2887   -6.9695 C   0  0  0  0  0  0  0  0  0  0  0  0
  -29.7168   -6.7333   -7.8984 C   0  0  0  0  0  0  0  0  0  0  0  0
  -29.2765   -5.5378   -7.3952 N   0  0  0  0  0  0  0  0  0  0  0  0
  -29.8134   -5.3174   -6.1465 C   0  0  0  0  0  0  0  0  0  0  0  0
  -29.6250   -4.2469   -5.2637 C   0  0  0  0  0  0  0  0  0  0  0  0
  -30.2983   -4.2880   -4.0399 C   0  0  0  0  0  0  0  0  0  0  0  0
  -31.1421   -5.3480   -3.7221 C   0  0  0  0  0  0  0  0  0  0  0  0
  -31.3350   -6.4006   -4.6247 C   0  0  0  0  0  0  0  0  0  0  0  0
  -30.6467   -6.4001   -5.8563 C   0  0  0  0  0  0  0  0  0  0  0  0
  -28.6416   -4.9068   -7.8639 H   0  0  0  0  0  0  0  0  0  0  0  0
 19 20  1  0  0  0
 20 21  1  0  0  0
 20 25  1  0  0  0
 21 22  1  0  0  0
 22 23  1  0  0  0
 23  9  1  0  0  0
 23 24  1  0  0  0
  9 10  1  0  0  0
  9 18  2  0  0  0
 10 11  2  0  0  0
 11  1  1  0  0  0
 11 12  1  0  0  0
  1  2  2  0  0  0
  1  6  1  0  0  0
  2 26  1  0  0  0
  2  3  1  0  0  0
 26 27  2  0  0  0
 26 34  1  0  0  0
 27 28  1  0  0  0
 28 29  1  0  0  0
 28 35  1  0  0  0
 29 30  1  0  0  0
 29 34  2  0  0  0
 30 31  2  0  0  0
 31 32  1  0  0  0
 32 33  2  0  0  0
 33 34  1  0  0  0
  3  4  2  0  0  0
  3  5  1  0  0  0
  5  6  1  0  0  0
  5  8  1  0  0  0
  6  7  2  0  0  0
 12 13  1  0  0  0
 12 17  2  0  0  0
 13 14  2  0  0  0
 14 15  1  0  0  0
 15 16  2  0  0  0
 16 17  1  0  0  0
 17 18  1  0  0  0
 24 25  1  0  0  0
M  END
> <minimizedAffinity>
-8.88236

$$$$
