CHEMBL202378


 30 34  0  0  0  0  0  0  0  0999 V2000
  -13.6755   -0.3033  -15.5124 C   0  0  0  0  0  0  0  0  0  0  0  0
  -14.3740   -0.8558  -14.4343 C   0  0  0  0  0  0  0  0  0  0  0  0
  -14.2334   -2.2078  -14.0851 C   0  0  0  0  0  0  0  0  0  0  0  0
  -14.7888   -2.6759  -12.8896 C   0  0  0  0  0  0  0  0  0  0  0  0
  -14.6762   -4.0003  -12.3965 C   0  0  0  0  0  0  0  0  0  0  0  0
  -13.9690   -4.9026  -13.2290 C   0  0  0  0  0  0  0  0  0  0  0  0
  -13.7562   -6.2484  -12.9026 C   0  0  0  0  0  0  0  0  0  0  0  0
  -14.0552   -7.1680  -11.8723 C   0  0  0  0  0  0  0  0  0  0  0  0
  -13.6267   -8.5011  -11.9562 C   0  0  0  0  0  0  0  0  0  0  0  0
  -12.9035   -8.9439  -13.0486 C   0  0  0  0  0  0  0  0  0  0  0  0
  -12.5870   -8.0627  -14.0782 C   0  0  0  0  0  0  0  0  0  0  0  0
  -13.0159   -6.7212  -13.9919 C   0  0  0  0  0  0  0  0  0  0  0  0
  -12.8205   -5.6621  -14.8806 N   0  0  0  0  0  0  0  0  0  0  0  0
  -12.0819   -5.8567  -16.1086 C   0  0  0  0  0  0  0  0  0  0  0  0
  -13.4111   -4.4766  -14.4210 C   0  0  0  0  0  0  0  0  0  0  0  0
  -13.4883   -3.0987  -14.8994 C   0  0  0  0  0  0  0  0  0  0  0  0
  -12.8726   -2.5271  -16.0777 C   0  0  0  0  0  0  0  0  0  0  0  0
  -12.9316   -1.1364  -16.3553 C   0  0  0  0  0  0  0  0  0  0  0  0
  -15.3182   -4.0918  -11.1208 C   0  0  0  0  0  0  0  0  0  0  0  0
  -15.4770   -4.9734  -10.2877 O   0  0  0  0  0  0  0  0  0  0  0  0
  -15.7958   -2.8294  -10.9195 N   0  0  0  0  0  0  0  0  0  0  0  0
  -15.5178   -1.9157  -11.8914 C   0  0  0  0  0  0  0  0  0  0  0  0
  -15.8555   -0.7415  -11.8042 O   0  0  0  0  0  0  0  0  0  0  0  0
  -16.2792   -2.5780  -10.0729 H   0  0  0  0  0  0  0  0  0  0  0  0
  -14.8490    1.5293  -16.4442 C   0  0  0  0  0  0  0  0  0  0  0  0
  -13.6986    1.0470  -15.7486 O   0  0  0  0  0  0  0  0  0  0  0  0
  -12.2123   -3.4255  -16.8647 O   0  0  0  0  0  0  0  0  0  0  0  0
  -12.4867   -3.6210  -18.2407 C   0  0  0  0  0  0  0  0  0  0  0  0
  -12.1196   -0.6864  -17.3637 O   0  0  0  0  0  0  0  0  0  0  0  0
  -10.7895   -0.2827  -17.0875 C   0  0  0  0  0  0  0  0  0  0  0  0
 25 26  1  0  0  0
 26  1  1  0  0  0
  1  2  1  0  0  0
  1 18  2  0  0  0
  2  3  2  0  0  0
  3  4  1  0  0  0
  3 16  1  0  0  0
  4  5  2  0  0  0
  4 22  1  0  0  0
  5  6  1  0  0  0
  5 19  1  0  0  0
  6  7  1  0  0  0
  6 15  2  0  0  0
  7  8  1  0  0  0
  7 12  2  0  0  0
  8  9  2  0  0  0
  9 10  1  0  0  0
 10 11  2  0  0  0
 11 12  1  0  0  0
 12 13  1  0  0  0
 13 14  1  0  0  0
 13 15  1  0  0  0
 15 16  1  0  0  0
 16 17  2  0  0  0
 17 27  1  0  0  0
 17 18  1  0  0  0
 27 28  1  0  0  0
 18 29  1  0  0  0
 29 30  1  0  0  0
 19 20  2  0  0  0
 19 21  1  0  0  0
 21 22  1  0  0  0
 21 24  1  0  0  0
 22 23  2  0  0  0
M  END
> <minimizedAffinity>
-6.29826

$$$$
