CHEMBL250665


 26 28  0  0  0  0  0  0  0  0999 V2000
  -15.3141    1.0357  -15.3546 C   0  0  0  0  0  0  0  0  0  0  0  0
  -15.1212    1.7192  -16.5465 C   0  0  0  0  0  0  0  0  0  0  0  0
  -14.0167    1.6218  -17.3116 N   0  0  0  0  0  0  0  0  0  0  0  0
  -13.0858    0.7895  -16.8465 C   0  0  0  0  0  0  0  0  0  0  0  0
  -13.1723    0.0680  -15.7154 N   0  0  0  0  0  0  0  0  0  0  0  0
  -14.3024    0.1629  -14.9726 C   0  0  0  0  0  0  0  0  0  0  0  0
  -16.6813    0.9635  -13.5122 O   0  0  0  0  0  0  0  0  0  0  0  0
  -16.6333    1.1887  -14.7198 C   0  0  0  0  0  0  0  0  0  0  0  0
  -17.6977    1.5555  -15.5195 N   0  0  0  0  0  0  0  0  0  0  0  0
  -17.5232    1.6473  -16.5171 H   0  0  0  0  0  0  0  0  0  0  0  0
  -19.0336    1.7376  -15.0835 C   0  0  0  0  0  0  0  0  0  0  0  0
  -19.5485    2.9591  -14.6310 C   0  0  0  0  0  0  0  0  0  0  0  0
  -20.8725    3.0689  -14.1913 C   0  0  0  0  0  0  0  0  0  0  0  0
  -21.6988    1.9497  -14.2098 C   0  0  0  0  0  0  0  0  0  0  0  0
  -23.3238    2.0828  -13.6617 Cl  0  0  0  0  0  0  0  0  0  0  0  0
  -21.2102    0.7330  -14.6653 C   0  0  0  0  0  0  0  0  0  0  0  0
  -19.8829    0.6224  -15.1006 C   0  0  0  0  0  0  0  0  0  0  0  0
  -14.3761   -0.6231  -13.7853 N   0  0  0  0  0  0  0  0  0  0  0  0
  -15.0745   -0.2329  -13.1553 H   0  0  0  0  0  0  0  0  0  0  0  0
  -14.7814   -1.9991  -14.1281 C   0  0  0  0  0  0  0  0  0  0  0  0
  -15.4599   -2.7223  -12.9876 C   0  0  0  0  0  0  0  0  0  0  0  0
  -16.0289   -3.9821  -13.2255 C   0  0  0  0  0  0  0  0  0  0  0  0
  -16.5506   -4.7003  -12.1611 C   0  0  0  0  0  0  0  0  0  0  0  0
  -16.5436   -4.2570  -10.8882 N   0  0  0  0  0  0  0  0  0  0  0  0
  -15.9779   -3.0490  -10.6723 C   0  0  0  0  0  0  0  0  0  0  0  0
  -15.4269   -2.2577  -11.6711 C   0  0  0  0  0  0  0  0  0  0  0  0
  7  8  2  0  0  0
  8  9  1  0  0  0
  8  1  1  0  0  0
  9 11  1  0  0  0
  9 10  1  0  0  0
 11 12  1  0  0  0
 11 17  2  0  0  0
 12 13  2  0  0  0
 13 14  1  0  0  0
 14 15  1  0  0  0
 14 16  2  0  0  0
 16 17  1  0  0  0
  1  2  1  0  0  0
  1  6  2  0  0  0
  2  3  2  0  0  0
  3  4  1  0  0  0
  4  5  2  0  0  0
  5  6  1  0  0  0
  6 18  1  0  0  0
 18 20  1  0  0  0
 18 19  1  0  0  0
 20 21  1  0  0  0
 21 22  1  0  0  0
 21 26  2  0  0  0
 22 23  2  0  0  0
 23 24  1  0  0  0
 24 25  2  0  0  0
 25 26  1  0  0  0
M  END
> <minimizedAffinity>
-7.87606

$$$$
