CHEMBL3978687


 38 41  0  0  0  0  0  0  0  0999 V2000
  -13.3758   -0.3939  -16.9093 C   0  0  0  0  0  0  0  0  0  0  0  0
  -14.3908    0.2485  -16.0013 C   0  0  0  0  0  0  0  0  0  0  0  0
  -15.2364    1.2174  -16.5807 C   0  0  0  0  0  0  0  0  0  0  0  0
  -16.2454    1.8351  -15.8459 C   0  0  0  0  0  0  0  0  0  0  0  0
  -16.4858    1.4357  -14.5378 C   0  0  0  0  0  0  0  0  0  0  0  0
  -15.6204    0.5166  -13.9370 C   0  0  0  0  0  0  0  0  0  0  0  0
  -14.5556   -0.0879  -14.6390 C   0  0  0  0  0  0  0  0  0  0  0  0
  -13.6506   -0.9907  -13.9953 N   0  0  0  0  0  0  0  0  0  0  0  0
  -13.9606   -2.2602  -13.5462 C   0  0  0  0  0  0  0  0  0  0  0  0
  -15.0236   -2.8374  -13.7666 O   0  0  0  0  0  0  0  0  0  0  0  0
  -12.9681   -2.8472  -12.7669 N   0  0  0  0  0  0  0  0  0  0  0  0
  -12.6801   -0.7120  -13.9301 H   0  0  0  0  0  0  0  0  0  0  0  0
  -12.4834   -2.1986  -12.1515 H   0  0  0  0  0  0  0  0  0  0  0  0
  -13.2319   -4.1245  -12.1907 C   0  0  0  0  0  0  0  0  0  0  0  0
  -13.2981   -5.2802  -12.9835 C   0  0  0  0  0  0  0  0  0  0  0  0
  -13.7565   -6.4994  -12.4551 C   0  0  0  0  0  0  0  0  0  0  0  0
  -14.1290   -6.5511  -11.1028 C   0  0  0  0  0  0  0  0  0  0  0  0
  -14.0084   -5.4182  -10.2920 C   0  0  0  0  0  0  0  0  0  0  0  0
  -13.5436   -4.2217  -10.8338 C   0  0  0  0  0  0  0  0  0  0  0  0
  -13.4804   -3.1310  -10.0544 F   0  0  0  0  0  0  0  0  0  0  0  0
  -13.8858   -7.7203  -13.3438 C   0  0  0  0  0  0  0  0  0  0  0  0
  -13.2868   -8.9624  -12.7012 C   0  0  0  0  0  0  0  0  0  0  0  0
  -15.1868   -7.9979  -13.6535 F   0  0  0  0  0  0  0  0  0  0  0  0
  -13.2647   -7.5426  -14.5487 F   0  0  0  0  0  0  0  0  0  0  0  0
  -17.5192    1.9241  -13.7606 O   0  0  0  0  0  0  0  0  0  0  0  0
  -18.7671    2.0871  -14.3311 C   0  0  0  0  0  0  0  0  0  0  0  0
  -19.1590    3.2473  -14.9905 C   0  0  0  0  0  0  0  0  0  0  0  0
  -20.4614    3.3266  -15.4248 C   0  0  0  0  0  0  0  0  0  0  0  0
  -21.3423    2.3189  -15.3079 N   0  0  0  0  0  0  0  0  0  0  0  0
  -20.9401    1.1608  -14.7534 C   0  0  0  0  0  0  0  0  0  0  0  0
  -19.6513    1.0063  -14.2525 C   0  0  0  0  0  0  0  0  0  0  0  0
  -21.8417    0.0833  -14.6697 N   0  0  0  0  0  0  0  0  0  0  0  0
  -22.9278    0.0661  -13.8095 C   0  0  0  0  0  0  0  0  0  0  0  0
  -23.2567    0.9286  -13.0123 O   0  0  0  0  0  0  0  0  0  0  0  0
  -21.6662   -0.7182  -15.2478 H   0  0  0  0  0  0  0  0  0  0  0  0
  -23.7909   -1.1567  -13.8440 C   0  0  0  0  0  0  0  0  0  0  0  0
  -24.9678   -1.2027  -14.7916 C   0  0  0  0  0  0  0  0  0  0  0  0
  -25.1886   -1.3045  -13.3100 C   0  0  0  0  0  0  0  0  0  0  0  0
  1  2  1  0  0  0
  2  3  1  0  0  0
  2  7  2  0  0  0
  3  4  2  0  0  0
  4  5  1  0  0  0
  5 25  1  0  0  0
  5  6  2  0  0  0
 25 26  1  0  0  0
 26 27  1  0  0  0
 26 31  2  0  0  0
 27 28  2  0  0  0
 28 29  1  0  0  0
 29 30  2  0  0  0
 30 32  1  0  0  0
 30 31  1  0  0  0
 32 33  1  0  0  0
 32 35  1  0  0  0
 33 34  2  0  0  0
 33 36  1  0  0  0
 36 37  1  0  0  0
 36 38  1  0  0  0
 37 38  1  0  0  0
  6  7  1  0  0  0
  7  8  1  0  0  0
  8  9  1  0  0  0
  8 12  1  0  0  0
  9 10  2  0  0  0
  9 11  1  0  0  0
 11 14  1  0  0  0
 11 13  1  0  0  0
 14 15  1  0  0  0
 14 19  2  0  0  0
 15 16  2  0  0  0
 16 21  1  0  0  0
 16 17  1  0  0  0
 21 22  1  0  0  0
 21 23  1  0  0  0
 21 24  1  0  0  0
 17 18  2  0  0  0
 18 19  1  0  0  0
 19 20  1  0  0  0
M  END
> <minimizedAffinity>
-8.61523

$$$$
