CHEMBL3774913


 26 28  0  0  0  0  0  0  0  0999 V2000
  -28.5850   -9.5241   -6.6113 C   0  0  0  0  0  0  0  0  0  0  0  0
  -28.8761   -9.1760   -5.2731 C   0  0  0  0  0  0  0  0  0  0  0  0
  -29.2426   -7.9068   -4.8759 C   0  0  0  0  0  0  0  0  0  0  0  0
  -29.4380   -7.6711   -3.5843 N   0  0  0  0  0  0  0  0  0  0  0  0
  -29.7578   -6.4139   -3.2411 C   0  0  0  0  0  0  0  0  0  0  0  0
  -29.9502   -5.4016   -4.0813 N   0  0  0  0  0  0  0  0  0  0  0  0
  -29.7919   -5.6431   -5.3819 C   0  0  0  0  0  0  0  0  0  0  0  0
  -29.3598   -6.9101   -5.8658 C   0  0  0  0  0  0  0  0  0  0  0  0
  -29.0261   -7.2553   -7.1980 C   0  0  0  0  0  0  0  0  0  0  0  0
  -28.7092   -8.5627   -7.6086 C   0  0  0  0  0  0  0  0  0  0  0  0
  -29.0997  -11.7651   -6.8671 C   0  0  0  0  0  0  0  0  0  0  0  0
  -28.0712  -10.7701   -6.8866 O   0  0  0  0  0  0  0  0  0  0  0  0
  -30.0490   -4.5934   -6.3063 N   0  0  0  0  0  0  0  0  0  0  0  0
  -31.0001   -4.5730   -6.6048 H   0  0  0  0  0  0  0  0  0  0  0  0
  -29.3505   -3.3454   -6.3720 C   0  0  0  0  0  0  0  0  0  0  0  0
  -29.6845   -2.3250   -5.4805 C   0  0  0  0  0  0  0  0  0  0  0  0
  -29.1891   -1.0391   -5.6530 C   0  0  0  0  0  0  0  0  0  0  0  0
  -29.6286   -0.0475   -4.8663 F   0  0  0  0  0  0  0  0  0  0  0  0
  -28.3151   -0.7470   -6.6904 C   0  0  0  0  0  0  0  0  0  0  0  0
  -27.9036   -1.7744   -7.5348 C   0  0  0  0  0  0  0  0  0  0  0  0
  -27.0458   -1.4954   -8.5647 O   0  0  0  0  0  0  0  0  0  0  0  0
  -28.4047   -3.0885   -7.3929 C   0  0  0  0  0  0  0  0  0  0  0  0
  -28.0077   -4.1638   -8.3672 C   0  0  0  0  0  0  0  0  0  0  0  0
  -26.8142   -0.5524   -8.5396 H   0  0  0  0  0  0  0  0  0  0  0  0
  -28.5194   -8.6529   -8.9502 O   0  0  0  0  0  0  0  0  0  0  0  0
  -27.2100   -8.5224   -9.4778 C   0  0  0  0  0  0  0  0  0  0  0  0
 11 12  1  0  0  0
 12  1  1  0  0  0
  1  2  1  0  0  0
  1 10  2  0  0  0
  2  3  2  0  0  0
  3  4  1  0  0  0
  3  8  1  0  0  0
  4  5  2  0  0  0
  5  6  1  0  0  0
  6  7  2  0  0  0
  7 13  1  0  0  0
  7  8  1  0  0  0
 13 15  1  0  0  0
 13 14  1  0  0  0
 15 16  1  0  0  0
 15 22  2  0  0  0
 16 17  2  0  0  0
 17 18  1  0  0  0
 17 19  1  0  0  0
 19 20  2  0  0  0
 20 21  1  0  0  0
 20 22  1  0  0  0
 21 24  1  0  0  0
 22 23  1  0  0  0
  8  9  2  0  0  0
  9 10  1  0  0  0
 10 25  1  0  0  0
 25 26  1  0  0  0
M  END
> <minimizedAffinity>
-7.11180

$$$$
