CHEMBL1974365


 26 29  0  0  0  0  0  0  0  0999 V2000
  -28.2108   -2.6519  -13.3416 O   0  0  0  0  0  0  0  0  0  0  0  0
  -27.3193   -1.9695  -12.8182 C   0  0  0  0  0  0  0  0  0  0  0  0
  -26.3560   -1.4767  -13.6577 N   0  0  0  0  0  0  0  0  0  0  0  0
  -25.0777   -1.0092  -13.3372 C   0  0  0  0  0  0  0  0  0  0  0  0
  -24.0654   -1.3222  -14.2550 C   0  0  0  0  0  0  0  0  0  0  0  0
  -22.7346   -1.0266  -13.9707 C   0  0  0  0  0  0  0  0  0  0  0  0
  -22.4142   -0.3641  -12.7924 C   0  0  0  0  0  0  0  0  0  0  0  0
  -23.4289    0.0292  -11.9196 C   0  0  0  0  0  0  0  0  0  0  0  0
  -24.7752   -0.2812  -12.1824 C   0  0  0  0  0  0  0  0  0  0  0  0
  -25.7481    0.1097  -11.2448 N   0  0  0  0  0  0  0  0  0  0  0  0
  -26.6656   -0.7827  -10.6549 C   0  0  0  0  0  0  0  0  0  0  0  0
  -26.8941   -0.6461   -9.2650 C   0  0  0  0  0  0  0  0  0  0  0  0
  -27.7287   -1.5073   -8.5316 C   0  0  0  0  0  0  0  0  0  0  0  0
  -28.3227   -2.5544   -9.2479 C   0  0  0  0  0  0  0  0  0  0  0  0
  -28.1218   -2.7022  -10.6239 C   0  0  0  0  0  0  0  0  0  0  0  0
  -27.3170   -1.8049  -11.3453 C   0  0  0  0  0  0  0  0  0  0  0  0
  -26.5031   -1.8144  -14.6002 H   0  0  0  0  0  0  0  0  0  0  0  0
  -25.4004    0.8003  -10.5879 H   0  0  0  0  0  0  0  0  0  0  0  0
  -27.9639   -1.3380   -7.0707 C   0  0  0  0  0  0  0  0  0  0  0  0
  -27.6924   -2.4057   -6.1914 C   0  0  0  0  0  0  0  0  0  0  0  0
  -27.9347   -2.3146   -4.8168 C   0  0  0  0  0  0  0  0  0  0  0  0
  -28.4252   -1.1350   -4.2716 C   0  0  0  0  0  0  0  0  0  0  0  0
  -28.6872   -0.0491   -5.1061 C   0  0  0  0  0  0  0  0  0  0  0  0
  -28.4613   -0.1543   -6.4843 C   0  0  0  0  0  0  0  0  0  0  0  0
  -28.7616    0.9315   -7.2688 O   0  0  0  0  0  0  0  0  0  0  0  0
  -29.1413    1.6297   -6.7121 H   0  0  0  0  0  0  0  0  0  0  0  0
  1  2  2  0  0  0
  2  3  1  0  0  0
  2 16  1  0  0  0
  3  4  1  0  0  0
  3 17  1  0  0  0
  4  5  1  0  0  0
  4  9  2  0  0  0
  5  6  2  0  0  0
  6  7  1  0  0  0
  7  8  2  0  0  0
  8  9  1  0  0  0
  9 10  1  0  0  0
 10 11  1  0  0  0
 10 18  1  0  0  0
 11 12  1  0  0  0
 11 16  2  0  0  0
 12 13  2  0  0  0
 13 19  1  0  0  0
 13 14  1  0  0  0
 19 20  1  0  0  0
 19 24  2  0  0  0
 20 21  2  0  0  0
 21 22  1  0  0  0
 22 23  2  0  0  0
 23 24  1  0  0  0
 24 25  1  0  0  0
 25 26  1  0  0  0
 14 15  2  0  0  0
 15 16  1  0  0  0
M  END
> <minimizedAffinity>
-5.89596

$$$$
