CHEMBL3943043


 36 40  0  0  0  0  0  0  0  0999 V2000
  -14.6834    0.4843  -14.6516 N   0  0  0  0  0  0  0  0  0  0  0  0
  -14.7122   -0.8861  -14.0727 C   0  0  0  0  0  0  0  0  0  0  0  0
  -15.6270   -0.9797  -13.0217 C   0  0  0  0  0  0  0  0  0  0  0  0
  -15.5497   -1.9249  -12.0739 C   0  0  0  0  0  0  0  0  0  0  0  0
  -14.6326   -2.9207  -12.1463 C   0  0  0  0  0  0  0  0  0  0  0  0
  -14.4958   -3.6346  -11.0365 N   0  0  0  0  0  0  0  0  0  0  0  0
  -13.7414   -4.7160  -10.9862 C   0  0  0  0  0  0  0  0  0  0  0  0
  -13.2625   -5.2661  -12.1687 C   0  0  0  0  0  0  0  0  0  0  0  0
  -13.2190   -4.4432  -13.3201 N   0  0  0  0  0  0  0  0  0  0  0  0
  -13.8505   -3.1704  -13.2832 C   0  0  0  0  0  0  0  0  0  0  0  0
  -13.8525   -2.0855  -14.2994 C   0  0  0  0  0  0  0  0  0  0  0  0
  -13.2281   -6.8036  -12.0472 C   0  0  0  0  0  0  0  0  0  0  0  0
  -14.3498   -7.6036  -12.3662 C   0  0  0  0  0  0  0  0  0  0  0  0
  -14.0278   -8.8906  -12.4371 N   0  0  0  0  0  0  0  0  0  0  0  0
  -12.7434   -8.9863  -12.1662 N   0  0  0  0  0  0  0  0  0  0  0  0
  -12.0656  -10.2736  -12.2995 C   0  0  0  0  0  0  0  0  0  0  0  0
  -12.2144   -7.7583  -11.8784 C   0  0  0  0  0  0  0  0  0  0  0  0
  -18.1880    1.9879  -15.1651 C   0  0  0  0  0  0  0  0  0  0  0  0
  -17.8302    3.2182  -15.7489 C   0  0  0  0  0  0  0  0  0  0  0  0
  -16.5019    3.5258  -16.0050 C   0  0  0  0  0  0  0  0  0  0  0  0
  -15.5188    2.6110  -15.6548 C   0  0  0  0  0  0  0  0  0  0  0  0
  -15.8002    1.3417  -15.0591 C   0  0  0  0  0  0  0  0  0  0  0  0
  -17.1706    1.0434  -14.8321 C   0  0  0  0  0  0  0  0  0  0  0  0
  -20.1455    0.5258  -15.2161 C   0  0  0  0  0  0  0  0  0  0  0  0
  -19.5014    1.7202  -14.9039 O   0  0  0  0  0  0  0  0  0  0  0  0
  -16.1196    4.6998  -16.5770 O   0  0  0  0  0  0  0  0  0  0  0  0
  -15.1938    4.8490  -17.5918 C   0  0  0  0  0  0  0  0  0  0  0  0
  -13.2854    1.0153  -14.9114 C   0  0  0  0  0  0  0  0  0  0  0  0
  -12.5600    0.4316  -16.1928 C   0  0  0  0  0  0  0  0  0  0  0  0
  -13.0474    1.0275  -17.4902 N   0  0  0  0  0  0  0  0  0  0  0  0
  -14.1078    0.2417  -18.1842 C   0  0  0  0  0  0  0  0  0  0  0  0
  -13.5543   -1.0266  -18.8742 C   0  0  0  0  0  0  0  0  0  0  0  0
  -12.4598   -0.6579  -19.8764 C   0  0  0  0  0  0  0  0  0  0  0  0
  -11.3727    0.1487  -19.1736 C   0  0  0  0  0  0  0  0  0  0  0  0
  -11.9956    1.3898  -18.5013 C   0  0  0  0  0  0  0  0  0  0  0  0
  -10.8958    2.2969  -17.9540 C   0  0  0  0  0  0  0  0  0  0  0  0
 24 25  1  0  0  0
 25 18  1  0  0  0
 18 19  1  0  0  0
 18 23  2  0  0  0
 19 20  2  0  0  0
 20 26  1  0  0  0
 20 21  1  0  0  0
 26 27  1  0  0  0
 21 22  2  0  0  0
 22  1  1  0  0  0
 22 23  1  0  0  0
  1 28  1  0  0  0
  1  2  1  0  0  0
 28 29  1  0  0  0
 29 30  1  0  0  0
 30 31  1  0  0  0
 30 35  1  0  0  0
 31 32  1  0  0  0
 32 33  1  0  0  0
 33 34  1  0  0  0
 34 35  1  0  0  0
 35 36  1  0  0  0
  2  3  1  0  0  0
  2 11  2  0  0  0
  3  4  2  0  0  0
  4  5  1  0  0  0
  5  6  1  0  0  0
  5 10  2  0  0  0
  6  7  2  0  0  0
  7  8  1  0  0  0
  8 12  1  0  0  0
  8  9  2  0  0  0
 12 13  1  0  0  0
 12 17  2  0  0  0
 13 14  2  0  0  0
 14 15  1  0  0  0
 15 16  1  0  0  0
 15 17  1  0  0  0
  9 10  1  0  0  0
 10 11  1  0  0  0
M  END
> <minimizedAffinity>
-7.40851

$$$$
