CHEMBL3715932


 28 31  0  0  0  0  0  0  0  0999 V2000
  -12.7461    2.2700  -15.9192 N   0  0  0  0  0  0  0  0  0  0  0  0
  -14.0750    2.0776  -15.5931 C   0  0  0  0  0  0  0  0  0  0  0  0
  -14.3926    0.9291  -14.9690 N   0  0  0  0  0  0  0  0  0  0  0  0
  -15.6926    0.6539  -14.6861 C   0  0  0  0  0  0  0  0  0  0  0  0
  -16.6557    1.6262  -15.0198 C   0  0  0  0  0  0  0  0  0  0  0  0
  -16.1833    2.7777  -15.6227 C   0  0  0  0  0  0  0  0  0  0  0  0
  -14.9125    3.0660  -15.9250 N   0  0  0  0  0  0  0  0  0  0  0  0
  -17.2446    3.5927  -15.8928 N   0  0  0  0  0  0  0  0  0  0  0  0
  -18.4184    3.0055  -15.4791 C   0  0  0  0  0  0  0  0  0  0  0  0
  -19.7393    3.4657  -15.5656 C   0  0  0  0  0  0  0  0  0  0  0  0
  -20.7496    2.6476  -15.0498 C   0  0  0  0  0  0  0  0  0  0  0  0
  -20.4368    1.4249  -14.4748 C   0  0  0  0  0  0  0  0  0  0  0  0
  -21.4034    0.6123  -13.9533 O   0  0  0  0  0  0  0  0  0  0  0  0
  -19.1227    0.9687  -14.4000 C   0  0  0  0  0  0  0  0  0  0  0  0
  -18.0799    1.7701  -14.9151 C   0  0  0  0  0  0  0  0  0  0  0  0
  -12.1494    1.7200  -15.3207 H   0  0  0  0  0  0  0  0  0  0  0  0
  -12.5463    3.2544  -16.0229 H   0  0  0  0  0  0  0  0  0  0  0  0
  -17.1616    4.4891  -16.3473 H   0  0  0  0  0  0  0  0  0  0  0  0
  -22.2672    1.0327  -14.0845 H   0  0  0  0  0  0  0  0  0  0  0  0
  -16.0597   -0.5714  -14.1462 N   0  0  0  0  0  0  0  0  0  0  0  0
  -17.0528   -0.7436  -14.1910 H   0  0  0  0  0  0  0  0  0  0  0  0
  -15.4555   -1.0063  -12.9060 C   0  0  0  0  0  0  0  0  0  0  0  0
  -15.8913   -2.4383  -12.6528 C   0  0  0  0  0  0  0  0  0  0  0  0
  -15.9045   -2.9605  -11.3506 C   0  0  0  0  0  0  0  0  0  0  0  0
  -16.2558   -4.2942  -11.1205 C   0  0  0  0  0  0  0  0  0  0  0  0
  -16.5865   -5.1232  -12.1899 C   0  0  0  0  0  0  0  0  0  0  0  0
  -16.5618   -4.6239  -13.4902 C   0  0  0  0  0  0  0  0  0  0  0  0
  -16.2145   -3.2899  -13.7222 C   0  0  0  0  0  0  0  0  0  0  0  0
  1  2  1  0  0  0
  1 16  1  0  0  0
  1 17  1  0  0  0
  2  3  1  0  0  0
  2  7  2  0  0  0
  3  4  2  0  0  0
  4 20  1  0  0  0
  4  5  1  0  0  0
 20 22  1  0  0  0
 20 21  1  0  0  0
 22 23  1  0  0  0
 23 24  1  0  0  0
 23 28  2  0  0  0
 24 25  2  0  0  0
 25 26  1  0  0  0
 26 27  2  0  0  0
 27 28  1  0  0  0
  5  6  2  0  0  0
  5 15  1  0  0  0
  6  7  1  0  0  0
  6  8  1  0  0  0
  8  9  1  0  0  0
  8 18  1  0  0  0
  9 10  1  0  0  0
  9 15  2  0  0  0
 10 11  2  0  0  0
 11 12  1  0  0  0
 12 13  1  0  0  0
 12 14  2  0  0  0
 13 19  1  0  0  0
 14 15  1  0  0  0
M  END
> <minimizedAffinity>
-8.78433

$$$$
