CHEMBL3690523


 36 39  0  0  0  0  0  0  0  0999 V2000
  -14.2253   -3.0067  -13.0687 C   0  0  0  0  0  0  0  0  0  0  0  0
  -13.3142   -2.6092  -14.1703 C   0  0  0  0  0  0  0  0  0  0  0  0
  -13.5957   -1.5154  -14.9176 C   0  0  0  0  0  0  0  0  0  0  0  0
  -14.6389   -0.6664  -14.4920 N   0  0  0  0  0  0  0  0  0  0  0  0
  -14.9039    0.6835  -14.7820 C   0  0  0  0  0  0  0  0  0  0  0  0
  -14.3664    1.1612  -13.5716 C   0  0  0  0  0  0  0  0  0  0  0  0
  -14.7901    0.3236  -12.5566 N   0  0  0  0  0  0  0  0  0  0  0  0
  -15.0880   -0.8046  -13.1813 C   0  0  0  0  0  0  0  0  0  0  0  0
  -15.1648   -2.1176  -12.6644 C   0  0  0  0  0  0  0  0  0  0  0  0
  -14.5363   -7.8414  -13.1012 C   0  0  0  0  0  0  0  0  0  0  0  0
  -14.3071   -6.5832  -12.3216 C   0  0  0  0  0  0  0  0  0  0  0  0
  -14.0682   -6.6094  -10.9667 C   0  0  0  0  0  0  0  0  0  0  0  0
  -13.8785   -5.3931  -10.3479 C   0  0  0  0  0  0  0  0  0  0  0  0
  -13.6085   -5.3391   -8.9804 N   0  0  0  0  0  0  0  0  0  0  0  0
  -13.8893   -4.2273  -11.0044 N   0  0  0  0  0  0  0  0  0  0  0  0
  -14.1267   -4.2895  -12.3266 C   0  0  0  0  0  0  0  0  0  0  0  0
  -14.3409   -5.4304  -13.0132 N   0  0  0  0  0  0  0  0  0  0  0  0
  -14.2874   -5.8570   -8.4346 H   0  0  0  0  0  0  0  0  0  0  0  0
  -13.5733   -4.3587   -8.7123 H   0  0  0  0  0  0  0  0  0  0  0  0
  -16.2090    1.2579  -15.2694 C   0  0  0  0  0  0  0  0  0  0  0  0
  -16.2040    2.6316  -15.5923 C   0  0  0  0  0  0  0  0  0  0  0  0
  -17.3775    3.3463  -15.7841 C   0  0  0  0  0  0  0  0  0  0  0  0
  -18.5970    2.6953  -15.6864 C   0  0  0  0  0  0  0  0  0  0  0  0
  -18.6661    1.3327  -15.3808 C   0  0  0  0  0  0  0  0  0  0  0  0
  -17.4594    0.6021  -15.2073 C   0  0  0  0  0  0  0  0  0  0  0  0
  -19.9268    0.6883  -15.2048 N   0  0  0  0  0  0  0  0  0  0  0  0
  -20.9607    1.1867  -14.4279 C   0  0  0  0  0  0  0  0  0  0  0  0
  -20.9478    2.1879  -13.7364 O   0  0  0  0  0  0  0  0  0  0  0  0
  -22.0823    0.3783  -14.4646 N   0  0  0  0  0  0  0  0  0  0  0  0
  -19.9763   -0.2867  -15.4482 H   0  0  0  0  0  0  0  0  0  0  0  0
  -22.2575   -0.0696  -15.3524 H   0  0  0  0  0  0  0  0  0  0  0  0
  -23.2602    0.8332  -13.7067 C   0  0  0  0  0  0  0  0  0  0  0  0
  -23.5801    0.0463  -12.4263 C   0  0  0  0  0  0  0  0  0  0  0  0
  -24.3844   -1.0139  -12.6737 F   0  0  0  0  0  0  0  0  0  0  0  0
  -22.4317   -0.4507  -11.9017 F   0  0  0  0  0  0  0  0  0  0  0  0
  -24.1596    0.8038  -11.4741 F   0  0  0  0  0  0  0  0  0  0  0  0
 10 11  1  0  0  0
 11 12  1  0  0  0
 11 17  2  0  0  0
 12 13  2  0  0  0
 13 14  1  0  0  0
 13 15  1  0  0  0
 14 18  1  0  0  0
 14 19  1  0  0  0
 15 16  2  0  0  0
 16  1  1  0  0  0
 16 17  1  0  0  0
  1  2  1  0  0  0
  1  9  2  0  0  0
  2  3  2  0  0  0
  3  4  1  0  0  0
  4  5  1  0  0  0
  4  8  1  0  0  0
  5 20  1  0  0  0
  5  6  2  0  0  0
 20 21  1  0  0  0
 20 25  2  0  0  0
 21 22  2  0  0  0
 22 23  1  0  0  0
 23 24  2  0  0  0
 24 26  1  0  0  0
 24 25  1  0  0  0
 26 27  1  0  0  0
 26 30  1  0  0  0
 27 28  2  0  0  0
 27 29  1  0  0  0
 29 32  1  0  0  0
 29 31  1  0  0  0
 32 33  1  0  0  0
 33 34  1  0  0  0
 33 35  1  0  0  0
 33 36  1  0  0  0
  6  7  1  0  0  0
  7  8  2  0  0  0
  8  9  1  0  0  0
M  END
> <minimizedAffinity>
-10.09716

$$$$
