CHEMBL1977931


 19 21  0  0  0  0  0  0  0  0999 V2000
  -28.8148   -4.2968   -4.7725 C   0  0  0  0  0  0  0  0  0  0  0  0
  -27.8292   -5.2285   -4.9074 N   0  0  0  0  0  0  0  0  0  0  0  0
  -28.0807   -6.4940   -4.5229 C   0  0  0  0  0  0  0  0  0  0  0  0
  -29.1813   -6.9738   -3.9235 N   0  0  0  0  0  0  0  0  0  0  0  0
  -30.1006   -6.0147   -3.7490 C   0  0  0  0  0  0  0  0  0  0  0  0
  -31.3068   -6.2170   -3.1365 N   0  0  0  0  0  0  0  0  0  0  0  0
  -32.0142   -5.0442   -3.1070 C   0  0  0  0  0  0  0  0  0  0  0  0
  -31.2523   -4.0853   -3.7422 C   0  0  0  0  0  0  0  0  0  0  0  0
  -30.0145   -4.6830   -4.1367 C   0  0  0  0  0  0  0  0  0  0  0  0
  -31.6073   -7.1110   -2.7738 H   0  0  0  0  0  0  0  0  0  0  0  0
  -28.3801   -2.5846   -6.6078 C   0  0  0  0  0  0  0  0  0  0  0  0
  -27.9979   -1.2832   -6.9945 C   0  0  0  0  0  0  0  0  0  0  0  0
  -27.7949   -0.2897   -6.0421 C   0  0  0  0  0  0  0  0  0  0  0  0
  -27.9540   -0.5896   -4.6985 C   0  0  0  0  0  0  0  0  0  0  0  0
  -28.2857   -1.8913   -4.3056 C   0  0  0  0  0  0  0  0  0  0  0  0
  -28.5184   -2.9275   -5.2366 C   0  0  0  0  0  0  0  0  0  0  0  0
  -30.1251   -4.0531   -7.8114 C   0  0  0  0  0  0  0  0  0  0  0  0
  -28.7093   -3.5289   -7.7134 C   0  0  0  0  0  0  0  0  0  0  0  0
  -27.8194   -3.9500   -8.4473 O   0  0  0  0  0  0  0  0  0  0  0  0
 17 18  1  0  0  0
 18 19  2  0  0  0
 18 11  1  0  0  0
 11 12  1  0  0  0
 11 16  2  0  0  0
 12 13  2  0  0  0
 13 14  1  0  0  0
 14 15  2  0  0  0
 15 16  1  0  0  0
 16  1  1  0  0  0
  1  2  1  0  0  0
  1  9  2  0  0  0
  2  3  2  0  0  0
  3  4  1  0  0  0
  4  5  2  0  0  0
  5  6  1  0  0  0
  5  9  1  0  0  0
  6  7  1  0  0  0
  6 10  1  0  0  0
  7  8  2  0  0  0
  8  9  1  0  0  0
M  END
> <minimizedAffinity>
-7.52205

$$$$
