CHEMBL1688355


 33 37  0  0  0  0  0  0  0  0999 V2000
  -28.3284   -3.2793   -7.6265 C   0  0  0  0  0  0  0  0  0  0  0  0
  -27.4528   -2.3481   -7.2957 N   0  0  0  0  0  0  0  0  0  0  0  0
  -27.1708   -1.6038   -8.4136 N   0  0  0  0  0  0  0  0  0  0  0  0
  -27.8653   -2.0876   -9.4199 C   0  0  0  0  0  0  0  0  0  0  0  0
  -28.5171   -3.2124   -8.9829 N   0  0  0  0  0  0  0  0  0  0  0  0
  -29.1503   -3.7883   -9.5107 H   0  0  0  0  0  0  0  0  0  0  0  0
  -30.4773   -5.9532   -5.0708 C   0  0  0  0  0  0  0  0  0  0  0  0
  -30.3781   -6.1793   -6.4330 C   0  0  0  0  0  0  0  0  0  0  0  0
  -29.6927   -5.2688   -7.2277 C   0  0  0  0  0  0  0  0  0  0  0  0
  -29.1050   -4.1001   -6.6895 C   0  0  0  0  0  0  0  0  0  0  0  0
  -29.2782   -3.8239   -5.3108 C   0  0  0  0  0  0  0  0  0  0  0  0
  -29.9244   -4.7961   -4.5183 C   0  0  0  0  0  0  0  0  0  0  0  0
  -28.7316   -2.6424   -4.7138 N   0  0  0  0  0  0  0  0  0  0  0  0
  -28.3551   -2.9179   -3.8061 H   0  0  0  0  0  0  0  0  0  0  0  0
  -29.7433   -1.5944   -4.4541 C   0  0  0  0  0  0  0  0  0  0  0  0
  -29.5517   -0.3513   -5.2325 C   0  0  0  0  0  0  0  0  0  0  0  0
  -30.4352    0.6294   -5.6301 C   0  0  0  0  0  0  0  0  0  0  0  0
  -29.8136    1.5499   -6.4310 N   0  0  0  0  0  0  0  0  0  0  0  0
  -28.5735    1.1320   -6.5428 C   0  0  0  0  0  0  0  0  0  0  0  0
  -28.3636   -0.0125   -5.8281 N   0  0  0  0  0  0  0  0  0  0  0  0
  -27.5011   -0.5400   -5.7686 H   0  0  0  0  0  0  0  0  0  0  0  0
  -27.9997   -1.6357  -10.6892 N   0  0  0  0  0  0  0  0  0  0  0  0
  -28.8516   -1.2039  -11.0192 H   0  0  0  0  0  0  0  0  0  0  0  0
  -26.9370   -1.5570  -11.6195 C   0  0  0  0  0  0  0  0  0  0  0  0
  -27.1244   -1.8096  -12.9855 C   0  0  0  0  0  0  0  0  0  0  0  0
  -26.0791   -1.6472  -13.9008 C   0  0  0  0  0  0  0  0  0  0  0  0
  -24.8365   -1.1937  -13.4688 C   0  0  0  0  0  0  0  0  0  0  0  0
  -24.6242   -0.9660  -12.1136 C   0  0  0  0  0  0  0  0  0  0  0  0
  -25.6647   -1.1478  -11.1921 C   0  0  0  0  0  0  0  0  0  0  0  0
  -23.4105   -0.5695  -11.6145 O   0  0  0  0  0  0  0  0  0  0  0  0
  -22.6423    0.1204  -12.6009 C   0  0  0  0  0  0  0  0  0  0  0  0
  -22.6273   -0.5725  -13.9583 C   0  0  0  0  0  0  0  0  0  0  0  0
  -23.9092   -0.9679  -14.4439 O   0  0  0  0  0  0  0  0  0  0  0  0
  7  8  1  0  0  0
  7 12  2  0  0  0
  8  9  2  0  0  0
  9 10  1  0  0  0
 10  1  1  0  0  0
 10 11  2  0  0  0
  1  2  2  0  0  0
  1  5  1  0  0  0
  2  3  1  0  0  0
  3  4  2  0  0  0
  4 22  1  0  0  0
  4  5  1  0  0  0
 22 24  1  0  0  0
 22 23  1  0  0  0
 24 25  1  0  0  0
 24 29  2  0  0  0
 25 26  2  0  0  0
 26 27  1  0  0  0
 27 28  2  0  0  0
 27 33  1  0  0  0
 28 29  1  0  0  0
 28 30  1  0  0  0
 30 31  1  0  0  0
 31 32  1  0  0  0
 32 33  1  0  0  0
  5  6  1  0  0  0
 11 13  1  0  0  0
 11 12  1  0  0  0
 13 15  1  0  0  0
 13 14  1  0  0  0
 15 16  1  0  0  0
 16 17  2  0  0  0
 16 20  1  0  0  0
 17 18  1  0  0  0
 18 19  2  0  0  0
 19 20  1  0  0  0
 20 21  1  0  0  0
M  END
> <minimizedAffinity>
-9.95512

$$$$
