CHEMBL1278146


 32 35  0  0  0  0  0  0  0  0999 V2000
  -13.9463    2.9507  -16.4211 N   0  0  0  0  0  0  0  0  0  0  0  0
  -14.6970    4.0292  -17.0801 C   0  0  0  0  0  0  0  0  0  0  0  0
  -16.2326    4.0038  -17.0182 C   0  0  0  0  0  0  0  0  0  0  0  0
  -16.7159    2.8897  -16.1866 C   0  0  0  0  0  0  0  0  0  0  0  0
  -18.0285    2.6112  -15.9504 N   0  0  0  0  0  0  0  0  0  0  0  0
  -18.1162    1.5049  -15.1440 C   0  0  0  0  0  0  0  0  0  0  0  0
  -16.8249    1.0699  -14.8649 C   0  0  0  0  0  0  0  0  0  0  0  0
  -16.4091   -0.1069  -14.0452 C   0  0  0  0  0  0  0  0  0  0  0  0
  -15.9415    1.9690  -15.5254 C   0  0  0  0  0  0  0  0  0  0  0  0
  -14.4958    1.9876  -15.5717 C   0  0  0  0  0  0  0  0  0  0  0  0
  -13.8212    1.1914  -14.9240 O   0  0  0  0  0  0  0  0  0  0  0  0
  -18.8144    3.1421  -16.3172 H   0  0  0  0  0  0  0  0  0  0  0  0
  -19.3528    0.9773  -14.7242 C   0  0  0  0  0  0  0  0  0  0  0  0
  -20.5087    1.5989  -14.4644 C   0  0  0  0  0  0  0  0  0  0  0  0
  -20.9393    3.0430  -14.5228 C   0  0  0  0  0  0  0  0  0  0  0  0
  -20.2799    4.0100  -14.8401 O   0  0  0  0  0  0  0  0  0  0  0  0
  -22.2773    3.0330  -14.1300 N   0  0  0  0  0  0  0  0  0  0  0  0
  -22.7073    1.7403  -13.8359 C   0  0  0  0  0  0  0  0  0  0  0  0
  -23.9620    1.3416  -13.4140 C   0  0  0  0  0  0  0  0  0  0  0  0
  -24.1550   -0.0250  -13.1776 C   0  0  0  0  0  0  0  0  0  0  0  0
  -23.1084   -0.9381  -13.3633 C   0  0  0  0  0  0  0  0  0  0  0  0
  -23.3159   -2.2400  -13.1264 F   0  0  0  0  0  0  0  0  0  0  0  0
  -21.8541   -0.5267  -13.7859 C   0  0  0  0  0  0  0  0  0  0  0  0
  -21.6720    0.8250  -14.0209 C   0  0  0  0  0  0  0  0  0  0  0  0
  -22.8322    3.8666  -14.0729 H   0  0  0  0  0  0  0  0  0  0  0  0
  -12.4965    2.9957  -16.5279 C   0  0  0  0  0  0  0  0  0  0  0  0
  -11.9630    2.0782  -17.6525 C   0  0  0  0  0  0  0  0  0  0  0  0
  -11.4813    2.7943  -18.8555 N   0  0  0  0  0  0  0  0  0  0  0  0
  -13.4941    1.5056  -19.7081 C   0  0  0  0  0  0  0  0  0  0  0  0
  -12.3700    2.4885  -19.9932 C   0  0  0  0  0  0  0  0  0  0  0  0
  -11.3624    4.2405  -18.5793 C   0  0  0  0  0  0  0  0  0  0  0  0
  -11.7537    5.1866  -19.7149 C   0  0  0  0  0  0  0  0  0  0  0  0
 29 30  1  0  0  0
 30 28  1  0  0  0
 28 31  1  0  0  0
 28 27  1  0  0  0
 31 32  1  0  0  0
 27 26  1  0  0  0
 26  1  1  0  0  0
  1  2  1  0  0  0
  1 10  1  0  0  0
  2  3  1  0  0  0
  3  4  1  0  0  0
  4  5  1  0  0  0
  4  9  2  0  0  0
  5  6  1  0  0  0
  5 12  1  0  0  0
  6 13  1  0  0  0
  6  7  2  0  0  0
 13 14  2  0  0  0
 14 15  1  0  0  0
 14 24  1  0  0  0
 15 16  2  0  0  0
 15 17  1  0  0  0
 17 18  1  0  0  0
 17 25  1  0  0  0
 18 19  1  0  0  0
 18 24  2  0  0  0
 19 20  2  0  0  0
 20 21  1  0  0  0
 21 22  1  0  0  0
 21 23  2  0  0  0
 23 24  1  0  0  0
  7  8  1  0  0  0
  7  9  1  0  0  0
  9 10  1  0  0  0
 10 11  2  0  0  0
M  END
> <minimizedAffinity>
-7.98057

$$$$
