CHEMBL379495


 30 32  0  0  0  0  0  0  0  0999 V2000
  -26.0319   -1.9435  -11.5568 C   0  0  0  0  0  0  0  0  0  0  0  0
  -26.5574   -2.0479  -12.7477 N   0  0  0  0  0  0  0  0  0  0  0  0
  -25.6774   -1.5343  -13.6836 C   0  0  0  0  0  0  0  0  0  0  0  0
  -24.4866   -1.0431  -13.1844 C   0  0  0  0  0  0  0  0  0  0  0  0
  -24.5019   -1.1918  -11.4692 S   0  0  0  0  0  0  0  0  0  0  0  0
  -27.6042   -1.7310   -9.7575 C   0  0  0  0  0  0  0  0  0  0  0  0
  -28.2798   -0.8210  -10.2249 O   0  0  0  0  0  0  0  0  0  0  0  0
  -26.5242   -2.3501  -10.3461 N   0  0  0  0  0  0  0  0  0  0  0  0
  -26.1387   -3.2013   -9.9679 H   0  0  0  0  0  0  0  0  0  0  0  0
  -28.7275   -3.3077   -5.9035 C   0  0  0  0  0  0  0  0  0  0  0  0
  -28.0888   -2.0668   -6.0270 C   0  0  0  0  0  0  0  0  0  0  0  0
  -27.7384   -1.5651   -7.2847 C   0  0  0  0  0  0  0  0  0  0  0  0
  -28.0180   -2.2976   -8.4420 C   0  0  0  0  0  0  0  0  0  0  0  0
  -28.6319   -3.5469   -8.3275 C   0  0  0  0  0  0  0  0  0  0  0  0
  -29.0015   -4.0479   -7.0687 C   0  0  0  0  0  0  0  0  0  0  0  0
  -28.0017   -4.6420   -4.0665 C   0  0  0  0  0  0  0  0  0  0  0  0
  -29.0232   -3.8728   -4.6924 O   0  0  0  0  0  0  0  0  0  0  0  0
  -29.5702   -5.2955   -7.1356 O   0  0  0  0  0  0  0  0  0  0  0  0
  -28.7755   -6.3239   -7.7154 C   0  0  0  0  0  0  0  0  0  0  0  0
  -23.0864   -0.4020  -14.0231 S   0  0  0  0  0  0  0  0  0  0  0  0
  -23.1155    1.3739  -13.6476 C   0  0  0  0  0  0  0  0  0  0  0  0
  -21.8567    2.0602  -14.0340 C   0  0  0  0  0  0  0  0  0  0  0  0
  -21.6282    3.3498  -14.1840 N   0  0  0  0  0  0  0  0  0  0  0  0
  -20.3070    3.4071  -14.5418 C   0  0  0  0  0  0  0  0  0  0  0  0
  -19.7679    2.1399  -14.5929 C   0  0  0  0  0  0  0  0  0  0  0  0
  -20.7620    1.2648  -14.2398 O   0  0  0  0  0  0  0  0  0  0  0  0
  -18.4081    1.5803  -14.9036 C   0  0  0  0  0  0  0  0  0  0  0  0
  -17.7120    2.4785  -15.9396 C   0  0  0  0  0  0  0  0  0  0  0  0
  -17.5399    1.5069  -13.6335 C   0  0  0  0  0  0  0  0  0  0  0  0
  -18.5380    0.1581  -15.4815 C   0  0  0  0  0  0  0  0  0  0  0  0
 16 17  1  0  0  0
 17 10  1  0  0  0
 10 11  1  0  0  0
 10 15  2  0  0  0
 11 12  2  0  0  0
 12 13  1  0  0  0
 13  6  1  0  0  0
 13 14  2  0  0  0
  6  7  2  0  0  0
  6  8  1  0  0  0
  8  1  1  0  0  0
  8  9  1  0  0  0
  1  2  2  0  0  0
  1  5  1  0  0  0
  2  3  1  0  0  0
  3  4  2  0  0  0
  4 20  1  0  0  0
  4  5  1  0  0  0
 20 21  1  0  0  0
 21 22  1  0  0  0
 22 23  2  0  0  0
 22 26  1  0  0  0
 23 24  1  0  0  0
 24 25  2  0  0  0
 25 27  1  0  0  0
 25 26  1  0  0  0
 27 28  1  0  0  0
 27 29  1  0  0  0
 27 30  1  0  0  0
 14 15  1  0  0  0
 15 18  1  0  0  0
 18 19  1  0  0  0
M  END
> <minimizedAffinity>
-8.86731

$$$$
