CHEMBL3628793


 26 28  0  0  0  0  0  0  0  0999 V2000
  -28.8490   -3.4104   -6.5556 C   0  0  0  0  0  0  0  0  0  0  0  0
  -28.4547   -4.0009   -7.7655 C   0  0  0  0  0  0  0  0  0  0  0  0
  -27.7710   -3.2809   -8.7451 C   0  0  0  0  0  0  0  0  0  0  0  0
  -27.5079   -1.9289   -8.5653 C   0  0  0  0  0  0  0  0  0  0  0  0
  -27.9099   -1.3315   -7.3603 C   0  0  0  0  0  0  0  0  0  0  0  0
  -28.5672   -2.0517   -6.3439 C   0  0  0  0  0  0  0  0  0  0  0  0
  -28.9034   -1.3302   -5.0675 C   0  0  0  0  0  0  0  0  0  0  0  0
  -28.9617   -4.8471   -4.5460 C   0  0  0  0  0  0  0  0  0  0  0  0
  -27.7931   -4.8074   -4.1838 O   0  0  0  0  0  0  0  0  0  0  0  0
  -29.5377   -4.1530   -5.5732 N   0  0  0  0  0  0  0  0  0  0  0  0
  -30.5449   -4.2189   -5.6233 H   0  0  0  0  0  0  0  0  0  0  0  0
  -29.8955   -5.6573   -3.9685 O   0  0  0  0  0  0  0  0  0  0  0  0
  -32.0454   -5.0112   -3.1157 C   0  0  0  0  0  0  0  0  0  0  0  0
  -31.2433   -5.3404   -4.3637 C   0  0  0  0  0  0  0  0  0  0  0  0
  -26.7543   -1.2247   -9.5243 N   0  0  0  0  0  0  0  0  0  0  0  0
  -25.8139   -0.9969   -9.2238 H   0  0  0  0  0  0  0  0  0  0  0  0
  -26.7789   -1.4632  -10.9176 C   0  0  0  0  0  0  0  0  0  0  0  0
  -27.9788   -1.6039  -11.5122 N   0  0  0  0  0  0  0  0  0  0  0  0
  -27.9739   -1.7893  -12.8307 C   0  0  0  0  0  0  0  0  0  0  0  0
  -26.8946   -1.8273  -13.6169 N   0  0  0  0  0  0  0  0  0  0  0  0
  -25.7091   -1.6876  -13.0152 C   0  0  0  0  0  0  0  0  0  0  0  0
  -24.5651   -1.6752  -13.8005 C   0  0  0  0  0  0  0  0  0  0  0  0
  -23.2896   -1.5288  -13.2481 C   0  0  0  0  0  0  0  0  0  0  0  0
  -23.1425   -1.4005  -11.8738 C   0  0  0  0  0  0  0  0  0  0  0  0
  -24.2749   -1.3956  -11.0637 C   0  0  0  0  0  0  0  0  0  0  0  0
  -25.5703   -1.5296  -11.6300 C   0  0  0  0  0  0  0  0  0  0  0  0
 13 14  1  0  0  0
 14 12  1  0  0  0
 12  8  1  0  0  0
  8  9  2  0  0  0
  8 10  1  0  0  0
 10  1  1  0  0  0
 10 11  1  0  0  0
  1  2  1  0  0  0
  1  6  2  0  0  0
  2  3  2  0  0  0
  3  4  1  0  0  0
  4 15  1  0  0  0
  4  5  2  0  0  0
 15 17  1  0  0  0
 15 16  1  0  0  0
 17 18  1  0  0  0
 17 26  2  0  0  0
 18 19  2  0  0  0
 19 20  1  0  0  0
 20 21  2  0  0  0
 21 22  1  0  0  0
 21 26  1  0  0  0
 22 23  2  0  0  0
 23 24  1  0  0  0
 24 25  2  0  0  0
 25 26  1  0  0  0
  5  6  1  0  0  0
  6  7  1  0  0  0
M  END
> <minimizedAffinity>
-8.44111

$$$$
