CHEMBL1181730


 23 24  0  0  0  0  0  0  0  0999 V2000
  -29.2826   -5.2783   -6.0070 N   0  0  0  0  0  0  0  0  0  0  0  0
  -28.4595   -5.9442   -6.8728 C   0  0  0  0  0  0  0  0  0  0  0  0
  -29.2337   -6.9671   -7.3761 C   0  0  0  0  0  0  0  0  0  0  0  0
  -28.8850   -7.8898   -8.3451 C   0  0  0  0  0  0  0  0  0  0  0  0
  -27.7180   -7.8912   -9.0946 N   0  0  0  0  0  0  0  0  0  0  0  0
  -29.8494   -8.8184   -8.5649 N   0  0  0  0  0  0  0  0  0  0  0  0
  -31.0126   -8.7507   -7.8313 C   0  0  0  0  0  0  0  0  0  0  0  0
  -31.4246   -7.8452   -6.8982 N   0  0  0  0  0  0  0  0  0  0  0  0
  -30.4625   -6.9120   -6.6886 C   0  0  0  0  0  0  0  0  0  0  0  0
  -30.5038   -5.8575   -5.8693 N   0  0  0  0  0  0  0  0  0  0  0  0
  -27.2909   -6.9804   -9.2006 H   0  0  0  0  0  0  0  0  0  0  0  0
  -27.8231   -8.4285   -9.9421 H   0  0  0  0  0  0  0  0  0  0  0  0
  -28.9778   -4.0040   -5.3218 C   0  0  0  0  0  0  0  0  0  0  0  0
  -29.5863   -3.9524   -3.8876 C   0  0  0  0  0  0  0  0  0  0  0  0
  -29.0965   -2.8142   -2.9974 C   0  0  0  0  0  0  0  0  0  0  0  0
  -31.0207   -3.8802   -3.9376 O   0  0  0  0  0  0  0  0  0  0  0  0
  -31.2580   -2.9866   -4.2661 H   0  0  0  0  0  0  0  0  0  0  0  0
  -29.3668   -2.8049   -6.2369 C   0  0  0  0  0  0  0  0  0  0  0  0
  -28.2146   -2.2318   -7.0747 C   0  0  0  0  0  0  0  0  0  0  0  0
  -28.0623   -0.7114   -6.9340 C   0  0  0  0  0  0  0  0  0  0  0  0
  -27.5967   -0.3721   -5.5137 C   0  0  0  0  0  0  0  0  0  0  0  0
  -29.7846    0.8662   -5.5823 C   0  0  0  0  0  0  0  0  0  0  0  0
  -28.4425    0.7283   -4.8791 C   0  0  0  0  0  0  0  0  0  0  0  0
 22 23  1  0  0  0
 23 21  1  0  0  0
 21 20  1  0  0  0
 20 19  1  0  0  0
 19 18  1  0  0  0
 18 13  1  0  0  0
 13 14  1  0  0  0
 13  1  1  0  0  0
 14 15  1  0  0  0
 14 16  1  0  0  0
 16 17  1  0  0  0
  1  2  1  0  0  0
  1 10  1  0  0  0
  2  3  2  0  0  0
  3  4  1  0  0  0
  3  9  1  0  0  0
  4  5  1  0  0  0
  4  6  2  0  0  0
  5 11  1  0  0  0
  5 12  1  0  0  0
  6  7  1  0  0  0
  7  8  2  0  0  0
  8  9  1  0  0  0
  9 10  2  0  0  0
M  END
> <minimizedAffinity>
-6.76659

$$$$
