CHEMBL3911207


 31 34  0  0  0  0  0  0  0  0999 V2000
  -27.2679   -9.8924   -4.5040 C   0  0  0  0  0  0  0  0  0  0  0  0
  -28.2672   -8.9345   -4.3062 C   0  0  0  0  0  0  0  0  0  0  0  0
  -28.9848   -8.3944   -5.4002 C   0  0  0  0  0  0  0  0  0  0  0  0
  -29.8008   -7.2597   -5.3448 C   0  0  0  0  0  0  0  0  0  0  0  0
  -30.4617   -6.8027   -6.4305 N   0  0  0  0  0  0  0  0  0  0  0  0
  -30.2811   -7.4579   -7.5747 C   0  0  0  0  0  0  0  0  0  0  0  0
  -29.4912   -8.5178   -7.7468 N   0  0  0  0  0  0  0  0  0  0  0  0
  -28.8381   -8.9541   -6.6655 C   0  0  0  0  0  0  0  0  0  0  0  0
  -27.9257   -9.9754   -6.8326 C   0  0  0  0  0  0  0  0  0  0  0  0
  -27.0808  -10.4098   -5.7950 C   0  0  0  0  0  0  0  0  0  0  0  0
  -26.6897  -11.6147   -2.9447 C   0  0  0  0  0  0  0  0  0  0  0  0
  -26.4383  -10.3222   -3.5010 O   0  0  0  0  0  0  0  0  0  0  0  0
  -29.8430   -6.4776   -4.1572 N   0  0  0  0  0  0  0  0  0  0  0  0
  -30.7139   -6.6388   -3.6512 H   0  0  0  0  0  0  0  0  0  0  0  0
  -29.4293   -5.1282   -4.0951 C   0  0  0  0  0  0  0  0  0  0  0  0
  -28.0961   -4.7923   -4.3854 C   0  0  0  0  0  0  0  0  0  0  0  0
  -27.7021   -3.4621   -4.5072 C   0  0  0  0  0  0  0  0  0  0  0  0
  -28.6371   -2.4521   -4.3039 C   0  0  0  0  0  0  0  0  0  0  0  0
  -28.1355   -0.6523   -4.5868 Br  0  0  0  0  0  0  0  0  0  0  0  0
  -29.9403   -2.7562   -3.9209 C   0  0  0  0  0  0  0  0  0  0  0  0
  -30.3313   -4.0927   -3.8070 C   0  0  0  0  0  0  0  0  0  0  0  0
  -31.9605   -4.4498   -3.3498 Cl  0  0  0  0  0  0  0  0  0  0  0  0
  -26.0472  -11.3062   -6.0243 O   0  0  0  0  0  0  0  0  0  0  0  0
  -24.8844  -10.6893   -6.6063 C   0  0  0  0  0  0  0  0  0  0  0  0
  -23.8583  -10.1560   -5.5970 C   0  0  0  0  0  0  0  0  0  0  0  0
  -22.6103   -9.5404   -6.2483 C   0  0  0  0  0  0  0  0  0  0  0  0
  -21.8116  -10.5643   -6.9520 N   0  0  0  0  0  0  0  0  0  0  0  0
  -20.6424   -9.9564   -7.5784 C   0  0  0  0  0  0  0  0  0  0  0  0
  -21.4221  -11.6110   -5.9884 C   0  0  0  0  0  0  0  0  0  0  0  0
  -22.6484  -12.2098   -5.2792 C   0  0  0  0  0  0  0  0  0  0  0  0
  -23.4709  -11.2005   -4.6656 O   0  0  0  0  0  0  0  0  0  0  0  0
 11 12  1  0  0  0
 12  1  1  0  0  0
  1  2  1  0  0  0
  1 10  2  0  0  0
  2  3  2  0  0  0
  3  4  1  0  0  0
  3  8  1  0  0  0
  4 13  1  0  0  0
  4  5  2  0  0  0
 13 15  1  0  0  0
 13 14  1  0  0  0
 15 16  1  0  0  0
 15 21  2  0  0  0
 16 17  2  0  0  0
 17 18  1  0  0  0
 18 19  1  0  0  0
 18 20  2  0  0  0
 20 21  1  0  0  0
 21 22  1  0  0  0
  5  6  1  0  0  0
  6  7  2  0  0  0
  7  8  1  0  0  0
  8  9  2  0  0  0
  9 10  1  0  0  0
 10 23  1  0  0  0
 23 24  1  0  0  0
 24 25  1  0  0  0
 25 26  1  0  0  0
 25 31  1  0  0  0
 26 27  1  0  0  0
 27 28  1  0  0  0
 27 29  1  0  0  0
 29 30  1  0  0  0
 30 31  1  0  0  0
M  END
> <minimizedAffinity>
-7.61537

$$$$
