CHEMBL2113188


 39 42  0  0  0  0  0  0  0  0999 V2000
  -29.4393   -3.5302   -4.0302 C   0  0  0  0  0  0  0  0  0  0  0  0
  -28.1841   -3.9683   -3.8728 C   0  0  0  0  0  0  0  0  0  0  0  0
  -27.8285   -5.3953   -3.8803 C   0  0  0  0  0  0  0  0  0  0  0  0
  -26.6502   -5.7336   -3.8817 O   0  0  0  0  0  0  0  0  0  0  0  0
  -28.9435   -6.3879   -3.8572 C   0  0  0  0  0  0  0  0  0  0  0  0
  -30.2063   -5.9579   -4.0140 C   0  0  0  0  0  0  0  0  0  0  0  0
  -30.5426   -4.5310   -4.1474 C   0  0  0  0  0  0  0  0  0  0  0  0
  -31.7035   -4.1680   -4.3157 O   0  0  0  0  0  0  0  0  0  0  0  0
  -29.8286   -2.1986   -4.0806 N   0  0  0  0  0  0  0  0  0  0  0  0
  -30.8483   -2.1263   -4.1580 H   0  0  0  0  0  0  0  0  0  0  0  0
  -27.7818   -2.5061   -8.7328 C   0  0  0  0  0  0  0  0  0  0  0  0
  -27.6154   -1.1872   -8.2265 C   0  0  0  0  0  0  0  0  0  0  0  0
  -28.1060   -0.7650   -6.9981 C   0  0  0  0  0  0  0  0  0  0  0  0
  -27.9498    0.5043   -6.5976 N   0  0  0  0  0  0  0  0  0  0  0  0
  -28.4604    0.8357   -5.4030 C   0  0  0  0  0  0  0  0  0  0  0  0
  -29.0842    0.0105   -4.5609 N   0  0  0  0  0  0  0  0  0  0  0  0
  -29.2217   -1.2587   -4.9678 C   0  0  0  0  0  0  0  0  0  0  0  0
  -28.7691   -1.7072   -6.2122 C   0  0  0  0  0  0  0  0  0  0  0  0
  -28.9582   -3.0111   -6.7130 C   0  0  0  0  0  0  0  0  0  0  0  0
  -28.4610   -3.4440   -7.9508 C   0  0  0  0  0  0  0  0  0  0  0  0
  -28.8139   -4.7459   -8.1240 O   0  0  0  0  0  0  0  0  0  0  0  0
  -30.0165   -5.3369   -7.6812 C   0  0  0  0  0  0  0  0  0  0  0  0
  -27.2115   -2.6153   -9.9696 O   0  0  0  0  0  0  0  0  0  0  0  0
  -26.4731   -1.5218  -10.4918 C   0  0  0  0  0  0  0  0  0  0  0  0
  -26.8212   -1.2193  -11.9395 C   0  0  0  0  0  0  0  0  0  0  0  0
  -24.6517   -0.3537  -12.0493 C   0  0  0  0  0  0  0  0  0  0  0  0
  -25.6421   -1.1102  -12.7317 O   0  0  0  0  0  0  0  0  0  0  0  0
  -28.5764   -7.7095   -3.6826 O   0  0  0  0  0  0  0  0  0  0  0  0
  -27.6016   -8.2597   -4.5934 C   0  0  0  0  0  0  0  0  0  0  0  0
  -26.7291   -9.2995   -3.9053 C   0  0  0  0  0  0  0  0  0  0  0  0
  -27.2531  -10.5242   -3.4634 C   0  0  0  0  0  0  0  0  0  0  0  0
  -26.4025  -11.5355   -3.0150 C   0  0  0  0  0  0  0  0  0  0  0  0
  -25.0239  -11.3347   -3.0017 C   0  0  0  0  0  0  0  0  0  0  0  0
  -24.4957  -10.1041   -3.3841 C   0  0  0  0  0  0  0  0  0  0  0  0
  -25.3429   -9.0855   -3.8200 C   0  0  0  0  0  0  0  0  0  0  0  0
  -28.3003   -8.8513   -5.8465 C   0  0  0  0  0  0  0  0  0  0  0  0
  -29.5548   -9.2844   -5.5882 F   0  0  0  0  0  0  0  0  0  0  0  0
  -28.4079   -7.8924   -6.8056 F   0  0  0  0  0  0  0  0  0  0  0  0
  -27.6310   -9.8850   -6.4060 F   0  0  0  0  0  0  0  0  0  0  0  0
 26 27  1  0  0  0
 27 25  1  0  0  0
 25 24  1  0  0  0
 24 23  1  0  0  0
 23 11  1  0  0  0
 11 12  1  0  0  0
 11 20  2  0  0  0
 12 13  2  0  0  0
 13 14  1  0  0  0
 13 18  1  0  0  0
 14 15  2  0  0  0
 15 16  1  0  0  0
 16 17  2  0  0  0
 17  9  1  0  0  0
 17 18  1  0  0  0
  9  1  1  0  0  0
  9 10  1  0  0  0
  1  2  2  0  0  0
  1  7  1  0  0  0
  2  3  1  0  0  0
  3  4  2  0  0  0
  3  5  1  0  0  0
  5 28  1  0  0  0
  5  6  2  0  0  0
 28 29  1  0  0  0
 29 30  1  0  0  0
 29 36  1  0  0  0
 30 31  1  0  0  0
 30 35  2  0  0  0
 31 32  2  0  0  0
 32 33  1  0  0  0
 33 34  2  0  0  0
 34 35  1  0  0  0
 36 37  1  0  0  0
 36 38  1  0  0  0
 36 39  1  0  0  0
  6  7  1  0  0  0
  7  8  2  0  0  0
 18 19  2  0  0  0
 19 20  1  0  0  0
 20 21  1  0  0  0
 21 22  1  0  0  0
M  END
> <minimizedAffinity>
-8.09398

$$$$
