CHEMBL402049


 25 28  0  0  0  0  0  0  0  0999 V2000
  -29.8048   -8.6296   -6.1396 C   0  0  0  0  0  0  0  0  0  0  0  0
  -29.2884   -9.2872   -5.1252 N   0  0  0  0  0  0  0  0  0  0  0  0
  -28.4143   -8.4242   -4.5022 N   0  0  0  0  0  0  0  0  0  0  0  0
  -28.2984   -7.1734   -5.0868 C   0  0  0  0  0  0  0  0  0  0  0  0
  -27.5603   -6.2682   -4.7627 O   0  0  0  0  0  0  0  0  0  0  0  0
  -29.2978   -7.2345   -6.1771 C   0  0  0  0  0  0  0  0  0  0  0  0
  -29.7154   -6.2226   -6.9454 C   0  0  0  0  0  0  0  0  0  0  0  0
  -27.8634   -8.7225   -3.7057 H   0  0  0  0  0  0  0  0  0  0  0  0
  -29.2045   -4.8985   -6.9654 C   0  0  0  0  0  0  0  0  0  0  0  0
  -28.4751   -4.4077   -8.0230 C   0  0  0  0  0  0  0  0  0  0  0  0
  -28.2474   -3.0800   -7.7856 N   0  0  0  0  0  0  0  0  0  0  0  0
  -27.5330   -2.2010   -8.6844 C   0  0  0  0  0  0  0  0  0  0  0  0
  -28.8313   -2.6985   -6.5940 C   0  0  0  0  0  0  0  0  0  0  0  0
  -28.8973   -1.4380   -5.9717 C   0  0  0  0  0  0  0  0  0  0  0  0
  -29.5626   -1.3323   -4.7462 C   0  0  0  0  0  0  0  0  0  0  0  0
  -30.1326   -2.4481   -4.1445 C   0  0  0  0  0  0  0  0  0  0  0  0
  -30.0599   -3.6878   -4.7797 C   0  0  0  0  0  0  0  0  0  0  0  0
  -30.7473   -5.0798   -4.0565 Cl  0  0  0  0  0  0  0  0  0  0  0  0
  -29.4189   -3.8423   -6.0287 C   0  0  0  0  0  0  0  0  0  0  0  0
  -32.8807   -7.9202   -6.7675 C   0  0  0  0  0  0  0  0  0  0  0  0
  -32.0376   -8.9993   -7.3402 C   0  0  0  0  0  0  0  0  0  0  0  0
  -32.6205   -9.8524   -8.2725 N   0  0  0  0  0  0  0  0  0  0  0  0
  -31.7836  -10.7895   -8.6763 N   0  0  0  0  0  0  0  0  0  0  0  0
  -30.2981  -10.6861   -7.9343 S   0  0  0  0  0  0  0  0  0  0  0  0
  -30.7028   -9.2681   -7.0590 C   0  0  0  0  0  0  0  0  0  0  0  0
 20 21  1  0  0  0
 21 22  1  0  0  0
 21 25  2  0  0  0
 22 23  2  0  0  0
 23 24  1  0  0  0
 24 25  1  0  0  0
 25  1  1  0  0  0
  1  2  2  0  0  0
  1  6  1  0  0  0
  2  3  1  0  0  0
  3  4  1  0  0  0
  3  8  1  0  0  0
  4  5  2  0  0  0
  4  6  1  0  0  0
  6  7  2  0  0  0
  7  9  1  0  0  0
  9 10  2  0  0  0
  9 19  1  0  0  0
 10 11  1  0  0  0
 11 12  1  0  0  0
 11 13  1  0  0  0
 13 14  1  0  0  0
 13 19  2  0  0  0
 14 15  2  0  0  0
 15 16  1  0  0  0
 16 17  2  0  0  0
 17 18  1  0  0  0
 17 19  1  0  0  0
M  END
> <minimizedAffinity>
-8.41551

$$$$
