CHEMBL3221548


 39 41  0  0  0  0  0  0  0  0999 V2000
  -28.0565  -10.0532   -6.0720 C   0  0  0  0  0  0  0  0  0  0  0  0
  -29.0036   -9.0392   -5.8039 C   0  0  0  0  0  0  0  0  0  0  0  0
  -30.2593   -9.0009   -6.4416 C   0  0  0  0  0  0  0  0  0  0  0  0
  -31.2391   -8.0008   -6.2213 C   0  0  0  0  0  0  0  0  0  0  0  0
  -32.4157   -8.0890   -6.9098 N   0  0  0  0  0  0  0  0  0  0  0  0
  -32.6900   -9.0890   -7.7739 C   0  0  0  0  0  0  0  0  0  0  0  0
  -31.7705  -10.0477   -7.9877 N   0  0  0  0  0  0  0  0  0  0  0  0
  -30.5757  -10.0144   -7.3491 C   0  0  0  0  0  0  0  0  0  0  0  0
  -29.6799  -11.0209   -7.6118 C   0  0  0  0  0  0  0  0  0  0  0  0
  -28.3982  -11.0928   -6.9981 C   0  0  0  0  0  0  0  0  0  0  0  0
  -31.0309   -6.8943   -5.3410 N   0  0  0  0  0  0  0  0  0  0  0  0
  -31.3660   -6.9654   -4.3726 H   0  0  0  0  0  0  0  0  0  0  0  0
  -30.2830   -5.7209   -5.6871 C   0  0  0  0  0  0  0  0  0  0  0  0
  -30.0859   -5.3231   -7.0195 C   0  0  0  0  0  0  0  0  0  0  0  0
  -29.3388   -4.2021   -7.3293 C   0  0  0  0  0  0  0  0  0  0  0  0
  -28.7466   -3.4119   -6.3243 C   0  0  0  0  0  0  0  0  0  0  0  0
  -28.9942   -3.7727   -4.9749 C   0  0  0  0  0  0  0  0  0  0  0  0
  -28.3541   -2.8400   -3.6265 Cl  0  0  0  0  0  0  0  0  0  0  0  0
  -29.7518   -4.9142   -4.6707 C   0  0  0  0  0  0  0  0  0  0  0  0
  -27.9419   -2.2559   -6.6240 N   0  0  0  0  0  0  0  0  0  0  0  0
  -28.2999   -0.9518   -6.4257 C   0  0  0  0  0  0  0  0  0  0  0  0
  -27.4971   -0.0670   -6.6881 O   0  0  0  0  0  0  0  0  0  0  0  0
  -27.0123   -2.4100   -7.0394 H   0  0  0  0  0  0  0  0  0  0  0  0
  -29.5399   -0.6190   -5.9841 O   0  0  0  0  0  0  0  0  0  0  0  0
  -29.8736    0.5298   -5.2975 C   0  0  0  0  0  0  0  0  0  0  0  0
  -30.6997    1.4465   -6.1947 C   0  0  0  0  0  0  0  0  0  0  0  0
  -26.8921   -9.9070   -5.3772 O   0  0  0  0  0  0  0  0  0  0  0  0
  -26.5166   -9.2916   -4.1902 C   0  0  0  0  0  0  0  0  0  0  0  0
  -25.0245   -9.0817   -3.9519 C   0  0  0  0  0  0  0  0  0  0  0  0
  -23.3829   -9.8182   -5.7082 C   0  0  0  0  0  0  0  0  0  0  0  0
  -24.2185  -10.2559   -4.5094 C   0  0  0  0  0  0  0  0  0  0  0  0
  -27.5754  -12.1494   -7.3211 O   0  0  0  0  0  0  0  0  0  0  0  0
  -27.0216  -12.2212   -8.5971 C   0  0  0  0  0  0  0  0  0  0  0  0
  -26.1921  -11.0578   -9.1452 C   0  0  0  0  0  0  0  0  0  0  0  0
  -26.8311  -10.5433  -10.4023 N   0  0  0  0  0  0  0  0  0  0  0  0
  -28.1556  -11.1461  -10.7459 C   0  0  0  0  0  0  0  0  0  0  0  0
  -28.9073  -10.4001  -11.8512 C   0  0  0  0  0  0  0  0  0  0  0  0
  -26.8151   -9.0630  -10.4557 C   0  0  0  0  0  0  0  0  0  0  0  0
  -27.4643   -8.4050   -9.2259 C   0  0  0  0  0  0  0  0  0  0  0  0
 30 31  1  0  0  0
 31 29  1  0  0  0
 29 28  1  0  0  0
 28 27  1  0  0  0
 27  1  1  0  0  0
  1  2  1  0  0  0
  1 10  2  0  0  0
  2  3  2  0  0  0
  3  4  1  0  0  0
  3  8  1  0  0  0
  4 11  1  0  0  0
  4  5  2  0  0  0
 11 13  1  0  0  0
 11 12  1  0  0  0
 13 14  1  0  0  0
 13 19  2  0  0  0
 14 15  2  0  0  0
 15 16  1  0  0  0
 16 20  1  0  0  0
 16 17  2  0  0  0
 20 21  1  0  0  0
 20 23  1  0  0  0
 21 22  2  0  0  0
 21 24  1  0  0  0
 24 25  1  0  0  0
 25 26  1  0  0  0
 17 18  1  0  0  0
 17 19  1  0  0  0
  5  6  1  0  0  0
  6  7  2  0  0  0
  7  8  1  0  0  0
  8  9  2  0  0  0
  9 10  1  0  0  0
 10 32  1  0  0  0
 32 33  1  0  0  0
 33 34  1  0  0  0
 34 35  1  0  0  0
 35 36  1  0  0  0
 35 38  1  0  0  0
 36 37  1  0  0  0
 38 39  1  0  0  0
M  END
> <minimizedAffinity>
-7.06214

$$$$
