CHEMBL459647


 41 45  0  0  0  0  0  0  0  0999 V2000
  -14.6511   -1.3930  -14.1318 N   0  0  0  0  0  0  0  0  0  0  0  0
  -14.8076   -0.1802  -13.4775 C   0  0  0  0  0  0  0  0  0  0  0  0
  -15.2763   -0.0490  -12.3501 O   0  0  0  0  0  0  0  0  0  0  0  0
  -14.4007   -1.3597  -15.1205 H   0  0  0  0  0  0  0  0  0  0  0  0
  -15.1189   -5.2828  -12.4609 C   0  0  0  0  0  0  0  0  0  0  0  0
  -16.1974   -4.6560  -13.0783 C   0  0  0  0  0  0  0  0  0  0  0  0
  -16.0413   -3.3877  -13.6503 C   0  0  0  0  0  0  0  0  0  0  0  0
  -14.8402   -2.6757  -13.5509 C   0  0  0  0  0  0  0  0  0  0  0  0
  -13.7962   -3.2572  -12.8247 C   0  0  0  0  0  0  0  0  0  0  0  0
  -13.9399   -4.5500  -12.2976 C   0  0  0  0  0  0  0  0  0  0  0  0
  -12.9002   -5.0975  -11.6492 F   0  0  0  0  0  0  0  0  0  0  0  0
  -15.1118   -6.5982  -12.0409 O   0  0  0  0  0  0  0  0  0  0  0  0
  -13.4243   -7.9908  -16.7388 C   0  0  0  0  0  0  0  0  0  0  0  0
  -14.2164   -6.9264  -16.3363 C   0  0  0  0  0  0  0  0  0  0  0  0
  -14.4232   -6.6966  -14.9801 C   0  0  0  0  0  0  0  0  0  0  0  0
  -13.9249   -7.5818  -13.9967 C   0  0  0  0  0  0  0  0  0  0  0  0
  -14.2446   -7.5102  -12.6145 C   0  0  0  0  0  0  0  0  0  0  0  0
  -13.6331   -8.3782  -11.7183 C   0  0  0  0  0  0  0  0  0  0  0  0
  -12.7675   -9.3267  -12.2239 C   0  0  0  0  0  0  0  0  0  0  0  0
  -12.4962   -9.4764  -13.5342 N   0  0  0  0  0  0  0  0  0  0  0  0
  -13.0743   -8.6295  -14.4064 C   0  0  0  0  0  0  0  0  0  0  0  0
  -12.8381   -8.8072  -15.7661 C   0  0  0  0  0  0  0  0  0  0  0  0
  -13.7229   -9.5361  -18.5131 C   0  0  0  0  0  0  0  0  0  0  0  0
  -13.1474   -8.3233  -18.0366 O   0  0  0  0  0  0  0  0  0  0  0  0
  -14.3525    1.0213  -14.2122 C   0  0  0  0  0  0  0  0  0  0  0  0
  -13.4181    1.9226  -13.8298 C   0  0  0  0  0  0  0  0  0  0  0  0
  -12.6465    1.9445  -12.5442 C   0  0  0  0  0  0  0  0  0  0  0  0
  -13.1914    2.8828  -14.8178 N   0  0  0  0  0  0  0  0  0  0  0  0
  -14.0489    2.5863  -15.8903 N   0  0  0  0  0  0  0  0  0  0  0  0
  -14.8408    1.4931  -15.5345 C   0  0  0  0  0  0  0  0  0  0  0  0
  -15.7455    0.9479  -16.1507 O   0  0  0  0  0  0  0  0  0  0  0  0
  -14.2361    3.4253  -16.9964 C   0  0  0  0  0  0  0  0  0  0  0  0
  -13.6011    3.1564  -18.2127 C   0  0  0  0  0  0  0  0  0  0  0  0
  -13.8005    4.0011  -19.3081 C   0  0  0  0  0  0  0  0  0  0  0  0
  -14.5926    5.1416  -19.1771 C   0  0  0  0  0  0  0  0  0  0  0  0
  -15.2023    5.4302  -17.9569 C   0  0  0  0  0  0  0  0  0  0  0  0
  -15.0372    4.5656  -16.8730 C   0  0  0  0  0  0  0  0  0  0  0  0
  -12.3740    4.0951  -14.7432 C   0  0  0  0  0  0  0  0  0  0  0  0
  -10.9800    3.9472  -15.3836 C   0  0  0  0  0  0  0  0  0  0  0  0
  -10.6966    2.5270  -15.8733 C   0  0  0  0  0  0  0  0  0  0  0  0
  -10.8353    4.9195  -16.5611 C   0  0  0  0  0  0  0  0  0  0  0  0
 23 24  1  0  0  0
 24 13  1  0  0  0
 13 14  1  0  0  0
 13 22  2  0  0  0
 14 15  2  0  0  0
 15 16  1  0  0  0
 16 17  1  0  0  0
 16 21  2  0  0  0
 17 12  1  0  0  0
 17 18  2  0  0  0
 12  5  1  0  0  0
  5  6  1  0  0  0
  5 10  2  0  0  0
  6  7  2  0  0  0
  7  8  1  0  0  0
  8  1  1  0  0  0
  8  9  2  0  0  0
  1  2  1  0  0  0
  1  4  1  0  0  0
  2  3  2  0  0  0
  2 25  1  0  0  0
 25 26  2  0  0  0
 25 30  1  0  0  0
 26 27  1  0  0  0
 26 28  1  0  0  0
 28 38  1  0  0  0
 28 29  1  0  0  0
 38 39  1  0  0  0
 39 40  1  0  0  0
 39 41  1  0  0  0
 29 32  1  0  0  0
 29 30  1  0  0  0
 32 33  1  0  0  0
 32 37  2  0  0  0
 33 34  2  0  0  0
 34 35  1  0  0  0
 35 36  2  0  0  0
 36 37  1  0  0  0
 30 31  2  0  0  0
  9 10  1  0  0  0
 10 11  1  0  0  0
 18 19  1  0  0  0
 19 20  2  0  0  0
 20 21  1  0  0  0
 21 22  1  0  0  0
M  END
> <minimizedAffinity>
-7.84309

$$$$
