CHEMBL3288513


 34 38  0  0  0  0  0  0  0  0999 V2000
  -22.8467   -0.2649  -13.6012 C   0  0  0  0  0  0  0  0  0  0  0  0
  -22.9742   -0.2773  -12.2040 C   0  0  0  0  0  0  0  0  0  0  0  0
  -24.1208   -0.7772  -11.5707 C   0  0  0  0  0  0  0  0  0  0  0  0
  -25.2553   -1.1840  -12.3079 C   0  0  0  0  0  0  0  0  0  0  0  0
  -26.5028   -1.6075  -11.7600 C   0  0  0  0  0  0  0  0  0  0  0  0
  -27.5643   -1.9793  -12.6086 C   0  0  0  0  0  0  0  0  0  0  0  0
  -27.4181   -1.9483  -13.9892 C   0  0  0  0  0  0  0  0  0  0  0  0
  -26.1997   -1.5678  -14.5365 C   0  0  0  0  0  0  0  0  0  0  0  0
  -25.1268   -1.1913  -13.7164 C   0  0  0  0  0  0  0  0  0  0  0  0
  -23.9148   -0.8134  -14.3186 C   0  0  0  0  0  0  0  0  0  0  0  0
  -23.0086    3.1463  -13.3258 N   0  0  0  0  0  0  0  0  0  0  0  0
  -21.9070    2.9216  -14.0599 C   0  0  0  0  0  0  0  0  0  0  0  0
  -21.2102    3.9528  -14.5268 N   0  0  0  0  0  0  0  0  0  0  0  0
  -20.1819    3.3804  -15.1546 N   0  0  0  0  0  0  0  0  0  0  0  0
  -20.1814    2.0157  -15.1142 C   0  0  0  0  0  0  0  0  0  0  0  0
  -19.2547    1.1104  -15.6364 C   0  0  0  0  0  0  0  0  0  0  0  0
  -19.5190   -0.2408  -15.4625 C   0  0  0  0  0  0  0  0  0  0  0  0
  -20.6759   -0.6559  -14.8081 C   0  0  0  0  0  0  0  0  0  0  0  0
  -21.6260    0.2524  -14.2689 C   0  0  0  0  0  0  0  0  0  0  0  0
  -21.3421    1.6499  -14.4231 C   0  0  0  0  0  0  0  0  0  0  0  0
  -23.1633    4.1155  -13.0689 H   0  0  0  0  0  0  0  0  0  0  0  0
  -23.2562    2.4978  -12.5881 H   0  0  0  0  0  0  0  0  0  0  0  0
  -19.4974    3.9850  -15.5959 H   0  0  0  0  0  0  0  0  0  0  0  0
  -26.7913   -1.7548  -10.3069 C   0  0  0  0  0  0  0  0  0  0  0  0
  -25.9289   -1.3701   -9.5244 O   0  0  0  0  0  0  0  0  0  0  0  0
  -27.9740   -2.3891   -9.9629 N   0  0  0  0  0  0  0  0  0  0  0  0
  -28.5157   -2.7959  -10.7155 H   0  0  0  0  0  0  0  0  0  0  0  0
  -28.4166   -2.6699   -8.6491 C   0  0  0  0  0  0  0  0  0  0  0  0
  -29.2210   -3.7689   -8.3222 C   0  0  0  0  0  0  0  0  0  0  0  0
  -29.7128   -3.9344   -7.0247 C   0  0  0  0  0  0  0  0  0  0  0  0
  -29.3835   -3.0081   -6.0473 C   0  0  0  0  0  0  0  0  0  0  0  0
  -29.8863   -3.1412   -4.8134 F   0  0  0  0  0  0  0  0  0  0  0  0
  -28.5411   -1.9409   -6.3349 C   0  0  0  0  0  0  0  0  0  0  0  0
  -28.0491   -1.7764   -7.6335 C   0  0  0  0  0  0  0  0  0  0  0  0
 11 12  1  0  0  0
 11 21  1  0  0  0
 11 22  1  0  0  0
 12 13  2  0  0  0
 12 20  1  0  0  0
 13 14  1  0  0  0
 14 15  1  0  0  0
 14 23  1  0  0  0
 15 16  1  0  0  0
 15 20  2  0  0  0
 16 17  2  0  0  0
 17 18  1  0  0  0
 18 19  2  0  0  0
 19  1  1  0  0  0
 19 20  1  0  0  0
  1  2  1  0  0  0
  1 10  2  0  0  0
  2  3  2  0  0  0
  3  4  1  0  0  0
  4  5  1  0  0  0
  4  9  2  0  0  0
  5 24  1  0  0  0
  5  6  2  0  0  0
 24 25  2  0  0  0
 24 26  1  0  0  0
 26 28  1  0  0  0
 26 27  1  0  0  0
 28 29  1  0  0  0
 28 34  2  0  0  0
 29 30  2  0  0  0
 30 31  1  0  0  0
 31 32  1  0  0  0
 31 33  2  0  0  0
 33 34  1  0  0  0
  6  7  1  0  0  0
  7  8  2  0  0  0
  8  9  1  0  0  0
  9 10  1  0  0  0
M  END
> <minimizedAffinity>
-11.21731

$$$$
