CHEMBL3671514


 40 43  0  0  0  0  0  0  0  0999 V2000
  -15.3273   -0.7062  -13.6057 C   0  0  0  0  0  0  0  0  0  0  0  0
  -16.2581    0.2879  -13.9034 C   0  0  0  0  0  0  0  0  0  0  0  0
  -16.0394    1.1878  -14.9683 C   0  0  0  0  0  0  0  0  0  0  0  0
  -16.8537    2.2927  -15.2625 C   0  0  0  0  0  0  0  0  0  0  0  0
  -16.5926    3.1061  -16.3058 N   0  0  0  0  0  0  0  0  0  0  0  0
  -15.5078    2.8444  -17.0244 C   0  0  0  0  0  0  0  0  0  0  0  0
  -14.6373    1.8534  -16.8032 N   0  0  0  0  0  0  0  0  0  0  0  0
  -14.8997    1.0413  -15.7739 C   0  0  0  0  0  0  0  0  0  0  0  0
  -14.0015    0.0190  -15.4819 C   0  0  0  0  0  0  0  0  0  0  0  0
  -14.2012   -0.8803  -14.4263 C   0  0  0  0  0  0  0  0  0  0  0  0
  -15.9302   -2.8069  -12.5952 C   0  0  0  0  0  0  0  0  0  0  0  0
  -16.1391   -3.3861  -13.6506 O   0  0  0  0  0  0  0  0  0  0  0  0
  -15.5550   -1.4802  -12.4512 N   0  0  0  0  0  0  0  0  0  0  0  0
  -14.9018   -1.3288  -11.6927 H   0  0  0  0  0  0  0  0  0  0  0  0
  -15.1362   -3.2575  -10.3100 C   0  0  0  0  0  0  0  0  0  0  0  0
  -16.0344   -3.4898  -11.2755 C   0  0  0  0  0  0  0  0  0  0  0  0
  -17.9406    2.6288  -14.4088 N   0  0  0  0  0  0  0  0  0  0  0  0
  -17.6348    2.7011  -13.4414 H   0  0  0  0  0  0  0  0  0  0  0  0
  -19.2233    2.0426  -14.5344 C   0  0  0  0  0  0  0  0  0  0  0  0
  -19.3641    0.7656  -15.0964 C   0  0  0  0  0  0  0  0  0  0  0  0
  -20.5936    0.1078  -15.0840 C   0  0  0  0  0  0  0  0  0  0  0  0
  -21.7154    0.7393  -14.5467 C   0  0  0  0  0  0  0  0  0  0  0  0
  -23.3160   -0.2789  -14.4506 Br  0  0  0  0  0  0  0  0  0  0  0  0
  -21.6140    2.0494  -14.0736 C   0  0  0  0  0  0  0  0  0  0  0  0
  -22.9810    2.9052  -13.4338 Cl  0  0  0  0  0  0  0  0  0  0  0  0
  -20.3723    2.6951  -14.0777 C   0  0  0  0  0  0  0  0  0  0  0  0
  -20.2537    3.9481  -13.6038 F   0  0  0  0  0  0  0  0  0  0  0  0
  -13.2433   -1.8633  -14.3328 O   0  0  0  0  0  0  0  0  0  0  0  0
  -12.8029   -2.4183  -15.5763 C   0  0  0  0  0  0  0  0  0  0  0  0
  -13.4757   -3.7670  -15.8495 C   0  0  0  0  0  0  0  0  0  0  0  0
  -13.4227   -4.6441  -14.6828 N   0  0  0  0  0  0  0  0  0  0  0  0
  -13.9374   -5.9137  -14.7443 C   0  0  0  0  0  0  0  0  0  0  0  0
  -14.4600   -6.3436  -15.7697 O   0  0  0  0  0  0  0  0  0  0  0  0
  -13.8536   -6.6587  -13.5860 N   0  0  0  0  0  0  0  0  0  0  0  0
  -13.5141   -6.1702  -12.2434 C   0  0  0  0  0  0  0  0  0  0  0  0
  -12.7021   -7.2212  -11.4732 C   0  0  0  0  0  0  0  0  0  0  0  0
  -13.3738   -8.4897  -11.4435 O   0  0  0  0  0  0  0  0  0  0  0  0
  -13.5979   -8.9725  -12.7778 C   0  0  0  0  0  0  0  0  0  0  0  0
  -14.4628   -7.9944  -13.5724 C   0  0  0  0  0  0  0  0  0  0  0  0
  -12.6488   -4.5021  -14.0544 H   0  0  0  0  0  0  0  0  0  0  0  0
 15 16  2  0  0  0
 16 11  1  0  0  0
 11 12  2  0  0  0
 11 13  1  0  0  0
 13  1  1  0  0  0
 13 14  1  0  0  0
  1  2  1  0  0  0
  1 10  2  0  0  0
  2  3  2  0  0  0
  3  4  1  0  0  0
  3  8  1  0  0  0
  4 17  1  0  0  0
  4  5  2  0  0  0
 17 19  1  0  0  0
 17 18  1  0  0  0
 19 20  1  0  0  0
 19 26  2  0  0  0
 20 21  2  0  0  0
 21 22  1  0  0  0
 22 23  1  0  0  0
 22 24  2  0  0  0
 24 25  1  0  0  0
 24 26  1  0  0  0
 26 27  1  0  0  0
  5  6  1  0  0  0
  6  7  2  0  0  0
  7  8  1  0  0  0
  8  9  2  0  0  0
  9 10  1  0  0  0
 10 28  1  0  0  0
 28 29  1  0  0  0
 29 30  1  0  0  0
 30 31  1  0  0  0
 31 32  1  0  0  0
 31 40  1  0  0  0
 32 33  2  0  0  0
 32 34  1  0  0  0
 34 35  1  0  0  0
 34 39  1  0  0  0
 35 36  1  0  0  0
 36 37  1  0  0  0
 37 38  1  0  0  0
 38 39  1  0  0  0
M  END
> <minimizedAffinity>
-8.36569

$$$$
