CHEMBL394620


 30 33  0  0  0  0  0  0  0  0999 V2000
  -18.5742    2.4668  -14.6906 C   0  0  0  0  0  0  0  0  0  0  0  0
  -18.1977    3.3439  -15.7071 C   0  0  0  0  0  0  0  0  0  0  0  0
  -16.9525    3.2126  -16.3278 C   0  0  0  0  0  0  0  0  0  0  0  0
  -16.0555    2.2073  -15.9327 C   0  0  0  0  0  0  0  0  0  0  0  0
  -16.3925    1.4279  -14.8201 C   0  0  0  0  0  0  0  0  0  0  0  0
  -17.6467    1.5471  -14.2060 C   0  0  0  0  0  0  0  0  0  0  0  0
  -14.8190    1.9706  -16.6983 C   0  0  0  0  0  0  0  0  0  0  0  0
  -14.6374    0.7525  -17.3248 C   0  0  0  0  0  0  0  0  0  0  0  0
  -13.1502    0.6181  -18.1265 S   0  0  0  0  0  0  0  0  0  0  0  0
  -12.6876    2.2073  -17.6780 C   0  0  0  0  0  0  0  0  0  0  0  0
  -11.4815    2.8271  -18.0360 C   0  0  0  0  0  0  0  0  0  0  0  0
  -11.2977    4.1093  -17.5688 C   0  0  0  0  0  0  0  0  0  0  0  0
  -12.1833    4.7592  -16.8021 N   0  0  0  0  0  0  0  0  0  0  0  0
  -13.3367    4.1638  -16.4391 C   0  0  0  0  0  0  0  0  0  0  0  0
  -14.1174    4.9457  -15.5901 N   0  0  0  0  0  0  0  0  0  0  0  0
  -13.6600    2.8509  -16.8919 C   0  0  0  0  0  0  0  0  0  0  0  0
  -13.5586    5.7237  -15.2712 H   0  0  0  0  0  0  0  0  0  0  0  0
  -14.5410    4.4033  -14.8529 H   0  0  0  0  0  0  0  0  0  0  0  0
  -20.8142    1.4972  -14.5147 C   0  0  0  0  0  0  0  0  0  0  0  0
  -20.5924    0.5433  -15.2591 O   0  0  0  0  0  0  0  0  0  0  0  0
  -19.8806    2.4664  -14.1617 N   0  0  0  0  0  0  0  0  0  0  0  0
  -20.0171    2.8988  -13.2552 H   0  0  0  0  0  0  0  0  0  0  0  0
  -22.1730    1.6845  -13.8730 C   0  0  0  0  0  0  0  0  0  0  0  0
  -25.7039   -1.8079  -14.5887 C   0  0  0  0  0  0  0  0  0  0  0  0
  -24.5759   -1.2718  -13.7525 C   0  0  0  0  0  0  0  0  0  0  0  0
  -24.1248   -1.9676  -12.6281 C   0  0  0  0  0  0  0  0  0  0  0  0
  -23.0433   -1.4818  -11.8931 C   0  0  0  0  0  0  0  0  0  0  0  0
  -22.4083   -0.2959  -12.2711 C   0  0  0  0  0  0  0  0  0  0  0  0
  -22.8599    0.4296  -13.3796 C   0  0  0  0  0  0  0  0  0  0  0  0
  -23.9330   -0.0831  -14.1247 C   0  0  0  0  0  0  0  0  0  0  0  0
 24 25  1  0  0  0
 25 26  1  0  0  0
 25 30  2  0  0  0
 26 27  2  0  0  0
 27 28  1  0  0  0
 28 29  2  0  0  0
 29 23  1  0  0  0
 29 30  1  0  0  0
 23 19  1  0  0  0
 19 20  2  0  0  0
 19 21  1  0  0  0
 21  1  1  0  0  0
 21 22  1  0  0  0
  1  2  1  0  0  0
  1  6  2  0  0  0
  2  3  2  0  0  0
  3  4  1  0  0  0
  4  7  1  0  0  0
  4  5  2  0  0  0
  7  8  2  0  0  0
  7 16  1  0  0  0
  8  9  1  0  0  0
  9 10  1  0  0  0
 10 11  1  0  0  0
 10 16  2  0  0  0
 11 12  2  0  0  0
 12 13  1  0  0  0
 13 14  2  0  0  0
 14 15  1  0  0  0
 14 16  1  0  0  0
 15 17  1  0  0  0
 15 18  1  0  0  0
  5  6  1  0  0  0
M  END
> <minimizedAffinity>
-9.31986

$$$$
