CHEMBL1985367


 22 24  0  0  0  0  0  0  0  0999 V2000
  -15.1767   -0.0515  -14.2481 C   0  0  0  0  0  0  0  0  0  0  0  0
  -14.4484    0.3105  -15.3677 C   0  0  0  0  0  0  0  0  0  0  0  0
  -15.0631    1.1165  -16.2929 C   0  0  0  0  0  0  0  0  0  0  0  0
  -14.3301    1.5982  -17.5045 C   0  0  0  0  0  0  0  0  0  0  0  0
  -16.3332    1.5215  -16.1429 N   0  0  0  0  0  0  0  0  0  0  0  0
  -16.9904    1.1055  -15.0404 C   0  0  0  0  0  0  0  0  0  0  0  0
  -16.4609    0.3130  -14.0840 N   0  0  0  0  0  0  0  0  0  0  0  0
  -18.3838    1.5762  -14.8859 C   0  0  0  0  0  0  0  0  0  0  0  0
  -19.4701    0.7036  -15.1092 C   0  0  0  0  0  0  0  0  0  0  0  0
  -20.7961    1.1224  -14.9697 C   0  0  0  0  0  0  0  0  0  0  0  0
  -21.0692    2.4344  -14.6000 C   0  0  0  0  0  0  0  0  0  0  0  0
  -20.0199    3.3219  -14.3734 C   0  0  0  0  0  0  0  0  0  0  0  0
  -18.6930    2.8968  -14.5163 C   0  0  0  0  0  0  0  0  0  0  0  0
  -14.5937   -0.8788  -13.2717 N   0  0  0  0  0  0  0  0  0  0  0  0
  -13.6399   -1.0986  -13.5276 H   0  0  0  0  0  0  0  0  0  0  0  0
  -16.6735   -5.3318  -13.5688 C   0  0  0  0  0  0  0  0  0  0  0  0
  -16.2649   -4.1329  -12.7688 C   0  0  0  0  0  0  0  0  0  0  0  0
  -16.4081   -4.1139  -11.3834 C   0  0  0  0  0  0  0  0  0  0  0  0
  -15.9627   -3.0029  -10.6945 C   0  0  0  0  0  0  0  0  0  0  0  0
  -15.3776   -1.9416  -11.2855 N   0  0  0  0  0  0  0  0  0  0  0  0
  -15.2451   -1.9486  -12.6295 C   0  0  0  0  0  0  0  0  0  0  0  0
  -15.6977   -3.0182  -13.3992 C   0  0  0  0  0  0  0  0  0  0  0  0
 16 17  1  0  0  0
 17 18  1  0  0  0
 17 22  2  0  0  0
 18 19  2  0  0  0
 19 20  1  0  0  0
 20 21  2  0  0  0
 21 14  1  0  0  0
 21 22  1  0  0  0
 14  1  1  0  0  0
 14 15  1  0  0  0
  1  2  1  0  0  0
  1  7  2  0  0  0
  2  3  2  0  0  0
  3  4  1  0  0  0
  3  5  1  0  0  0
  5  6  2  0  0  0
  6  8  1  0  0  0
  6  7  1  0  0  0
  8  9  1  0  0  0
  8 13  2  0  0  0
  9 10  2  0  0  0
 10 11  1  0  0  0
 11 12  2  0  0  0
 12 13  1  0  0  0
M  END
> <minimizedAffinity>
-8.65376

$$$$
