CHEMBL96569


 21 24  0  0  0  0  0  0  0  0999 V2000
  -22.1519    1.4233  -13.9599 C   0  0  0  0  0  0  0  0  0  0  0  0
  -22.5487    2.7749  -13.8815 C   0  0  0  0  0  0  0  0  0  0  0  0
  -21.6086    3.6257  -14.2935 N   0  0  0  0  0  0  0  0  0  0  0  0
  -20.5699    2.8294  -14.6414 N   0  0  0  0  0  0  0  0  0  0  0  0
  -19.3226    3.2347  -15.1050 C   0  0  0  0  0  0  0  0  0  0  0  0
  -18.3837    2.3259  -15.4115 C   0  0  0  0  0  0  0  0  0  0  0  0
  -18.8028    0.9039  -15.2219 C   0  0  0  0  0  0  0  0  0  0  0  0
  -19.9556    0.4918  -14.7866 N   0  0  0  0  0  0  0  0  0  0  0  0
  -20.8694    1.4690  -14.4773 C   0  0  0  0  0  0  0  0  0  0  0  0
  -23.8098   -0.3299  -14.3685 C   0  0  0  0  0  0  0  0  0  0  0  0
  -22.9007    0.2635  -13.5694 C   0  0  0  0  0  0  0  0  0  0  0  0
  -22.5903   -0.2860  -12.1915 C   0  0  0  0  0  0  0  0  0  0  0  0
  -23.1091   -1.7116  -11.9725 C   0  0  0  0  0  0  0  0  0  0  0  0
  -24.5362   -1.8575  -12.4852 C   0  0  0  0  0  0  0  0  0  0  0  0
  -24.6175   -1.5325  -13.9752 C   0  0  0  0  0  0  0  0  0  0  0  0
  -17.0550    2.6845  -15.8963 C   0  0  0  0  0  0  0  0  0  0  0  0
  -16.1290    1.6922  -16.2196 C   0  0  0  0  0  0  0  0  0  0  0  0
  -14.8838    2.0851  -16.6805 C   0  0  0  0  0  0  0  0  0  0  0  0
  -14.5145    3.3744  -16.8341 N   0  0  0  0  0  0  0  0  0  0  0  0
  -15.4266    4.3150  -16.5092 C   0  0  0  0  0  0  0  0  0  0  0  0
  -16.6963    4.0246  -16.0407 C   0  0  0  0  0  0  0  0  0  0  0  0
 10 11  2  0  0  0
 10 15  1  0  0  0
 11  1  1  0  0  0
 11 12  1  0  0  0
  1  2  1  0  0  0
  1  9  2  0  0  0
  2  3  2  0  0  0
  3  4  1  0  0  0
  4  5  1  0  0  0
  4  9  1  0  0  0
  5  6  2  0  0  0
  6 16  1  0  0  0
  6  7  1  0  0  0
 16 17  1  0  0  0
 16 21  2  0  0  0
 17 18  2  0  0  0
 18 19  1  0  0  0
 19 20  2  0  0  0
 20 21  1  0  0  0
  7  8  2  0  0  0
  8  9  1  0  0  0
 12 13  1  0  0  0
 13 14  1  0  0  0
 14 15  1  0  0  0
M  END
> <minimizedAffinity>
-9.82225

$$$$
