CHEMBL3910699


 34 36  0  0  0  0  0  0  0  0999 V2000
  -28.9415   -4.8991   -6.4019 C   0  0  0  0  0  0  0  0  0  0  0  0
  -29.1258   -5.9830   -5.9098 C   0  0  0  0  0  0  0  0  0  0  0  0
  -29.2211   -7.3179   -5.3832 C   0  0  0  0  0  0  0  0  0  0  0  0
  -29.2889   -8.3808   -6.2861 C   0  0  0  0  0  0  0  0  0  0  0  0
  -29.1897   -9.6907   -5.8188 C   0  0  0  0  0  0  0  0  0  0  0  0
  -29.0744   -9.8814   -4.4504 C   0  0  0  0  0  0  0  0  0  0  0  0
  -29.0626   -8.8661   -3.5437 N   0  0  0  0  0  0  0  0  0  0  0  0
  -29.1245   -7.6022   -4.0138 C   0  0  0  0  0  0  0  0  0  0  0  0
  -29.1390   -6.6087   -3.0390 N   0  0  0  0  0  0  0  0  0  0  0  0
  -28.9697   -7.0553   -2.1377 H   0  0  0  0  0  0  0  0  0  0  0  0
  -28.4868   -5.8588   -3.2316 H   0  0  0  0  0  0  0  0  0  0  0  0
  -29.1429  -10.8375   -6.7669 C   0  0  0  0  0  0  0  0  0  0  0  0
  -28.8430  -11.9319   -6.2981 O   0  0  0  0  0  0  0  0  0  0  0  0
  -29.3379  -10.6391   -8.1430 N   0  0  0  0  0  0  0  0  0  0  0  0
  -28.1833  -10.8158   -9.1496 S   0  0  0  0  0  0  0  0  0  0  0  0
  -27.1495   -9.3655   -9.1296 C   0  0  0  0  0  0  0  0  0  0  0  0
  -28.9252  -10.7009  -10.7620 C   0  0  0  0  0  0  0  0  0  0  0  0
  -27.3072  -11.9705   -9.1892 O   0  0  0  0  0  0  0  0  0  0  0  0
  -27.5735   -2.1861   -8.6326 C   0  0  0  0  0  0  0  0  0  0  0  0
  -27.7743   -1.0884   -7.7888 C   0  0  0  0  0  0  0  0  0  0  0  0
  -28.3548   -1.2424   -6.5295 C   0  0  0  0  0  0  0  0  0  0  0  0
  -28.7471   -2.5021   -6.0931 C   0  0  0  0  0  0  0  0  0  0  0  0
  -28.5894   -3.6065   -6.9239 C   0  0  0  0  0  0  0  0  0  0  0  0
  -28.0212   -3.4500   -8.2064 C   0  0  0  0  0  0  0  0  0  0  0  0
  -27.3472   -1.3065  -10.9781 C   0  0  0  0  0  0  0  0  0  0  0  0
  -28.3689   -0.6258  -10.9958 O   0  0  0  0  0  0  0  0  0  0  0  0
  -26.9181   -2.0638   -9.8849 N   0  0  0  0  0  0  0  0  0  0  0  0
  -25.9953   -2.4738   -9.9973 H   0  0  0  0  0  0  0  0  0  0  0  0
  -28.0332   -2.2708  -13.8510 C   0  0  0  0  0  0  0  0  0  0  0  0
  -26.7496   -1.7966  -13.3870 N   0  0  0  0  0  0  0  0  0  0  0  0
  -25.6214   -1.7002  -14.1579 C   0  0  0  0  0  0  0  0  0  0  0  0
  -24.6614   -1.1883  -13.3245 C   0  0  0  0  0  0  0  0  0  0  0  0
  -25.1729   -0.9591  -12.0687 N   0  0  0  0  0  0  0  0  0  0  0  0
  -26.4389   -1.3507  -12.1180 C   0  0  0  0  0  0  0  0  0  0  0  0
 29 30  1  0  0  0
 30 31  1  0  0  0
 30 34  1  0  0  0
 31 32  2  0  0  0
 32 33  1  0  0  0
 33 34  2  0  0  0
 34 25  1  0  0  0
 25 26  2  0  0  0
 25 27  1  0  0  0
 27 19  1  0  0  0
 27 28  1  0  0  0
 19 20  1  0  0  0
 19 24  2  0  0  0
 20 21  2  0  0  0
 21 22  1  0  0  0
 22 23  2  0  0  0
 23  1  1  0  0  0
 23 24  1  0  0  0
  1  2  3  0  0  0
  2  3  1  0  0  0
  3  4  1  0  0  0
  3  8  2  0  0  0
  4  5  2  0  0  0
  5 12  1  0  0  0
  5  6  1  0  0  0
 12 13  2  0  0  0
 12 14  1  0  0  0
 14 15  2  0  0  0
 15 16  1  0  0  0
 15 17  1  0  0  0
 15 18  2  0  0  0
  6  7  2  0  0  0
  7  8  1  0  0  0
  8  9  1  0  0  0
  9 10  1  0  0  0
  9 11  1  0  0  0
M  END
> <minimizedAffinity>
-8.77412

$$$$
