CHEMBL3891895


 37 41  0  0  0  0  0  0  0  0999 V2000
  -29.6989   -5.5514   -6.9596 C   0  0  0  0  0  0  0  0  0  0  0  0
  -30.7061   -5.7889   -7.6242 O   0  0  0  0  0  0  0  0  0  0  0  0
  -29.1898   -6.5769   -5.9943 C   0  0  0  0  0  0  0  0  0  0  0  0
  -29.5487   -6.6002   -4.6302 C   0  0  0  0  0  0  0  0  0  0  0  0
  -29.0206   -7.5595   -3.7385 C   0  0  0  0  0  0  0  0  0  0  0  0
  -28.2682   -8.6121   -4.2895 C   0  0  0  0  0  0  0  0  0  0  0  0
  -27.6821   -9.8635   -3.8916 C   0  0  0  0  0  0  0  0  0  0  0  0
  -28.2280  -10.7541   -4.7528 N   0  0  0  0  0  0  0  0  0  0  0  0
  -28.1454  -10.0453   -5.8989 N   0  0  0  0  0  0  0  0  0  0  0  0
  -28.2290   -8.6957   -5.6776 C   0  0  0  0  0  0  0  0  0  0  0  0
  -28.4575   -7.6329   -6.5421 C   0  0  0  0  0  0  0  0  0  0  0  0
  -28.2391  -10.5382   -6.7838 H   0  0  0  0  0  0  0  0  0  0  0  0
  -26.2653  -10.1412   -3.6664 C   0  0  0  0  0  0  0  0  0  0  0  0
  -25.2456   -9.3816   -4.1098 C   0  0  0  0  0  0  0  0  0  0  0  0
  -23.9606   -9.9644   -4.5579 C   0  0  0  0  0  0  0  0  0  0  0  0
  -23.5625   -9.8248   -5.8846 C   0  0  0  0  0  0  0  0  0  0  0  0
  -22.4492  -10.5329   -6.3400 C   0  0  0  0  0  0  0  0  0  0  0  0
  -21.7674  -11.3692   -5.4663 C   0  0  0  0  0  0  0  0  0  0  0  0
  -22.2276  -11.4579   -4.1649 C   0  0  0  0  0  0  0  0  0  0  0  0
  -23.3005  -10.7777   -3.6961 N   0  0  0  0  0  0  0  0  0  0  0  0
  -27.7607   -2.7064   -8.5114 C   0  0  0  0  0  0  0  0  0  0  0  0
  -27.9426   -1.7325   -7.5209 C   0  0  0  0  0  0  0  0  0  0  0  0
  -28.5712   -2.0233   -6.3147 C   0  0  0  0  0  0  0  0  0  0  0  0
  -29.0766   -3.2917   -6.0991 C   0  0  0  0  0  0  0  0  0  0  0  0
  -29.0352   -4.2385   -7.1278 C   0  0  0  0  0  0  0  0  0  0  0  0
  -28.3506   -3.9593   -8.3260 C   0  0  0  0  0  0  0  0  0  0  0  0
  -27.3316   -1.5304  -10.6525 C   0  0  0  0  0  0  0  0  0  0  0  0
  -28.3334   -0.8219  -10.6019 O   0  0  0  0  0  0  0  0  0  0  0  0
  -26.9899   -2.4617   -9.6812 N   0  0  0  0  0  0  0  0  0  0  0  0
  -26.0559   -2.8446   -9.7146 H   0  0  0  0  0  0  0  0  0  0  0  0
  -23.2962   -0.9591  -13.6725 C   0  0  0  0  0  0  0  0  0  0  0  0
  -24.6447   -1.1698  -13.0973 C   0  0  0  0  0  0  0  0  0  0  0  0
  -25.0836   -0.9819  -11.7648 C   0  0  0  0  0  0  0  0  0  0  0  0
  -26.4002   -1.3896  -11.7468 C   0  0  0  0  0  0  0  0  0  0  0  0
  -26.6787   -1.7661  -13.0440 N   0  0  0  0  0  0  0  0  0  0  0  0
  -27.9125   -2.2533  -13.6162 C   0  0  0  0  0  0  0  0  0  0  0  0
  -25.6278   -1.6160  -13.8765 N   0  0  0  0  0  0  0  0  0  0  0  0
 31 32  1  0  0  0
 32 33  1  0  0  0
 32 37  2  0  0  0
 33 34  2  0  0  0
 34 27  1  0  0  0
 34 35  1  0  0  0
 27 28  2  0  0  0
 27 29  1  0  0  0
 29 21  1  0  0  0
 29 30  1  0  0  0
 21 22  1  0  0  0
 21 26  2  0  0  0
 22 23  2  0  0  0
 23 24  1  0  0  0
 24 25  2  0  0  0
 25  1  1  0  0  0
 25 26  1  0  0  0
  1  2  2  0  0  0
  1  3  1  0  0  0
  3  4  1  0  0  0
  3 11  2  0  0  0
  4  5  2  0  0  0
  5  6  1  0  0  0
  6  7  1  0  0  0
  6 10  2  0  0  0
  7 13  1  0  0  0
  7  8  2  0  0  0
 13 14  2  0  0  0
 14 15  1  0  0  0
 15 16  1  0  0  0
 15 20  2  0  0  0
 16 17  2  0  0  0
 17 18  1  0  0  0
 18 19  2  0  0  0
 19 20  1  0  0  0
  8  9  1  0  0  0
  9 10  1  0  0  0
  9 12  1  0  0  0
 10 11  1  0  0  0
 35 36  1  0  0  0
 35 37  1  0  0  0
M  END
> <minimizedAffinity>
-10.48293

$$$$
