CHEMBL380536


 32 35  0  0  0  0  0  0  0  0999 V2000
  -29.2471   -6.8882   -4.1351 C   0  0  0  0  0  0  0  0  0  0  0  0
  -29.5870   -7.5961   -3.0773 N   0  0  0  0  0  0  0  0  0  0  0  0
  -28.7257   -8.6784   -3.0249 N   0  0  0  0  0  0  0  0  0  0  0  0
  -27.8864   -8.5375   -4.0326 C   0  0  0  0  0  0  0  0  0  0  0  0
  -28.1636   -7.4177   -4.7785 O   0  0  0  0  0  0  0  0  0  0  0  0
  -26.7467   -9.3419   -4.4693 C   0  0  0  0  0  0  0  0  0  0  0  0
  -25.4422   -8.9336   -4.1181 C   0  0  0  0  0  0  0  0  0  0  0  0
  -24.3243   -9.6585   -4.5172 C   0  0  0  0  0  0  0  0  0  0  0  0
  -24.5299  -10.7881   -5.2732 C   0  0  0  0  0  0  0  0  0  0  0  0
  -25.7527  -11.2199   -5.6330 N   0  0  0  0  0  0  0  0  0  0  0  0
  -26.8558  -10.5228   -5.2242 C   0  0  0  0  0  0  0  0  0  0  0  0
  -28.1757  -11.0957   -5.7151 C   0  0  0  0  0  0  0  0  0  0  0  0
  -28.5156  -10.6565   -7.1536 C   0  0  0  0  0  0  0  0  0  0  0  0
  -29.2464   -9.3437   -7.3231 C   0  0  0  0  0  0  0  0  0  0  0  0
  -30.5444   -9.2355   -6.8039 C   0  0  0  0  0  0  0  0  0  0  0  0
  -31.2257   -8.0358   -6.9273 C   0  0  0  0  0  0  0  0  0  0  0  0
  -30.7049   -6.9395   -7.5136 N   0  0  0  0  0  0  0  0  0  0  0  0
  -29.4489   -7.0519   -7.9913 C   0  0  0  0  0  0  0  0  0  0  0  0
  -28.6858   -8.2105   -7.9152 C   0  0  0  0  0  0  0  0  0  0  0  0
  -29.7836   -5.7329   -4.5737 N   0  0  0  0  0  0  0  0  0  0  0  0
  -30.6391   -5.8452   -5.1079 H   0  0  0  0  0  0  0  0  0  0  0  0
  -27.9252   -1.9430   -5.0549 C   0  0  0  0  0  0  0  0  0  0  0  0
  -28.2456   -2.6965   -6.1775 C   0  0  0  0  0  0  0  0  0  0  0  0
  -28.8677   -3.9477   -6.0387 C   0  0  0  0  0  0  0  0  0  0  0  0
  -29.1641   -4.4849   -4.7803 C   0  0  0  0  0  0  0  0  0  0  0  0
  -28.7497   -3.7531   -3.6582 C   0  0  0  0  0  0  0  0  0  0  0  0
  -28.1433   -2.4975   -3.7941 C   0  0  0  0  0  0  0  0  0  0  0  0
  -27.3808   -0.6962   -5.0381 O   0  0  0  0  0  0  0  0  0  0  0  0
  -27.9157    1.4333   -4.2756 F   0  0  0  0  0  0  0  0  0  0  0  0
  -28.2177    0.4463   -5.1449 C   0  0  0  0  0  0  0  0  0  0  0  0
  -29.5057    0.0825   -4.9680 F   0  0  0  0  0  0  0  0  0  0  0  0
  -28.0901    0.9509   -6.3935 F   0  0  0  0  0  0  0  0  0  0  0  0
 29 30  1  0  0  0
 30 31  1  0  0  0
 30 32  1  0  0  0
 30 28  1  0  0  0
 28 22  1  0  0  0
 22 23  1  0  0  0
 22 27  2  0  0  0
 23 24  2  0  0  0
 24 25  1  0  0  0
 25 20  1  0  0  0
 25 26  2  0  0  0
 20  1  1  0  0  0
 20 21  1  0  0  0
  1  2  2  0  0  0
  1  5  1  0  0  0
  2  3  1  0  0  0
  3  4  2  0  0  0
  4  6  1  0  0  0
  4  5  1  0  0  0
  6  7  1  0  0  0
  6 11  2  0  0  0
  7  8  2  0  0  0
  8  9  1  0  0  0
  9 10  2  0  0  0
 10 11  1  0  0  0
 11 12  1  0  0  0
 12 13  1  0  0  0
 13 14  1  0  0  0
 14 15  1  0  0  0
 14 19  2  0  0  0
 15 16  2  0  0  0
 16 17  1  0  0  0
 17 18  2  0  0  0
 18 19  1  0  0  0
 26 27  1  0  0  0
M  END
> <minimizedAffinity>
-8.11887

$$$$
