CHEMBL412081


 31 35  0  0  0  0  0  0  0  0999 V2000
  -26.2339  -10.2729   -6.6302 C   0  0  0  0  0  0  0  0  0  0  0  0
  -26.7806  -10.1734   -7.8843 C   0  0  0  0  0  0  0  0  0  0  0  0
  -27.9946   -9.5723   -7.7651 N   0  0  0  0  0  0  0  0  0  0  0  0
  -28.8307   -9.3937   -8.7957 N   0  0  0  0  0  0  0  0  0  0  0  0
  -29.9579   -8.8553   -8.4721 C   0  0  0  0  0  0  0  0  0  0  0  0
  -30.3381   -8.4614   -7.2203 N   0  0  0  0  0  0  0  0  0  0  0  0
  -29.5150   -8.5762   -6.2172 C   0  0  0  0  0  0  0  0  0  0  0  0
  -28.2303   -9.2059   -6.4612 C   0  0  0  0  0  0  0  0  0  0  0  0
  -27.1214   -9.6083   -5.6947 C   0  0  0  0  0  0  0  0  0  0  0  0
  -21.4492  -11.2549   -6.1613 C   0  0  0  0  0  0  0  0  0  0  0  0
  -22.9093  -11.4606   -6.1627 C   0  0  0  0  0  0  0  0  0  0  0  0
  -23.5040  -12.4653   -5.5121 N   0  0  0  0  0  0  0  0  0  0  0  0
  -24.8631  -12.1665   -5.6491 O   0  0  0  0  0  0  0  0  0  0  0  0
  -24.9489  -11.0043   -6.3790 C   0  0  0  0  0  0  0  0  0  0  0  0
  -23.7626  -10.5701   -6.7514 N   0  0  0  0  0  0  0  0  0  0  0  0
  -26.7547   -9.4376   -4.2263 C   0  0  0  0  0  0  0  0  0  0  0  0
  -27.0786  -10.7081   -3.4336 C   0  0  0  0  0  0  0  0  0  0  0  0
  -25.3650   -8.9284   -3.8783 C   0  0  0  0  0  0  0  0  0  0  0  0
  -29.8888   -8.0708   -4.9961 N   0  0  0  0  0  0  0  0  0  0  0  0
  -29.5869   -8.6328   -4.2062 H   0  0  0  0  0  0  0  0  0  0  0  0
  -30.0684   -6.7096   -4.6549 C   0  0  0  0  0  0  0  0  0  0  0  0
  -31.3060   -6.1126   -4.3944 C   0  0  0  0  0  0  0  0  0  0  0  0
  -31.5242   -4.8519   -3.9344 N   0  0  0  0  0  0  0  0  0  0  0  0
  -30.3882   -4.1616   -3.7245 C   0  0  0  0  0  0  0  0  0  0  0  0
  -30.3194   -2.8905   -3.2171 N   0  0  0  0  0  0  0  0  0  0  0  0
  -29.0063   -2.4983   -3.1234 C   0  0  0  0  0  0  0  0  0  0  0  0
  -28.2214   -3.5330   -3.5884 C   0  0  0  0  0  0  0  0  0  0  0  0
  -29.0907   -4.5976   -3.9518 C   0  0  0  0  0  0  0  0  0  0  0  0
  -28.9441   -5.9074   -4.4306 C   0  0  0  0  0  0  0  0  0  0  0  0
  -27.7203   -6.4173   -4.6516 F   0  0  0  0  0  0  0  0  0  0  0  0
  -31.1271   -2.3523   -2.9426 H   0  0  0  0  0  0  0  0  0  0  0  0
 10 11  1  0  0  0
 11 12  2  0  0  0
 11 15  1  0  0  0
 12 13  1  0  0  0
 13 14  1  0  0  0
 14  1  1  0  0  0
 14 15  2  0  0  0
  1  2  2  0  0  0
  1  9  1  0  0  0
  2  3  1  0  0  0
  3  4  1  0  0  0
  3  8  1  0  0  0
  4  5  2  0  0  0
  5  6  1  0  0  0
  6  7  2  0  0  0
  7 19  1  0  0  0
  7  8  1  0  0  0
 19 21  1  0  0  0
 19 20  1  0  0  0
 21 22  1  0  0  0
 21 29  2  0  0  0
 22 23  2  0  0  0
 23 24  1  0  0  0
 24 25  1  0  0  0
 24 28  2  0  0  0
 25 26  1  0  0  0
 25 31  1  0  0  0
 26 27  2  0  0  0
 27 28  1  0  0  0
 28 29  1  0  0  0
 29 30  1  0  0  0
  8  9  2  0  0  0
  9 16  1  0  0  0
 16 17  1  0  0  0
 16 18  1  0  0  0
M  END
> <minimizedAffinity>
-8.12510

$$$$
