CHEMBL1277161


 34 37  0  0  0  0  0  0  0  0999 V2000
  -12.4604   -3.3549  -14.2235 N   0  0  0  0  0  0  0  0  0  0  0  0
  -12.4072   -3.3198  -15.6812 C   0  0  0  0  0  0  0  0  0  0  0  0
  -11.2212   -2.4851  -16.1748 C   0  0  0  0  0  0  0  0  0  0  0  0
  -11.2822   -0.9830  -15.8708 C   0  0  0  0  0  0  0  0  0  0  0  0
  -12.6235   -0.3398  -16.1973 C   0  0  0  0  0  0  0  0  0  0  0  0
  -13.6975   -0.5751  -15.1815 C   0  0  0  0  0  0  0  0  0  0  0  0
  -14.9158    0.0365  -15.3650 N   0  0  0  0  0  0  0  0  0  0  0  0
  -15.7850   -0.2452  -14.3441 C   0  0  0  0  0  0  0  0  0  0  0  0
  -15.0786   -1.0255  -13.4371 C   0  0  0  0  0  0  0  0  0  0  0  0
  -15.5398   -1.5480  -12.1160 C   0  0  0  0  0  0  0  0  0  0  0  0
  -13.7913   -1.3236  -14.0178 C   0  0  0  0  0  0  0  0  0  0  0  0
  -12.8334   -2.2649  -13.4322 C   0  0  0  0  0  0  0  0  0  0  0  0
  -12.5385   -2.2004  -12.2403 O   0  0  0  0  0  0  0  0  0  0  0  0
  -15.1360    0.6043  -16.1767 H   0  0  0  0  0  0  0  0  0  0  0  0
  -17.1276    0.2315  -14.3371 C   0  0  0  0  0  0  0  0  0  0  0  0
  -17.6121    1.4227  -14.7294 C   0  0  0  0  0  0  0  0  0  0  0  0
  -16.9135    2.6466  -15.2782 C   0  0  0  0  0  0  0  0  0  0  0  0
  -15.7285    2.8093  -15.5011 O   0  0  0  0  0  0  0  0  0  0  0  0
  -17.9106    3.5808  -15.4906 N   0  0  0  0  0  0  0  0  0  0  0  0
  -19.1583    3.0836  -15.1405 C   0  0  0  0  0  0  0  0  0  0  0  0
  -20.3605    3.7550  -15.2219 C   0  0  0  0  0  0  0  0  0  0  0  0
  -21.5046    3.0619  -14.8245 C   0  0  0  0  0  0  0  0  0  0  0  0
  -21.4053    1.7406  -14.3633 C   0  0  0  0  0  0  0  0  0  0  0  0
  -22.5206    1.0992  -13.9902 F   0  0  0  0  0  0  0  0  0  0  0  0
  -20.1812    1.0760  -14.2833 C   0  0  0  0  0  0  0  0  0  0  0  0
  -19.0473    1.7676  -14.6740 C   0  0  0  0  0  0  0  0  0  0  0  0
  -17.7214    4.5030  -15.8521 H   0  0  0  0  0  0  0  0  0  0  0  0
  -12.1467   -4.6180  -13.5373 C   0  0  0  0  0  0  0  0  0  0  0  0
  -13.3827   -5.5576  -13.5035 C   0  0  0  0  0  0  0  0  0  0  0  0
  -14.3528   -5.3692  -12.4005 N   0  0  0  0  0  0  0  0  0  0  0  0
  -16.8539   -5.2871  -11.9766 C   0  0  0  0  0  0  0  0  0  0  0  0
  -15.7036   -5.1985  -12.9758 C   0  0  0  0  0  0  0  0  0  0  0  0
  -14.2751   -6.3948  -11.3536 C   0  0  0  0  0  0  0  0  0  0  0  0
  -13.6272   -7.7162  -11.7524 C   0  0  0  0  0  0  0  0  0  0  0  0
 31 32  1  0  0  0
 32 30  1  0  0  0
 30 33  1  0  0  0
 30 29  1  0  0  0
 33 34  1  0  0  0
 29 28  1  0  0  0
 28  1  1  0  0  0
  1  2  1  0  0  0
  1 12  1  0  0  0
  2  3  1  0  0  0
  3  4  1  0  0  0
  4  5  1  0  0  0
  5  6  1  0  0  0
  6  7  1  0  0  0
  6 11  2  0  0  0
  7  8  1  0  0  0
  7 14  1  0  0  0
  8 15  1  0  0  0
  8  9  2  0  0  0
 15 16  2  0  0  0
 16 17  1  0  0  0
 16 26  1  0  0  0
 17 18  2  0  0  0
 17 19  1  0  0  0
 19 20  1  0  0  0
 19 27  1  0  0  0
 20 21  1  0  0  0
 20 26  2  0  0  0
 21 22  2  0  0  0
 22 23  1  0  0  0
 23 24  1  0  0  0
 23 25  2  0  0  0
 25 26  1  0  0  0
  9 10  1  0  0  0
  9 11  1  0  0  0
 11 12  1  0  0  0
 12 13  2  0  0  0
M  END
> <minimizedAffinity>
-8.34138

$$$$
