CHEMBL4439053


 33 36  0  0  0  0  0  0  0  0999 V2000
  -17.5472    2.6240  -15.4823 C   0  0  0  0  0  0  0  0  0  0  0  0
  -16.7954    3.6813  -16.0044 C   0  0  0  0  0  0  0  0  0  0  0  0
  -15.4272    3.5151  -16.2195 C   0  0  0  0  0  0  0  0  0  0  0  0
  -14.8165    2.2953  -15.9158 C   0  0  0  0  0  0  0  0  0  0  0  0
  -15.5801    1.2321  -15.4334 C   0  0  0  0  0  0  0  0  0  0  0  0
  -16.9457    1.3873  -15.2194 C   0  0  0  0  0  0  0  0  0  0  0  0
  -19.4606    3.9608  -15.2834 O   0  0  0  0  0  0  0  0  0  0  0  0
  -18.9873    2.8358  -15.1948 C   0  0  0  0  0  0  0  0  0  0  0  0
  -19.6462    1.6969  -14.7798 N   0  0  0  0  0  0  0  0  0  0  0  0
  -19.1141    0.8599  -14.5810 H   0  0  0  0  0  0  0  0  0  0  0  0
  -20.9750    1.6696  -14.4186 C   0  0  0  0  0  0  0  0  0  0  0  0
  -21.8929    2.6865  -14.1094 C   0  0  0  0  0  0  0  0  0  0  0  0
  -23.0911    2.2010  -13.7718 N   0  0  0  0  0  0  0  0  0  0  0  0
  -22.9302    0.8514  -13.7933 N   0  0  0  0  0  0  0  0  0  0  0  0
  -21.6859    0.5061  -14.2758 C   0  0  0  0  0  0  0  0  0  0  0  0
  -23.9438   -0.0245  -13.3171 C   0  0  0  0  0  0  0  0  0  0  0  0
  -24.4920   -0.9836  -14.1803 C   0  0  0  0  0  0  0  0  0  0  0  0
  -25.5180   -1.8198  -13.7363 C   0  0  0  0  0  0  0  0  0  0  0  0
  -26.0038   -1.7031  -12.4348 C   0  0  0  0  0  0  0  0  0  0  0  0
  -25.4626   -0.7539  -11.5716 C   0  0  0  0  0  0  0  0  0  0  0  0
  -24.4335    0.0839  -12.0069 C   0  0  0  0  0  0  0  0  0  0  0  0
  -14.9626   -0.0106  -15.1369 N   0  0  0  0  0  0  0  0  0  0  0  0
  -15.3431   -0.8541  -15.5637 H   0  0  0  0  0  0  0  0  0  0  0  0
  -14.2980   -0.2776  -13.6124 S   0  0  0  0  0  0  0  0  0  0  0  0
  -12.8873   -0.5238  -13.8244 O   0  0  0  0  0  0  0  0  0  0  0  0
  -14.7590    0.7433  -12.6988 O   0  0  0  0  0  0  0  0  0  0  0  0
  -15.0264   -1.8281  -13.1027 C   0  0  0  0  0  0  0  0  0  0  0  0
  -15.4981   -1.9705  -11.7911 C   0  0  0  0  0  0  0  0  0  0  0  0
  -16.1359   -3.1561  -11.4113 C   0  0  0  0  0  0  0  0  0  0  0  0
  -16.3061   -4.1813  -12.3413 C   0  0  0  0  0  0  0  0  0  0  0  0
  -17.1081   -5.6299  -11.8770 Cl  0  0  0  0  0  0  0  0  0  0  0  0
  -15.8426   -4.0359  -13.6500 C   0  0  0  0  0  0  0  0  0  0  0  0
  -15.2075   -2.8513  -14.0365 C   0  0  0  0  0  0  0  0  0  0  0  0
  7  8  2  0  0  0
  8  9  1  0  0  0
  8  1  1  0  0  0
  9 11  1  0  0  0
  9 10  1  0  0  0
 11 12  1  0  0  0
 11 15  2  0  0  0
 12 13  2  0  0  0
 13 14  1  0  0  0
 14 16  1  0  0  0
 14 15  1  0  0  0
 16 17  1  0  0  0
 16 21  2  0  0  0
 17 18  2  0  0  0
 18 19  1  0  0  0
 19 20  2  0  0  0
 20 21  1  0  0  0
  1  2  1  0  0  0
  1  6  2  0  0  0
  2  3  2  0  0  0
  3  4  1  0  0  0
  4  5  2  0  0  0
  5 22  1  0  0  0
  5  6  1  0  0  0
 22 24  1  0  0  0
 22 23  1  0  0  0
 24 25  2  0  0  0
 24 26  2  0  0  0
 24 27  1  0  0  0
 27 28  1  0  0  0
 27 33  2  0  0  0
 28 29  2  0  0  0
 29 30  1  0  0  0
 30 31  1  0  0  0
 30 32  2  0  0  0
 32 33  1  0  0  0
M  END
> <minimizedAffinity>
-10.92102

$$$$
