CHEMBL566844


 41 45  0  0  0  0  0  0  0  0999 V2000
  -14.2807   -0.6142  -14.1582 C   0  0  0  0  0  0  0  0  0  0  0  0
  -15.3303   -1.4064  -13.5577 C   0  0  0  0  0  0  0  0  0  0  0  0
  -15.2447   -2.8507  -13.3761 C   0  0  0  0  0  0  0  0  0  0  0  0
  -14.0165   -3.4984  -13.5137 C   0  0  0  0  0  0  0  0  0  0  0  0
  -12.9420   -2.6259  -13.7707 C   0  0  0  0  0  0  0  0  0  0  0  0
  -13.0557   -1.2484  -14.1011 C   0  0  0  0  0  0  0  0  0  0  0  0
  -11.9330   -0.5950  -14.4138 F   0  0  0  0  0  0  0  0  0  0  0  0
  -13.8384   -4.9478  -13.4178 N   0  0  0  0  0  0  0  0  0  0  0  0
  -13.6031   -5.6089  -12.1993 C   0  0  0  0  0  0  0  0  0  0  0  0
  -13.5315   -4.9908  -11.1361 O   0  0  0  0  0  0  0  0  0  0  0  0
  -13.9079   -5.4966  -14.2751 H   0  0  0  0  0  0  0  0  0  0  0  0
  -13.5032   -7.1484  -12.1368 C   0  0  0  0  0  0  0  0  0  0  0  0
  -13.8726   -7.8208  -13.4940 C   0  0  0  0  0  0  0  0  0  0  0  0
  -15.0350   -8.1037  -13.7918 O   0  0  0  0  0  0  0  0  0  0  0  0
  -12.8220   -8.0337  -14.3981 N   0  0  0  0  0  0  0  0  0  0  0  0
  -11.9120   -8.2299  -14.0040 H   0  0  0  0  0  0  0  0  0  0  0  0
  -13.0961   -8.5856  -15.6947 C   0  0  0  0  0  0  0  0  0  0  0  0
  -12.9318   -9.9725  -15.8711 C   0  0  0  0  0  0  0  0  0  0  0  0
  -13.4387  -10.6097  -17.0115 C   0  0  0  0  0  0  0  0  0  0  0  0
  -13.7698   -9.8580  -18.1283 C   0  0  0  0  0  0  0  0  0  0  0  0
  -13.7665   -8.4677  -18.0296 C   0  0  0  0  0  0  0  0  0  0  0  0
  -13.5337   -7.8187  -16.7971 C   0  0  0  0  0  0  0  0  0  0  0  0
  -13.7101   -6.4589  -16.8940 O   0  0  0  0  0  0  0  0  0  0  0  0
  -13.8592   -5.8713  -18.1730 C   0  0  0  0  0  0  0  0  0  0  0  0
  -14.5517    0.2130  -15.3445 O   0  0  0  0  0  0  0  0  0  0  0  0
  -18.5969    2.3117  -14.8014 C   0  0  0  0  0  0  0  0  0  0  0  0
  -18.1040    3.2175  -15.7209 C   0  0  0  0  0  0  0  0  0  0  0  0
  -16.7924    2.9170  -15.7638 C   0  0  0  0  0  0  0  0  0  0  0  0
  -15.9101    3.3864  -16.4885 N   0  0  0  0  0  0  0  0  0  0  0  0
  -15.0974    3.8421  -17.1888 C   0  0  0  0  0  0  0  0  0  0  0  0
  -14.4505    2.7909  -16.6104 C   0  0  0  0  0  0  0  0  0  0  0  0
  -14.9119    1.6184  -15.4227 C   0  0  0  0  0  0  0  0  0  0  0  0
  -16.2543    1.8595  -15.0688 C   0  0  0  0  0  0  0  0  0  0  0  0
  -17.4911    1.1869  -14.1404 S   0  0  0  0  0  0  0  0  0  0  0  0
  -21.9745    1.8444  -14.0891 N   0  0  0  0  0  0  0  0  0  0  0  0
  -21.8737    3.1900  -14.2872 C   0  0  0  0  0  0  0  0  0  0  0  0
  -20.6544    3.5736  -14.5355 N   0  0  0  0  0  0  0  0  0  0  0  0
  -19.9718    2.4143  -14.4525 C   0  0  0  0  0  0  0  0  0  0  0  0
  -20.7398    1.3088  -14.2447 C   0  0  0  0  0  0  0  0  0  0  0  0
  -22.7997   -0.3364  -13.4198 C   0  0  0  0  0  0  0  0  0  0  0  0
  -23.1443    1.1148  -13.6650 C   0  0  0  0  0  0  0  0  0  0  0  0
 40 41  1  0  0  0
 41 35  1  0  0  0
 35 36  1  0  0  0
 35 39  1  0  0  0
 36 37  2  0  0  0
 37 38  1  0  0  0
 38 26  1  0  0  0
 38 39  2  0  0  0
 26 27  2  0  0  0
 26 34  1  0  0  0
 27 28  1  0  0  0
 28 29  1  0  0  0
 28 33  2  0  0  0
 29 30  2  0  0  0
 30 31  1  0  0  0
 31 32  2  0  0  0
 32 25  1  0  0  0
 32 33  1  0  0  0
 25  1  1  0  0  0
  1  2  1  0  0  0
  1  6  2  0  0  0
  2  3  2  0  0  0
  3  4  1  0  0  0
  4  8  1  0  0  0
  4  5  2  0  0  0
  8  9  1  0  0  0
  8 11  1  0  0  0
  9 10  2  0  0  0
  9 12  1  0  0  0
 12 13  1  0  0  0
 13 14  2  0  0  0
 13 15  1  0  0  0
 15 17  1  0  0  0
 15 16  1  0  0  0
 17 18  1  0  0  0
 17 22  2  0  0  0
 18 19  2  0  0  0
 19 20  1  0  0  0
 20 21  2  0  0  0
 21 22  1  0  0  0
 22 23  1  0  0  0
 23 24  1  0  0  0
  5  6  1  0  0  0
  6  7  1  0  0  0
 33 34  1  0  0  0
M  END
> <minimizedAffinity>
-8.60916

$$$$
