CHEMBL1650545


 31 35  0  0  0  0  0  0  0  0999 V2000
  -27.7688  -11.3242   -8.9775 C   0  0  0  0  0  0  0  0  0  0  0  0
  -27.5619  -10.5558   -7.7123 C   0  0  0  0  0  0  0  0  0  0  0  0
  -26.3209  -10.5539   -7.0585 C   0  0  0  0  0  0  0  0  0  0  0  0
  -26.2151   -9.8529   -5.8943 N   0  0  0  0  0  0  0  0  0  0  0  0
  -25.1866   -9.7024   -5.0402 C   0  0  0  0  0  0  0  0  0  0  0  0
  -25.6458   -8.9422   -3.9714 C   0  0  0  0  0  0  0  0  0  0  0  0
  -26.9385   -8.5945   -4.1852 N   0  0  0  0  0  0  0  0  0  0  0  0
  -27.2507   -9.1774   -5.3652 C   0  0  0  0  0  0  0  0  0  0  0  0
  -28.4918   -9.1548   -6.0071 C   0  0  0  0  0  0  0  0  0  0  0  0
  -28.6018   -9.8598   -7.1739 N   0  0  0  0  0  0  0  0  0  0  0  0
  -23.8198  -10.2585   -5.1844 C   0  0  0  0  0  0  0  0  0  0  0  0
  -23.2138  -11.2574   -4.4393 C   0  0  0  0  0  0  0  0  0  0  0  0
  -21.9655  -11.4504   -4.9024 N   0  0  0  0  0  0  0  0  0  0  0  0
  -21.7678  -10.6110   -5.9068 N   0  0  0  0  0  0  0  0  0  0  0  0
  -22.8776   -9.8827   -6.1148 C   0  0  0  0  0  0  0  0  0  0  0  0
  -20.8727  -10.5402   -6.4403 H   0  0  0  0  0  0  0  0  0  0  0  0
  -29.5874   -8.3900   -5.5149 N   0  0  0  0  0  0  0  0  0  0  0  0
  -30.2073   -8.8170   -4.8094 H   0  0  0  0  0  0  0  0  0  0  0  0
  -29.7749   -7.0138   -5.8307 C   0  0  0  0  0  0  0  0  0  0  0  0
  -29.8136   -5.9679   -4.9204 C   0  0  0  0  0  0  0  0  0  0  0  0
  -29.9593   -4.7056   -5.5491 C   0  0  0  0  0  0  0  0  0  0  0  0
  -30.0714   -4.7263   -6.9038 N   0  0  0  0  0  0  0  0  0  0  0  0
  -29.9584   -6.3232   -7.3423 S   0  0  0  0  0  0  0  0  0  0  0  0
  -29.9361   -3.4128   -4.7857 C   0  0  0  0  0  0  0  0  0  0  0  0
  -29.2055   -2.3620   -5.5096 N   0  0  0  0  0  0  0  0  0  0  0  0
  -27.7365   -2.4758   -5.3688 C   0  0  0  0  0  0  0  0  0  0  0  0
  -27.2331   -1.1036   -4.9218 C   0  0  0  0  0  0  0  0  0  0  0  0
  -28.3062   -0.1904   -5.4643 C   0  0  0  0  0  0  0  0  0  0  0  0
  -28.2874    1.0677   -4.8886 F   0  0  0  0  0  0  0  0  0  0  0  0
  -28.1973   -0.0847   -6.8427 F   0  0  0  0  0  0  0  0  0  0  0  0
  -29.5420   -0.9917   -5.1001 C   0  0  0  0  0  0  0  0  0  0  0  0
  1  2  1  0  0  0
  2  3  2  0  0  0
  2 10  1  0  0  0
  3  4  1  0  0  0
  4  5  1  0  0  0
  4  8  1  0  0  0
  5 11  1  0  0  0
  5  6  2  0  0  0
 11 12  1  0  0  0
 11 15  2  0  0  0
 12 13  2  0  0  0
 13 14  1  0  0  0
 14 15  1  0  0  0
 14 16  1  0  0  0
  6  7  1  0  0  0
  7  8  2  0  0  0
  8  9  1  0  0  0
  9 17  1  0  0  0
  9 10  2  0  0  0
 17 19  1  0  0  0
 17 18  1  0  0  0
 19 20  2  0  0  0
 19 23  1  0  0  0
 20 21  1  0  0  0
 21 24  1  0  0  0
 21 22  2  0  0  0
 24 25  1  0  0  0
 25 26  1  0  0  0
 25 31  1  0  0  0
 26 27  1  0  0  0
 27 28  1  0  0  0
 28 29  1  0  0  0
 28 30  1  0  0  0
 28 31  1  0  0  0
 22 23  1  0  0  0
M  END
> <minimizedAffinity>
-8.30649

$$$$
