CHEMBL3898789


 35 39  0  0  0  0  0  0  0  0999 V2000
  -23.2742   -0.6074  -13.5121 C   0  0  0  0  0  0  0  0  0  0  0  0
  -23.4554    0.0913  -12.3058 C   0  0  0  0  0  0  0  0  0  0  0  0
  -24.5095   -0.2182  -11.4140 C   0  0  0  0  0  0  0  0  0  0  0  0
  -25.5544   -1.0213  -11.9098 C   0  0  0  0  0  0  0  0  0  0  0  0
  -26.8124   -1.5768  -11.5265 C   0  0  0  0  0  0  0  0  0  0  0  0
  -27.6021   -1.6315  -12.6142 N   0  0  0  0  0  0  0  0  0  0  0  0
  -26.7190   -1.7550  -13.5935 N   0  0  0  0  0  0  0  0  0  0  0  0
  -25.4440   -1.4651  -13.2259 C   0  0  0  0  0  0  0  0  0  0  0  0
  -24.2714   -1.4579  -13.9698 C   0  0  0  0  0  0  0  0  0  0  0  0
  -27.0694   -1.9466  -14.5321 H   0  0  0  0  0  0  0  0  0  0  0  0
  -27.2245   -2.3151  -10.3622 C   0  0  0  0  0  0  0  0  0  0  0  0
  -27.3626   -1.6803   -9.1792 C   0  0  0  0  0  0  0  0  0  0  0  0
  -28.0048   -2.1176   -7.9356 C   0  0  0  0  0  0  0  0  0  0  0  0
  -28.0350   -1.3290   -6.7856 C   0  0  0  0  0  0  0  0  0  0  0  0
  -28.8410   -1.6964   -5.7058 C   0  0  0  0  0  0  0  0  0  0  0  0
  -29.6017   -2.8625   -5.7536 C   0  0  0  0  0  0  0  0  0  0  0  0
  -29.5317   -3.6923   -6.8721 C   0  0  0  0  0  0  0  0  0  0  0  0
  -28.7260   -3.3261   -7.9505 C   0  0  0  0  0  0  0  0  0  0  0  0
  -22.2337   -0.4459  -14.4104 O   0  0  0  0  0  0  0  0  0  0  0  0
  -19.5608    1.9341  -15.1599 C   0  0  0  0  0  0  0  0  0  0  0  0
  -20.2416    3.1258  -14.9098 C   0  0  0  0  0  0  0  0  0  0  0  0
  -21.5038    3.1432  -14.3309 C   0  0  0  0  0  0  0  0  0  0  0  0
  -22.1346    1.9487  -14.0480 C   0  0  0  0  0  0  0  0  0  0  0  0
  -21.5650    0.7522  -14.4842 C   0  0  0  0  0  0  0  0  0  0  0  0
  -20.2468    0.7369  -15.0049 C   0  0  0  0  0  0  0  0  0  0  0  0
  -17.1349    1.6246  -14.7339 C   0  0  0  0  0  0  0  0  0  0  0  0
  -17.2953    1.2984  -13.5480 O   0  0  0  0  0  0  0  0  0  0  0  0
  -18.2059    1.9253  -15.5779 N   0  0  0  0  0  0  0  0  0  0  0  0
  -17.9782    1.9966  -16.5635 H   0  0  0  0  0  0  0  0  0  0  0  0
  -12.8452    3.2260  -17.3118 C   0  0  0  0  0  0  0  0  0  0  0  0
  -13.8349    2.4434  -16.5308 C   0  0  0  0  0  0  0  0  0  0  0  0
  -13.7507    1.1888  -15.9633 C   0  0  0  0  0  0  0  0  0  0  0  0
  -14.8852    0.7567  -15.2757 N   0  0  0  0  0  0  0  0  0  0  0  0
  -15.8021    1.6979  -15.3232 C   0  0  0  0  0  0  0  0  0  0  0  0
  -15.3733    3.1128  -16.2152 S   0  0  0  0  0  0  0  0  0  0  0  0
 30 31  1  0  0  0
 31 32  2  0  0  0
 31 35  1  0  0  0
 32 33  1  0  0  0
 33 34  2  0  0  0
 34 26  1  0  0  0
 34 35  1  0  0  0
 26 27  2  0  0  0
 26 28  1  0  0  0
 28 20  1  0  0  0
 28 29  1  0  0  0
 20 21  1  0  0  0
 20 25  2  0  0  0
 21 22  2  0  0  0
 22 23  1  0  0  0
 23 24  2  0  0  0
 24 19  1  0  0  0
 24 25  1  0  0  0
 19  1  1  0  0  0
  1  2  1  0  0  0
  1  9  2  0  0  0
  2  3  2  0  0  0
  3  4  1  0  0  0
  4  5  1  0  0  0
  4  8  2  0  0  0
  5 11  1  0  0  0
  5  6  2  0  0  0
 11 12  2  0  0  0
 12 13  1  0  0  0
 13 14  1  0  0  0
 13 18  2  0  0  0
 14 15  2  0  0  0
 15 16  1  0  0  0
 16 17  2  0  0  0
 17 18  1  0  0  0
  6  7  1  0  0  0
  7  8  1  0  0  0
  7 10  1  0  0  0
  8  9  1  0  0  0
M  END
> <minimizedAffinity>
-11.29482

$$$$
