CHEMBL179422


 35 38  0  0  0  0  0  0  0  0999 V2000
  -23.1400   -0.7020  -13.2052 C   0  0  0  0  0  0  0  0  0  0  0  0
  -22.9847   -0.8848  -11.8354 C   0  0  0  0  0  0  0  0  0  0  0  0
  -24.0144   -1.4783  -11.0963 C   0  0  0  0  0  0  0  0  0  0  0  0
  -25.2416   -1.8032  -11.6847 C   0  0  0  0  0  0  0  0  0  0  0  0
  -25.4453   -1.4517  -13.0234 C   0  0  0  0  0  0  0  0  0  0  0  0
  -24.3972   -0.9054  -13.7799 C   0  0  0  0  0  0  0  0  0  0  0  0
  -26.2655   -2.5146  -11.0126 N   0  0  0  0  0  0  0  0  0  0  0  0
  -26.7867   -2.2035   -9.7711 C   0  0  0  0  0  0  0  0  0  0  0  0
  -26.5135   -1.1954   -9.1247 O   0  0  0  0  0  0  0  0  0  0  0  0
  -27.6432   -3.1846   -9.2862 N   0  0  0  0  0  0  0  0  0  0  0  0
  -26.6698   -3.3111  -11.4802 H   0  0  0  0  0  0  0  0  0  0  0  0
  -27.3455   -4.1330   -9.4841 H   0  0  0  0  0  0  0  0  0  0  0  0
  -28.2526   -3.0031   -8.0096 C   0  0  0  0  0  0  0  0  0  0  0  0
  -28.3661   -1.7198   -7.4563 C   0  0  0  0  0  0  0  0  0  0  0  0
  -28.8570   -1.5452   -6.1615 C   0  0  0  0  0  0  0  0  0  0  0  0
  -29.2382   -2.6556   -5.4142 C   0  0  0  0  0  0  0  0  0  0  0  0
  -29.7891   -2.4433   -3.7980 Cl  0  0  0  0  0  0  0  0  0  0  0  0
  -29.1659   -3.9363   -5.9605 C   0  0  0  0  0  0  0  0  0  0  0  0
  -28.6909   -4.1069   -7.2643 C   0  0  0  0  0  0  0  0  0  0  0  0
  -28.5669   -5.7115   -7.8941 Cl  0  0  0  0  0  0  0  0  0  0  0  0
  -22.1184   -0.3748  -14.0668 O   0  0  0  0  0  0  0  0  0  0  0  0
  -17.9036    2.5498  -15.0889 C   0  0  0  0  0  0  0  0  0  0  0  0
  -19.0507    3.3500  -14.9670 C   0  0  0  0  0  0  0  0  0  0  0  0
  -20.3192    2.8272  -14.7277 C   0  0  0  0  0  0  0  0  0  0  0  0
  -21.3174    3.6947  -14.5069 N   0  0  0  0  0  0  0  0  0  0  0  0
  -22.5246    3.1985  -14.1729 C   0  0  0  0  0  0  0  0  0  0  0  0
  -22.7838    1.8478  -14.0287 C   0  0  0  0  0  0  0  0  0  0  0  0
  -21.7464    0.9470  -14.2713 C   0  0  0  0  0  0  0  0  0  0  0  0
  -20.4796    1.4335  -14.6928 C   0  0  0  0  0  0  0  0  0  0  0  0
  -19.3616    0.6472  -15.0548 C   0  0  0  0  0  0  0  0  0  0  0  0
  -18.0713    1.1698  -15.1636 C   0  0  0  0  0  0  0  0  0  0  0  0
  -16.4743    4.1443  -16.1100 C   0  0  0  0  0  0  0  0  0  0  0  0
  -16.6469    3.0841  -15.1677 O   0  0  0  0  0  0  0  0  0  0  0  0
  -17.1453    0.1747  -15.3080 O   0  0  0  0  0  0  0  0  0  0  0  0
  -16.3156   -0.1859  -14.2174 C   0  0  0  0  0  0  0  0  0  0  0  0
 32 33  1  0  0  0
 33 22  1  0  0  0
 22 23  1  0  0  0
 22 31  2  0  0  0
 23 24  2  0  0  0
 24 25  1  0  0  0
 24 29  1  0  0  0
 25 26  2  0  0  0
 26 27  1  0  0  0
 27 28  2  0  0  0
 28 21  1  0  0  0
 28 29  1  0  0  0
 21  1  1  0  0  0
  1  2  1  0  0  0
  1  6  2  0  0  0
  2  3  2  0  0  0
  3  4  1  0  0  0
  4  7  1  0  0  0
  4  5  2  0  0  0
  7  8  1  0  0  0
  7 11  1  0  0  0
  8  9  2  0  0  0
  8 10  1  0  0  0
 10 13  1  0  0  0
 10 12  1  0  0  0
 13 14  1  0  0  0
 13 19  2  0  0  0
 14 15  2  0  0  0
 15 16  1  0  0  0
 16 17  1  0  0  0
 16 18  2  0  0  0
 18 19  1  0  0  0
 19 20  1  0  0  0
  5  6  1  0  0  0
 29 30  2  0  0  0
 30 31  1  0  0  0
 31 34  1  0  0  0
 34 35  1  0  0  0
M  END
> <minimizedAffinity>
-11.25454

$$$$
