CHEMBL3932302


 40 43  0  0  0  0  0  0  0  0999 V2000
  -27.8198   -2.5253   -9.2567 N   0  0  0  0  0  0  0  0  0  0  0  0
  -26.7789   -1.9168   -9.9360 C   0  0  0  0  0  0  0  0  0  0  0  0
  -26.0545   -1.0512   -9.4471 O   0  0  0  0  0  0  0  0  0  0  0  0
  -26.6262   -2.3490  -11.2395 N   0  0  0  0  0  0  0  0  0  0  0  0
  -28.4185   -3.1505   -9.7770 H   0  0  0  0  0  0  0  0  0  0  0  0
  -27.4727   -2.4339  -11.7818 H   0  0  0  0  0  0  0  0  0  0  0  0
  -28.5533   -3.0122   -5.6195 C   0  0  0  0  0  0  0  0  0  0  0  0
  -28.2820   -3.2901   -6.9568 C   0  0  0  0  0  0  0  0  0  0  0  0
  -28.1435   -2.2657   -7.8978 C   0  0  0  0  0  0  0  0  0  0  0  0
  -28.3536   -0.9457   -7.4781 C   0  0  0  0  0  0  0  0  0  0  0  0
  -28.6515   -0.6533   -6.1268 C   0  0  0  0  0  0  0  0  0  0  0  0
  -28.7270   -1.7005   -5.1924 C   0  0  0  0  0  0  0  0  0  0  0  0
  -29.0028   -5.7946   -5.5435 C   0  0  0  0  0  0  0  0  0  0  0  0
  -28.7652   -4.3772   -4.5027 S   0  0  0  0  0  0  0  0  0  0  0  0
  -29.9955   -4.1270   -3.7775 O   0  0  0  0  0  0  0  0  0  0  0  0
  -27.5081   -4.5555   -3.8015 O   0  0  0  0  0  0  0  0  0  0  0  0
  -28.9213    0.7592   -5.6628 C   0  0  0  0  0  0  0  0  0  0  0  0
  -30.2097    0.9656   -5.2744 F   0  0  0  0  0  0  0  0  0  0  0  0
  -28.1492    1.1075   -4.5971 F   0  0  0  0  0  0  0  0  0  0  0  0
  -28.6674    1.6826   -6.6294 F   0  0  0  0  0  0  0  0  0  0  0  0
  -25.5569   -1.8197  -11.9935 C   0  0  0  0  0  0  0  0  0  0  0  0
  -25.7355   -1.4868  -13.3350 C   0  0  0  0  0  0  0  0  0  0  0  0
  -24.6291   -1.1482  -14.1086 C   0  0  0  0  0  0  0  0  0  0  0  0
  -23.3752   -1.0763  -13.5124 C   0  0  0  0  0  0  0  0  0  0  0  0
  -23.2985   -1.3929  -12.1585 C   0  0  0  0  0  0  0  0  0  0  0  0
  -24.3633   -1.7314  -11.3750 N   0  0  0  0  0  0  0  0  0  0  0  0
  -22.2111   -0.7707  -14.1843 O   0  0  0  0  0  0  0  0  0  0  0  0
  -21.8207    0.5519  -14.2983 C   0  0  0  0  0  0  0  0  0  0  0  0
  -22.5749    1.6103  -13.8010 C   0  0  0  0  0  0  0  0  0  0  0  0
  -22.1111    2.8866  -14.0167 C   0  0  0  0  0  0  0  0  0  0  0  0
  -20.9430    3.1541  -14.6226 N   0  0  0  0  0  0  0  0  0  0  0  0
  -20.1701    2.1373  -15.0392 C   0  0  0  0  0  0  0  0  0  0  0  0
  -20.5792    0.8125  -14.8964 C   0  0  0  0  0  0  0  0  0  0  0  0
  -18.9255    2.4256  -15.6330 N   0  0  0  0  0  0  0  0  0  0  0  0
  -17.7099    2.1066  -15.0509 C   0  0  0  0  0  0  0  0  0  0  0  0
  -17.5260    1.5514  -13.9782 O   0  0  0  0  0  0  0  0  0  0  0  0
  -18.9276    2.8991  -16.5212 H   0  0  0  0  0  0  0  0  0  0  0  0
  -16.4770    2.5040  -15.7986 C   0  0  0  0  0  0  0  0  0  0  0  0
  -15.6173    1.4346  -16.4343 C   0  0  0  0  0  0  0  0  0  0  0  0
  -15.0445    2.3363  -15.3760 C   0  0  0  0  0  0  0  0  0  0  0  0
 13 14  1  0  0  0
 14 15  2  0  0  0
 14 16  2  0  0  0
 14  7  1  0  0  0
  7  8  1  0  0  0
  7 12  2  0  0  0
  8  9  2  0  0  0
  9  1  1  0  0  0
  9 10  1  0  0  0
  1  2  1  0  0  0
  1  5  1  0  0  0
  2  3  2  0  0  0
  2  4  1  0  0  0
  4 21  1  0  0  0
  4  6  1  0  0  0
 21 22  1  0  0  0
 21 26  2  0  0  0
 22 23  2  0  0  0
 23 24  1  0  0  0
 24 27  1  0  0  0
 24 25  2  0  0  0
 27 28  1  0  0  0
 28 29  1  0  0  0
 28 33  2  0  0  0
 29 30  2  0  0  0
 30 31  1  0  0  0
 31 32  2  0  0  0
 32 34  1  0  0  0
 32 33  1  0  0  0
 34 35  1  0  0  0
 34 37  1  0  0  0
 35 36  2  0  0  0
 35 38  1  0  0  0
 38 39  1  0  0  0
 38 40  1  0  0  0
 39 40  1  0  0  0
 25 26  1  0  0  0
 10 11  2  0  0  0
 11 17  1  0  0  0
 11 12  1  0  0  0
 17 18  1  0  0  0
 17 19  1  0  0  0
 17 20  1  0  0  0
M  END
> <minimizedAffinity>
-11.90884

$$$$
