CHEMBL223622


 25 27  0  0  0  0  0  0  0  0999 V2000
  -30.5724   -9.5053   -8.4627 C   0  0  0  0  0  0  0  0  0  0  0  0
  -31.7964  -10.1618   -8.3942 C   0  0  0  0  0  0  0  0  0  0  0  0
  -31.9753  -11.4798   -8.8049 N   0  0  0  0  0  0  0  0  0  0  0  0
  -32.8794   -9.6109   -7.8188 N   0  0  0  0  0  0  0  0  0  0  0  0
  -32.7243   -8.3947   -7.2813 C   0  0  0  0  0  0  0  0  0  0  0  0
  -31.6012   -7.6745   -7.2837 N   0  0  0  0  0  0  0  0  0  0  0  0
  -30.5530   -8.2261   -7.9342 C   0  0  0  0  0  0  0  0  0  0  0  0
  -31.4759  -11.6779   -9.6737 H   0  0  0  0  0  0  0  0  0  0  0  0
  -32.9617  -11.7077   -8.8188 H   0  0  0  0  0  0  0  0  0  0  0  0
  -29.3950  -10.5685  -10.2890 N   0  0  0  0  0  0  0  0  0  0  0  0
  -29.3834  -10.1318   -9.0673 C   0  0  0  0  0  0  0  0  0  0  0  0
  -27.1464  -10.1800  -10.5152 C   0  0  0  0  0  0  0  0  0  0  0  0
  -28.1662  -11.1746  -10.5963 O   0  0  0  0  0  0  0  0  0  0  0  0
  -29.4079   -7.4491   -8.0633 O   0  0  0  0  0  0  0  0  0  0  0  0
  -28.9115   -6.8370   -6.9220 C   0  0  0  0  0  0  0  0  0  0  0  0
  -29.0497   -5.4407   -6.8548 C   0  0  0  0  0  0  0  0  0  0  0  0
  -28.6647   -4.7541   -5.6793 C   0  0  0  0  0  0  0  0  0  0  0  0
  -28.7001   -3.3914   -5.2657 C   0  0  0  0  0  0  0  0  0  0  0  0
  -28.2323   -3.3294   -3.9722 C   0  0  0  0  0  0  0  0  0  0  0  0
  -27.8761   -4.5980   -3.5970 N   0  0  0  0  0  0  0  0  0  0  0  0
  -28.1327   -5.4832   -4.6133 C   0  0  0  0  0  0  0  0  0  0  0  0
  -27.9589   -6.8698   -4.6686 C   0  0  0  0  0  0  0  0  0  0  0  0
  -28.3875   -7.5290   -5.8239 C   0  0  0  0  0  0  0  0  0  0  0  0
  -28.3164   -8.8692   -5.8253 F   0  0  0  0  0  0  0  0  0  0  0  0
  -27.5133   -4.8526   -2.6871 H   0  0  0  0  0  0  0  0  0  0  0  0
 12 13  1  0  0  0
 13 10  1  0  0  0
 10 11  2  0  0  0
 11  1  1  0  0  0
  1  2  1  0  0  0
  1  7  2  0  0  0
  2  3  1  0  0  0
  2  4  2  0  0  0
  3  8  1  0  0  0
  3  9  1  0  0  0
  4  5  1  0  0  0
  5  6  2  0  0  0
  6  7  1  0  0  0
  7 14  1  0  0  0
 14 15  1  0  0  0
 15 16  1  0  0  0
 15 23  2  0  0  0
 16 17  2  0  0  0
 17 18  1  0  0  0
 17 21  1  0  0  0
 18 19  2  0  0  0
 19 20  1  0  0  0
 20 21  1  0  0  0
 20 25  1  0  0  0
 21 22  2  0  0  0
 22 23  1  0  0  0
 23 24  1  0  0  0
M  END
> <minimizedAffinity>
-7.44414

$$$$
