CHEMBL3660286


 46 50  0  0  0  0  0  0  0  0999 V2000
  -14.8122   -4.0370  -13.4894 C   0  0  0  0  0  0  0  0  0  0  0  0
  -14.9491   -2.6602  -13.4102 C   0  0  0  0  0  0  0  0  0  0  0  0
  -15.5591   -2.1095  -12.2911 C   0  0  0  0  0  0  0  0  0  0  0  0
  -16.0868   -2.9559  -11.3263 C   0  0  0  0  0  0  0  0  0  0  0  0
  -15.9301   -4.3239  -11.5014 C   0  0  0  0  0  0  0  0  0  0  0  0
  -15.2960   -4.8882  -12.5564 N   0  0  0  0  0  0  0  0  0  0  0  0
  -12.8379   -5.9652  -15.9856 C   0  0  0  0  0  0  0  0  0  0  0  0
  -13.2392   -4.8280  -16.6677 C   0  0  0  0  0  0  0  0  0  0  0  0
  -13.9668   -4.0295  -15.8248 N   0  0  0  0  0  0  0  0  0  0  0  0
  -14.1074   -4.6432  -14.6057 C   0  0  0  0  0  0  0  0  0  0  0  0
  -13.4680   -5.8677  -14.7101 C   0  0  0  0  0  0  0  0  0  0  0  0
  -14.3520   -3.1186  -16.0441 H   0  0  0  0  0  0  0  0  0  0  0  0
  -12.8305   -9.1557  -19.9551 C   0  0  0  0  0  0  0  0  0  0  0  0
  -11.4885   -9.1837  -19.1944 C   0  0  0  0  0  0  0  0  0  0  0  0
  -11.6743   -9.1739  -17.6714 C   0  0  0  0  0  0  0  0  0  0  0  0
  -12.5390   -8.0769  -17.2566 N   0  0  0  0  0  0  0  0  0  0  0  0
  -12.0056   -7.0951  -16.4058 C   0  0  0  0  0  0  0  0  0  0  0  0
  -10.8298   -7.1367  -16.0461 O   0  0  0  0  0  0  0  0  0  0  0  0
  -13.8322   -8.0158  -17.9317 C   0  0  0  0  0  0  0  0  0  0  0  0
  -13.6536   -7.9705  -19.4414 C   0  0  0  0  0  0  0  0  0  0  0  0
  -13.5497  -10.5071  -19.8287 C   0  0  0  0  0  0  0  0  0  0  0  0
  -14.2419  -10.9434  -21.0961 C   0  0  0  0  0  0  0  0  0  0  0  0
  -13.8238  -10.7007  -22.2197 O   0  0  0  0  0  0  0  0  0  0  0  0
  -15.3722  -12.2448  -19.5136 C   0  0  0  0  0  0  0  0  0  0  0  0
  -15.3760  -11.6336  -20.8044 O   0  0  0  0  0  0  0  0  0  0  0  0
  -15.6894   -0.7488  -12.0991 O   0  0  0  0  0  0  0  0  0  0  0  0
  -15.3330    0.0997  -13.1296 C   0  0  0  0  0  0  0  0  0  0  0  0
  -16.3131    0.4430  -14.0483 C   0  0  0  0  0  0  0  0  0  0  0  0
  -15.9913    1.2551  -15.1470 C   0  0  0  0  0  0  0  0  0  0  0  0
  -14.6901    1.7423  -15.3473 C   0  0  0  0  0  0  0  0  0  0  0  0
  -13.7261    1.4371  -14.3824 C   0  0  0  0  0  0  0  0  0  0  0  0
  -14.0537    0.6490  -13.2700 C   0  0  0  0  0  0  0  0  0  0  0  0
  -14.3019    2.5180  -16.4727 N   0  0  0  0  0  0  0  0  0  0  0  0
  -14.1793    3.8976  -16.4913 C   0  0  0  0  0  0  0  0  0  0  0  0
  -14.3613    4.6314  -15.5157 O   0  0  0  0  0  0  0  0  0  0  0  0
  -13.8313    4.4023  -17.7347 N   0  0  0  0  0  0  0  0  0  0  0  0
  -14.0425    2.0211  -17.3136 H   0  0  0  0  0  0  0  0  0  0  0  0
  -14.3021    3.9497  -18.5122 H   0  0  0  0  0  0  0  0  0  0  0  0
  -13.7000    5.8170  -17.8641 C   0  0  0  0  0  0  0  0  0  0  0  0
  -14.6815    6.5758  -18.5174 C   0  0  0  0  0  0  0  0  0  0  0  0
  -14.5154    7.9567  -18.7097 C   0  0  0  0  0  0  0  0  0  0  0  0
  -15.5767    8.7687  -19.3955 C   0  0  0  0  0  0  0  0  0  0  0  0
  -13.3400    8.5720  -18.2583 C   0  0  0  0  0  0  0  0  0  0  0  0
  -12.3595    7.8215  -17.6038 C   0  0  0  0  0  0  0  0  0  0  0  0
  -12.5542    6.4575  -17.3937 C   0  0  0  0  0  0  0  0  0  0  0  0
  -11.5890    5.7433  -16.7950 F   0  0  0  0  0  0  0  0  0  0  0  0
 24 25  1  0  0  0
 25 22  1  0  0  0
 22 23  2  0  0  0
 22 21  1  0  0  0
 21 13  1  0  0  0
 13 14  1  0  0  0
 13 20  1  0  0  0
 14 15  1  0  0  0
 15 16  1  0  0  0
 16 17  1  0  0  0
 16 19  1  0  0  0
 17 18  2  0  0  0
 17  7  1  0  0  0
  7  8  2  0  0  0
  7 11  1  0  0  0
  8  9  1  0  0  0
  9 10  1  0  0  0
  9 12  1  0  0  0
 10  1  1  0  0  0
 10 11  2  0  0  0
  1  2  1  0  0  0
  1  6  2  0  0  0
  2  3  2  0  0  0
  3 26  1  0  0  0
  3  4  1  0  0  0
 26 27  1  0  0  0
 27 28  1  0  0  0
 27 32  2  0  0  0
 28 29  2  0  0  0
 29 30  1  0  0  0
 30 33  1  0  0  0
 30 31  2  0  0  0
 33 34  1  0  0  0
 33 37  1  0  0  0
 34 35  2  0  0  0
 34 36  1  0  0  0
 36 39  1  0  0  0
 36 38  1  0  0  0
 39 40  1  0  0  0
 39 45  2  0  0  0
 40 41  2  0  0  0
 41 42  1  0  0  0
 41 43  1  0  0  0
 43 44  2  0  0  0
 44 45  1  0  0  0
 45 46  1  0  0  0
 31 32  1  0  0  0
  4  5  2  0  0  0
  5  6  1  0  0  0
 19 20  1  0  0  0
M  END
> <minimizedAffinity>
-7.84019

$$$$
