CHEMBL186369


 35 37  0  0  0  0  0  0  0  0999 V2000
  -16.4531    1.8201  -14.6679 C   0  0  0  0  0  0  0  0  0  0  0  0
  -15.1573    2.1527  -15.0035 C   0  0  0  0  0  0  0  0  0  0  0  0
  -14.1492    1.5373  -14.2941 C   0  0  0  0  0  0  0  0  0  0  0  0
  -14.3556    0.6512  -13.3057 N   0  0  0  0  0  0  0  0  0  0  0  0
  -15.6322    0.3647  -13.0301 C   0  0  0  0  0  0  0  0  0  0  0  0
  -16.6601    0.9350  -13.6786 N   0  0  0  0  0  0  0  0  0  0  0  0
  -17.5808    2.3414  -15.3591 N   0  0  0  0  0  0  0  0  0  0  0  0
  -17.2927    3.3548  -16.3714 C   0  0  0  0  0  0  0  0  0  0  0  0
  -21.6302    1.5184  -14.2237 C   0  0  0  0  0  0  0  0  0  0  0  0
  -20.8179    0.5549  -14.8151 C   0  0  0  0  0  0  0  0  0  0  0  0
  -19.4987    0.8487  -15.1791 C   0  0  0  0  0  0  0  0  0  0  0  0
  -18.9289    2.1162  -14.9866 C   0  0  0  0  0  0  0  0  0  0  0  0
  -19.7771    3.0933  -14.4354 C   0  0  0  0  0  0  0  0  0  0  0  0
  -21.1106    2.8044  -14.0698 C   0  0  0  0  0  0  0  0  0  0  0  0
  -24.6091    0.1916  -12.5857 N   0  0  0  0  0  0  0  0  0  0  0  0
  -23.2505    0.3006  -12.8062 C   0  0  0  0  0  0  0  0  0  0  0  0
  -22.4425   -0.3535  -12.1516 O   0  0  0  0  0  0  0  0  0  0  0  0
  -22.9418    1.2381  -13.7697 N   0  0  0  0  0  0  0  0  0  0  0  0
  -25.1823    0.3039  -13.4096 H   0  0  0  0  0  0  0  0  0  0  0  0
  -23.6512    1.9352  -13.9412 H   0  0  0  0  0  0  0  0  0  0  0  0
  -26.4310   -1.3353  -11.8890 C   0  0  0  0  0  0  0  0  0  0  0  0
  -25.0416   -0.7975  -11.6115 C   0  0  0  0  0  0  0  0  0  0  0  0
  -15.8580   -0.6316  -12.0655 N   0  0  0  0  0  0  0  0  0  0  0  0
  -15.5781   -0.2729  -11.1624 H   0  0  0  0  0  0  0  0  0  0  0  0
  -15.7697   -2.0262  -12.2314 C   0  0  0  0  0  0  0  0  0  0  0  0
  -15.7344   -2.5880  -13.5143 C   0  0  0  0  0  0  0  0  0  0  0  0
  -15.8122   -3.9790  -13.6954 C   0  0  0  0  0  0  0  0  0  0  0  0
  -15.9356   -4.8364  -12.5937 C   0  0  0  0  0  0  0  0  0  0  0  0
  -15.8709   -4.2817  -11.3160 C   0  0  0  0  0  0  0  0  0  0  0  0
  -15.7490   -2.9056  -11.1451 C   0  0  0  0  0  0  0  0  0  0  0  0
  -16.2172   -6.3021  -12.7607 C   0  0  0  0  0  0  0  0  0  0  0  0
  -14.9401   -7.1463  -13.6742 S   0  0  0  0  0  0  0  0  0  0  0  0
  -13.4028   -6.4117  -13.1611 C   0  0  0  0  0  0  0  0  0  0  0  0
  -14.9177   -8.5218  -13.1991 O   0  0  0  0  0  0  0  0  0  0  0  0
  -15.1140   -6.8833  -15.0908 O   0  0  0  0  0  0  0  0  0  0  0  0
 21 22  1  0  0  0
 22 15  1  0  0  0
 15 16  1  0  0  0
 15 19  1  0  0  0
 16 17  2  0  0  0
 16 18  1  0  0  0
 18  9  1  0  0  0
 18 20  1  0  0  0
  9 10  1  0  0  0
  9 14  2  0  0  0
 10 11  2  0  0  0
 11 12  1  0  0  0
 12  7  1  0  0  0
 12 13  2  0  0  0
  7  8  1  0  0  0
  7  1  1  0  0  0
  1  2  1  0  0  0
  1  6  2  0  0  0
  2  3  2  0  0  0
  3  4  1  0  0  0
  4  5  2  0  0  0
  5 23  1  0  0  0
  5  6  1  0  0  0
 23 25  1  0  0  0
 23 24  1  0  0  0
 25 26  1  0  0  0
 25 30  2  0  0  0
 26 27  2  0  0  0
 27 28  1  0  0  0
 28 31  1  0  0  0
 28 29  2  0  0  0
 31 32  1  0  0  0
 32 33  1  0  0  0
 32 34  2  0  0  0
 32 35  2  0  0  0
 29 30  1  0  0  0
 13 14  1  0  0  0
M  END
> <minimizedAffinity>
-9.69727

$$$$
