CHEMBL3942670


 42 45  0  0  0  0  0  0  0  0999 V2000
  -26.7152   -1.6856  -10.7765 C   0  0  0  0  0  0  0  0  0  0  0  0
  -27.1685   -1.9207  -12.0547 C   0  0  0  0  0  0  0  0  0  0  0  0
  -26.2585   -1.4803  -13.0557 C   0  0  0  0  0  0  0  0  0  0  0  0
  -26.4616   -1.5866  -14.3960 N   0  0  0  0  0  0  0  0  0  0  0  0
  -25.4773   -1.1103  -15.1745 C   0  0  0  0  0  0  0  0  0  0  0  0
  -24.2981   -0.5594  -14.7135 C   0  0  0  0  0  0  0  0  0  0  0  0
  -24.0631   -0.5110  -13.3401 C   0  0  0  0  0  0  0  0  0  0  0  0
  -25.0991   -0.9438  -12.5002 C   0  0  0  0  0  0  0  0  0  0  0  0
  -25.1756   -0.9426  -10.7878 S   0  0  0  0  0  0  0  0  0  0  0  0
  -27.3773   -3.3563   -9.1894 N   0  0  0  0  0  0  0  0  0  0  0  0
  -27.3978   -2.0224   -9.5355 C   0  0  0  0  0  0  0  0  0  0  0  0
  -27.9593   -1.1813   -8.8376 O   0  0  0  0  0  0  0  0  0  0  0  0
  -26.9447   -4.0054   -9.8363 H   0  0  0  0  0  0  0  0  0  0  0  0
  -28.0259   -3.8645   -8.0053 C   0  0  0  0  0  0  0  0  0  0  0  0
  -29.5398   -3.9387   -8.1593 C   0  0  0  0  0  0  0  0  0  0  0  0
  -30.1761   -4.9662   -7.2247 C   0  0  0  0  0  0  0  0  0  0  0  0
  -29.8269   -4.6761   -5.7863 C   0  0  0  0  0  0  0  0  0  0  0  0
  -29.1347   -5.3853   -5.0720 O   0  0  0  0  0  0  0  0  0  0  0  0
  -30.4991   -3.5633   -5.3785 O   0  0  0  0  0  0  0  0  0  0  0  0
  -29.4471   -1.4311   -5.3021 C   0  0  0  0  0  0  0  0  0  0  0  0
  -29.7425   -2.6990   -4.5203 C   0  0  0  0  0  0  0  0  0  0  0  0
  -22.8884   -0.0516  -12.7810 O   0  0  0  0  0  0  0  0  0  0  0  0
  -22.0183    0.6496  -13.5836 C   0  0  0  0  0  0  0  0  0  0  0  0
  -21.1657   -0.1062  -14.3773 C   0  0  0  0  0  0  0  0  0  0  0  0
  -20.1949    0.5326  -15.1430 C   0  0  0  0  0  0  0  0  0  0  0  0
  -20.0561    1.9328  -15.1441 C   0  0  0  0  0  0  0  0  0  0  0  0
  -20.9523    2.6835  -14.3868 C   0  0  0  0  0  0  0  0  0  0  0  0
  -21.9539    2.0427  -13.6435 C   0  0  0  0  0  0  0  0  0  0  0  0
  -19.0650    2.6234  -15.8843 N   0  0  0  0  0  0  0  0  0  0  0  0
  -17.7087    2.5309  -15.6676 C   0  0  0  0  0  0  0  0  0  0  0  0
  -17.1894    1.8366  -14.7898 O   0  0  0  0  0  0  0  0  0  0  0  0
  -16.9440    3.3058  -16.5309 N   0  0  0  0  0  0  0  0  0  0  0  0
  -19.3655    3.1481  -16.6933 H   0  0  0  0  0  0  0  0  0  0  0  0
  -17.3104    4.2406  -16.6605 H   0  0  0  0  0  0  0  0  0  0  0  0
  -15.5326    3.2412  -16.3396 C   0  0  0  0  0  0  0  0  0  0  0  0
  -14.8388    4.3519  -15.8390 C   0  0  0  0  0  0  0  0  0  0  0  0
  -13.4391    4.3889  -15.8520 C   0  0  0  0  0  0  0  0  0  0  0  0
  -12.7098    5.6072  -15.3659 C   0  0  0  0  0  0  0  0  0  0  0  0
  -12.7358    3.2958  -16.3741 C   0  0  0  0  0  0  0  0  0  0  0  0
  -13.4227    2.1618  -16.8201 C   0  0  0  0  0  0  0  0  0  0  0  0
  -14.8150    2.1324  -16.7811 C   0  0  0  0  0  0  0  0  0  0  0  0
  -15.4654    1.0636  -17.2666 F   0  0  0  0  0  0  0  0  0  0  0  0
 20 21  1  0  0  0
 21 19  1  0  0  0
 19 17  1  0  0  0
 17 18  2  0  0  0
 17 16  1  0  0  0
 16 15  1  0  0  0
 15 14  1  0  0  0
 14 10  1  0  0  0
 10 11  1  0  0  0
 10 13  1  0  0  0
 11 12  2  0  0  0
 11  1  1  0  0  0
  1  2  2  0  0  0
  1  9  1  0  0  0
  2  3  1  0  0  0
  3  4  1  0  0  0
  3  8  2  0  0  0
  4  5  2  0  0  0
  5  6  1  0  0  0
  6  7  2  0  0  0
  7 22  1  0  0  0
  7  8  1  0  0  0
 22 23  1  0  0  0
 23 24  1  0  0  0
 23 28  2  0  0  0
 24 25  2  0  0  0
 25 26  1  0  0  0
 26 29  1  0  0  0
 26 27  2  0  0  0
 29 30  1  0  0  0
 29 33  1  0  0  0
 30 31  2  0  0  0
 30 32  1  0  0  0
 32 35  1  0  0  0
 32 34  1  0  0  0
 35 36  1  0  0  0
 35 41  2  0  0  0
 36 37  2  0  0  0
 37 38  1  0  0  0
 37 39  1  0  0  0
 39 40  2  0  0  0
 40 41  1  0  0  0
 41 42  1  0  0  0
 27 28  1  0  0  0
  8  9  1  0  0  0
M  END
> <minimizedAffinity>
-9.09124

$$$$
