CHEMBL3676346


 42 45  0  0  0  0  0  0  0  0999 V2000
  -13.1488   -1.9314  -15.2168 C   0  0  0  0  0  0  0  0  0  0  0  0
  -13.5418   -0.6473  -15.6192 C   0  0  0  0  0  0  0  0  0  0  0  0
  -13.2889    0.4817  -14.8223 C   0  0  0  0  0  0  0  0  0  0  0  0
  -13.7861    1.7750  -15.0329 C   0  0  0  0  0  0  0  0  0  0  0  0
  -13.4651    2.8049  -14.2239 N   0  0  0  0  0  0  0  0  0  0  0  0
  -12.6727    2.5450  -13.1851 C   0  0  0  0  0  0  0  0  0  0  0  0
  -12.1892    1.3467  -12.8596 N   0  0  0  0  0  0  0  0  0  0  0  0
  -12.5195    0.3322  -13.6611 C   0  0  0  0  0  0  0  0  0  0  0  0
  -12.1304   -0.9390  -13.2766 C   0  0  0  0  0  0  0  0  0  0  0  0
  -12.4901   -2.0891  -13.9895 C   0  0  0  0  0  0  0  0  0  0  0  0
  -12.6960   -3.4866  -17.0386 C   0  0  0  0  0  0  0  0  0  0  0  0
  -11.5166   -3.1796  -17.1849 O   0  0  0  0  0  0  0  0  0  0  0  0
  -13.5044   -3.0418  -16.0114 N   0  0  0  0  0  0  0  0  0  0  0  0
  -14.2687   -3.6204  -15.6840 H   0  0  0  0  0  0  0  0  0  0  0  0
  -13.9260   -3.8652  -19.1088 C   0  0  0  0  0  0  0  0  0  0  0  0
  -13.3801   -4.3878  -18.0005 C   0  0  0  0  0  0  0  0  0  0  0  0
  -14.7573    2.0050  -16.0443 N   0  0  0  0  0  0  0  0  0  0  0  0
  -14.5024    2.7976  -16.6280 H   0  0  0  0  0  0  0  0  0  0  0  0
  -16.1491    1.9149  -15.8004 C   0  0  0  0  0  0  0  0  0  0  0  0
  -16.7156    0.7063  -15.3599 C   0  0  0  0  0  0  0  0  0  0  0  0
  -18.0456    0.6420  -14.9436 C   0  0  0  0  0  0  0  0  0  0  0  0
  -18.8335    1.7892  -14.9910 C   0  0  0  0  0  0  0  0  0  0  0  0
  -20.6030    1.7161  -14.3290 Br  0  0  0  0  0  0  0  0  0  0  0  0
  -18.3068    2.9776  -15.4944 C   0  0  0  0  0  0  0  0  0  0  0  0
  -19.0642    4.0833  -15.5614 F   0  0  0  0  0  0  0  0  0  0  0  0
  -16.9767    3.0357  -15.9027 C   0  0  0  0  0  0  0  0  0  0  0  0
  -16.4679    4.1932  -16.3559 F   0  0  0  0  0  0  0  0  0  0  0  0
  -12.1982   -3.3665  -13.5694 O   0  0  0  0  0  0  0  0  0  0  0  0
  -10.8674   -3.5197  -13.0511 C   0  0  0  0  0  0  0  0  0  0  0  0
  -10.8807   -4.2651  -11.7211 C   0  0  0  0  0  0  0  0  0  0  0  0
  -12.2223   -4.3659  -11.1864 N   0  0  0  0  0  0  0  0  0  0  0  0
  -12.6400   -3.6836  -10.0698 C   0  0  0  0  0  0  0  0  0  0  0  0
  -11.9274   -2.8740   -9.4809 O   0  0  0  0  0  0  0  0  0  0  0  0
  -12.8220   -5.1329  -11.5011 H   0  0  0  0  0  0  0  0  0  0  0  0
  -14.0155   -4.0633   -9.5382 C   0  0  0  0  0  0  0  0  0  0  0  0
  -15.1491   -3.0946   -9.9008 C   0  0  0  0  0  0  0  0  0  0  0  0
  -15.9154   -3.5013  -11.1014 N   0  0  0  0  0  0  0  0  0  0  0  0
  -15.4268   -2.8430  -12.3252 C   0  0  0  0  0  0  0  0  0  0  0  0
  -16.2993   -3.2127  -13.5250 C   0  0  0  0  0  0  0  0  0  0  0  0
  -16.3579   -4.7219  -13.7168 C   0  0  0  0  0  0  0  0  0  0  0  0
  -16.7894   -5.4007  -12.4226 C   0  0  0  0  0  0  0  0  0  0  0  0
  -15.9110   -4.9668  -11.2474 C   0  0  0  0  0  0  0  0  0  0  0  0
 15 16  2  0  0  0
 16 11  1  0  0  0
 11 12  2  0  0  0
 11 13  1  0  0  0
 13  1  1  0  0  0
 13 14  1  0  0  0
  1  2  1  0  0  0
  1 10  2  0  0  0
  2  3  2  0  0  0
  3  4  1  0  0  0
  3  8  1  0  0  0
  4 17  1  0  0  0
  4  5  2  0  0  0
 17 19  1  0  0  0
 17 18  1  0  0  0
 19 20  1  0  0  0
 19 26  2  0  0  0
 20 21  2  0  0  0
 21 22  1  0  0  0
 22 23  1  0  0  0
 22 24  2  0  0  0
 24 25  1  0  0  0
 24 26  1  0  0  0
 26 27  1  0  0  0
  5  6  1  0  0  0
  6  7  2  0  0  0
  7  8  1  0  0  0
  8  9  2  0  0  0
  9 10  1  0  0  0
 10 28  1  0  0  0
 28 29  1  0  0  0
 29 30  1  0  0  0
 30 31  1  0  0  0
 31 32  1  0  0  0
 31 34  1  0  0  0
 32 33  2  0  0  0
 32 35  1  0  0  0
 35 36  1  0  0  0
 36 37  1  0  0  0
 37 38  1  0  0  0
 37 42  1  0  0  0
 38 39  1  0  0  0
 39 40  1  0  0  0
 40 41  1  0  0  0
 41 42  1  0  0  0
M  END
> <minimizedAffinity>
-7.75427

$$$$
