CHEMBL3758940


 32 34  0  0  0  0  0  0  0  0999 V2000
  -28.8011   -4.7973   -5.5137 C   0  0  0  0  0  0  0  0  0  0  0  0
  -28.5834   -3.4396   -5.2587 C   0  0  0  0  0  0  0  0  0  0  0  0
  -28.2996   -2.5284   -6.2652 C   0  0  0  0  0  0  0  0  0  0  0  0
  -28.0871   -1.2615   -5.9050 N   0  0  0  0  0  0  0  0  0  0  0  0
  -27.8259   -0.3985   -6.8866 C   0  0  0  0  0  0  0  0  0  0  0  0
  -27.7759   -0.6858   -8.1854 N   0  0  0  0  0  0  0  0  0  0  0  0
  -27.9875   -1.9650   -8.5494 C   0  0  0  0  0  0  0  0  0  0  0  0
  -28.2478   -2.9682   -7.5933 C   0  0  0  0  0  0  0  0  0  0  0  0
  -28.4721   -4.3392   -7.8668 C   0  0  0  0  0  0  0  0  0  0  0  0
  -28.7921   -5.2375   -6.8427 C   0  0  0  0  0  0  0  0  0  0  0  0
  -30.2530   -5.7487   -3.8478 C   0  0  0  0  0  0  0  0  0  0  0  0
  -29.0058   -5.7256   -4.5329 O   0  0  0  0  0  0  0  0  0  0  0  0
  -27.9582   -2.3046   -9.9326 N   0  0  0  0  0  0  0  0  0  0  0  0
  -28.8956   -2.2108  -10.3105 H   0  0  0  0  0  0  0  0  0  0  0  0
  -26.9897   -1.9060  -10.8863 C   0  0  0  0  0  0  0  0  0  0  0  0
  -25.6880   -1.5286  -10.5305 C   0  0  0  0  0  0  0  0  0  0  0  0
  -24.7625   -1.1116  -11.4905 C   0  0  0  0  0  0  0  0  0  0  0  0
  -25.1159   -1.1223  -12.8335 C   0  0  0  0  0  0  0  0  0  0  0  0
  -23.8800   -0.5253  -14.1320 Br  0  0  0  0  0  0  0  0  0  0  0  0
  -26.3739   -1.5735  -13.2236 C   0  0  0  0  0  0  0  0  0  0  0  0
  -27.3010   -1.9729  -12.2537 C   0  0  0  0  0  0  0  0  0  0  0  0
  -29.0059   -6.5232   -7.2675 O   0  0  0  0  0  0  0  0  0  0  0  0
  -30.3756   -6.8685   -7.5009 C   0  0  0  0  0  0  0  0  0  0  0  0
  -30.7139   -8.1379   -6.7106 C   0  0  0  0  0  0  0  0  0  0  0  0
  -29.7931   -9.2959   -7.1071 C   0  0  0  0  0  0  0  0  0  0  0  0
  -29.2732  -10.0836   -5.9090 C   0  0  0  0  0  0  0  0  0  0  0  0
  -28.6603   -9.1612   -4.8726 C   0  0  0  0  0  0  0  0  0  0  0  0
  -29.0538   -9.0532   -3.7148 O   0  0  0  0  0  0  0  0  0  0  0  0
  -27.5940   -8.4287   -5.3428 N   0  0  0  0  0  0  0  0  0  0  0  0
  -26.9288   -7.6486   -4.3660 O   0  0  0  0  0  0  0  0  0  0  0  0
  -27.0411   -8.7180   -6.1427 H   0  0  0  0  0  0  0  0  0  0  0  0
  -27.4797   -7.8018   -3.5660 H   0  0  0  0  0  0  0  0  0  0  0  0
 11 12  1  0  0  0
 12  1  1  0  0  0
  1  2  1  0  0  0
  1 10  2  0  0  0
  2  3  2  0  0  0
  3  4  1  0  0  0
  3  8  1  0  0  0
  4  5  2  0  0  0
  5  6  1  0  0  0
  6  7  2  0  0  0
  7 13  1  0  0  0
  7  8  1  0  0  0
 13 15  1  0  0  0
 13 14  1  0  0  0
 15 16  1  0  0  0
 15 21  2  0  0  0
 16 17  2  0  0  0
 17 18  1  0  0  0
 18 19  1  0  0  0
 18 20  2  0  0  0
 20 21  1  0  0  0
  8  9  2  0  0  0
  9 10  1  0  0  0
 10 22  1  0  0  0
 22 23  1  0  0  0
 23 24  1  0  0  0
 24 25  1  0  0  0
 25 26  1  0  0  0
 26 27  1  0  0  0
 27 28  2  0  0  0
 27 29  1  0  0  0
 29 30  1  0  0  0
 29 31  1  0  0  0
 30 32  1  0  0  0
M  END
> <minimizedAffinity>
-7.95858

$$$$
