CHEMBL3397931


 34 37  0  0  0  0  0  0  0  0999 V2000
  -27.6503   10.1744  -15.8835 O   0  0  0  0  0  0  0  0  0  0  0  0
  -27.1144   11.0151  -15.1657 C   0  0  0  0  0  0  0  0  0  0  0  0
  -27.7513   11.9318  -14.3494 N   0  0  0  0  0  0  0  0  0  0  0  0
  -27.1980   12.6907  -13.9723 H   0  0  0  0  0  0  0  0  0  0  0  0
  -29.1399   12.0038  -14.1242 C   0  0  0  0  0  0  0  0  0  0  0  0
  -30.0813   11.5565  -15.0541 C   0  0  0  0  0  0  0  0  0  0  0  0
  -31.4475   11.6623  -14.7944 C   0  0  0  0  0  0  0  0  0  0  0  0
  -31.8825   12.1960  -13.5876 C   0  0  0  0  0  0  0  0  0  0  0  0
  -30.9508   12.6581  -12.6579 C   0  0  0  0  0  0  0  0  0  0  0  0
  -29.5817   12.5457  -12.9139 C   0  0  0  0  0  0  0  0  0  0  0  0
  -33.1893   12.3266  -13.2261 O   0  0  0  0  0  0  0  0  0  0  0  0
  -33.4849   12.0696  -11.8496 C   0  0  0  0  0  0  0  0  0  0  0  0
  -34.9975   11.9019  -11.7305 C   0  0  0  0  0  0  0  0  0  0  0  0
  -35.3450   10.5363  -11.1270 C   0  0  0  0  0  0  0  0  0  0  0  0
  -35.7983    9.5300  -12.1027 N   0  0  0  0  0  0  0  0  0  0  0  0
  -35.8214    8.1869  -11.4678 C   0  0  0  0  0  0  0  0  0  0  0  0
  -34.4228    7.5804  -11.2361 C   0  0  0  0  0  0  0  0  0  0  0  0
  -33.6702    7.5170  -12.4539 O   0  0  0  0  0  0  0  0  0  0  0  0
  -33.5582    8.8160  -13.0499 C   0  0  0  0  0  0  0  0  0  0  0  0
  -34.9437    9.4314  -13.3080 C   0  0  0  0  0  0  0  0  0  0  0  0
  -25.6359   11.1088  -15.2115 C   0  0  0  0  0  0  0  0  0  0  0  0
  -24.9245   10.8949  -14.0299 C   0  0  0  0  0  0  0  0  0  0  0  0
  -23.5383   11.0056  -14.0297 C   0  0  0  0  0  0  0  0  0  0  0  0
  -22.8682   11.3187  -15.2162 C   0  0  0  0  0  0  0  0  0  0  0  0
  -23.5571   11.5130  -16.4303 C   0  0  0  0  0  0  0  0  0  0  0  0
  -24.9603   11.4285  -16.3953 C   0  0  0  0  0  0  0  0  0  0  0  0
  -22.8417   11.7154  -17.7115 C   0  0  0  0  0  0  0  0  0  0  0  0
  -21.4623   11.4569  -17.8166 C   0  0  0  0  0  0  0  0  0  0  0  0
  -20.7902   11.5344  -19.0413 C   0  0  0  0  0  0  0  0  0  0  0  0
  -21.4899   11.8549  -20.1988 C   0  0  0  0  0  0  0  0  0  0  0  0
  -22.8491   12.1207  -20.1152 C   0  0  0  0  0  0  0  0  0  0  0  0
  -23.5861   12.4002  -21.2287 O   0  0  0  0  0  0  0  0  0  0  0  0
  -23.5157   12.0821  -18.8921 C   0  0  0  0  0  0  0  0  0  0  0  0
  -23.0316   12.2459  -22.0118 H   0  0  0  0  0  0  0  0  0  0  0  0
  1  2  2  0  0  0
  2  3  1  0  0  0
  2 21  1  0  0  0
  3  5  1  0  0  0
  3  4  1  0  0  0
  5  6  1  0  0  0
  5 10  2  0  0  0
  6  7  2  0  0  0
  7  8  1  0  0  0
  8 11  1  0  0  0
  8  9  2  0  0  0
 11 12  1  0  0  0
 12 13  1  0  0  0
 13 14  1  0  0  0
 14 15  1  0  0  0
 15 16  1  0  0  0
 15 20  1  0  0  0
 16 17  1  0  0  0
 17 18  1  0  0  0
 18 19  1  0  0  0
 19 20  1  0  0  0
  9 10  1  0  0  0
 21 22  1  0  0  0
 21 26  2  0  0  0
 22 23  2  0  0  0
 23 24  1  0  0  0
 24 25  2  0  0  0
 25 27  1  0  0  0
 25 26  1  0  0  0
 27 28  1  0  0  0
 27 33  2  0  0  0
 28 29  2  0  0  0
 29 30  1  0  0  0
 30 31  2  0  0  0
 31 32  1  0  0  0
 31 33  1  0  0  0
 32 34  1  0  0  0
M  END
> <minimizedAffinity>
-4.18767

$$$$
