CHEMBL4224707


 32 34  0  0  0  0  0  0  0  0999 V2000
  -23.5543    0.3550  -13.0660 C   0  0  0  0  0  0  0  0  0  0  0  0
  -22.6608   -0.6112  -13.5386 C   0  0  0  0  0  0  0  0  0  0  0  0
  -22.7686   -1.9294  -13.1080 C   0  0  0  0  0  0  0  0  0  0  0  0
  -23.7545   -2.2692  -12.1872 C   0  0  0  0  0  0  0  0  0  0  0  0
  -24.6069   -1.2948  -11.6422 C   0  0  0  0  0  0  0  0  0  0  0  0
  -24.5111    0.0151  -12.1005 C   0  0  0  0  0  0  0  0  0  0  0  0
  -25.4378   -1.7396  -10.5990 N   0  0  0  0  0  0  0  0  0  0  0  0
  -24.9740   -1.7909   -9.7006 H   0  0  0  0  0  0  0  0  0  0  0  0
  -26.8080   -1.8779  -10.4829 C   0  0  0  0  0  0  0  0  0  0  0  0
  -28.0270   -1.1982  -11.3897 S   0  0  0  0  0  0  0  0  0  0  0  0
  -27.1679   -2.7739   -9.4836 N   0  0  0  0  0  0  0  0  0  0  0  0
  -26.9607   -3.7487   -9.6720 H   0  0  0  0  0  0  0  0  0  0  0  0
  -27.9029   -2.4694   -8.3146 C   0  0  0  0  0  0  0  0  0  0  0  0
  -27.7519   -1.2369   -7.6522 C   0  0  0  0  0  0  0  0  0  0  0  0
  -28.3804   -1.0002   -6.4315 C   0  0  0  0  0  0  0  0  0  0  0  0
  -29.1892   -1.9876   -5.8894 C   0  0  0  0  0  0  0  0  0  0  0  0
  -29.7508   -1.7862   -4.6899 F   0  0  0  0  0  0  0  0  0  0  0  0
  -29.4093   -3.1769   -6.5789 C   0  0  0  0  0  0  0  0  0  0  0  0
  -30.1940   -4.1212   -6.0501 F   0  0  0  0  0  0  0  0  0  0  0  0
  -28.7867   -3.4173   -7.8044 C   0  0  0  0  0  0  0  0  0  0  0  0
  -23.4543    2.0356  -13.6513 S   0  0  0  0  0  0  0  0  0  0  0  0
  -19.1470    2.3470  -15.0525 C   0  0  0  0  0  0  0  0  0  0  0  0
  -19.8004    1.1164  -15.1168 C   0  0  0  0  0  0  0  0  0  0  0  0
  -21.1146    1.0173  -14.6550 C   0  0  0  0  0  0  0  0  0  0  0  0
  -21.7402    2.1500  -14.1413 C   0  0  0  0  0  0  0  0  0  0  0  0
  -21.1148    3.3466  -14.0545 N   0  0  0  0  0  0  0  0  0  0  0  0
  -19.8321    3.4158  -14.4927 C   0  0  0  0  0  0  0  0  0  0  0  0
  -15.9851    4.1836  -15.9936 C   0  0  0  0  0  0  0  0  0  0  0  0
  -17.3386    3.8720  -15.6071 N   0  0  0  0  0  0  0  0  0  0  0  0
  -17.7678    2.5619  -15.5458 C   0  0  0  0  0  0  0  0  0  0  0  0
  -17.0630    1.6029  -15.8351 O   0  0  0  0  0  0  0  0  0  0  0  0
  -17.8910    4.6038  -15.1816 H   0  0  0  0  0  0  0  0  0  0  0  0
 28 29  1  0  0  0
 29 30  1  0  0  0
 29 32  1  0  0  0
 30 31  2  0  0  0
 30 22  1  0  0  0
 22 23  1  0  0  0
 22 27  2  0  0  0
 23 24  2  0  0  0
 24 25  1  0  0  0
 25 21  1  0  0  0
 25 26  2  0  0  0
 21  1  1  0  0  0
  1  2  1  0  0  0
  1  6  2  0  0  0
  2  3  2  0  0  0
  3  4  1  0  0  0
  4  5  2  0  0  0
  5  7  1  0  0  0
  5  6  1  0  0  0
  7  9  1  0  0  0
  7  8  1  0  0  0
  9 10  2  0  0  0
  9 11  1  0  0  0
 11 13  1  0  0  0
 11 12  1  0  0  0
 13 14  1  0  0  0
 13 20  2  0  0  0
 14 15  2  0  0  0
 15 16  1  0  0  0
 16 17  1  0  0  0
 16 18  2  0  0  0
 18 19  1  0  0  0
 18 20  1  0  0  0
 26 27  1  0  0  0
M  END
> <minimizedAffinity>
-10.36281

$$$$
