CHEMBL3690500


 39 42  0  0  0  0  0  0  0  0999 V2000
  -22.8408    0.4553  -13.6460 C   0  0  0  0  0  0  0  0  0  0  0  0
  -21.5489   -0.2288  -13.6834 C   0  0  0  0  0  0  0  0  0  0  0  0
  -20.4537    0.4393  -14.0645 C   0  0  0  0  0  0  0  0  0  0  0  0
  -20.5601    1.7739  -14.4592 N   0  0  0  0  0  0  0  0  0  0  0  0
  -19.6076    2.6477  -14.9661 C   0  0  0  0  0  0  0  0  0  0  0  0
  -20.2856    3.8556  -15.0589 C   0  0  0  0  0  0  0  0  0  0  0  0
  -21.6072    3.7377  -14.7217 N   0  0  0  0  0  0  0  0  0  0  0  0
  -21.7646    2.4768  -14.3916 C   0  0  0  0  0  0  0  0  0  0  0  0
  -22.9301    1.7633  -13.9768 C   0  0  0  0  0  0  0  0  0  0  0  0
  -26.4448   -1.3201  -12.4430 C   0  0  0  0  0  0  0  0  0  0  0  0
  -25.9771   -1.6076  -13.7146 C   0  0  0  0  0  0  0  0  0  0  0  0
  -24.7570   -1.0624  -14.1072 C   0  0  0  0  0  0  0  0  0  0  0  0
  -24.0420   -0.2655  -13.2113 C   0  0  0  0  0  0  0  0  0  0  0  0
  -24.5805   -0.0685  -11.9448 C   0  0  0  0  0  0  0  0  0  0  0  0
  -25.7637   -0.5800  -11.5410 N   0  0  0  0  0  0  0  0  0  0  0  0
  -27.6754   -1.8419  -12.0975 O   0  0  0  0  0  0  0  0  0  0  0  0
  -28.1869   -1.2392  -10.9015 C   0  0  0  0  0  0  0  0  0  0  0  0
  -27.8579   -2.1531   -9.7256 C   0  0  0  0  0  0  0  0  0  0  0  0
  -27.5856   -1.3716   -8.4345 C   0  0  0  0  0  0  0  0  0  0  0  0
  -27.8333   -1.3748   -6.0084 C   0  0  0  0  0  0  0  0  0  0  0  0
  -27.6263   -2.1876   -7.2082 N   0  0  0  0  0  0  0  0  0  0  0  0
  -28.6820   -3.1991   -7.3085 C   0  0  0  0  0  0  0  0  0  0  0  0
  -18.2137    2.3337  -15.3069 C   0  0  0  0  0  0  0  0  0  0  0  0
  -17.4499    3.2714  -16.0112 C   0  0  0  0  0  0  0  0  0  0  0  0
  -16.1434    2.9775  -16.3960 C   0  0  0  0  0  0  0  0  0  0  0  0
  -15.5655    1.7638  -16.0321 C   0  0  0  0  0  0  0  0  0  0  0  0
  -16.2776    0.8316  -15.2806 C   0  0  0  0  0  0  0  0  0  0  0  0
  -17.6236    1.0965  -14.9807 C   0  0  0  0  0  0  0  0  0  0  0  0
  -15.6999   -0.3698  -14.8031 N   0  0  0  0  0  0  0  0  0  0  0  0
  -15.4726   -0.6707  -13.4803 C   0  0  0  0  0  0  0  0  0  0  0  0
  -15.7641    0.0128  -12.5082 O   0  0  0  0  0  0  0  0  0  0  0  0
  -14.8146   -1.8702  -13.3117 N   0  0  0  0  0  0  0  0  0  0  0  0
  -15.5824   -1.1190  -15.4691 H   0  0  0  0  0  0  0  0  0  0  0  0
  -14.9419   -2.5787  -14.0202 H   0  0  0  0  0  0  0  0  0  0  0  0
  -14.5447   -2.3266  -11.9426 C   0  0  0  0  0  0  0  0  0  0  0  0
  -15.6210   -3.2178  -11.3036 C   0  0  0  0  0  0  0  0  0  0  0  0
  -15.1013   -4.3642  -10.8068 F   0  0  0  0  0  0  0  0  0  0  0  0
  -16.1945   -2.5662  -10.2603 F   0  0  0  0  0  0  0  0  0  0  0  0
  -16.6067   -3.5389  -12.1656 F   0  0  0  0  0  0  0  0  0  0  0  0
 20 21  1  0  0  0
 21 22  1  0  0  0
 21 19  1  0  0  0
 19 18  1  0  0  0
 18 17  1  0  0  0
 17 16  1  0  0  0
 16 10  1  0  0  0
 10 11  1  0  0  0
 10 15  2  0  0  0
 11 12  2  0  0  0
 12 13  1  0  0  0
 13  1  1  0  0  0
 13 14  2  0  0  0
  1  2  1  0  0  0
  1  9  2  0  0  0
  2  3  2  0  0  0
  3  4  1  0  0  0
  4  5  1  0  0  0
  4  8  1  0  0  0
  5 23  1  0  0  0
  5  6  2  0  0  0
 23 24  1  0  0  0
 23 28  2  0  0  0
 24 25  2  0  0  0
 25 26  1  0  0  0
 26 27  2  0  0  0
 27 29  1  0  0  0
 27 28  1  0  0  0
 29 30  1  0  0  0
 29 33  1  0  0  0
 30 31  2  0  0  0
 30 32  1  0  0  0
 32 35  1  0  0  0
 32 34  1  0  0  0
 35 36  1  0  0  0
 36 37  1  0  0  0
 36 38  1  0  0  0
 36 39  1  0  0  0
  6  7  1  0  0  0
  7  8  2  0  0  0
  8  9  1  0  0  0
 14 15  1  0  0  0
M  END
> <minimizedAffinity>
-9.54500

$$$$
