CHEMBL1095356


 47 52  0  0  0  0  0  0  0  0999 V2000
  -23.3740   -0.8208  -13.2090 C   0  0  0  0  0  0  0  0  0  0  0  0
  -22.9445   -1.0549  -11.9052 C   0  0  0  0  0  0  0  0  0  0  0  0
  -23.8251   -1.5879  -10.9634 C   0  0  0  0  0  0  0  0  0  0  0  0
  -25.1234   -1.9537  -11.3230 C   0  0  0  0  0  0  0  0  0  0  0  0
  -25.5323   -1.7840  -12.6498 C   0  0  0  0  0  0  0  0  0  0  0  0
  -24.6584   -1.2178  -13.5771 C   0  0  0  0  0  0  0  0  0  0  0  0
  -25.0767   -1.0581  -14.8421 F   0  0  0  0  0  0  0  0  0  0  0  0
  -26.0349   -2.5342  -10.4182 N   0  0  0  0  0  0  0  0  0  0  0  0
  -27.2011   -1.9562   -9.9483 C   0  0  0  0  0  0  0  0  0  0  0  0
  -27.7211   -0.9248  -10.3479 O   0  0  0  0  0  0  0  0  0  0  0  0
  -25.7647   -3.4289  -10.0284 H   0  0  0  0  0  0  0  0  0  0  0  0
  -27.7952   -2.6825   -8.8447 C   0  0  0  0  0  0  0  0  0  0  0  0
  -28.1444   -4.0337   -8.7500 C   0  0  0  0  0  0  0  0  0  0  0  0
  -28.5662   -4.3636   -7.5369 N   0  0  0  0  0  0  0  0  0  0  0  0
  -28.6183   -3.1881   -6.8451 N   0  0  0  0  0  0  0  0  0  0  0  0
  -28.1006   -2.1519   -7.5966 C   0  0  0  0  0  0  0  0  0  0  0  0
  -29.1175   -3.2091   -5.5117 C   0  0  0  0  0  0  0  0  0  0  0  0
  -28.2098   -3.0334   -4.4544 C   0  0  0  0  0  0  0  0  0  0  0  0
  -28.6649   -2.9778   -3.1360 C   0  0  0  0  0  0  0  0  0  0  0  0
  -30.0212   -3.1291   -2.8598 C   0  0  0  0  0  0  0  0  0  0  0  0
  -30.9204   -3.3579   -3.8990 C   0  0  0  0  0  0  0  0  0  0  0  0
  -30.4711   -3.4044   -5.2216 C   0  0  0  0  0  0  0  0  0  0  0  0
  -27.8085   -0.8145   -7.0498 C   0  0  0  0  0  0  0  0  0  0  0  0
  -27.0702   -0.8577   -5.9124 F   0  0  0  0  0  0  0  0  0  0  0  0
  -27.1262   -0.0356   -7.9236 F   0  0  0  0  0  0  0  0  0  0  0  0
  -28.9415   -0.1479   -6.7124 F   0  0  0  0  0  0  0  0  0  0  0  0
  -22.5953   -0.2590  -14.1906 O   0  0  0  0  0  0  0  0  0  0  0  0
  -18.6630    1.9605  -15.1730 C   0  0  0  0  0  0  0  0  0  0  0  0
  -19.3566    3.1130  -14.8510 C   0  0  0  0  0  0  0  0  0  0  0  0
  -20.6983    2.8671  -14.4451 C   0  0  0  0  0  0  0  0  0  0  0  0
  -21.5959    3.8265  -14.0932 N   0  0  0  0  0  0  0  0  0  0  0  0
  -22.8339    3.3869  -13.8028 C   0  0  0  0  0  0  0  0  0  0  0  0
  -23.2376    2.0661  -13.8279 C   0  0  0  0  0  0  0  0  0  0  0  0
  -22.2952    1.0826  -14.1254 C   0  0  0  0  0  0  0  0  0  0  0  0
  -21.0049    1.5105  -14.4628 C   0  0  0  0  0  0  0  0  0  0  0  0
  -19.6428    0.5767  -14.9185 S   0  0  0  0  0  0  0  0  0  0  0  0
  -14.5872    1.6368  -16.4969 C   0  0  0  0  0  0  0  0  0  0  0  0
  -15.3545    2.7563  -16.8137 C   0  0  0  0  0  0  0  0  0  0  0  0
  -16.6723    2.8628  -16.3572 C   0  0  0  0  0  0  0  0  0  0  0  0
  -17.2740    1.8195  -15.6386 C   0  0  0  0  0  0  0  0  0  0  0  0
  -16.5177    0.6655  -15.3980 C   0  0  0  0  0  0  0  0  0  0  0  0
  -15.1862    0.5748  -15.8171 C   0  0  0  0  0  0  0  0  0  0  0  0
  -11.3942    0.6892  -18.3693 C   0  0  0  0  0  0  0  0  0  0  0  0
  -12.8127    0.7844  -18.0763 N   0  0  0  0  0  0  0  0  0  0  0  0
  -13.7352    0.3660  -19.1232 C   0  0  0  0  0  0  0  0  0  0  0  0
  -13.1615    1.4850  -16.9139 C   0  0  0  0  0  0  0  0  0  0  0  0
  -12.3095    2.0209  -16.2031 O   0  0  0  0  0  0  0  0  0  0  0  0
 43 44  1  0  0  0
 44 45  1  0  0  0
 44 46  1  0  0  0
 46 47  2  0  0  0
 46 37  1  0  0  0
 37 38  1  0  0  0
 37 42  2  0  0  0
 38 39  2  0  0  0
 39 40  1  0  0  0
 40 28  1  0  0  0
 40 41  2  0  0  0
 28 29  2  0  0  0
 28 36  1  0  0  0
 29 30  1  0  0  0
 30 31  1  0  0  0
 30 35  2  0  0  0
 31 32  2  0  0  0
 32 33  1  0  0  0
 33 34  2  0  0  0
 34 27  1  0  0  0
 34 35  1  0  0  0
 27  1  1  0  0  0
  1  2  1  0  0  0
  1  6  2  0  0  0
  2  3  2  0  0  0
  3  4  1  0  0  0
  4  8  1  0  0  0
  4  5  2  0  0  0
  8  9  1  0  0  0
  8 11  1  0  0  0
  9 10  2  0  0  0
  9 12  1  0  0  0
 12 13  1  0  0  0
 12 16  2  0  0  0
 13 14  2  0  0  0
 14 15  1  0  0  0
 15 17  1  0  0  0
 15 16  1  0  0  0
 17 18  1  0  0  0
 17 22  2  0  0  0
 18 19  2  0  0  0
 19 20  1  0  0  0
 20 21  2  0  0  0
 21 22  1  0  0  0
 16 23  1  0  0  0
 23 24  1  0  0  0
 23 25  1  0  0  0
 23 26  1  0  0  0
  5  6  1  0  0  0
  6  7  1  0  0  0
 35 36  1  0  0  0
 41 42  1  0  0  0
M  END
> <minimizedAffinity>
-10.55912

$$$$
