CHEMBL245174


 25 27  0  0  0  0  0  0  0  0999 V2000
  -30.8309   -8.1954   -7.1817 C   0  0  0  0  0  0  0  0  0  0  0  0
  -31.2809   -7.2119   -6.3264 C   0  0  0  0  0  0  0  0  0  0  0  0
  -30.4843   -6.3172   -5.7042 N   0  0  0  0  0  0  0  0  0  0  0  0
  -29.1767   -6.3815   -5.9892 C   0  0  0  0  0  0  0  0  0  0  0  0
  -28.6547   -7.3174   -6.7936 N   0  0  0  0  0  0  0  0  0  0  0  0
  -29.4654   -8.2271   -7.3761 C   0  0  0  0  0  0  0  0  0  0  0  0
  -28.7486   -9.2360   -8.1879 C   0  0  0  0  0  0  0  0  0  0  0  0
  -28.4448   -9.2487   -9.5413 C   0  0  0  0  0  0  0  0  0  0  0  0
  -27.7384  -10.4191   -9.9508 C   0  0  0  0  0  0  0  0  0  0  0  0
  -27.5404  -11.2904   -8.9075 C   0  0  0  0  0  0  0  0  0  0  0  0
  -28.1731  -10.6862   -7.4427 S   0  0  0  0  0  0  0  0  0  0  0  0
  -32.5083   -9.7850   -8.3314 N   0  0  0  0  0  0  0  0  0  0  0  0
  -31.7612   -9.0707   -7.8033 C   0  0  0  0  0  0  0  0  0  0  0  0
  -28.3399   -5.4439   -5.3938 N   0  0  0  0  0  0  0  0  0  0  0  0
  -27.7017   -5.8601   -4.7335 H   0  0  0  0  0  0  0  0  0  0  0  0
  -28.5234   -4.0561   -5.3153 C   0  0  0  0  0  0  0  0  0  0  0  0
  -28.5587   -3.2469   -6.4590 C   0  0  0  0  0  0  0  0  0  0  0  0
  -28.6200   -1.8555   -6.3666 C   0  0  0  0  0  0  0  0  0  0  0  0
  -28.6198   -1.2362   -5.1157 C   0  0  0  0  0  0  0  0  0  0  0  0
  -28.6246   -2.0377   -3.9658 C   0  0  0  0  0  0  0  0  0  0  0  0
  -28.5851   -3.4333   -4.0657 C   0  0  0  0  0  0  0  0  0  0  0  0
  -28.5798    0.2690   -5.0056 C   0  0  0  0  0  0  0  0  0  0  0  0
  -29.5935    0.9782   -5.8999 C   0  0  0  0  0  0  0  0  0  0  0  0
  -28.9515    1.7558   -6.9047 O   0  0  0  0  0  0  0  0  0  0  0  0
  -28.5000    2.4862   -6.4444 H   0  0  0  0  0  0  0  0  0  0  0  0
 12 13  3  0  0  0
 13  1  1  0  0  0
  1  2  1  0  0  0
  1  6  2  0  0  0
  2  3  2  0  0  0
  3  4  1  0  0  0
  4 14  1  0  0  0
  4  5  2  0  0  0
 14 16  1  0  0  0
 14 15  1  0  0  0
 16 17  1  0  0  0
 16 21  2  0  0  0
 17 18  2  0  0  0
 18 19  1  0  0  0
 19 22  1  0  0  0
 19 20  2  0  0  0
 22 23  1  0  0  0
 23 24  1  0  0  0
 24 25  1  0  0  0
 20 21  1  0  0  0
  5  6  1  0  0  0
  6  7  1  0  0  0
  7  8  2  0  0  0
  7 11  1  0  0  0
  8  9  1  0  0  0
  9 10  2  0  0  0
 10 11  1  0  0  0
M  END
> <minimizedAffinity>
-7.19765

$$$$
