CHEMBL461605


 30 34  0  0  0  0  0  0  0  0999 V2000
  -31.1941   -5.6783   -4.3685 C   0  0  0  0  0  0  0  0  0  0  0  0
  -31.2652   -4.3049   -4.2184 C   0  0  0  0  0  0  0  0  0  0  0  0
  -30.4211   -3.4930   -4.9699 C   0  0  0  0  0  0  0  0  0  0  0  0
  -29.4837   -4.0294   -5.8820 C   0  0  0  0  0  0  0  0  0  0  0  0
  -29.3308   -5.4362   -5.9530 C   0  0  0  0  0  0  0  0  0  0  0  0
  -30.2457   -6.2326   -5.2279 C   0  0  0  0  0  0  0  0  0  0  0  0
  -28.7281   -3.0888   -6.7090 C   0  0  0  0  0  0  0  0  0  0  0  0
  -28.5959   -3.1817   -8.0816 C   0  0  0  0  0  0  0  0  0  0  0  0
  -27.7333   -2.1692   -8.4322 N   0  0  0  0  0  0  0  0  0  0  0  0
  -27.3401   -1.5076   -7.3200 N   0  0  0  0  0  0  0  0  0  0  0  0
  -27.9798   -2.0297   -6.2768 N   0  0  0  0  0  0  0  0  0  0  0  0
  -27.2564   -1.8513   -9.7358 C   0  0  0  0  0  0  0  0  0  0  0  0
  -28.1780   -1.7580  -10.7770 C   0  0  0  0  0  0  0  0  0  0  0  0
  -27.6995   -1.4823  -12.0577 C   0  0  0  0  0  0  0  0  0  0  0  0
  -26.3228   -1.4922  -12.2857 C   0  0  0  0  0  0  0  0  0  0  0  0
  -25.8098   -1.4790  -13.5981 C   0  0  0  0  0  0  0  0  0  0  0  0
  -24.4417   -1.6169  -13.8071 C   0  0  0  0  0  0  0  0  0  0  0  0
  -23.5813   -1.6859  -12.7190 C   0  0  0  0  0  0  0  0  0  0  0  0
  -24.0953   -1.6430  -11.4155 C   0  0  0  0  0  0  0  0  0  0  0  0
  -25.4616   -1.5853  -11.1791 C   0  0  0  0  0  0  0  0  0  0  0  0
  -25.9258   -1.6929   -9.9164 N   0  0  0  0  0  0  0  0  0  0  0  0
  -28.3546   -6.0446   -6.7664 N   0  0  0  0  0  0  0  0  0  0  0  0
  -27.5593   -5.4326   -6.9254 H   0  0  0  0  0  0  0  0  0  0  0  0
  -28.8110   -6.7349   -7.9700 C   0  0  0  0  0  0  0  0  0  0  0  0
  -28.7717   -8.2385   -7.8388 C   0  0  0  0  0  0  0  0  0  0  0  0
  -28.1554   -8.8802   -6.7618 C   0  0  0  0  0  0  0  0  0  0  0  0
  -28.2564  -10.2578   -6.6575 C   0  0  0  0  0  0  0  0  0  0  0  0
  -28.9320  -11.0342   -7.5330 N   0  0  0  0  0  0  0  0  0  0  0  0
  -29.5346  -10.4000   -8.5599 C   0  0  0  0  0  0  0  0  0  0  0  0
  -29.4875   -9.0274   -8.7504 C   0  0  0  0  0  0  0  0  0  0  0  0
  1  2  1  0  0  0
  1  6  2  0  0  0
  2  3  2  0  0  0
  3  4  1  0  0  0
  4  7  1  0  0  0
  4  5  2  0  0  0
  7  8  2  0  0  0
  7 11  1  0  0  0
  8  9  1  0  0  0
  9 12  1  0  0  0
  9 10  1  0  0  0
 12 13  1  0  0  0
 12 21  2  0  0  0
 13 14  2  0  0  0
 14 15  1  0  0  0
 15 16  1  0  0  0
 15 20  2  0  0  0
 16 17  2  0  0  0
 17 18  1  0  0  0
 18 19  2  0  0  0
 19 20  1  0  0  0
 20 21  1  0  0  0
 10 11  2  0  0  0
  5 22  1  0  0  0
  5  6  1  0  0  0
 22 24  1  0  0  0
 22 23  1  0  0  0
 24 25  1  0  0  0
 25 26  1  0  0  0
 25 30  2  0  0  0
 26 27  2  0  0  0
 27 28  1  0  0  0
 28 29  2  0  0  0
 29 30  1  0  0  0
M  END
> <minimizedAffinity>
-10.12593

$$$$
