CHEMBL3656098


 50 53  0  0  0  0  0  0  0  0999 V2000
  -21.8490    0.6590  -14.2668 C   0  0  0  0  0  0  0  0  0  0  0  0
  -22.6563    1.7273  -13.8877 C   0  0  0  0  0  0  0  0  0  0  0  0
  -22.1486    3.0076  -13.9919 C   0  0  0  0  0  0  0  0  0  0  0  0
  -20.8915    3.2926  -14.3986 N   0  0  0  0  0  0  0  0  0  0  0  0
  -20.1044    2.2320  -14.7138 C   0  0  0  0  0  0  0  0  0  0  0  0
  -20.5343    0.9110  -14.6398 C   0  0  0  0  0  0  0  0  0  0  0  0
  -18.7661    2.5748  -15.1871 C   0  0  0  0  0  0  0  0  0  0  0  0
  -17.7120    1.7681  -15.5846 C   0  0  0  0  0  0  0  0  0  0  0  0
  -16.5953    2.5849  -15.9264 C   0  0  0  0  0  0  0  0  0  0  0  0
  -17.0320    3.8913  -15.7592 C   0  0  0  0  0  0  0  0  0  0  0  0
  -18.3399    3.8724  -15.3475 N   0  0  0  0  0  0  0  0  0  0  0  0
  -18.9169    4.6843  -15.1667 H   0  0  0  0  0  0  0  0  0  0  0  0
  -15.2642    2.1380  -16.3697 C   0  0  0  0  0  0  0  0  0  0  0  0
  -14.4341    2.9124  -16.8433 O   0  0  0  0  0  0  0  0  0  0  0  0
  -15.0438    0.7955  -16.2095 N   0  0  0  0  0  0  0  0  0  0  0  0
  -15.7954    0.1897  -15.9123 H   0  0  0  0  0  0  0  0  0  0  0  0
  -13.8124    0.1610  -16.6387 C   0  0  0  0  0  0  0  0  0  0  0  0
  -12.7433    0.1623  -15.5430 C   0  0  0  0  0  0  0  0  0  0  0  0
  -13.3613    0.0357  -14.2557 O   0  0  0  0  0  0  0  0  0  0  0  0
  -13.1367   -1.2604  -13.6961 C   0  0  0  0  0  0  0  0  0  0  0  0
  -14.4442   -2.0465  -13.6616 C   0  0  0  0  0  0  0  0  0  0  0  0
  -14.6758   -2.5190  -12.3330 O   0  0  0  0  0  0  0  0  0  0  0  0
  -15.9808   -3.0827  -12.1997 C   0  0  0  0  0  0  0  0  0  0  0  0
  -16.0550   -3.8862  -10.9057 C   0  0  0  0  0  0  0  0  0  0  0  0
  -16.3433   -5.2550  -11.2046 O   0  0  0  0  0  0  0  0  0  0  0  0
  -16.6759   -5.4174  -12.5894 C   0  0  0  0  0  0  0  0  0  0  0  0
  -15.7644   -6.4764  -13.2038 C   0  0  0  0  0  0  0  0  0  0  0  0
  -16.3138   -6.9733  -14.4217 O   0  0  0  0  0  0  0  0  0  0  0  0
  -17.1865   -7.3404  -14.1857 H   0  0  0  0  0  0  0  0  0  0  0  0
  -22.2731   -0.6557  -14.2817 O   0  0  0  0  0  0  0  0  0  0  0  0
  -25.7886   -1.7033  -12.2252 C   0  0  0  0  0  0  0  0  0  0  0  0
  -25.8304   -1.4873  -13.6050 C   0  0  0  0  0  0  0  0  0  0  0  0
  -24.6710   -1.1677  -14.3160 C   0  0  0  0  0  0  0  0  0  0  0  0
  -23.4565   -0.9929  -13.6508 C   0  0  0  0  0  0  0  0  0  0  0  0
  -23.4048   -1.2133  -12.2709 C   0  0  0  0  0  0  0  0  0  0  0  0
  -24.5713   -1.5502  -11.5543 C   0  0  0  0  0  0  0  0  0  0  0  0
  -28.1428   -2.5191   -9.5547 N   0  0  0  0  0  0  0  0  0  0  0  0
  -26.9757   -2.0560  -10.1366 C   0  0  0  0  0  0  0  0  0  0  0  0
  -26.0385   -1.5480   -9.5414 O   0  0  0  0  0  0  0  0  0  0  0  0
  -26.9670   -2.1441  -11.5463 N   0  0  0  0  0  0  0  0  0  0  0  0
  -28.8973   -2.7901  -10.1568 H   0  0  0  0  0  0  0  0  0  0  0  0
  -27.8460   -1.9231  -11.9884 H   0  0  0  0  0  0  0  0  0  0  0  0
  -27.7602   -0.1677   -5.1553 C   0  0  0  0  0  0  0  0  0  0  0  0
  -28.1926   -1.3489   -5.9781 C   0  0  0  0  0  0  0  0  0  0  0  0
  -28.8097   -2.4210   -5.3270 C   0  0  0  0  0  0  0  0  0  0  0  0
  -29.2387   -3.5178   -6.0622 C   0  0  0  0  0  0  0  0  0  0  0  0
  -29.0460   -3.5582   -7.4425 C   0  0  0  0  0  0  0  0  0  0  0  0
  -29.6049   -4.6038   -8.0643 F   0  0  0  0  0  0  0  0  0  0  0  0
  -28.3987   -2.5199   -8.1381 C   0  0  0  0  0  0  0  0  0  0  0  0
  -27.9940   -1.3999   -7.3787 C   0  0  0  0  0  0  0  0  0  0  0  0
 43 44  1  0  0  0
 44 45  1  0  0  0
 44 50  2  0  0  0
 45 46  2  0  0  0
 46 47  1  0  0  0
 47 48  1  0  0  0
 47 49  2  0  0  0
 49 37  1  0  0  0
 49 50  1  0  0  0
 37 38  1  0  0  0
 37 41  1  0  0  0
 38 39  2  0  0  0
 38 40  1  0  0  0
 40 31  1  0  0  0
 40 42  1  0  0  0
 31 32  1  0  0  0
 31 36  2  0  0  0
 32 33  2  0  0  0
 33 34  1  0  0  0
 34 30  1  0  0  0
 34 35  2  0  0  0
 30  1  1  0  0  0
  1  2  1  0  0  0
  1  6  2  0  0  0
  2  3  2  0  0  0
  3  4  1  0  0  0
  4  5  2  0  0  0
  5  7  1  0  0  0
  5  6  1  0  0  0
  7  8  2  0  0  0
  7 11  1  0  0  0
  8  9  1  0  0  0
  9 13  1  0  0  0
  9 10  2  0  0  0
 13 14  2  0  0  0
 13 15  1  0  0  0
 15 17  1  0  0  0
 15 16  1  0  0  0
 17 18  1  0  0  0
 18 19  1  0  0  0
 19 20  1  0  0  0
 20 21  1  0  0  0
 21 22  1  0  0  0
 22 23  1  0  0  0
 23 24  1  0  0  0
 24 25  1  0  0  0
 25 26  1  0  0  0
 26 27  1  0  0  0
 27 28  1  0  0  0
 28 29  1  0  0  0
 10 11  1  0  0  0
 11 12  1  0  0  0
 35 36  1  0  0  0
M  END
> <minimizedAffinity>
-10.63151

$$$$
