CHEMBL3690423


 33 36  0  0  0  0  0  0  0  0999 V2000
  -28.1192   -1.1325   -6.9745 C   0  0  0  0  0  0  0  0  0  0  0  0
  -27.5794   -0.3573   -5.9515 C   0  0  0  0  0  0  0  0  0  0  0  0
  -27.7306   -0.7420   -4.6177 C   0  0  0  0  0  0  0  0  0  0  0  0
  -28.4243   -1.9073   -4.2959 C   0  0  0  0  0  0  0  0  0  0  0  0
  -29.0057   -2.6874   -5.3012 C   0  0  0  0  0  0  0  0  0  0  0  0
  -28.8613   -2.2704   -6.6351 C   0  0  0  0  0  0  0  0  0  0  0  0
  -29.7884   -3.8751   -4.9429 C   0  0  0  0  0  0  0  0  0  0  0  0
  -30.5672   -4.1088   -3.8182 C   0  0  0  0  0  0  0  0  0  0  0  0
  -31.2048   -5.3171   -3.8703 N   0  0  0  0  0  0  0  0  0  0  0  0
  -30.8229   -5.8541   -5.0069 C   0  0  0  0  0  0  0  0  0  0  0  0
  -31.1694   -7.1006   -5.5988 C   0  0  0  0  0  0  0  0  0  0  0  0
  -30.6338   -7.4883   -6.7828 C   0  0  0  0  0  0  0  0  0  0  0  0
  -29.6750   -6.5994   -7.4520 C   0  0  0  0  0  0  0  0  0  0  0  0
  -29.3290   -5.4341   -6.8875 C   0  0  0  0  0  0  0  0  0  0  0  0
  -29.9210   -5.0409   -5.6866 N   0  0  0  0  0  0  0  0  0  0  0  0
  -30.9973   -8.8112   -7.3468 C   0  0  0  0  0  0  0  0  0  0  0  0
  -32.1362   -9.3972   -6.9230 N   0  0  0  0  0  0  0  0  0  0  0  0
  -32.4113  -10.6153   -7.4316 C   0  0  0  0  0  0  0  0  0  0  0  0
  -31.6007  -11.2533   -8.3347 C   0  0  0  0  0  0  0  0  0  0  0  0
  -31.8975  -12.4653   -8.8255 F   0  0  0  0  0  0  0  0  0  0  0  0
  -30.4666  -10.5808   -8.7109 C   0  0  0  0  0  0  0  0  0  0  0  0
  -30.1396   -9.3611   -8.2346 N   0  0  0  0  0  0  0  0  0  0  0  0
  -27.1226   -2.8577   -9.1750 O   0  0  0  0  0  0  0  0  0  0  0  0
  -27.4914   -1.7004   -9.3195 C   0  0  0  0  0  0  0  0  0  0  0  0
  -27.4827   -1.0946  -10.5597 N   0  0  0  0  0  0  0  0  0  0  0  0
  -27.9626   -0.8504   -8.3483 N   0  0  0  0  0  0  0  0  0  0  0  0
  -27.3519   -0.0927  -10.5544 H   0  0  0  0  0  0  0  0  0  0  0  0
  -28.2974    0.0460   -8.6673 H   0  0  0  0  0  0  0  0  0  0  0  0
  -26.8583   -1.8121  -11.6771 C   0  0  0  0  0  0  0  0  0  0  0  0
  -25.4757   -1.2860  -12.0865 C   0  0  0  0  0  0  0  0  0  0  0  0
  -25.1944   -1.5656  -13.3813 F   0  0  0  0  0  0  0  0  0  0  0  0
  -25.3553    0.0443  -11.9074 F   0  0  0  0  0  0  0  0  0  0  0  0
  -24.5141   -1.8870  -11.3422 F   0  0  0  0  0  0  0  0  0  0  0  0
 23 24  2  0  0  0
 24 25  1  0  0  0
 24 26  1  0  0  0
 25 29  1  0  0  0
 25 27  1  0  0  0
 29 30  1  0  0  0
 30 31  1  0  0  0
 30 32  1  0  0  0
 30 33  1  0  0  0
 26  1  1  0  0  0
 26 28  1  0  0  0
  1  2  1  0  0  0
  1  6  2  0  0  0
  2  3  2  0  0  0
  3  4  1  0  0  0
  4  5  2  0  0  0
  5  7  1  0  0  0
  5  6  1  0  0  0
  7  8  2  0  0  0
  7 15  1  0  0  0
  8  9  1  0  0  0
  9 10  2  0  0  0
 10 11  1  0  0  0
 10 15  1  0  0  0
 11 12  2  0  0  0
 12 16  1  0  0  0
 12 13  1  0  0  0
 16 17  1  0  0  0
 16 22  2  0  0  0
 17 18  2  0  0  0
 18 19  1  0  0  0
 19 20  1  0  0  0
 19 21  2  0  0  0
 21 22  1  0  0  0
 13 14  2  0  0  0
 14 15  1  0  0  0
M  END
> <minimizedAffinity>
-9.46131

$$$$
