CHEMBL3905485


 37 41  0  0  0  0  0  0  0  0999 V2000
  -27.5542  -10.2800   -4.3177 N   0  0  0  0  0  0  0  0  0  0  0  0
  -27.8664   -8.8037   -4.4839 C   0  0  0  0  0  0  0  0  0  0  0  0
  -29.0029   -8.6882   -5.2516 C   0  0  0  0  0  0  0  0  0  0  0  0
  -29.3602   -7.6021   -5.8667 C   0  0  0  0  0  0  0  0  0  0  0  0
  -28.7536   -6.4488   -5.6744 C   0  0  0  0  0  0  0  0  0  0  0  0
  -29.0849   -5.5977   -6.6053 N   0  0  0  0  0  0  0  0  0  0  0  0
  -28.7646   -4.3562   -6.5834 C   0  0  0  0  0  0  0  0  0  0  0  0
  -28.3372   -3.7774   -5.3993 C   0  0  0  0  0  0  0  0  0  0  0  0
  -27.6792   -4.6993   -4.4782 N   0  0  0  0  0  0  0  0  0  0  0  0
  -27.8414   -6.1475   -4.6697 C   0  0  0  0  0  0  0  0  0  0  0  0
  -27.2747   -7.4460   -4.0527 C   0  0  0  0  0  0  0  0  0  0  0  0
  -28.9252   -2.2488   -5.5504 C   0  0  0  0  0  0  0  0  0  0  0  0
  -28.2142   -1.4591   -6.5160 C   0  0  0  0  0  0  0  0  0  0  0  0
  -28.6132   -0.2036   -6.5640 N   0  0  0  0  0  0  0  0  0  0  0  0
  -29.6250   -0.0637   -5.7307 N   0  0  0  0  0  0  0  0  0  0  0  0
  -30.1750    1.3072   -5.6325 C   0  0  0  0  0  0  0  0  0  0  0  0
  -29.9012   -1.2700   -5.1183 C   0  0  0  0  0  0  0  0  0  0  0  0
  -24.4247  -11.8738   -2.8737 C   0  0  0  0  0  0  0  0  0  0  0  0
  -23.5651  -11.9188   -3.9863 C   0  0  0  0  0  0  0  0  0  0  0  0
  -24.0040  -11.4760   -5.2000 C   0  0  0  0  0  0  0  0  0  0  0  0
  -25.3033  -10.9503   -5.2874 C   0  0  0  0  0  0  0  0  0  0  0  0
  -26.1944  -10.8146   -4.1917 C   0  0  0  0  0  0  0  0  0  0  0  0
  -25.7149  -11.3207   -2.9828 C   0  0  0  0  0  0  0  0  0  0  0  0
  -22.7722  -12.3958   -1.2023 C   0  0  0  0  0  0  0  0  0  0  0  0
  -24.0581  -12.3919   -1.6858 O   0  0  0  0  0  0  0  0  0  0  0  0
  -23.2170  -11.5351   -6.3079 O   0  0  0  0  0  0  0  0  0  0  0  0
  -22.1548  -10.7671   -6.7392 C   0  0  0  0  0  0  0  0  0  0  0  0
  -28.8259  -11.1604   -4.1377 C   0  0  0  0  0  0  0  0  0  0  0  0
  -29.3406  -12.3975   -4.9599 C   0  0  0  0  0  0  0  0  0  0  0  0
  -30.1949  -12.0267   -6.1656 C   0  0  0  0  0  0  0  0  0  0  0  0
  -29.6097  -12.3277   -7.5158 N   0  0  0  0  0  0  0  0  0  0  0  0
  -28.1733  -12.0010   -7.8010 C   0  0  0  0  0  0  0  0  0  0  0  0
  -27.9426  -10.5194   -8.0493 C   0  0  0  0  0  0  0  0  0  0  0  0
  -28.8999   -9.9037   -9.0770 C   0  0  0  0  0  0  0  0  0  0  0  0
  -30.3387  -10.2545   -8.7248 C   0  0  0  0  0  0  0  0  0  0  0  0
  -30.4666  -11.7877   -8.6101 C   0  0  0  0  0  0  0  0  0  0  0  0
  -31.9367  -12.1846   -8.4531 C   0  0  0  0  0  0  0  0  0  0  0  0
 24 25  1  0  0  0
 25 18  1  0  0  0
 18 19  1  0  0  0
 18 23  2  0  0  0
 19 20  2  0  0  0
 20 26  1  0  0  0
 20 21  1  0  0  0
 26 27  1  0  0  0
 21 22  2  0  0  0
 22  1  1  0  0  0
 22 23  1  0  0  0
  1 28  1  0  0  0
  1  2  1  0  0  0
 28 29  1  0  0  0
 29 30  1  0  0  0
 30 31  1  0  0  0
 31 32  1  0  0  0
 31 36  1  0  0  0
 32 33  1  0  0  0
 33 34  1  0  0  0
 34 35  1  0  0  0
 35 36  1  0  0  0
 36 37  1  0  0  0
  2  3  1  0  0  0
  2 11  2  0  0  0
  3  4  2  0  0  0
  4  5  1  0  0  0
  5  6  1  0  0  0
  5 10  2  0  0  0
  6  7  2  0  0  0
  7  8  1  0  0  0
  8 12  1  0  0  0
  8  9  2  0  0  0
 12 13  1  0  0  0
 12 17  2  0  0  0
 13 14  2  0  0  0
 14 15  1  0  0  0
 15 16  1  0  0  0
 15 17  1  0  0  0
  9 10  1  0  0  0
 10 11  1  0  0  0
M  END
> <minimizedAffinity>
-6.83019

$$$$
