CHEMBL1940848


 22 24  0  0  0  0  0  0  0  0999 V2000
  -29.9911    1.3983   -5.7366 C   0  0  0  0  0  0  0  0  0  0  0  0
  -29.4097    0.0494   -5.4364 C   0  0  0  0  0  0  0  0  0  0  0  0
  -28.1543   -0.0810   -4.8408 C   0  0  0  0  0  0  0  0  0  0  0  0
  -27.6296   -1.3512   -4.5747 C   0  0  0  0  0  0  0  0  0  0  0  0
  -28.3242   -2.5114   -4.8897 C   0  0  0  0  0  0  0  0  0  0  0  0
  -27.7795   -3.7072   -4.6174 N   0  0  0  0  0  0  0  0  0  0  0  0
  -28.4855   -4.8151   -4.9435 C   0  0  0  0  0  0  0  0  0  0  0  0
  -27.6387   -6.2625   -4.5383 Cl  0  0  0  0  0  0  0  0  0  0  0  0
  -29.7413   -4.8193   -5.5579 C   0  0  0  0  0  0  0  0  0  0  0  0
  -30.2939   -3.5581   -5.8091 C   0  0  0  0  0  0  0  0  0  0  0  0
  -29.5922   -2.3845   -5.4894 C   0  0  0  0  0  0  0  0  0  0  0  0
  -30.1250   -1.1098   -5.7545 C   0  0  0  0  0  0  0  0  0  0  0  0
  -30.4857   -6.0541   -5.8754 C   0  0  0  0  0  0  0  0  0  0  0  0
  -30.4440   -6.6755   -7.0660 C   0  0  0  0  0  0  0  0  0  0  0  0
  -31.2394   -7.9221   -7.3175 C   0  0  0  0  0  0  0  0  0  0  0  0
  -32.3987   -7.9890   -6.9159 O   0  0  0  0  0  0  0  0  0  0  0  0
  -30.5676   -8.9739   -8.0682 C   0  0  0  0  0  0  0  0  0  0  0  0
  -31.0233  -10.2341   -8.4218 C   0  0  0  0  0  0  0  0  0  0  0  0
  -30.0516  -10.9823   -9.1527 C   0  0  0  0  0  0  0  0  0  0  0  0
  -28.8995  -10.2591   -9.3250 C   0  0  0  0  0  0  0  0  0  0  0  0
  -27.3923  -10.9186  -10.2205 Br  0  0  0  0  0  0  0  0  0  0  0  0
  -28.9762   -8.7064   -8.6552 S   0  0  0  0  0  0  0  0  0  0  0  0
  1  2  1  0  0  0
  2  3  1  0  0  0
  2 12  2  0  0  0
  3  4  2  0  0  0
  4  5  1  0  0  0
  5  6  1  0  0  0
  5 11  2  0  0  0
  6  7  2  0  0  0
  7  8  1  0  0  0
  7  9  1  0  0  0
  9 13  1  0  0  0
  9 10  2  0  0  0
 13 14  2  0  0  0
 14 15  1  0  0  0
 15 16  2  0  0  0
 15 17  1  0  0  0
 17 18  2  0  0  0
 17 22  1  0  0  0
 18 19  1  0  0  0
 19 20  2  0  0  0
 20 21  1  0  0  0
 20 22  1  0  0  0
 10 11  1  0  0  0
 11 12  1  0  0  0
M  END
> <minimizedAffinity>
-8.24783

$$$$
