CHEMBL1980995


 37 44  0  0  0  0  0  0  0  0999 V2000
  -12.7560   -2.6677  -13.5747 C   0  0  0  0  0  0  0  0  0  0  0  0
  -11.8750   -2.7441  -14.9626 C   0  0  0  0  0  0  0  0  0  0  0  0
  -11.7877   -4.1172  -15.7661 C   0  0  0  0  0  0  0  0  0  0  0  0
  -11.8006   -4.8509  -14.5739 O   0  0  0  0  0  0  0  0  0  0  0  0
  -13.1663   -5.0099  -14.1272 C   0  0  0  0  0  0  0  0  0  0  0  0
  -14.4690   -4.4884  -14.9807 C   0  0  0  0  0  0  0  0  0  0  0  0
  -13.2046   -4.0785  -12.9111 C   0  0  0  0  0  0  0  0  0  0  0  0
  -13.1598   -6.4249  -14.1913 N   0  0  0  0  0  0  0  0  0  0  0  0
  -12.7490   -7.4951  -13.4026 C   0  0  0  0  0  0  0  0  0  0  0  0
  -12.1741   -7.4918  -12.1253 C   0  0  0  0  0  0  0  0  0  0  0  0
  -11.7649   -8.7056  -11.5643 C   0  0  0  0  0  0  0  0  0  0  0  0
  -11.9974   -9.9153  -12.2101 C   0  0  0  0  0  0  0  0  0  0  0  0
  -12.5607   -9.9493  -13.4869 C   0  0  0  0  0  0  0  0  0  0  0  0
  -12.8653   -8.7443  -14.1502 C   0  0  0  0  0  0  0  0  0  0  0  0
  -13.0923   -8.3914  -15.5010 C   0  0  0  0  0  0  0  0  0  0  0  0
  -13.1244   -9.2205  -16.6376 C   0  0  0  0  0  0  0  0  0  0  0  0
  -13.0674   -8.5180  -17.8697 C   0  0  0  0  0  0  0  0  0  0  0  0
  -12.7421   -7.1434  -17.7287 C   0  0  0  0  0  0  0  0  0  0  0  0
  -12.7671   -6.1410  -18.7276 C   0  0  0  0  0  0  0  0  0  0  0  0
  -12.8289   -6.1544  -20.1352 C   0  0  0  0  0  0  0  0  0  0  0  0
  -13.5533   -5.1528  -20.7729 C   0  0  0  0  0  0  0  0  0  0  0  0
  -14.2271   -4.2046  -20.0113 C   0  0  0  0  0  0  0  0  0  0  0  0
  -13.9294   -4.0138  -18.6503 C   0  0  0  0  0  0  0  0  0  0  0  0
  -12.9927   -4.8659  -18.0336 C   0  0  0  0  0  0  0  0  0  0  0  0
  -12.5589   -4.9479  -16.6956 N   0  0  0  0  0  0  0  0  0  0  0  0
  -12.6926   -6.3318  -16.5764 C   0  0  0  0  0  0  0  0  0  0  0  0
  -13.0055   -7.0203  -15.4081 C   0  0  0  0  0  0  0  0  0  0  0  0
  -13.4707   -9.4089  -18.9141 C   0  0  0  0  0  0  0  0  0  0  0  0
  -13.6848   -9.2759  -20.1115 O   0  0  0  0  0  0  0  0  0  0  0  0
  -13.6782  -10.6249  -18.2498 N   0  0  0  0  0  0  0  0  0  0  0  0
  -13.4496  -10.6279  -16.8127 C   0  0  0  0  0  0  0  0  0  0  0  0
  -14.0623  -11.4088  -18.7575 H   0  0  0  0  0  0  0  0  0  0  0  0
  -10.8357   -1.2837  -12.9108 C   0  0  0  0  0  0  0  0  0  0  0  0
  -12.2188   -1.6580  -12.6186 N   0  0  0  0  0  0  0  0  0  0  0  0
  -12.7946   -0.8165  -12.6026 H   0  0  0  0  0  0  0  0  0  0  0  0
  -14.5805   -3.9590  -12.5133 O   0  0  0  0  0  0  0  0  0  0  0  0
  -15.1008   -4.5865  -11.3730 C   0  0  0  0  0  0  0  0  0  0  0  0
 33 34  1  0  0  0
 34  1  1  0  0  0
 34 35  1  0  0  0
  1  2  1  0  0  0
  1  7  1  0  0  0
  2  3  1  0  0  0
  3  4  1  0  0  0
  3 25  1  0  0  0
  4  5  1  0  0  0
  5  6  1  0  0  0
  5  7  1  0  0  0
  5  8  1  0  0  0
  7 36  1  0  0  0
 36 37  1  0  0  0
  8  9  1  0  0  0
  8 27  1  0  0  0
  9 10  1  0  0  0
  9 14  2  0  0  0
 10 11  2  0  0  0
 11 12  1  0  0  0
 12 13  2  0  0  0
 13 14  1  0  0  0
 14 15  1  0  0  0
 15 16  1  0  0  0
 15 27  2  0  0  0
 16 17  2  0  0  0
 16 31  1  0  0  0
 17 18  1  0  0  0
 17 28  1  0  0  0
 18 19  1  0  0  0
 18 26  2  0  0  0
 19 20  1  0  0  0
 19 24  2  0  0  0
 20 21  2  0  0  0
 21 22  1  0  0  0
 22 23  2  0  0  0
 23 24  1  0  0  0
 24 25  1  0  0  0
 25 26  1  0  0  0
 26 27  1  0  0  0
 28 29  2  0  0  0
 28 30  1  0  0  0
 30 31  1  0  0  0
 30 32  1  0  0  0
M  END
> <minimizedAffinity>
-7.22319

$$$$
