CHEMBL513147


 32 37  0  0  0  0  0  0  0  0999 V2000
  -22.0452    1.4671  -13.7777 C   0  0  0  0  0  0  0  0  0  0  0  0
  -22.5221    2.7780  -14.0010 C   0  0  0  0  0  0  0  0  0  0  0  0
  -21.6158    3.5969  -14.5289 N   0  0  0  0  0  0  0  0  0  0  0  0
  -20.5339    2.8119  -14.7233 N   0  0  0  0  0  0  0  0  0  0  0  0
  -19.3160    3.1966  -15.2641 C   0  0  0  0  0  0  0  0  0  0  0  0
  -18.3372    2.2983  -15.4342 C   0  0  0  0  0  0  0  0  0  0  0  0
  -18.6813    0.9069  -15.0075 C   0  0  0  0  0  0  0  0  0  0  0  0
  -19.8021    0.5187  -14.4756 N   0  0  0  0  0  0  0  0  0  0  0  0
  -20.7631    1.4877  -14.3138 C   0  0  0  0  0  0  0  0  0  0  0  0
  -25.9025   -1.8793  -14.9710 C   0  0  0  0  0  0  0  0  0  0  0  0
  -25.4250   -0.7583  -15.6284 C   0  0  0  0  0  0  0  0  0  0  0  0
  -24.4038   -0.0077  -15.0482 C   0  0  0  0  0  0  0  0  0  0  0  0
  -23.7924   -0.3786  -13.8177 C   0  0  0  0  0  0  0  0  0  0  0  0
  -22.7109    0.3051  -13.1771 C   0  0  0  0  0  0  0  0  0  0  0  0
  -22.2488   -0.1782  -11.9449 C   0  0  0  0  0  0  0  0  0  0  0  0
  -22.8541   -1.2860  -11.3881 C   0  0  0  0  0  0  0  0  0  0  0  0
  -23.8589   -1.9585  -11.9741 N   0  0  0  0  0  0  0  0  0  0  0  0
  -24.3169   -1.5144  -13.1538 C   0  0  0  0  0  0  0  0  0  0  0  0
  -25.3492   -2.2345  -13.7414 C   0  0  0  0  0  0  0  0  0  0  0  0
  -17.0394    2.6345  -16.0069 C   0  0  0  0  0  0  0  0  0  0  0  0
  -16.1038    1.6380  -16.2768 C   0  0  0  0  0  0  0  0  0  0  0  0
  -14.8813    1.9675  -16.8725 C   0  0  0  0  0  0  0  0  0  0  0  0
  -14.5524    3.2896  -17.2072 C   0  0  0  0  0  0  0  0  0  0  0  0
  -15.5006    4.2746  -16.8920 C   0  0  0  0  0  0  0  0  0  0  0  0
  -16.7277    3.9602  -16.3008 C   0  0  0  0  0  0  0  0  0  0  0  0
  -13.3566    3.6129  -17.8120 N   0  0  0  0  0  0  0  0  0  0  0  0
  -12.1535    3.9962  -17.0586 C   0  0  0  0  0  0  0  0  0  0  0  0
  -11.6078    5.3506  -17.5620 C   0  0  0  0  0  0  0  0  0  0  0  0
  -11.3840    5.3918  -19.0243 N   0  0  0  0  0  0  0  0  0  0  0  0
  -12.6477    5.0338  -19.7043 C   0  0  0  0  0  0  0  0  0  0  0  0
  -13.2219    3.6627  -19.2747 C   0  0  0  0  0  0  0  0  0  0  0  0
  -10.6925    4.6785  -19.2560 H   0  0  0  0  0  0  0  0  0  0  0  0
 10 11  1  0  0  0
 10 19  2  0  0  0
 11 12  2  0  0  0
 12 13  1  0  0  0
 13 14  1  0  0  0
 13 18  2  0  0  0
 14  1  1  0  0  0
 14 15  2  0  0  0
  1  2  1  0  0  0
  1  9  2  0  0  0
  2  3  2  0  0  0
  3  4  1  0  0  0
  4  5  1  0  0  0
  4  9  1  0  0  0
  5  6  2  0  0  0
  6 20  1  0  0  0
  6  7  1  0  0  0
 20 21  1  0  0  0
 20 25  2  0  0  0
 21 22  2  0  0  0
 22 23  1  0  0  0
 23 26  1  0  0  0
 23 24  2  0  0  0
 26 27  1  0  0  0
 26 31  1  0  0  0
 27 28  1  0  0  0
 28 29  1  0  0  0
 29 30  1  0  0  0
 29 32  1  0  0  0
 30 31  1  0  0  0
 24 25  1  0  0  0
  7  8  2  0  0  0
  8  9  1  0  0  0
 15 16  1  0  0  0
 16 17  2  0  0  0
 17 18  1  0  0  0
 18 19  1  0  0  0
M  END
> <minimizedAffinity>
-8.60569

$$$$
