CHEMBL1991180


 33 35  0  0  0  0  0  0  0  0999 V2000
  -15.4006    3.5447  -16.2851 C   0  0  0  0  0  0  0  0  0  0  0  0
  -15.8265    4.6727  -16.0446 O   0  0  0  0  0  0  0  0  0  0  0  0
  -16.2309    2.4182  -16.3010 N   0  0  0  0  0  0  0  0  0  0  0  0
  -15.8474    1.5037  -16.4769 H   0  0  0  0  0  0  0  0  0  0  0  0
  -13.2971    3.5645  -17.7730 C   0  0  0  0  0  0  0  0  0  0  0  0
  -11.9696    3.3153  -17.5655 N   0  0  0  0  0  0  0  0  0  0  0  0
  -11.8053    2.9685  -16.3060 N   0  0  0  0  0  0  0  0  0  0  0  0
  -13.0248    2.9139  -15.6910 N   0  0  0  0  0  0  0  0  0  0  0  0
  -14.0103    3.3069  -16.6055 C   0  0  0  0  0  0  0  0  0  0  0  0
  -13.1271    2.4524  -14.3530 C   0  0  0  0  0  0  0  0  0  0  0  0
  -13.9136    1.4236  -14.0425 N   0  0  0  0  0  0  0  0  0  0  0  0
  -13.7469    1.2680  -12.6683 O   0  0  0  0  0  0  0  0  0  0  0  0
  -12.8158    2.1707  -12.1660 N   0  0  0  0  0  0  0  0  0  0  0  0
  -12.4270    2.9000  -13.2112 C   0  0  0  0  0  0  0  0  0  0  0  0
  -11.5309    3.9008  -13.1289 N   0  0  0  0  0  0  0  0  0  0  0  0
  -11.0801    4.1133  -12.2451 H   0  0  0  0  0  0  0  0  0  0  0  0
  -11.1681    4.3905  -13.9431 H   0  0  0  0  0  0  0  0  0  0  0  0
  -13.7111    4.1238  -19.0873 C   0  0  0  0  0  0  0  0  0  0  0  0
  -14.4916    6.3402  -18.9161 C   0  0  0  0  0  0  0  0  0  0  0  0
  -13.3754    5.5052  -19.1943 O   0  0  0  0  0  0  0  0  0  0  0  0
  -17.5623    2.5376  -15.9757 N   0  0  0  0  0  0  0  0  0  0  0  0
  -18.1546    1.6287  -15.2478 C   0  0  0  0  0  0  0  0  0  0  0  0
  -17.4992    0.3460  -14.7763 C   0  0  0  0  0  0  0  0  0  0  0  0
  -19.6087    1.8231  -14.8865 C   0  0  0  0  0  0  0  0  0  0  0  0
  -20.4087    0.6836  -14.6937 C   0  0  0  0  0  0  0  0  0  0  0  0
  -21.7520    0.8028  -14.3030 C   0  0  0  0  0  0  0  0  0  0  0  0
  -22.3010    2.0635  -14.1191 C   0  0  0  0  0  0  0  0  0  0  0  0
  -23.5995    2.2320  -13.7306 O   0  0  0  0  0  0  0  0  0  0  0  0
  -21.5425    3.2064  -14.3273 C   0  0  0  0  0  0  0  0  0  0  0  0
  -20.2020    3.0886  -14.7136 C   0  0  0  0  0  0  0  0  0  0  0  0
  -19.4944    4.2370  -14.9421 O   0  0  0  0  0  0  0  0  0  0  0  0
  -24.0159    1.3599  -13.6298 H   0  0  0  0  0  0  0  0  0  0  0  0
  -20.0902    4.9988  -14.8460 H   0  0  0  0  0  0  0  0  0  0  0  0
 19 20  1  0  0  0
 20 18  1  0  0  0
 18  5  1  0  0  0
  5  6  1  0  0  0
  5  9  2  0  0  0
  6  7  2  0  0  0
  7  8  1  0  0  0
  8 10  1  0  0  0
  8  9  1  0  0  0
 10 11  2  0  0  0
 10 14  1  0  0  0
 11 12  1  0  0  0
 12 13  1  0  0  0
 13 14  2  0  0  0
 14 15  1  0  0  0
 15 16  1  0  0  0
 15 17  1  0  0  0
  9  1  1  0  0  0
  1  2  2  0  0  0
  1  3  1  0  0  0
  3 21  1  0  0  0
  3  4  1  0  0  0
 21 22  2  0  0  0
 22 23  1  0  0  0
 22 24  1  0  0  0
 24 25  1  0  0  0
 24 30  2  0  0  0
 25 26  2  0  0  0
 26 27  1  0  0  0
 27 28  1  0  0  0
 27 29  2  0  0  0
 28 32  1  0  0  0
 29 30  1  0  0  0
 30 31  1  0  0  0
 31 33  1  0  0  0
M  END
> <minimizedAffinity>
-8.50733

$$$$
