CHEMBL3896486


 39 41  0  0  0  0  0  0  0  0999 V2000
  -20.8337    1.6471  -14.2745 C   0  0  0  0  0  0  0  0  0  0  0  0
  -21.0769    2.9834  -14.5788 C   0  0  0  0  0  0  0  0  0  0  0  0
  -20.1317    3.8419  -15.0356 N   0  0  0  0  0  0  0  0  0  0  0  0
  -18.8857    3.3352  -15.2061 C   0  0  0  0  0  0  0  0  0  0  0  0
  -18.5446    2.0134  -14.9411 C   0  0  0  0  0  0  0  0  0  0  0  0
  -19.5430    1.1555  -14.4646 C   0  0  0  0  0  0  0  0  0  0  0  0
  -22.8221    0.1327  -13.4513 C   0  0  0  0  0  0  0  0  0  0  0  0
  -21.8859    0.8004  -13.8032 C   0  0  0  0  0  0  0  0  0  0  0  0
  -25.6828   -1.3790  -11.5379 C   0  0  0  0  0  0  0  0  0  0  0  0
  -26.3955   -1.9282  -12.6113 C   0  0  0  0  0  0  0  0  0  0  0  0
  -25.9157   -1.8485  -13.9160 C   0  0  0  0  0  0  0  0  0  0  0  0
  -24.7237   -1.1856  -14.1709 C   0  0  0  0  0  0  0  0  0  0  0  0
  -24.0308   -0.5660  -13.1266 C   0  0  0  0  0  0  0  0  0  0  0  0
  -24.5136   -0.6514  -11.8100 C   0  0  0  0  0  0  0  0  0  0  0  0
  -27.4142   -1.4428   -9.7449 C   0  0  0  0  0  0  0  0  0  0  0  0
  -28.3746   -1.1945  -10.4729 O   0  0  0  0  0  0  0  0  0  0  0  0
  -26.1022   -1.5580  -10.1954 N   0  0  0  0  0  0  0  0  0  0  0  0
  -25.4351   -1.9257   -9.5242 H   0  0  0  0  0  0  0  0  0  0  0  0
  -28.4611   -4.1118   -8.2929 C   0  0  0  0  0  0  0  0  0  0  0  0
  -28.0688   -2.8187   -7.6678 C   0  0  0  0  0  0  0  0  0  0  0  0
  -28.0851   -2.4945   -6.2877 C   0  0  0  0  0  0  0  0  0  0  0  0
  -27.6394   -1.1982   -6.1870 C   0  0  0  0  0  0  0  0  0  0  0  0
  -27.3421   -0.6945   -7.4165 O   0  0  0  0  0  0  0  0  0  0  0  0
  -27.6116   -1.6800   -8.3255 C   0  0  0  0  0  0  0  0  0  0  0  0
  -17.1504    1.5544  -15.1808 C   0  0  0  0  0  0  0  0  0  0  0  0
  -16.6959    0.7204  -14.4032 O   0  0  0  0  0  0  0  0  0  0  0  0
  -16.4316    1.9925  -16.3094 N   0  0  0  0  0  0  0  0  0  0  0  0
  -15.2897    3.0177  -16.1512 S   0  0  0  0  0  0  0  0  0  0  0  0
  -15.4009    4.2311  -15.3669 O   0  0  0  0  0  0  0  0  0  0  0  0
  -13.8372    2.1393  -15.5649 C   0  0  0  0  0  0  0  0  0  0  0  0
  -13.2665    2.7628  -14.2932 C   0  0  0  0  0  0  0  0  0  0  0  0
  -12.9746    1.7220  -13.2243 C   0  0  0  0  0  0  0  0  0  0  0  0
  -14.1679    1.0720  -12.8190 O   0  0  0  0  0  0  0  0  0  0  0  0
  -14.7858    1.7514  -12.4945 H   0  0  0  0  0  0  0  0  0  0  0  0
  -14.8251    3.5157  -17.8082 C   0  0  0  0  0  0  0  0  0  0  0  0
  -14.6729    5.0244  -17.9716 C   0  0  0  0  0  0  0  0  0  0  0  0
  -13.2723    5.5437  -17.6684 C   0  0  0  0  0  0  0  0  0  0  0  0
  -13.2132    5.9710  -16.3124 O   0  0  0  0  0  0  0  0  0  0  0  0
  -13.7884    6.7464  -16.2190 H   0  0  0  0  0  0  0  0  0  0  0  0
 19 20  1  0  0  0
 20 21  1  0  0  0
 20 24  2  0  0  0
 21 22  2  0  0  0
 22 23  1  0  0  0
 23 24  1  0  0  0
 24 15  1  0  0  0
 15 16  2  0  0  0
 15 17  1  0  0  0
 17  9  1  0  0  0
 17 18  1  0  0  0
  9 10  1  0  0  0
  9 14  2  0  0  0
 10 11  2  0  0  0
 11 12  1  0  0  0
 12 13  2  0  0  0
 13  7  1  0  0  0
 13 14  1  0  0  0
  7  8  3  0  0  0
  8  1  1  0  0  0
  1  2  1  0  0  0
  1  6  2  0  0  0
  2  3  2  0  0  0
  3  4  1  0  0  0
  4  5  2  0  0  0
  5 25  1  0  0  0
  5  6  1  0  0  0
 25 26  2  0  0  0
 25 27  1  0  0  0
 27 28  2  0  0  0
 28 29  2  0  0  0
 28 30  1  0  0  0
 28 35  1  0  0  0
 30 31  1  0  0  0
 31 32  1  0  0  0
 32 33  1  0  0  0
 33 34  1  0  0  0
 35 36  1  0  0  0
 36 37  1  0  0  0
 37 38  1  0  0  0
 38 39  1  0  0  0
M  END
> <minimizedAffinity>
-9.61009

$$$$
