CHEMBL4461094


 40 43  0  0  0  0  0  0  0  0999 V2000
  -23.8461   -1.1585  -13.1835 C   0  0  0  0  0  0  0  0  0  0  0  0
  -25.1263   -1.3925  -13.7083 C   0  0  0  0  0  0  0  0  0  0  0  0
  -26.2286   -1.5674  -12.8757 C   0  0  0  0  0  0  0  0  0  0  0  0
  -26.0535   -1.4965  -11.4972 C   0  0  0  0  0  0  0  0  0  0  0  0
  -24.7724   -1.3230  -10.9519 C   0  0  0  0  0  0  0  0  0  0  0  0
  -23.6713   -1.1617  -11.8014 C   0  0  0  0  0  0  0  0  0  0  0  0
  -22.3355    1.3234  -13.4735 O   0  0  0  0  0  0  0  0  0  0  0  0
  -22.0258    0.3018  -14.0753 C   0  0  0  0  0  0  0  0  0  0  0  0
  -22.6965   -0.8966  -13.9914 N   0  0  0  0  0  0  0  0  0  0  0  0
  -20.9120    0.2035  -14.9129 N   0  0  0  0  0  0  0  0  0  0  0  0
  -22.2590   -1.7028  -14.3938 H   0  0  0  0  0  0  0  0  0  0  0  0
  -20.8320   -0.6318  -15.4677 H   0  0  0  0  0  0  0  0  0  0  0  0
  -19.9301    1.2046  -15.1304 C   0  0  0  0  0  0  0  0  0  0  0  0
  -20.2221    2.5586  -15.2787 C   0  0  0  0  0  0  0  0  0  0  0  0
  -19.2054    3.4895  -15.5049 C   0  0  0  0  0  0  0  0  0  0  0  0
  -17.8689    3.0899  -15.5642 C   0  0  0  0  0  0  0  0  0  0  0  0
  -16.7118    4.3308  -15.8691 Cl  0  0  0  0  0  0  0  0  0  0  0  0
  -17.5356    1.7458  -15.3828 C   0  0  0  0  0  0  0  0  0  0  0  0
  -18.5862    0.8119  -15.1788 C   0  0  0  0  0  0  0  0  0  0  0  0
  -16.1248    1.2173  -15.3650 C   0  0  0  0  0  0  0  0  0  0  0  0
  -15.1858    1.9919  -14.7650 F   0  0  0  0  0  0  0  0  0  0  0  0
  -16.0555    0.0092  -14.7316 F   0  0  0  0  0  0  0  0  0  0  0  0
  -15.6565    0.9863  -16.6257 F   0  0  0  0  0  0  0  0  0  0  0  0
  -27.2278   -1.6501  -10.6126 C   0  0  0  0  0  0  0  0  0  0  0  0
  -28.3310   -1.2730  -10.9869 O   0  0  0  0  0  0  0  0  0  0  0  0
  -26.9262   -2.2622   -9.4122 N   0  0  0  0  0  0  0  0  0  0  0  0
  -25.9461   -2.3945   -9.1643 H   0  0  0  0  0  0  0  0  0  0  0  0
  -27.8348   -3.1424   -8.9036 N   0  0  0  0  0  0  0  0  0  0  0  0
  -28.2320   -2.8886   -7.6964 C   0  0  0  0  0  0  0  0  0  0  0  0
  -27.9488   -1.6587   -6.8351 C   0  0  0  0  0  0  0  0  0  0  0  0
  -27.4982   -0.6071   -7.2336 O   0  0  0  0  0  0  0  0  0  0  0  0
  -28.2251   -2.0573   -5.5501 N   0  0  0  0  0  0  0  0  0  0  0  0
  -28.4729   -3.4254   -5.5220 C   0  0  0  0  0  0  0  0  0  0  0  0
  -28.2026   -4.2930   -4.4872 C   0  0  0  0  0  0  0  0  0  0  0  0
  -28.2691   -5.6659   -4.7727 C   0  0  0  0  0  0  0  0  0  0  0  0
  -28.7047   -6.1294   -6.0330 C   0  0  0  0  0  0  0  0  0  0  0  0
  -28.7827   -7.9885   -6.3676 Br  0  0  0  0  0  0  0  0  0  0  0  0
  -28.9599   -5.2454   -7.0749 C   0  0  0  0  0  0  0  0  0  0  0  0
  -28.7456   -3.9129   -6.7980 C   0  0  0  0  0  0  0  0  0  0  0  0
  -28.3444   -1.4112   -4.7840 H   0  0  0  0  0  0  0  0  0  0  0  0
  7  8  2  0  0  0
  8  9  1  0  0  0
  8 10  1  0  0  0
  9  1  1  0  0  0
  9 11  1  0  0  0
  1  2  1  0  0  0
  1  6  2  0  0  0
  2  3  2  0  0  0
  3  4  1  0  0  0
  4 24  1  0  0  0
  4  5  2  0  0  0
 24 25  2  0  0  0
 24 26  1  0  0  0
 26 28  1  0  0  0
 26 27  1  0  0  0
 28 29  2  0  0  0
 29 30  1  0  0  0
 29 39  1  0  0  0
 30 31  2  0  0  0
 30 32  1  0  0  0
 32 33  1  0  0  0
 32 40  1  0  0  0
 33 34  1  0  0  0
 33 39  2  0  0  0
 34 35  2  0  0  0
 35 36  1  0  0  0
 36 37  1  0  0  0
 36 38  2  0  0  0
 38 39  1  0  0  0
  5  6  1  0  0  0
 10 13  1  0  0  0
 10 12  1  0  0  0
 13 14  1  0  0  0
 13 19  2  0  0  0
 14 15  2  0  0  0
 15 16  1  0  0  0
 16 17  1  0  0  0
 16 18  2  0  0  0
 18 20  1  0  0  0
 18 19  1  0  0  0
 20 21  1  0  0  0
 20 22  1  0  0  0
 20 23  1  0  0  0
M  END
> <minimizedAffinity>
-12.45431

$$$$
