CHEMBL3984039


 37 41  0  0  0  0  0  0  0  0999 V2000
  -14.4370   -3.9532  -11.2962 N   0  0  0  0  0  0  0  0  0  0  0  0
  -14.2140   -2.8089  -12.2133 C   0  0  0  0  0  0  0  0  0  0  0  0
  -15.3322   -2.0023  -12.3624 C   0  0  0  0  0  0  0  0  0  0  0  0
  -15.2854   -1.0209  -13.1742 C   0  0  0  0  0  0  0  0  0  0  0  0
  -14.2395   -0.7426  -13.8748 C   0  0  0  0  0  0  0  0  0  0  0  0
  -14.5275    0.0900  -14.5626 N   0  0  0  0  0  0  0  0  0  0  0  0
  -14.8771    0.9357  -15.2285 C   0  0  0  0  0  0  0  0  0  0  0  0
  -13.8311    1.3431  -15.8560 C   0  0  0  0  0  0  0  0  0  0  0  0
  -12.5772    0.1811  -15.3276 N   0  0  0  0  0  0  0  0  0  0  0  0
  -12.9990   -1.0678  -14.1403 C   0  0  0  0  0  0  0  0  0  0  0  0
  -12.9466   -2.4486  -13.0756 C   0  0  0  0  0  0  0  0  0  0  0  0
  -14.7099    2.8545  -16.7183 C   0  0  0  0  0  0  0  0  0  0  0  0
  -15.6338    3.9950  -16.1879 C   0  0  0  0  0  0  0  0  0  0  0  0
  -15.7467    5.0186  -17.1250 N   0  0  0  0  0  0  0  0  0  0  0  0
  -15.0749    4.6745  -18.2128 N   0  0  0  0  0  0  0  0  0  0  0  0
  -14.8482    5.6100  -19.3918 C   0  0  0  0  0  0  0  0  0  0  0  0
  -14.5338    3.3933  -18.0232 C   0  0  0  0  0  0  0  0  0  0  0  0
  -12.1736   -5.2499   -8.5114 C   0  0  0  0  0  0  0  0  0  0  0  0
  -11.4476   -6.1171   -9.3752 C   0  0  0  0  0  0  0  0  0  0  0  0
  -11.7090   -6.3867  -10.7374 C   0  0  0  0  0  0  0  0  0  0  0  0
  -12.6581   -5.6368  -11.3560 C   0  0  0  0  0  0  0  0  0  0  0  0
  -13.3575   -4.6690  -10.6429 C   0  0  0  0  0  0  0  0  0  0  0  0
  -12.9653   -4.4580   -9.2678 C   0  0  0  0  0  0  0  0  0  0  0  0
  -11.4543   -3.9367   -6.2744 C   0  0  0  0  0  0  0  0  0  0  0  0
  -12.0078   -5.0637   -7.0722 O   0  0  0  0  0  0  0  0  0  0  0  0
  -11.0182   -7.3553  -11.3964 O   0  0  0  0  0  0  0  0  0  0  0  0
  -11.3780   -8.6856  -11.3180 C   0  0  0  0  0  0  0  0  0  0  0  0
  -15.8480   -4.4886  -11.1983 C   0  0  0  0  0  0  0  0  0  0  0  0
  -16.2761   -5.6316  -12.1181 C   0  0  0  0  0  0  0  0  0  0  0  0
  -16.4127   -5.3739  -13.5631 C   0  0  0  0  0  0  0  0  0  0  0  0
  -15.7814   -6.4734  -14.3362 N   0  0  0  0  0  0  0  0  0  0  0  0
  -15.2173   -7.5121  -13.4469 C   0  0  0  0  0  0  0  0  0  0  0  0
  -13.8868   -7.9679  -14.0541 C   0  0  0  0  0  0  0  0  0  0  0  0
  -13.7527   -7.1793  -15.3511 C   0  0  0  0  0  0  0  0  0  0  0  0
  -14.2137   -7.9331  -16.4462 O   0  0  0  0  0  0  0  0  0  0  0  0
  -14.6400   -5.9752  -15.1268 C   0  0  0  0  0  0  0  0  0  0  0  0
  -15.1545   -8.1969  -16.2888 H   0  0  0  0  0  0  0  0  0  0  0  0
 24 25  1  0  0  0
 25 18  1  0  0  0
 18 19  1  0  0  0
 18 23  2  0  0  0
 19 20  2  0  0  0
 20 26  1  0  0  0
 20 21  1  0  0  0
 26 27  1  0  0  0
 21 22  2  0  0  0
 22  1  1  0  0  0
 22 23  1  0  0  0
  1 28  1  0  0  0
  1  2  1  0  0  0
 28 29  1  0  0  0
 29 30  1  0  0  0
 30 31  1  0  0  0
 31 32  1  0  0  0
 31 36  1  0  0  0
 32 33  1  0  0  0
 33 34  1  0  0  0
 34 35  1  0  0  0
 34 36  1  0  0  0
 35 37  1  0  0  0
  2  3  1  0  0  0
  2 11  2  0  0  0
  3  4  2  0  0  0
  4  5  1  0  0  0
  5  6  1  0  0  0
  5 10  2  0  0  0
  6  7  2  0  0  0
  7  8  1  0  0  0
  8 12  1  0  0  0
  8  9  2  0  0  0
 12 13  1  0  0  0
 12 17  2  0  0  0
 13 14  2  0  0  0
 14 15  1  0  0  0
 15 16  1  0  0  0
 15 17  1  0  0  0
  9 10  1  0  0  0
 10 11  1  0  0  0
M  END
> <minimizedAffinity>
-7.49348

$$$$
