CHEMBL195237


 32 35  0  0  0  0  0  0  0  0999 V2000
  -29.2014   -6.3661   -6.1689 C   0  0  0  0  0  0  0  0  0  0  0  0
  -30.1462   -5.8639   -5.4004 N   0  0  0  0  0  0  0  0  0  0  0  0
  -30.1009   -4.5227   -5.6514 C   0  0  0  0  0  0  0  0  0  0  0  0
  -29.1069   -4.2370   -6.5612 C   0  0  0  0  0  0  0  0  0  0  0  0
  -28.5308   -5.4339   -6.9155 O   0  0  0  0  0  0  0  0  0  0  0  0
  -28.5899   -3.0099   -7.1545 C   0  0  0  0  0  0  0  0  0  0  0  0
  -28.4903   -1.8530   -6.3680 C   0  0  0  0  0  0  0  0  0  0  0  0
  -27.9935   -0.6679   -6.9008 C   0  0  0  0  0  0  0  0  0  0  0  0
  -27.5714   -0.6288   -8.2273 C   0  0  0  0  0  0  0  0  0  0  0  0
  -27.6105   -1.7722   -9.0467 C   0  0  0  0  0  0  0  0  0  0  0  0
  -28.1505   -2.9515   -8.4896 C   0  0  0  0  0  0  0  0  0  0  0  0
  -27.0491   -1.7369  -10.4184 C   0  0  0  0  0  0  0  0  0  0  0  0
  -27.8838   -1.8750  -11.5391 C   0  0  0  0  0  0  0  0  0  0  0  0
  -27.3408   -1.8179  -12.8145 C   0  0  0  0  0  0  0  0  0  0  0  0
  -26.0333   -1.6271  -13.0607 N   0  0  0  0  0  0  0  0  0  0  0  0
  -25.2349   -1.4891  -11.9824 C   0  0  0  0  0  0  0  0  0  0  0  0
  -25.6852   -1.5406  -10.6692 C   0  0  0  0  0  0  0  0  0  0  0  0
  -28.8127   -7.6474   -6.3025 N   0  0  0  0  0  0  0  0  0  0  0  0
  -28.6664   -8.2029   -5.4700 H   0  0  0  0  0  0  0  0  0  0  0  0
  -28.3856   -9.4540   -9.5232 C   0  0  0  0  0  0  0  0  0  0  0  0
  -29.6536   -9.9954   -9.7196 C   0  0  0  0  0  0  0  0  0  0  0  0
  -30.6616   -9.7421   -8.7839 C   0  0  0  0  0  0  0  0  0  0  0  0
  -30.4042   -8.9512   -7.6538 C   0  0  0  0  0  0  0  0  0  0  0  0
  -29.1096   -8.4242   -7.4466 C   0  0  0  0  0  0  0  0  0  0  0  0
  -28.1139   -8.6689   -8.4056 C   0  0  0  0  0  0  0  0  0  0  0  0
  -27.1011   -9.7049  -10.7236 S   0  0  0  0  0  0  0  0  0  0  0  0
  -26.3570  -10.8796  -10.3137 O   0  0  0  0  0  0  0  0  0  0  0  0
  -26.4375   -8.4323  -10.9130 O   0  0  0  0  0  0  0  0  0  0  0  0
  -27.4860   -9.3054  -13.3960 C   0  0  0  0  0  0  0  0  0  0  0  0
  -28.0140  -10.0845  -12.2088 C   0  0  0  0  0  0  0  0  0  0  0  0
  -31.3524   -8.6253   -6.7141 O   0  0  0  0  0  0  0  0  0  0  0  0
  -32.6904   -8.4829   -7.1829 C   0  0  0  0  0  0  0  0  0  0  0  0
 29 30  1  0  0  0
 30 26  1  0  0  0
 26 27  2  0  0  0
 26 28  2  0  0  0
 26 20  1  0  0  0
 20 21  1  0  0  0
 20 25  2  0  0  0
 21 22  2  0  0  0
 22 23  1  0  0  0
 23 31  1  0  0  0
 23 24  2  0  0  0
 31 32  1  0  0  0
 24 18  1  0  0  0
 24 25  1  0  0  0
 18  1  1  0  0  0
 18 19  1  0  0  0
  1  2  2  0  0  0
  1  5  1  0  0  0
  2  3  1  0  0  0
  3  4  2  0  0  0
  4  6  1  0  0  0
  4  5  1  0  0  0
  6  7  1  0  0  0
  6 11  2  0  0  0
  7  8  2  0  0  0
  8  9  1  0  0  0
  9 10  2  0  0  0
 10 12  1  0  0  0
 10 11  1  0  0  0
 12 13  1  0  0  0
 12 17  2  0  0  0
 13 14  2  0  0  0
 14 15  1  0  0  0
 15 16  2  0  0  0
 16 17  1  0  0  0
M  END
> <minimizedAffinity>
-8.77385

$$$$
