CHEMBL3657559


 35 39  0  0  0  0  0  0  0  0999 V2000
  -29.7363   -9.2173   -8.0861 C   0  0  0  0  0  0  0  0  0  0  0  0
  -30.0566  -10.1444   -9.0026 N   0  0  0  0  0  0  0  0  0  0  0  0
  -29.3296  -11.2736   -9.0391 C   0  0  0  0  0  0  0  0  0  0  0  0
  -28.2860  -11.5233   -8.1902 C   0  0  0  0  0  0  0  0  0  0  0  0
  -28.0242  -10.5280   -7.2701 C   0  0  0  0  0  0  0  0  0  0  0  0
  -28.7203   -9.3595   -7.2198 N   0  0  0  0  0  0  0  0  0  0  0  0
  -27.0462  -10.7700   -6.2605 N   0  0  0  0  0  0  0  0  0  0  0  0
  -26.2510  -11.8875   -6.1584 C   0  0  0  0  0  0  0  0  0  0  0  0
  -25.1992  -11.5702   -5.3189 C   0  0  0  0  0  0  0  0  0  0  0  0
  -25.6045  -10.3363   -4.7382 C   0  0  0  0  0  0  0  0  0  0  0  0
  -24.9729   -9.5685   -3.6333 C   0  0  0  0  0  0  0  0  0  0  0  0
  -26.7013   -9.8431   -5.3288 N   0  0  0  0  0  0  0  0  0  0  0  0
  -23.9755  -12.3870   -5.0475 C   0  0  0  0  0  0  0  0  0  0  0  0
  -22.8650  -12.2750   -6.0097 N   0  0  0  0  0  0  0  0  0  0  0  0
  -21.7394  -11.4290   -5.5952 C   0  0  0  0  0  0  0  0  0  0  0  0
  -22.1185  -10.3808   -6.6666 C   0  0  0  0  0  0  0  0  0  0  0  0
  -22.6296   -9.1082   -6.2085 O   0  0  0  0  0  0  0  0  0  0  0  0
  -23.1217  -11.4354   -7.1874 C   0  0  0  0  0  0  0  0  0  0  0  0
  -23.0495   -9.2894   -5.3505 H   0  0  0  0  0  0  0  0  0  0  0  0
  -30.4610   -8.0263   -8.0067 N   0  0  0  0  0  0  0  0  0  0  0  0
  -30.7872   -7.7985   -8.9351 H   0  0  0  0  0  0  0  0  0  0  0  0
  -29.2239   -3.5099   -4.9623 N   0  0  0  0  0  0  0  0  0  0  0  0
  -30.0981   -3.6466   -3.8992 C   0  0  0  0  0  0  0  0  0  0  0  0
  -30.2201   -2.6951   -2.7594 C   0  0  0  0  0  0  0  0  0  0  0  0
  -30.8155   -4.8080   -4.1145 C   0  0  0  0  0  0  0  0  0  0  0  0
  -32.0353   -5.4485   -3.1094 Cl  0  0  0  0  0  0  0  0  0  0  0  0
  -30.3719   -5.4001   -5.3246 C   0  0  0  0  0  0  0  0  0  0  0  0
  -30.7474   -6.5538   -6.0496 C   0  0  0  0  0  0  0  0  0  0  0  0
  -30.1076   -6.8860   -7.2526 C   0  0  0  0  0  0  0  0  0  0  0  0
  -29.0391   -6.0969   -7.6817 C   0  0  0  0  0  0  0  0  0  0  0  0
  -28.6477   -4.9418   -6.9902 C   0  0  0  0  0  0  0  0  0  0  0  0
  -29.3418   -4.5975   -5.8178 C   0  0  0  0  0  0  0  0  0  0  0  0
  -28.2886   -2.4105   -5.1635 C   0  0  0  0  0  0  0  0  0  0  0  0
  -29.5636   -0.2034   -5.4017 C   0  0  0  0  0  0  0  0  0  0  0  0
  -28.7983   -1.3156   -6.1059 C   0  0  0  0  0  0  0  0  0  0  0  0
 34 35  1  0  0  0
 35 33  1  0  0  0
 33 22  1  0  0  0
 22 23  1  0  0  0
 22 32  1  0  0  0
 23 24  1  0  0  0
 23 25  2  0  0  0
 25 26  1  0  0  0
 25 27  1  0  0  0
 27 28  1  0  0  0
 27 32  2  0  0  0
 28 29  2  0  0  0
 29 20  1  0  0  0
 29 30  1  0  0  0
 20  1  1  0  0  0
 20 21  1  0  0  0
  1  2  1  0  0  0
  1  6  2  0  0  0
  2  3  2  0  0  0
  3  4  1  0  0  0
  4  5  2  0  0  0
  5  7  1  0  0  0
  5  6  1  0  0  0
  7  8  1  0  0  0
  7 12  1  0  0  0
  8  9  2  0  0  0
  9 13  1  0  0  0
  9 10  1  0  0  0
 13 14  1  0  0  0
 14 15  1  0  0  0
 14 18  1  0  0  0
 15 16  1  0  0  0
 16 17  1  0  0  0
 16 18  1  0  0  0
 17 19  1  0  0  0
 10 11  1  0  0  0
 10 12  2  0  0  0
 30 31  2  0  0  0
 31 32  1  0  0  0
M  END
> <minimizedAffinity>
-8.60840

$$$$
