CHEMBL461140


 32 35  0  0  0  0  0  0  0  0999 V2000
  -27.4734   -1.9866   -8.6388 C   0  0  0  0  0  0  0  0  0  0  0  0
  -27.9041   -3.3063   -8.6803 C   0  0  0  0  0  0  0  0  0  0  0  0
  -28.7051   -3.8002   -7.6460 C   0  0  0  0  0  0  0  0  0  0  0  0
  -29.0504   -2.9405   -6.6036 C   0  0  0  0  0  0  0  0  0  0  0  0
  -28.5772   -1.6396   -6.6422 C   0  0  0  0  0  0  0  0  0  0  0  0
  -27.8035   -1.1471   -7.6314 N   0  0  0  0  0  0  0  0  0  0  0  0
  -29.1418   -5.1952   -7.6741 C   0  0  0  0  0  0  0  0  0  0  0  0
  -30.3990   -5.7337   -7.4220 C   0  0  0  0  0  0  0  0  0  0  0  0
  -30.2909   -7.1361   -7.5136 C   0  0  0  0  0  0  0  0  0  0  0  0
  -31.2175   -8.2231   -7.3324 C   0  0  0  0  0  0  0  0  0  0  0  0
  -32.4012   -8.0890   -7.0457 O   0  0  0  0  0  0  0  0  0  0  0  0
  -30.6246   -9.4585   -7.5074 N   0  0  0  0  0  0  0  0  0  0  0  0
  -29.2890   -9.6211   -7.8256 C   0  0  0  0  0  0  0  0  0  0  0  0
  -28.4347   -8.6585   -8.0010 N   0  0  0  0  0  0  0  0  0  0  0  0
  -28.9880   -7.4350   -7.8312 C   0  0  0  0  0  0  0  0  0  0  0  0
  -28.2988   -6.2609   -7.9369 N   0  0  0  0  0  0  0  0  0  0  0  0
  -31.2278  -10.2556   -7.3828 H   0  0  0  0  0  0  0  0  0  0  0  0
  -27.3108   -6.2024   -8.1346 H   0  0  0  0  0  0  0  0  0  0  0  0
  -26.1116   -2.2220  -10.6944 C   0  0  0  0  0  0  0  0  0  0  0  0
  -26.6329   -1.4574   -9.7207 C   0  0  0  0  0  0  0  0  0  0  0  0
  -23.5850   -0.6360  -13.7728 C   0  0  0  0  0  0  0  0  0  0  0  0
  -24.8820   -1.0475  -14.0819 C   0  0  0  0  0  0  0  0  0  0  0  0
  -25.7098   -1.5862  -13.0914 C   0  0  0  0  0  0  0  0  0  0  0  0
  -25.2500   -1.7361  -11.7798 C   0  0  0  0  0  0  0  0  0  0  0  0
  -23.9425   -1.3351  -11.4794 C   0  0  0  0  0  0  0  0  0  0  0  0
  -23.1128   -0.8016  -12.4712 C   0  0  0  0  0  0  0  0  0  0  0  0
  -22.6954   -0.0871  -14.6591 O   0  0  0  0  0  0  0  0  0  0  0  0
  -21.6063    0.6237  -14.0586 C   0  0  0  0  0  0  0  0  0  0  0  0
  -20.6546    1.1280  -15.1552 C   0  0  0  0  0  0  0  0  0  0  0  0
  -21.5648    3.2097  -14.3569 C   0  0  0  0  0  0  0  0  0  0  0  0
  -20.6579    2.5962  -15.3305 N   0  0  0  0  0  0  0  0  0  0  0  0
  -19.3222    3.1808  -15.1927 C   0  0  0  0  0  0  0  0  0  0  0  0
 30 31  1  0  0  0
 31 32  1  0  0  0
 31 29  1  0  0  0
 29 28  1  0  0  0
 28 27  1  0  0  0
 27 21  1  0  0  0
 21 22  1  0  0  0
 21 26  2  0  0  0
 22 23  2  0  0  0
 23 24  1  0  0  0
 24 19  1  0  0  0
 24 25  2  0  0  0
 19 20  2  0  0  0
 20  1  1  0  0  0
  1  2  1  0  0  0
  1  6  2  0  0  0
  2  3  2  0  0  0
  3  7  1  0  0  0
  3  4  1  0  0  0
  7  8  2  0  0  0
  7 16  1  0  0  0
  8  9  1  0  0  0
  9 10  1  0  0  0
  9 15  2  0  0  0
 10 11  2  0  0  0
 10 12  1  0  0  0
 12 13  1  0  0  0
 12 17  1  0  0  0
 13 14  2  0  0  0
 14 15  1  0  0  0
 15 16  1  0  0  0
 16 18  1  0  0  0
  4  5  2  0  0  0
  5  6  1  0  0  0
 25 26  1  0  0  0
M  END
> <minimizedAffinity>
-9.37629

$$$$
