CHEMBL3671520


 38 40  0  0  0  0  0  0  0  0999 V2000
  -28.0185   -3.3153   -8.0093 C   0  0  0  0  0  0  0  0  0  0  0  0
  -28.5321   -3.0449   -6.7349 C   0  0  0  0  0  0  0  0  0  0  0  0
  -28.5879   -1.7332   -6.2326 C   0  0  0  0  0  0  0  0  0  0  0  0
  -29.0068   -1.3876   -4.9374 C   0  0  0  0  0  0  0  0  0  0  0  0
  -29.0451   -0.1099   -4.5165 N   0  0  0  0  0  0  0  0  0  0  0  0
  -28.6316    0.8156   -5.3832 C   0  0  0  0  0  0  0  0  0  0  0  0
  -28.2268    0.6003   -6.6397 N   0  0  0  0  0  0  0  0  0  0  0  0
  -28.2117   -0.6701   -7.0523 C   0  0  0  0  0  0  0  0  0  0  0  0
  -27.7855   -0.9447   -8.3445 C   0  0  0  0  0  0  0  0  0  0  0  0
  -27.6395   -2.2531   -8.8385 C   0  0  0  0  0  0  0  0  0  0  0  0
  -28.7483   -5.6146   -8.0046 C   0  0  0  0  0  0  0  0  0  0  0  0
  -29.7802   -5.3925   -7.3803 O   0  0  0  0  0  0  0  0  0  0  0  0
  -27.8160   -4.6631   -8.3816 N   0  0  0  0  0  0  0  0  0  0  0  0
  -26.8615   -4.9574   -8.5458 H   0  0  0  0  0  0  0  0  0  0  0  0
  -29.2572   -7.9923   -8.2551 C   0  0  0  0  0  0  0  0  0  0  0  0
  -28.3575   -7.0082   -8.3549 C   0  0  0  0  0  0  0  0  0  0  0  0
  -29.3751   -2.4119   -4.0427 N   0  0  0  0  0  0  0  0  0  0  0  0
  -30.1782   -2.1480   -3.4749 H   0  0  0  0  0  0  0  0  0  0  0  0
  -29.2167   -3.8017   -4.1880 C   0  0  0  0  0  0  0  0  0  0  0  0
  -27.9521   -4.4043   -4.2280 C   0  0  0  0  0  0  0  0  0  0  0  0
  -27.8221   -5.7938   -4.1714 C   0  0  0  0  0  0  0  0  0  0  0  0
  -28.9554   -6.5959   -4.0820 C   0  0  0  0  0  0  0  0  0  0  0  0
  -28.7653   -8.4645   -3.8902 Br  0  0  0  0  0  0  0  0  0  0  0  0
  -30.2243   -6.0255   -4.0928 C   0  0  0  0  0  0  0  0  0  0  0  0
  -30.3404   -4.6394   -4.1385 C   0  0  0  0  0  0  0  0  0  0  0  0
  -31.5661   -4.0929   -4.1076 F   0  0  0  0  0  0  0  0  0  0  0  0
  -27.0445   -2.5390  -10.0551 O   0  0  0  0  0  0  0  0  0  0  0  0
  -27.2223   -1.5030  -11.0400 C   0  0  0  0  0  0  0  0  0  0  0  0
  -26.3801   -1.7225  -12.2979 C   0  0  0  0  0  0  0  0  0  0  0  0
  -25.1914   -0.8734  -12.2889 N   0  0  0  0  0  0  0  0  0  0  0  0
  -23.9177   -1.3786  -12.1738 C   0  0  0  0  0  0  0  0  0  0  0  0
  -23.6801   -2.5766  -12.0576 O   0  0  0  0  0  0  0  0  0  0  0  0
  -25.3274    0.1290  -12.3810 H   0  0  0  0  0  0  0  0  0  0  0  0
  -22.8085   -0.3652  -12.2181 C   0  0  0  0  0  0  0  0  0  0  0  0
  -22.9224    0.5951  -13.6955 S   0  0  0  0  0  0  0  0  0  0  0  0
  -21.2390    0.8485  -14.2311 C   0  0  0  0  0  0  0  0  0  0  0  0
  -23.5694   -0.2369  -14.6969 O   0  0  0  0  0  0  0  0  0  0  0  0
  -23.4916    1.8827  -13.3538 O   0  0  0  0  0  0  0  0  0  0  0  0
 15 16  2  0  0  0
 16 11  1  0  0  0
 11 12  2  0  0  0
 11 13  1  0  0  0
 13  1  1  0  0  0
 13 14  1  0  0  0
  1  2  1  0  0  0
  1 10  2  0  0  0
  2  3  2  0  0  0
  3  4  1  0  0  0
  3  8  1  0  0  0
  4 17  1  0  0  0
  4  5  2  0  0  0
 17 19  1  0  0  0
 17 18  1  0  0  0
 19 20  1  0  0  0
 19 25  2  0  0  0
 20 21  2  0  0  0
 21 22  1  0  0  0
 22 23  1  0  0  0
 22 24  2  0  0  0
 24 25  1  0  0  0
 25 26  1  0  0  0
  5  6  1  0  0  0
  6  7  2  0  0  0
  7  8  1  0  0  0
  8  9  2  0  0  0
  9 10  1  0  0  0
 10 27  1  0  0  0
 27 28  1  0  0  0
 28 29  1  0  0  0
 29 30  1  0  0  0
 30 31  1  0  0  0
 30 33  1  0  0  0
 31 32  2  0  0  0
 31 34  1  0  0  0
 34 35  1  0  0  0
 35 36  1  0  0  0
 35 37  2  0  0  0
 35 38  2  0  0  0
M  END
> <minimizedAffinity>
-8.96873

$$$$
