CHEMBL3690406


 32 35  0  0  0  0  0  0  0  0999 V2000
  -30.8049   -6.0434   -4.6274 C   0  0  0  0  0  0  0  0  0  0  0  0
  -31.6051   -5.7259   -3.5299 C   0  0  0  0  0  0  0  0  0  0  0  0
  -31.7612   -4.4026   -3.1271 C   0  0  0  0  0  0  0  0  0  0  0  0
  -31.0880   -3.3853   -3.7955 C   0  0  0  0  0  0  0  0  0  0  0  0
  -30.1844   -3.6776   -4.8229 C   0  0  0  0  0  0  0  0  0  0  0  0
  -30.0910   -5.0130   -5.2645 C   0  0  0  0  0  0  0  0  0  0  0  0
  -29.3319   -2.6335   -5.4104 C   0  0  0  0  0  0  0  0  0  0  0  0
  -28.9098   -1.4245   -4.8801 C   0  0  0  0  0  0  0  0  0  0  0  0
  -28.1651   -0.6949   -5.7677 N   0  0  0  0  0  0  0  0  0  0  0  0
  -28.1169   -1.4259   -6.8571 C   0  0  0  0  0  0  0  0  0  0  0  0
  -27.4960   -1.1690   -8.1179 C   0  0  0  0  0  0  0  0  0  0  0  0
  -27.5719   -2.0756   -9.1196 C   0  0  0  0  0  0  0  0  0  0  0  0
  -28.3038   -3.3226   -8.9201 C   0  0  0  0  0  0  0  0  0  0  0  0
  -28.9167   -3.5535   -7.7487 C   0  0  0  0  0  0  0  0  0  0  0  0
  -28.8150   -2.6247   -6.7097 N   0  0  0  0  0  0  0  0  0  0  0  0
  -26.9333   -1.7527  -10.3975 C   0  0  0  0  0  0  0  0  0  0  0  0
  -25.5870   -1.4619  -10.5056 C   0  0  0  0  0  0  0  0  0  0  0  0
  -24.9726   -1.1677  -11.6711 N   0  0  0  0  0  0  0  0  0  0  0  0
  -25.7577   -1.1755  -12.7605 C   0  0  0  0  0  0  0  0  0  0  0  0
  -27.0697   -1.4590  -12.7866 N   0  0  0  0  0  0  0  0  0  0  0  0
  -27.6287   -1.7458  -11.5920 C   0  0  0  0  0  0  0  0  0  0  0  0
  -31.1537   -7.0649   -7.4001 O   0  0  0  0  0  0  0  0  0  0  0  0
  -30.8438   -7.7601   -6.4418 C   0  0  0  0  0  0  0  0  0  0  0  0
  -30.5985   -9.1093   -6.5943 N   0  0  0  0  0  0  0  0  0  0  0  0
  -30.6758   -7.3560   -5.1351 N   0  0  0  0  0  0  0  0  0  0  0  0
  -30.7689   -9.6871   -5.7840 H   0  0  0  0  0  0  0  0  0  0  0  0
  -30.3749   -8.0627   -4.4819 H   0  0  0  0  0  0  0  0  0  0  0  0
  -30.8723   -9.7284   -7.8982 C   0  0  0  0  0  0  0  0  0  0  0  0
  -29.6527   -9.8764   -8.8195 C   0  0  0  0  0  0  0  0  0  0  0  0
  -29.9673  -10.5008   -9.9790 F   0  0  0  0  0  0  0  0  0  0  0  0
  -29.0864   -8.6904   -9.1207 F   0  0  0  0  0  0  0  0  0  0  0  0
  -28.7057  -10.6363   -8.2141 F   0  0  0  0  0  0  0  0  0  0  0  0
 22 23  2  0  0  0
 23 24  1  0  0  0
 23 25  1  0  0  0
 24 28  1  0  0  0
 24 26  1  0  0  0
 28 29  1  0  0  0
 29 30  1  0  0  0
 29 31  1  0  0  0
 29 32  1  0  0  0
 25  1  1  0  0  0
 25 27  1  0  0  0
  1  2  1  0  0  0
  1  6  2  0  0  0
  2  3  2  0  0  0
  3  4  1  0  0  0
  4  5  2  0  0  0
  5  7  1  0  0  0
  5  6  1  0  0  0
  7  8  2  0  0  0
  7 15  1  0  0  0
  8  9  1  0  0  0
  9 10  2  0  0  0
 10 11  1  0  0  0
 10 15  1  0  0  0
 11 12  2  0  0  0
 12 16  1  0  0  0
 12 13  1  0  0  0
 16 17  1  0  0  0
 16 21  2  0  0  0
 17 18  2  0  0  0
 18 19  1  0  0  0
 19 20  2  0  0  0
 20 21  1  0  0  0
 13 14  2  0  0  0
 14 15  1  0  0  0
M  END
> <minimizedAffinity>
-9.22835

$$$$
