CHEMBL3969475


 38 42  0  0  0  0  0  0  0  0999 V2000
  -28.6585   -9.9532   -5.3776 N   0  0  0  0  0  0  0  0  0  0  0  0
  -28.5984   -8.5385   -5.0751 C   0  0  0  0  0  0  0  0  0  0  0  0
  -28.9408   -8.2185   -3.7775 C   0  0  0  0  0  0  0  0  0  0  0  0
  -29.5050   -6.9964   -3.4827 C   0  0  0  0  0  0  0  0  0  0  0  0
  -29.5717   -5.9960   -4.4096 C   0  0  0  0  0  0  0  0  0  0  0  0
  -30.3336   -4.9614   -4.0360 N   0  0  0  0  0  0  0  0  0  0  0  0
  -30.2681   -3.8600   -4.7939 C   0  0  0  0  0  0  0  0  0  0  0  0
  -29.3890   -3.7514   -5.8486 C   0  0  0  0  0  0  0  0  0  0  0  0
  -28.7132   -4.8614   -6.3219 N   0  0  0  0  0  0  0  0  0  0  0  0
  -28.8620   -6.0785   -5.6321 C   0  0  0  0  0  0  0  0  0  0  0  0
  -28.4461   -7.4337   -5.9867 C   0  0  0  0  0  0  0  0  0  0  0  0
  -29.0764   -2.3769   -6.2526 C   0  0  0  0  0  0  0  0  0  0  0  0
  -27.9630   -1.9014   -7.0044 C   0  0  0  0  0  0  0  0  0  0  0  0
  -27.8114   -0.5719   -6.9398 N   0  0  0  0  0  0  0  0  0  0  0  0
  -28.8171   -0.1804   -6.1408 N   0  0  0  0  0  0  0  0  0  0  0  0
  -29.1343    1.2224   -5.9998 C   0  0  0  0  0  0  0  0  0  0  0  0
  -29.4985   -1.2339   -5.5889 C   0  0  0  0  0  0  0  0  0  0  0  0
  -31.2717  -11.2670   -7.7486 C   0  0  0  0  0  0  0  0  0  0  0  0
  -30.4858  -11.5956   -8.8552 C   0  0  0  0  0  0  0  0  0  0  0  0
  -29.1035  -11.4498   -8.7904 C   0  0  0  0  0  0  0  0  0  0  0  0
  -28.5117  -10.9851   -7.6107 C   0  0  0  0  0  0  0  0  0  0  0  0
  -29.2565  -10.6235   -6.4777 C   0  0  0  0  0  0  0  0  0  0  0  0
  -30.6548  -10.7923   -6.5664 C   0  0  0  0  0  0  0  0  0  0  0  0
  -33.2882  -11.3433   -6.4594 C   0  0  0  0  0  0  0  0  0  0  0  0
  -32.6458  -11.3434   -7.7391 O   0  0  0  0  0  0  0  0  0  0  0  0
  -28.2273  -11.6871   -9.8152 O   0  0  0  0  0  0  0  0  0  0  0  0
  -27.0194  -10.9356   -9.8216 C   0  0  0  0  0  0  0  0  0  0  0  0
  -28.6074  -10.7483   -4.0662 C   0  0  0  0  0  0  0  0  0  0  0  0
  -27.3052  -11.5669   -3.8070 C   0  0  0  0  0  0  0  0  0  0  0  0
  -27.0165  -12.4648   -4.8994 O   0  0  0  0  0  0  0  0  0  0  0  0
  -27.1331  -11.9837   -5.7344 H   0  0  0  0  0  0  0  0  0  0  0  0
  -26.0451  -10.6448   -3.6149 C   0  0  0  0  0  0  0  0  0  0  0  0
  -24.7166  -11.3000   -3.5964 N   0  0  0  0  0  0  0  0  0  0  0  0
  -23.7214  -10.5020   -4.3310 C   0  0  0  0  0  0  0  0  0  0  0  0
  -22.3781  -11.2238   -4.3975 C   0  0  0  0  0  0  0  0  0  0  0  0
  -21.8370  -11.4887   -3.0013 C   0  0  0  0  0  0  0  0  0  0  0  0
  -22.8822  -12.2198   -2.1655 C   0  0  0  0  0  0  0  0  0  0  0  0
  -24.2444  -11.5091   -2.2068 C   0  0  0  0  0  0  0  0  0  0  0  0
 24 25  1  0  0  0
 25 18  1  0  0  0
 18 19  1  0  0  0
 18 23  2  0  0  0
 19 20  2  0  0  0
 20 26  1  0  0  0
 20 21  1  0  0  0
 26 27  1  0  0  0
 21 22  2  0  0  0
 22  1  1  0  0  0
 22 23  1  0  0  0
  1 28  1  0  0  0
  1  2  1  0  0  0
 28 29  1  0  0  0
 29 30  1  0  0  0
 29 32  1  0  0  0
 30 31  1  0  0  0
 32 33  1  0  0  0
 33 34  1  0  0  0
 33 38  1  0  0  0
 34 35  1  0  0  0
 35 36  1  0  0  0
 36 37  1  0  0  0
 37 38  1  0  0  0
  2  3  1  0  0  0
  2 11  2  0  0  0
  3  4  2  0  0  0
  4  5  1  0  0  0
  5  6  1  0  0  0
  5 10  2  0  0  0
  6  7  2  0  0  0
  7  8  1  0  0  0
  8 12  1  0  0  0
  8  9  2  0  0  0
 12 13  1  0  0  0
 12 17  2  0  0  0
 13 14  2  0  0  0
 14 15  1  0  0  0
 15 16  1  0  0  0
 15 17  1  0  0  0
  9 10  1  0  0  0
 10 11  1  0  0  0
M  END
> <minimizedAffinity>
-8.08196

$$$$
