CHEMBL3929290


 43 47  0  0  0  0  0  0  0  0999 V2000
  -26.1320   -1.6142  -10.8002 C   0  0  0  0  0  0  0  0  0  0  0  0
  -26.5560   -1.7222  -12.1294 C   0  0  0  0  0  0  0  0  0  0  0  0
  -25.7383   -1.2832  -13.1765 C   0  0  0  0  0  0  0  0  0  0  0  0
  -24.4929   -0.7080  -12.9164 C   0  0  0  0  0  0  0  0  0  0  0  0
  -24.0344   -0.6873  -11.5978 C   0  0  0  0  0  0  0  0  0  0  0  0
  -24.8507   -1.1134  -10.5479 C   0  0  0  0  0  0  0  0  0  0  0  0
  -29.1392   -3.8276   -7.3493 C   0  0  0  0  0  0  0  0  0  0  0  0
  -29.5783   -3.3228   -6.1738 N   0  0  0  0  0  0  0  0  0  0  0  0
  -29.2289   -2.0603   -5.8467 C   0  0  0  0  0  0  0  0  0  0  0  0
  -28.4751   -1.1932   -6.5465 N   0  0  0  0  0  0  0  0  0  0  0  0
  -28.0767   -1.7325   -7.7070 C   0  0  0  0  0  0  0  0  0  0  0  0
  -27.2725   -1.1154   -8.6237 N   0  0  0  0  0  0  0  0  0  0  0  0
  -27.0208   -1.9537   -9.6901 C   0  0  0  0  0  0  0  0  0  0  0  0
  -27.7240   -3.1231   -9.4373 C   0  0  0  0  0  0  0  0  0  0  0  0
  -28.3716   -2.9970   -8.1791 C   0  0  0  0  0  0  0  0  0  0  0  0
  -26.9055   -0.1840   -8.5037 H   0  0  0  0  0  0  0  0  0  0  0  0
  -29.4001   -5.1453   -7.7239 N   0  0  0  0  0  0  0  0  0  0  0  0
  -30.1457   -5.1223   -8.4165 H   0  0  0  0  0  0  0  0  0  0  0  0
  -28.5220   -6.4184   -5.7850 C   0  0  0  0  0  0  0  0  0  0  0  0
  -29.7427   -6.0843   -6.6516 C   0  0  0  0  0  0  0  0  0  0  0  0
  -30.2683   -7.3511   -7.3201 C   0  0  0  0  0  0  0  0  0  0  0  0
  -29.4519   -8.0913   -8.1873 C   0  0  0  0  0  0  0  0  0  0  0  0
  -29.9133   -9.2847   -8.7486 C   0  0  0  0  0  0  0  0  0  0  0  0
  -31.1946   -9.7496   -8.4553 C   0  0  0  0  0  0  0  0  0  0  0  0
  -32.0261   -9.0133   -7.6158 C   0  0  0  0  0  0  0  0  0  0  0  0
  -31.5674   -7.8217   -7.0543 C   0  0  0  0  0  0  0  0  0  0  0  0
  -23.6572   -0.1861  -13.9020 N   0  0  0  0  0  0  0  0  0  0  0  0
  -23.9047   -0.5238  -14.8291 H   0  0  0  0  0  0  0  0  0  0  0  0
  -23.3832    1.2428  -13.8756 C   0  0  0  0  0  0  0  0  0  0  0  0
  -21.9545    1.4737  -14.3015 C   0  0  0  0  0  0  0  0  0  0  0  0
  -21.1714    0.4216  -14.7825 C   0  0  0  0  0  0  0  0  0  0  0  0
  -19.8516    0.6491  -15.1816 C   0  0  0  0  0  0  0  0  0  0  0  0
  -19.2920    1.9336  -15.1252 C   0  0  0  0  0  0  0  0  0  0  0  0
  -20.0752    2.9850  -14.6376 C   0  0  0  0  0  0  0  0  0  0  0  0
  -21.3947    2.7592  -14.2358 C   0  0  0  0  0  0  0  0  0  0  0  0
  -17.8951    2.1997  -15.5029 C   0  0  0  0  0  0  0  0  0  0  0  0
  -17.4380    3.4154  -15.8422 C   0  0  0  0  0  0  0  0  0  0  0  0
  -16.0186    3.6036  -16.2267 C   0  0  0  0  0  0  0  0  0  0  0  0
  -15.3113    2.7197  -16.6919 O   0  0  0  0  0  0  0  0  0  0  0  0
  -15.5743    4.8825  -16.0161 N   0  0  0  0  0  0  0  0  0  0  0  0
  -14.2438    5.1646  -16.3871 O   0  0  0  0  0  0  0  0  0  0  0  0
  -16.1285    5.6543  -15.6615 H   0  0  0  0  0  0  0  0  0  0  0  0
  -13.9375    4.2968  -16.7319 H   0  0  0  0  0  0  0  0  0  0  0  0
 19 20  1  0  0  0
 20 17  1  0  0  0
 20 21  1  0  0  0
 17  7  1  0  0  0
 17 18  1  0  0  0
  7  8  1  0  0  0
  7 15  2  0  0  0
  8  9  2  0  0  0
  9 10  1  0  0  0
 10 11  2  0  0  0
 11 12  1  0  0  0
 11 15  1  0  0  0
 12 13  1  0  0  0
 12 16  1  0  0  0
 13  1  1  0  0  0
 13 14  2  0  0  0
  1  2  1  0  0  0
  1  6  2  0  0  0
  2  3  2  0  0  0
  3  4  1  0  0  0
  4 27  1  0  0  0
  4  5  2  0  0  0
 27 29  1  0  0  0
 27 28  1  0  0  0
 29 30  1  0  0  0
 30 31  1  0  0  0
 30 35  2  0  0  0
 31 32  2  0  0  0
 32 33  1  0  0  0
 33 36  1  0  0  0
 33 34  2  0  0  0
 36 37  2  0  0  0
 37 38  1  0  0  0
 38 39  2  0  0  0
 38 40  1  0  0  0
 40 41  1  0  0  0
 40 42  1  0  0  0
 41 43  1  0  0  0
 34 35  1  0  0  0
  5  6  1  0  0  0
 14 15  1  0  0  0
 21 22  1  0  0  0
 21 26  2  0  0  0
 22 23  2  0  0  0
 23 24  1  0  0  0
 24 25  2  0  0  0
 25 26  1  0  0  0
M  END
> <minimizedAffinity>
-11.12165

$$$$
