CHEMBL3109339


 33 36  0  0  0  0  0  0  0  0999 V2000
  -30.8466   -7.6990   -6.5282 C   0  0  0  0  0  0  0  0  0  0  0  0
  -32.0578   -7.9546   -7.1483 C   0  0  0  0  0  0  0  0  0  0  0  0
  -32.2294   -9.1745   -7.7806 C   0  0  0  0  0  0  0  0  0  0  0  0
  -31.1999  -10.1164   -7.7707 C   0  0  0  0  0  0  0  0  0  0  0  0
  -31.3819  -11.3617   -8.3897 C   0  0  0  0  0  0  0  0  0  0  0  0
  -30.3726  -12.3147   -8.3718 C   0  0  0  0  0  0  0  0  0  0  0  0
  -29.1725  -12.0289   -7.7312 C   0  0  0  0  0  0  0  0  0  0  0  0
  -28.9751  -10.7852   -7.1109 C   0  0  0  0  0  0  0  0  0  0  0  0
  -29.9847   -9.7952   -7.1184 C   0  0  0  0  0  0  0  0  0  0  0  0
  -29.8272   -8.5867   -6.5178 N   0  0  0  0  0  0  0  0  0  0  0  0
  -28.9460   -2.8143   -6.6985 C   0  0  0  0  0  0  0  0  0  0  0  0
  -28.8480   -3.8571   -7.7154 C   0  0  0  0  0  0  0  0  0  0  0  0
  -29.3607   -5.0616   -7.4793 C   0  0  0  0  0  0  0  0  0  0  0  0
  -30.0036   -5.3223   -6.2649 N   0  0  0  0  0  0  0  0  0  0  0  0
  -30.6411   -6.4545   -5.8006 C   0  0  0  0  0  0  0  0  0  0  0  0
  -31.0730   -6.1046   -4.5314 C   0  0  0  0  0  0  0  0  0  0  0  0
  -30.7629   -4.8106   -4.2156 N   0  0  0  0  0  0  0  0  0  0  0  0
  -30.1246   -4.3497   -5.2690 C   0  0  0  0  0  0  0  0  0  0  0  0
  -29.5635   -3.0662   -5.5261 C   0  0  0  0  0  0  0  0  0  0  0  0
  -28.3497   -1.5863   -6.9174 O   0  0  0  0  0  0  0  0  0  0  0  0
  -27.7117   -0.9753   -5.7903 C   0  0  0  0  0  0  0  0  0  0  0  0
  -28.2474    0.4377   -5.6257 C   0  0  0  0  0  0  0  0  0  0  0  0
  -30.4190    1.2801   -5.9435 C   0  0  0  0  0  0  0  0  0  0  0  0
  -29.6045    0.3904   -5.1894 O   0  0  0  0  0  0  0  0  0  0  0  0
  -27.8115  -10.4494   -6.4557 O   0  0  0  0  0  0  0  0  0  0  0  0
  -27.2876  -11.3578   -5.4825 C   0  0  0  0  0  0  0  0  0  0  0  0
  -27.2222  -10.6600   -4.0983 C   0  0  0  0  0  0  0  0  0  0  0  0
  -26.2406  -11.4356   -3.1970 C   0  0  0  0  0  0  0  0  0  0  0  0
  -26.7116   -9.2176   -4.2857 C   0  0  0  0  0  0  0  0  0  0  0  0
  -28.6473  -10.6501   -3.4824 C   0  0  0  0  0  0  0  0  0  0  0  0
  -29.3449   -9.3726   -3.6283 N   0  0  0  0  0  0  0  0  0  0  0  0
  -28.8258   -8.6320   -3.1620 H   0  0  0  0  0  0  0  0  0  0  0  0
  -30.2499   -9.4246   -3.1622 H   0  0  0  0  0  0  0  0  0  0  0  0
 23 24  1  0  0  0
 24 22  1  0  0  0
 22 21  1  0  0  0
 21 20  1  0  0  0
 20 11  1  0  0  0
 11 12  1  0  0  0
 11 19  2  0  0  0
 12 13  2  0  0  0
 13 14  1  0  0  0
 14 15  1  0  0  0
 14 18  1  0  0  0
 15  1  1  0  0  0
 15 16  2  0  0  0
  1  2  1  0  0  0
  1 10  2  0  0  0
  2  3  2  0  0  0
  3  4  1  0  0  0
  4  5  1  0  0  0
  4  9  2  0  0  0
  5  6  2  0  0  0
  6  7  1  0  0  0
  7  8  2  0  0  0
  8 25  1  0  0  0
  8  9  1  0  0  0
 25 26  1  0  0  0
 26 27  1  0  0  0
 27 28  1  0  0  0
 27 29  1  0  0  0
 27 30  1  0  0  0
 30 31  1  0  0  0
 31 32  1  0  0  0
 31 33  1  0  0  0
  9 10  1  0  0  0
 16 17  1  0  0  0
 17 18  2  0  0  0
 18 19  1  0  0  0
M  END
> <minimizedAffinity>
-7.46575

$$$$
