CHEMBL3958708


 37 41  0  0  0  0  0  0  0  0999 V2000
  -27.9235   -2.1611   -8.7452 N   0  0  0  0  0  0  0  0  0  0  0  0
  -27.4045   -1.5884   -9.9625 C   0  0  0  0  0  0  0  0  0  0  0  0
  -28.1306   -1.9067  -11.1167 C   0  0  0  0  0  0  0  0  0  0  0  0
  -27.5279   -1.8902  -12.3610 C   0  0  0  0  0  0  0  0  0  0  0  0
  -26.2435   -1.4385  -12.5151 C   0  0  0  0  0  0  0  0  0  0  0  0
  -25.7252   -1.6516  -13.7291 N   0  0  0  0  0  0  0  0  0  0  0  0
  -24.5175   -1.1253  -13.9747 C   0  0  0  0  0  0  0  0  0  0  0  0
  -23.8668   -0.3328  -13.0573 C   0  0  0  0  0  0  0  0  0  0  0  0
  -24.3352   -0.1862  -11.7730 N   0  0  0  0  0  0  0  0  0  0  0  0
  -25.5411   -0.8111  -11.4506 C   0  0  0  0  0  0  0  0  0  0  0  0
  -26.1511   -0.9432  -10.1461 C   0  0  0  0  0  0  0  0  0  0  0  0
  -22.7405    0.4450  -13.5640 C   0  0  0  0  0  0  0  0  0  0  0  0
  -22.6196    1.8460  -13.7517 C   0  0  0  0  0  0  0  0  0  0  0  0
  -21.5290    2.1829  -14.4515 N   0  0  0  0  0  0  0  0  0  0  0  0
  -20.9499    0.9990  -14.7136 N   0  0  0  0  0  0  0  0  0  0  0  0
  -19.5863    0.9379  -15.1834 C   0  0  0  0  0  0  0  0  0  0  0  0
  -21.7281   -0.0674  -14.3561 C   0  0  0  0  0  0  0  0  0  0  0  0
  -28.7172    0.2079   -5.9424 C   0  0  0  0  0  0  0  0  0  0  0  0
  -28.4366   -0.5874   -4.8299 C   0  0  0  0  0  0  0  0  0  0  0  0
  -27.9107   -1.8638   -5.0057 C   0  0  0  0  0  0  0  0  0  0  0  0
  -27.6746   -2.3456   -6.2970 C   0  0  0  0  0  0  0  0  0  0  0  0
  -27.9657   -1.5944   -7.4457 C   0  0  0  0  0  0  0  0  0  0  0  0
  -28.4827   -0.2993   -7.2393 C   0  0  0  0  0  0  0  0  0  0  0  0
  -30.6910    1.5372   -6.1279 C   0  0  0  0  0  0  0  0  0  0  0  0
  -29.2883    1.4568   -5.8732 O   0  0  0  0  0  0  0  0  0  0  0  0
  -27.6184   -2.7580   -4.0116 O   0  0  0  0  0  0  0  0  0  0  0  0
  -28.6812   -3.1264   -3.1413 C   0  0  0  0  0  0  0  0  0  0  0  0
  -27.7375   -3.6668   -8.8089 C   0  0  0  0  0  0  0  0  0  0  0  0
  -28.8100   -4.4920   -8.0342 C   0  0  0  0  0  0  0  0  0  0  0  0
  -28.3149   -5.7319   -7.3809 N   0  0  0  0  0  0  0  0  0  0  0  0
  -28.8330   -6.9315   -8.0643 C   0  0  0  0  0  0  0  0  0  0  0  0
  -30.1828   -7.1791   -7.4188 C   0  0  0  0  0  0  0  0  0  0  0  0
  -29.8967   -6.9990   -5.9240 C   0  0  0  0  0  0  0  0  0  0  0  0
  -28.7534   -5.9234   -5.9739 C   0  0  0  0  0  0  0  0  0  0  0  0
  -29.5321   -8.2692   -5.2289 N   0  0  0  0  0  0  0  0  0  0  0  0
  -29.7535   -9.4452   -6.0808 C   0  0  0  0  0  0  0  0  0  0  0  0
  -28.1273   -8.2921   -4.7938 C   0  0  0  0  0  0  0  0  0  0  0  0
 24 25  1  0  0  0
 25 18  1  0  0  0
 18 19  1  0  0  0
 18 23  2  0  0  0
 19 20  2  0  0  0
 20 26  1  0  0  0
 20 21  1  0  0  0
 26 27  1  0  0  0
 21 22  2  0  0  0
 22  1  1  0  0  0
 22 23  1  0  0  0
  1 28  1  0  0  0
  1  2  1  0  0  0
 28 29  1  0  0  0
 29 30  1  0  0  0
 30 31  1  0  0  0
 30 34  1  0  0  0
 31 32  1  0  0  0
 32 33  1  0  0  0
 33 35  1  0  0  0
 33 34  1  0  0  0
 35 36  1  0  0  0
 35 37  1  0  0  0
  2  3  1  0  0  0
  2 11  2  0  0  0
  3  4  2  0  0  0
  4  5  1  0  0  0
  5  6  1  0  0  0
  5 10  2  0  0  0
  6  7  2  0  0  0
  7  8  1  0  0  0
  8 12  1  0  0  0
  8  9  2  0  0  0
 12 13  1  0  0  0
 12 17  2  0  0  0
 13 14  2  0  0  0
 14 15  1  0  0  0
 15 16  1  0  0  0
 15 17  1  0  0  0
  9 10  1  0  0  0
 10 11  1  0  0  0
M  END
> <minimizedAffinity>
-8.87677

$$$$
