CHEMBL3671547


 34 36  0  0  0  0  0  0  0  0999 V2000
  -26.9766   -9.0347   -4.9478 C   0  0  0  0  0  0  0  0  0  0  0  0
  -27.8334   -8.0859   -4.3887 C   0  0  0  0  0  0  0  0  0  0  0  0
  -29.0732   -7.7968   -4.9958 C   0  0  0  0  0  0  0  0  0  0  0  0
  -29.9140   -6.7357   -4.6127 C   0  0  0  0  0  0  0  0  0  0  0  0
  -31.0903   -6.5114   -5.2284 N   0  0  0  0  0  0  0  0  0  0  0  0
  -31.4094   -7.3202   -6.2387 C   0  0  0  0  0  0  0  0  0  0  0  0
  -30.6546   -8.3148   -6.7264 N   0  0  0  0  0  0  0  0  0  0  0  0
  -29.4868   -8.5369   -6.1181 C   0  0  0  0  0  0  0  0  0  0  0  0
  -28.6305   -9.5116   -6.6269 C   0  0  0  0  0  0  0  0  0  0  0  0
  -27.3776   -9.7811   -6.0612 C   0  0  0  0  0  0  0  0  0  0  0  0
  -25.2022  -10.0747   -3.6228 C   0  0  0  0  0  0  0  0  0  0  0  0
  -23.9971  -10.1389   -3.3843 O   0  0  0  0  0  0  0  0  0  0  0  0
  -25.6643   -9.0780   -4.4542 N   0  0  0  0  0  0  0  0  0  0  0  0
  -24.9232   -8.7292   -5.0507 H   0  0  0  0  0  0  0  0  0  0  0  0
  -26.0580  -12.4619   -3.6317 C   0  0  0  0  0  0  0  0  0  0  0  0
  -26.2196  -11.0632   -3.0684 C   0  0  0  0  0  0  0  0  0  0  0  0
  -29.4924   -5.8213   -3.6107 N   0  0  0  0  0  0  0  0  0  0  0  0
  -30.0541   -5.9140   -2.7692 H   0  0  0  0  0  0  0  0  0  0  0  0
  -29.1393   -4.4719   -3.8624 C   0  0  0  0  0  0  0  0  0  0  0  0
  -27.8841   -4.1356   -4.3917 C   0  0  0  0  0  0  0  0  0  0  0  0
  -27.5723   -2.8125   -4.7134 C   0  0  0  0  0  0  0  0  0  0  0  0
  -28.5114   -1.8091   -4.4889 C   0  0  0  0  0  0  0  0  0  0  0  0
  -28.1149   -0.0323   -4.9964 Br  0  0  0  0  0  0  0  0  0  0  0  0
  -29.7423   -2.1085   -3.9104 C   0  0  0  0  0  0  0  0  0  0  0  0
  -30.0384   -3.4322   -3.5929 C   0  0  0  0  0  0  0  0  0  0  0  0
  -31.2310   -3.7196   -3.0472 F   0  0  0  0  0  0  0  0  0  0  0  0
  -26.6309  -10.7414   -6.7093 O   0  0  0  0  0  0  0  0  0  0  0  0
  -26.0280  -10.3087   -7.9381 C   0  0  0  0  0  0  0  0  0  0  0  0
  -26.1142  -11.3910   -9.0221 C   0  0  0  0  0  0  0  0  0  0  0  0
  -27.3598  -11.2968   -9.7765 N   0  0  0  0  0  0  0  0  0  0  0  0
  -27.5228  -10.3819  -10.7914 C   0  0  0  0  0  0  0  0  0  0  0  0
  -28.9151  -10.3230  -11.3672 C   0  0  0  0  0  0  0  0  0  0  0  0
  -26.6178   -9.6682  -11.2072 O   0  0  0  0  0  0  0  0  0  0  0  0
  -28.1658  -11.8074   -9.4384 H   0  0  0  0  0  0  0  0  0  0  0  0
 15 16  1  0  0  0
 16 11  1  0  0  0
 11 12  2  0  0  0
 11 13  1  0  0  0
 13  1  1  0  0  0
 13 14  1  0  0  0
  1  2  1  0  0  0
  1 10  2  0  0  0
  2  3  2  0  0  0
  3  4  1  0  0  0
  3  8  1  0  0  0
  4 17  1  0  0  0
  4  5  2  0  0  0
 17 19  1  0  0  0
 17 18  1  0  0  0
 19 20  1  0  0  0
 19 25  2  0  0  0
 20 21  2  0  0  0
 21 22  1  0  0  0
 22 23  1  0  0  0
 22 24  2  0  0  0
 24 25  1  0  0  0
 25 26  1  0  0  0
  5  6  1  0  0  0
  6  7  2  0  0  0
  7  8  1  0  0  0
  8  9  2  0  0  0
  9 10  1  0  0  0
 10 27  1  0  0  0
 27 28  1  0  0  0
 28 29  1  0  0  0
 29 30  1  0  0  0
 30 31  1  0  0  0
 30 34  1  0  0  0
 31 32  1  0  0  0
 31 33  2  0  0  0
M  END
> <minimizedAffinity>
-7.86899

$$$$
