CHEMBL2016899


 31 35  0  0  0  0  0  0  0  0999 V2000
  -31.5475   -9.7038   -7.9014 O   0  0  0  0  0  0  0  0  0  0  0  0
  -30.4332   -9.4226   -8.3503 C   0  0  0  0  0  0  0  0  0  0  0  0
  -29.8413   -8.1618   -8.1103 N   0  0  0  0  0  0  0  0  0  0  0  0
  -28.5001   -7.8376   -8.6294 C   0  0  0  0  0  0  0  0  0  0  0  0
  -27.8118   -6.5098   -8.3819 C   0  0  0  0  0  0  0  0  0  0  0  0
  -28.6293   -5.6573   -7.5467 C   0  0  0  0  0  0  0  0  0  0  0  0
  -28.2527   -4.4161   -7.1906 N   0  0  0  0  0  0  0  0  0  0  0  0
  -29.2002   -3.9752   -6.3947 C   0  0  0  0  0  0  0  0  0  0  0  0
  -30.2156   -4.9246   -6.2712 N   0  0  0  0  0  0  0  0  0  0  0  0
  -29.8331   -5.9946   -7.0057 C   0  0  0  0  0  0  0  0  0  0  0  0
  -30.5346   -7.2840   -7.1416 C   0  0  0  0  0  0  0  0  0  0  0  0
  -31.0516   -4.7910   -5.7195 H   0  0  0  0  0  0  0  0  0  0  0  0
  -29.2193   -2.7479   -5.6954 C   0  0  0  0  0  0  0  0  0  0  0  0
  -28.7347   -1.7074   -6.4008 C   0  0  0  0  0  0  0  0  0  0  0  0
  -28.7780   -0.3794   -5.8452 C   0  0  0  0  0  0  0  0  0  0  0  0
  -28.3248    0.7003   -6.5651 C   0  0  0  0  0  0  0  0  0  0  0  0
  -27.6716    1.6110   -5.7950 F   0  0  0  0  0  0  0  0  0  0  0  0
  -29.3591    1.2745   -7.2394 C   0  0  0  0  0  0  0  0  0  0  0  0
  -30.3483    1.7168   -6.3598 C   0  0  0  0  0  0  0  0  0  0  0  0
  -30.4998    1.0593   -5.1093 C   0  0  0  0  0  0  0  0  0  0  0  0
  -29.7979   -0.1353   -4.9378 C   0  0  0  0  0  0  0  0  0  0  0  0
  -30.1711   -1.1882   -4.0700 N   0  0  0  0  0  0  0  0  0  0  0  0
  -29.8439   -2.5079   -4.3312 C   0  0  0  0  0  0  0  0  0  0  0  0
  -30.1027   -3.4374   -3.5730 O   0  0  0  0  0  0  0  0  0  0  0  0
  -30.7459   -1.0156   -3.2540 H   0  0  0  0  0  0  0  0  0  0  0  0
  -29.6758  -10.5038   -9.0601 C   0  0  0  0  0  0  0  0  0  0  0  0
  -29.1134  -11.5337   -8.3022 C   0  0  0  0  0  0  0  0  0  0  0  0
  -28.2665  -12.4660   -8.9093 C   0  0  0  0  0  0  0  0  0  0  0  0
  -27.9877  -12.3337  -10.2571 C   0  0  0  0  0  0  0  0  0  0  0  0
  -28.5735  -11.4115  -11.0399 N   0  0  0  0  0  0  0  0  0  0  0  0
  -29.4381  -10.5640  -10.4300 C   0  0  0  0  0  0  0  0  0  0  0  0
  1  2  2  0  0  0
  2 26  1  0  0  0
  2  3  1  0  0  0
 26 27  1  0  0  0
 26 31  2  0  0  0
 27 28  2  0  0  0
 28 29  1  0  0  0
 29 30  2  0  0  0
 30 31  1  0  0  0
  3  4  1  0  0  0
  3 11  1  0  0  0
  4  5  1  0  0  0
  5  6  1  0  0  0
  6  7  1  0  0  0
  6 10  2  0  0  0
  7  8  2  0  0  0
  8 13  1  0  0  0
  8  9  1  0  0  0
 13 14  2  0  0  0
 13 23  1  0  0  0
 14 15  1  0  0  0
 15 16  1  0  0  0
 15 21  2  0  0  0
 16 17  1  0  0  0
 16 18  2  0  0  0
 18 19  1  0  0  0
 19 20  2  0  0  0
 20 21  1  0  0  0
 21 22  1  0  0  0
 22 23  1  0  0  0
 22 25  1  0  0  0
 23 24  2  0  0  0
  9 10  1  0  0  0
  9 12  1  0  0  0
 10 11  1  0  0  0
M  END
> <minimizedAffinity>
-7.60017

$$$$
