CHEMBL4064874


 42 45  0  0  0  0  0  0  0  0999 V2000
  -22.8574   -0.4698  -13.3564 C   0  0  0  0  0  0  0  0  0  0  0  0
  -22.3229   -0.0973  -12.3119 O   0  0  0  0  0  0  0  0  0  0  0  0
  -22.3118   -0.3869  -14.6295 N   0  0  0  0  0  0  0  0  0  0  0  0
  -22.9308   -0.5277  -15.4140 H   0  0  0  0  0  0  0  0  0  0  0  0
  -28.3314   -2.3903  -13.2659 C   0  0  0  0  0  0  0  0  0  0  0  0
  -26.9218   -1.8670  -13.2283 C   0  0  0  0  0  0  0  0  0  0  0  0
  -26.2792   -1.5782  -14.4396 C   0  0  0  0  0  0  0  0  0  0  0  0
  -24.9616   -1.1288  -14.4469 C   0  0  0  0  0  0  0  0  0  0  0  0
  -24.2591   -0.9542  -13.2473 C   0  0  0  0  0  0  0  0  0  0  0  0
  -24.8977   -1.2049  -12.0287 C   0  0  0  0  0  0  0  0  0  0  0  0
  -26.2234   -1.6702  -12.0158 C   0  0  0  0  0  0  0  0  0  0  0  0
  -26.8418   -1.9582  -10.7541 C   0  0  0  0  0  0  0  0  0  0  0  0
  -27.3484   -2.2279   -9.6981 C   0  0  0  0  0  0  0  0  0  0  0  0
  -27.9494   -2.5772   -8.4442 C   0  0  0  0  0  0  0  0  0  0  0  0
  -28.2083   -3.8990   -8.1211 C   0  0  0  0  0  0  0  0  0  0  0  0
  -28.7758   -4.2939   -6.9624 N   0  0  0  0  0  0  0  0  0  0  0  0
  -29.0532   -3.3147   -6.0627 C   0  0  0  0  0  0  0  0  0  0  0  0
  -28.7839   -1.9576   -6.2534 C   0  0  0  0  0  0  0  0  0  0  0  0
  -28.2623   -1.5995   -7.5018 C   0  0  0  0  0  0  0  0  0  0  0  0
  -28.9504   -0.9562   -5.2994 N   0  0  0  0  0  0  0  0  0  0  0  0
  -28.5397   -1.1863   -4.3967 H   0  0  0  0  0  0  0  0  0  0  0  0
  -28.9560    0.4615   -5.6599 C   0  0  0  0  0  0  0  0  0  0  0  0
  -30.3857    1.0079   -5.5813 C   0  0  0  0  0  0  0  0  0  0  0  0
  -28.0852    1.2252   -4.6580 C   0  0  0  0  0  0  0  0  0  0  0  0
  -21.0397    0.1797  -14.9173 C   0  0  0  0  0  0  0  0  0  0  0  0
  -19.9553   -0.5952  -15.3308 C   0  0  0  0  0  0  0  0  0  0  0  0
  -18.6912   -0.0325  -15.4776 C   0  0  0  0  0  0  0  0  0  0  0  0
  -18.4633    1.3270  -15.2125 C   0  0  0  0  0  0  0  0  0  0  0  0
  -19.5582    2.1441  -14.8518 C   0  0  0  0  0  0  0  0  0  0  0  0
  -20.8418    1.5517  -14.7362 C   0  0  0  0  0  0  0  0  0  0  0  0
  -19.4393    3.6216  -14.5120 C   0  0  0  0  0  0  0  0  0  0  0  0
  -18.9278    4.4486  -15.4609 F   0  0  0  0  0  0  0  0  0  0  0  0
  -20.6630    4.1596  -14.2245 F   0  0  0  0  0  0  0  0  0  0  0  0
  -18.6902    3.8256  -13.3938 F   0  0  0  0  0  0  0  0  0  0  0  0
  -17.0370    1.8278  -15.2870 C   0  0  0  0  0  0  0  0  0  0  0  0
  -16.0533    0.7772  -15.0287 N   0  0  0  0  0  0  0  0  0  0  0  0
  -14.8024    0.9019  -15.7913 C   0  0  0  0  0  0  0  0  0  0  0  0
  -13.8551   -0.2846  -15.4887 C   0  0  0  0  0  0  0  0  0  0  0  0
  -13.5310   -0.4695  -14.0598 N   0  0  0  0  0  0  0  0  0  0  0  0
  -12.6203    0.5685  -13.5856 C   0  0  0  0  0  0  0  0  0  0  0  0
  -14.7859   -0.4919  -13.2802 C   0  0  0  0  0  0  0  0  0  0  0  0
  -15.7681    0.6630  -13.5885 C   0  0  0  0  0  0  0  0  0  0  0  0
  5  6  1  0  0  0
  6  7  1  0  0  0
  6 11  2  0  0  0
  7  8  2  0  0  0
  8  9  1  0  0  0
  9  1  1  0  0  0
  9 10  2  0  0  0
  1  2  2  0  0  0
  1  3  1  0  0  0
  3 25  1  0  0  0
  3  4  1  0  0  0
 25 26  1  0  0  0
 25 30  2  0  0  0
 26 27  2  0  0  0
 27 28  1  0  0  0
 28 35  1  0  0  0
 28 29  2  0  0  0
 35 36  1  0  0  0
 36 37  1  0  0  0
 36 42  1  0  0  0
 37 38  1  0  0  0
 38 39  1  0  0  0
 39 40  1  0  0  0
 39 41  1  0  0  0
 41 42  1  0  0  0
 29 31  1  0  0  0
 29 30  1  0  0  0
 31 32  1  0  0  0
 31 33  1  0  0  0
 31 34  1  0  0  0
 10 11  1  0  0  0
 11 12  1  0  0  0
 12 13  3  0  0  0
 13 14  1  0  0  0
 14 15  1  0  0  0
 14 19  2  0  0  0
 15 16  2  0  0  0
 16 17  1  0  0  0
 17 18  2  0  0  0
 18 20  1  0  0  0
 18 19  1  0  0  0
 20 22  1  0  0  0
 20 21  1  0  0  0
 22 23  1  0  0  0
 22 24  1  0  0  0
M  END
> <minimizedAffinity>
-10.29259

$$$$
