CHEMBL1975500


 39 42  0  0  0  0  0  0  0  0999 V2000
  -15.1004   -1.1823  -13.2526 C   0  0  0  0  0  0  0  0  0  0  0  0
  -16.0377   -1.6403  -12.3164 C   0  0  0  0  0  0  0  0  0  0  0  0
  -15.8205   -2.8155  -11.6031 C   0  0  0  0  0  0  0  0  0  0  0  0
  -14.6778   -3.5883  -11.8429 C   0  0  0  0  0  0  0  0  0  0  0  0
  -13.7123   -3.1705  -12.7533 C   0  0  0  0  0  0  0  0  0  0  0  0
  -13.9354   -1.9607  -13.4397 C   0  0  0  0  0  0  0  0  0  0  0  0
  -12.5983   -3.9544  -13.0950 N   0  0  0  0  0  0  0  0  0  0  0  0
  -12.6740   -5.3075  -13.4890 C   0  0  0  0  0  0  0  0  0  0  0  0
  -11.7826   -5.7497  -14.4834 C   0  0  0  0  0  0  0  0  0  0  0  0
  -11.8391   -7.0565  -14.9764 C   0  0  0  0  0  0  0  0  0  0  0  0
  -12.7978   -7.9482  -14.4944 C   0  0  0  0  0  0  0  0  0  0  0  0
  -13.6496   -7.5442  -13.4643 C   0  0  0  0  0  0  0  0  0  0  0  0
  -13.5759   -6.2396  -12.9426 C   0  0  0  0  0  0  0  0  0  0  0  0
  -14.3427   -6.0125  -11.7881 N   0  0  0  0  0  0  0  0  0  0  0  0
  -14.5907   -4.8551  -11.1062 C   0  0  0  0  0  0  0  0  0  0  0  0
  -14.9441   -4.8996   -9.9279 O   0  0  0  0  0  0  0  0  0  0  0  0
  -11.8797   -3.4335  -13.5916 H   0  0  0  0  0  0  0  0  0  0  0  0
  -14.6616   -6.8243  -11.2752 H   0  0  0  0  0  0  0  0  0  0  0  0
  -16.8485    1.5517  -15.2527 C   0  0  0  0  0  0  0  0  0  0  0  0
  -16.6187    0.3967  -14.4949 C   0  0  0  0  0  0  0  0  0  0  0  0
  -15.3354    0.0636  -14.0181 C   0  0  0  0  0  0  0  0  0  0  0  0
  -14.2868    0.9588  -14.2953 C   0  0  0  0  0  0  0  0  0  0  0  0
  -14.5010    2.1234  -15.0346 C   0  0  0  0  0  0  0  0  0  0  0  0
  -15.7740    2.4077  -15.5153 C   0  0  0  0  0  0  0  0  0  0  0  0
  -15.9827    3.5395  -16.2576 O   0  0  0  0  0  0  0  0  0  0  0  0
  -15.1382    4.0039  -16.3693 H   0  0  0  0  0  0  0  0  0  0  0  0
  -19.2000    1.7679  -14.9257 C   0  0  0  0  0  0  0  0  0  0  0  0
  -18.0650    1.9171  -15.7674 O   0  0  0  0  0  0  0  0  0  0  0  0
  -12.8306   -9.3176  -15.0539 C   0  0  0  0  0  0  0  0  0  0  0  0
  -12.5405  -10.2802  -14.3504 O   0  0  0  0  0  0  0  0  0  0  0  0
  -13.1736   -9.4387  -16.3884 N   0  0  0  0  0  0  0  0  0  0  0  0
  -13.3766   -8.6272  -16.9540 H   0  0  0  0  0  0  0  0  0  0  0  0
  -13.2164  -10.7337  -17.0520 C   0  0  0  0  0  0  0  0  0  0  0  0
  -14.2781  -10.7838  -18.1573 C   0  0  0  0  0  0  0  0  0  0  0  0
  -13.7520  -10.4994  -19.4865 N   0  0  0  0  0  0  0  0  0  0  0  0
  -13.5335   -9.2143  -19.9210 C   0  0  0  0  0  0  0  0  0  0  0  0
  -12.9117   -9.1130  -21.2883 C   0  0  0  0  0  0  0  0  0  0  0  0
  -13.8368   -8.2180  -19.2735 O   0  0  0  0  0  0  0  0  0  0  0  0
  -13.3776  -11.2755  -20.0161 H   0  0  0  0  0  0  0  0  0  0  0  0
 27 28  1  0  0  0
 28 19  1  0  0  0
 19 20  1  0  0  0
 19 24  2  0  0  0
 20 21  2  0  0  0
 21  1  1  0  0  0
 21 22  1  0  0  0
  1  2  1  0  0  0
  1  6  2  0  0  0
  2  3  2  0  0  0
  3  4  1  0  0  0
  4  5  2  0  0  0
  4 15  1  0  0  0
  5  6  1  0  0  0
  5  7  1  0  0  0
  7  8  1  0  0  0
  7 17  1  0  0  0
  8  9  1  0  0  0
  8 13  2  0  0  0
  9 10  2  0  0  0
 10 11  1  0  0  0
 11 29  1  0  0  0
 11 12  2  0  0  0
 29 30  2  0  0  0
 29 31  1  0  0  0
 31 33  1  0  0  0
 31 32  1  0  0  0
 33 34  1  0  0  0
 34 35  1  0  0  0
 35 36  1  0  0  0
 35 39  1  0  0  0
 36 37  1  0  0  0
 36 38  2  0  0  0
 12 13  1  0  0  0
 13 14  1  0  0  0
 14 15  1  0  0  0
 14 18  1  0  0  0
 15 16  2  0  0  0
 22 23  2  0  0  0
 23 24  1  0  0  0
 24 25  1  0  0  0
 25 26  1  0  0  0
M  END
> <minimizedAffinity>
-7.43896

$$$$
