CHEMBL3915235


 36 40  0  0  0  0  0  0  0  0999 V2000
  -13.7455   -2.9149  -13.9685 C   0  0  0  0  0  0  0  0  0  0  0  0
  -12.3828   -2.8859  -13.6745 C   0  0  0  0  0  0  0  0  0  0  0  0
  -11.8016   -1.6981  -13.2880 C   0  0  0  0  0  0  0  0  0  0  0  0
  -12.4669   -0.5010  -13.4020 C   0  0  0  0  0  0  0  0  0  0  0  0
  -11.8950    0.5323  -12.7962 N   0  0  0  0  0  0  0  0  0  0  0  0
  -12.3676    1.7386  -13.1172 C   0  0  0  0  0  0  0  0  0  0  0  0
  -13.2988    1.9090  -14.1229 C   0  0  0  0  0  0  0  0  0  0  0  0
  -14.0305    0.8437  -14.5952 N   0  0  0  0  0  0  0  0  0  0  0  0
  -13.6613   -0.4239  -14.1627 C   0  0  0  0  0  0  0  0  0  0  0  0
  -14.3366   -1.6838  -14.3492 C   0  0  0  0  0  0  0  0  0  0  0  0
  -13.0995    3.1097  -14.9284 C   0  0  0  0  0  0  0  0  0  0  0  0
  -12.6612    4.4223  -14.6628 C   0  0  0  0  0  0  0  0  0  0  0  0
  -12.5346    5.1652  -15.7754 N   0  0  0  0  0  0  0  0  0  0  0  0
  -12.9026    4.3262  -16.7641 N   0  0  0  0  0  0  0  0  0  0  0  0
  -13.1044    3.0534  -16.3169 C   0  0  0  0  0  0  0  0  0  0  0  0
  -13.1484    4.8097  -18.1175 C   0  0  0  0  0  0  0  0  0  0  0  0
  -14.5387    5.4739  -18.2713 C   0  0  0  0  0  0  0  0  0  0  0  0
  -14.4346    6.9236  -18.7566 C   0  0  0  0  0  0  0  0  0  0  0  0
  -15.4064    4.6662  -19.2445 C   0  0  0  0  0  0  0  0  0  0  0  0
  -15.2493    5.4462  -17.0233 O   0  0  0  0  0  0  0  0  0  0  0  0
  -14.9809    6.2233  -16.4991 H   0  0  0  0  0  0  0  0  0  0  0  0
  -14.4230   -4.1383  -13.6398 N   0  0  0  0  0  0  0  0  0  0  0  0
  -13.9062   -7.3756  -15.5144 C   0  0  0  0  0  0  0  0  0  0  0  0
  -13.3426   -8.1689  -14.5306 C   0  0  0  0  0  0  0  0  0  0  0  0
  -13.2301   -7.6773  -13.2288 C   0  0  0  0  0  0  0  0  0  0  0  0
  -13.6257   -6.3605  -12.9316 C   0  0  0  0  0  0  0  0  0  0  0  0
  -14.1177   -5.4973  -13.9166 C   0  0  0  0  0  0  0  0  0  0  0  0
  -14.3292   -6.0816  -15.1895 C   0  0  0  0  0  0  0  0  0  0  0  0
  -13.6097   -6.8498  -17.8041 C   0  0  0  0  0  0  0  0  0  0  0  0
  -14.0994   -7.7569  -16.8181 O   0  0  0  0  0  0  0  0  0  0  0  0
  -12.7404   -8.3934  -12.1680 O   0  0  0  0  0  0  0  0  0  0  0  0
  -12.4296   -9.7614  -12.4153 C   0  0  0  0  0  0  0  0  0  0  0  0
  -15.7869   -3.8466  -13.0858 C   0  0  0  0  0  0  0  0  0  0  0  0
  -15.8311   -3.9627  -11.5824 C   0  0  0  0  0  0  0  0  0  0  0  0
  -15.9460   -2.7017  -10.7518 C   0  0  0  0  0  0  0  0  0  0  0  0
  -14.6769   -3.4997  -10.7276 C   0  0  0  0  0  0  0  0  0  0  0  0
 29 30  1  0  0  0
 30 23  1  0  0  0
 23 24  1  0  0  0
 23 28  2  0  0  0
 24 25  2  0  0  0
 25 31  1  0  0  0
 25 26  1  0  0  0
 31 32  1  0  0  0
 26 27  2  0  0  0
 27 22  1  0  0  0
 27 28  1  0  0  0
 22 33  1  0  0  0
 22  1  1  0  0  0
 33 34  1  0  0  0
 34 35  1  0  0  0
 34 36  1  0  0  0
 35 36  1  0  0  0
  1  2  1  0  0  0
  1 10  2  0  0  0
  2  3  2  0  0  0
  3  4  1  0  0  0
  4  5  1  0  0  0
  4  9  2  0  0  0
  5  6  2  0  0  0
  6  7  1  0  0  0
  7 11  1  0  0  0
  7  8  2  0  0  0
 11 12  1  0  0  0
 11 15  2  0  0  0
 12 13  2  0  0  0
 13 14  1  0  0  0
 14 16  1  0  0  0
 14 15  1  0  0  0
 16 17  1  0  0  0
 17 18  1  0  0  0
 17 19  1  0  0  0
 17 20  1  0  0  0
 20 21  1  0  0  0
  8  9  1  0  0  0
  9 10  1  0  0  0
M  END
> <minimizedAffinity>
-6.45759

$$$$
