CHEMBL3656096


 37 40  0  0  0  0  0  0  0  0999 V2000
  -24.7788   -1.4860  -12.8404 C   0  0  0  0  0  0  0  0  0  0  0  0
  -26.0803   -1.4906  -13.3523 C   0  0  0  0  0  0  0  0  0  0  0  0
  -27.1762   -1.6404  -12.4939 C   0  0  0  0  0  0  0  0  0  0  0  0
  -26.9836   -1.7772  -11.1159 C   0  0  0  0  0  0  0  0  0  0  0  0
  -25.6851   -1.8293  -10.6060 C   0  0  0  0  0  0  0  0  0  0  0  0
  -24.5994   -1.6790  -11.4692 C   0  0  0  0  0  0  0  0  0  0  0  0
  -23.3593   -1.6564  -10.9552 F   0  0  0  0  0  0  0  0  0  0  0  0
  -21.9475   -0.0079  -14.5911 N   0  0  0  0  0  0  0  0  0  0  0  0
  -23.0478   -0.0222  -13.7462 C   0  0  0  0  0  0  0  0  0  0  0  0
  -23.4584    0.9382  -13.1001 O   0  0  0  0  0  0  0  0  0  0  0  0
  -23.6390   -1.2757  -13.6639 N   0  0  0  0  0  0  0  0  0  0  0  0
  -21.8530   -0.7899  -15.2237 H   0  0  0  0  0  0  0  0  0  0  0  0
  -22.9923   -2.0538  -13.7070 H   0  0  0  0  0  0  0  0  0  0  0  0
  -17.3422    1.5714  -15.5870 C   0  0  0  0  0  0  0  0  0  0  0  0
  -18.7750    1.8511  -15.2395 C   0  0  0  0  0  0  0  0  0  0  0  0
  -19.1975    3.1752  -15.0762 C   0  0  0  0  0  0  0  0  0  0  0  0
  -20.5179    3.4518  -14.7583 C   0  0  0  0  0  0  0  0  0  0  0  0
  -21.4319    2.4118  -14.5943 C   0  0  0  0  0  0  0  0  0  0  0  0
  -21.0470    1.0744  -14.7582 C   0  0  0  0  0  0  0  0  0  0  0  0
  -19.7055    0.8050  -15.0790 C   0  0  0  0  0  0  0  0  0  0  0  0
  -28.1287   -1.9257  -10.3639 O   0  0  0  0  0  0  0  0  0  0  0  0
  -28.0577   -1.9706   -8.9893 C   0  0  0  0  0  0  0  0  0  0  0  0
  -27.7607   -0.8765   -8.1842 C   0  0  0  0  0  0  0  0  0  0  0  0
  -27.7165   -1.0730   -6.8159 C   0  0  0  0  0  0  0  0  0  0  0  0
  -27.9873   -2.2516   -6.2141 N   0  0  0  0  0  0  0  0  0  0  0  0
  -28.3343   -3.2873   -7.0149 C   0  0  0  0  0  0  0  0  0  0  0  0
  -28.3851   -3.1896   -8.3977 C   0  0  0  0  0  0  0  0  0  0  0  0
  -28.6521   -4.5183   -6.2912 C   0  0  0  0  0  0  0  0  0  0  0  0
  -29.1834   -4.7603   -5.0339 C   0  0  0  0  0  0  0  0  0  0  0  0
  -29.2893   -6.1741   -4.8324 C   0  0  0  0  0  0  0  0  0  0  0  0
  -28.7978   -6.7475   -5.9963 C   0  0  0  0  0  0  0  0  0  0  0  0
  -28.4208   -5.7537   -6.8552 N   0  0  0  0  0  0  0  0  0  0  0  0
  -28.0249   -5.8740   -7.7800 H   0  0  0  0  0  0  0  0  0  0  0  0
  -29.7810   -6.9488   -3.6957 C   0  0  0  0  0  0  0  0  0  0  0  0
  -29.2565   -7.9776   -3.2959 O   0  0  0  0  0  0  0  0  0  0  0  0
  -30.8904   -6.4446   -3.0932 O   0  0  0  0  0  0  0  0  0  0  0  0
  -31.2093   -5.6308   -3.5080 H   0  0  0  0  0  0  0  0  0  0  0  0
 14 15  1  0  0  0
 15 16  1  0  0  0
 15 20  2  0  0  0
 16 17  2  0  0  0
 17 18  1  0  0  0
 18 19  2  0  0  0
 19  8  1  0  0  0
 19 20  1  0  0  0
  8  9  1  0  0  0
  8 12  1  0  0  0
  9 10  2  0  0  0
  9 11  1  0  0  0
 11  1  1  0  0  0
 11 13  1  0  0  0
  1  2  1  0  0  0
  1  6  2  0  0  0
  2  3  2  0  0  0
  3  4  1  0  0  0
  4 21  1  0  0  0
  4  5  2  0  0  0
 21 22  1  0  0  0
 22 23  1  0  0  0
 22 27  2  0  0  0
 23 24  2  0  0  0
 24 25  1  0  0  0
 25 26  2  0  0  0
 26 28  1  0  0  0
 26 27  1  0  0  0
 28 29  2  0  0  0
 28 32  1  0  0  0
 29 30  1  0  0  0
 30 34  1  0  0  0
 30 31  2  0  0  0
 34 35  2  0  0  0
 34 36  1  0  0  0
 36 37  1  0  0  0
 31 32  1  0  0  0
 32 33  1  0  0  0
  5  6  1  0  0  0
  6  7  1  0  0  0
M  END
> <minimizedAffinity>
-11.74531

$$$$
