CHEMBL233821


 27 30  0  0  0  0  0  0  0  0999 V2000
  -14.5638   -1.0741  -12.5629 O   0  0  0  0  0  0  0  0  0  0  0  0
  -15.5555   -1.1540  -13.2778 C   0  0  0  0  0  0  0  0  0  0  0  0
  -16.1183   -2.3132  -13.7640 N   0  0  0  0  0  0  0  0  0  0  0  0
  -16.8919   -2.1443  -14.4060 H   0  0  0  0  0  0  0  0  0  0  0  0
  -15.8401   -3.6639  -13.4612 C   0  0  0  0  0  0  0  0  0  0  0  0
  -16.3663   -4.3368  -12.3563 C   0  0  0  0  0  0  0  0  0  0  0  0
  -16.0920   -5.6989  -12.1217 C   0  0  0  0  0  0  0  0  0  0  0  0
  -15.2714   -6.3645  -13.0402 C   0  0  0  0  0  0  0  0  0  0  0  0
  -14.8195   -7.6557  -13.1047 N   0  0  0  0  0  0  0  0  0  0  0  0
  -14.0484   -7.9145  -14.1826 N   0  0  0  0  0  0  0  0  0  0  0  0
  -14.0005   -6.7409  -14.8147 C   0  0  0  0  0  0  0  0  0  0  0  0
  -14.7345   -5.7291  -14.1556 C   0  0  0  0  0  0  0  0  0  0  0  0
  -15.0164   -4.3661  -14.3635 C   0  0  0  0  0  0  0  0  0  0  0  0
  -14.9968   -8.4097  -12.4479 H   0  0  0  0  0  0  0  0  0  0  0  0
  -16.3011    0.0953  -13.7178 C   0  0  0  0  0  0  0  0  0  0  0  0
  -13.4117   -0.1013  -16.7299 C   0  0  0  0  0  0  0  0  0  0  0  0
  -14.5911    0.7212  -16.7700 C   0  0  0  0  0  0  0  0  0  0  0  0
  -14.8394    0.8398  -15.4394 N   0  0  0  0  0  0  0  0  0  0  0  0
  -16.1487    0.9724  -15.0805 N   0  0  0  0  0  0  0  0  0  0  0  0
  -16.8323    2.2577  -14.8903 C   0  0  0  0  0  0  0  0  0  0  0  0
  -17.9301    2.6397  -15.8736 C   0  0  0  0  0  0  0  0  0  0  0  0
  -19.2947    2.2856  -15.3068 C   0  0  0  0  0  0  0  0  0  0  0  0
  -20.1797    3.2880  -14.8983 C   0  0  0  0  0  0  0  0  0  0  0  0
  -21.4030    2.9241  -14.3504 C   0  0  0  0  0  0  0  0  0  0  0  0
  -21.7982    1.6410  -14.1818 N   0  0  0  0  0  0  0  0  0  0  0  0
  -20.9330    0.6865  -14.5715 C   0  0  0  0  0  0  0  0  0  0  0  0
  -19.6910    0.9561  -15.1339 C   0  0  0  0  0  0  0  0  0  0  0  0
  1  2  2  0  0  0
  2  3  1  0  0  0
  2 15  1  0  0  0
  3  5  1  0  0  0
  3  4  1  0  0  0
  5  6  1  0  0  0
  5 13  2  0  0  0
  6  7  2  0  0  0
  7  8  1  0  0  0
  8  9  1  0  0  0
  8 12  2  0  0  0
  9 10  1  0  0  0
  9 14  1  0  0  0
 10 11  2  0  0  0
 11 12  1  0  0  0
 12 13  1  0  0  0
 15 16  2  0  0  0
 15 19  1  0  0  0
 16 17  1  0  0  0
 17 18  2  0  0  0
 18 19  1  0  0  0
 19 20  1  0  0  0
 20 21  1  0  0  0
 21 22  1  0  0  0
 22 23  1  0  0  0
 22 27  2  0  0  0
 23 24  2  0  0  0
 24 25  1  0  0  0
 25 26  2  0  0  0
 26 27  1  0  0  0
M  END
> <minimizedAffinity>
-8.09824

$$$$
