CHEMBL3656077


 49 52  0  0  0  0  0  0  0  0999 V2000
  -22.2404    0.4704  -14.1815 C   0  0  0  0  0  0  0  0  0  0  0  0
  -23.0244    1.5500  -13.7867 C   0  0  0  0  0  0  0  0  0  0  0  0
  -22.5022    2.8205  -13.9372 C   0  0  0  0  0  0  0  0  0  0  0  0
  -21.2580    3.0747  -14.3971 N   0  0  0  0  0  0  0  0  0  0  0  0
  -20.4879    2.0046  -14.7155 C   0  0  0  0  0  0  0  0  0  0  0  0
  -20.9362    0.6926  -14.6187 C   0  0  0  0  0  0  0  0  0  0  0  0
  -19.1445    2.3538  -15.1724 C   0  0  0  0  0  0  0  0  0  0  0  0
  -18.0386    1.5942  -15.5097 C   0  0  0  0  0  0  0  0  0  0  0  0
  -16.9657    2.4621  -15.8920 C   0  0  0  0  0  0  0  0  0  0  0  0
  -17.4713    3.7472  -15.7829 C   0  0  0  0  0  0  0  0  0  0  0  0
  -18.7714    3.6682  -15.3542 N   0  0  0  0  0  0  0  0  0  0  0  0
  -19.3984    4.4445  -15.1811 H   0  0  0  0  0  0  0  0  0  0  0  0
  -15.6252    2.0418  -16.3075 C   0  0  0  0  0  0  0  0  0  0  0  0
  -14.8870    2.7615  -16.9657 O   0  0  0  0  0  0  0  0  0  0  0  0
  -15.2542    0.7808  -15.9077 N   0  0  0  0  0  0  0  0  0  0  0  0
  -15.8946    0.1926  -15.3901 H   0  0  0  0  0  0  0  0  0  0  0  0
  -13.9713    0.2049  -16.2562 C   0  0  0  0  0  0  0  0  0  0  0  0
  -12.9807    0.4770  -15.1231 C   0  0  0  0  0  0  0  0  0  0  0  0
  -12.7185   -0.3630  -14.2616 O   0  0  0  0  0  0  0  0  0  0  0  0
  -12.3899    1.7223  -15.1520 N   0  0  0  0  0  0  0  0  0  0  0  0
  -12.8368    2.4669  -15.6791 H   0  0  0  0  0  0  0  0  0  0  0  0
  -11.4844    2.1181  -14.0852 C   0  0  0  0  0  0  0  0  0  0  0  0
  -12.2043    2.8938  -12.9791 C   0  0  0  0  0  0  0  0  0  0  0  0
  -12.8072    1.9548  -12.0751 O   0  0  0  0  0  0  0  0  0  0  0  0
  -12.1386    1.7127  -11.4082 H   0  0  0  0  0  0  0  0  0  0  0  0
  -11.2284    3.8225  -12.2416 C   0  0  0  0  0  0  0  0  0  0  0  0
  -11.6355    4.0373  -10.8933 O   0  0  0  0  0  0  0  0  0  0  0  0
  -12.5731    4.2985  -10.8978 H   0  0  0  0  0  0  0  0  0  0  0  0
  -22.6584   -0.8430  -14.1149 O   0  0  0  0  0  0  0  0  0  0  0  0
  -26.0561   -1.8813  -11.9036 C   0  0  0  0  0  0  0  0  0  0  0  0
  -26.1882   -1.5955  -13.2671 C   0  0  0  0  0  0  0  0  0  0  0  0
  -25.0717   -1.2620  -14.0348 C   0  0  0  0  0  0  0  0  0  0  0  0
  -23.8169   -1.1543  -13.4334 C   0  0  0  0  0  0  0  0  0  0  0  0
  -23.6829   -1.4399  -12.0705 C   0  0  0  0  0  0  0  0  0  0  0  0
  -24.8034   -1.7782  -11.2975 C   0  0  0  0  0  0  0  0  0  0  0  0
  -28.2793   -2.6984   -9.1616 N   0  0  0  0  0  0  0  0  0  0  0  0
  -27.2004   -2.1023   -9.7879 C   0  0  0  0  0  0  0  0  0  0  0  0
  -26.3750   -1.3827   -9.2397 O   0  0  0  0  0  0  0  0  0  0  0  0
  -27.1728   -2.3475  -11.1619 N   0  0  0  0  0  0  0  0  0  0  0  0
  -28.9839   -3.1114   -9.7533 H   0  0  0  0  0  0  0  0  0  0  0  0
  -28.0716   -2.2553  -11.6122 H   0  0  0  0  0  0  0  0  0  0  0  0
  -28.0291    0.0078   -5.0183 C   0  0  0  0  0  0  0  0  0  0  0  0
  -28.4112   -1.2641   -5.7195 C   0  0  0  0  0  0  0  0  0  0  0  0
  -28.9545   -2.3225   -4.9848 C   0  0  0  0  0  0  0  0  0  0  0  0
  -29.3412   -3.4886   -5.6320 C   0  0  0  0  0  0  0  0  0  0  0  0
  -29.1719   -3.6142   -7.0081 C   0  0  0  0  0  0  0  0  0  0  0  0
  -29.7034   -4.7094   -7.5643 F   0  0  0  0  0  0  0  0  0  0  0  0
  -28.5676   -2.6011   -7.7697 C   0  0  0  0  0  0  0  0  0  0  0  0
  -28.2227   -1.4084   -7.1102 C   0  0  0  0  0  0  0  0  0  0  0  0
 42 43  1  0  0  0
 43 44  1  0  0  0
 43 49  2  0  0  0
 44 45  2  0  0  0
 45 46  1  0  0  0
 46 47  1  0  0  0
 46 48  2  0  0  0
 48 36  1  0  0  0
 48 49  1  0  0  0
 36 37  1  0  0  0
 36 40  1  0  0  0
 37 38  2  0  0  0
 37 39  1  0  0  0
 39 30  1  0  0  0
 39 41  1  0  0  0
 30 31  1  0  0  0
 30 35  2  0  0  0
 31 32  2  0  0  0
 32 33  1  0  0  0
 33 29  1  0  0  0
 33 34  2  0  0  0
 29  1  1  0  0  0
  1  2  1  0  0  0
  1  6  2  0  0  0
  2  3  2  0  0  0
  3  4  1  0  0  0
  4  5  2  0  0  0
  5  7  1  0  0  0
  5  6  1  0  0  0
  7  8  2  0  0  0
  7 11  1  0  0  0
  8  9  1  0  0  0
  9 13  1  0  0  0
  9 10  2  0  0  0
 13 14  2  0  0  0
 13 15  1  0  0  0
 15 17  1  0  0  0
 15 16  1  0  0  0
 17 18  1  0  0  0
 18 19  2  0  0  0
 18 20  1  0  0  0
 20 22  1  0  0  0
 20 21  1  0  0  0
 22 23  1  0  0  0
 23 24  1  0  0  0
 23 26  1  0  0  0
 24 25  1  0  0  0
 26 27  1  0  0  0
 27 28  1  0  0  0
 10 11  1  0  0  0
 11 12  1  0  0  0
 34 35  1  0  0  0
M  END
> <minimizedAffinity>
-11.70923

$$$$
