CHEMBL3775840


 25 27  0  0  0  0  0  0  0  0999 V2000
  -15.0362   -6.9315  -12.8734 C   0  0  0  0  0  0  0  0  0  0  0  0
  -15.1802   -6.2707  -11.6454 C   0  0  0  0  0  0  0  0  0  0  0  0
  -15.3834   -4.9034  -11.5584 C   0  0  0  0  0  0  0  0  0  0  0  0
  -15.4276   -4.3599  -10.3406 N   0  0  0  0  0  0  0  0  0  0  0  0
  -15.5588   -3.0337  -10.2838 C   0  0  0  0  0  0  0  0  0  0  0  0
  -15.6716   -2.2143  -11.3284 N   0  0  0  0  0  0  0  0  0  0  0  0
  -15.6531   -2.7733  -12.5545 C   0  0  0  0  0  0  0  0  0  0  0  0
  -15.4950   -4.1583  -12.7371 C   0  0  0  0  0  0  0  0  0  0  0  0
  -15.4108   -4.8259  -13.9840 C   0  0  0  0  0  0  0  0  0  0  0  0
  -15.2079   -6.2053  -14.0559 C   0  0  0  0  0  0  0  0  0  0  0  0
  -13.6693   -8.6807  -12.0658 C   0  0  0  0  0  0  0  0  0  0  0  0
  -14.7147   -8.2632  -12.9448 O   0  0  0  0  0  0  0  0  0  0  0  0
  -15.7925   -1.9202  -13.6829 N   0  0  0  0  0  0  0  0  0  0  0  0
  -16.7489   -1.5705  -13.7219 H   0  0  0  0  0  0  0  0  0  0  0  0
  -14.8656   -0.8907  -14.0065 C   0  0  0  0  0  0  0  0  0  0  0  0
  -13.4906   -1.1127  -13.8177 C   0  0  0  0  0  0  0  0  0  0  0  0
  -12.5546   -0.1116  -14.0727 C   0  0  0  0  0  0  0  0  0  0  0  0
  -12.9755    1.1305  -14.5376 C   0  0  0  0  0  0  0  0  0  0  0  0
  -14.3326    1.3592  -14.7677 C   0  0  0  0  0  0  0  0  0  0  0  0
  -14.7362    2.5827  -15.2336 O   0  0  0  0  0  0  0  0  0  0  0  0
  -15.2794    0.3538  -14.5156 C   0  0  0  0  0  0  0  0  0  0  0  0
  -16.9658    0.6468  -14.7967 Cl  0  0  0  0  0  0  0  0  0  0  0  0
  -13.9620    3.1605  -15.3287 H   0  0  0  0  0  0  0  0  0  0  0  0
  -15.1215   -6.6868  -15.3364 O   0  0  0  0  0  0  0  0  0  0  0  0
  -13.8577   -6.5508  -15.9780 C   0  0  0  0  0  0  0  0  0  0  0  0
 11 12  1  0  0  0
 12  1  1  0  0  0
  1  2  1  0  0  0
  1 10  2  0  0  0
  2  3  2  0  0  0
  3  4  1  0  0  0
  3  8  1  0  0  0
  4  5  2  0  0  0
  5  6  1  0  0  0
  6  7  2  0  0  0
  7 13  1  0  0  0
  7  8  1  0  0  0
 13 15  1  0  0  0
 13 14  1  0  0  0
 15 16  1  0  0  0
 15 21  2  0  0  0
 16 17  2  0  0  0
 17 18  1  0  0  0
 18 19  2  0  0  0
 19 20  1  0  0  0
 19 21  1  0  0  0
 20 23  1  0  0  0
 21 22  1  0  0  0
  8  9  2  0  0  0
  9 10  1  0  0  0
 10 24  1  0  0  0
 24 25  1  0  0  0
M  END
> <minimizedAffinity>
-6.83375

$$$$
