CHEMBL3690536


 34 37  0  0  0  0  0  0  0  0999 V2000
  -29.8870   -6.1465   -3.5328 C   0  0  0  0  0  0  0  0  0  0  0  0
  -31.2287   -6.0484   -3.1735 C   0  0  0  0  0  0  0  0  0  0  0  0
  -31.9761   -4.9294   -3.5404 C   0  0  0  0  0  0  0  0  0  0  0  0
  -31.3857   -3.8962   -4.2681 C   0  0  0  0  0  0  0  0  0  0  0  0
  -30.0307   -3.9516   -4.6192 C   0  0  0  0  0  0  0  0  0  0  0  0
  -29.2939   -5.0840   -4.2323 C   0  0  0  0  0  0  0  0  0  0  0  0
  -29.4085   -2.8041   -5.2956 C   0  0  0  0  0  0  0  0  0  0  0  0
  -29.1730   -1.5279   -4.8008 C   0  0  0  0  0  0  0  0  0  0  0  0
  -28.4980   -0.7384   -5.6901 N   0  0  0  0  0  0  0  0  0  0  0  0
  -28.3110   -1.4974   -6.7443 C   0  0  0  0  0  0  0  0  0  0  0  0
  -27.6542   -1.2155   -7.9781 C   0  0  0  0  0  0  0  0  0  0  0  0
  -27.6084   -2.1362   -8.9723 C   0  0  0  0  0  0  0  0  0  0  0  0
  -28.2469   -3.4418   -8.7584 C   0  0  0  0  0  0  0  0  0  0  0  0
  -28.8809   -3.7077   -7.6067 C   0  0  0  0  0  0  0  0  0  0  0  0
  -28.8890   -2.7574   -6.5852 N   0  0  0  0  0  0  0  0  0  0  0  0
  -26.9748   -1.8123  -10.2486 C   0  0  0  0  0  0  0  0  0  0  0  0
  -27.6420   -1.9415  -11.4050 C   0  0  0  0  0  0  0  0  0  0  0  0
  -26.9052   -1.6966  -12.6495 C   0  0  0  0  0  0  0  0  0  0  0  0
  -27.4352   -1.8197  -13.7461 O   0  0  0  0  0  0  0  0  0  0  0  0
  -25.5984   -1.3463  -12.4916 N   0  0  0  0  0  0  0  0  0  0  0  0
  -25.0261   -1.2475  -11.2593 C   0  0  0  0  0  0  0  0  0  0  0  0
  -25.6462   -1.4671  -10.1526 N   0  0  0  0  0  0  0  0  0  0  0  0
  -25.0672   -1.1846  -13.3343 H   0  0  0  0  0  0  0  0  0  0  0  0
  -28.0297   -7.6778   -5.2827 O   0  0  0  0  0  0  0  0  0  0  0  0
  -28.2187   -7.9188   -4.0984 C   0  0  0  0  0  0  0  0  0  0  0  0
  -27.5280   -8.9264   -3.4530 N   0  0  0  0  0  0  0  0  0  0  0  0
  -29.0748   -7.2651   -3.2418 N   0  0  0  0  0  0  0  0  0  0  0  0
  -27.9918   -9.3529   -2.6655 H   0  0  0  0  0  0  0  0  0  0  0  0
  -29.0973   -7.6025   -2.2928 H   0  0  0  0  0  0  0  0  0  0  0  0
  -26.6733   -9.8101   -4.2542 C   0  0  0  0  0  0  0  0  0  0  0  0
  -25.1677   -9.5127   -4.1750 C   0  0  0  0  0  0  0  0  0  0  0  0
  -24.5216  -10.3801   -3.3608 F   0  0  0  0  0  0  0  0  0  0  0  0
  -24.5718   -9.5451   -5.3839 F   0  0  0  0  0  0  0  0  0  0  0  0
  -24.9687   -8.2740   -3.6582 F   0  0  0  0  0  0  0  0  0  0  0  0
 24 25  2  0  0  0
 25 26  1  0  0  0
 25 27  1  0  0  0
 26 30  1  0  0  0
 26 28  1  0  0  0
 30 31  1  0  0  0
 31 32  1  0  0  0
 31 33  1  0  0  0
 31 34  1  0  0  0
 27  1  1  0  0  0
 27 29  1  0  0  0
  1  2  1  0  0  0
  1  6  2  0  0  0
  2  3  2  0  0  0
  3  4  1  0  0  0
  4  5  2  0  0  0
  5  7  1  0  0  0
  5  6  1  0  0  0
  7  8  2  0  0  0
  7 15  1  0  0  0
  8  9  1  0  0  0
  9 10  2  0  0  0
 10 11  1  0  0  0
 10 15  1  0  0  0
 11 12  2  0  0  0
 12 16  1  0  0  0
 12 13  1  0  0  0
 16 17  2  0  0  0
 16 22  1  0  0  0
 17 18  1  0  0  0
 18 19  2  0  0  0
 18 20  1  0  0  0
 20 21  1  0  0  0
 20 23  1  0  0  0
 21 22  2  0  0  0
 13 14  2  0  0  0
 14 15  1  0  0  0
M  END
> <minimizedAffinity>
-9.91033

$$$$
