CHEMBL3956594


 37 40  0  0  0  0  0  0  0  0999 V2000
  -28.2014   -2.0325   -8.2405 C   0  0  0  0  0  0  0  0  0  0  0  0
  -28.5303   -3.3450   -7.8862 C   0  0  0  0  0  0  0  0  0  0  0  0
  -28.5962   -3.7172   -6.5376 C   0  0  0  0  0  0  0  0  0  0  0  0
  -28.3391   -2.7801   -5.5334 C   0  0  0  0  0  0  0  0  0  0  0  0
  -27.9433   -1.4864   -5.8859 C   0  0  0  0  0  0  0  0  0  0  0  0
  -27.8871   -1.1239   -7.2298 C   0  0  0  0  0  0  0  0  0  0  0  0
  -27.5944    0.1462   -7.5515 F   0  0  0  0  0  0  0  0  0  0  0  0
  -27.2240   -1.1132  -11.6215 N   0  0  0  0  0  0  0  0  0  0  0  0
  -27.0303   -1.5876  -10.3362 C   0  0  0  0  0  0  0  0  0  0  0  0
  -25.9650   -2.0122   -9.9037 O   0  0  0  0  0  0  0  0  0  0  0  0
  -28.1941   -1.5805   -9.5863 N   0  0  0  0  0  0  0  0  0  0  0  0
  -28.1461   -0.7770  -11.8618 H   0  0  0  0  0  0  0  0  0  0  0  0
  -29.0478   -1.7612  -10.0993 H   0  0  0  0  0  0  0  0  0  0  0  0
  -24.0383   -0.3032  -13.3613 C   0  0  0  0  0  0  0  0  0  0  0  0
  -24.2822   -0.9224  -14.5773 C   0  0  0  0  0  0  0  0  0  0  0  0
  -25.4142   -1.5923  -14.8638 N   0  0  0  0  0  0  0  0  0  0  0  0
  -26.3529   -1.6534  -13.8870 C   0  0  0  0  0  0  0  0  0  0  0  0
  -26.2265   -1.0675  -12.6275 C   0  0  0  0  0  0  0  0  0  0  0  0
  -25.0329   -0.3862  -12.3702 C   0  0  0  0  0  0  0  0  0  0  0  0
  -21.7702    0.2077  -14.2995 C   0  0  0  0  0  0  0  0  0  0  0  0
  -22.7417    0.4271  -13.1499 C   0  0  0  0  0  0  0  0  0  0  0  0
  -22.1136    0.0348  -12.0024 F   0  0  0  0  0  0  0  0  0  0  0  0
  -22.9270    1.7729  -13.0153 F   0  0  0  0  0  0  0  0  0  0  0  0
  -28.4510   -3.2283   -4.2314 O   0  0  0  0  0  0  0  0  0  0  0  0
  -29.3193   -4.2625   -3.9452 C   0  0  0  0  0  0  0  0  0  0  0  0
  -30.6999   -4.1057   -3.8957 C   0  0  0  0  0  0  0  0  0  0  0  0
  -31.4530   -5.1968   -3.5268 C   0  0  0  0  0  0  0  0  0  0  0  0
  -30.9255   -6.4067   -3.2796 N   0  0  0  0  0  0  0  0  0  0  0  0
  -29.5983   -6.5834   -3.4131 C   0  0  0  0  0  0  0  0  0  0  0  0
  -28.7596   -5.5283   -3.7454 C   0  0  0  0  0  0  0  0  0  0  0  0
  -29.0556   -7.8642   -3.2050 N   0  0  0  0  0  0  0  0  0  0  0  0
  -28.8602   -8.7815   -4.2194 C   0  0  0  0  0  0  0  0  0  0  0  0
  -29.1285   -8.6437   -5.4037 O   0  0  0  0  0  0  0  0  0  0  0  0
  -28.7932   -8.1155   -2.2598 H   0  0  0  0  0  0  0  0  0  0  0  0
  -28.2596  -10.0829   -3.7778 C   0  0  0  0  0  0  0  0  0  0  0  0
  -26.7639  -10.1615   -3.5452 C   0  0  0  0  0  0  0  0  0  0  0  0
  -27.3665  -10.8404   -4.7398 C   0  0  0  0  0  0  0  0  0  0  0  0
 20 21  1  0  0  0
 21 22  1  0  0  0
 21 23  1  0  0  0
 21 14  1  0  0  0
 14 15  1  0  0  0
 14 19  2  0  0  0
 15 16  2  0  0  0
 16 17  1  0  0  0
 17 18  2  0  0  0
 18  8  1  0  0  0
 18 19  1  0  0  0
  8  9  1  0  0  0
  8 12  1  0  0  0
  9 10  2  0  0  0
  9 11  1  0  0  0
 11  1  1  0  0  0
 11 13  1  0  0  0
  1  2  1  0  0  0
  1  6  2  0  0  0
  2  3  2  0  0  0
  3  4  1  0  0  0
  4 24  1  0  0  0
  4  5  2  0  0  0
 24 25  1  0  0  0
 25 26  1  0  0  0
 25 30  2  0  0  0
 26 27  2  0  0  0
 27 28  1  0  0  0
 28 29  2  0  0  0
 29 31  1  0  0  0
 29 30  1  0  0  0
 31 32  1  0  0  0
 31 34  1  0  0  0
 32 33  2  0  0  0
 32 35  1  0  0  0
 35 36  1  0  0  0
 35 37  1  0  0  0
 36 37  1  0  0  0
  5  6  1  0  0  0
  6  7  1  0  0  0
M  END
> <minimizedAffinity>
-9.76846

$$$$
