CHEMBL3759232


 31 33  0  0  0  0  0  0  0  0999 V2000
  -28.8327   -4.8891   -5.6155 C   0  0  0  0  0  0  0  0  0  0  0  0
  -28.4391   -3.5838   -5.2913 C   0  0  0  0  0  0  0  0  0  0  0  0
  -28.1782   -2.6273   -6.2554 C   0  0  0  0  0  0  0  0  0  0  0  0
  -27.8905   -1.3908   -5.8445 N   0  0  0  0  0  0  0  0  0  0  0  0
  -27.6819   -0.4804   -6.7968 C   0  0  0  0  0  0  0  0  0  0  0  0
  -27.7345   -0.7004   -8.1104 N   0  0  0  0  0  0  0  0  0  0  0  0
  -28.0217   -1.9530   -8.5150 C   0  0  0  0  0  0  0  0  0  0  0  0
  -28.2515   -2.9948   -7.6033 C   0  0  0  0  0  0  0  0  0  0  0  0
  -28.5387   -4.3375   -7.9452 C   0  0  0  0  0  0  0  0  0  0  0  0
  -28.8598   -5.2784   -6.9634 C   0  0  0  0  0  0  0  0  0  0  0  0
  -30.4423   -5.6594   -4.0509 C   0  0  0  0  0  0  0  0  0  0  0  0
  -29.1526   -5.8020   -4.6458 O   0  0  0  0  0  0  0  0  0  0  0  0
  -28.1303   -2.2085   -9.9104 N   0  0  0  0  0  0  0  0  0  0  0  0
  -29.0527   -1.9363  -10.2302 H   0  0  0  0  0  0  0  0  0  0  0  0
  -27.1199   -1.9001  -10.8468 C   0  0  0  0  0  0  0  0  0  0  0  0
  -25.8206   -1.5914  -10.4181 C   0  0  0  0  0  0  0  0  0  0  0  0
  -24.8318   -1.2223  -11.3299 C   0  0  0  0  0  0  0  0  0  0  0  0
  -25.1363   -1.1756  -12.6862 C   0  0  0  0  0  0  0  0  0  0  0  0
  -23.8143   -0.6292  -13.9212 Br  0  0  0  0  0  0  0  0  0  0  0  0
  -26.4096   -1.5151  -13.1384 C   0  0  0  0  0  0  0  0  0  0  0  0
  -27.3963   -1.8866  -12.2203 C   0  0  0  0  0  0  0  0  0  0  0  0
  -29.1667   -6.5231   -7.4605 O   0  0  0  0  0  0  0  0  0  0  0  0
  -30.5621   -6.7888   -7.5703 C   0  0  0  0  0  0  0  0  0  0  0  0
  -30.9112   -8.1342   -6.9337 C   0  0  0  0  0  0  0  0  0  0  0  0
  -32.3815   -8.4362   -7.2125 C   0  0  0  0  0  0  0  0  0  0  0  0
  -32.6840   -9.8955   -7.4563 C   0  0  0  0  0  0  0  0  0  0  0  0
  -33.4124  -10.5879   -6.7549 O   0  0  0  0  0  0  0  0  0  0  0  0
  -32.0450  -10.3874   -8.5719 N   0  0  0  0  0  0  0  0  0  0  0  0
  -32.3426  -11.7193   -8.9310 O   0  0  0  0  0  0  0  0  0  0  0  0
  -31.6074   -9.8093   -9.2804 H   0  0  0  0  0  0  0  0  0  0  0  0
  -32.9658  -11.9954   -8.2233 H   0  0  0  0  0  0  0  0  0  0  0  0
 11 12  1  0  0  0
 12  1  1  0  0  0
  1  2  1  0  0  0
  1 10  2  0  0  0
  2  3  2  0  0  0
  3  4  1  0  0  0
  3  8  1  0  0  0
  4  5  2  0  0  0
  5  6  1  0  0  0
  6  7  2  0  0  0
  7 13  1  0  0  0
  7  8  1  0  0  0
 13 15  1  0  0  0
 13 14  1  0  0  0
 15 16  1  0  0  0
 15 21  2  0  0  0
 16 17  2  0  0  0
 17 18  1  0  0  0
 18 19  1  0  0  0
 18 20  2  0  0  0
 20 21  1  0  0  0
  8  9  2  0  0  0
  9 10  1  0  0  0
 10 22  1  0  0  0
 22 23  1  0  0  0
 23 24  1  0  0  0
 24 25  1  0  0  0
 25 26  1  0  0  0
 26 27  2  0  0  0
 26 28  1  0  0  0
 28 29  1  0  0  0
 28 30  1  0  0  0
 29 31  1  0  0  0
M  END
> <minimizedAffinity>
-8.70142

$$$$
