CHEMBL3931674


 37 41  0  0  0  0  0  0  0  0999 V2000
  -29.1486   -8.4125   -5.1714 C   0  0  0  0  0  0  0  0  0  0  0  0
  -30.1548   -7.6492   -5.7198 C   0  0  0  0  0  0  0  0  0  0  0  0
  -29.9476   -6.3393   -5.7951 C   0  0  0  0  0  0  0  0  0  0  0  0
  -28.8002   -5.7136   -5.4140 C   0  0  0  0  0  0  0  0  0  0  0  0
  -28.6557   -4.8076   -6.3115 N   0  0  0  0  0  0  0  0  0  0  0  0
  -28.9558   -3.6091   -5.8998 C   0  0  0  0  0  0  0  0  0  0  0  0
  -28.2839   -3.0896   -4.8833 C   0  0  0  0  0  0  0  0  0  0  0  0
  -27.5822   -4.2211   -4.1535 N   0  0  0  0  0  0  0  0  0  0  0  0
  -27.9518   -5.8684   -4.3908 C   0  0  0  0  0  0  0  0  0  0  0  0
  -28.0840   -7.5762   -4.4539 C   0  0  0  0  0  0  0  0  0  0  0  0
  -28.5409   -1.4465   -5.0014 C   0  0  0  0  0  0  0  0  0  0  0  0
  -27.7295   -0.2781   -5.0571 C   0  0  0  0  0  0  0  0  0  0  0  0
  -28.3636    0.9075   -5.3069 N   0  0  0  0  0  0  0  0  0  0  0  0
  -29.6691    0.6074   -5.4270 N   0  0  0  0  0  0  0  0  0  0  0  0
  -29.8234   -0.7874   -5.2575 C   0  0  0  0  0  0  0  0  0  0  0  0
  -30.6294    1.7244   -5.7122 C   0  0  0  0  0  0  0  0  0  0  0  0
  -30.9543    2.0878   -7.1730 C   0  0  0  0  0  0  0  0  0  0  0  0
  -32.3586    2.1155   -7.4255 O   0  0  0  0  0  0  0  0  0  0  0  0
  -32.6268    2.6578   -8.7175 C   0  0  0  0  0  0  0  0  0  0  0  0
  -29.3096   -9.8446   -5.4361 N   0  0  0  0  0  0  0  0  0  0  0  0
  -29.6533  -11.1000   -9.0243 C   0  0  0  0  0  0  0  0  0  0  0  0
  -30.9448  -11.6157   -8.9661 C   0  0  0  0  0  0  0  0  0  0  0  0
  -31.6154  -11.6470   -7.7472 C   0  0  0  0  0  0  0  0  0  0  0  0
  -31.0839  -10.9863   -6.6404 C   0  0  0  0  0  0  0  0  0  0  0  0
  -29.7808  -10.4921   -6.6161 C   0  0  0  0  0  0  0  0  0  0  0  0
  -29.0433  -10.6619   -7.8241 C   0  0  0  0  0  0  0  0  0  0  0  0
  -28.7538   -9.9904  -12.5713 C   0  0  0  0  0  0  0  0  0  0  0  0
  -29.3560  -10.0906  -11.2567 N   0  0  0  0  0  0  0  0  0  0  0  0
  -28.9686  -11.0762  -10.3654 C   0  0  0  0  0  0  0  0  0  0  0  0
  -28.1351  -11.9306  -10.6521 O   0  0  0  0  0  0  0  0  0  0  0  0
  -30.1129   -9.4627  -11.0274 H   0  0  0  0  0  0  0  0  0  0  0  0
  -32.7833  -12.3165   -7.4978 O   0  0  0  0  0  0  0  0  0  0  0  0
  -33.4784  -11.8608   -6.3462 C   0  0  0  0  0  0  0  0  0  0  0  0
  -29.1053  -10.7084   -4.1792 C   0  0  0  0  0  0  0  0  0  0  0  0
  -27.7860  -11.5029   -3.9921 C   0  0  0  0  0  0  0  0  0  0  0  0
  -26.5538  -10.8459   -3.3354 C   0  0  0  0  0  0  0  0  0  0  0  0
  -26.5001  -11.2254   -4.7770 C   0  0  0  0  0  0  0  0  0  0  0  0
 27 28  1  0  0  0
 28 29  1  0  0  0
 28 31  1  0  0  0
 29 30  2  0  0  0
 29 21  1  0  0  0
 21 22  1  0  0  0
 21 26  2  0  0  0
 22 23  2  0  0  0
 23 32  1  0  0  0
 23 24  1  0  0  0
 32 33  1  0  0  0
 24 25  2  0  0  0
 25 20  1  0  0  0
 25 26  1  0  0  0
 20 34  1  0  0  0
 20  1  1  0  0  0
 34 35  1  0  0  0
 35 36  1  0  0  0
 35 37  1  0  0  0
 36 37  1  0  0  0
  1  2  1  0  0  0
  1 10  2  0  0  0
  2  3  2  0  0  0
  3  4  1  0  0  0
  4  5  1  0  0  0
  4  9  2  0  0  0
  5  6  2  0  0  0
  6  7  1  0  0  0
  7 11  1  0  0  0
  7  8  2  0  0  0
 11 12  1  0  0  0
 11 15  2  0  0  0
 12 13  2  0  0  0
 13 14  1  0  0  0
 14 16  1  0  0  0
 14 15  1  0  0  0
 16 17  1  0  0  0
 17 18  1  0  0  0
 18 19  1  0  0  0
  8  9  1  0  0  0
  9 10  1  0  0  0
M  END
> <minimizedAffinity>
-7.81588

$$$$
