CHEMBL1083092


 33 37  0  0  0  0  0  0  0  0999 V2000
  -26.7540   -1.8293  -11.4878 C   0  0  0  0  0  0  0  0  0  0  0  0
  -27.3465   -2.2421  -12.6995 C   0  0  0  0  0  0  0  0  0  0  0  0
  -26.6796   -1.8384  -13.7795 N   0  0  0  0  0  0  0  0  0  0  0  0
  -25.6316   -1.1213  -13.2748 N   0  0  0  0  0  0  0  0  0  0  0  0
  -24.6205   -0.4628  -14.0271 C   0  0  0  0  0  0  0  0  0  0  0  0
  -24.7496   -0.4979  -15.4156 N   0  0  0  0  0  0  0  0  0  0  0  0
  -23.6094    0.1258  -13.3540 C   0  0  0  0  0  0  0  0  0  0  0  0
  -23.6997    0.0613  -11.8618 C   0  0  0  0  0  0  0  0  0  0  0  0
  -24.6286   -0.5121  -11.1623 N   0  0  0  0  0  0  0  0  0  0  0  0
  -25.6223   -1.1317  -11.8741 C   0  0  0  0  0  0  0  0  0  0  0  0
  -25.3756   -1.2538  -15.7108 H   0  0  0  0  0  0  0  0  0  0  0  0
  -23.8698   -0.4670  -15.9207 H   0  0  0  0  0  0  0  0  0  0  0  0
  -22.4654    0.7953  -13.9786 C   0  0  0  0  0  0  0  0  0  0  0  0
  -22.3709    2.1926  -13.9875 C   0  0  0  0  0  0  0  0  0  0  0  0
  -21.2420    2.8181  -14.5237 C   0  0  0  0  0  0  0  0  0  0  0  0
  -20.2152    2.0413  -15.0523 C   0  0  0  0  0  0  0  0  0  0  0  0
  -19.0860    2.6066  -15.5645 O   0  0  0  0  0  0  0  0  0  0  0  0
  -20.3071    0.6546  -15.0712 C   0  0  0  0  0  0  0  0  0  0  0  0
  -21.4342    0.0290  -14.5379 C   0  0  0  0  0  0  0  0  0  0  0  0
  -19.1548    3.5721  -15.4845 H   0  0  0  0  0  0  0  0  0  0  0  0
  -28.0245   -2.4540   -7.4262 C   0  0  0  0  0  0  0  0  0  0  0  0
  -27.8552   -3.5220   -8.3162 C   0  0  0  0  0  0  0  0  0  0  0  0
  -27.4564   -3.3301   -9.6415 C   0  0  0  0  0  0  0  0  0  0  0  0
  -27.1974   -2.0472  -10.1219 C   0  0  0  0  0  0  0  0  0  0  0  0
  -27.3661   -0.9661   -9.2502 C   0  0  0  0  0  0  0  0  0  0  0  0
  -27.7667   -1.1711   -7.9213 C   0  0  0  0  0  0  0  0  0  0  0  0
  -30.5348   -2.7039   -2.4703 C   0  0  0  0  0  0  0  0  0  0  0  0
  -29.4707   -2.9284   -3.4430 N   0  0  0  0  0  0  0  0  0  0  0  0
  -29.9553   -3.7662   -4.5671 C   0  0  0  0  0  0  0  0  0  0  0  0
  -28.8726   -3.9992   -5.6513 C   0  0  0  0  0  0  0  0  0  0  0  0
  -28.3754   -2.6988   -6.1165 N   0  0  0  0  0  0  0  0  0  0  0  0
  -27.8750   -1.8284   -5.0402 C   0  0  0  0  0  0  0  0  0  0  0  0
  -28.9804   -1.6367   -3.9804 C   0  0  0  0  0  0  0  0  0  0  0  0
 27 28  1  0  0  0
 28 29  1  0  0  0
 28 33  1  0  0  0
 29 30  1  0  0  0
 30 31  1  0  0  0
 31 21  1  0  0  0
 31 32  1  0  0  0
 21 22  1  0  0  0
 21 26  2  0  0  0
 22 23  2  0  0  0
 23 24  1  0  0  0
 24  1  1  0  0  0
 24 25  2  0  0  0
  1  2  1  0  0  0
  1 10  2  0  0  0
  2  3  2  0  0  0
  3  4  1  0  0  0
  4  5  1  0  0  0
  4 10  1  0  0  0
  5  6  1  0  0  0
  5  7  2  0  0  0
  6 11  1  0  0  0
  6 12  1  0  0  0
  7 13  1  0  0  0
  7  8  1  0  0  0
 13 14  1  0  0  0
 13 19  2  0  0  0
 14 15  2  0  0  0
 15 16  1  0  0  0
 16 17  1  0  0  0
 16 18  2  0  0  0
 17 20  1  0  0  0
 18 19  1  0  0  0
  8  9  2  0  0  0
  9 10  1  0  0  0
 25 26  1  0  0  0
 32 33  1  0  0  0
M  END
> <minimizedAffinity>
-9.45264

$$$$
