CHEMBL1241860


 24 26  0  0  0  0  0  0  0  0999 V2000
  -29.7894   -3.3284   -4.9460 N   0  0  0  0  0  0  0  0  0  0  0  0
  -30.0619   -4.5804   -5.3715 N   0  0  0  0  0  0  0  0  0  0  0  0
  -29.4000   -4.6941   -6.5377 C   0  0  0  0  0  0  0  0  0  0  0  0
  -28.7571   -3.4626   -6.8882 C   0  0  0  0  0  0  0  0  0  0  0  0
  -27.9779   -2.9264   -7.9260 C   0  0  0  0  0  0  0  0  0  0  0  0
  -27.6217   -3.5864   -9.0942 N   0  0  0  0  0  0  0  0  0  0  0  0
  -27.5283   -1.6587   -7.8123 N   0  0  0  0  0  0  0  0  0  0  0  0
  -27.8533   -0.9504   -6.7181 C   0  0  0  0  0  0  0  0  0  0  0  0
  -28.6024   -1.3447   -5.6770 N   0  0  0  0  0  0  0  0  0  0  0  0
  -29.0217   -2.6117   -5.8253 C   0  0  0  0  0  0  0  0  0  0  0  0
  -28.3340   -4.1985   -9.4708 H   0  0  0  0  0  0  0  0  0  0  0  0
  -27.2240   -2.9305   -9.7589 H   0  0  0  0  0  0  0  0  0  0  0  0
  -29.4090   -5.9807   -7.2440 C   0  0  0  0  0  0  0  0  0  0  0  0
  -28.2482   -6.4811   -7.8528 C   0  0  0  0  0  0  0  0  0  0  0  0
  -28.2602   -7.7013   -8.5326 C   0  0  0  0  0  0  0  0  0  0  0  0
  -29.4267   -8.4668   -8.5538 C   0  0  0  0  0  0  0  0  0  0  0  0
  -30.5723   -7.9995   -7.9189 C   0  0  0  0  0  0  0  0  0  0  0  0
  -31.6919   -8.7374   -7.9127 F   0  0  0  0  0  0  0  0  0  0  0  0
  -30.5751   -6.7613   -7.2781 C   0  0  0  0  0  0  0  0  0  0  0  0
  -29.4432   -9.7779   -9.2185 C   0  0  0  0  0  0  0  0  0  0  0  0
  -29.3907   -9.8797  -10.4377 O   0  0  0  0  0  0  0  0  0  0  0  0
  -31.3947   -3.7642   -3.1130 C   0  0  0  0  0  0  0  0  0  0  0  0
  -30.2651   -2.8809   -3.6405 C   0  0  0  0  0  0  0  0  0  0  0  0
  -29.1178   -2.8003   -2.6309 C   0  0  0  0  0  0  0  0  0  0  0  0
 22 23  1  0  0  0
 23 24  1  0  0  0
 23  1  1  0  0  0
  1  2  1  0  0  0
  1 10  1  0  0  0
  2  3  2  0  0  0
  3 13  1  0  0  0
  3  4  1  0  0  0
 13 14  1  0  0  0
 13 19  2  0  0  0
 14 15  2  0  0  0
 15 16  1  0  0  0
 16 20  1  0  0  0
 16 17  2  0  0  0
 20 21  2  0  0  0
 17 18  1  0  0  0
 17 19  1  0  0  0
  4  5  1  0  0  0
  4 10  2  0  0  0
  5  6  1  0  0  0
  5  7  2  0  0  0
  6 11  1  0  0  0
  6 12  1  0  0  0
  7  8  1  0  0  0
  8  9  2  0  0  0
  9 10  1  0  0  0
M  END
> <minimizedAffinity>
-7.90063

$$$$
