CHEMBL276711


 20 22  0  0  0  0  0  0  0  0999 V2000
  -16.5966    4.2971  -16.1883 C   0  0  0  0  0  0  0  0  0  0  0  0
  -17.0715    3.0643  -15.9524 C   0  0  0  0  0  0  0  0  0  0  0  0
  -16.3110    1.7590  -16.0299 C   0  0  0  0  0  0  0  0  0  0  0  0
  -15.1729    1.5472  -16.3972 O   0  0  0  0  0  0  0  0  0  0  0  0
  -17.2159    0.7948  -15.6152 N   0  0  0  0  0  0  0  0  0  0  0  0
  -18.4572    1.3480  -15.3271 C   0  0  0  0  0  0  0  0  0  0  0  0
  -19.5806    0.6633  -14.9112 C   0  0  0  0  0  0  0  0  0  0  0  0
  -20.7392    1.4095  -14.6948 C   0  0  0  0  0  0  0  0  0  0  0  0
  -20.7440    2.8023  -14.8973 C   0  0  0  0  0  0  0  0  0  0  0  0
  -19.5876    3.4764  -15.3150 C   0  0  0  0  0  0  0  0  0  0  0  0
  -18.4398    2.7322  -15.5264 C   0  0  0  0  0  0  0  0  0  0  0  0
  -16.9761   -0.1815  -15.5709 H   0  0  0  0  0  0  0  0  0  0  0  0
  -11.9273    5.2452  -15.1325 C   0  0  0  0  0  0  0  0  0  0  0  0
  -13.0913    4.9656  -16.0068 C   0  0  0  0  0  0  0  0  0  0  0  0
  -13.2055    4.9585  -17.3810 C   0  0  0  0  0  0  0  0  0  0  0  0
  -14.5642    4.6923  -17.7117 C   0  0  0  0  0  0  0  0  0  0  0  0
  -15.1406    4.6447  -19.0797 C   0  0  0  0  0  0  0  0  0  0  0  0
  -15.2416    4.5386  -16.5139 C   0  0  0  0  0  0  0  0  0  0  0  0
  -14.3354    4.6897  -15.4927 N   0  0  0  0  0  0  0  0  0  0  0  0
  -14.5604    4.6598  -14.5079 H   0  0  0  0  0  0  0  0  0  0  0  0
 13 14  1  0  0  0
 14 15  2  0  0  0
 14 19  1  0  0  0
 15 16  1  0  0  0
 16 17  1  0  0  0
 16 18  2  0  0  0
 18  1  1  0  0  0
 18 19  1  0  0  0
  1  2  2  0  0  0
  2  3  1  0  0  0
  2 11  1  0  0  0
  3  4  2  0  0  0
  3  5  1  0  0  0
  5  6  1  0  0  0
  5 12  1  0  0  0
  6  7  1  0  0  0
  6 11  2  0  0  0
  7  8  2  0  0  0
  8  9  1  0  0  0
  9 10  2  0  0  0
 10 11  1  0  0  0
 19 20  1  0  0  0
M  END
> <minimizedAffinity>
-7.83042

$$$$
