CHEMBL4533369


 43 47  0  0  0  0  0  0  0  0999 V2000
  -14.0285   -3.9559  -13.0125 C   0  0  0  0  0  0  0  0  0  0  0  0
  -15.3717   -3.6520  -12.9578 C   0  0  0  0  0  0  0  0  0  0  0  0
  -15.8498   -2.3805  -13.2405 C   0  0  0  0  0  0  0  0  0  0  0  0
  -15.0018   -1.3156  -13.5106 C   0  0  0  0  0  0  0  0  0  0  0  0
  -13.6279   -1.5795  -13.5117 C   0  0  0  0  0  0  0  0  0  0  0  0
  -13.1548   -2.8945  -13.2844 C   0  0  0  0  0  0  0  0  0  0  0  0
  -13.5943   -7.8143  -15.1346 N   0  0  0  0  0  0  0  0  0  0  0  0
  -14.2586   -6.6516  -14.7012 C   0  0  0  0  0  0  0  0  0  0  0  0
  -15.1236   -6.0988  -15.3268 O   0  0  0  0  0  0  0  0  0  0  0  0
  -13.6304   -6.3023  -13.3329 C   0  0  0  0  0  0  0  0  0  0  0  0
  -13.5009   -5.2008  -12.6584 N   0  0  0  0  0  0  0  0  0  0  0  0
  -12.9946   -7.5369  -12.9024 C   0  0  0  0  0  0  0  0  0  0  0  0
  -12.5020   -7.8723  -11.6599 C   0  0  0  0  0  0  0  0  0  0  0  0
  -12.0647   -9.1812  -11.4903 C   0  0  0  0  0  0  0  0  0  0  0  0
  -12.1085  -10.0935  -12.5662 C   0  0  0  0  0  0  0  0  0  0  0  0
  -12.5469   -9.6997  -13.8433 C   0  0  0  0  0  0  0  0  0  0  0  0
  -12.9791   -8.3974  -14.0016 C   0  0  0  0  0  0  0  0  0  0  0  0
  -12.8075   -7.5385  -16.3284 C   0  0  0  0  0  0  0  0  0  0  0  0
  -13.9468  -10.8075  -21.0088 C   0  0  0  0  0  0  0  0  0  0  0  0
  -13.7196   -9.9672  -19.7866 C   0  0  0  0  0  0  0  0  0  0  0  0
  -13.6156  -10.5499  -18.5195 C   0  0  0  0  0  0  0  0  0  0  0  0
  -13.3399   -9.7668  -17.3969 C   0  0  0  0  0  0  0  0  0  0  0  0
  -13.1521   -8.3830  -17.5235 C   0  0  0  0  0  0  0  0  0  0  0  0
  -13.3215   -7.7938  -18.7842 C   0  0  0  0  0  0  0  0  0  0  0  0
  -13.5944   -8.5793  -19.9055 C   0  0  0  0  0  0  0  0  0  0  0  0
  -15.5051   -0.0048  -13.7513 N   0  0  0  0  0  0  0  0  0  0  0  0
  -15.0236    0.8329  -14.7502 C   0  0  0  0  0  0  0  0  0  0  0  0
  -14.1213    0.5741  -15.5243 O   0  0  0  0  0  0  0  0  0  0  0  0
  -15.6734    2.0661  -14.7979 N   0  0  0  0  0  0  0  0  0  0  0  0
  -16.2840    0.3013  -13.1868 H   0  0  0  0  0  0  0  0  0  0  0  0
  -15.9005    2.4437  -13.8867 H   0  0  0  0  0  0  0  0  0  0  0  0
  -15.2000    3.0037  -15.7636 C   0  0  0  0  0  0  0  0  0  0  0  0
  -14.0144    3.7179  -15.5250 C   0  0  0  0  0  0  0  0  0  0  0  0
  -13.5769    4.7035  -16.4097 C   0  0  0  0  0  0  0  0  0  0  0  0
  -14.3392    4.9690  -17.5480 C   0  0  0  0  0  0  0  0  0  0  0  0
  -15.5164    4.2604  -17.8039 C   0  0  0  0  0  0  0  0  0  0  0  0
  -15.9392    3.2599  -16.9197 C   0  0  0  0  0  0  0  0  0  0  0  0
  -13.7845    6.1877  -18.6975 S   0  0  0  0  0  0  0  0  0  0  0  0
  -14.7871    7.4632  -18.2546 N   0  0  0  0  0  0  0  0  0  0  0  0
  -12.4355    6.5893  -18.3477 O   0  0  0  0  0  0  0  0  0  0  0  0
  -14.1648    5.8204  -20.0350 O   0  0  0  0  0  0  0  0  0  0  0  0
  -14.2478    8.2454  -17.8926 H   0  0  0  0  0  0  0  0  0  0  0  0
  -15.4400    7.6818  -19.0049 H   0  0  0  0  0  0  0  0  0  0  0  0
 19 20  1  0  0  0
 20 21  1  0  0  0
 20 25  2  0  0  0
 21 22  2  0  0  0
 22 23  1  0  0  0
 23 18  1  0  0  0
 23 24  2  0  0  0
 18  7  1  0  0  0
  7  8  1  0  0  0
  7 17  1  0  0  0
  8  9  2  0  0  0
  8 10  1  0  0  0
 10 11  2  0  0  0
 10 12  1  0  0  0
 11  1  1  0  0  0
  1  2  1  0  0  0
  1  6  2  0  0  0
  2  3  2  0  0  0
  3  4  1  0  0  0
  4 26  1  0  0  0
  4  5  2  0  0  0
 26 27  1  0  0  0
 26 30  1  0  0  0
 27 28  2  0  0  0
 27 29  1  0  0  0
 29 32  1  0  0  0
 29 31  1  0  0  0
 32 33  1  0  0  0
 32 37  2  0  0  0
 33 34  2  0  0  0
 34 35  1  0  0  0
 35 38  1  0  0  0
 35 36  2  0  0  0
 38 39  1  0  0  0
 38 40  2  0  0  0
 38 41  2  0  0  0
 39 42  1  0  0  0
 39 43  1  0  0  0
 36 37  1  0  0  0
  5  6  1  0  0  0
 12 13  1  0  0  0
 12 17  2  0  0  0
 13 14  2  0  0  0
 14 15  1  0  0  0
 15 16  2  0  0  0
 16 17  1  0  0  0
 24 25  1  0  0  0
M  END
> <minimizedAffinity>
-7.99400

$$$$
