CHEMBL3694712


 38 41  0  0  0  0  0  0  0  0999 V2000
  -23.9009   -0.0728  -13.5132 C   0  0  0  0  0  0  0  0  0  0  0  0
  -22.7004   -0.7914  -13.9719 C   0  0  0  0  0  0  0  0  0  0  0  0
  -21.5850   -0.1181  -14.2980 C   0  0  0  0  0  0  0  0  0  0  0  0
  -21.5603    1.2736  -14.1838 N   0  0  0  0  0  0  0  0  0  0  0  0
  -20.5394    2.1918  -14.4026 C   0  0  0  0  0  0  0  0  0  0  0  0
  -21.1512    3.4188  -14.1788 C   0  0  0  0  0  0  0  0  0  0  0  0
  -22.4623    3.2930  -13.8139 N   0  0  0  0  0  0  0  0  0  0  0  0
  -22.6853    1.9995  -13.8032 C   0  0  0  0  0  0  0  0  0  0  0  0
  -23.8674    1.2803  -13.4667 C   0  0  0  0  0  0  0  0  0  0  0  0
  -26.4885   -1.4733  -11.3579 C   0  0  0  0  0  0  0  0  0  0  0  0
  -27.4169   -1.9472  -12.2607 C   0  0  0  0  0  0  0  0  0  0  0  0
  -27.1094   -1.8115  -13.5956 C   0  0  0  0  0  0  0  0  0  0  0  0
  -28.0135   -2.2191  -14.5744 N   0  0  0  0  0  0  0  0  0  0  0  0
  -25.9845   -1.2348  -14.0259 N   0  0  0  0  0  0  0  0  0  0  0  0
  -25.1344   -0.7874  -13.0842 C   0  0  0  0  0  0  0  0  0  0  0  0
  -25.3395   -0.8951  -11.7581 N   0  0  0  0  0  0  0  0  0  0  0  0
  -28.3221   -3.1753  -14.4489 H   0  0  0  0  0  0  0  0  0  0  0  0
  -27.5736   -2.0767  -15.4813 H   0  0  0  0  0  0  0  0  0  0  0  0
  -27.8350   -0.5847   -9.4398 C   0  0  0  0  0  0  0  0  0  0  0  0
  -26.7399   -1.5636   -9.8658 C   0  0  0  0  0  0  0  0  0  0  0  0
  -27.1093   -2.9933   -9.4644 C   0  0  0  0  0  0  0  0  0  0  0  0
  -19.1524    1.9325  -14.8162 C   0  0  0  0  0  0  0  0  0  0  0  0
  -18.4801    2.9192  -15.5527 C   0  0  0  0  0  0  0  0  0  0  0  0
  -17.1626    2.7392  -15.9537 C   0  0  0  0  0  0  0  0  0  0  0  0
  -16.4879    1.5677  -15.6244 C   0  0  0  0  0  0  0  0  0  0  0  0
  -17.1103    0.5731  -14.8682 C   0  0  0  0  0  0  0  0  0  0  0  0
  -18.4447    0.7687  -14.4636 C   0  0  0  0  0  0  0  0  0  0  0  0
  -16.4584   -0.6275  -14.4916 N   0  0  0  0  0  0  0  0  0  0  0  0
  -15.8663   -0.8874  -13.2751 C   0  0  0  0  0  0  0  0  0  0  0  0
  -15.8237   -0.1488  -12.2996 O   0  0  0  0  0  0  0  0  0  0  0  0
  -15.2419   -2.1159  -13.2434 N   0  0  0  0  0  0  0  0  0  0  0  0
  -16.4285   -1.3633  -15.1802 H   0  0  0  0  0  0  0  0  0  0  0  0
  -15.6280   -2.8431  -13.8274 H   0  0  0  0  0  0  0  0  0  0  0  0
  -14.6157   -2.5373  -11.9815 C   0  0  0  0  0  0  0  0  0  0  0  0
  -15.5245   -3.2882  -10.9949 C   0  0  0  0  0  0  0  0  0  0  0  0
  -14.8938   -4.3382  -10.4203 F   0  0  0  0  0  0  0  0  0  0  0  0
  -15.8923   -2.4565   -9.9868 F   0  0  0  0  0  0  0  0  0  0  0  0
  -16.6563   -3.7387  -11.5734 F   0  0  0  0  0  0  0  0  0  0  0  0
 19 20  1  0  0  0
 20 21  1  0  0  0
 20 10  1  0  0  0
 10 11  1  0  0  0
 10 16  2  0  0  0
 11 12  2  0  0  0
 12 13  1  0  0  0
 12 14  1  0  0  0
 13 17  1  0  0  0
 13 18  1  0  0  0
 14 15  2  0  0  0
 15  1  1  0  0  0
 15 16  1  0  0  0
  1  2  1  0  0  0
  1  9  2  0  0  0
  2  3  2  0  0  0
  3  4  1  0  0  0
  4  5  1  0  0  0
  4  8  1  0  0  0
  5 22  1  0  0  0
  5  6  2  0  0  0
 22 23  1  0  0  0
 22 27  2  0  0  0
 23 24  2  0  0  0
 24 25  1  0  0  0
 25 26  2  0  0  0
 26 28  1  0  0  0
 26 27  1  0  0  0
 28 29  1  0  0  0
 28 32  1  0  0  0
 29 30  2  0  0  0
 29 31  1  0  0  0
 31 34  1  0  0  0
 31 33  1  0  0  0
 34 35  1  0  0  0
 35 36  1  0  0  0
 35 37  1  0  0  0
 35 38  1  0  0  0
  6  7  1  0  0  0
  7  8  2  0  0  0
  8  9  1  0  0  0
M  END
> <minimizedAffinity>
-9.30194

$$$$
