CHEMBL4540303


 41 44  0  0  0  0  0  0  0  0999 V2000
  -29.7913   11.4106  -14.4529 C   0  0  0  0  0  0  0  0  0  0  0  0
  -28.5587   11.8594  -13.9752 C   0  0  0  0  0  0  0  0  0  0  0  0
  -28.3310   12.0354  -12.5967 C   0  0  0  0  0  0  0  0  0  0  0  0
  -27.0830   12.3945  -12.0644 C   0  0  0  0  0  0  0  0  0  0  0  0
  -26.8812   12.4789  -10.7335 N   0  0  0  0  0  0  0  0  0  0  0  0
  -27.9436   12.2274   -9.9569 C   0  0  0  0  0  0  0  0  0  0  0  0
  -29.1794   11.9093  -10.3664 N   0  0  0  0  0  0  0  0  0  0  0  0
  -29.3653   11.8021  -11.6863 C   0  0  0  0  0  0  0  0  0  0  0  0
  -30.6163   11.4360  -12.1848 C   0  0  0  0  0  0  0  0  0  0  0  0
  -30.8545   11.2355  -13.5559 C   0  0  0  0  0  0  0  0  0  0  0  0
  -28.7684   10.9379  -16.5490 C   0  0  0  0  0  0  0  0  0  0  0  0
  -29.9542   11.1989  -15.7959 O   0  0  0  0  0  0  0  0  0  0  0  0
  -25.9945   12.6579  -12.9433 N   0  0  0  0  0  0  0  0  0  0  0  0
  -25.1602   12.8495  -12.4009 H   0  0  0  0  0  0  0  0  0  0  0  0
  -25.7284   11.9160  -14.1161 C   0  0  0  0  0  0  0  0  0  0  0  0
  -25.9579   10.5349  -14.1421 C   0  0  0  0  0  0  0  0  0  0  0  0
  -25.5779    9.7646  -15.2383 C   0  0  0  0  0  0  0  0  0  0  0  0
  -24.9591   10.3580  -16.3450 C   0  0  0  0  0  0  0  0  0  0  0  0
  -24.4528    9.4733  -17.4481 C   0  0  0  0  0  0  0  0  0  0  0  0
  -24.8042   11.7529  -16.3542 C   0  0  0  0  0  0  0  0  0  0  0  0
  -24.0180   12.6587  -17.8290 Br  0  0  0  0  0  0  0  0  0  0  0  0
  -25.1955   12.5274  -15.2542 C   0  0  0  0  0  0  0  0  0  0  0  0
  -32.1517   10.8499  -13.8391 O   0  0  0  0  0  0  0  0  0  0  0  0
  -32.9131   11.7491  -14.6416 C   0  0  0  0  0  0  0  0  0  0  0  0
  -34.3437   11.2801  -14.8900 C   0  0  0  0  0  0  0  0  0  0  0  0
  -35.1936   12.2986  -14.3479 O   0  0  0  0  0  0  0  0  0  0  0  0
  -34.8671   12.6571  -13.0125 C   0  0  0  0  0  0  0  0  0  0  0  0
  -35.5890   11.6996  -12.0603 C   0  0  0  0  0  0  0  0  0  0  0  0
  -34.6991   10.6918  -11.5116 N   0  0  0  0  0  0  0  0  0  0  0  0
  -34.7048    9.3952  -11.9777 C   0  0  0  0  0  0  0  0  0  0  0  0
  -35.4631    9.0062  -12.8628 O   0  0  0  0  0  0  0  0  0  0  0  0
  -34.0268   10.9871  -10.8136 H   0  0  0  0  0  0  0  0  0  0  0  0
  -33.6966    8.4752  -11.3332 C   0  0  0  0  0  0  0  0  0  0  0  0
  -34.2992    7.2138  -10.9645 N   0  0  0  0  0  0  0  0  0  0  0  0
  -35.5488    6.7593  -11.2666 C   0  0  0  0  0  0  0  0  0  0  0  0
  -35.7052    5.5402  -10.8003 N   0  0  0  0  0  0  0  0  0  0  0  0
  -34.4888    5.2880  -10.2103 C   0  0  0  0  0  0  0  0  0  0  0  0
  -33.5849    6.2812  -10.2986 N   0  0  0  0  0  0  0  0  0  0  0  0
  -34.1773    4.0315   -9.5423 N   0  0  0  0  0  0  0  0  0  0  0  0
  -32.9787    3.7755   -9.3484 O   0  0  0  0  0  0  0  0  0  0  0  0
  -35.1238    3.2992   -9.2099 O   0  0  0  0  0  0  0  0  0  0  0  0
 11 12  1  0  0  0
 12  1  1  0  0  0
  1  2  1  0  0  0
  1 10  2  0  0  0
  2  3  2  0  0  0
  3  4  1  0  0  0
  3  8  1  0  0  0
  4 13  1  0  0  0
  4  5  2  0  0  0
 13 15  1  0  0  0
 13 14  1  0  0  0
 15 16  1  0  0  0
 15 22  2  0  0  0
 16 17  2  0  0  0
 17 18  1  0  0  0
 18 19  1  0  0  0
 18 20  2  0  0  0
 20 21  1  0  0  0
 20 22  1  0  0  0
  5  6  1  0  0  0
  6  7  2  0  0  0
  7  8  1  0  0  0
  8  9  2  0  0  0
  9 10  1  0  0  0
 10 23  1  0  0  0
 23 24  1  0  0  0
 24 25  1  0  0  0
 25 26  1  0  0  0
 26 27  1  0  0  0
 27 28  1  0  0  0
 28 29  1  0  0  0
 29 30  1  0  0  0
 29 32  1  0  0  0
 30 31  2  0  0  0
 30 33  1  0  0  0
 33 34  1  0  0  0
 34 35  1  0  0  0
 34 38  1  0  0  0
 35 36  2  0  0  0
 36 37  1  0  0  0
 37 39  1  0  0  0
 37 38  2  0  0  0
 39 40  2  0  0  0
 39 41  1  0  0  0
M  CHG 1  39   1
M  CHG 1  41  -1
M  END
> <minimizedAffinity>
-3.42337

$$$$
