CHEMBL3984219


 38 41  0  0  0  0  0  0  0  0999 V2000
  -28.7260   -3.2638   -6.6503 C   0  0  0  0  0  0  0  0  0  0  0  0
  -27.9496   -3.4319   -5.5002 C   0  0  0  0  0  0  0  0  0  0  0  0
  -28.2252   -4.4783   -4.6075 C   0  0  0  0  0  0  0  0  0  0  0  0
  -29.2737   -5.3652   -4.8589 C   0  0  0  0  0  0  0  0  0  0  0  0
  -30.0954   -5.1584   -5.9705 C   0  0  0  0  0  0  0  0  0  0  0  0
  -29.8115   -4.1171   -6.8543 C   0  0  0  0  0  0  0  0  0  0  0  0
  -30.5595   -3.9774   -7.9602 F   0  0  0  0  0  0  0  0  0  0  0  0
  -27.5699   -1.5230   -9.6268 N   0  0  0  0  0  0  0  0  0  0  0  0
  -27.7299   -2.6055   -8.7755 C   0  0  0  0  0  0  0  0  0  0  0  0
  -27.3546   -3.7446   -9.0112 O   0  0  0  0  0  0  0  0  0  0  0  0
  -28.4358   -2.2742   -7.6274 N   0  0  0  0  0  0  0  0  0  0  0  0
  -27.9195   -0.6310   -9.3072 H   0  0  0  0  0  0  0  0  0  0  0  0
  -29.1550   -1.5715   -7.7453 H   0  0  0  0  0  0  0  0  0  0  0  0
  -24.8892   -1.4978  -12.2199 C   0  0  0  0  0  0  0  0  0  0  0  0
  -25.6422   -1.5837  -13.3975 C   0  0  0  0  0  0  0  0  0  0  0  0
  -27.0213   -1.6774  -13.3220 C   0  0  0  0  0  0  0  0  0  0  0  0
  -27.7390   -1.7762  -14.4485 F   0  0  0  0  0  0  0  0  0  0  0  0
  -27.6761   -1.6700  -12.0952 C   0  0  0  0  0  0  0  0  0  0  0  0
  -26.9566   -1.5618  -10.9029 C   0  0  0  0  0  0  0  0  0  0  0  0
  -25.5581   -1.4837  -10.9754 C   0  0  0  0  0  0  0  0  0  0  0  0
  -22.8885   -0.0171  -12.5940 C   0  0  0  0  0  0  0  0  0  0  0  0
  -23.3797   -1.4266  -12.3042 C   0  0  0  0  0  0  0  0  0  0  0  0
  -22.8846   -2.2428  -13.2814 F   0  0  0  0  0  0  0  0  0  0  0  0
  -22.7829   -1.8448  -11.1494 F   0  0  0  0  0  0  0  0  0  0  0  0
  -29.4667   -6.3594   -3.9224 O   0  0  0  0  0  0  0  0  0  0  0  0
  -28.9134   -7.6100   -4.1063 C   0  0  0  0  0  0  0  0  0  0  0  0
  -29.0228   -8.6534   -3.1950 C   0  0  0  0  0  0  0  0  0  0  0  0
  -28.3926   -9.8389   -3.5026 C   0  0  0  0  0  0  0  0  0  0  0  0
  -27.7291  -10.0516   -4.6546 N   0  0  0  0  0  0  0  0  0  0  0  0
  -27.6860   -9.0741   -5.5717 C   0  0  0  0  0  0  0  0  0  0  0  0
  -28.2650   -7.8310   -5.3308 C   0  0  0  0  0  0  0  0  0  0  0  0
  -27.0515   -9.3101   -6.8085 N   0  0  0  0  0  0  0  0  0  0  0  0
  -27.7310   -9.6617   -7.9618 C   0  0  0  0  0  0  0  0  0  0  0  0
  -28.9342   -9.8354   -8.0869 O   0  0  0  0  0  0  0  0  0  0  0  0
  -26.0525   -9.1827   -6.8527 H   0  0  0  0  0  0  0  0  0  0  0  0
  -26.9146   -9.8423   -9.2023 C   0  0  0  0  0  0  0  0  0  0  0  0
  -27.3735  -10.3627  -10.5340 C   0  0  0  0  0  0  0  0  0  0  0  0
  -26.5359  -11.2370   -9.6457 C   0  0  0  0  0  0  0  0  0  0  0  0
 21 22  1  0  0  0
 22 23  1  0  0  0
 22 24  1  0  0  0
 22 14  1  0  0  0
 14 15  1  0  0  0
 14 20  2  0  0  0
 15 16  2  0  0  0
 16 17  1  0  0  0
 16 18  1  0  0  0
 18 19  2  0  0  0
 19  8  1  0  0  0
 19 20  1  0  0  0
  8  9  1  0  0  0
  8 12  1  0  0  0
  9 10  2  0  0  0
  9 11  1  0  0  0
 11  1  1  0  0  0
 11 13  1  0  0  0
  1  2  1  0  0  0
  1  6  2  0  0  0
  2  3  2  0  0  0
  3  4  1  0  0  0
  4 25  1  0  0  0
  4  5  2  0  0  0
 25 26  1  0  0  0
 26 27  1  0  0  0
 26 31  2  0  0  0
 27 28  2  0  0  0
 28 29  1  0  0  0
 29 30  2  0  0  0
 30 32  1  0  0  0
 30 31  1  0  0  0
 32 33  1  0  0  0
 32 35  1  0  0  0
 33 34  2  0  0  0
 33 36  1  0  0  0
 36 37  1  0  0  0
 36 38  1  0  0  0
 37 38  1  0  0  0
  5  6  1  0  0  0
  6  7  1  0  0  0
M  END
> <minimizedAffinity>
-10.08835

$$$$
