CHEMBL256556


 25 27  0  0  0  0  0  0  0  0999 V2000
  -28.3103   -2.2114   -7.1420 C   0  0  0  0  0  0  0  0  0  0  0  0
  -27.7117   -1.1662   -6.4007 C   0  0  0  0  0  0  0  0  0  0  0  0
  -28.1500   -0.8335   -5.1284 C   0  0  0  0  0  0  0  0  0  0  0  0
  -29.1984   -1.5575   -4.6136 C   0  0  0  0  0  0  0  0  0  0  0  0
  -29.8130   -2.5563   -5.2836 N   0  0  0  0  0  0  0  0  0  0  0  0
  -29.3791   -2.8838   -6.5358 C   0  0  0  0  0  0  0  0  0  0  0  0
  -27.3379   -3.6011   -8.7340 O   0  0  0  0  0  0  0  0  0  0  0  0
  -27.6899   -2.4486   -8.4864 C   0  0  0  0  0  0  0  0  0  0  0  0
  -27.5460   -1.3924   -9.3647 N   0  0  0  0  0  0  0  0  0  0  0  0
  -27.8732   -0.4810   -9.0599 H   0  0  0  0  0  0  0  0  0  0  0  0
  -27.0205   -1.4569  -10.6784 C   0  0  0  0  0  0  0  0  0  0  0  0
  -27.7878   -1.7428  -11.8141 C   0  0  0  0  0  0  0  0  0  0  0  0
  -27.2113   -1.7662  -13.0875 C   0  0  0  0  0  0  0  0  0  0  0  0
  -25.8546   -1.5073  -13.2353 C   0  0  0  0  0  0  0  0  0  0  0  0
  -25.1483   -1.5263  -14.8026 Cl  0  0  0  0  0  0  0  0  0  0  0  0
  -25.0714   -1.2307  -12.1177 C   0  0  0  0  0  0  0  0  0  0  0  0
  -25.6524   -1.2065  -10.8432 C   0  0  0  0  0  0  0  0  0  0  0  0
  -30.2857   -4.2562   -7.2649 S   0  0  0  0  0  0  0  0  0  0  0  0
  -29.3109   -5.6698   -6.6317 C   0  0  0  0  0  0  0  0  0  0  0  0
  -29.6838   -6.9881   -7.2697 C   0  0  0  0  0  0  0  0  0  0  0  0
  -30.9375   -7.5668   -7.0383 C   0  0  0  0  0  0  0  0  0  0  0  0
  -31.2681   -8.7391   -7.7039 C   0  0  0  0  0  0  0  0  0  0  0  0
  -30.4442   -9.3712   -8.5651 N   0  0  0  0  0  0  0  0  0  0  0  0
  -29.2349   -8.8071   -8.7675 C   0  0  0  0  0  0  0  0  0  0  0  0
  -28.8134   -7.6368   -8.1516 C   0  0  0  0  0  0  0  0  0  0  0  0
  7  8  2  0  0  0
  8  9  1  0  0  0
  8  1  1  0  0  0
  9 11  1  0  0  0
  9 10  1  0  0  0
 11 12  1  0  0  0
 11 17  2  0  0  0
 12 13  2  0  0  0
 13 14  1  0  0  0
 14 15  1  0  0  0
 14 16  2  0  0  0
 16 17  1  0  0  0
  1  2  1  0  0  0
  1  6  2  0  0  0
  2  3  2  0  0  0
  3  4  1  0  0  0
  4  5  2  0  0  0
  5  6  1  0  0  0
  6 18  1  0  0  0
 18 19  1  0  0  0
 19 20  1  0  0  0
 20 21  1  0  0  0
 20 25  2  0  0  0
 21 22  2  0  0  0
 22 23  1  0  0  0
 23 24  2  0  0  0
 24 25  1  0  0  0
M  END
> <minimizedAffinity>
-8.16406

$$$$
