CHEMBL47962


 27 30  0  0  0  0  0  0  0  0999 V2000
  -29.2748   -5.9425   -6.2758 C   0  0  0  0  0  0  0  0  0  0  0  0
  -28.8475   -6.3115   -5.0619 N   0  0  0  0  0  0  0  0  0  0  0  0
  -28.3243   -7.5364   -4.9148 C   0  0  0  0  0  0  0  0  0  0  0  0
  -28.1919   -8.4246   -5.9478 C   0  0  0  0  0  0  0  0  0  0  0  0
  -28.6709   -7.9861   -7.1620 C   0  0  0  0  0  0  0  0  0  0  0  0
  -29.2036   -6.7578   -7.3347 N   0  0  0  0  0  0  0  0  0  0  0  0
  -28.6436   -8.8607   -8.2843 N   0  0  0  0  0  0  0  0  0  0  0  0
  -27.6382   -8.9114   -9.2306 C   0  0  0  0  0  0  0  0  0  0  0  0
  -28.0550   -9.8055  -10.1802 C   0  0  0  0  0  0  0  0  0  0  0  0
  -29.2670  -10.3340   -9.8404 N   0  0  0  0  0  0  0  0  0  0  0  0
  -29.6148   -9.7885   -8.6825 C   0  0  0  0  0  0  0  0  0  0  0  0
  -30.8332  -10.1690   -7.9621 C   0  0  0  0  0  0  0  0  0  0  0  0
  -32.0403   -9.4961   -8.0133 C   0  0  0  0  0  0  0  0  0  0  0  0
  -33.1705   -9.8921   -7.3829 N   0  0  0  0  0  0  0  0  0  0  0  0
  -33.0552  -10.9941   -6.6309 C   0  0  0  0  0  0  0  0  0  0  0  0
  -31.9317  -11.6997   -6.4408 N   0  0  0  0  0  0  0  0  0  0  0  0
  -30.8401  -11.2554   -7.1083 C   0  0  0  0  0  0  0  0  0  0  0  0
  -29.8193   -4.6836   -6.5142 N   0  0  0  0  0  0  0  0  0  0  0  0
  -30.8212   -4.7466   -6.6235 H   0  0  0  0  0  0  0  0  0  0  0  0
  -28.3113   -0.1724   -5.1664 C   0  0  0  0  0  0  0  0  0  0  0  0
  -28.4047   -1.2327   -6.2174 C   0  0  0  0  0  0  0  0  0  0  0  0
  -27.7844   -1.1077   -7.4593 C   0  0  0  0  0  0  0  0  0  0  0  0
  -27.8871   -2.1341   -8.4071 C   0  0  0  0  0  0  0  0  0  0  0  0
  -27.2160   -2.0115   -9.7436 C   0  0  0  0  0  0  0  0  0  0  0  0
  -28.6060   -3.2997   -8.0889 C   0  0  0  0  0  0  0  0  0  0  0  0
  -29.2128   -3.4627   -6.8355 C   0  0  0  0  0  0  0  0  0  0  0  0
  -29.1190   -2.4000   -5.9302 C   0  0  0  0  0  0  0  0  0  0  0  0
 20 21  1  0  0  0
 21 22  1  0  0  0
 21 27  2  0  0  0
 22 23  2  0  0  0
 23 24  1  0  0  0
 23 25  1  0  0  0
 25 26  2  0  0  0
 26 18  1  0  0  0
 26 27  1  0  0  0
 18  1  1  0  0  0
 18 19  1  0  0  0
  1  2  1  0  0  0
  1  6  2  0  0  0
  2  3  2  0  0  0
  3  4  1  0  0  0
  4  5  2  0  0  0
  5  7  1  0  0  0
  5  6  1  0  0  0
  7  8  1  0  0  0
  7 11  1  0  0  0
  8  9  2  0  0  0
  9 10  1  0  0  0
 10 11  2  0  0  0
 11 12  1  0  0  0
 12 13  1  0  0  0
 12 17  2  0  0  0
 13 14  2  0  0  0
 14 15  1  0  0  0
 15 16  2  0  0  0
 16 17  1  0  0  0
M  END
> <minimizedAffinity>
-8.23390

$$$$
