CHEMBL2016903


 31 35  0  0  0  0  0  0  0  0999 V2000
  -22.2401    3.1090  -14.0477 O   0  0  0  0  0  0  0  0  0  0  0  0
  -21.6784    2.0183  -14.2018 C   0  0  0  0  0  0  0  0  0  0  0  0
  -20.3616    1.9417  -14.7158 N   0  0  0  0  0  0  0  0  0  0  0  0
  -19.6404    0.6563  -14.7571 C   0  0  0  0  0  0  0  0  0  0  0  0
  -18.2944    0.5472  -15.4506 C   0  0  0  0  0  0  0  0  0  0  0  0
  -17.6631    1.8477  -15.5853 C   0  0  0  0  0  0  0  0  0  0  0  0
  -16.4165    2.0000  -16.1018 N   0  0  0  0  0  0  0  0  0  0  0  0
  -16.1723    3.2962  -16.0421 C   0  0  0  0  0  0  0  0  0  0  0  0
  -17.2762    3.9781  -15.5333 N   0  0  0  0  0  0  0  0  0  0  0  0
  -18.2430    3.0382  -15.2406 C   0  0  0  0  0  0  0  0  0  0  0  0
  -19.5763    3.2148  -14.6499 C   0  0  0  0  0  0  0  0  0  0  0  0
  -17.3144    4.9786  -15.3758 H   0  0  0  0  0  0  0  0  0  0  0  0
  -14.9269    3.9296  -16.2881 C   0  0  0  0  0  0  0  0  0  0  0  0
  -13.9291    3.6719  -15.4187 C   0  0  0  0  0  0  0  0  0  0  0  0
  -12.7769    4.5626  -15.3157 C   0  0  0  0  0  0  0  0  0  0  0  0
  -11.8841    4.4251  -14.2593 C   0  0  0  0  0  0  0  0  0  0  0  0
  -11.2494    5.5675  -13.8007 C   0  0  0  0  0  0  0  0  0  0  0  0
  -10.6969    5.5602  -12.5805 F   0  0  0  0  0  0  0  0  0  0  0  0
  -11.2710    6.7477  -14.5414 C   0  0  0  0  0  0  0  0  0  0  0  0
  -11.9367    6.7859  -15.7682 C   0  0  0  0  0  0  0  0  0  0  0  0
  -12.7575    5.7122  -16.1118 C   0  0  0  0  0  0  0  0  0  0  0  0
  -13.6569    5.8149  -17.1814 N   0  0  0  0  0  0  0  0  0  0  0  0
  -14.7527    4.9881  -17.3180 C   0  0  0  0  0  0  0  0  0  0  0  0
  -15.5674    5.1713  -18.2241 O   0  0  0  0  0  0  0  0  0  0  0  0
  -13.5883    6.5901  -17.8314 H   0  0  0  0  0  0  0  0  0  0  0  0
  -22.3943    0.7922  -13.6939 C   0  0  0  0  0  0  0  0  0  0  0  0
  -22.2303    0.2438  -12.4213 C   0  0  0  0  0  0  0  0  0  0  0  0
  -23.1387   -0.6996  -11.9694 C   0  0  0  0  0  0  0  0  0  0  0  0
  -24.0900   -1.2443  -12.7477 N   0  0  0  0  0  0  0  0  0  0  0  0
  -24.1259   -0.8326  -14.0298 C   0  0  0  0  0  0  0  0  0  0  0  0
  -23.3218    0.1818  -14.5397 C   0  0  0  0  0  0  0  0  0  0  0  0
  1  2  2  0  0  0
  2 26  1  0  0  0
  2  3  1  0  0  0
 26 27  1  0  0  0
 26 31  2  0  0  0
 27 28  2  0  0  0
 28 29  1  0  0  0
 29 30  2  0  0  0
 30 31  1  0  0  0
  3  4  1  0  0  0
  3 11  1  0  0  0
  4  5  1  0  0  0
  5  6  1  0  0  0
  6  7  1  0  0  0
  6 10  2  0  0  0
  7  8  2  0  0  0
  8 13  1  0  0  0
  8  9  1  0  0  0
 13 14  2  0  0  0
 13 23  1  0  0  0
 14 15  1  0  0  0
 15 16  1  0  0  0
 15 21  2  0  0  0
 16 17  2  0  0  0
 17 18  1  0  0  0
 17 19  1  0  0  0
 19 20  2  0  0  0
 20 21  1  0  0  0
 21 22  1  0  0  0
 22 23  1  0  0  0
 22 25  1  0  0  0
 23 24  2  0  0  0
  9 10  1  0  0  0
  9 12  1  0  0  0
 10 11  1  0  0  0
M  END
> <minimizedAffinity>
-9.21653

$$$$
