CHEMBL3593290


 41 45  0  0  0  0  0  0  0  0999 V2000
  -20.9988    1.8172  -14.3355 C   0  0  0  0  0  0  0  0  0  0  0  0
  -20.8382    3.1798  -14.4625 C   0  0  0  0  0  0  0  0  0  0  0  0
  -19.7020    3.5844  -15.1065 N   0  0  0  0  0  0  0  0  0  0  0  0
  -18.9924    2.5571  -15.5183 C   0  0  0  0  0  0  0  0  0  0  0  0
  -19.6593    1.0304  -15.0722 S   0  0  0  0  0  0  0  0  0  0  0  0
  -24.2253   -0.3657  -12.5896 C   0  0  0  0  0  0  0  0  0  0  0  0
  -23.1881   -1.0324  -13.2315 C   0  0  0  0  0  0  0  0  0  0  0  0
  -22.1376   -0.3086  -13.7914 C   0  0  0  0  0  0  0  0  0  0  0  0
  -22.1051    1.0935  -13.7190 C   0  0  0  0  0  0  0  0  0  0  0  0
  -23.1658    1.7560  -13.0938 C   0  0  0  0  0  0  0  0  0  0  0  0
  -24.2214    1.0322  -12.5412 C   0  0  0  0  0  0  0  0  0  0  0  0
  -27.3035   -2.1758  -11.7452 N   0  0  0  0  0  0  0  0  0  0  0  0
  -26.3573   -1.6545  -12.5881 C   0  0  0  0  0  0  0  0  0  0  0  0
  -26.5162   -1.8159  -13.7962 O   0  0  0  0  0  0  0  0  0  0  0  0
  -25.3035   -1.0214  -11.9893 N   0  0  0  0  0  0  0  0  0  0  0  0
  -28.0444   -2.6720  -12.2185 H   0  0  0  0  0  0  0  0  0  0  0  0
  -25.2729   -1.1056  -10.9778 H   0  0  0  0  0  0  0  0  0  0  0  0
  -27.9833   -2.3317   -8.2759 C   0  0  0  0  0  0  0  0  0  0  0  0
  -28.3049   -2.7262   -9.5514 C   0  0  0  0  0  0  0  0  0  0  0  0
  -27.3593   -2.0717  -10.3701 C   0  0  0  0  0  0  0  0  0  0  0  0
  -26.5202   -1.3380   -9.6306 N   0  0  0  0  0  0  0  0  0  0  0  0
  -26.9181   -1.4925   -8.3235 O   0  0  0  0  0  0  0  0  0  0  0  0
  -29.6389   -3.6427   -6.9811 C   0  0  0  0  0  0  0  0  0  0  0  0
  -28.5268   -2.6092   -6.9286 C   0  0  0  0  0  0  0  0  0  0  0  0
  -17.8556    2.6246  -16.2506 N   0  0  0  0  0  0  0  0  0  0  0  0
  -17.7870    3.3173  -16.9836 H   0  0  0  0  0  0  0  0  0  0  0  0
  -16.5775    2.3090  -15.7659 C   0  0  0  0  0  0  0  0  0  0  0  0
  -16.2899    1.0966  -15.1764 C   0  0  0  0  0  0  0  0  0  0  0  0
  -15.0643    0.9076  -14.5827 C   0  0  0  0  0  0  0  0  0  0  0  0
  -14.1430    1.8766  -14.6302 N   0  0  0  0  0  0  0  0  0  0  0  0
  -14.4487    2.9985  -15.3063 C   0  0  0  0  0  0  0  0  0  0  0  0
  -13.3814    4.0337  -15.4384 C   0  0  0  0  0  0  0  0  0  0  0  0
  -15.6414    3.2606  -15.8786 N   0  0  0  0  0  0  0  0  0  0  0  0
  -14.7718   -0.2729  -13.9421 N   0  0  0  0  0  0  0  0  0  0  0  0
  -13.4418   -0.8651  -14.0691 C   0  0  0  0  0  0  0  0  0  0  0  0
  -13.5640   -2.3809  -14.3293 C   0  0  0  0  0  0  0  0  0  0  0  0
  -14.4192   -3.1205  -13.3644 N   0  0  0  0  0  0  0  0  0  0  0  0
  -15.7508   -2.4626  -13.3538 C   0  0  0  0  0  0  0  0  0  0  0  0
  -15.7282   -0.9434  -13.0584 C   0  0  0  0  0  0  0  0  0  0  0  0
  -13.8697   -3.1669  -12.0009 C   0  0  0  0  0  0  0  0  0  0  0  0
  -14.8233   -3.7687  -10.9774 C   0  0  0  0  0  0  0  0  0  0  0  0
 23 24  1  0  0  0
 24 18  1  0  0  0
 18 19  2  0  0  0
 18 22  1  0  0  0
 19 20  1  0  0  0
 20 12  1  0  0  0
 20 21  2  0  0  0
 12 13  1  0  0  0
 12 16  1  0  0  0
 13 14  2  0  0  0
 13 15  1  0  0  0
 15  6  1  0  0  0
 15 17  1  0  0  0
  6  7  1  0  0  0
  6 11  2  0  0  0
  7  8  2  0  0  0
  8  9  1  0  0  0
  9  1  1  0  0  0
  9 10  2  0  0  0
  1  2  2  0  0  0
  1  5  1  0  0  0
  2  3  1  0  0  0
  3  4  2  0  0  0
  4 25  1  0  0  0
  4  5  1  0  0  0
 25 27  1  0  0  0
 25 26  1  0  0  0
 27 28  1  0  0  0
 27 33  2  0  0  0
 28 29  2  0  0  0
 29 34  1  0  0  0
 29 30  1  0  0  0
 34 35  1  0  0  0
 34 39  1  0  0  0
 35 36  1  0  0  0
 36 37  1  0  0  0
 37 40  1  0  0  0
 37 38  1  0  0  0
 40 41  1  0  0  0
 38 39  1  0  0  0
 30 31  2  0  0  0
 31 32  1  0  0  0
 31 33  1  0  0  0
 10 11  1  0  0  0
 21 22  1  0  0  0
M  END
> <minimizedAffinity>
-9.94981

$$$$
