CHEMBL3694665


 47 51  0  0  0  0  0  0  0  0999 V2000
  -22.6523   -0.0094  -13.6925 C   0  0  0  0  0  0  0  0  0  0  0  0
  -22.8461   -0.0837  -12.2462 C   0  0  0  0  0  0  0  0  0  0  0  0
  -23.9923   -0.5785  -11.7544 C   0  0  0  0  0  0  0  0  0  0  0  0
  -25.0013   -0.9909  -12.6279 N   0  0  0  0  0  0  0  0  0  0  0  0
  -26.2887   -1.4534  -12.3796 C   0  0  0  0  0  0  0  0  0  0  0  0
  -26.7630   -1.7975  -13.6385 C   0  0  0  0  0  0  0  0  0  0  0  0
  -25.8718   -1.4966  -14.6319 N   0  0  0  0  0  0  0  0  0  0  0  0
  -24.8314   -0.9872  -14.0127 C   0  0  0  0  0  0  0  0  0  0  0  0
  -23.6116   -0.4622  -14.5312 C   0  0  0  0  0  0  0  0  0  0  0  0
  -19.0600    1.5607  -15.3395 C   0  0  0  0  0  0  0  0  0  0  0  0
  -19.9235    2.3945  -14.6262 C   0  0  0  0  0  0  0  0  0  0  0  0
  -21.1121    1.8975  -14.0924 C   0  0  0  0  0  0  0  0  0  0  0  0
  -21.4296    0.5578  -14.2718 C   0  0  0  0  0  0  0  0  0  0  0  0
  -20.5259   -0.2149  -14.9855 C   0  0  0  0  0  0  0  0  0  0  0  0
  -19.3753    0.2598  -15.5249 N   0  0  0  0  0  0  0  0  0  0  0  0
  -15.3354    3.3879  -15.6754 C   0  0  0  0  0  0  0  0  0  0  0  0
  -15.5373    1.9537  -15.1616 C   0  0  0  0  0  0  0  0  0  0  0  0
  -16.6852    1.2214  -15.8479 C   0  0  0  0  0  0  0  0  0  0  0  0
  -17.8873    2.0470  -15.8800 N   0  0  0  0  0  0  0  0  0  0  0  0
  -17.7771    3.4133  -16.3730 C   0  0  0  0  0  0  0  0  0  0  0  0
  -16.6680    4.1467  -15.6232 C   0  0  0  0  0  0  0  0  0  0  0  0
  -14.6991    3.4312  -17.0731 C   0  0  0  0  0  0  0  0  0  0  0  0
  -14.3991    4.8212  -17.5354 N   0  0  0  0  0  0  0  0  0  0  0  0
  -15.1485    5.4481  -17.2348 H   0  0  0  0  0  0  0  0  0  0  0  0
  -14.2714    5.0167  -19.2047 S   0  0  0  0  0  0  0  0  0  0  0  0
  -15.6141    4.9615  -19.7282 O   0  0  0  0  0  0  0  0  0  0  0  0
  -13.2084    4.1911  -19.7209 O   0  0  0  0  0  0  0  0  0  0  0  0
  -14.7992    7.6333  -19.0442 C   0  0  0  0  0  0  0  0  0  0  0  0
  -13.7365    6.6219  -19.2609 N   0  0  0  0  0  0  0  0  0  0  0  0
  -12.6035    6.8409  -18.3254 C   0  0  0  0  0  0  0  0  0  0  0  0
  -26.9597   -1.5563  -11.0763 C   0  0  0  0  0  0  0  0  0  0  0  0
  -27.6791   -0.4562  -10.5898 C   0  0  0  0  0  0  0  0  0  0  0  0
  -28.2852   -0.5020   -9.3374 C   0  0  0  0  0  0  0  0  0  0  0  0
  -28.2295   -1.6686   -8.5781 C   0  0  0  0  0  0  0  0  0  0  0  0
  -27.5716   -2.8021   -9.0518 C   0  0  0  0  0  0  0  0  0  0  0  0
  -26.8818   -2.7131  -10.2714 C   0  0  0  0  0  0  0  0  0  0  0  0
  -27.5795   -4.0365   -8.3623 N   0  0  0  0  0  0  0  0  0  0  0  0
  -28.7102   -4.6545   -7.8715 C   0  0  0  0  0  0  0  0  0  0  0  0
  -29.8641   -4.2596   -7.9846 O   0  0  0  0  0  0  0  0  0  0  0  0
  -28.4293   -5.8028   -7.1691 N   0  0  0  0  0  0  0  0  0  0  0  0
  -26.7328   -4.5863   -8.3919 H   0  0  0  0  0  0  0  0  0  0  0  0
  -27.6012   -6.3187   -7.4256 H   0  0  0  0  0  0  0  0  0  0  0  0
  -29.5586   -6.5632   -6.6207 C   0  0  0  0  0  0  0  0  0  0  0  0
  -29.9058   -6.3004   -5.1476 C   0  0  0  0  0  0  0  0  0  0  0  0
  -29.7022   -5.0088   -4.8000 F   0  0  0  0  0  0  0  0  0  0  0  0
  -31.2208   -6.5592   -4.9313 F   0  0  0  0  0  0  0  0  0  0  0  0
  -29.2013   -7.0814   -4.3036 F   0  0  0  0  0  0  0  0  0  0  0  0
 28 29  1  0  0  0
 29 30  1  0  0  0
 29 25  1  0  0  0
 25 26  2  0  0  0
 25 27  2  0  0  0
 25 23  1  0  0  0
 23 22  1  0  0  0
 23 24  1  0  0  0
 22 16  1  0  0  0
 16 17  1  0  0  0
 16 21  1  0  0  0
 17 18  1  0  0  0
 18 19  1  0  0  0
 19 10  1  0  0  0
 19 20  1  0  0  0
 10 11  1  0  0  0
 10 15  2  0  0  0
 11 12  2  0  0  0
 12 13  1  0  0  0
 13  1  1  0  0  0
 13 14  2  0  0  0
  1  2  1  0  0  0
  1  9  2  0  0  0
  2  3  2  0  0  0
  3  4  1  0  0  0
  4  5  1  0  0  0
  4  8  1  0  0  0
  5 31  1  0  0  0
  5  6  2  0  0  0
 31 32  1  0  0  0
 31 36  2  0  0  0
 32 33  2  0  0  0
 33 34  1  0  0  0
 34 35  2  0  0  0
 35 37  1  0  0  0
 35 36  1  0  0  0
 37 38  1  0  0  0
 37 41  1  0  0  0
 38 39  2  0  0  0
 38 40  1  0  0  0
 40 43  1  0  0  0
 40 42  1  0  0  0
 43 44  1  0  0  0
 44 45  1  0  0  0
 44 46  1  0  0  0
 44 47  1  0  0  0
  6  7  1  0  0  0
  7  8  2  0  0  0
  8  9  1  0  0  0
 14 15  1  0  0  0
 20 21  1  0  0  0
M  END
> <minimizedAffinity>
-8.87291

$$$$
