CHEMBL3409415


 31 34  0  0  0  0  0  0  0  0999 V2000
  -29.2845   -4.4650   -5.4476 C   0  0  0  0  0  0  0  0  0  0  0  0
  -29.5577   -5.6339   -6.1571 C   0  0  0  0  0  0  0  0  0  0  0  0
  -28.8670   -6.8198   -5.8615 C   0  0  0  0  0  0  0  0  0  0  0  0
  -27.8966   -6.8448   -4.8547 C   0  0  0  0  0  0  0  0  0  0  0  0
  -27.5909   -5.6553   -4.1896 C   0  0  0  0  0  0  0  0  0  0  0  0
  -28.2678   -4.4678   -4.4930 C   0  0  0  0  0  0  0  0  0  0  0  0
  -27.1873   -7.9981   -4.4530 N   0  0  0  0  0  0  0  0  0  0  0  0
  -27.6132   -9.0147   -3.6481 C   0  0  0  0  0  0  0  0  0  0  0  0
  -28.7105   -9.0895   -3.1015 O   0  0  0  0  0  0  0  0  0  0  0  0
  -26.7674  -10.0726   -3.4778 N   0  0  0  0  0  0  0  0  0  0  0  0
  -26.2318   -8.0857   -4.7853 H   0  0  0  0  0  0  0  0  0  0  0  0
  -27.1778  -10.8591   -2.9943 H   0  0  0  0  0  0  0  0  0  0  0  0
  -25.5239  -10.2340   -4.0055 C   0  0  0  0  0  0  0  0  0  0  0  0
  -25.0927   -9.9307   -5.2031 N   0  0  0  0  0  0  0  0  0  0  0  0
  -23.7832  -10.3887   -5.3318 C   0  0  0  0  0  0  0  0  0  0  0  0
  -22.9548  -10.2564   -6.4661 C   0  0  0  0  0  0  0  0  0  0  0  0
  -21.7068  -10.8930   -6.4954 C   0  0  0  0  0  0  0  0  0  0  0  0
  -21.2671  -11.6403   -5.4070 C   0  0  0  0  0  0  0  0  0  0  0  0
  -22.0355  -11.7261   -4.2439 C   0  0  0  0  0  0  0  0  0  0  0  0
  -23.2838  -11.0832   -4.2245 C   0  0  0  0  0  0  0  0  0  0  0  0
  -24.4301  -10.9888   -2.9447 S   0  0  0  0  0  0  0  0  0  0  0  0
  -30.0006   -3.3379   -5.7841 O   0  0  0  0  0  0  0  0  0  0  0  0
  -28.7233    1.0593   -4.8068 N   0  0  0  0  0  0  0  0  0  0  0  0
  -28.6507   -0.0498   -5.6239 C   0  0  0  0  0  0  0  0  0  0  0  0
  -27.8486    0.0158   -6.6898 N   0  0  0  0  0  0  0  0  0  0  0  0
  -27.7901   -1.0811   -7.4683 C   0  0  0  0  0  0  0  0  0  0  0  0
  -28.4995   -2.2271   -7.2169 C   0  0  0  0  0  0  0  0  0  0  0  0
  -29.2828   -2.1851   -6.0893 C   0  0  0  0  0  0  0  0  0  0  0  0
  -29.4026   -1.0988   -5.3015 N   0  0  0  0  0  0  0  0  0  0  0  0
  -28.4725    1.8862   -5.3282 H   0  0  0  0  0  0  0  0  0  0  0  0
  -29.6109    1.0625   -4.3222 H   0  0  0  0  0  0  0  0  0  0  0  0
 23 24  1  0  0  0
 23 30  1  0  0  0
 23 31  1  0  0  0
 24 25  1  0  0  0
 24 29  2  0  0  0
 25 26  2  0  0  0
 26 27  1  0  0  0
 27 28  2  0  0  0
 28 22  1  0  0  0
 28 29  1  0  0  0
 22  1  1  0  0  0
  1  2  1  0  0  0
  1  6  2  0  0  0
  2  3  2  0  0  0
  3  4  1  0  0  0
  4  7  1  0  0  0
  4  5  2  0  0  0
  7  8  1  0  0  0
  7 11  1  0  0  0
  8  9  2  0  0  0
  8 10  1  0  0  0
 10 13  1  0  0  0
 10 12  1  0  0  0
 13 14  2  0  0  0
 13 21  1  0  0  0
 14 15  1  0  0  0
 15 16  1  0  0  0
 15 20  2  0  0  0
 16 17  2  0  0  0
 17 18  1  0  0  0
 18 19  2  0  0  0
 19 20  1  0  0  0
 20 21  1  0  0  0
  5  6  1  0  0  0
M  END
> <minimizedAffinity>
-8.51694

$$$$
