CHEMBL3985853


 39 44  0  0  0  0  0  0  0  0999 V2000
  -28.3414   -3.1559   -6.9909 C   0  0  0  0  0  0  0  0  0  0  0  0
  -28.0919   -1.8031   -6.8658 C   0  0  0  0  0  0  0  0  0  0  0  0
  -27.8995   -1.0995   -7.9750 C   0  0  0  0  0  0  0  0  0  0  0  0
  -27.6379   -1.6541   -9.1479 C   0  0  0  0  0  0  0  0  0  0  0  0
  -27.8757   -0.8524  -10.1596 N   0  0  0  0  0  0  0  0  0  0  0  0
  -27.5210   -1.1190  -11.3778 C   0  0  0  0  0  0  0  0  0  0  0  0
  -26.5287   -2.0440  -11.5705 C   0  0  0  0  0  0  0  0  0  0  0  0
  -26.5339   -3.1337  -10.6109 N   0  0  0  0  0  0  0  0  0  0  0  0
  -27.2315   -2.9589   -9.3464 C   0  0  0  0  0  0  0  0  0  0  0  0
  -27.6934   -3.8360   -8.2066 C   0  0  0  0  0  0  0  0  0  0  0  0
  -25.6311   -1.4097  -12.7481 C   0  0  0  0  0  0  0  0  0  0  0  0
  -25.4119   -1.5539  -14.1191 C   0  0  0  0  0  0  0  0  0  0  0  0
  -24.4540   -0.6191  -14.5322 N   0  0  0  0  0  0  0  0  0  0  0  0
  -24.0392    0.0941  -13.4781 N   0  0  0  0  0  0  0  0  0  0  0  0
  -24.6712   -0.3707  -12.4180 C   0  0  0  0  0  0  0  0  0  0  0  0
  -23.0613    1.2605  -13.5186 C   0  0  0  0  0  0  0  0  0  0  0  0
  -21.5531    0.8557  -13.6993 C   0  0  0  0  0  0  0  0  0  0  0  0
  -20.9226    1.2431  -15.0146 N   0  0  0  0  0  0  0  0  0  0  0  0
  -19.5504    0.7331  -15.2582 C   0  0  0  0  0  0  0  0  0  0  0  0
  -18.5200    1.3843  -14.3129 C   0  0  0  0  0  0  0  0  0  0  0  0
  -18.5283    2.8506  -14.4388 N   0  0  0  0  0  0  0  0  0  0  0  0
  -19.8802    3.3996  -14.2584 C   0  0  0  0  0  0  0  0  0  0  0  0
  -20.8841    2.7200  -15.2158 C   0  0  0  0  0  0  0  0  0  0  0  0
  -18.1655    3.1246  -15.3822 H   0  0  0  0  0  0  0  0  0  0  0  0
  -29.3352   -3.5599   -5.9337 N   0  0  0  0  0  0  0  0  0  0  0  0
  -30.6689   -7.2218   -6.7445 C   0  0  0  0  0  0  0  0  0  0  0  0
  -30.2108   -7.8984   -5.6128 C   0  0  0  0  0  0  0  0  0  0  0  0
  -29.5849   -7.2291   -4.6120 C   0  0  0  0  0  0  0  0  0  0  0  0
  -29.4532   -5.8438   -4.7016 C   0  0  0  0  0  0  0  0  0  0  0  0
  -29.7224   -5.0448   -5.8737 C   0  0  0  0  0  0  0  0  0  0  0  0
  -30.3596   -5.8168   -6.9224 C   0  0  0  0  0  0  0  0  0  0  0  0
  -32.5959   -8.5986   -7.2649 C   0  0  0  0  0  0  0  0  0  0  0  0
  -31.4303   -7.9154   -7.6386 O   0  0  0  0  0  0  0  0  0  0  0  0
  -29.0881   -7.9605   -3.5742 O   0  0  0  0  0  0  0  0  0  0  0  0
  -28.5269   -9.2206   -3.6867 C   0  0  0  0  0  0  0  0  0  0  0  0
  -30.2824   -2.5576   -5.4317 C   0  0  0  0  0  0  0  0  0  0  0  0
  -29.8245   -1.9560   -4.0481 C   0  0  0  0  0  0  0  0  0  0  0  0
  -28.7923   -2.7220   -3.2422 C   0  0  0  0  0  0  0  0  0  0  0  0
  -30.2663   -2.7534   -2.8232 C   0  0  0  0  0  0  0  0  0  0  0  0
 32 33  1  0  0  0
 33 26  1  0  0  0
 26 27  1  0  0  0
 26 31  2  0  0  0
 27 28  2  0  0  0
 28 34  1  0  0  0
 28 29  1  0  0  0
 34 35  1  0  0  0
 29 30  2  0  0  0
 30 25  1  0  0  0
 30 31  1  0  0  0
 25 36  1  0  0  0
 25  1  1  0  0  0
 36 37  1  0  0  0
 37 38  1  0  0  0
 37 39  1  0  0  0
 38 39  1  0  0  0
  1  2  1  0  0  0
  1 10  2  0  0  0
  2  3  2  0  0  0
  3  4  1  0  0  0
  4  5  1  0  0  0
  4  9  2  0  0  0
  5  6  2  0  0  0
  6  7  1  0  0  0
  7 11  1  0  0  0
  7  8  2  0  0  0
 11 12  1  0  0  0
 11 15  2  0  0  0
 12 13  2  0  0  0
 13 14  1  0  0  0
 14 16  1  0  0  0
 14 15  1  0  0  0
 16 17  1  0  0  0
 17 18  1  0  0  0
 18 19  1  0  0  0
 18 23  1  0  0  0
 19 20  1  0  0  0
 20 21  1  0  0  0
 21 22  1  0  0  0
 21 24  1  0  0  0
 22 23  1  0  0  0
  8  9  1  0  0  0
  9 10  1  0  0  0
M  END
> <minimizedAffinity>
-8.33341

$$$$
