CHEMBL3690387


 39 43  0  0  0  0  0  0  0  0999 V2000
  -28.9898   -9.7368   -6.0928 C   0  0  0  0  0  0  0  0  0  0  0  0
  -29.0092  -10.2348   -4.7993 C   0  0  0  0  0  0  0  0  0  0  0  0
  -28.9432   -9.2426   -3.8581 N   0  0  0  0  0  0  0  0  0  0  0  0
  -28.8999   -8.1186   -4.5450 C   0  0  0  0  0  0  0  0  0  0  0  0
  -28.8081   -6.7579   -4.1064 C   0  0  0  0  0  0  0  0  0  0  0  0
  -28.7646   -5.7370   -4.9959 C   0  0  0  0  0  0  0  0  0  0  0  0
  -28.8829   -6.0434   -6.4290 C   0  0  0  0  0  0  0  0  0  0  0  0
  -28.9997   -7.3136   -6.8409 C   0  0  0  0  0  0  0  0  0  0  0  0
  -28.9682   -8.3552   -5.9145 N   0  0  0  0  0  0  0  0  0  0  0  0
  -28.3411  -10.5944   -9.7337 C   0  0  0  0  0  0  0  0  0  0  0  0
  -28.8399  -11.8964   -9.7757 C   0  0  0  0  0  0  0  0  0  0  0  0
  -29.4932  -12.4387   -8.6745 C   0  0  0  0  0  0  0  0  0  0  0  0
  -29.6206  -11.6933   -7.5085 C   0  0  0  0  0  0  0  0  0  0  0  0
  -29.0183  -10.4348   -7.3871 C   0  0  0  0  0  0  0  0  0  0  0  0
  -28.4233   -9.8719   -8.5300 C   0  0  0  0  0  0  0  0  0  0  0  0
  -29.1977  -10.5582  -12.5827 O   0  0  0  0  0  0  0  0  0  0  0  0
  -28.2103   -9.9804  -12.1493 C   0  0  0  0  0  0  0  0  0  0  0  0
  -27.4091   -9.2224  -12.9776 N   0  0  0  0  0  0  0  0  0  0  0  0
  -27.7535   -9.9603  -10.8497 N   0  0  0  0  0  0  0  0  0  0  0  0
  -26.4385   -9.1584  -12.7063 H   0  0  0  0  0  0  0  0  0  0  0  0
  -26.9569   -9.3703  -10.6642 H   0  0  0  0  0  0  0  0  0  0  0  0
  -27.6704   -9.2526  -14.4212 C   0  0  0  0  0  0  0  0  0  0  0  0
  -26.4191   -9.1702  -15.3066 C   0  0  0  0  0  0  0  0  0  0  0  0
  -25.9365  -10.3974  -15.6135 F   0  0  0  0  0  0  0  0  0  0  0  0
  -26.6430   -8.5058  -16.4578 F   0  0  0  0  0  0  0  0  0  0  0  0
  -25.4296   -8.5183  -14.6461 F   0  0  0  0  0  0  0  0  0  0  0  0
  -28.6270   -4.4056   -4.4680 C   0  0  0  0  0  0  0  0  0  0  0  0
  -29.0054   -3.9802   -3.2745 N   0  0  0  0  0  0  0  0  0  0  0  0
  -28.7404   -2.6451   -3.0577 N   0  0  0  0  0  0  0  0  0  0  0  0
  -28.1448   -2.0829   -4.0854 C   0  0  0  0  0  0  0  0  0  0  0  0
  -27.8709   -3.1449   -5.3992 S   0  0  0  0  0  0  0  0  0  0  0  0
  -27.7361   -0.6466   -4.1437 C   0  0  0  0  0  0  0  0  0  0  0  0
  -27.6885   -0.1429   -5.5952 C   0  0  0  0  0  0  0  0  0  0  0  0
  -28.6974    0.8923   -5.9112 N   0  0  0  0  0  0  0  0  0  0  0  0
  -29.0985    0.8607   -7.3287 C   0  0  0  0  0  0  0  0  0  0  0  0
  -30.1284    1.9471   -7.6450 C   0  0  0  0  0  0  0  0  0  0  0  0
  -31.3551    1.8269   -6.7525 C   0  0  0  0  0  0  0  0  0  0  0  0
  -30.9384    1.7831   -5.2887 C   0  0  0  0  0  0  0  0  0  0  0  0
  -29.8780    0.7085   -5.0434 C   0  0  0  0  0  0  0  0  0  0  0  0
 16 17  2  0  0  0
 17 18  1  0  0  0
 17 19  1  0  0  0
 18 22  1  0  0  0
 18 20  1  0  0  0
 22 23  1  0  0  0
 23 24  1  0  0  0
 23 25  1  0  0  0
 23 26  1  0  0  0
 19 10  1  0  0  0
 19 21  1  0  0  0
 10 11  1  0  0  0
 10 15  2  0  0  0
 11 12  2  0  0  0
 12 13  1  0  0  0
 13 14  2  0  0  0
 14  1  1  0  0  0
 14 15  1  0  0  0
  1  2  2  0  0  0
  1  9  1  0  0  0
  2  3  1  0  0  0
  3  4  2  0  0  0
  4  5  1  0  0  0
  4  9  1  0  0  0
  5  6  2  0  0  0
  6 27  1  0  0  0
  6  7  1  0  0  0
 27 28  2  0  0  0
 27 31  1  0  0  0
 28 29  1  0  0  0
 29 30  2  0  0  0
 30 32  1  0  0  0
 30 31  1  0  0  0
 32 33  1  0  0  0
 33 34  1  0  0  0
 34 35  1  0  0  0
 34 39  1  0  0  0
 35 36  1  0  0  0
 36 37  1  0  0  0
 37 38  1  0  0  0
 38 39  1  0  0  0
  7  8  2  0  0  0
  8  9  1  0  0  0
M  END
> <minimizedAffinity>
-6.77347

$$$$
