CHEMBL2386788


 41 45  0  0  0  0  0  0  0  0999 V2000
  -24.4860   -0.8249  -12.8260 C   0  0  0  0  0  0  0  0  0  0  0  0
  -24.6706   -1.1412  -11.4592 C   0  0  0  0  0  0  0  0  0  0  0  0
  -25.8512   -1.8334  -11.3794 C   0  0  0  0  0  0  0  0  0  0  0  0
  -26.3057   -1.8998  -12.6703 N   0  0  0  0  0  0  0  0  0  0  0  0
  -25.5194   -1.2675  -13.5580 N   0  0  0  0  0  0  0  0  0  0  0  0
  -27.1373   -2.3563  -13.0258 H   0  0  0  0  0  0  0  0  0  0  0  0
  -21.1198    1.2300  -14.4032 C   0  0  0  0  0  0  0  0  0  0  0  0
  -22.1402    1.9431  -13.7809 C   0  0  0  0  0  0  0  0  0  0  0  0
  -23.2534    1.2657  -13.2944 C   0  0  0  0  0  0  0  0  0  0  0  0
  -23.3350   -0.1329  -13.3920 C   0  0  0  0  0  0  0  0  0  0  0  0
  -22.3146   -0.8362  -14.0410 C   0  0  0  0  0  0  0  0  0  0  0  0
  -21.2258   -0.1497  -14.5817 C   0  0  0  0  0  0  0  0  0  0  0  0
  -18.7665    3.6690  -15.7410 N   0  0  0  0  0  0  0  0  0  0  0  0
  -19.9706    3.1804  -15.3126 C   0  0  0  0  0  0  0  0  0  0  0  0
  -20.9458    3.9309  -15.3164 O   0  0  0  0  0  0  0  0  0  0  0  0
  -19.9776    1.8814  -14.8715 N   0  0  0  0  0  0  0  0  0  0  0  0
  -18.7851    4.6442  -16.0007 H   0  0  0  0  0  0  0  0  0  0  0  0
  -19.0767    1.5455  -14.5479 H   0  0  0  0  0  0  0  0  0  0  0  0
  -14.0998    2.2733  -16.7772 C   0  0  0  0  0  0  0  0  0  0  0  0
  -15.5167    2.4517  -16.4269 C   0  0  0  0  0  0  0  0  0  0  0  0
  -16.3580    3.5284  -16.2908 C   0  0  0  0  0  0  0  0  0  0  0  0
  -17.6046    2.9577  -15.9479 C   0  0  0  0  0  0  0  0  0  0  0  0
  -17.5030    1.6263  -15.8499 N   0  0  0  0  0  0  0  0  0  0  0  0
  -16.2039    1.3112  -16.1680 O   0  0  0  0  0  0  0  0  0  0  0  0
  -26.4639   -2.3644  -10.2524 N   0  0  0  0  0  0  0  0  0  0  0  0
  -27.6242   -1.7584   -9.6410 C   0  0  0  0  0  0  0  0  0  0  0  0
  -28.1243   -0.7415  -10.0946 O   0  0  0  0  0  0  0  0  0  0  0  0
  -26.1141   -3.2406   -9.8870 H   0  0  0  0  0  0  0  0  0  0  0  0
  -28.2131   -2.4163   -8.4632 C   0  0  0  0  0  0  0  0  0  0  0  0
  -28.0465   -1.9282   -7.1719 C   0  0  0  0  0  0  0  0  0  0  0  0
  -28.6628   -2.5953   -6.1096 C   0  0  0  0  0  0  0  0  0  0  0  0
  -29.4612   -3.7370   -6.3029 C   0  0  0  0  0  0  0  0  0  0  0  0
  -29.6287   -4.1923   -7.6135 C   0  0  0  0  0  0  0  0  0  0  0  0
  -29.0129   -3.5453   -8.6857 C   0  0  0  0  0  0  0  0  0  0  0  0
  -30.0984   -4.3082   -5.2209 N   0  0  0  0  0  0  0  0  0  0  0  0
  -30.3030   -5.7622   -5.1053 C   0  0  0  0  0  0  0  0  0  0  0  0
  -31.5847   -6.0225   -4.2726 C   0  0  0  0  0  0  0  0  0  0  0  0
  -31.5495   -5.3712   -2.9410 N   0  0  0  0  0  0  0  0  0  0  0  0
  -32.8096   -5.5836   -2.2319 C   0  0  0  0  0  0  0  0  0  0  0  0
  -31.2912   -3.9224   -3.1053 C   0  0  0  0  0  0  0  0  0  0  0  0
  -30.0030   -3.6416   -3.9086 C   0  0  0  0  0  0  0  0  0  0  0  0
 19 20  1  0  0  0
 20 21  2  0  0  0
 20 24  1  0  0  0
 21 22  1  0  0  0
 22 13  1  0  0  0
 22 23  2  0  0  0
 13 14  1  0  0  0
 13 17  1  0  0  0
 14 15  2  0  0  0
 14 16  1  0  0  0
 16  7  1  0  0  0
 16 18  1  0  0  0
  7  8  1  0  0  0
  7 12  2  0  0  0
  8  9  2  0  0  0
  9 10  1  0  0  0
 10  1  1  0  0  0
 10 11  2  0  0  0
  1  2  1  0  0  0
  1  5  2  0  0  0
  2  3  2  0  0  0
  3 25  1  0  0  0
  3  4  1  0  0  0
 25 26  1  0  0  0
 25 28  1  0  0  0
 26 27  2  0  0  0
 26 29  1  0  0  0
 29 30  1  0  0  0
 29 34  2  0  0  0
 30 31  2  0  0  0
 31 32  1  0  0  0
 32 35  1  0  0  0
 32 33  2  0  0  0
 35 36  1  0  0  0
 35 41  1  0  0  0
 36 37  1  0  0  0
 37 38  1  0  0  0
 38 39  1  0  0  0
 38 40  1  0  0  0
 40 41  1  0  0  0
 33 34  1  0  0  0
  4  5  1  0  0  0
  4  6  1  0  0  0
 11 12  1  0  0  0
 23 24  1  0  0  0
M  END
> <minimizedAffinity>
-10.70089

$$$$
