CHEMBL3891892


 38 41  0  0  0  0  0  0  0  0999 V2000
  -27.9534   -1.9494   -8.5901 N   0  0  0  0  0  0  0  0  0  0  0  0
  -27.4233   -1.4349   -9.8395 C   0  0  0  0  0  0  0  0  0  0  0  0
  -28.2118   -1.7402  -10.9504 C   0  0  0  0  0  0  0  0  0  0  0  0
  -27.6441   -1.8256  -12.2035 C   0  0  0  0  0  0  0  0  0  0  0  0
  -26.3486   -1.4594  -12.4478 C   0  0  0  0  0  0  0  0  0  0  0  0
  -25.9301   -1.7721  -13.6833 N   0  0  0  0  0  0  0  0  0  0  0  0
  -24.7370   -1.2970  -14.0437 C   0  0  0  0  0  0  0  0  0  0  0  0
  -23.9990   -0.4510  -13.2408 C   0  0  0  0  0  0  0  0  0  0  0  0
  -24.3708   -0.2225  -11.9259 N   0  0  0  0  0  0  0  0  0  0  0  0
  -25.5695   -0.7961  -11.4581 C   0  0  0  0  0  0  0  0  0  0  0  0
  -26.1417   -0.8611  -10.1086 C   0  0  0  0  0  0  0  0  0  0  0  0
  -22.9205    0.2692  -13.9238 C   0  0  0  0  0  0  0  0  0  0  0  0
  -21.7117   -0.2338  -14.4812 C   0  0  0  0  0  0  0  0  0  0  0  0
  -20.8240    0.7273  -14.7725 N   0  0  0  0  0  0  0  0  0  0  0  0
  -21.4472    1.8538  -14.3896 N   0  0  0  0  0  0  0  0  0  0  0  0
  -20.9208    3.1469  -14.7638 C   0  0  0  0  0  0  0  0  0  0  0  0
  -22.6220    1.6114  -13.7273 C   0  0  0  0  0  0  0  0  0  0  0  0
  -28.8833    0.5479   -5.9518 C   0  0  0  0  0  0  0  0  0  0  0  0
  -28.5425   -0.1370   -4.7891 C   0  0  0  0  0  0  0  0  0  0  0  0
  -27.9504   -1.3970   -4.8730 C   0  0  0  0  0  0  0  0  0  0  0  0
  -27.6928   -1.9618   -6.1297 C   0  0  0  0  0  0  0  0  0  0  0  0
  -28.0187   -1.3072   -7.3257 C   0  0  0  0  0  0  0  0  0  0  0  0
  -28.5971   -0.0247   -7.2093 C   0  0  0  0  0  0  0  0  0  0  0  0
  -30.9136    1.7668   -6.3006 C   0  0  0  0  0  0  0  0  0  0  0  0
  -29.5225    1.7653   -5.9737 O   0  0  0  0  0  0  0  0  0  0  0  0
  -27.6124   -2.1885   -3.8077 O   0  0  0  0  0  0  0  0  0  0  0  0
  -28.6620   -2.9203   -3.1820 C   0  0  0  0  0  0  0  0  0  0  0  0
  -27.7126   -3.4442   -8.5778 C   0  0  0  0  0  0  0  0  0  0  0  0
  -28.8643   -4.3982   -8.1853 C   0  0  0  0  0  0  0  0  0  0  0  0
  -28.6533   -5.3122   -6.9720 C   0  0  0  0  0  0  0  0  0  0  0  0
  -29.8764   -5.3963   -6.1610 N   0  0  0  0  0  0  0  0  0  0  0  0
  -29.9100   -5.9185   -4.8652 C   0  0  0  0  0  0  0  0  0  0  0  0
  -28.9046   -6.4008   -4.3396 O   0  0  0  0  0  0  0  0  0  0  0  0
  -30.7234   -4.9583   -6.5137 H   0  0  0  0  0  0  0  0  0  0  0  0
  -31.2882   -5.8412   -4.1472 C   0  0  0  0  0  0  0  0  0  0  0  0
  -31.7293   -4.5534   -4.0251 F   0  0  0  0  0  0  0  0  0  0  0  0
  -32.2689   -6.5171   -4.8075 F   0  0  0  0  0  0  0  0  0  0  0  0
  -31.2505   -6.3481   -2.8831 F   0  0  0  0  0  0  0  0  0  0  0  0
 24 25  1  0  0  0
 25 18  1  0  0  0
 18 19  1  0  0  0
 18 23  2  0  0  0
 19 20  2  0  0  0
 20 26  1  0  0  0
 20 21  1  0  0  0
 26 27  1  0  0  0
 21 22  2  0  0  0
 22  1  1  0  0  0
 22 23  1  0  0  0
  1 28  1  0  0  0
  1  2  1  0  0  0
 28 29  1  0  0  0
 29 30  1  0  0  0
 30 31  1  0  0  0
 31 32  1  0  0  0
 31 34  1  0  0  0
 32 33  2  0  0  0
 32 35  1  0  0  0
 35 36  1  0  0  0
 35 37  1  0  0  0
 35 38  1  0  0  0
  2  3  1  0  0  0
  2 11  2  0  0  0
  3  4  2  0  0  0
  4  5  1  0  0  0
  5  6  1  0  0  0
  5 10  2  0  0  0
  6  7  2  0  0  0
  7  8  1  0  0  0
  8 12  1  0  0  0
  8  9  2  0  0  0
 12 13  1  0  0  0
 12 17  2  0  0  0
 13 14  2  0  0  0
 14 15  1  0  0  0
 15 16  1  0  0  0
 15 17  1  0  0  0
  9 10  1  0  0  0
 10 11  1  0  0  0
M  END
> <minimizedAffinity>
-8.77681

$$$$
