CHEMBL3660294


 37 40  0  0  0  0  0  0  0  0999 V2000
  -25.9710   -0.9902  -12.2841 C   0  0  0  0  0  0  0  0  0  0  0  0
  -25.7775   -1.5733  -13.5415 C   0  0  0  0  0  0  0  0  0  0  0  0
  -24.5648   -1.4241  -14.2132 C   0  0  0  0  0  0  0  0  0  0  0  0
  -23.5531   -0.6391  -13.6588 C   0  0  0  0  0  0  0  0  0  0  0  0
  -23.7417   -0.0607  -12.3997 C   0  0  0  0  0  0  0  0  0  0  0  0
  -24.9583   -0.2125  -11.7213 C   0  0  0  0  0  0  0  0  0  0  0  0
  -28.2491   -2.0488   -9.6739 N   0  0  0  0  0  0  0  0  0  0  0  0
  -27.0312   -1.7481  -10.2548 C   0  0  0  0  0  0  0  0  0  0  0  0
  -25.9434   -1.8332   -9.6993 O   0  0  0  0  0  0  0  0  0  0  0  0
  -27.1574   -1.2526  -11.5510 N   0  0  0  0  0  0  0  0  0  0  0  0
  -29.0768   -1.7727  -10.1776 H   0  0  0  0  0  0  0  0  0  0  0  0
  -27.9027   -0.5823  -11.6624 H   0  0  0  0  0  0  0  0  0  0  0  0
  -29.7114   -5.7676   -6.7498 C   0  0  0  0  0  0  0  0  0  0  0  0
  -29.1779   -4.3730   -6.9104 C   0  0  0  0  0  0  0  0  0  0  0  0
  -28.9452   -3.5862   -5.7779 C   0  0  0  0  0  0  0  0  0  0  0  0
  -28.4173   -2.3095   -5.9174 C   0  0  0  0  0  0  0  0  0  0  0  0
  -28.1366   -1.8038   -7.1839 C   0  0  0  0  0  0  0  0  0  0  0  0
  -27.4973   -0.6283   -7.2145 F   0  0  0  0  0  0  0  0  0  0  0  0
  -28.4210   -2.5363   -8.3475 C   0  0  0  0  0  0  0  0  0  0  0  0
  -28.9132   -3.8435   -8.1906 C   0  0  0  0  0  0  0  0  0  0  0  0
  -22.3246   -0.4356  -14.2497 O   0  0  0  0  0  0  0  0  0  0  0  0
  -21.8281    0.8456  -14.3525 C   0  0  0  0  0  0  0  0  0  0  0  0
  -22.5457    1.9878  -14.0141 C   0  0  0  0  0  0  0  0  0  0  0  0
  -21.9382    3.2163  -14.2014 C   0  0  0  0  0  0  0  0  0  0  0  0
  -20.6718    3.3702  -14.6446 N   0  0  0  0  0  0  0  0  0  0  0  0
  -19.9759    2.2389  -14.9069 C   0  0  0  0  0  0  0  0  0  0  0  0
  -20.5086    0.9661  -14.7716 C   0  0  0  0  0  0  0  0  0  0  0  0
  -18.6026    2.4694  -15.3480 C   0  0  0  0  0  0  0  0  0  0  0  0
  -17.9286    3.6288  -15.6984 C   0  0  0  0  0  0  0  0  0  0  0  0
  -16.5875    3.2978  -16.0612 C   0  0  0  0  0  0  0  0  0  0  0  0
  -16.4916    1.9251  -15.9070 C   0  0  0  0  0  0  0  0  0  0  0  0
  -17.6980    1.4439  -15.4780 N   0  0  0  0  0  0  0  0  0  0  0  0
  -17.9236    0.4722  -15.2788 H   0  0  0  0  0  0  0  0  0  0  0  0
  -15.4917    4.1517  -16.5150 C   0  0  0  0  0  0  0  0  0  0  0  0
  -15.1386    4.2363  -17.6829 O   0  0  0  0  0  0  0  0  0  0  0  0
  -14.8764    4.8677  -15.5394 O   0  0  0  0  0  0  0  0  0  0  0  0
  -15.2483    4.7060  -14.6566 H   0  0  0  0  0  0  0  0  0  0  0  0
 13 14  1  0  0  0
 14 15  1  0  0  0
 14 20  2  0  0  0
 15 16  2  0  0  0
 16 17  1  0  0  0
 17 18  1  0  0  0
 17 19  2  0  0  0
 19  7  1  0  0  0
 19 20  1  0  0  0
  7  8  1  0  0  0
  7 11  1  0  0  0
  8  9  2  0  0  0
  8 10  1  0  0  0
 10  1  1  0  0  0
 10 12  1  0  0  0
  1  2  1  0  0  0
  1  6  2  0  0  0
  2  3  2  0  0  0
  3  4  1  0  0  0
  4 21  1  0  0  0
  4  5  2  0  0  0
 21 22  1  0  0  0
 22 23  1  0  0  0
 22 27  2  0  0  0
 23 24  2  0  0  0
 24 25  1  0  0  0
 25 26  2  0  0  0
 26 28  1  0  0  0
 26 27  1  0  0  0
 28 29  2  0  0  0
 28 32  1  0  0  0
 29 30  1  0  0  0
 30 34  1  0  0  0
 30 31  2  0  0  0
 34 35  2  0  0  0
 34 36  1  0  0  0
 36 37  1  0  0  0
 31 32  1  0  0  0
 32 33  1  0  0  0
  5  6  1  0  0  0
M  END
> <minimizedAffinity>
-12.08260

$$$$
