CHEMBL2063338


 44 48  0  0  0  0  0  0  0  0999 V2000
  -12.9496   -0.0166  -18.3411 C   0  0  0  0  0  0  0  0  0  0  0  0
  -12.7712   -1.1129  -17.5382 C   0  0  0  0  0  0  0  0  0  0  0  0
  -13.2730   -2.2251  -18.2796 C   0  0  0  0  0  0  0  0  0  0  0  0
  -13.7127   -1.8220  -19.4872 N   0  0  0  0  0  0  0  0  0  0  0  0
  -13.5140   -0.5005  -19.4858 N   0  0  0  0  0  0  0  0  0  0  0  0
  -13.7723    0.0529  -20.2993 H   0  0  0  0  0  0  0  0  0  0  0  0
  -13.3581   -3.6359  -17.8804 C   0  0  0  0  0  0  0  0  0  0  0  0
  -13.4912   -4.6519  -18.8323 C   0  0  0  0  0  0  0  0  0  0  0  0
  -13.5784   -5.9924  -18.4391 C   0  0  0  0  0  0  0  0  0  0  0  0
  -13.5446   -6.3463  -17.0827 C   0  0  0  0  0  0  0  0  0  0  0  0
  -13.3882   -5.3308  -16.1317 C   0  0  0  0  0  0  0  0  0  0  0  0
  -13.3009   -3.9918  -16.5272 C   0  0  0  0  0  0  0  0  0  0  0  0
  -13.6989   -7.7827  -16.6450 C   0  0  0  0  0  0  0  0  0  0  0  0
  -14.2604   -7.9228  -15.3237 N   0  0  0  0  0  0  0  0  0  0  0  0
  -13.6060   -8.5480  -14.3054 C   0  0  0  0  0  0  0  0  0  0  0  0
  -12.4848   -9.0230  -14.3760 O   0  0  0  0  0  0  0  0  0  0  0  0
  -15.2253   -7.6858  -15.1557 H   0  0  0  0  0  0  0  0  0  0  0  0
  -14.4141   -8.6034  -13.2188 O   0  0  0  0  0  0  0  0  0  0  0  0
  -14.0142   -7.7771  -12.1180 C   0  0  0  0  0  0  0  0  0  0  0  0
  -14.8076   -6.4969  -11.9841 C   0  0  0  0  0  0  0  0  0  0  0  0
  -16.0125   -6.3368  -12.6882 C   0  0  0  0  0  0  0  0  0  0  0  0
  -16.8270   -5.2230  -12.4669 C   0  0  0  0  0  0  0  0  0  0  0  0
  -16.4462   -4.2554  -11.5415 C   0  0  0  0  0  0  0  0  0  0  0  0
  -15.2425   -4.3909  -10.8523 C   0  0  0  0  0  0  0  0  0  0  0  0
  -14.4255   -5.5045  -11.0722 C   0  0  0  0  0  0  0  0  0  0  0  0
  -12.6842    1.2993  -18.1644 N   0  0  0  0  0  0  0  0  0  0  0  0
  -11.7679    1.6638  -18.4000 H   0  0  0  0  0  0  0  0  0  0  0  0
  -14.6170    5.6027  -19.0261 C   0  0  0  0  0  0  0  0  0  0  0  0
  -14.6268    4.3292  -18.2399 C   0  0  0  0  0  0  0  0  0  0  0  0
  -13.6406    3.4597  -18.5071 N   0  0  0  0  0  0  0  0  0  0  0  0
  -13.6477    2.2873  -17.8543 C   0  0  0  0  0  0  0  0  0  0  0  0
  -14.6438    1.9844  -16.9613 C   0  0  0  0  0  0  0  0  0  0  0  0
  -15.6403    2.9221  -16.7498 C   0  0  0  0  0  0  0  0  0  0  0  0
  -15.6270    4.1144  -17.3695 N   0  0  0  0  0  0  0  0  0  0  0  0
  -16.6491    2.5873  -15.8518 N   0  0  0  0  0  0  0  0  0  0  0  0
  -17.9451    3.2657  -15.9509 C   0  0  0  0  0  0  0  0  0  0  0  0
  -18.6963    3.0560  -14.5993 C   0  0  0  0  0  0  0  0  0  0  0  0
  -18.8268    1.6386  -14.1354 N   0  0  0  0  0  0  0  0  0  0  0  0
  -17.4880    1.0007  -14.2049 C   0  0  0  0  0  0  0  0  0  0  0  0
  -16.7749    1.1509  -15.5654 C   0  0  0  0  0  0  0  0  0  0  0  0
  -19.8462    0.9335  -14.9415 C   0  0  0  0  0  0  0  0  0  0  0  0
  -21.2922    1.2036  -14.4885 C   0  0  0  0  0  0  0  0  0  0  0  0
  -21.9649   -0.0159  -14.1928 O   0  0  0  0  0  0  0  0  0  0  0  0
  -21.6729   -0.6484  -14.8786 H   0  0  0  0  0  0  0  0  0  0  0  0
 28 29  1  0  0  0
 29 30  1  0  0  0
 29 34  2  0  0  0
 30 31  2  0  0  0
 31 26  1  0  0  0
 31 32  1  0  0  0
 26  1  1  0  0  0
 26 27  1  0  0  0
  1  2  2  0  0  0
  1  5  1  0  0  0
  2  3  1  0  0  0
  3  7  1  0  0  0
  3  4  2  0  0  0
  7  8  1  0  0  0
  7 12  2  0  0  0
  8  9  2  0  0  0
  9 10  1  0  0  0
 10 13  1  0  0  0
 10 11  2  0  0  0
 13 14  1  0  0  0
 14 15  1  0  0  0
 14 17  1  0  0  0
 15 16  2  0  0  0
 15 18  1  0  0  0
 18 19  1  0  0  0
 19 20  1  0  0  0
 20 21  1  0  0  0
 20 25  2  0  0  0
 21 22  2  0  0  0
 22 23  1  0  0  0
 23 24  2  0  0  0
 24 25  1  0  0  0
 11 12  1  0  0  0
  4  5  1  0  0  0
  5  6  1  0  0  0
 32 33  2  0  0  0
 33 35  1  0  0  0
 33 34  1  0  0  0
 35 36  1  0  0  0
 35 40  1  0  0  0
 36 37  1  0  0  0
 37 38  1  0  0  0
 38 41  1  0  0  0
 38 39  1  0  0  0
 41 42  1  0  0  0
 42 43  1  0  0  0
 43 44  1  0  0  0
 39 40  1  0  0  0
M  END
> <minimizedAffinity>
-8.09300

$$$$
