CHEMBL234443


 28 30  0  0  0  0  0  0  0  0999 V2000
  -28.5105   -3.7156   -7.4111 C   0  0  0  0  0  0  0  0  0  0  0  0
  -28.5153   -3.0718   -8.6173 N   0  0  0  0  0  0  0  0  0  0  0  0
  -28.1044   -1.7949   -8.6654 C   0  0  0  0  0  0  0  0  0  0  0  0
  -27.6605   -1.1287   -7.5906 N   0  0  0  0  0  0  0  0  0  0  0  0
  -27.6164   -1.7917   -6.4255 C   0  0  0  0  0  0  0  0  0  0  0  0
  -28.0166   -3.0978   -6.2678 C   0  0  0  0  0  0  0  0  0  0  0  0
  -27.8104   -3.8181   -4.7198 Cl  0  0  0  0  0  0  0  0  0  0  0  0
  -30.2178   -7.7350   -7.5066 C   0  0  0  0  0  0  0  0  0  0  0  0
  -30.8506   -6.6726   -6.8410 C   0  0  0  0  0  0  0  0  0  0  0  0
  -30.3017   -5.3799   -6.8280 C   0  0  0  0  0  0  0  0  0  0  0  0
  -29.0841   -5.0856   -7.4613 C   0  0  0  0  0  0  0  0  0  0  0  0
  -28.4275   -6.1635   -8.0728 C   0  0  0  0  0  0  0  0  0  0  0  0
  -28.9840   -7.4502   -8.1077 C   0  0  0  0  0  0  0  0  0  0  0  0
  -30.1868  -10.0559   -8.6059 C   0  0  0  0  0  0  0  0  0  0  0  0
  -30.7865   -9.1607   -7.4987 C   0  0  0  0  0  0  0  0  0  0  0  0
  -32.3199   -9.1983   -7.6767 C   0  0  0  0  0  0  0  0  0  0  0  0
  -30.4518   -9.7842   -6.2097 N   0  0  0  0  0  0  0  0  0  0  0  0
  -30.8953  -10.6975   -6.1401 H   0  0  0  0  0  0  0  0  0  0  0  0
  -30.8371   -9.2168   -5.4562 H   0  0  0  0  0  0  0  0  0  0  0  0
  -28.1182   -1.1483   -9.8999 N   0  0  0  0  0  0  0  0  0  0  0  0
  -28.5772   -0.2506   -9.8529 H   0  0  0  0  0  0  0  0  0  0  0  0
  -27.2625   -1.3630  -10.9933 C   0  0  0  0  0  0  0  0  0  0  0  0
  -27.7995   -1.6560  -12.2532 C   0  0  0  0  0  0  0  0  0  0  0  0
  -26.9662   -1.9643  -13.3341 C   0  0  0  0  0  0  0  0  0  0  0  0
  -25.5806   -1.9714  -13.1727 C   0  0  0  0  0  0  0  0  0  0  0  0
  -25.0371   -1.6659  -11.9289 C   0  0  0  0  0  0  0  0  0  0  0  0
  -23.1605   -1.6647  -11.6896 Br  0  0  0  0  0  0  0  0  0  0  0  0
  -25.8675   -1.3734  -10.8499 C   0  0  0  0  0  0  0  0  0  0  0  0
 14 15  1  0  0  0
 15 16  1  0  0  0
 15 17  1  0  0  0
 15  8  1  0  0  0
 17 18  1  0  0  0
 17 19  1  0  0  0
  8  9  1  0  0  0
  8 13  2  0  0  0
  9 10  2  0  0  0
 10 11  1  0  0  0
 11  1  1  0  0  0
 11 12  2  0  0  0
  1  2  1  0  0  0
  1  6  2  0  0  0
  2  3  2  0  0  0
  3 20  1  0  0  0
  3  4  1  0  0  0
 20 22  1  0  0  0
 20 21  1  0  0  0
 22 23  1  0  0  0
 22 28  2  0  0  0
 23 24  2  0  0  0
 24 25  1  0  0  0
 25 26  2  0  0  0
 26 27  1  0  0  0
 26 28  1  0  0  0
  4  5  2  0  0  0
  5  6  1  0  0  0
  6  7  1  0  0  0
 12 13  1  0  0  0
M  END
> <minimizedAffinity>
-8.75289

$$$$
