CHEMBL4225772


 35 37  0  0  0  0  0  0  0  0999 V2000
  -17.3568    2.2351  -15.0845 C   0  0  0  0  0  0  0  0  0  0  0  0
  -16.1974    2.1121  -15.8499 C   0  0  0  0  0  0  0  0  0  0  0  0
  -15.1555    1.2670  -15.4331 C   0  0  0  0  0  0  0  0  0  0  0  0
  -15.2436    0.5515  -14.2300 C   0  0  0  0  0  0  0  0  0  0  0  0
  -16.4177    0.6717  -13.4890 C   0  0  0  0  0  0  0  0  0  0  0  0
  -17.4587    1.5070  -13.9030 C   0  0  0  0  0  0  0  0  0  0  0  0
  -14.1113   -0.2161  -13.8517 N   0  0  0  0  0  0  0  0  0  0  0  0
  -13.8371   -0.0975  -12.8860 H   0  0  0  0  0  0  0  0  0  0  0  0
  -13.2753   -1.0820  -14.5637 C   0  0  0  0  0  0  0  0  0  0  0  0
  -11.6150   -0.9924  -14.7783 S   0  0  0  0  0  0  0  0  0  0  0  0
  -14.0711   -2.0380  -15.2176 N   0  0  0  0  0  0  0  0  0  0  0  0
  -14.1066   -1.9021  -16.2226 H   0  0  0  0  0  0  0  0  0  0  0  0
  -14.3626   -3.3444  -14.7674 C   0  0  0  0  0  0  0  0  0  0  0  0
  -13.8430   -4.4317  -15.4645 C   0  0  0  0  0  0  0  0  0  0  0  0
  -14.1435   -5.7319  -15.0497 C   0  0  0  0  0  0  0  0  0  0  0  0
  -14.9773   -5.9609  -13.9457 C   0  0  0  0  0  0  0  0  0  0  0  0
  -15.3034   -7.6089  -13.5572 Cl  0  0  0  0  0  0  0  0  0  0  0  0
  -15.5114   -4.8844  -13.2344 C   0  0  0  0  0  0  0  0  0  0  0  0
  -15.2053   -3.5783  -13.6763 C   0  0  0  0  0  0  0  0  0  0  0  0
  -16.3771   -5.0000  -12.0072 C   0  0  0  0  0  0  0  0  0  0  0  0
  -17.5251   -5.7129  -12.1392 F   0  0  0  0  0  0  0  0  0  0  0  0
  -15.7071   -5.5793  -10.9691 F   0  0  0  0  0  0  0  0  0  0  0  0
  -16.7656   -3.7747  -11.5467 F   0  0  0  0  0  0  0  0  0  0  0  0
  -18.6749    3.3342  -15.5542 S   0  0  0  0  0  0  0  0  0  0  0  0
  -22.2637    1.0221  -14.0217 C   0  0  0  0  0  0  0  0  0  0  0  0
  -21.2485    0.3350  -14.6865 C   0  0  0  0  0  0  0  0  0  0  0  0
  -20.1612    1.0513  -15.1932 C   0  0  0  0  0  0  0  0  0  0  0  0
  -20.1178    2.4332  -15.0177 C   0  0  0  0  0  0  0  0  0  0  0  0
  -21.1039    3.1155  -14.3936 N   0  0  0  0  0  0  0  0  0  0  0  0
  -22.1591    2.4027  -13.9272 C   0  0  0  0  0  0  0  0  0  0  0  0
  -25.0527   -1.4804  -13.5565 C   0  0  0  0  0  0  0  0  0  0  0  0
  -23.9609   -0.7163  -14.1087 N   0  0  0  0  0  0  0  0  0  0  0  0
  -23.4391    0.3565  -13.4198 C   0  0  0  0  0  0  0  0  0  0  0  0
  -23.8726    0.7435  -12.3376 O   0  0  0  0  0  0  0  0  0  0  0  0
  -23.4577   -1.1067  -14.8929 H   0  0  0  0  0  0  0  0  0  0  0  0
 31 32  1  0  0  0
 32 33  1  0  0  0
 32 35  1  0  0  0
 33 34  2  0  0  0
 33 25  1  0  0  0
 25 26  1  0  0  0
 25 30  2  0  0  0
 26 27  2  0  0  0
 27 28  1  0  0  0
 28 24  1  0  0  0
 28 29  2  0  0  0
 24  1  1  0  0  0
  1  2  1  0  0  0
  1  6  2  0  0  0
  2  3  2  0  0  0
  3  4  1  0  0  0
  4  7  1  0  0  0
  4  5  2  0  0  0
  7  9  1  0  0  0
  7  8  1  0  0  0
  9 10  2  0  0  0
  9 11  1  0  0  0
 11 13  1  0  0  0
 11 12  1  0  0  0
 13 14  1  0  0  0
 13 19  2  0  0  0
 14 15  2  0  0  0
 15 16  1  0  0  0
 16 17  1  0  0  0
 16 18  2  0  0  0
 18 20  1  0  0  0
 18 19  1  0  0  0
 20 21  1  0  0  0
 20 22  1  0  0  0
 20 23  1  0  0  0
  5  6  1  0  0  0
 29 30  1  0  0  0
M  END
> <minimizedAffinity>
-9.05734

$$$$
