CHEMBL225336


 41 46  0  0  0  0  0  0  0  0999 V2000
  -22.1292    1.1901  -14.0431 C   0  0  0  0  0  0  0  0  0  0  0  0
  -22.0416    2.6089  -14.0644 C   0  0  0  0  0  0  0  0  0  0  0  0
  -20.9093    3.2791  -14.5282 C   0  0  0  0  0  0  0  0  0  0  0  0
  -19.8302    2.5038  -14.8636 C   0  0  0  0  0  0  0  0  0  0  0  0
  -19.8463    1.0849  -14.7740 C   0  0  0  0  0  0  0  0  0  0  0  0
  -21.0043    0.4213  -14.3899 C   0  0  0  0  0  0  0  0  0  0  0  0
  -18.4873    0.4493  -15.1167 C   0  0  0  0  0  0  0  0  0  0  0  0
  -17.7554    1.7138  -15.4209 C   0  0  0  0  0  0  0  0  0  0  0  0
  -16.5010    2.1840  -15.8116 C   0  0  0  0  0  0  0  0  0  0  0  0
  -16.4879    3.5312  -15.9083 N   0  0  0  0  0  0  0  0  0  0  0  0
  -17.7531    3.9023  -15.5753 N   0  0  0  0  0  0  0  0  0  0  0  0
  -18.5188    2.8351  -15.2856 C   0  0  0  0  0  0  0  0  0  0  0  0
  -17.9947    4.8887  -15.5757 H   0  0  0  0  0  0  0  0  0  0  0  0
  -15.3428    1.3316  -16.0740 C   0  0  0  0  0  0  0  0  0  0  0  0
  -14.7554    1.1579  -17.3083 C   0  0  0  0  0  0  0  0  0  0  0  0
  -13.4085    0.1099  -17.2439 S   0  0  0  0  0  0  0  0  0  0  0  0
  -13.6103   -0.1237  -15.5649 C   0  0  0  0  0  0  0  0  0  0  0  0
  -14.6751    0.5853  -15.0590 C   0  0  0  0  0  0  0  0  0  0  0  0
  -12.7429   -0.9702  -14.8183 C   0  0  0  0  0  0  0  0  0  0  0  0
  -11.9530   -1.7272  -14.1089 C   0  0  0  0  0  0  0  0  0  0  0  0
  -11.0321   -2.6095  -13.2818 C   0  0  0  0  0  0  0  0  0  0  0  0
  -11.7907   -3.5315  -12.4251 N   0  0  0  0  0  0  0  0  0  0  0  0
  -11.5829   -4.8817  -12.5836 C   0  0  0  0  0  0  0  0  0  0  0  0
  -10.7903   -5.2551  -13.4386 O   0  0  0  0  0  0  0  0  0  0  0  0
  -12.3377   -5.7095  -11.7605 N   0  0  0  0  0  0  0  0  0  0  0  0
  -12.3440   -3.1751  -11.6642 H   0  0  0  0  0  0  0  0  0  0  0  0
  -13.1361   -5.3138  -11.3096 H   0  0  0  0  0  0  0  0  0  0  0  0
  -12.2604   -7.1410  -11.8109 C   0  0  0  0  0  0  0  0  0  0  0  0
  -11.1400   -7.8346  -11.3426 C   0  0  0  0  0  0  0  0  0  0  0  0
  -10.9742   -9.2044  -11.5463 C   0  0  0  0  0  0  0  0  0  0  0  0
  -11.9742   -9.9382  -12.1661 C   0  0  0  0  0  0  0  0  0  0  0  0
  -13.1531   -9.2975  -12.5428 C   0  0  0  0  0  0  0  0  0  0  0  0
  -13.3026   -7.9043  -12.3704 C   0  0  0  0  0  0  0  0  0  0  0  0
  -23.4430    0.5218  -13.6653 C   0  0  0  0  0  0  0  0  0  0  0  0
  -26.8312   -1.7601  -11.0731 C   0  0  0  0  0  0  0  0  0  0  0  0
  -25.6571   -1.9156  -11.9202 N   0  0  0  0  0  0  0  0  0  0  0  0
  -25.8730   -1.3393  -13.2561 C   0  0  0  0  0  0  0  0  0  0  0  0
  -24.6319   -1.6059  -14.1369 C   0  0  0  0  0  0  0  0  0  0  0  0
  -23.3995   -0.9564  -13.6306 N   0  0  0  0  0  0  0  0  0  0  0  0
  -23.2066   -1.4406  -12.2367 C   0  0  0  0  0  0  0  0  0  0  0  0
  -24.4540   -1.3112  -11.3150 C   0  0  0  0  0  0  0  0  0  0  0  0
 35 36  1  0  0  0
 36 37  1  0  0  0
 36 41  1  0  0  0
 37 38  1  0  0  0
 38 39  1  0  0  0
 39 34  1  0  0  0
 39 40  1  0  0  0
 34  1  1  0  0  0
  1  2  1  0  0  0
  1  6  2  0  0  0
  2  3  2  0  0  0
  3  4  1  0  0  0
  4  5  2  0  0  0
  4 12  1  0  0  0
  5  6  1  0  0  0
  5  7  1  0  0  0
  7  8  1  0  0  0
  8  9  1  0  0  0
  8 12  2  0  0  0
  9 14  1  0  0  0
  9 10  2  0  0  0
 14 15  2  0  0  0
 14 18  1  0  0  0
 15 16  1  0  0  0
 16 17  1  0  0  0
 17 19  1  0  0  0
 17 18  2  0  0  0
 19 20  3  0  0  0
 20 21  1  0  0  0
 21 22  1  0  0  0
 22 23  1  0  0  0
 22 26  1  0  0  0
 23 24  2  0  0  0
 23 25  1  0  0  0
 25 28  1  0  0  0
 25 27  1  0  0  0
 28 29  1  0  0  0
 28 33  2  0  0  0
 29 30  2  0  0  0
 30 31  1  0  0  0
 31 32  2  0  0  0
 32 33  1  0  0  0
 10 11  1  0  0  0
 11 12  1  0  0  0
 11 13  1  0  0  0
 40 41  1  0  0  0
M  END
> <minimizedAffinity>
-10.58372

$$$$
