CHEMBL4464237


 40 43  0  0  0  0  0  0  0  0999 V2000
  -24.4724   -1.0549  -13.2195 C   0  0  0  0  0  0  0  0  0  0  0  0
  -24.0868   -1.3846  -11.9148 C   0  0  0  0  0  0  0  0  0  0  0  0
  -24.9694   -1.9804  -10.9976 C   0  0  0  0  0  0  0  0  0  0  0  0
  -26.2992   -2.2199  -11.3317 C   0  0  0  0  0  0  0  0  0  0  0  0
  -26.7181   -1.7976  -12.6037 C   0  0  0  0  0  0  0  0  0  0  0  0
  -25.8148   -1.2538  -13.5503 C   0  0  0  0  0  0  0  0  0  0  0  0
  -22.3759    0.8604  -12.7912 O   0  0  0  0  0  0  0  0  0  0  0  0
  -22.5432    0.3621  -13.9012 C   0  0  0  0  0  0  0  0  0  0  0  0
  -23.5554   -0.5421  -14.1925 N   0  0  0  0  0  0  0  0  0  0  0  0
  -21.6996    0.6510  -14.9644 N   0  0  0  0  0  0  0  0  0  0  0  0
  -23.5732   -0.9592  -15.1117 H   0  0  0  0  0  0  0  0  0  0  0  0
  -22.0587    0.5567  -15.9078 H   0  0  0  0  0  0  0  0  0  0  0  0
  -20.4853    1.3979  -14.8183 C   0  0  0  0  0  0  0  0  0  0  0  0
  -19.2321    0.7649  -14.8818 C   0  0  0  0  0  0  0  0  0  0  0  0
  -18.0221    1.4580  -14.7400 C   0  0  0  0  0  0  0  0  0  0  0  0
  -18.0556    2.8447  -14.5792 C   0  0  0  0  0  0  0  0  0  0  0  0
  -19.2886    3.5092  -14.5521 C   0  0  0  0  0  0  0  0  0  0  0  0
  -20.4927    2.7884  -14.6406 C   0  0  0  0  0  0  0  0  0  0  0  0
  -21.9744    3.6584  -14.4537 Cl  0  0  0  0  0  0  0  0  0  0  0  0
  -16.7207    0.6939  -14.7982 C   0  0  0  0  0  0  0  0  0  0  0  0
  -15.7646    1.1750  -13.9546 F   0  0  0  0  0  0  0  0  0  0  0  0
  -16.8835   -0.6147  -14.4610 F   0  0  0  0  0  0  0  0  0  0  0  0
  -16.1588    0.6986  -16.0374 F   0  0  0  0  0  0  0  0  0  0  0  0
  -27.1762   -2.8060  -10.3874 N   0  0  0  0  0  0  0  0  0  0  0  0
  -27.6477   -3.6488  -10.7189 H   0  0  0  0  0  0  0  0  0  0  0  0
  -27.5368   -2.3750   -9.0873 C   0  0  0  0  0  0  0  0  0  0  0  0
  -27.5653   -0.9862   -8.8164 C   0  0  0  0  0  0  0  0  0  0  0  0
  -27.8912   -0.4783   -7.5625 C   0  0  0  0  0  0  0  0  0  0  0  0
  -28.2652   -1.3847   -6.5861 C   0  0  0  0  0  0  0  0  0  0  0  0
  -28.4537   -2.7060   -6.8569 C   0  0  0  0  0  0  0  0  0  0  0  0
  -29.1515   -3.3458   -5.9267 N   0  0  0  0  0  0  0  0  0  0  0  0
  -29.2364   -4.6582   -6.0273 C   0  0  0  0  0  0  0  0  0  0  0  0
  -28.6428   -5.3821   -6.9771 N   0  0  0  0  0  0  0  0  0  0  0  0
  -28.0635   -4.6763   -7.9777 C   0  0  0  0  0  0  0  0  0  0  0  0
  -27.4184   -5.4138   -8.9357 O   0  0  0  0  0  0  0  0  0  0  0  0
  -27.9870   -3.2661   -8.0427 C   0  0  0  0  0  0  0  0  0  0  0  0
  -27.3483   -6.3185   -8.5715 H   0  0  0  0  0  0  0  0  0  0  0  0
  -28.4495   -0.9932   -5.2051 N   0  0  0  0  0  0  0  0  0  0  0  0
  -27.5220   -1.2366   -4.4237 O   0  0  0  0  0  0  0  0  0  0  0  0
  -29.5129   -0.4157   -4.9138 O   0  0  0  0  0  0  0  0  0  0  0  0
  7  8  2  0  0  0
  8  9  1  0  0  0
  8 10  1  0  0  0
  9  1  1  0  0  0
  9 11  1  0  0  0
  1  2  1  0  0  0
  1  6  2  0  0  0
  2  3  2  0  0  0
  3  4  1  0  0  0
  4 24  1  0  0  0
  4  5  2  0  0  0
 24 26  1  0  0  0
 24 25  1  0  0  0
 26 27  1  0  0  0
 26 36  2  0  0  0
 27 28  2  0  0  0
 28 29  1  0  0  0
 29 38  1  0  0  0
 29 30  2  0  0  0
 38 39  2  0  0  0
 38 40  1  0  0  0
 30 31  1  0  0  0
 30 36  1  0  0  0
 31 32  2  0  0  0
 32 33  1  0  0  0
 33 34  2  0  0  0
 34 35  1  0  0  0
 34 36  1  0  0  0
 35 37  1  0  0  0
  5  6  1  0  0  0
 10 13  1  0  0  0
 10 12  1  0  0  0
 13 14  1  0  0  0
 13 18  2  0  0  0
 14 15  2  0  0  0
 15 20  1  0  0  0
 15 16  1  0  0  0
 20 21  1  0  0  0
 20 22  1  0  0  0
 20 23  1  0  0  0
 16 17  2  0  0  0
 17 18  1  0  0  0
 18 19  1  0  0  0
M  CHG 1  38   1
M  CHG 1  40  -1
M  END
> <minimizedAffinity>
-10.84724

$$$$
