CHEMBL279351


 36 39  0  0  0  0  0  0  0  0999 V2000
  -23.0541   -0.8752  -13.3211 C   0  0  0  0  0  0  0  0  0  0  0  0
  -22.9538   -1.2559  -11.9863 C   0  0  0  0  0  0  0  0  0  0  0  0
  -24.0764   -1.6965  -11.2855 C   0  0  0  0  0  0  0  0  0  0  0  0
  -25.3153   -1.8820  -11.9089 C   0  0  0  0  0  0  0  0  0  0  0  0
  -25.4049   -1.5204  -13.2667 C   0  0  0  0  0  0  0  0  0  0  0  0
  -26.8929   -1.7068  -14.1314 Cl  0  0  0  0  0  0  0  0  0  0  0  0
  -24.2866   -1.0208  -13.9656 C   0  0  0  0  0  0  0  0  0  0  0  0
  -26.4296   -2.4523  -11.2190 N   0  0  0  0  0  0  0  0  0  0  0  0
  -26.8623   -2.0530   -9.9663 C   0  0  0  0  0  0  0  0  0  0  0  0
  -26.4024   -1.0980   -9.3464 O   0  0  0  0  0  0  0  0  0  0  0  0
  -27.8391   -2.8710   -9.4171 N   0  0  0  0  0  0  0  0  0  0  0  0
  -26.8640   -3.2576  -11.6514 H   0  0  0  0  0  0  0  0  0  0  0  0
  -27.7658   -3.8513   -9.6614 H   0  0  0  0  0  0  0  0  0  0  0  0
  -28.2537   -2.6203   -8.0754 C   0  0  0  0  0  0  0  0  0  0  0  0
  -27.9183   -1.4344   -7.4047 C   0  0  0  0  0  0  0  0  0  0  0  0
  -28.1759   -1.2959   -6.0398 C   0  0  0  0  0  0  0  0  0  0  0  0
  -28.7795   -2.3420   -5.3489 C   0  0  0  0  0  0  0  0  0  0  0  0
  -28.9734   -2.2309   -4.0284 F   0  0  0  0  0  0  0  0  0  0  0  0
  -29.1647   -3.5052   -6.0029 C   0  0  0  0  0  0  0  0  0  0  0  0
  -28.9203   -3.6264   -7.3685 C   0  0  0  0  0  0  0  0  0  0  0  0
  -29.2516   -4.7659   -7.9950 F   0  0  0  0  0  0  0  0  0  0  0  0
  -21.9863   -0.3799  -14.0561 O   0  0  0  0  0  0  0  0  0  0  0  0
  -18.0563    2.7948  -14.8978 C   0  0  0  0  0  0  0  0  0  0  0  0
  -19.2248    3.5375  -14.6535 C   0  0  0  0  0  0  0  0  0  0  0  0
  -20.4636    2.9497  -14.4331 C   0  0  0  0  0  0  0  0  0  0  0  0
  -21.4988    3.7544  -14.1714 N   0  0  0  0  0  0  0  0  0  0  0  0
  -22.7075    3.1998  -13.9601 C   0  0  0  0  0  0  0  0  0  0  0  0
  -22.9340    1.8459  -13.9805 C   0  0  0  0  0  0  0  0  0  0  0  0
  -21.8421    1.0003  -14.1671 C   0  0  0  0  0  0  0  0  0  0  0  0
  -20.5687    1.5422  -14.4740 C   0  0  0  0  0  0  0  0  0  0  0  0
  -19.4142    0.7975  -14.7978 C   0  0  0  0  0  0  0  0  0  0  0  0
  -18.1618    1.4046  -15.0219 C   0  0  0  0  0  0  0  0  0  0  0  0
  -16.4976    3.8560  -16.3417 C   0  0  0  0  0  0  0  0  0  0  0  0
  -16.8387    3.4137  -15.0225 O   0  0  0  0  0  0  0  0  0  0  0  0
  -17.2024    0.4768  -15.3156 O   0  0  0  0  0  0  0  0  0  0  0  0
  -16.2416    0.0778  -14.3525 C   0  0  0  0  0  0  0  0  0  0  0  0
 33 34  1  0  0  0
 34 23  1  0  0  0
 23 24  1  0  0  0
 23 32  2  0  0  0
 24 25  2  0  0  0
 25 26  1  0  0  0
 25 30  1  0  0  0
 26 27  2  0  0  0
 27 28  1  0  0  0
 28 29  2  0  0  0
 29 22  1  0  0  0
 29 30  1  0  0  0
 22  1  1  0  0  0
  1  2  1  0  0  0
  1  7  2  0  0  0
  2  3  2  0  0  0
  3  4  1  0  0  0
  4  8  1  0  0  0
  4  5  2  0  0  0
  8  9  1  0  0  0
  8 12  1  0  0  0
  9 10  2  0  0  0
  9 11  1  0  0  0
 11 14  1  0  0  0
 11 13  1  0  0  0
 14 15  1  0  0  0
 14 20  2  0  0  0
 15 16  2  0  0  0
 16 17  1  0  0  0
 17 18  1  0  0  0
 17 19  2  0  0  0
 19 20  1  0  0  0
 20 21  1  0  0  0
  5  6  1  0  0  0
  5  7  1  0  0  0
 30 31  2  0  0  0
 31 32  1  0  0  0
 32 35  1  0  0  0
 35 36  1  0  0  0
M  END
> <minimizedAffinity>
-11.65479

$$$$
