CHEMBL4570460


 33 35  0  0  0  0  0  0  0  0999 V2000
  -16.5560    0.4820  -14.0099 C   0  0  0  0  0  0  0  0  0  0  0  0
  -16.6953    0.9920  -12.9008 O   0  0  0  0  0  0  0  0  0  0  0  0
  -17.4965    0.5024  -15.0365 N   0  0  0  0  0  0  0  0  0  0  0  0
  -17.3084   -0.0981  -15.8317 H   0  0  0  0  0  0  0  0  0  0  0  0
  -18.7090    1.2317  -15.0454 C   0  0  0  0  0  0  0  0  0  0  0  0
  -18.7347    2.5964  -15.3259 C   0  0  0  0  0  0  0  0  0  0  0  0
  -19.9211    3.3086  -15.2551 C   0  0  0  0  0  0  0  0  0  0  0  0
  -21.1036    2.6561  -14.9243 C   0  0  0  0  0  0  0  0  0  0  0  0
  -21.1304    1.2795  -14.7044 C   0  0  0  0  0  0  0  0  0  0  0  0
  -19.9219    0.5643  -14.7712 C   0  0  0  0  0  0  0  0  0  0  0  0
  -22.3401    0.5910  -14.4134 N   0  0  0  0  0  0  0  0  0  0  0  0
  -22.7306    0.1072  -13.1683 C   0  0  0  0  0  0  0  0  0  0  0  0
  -22.0763    0.1340  -12.1306 O   0  0  0  0  0  0  0  0  0  0  0  0
  -23.0111    0.4406  -15.1618 H   0  0  0  0  0  0  0  0  0  0  0  0
  -24.0972   -0.5009  -13.1106 C   0  0  0  0  0  0  0  0  0  0  0  0
  -24.8608   -0.3280  -11.9559 C   0  0  0  0  0  0  0  0  0  0  0  0
  -26.1432   -0.8616  -11.9198 C   0  0  0  0  0  0  0  0  0  0  0  0
  -26.6170   -1.5471  -13.0303 C   0  0  0  0  0  0  0  0  0  0  0  0
  -25.7847   -1.6802  -14.1351 C   0  0  0  0  0  0  0  0  0  0  0  0
  -24.5284   -1.1760  -14.2111 N   0  0  0  0  0  0  0  0  0  0  0  0
  -15.3056   -0.3427  -14.2866 C   0  0  0  0  0  0  0  0  0  0  0  0
  -14.9278   -1.4986  -12.9348 S   0  0  0  0  0  0  0  0  0  0  0  0
  -14.0827   -2.7823  -13.8120 C   0  0  0  0  0  0  0  0  0  0  0  0
  -13.1441   -2.3600  -15.1477 S   0  0  0  0  0  0  0  0  0  0  0  0
  -14.3861   -6.6817  -11.7999 N   0  0  0  0  0  0  0  0  0  0  0  0
  -15.5631   -5.8606  -12.1369 C   0  0  0  0  0  0  0  0  0  0  0  0
  -15.4002   -4.9120  -13.3423 C   0  0  0  0  0  0  0  0  0  0  0  0
  -14.1817   -4.0772  -13.2674 N   0  0  0  0  0  0  0  0  0  0  0  0
  -12.9770   -4.8445  -12.8847 C   0  0  0  0  0  0  0  0  0  0  0  0
  -13.2086   -5.7999  -11.6949 C   0  0  0  0  0  0  0  0  0  0  0  0
  -14.1559   -7.7932  -12.7272 C   0  0  0  0  0  0  0  0  0  0  0  0
  -12.4310   -9.5941  -12.3609 C   0  0  0  0  0  0  0  0  0  0  0  0
  -13.5840   -8.9968  -12.0296 C   0  0  0  0  0  0  0  0  0  0  0  0
 32 33  2  0  0  0
 33 31  1  0  0  0
 31 25  1  0  0  0
 25 26  1  0  0  0
 25 30  1  0  0  0
 26 27  1  0  0  0
 27 28  1  0  0  0
 28 23  1  0  0  0
 28 29  1  0  0  0
 23 24  2  0  0  0
 23 22  1  0  0  0
 22 21  1  0  0  0
 21  1  1  0  0  0
  1  2  2  0  0  0
  1  3  1  0  0  0
  3  5  1  0  0  0
  3  4  1  0  0  0
  5  6  1  0  0  0
  5 10  2  0  0  0
  6  7  2  0  0  0
  7  8  1  0  0  0
  8  9  2  0  0  0
  9 11  1  0  0  0
  9 10  1  0  0  0
 11 12  1  0  0  0
 11 14  1  0  0  0
 12 13  2  0  0  0
 12 15  1  0  0  0
 15 16  1  0  0  0
 15 20  2  0  0  0
 16 17  2  0  0  0
 17 18  1  0  0  0
 18 19  2  0  0  0
 19 20  1  0  0  0
 29 30  1  0  0  0
M  END
> <minimizedAffinity>
-8.79261

$$$$
