CHEMBL3912594


 37 40  0  0  0  0  0  0  0  0999 V2000
  -14.1845   -0.7337  -14.2316 C   0  0  0  0  0  0  0  0  0  0  0  0
  -12.9501   -0.0887  -14.1332 C   0  0  0  0  0  0  0  0  0  0  0  0
  -11.8752   -0.6856  -13.4752 C   0  0  0  0  0  0  0  0  0  0  0  0
  -12.0338   -1.9148  -12.8389 C   0  0  0  0  0  0  0  0  0  0  0  0
  -13.2744   -2.5538  -12.8944 C   0  0  0  0  0  0  0  0  0  0  0  0
  -14.3491   -1.9609  -13.5785 C   0  0  0  0  0  0  0  0  0  0  0  0
  -16.6586    0.3996  -13.2591 O   0  0  0  0  0  0  0  0  0  0  0  0
  -16.4220    0.3286  -14.4594 C   0  0  0  0  0  0  0  0  0  0  0  0
  -15.2637   -0.2200  -14.9945 N   0  0  0  0  0  0  0  0  0  0  0  0
  -17.2649    0.8280  -15.4402 N   0  0  0  0  0  0  0  0  0  0  0  0
  -15.0818   -0.0568  -15.9720 H   0  0  0  0  0  0  0  0  0  0  0  0
  -17.0253    0.6219  -16.3973 H   0  0  0  0  0  0  0  0  0  0  0  0
  -18.4600    1.5550  -15.2183 C   0  0  0  0  0  0  0  0  0  0  0  0
  -18.6197    2.9087  -15.5327 C   0  0  0  0  0  0  0  0  0  0  0  0
  -19.8255    3.5674  -15.2927 C   0  0  0  0  0  0  0  0  0  0  0  0
  -20.8962    2.8694  -14.7505 C   0  0  0  0  0  0  0  0  0  0  0  0
  -22.0397    3.5290  -14.5365 F   0  0  0  0  0  0  0  0  0  0  0  0
  -20.7844    1.5171  -14.4463 C   0  0  0  0  0  0  0  0  0  0  0  0
  -19.5520    0.8672  -14.6713 C   0  0  0  0  0  0  0  0  0  0  0  0
  -21.9591    0.7527  -13.9157 C   0  0  0  0  0  0  0  0  0  0  0  0
  -23.1554    1.3896  -13.9944 F   0  0  0  0  0  0  0  0  0  0  0  0
  -22.1274   -0.4311  -14.5729 F   0  0  0  0  0  0  0  0  0  0  0  0
  -21.8018    0.4175  -12.6029 F   0  0  0  0  0  0  0  0  0  0  0  0
  -10.9990   -2.5854  -12.2211 O   0  0  0  0  0  0  0  0  0  0  0  0
  -11.3123   -3.5032  -11.2208 C   0  0  0  0  0  0  0  0  0  0  0  0
  -11.3782   -4.8320  -11.5877 C   0  0  0  0  0  0  0  0  0  0  0  0
  -11.7501   -5.7097  -10.5911 C   0  0  0  0  0  0  0  0  0  0  0  0
  -11.9784   -5.2985   -9.3376 N   0  0  0  0  0  0  0  0  0  0  0  0
  -11.8879   -3.9928   -9.0877 C   0  0  0  0  0  0  0  0  0  0  0  0
  -11.5929   -3.0552   -9.9849 N   0  0  0  0  0  0  0  0  0  0  0  0
  -11.9164   -7.0690  -10.9130 N   0  0  0  0  0  0  0  0  0  0  0  0
  -13.0675   -7.5893  -11.4691 C   0  0  0  0  0  0  0  0  0  0  0  0
  -14.0991   -6.9861  -11.7355 O   0  0  0  0  0  0  0  0  0  0  0  0
  -11.1371   -7.6854  -10.7576 H   0  0  0  0  0  0  0  0  0  0  0  0
  -13.0580   -9.0503  -11.7812 C   0  0  0  0  0  0  0  0  0  0  0  0
  -11.7299   -9.7441  -11.9784 C   0  0  0  0  0  0  0  0  0  0  0  0
  -12.7293   -9.7002  -13.0994 C   0  0  0  0  0  0  0  0  0  0  0  0
  7  8  2  0  0  0
  8  9  1  0  0  0
  8 10  1  0  0  0
  9  1  1  0  0  0
  9 11  1  0  0  0
  1  2  1  0  0  0
  1  6  2  0  0  0
  2  3  2  0  0  0
  3  4  1  0  0  0
  4 24  1  0  0  0
  4  5  2  0  0  0
 24 25  1  0  0  0
 25 26  1  0  0  0
 25 30  2  0  0  0
 26 27  2  0  0  0
 27 31  1  0  0  0
 27 28  1  0  0  0
 31 32  1  0  0  0
 31 34  1  0  0  0
 32 33  2  0  0  0
 32 35  1  0  0  0
 35 36  1  0  0  0
 35 37  1  0  0  0
 36 37  1  0  0  0
 28 29  2  0  0  0
 29 30  1  0  0  0
  5  6  1  0  0  0
 10 13  1  0  0  0
 10 12  1  0  0  0
 13 14  1  0  0  0
 13 19  2  0  0  0
 14 15  2  0  0  0
 15 16  1  0  0  0
 16 17  1  0  0  0
 16 18  2  0  0  0
 18 20  1  0  0  0
 18 19  1  0  0  0
 20 21  1  0  0  0
 20 22  1  0  0  0
 20 23  1  0  0  0
M  END
> <minimizedAffinity>
-9.69216

$$$$
