CHEMBL2001099


 34 38  0  0  0  0  0  0  0  0999 V2000
  -15.2965    3.8233  -16.7582 C   0  0  0  0  0  0  0  0  0  0  0  0
  -16.3408    4.6286  -16.3195 C   0  0  0  0  0  0  0  0  0  0  0  0
  -17.4104    4.0514  -15.6379 C   0  0  0  0  0  0  0  0  0  0  0  0
  -17.4366    2.6772  -15.3933 C   0  0  0  0  0  0  0  0  0  0  0  0
  -16.4222    1.8911  -15.8079 N   0  0  0  0  0  0  0  0  0  0  0  0
  -15.4004    2.4668  -16.4863 C   0  0  0  0  0  0  0  0  0  0  0  0
  -11.6398    4.8041  -19.9264 C   0  0  0  0  0  0  0  0  0  0  0  0
  -10.7032    5.8524  -20.0030 C   0  0  0  0  0  0  0  0  0  0  0  0
  -10.6973    6.8840  -19.0597 C   0  0  0  0  0  0  0  0  0  0  0  0
  -11.6172    6.9067  -18.0077 C   0  0  0  0  0  0  0  0  0  0  0  0
  -12.5279    5.8537  -17.9486 C   0  0  0  0  0  0  0  0  0  0  0  0
  -13.5454    5.5755  -17.0744 N   0  0  0  0  0  0  0  0  0  0  0  0
  -14.1563    4.4054  -17.4577 C   0  0  0  0  0  0  0  0  0  0  0  0
  -13.5899    3.9356  -18.5514 N   0  0  0  0  0  0  0  0  0  0  0  0
  -12.5678    4.8133  -18.8679 C   0  0  0  0  0  0  0  0  0  0  0  0
  -13.8214    6.1557  -16.2972 H   0  0  0  0  0  0  0  0  0  0  0  0
  -11.6987    2.4492  -20.5322 N   0  0  0  0  0  0  0  0  0  0  0  0
  -11.6417    3.7439  -20.9612 C   0  0  0  0  0  0  0  0  0  0  0  0
  -11.6071    4.0145  -22.1552 O   0  0  0  0  0  0  0  0  0  0  0  0
  -11.7247    1.7052  -21.2134 H   0  0  0  0  0  0  0  0  0  0  0  0
  -11.7362    2.2262  -19.5405 H   0  0  0  0  0  0  0  0  0  0  0  0
  -18.4833    2.1223  -14.6839 N   0  0  0  0  0  0  0  0  0  0  0  0
  -18.8448    0.7197  -14.9217 C   0  0  0  0  0  0  0  0  0  0  0  0
  -20.2669    0.5805  -15.5016 C   0  0  0  0  0  0  0  0  0  0  0  0
  -21.3186    1.2809  -14.7259 N   0  0  0  0  0  0  0  0  0  0  0  0
  -20.9253    2.7117  -14.6844 C   0  0  0  0  0  0  0  0  0  0  0  0
  -19.5113    3.0062  -14.1172 C   0  0  0  0  0  0  0  0  0  0  0  0
  -21.4822    0.7649  -13.3508 C   0  0  0  0  0  0  0  0  0  0  0  0
  -22.6623   -0.1602  -13.1347 C   0  0  0  0  0  0  0  0  0  0  0  0
  -23.6054   -0.3603  -14.1564 C   0  0  0  0  0  0  0  0  0  0  0  0
  -24.6847   -1.2282  -13.9723 C   0  0  0  0  0  0  0  0  0  0  0  0
  -24.8228   -1.9205  -12.7716 C   0  0  0  0  0  0  0  0  0  0  0  0
  -23.8819   -1.7484  -11.7582 C   0  0  0  0  0  0  0  0  0  0  0  0
  -22.8104   -0.8691  -11.9354 C   0  0  0  0  0  0  0  0  0  0  0  0
 17 18  1  0  0  0
 17 20  1  0  0  0
 17 21  1  0  0  0
 18 19  2  0  0  0
 18  7  1  0  0  0
  7  8  1  0  0  0
  7 15  2  0  0  0
  8  9  2  0  0  0
  9 10  1  0  0  0
 10 11  2  0  0  0
 11 12  1  0  0  0
 11 15  1  0  0  0
 12 13  1  0  0  0
 12 16  1  0  0  0
 13  1  1  0  0  0
 13 14  2  0  0  0
  1  2  1  0  0  0
  1  6  2  0  0  0
  2  3  2  0  0  0
  3  4  1  0  0  0
  4 22  1  0  0  0
  4  5  2  0  0  0
 22 23  1  0  0  0
 22 27  1  0  0  0
 23 24  1  0  0  0
 24 25  1  0  0  0
 25 28  1  0  0  0
 25 26  1  0  0  0
 28 29  1  0  0  0
 29 30  1  0  0  0
 29 34  2  0  0  0
 30 31  2  0  0  0
 31 32  1  0  0  0
 32 33  2  0  0  0
 33 34  1  0  0  0
 26 27  1  0  0  0
  5  6  1  0  0  0
 14 15  1  0  0  0
M  END
> <minimizedAffinity>
-8.07788

$$$$
