CHEMBL426703


 39 45  0  0  0  0  0  0  0  0999 V2000
  -29.8997   -5.2706   -6.1185 N   0  0  0  0  0  0  0  0  0  0  0  0
  -29.1638   -4.3630   -6.9140 C   0  0  0  0  0  0  0  0  0  0  0  0
  -29.2079   -2.9585   -7.0300 C   0  0  0  0  0  0  0  0  0  0  0  0
  -28.4155   -2.3262   -8.0113 C   0  0  0  0  0  0  0  0  0  0  0  0
  -27.5716   -3.0593   -8.8420 C   0  0  0  0  0  0  0  0  0  0  0  0
  -27.5330   -4.4484   -8.7123 C   0  0  0  0  0  0  0  0  0  0  0  0
  -28.3482   -5.1069   -7.7755 C   0  0  0  0  0  0  0  0  0  0  0  0
  -28.7034   -6.4047   -7.4789 C   0  0  0  0  0  0  0  0  0  0  0  0
  -28.4548   -7.4794   -8.3459 C   0  0  0  0  0  0  0  0  0  0  0  0
  -29.2873   -8.6013   -8.1665 C   0  0  0  0  0  0  0  0  0  0  0  0
  -30.2144   -8.7282   -7.1199 C   0  0  0  0  0  0  0  0  0  0  0  0
  -29.9183   -7.8810   -6.0028 C   0  0  0  0  0  0  0  0  0  0  0  0
  -29.4998   -6.5846   -6.3822 C   0  0  0  0  0  0  0  0  0  0  0  0
  -29.2648   -8.6910   -4.8037 C   0  0  0  0  0  0  0  0  0  0  0  0
  -28.8890  -10.1929   -5.1542 C   0  0  0  0  0  0  0  0  0  0  0  0
  -30.0867  -10.7908   -5.8022 C   0  0  0  0  0  0  0  0  0  0  0  0
  -30.8255  -11.8096   -5.3652 N   0  0  0  0  0  0  0  0  0  0  0  0
  -31.9919  -11.6351   -6.0372 N   0  0  0  0  0  0  0  0  0  0  0  0
  -33.1295  -12.4642   -5.7200 C   0  0  0  0  0  0  0  0  0  0  0  0
  -32.0181  -10.4967   -6.8069 C   0  0  0  0  0  0  0  0  0  0  0  0
  -30.7284  -10.0327   -6.7937 C   0  0  0  0  0  0  0  0  0  0  0  0
  -28.8867   -9.5890   -9.1378 C   0  0  0  0  0  0  0  0  0  0  0  0
  -29.2370  -10.7380   -9.3691 O   0  0  0  0  0  0  0  0  0  0  0  0
  -27.8456   -8.9860   -9.8370 N   0  0  0  0  0  0  0  0  0  0  0  0
  -27.5221   -7.6325   -9.4544 C   0  0  0  0  0  0  0  0  0  0  0  0
  -27.3310   -9.5273  -10.5150 H   0  0  0  0  0  0  0  0  0  0  0  0
  -26.7339   -2.5276   -9.8370 N   0  0  0  0  0  0  0  0  0  0  0  0
  -27.0343   -1.6851  -10.8784 C   0  0  0  0  0  0  0  0  0  0  0  0
  -28.1602   -1.2629  -11.1371 O   0  0  0  0  0  0  0  0  0  0  0  0
  -25.7622   -2.7889   -9.7881 H   0  0  0  0  0  0  0  0  0  0  0  0
  -25.8680   -1.2990  -11.6908 C   0  0  0  0  0  0  0  0  0  0  0  0
  -24.7322   -0.6368  -11.2607 C   0  0  0  0  0  0  0  0  0  0  0  0
  -23.7764   -0.4378  -12.2996 C   0  0  0  0  0  0  0  0  0  0  0  0
  -24.2130   -0.9429  -13.5022 C   0  0  0  0  0  0  0  0  0  0  0  0
  -25.7633   -1.6487  -13.3735 S   0  0  0  0  0  0  0  0  0  0  0  0
  -31.0772   -4.8833   -5.3390 C   0  0  0  0  0  0  0  0  0  0  0  0
  -30.2980   -3.3744   -3.4160 C   0  0  0  0  0  0  0  0  0  0  0  0
  -30.8243   -4.7547   -3.8134 C   0  0  0  0  0  0  0  0  0  0  0  0
  -32.0947   -5.0644   -3.0143 C   0  0  0  0  0  0  0  0  0  0  0  0
 37 38  1  0  0  0
 38 39  1  0  0  0
 38 36  1  0  0  0
 36  1  1  0  0  0
  1  2  1  0  0  0
  1 13  1  0  0  0
  2  3  1  0  0  0
  2  7  2  0  0  0
  3  4  2  0  0  0
  4  5  1  0  0  0
  5 27  1  0  0  0
  5  6  2  0  0  0
 27 28  1  0  0  0
 27 30  1  0  0  0
 28 29  2  0  0  0
 28 31  1  0  0  0
 31 32  2  0  0  0
 31 35  1  0  0  0
 32 33  1  0  0  0
 33 34  2  0  0  0
 34 35  1  0  0  0
  6  7  1  0  0  0
  7  8  1  0  0  0
  8  9  1  0  0  0
  8 13  2  0  0  0
  9 10  2  0  0  0
  9 25  1  0  0  0
 10 11  1  0  0  0
 10 22  1  0  0  0
 11 12  2  0  0  0
 11 21  1  0  0  0
 12 13  1  0  0  0
 12 14  1  0  0  0
 14 15  1  0  0  0
 15 16  1  0  0  0
 16 17  2  0  0  0
 16 21  1  0  0  0
 17 18  1  0  0  0
 18 19  1  0  0  0
 18 20  1  0  0  0
 20 21  2  0  0  0
 22 23  2  0  0  0
 22 24  1  0  0  0
 24 25  1  0  0  0
 24 26  1  0  0  0
M  END
> <minimizedAffinity>
-9.40694

$$$$
