CHEMBL3949535


 31 34  0  0  0  0  0  0  0  0999 V2000
  -28.8775   -5.4297   -7.1648 C   0  0  0  0  0  0  0  0  0  0  0  0
  -28.5782   -4.4396   -8.1008 C   0  0  0  0  0  0  0  0  0  0  0  0
  -28.2806   -3.1152   -7.7074 C   0  0  0  0  0  0  0  0  0  0  0  0
  -28.0523   -2.0699   -8.6159 C   0  0  0  0  0  0  0  0  0  0  0  0
  -27.7143   -0.8314   -8.1987 N   0  0  0  0  0  0  0  0  0  0  0  0
  -27.6476   -0.6423   -6.8775 C   0  0  0  0  0  0  0  0  0  0  0  0
  -27.8845   -1.5632   -5.9345 N   0  0  0  0  0  0  0  0  0  0  0  0
  -28.1938   -2.7954   -6.3531 C   0  0  0  0  0  0  0  0  0  0  0  0
  -28.4199   -3.8085   -5.4241 C   0  0  0  0  0  0  0  0  0  0  0  0
  -28.7293   -5.1250   -5.8032 C   0  0  0  0  0  0  0  0  0  0  0  0
  -30.7071   -6.9656   -7.4142 C   0  0  0  0  0  0  0  0  0  0  0  0
  -29.3162   -6.6740   -7.5265 O   0  0  0  0  0  0  0  0  0  0  0  0
  -28.2250   -2.3027  -10.0072 N   0  0  0  0  0  0  0  0  0  0  0  0
  -29.1666   -2.0237  -10.2657 H   0  0  0  0  0  0  0  0  0  0  0  0
  -27.2702   -1.9847  -10.9970 C   0  0  0  0  0  0  0  0  0  0  0  0
  -27.6759   -1.7131  -12.3091 C   0  0  0  0  0  0  0  0  0  0  0  0
  -26.7409   -1.4497  -13.3095 C   0  0  0  0  0  0  0  0  0  0  0  0
  -25.3800   -1.4473  -13.0070 C   0  0  0  0  0  0  0  0  0  0  0  0
  -24.2709   -1.1734  -14.3030 Cl  0  0  0  0  0  0  0  0  0  0  0  0
  -24.9627   -1.6740  -11.6906 C   0  0  0  0  0  0  0  0  0  0  0  0
  -23.2922   -1.6732  -11.2405 Cl  0  0  0  0  0  0  0  0  0  0  0  0
  -25.9065   -1.9272  -10.6867 C   0  0  0  0  0  0  0  0  0  0  0  0
  -28.8700   -5.9863   -4.7369 O   0  0  0  0  0  0  0  0  0  0  0  0
  -27.7580   -6.8504   -4.4698 C   0  0  0  0  0  0  0  0  0  0  0  0
  -28.1931   -8.3138   -4.4534 C   0  0  0  0  0  0  0  0  0  0  0  0
  -27.0531   -9.3157   -4.6124 C   0  0  0  0  0  0  0  0  0  0  0  0
  -26.9198   -9.6643   -5.9883 O   0  0  0  0  0  0  0  0  0  0  0  0
  -25.8753  -10.6153   -6.1663 C   0  0  0  0  0  0  0  0  0  0  0  0
  -24.5601  -10.0437   -5.6681 C   0  0  0  0  0  0  0  0  0  0  0  0
  -24.7298   -9.5366   -4.2456 C   0  0  0  0  0  0  0  0  0  0  0  0
  -25.8600   -8.6760   -4.1453 O   0  0  0  0  0  0  0  0  0  0  0  0
 11 12  1  0  0  0
 12  1  1  0  0  0
  1  2  1  0  0  0
  1 10  2  0  0  0
  2  3  2  0  0  0
  3  4  1  0  0  0
  3  8  1  0  0  0
  4 13  1  0  0  0
  4  5  2  0  0  0
 13 15  1  0  0  0
 13 14  1  0  0  0
 15 16  1  0  0  0
 15 22  2  0  0  0
 16 17  2  0  0  0
 17 18  1  0  0  0
 18 19  1  0  0  0
 18 20  2  0  0  0
 20 21  1  0  0  0
 20 22  1  0  0  0
  5  6  1  0  0  0
  6  7  2  0  0  0
  7  8  1  0  0  0
  8  9  2  0  0  0
  9 10  1  0  0  0
 10 23  1  0  0  0
 23 24  1  0  0  0
 24 25  1  0  0  0
 25 26  1  0  0  0
 26 27  1  0  0  0
 26 31  1  0  0  0
 27 28  1  0  0  0
 28 29  1  0  0  0
 29 30  1  0  0  0
 30 31  1  0  0  0
M  END
> <minimizedAffinity>
-8.26917

$$$$
