CHEMBL1242287


 25 28  0  0  0  0  0  0  0  0999 V2000
  -16.1144    0.2037  -12.7508 N   0  0  0  0  0  0  0  0  0  0  0  0
  -15.2088    0.9191  -13.5232 C   0  0  0  0  0  0  0  0  0  0  0  0
  -13.9192    0.8353  -13.1350 N   0  0  0  0  0  0  0  0  0  0  0  0
  -12.9863    1.4907  -13.8465 C   0  0  0  0  0  0  0  0  0  0  0  0
  -13.1619    2.2376  -14.9438 N   0  0  0  0  0  0  0  0  0  0  0  0
  -14.4618    2.3049  -15.2939 C   0  0  0  0  0  0  0  0  0  0  0  0
  -15.5281    1.7018  -14.6441 C   0  0  0  0  0  0  0  0  0  0  0  0
  -16.6858    2.1230  -15.3756 C   0  0  0  0  0  0  0  0  0  0  0  0
  -16.3421    2.8869  -16.4281 N   0  0  0  0  0  0  0  0  0  0  0  0
  -15.0016    3.0007  -16.3459 N   0  0  0  0  0  0  0  0  0  0  0  0
  -15.6246   -0.4264  -12.1248 H   0  0  0  0  0  0  0  0  0  0  0  0
  -16.8812   -0.2121  -13.2667 H   0  0  0  0  0  0  0  0  0  0  0  0
  -18.1074    1.8584  -15.1218 C   0  0  0  0  0  0  0  0  0  0  0  0
  -18.6406    0.5702  -15.2759 C   0  0  0  0  0  0  0  0  0  0  0  0
  -20.0009    0.3258  -15.0591 C   0  0  0  0  0  0  0  0  0  0  0  0
  -20.8265    1.3561  -14.6182 C   0  0  0  0  0  0  0  0  0  0  0  0
  -22.6562    0.9952  -14.2949 Br  0  0  0  0  0  0  0  0  0  0  0  0
  -20.2946    2.6261  -14.4064 C   0  0  0  0  0  0  0  0  0  0  0  0
  -21.0513    3.6622  -13.9277 O   0  0  0  0  0  0  0  0  0  0  0  0
  -18.9502    2.8851  -14.6699 C   0  0  0  0  0  0  0  0  0  0  0  0
  -21.9296    3.3033  -13.7096 H   0  0  0  0  0  0  0  0  0  0  0  0
  -14.2237    3.8160  -17.2479 C   0  0  0  0  0  0  0  0  0  0  0  0
  -15.0168    5.0753  -17.7171 C   0  0  0  0  0  0  0  0  0  0  0  0
  -14.4372    4.8426  -19.1225 C   0  0  0  0  0  0  0  0  0  0  0  0
  -14.2931    3.3593  -18.7361 C   0  0  0  0  0  0  0  0  0  0  0  0
  1  2  1  0  0  0
  1 11  1  0  0  0
  1 12  1  0  0  0
  2  3  1  0  0  0
  2  7  2  0  0  0
  3  4  2  0  0  0
  4  5  1  0  0  0
  5  6  2  0  0  0
  6  7  1  0  0  0
  6 10  1  0  0  0
  7  8  1  0  0  0
  8 13  1  0  0  0
  8  9  2  0  0  0
 13 14  1  0  0  0
 13 20  2  0  0  0
 14 15  2  0  0  0
 15 16  1  0  0  0
 16 17  1  0  0  0
 16 18  2  0  0  0
 18 19  1  0  0  0
 18 20  1  0  0  0
 19 21  1  0  0  0
  9 10  1  0  0  0
 10 22  1  0  0  0
 22 23  1  0  0  0
 22 25  1  0  0  0
 23 24  1  0  0  0
 24 25  1  0  0  0
M  END
> <minimizedAffinity>
-7.53174

$$$$
