CHEMBL208229


 33 37  0  0  0  0  0  0  0  0999 V2000
  -29.3036   11.1697  -14.3402 C   0  0  0  0  0  0  0  0  0  0  0  0
  -30.2101   12.0662  -14.6651 N   0  0  0  0  0  0  0  0  0  0  0  0
  -30.6504   12.6311  -13.4875 N   0  0  0  0  0  0  0  0  0  0  0  0
  -29.9984   12.0321  -12.5128 C   0  0  0  0  0  0  0  0  0  0  0  0
  -29.1051   11.1079  -12.9906 O   0  0  0  0  0  0  0  0  0  0  0  0
  -30.0598   12.1984  -11.0644 C   0  0  0  0  0  0  0  0  0  0  0  0
  -28.8653   12.4068  -10.3445 C   0  0  0  0  0  0  0  0  0  0  0  0
  -28.8828   12.6443   -8.9745 C   0  0  0  0  0  0  0  0  0  0  0  0
  -30.1042   12.6590   -8.3400 C   0  0  0  0  0  0  0  0  0  0  0  0
  -31.2727   12.4356   -8.9766 N   0  0  0  0  0  0  0  0  0  0  0  0
  -31.2545   12.2046  -10.3255 C   0  0  0  0  0  0  0  0  0  0  0  0
  -32.6378   12.0492  -10.9174 C   0  0  0  0  0  0  0  0  0  0  0  0
  -33.1634   10.6286  -11.1815 C   0  0  0  0  0  0  0  0  0  0  0  0
  -33.8971   10.3258  -12.4648 C   0  0  0  0  0  0  0  0  0  0  0  0
  -34.3232   11.2998  -13.3637 C   0  0  0  0  0  0  0  0  0  0  0  0
  -34.9051   10.8971  -14.5613 C   0  0  0  0  0  0  0  0  0  0  0  0
  -35.0891    9.6080  -14.9199 N   0  0  0  0  0  0  0  0  0  0  0  0
  -34.6661    8.6773  -14.0400 C   0  0  0  0  0  0  0  0  0  0  0  0
  -34.0731    8.9828  -12.8253 C   0  0  0  0  0  0  0  0  0  0  0  0
  -28.5643   10.4051  -15.1640 N   0  0  0  0  0  0  0  0  0  0  0  0
  -28.8621    9.4381  -15.2270 H   0  0  0  0  0  0  0  0  0  0  0  0
  -24.7769   11.0190  -17.0490 C   0  0  0  0  0  0  0  0  0  0  0  0
  -25.4053   12.0562  -16.3434 C   0  0  0  0  0  0  0  0  0  0  0  0
  -26.6432   11.8752  -15.7077 C   0  0  0  0  0  0  0  0  0  0  0  0
  -27.3082   10.6486  -15.7462 C   0  0  0  0  0  0  0  0  0  0  0  0
  -26.7014    9.6168  -16.4745 C   0  0  0  0  0  0  0  0  0  0  0  0
  -25.4573    9.7924  -17.0975 C   0  0  0  0  0  0  0  0  0  0  0  0
  -20.9593   11.5712  -18.9901 C   0  0  0  0  0  0  0  0  0  0  0  0
  -22.1348   11.8961  -19.6572 C   0  0  0  0  0  0  0  0  0  0  0  0
  -23.3710   11.7271  -19.0241 C   0  0  0  0  0  0  0  0  0  0  0  0
  -23.4662   11.2137  -17.7161 C   0  0  0  0  0  0  0  0  0  0  0  0
  -22.2581   10.8883  -17.0703 C   0  0  0  0  0  0  0  0  0  0  0  0
  -21.0198   11.0710  -17.6943 C   0  0  0  0  0  0  0  0  0  0  0  0
 28 29  1  0  0  0
 28 33  2  0  0  0
 29 30  2  0  0  0
 30 31  1  0  0  0
 31 22  1  0  0  0
 31 32  2  0  0  0
 22 23  1  0  0  0
 22 27  2  0  0  0
 23 24  2  0  0  0
 24 25  1  0  0  0
 25 20  1  0  0  0
 25 26  2  0  0  0
 20  1  1  0  0  0
 20 21  1  0  0  0
  1  2  2  0  0  0
  1  5  1  0  0  0
  2  3  1  0  0  0
  3  4  2  0  0  0
  4  6  1  0  0  0
  4  5  1  0  0  0
  6  7  1  0  0  0
  6 11  2  0  0  0
  7  8  2  0  0  0
  8  9  1  0  0  0
  9 10  2  0  0  0
 10 11  1  0  0  0
 11 12  1  0  0  0
 12 13  1  0  0  0
 13 14  1  0  0  0
 14 15  1  0  0  0
 14 19  2  0  0  0
 15 16  2  0  0  0
 16 17  1  0  0  0
 17 18  2  0  0  0
 18 19  1  0  0  0
 26 27  1  0  0  0
 32 33  1  0  0  0
M  END
> <minimizedAffinity>
-6.29823

$$$$
