CHEMBL4103890


 29 32  0  0  0  0  0  0  0  0999 V2000
  -28.8725   -8.3027   -7.0952 C   0  0  0  0  0  0  0  0  0  0  0  0
  -28.7906   -7.1700   -7.9018 C   0  0  0  0  0  0  0  0  0  0  0  0
  -28.6654   -5.8871   -7.3643 C   0  0  0  0  0  0  0  0  0  0  0  0
  -28.5053   -5.6915   -5.9917 C   0  0  0  0  0  0  0  0  0  0  0  0
  -28.4638   -6.8220   -5.1743 C   0  0  0  0  0  0  0  0  0  0  0  0
  -28.6632   -8.1077   -5.7174 C   0  0  0  0  0  0  0  0  0  0  0  0
  -32.4415   -8.5350   -7.2209 C   0  0  0  0  0  0  0  0  0  0  0  0
  -31.8135   -9.7496   -7.8100 C   0  0  0  0  0  0  0  0  0  0  0  0
  -32.6482  -10.6834   -8.2964 N   0  0  0  0  0  0  0  0  0  0  0  0
  -31.8327  -11.6515   -8.7306 N   0  0  0  0  0  0  0  0  0  0  0  0
  -30.5090  -11.3781   -8.5581 C   0  0  0  0  0  0  0  0  0  0  0  0
  -29.5074  -12.2016   -8.9186 N   0  0  0  0  0  0  0  0  0  0  0  0
  -28.2881  -11.6947   -8.6503 C   0  0  0  0  0  0  0  0  0  0  0  0
  -28.0425  -10.4640   -8.0597 C   0  0  0  0  0  0  0  0  0  0  0  0
  -29.1151   -9.6250   -7.6927 C   0  0  0  0  0  0  0  0  0  0  0  0
  -30.4278  -10.1234   -7.9595 C   0  0  0  0  0  0  0  0  0  0  0  0
  -32.2263  -12.4855   -9.1469 H   0  0  0  0  0  0  0  0  0  0  0  0
  -28.3430   -4.4114   -5.4228 N   0  0  0  0  0  0  0  0  0  0  0  0
  -28.8909   -3.2387   -5.9293 C   0  0  0  0  0  0  0  0  0  0  0  0
  -29.7179   -3.1827   -6.8308 O   0  0  0  0  0  0  0  0  0  0  0  0
  -28.3586   -2.1109   -5.3263 N   0  0  0  0  0  0  0  0  0  0  0  0
  -27.9473   -4.3596   -4.4951 H   0  0  0  0  0  0  0  0  0  0  0  0
  -27.3906   -2.1959   -5.0546 H   0  0  0  0  0  0  0  0  0  0  0  0
  -28.7924   -0.8273   -5.7383 C   0  0  0  0  0  0  0  0  0  0  0  0
  -30.0038   -0.3285   -5.2653 C   0  0  0  0  0  0  0  0  0  0  0  0
  -30.3844    0.9700   -5.6025 C   0  0  0  0  0  0  0  0  0  0  0  0
  -29.5635    1.7069   -6.4433 C   0  0  0  0  0  0  0  0  0  0  0  0
  -28.4052    1.2424   -6.9546 N   0  0  0  0  0  0  0  0  0  0  0  0
  -28.0345   -0.0041   -6.5768 C   0  0  0  0  0  0  0  0  0  0  0  0
  7  8  1  0  0  0
  8  9  2  0  0  0
  8 16  1  0  0  0
  9 10  1  0  0  0
 10 11  1  0  0  0
 10 17  1  0  0  0
 11 12  1  0  0  0
 11 16  2  0  0  0
 12 13  2  0  0  0
 13 14  1  0  0  0
 14 15  2  0  0  0
 15  1  1  0  0  0
 15 16  1  0  0  0
  1  2  1  0  0  0
  1  6  2  0  0  0
  2  3  2  0  0  0
  3  4  1  0  0  0
  4 18  1  0  0  0
  4  5  2  0  0  0
 18 19  1  0  0  0
 18 22  1  0  0  0
 19 20  2  0  0  0
 19 21  1  0  0  0
 21 24  1  0  0  0
 21 23  1  0  0  0
 24 25  1  0  0  0
 24 29  2  0  0  0
 25 26  2  0  0  0
 26 27  1  0  0  0
 27 28  2  0  0  0
 28 29  1  0  0  0
  5  6  1  0  0  0
M  END
> <minimizedAffinity>
-8.46192

$$$$
