CHEMBL1988537


 25 28  0  0  0  0  0  0  0  0999 V2000
  -30.2786   -6.8471   -6.2750 C   0  0  0  0  0  0  0  0  0  0  0  0
  -31.4544   -6.8963   -5.9176 O   0  0  0  0  0  0  0  0  0  0  0  0
  -29.5486   -7.9477   -6.7339 N   0  0  0  0  0  0  0  0  0  0  0  0
  -30.1917   -9.0768   -7.3858 C   0  0  0  0  0  0  0  0  0  0  0  0
  -31.0859   -9.9347   -6.7362 C   0  0  0  0  0  0  0  0  0  0  0  0
  -31.4510  -11.1561   -7.3378 C   0  0  0  0  0  0  0  0  0  0  0  0
  -31.0183  -11.4825   -8.6278 C   0  0  0  0  0  0  0  0  0  0  0  0
  -30.0858  -10.6754   -9.2592 C   0  0  0  0  0  0  0  0  0  0  0  0
  -29.5832   -9.5808   -8.5586 C   0  0  0  0  0  0  0  0  0  0  0  0
  -27.7919   -9.3384   -8.6846 S   0  0  0  0  0  0  0  0  0  0  0  0
  -27.5722   -9.3572   -6.8835 C   0  0  0  0  0  0  0  0  0  0  0  0
  -26.9304  -10.3492   -6.1559 C   0  0  0  0  0  0  0  0  0  0  0  0
  -26.5365  -11.8840   -6.8286 Cl  0  0  0  0  0  0  0  0  0  0  0  0
  -26.7746  -10.1330   -4.7945 C   0  0  0  0  0  0  0  0  0  0  0  0
  -27.1696   -9.0027   -4.1516 N   0  0  0  0  0  0  0  0  0  0  0  0
  -27.9458   -8.1433   -4.8524 C   0  0  0  0  0  0  0  0  0  0  0  0
  -28.2895   -8.3750   -6.1760 C   0  0  0  0  0  0  0  0  0  0  0  0
  -28.2238   -3.0352   -6.6249 C   0  0  0  0  0  0  0  0  0  0  0  0
  -28.5135   -3.7760   -7.7701 C   0  0  0  0  0  0  0  0  0  0  0  0
  -29.1992   -5.0100   -7.6534 C   0  0  0  0  0  0  0  0  0  0  0  0
  -29.6259   -5.4860   -6.4108 C   0  0  0  0  0  0  0  0  0  0  0  0
  -29.3147   -4.7292   -5.2714 C   0  0  0  0  0  0  0  0  0  0  0  0
  -28.6328   -3.5229   -5.3835 C   0  0  0  0  0  0  0  0  0  0  0  0
  -27.3953   -1.2406   -5.2751 C   0  0  0  0  0  0  0  0  0  0  0  0
  -27.5535   -1.8483   -6.5476 O   0  0  0  0  0  0  0  0  0  0  0  0
 24 25  1  0  0  0
 25 18  1  0  0  0
 18 19  1  0  0  0
 18 23  2  0  0  0
 19 20  2  0  0  0
 20 21  1  0  0  0
 21  1  1  0  0  0
 21 22  2  0  0  0
  1  2  2  0  0  0
  1  3  1  0  0  0
  3  4  1  0  0  0
  3 17  1  0  0  0
  4  5  1  0  0  0
  4  9  2  0  0  0
  5  6  2  0  0  0
  6  7  1  0  0  0
  7  8  2  0  0  0
  8  9  1  0  0  0
  9 10  1  0  0  0
 10 11  1  0  0  0
 11 12  1  0  0  0
 11 17  2  0  0  0
 12 13  1  0  0  0
 12 14  2  0  0  0
 14 15  1  0  0  0
 15 16  2  0  0  0
 16 17  1  0  0  0
 22 23  1  0  0  0
M  END
> <minimizedAffinity>
-7.21401

$$$$
