CHEMBL3907284


 34 37  0  0  0  0  0  0  0  0999 V2000
  -28.4328   -1.9703   -4.9734 C   0  0  0  0  0  0  0  0  0  0  0  0
  -28.6167   -0.5956   -4.8000 C   0  0  0  0  0  0  0  0  0  0  0  0
  -28.4425    0.2756   -5.8725 C   0  0  0  0  0  0  0  0  0  0  0  0
  -28.0913   -0.2346   -7.1184 C   0  0  0  0  0  0  0  0  0  0  0  0
  -27.9800   -1.6194   -7.3097 C   0  0  0  0  0  0  0  0  0  0  0  0
  -28.1799   -2.4941   -6.2430 C   0  0  0  0  0  0  0  0  0  0  0  0
  -27.5207   -2.1037   -8.6276 C   0  0  0  0  0  0  0  0  0  0  0  0
  -27.5549   -3.3116   -8.8080 O   0  0  0  0  0  0  0  0  0  0  0  0
  -27.0495   -1.1451   -9.5091 N   0  0  0  0  0  0  0  0  0  0  0  0
  -26.8689   -0.2080   -9.1653 H   0  0  0  0  0  0  0  0  0  0  0  0
  -26.4764   -1.4504  -10.7670 C   0  0  0  0  0  0  0  0  0  0  0  0
  -25.0980   -1.5431  -10.9605 C   0  0  0  0  0  0  0  0  0  0  0  0
  -24.5511   -1.6722  -12.2420 C   0  0  0  0  0  0  0  0  0  0  0  0
  -23.0602   -1.6795  -12.4087 C   0  0  0  0  0  0  0  0  0  0  0  0
  -25.4074   -1.7390  -13.3452 C   0  0  0  0  0  0  0  0  0  0  0  0
  -26.7921   -1.7386  -13.1582 C   0  0  0  0  0  0  0  0  0  0  0  0
  -27.3155   -1.6098  -11.8732 C   0  0  0  0  0  0  0  0  0  0  0  0
  -28.6481   -1.5836  -11.7100 F   0  0  0  0  0  0  0  0  0  0  0  0
  -28.5331   -2.7357   -3.8367 O   0  0  0  0  0  0  0  0  0  0  0  0
  -28.1385   -7.2954   -4.3384 C   0  0  0  0  0  0  0  0  0  0  0  0
  -29.4979   -7.3458   -4.0918 C   0  0  0  0  0  0  0  0  0  0  0  0
  -30.0677   -6.0624   -3.8598 C   0  0  0  0  0  0  0  0  0  0  0  0
  -31.3853   -5.8258   -3.6213 N   0  0  0  0  0  0  0  0  0  0  0  0
  -31.7348   -4.5325   -3.5142 C   0  0  0  0  0  0  0  0  0  0  0  0
  -30.8647   -3.4630   -3.6089 C   0  0  0  0  0  0  0  0  0  0  0  0
  -29.4996   -3.7134   -3.7598 C   0  0  0  0  0  0  0  0  0  0  0  0
  -29.1143   -5.0511   -3.9248 C   0  0  0  0  0  0  0  0  0  0  0  0
  -27.5487   -5.6953   -4.2156 S   0  0  0  0  0  0  0  0  0  0  0  0
  -25.9764   -8.3413   -4.2175 N   0  0  0  0  0  0  0  0  0  0  0  0
  -27.2776   -8.4221   -4.6719 C   0  0  0  0  0  0  0  0  0  0  0  0
  -27.6747   -9.3757   -5.3335 O   0  0  0  0  0  0  0  0  0  0  0  0
  -25.7173   -7.5567   -3.6346 H   0  0  0  0  0  0  0  0  0  0  0  0
  -24.7197  -10.2225   -3.2688 C   0  0  0  0  0  0  0  0  0  0  0  0
  -25.0019   -9.3721   -4.4936 C   0  0  0  0  0  0  0  0  0  0  0  0
 33 34  1  0  0  0
 34 29  1  0  0  0
 29 30  1  0  0  0
 29 32  1  0  0  0
 30 31  2  0  0  0
 30 20  1  0  0  0
 20 21  2  0  0  0
 20 28  1  0  0  0
 21 22  1  0  0  0
 22 23  1  0  0  0
 22 27  2  0  0  0
 23 24  2  0  0  0
 24 25  1  0  0  0
 25 26  2  0  0  0
 26 19  1  0  0  0
 26 27  1  0  0  0
 19  1  1  0  0  0
  1  2  1  0  0  0
  1  6  2  0  0  0
  2  3  2  0  0  0
  3  4  1  0  0  0
  4  5  2  0  0  0
  5  7  1  0  0  0
  5  6  1  0  0  0
  7  8  2  0  0  0
  7  9  1  0  0  0
  9 11  1  0  0  0
  9 10  1  0  0  0
 11 12  1  0  0  0
 11 17  2  0  0  0
 12 13  2  0  0  0
 13 14  1  0  0  0
 13 15  1  0  0  0
 15 16  2  0  0  0
 16 17  1  0  0  0
 17 18  1  0  0  0
 27 28  1  0  0  0
M  END
> <minimizedAffinity>
-10.33592

$$$$
