CHEMBL364626


 33 36  0  0  0  0  0  0  0  0999 V2000
  -24.4827   -1.5642  -12.4940 C   0  0  0  0  0  0  0  0  0  0  0  0
  -23.2815   -1.1876  -11.8969 C   0  0  0  0  0  0  0  0  0  0  0  0
  -22.3667   -0.3639  -12.5592 C   0  0  0  0  0  0  0  0  0  0  0  0
  -22.6468    0.1324  -13.8332 C   0  0  0  0  0  0  0  0  0  0  0  0
  -23.8219   -0.3239  -14.4646 C   0  0  0  0  0  0  0  0  0  0  0  0
  -24.7244   -1.1734  -13.8127 C   0  0  0  0  0  0  0  0  0  0  0  0
  -21.8680    1.2365  -14.4235 C   0  0  0  0  0  0  0  0  0  0  0  0
  -22.1440    2.5861  -14.1125 C   0  0  0  0  0  0  0  0  0  0  0  0
  -21.2189    3.6193  -14.3689 C   0  0  0  0  0  0  0  0  0  0  0  0
  -19.9509    3.3157  -14.8508 C   0  0  0  0  0  0  0  0  0  0  0  0
  -19.7002    1.9932  -15.1513 C   0  0  0  0  0  0  0  0  0  0  0  0
  -20.6617    0.9850  -15.0711 C   0  0  0  0  0  0  0  0  0  0  0  0
  -20.0157   -0.2833  -15.5141 C   0  0  0  0  0  0  0  0  0  0  0  0
  -18.6382   -0.0539  -15.1718 N   0  0  0  0  0  0  0  0  0  0  0  0
  -18.3956    1.3114  -15.0953 C   0  0  0  0  0  0  0  0  0  0  0  0
  -17.3479    1.8401  -14.7862 O   0  0  0  0  0  0  0  0  0  0  0  0
  -18.2638   -0.5552  -14.3742 H   0  0  0  0  0  0  0  0  0  0  0  0
  -25.5694   -0.9324   -9.9080 O   0  0  0  0  0  0  0  0  0  0  0  0
  -25.9675   -1.9094  -10.5452 C   0  0  0  0  0  0  0  0  0  0  0  0
  -25.5024   -2.2611  -11.8042 N   0  0  0  0  0  0  0  0  0  0  0  0
  -26.9530   -2.7702  -10.0935 N   0  0  0  0  0  0  0  0  0  0  0  0
  -26.0951   -2.8582  -12.3594 H   0  0  0  0  0  0  0  0  0  0  0  0
  -27.1384   -3.5873  -10.6555 H   0  0  0  0  0  0  0  0  0  0  0  0
  -27.6409   -2.6728   -8.8597 C   0  0  0  0  0  0  0  0  0  0  0  0
  -27.6962   -1.5058   -8.0948 C   0  0  0  0  0  0  0  0  0  0  0  0
  -28.3710   -1.4852   -6.8690 C   0  0  0  0  0  0  0  0  0  0  0  0
  -28.9918   -2.6329   -6.3822 C   0  0  0  0  0  0  0  0  0  0  0  0
  -28.9632   -3.8006   -7.1577 C   0  0  0  0  0  0  0  0  0  0  0  0
  -28.2819   -3.8220   -8.3850 C   0  0  0  0  0  0  0  0  0  0  0  0
  -29.6966   -2.6254   -5.0443 C   0  0  0  0  0  0  0  0  0  0  0  0
  -30.0860   -1.3841   -4.6381 F   0  0  0  0  0  0  0  0  0  0  0  0
  -30.8233   -3.3905   -5.0415 F   0  0  0  0  0  0  0  0  0  0  0  0
  -28.9093   -3.1132   -4.0485 F   0  0  0  0  0  0  0  0  0  0  0  0
 18 19  2  0  0  0
 19 20  1  0  0  0
 19 21  1  0  0  0
 20  1  1  0  0  0
 20 22  1  0  0  0
  1  2  1  0  0  0
  1  6  2  0  0  0
  2  3  2  0  0  0
  3  4  1  0  0  0
  4  7  1  0  0  0
  4  5  2  0  0  0
  7  8  1  0  0  0
  7 12  2  0  0  0
  8  9  2  0  0  0
  9 10  1  0  0  0
 10 11  2  0  0  0
 11 12  1  0  0  0
 11 15  1  0  0  0
 12 13  1  0  0  0
 13 14  1  0  0  0
 14 15  1  0  0  0
 14 17  1  0  0  0
 15 16  2  0  0  0
  5  6  1  0  0  0
 21 24  1  0  0  0
 21 23  1  0  0  0
 24 25  1  0  0  0
 24 29  2  0  0  0
 25 26  2  0  0  0
 26 27  1  0  0  0
 27 30  1  0  0  0
 27 28  2  0  0  0
 30 31  1  0  0  0
 30 32  1  0  0  0
 30 33  1  0  0  0
 28 29  1  0  0  0
M  END
> <minimizedAffinity>
-11.38412

$$$$
