CHEMBL489820


 33 37  0  0  0  0  0  0  0  0999 V2000
  -18.6523    2.2981  -14.9831 C   0  0  0  0  0  0  0  0  0  0  0  0
  -19.3957    3.3952  -14.5476 C   0  0  0  0  0  0  0  0  0  0  0  0
  -20.7282    3.2481  -14.1666 C   0  0  0  0  0  0  0  0  0  0  0  0
  -21.2807    1.9697  -14.2651 C   0  0  0  0  0  0  0  0  0  0  0  0
  -22.5616    1.5464  -14.0160 N   0  0  0  0  0  0  0  0  0  0  0  0
  -22.7044    0.2074  -14.2947 C   0  0  0  0  0  0  0  0  0  0  0  0
  -21.4574   -0.2416  -14.6949 C   0  0  0  0  0  0  0  0  0  0  0  0
  -20.5667    0.8627  -14.7091 C   0  0  0  0  0  0  0  0  0  0  0  0
  -19.2288    1.0292  -15.0831 C   0  0  0  0  0  0  0  0  0  0  0  0
  -23.3243    2.1715  -13.7853 H   0  0  0  0  0  0  0  0  0  0  0  0
  -23.9806   -0.5007  -14.2189 C   0  0  0  0  0  0  0  0  0  0  0  0
  -24.8030   -0.5504  -15.3601 C   0  0  0  0  0  0  0  0  0  0  0  0
  -26.0803   -1.1372  -15.3204 C   0  0  0  0  0  0  0  0  0  0  0  0
  -26.5820   -1.6723  -14.1361 C   0  0  0  0  0  0  0  0  0  0  0  0
  -25.7745   -1.6343  -13.0082 C   0  0  0  0  0  0  0  0  0  0  0  0
  -24.4864   -1.0841  -13.0615 C   0  0  0  0  0  0  0  0  0  0  0  0
  -23.9051   -1.2571  -11.7121 C   0  0  0  0  0  0  0  0  0  0  0  0
  -22.7637   -1.0315  -11.3588 O   0  0  0  0  0  0  0  0  0  0  0  0
  -24.8823   -1.8027  -10.9129 N   0  0  0  0  0  0  0  0  0  0  0  0
  -26.0902   -2.1037  -11.6294 C   0  0  0  0  0  0  0  0  0  0  0  0
  -24.6934   -2.0374   -9.9479 H   0  0  0  0  0  0  0  0  0  0  0  0
  -17.3454    2.3545  -15.3674 O   0  0  0  0  0  0  0  0  0  0  0  0
  -16.6736    1.1019  -15.3975 C   0  0  0  0  0  0  0  0  0  0  0  0
  -15.5805    1.1370  -14.3445 C   0  0  0  0  0  0  0  0  0  0  0  0
  -14.6620   -0.0848  -14.4605 C   0  0  0  0  0  0  0  0  0  0  0  0
  -14.7549   -3.7162  -13.5549 N   0  0  0  0  0  0  0  0  0  0  0  0
  -13.5843   -2.9577  -14.0553 C   0  0  0  0  0  0  0  0  0  0  0  0
  -13.2724   -1.6908  -13.2237 C   0  0  0  0  0  0  0  0  0  0  0  0
  -14.3915   -0.7313  -13.1646 N   0  0  0  0  0  0  0  0  0  0  0  0
  -15.5987   -1.4494  -12.6880 C   0  0  0  0  0  0  0  0  0  0  0  0
  -15.8983   -2.7858  -13.4188 C   0  0  0  0  0  0  0  0  0  0  0  0
  -15.4684   -5.3045  -11.7230 C   0  0  0  0  0  0  0  0  0  0  0  0
  -14.3861   -4.4120  -12.3123 C   0  0  0  0  0  0  0  0  0  0  0  0
 32 33  1  0  0  0
 33 26  1  0  0  0
 26 27  1  0  0  0
 26 31  1  0  0  0
 27 28  1  0  0  0
 28 29  1  0  0  0
 29 25  1  0  0  0
 29 30  1  0  0  0
 25 24  1  0  0  0
 24 23  1  0  0  0
 23 22  1  0  0  0
 22  1  1  0  0  0
  1  2  1  0  0  0
  1  9  2  0  0  0
  2  3  2  0  0  0
  3  4  1  0  0  0
  4  5  1  0  0  0
  4  8  2  0  0  0
  5  6  1  0  0  0
  5 10  1  0  0  0
  6 11  1  0  0  0
  6  7  2  0  0  0
 11 12  1  0  0  0
 11 16  2  0  0  0
 12 13  2  0  0  0
 13 14  1  0  0  0
 14 15  2  0  0  0
 15 16  1  0  0  0
 15 20  1  0  0  0
 16 17  1  0  0  0
 17 18  2  0  0  0
 17 19  1  0  0  0
 19 20  1  0  0  0
 19 21  1  0  0  0
  7  8  1  0  0  0
  8  9  1  0  0  0
 30 31  1  0  0  0
M  END
> <minimizedAffinity>
-9.13276

$$$$
