CHEMBL222974


 29 32  0  0  0  0  0  0  0  0999 V2000
  -20.1962    2.7253  -14.9354 C   0  0  0  0  0  0  0  0  0  0  0  0
  -21.3701    3.1104  -14.2852 C   0  0  0  0  0  0  0  0  0  0  0  0
  -22.2431    2.1531  -13.7608 C   0  0  0  0  0  0  0  0  0  0  0  0
  -21.9885    0.7796  -13.8958 C   0  0  0  0  0  0  0  0  0  0  0  0
  -20.8413    0.4174  -14.6315 C   0  0  0  0  0  0  0  0  0  0  0  0
  -19.9558    1.3737  -15.1516 C   0  0  0  0  0  0  0  0  0  0  0  0
  -22.9168   -0.2287  -13.3372 C   0  0  0  0  0  0  0  0  0  0  0  0
  -22.7273   -0.7841  -12.0491 C   0  0  0  0  0  0  0  0  0  0  0  0
  -23.6420   -1.6664  -11.4729 C   0  0  0  0  0  0  0  0  0  0  0  0
  -24.8173   -2.0088  -12.1356 C   0  0  0  0  0  0  0  0  0  0  0  0
  -25.0033   -1.4859  -13.4203 C   0  0  0  0  0  0  0  0  0  0  0  0
  -24.0676   -0.6611  -14.0482 C   0  0  0  0  0  0  0  0  0  0  0  0
  -24.5989   -0.4935  -15.3536 C   0  0  0  0  0  0  0  0  0  0  0  0
  -25.8052   -1.0431  -15.5090 N   0  0  0  0  0  0  0  0  0  0  0  0
  -26.0494   -1.5911  -14.3055 N   0  0  0  0  0  0  0  0  0  0  0  0
  -27.3499   -2.1528  -14.0287 C   0  0  0  0  0  0  0  0  0  0  0  0
  -17.0975    4.2818  -15.9996 N   0  0  0  0  0  0  0  0  0  0  0  0
  -17.9317    3.2439  -15.6143 C   0  0  0  0  0  0  0  0  0  0  0  0
  -17.6003    2.0618  -15.5752 O   0  0  0  0  0  0  0  0  0  0  0  0
  -19.2140    3.6782  -15.3125 N   0  0  0  0  0  0  0  0  0  0  0  0
  -17.3903    5.2095  -15.7469 H   0  0  0  0  0  0  0  0  0  0  0  0
  -19.5357    4.4598  -15.8618 H   0  0  0  0  0  0  0  0  0  0  0  0
  -12.2953    3.5115  -15.0949 C   0  0  0  0  0  0  0  0  0  0  0  0
  -13.4157    3.7509  -16.0633 C   0  0  0  0  0  0  0  0  0  0  0  0
  -13.1457    3.8188  -17.4351 C   0  0  0  0  0  0  0  0  0  0  0  0
  -14.1759    4.0423  -18.3377 C   0  0  0  0  0  0  0  0  0  0  0  0
  -15.4819    4.2024  -17.8773 C   0  0  0  0  0  0  0  0  0  0  0  0
  -15.7855    4.1238  -16.5134 C   0  0  0  0  0  0  0  0  0  0  0  0
  -14.7391    3.9043  -15.6093 C   0  0  0  0  0  0  0  0  0  0  0  0
 23 24  1  0  0  0
 24 25  1  0  0  0
 24 29  2  0  0  0
 25 26  2  0  0  0
 26 27  1  0  0  0
 27 28  2  0  0  0
 28 17  1  0  0  0
 28 29  1  0  0  0
 17 18  1  0  0  0
 17 21  1  0  0  0
 18 19  2  0  0  0
 18 20  1  0  0  0
 20  1  1  0  0  0
 20 22  1  0  0  0
  1  2  1  0  0  0
  1  6  2  0  0  0
  2  3  2  0  0  0
  3  4  1  0  0  0
  4  7  1  0  0  0
  4  5  2  0  0  0
  7  8  1  0  0  0
  7 12  2  0  0  0
  8  9  2  0  0  0
  9 10  1  0  0  0
 10 11  2  0  0  0
 11 12  1  0  0  0
 11 15  1  0  0  0
 12 13  1  0  0  0
 13 14  2  0  0  0
 14 15  1  0  0  0
 15 16  1  0  0  0
  5  6  1  0  0  0
M  END
> <minimizedAffinity>
-10.65072

$$$$
