CHEMBL469171


 31 35  0  0  0  0  0  0  0  0999 V2000
  -28.4388   -5.7832   -5.3036 C   0  0  0  0  0  0  0  0  0  0  0  0
  -29.2906   -5.2912   -6.3176 C   0  0  0  0  0  0  0  0  0  0  0  0
  -29.7728   -6.1320   -7.3139 C   0  0  0  0  0  0  0  0  0  0  0  0
  -29.3716   -7.4546   -7.3474 C   0  0  0  0  0  0  0  0  0  0  0  0
  -28.5656   -7.9631   -6.3279 C   0  0  0  0  0  0  0  0  0  0  0  0
  -28.1364   -7.1798   -5.2410 C   0  0  0  0  0  0  0  0  0  0  0  0
  -26.6939   -5.0810   -3.8934 O   0  0  0  0  0  0  0  0  0  0  0  0
  -27.8017   -4.8156   -4.3669 C   0  0  0  0  0  0  0  0  0  0  0  0
  -28.4918   -3.5743   -3.9820 C   0  0  0  0  0  0  0  0  0  0  0  0
  -29.6196   -3.6071   -3.2460 N   0  0  0  0  0  0  0  0  0  0  0  0
  -30.1745   -2.4059   -3.4598 N   0  0  0  0  0  0  0  0  0  0  0  0
  -29.4682   -1.6185   -4.3276 C   0  0  0  0  0  0  0  0  0  0  0  0
  -29.7952   -0.4322   -4.9886 C   0  0  0  0  0  0  0  0  0  0  0  0
  -28.8045    0.1349   -5.7952 C   0  0  0  0  0  0  0  0  0  0  0  0
  -27.5279   -0.4232   -5.8723 C   0  0  0  0  0  0  0  0  0  0  0  0
  -27.2402   -1.6401   -5.2434 C   0  0  0  0  0  0  0  0  0  0  0  0
  -28.2574   -2.2743   -4.5099 C   0  0  0  0  0  0  0  0  0  0  0  0
  -31.0674   -2.2021   -3.0258 H   0  0  0  0  0  0  0  0  0  0  0  0
  -27.3668   -7.7659   -4.2164 N   0  0  0  0  0  0  0  0  0  0  0  0
  -27.5985   -7.3970   -3.2932 H   0  0  0  0  0  0  0  0  0  0  0  0
  -27.1668   -9.2148   -4.2491 C   0  0  0  0  0  0  0  0  0  0  0  0
  -25.7130   -9.6501   -4.2956 C   0  0  0  0  0  0  0  0  0  0  0  0
  -25.1013  -10.1098   -3.1142 C   0  0  0  0  0  0  0  0  0  0  0  0
  -23.7999  -10.6254   -3.0941 C   0  0  0  0  0  0  0  0  0  0  0  0
  -23.1343  -10.6945   -4.3192 C   0  0  0  0  0  0  0  0  0  0  0  0
  -21.8810  -11.1327   -4.6531 N   0  0  0  0  0  0  0  0  0  0  0  0
  -21.6145  -11.0960   -5.9699 N   0  0  0  0  0  0  0  0  0  0  0  0
  -22.7301  -10.5815   -6.4944 C   0  0  0  0  0  0  0  0  0  0  0  0
  -23.7095  -10.2868   -5.5151 C   0  0  0  0  0  0  0  0  0  0  0  0
  -25.0147   -9.7531   -5.5117 C   0  0  0  0  0  0  0  0  0  0  0  0
  -21.1612  -11.4840   -4.0292 H   0  0  0  0  0  0  0  0  0  0  0  0
  7  8  2  0  0  0
  8  1  1  0  0  0
  8  9  1  0  0  0
  1  2  1  0  0  0
  1  6  2  0  0  0
  2  3  2  0  0  0
  3  4  1  0  0  0
  4  5  2  0  0  0
  5  6  1  0  0  0
  6 19  1  0  0  0
 19 21  1  0  0  0
 19 20  1  0  0  0
 21 22  1  0  0  0
 22 23  1  0  0  0
 22 30  2  0  0  0
 23 24  2  0  0  0
 24 25  1  0  0  0
 25 26  1  0  0  0
 25 29  2  0  0  0
 26 27  1  0  0  0
 26 31  1  0  0  0
 27 28  2  0  0  0
 28 29  1  0  0  0
 29 30  1  0  0  0
  9 10  2  0  0  0
  9 17  1  0  0  0
 10 11  1  0  0  0
 11 12  1  0  0  0
 11 18  1  0  0  0
 12 13  1  0  0  0
 12 17  2  0  0  0
 13 14  2  0  0  0
 14 15  1  0  0  0
 15 16  2  0  0  0
 16 17  1  0  0  0
M  END
> <minimizedAffinity>
-9.04948

$$$$
