CHEMBL3986725


 33 36  0  0  0  0  0  0  0  0999 V2000
  -27.4054   -1.9715   -9.8986 C   0  0  0  0  0  0  0  0  0  0  0  0
  -27.1798   -0.9650   -8.9780 C   0  0  0  0  0  0  0  0  0  0  0  0
  -27.4823   -1.0935   -7.6577 N   0  0  0  0  0  0  0  0  0  0  0  0
  -28.0286   -2.2676   -7.2749 C   0  0  0  0  0  0  0  0  0  0  0  0
  -28.3627   -2.5131   -5.9519 C   0  0  0  0  0  0  0  0  0  0  0  0
  -28.9743   -3.7156   -5.5607 C   0  0  0  0  0  0  0  0  0  0  0  0
  -29.2659   -4.7261   -6.4911 C   0  0  0  0  0  0  0  0  0  0  0  0
  -28.8707   -4.4860   -7.8104 C   0  0  0  0  0  0  0  0  0  0  0  0
  -28.2790   -3.2926   -8.2201 C   0  0  0  0  0  0  0  0  0  0  0  0
  -27.9655   -3.1392   -9.5135 N   0  0  0  0  0  0  0  0  0  0  0  0
  -25.7397   -1.5535  -11.7609 C   0  0  0  0  0  0  0  0  0  0  0  0
  -27.0109   -1.8720  -11.2927 C   0  0  0  0  0  0  0  0  0  0  0  0
  -27.7855   -2.0260  -12.4642 C   0  0  0  0  0  0  0  0  0  0  0  0
  -27.0875   -1.8070  -13.5786 N   0  0  0  0  0  0  0  0  0  0  0  0
  -25.8599   -1.4853  -13.1296 N   0  0  0  0  0  0  0  0  0  0  0  0
  -24.8439   -1.1063  -14.0858 C   0  0  0  0  0  0  0  0  0  0  0  0
  -23.2626   -1.9999  -11.7230 C   0  0  0  0  0  0  0  0  0  0  0  0
  -24.4451   -1.3306  -11.0400 C   0  0  0  0  0  0  0  0  0  0  0  0
  -29.9477   -5.9017   -6.0912 N   0  0  0  0  0  0  0  0  0  0  0  0
  -30.2239   -7.0206   -6.9257 C   0  0  0  0  0  0  0  0  0  0  0  0
  -29.2217   -7.5469   -7.7611 C   0  0  0  0  0  0  0  0  0  0  0  0
  -29.4466   -8.6802   -8.5470 C   0  0  0  0  0  0  0  0  0  0  0  0
  -30.6918   -9.3101   -8.5101 C   0  0  0  0  0  0  0  0  0  0  0  0
  -31.7050   -8.8173   -7.6945 C   0  0  0  0  0  0  0  0  0  0  0  0
  -31.4722   -7.6680   -6.9306 C   0  0  0  0  0  0  0  0  0  0  0  0
  -28.5332   -9.2777   -9.3730 O   0  0  0  0  0  0  0  0  0  0  0  0
  -27.2103   -8.7550   -9.3552 C   0  0  0  0  0  0  0  0  0  0  0  0
  -32.9488   -9.3655   -7.5349 O   0  0  0  0  0  0  0  0  0  0  0  0
  -33.0244  -10.5925   -6.8185 C   0  0  0  0  0  0  0  0  0  0  0  0
  -30.2427   -6.0925   -4.6428 C   0  0  0  0  0  0  0  0  0  0  0  0
  -29.2939   -7.0821   -3.9375 C   0  0  0  0  0  0  0  0  0  0  0  0
  -29.3655   -7.0214   -2.5159 O   0  0  0  0  0  0  0  0  0  0  0  0
  -28.7229   -6.3462   -2.2338 H   0  0  0  0  0  0  0  0  0  0  0  0
 17 18  1  0  0  0
 18 11  1  0  0  0
 11 12  2  0  0  0
 11 15  1  0  0  0
 12  1  1  0  0  0
 12 13  1  0  0  0
  1  2  1  0  0  0
  1 10  2  0  0  0
  2  3  2  0  0  0
  3  4  1  0  0  0
  4  5  1  0  0  0
  4  9  2  0  0  0
  5  6  2  0  0  0
  6  7  1  0  0  0
  7 19  1  0  0  0
  7  8  2  0  0  0
 19 30  1  0  0  0
 19 20  1  0  0  0
 30 31  1  0  0  0
 31 32  1  0  0  0
 32 33  1  0  0  0
 20 21  1  0  0  0
 20 25  2  0  0  0
 21 22  2  0  0  0
 22 26  1  0  0  0
 22 23  1  0  0  0
 26 27  1  0  0  0
 23 24  2  0  0  0
 24 28  1  0  0  0
 24 25  1  0  0  0
 28 29  1  0  0  0
  8  9  1  0  0  0
  9 10  1  0  0  0
 13 14  2  0  0  0
 14 15  1  0  0  0
 15 16  1  0  0  0
M  END
> <minimizedAffinity>
-8.77329

$$$$
