CHEMBL1083001


 42 47  0  0  0  0  0  0  0  0999 V2000
  -13.1450   -3.0549  -14.4738 C   0  0  0  0  0  0  0  0  0  0  0  0
  -13.2411   -2.7288  -13.1034 C   0  0  0  0  0  0  0  0  0  0  0  0
  -13.4386   -1.4316  -12.8786 N   0  0  0  0  0  0  0  0  0  0  0  0
  -13.4463   -0.8756  -14.1279 N   0  0  0  0  0  0  0  0  0  0  0  0
  -13.6210    0.4999  -14.4359 C   0  0  0  0  0  0  0  0  0  0  0  0
  -13.7323    1.3778  -13.3604 N   0  0  0  0  0  0  0  0  0  0  0  0
  -13.6845    0.8508  -15.7397 C   0  0  0  0  0  0  0  0  0  0  0  0
  -13.5003   -0.2563  -16.7270 C   0  0  0  0  0  0  0  0  0  0  0  0
  -13.3218   -1.5108  -16.4566 N   0  0  0  0  0  0  0  0  0  0  0  0
  -13.3050   -1.8444  -15.1267 C   0  0  0  0  0  0  0  0  0  0  0  0
  -13.9796    0.8826  -12.4992 H   0  0  0  0  0  0  0  0  0  0  0  0
  -14.2917    2.2040  -13.5447 H   0  0  0  0  0  0  0  0  0  0  0  0
  -12.4690   -6.8138  -16.4404 C   0  0  0  0  0  0  0  0  0  0  0  0
  -13.7136   -6.4853  -15.8891 C   0  0  0  0  0  0  0  0  0  0  0  0
  -13.9363   -5.2747  -15.2312 C   0  0  0  0  0  0  0  0  0  0  0  0
  -12.9145   -4.3336  -15.1127 C   0  0  0  0  0  0  0  0  0  0  0  0
  -11.6597   -4.6472  -15.6448 C   0  0  0  0  0  0  0  0  0  0  0  0
  -11.4461   -5.8678  -16.3028 C   0  0  0  0  0  0  0  0  0  0  0  0
  -12.8976  -11.0989  -19.9611 C   0  0  0  0  0  0  0  0  0  0  0  0
  -12.3716  -10.3496  -18.8247 N   0  0  0  0  0  0  0  0  0  0  0  0
  -11.7639   -9.0734  -19.2731 C   0  0  0  0  0  0  0  0  0  0  0  0
  -11.2287   -8.2164  -18.0975 C   0  0  0  0  0  0  0  0  0  0  0  0
  -12.3119   -7.9953  -17.1324 N   0  0  0  0  0  0  0  0  0  0  0  0
  -12.9475   -9.2324  -16.6501 C   0  0  0  0  0  0  0  0  0  0  0  0
  -13.4521  -10.0553  -17.8545 C   0  0  0  0  0  0  0  0  0  0  0  0
  -13.8957    2.2152  -16.2168 C   0  0  0  0  0  0  0  0  0  0  0  0
  -12.8024    3.0264  -16.5222 C   0  0  0  0  0  0  0  0  0  0  0  0
  -13.0027    4.3090  -17.0328 C   0  0  0  0  0  0  0  0  0  0  0  0
  -14.2948    4.7986  -17.2323 C   0  0  0  0  0  0  0  0  0  0  0  0
  -15.3898    4.0000  -16.8836 C   0  0  0  0  0  0  0  0  0  0  0  0
  -15.1920    2.7078  -16.3904 C   0  0  0  0  0  0  0  0  0  0  0  0
  -14.5575    6.0762  -17.7614 N   0  0  0  0  0  0  0  0  0  0  0  0
  -14.8038    6.3751  -19.0904 C   0  0  0  0  0  0  0  0  0  0  0  0
  -14.9425    5.5680  -20.0040 O   0  0  0  0  0  0  0  0  0  0  0  0
  -14.6593    6.8288  -17.0930 H   0  0  0  0  0  0  0  0  0  0  0  0
  -14.9331    7.8628  -19.3524 C   0  0  0  0  0  0  0  0  0  0  0  0
  -15.0175    8.1381  -20.8503 C   0  0  0  0  0  0  0  0  0  0  0  0
  -16.1267    9.1133  -21.2313 C   0  0  0  0  0  0  0  0  0  0  0  0
  -16.5927   10.0289  -20.1022 C   0  0  0  0  0  0  0  0  0  0  0  0
  -18.0003   10.4596  -20.5093 C   0  0  0  0  0  0  0  0  0  0  0  0
  -18.4850    9.4404  -21.5395 C   0  0  0  0  0  0  0  0  0  0  0  0
  -17.4077    8.3698  -21.6023 C   0  0  0  0  0  0  0  0  0  0  0  0
 19 20  1  0  0  0
 20 21  1  0  0  0
 20 25  1  0  0  0
 21 22  1  0  0  0
 22 23  1  0  0  0
 23 13  1  0  0  0
 23 24  1  0  0  0
 13 14  1  0  0  0
 13 18  2  0  0  0
 14 15  2  0  0  0
 15 16  1  0  0  0
 16  1  1  0  0  0
 16 17  2  0  0  0
  1  2  1  0  0  0
  1 10  2  0  0  0
  2  3  2  0  0  0
  3  4  1  0  0  0
  4  5  1  0  0  0
  4 10  1  0  0  0
  5  6  1  0  0  0
  5  7  2  0  0  0
  6 11  1  0  0  0
  6 12  1  0  0  0
  7 26  1  0  0  0
  7  8  1  0  0  0
 26 27  1  0  0  0
 26 31  2  0  0  0
 27 28  2  0  0  0
 28 29  1  0  0  0
 29 32  1  0  0  0
 29 30  2  0  0  0
 32 33  1  0  0  0
 32 35  1  0  0  0
 33 34  2  0  0  0
 33 36  1  0  0  0
 36 37  1  0  0  0
 37 38  1  0  0  0
 38 39  1  0  0  0
 38 42  1  0  0  0
 39 40  1  0  0  0
 40 41  1  0  0  0
 41 42  1  0  0  0
 30 31  1  0  0  0
  8  9  2  0  0  0
  9 10  1  0  0  0
 17 18  1  0  0  0
 24 25  1  0  0  0
M  END
> <minimizedAffinity>
-6.44166

$$$$
