CHEMBL3287599


 39 42  0  0  0  0  0  0  0  0999 V2000
  -29.5966   -4.0633   -4.3504 C   0  0  0  0  0  0  0  0  0  0  0  0
  -30.7892   -4.7773   -4.5016 C   0  0  0  0  0  0  0  0  0  0  0  0
  -30.7714   -6.1718   -4.6033 C   0  0  0  0  0  0  0  0  0  0  0  0
  -29.5521   -6.8535   -4.6184 C   0  0  0  0  0  0  0  0  0  0  0  0
  -28.3661   -6.1515   -4.4256 C   0  0  0  0  0  0  0  0  0  0  0  0
  -28.3987   -4.7715   -4.2479 C   0  0  0  0  0  0  0  0  0  0  0  0
  -27.2442   -4.1455   -3.9808 F   0  0  0  0  0  0  0  0  0  0  0  0
  -29.5704   -8.2386   -4.8261 N   0  0  0  0  0  0  0  0  0  0  0  0
  -28.9639   -9.1393   -3.9699 C   0  0  0  0  0  0  0  0  0  0  0  0
  -28.3450   -8.8798   -2.9493 O   0  0  0  0  0  0  0  0  0  0  0  0
  -29.7477   -8.5772   -5.7706 H   0  0  0  0  0  0  0  0  0  0  0  0
  -29.0677  -10.5597   -4.4364 C   0  0  0  0  0  0  0  0  0  0  0  0
  -29.7377  -11.5356   -3.4630 C   0  0  0  0  0  0  0  0  0  0  0  0
  -28.2625  -11.6197   -3.6939 C   0  0  0  0  0  0  0  0  0  0  0  0
  -29.4269  -10.7004   -5.8811 C   0  0  0  0  0  0  0  0  0  0  0  0
  -30.6172  -10.8327   -6.1547 O   0  0  0  0  0  0  0  0  0  0  0  0
  -28.3831  -10.6779   -6.7840 N   0  0  0  0  0  0  0  0  0  0  0  0
  -27.4528  -10.8725   -6.4418 H   0  0  0  0  0  0  0  0  0  0  0  0
  -28.6108  -10.7881   -8.1728 C   0  0  0  0  0  0  0  0  0  0  0  0
  -28.0898  -11.8601   -8.9109 C   0  0  0  0  0  0  0  0  0  0  0  0
  -28.2303  -11.8936  -10.2976 C   0  0  0  0  0  0  0  0  0  0  0  0
  -28.8742  -10.8448  -10.9395 C   0  0  0  0  0  0  0  0  0  0  0  0
  -28.9506  -10.8380  -12.2763 F   0  0  0  0  0  0  0  0  0  0  0  0
  -29.4326   -9.7959  -10.2148 C   0  0  0  0  0  0  0  0  0  0  0  0
  -29.3341   -9.7840   -8.8209 C   0  0  0  0  0  0  0  0  0  0  0  0
  -29.7282   -2.7008   -4.2373 O   0  0  0  0  0  0  0  0  0  0  0  0
  -28.1313   -1.6924   -7.1941 C   0  0  0  0  0  0  0  0  0  0  0  0
  -27.8170   -0.4057   -7.0180 N   0  0  0  0  0  0  0  0  0  0  0  0
  -28.1251    0.1387   -5.8291 C   0  0  0  0  0  0  0  0  0  0  0  0
  -28.7317   -0.5572   -4.8147 C   0  0  0  0  0  0  0  0  0  0  0  0
  -29.1042   -1.8466   -5.1224 C   0  0  0  0  0  0  0  0  0  0  0  0
  -28.7947   -2.4313   -6.2945 N   0  0  0  0  0  0  0  0  0  0  0  0
  -27.6652   -2.2632   -8.3627 N   0  0  0  0  0  0  0  0  0  0  0  0
  -26.7338   -2.6307   -8.1736 H   0  0  0  0  0  0  0  0  0  0  0  0
  -27.7421   -1.4772   -9.5832 C   0  0  0  0  0  0  0  0  0  0  0  0
  -26.8240   -2.0503  -10.6691 C   0  0  0  0  0  0  0  0  0  0  0  0
  -25.4902   -1.5591  -10.4693 O   0  0  0  0  0  0  0  0  0  0  0  0
  -23.3718   -1.7993  -11.5538 C   0  0  0  0  0  0  0  0  0  0  0  0
  -24.8142   -1.3578  -11.7085 C   0  0  0  0  0  0  0  0  0  0  0  0
 38 39  1  0  0  0
 39 37  1  0  0  0
 37 36  1  0  0  0
 36 35  1  0  0  0
 35 33  1  0  0  0
 33 27  1  0  0  0
 33 34  1  0  0  0
 27 28  1  0  0  0
 27 32  2  0  0  0
 28 29  2  0  0  0
 29 30  1  0  0  0
 30 31  2  0  0  0
 31 26  1  0  0  0
 31 32  1  0  0  0
 26  1  1  0  0  0
  1  2  1  0  0  0
  1  6  2  0  0  0
  2  3  2  0  0  0
  3  4  1  0  0  0
  4  8  1  0  0  0
  4  5  2  0  0  0
  8  9  1  0  0  0
  8 11  1  0  0  0
  9 10  2  0  0  0
  9 12  1  0  0  0
 12 15  1  0  0  0
 12 13  1  0  0  0
 12 14  1  0  0  0
 15 16  2  0  0  0
 15 17  1  0  0  0
 17 19  1  0  0  0
 17 18  1  0  0  0
 19 20  1  0  0  0
 19 25  2  0  0  0
 20 21  2  0  0  0
 21 22  1  0  0  0
 22 23  1  0  0  0
 22 24  2  0  0  0
 24 25  1  0  0  0
 13 14  1  0  0  0
  5  6  1  0  0  0
  6  7  1  0  0  0
M  END
> <minimizedAffinity>
-8.80947

$$$$
