CHEMBL354895


 20 23  0  0  0  0  0  0  0  0999 V2000
  -18.4811    2.2299  -15.3757 C   0  0  0  0  0  0  0  0  0  0  0  0
  -18.8478    0.8244  -15.2178 C   0  0  0  0  0  0  0  0  0  0  0  0
  -20.0697    0.5017  -14.7625 C   0  0  0  0  0  0  0  0  0  0  0  0
  -20.9811    1.5111  -14.4387 N   0  0  0  0  0  0  0  0  0  0  0  0
  -22.2858    1.4592  -13.9678 C   0  0  0  0  0  0  0  0  0  0  0  0
  -22.6586    2.7858  -13.8355 C   0  0  0  0  0  0  0  0  0  0  0  0
  -21.6568    3.6421  -14.2020 N   0  0  0  0  0  0  0  0  0  0  0  0
  -20.6600    2.8654  -14.5645 C   0  0  0  0  0  0  0  0  0  0  0  0
  -19.3634    3.2011  -15.0518 C   0  0  0  0  0  0  0  0  0  0  0  0
  -14.6889    3.4114  -16.9434 C   0  0  0  0  0  0  0  0  0  0  0  0
  -14.9595    2.0613  -16.7206 C   0  0  0  0  0  0  0  0  0  0  0  0
  -16.1955    1.6722  -16.2008 C   0  0  0  0  0  0  0  0  0  0  0  0
  -17.1662    2.6347  -15.8993 C   0  0  0  0  0  0  0  0  0  0  0  0
  -16.8880    3.9887  -16.1248 C   0  0  0  0  0  0  0  0  0  0  0  0
  -15.6515    4.3748  -16.6448 C   0  0  0  0  0  0  0  0  0  0  0  0
  -23.0382    0.2684  -13.6942 C   0  0  0  0  0  0  0  0  0  0  0  0
  -23.8933   -0.2544  -14.5480 N   0  0  0  0  0  0  0  0  0  0  0  0
  -24.4579   -1.3995  -14.0228 C   0  0  0  0  0  0  0  0  0  0  0  0
  -24.0313   -1.7447  -12.7610 C   0  0  0  0  0  0  0  0  0  0  0  0
  -22.8876   -0.5970  -12.2089 S   0  0  0  0  0  0  0  0  0  0  0  0
 10 11  1  0  0  0
 10 15  2  0  0  0
 11 12  2  0  0  0
 12 13  1  0  0  0
 13  1  1  0  0  0
 13 14  2  0  0  0
  1  2  1  0  0  0
  1  9  2  0  0  0
  2  3  2  0  0  0
  3  4  1  0  0  0
  4  5  1  0  0  0
  4  8  1  0  0  0
  5 16  1  0  0  0
  5  6  2  0  0  0
 16 17  2  0  0  0
 16 20  1  0  0  0
 17 18  1  0  0  0
 18 19  2  0  0  0
 19 20  1  0  0  0
  6  7  1  0  0  0
  7  8  2  0  0  0
  8  9  1  0  0  0
 14 15  1  0  0  0
M  END
> <minimizedAffinity>
-8.26189

$$$$
