CHEMBL3577121


 34 36  0  0  0  0  0  0  0  0999 V2000
  -18.7997    1.7898  -14.9357 C   0  0  0  0  0  0  0  0  0  0  0  0
  -19.5563    0.7477  -14.3580 C   0  0  0  0  0  0  0  0  0  0  0  0
  -20.9522    0.7490  -14.2769 C   0  0  0  0  0  0  0  0  0  0  0  0
  -21.6229    1.9000  -14.6605 C   0  0  0  0  0  0  0  0  0  0  0  0
  -22.9616    1.9601  -14.5732 F   0  0  0  0  0  0  0  0  0  0  0  0
  -20.9247    3.0088  -15.1223 C   0  0  0  0  0  0  0  0  0  0  0  0
  -19.5235    2.9613  -15.3036 C   0  0  0  0  0  0  0  0  0  0  0  0
  -18.8952    4.2012  -15.8919 C   0  0  0  0  0  0  0  0  0  0  0  0
  -12.6457    1.6039  -16.9823 C   0  0  0  0  0  0  0  0  0  0  0  0
  -13.2115    1.0410  -15.8406 C   0  0  0  0  0  0  0  0  0  0  0  0
  -14.5653    1.1923  -15.5849 C   0  0  0  0  0  0  0  0  0  0  0  0
  -15.1266    0.6696  -14.4856 N   0  0  0  0  0  0  0  0  0  0  0  0
  -16.4735    0.8442  -14.2620 C   0  0  0  0  0  0  0  0  0  0  0  0
  -16.9169    0.1906  -12.9826 C   0  0  0  0  0  0  0  0  0  0  0  0
  -17.3244    1.5856  -15.1227 C   0  0  0  0  0  0  0  0  0  0  0  0
  -16.6771    2.1553  -16.2241 C   0  0  0  0  0  0  0  0  0  0  0  0
  -15.3239    1.9219  -16.4925 C   0  0  0  0  0  0  0  0  0  0  0  0
  -14.7030    2.4014  -17.6407 C   0  0  0  0  0  0  0  0  0  0  0  0
  -13.3913    2.2473  -17.8989 N   0  0  0  0  0  0  0  0  0  0  0  0
  -10.6984    2.5329  -18.0145 C   0  0  0  0  0  0  0  0  0  0  0  0
  -11.2587    1.4758  -17.1850 N   0  0  0  0  0  0  0  0  0  0  0  0
  -10.8081    1.4326  -16.2749 H   0  0  0  0  0  0  0  0  0  0  0  0
  -21.7062   -0.3764  -13.8675 N   0  0  0  0  0  0  0  0  0  0  0  0
  -22.8123   -0.3542  -13.0513 C   0  0  0  0  0  0  0  0  0  0  0  0
  -23.3873    0.6465  -12.6411 O   0  0  0  0  0  0  0  0  0  0  0  0
  -23.2530   -1.6154  -12.7248 N   0  0  0  0  0  0  0  0  0  0  0  0
  -21.4468   -1.2610  -14.2828 H   0  0  0  0  0  0  0  0  0  0  0  0
  -22.6161   -2.3900  -12.8291 H   0  0  0  0  0  0  0  0  0  0  0  0
  -24.3579   -1.7582  -11.7934 C   0  0  0  0  0  0  0  0  0  0  0  0
  -25.5037   -0.7905  -12.1158 C   0  0  0  0  0  0  0  0  0  0  0  0
  -26.9288   -1.3590  -11.8780 C   0  0  0  0  0  0  0  0  0  0  0  0
  -27.9077   -0.2470  -11.4610 C   0  0  0  0  0  0  0  0  0  0  0  0
  -27.4446   -1.9804  -13.1909 C   0  0  0  0  0  0  0  0  0  0  0  0
  -26.9073   -2.4525  -10.7982 C   0  0  0  0  0  0  0  0  0  0  0  0
 20 21  1  0  0  0
 21  9  1  0  0  0
 21 22  1  0  0  0
  9 10  1  0  0  0
  9 19  2  0  0  0
 10 11  2  0  0  0
 11 12  1  0  0  0
 11 17  1  0  0  0
 12 13  2  0  0  0
 13 14  1  0  0  0
 13 15  1  0  0  0
 15  1  1  0  0  0
 15 16  2  0  0  0
  1  2  1  0  0  0
  1  7  2  0  0  0
  2  3  2  0  0  0
  3 23  1  0  0  0
  3  4  1  0  0  0
 23 24  1  0  0  0
 23 27  1  0  0  0
 24 25  2  0  0  0
 24 26  1  0  0  0
 26 29  1  0  0  0
 26 28  1  0  0  0
 29 30  1  0  0  0
 30 31  1  0  0  0
 31 32  1  0  0  0
 31 33  1  0  0  0
 31 34  1  0  0  0
  4  5  1  0  0  0
  4  6  2  0  0  0
  6  7  1  0  0  0
  7  8  1  0  0  0
 16 17  1  0  0  0
 17 18  2  0  0  0
 18 19  1  0  0  0
M  END
> <minimizedAffinity>
-6.17107

$$$$
