CHEMBL199737


 20 21  0  0  0  0  0  0  0  0999 V2000
  -29.0463   -2.6722   -6.1947 C   0  0  0  0  0  0  0  0  0  0  0  0
  -28.6068   -3.1935   -7.4216 C   0  0  0  0  0  0  0  0  0  0  0  0
  -28.9003   -4.9248   -7.5311 S   0  0  0  0  0  0  0  0  0  0  0  0
  -29.4757   -4.9289   -5.9789 C   0  0  0  0  0  0  0  0  0  0  0  0
  -29.9892   -5.7951   -5.0826 N   0  0  0  0  0  0  0  0  0  0  0  0
  -30.3328   -5.1755   -3.9171 N   0  0  0  0  0  0  0  0  0  0  0  0
  -30.0294   -3.8752   -4.1267 C   0  0  0  0  0  0  0  0  0  0  0  0
  -30.3086   -2.8548   -3.0921 C   0  0  0  0  0  0  0  0  0  0  0  0
  -29.4796   -3.7290   -5.3957 C   0  0  0  0  0  0  0  0  0  0  0  0
  -30.1560   -6.7914   -5.1752 H   0  0  0  0  0  0  0  0  0  0  0  0
  -28.1361    0.6866   -4.8962 C   0  0  0  0  0  0  0  0  0  0  0  0
  -27.9669   -0.7885   -5.1411 C   0  0  0  0  0  0  0  0  0  0  0  0
  -26.9388   -1.3845   -4.8343 O   0  0  0  0  0  0  0  0  0  0  0  0
  -29.0458   -1.3340   -5.8208 N   0  0  0  0  0  0  0  0  0  0  0  0
  -29.5797   -0.6971   -6.3941 H   0  0  0  0  0  0  0  0  0  0  0  0
  -27.8863   -2.5118   -8.4836 C   0  0  0  0  0  0  0  0  0  0  0  0
  -27.2472   -3.3026   -9.4014 N   0  0  0  0  0  0  0  0  0  0  0  0
  -27.7990   -1.2884   -8.5980 O   0  0  0  0  0  0  0  0  0  0  0  0
  -27.4425   -4.2917   -9.4546 H   0  0  0  0  0  0  0  0  0  0  0  0
  -26.8582   -2.8350  -10.2070 H   0  0  0  0  0  0  0  0  0  0  0  0
 11 12  1  0  0  0
 12 13  2  0  0  0
 12 14  1  0  0  0
 14  1  1  0  0  0
 14 15  1  0  0  0
  1  2  2  0  0  0
  1  9  1  0  0  0
  2 16  1  0  0  0
  2  3  1  0  0  0
 16 17  1  0  0  0
 16 18  2  0  0  0
 17 19  1  0  0  0
 17 20  1  0  0  0
  3  4  1  0  0  0
  4  5  1  0  0  0
  4  9  2  0  0  0
  5  6  1  0  0  0
  5 10  1  0  0  0
  6  7  2  0  0  0
  7  8  1  0  0  0
  7  9  1  0  0  0
M  END
> <minimizedAffinity>
-6.74821

$$$$
