CHEMBL3964582


 36 40  0  0  0  0  0  0  0  0999 V2000
  -29.8765   -6.8648   -4.9795 C   0  0  0  0  0  0  0  0  0  0  0  0
  -29.1195   -7.4328   -3.9501 C   0  0  0  0  0  0  0  0  0  0  0  0
  -28.5830   -8.7181   -4.0803 C   0  0  0  0  0  0  0  0  0  0  0  0
  -28.7939   -9.4693   -5.2398 C   0  0  0  0  0  0  0  0  0  0  0  0
  -29.6102   -8.9133   -6.2420 C   0  0  0  0  0  0  0  0  0  0  0  0
  -30.1667   -7.6313   -6.1055 C   0  0  0  0  0  0  0  0  0  0  0  0
  -28.0504  -10.7943   -5.4161 C   0  0  0  0  0  0  0  0  0  0  0  0
  -27.5555  -11.0423   -6.8551 C   0  0  0  0  0  0  0  0  0  0  0  0
  -26.2318  -11.7231   -6.9675 N   0  0  0  0  0  0  0  0  0  0  0  0
  -25.3362  -11.2301   -6.1771 C   0  0  0  0  0  0  0  0  0  0  0  0
  -23.8943  -11.3135   -6.4220 C   0  0  0  0  0  0  0  0  0  0  0  0
  -23.2008  -12.4660   -6.7654 C   0  0  0  0  0  0  0  0  0  0  0  0
  -21.8255  -12.3669   -6.9998 C   0  0  0  0  0  0  0  0  0  0  0  0
  -21.1921  -11.1152   -6.9957 C   0  0  0  0  0  0  0  0  0  0  0  0
  -21.8948   -9.9683   -6.6244 C   0  0  0  0  0  0  0  0  0  0  0  0
  -23.2207  -10.1041   -6.2358 C   0  0  0  0  0  0  0  0  0  0  0  0
  -23.8440   -9.1093   -5.4632 N   0  0  0  0  0  0  0  0  0  0  0  0
  -24.8556   -9.4867   -4.5897 C   0  0  0  0  0  0  0  0  0  0  0  0
  -24.9853   -8.9228   -3.5092 O   0  0  0  0  0  0  0  0  0  0  0  0
  -25.6685  -10.4939   -5.0639 N   0  0  0  0  0  0  0  0  0  0  0  0
  -26.8964  -10.8922   -4.4166 C   0  0  0  0  0  0  0  0  0  0  0  0
  -23.3181   -8.2896   -5.1940 H   0  0  0  0  0  0  0  0  0  0  0  0
  -30.0179   -3.2293   -5.0715 N   0  0  0  0  0  0  0  0  0  0  0  0
  -29.4204   -4.4847   -5.2069 C   0  0  0  0  0  0  0  0  0  0  0  0
  -28.2583   -4.6644   -5.5540 O   0  0  0  0  0  0  0  0  0  0  0  0
  -30.3085   -5.5149   -4.9187 N   0  0  0  0  0  0  0  0  0  0  0  0
  -30.7308   -3.1667   -4.3576 H   0  0  0  0  0  0  0  0  0  0  0  0
  -31.2585   -5.3314   -5.2027 H   0  0  0  0  0  0  0  0  0  0  0  0
  -27.9660   -0.8968   -7.1287 C   0  0  0  0  0  0  0  0  0  0  0  0
  -28.2014    0.3208   -6.4872 C   0  0  0  0  0  0  0  0  0  0  0  0
  -29.0019    0.3685   -5.3522 C   0  0  0  0  0  0  0  0  0  0  0  0
  -29.5859   -0.8042   -4.8602 C   0  0  0  0  0  0  0  0  0  0  0  0
  -29.3912   -2.0325   -5.5083 C   0  0  0  0  0  0  0  0  0  0  0  0
  -28.5436   -2.0715   -6.6226 C   0  0  0  0  0  0  0  0  0  0  0  0
  -27.6413   -2.0446   -9.1864 C   0  0  0  0  0  0  0  0  0  0  0  0
  -27.2043   -1.0585   -8.2570 O   0  0  0  0  0  0  0  0  0  0  0  0
 35 36  1  0  0  0
 36 29  1  0  0  0
 29 30  1  0  0  0
 29 34  2  0  0  0
 30 31  2  0  0  0
 31 32  1  0  0  0
 32 33  2  0  0  0
 33 23  1  0  0  0
 33 34  1  0  0  0
 23 24  1  0  0  0
 23 27  1  0  0  0
 24 25  2  0  0  0
 24 26  1  0  0  0
 26  1  1  0  0  0
 26 28  1  0  0  0
  1  2  1  0  0  0
  1  6  2  0  0  0
  2  3  2  0  0  0
  3  4  1  0  0  0
  4  7  1  0  0  0
  4  5  2  0  0  0
  7  8  1  0  0  0
  7 21  1  0  0  0
  8  9  1  0  0  0
  9 10  2  0  0  0
 10 11  1  0  0  0
 10 20  1  0  0  0
 11 12  1  0  0  0
 11 16  2  0  0  0
 12 13  2  0  0  0
 13 14  1  0  0  0
 14 15  2  0  0  0
 15 16  1  0  0  0
 16 17  1  0  0  0
 17 18  1  0  0  0
 17 22  1  0  0  0
 18 19  2  0  0  0
 18 20  1  0  0  0
 20 21  1  0  0  0
  5  6  1  0  0  0
M  END
> <minimizedAffinity>
-9.94720

$$$$
