CHEMBL3966485


 34 37  0  0  0  0  0  0  0  0999 V2000
  -17.5403    1.7410  -15.3643 C   0  0  0  0  0  0  0  0  0  0  0  0
  -17.8773    3.0935  -15.2357 C   0  0  0  0  0  0  0  0  0  0  0  0
  -19.1725    3.4759  -14.8853 C   0  0  0  0  0  0  0  0  0  0  0  0
  -20.1665    2.5140  -14.7202 C   0  0  0  0  0  0  0  0  0  0  0  0
  -19.8815    1.1626  -14.9164 C   0  0  0  0  0  0  0  0  0  0  0  0
  -18.5652    0.7844  -15.2099 C   0  0  0  0  0  0  0  0  0  0  0  0
  -16.4082   -0.0894  -13.0691 N   0  0  0  0  0  0  0  0  0  0  0  0
  -15.3049    0.6443  -13.3944 C   0  0  0  0  0  0  0  0  0  0  0  0
  -14.4381    1.0048  -12.6127 O   0  0  0  0  0  0  0  0  0  0  0  0
  -15.1849    0.8588  -14.7816 N   0  0  0  0  0  0  0  0  0  0  0  0
  -16.1689    1.2932  -15.6893 C   0  0  0  0  0  0  0  0  0  0  0  0
  -15.5809    1.2746  -16.9473 C   0  0  0  0  0  0  0  0  0  0  0  0
  -14.2631    0.7796  -16.8423 C   0  0  0  0  0  0  0  0  0  0  0  0
  -13.2579    0.4892  -17.7852 C   0  0  0  0  0  0  0  0  0  0  0  0
  -12.0414   -0.0452  -17.3517 C   0  0  0  0  0  0  0  0  0  0  0  0
  -11.8102   -0.2654  -15.9985 C   0  0  0  0  0  0  0  0  0  0  0  0
  -12.7853    0.0407  -15.0459 C   0  0  0  0  0  0  0  0  0  0  0  0
  -14.0161    0.5610  -15.4903 C   0  0  0  0  0  0  0  0  0  0  0  0
  -16.4920   -0.3975  -12.1099 H   0  0  0  0  0  0  0  0  0  0  0  0
  -16.9628   -0.5610  -13.7717 H   0  0  0  0  0  0  0  0  0  0  0  0
  -20.8631    0.1545  -14.7975 N   0  0  0  0  0  0  0  0  0  0  0  0
  -22.0687    0.2973  -14.1306 C   0  0  0  0  0  0  0  0  0  0  0  0
  -22.5290    1.3573  -13.7233 O   0  0  0  0  0  0  0  0  0  0  0  0
  -22.6787   -0.9333  -13.9352 N   0  0  0  0  0  0  0  0  0  0  0  0
  -20.8291   -0.6063  -15.4616 H   0  0  0  0  0  0  0  0  0  0  0  0
  -22.0216   -1.6787  -13.7546 H   0  0  0  0  0  0  0  0  0  0  0  0
  -23.9334   -1.0279  -13.2981 C   0  0  0  0  0  0  0  0  0  0  0  0
  -24.0208   -0.7345  -11.9338 C   0  0  0  0  0  0  0  0  0  0  0  0
  -25.2578   -0.7864  -11.2818 C   0  0  0  0  0  0  0  0  0  0  0  0
  -26.3926   -1.1742  -11.9915 C   0  0  0  0  0  0  0  0  0  0  0  0
  -27.5628   -1.2375  -11.3407 F   0  0  0  0  0  0  0  0  0  0  0  0
  -26.3080   -1.4980  -13.3439 C   0  0  0  0  0  0  0  0  0  0  0  0
  -27.7047   -2.0193  -14.2069 Cl  0  0  0  0  0  0  0  0  0  0  0  0
  -25.0818   -1.4131  -14.0031 C   0  0  0  0  0  0  0  0  0  0  0  0
  7  8  1  0  0  0
  7 19  1  0  0  0
  7 20  1  0  0  0
  8  9  2  0  0  0
  8 10  1  0  0  0
 10 11  1  0  0  0
 10 18  1  0  0  0
 11  1  1  0  0  0
 11 12  2  0  0  0
  1  2  1  0  0  0
  1  6  2  0  0  0
  2  3  2  0  0  0
  3  4  1  0  0  0
  4  5  2  0  0  0
  5 21  1  0  0  0
  5  6  1  0  0  0
 21 22  1  0  0  0
 21 25  1  0  0  0
 22 23  2  0  0  0
 22 24  1  0  0  0
 24 27  1  0  0  0
 24 26  1  0  0  0
 27 28  1  0  0  0
 27 34  2  0  0  0
 28 29  2  0  0  0
 29 30  1  0  0  0
 30 31  1  0  0  0
 30 32  2  0  0  0
 32 33  1  0  0  0
 32 34  1  0  0  0
 12 13  1  0  0  0
 13 14  1  0  0  0
 13 18  2  0  0  0
 14 15  2  0  0  0
 15 16  1  0  0  0
 16 17  2  0  0  0
 17 18  1  0  0  0
M  END
> <minimizedAffinity>
-10.68082

$$$$
