CHEMBL4175949


 33 36  0  0  0  0  0  0  0  0999 V2000
  -29.0977   -3.9356   -5.0818 C   0  0  0  0  0  0  0  0  0  0  0  0
  -30.3871   -4.4768   -5.0184 C   0  0  0  0  0  0  0  0  0  0  0  0
  -30.5970   -5.8313   -4.7065 C   0  0  0  0  0  0  0  0  0  0  0  0
  -29.5248   -6.6720   -4.3853 C   0  0  0  0  0  0  0  0  0  0  0  0
  -28.2604   -6.1027   -4.3211 C   0  0  0  0  0  0  0  0  0  0  0  0
  -28.0462   -4.7729   -4.6893 C   0  0  0  0  0  0  0  0  0  0  0  0
  -28.0453   -4.2473   -8.2727 N   0  0  0  0  0  0  0  0  0  0  0  0
  -27.9736   -2.9273   -8.0389 C   0  0  0  0  0  0  0  0  0  0  0  0
  -27.5392   -2.1038   -8.9886 N   0  0  0  0  0  0  0  0  0  0  0  0
  -27.5650   -0.9030   -8.4021 N   0  0  0  0  0  0  0  0  0  0  0  0
  -28.0015   -0.9142   -7.1060 C   0  0  0  0  0  0  0  0  0  0  0  0
  -28.1302    0.1389   -6.1923 C   0  0  0  0  0  0  0  0  0  0  0  0
  -28.6133   -0.1711   -4.9274 C   0  0  0  0  0  0  0  0  0  0  0  0
  -28.9518   -1.4817   -4.6041 C   0  0  0  0  0  0  0  0  0  0  0  0
  -28.8073   -2.5584   -5.5191 C   0  0  0  0  0  0  0  0  0  0  0  0
  -28.3098   -2.2467   -6.8190 C   0  0  0  0  0  0  0  0  0  0  0  0
  -27.6041   -4.5497   -9.1338 H   0  0  0  0  0  0  0  0  0  0  0  0
  -27.8893   -4.8895   -7.5052 H   0  0  0  0  0  0  0  0  0  0  0  0
  -27.2609   -0.1037   -8.9398 H   0  0  0  0  0  0  0  0  0  0  0  0
  -29.8108   -8.0431   -4.1824 N   0  0  0  0  0  0  0  0  0  0  0  0
  -30.4366   -8.2333   -3.4091 H   0  0  0  0  0  0  0  0  0  0  0  0
  -29.3947   -9.1959   -4.8517 C   0  0  0  0  0  0  0  0  0  0  0  0
  -27.9551  -10.0439   -4.6757 S   0  0  0  0  0  0  0  0  0  0  0  0
  -30.3557   -9.5243   -5.8275 N   0  0  0  0  0  0  0  0  0  0  0  0
  -31.1854   -8.9354   -5.7601 H   0  0  0  0  0  0  0  0  0  0  0  0
  -30.0328   -9.9078   -7.1550 C   0  0  0  0  0  0  0  0  0  0  0  0
  -29.9711  -11.2661   -7.4902 C   0  0  0  0  0  0  0  0  0  0  0  0
  -29.5273  -11.6600   -8.7510 C   0  0  0  0  0  0  0  0  0  0  0  0
  -29.1914  -10.6934   -9.6959 C   0  0  0  0  0  0  0  0  0  0  0  0
  -28.5846  -11.1875  -11.2267 Cl  0  0  0  0  0  0  0  0  0  0  0  0
  -29.3281   -9.3376   -9.4054 C   0  0  0  0  0  0  0  0  0  0  0  0
  -29.7637   -8.9469   -8.1381 C   0  0  0  0  0  0  0  0  0  0  0  0
  -29.8908   -7.2609   -7.7892 Cl  0  0  0  0  0  0  0  0  0  0  0  0
  7  8  1  0  0  0
  7 17  1  0  0  0
  7 18  1  0  0  0
  8  9  2  0  0  0
  8 16  1  0  0  0
  9 10  1  0  0  0
 10 11  1  0  0  0
 10 19  1  0  0  0
 11 12  1  0  0  0
 11 16  2  0  0  0
 12 13  2  0  0  0
 13 14  1  0  0  0
 14 15  2  0  0  0
 15  1  1  0  0  0
 15 16  1  0  0  0
  1  2  1  0  0  0
  1  6  2  0  0  0
  2  3  2  0  0  0
  3  4  1  0  0  0
  4 20  1  0  0  0
  4  5  2  0  0  0
 20 22  1  0  0  0
 20 21  1  0  0  0
 22 23  2  0  0  0
 22 24  1  0  0  0
 24 26  1  0  0  0
 24 25  1  0  0  0
 26 27  1  0  0  0
 26 32  2  0  0  0
 27 28  2  0  0  0
 28 29  1  0  0  0
 29 30  1  0  0  0
 29 31  2  0  0  0
 31 32  1  0  0  0
 32 33  1  0  0  0
  5  6  1  0  0  0
M  END
> <minimizedAffinity>
-8.71870

$$$$
