CHEMBL492634


 35 39  0  0  0  0  0  0  0  0999 V2000
  -14.9313    0.7132  -13.9978 C   0  0  0  0  0  0  0  0  0  0  0  0
  -15.7134    1.5202  -14.8083 N   0  0  0  0  0  0  0  0  0  0  0  0
  -16.9736    0.9892  -14.8963 C   0  0  0  0  0  0  0  0  0  0  0  0
  -17.0797   -0.0449  -14.0943 N   0  0  0  0  0  0  0  0  0  0  0  0
  -15.8051   -0.2925  -13.6004 C   0  0  0  0  0  0  0  0  0  0  0  0
  -15.3713    2.2873  -15.3674 H   0  0  0  0  0  0  0  0  0  0  0  0
  -15.5078   -1.5950  -13.0053 C   0  0  0  0  0  0  0  0  0  0  0  0
  -15.8450   -1.7254  -11.6511 C   0  0  0  0  0  0  0  0  0  0  0  0
  -15.6864   -2.9314  -10.9837 C   0  0  0  0  0  0  0  0  0  0  0  0
  -15.1955   -4.0413  -11.6352 C   0  0  0  0  0  0  0  0  0  0  0  0
  -15.1184   -5.1874  -10.9331 N   0  0  0  0  0  0  0  0  0  0  0  0
  -14.6694   -6.2646  -11.5979 C   0  0  0  0  0  0  0  0  0  0  0  0
  -14.2945   -6.1950  -12.9230 C   0  0  0  0  0  0  0  0  0  0  0  0
  -14.3497   -5.0448  -13.6418 N   0  0  0  0  0  0  0  0  0  0  0  0
  -14.8180   -3.9452  -13.0011 C   0  0  0  0  0  0  0  0  0  0  0  0
  -14.9590   -2.7087  -13.6565 C   0  0  0  0  0  0  0  0  0  0  0  0
  -10.7119   -0.8110  -15.5640 C   0  0  0  0  0  0  0  0  0  0  0  0
  -11.4367    0.1879  -14.7192 C   0  0  0  0  0  0  0  0  0  0  0  0
  -10.7681    1.2032  -14.0402 C   0  0  0  0  0  0  0  0  0  0  0  0
  -11.5148    2.0851  -13.2662 C   0  0  0  0  0  0  0  0  0  0  0  0
  -12.8969    1.9306  -13.1890 C   0  0  0  0  0  0  0  0  0  0  0  0
  -13.4897    0.8992  -13.9082 C   0  0  0  0  0  0  0  0  0  0  0  0
  -12.7778    0.0412  -14.6614 N   0  0  0  0  0  0  0  0  0  0  0  0
  -18.0336    1.5247  -15.8077 C   0  0  0  0  0  0  0  0  0  0  0  0
  -19.3415    1.8911  -15.1222 C   0  0  0  0  0  0  0  0  0  0  0  0
  -19.7694    3.2281  -15.0585 C   0  0  0  0  0  0  0  0  0  0  0  0
  -21.0049    3.5641  -14.4966 C   0  0  0  0  0  0  0  0  0  0  0  0
  -21.8444    2.5653  -14.0086 C   0  0  0  0  0  0  0  0  0  0  0  0
  -21.4535    1.2246  -14.0835 C   0  0  0  0  0  0  0  0  0  0  0  0
  -20.1981    0.8914  -14.6229 C   0  0  0  0  0  0  0  0  0  0  0  0
  -22.4126    0.1964  -13.5940 C   0  0  0  0  0  0  0  0  0  0  0  0
  -23.4181   -0.1825  -14.4409 N   0  0  0  0  0  0  0  0  0  0  0  0
  -22.3479   -0.2621  -12.4606 O   0  0  0  0  0  0  0  0  0  0  0  0
  -23.6703    0.3617  -15.2521 H   0  0  0  0  0  0  0  0  0  0  0  0
  -24.1415   -0.7564  -14.0244 H   0  0  0  0  0  0  0  0  0  0  0  0
 17 18  1  0  0  0
 18 19  1  0  0  0
 18 23  2  0  0  0
 19 20  2  0  0  0
 20 21  1  0  0  0
 21 22  2  0  0  0
 22  1  1  0  0  0
 22 23  1  0  0  0
  1  2  1  0  0  0
  1  5  2  0  0  0
  2  3  1  0  0  0
  2  6  1  0  0  0
  3 24  1  0  0  0
  3  4  2  0  0  0
 24 25  1  0  0  0
 25 26  1  0  0  0
 25 30  2  0  0  0
 26 27  2  0  0  0
 27 28  1  0  0  0
 28 29  2  0  0  0
 29 31  1  0  0  0
 29 30  1  0  0  0
 31 32  1  0  0  0
 31 33  2  0  0  0
 32 34  1  0  0  0
 32 35  1  0  0  0
  4  5  1  0  0  0
  5  7  1  0  0  0
  7  8  1  0  0  0
  7 16  2  0  0  0
  8  9  2  0  0  0
  9 10  1  0  0  0
 10 11  1  0  0  0
 10 15  2  0  0  0
 11 12  2  0  0  0
 12 13  1  0  0  0
 13 14  2  0  0  0
 14 15  1  0  0  0
 15 16  1  0  0  0
M  END
> <minimizedAffinity>
-9.33293

$$$$
