CHEMBL3759111


 33 35  0  0  0  0  0  0  0  0999 V2000
  -27.7629   -1.5515   -5.5826 C   0  0  0  0  0  0  0  0  0  0  0  0
  -28.0395   -2.4012   -4.5069 C   0  0  0  0  0  0  0  0  0  0  0  0
  -28.4957   -3.6921   -4.6883 C   0  0  0  0  0  0  0  0  0  0  0  0
  -28.6410   -4.4409   -3.5933 N   0  0  0  0  0  0  0  0  0  0  0  0
  -29.0133   -5.7039   -3.7875 C   0  0  0  0  0  0  0  0  0  0  0  0
  -29.2391   -6.2743   -4.9688 N   0  0  0  0  0  0  0  0  0  0  0  0
  -29.0752   -5.5192   -6.0718 C   0  0  0  0  0  0  0  0  0  0  0  0
  -28.7350   -4.1571   -5.9860 C   0  0  0  0  0  0  0  0  0  0  0  0
  -28.5778   -3.2627   -7.0747 C   0  0  0  0  0  0  0  0  0  0  0  0
  -28.0788   -1.9706   -6.8822 C   0  0  0  0  0  0  0  0  0  0  0  0
  -28.1606    0.7163   -5.0123 C   0  0  0  0  0  0  0  0  0  0  0  0
  -27.2314   -0.3058   -5.3777 O   0  0  0  0  0  0  0  0  0  0  0  0
  -29.1243   -6.1556   -7.3374 N   0  0  0  0  0  0  0  0  0  0  0  0
  -29.0943   -5.4951   -8.1069 H   0  0  0  0  0  0  0  0  0  0  0  0
  -29.8638   -7.3214   -7.6745 C   0  0  0  0  0  0  0  0  0  0  0  0
  -31.1644   -7.5501   -7.2115 C   0  0  0  0  0  0  0  0  0  0  0  0
  -31.8840   -8.6828   -7.5981 C   0  0  0  0  0  0  0  0  0  0  0  0
  -31.2905   -9.6413   -8.4140 C   0  0  0  0  0  0  0  0  0  0  0  0
  -29.9667   -9.4768   -8.8171 C   0  0  0  0  0  0  0  0  0  0  0  0
  -29.2661   -8.3328   -8.4403 C   0  0  0  0  0  0  0  0  0  0  0  0
  -27.9912   -8.1938   -8.8359 F   0  0  0  0  0  0  0  0  0  0  0  0
  -27.9616   -1.2378   -8.0386 O   0  0  0  0  0  0  0  0  0  0  0  0
  -27.9554   -2.0144   -9.2341 C   0  0  0  0  0  0  0  0  0  0  0  0
  -26.7391   -1.6666  -10.0893 C   0  0  0  0  0  0  0  0  0  0  0  0
  -27.2036   -1.3401  -11.5086 C   0  0  0  0  0  0  0  0  0  0  0  0
  -26.1149   -1.5378  -12.5570 C   0  0  0  0  0  0  0  0  0  0  0  0
  -24.9025   -0.6621  -12.2401 C   0  0  0  0  0  0  0  0  0  0  0  0
  -23.9852   -0.5070  -13.4320 C   0  0  0  0  0  0  0  0  0  0  0  0
  -24.2938   -0.7742  -14.5908 O   0  0  0  0  0  0  0  0  0  0  0  0
  -22.7409   -0.0181  -13.1053 N   0  0  0  0  0  0  0  0  0  0  0  0
  -21.8175    0.0361  -14.1764 O   0  0  0  0  0  0  0  0  0  0  0  0
  -22.3471   -0.0959  -12.1743 H   0  0  0  0  0  0  0  0  0  0  0  0
  -22.3617   -0.2672  -14.9377 H   0  0  0  0  0  0  0  0  0  0  0  0
 11 12  1  0  0  0
 12  1  1  0  0  0
  1  2  1  0  0  0
  1 10  2  0  0  0
  2  3  2  0  0  0
  3  4  1  0  0  0
  3  8  1  0  0  0
  4  5  2  0  0  0
  5  6  1  0  0  0
  6  7  2  0  0  0
  7 13  1  0  0  0
  7  8  1  0  0  0
 13 15  1  0  0  0
 13 14  1  0  0  0
 15 16  1  0  0  0
 15 20  2  0  0  0
 16 17  2  0  0  0
 17 18  1  0  0  0
 18 19  2  0  0  0
 19 20  1  0  0  0
 20 21  1  0  0  0
  8  9  2  0  0  0
  9 10  1  0  0  0
 10 22  1  0  0  0
 22 23  1  0  0  0
 23 24  1  0  0  0
 24 25  1  0  0  0
 25 26  1  0  0  0
 26 27  1  0  0  0
 27 28  1  0  0  0
 28 29  2  0  0  0
 28 30  1  0  0  0
 30 31  1  0  0  0
 30 32  1  0  0  0
 31 33  1  0  0  0
M  END
> <minimizedAffinity>
-8.67265

$$$$
