CHEMBL4470214


 33 36  0  0  0  0  0  0  0  0999 V2000
  -19.8555    1.9514  -14.7157 C   0  0  0  0  0  0  0  0  0  0  0  0
  -20.9548    2.6550  -14.1961 C   0  0  0  0  0  0  0  0  0  0  0  0
  -22.1793    2.0125  -13.9987 C   0  0  0  0  0  0  0  0  0  0  0  0
  -22.3148    0.6666  -14.3302 C   0  0  0  0  0  0  0  0  0  0  0  0
  -21.2329   -0.0386  -14.8594 C   0  0  0  0  0  0  0  0  0  0  0  0
  -20.0075    0.6048  -15.0658 C   0  0  0  0  0  0  0  0  0  0  0  0
  -17.7049    2.1861  -15.8574 N   0  0  0  0  0  0  0  0  0  0  0  0
  -18.5731    2.6916  -14.9022 C   0  0  0  0  0  0  0  0  0  0  0  0
  -18.3708    3.6695  -14.1866 O   0  0  0  0  0  0  0  0  0  0  0  0
  -17.9452    1.3388  -16.3523 H   0  0  0  0  0  0  0  0  0  0  0  0
  -14.8668    4.0917  -16.9167 N   0  0  0  0  0  0  0  0  0  0  0  0
  -16.2252    3.9805  -16.7183 C   0  0  0  0  0  0  0  0  0  0  0  0
  -16.4756    2.7485  -16.1720 C   0  0  0  0  0  0  0  0  0  0  0  0
  -15.1925    2.1897  -16.0110 C   0  0  0  0  0  0  0  0  0  0  0  0
  -14.2169    2.9847  -16.4602 N   0  0  0  0  0  0  0  0  0  0  0  0
  -12.1561    8.5450  -19.3228 C   0  0  0  0  0  0  0  0  0  0  0  0
  -12.8471    7.3603  -18.7144 C   0  0  0  0  0  0  0  0  0  0  0  0
  -12.3271    6.7479  -17.5715 C   0  0  0  0  0  0  0  0  0  0  0  0
  -12.9823    5.6620  -16.9861 C   0  0  0  0  0  0  0  0  0  0  0  0
  -14.1736    5.1700  -17.5375 C   0  0  0  0  0  0  0  0  0  0  0  0
  -14.6916    5.7715  -18.6923 C   0  0  0  0  0  0  0  0  0  0  0  0
  -14.0330    6.8643  -19.2711 C   0  0  0  0  0  0  0  0  0  0  0  0
  -23.5285   -0.0052  -14.0787 N   0  0  0  0  0  0  0  0  0  0  0  0
  -24.2442   -0.0814  -14.7971 H   0  0  0  0  0  0  0  0  0  0  0  0
  -23.8978   -0.6163  -12.5670 S   0  0  0  0  0  0  0  0  0  0  0  0
  -23.0313   -1.7618  -12.3790 O   0  0  0  0  0  0  0  0  0  0  0  0
  -23.9292    0.4642  -11.6055 O   0  0  0  0  0  0  0  0  0  0  0  0
  -25.5549   -1.2316  -12.7711 C   0  0  0  0  0  0  0  0  0  0  0  0
  -26.4302   -1.2327  -11.6791 C   0  0  0  0  0  0  0  0  0  0  0  0
  -27.7515   -1.6450  -11.8561 C   0  0  0  0  0  0  0  0  0  0  0  0
  -28.1944   -2.0461  -13.1177 C   0  0  0  0  0  0  0  0  0  0  0  0
  -27.3196   -2.0391  -14.2056 C   0  0  0  0  0  0  0  0  0  0  0  0
  -25.9970   -1.6265  -14.0372 C   0  0  0  0  0  0  0  0  0  0  0  0
 16 17  1  0  0  0
 17 18  1  0  0  0
 17 22  2  0  0  0
 18 19  2  0  0  0
 19 20  1  0  0  0
 20 11  1  0  0  0
 20 21  2  0  0  0
 11 12  1  0  0  0
 11 15  1  0  0  0
 12 13  2  0  0  0
 13  7  1  0  0  0
 13 14  1  0  0  0
  7  8  1  0  0  0
  7 10  1  0  0  0
  8  9  2  0  0  0
  8  1  1  0  0  0
  1  2  1  0  0  0
  1  6  2  0  0  0
  2  3  2  0  0  0
  3  4  1  0  0  0
  4 23  1  0  0  0
  4  5  2  0  0  0
 23 25  1  0  0  0
 23 24  1  0  0  0
 25 26  2  0  0  0
 25 27  2  0  0  0
 25 28  1  0  0  0
 28 29  1  0  0  0
 28 33  2  0  0  0
 29 30  2  0  0  0
 30 31  1  0  0  0
 31 32  2  0  0  0
 32 33  1  0  0  0
  5  6  1  0  0  0
 14 15  2  0  0  0
 21 22  1  0  0  0
M  END
> <minimizedAffinity>
-8.96843

$$$$
