CHEMBL511414


 32 36  0  0  0  0  0  0  0  0999 V2000
  -28.1293   -1.5379   -5.6220 C   0  0  0  0  0  0  0  0  0  0  0  0
  -28.5520   -0.5499   -4.7161 C   0  0  0  0  0  0  0  0  0  0  0  0
  -28.9559    0.6938   -5.1661 C   0  0  0  0  0  0  0  0  0  0  0  0
  -28.7557    1.0255   -6.4973 C   0  0  0  0  0  0  0  0  0  0  0  0
  -28.1829    0.0934   -7.3748 C   0  0  0  0  0  0  0  0  0  0  0  0
  -27.9655   -1.2475   -6.9894 C   0  0  0  0  0  0  0  0  0  0  0  0
  -27.9432   -2.8919   -5.0542 C   0  0  0  0  0  0  0  0  0  0  0  0
  -26.8476   -3.2745   -4.6844 O   0  0  0  0  0  0  0  0  0  0  0  0
  -28.5541   -7.4475   -8.3550 C   0  0  0  0  0  0  0  0  0  0  0  0
  -29.2527   -6.7795   -7.2111 C   0  0  0  0  0  0  0  0  0  0  0  0
  -30.3763   -7.3556   -6.6172 C   0  0  0  0  0  0  0  0  0  0  0  0
  -31.0317   -6.7446   -5.5418 C   0  0  0  0  0  0  0  0  0  0  0  0
  -30.5247   -5.5261   -5.0696 C   0  0  0  0  0  0  0  0  0  0  0  0
  -29.3899   -4.9351   -5.6321 C   0  0  0  0  0  0  0  0  0  0  0  0
  -28.7568   -5.5669   -6.7214 C   0  0  0  0  0  0  0  0  0  0  0  0
  -29.0990   -3.7575   -4.8835 C   0  0  0  0  0  0  0  0  0  0  0  0
  -30.1230   -3.6074   -3.9666 C   0  0  0  0  0  0  0  0  0  0  0  0
  -30.9433   -4.6960   -4.0541 N   0  0  0  0  0  0  0  0  0  0  0  0
  -32.0708   -4.9273   -3.1803 C   0  0  0  0  0  0  0  0  0  0  0  0
  -27.6428   -2.1664   -7.9821 N   0  0  0  0  0  0  0  0  0  0  0  0
  -27.0106   -2.9166   -7.7407 H   0  0  0  0  0  0  0  0  0  0  0  0
  -28.1805   -2.1295   -9.3351 C   0  0  0  0  0  0  0  0  0  0  0  0
  -27.1682   -1.7511  -10.3648 C   0  0  0  0  0  0  0  0  0  0  0  0
  -27.7136   -1.6777  -11.6436 C   0  0  0  0  0  0  0  0  0  0  0  0
  -26.9188   -1.3337  -12.6610 C   0  0  0  0  0  0  0  0  0  0  0  0
  -25.6113   -1.2400  -12.3819 C   0  0  0  0  0  0  0  0  0  0  0  0
  -24.8644   -1.1080  -13.4134 N   0  0  0  0  0  0  0  0  0  0  0  0
  -24.1974   -0.9648  -14.4791 C   0  0  0  0  0  0  0  0  0  0  0  0
  -23.2142   -0.9269  -13.5467 C   0  0  0  0  0  0  0  0  0  0  0  0
  -23.3946   -1.0222  -11.8926 C   0  0  0  0  0  0  0  0  0  0  0  0
  -24.8325   -1.2494  -11.2826 C   0  0  0  0  0  0  0  0  0  0  0  0
  -25.7685   -1.4417  -10.1291 C   0  0  0  0  0  0  0  0  0  0  0  0
  9 10  1  0  0  0
 10 11  1  0  0  0
 10 15  2  0  0  0
 11 12  2  0  0  0
 12 13  1  0  0  0
 13 14  2  0  0  0
 13 18  1  0  0  0
 14 15  1  0  0  0
 14 16  1  0  0  0
 16  7  1  0  0  0
 16 17  2  0  0  0
  7  8  2  0  0  0
  7  1  1  0  0  0
  1  2  1  0  0  0
  1  6  2  0  0  0
  2  3  2  0  0  0
  3  4  1  0  0  0
  4  5  2  0  0  0
  5  6  1  0  0  0
  6 20  1  0  0  0
 20 22  1  0  0  0
 20 21  1  0  0  0
 22 23  1  0  0  0
 23 24  1  0  0  0
 23 32  2  0  0  0
 24 25  2  0  0  0
 25 26  1  0  0  0
 26 27  1  0  0  0
 26 31  2  0  0  0
 27 28  2  0  0  0
 28 29  1  0  0  0
 29 30  2  0  0  0
 30 31  1  0  0  0
 31 32  1  0  0  0
 17 18  1  0  0  0
 18 19  1  0  0  0
M  END
> <minimizedAffinity>
-10.77084

$$$$
