CHEMBL223535


 30 32  0  0  0  0  0  0  0  0999 V2000
  -30.3981   -8.9621   -7.5274 C   0  0  0  0  0  0  0  0  0  0  0  0
  -31.4724   -9.5586   -8.1832 C   0  0  0  0  0  0  0  0  0  0  0  0
  -31.3188  -10.6422   -9.0502 N   0  0  0  0  0  0  0  0  0  0  0  0
  -32.7521   -9.2279   -7.9410 N   0  0  0  0  0  0  0  0  0  0  0  0
  -32.9621   -8.2594   -7.0511 C   0  0  0  0  0  0  0  0  0  0  0  0
  -32.0087   -7.6010   -6.3834 N   0  0  0  0  0  0  0  0  0  0  0  0
  -30.7331   -7.9896   -6.6026 C   0  0  0  0  0  0  0  0  0  0  0  0
  -30.5197  -10.5155   -9.6718 H   0  0  0  0  0  0  0  0  0  0  0  0
  -32.1963  -10.8271   -9.5205 H   0  0  0  0  0  0  0  0  0  0  0  0
  -28.5076   -9.1369   -9.0159 N   0  0  0  0  0  0  0  0  0  0  0  0
  -29.0090   -9.3476   -7.8339 C   0  0  0  0  0  0  0  0  0  0  0  0
  -27.1889   -9.6073   -9.0752 O   0  0  0  0  0  0  0  0  0  0  0  0
  -26.9819  -10.2049  -10.3639 C   0  0  0  0  0  0  0  0  0  0  0  0
  -28.1383  -11.1690  -10.6479 C   0  0  0  0  0  0  0  0  0  0  0  0
  -28.6231   -9.9687  -12.6796 C   0  0  0  0  0  0  0  0  0  0  0  0
  -29.1900  -10.5581  -11.4722 N   0  0  0  0  0  0  0  0  0  0  0  0
  -29.8727  -11.2679  -11.7367 H   0  0  0  0  0  0  0  0  0  0  0  0
  -29.7354   -7.3605   -5.8579 O   0  0  0  0  0  0  0  0  0  0  0  0
  -29.4857   -6.0231   -6.1415 C   0  0  0  0  0  0  0  0  0  0  0  0
  -29.0841   -5.6004   -7.4172 C   0  0  0  0  0  0  0  0  0  0  0  0
  -28.7864   -4.2622   -7.6904 C   0  0  0  0  0  0  0  0  0  0  0  0
  -29.0146   -3.3342   -6.6738 C   0  0  0  0  0  0  0  0  0  0  0  0
  -28.8745   -1.9648   -6.6816 N   0  0  0  0  0  0  0  0  0  0  0  0
  -29.4443   -1.4336   -5.5524 C   0  0  0  0  0  0  0  0  0  0  0  0
  -29.7542    0.0122   -5.4315 C   0  0  0  0  0  0  0  0  0  0  0  0
  -29.6838   -2.4853   -4.6881 C   0  0  0  0  0  0  0  0  0  0  0  0
  -29.4845   -3.6996   -5.4097 C   0  0  0  0  0  0  0  0  0  0  0  0
  -29.6958   -5.0702   -5.1370 C   0  0  0  0  0  0  0  0  0  0  0  0
  -30.1389   -5.4520   -3.9287 F   0  0  0  0  0  0  0  0  0  0  0  0
  -28.5273   -1.4325   -7.4687 H   0  0  0  0  0  0  0  0  0  0  0  0
 15 16  1  0  0  0
 16 14  1  0  0  0
 16 17  1  0  0  0
 14 13  1  0  0  0
 13 12  1  0  0  0
 12 10  1  0  0  0
 10 11  2  0  0  0
 11  1  1  0  0  0
  1  2  1  0  0  0
  1  7  2  0  0  0
  2  3  1  0  0  0
  2  4  2  0  0  0
  3  8  1  0  0  0
  3  9  1  0  0  0
  4  5  1  0  0  0
  5  6  2  0  0  0
  6  7  1  0  0  0
  7 18  1  0  0  0
 18 19  1  0  0  0
 19 20  1  0  0  0
 19 28  2  0  0  0
 20 21  2  0  0  0
 21 22  1  0  0  0
 22 23  1  0  0  0
 22 27  2  0  0  0
 23 24  1  0  0  0
 23 30  1  0  0  0
 24 25  1  0  0  0
 24 26  2  0  0  0
 26 27  1  0  0  0
 27 28  1  0  0  0
 28 29  1  0  0  0
M  END
> <minimizedAffinity>
-7.45654

$$$$
