CHEMBL1086932


 39 44  0  0  0  0  0  0  0  0999 V2000
  -13.4629    0.6061  -15.0291 C   0  0  0  0  0  0  0  0  0  0  0  0
  -12.4751   -0.3690  -14.8782 C   0  0  0  0  0  0  0  0  0  0  0  0
  -12.6275   -1.4152  -13.9521 C   0  0  0  0  0  0  0  0  0  0  0  0
  -13.7724   -1.5252  -13.1547 C   0  0  0  0  0  0  0  0  0  0  0  0
  -14.7418   -0.5305  -13.2905 C   0  0  0  0  0  0  0  0  0  0  0  0
  -15.8788   -0.5431  -12.5828 F   0  0  0  0  0  0  0  0  0  0  0  0
  -14.5785    0.5368  -14.1903 C   0  0  0  0  0  0  0  0  0  0  0  0
  -14.0596    1.6470  -17.2299 C   0  0  0  0  0  0  0  0  0  0  0  0
  -14.7560    0.7196  -17.6290 O   0  0  0  0  0  0  0  0  0  0  0  0
  -13.4154    1.6474  -15.9954 N   0  0  0  0  0  0  0  0  0  0  0  0
  -12.9960    2.5145  -15.6917 H   0  0  0  0  0  0  0  0  0  0  0  0
  -15.6926    4.4371  -16.9693 C   0  0  0  0  0  0  0  0  0  0  0  0
  -14.5824    4.0712  -17.8978 C   0  0  0  0  0  0  0  0  0  0  0  0
  -13.8914    2.8623  -18.0423 C   0  0  0  0  0  0  0  0  0  0  0  0
  -13.0776    3.0871  -19.1717 C   0  0  0  0  0  0  0  0  0  0  0  0
  -13.2693    4.2765  -19.7363 N   0  0  0  0  0  0  0  0  0  0  0  0
  -14.1363    4.9181  -18.9116 N   0  0  0  0  0  0  0  0  0  0  0  0
  -14.4798    6.2765  -19.1840 C   0  0  0  0  0  0  0  0  0  0  0  0
  -15.3913    6.5573  -20.2142 C   0  0  0  0  0  0  0  0  0  0  0  0
  -15.7589    7.8781  -20.4906 C   0  0  0  0  0  0  0  0  0  0  0  0
  -15.1943    8.9281  -19.7684 C   0  0  0  0  0  0  0  0  0  0  0  0
  -14.2617    8.6590  -18.7693 C   0  0  0  0  0  0  0  0  0  0  0  0
  -13.9068    7.3386  -18.4729 C   0  0  0  0  0  0  0  0  0  0  0  0
  -13.7674   -2.6359  -12.3355 O   0  0  0  0  0  0  0  0  0  0  0  0
  -14.7769   -3.5716  -12.3753 C   0  0  0  0  0  0  0  0  0  0  0  0
  -15.7741   -3.6160  -11.4087 C   0  0  0  0  0  0  0  0  0  0  0  0
  -16.7392   -4.6006  -11.4808 C   0  0  0  0  0  0  0  0  0  0  0  0
  -16.7811   -5.5800  -12.4009 N   0  0  0  0  0  0  0  0  0  0  0  0
  -15.7394   -5.6111  -13.2761 C   0  0  0  0  0  0  0  0  0  0  0  0
  -15.5580   -6.6001  -14.2866 C   0  0  0  0  0  0  0  0  0  0  0  0
  -14.3596   -6.4583  -14.9479 C   0  0  0  0  0  0  0  0  0  0  0  0
  -13.5044   -5.0779  -14.4228 S   0  0  0  0  0  0  0  0  0  0  0  0
  -14.7140   -4.6590  -13.2693 C   0  0  0  0  0  0  0  0  0  0  0  0
  -13.8876   -7.4139  -15.9935 C   0  0  0  0  0  0  0  0  0  0  0  0
  -13.2796   -8.6299  -15.7657 C   0  0  0  0  0  0  0  0  0  0  0  0
  -13.0444   -9.1475  -17.0066 N   0  0  0  0  0  0  0  0  0  0  0  0
  -12.4610  -10.4298  -17.3058 C   0  0  0  0  0  0  0  0  0  0  0  0
  -13.4869   -8.2417  -17.9291 C   0  0  0  0  0  0  0  0  0  0  0  0
  -14.0280   -7.1934  -17.3465 N   0  0  0  0  0  0  0  0  0  0  0  0
 12 13  1  0  0  0
 13 14  2  0  0  0
 13 17  1  0  0  0
 14  8  1  0  0  0
 14 15  1  0  0  0
  8  9  2  0  0  0
  8 10  1  0  0  0
 10  1  1  0  0  0
 10 11  1  0  0  0
  1  2  1  0  0  0
  1  7  2  0  0  0
  2  3  2  0  0  0
  3  4  1  0  0  0
  4 24  1  0  0  0
  4  5  2  0  0  0
 24 25  1  0  0  0
 25 26  1  0  0  0
 25 33  2  0  0  0
 26 27  2  0  0  0
 27 28  1  0  0  0
 28 29  2  0  0  0
 29 30  1  0  0  0
 29 33  1  0  0  0
 30 31  2  0  0  0
 31 34  1  0  0  0
 31 32  1  0  0  0
 34 35  2  0  0  0
 34 39  1  0  0  0
 35 36  1  0  0  0
 36 37  1  0  0  0
 36 38  1  0  0  0
 38 39  2  0  0  0
 32 33  1  0  0  0
  5  6  1  0  0  0
  5  7  1  0  0  0
 15 16  2  0  0  0
 16 17  1  0  0  0
 17 18  1  0  0  0
 18 19  1  0  0  0
 18 23  2  0  0  0
 19 20  2  0  0  0
 20 21  1  0  0  0
 21 22  2  0  0  0
 22 23  1  0  0  0
M  END
> <minimizedAffinity>
-7.91544

$$$$
