CHEMBL2409784


 35 39  0  0  0  0  0  0  0  0999 V2000
  -28.0924   -3.3274   -7.4117 C   0  0  0  0  0  0  0  0  0  0  0  0
  -28.2410   -2.9834   -8.7699 C   0  0  0  0  0  0  0  0  0  0  0  0
  -28.1652   -1.6461   -9.2172 C   0  0  0  0  0  0  0  0  0  0  0  0
  -27.9703   -0.6246   -8.3098 C   0  0  0  0  0  0  0  0  0  0  0  0
  -27.8185   -0.9450   -6.9575 C   0  0  0  0  0  0  0  0  0  0  0  0
  -27.8333   -2.2810   -6.5040 C   0  0  0  0  0  0  0  0  0  0  0  0
  -27.4869   -2.5246   -5.0583 C   0  0  0  0  0  0  0  0  0  0  0  0
  -29.2551   -5.2513   -6.2892 C   0  0  0  0  0  0  0  0  0  0  0  0
  -30.2974   -4.6613   -6.0788 O   0  0  0  0  0  0  0  0  0  0  0  0
  -28.1711   -4.6849   -6.9434 N   0  0  0  0  0  0  0  0  0  0  0  0
  -27.4042   -5.3180   -7.1469 H   0  0  0  0  0  0  0  0  0  0  0  0
  -27.4696   -9.2314   -3.7328 C   0  0  0  0  0  0  0  0  0  0  0  0
  -28.2677   -8.3951   -4.6780 C   0  0  0  0  0  0  0  0  0  0  0  0
  -28.1595   -7.0904   -4.8811 N   0  0  0  0  0  0  0  0  0  0  0  0
  -29.1059   -6.6723   -5.8461 C   0  0  0  0  0  0  0  0  0  0  0  0
  -29.8860   -7.7136   -6.3475 C   0  0  0  0  0  0  0  0  0  0  0  0
  -30.9686   -7.7426   -7.3749 C   0  0  0  0  0  0  0  0  0  0  0  0
  -29.4500   -9.1987   -5.6213 S   0  0  0  0  0  0  0  0  0  0  0  0
  -28.1106   -1.4433  -10.5722 O   0  0  0  0  0  0  0  0  0  0  0  0
  -26.9328   -1.3586  -11.2822 C   0  0  0  0  0  0  0  0  0  0  0  0
  -26.9633   -2.1150  -12.5275 C   0  0  0  0  0  0  0  0  0  0  0  0
  -26.2324   -1.7287  -13.5908 C   0  0  0  0  0  0  0  0  0  0  0  0
  -25.0751   -0.9338  -13.3324 C   0  0  0  0  0  0  0  0  0  0  0  0
  -23.9776   -0.7760  -14.0335 N   0  0  0  0  0  0  0  0  0  0  0  0
  -23.1752   -0.0768  -13.1864 C   0  0  0  0  0  0  0  0  0  0  0  0
  -23.7466    0.3065  -12.0350 N   0  0  0  0  0  0  0  0  0  0  0  0
  -24.9329   -0.3695  -12.0764 N   0  0  0  0  0  0  0  0  0  0  0  0
  -25.9050   -0.5075  -11.0690 C   0  0  0  0  0  0  0  0  0  0  0  0
  -21.8721    0.2525  -13.4642 N   0  0  0  0  0  0  0  0  0  0  0  0
  -21.4613    1.4736  -13.9312 C   0  0  0  0  0  0  0  0  0  0  0  0
  -22.1602    2.4368  -14.2039 O   0  0  0  0  0  0  0  0  0  0  0  0
  -21.2348   -0.5183  -13.3985 H   0  0  0  0  0  0  0  0  0  0  0  0
  -19.9865    1.6157  -14.1729 C   0  0  0  0  0  0  0  0  0  0  0  0
  -19.3226    2.3544  -15.3079 C   0  0  0  0  0  0  0  0  0  0  0  0
  -19.3714    0.8546  -15.3257 C   0  0  0  0  0  0  0  0  0  0  0  0
 12 13  1  0  0  0
 13 14  2  0  0  0
 13 18  1  0  0  0
 14 15  1  0  0  0
 15  8  1  0  0  0
 15 16  2  0  0  0
  8  9  2  0  0  0
  8 10  1  0  0  0
 10  1  1  0  0  0
 10 11  1  0  0  0
  1  2  1  0  0  0
  1  6  2  0  0  0
  2  3  2  0  0  0
  3 19  1  0  0  0
  3  4  1  0  0  0
 19 20  1  0  0  0
 20 21  1  0  0  0
 20 28  2  0  0  0
 21 22  2  0  0  0
 22 23  1  0  0  0
 23 24  2  0  0  0
 23 27  1  0  0  0
 24 25  1  0  0  0
 25 29  1  0  0  0
 25 26  2  0  0  0
 29 30  1  0  0  0
 29 32  1  0  0  0
 30 31  2  0  0  0
 30 33  1  0  0  0
 33 34  1  0  0  0
 33 35  1  0  0  0
 34 35  1  0  0  0
 26 27  1  0  0  0
 27 28  1  0  0  0
  4  5  2  0  0  0
  5  6  1  0  0  0
  6  7  1  0  0  0
 16 17  1  0  0  0
 16 18  1  0  0  0
M  END
> <minimizedAffinity>
-9.45918

$$$$
