CHEMBL3128222


 38 42  0  0  0  0  0  0  0  0999 V2000
  -26.9838   -1.4869   -9.4362 C   0  0  0  0  0  0  0  0  0  0  0  0
  -29.3710   -3.6174   -7.3341 C   0  0  0  0  0  0  0  0  0  0  0  0
  -29.4220   -2.8978   -6.1444 C   0  0  0  0  0  0  0  0  0  0  0  0
  -28.7090   -1.7070   -6.0289 C   0  0  0  0  0  0  0  0  0  0  0  0
  -27.9473   -1.2362   -7.1022 C   0  0  0  0  0  0  0  0  0  0  0  0
  -27.8782   -1.9582   -8.3042 C   0  0  0  0  0  0  0  0  0  0  0  0
  -28.6129   -3.1522   -8.4130 C   0  0  0  0  0  0  0  0  0  0  0  0
  -30.1212   -4.8083   -7.4512 N   0  0  0  0  0  0  0  0  0  0  0  0
  -30.9363   -4.8474   -8.0579 H   0  0  0  0  0  0  0  0  0  0  0  0
  -28.4639   -6.2712   -6.2917 O   0  0  0  0  0  0  0  0  0  0  0  0
  -29.8965   -6.0869   -6.4000 S   0  0  0  0  0  0  0  0  0  0  0  0
  -30.7153   -5.8934   -5.2227 O   0  0  0  0  0  0  0  0  0  0  0  0
  -30.5329   -7.5068   -7.2785 C   0  0  0  0  0  0  0  0  0  0  0  0
  -29.6602   -8.2860   -8.0521 C   0  0  0  0  0  0  0  0  0  0  0  0
  -30.1089   -9.4940   -8.5942 C   0  0  0  0  0  0  0  0  0  0  0  0
  -31.4140   -9.9117   -8.3543 C   0  0  0  0  0  0  0  0  0  0  0  0
  -31.8277  -11.0904   -8.8380 F   0  0  0  0  0  0  0  0  0  0  0  0
  -32.2902   -9.1363   -7.6002 C   0  0  0  0  0  0  0  0  0  0  0  0
  -31.8502   -7.9263   -7.0551 C   0  0  0  0  0  0  0  0  0  0  0  0
  -26.8769   -2.5179  -10.4565 N   0  0  0  0  0  0  0  0  0  0  0  0
  -27.7035   -3.0956  -10.5416 H   0  0  0  0  0  0  0  0  0  0  0  0
  -26.3803   -2.0964  -11.6926 C   0  0  0  0  0  0  0  0  0  0  0  0
  -27.1839   -2.0510  -12.7845 N   0  0  0  0  0  0  0  0  0  0  0  0
  -26.6769   -1.6146  -13.9542 C   0  0  0  0  0  0  0  0  0  0  0  0
  -25.4185   -1.2205  -14.2180 N   0  0  0  0  0  0  0  0  0  0  0  0
  -24.6451   -1.2668  -13.1207 C   0  0  0  0  0  0  0  0  0  0  0  0
  -25.0508   -1.6827  -11.8575 C   0  0  0  0  0  0  0  0  0  0  0  0
  -23.8950   -1.5490  -11.0647 C   0  0  0  0  0  0  0  0  0  0  0  0
  -22.8369   -1.0972  -11.7475 N   0  0  0  0  0  0  0  0  0  0  0  0
  -23.3213   -0.9157  -13.0005 N   0  0  0  0  0  0  0  0  0  0  0  0
  -22.4048   -0.4628  -14.0366 C   0  0  0  0  0  0  0  0  0  0  0  0
  -22.3877    1.0446  -14.2800 C   0  0  0  0  0  0  0  0  0  0  0  0
  -21.0393    1.5616  -14.7224 C   0  0  0  0  0  0  0  0  0  0  0  0
  -20.8019    2.9425  -14.7950 C   0  0  0  0  0  0  0  0  0  0  0  0
  -19.5373    3.4269  -15.1323 C   0  0  0  0  0  0  0  0  0  0  0  0
  -18.5017    2.5377  -15.4114 C   0  0  0  0  0  0  0  0  0  0  0  0
  -18.7344    1.1641  -15.3683 C   0  0  0  0  0  0  0  0  0  0  0  0
  -19.9985    0.6765  -15.0304 C   0  0  0  0  0  0  0  0  0  0  0  0
 10 11  2  0  0  0
 11 12  2  0  0  0
 11  8  1  0  0  0
 11 13  1  0  0  0
  8  2  1  0  0  0
  8  9  1  0  0  0
  2  3  1  0  0  0
  2  7  2  0  0  0
  3  4  2  0  0  0
  4  5  1  0  0  0
  5  6  2  0  0  0
  6  1  1  0  0  0
  6  7  1  0  0  0
  1 20  1  0  0  0
 20 22  1  0  0  0
 20 21  1  0  0  0
 22 23  1  0  0  0
 22 27  2  0  0  0
 23 24  2  0  0  0
 24 25  1  0  0  0
 25 26  2  0  0  0
 26 27  1  0  0  0
 26 30  1  0  0  0
 27 28  1  0  0  0
 28 29  2  0  0  0
 29 30  1  0  0  0
 30 31  1  0  0  0
 31 32  1  0  0  0
 32 33  1  0  0  0
 33 34  1  0  0  0
 33 38  2  0  0  0
 34 35  2  0  0  0
 35 36  1  0  0  0
 36 37  2  0  0  0
 37 38  1  0  0  0
 13 14  1  0  0  0
 13 19  2  0  0  0
 14 15  2  0  0  0
 15 16  1  0  0  0
 16 17  1  0  0  0
 16 18  2  0  0  0
 18 19  1  0  0  0
M  END
> <minimizedAffinity>
-11.39636

$$$$
