CHEMBL3977450


 35 39  0  0  0  0  0  0  0  0999 V2000
  -28.4533   -8.8214   -5.8298 C   0  0  0  0  0  0  0  0  0  0  0  0
  -27.6689   -9.8532   -6.3504 C   0  0  0  0  0  0  0  0  0  0  0  0
  -27.3913   -9.9556   -7.7174 C   0  0  0  0  0  0  0  0  0  0  0  0
  -26.5623  -10.9601   -8.2311 C   0  0  0  0  0  0  0  0  0  0  0  0
  -26.2341  -11.0040   -9.5357 N   0  0  0  0  0  0  0  0  0  0  0  0
  -26.7633  -10.0570  -10.3111 C   0  0  0  0  0  0  0  0  0  0  0  0
  -27.6041   -9.0741   -9.9220 N   0  0  0  0  0  0  0  0  0  0  0  0
  -27.8916   -9.0277   -8.6072 C   0  0  0  0  0  0  0  0  0  0  0  0
  -28.7153   -8.0012   -8.1084 C   0  0  0  0  0  0  0  0  0  0  0  0
  -28.9747   -7.8722   -6.7384 C   0  0  0  0  0  0  0  0  0  0  0  0
  -27.8658   -9.2518   -3.5028 C   0  0  0  0  0  0  0  0  0  0  0  0
  -28.7522   -8.7466   -4.5043 O   0  0  0  0  0  0  0  0  0  0  0  0
  -26.0635  -11.9684   -7.3560 N   0  0  0  0  0  0  0  0  0  0  0  0
  -25.9707  -12.8414   -7.8698 H   0  0  0  0  0  0  0  0  0  0  0  0
  -24.9814  -11.7641   -6.4693 C   0  0  0  0  0  0  0  0  0  0  0  0
  -23.7505  -11.3105   -6.9483 C   0  0  0  0  0  0  0  0  0  0  0  0
  -22.6392  -11.2492   -6.1100 C   0  0  0  0  0  0  0  0  0  0  0  0
  -21.1426  -10.7385   -6.8037 Cl  0  0  0  0  0  0  0  0  0  0  0  0
  -22.7650  -11.6195   -4.7655 C   0  0  0  0  0  0  0  0  0  0  0  0
  -21.4059  -11.6817   -3.6996 Cl  0  0  0  0  0  0  0  0  0  0  0  0
  -24.0115  -11.9801   -4.2520 C   0  0  0  0  0  0  0  0  0  0  0  0
  -25.1100  -12.0352   -5.1031 C   0  0  0  0  0  0  0  0  0  0  0  0
  -26.3041  -12.4056   -4.6088 F   0  0  0  0  0  0  0  0  0  0  0  0
  -29.7181   -6.7446   -6.4363 O   0  0  0  0  0  0  0  0  0  0  0  0
  -28.9379   -5.5955   -6.1056 C   0  0  0  0  0  0  0  0  0  0  0  0
  -28.8706   -5.2739   -4.5952 C   0  0  0  0  0  0  0  0  0  0  0  0
  -27.7629   -4.2056   -4.4033 C   0  0  0  0  0  0  0  0  0  0  0  0
  -28.1805   -2.9584   -5.0797 N   0  0  0  0  0  0  0  0  0  0  0  0
  -27.1233   -1.9533   -5.1797 C   0  0  0  0  0  0  0  0  0  0  0  0
  -27.6035   -0.5084   -5.4486 C   0  0  0  0  0  0  0  0  0  0  0  0
  -28.8115   -0.1547   -4.7661 O   0  0  0  0  0  0  0  0  0  0  0  0
  -29.8346   -1.1266   -5.0221 C   0  0  0  0  0  0  0  0  0  0  0  0
  -29.4090   -2.4655   -4.4152 C   0  0  0  0  0  0  0  0  0  0  0  0
  -30.5227   -3.5235   -4.5513 C   0  0  0  0  0  0  0  0  0  0  0  0
  -30.1188   -4.8038   -4.0371 O   0  0  0  0  0  0  0  0  0  0  0  0
 11 12  1  0  0  0
 12  1  1  0  0  0
  1  2  1  0  0  0
  1 10  2  0  0  0
  2  3  2  0  0  0
  3  4  1  0  0  0
  3  8  1  0  0  0
  4 13  1  0  0  0
  4  5  2  0  0  0
 13 15  1  0  0  0
 13 14  1  0  0  0
 15 16  1  0  0  0
 15 22  2  0  0  0
 16 17  2  0  0  0
 17 18  1  0  0  0
 17 19  1  0  0  0
 19 20  1  0  0  0
 19 21  2  0  0  0
 21 22  1  0  0  0
 22 23  1  0  0  0
  5  6  1  0  0  0
  6  7  2  0  0  0
  7  8  1  0  0  0
  8  9  2  0  0  0
  9 10  1  0  0  0
 10 24  1  0  0  0
 24 25  1  0  0  0
 25 26  1  0  0  0
 26 27  1  0  0  0
 26 35  1  0  0  0
 27 28  1  0  0  0
 28 29  1  0  0  0
 28 33  1  0  0  0
 29 30  1  0  0  0
 30 31  1  0  0  0
 31 32  1  0  0  0
 32 33  1  0  0  0
 33 34  1  0  0  0
 34 35  1  0  0  0
M  END
> <minimizedAffinity>
-8.23910

$$$$
