CHEMBL1254192


 30 33  0  0  0  0  0  0  0  0999 V2000
  -23.1351   -0.7742  -13.6499 C   0  0  0  0  0  0  0  0  0  0  0  0
  -23.1178   -1.0406  -12.2822 C   0  0  0  0  0  0  0  0  0  0  0  0
  -24.2765   -1.4475  -11.6277 C   0  0  0  0  0  0  0  0  0  0  0  0
  -25.4863   -1.6430  -12.2995 C   0  0  0  0  0  0  0  0  0  0  0  0
  -25.4855   -1.4084  -13.6892 C   0  0  0  0  0  0  0  0  0  0  0  0
  -26.9263   -1.6129  -14.6258 Cl  0  0  0  0  0  0  0  0  0  0  0  0
  -24.3186   -0.9866  -14.3601 C   0  0  0  0  0  0  0  0  0  0  0  0
  -26.6781   -2.0688  -11.6165 N   0  0  0  0  0  0  0  0  0  0  0  0
  -26.8683   -1.9842  -10.2499 C   0  0  0  0  0  0  0  0  0  0  0  0
  -26.0335   -1.5391   -9.4603 O   0  0  0  0  0  0  0  0  0  0  0  0
  -28.0894   -2.4692   -9.7893 N   0  0  0  0  0  0  0  0  0  0  0  0
  -27.4344   -2.4034  -12.2010 H   0  0  0  0  0  0  0  0  0  0  0  0
  -28.4188   -3.2966  -10.2661 H   0  0  0  0  0  0  0  0  0  0  0  0
  -28.2881   -2.4237   -8.3726 C   0  0  0  0  0  0  0  0  0  0  0  0
  -28.8498   -3.5204   -7.7120 C   0  0  0  0  0  0  0  0  0  0  0  0
  -29.1841   -3.3966   -6.3748 C   0  0  0  0  0  0  0  0  0  0  0  0
  -28.9889   -2.2694   -5.6606 N   0  0  0  0  0  0  0  0  0  0  0  0
  -28.4304   -1.2290   -6.3189 C   0  0  0  0  0  0  0  0  0  0  0  0
  -28.0419   -1.2584   -7.6528 C   0  0  0  0  0  0  0  0  0  0  0  0
  -22.0163   -0.3622  -14.3430 O   0  0  0  0  0  0  0  0  0  0  0  0
  -19.1712   -0.5056  -15.5150 C   0  0  0  0  0  0  0  0  0  0  0  0
  -19.3528    0.9048  -15.2510 N   0  0  0  0  0  0  0  0  0  0  0  0
  -18.3969    1.8656  -15.4788 C   0  0  0  0  0  0  0  0  0  0  0  0
  -18.9309    3.0860  -15.1265 C   0  0  0  0  0  0  0  0  0  0  0  0
  -20.2485    2.8537  -14.6720 C   0  0  0  0  0  0  0  0  0  0  0  0
  -21.1540    3.7445  -14.2179 N   0  0  0  0  0  0  0  0  0  0  0  0
  -22.3165    3.1871  -13.8631 C   0  0  0  0  0  0  0  0  0  0  0  0
  -22.6519    1.8880  -13.9093 N   0  0  0  0  0  0  0  0  0  0  0  0
  -21.7205    0.9991  -14.3277 C   0  0  0  0  0  0  0  0  0  0  0  0
  -20.4928    1.4865  -14.7490 C   0  0  0  0  0  0  0  0  0  0  0  0
 21 22  1  0  0  0
 22 23  1  0  0  0
 22 30  1  0  0  0
 23 24  2  0  0  0
 24 25  1  0  0  0
 25 26  1  0  0  0
 25 30  2  0  0  0
 26 27  2  0  0  0
 27 28  1  0  0  0
 28 29  2  0  0  0
 29 20  1  0  0  0
 29 30  1  0  0  0
 20  1  1  0  0  0
  1  2  1  0  0  0
  1  7  2  0  0  0
  2  3  2  0  0  0
  3  4  1  0  0  0
  4  8  1  0  0  0
  4  5  2  0  0  0
  8  9  1  0  0  0
  8 12  1  0  0  0
  9 10  2  0  0  0
  9 11  1  0  0  0
 11 14  1  0  0  0
 11 13  1  0  0  0
 14 15  1  0  0  0
 14 19  2  0  0  0
 15 16  2  0  0  0
 16 17  1  0  0  0
 17 18  2  0  0  0
 18 19  1  0  0  0
  5  6  1  0  0  0
  5  7  1  0  0  0
M  END
> <minimizedAffinity>
-10.11521

$$$$
