CHEMBL1977134


 43 48  0  0  0  0  0  0  0  0999 V2000
  -22.4915    0.0173  -13.4952 C   0  0  0  0  0  0  0  0  0  0  0  0
  -22.4371   -0.4860  -12.1957 C   0  0  0  0  0  0  0  0  0  0  0  0
  -23.5318   -1.1695  -11.6630 C   0  0  0  0  0  0  0  0  0  0  0  0
  -24.7016   -1.3510  -12.4115 C   0  0  0  0  0  0  0  0  0  0  0  0
  -24.7338   -0.8940  -13.7322 C   0  0  0  0  0  0  0  0  0  0  0  0
  -23.6371   -0.2041  -14.2684 C   0  0  0  0  0  0  0  0  0  0  0  0
  -22.4563    2.9542  -14.0012 N   0  0  0  0  0  0  0  0  0  0  0  0
  -21.3739    2.1105  -14.2416 C   0  0  0  0  0  0  0  0  0  0  0  0
  -21.3595    0.7762  -14.0227 C   0  0  0  0  0  0  0  0  0  0  0  0
  -20.1023    0.0660  -14.4213 C   0  0  0  0  0  0  0  0  0  0  0  0
  -19.0370    0.5930  -14.9252 N   0  0  0  0  0  0  0  0  0  0  0  0
  -19.0753    1.9515  -15.1085 C   0  0  0  0  0  0  0  0  0  0  0  0
  -18.1767    2.8345  -15.6604 C   0  0  0  0  0  0  0  0  0  0  0  0
  -18.7961    4.0989  -15.5507 C   0  0  0  0  0  0  0  0  0  0  0  0
  -19.9992    4.0406  -14.9725 N   0  0  0  0  0  0  0  0  0  0  0  0
  -20.1980    2.7078  -14.7611 N   0  0  0  0  0  0  0  0  0  0  0  0
  -23.0659    2.6613  -13.2439 H   0  0  0  0  0  0  0  0  0  0  0  0
  -22.1659    3.9357  -13.9565 H   0  0  0  0  0  0  0  0  0  0  0  0
  -16.9369    2.4921  -16.3289 C   0  0  0  0  0  0  0  0  0  0  0  0
  -16.2624    3.4603  -17.1109 C   0  0  0  0  0  0  0  0  0  0  0  0
  -14.9400    3.2584  -17.5212 C   0  0  0  0  0  0  0  0  0  0  0  0
  -14.3330    2.0915  -17.1252 C   0  0  0  0  0  0  0  0  0  0  0  0
  -15.0130    1.1117  -16.4349 C   0  0  0  0  0  0  0  0  0  0  0  0
  -16.3216    1.2675  -16.0423 C   0  0  0  0  0  0  0  0  0  0  0  0
  -14.2129    0.0603  -16.1101 O   0  0  0  0  0  0  0  0  0  0  0  0
  -12.9276    0.6516  -16.3845 C   0  0  0  0  0  0  0  0  0  0  0  0
  -13.0153    1.7821  -17.2751 O   0  0  0  0  0  0  0  0  0  0  0  0
  -25.8504   -1.9823  -11.8721 N   0  0  0  0  0  0  0  0  0  0  0  0
  -26.2431   -1.8628  -10.5491 C   0  0  0  0  0  0  0  0  0  0  0  0
  -25.7166   -1.1117   -9.7296 O   0  0  0  0  0  0  0  0  0  0  0  0
  -27.3074   -2.6955  -10.2413 N   0  0  0  0  0  0  0  0  0  0  0  0
  -26.5725   -2.2608  -12.5197 H   0  0  0  0  0  0  0  0  0  0  0  0
  -27.2858   -3.5881  -10.7140 H   0  0  0  0  0  0  0  0  0  0  0  0
  -27.8890   -2.6698   -8.9493 C   0  0  0  0  0  0  0  0  0  0  0  0
  -28.6039   -3.7673   -8.4554 C   0  0  0  0  0  0  0  0  0  0  0  0
  -29.1755   -3.7273   -7.1838 C   0  0  0  0  0  0  0  0  0  0  0  0
  -29.0655   -2.5752   -6.4090 C   0  0  0  0  0  0  0  0  0  0  0  0
  -28.3766   -1.4546   -6.8979 C   0  0  0  0  0  0  0  0  0  0  0  0
  -27.7572   -1.5249   -8.1610 C   0  0  0  0  0  0  0  0  0  0  0  0
  -28.3355   -0.1711   -6.1074 C   0  0  0  0  0  0  0  0  0  0  0  0
  -29.3135   -0.0759   -5.1642 F   0  0  0  0  0  0  0  0  0  0  0  0
  -27.1581   -0.0062   -5.4434 F   0  0  0  0  0  0  0  0  0  0  0  0
  -28.4739    0.9296   -6.8984 F   0  0  0  0  0  0  0  0  0  0  0  0
  7  8  1  0  0  0
  7 17  1  0  0  0
  7 18  1  0  0  0
  8  9  2  0  0  0
  8 16  1  0  0  0
  9  1  1  0  0  0
  9 10  1  0  0  0
  1  2  1  0  0  0
  1  6  2  0  0  0
  2  3  2  0  0  0
  3  4  1  0  0  0
  4 28  1  0  0  0
  4  5  2  0  0  0
 28 29  1  0  0  0
 28 32  1  0  0  0
 29 30  2  0  0  0
 29 31  1  0  0  0
 31 34  1  0  0  0
 31 33  1  0  0  0
 34 35  1  0  0  0
 34 39  2  0  0  0
 35 36  2  0  0  0
 36 37  1  0  0  0
 37 38  2  0  0  0
 38 40  1  0  0  0
 38 39  1  0  0  0
 40 41  1  0  0  0
 40 42  1  0  0  0
 40 43  1  0  0  0
  5  6  1  0  0  0
 10 11  2  0  0  0
 11 12  1  0  0  0
 12 13  2  0  0  0
 12 16  1  0  0  0
 13 19  1  0  0  0
 13 14  1  0  0  0
 19 20  1  0  0  0
 19 24  2  0  0  0
 20 21  2  0  0  0
 21 22  1  0  0  0
 22 23  2  0  0  0
 22 27  1  0  0  0
 23 24  1  0  0  0
 23 25  1  0  0  0
 25 26  1  0  0  0
 26 27  1  0  0  0
 14 15  2  0  0  0
 15 16  1  0  0  0
M  END
> <minimizedAffinity>
-11.61761

$$$$
