CHEMBL3928393


 34 38  0  0  0  0  0  0  0  0999 V2000
  -31.3943   11.9602  -13.0968 N   0  0  0  0  0  0  0  0  0  0  0  0
  -30.1095   12.0498  -13.7531 C   0  0  0  0  0  0  0  0  0  0  0  0
  -30.1730   11.4938  -15.0066 C   0  0  0  0  0  0  0  0  0  0  0  0
  -29.0467   11.1621  -15.6528 C   0  0  0  0  0  0  0  0  0  0  0  0
  -27.8073   11.3533  -15.0967 C   0  0  0  0  0  0  0  0  0  0  0  0
  -27.1223   10.3474  -15.5304 N   0  0  0  0  0  0  0  0  0  0  0  0
  -25.9917   10.6615  -16.1021 C   0  0  0  0  0  0  0  0  0  0  0  0
  -25.2436   11.7738  -15.8458 C   0  0  0  0  0  0  0  0  0  0  0  0
  -25.8408   12.6078  -14.8420 N   0  0  0  0  0  0  0  0  0  0  0  0
  -27.3744   12.3800  -14.3290 C   0  0  0  0  0  0  0  0  0  0  0  0
  -28.7577   12.5926  -13.4388 C   0  0  0  0  0  0  0  0  0  0  0  0
  -24.0855   11.7820  -16.9465 C   0  0  0  0  0  0  0  0  0  0  0  0
  -23.5385   10.5299  -17.5039 C   0  0  0  0  0  0  0  0  0  0  0  0
  -22.4613   10.6236  -18.2643 N   0  0  0  0  0  0  0  0  0  0  0  0
  -22.2449   11.9351  -18.3201 N   0  0  0  0  0  0  0  0  0  0  0  0
  -21.1702   12.3526  -19.2059 C   0  0  0  0  0  0  0  0  0  0  0  0
  -23.1159   12.6588  -17.4719 C   0  0  0  0  0  0  0  0  0  0  0  0
  -33.4651   12.3504   -9.9570 C   0  0  0  0  0  0  0  0  0  0  0  0
  -32.4783   12.2654   -8.9865 C   0  0  0  0  0  0  0  0  0  0  0  0
  -31.1347   12.2821   -9.3709 C   0  0  0  0  0  0  0  0  0  0  0  0
  -30.8252   12.2517  -10.7517 C   0  0  0  0  0  0  0  0  0  0  0  0
  -31.7816   12.2043  -11.7458 C   0  0  0  0  0  0  0  0  0  0  0  0
  -33.1066   12.3696  -11.3099 C   0  0  0  0  0  0  0  0  0  0  0  0
  -35.7338   11.8865  -10.5465 C   0  0  0  0  0  0  0  0  0  0  0  0
  -34.8098   12.3813   -9.6104 O   0  0  0  0  0  0  0  0  0  0  0  0
  -30.0836   12.2242   -8.5093 O   0  0  0  0  0  0  0  0  0  0  0  0
  -28.8067   12.4115   -9.0863 C   0  0  0  0  0  0  0  0  0  0  0  0
  -32.4443   11.2010  -13.9229 C   0  0  0  0  0  0  0  0  0  0  0  0
  -33.3384   10.0641  -13.4027 C   0  0  0  0  0  0  0  0  0  0  0  0
  -34.6319    9.9735  -13.6465 N   0  0  0  0  0  0  0  0  0  0  0  0
  -35.1321    8.9777  -12.8259 C   0  0  0  0  0  0  0  0  0  0  0  0
  -34.1170    8.4258  -12.0976 C   0  0  0  0  0  0  0  0  0  0  0  0
  -32.9761    9.0714  -12.5161 N   0  0  0  0  0  0  0  0  0  0  0  0
  -32.0309    8.9188  -12.1813 H   0  0  0  0  0  0  0  0  0  0  0  0
 24 25  1  0  0  0
 25 18  1  0  0  0
 18 19  1  0  0  0
 18 23  2  0  0  0
 19 20  2  0  0  0
 20 26  1  0  0  0
 20 21  1  0  0  0
 26 27  1  0  0  0
 21 22  2  0  0  0
 22  1  1  0  0  0
 22 23  1  0  0  0
  1 28  1  0  0  0
  1  2  1  0  0  0
 28 29  1  0  0  0
 29 30  2  0  0  0
 29 33  1  0  0  0
 30 31  1  0  0  0
 31 32  2  0  0  0
 32 33  1  0  0  0
 33 34  1  0  0  0
  2  3  1  0  0  0
  2 11  2  0  0  0
  3  4  2  0  0  0
  4  5  1  0  0  0
  5  6  1  0  0  0
  5 10  2  0  0  0
  6  7  2  0  0  0
  7  8  1  0  0  0
  8 12  1  0  0  0
  8  9  2  0  0  0
 12 13  1  0  0  0
 12 17  2  0  0  0
 13 14  2  0  0  0
 14 15  1  0  0  0
 15 16  1  0  0  0
 15 17  1  0  0  0
  9 10  1  0  0  0
 10 11  1  0  0  0
M  END
> <minimizedAffinity>
-6.07874

$$$$
