CHEMBL399692


 24 27  0  0  0  0  0  0  0  0999 V2000
  -29.5322   -5.4837   -7.2974 C   0  0  0  0  0  0  0  0  0  0  0  0
  -29.2274   -6.4699   -6.4324 C   0  0  0  0  0  0  0  0  0  0  0  0
  -28.2129   -6.4868   -5.3586 C   0  0  0  0  0  0  0  0  0  0  0  0
  -27.7376   -5.5663   -4.7226 O   0  0  0  0  0  0  0  0  0  0  0  0
  -27.9789   -7.8360   -5.1775 N   0  0  0  0  0  0  0  0  0  0  0  0
  -28.8960   -8.6605   -5.7819 N   0  0  0  0  0  0  0  0  0  0  0  0
  -29.6930   -7.8834   -6.4817 C   0  0  0  0  0  0  0  0  0  0  0  0
  -27.3631   -8.1962   -4.4555 H   0  0  0  0  0  0  0  0  0  0  0  0
  -26.9131   -1.7781   -9.2743 C   0  0  0  0  0  0  0  0  0  0  0  0
  -27.7787   -2.5075   -8.3702 N   0  0  0  0  0  0  0  0  0  0  0  0
  -28.1836   -3.7998   -8.5630 C   0  0  0  0  0  0  0  0  0  0  0  0
  -28.8867   -4.2086   -7.4507 C   0  0  0  0  0  0  0  0  0  0  0  0
  -28.9723   -3.0788   -6.5749 C   0  0  0  0  0  0  0  0  0  0  0  0
  -29.5620   -2.8441   -5.3122 C   0  0  0  0  0  0  0  0  0  0  0  0
  -29.5441   -1.5536   -4.7649 C   0  0  0  0  0  0  0  0  0  0  0  0
  -28.9479   -0.5033   -5.4549 C   0  0  0  0  0  0  0  0  0  0  0  0
  -29.0032    1.0873   -4.7959 Cl  0  0  0  0  0  0  0  0  0  0  0  0
  -28.3079   -0.7125   -6.6788 C   0  0  0  0  0  0  0  0  0  0  0  0
  -28.3277   -2.0106   -7.2104 C   0  0  0  0  0  0  0  0  0  0  0  0
  -30.8748   -8.3839   -7.1026 C   0  0  0  0  0  0  0  0  0  0  0  0
  -32.2133   -8.1167   -6.8871 C   0  0  0  0  0  0  0  0  0  0  0  0
  -33.1023   -8.8832   -7.6238 N   0  0  0  0  0  0  0  0  0  0  0  0
  -32.4711   -9.7437   -8.4041 N   0  0  0  0  0  0  0  0  0  0  0  0
  -30.8068   -9.6488   -8.2627 S   0  0  0  0  0  0  0  0  0  0  0  0
  9 10  1  0  0  0
 10 11  1  0  0  0
 10 19  1  0  0  0
 11 12  2  0  0  0
 12  1  1  0  0  0
 12 13  1  0  0  0
  1  2  2  0  0  0
  2  3  1  0  0  0
  2  7  1  0  0  0
  3  4  2  0  0  0
  3  5  1  0  0  0
  5  6  1  0  0  0
  5  8  1  0  0  0
  6  7  2  0  0  0
  7 20  1  0  0  0
 20 21  2  0  0  0
 20 24  1  0  0  0
 21 22  1  0  0  0
 22 23  2  0  0  0
 23 24  1  0  0  0
 13 14  1  0  0  0
 13 19  2  0  0  0
 14 15  2  0  0  0
 15 16  1  0  0  0
 16 17  1  0  0  0
 16 18  2  0  0  0
 18 19  1  0  0  0
M  END
> <minimizedAffinity>
-8.75774

$$$$
