CHEMBL3901963


 44 48  0  0  0  0  0  0  0  0999 V2000
  -15.1093    0.3863  -13.2212 N   0  0  0  0  0  0  0  0  0  0  0  0
  -14.9568   -0.9902  -13.0985 C   0  0  0  0  0  0  0  0  0  0  0  0
  -14.4823   -1.7232  -13.9658 O   0  0  0  0  0  0  0  0  0  0  0  0
  -15.4550   -1.5113  -11.9149 N   0  0  0  0  0  0  0  0  0  0  0  0
  -15.6205    0.8806  -12.5042 H   0  0  0  0  0  0  0  0  0  0  0  0
  -16.2952   -1.0656  -11.5808 H   0  0  0  0  0  0  0  0  0  0  0  0
  -15.3545   -2.9159  -11.7061 C   0  0  0  0  0  0  0  0  0  0  0  0
  -14.1509   -3.4941  -11.2652 C   0  0  0  0  0  0  0  0  0  0  0  0
  -14.0042   -4.8824  -11.2014 C   0  0  0  0  0  0  0  0  0  0  0  0
  -15.0820   -5.7130  -11.5080 C   0  0  0  0  0  0  0  0  0  0  0  0
  -16.2752   -5.1328  -11.9502 C   0  0  0  0  0  0  0  0  0  0  0  0
  -17.2952   -5.9069  -12.3418 F   0  0  0  0  0  0  0  0  0  0  0  0
  -16.4247   -3.7412  -12.0320 C   0  0  0  0  0  0  0  0  0  0  0  0
  -15.0193   -7.0921  -11.4540 O   0  0  0  0  0  0  0  0  0  0  0  0
  -14.2247   -7.7699  -12.3588 C   0  0  0  0  0  0  0  0  0  0  0  0
  -13.2469   -8.6886  -11.9871 C   0  0  0  0  0  0  0  0  0  0  0  0
  -12.4790   -9.2461  -12.9827 C   0  0  0  0  0  0  0  0  0  0  0  0
  -12.6689   -9.0007  -14.2899 N   0  0  0  0  0  0  0  0  0  0  0  0
  -13.6658   -8.1781  -14.6595 C   0  0  0  0  0  0  0  0  0  0  0  0
  -14.4667   -7.5375  -13.7184 C   0  0  0  0  0  0  0  0  0  0  0  0
  -13.9155   -7.9759  -16.0264 N   0  0  0  0  0  0  0  0  0  0  0  0
  -13.4432   -6.8916  -16.7422 C   0  0  0  0  0  0  0  0  0  0  0  0
  -12.8176   -5.9306  -16.3250 O   0  0  0  0  0  0  0  0  0  0  0  0
  -14.4403   -8.6848  -16.5169 H   0  0  0  0  0  0  0  0  0  0  0  0
  -13.7517   -6.9624  -18.2084 C   0  0  0  0  0  0  0  0  0  0  0  0
  -13.7352   -8.3128  -18.8912 C   0  0  0  0  0  0  0  0  0  0  0  0
  -12.6566   -7.3163  -19.1935 C   0  0  0  0  0  0  0  0  0  0  0  0
  -13.9593    2.4330  -16.8172 C   0  0  0  0  0  0  0  0  0  0  0  0
  -13.1706    1.4631  -16.1909 C   0  0  0  0  0  0  0  0  0  0  0  0
  -13.5184    0.8359  -15.0085 C   0  0  0  0  0  0  0  0  0  0  0  0
  -14.7148    1.1070  -14.3763 C   0  0  0  0  0  0  0  0  0  0  0  0
  -15.5263    2.0934  -14.9427 C   0  0  0  0  0  0  0  0  0  0  0  0
  -15.1851    2.7487  -16.1787 C   0  0  0  0  0  0  0  0  0  0  0  0
  -11.1777   -0.2815  -19.5395 C   0  0  0  0  0  0  0  0  0  0  0  0
  -11.6961    1.0940  -19.5733 N   0  0  0  0  0  0  0  0  0  0  0  0
  -13.1585    1.0680  -19.7180 C   0  0  0  0  0  0  0  0  0  0  0  0
  -13.8695    2.3874  -19.4054 C   0  0  0  0  0  0  0  0  0  0  0  0
  -13.4092    3.0648  -18.1026 C   0  0  0  0  0  0  0  0  0  0  0  0
  -11.8739    3.1711  -18.1396 C   0  0  0  0  0  0  0  0  0  0  0  0
  -11.1582    1.8517  -18.4354 C   0  0  0  0  0  0  0  0  0  0  0  0
  -16.2329    3.7193  -16.7012 C   0  0  0  0  0  0  0  0  0  0  0  0
  -16.0597    4.1865  -17.9635 F   0  0  0  0  0  0  0  0  0  0  0  0
  -17.4781    3.1567  -16.7022 F   0  0  0  0  0  0  0  0  0  0  0  0
  -16.3401    4.8264  -15.9116 F   0  0  0  0  0  0  0  0  0  0  0  0
 34 35  1  0  0  0
 35 36  1  0  0  0
 35 40  1  0  0  0
 36 37  1  0  0  0
 37 38  1  0  0  0
 38 28  1  0  0  0
 38 39  1  0  0  0
 28 29  1  0  0  0
 28 33  2  0  0  0
 29 30  2  0  0  0
 30 31  1  0  0  0
 31  1  1  0  0  0
 31 32  2  0  0  0
  1  2  1  0  0  0
  1  5  1  0  0  0
  2  3  2  0  0  0
  2  4  1  0  0  0
  4  7  1  0  0  0
  4  6  1  0  0  0
  7  8  1  0  0  0
  7 13  2  0  0  0
  8  9  2  0  0  0
  9 10  1  0  0  0
 10 14  1  0  0  0
 10 11  2  0  0  0
 14 15  1  0  0  0
 15 16  1  0  0  0
 15 20  2  0  0  0
 16 17  2  0  0  0
 17 18  1  0  0  0
 18 19  2  0  0  0
 19 21  1  0  0  0
 19 20  1  0  0  0
 21 22  1  0  0  0
 21 24  1  0  0  0
 22 23  2  0  0  0
 22 25  1  0  0  0
 25 26  1  0  0  0
 25 27  1  0  0  0
 26 27  1  0  0  0
 11 12  1  0  0  0
 11 13  1  0  0  0
 32 33  1  0  0  0
 33 41  1  0  0  0
 41 42  1  0  0  0
 41 43  1  0  0  0
 41 44  1  0  0  0
 39 40  1  0  0  0
M  END
> <minimizedAffinity>
-8.16158

$$$$
