CHEMBL4162743


 40 44  0  0  0  0  0  0  0  0999 V2000
  -18.7556    2.2775  -14.8833 C   0  0  0  0  0  0  0  0  0  0  0  0
  -18.0332    2.3224  -16.0960 C   0  0  0  0  0  0  0  0  0  0  0  0
  -16.7388    1.7695  -16.1960 C   0  0  0  0  0  0  0  0  0  0  0  0
  -16.1698    1.1937  -15.0740 C   0  0  0  0  0  0  0  0  0  0  0  0
  -16.9207    1.1375  -13.8907 C   0  0  0  0  0  0  0  0  0  0  0  0
  -18.1984    1.6458  -13.7688 C   0  0  0  0  0  0  0  0  0  0  0  0
  -16.1828    0.5854  -12.8558 N   0  0  0  0  0  0  0  0  0  0  0  0
  -14.8851    0.3245  -13.2517 C   0  0  0  0  0  0  0  0  0  0  0  0
  -13.9485    0.1180  -12.5003 O   0  0  0  0  0  0  0  0  0  0  0  0
  -14.8692    0.5634  -14.7461 C   0  0  0  0  0  0  0  0  0  0  0  0
  -13.7876    0.2395  -15.4973 C   0  0  0  0  0  0  0  0  0  0  0  0
  -16.4665    0.5556  -11.8874 H   0  0  0  0  0  0  0  0  0  0  0  0
  -13.6295    0.7823  -16.8615 C   0  0  0  0  0  0  0  0  0  0  0  0
  -14.0362   -0.0043  -17.9545 C   0  0  0  0  0  0  0  0  0  0  0  0
  -13.9447    0.4991  -19.2502 C   0  0  0  0  0  0  0  0  0  0  0  0
  -13.4510    1.7837  -19.4659 C   0  0  0  0  0  0  0  0  0  0  0  0
  -13.0547    2.5689  -18.3845 C   0  0  0  0  0  0  0  0  0  0  0  0
  -13.1473    2.0742  -17.0827 C   0  0  0  0  0  0  0  0  0  0  0  0
  -20.0813    2.9274  -14.6907 C   0  0  0  0  0  0  0  0  0  0  0  0
  -20.3491    4.0341  -15.1301 O   0  0  0  0  0  0  0  0  0  0  0  0
  -21.3192    0.9555  -14.7370 C   0  0  0  0  0  0  0  0  0  0  0  0
  -20.9322    2.1223  -14.0059 O   0  0  0  0  0  0  0  0  0  0  0  0
  -12.7057   -0.5687  -15.1375 N   0  0  0  0  0  0  0  0  0  0  0  0
  -11.9782   -0.0630  -14.6415 H   0  0  0  0  0  0  0  0  0  0  0  0
  -12.8294   -1.9245  -14.7657 C   0  0  0  0  0  0  0  0  0  0  0  0
  -13.6817   -2.7900  -15.4526 C   0  0  0  0  0  0  0  0  0  0  0  0
  -13.8838   -4.1082  -15.0240 C   0  0  0  0  0  0  0  0  0  0  0  0
  -13.2575   -4.6099  -13.8781 C   0  0  0  0  0  0  0  0  0  0  0  0
  -12.3345   -3.7664  -13.2419 C   0  0  0  0  0  0  0  0  0  0  0  0
  -12.1185   -2.4453  -13.6827 C   0  0  0  0  0  0  0  0  0  0  0  0
  -13.5731   -5.9044  -13.3594 N   0  0  0  0  0  0  0  0  0  0  0  0
  -13.6197   -7.0958  -14.1045 C   0  0  0  0  0  0  0  0  0  0  0  0
  -13.3687   -7.2931  -15.2823 O   0  0  0  0  0  0  0  0  0  0  0  0
  -14.0974   -8.2003  -13.1946 C   0  0  0  0  0  0  0  0  0  0  0  0
  -13.8902   -7.6333  -11.8057 C   0  0  0  0  0  0  0  0  0  0  0  0
  -14.0311   -6.1235  -11.9920 C   0  0  0  0  0  0  0  0  0  0  0  0
  -15.4911   -5.6399  -11.7490 C   0  0  0  0  0  0  0  0  0  0  0  0
  -15.6334   -4.5648  -10.7399 N   0  0  0  0  0  0  0  0  0  0  0  0
  -14.4267   -4.4042   -9.9264 C   0  0  0  0  0  0  0  0  0  0  0  0
  -15.9460   -3.2924  -11.4011 C   0  0  0  0  0  0  0  0  0  0  0  0
 21 22  1  0  0  0
 22 19  1  0  0  0
 19 20  2  0  0  0
 19  1  1  0  0  0
  1  2  1  0  0  0
  1  6  2  0  0  0
  2  3  2  0  0  0
  3  4  1  0  0  0
  4  5  2  0  0  0
  4 10  1  0  0  0
  5  6  1  0  0  0
  5  7  1  0  0  0
  7  8  1  0  0  0
  7 12  1  0  0  0
  8  9  2  0  0  0
  8 10  1  0  0  0
 10 11  2  0  0  0
 11 23  1  0  0  0
 11 13  1  0  0  0
 23 25  1  0  0  0
 23 24  1  0  0  0
 25 26  1  0  0  0
 25 30  2  0  0  0
 26 27  2  0  0  0
 27 28  1  0  0  0
 28 31  1  0  0  0
 28 29  2  0  0  0
 31 32  1  0  0  0
 31 36  1  0  0  0
 32 33  2  0  0  0
 32 34  1  0  0  0
 34 35  1  0  0  0
 35 36  1  0  0  0
 36 37  1  0  0  0
 37 38  1  0  0  0
 38 39  1  0  0  0
 38 40  1  0  0  0
 29 30  1  0  0  0
 13 14  1  0  0  0
 13 18  2  0  0  0
 14 15  2  0  0  0
 15 16  1  0  0  0
 16 17  2  0  0  0
 17 18  1  0  0  0
M  END
> <minimizedAffinity>
-8.02903

$$$$
