CHEMBL498348


 36 40  0  0  0  0  0  0  0  0999 V2000
  -14.1539    1.2493  -14.3501 C   0  0  0  0  0  0  0  0  0  0  0  0
  -14.7368    1.5324  -15.5409 C   0  0  0  0  0  0  0  0  0  0  0  0
  -15.5809    0.6591  -16.2255 N   0  0  0  0  0  0  0  0  0  0  0  0
  -14.4527    2.8460  -16.1811 C   0  0  0  0  0  0  0  0  0  0  0  0
  -14.9255    3.1901  -17.4431 C   0  0  0  0  0  0  0  0  0  0  0  0
  -14.5456    4.3915  -18.0563 C   0  0  0  0  0  0  0  0  0  0  0  0
  -15.0494    4.6080  -19.2817 F   0  0  0  0  0  0  0  0  0  0  0  0
  -13.7043    5.3384  -17.4377 C   0  0  0  0  0  0  0  0  0  0  0  0
  -13.2936    5.0016  -16.1328 C   0  0  0  0  0  0  0  0  0  0  0  0
  -13.6379    3.7770  -15.5263 C   0  0  0  0  0  0  0  0  0  0  0  0
  -13.1360    3.4762  -14.2595 N   0  0  0  0  0  0  0  0  0  0  0  0
  -13.3526    2.2861  -13.6221 C   0  0  0  0  0  0  0  0  0  0  0  0
  -12.9138    2.0968  -12.4877 O   0  0  0  0  0  0  0  0  0  0  0  0
  -15.4827   -0.3016  -15.8607 H   0  0  0  0  0  0  0  0  0  0  0  0
  -15.4581    0.6512  -17.2289 H   0  0  0  0  0  0  0  0  0  0  0  0
  -12.5722    4.1492  -13.7588 H   0  0  0  0  0  0  0  0  0  0  0  0
  -14.6394   -4.3418  -12.3472 C   0  0  0  0  0  0  0  0  0  0  0  0
  -15.6434   -3.7451  -11.5627 C   0  0  0  0  0  0  0  0  0  0  0  0
  -15.9465   -2.3788  -11.6079 C   0  0  0  0  0  0  0  0  0  0  0  0
  -15.2002   -1.6226  -12.5022 C   0  0  0  0  0  0  0  0  0  0  0  0
  -15.2044   -0.2871  -12.7962 N   0  0  0  0  0  0  0  0  0  0  0  0
  -14.2972   -0.0625  -13.8037 C   0  0  0  0  0  0  0  0  0  0  0  0
  -13.6886   -1.1897  -14.1356 N   0  0  0  0  0  0  0  0  0  0  0  0
  -14.2222   -2.1551  -13.3270 C   0  0  0  0  0  0  0  0  0  0  0  0
  -13.9342   -3.5310  -13.2505 C   0  0  0  0  0  0  0  0  0  0  0  0
  -15.7590    0.4285  -12.3422 H   0  0  0  0  0  0  0  0  0  0  0  0
  -12.9466   -9.6464  -12.5979 C   0  0  0  0  0  0  0  0  0  0  0  0
  -13.8113   -8.5296  -12.2358 N   0  0  0  0  0  0  0  0  0  0  0  0
  -13.0737   -7.5513  -11.3989 C   0  0  0  0  0  0  0  0  0  0  0  0
  -13.9426   -6.3298  -11.0148 C   0  0  0  0  0  0  0  0  0  0  0  0
  -14.4329   -5.7047  -12.2480 N   0  0  0  0  0  0  0  0  0  0  0  0
  -15.1964   -6.6188  -13.1140 C   0  0  0  0  0  0  0  0  0  0  0  0
  -14.3199   -7.8459  -13.4502 C   0  0  0  0  0  0  0  0  0  0  0  0
  -13.2576    6.4984  -18.0591 N   0  0  0  0  0  0  0  0  0  0  0  0
  -11.8465    6.8681  -18.1128 C   0  0  0  0  0  0  0  0  0  0  0  0
  -14.1650    7.5576  -18.5010 C   0  0  0  0  0  0  0  0  0  0  0  0
 27 28  1  0  0  0
 28 29  1  0  0  0
 28 33  1  0  0  0
 29 30  1  0  0  0
 30 31  1  0  0  0
 31 17  1  0  0  0
 31 32  1  0  0  0
 17 18  1  0  0  0
 17 25  2  0  0  0
 18 19  2  0  0  0
 19 20  1  0  0  0
 20 21  1  0  0  0
 20 24  2  0  0  0
 21 22  1  0  0  0
 21 26  1  0  0  0
 22  1  1  0  0  0
 22 23  2  0  0  0
  1  2  2  0  0  0
  1 12  1  0  0  0
  2  3  1  0  0  0
  2  4  1  0  0  0
  3 14  1  0  0  0
  3 15  1  0  0  0
  4  5  1  0  0  0
  4 10  2  0  0  0
  5  6  2  0  0  0
  6  7  1  0  0  0
  6  8  1  0  0  0
  8 34  1  0  0  0
  8  9  2  0  0  0
 34 35  1  0  0  0
 34 36  1  0  0  0
  9 10  1  0  0  0
 10 11  1  0  0  0
 11 12  1  0  0  0
 11 16  1  0  0  0
 12 13  2  0  0  0
 23 24  1  0  0  0
 24 25  1  0  0  0
 32 33  1  0  0  0
M  END
> <minimizedAffinity>
-7.87270

$$$$
