CHEMBL383333


 31 34  0  0  0  0  0  0  0  0999 V2000
  -18.0927    3.2334  -15.4200 C   0  0  0  0  0  0  0  0  0  0  0  0
  -17.7377    3.1737  -16.6873 N   0  0  0  0  0  0  0  0  0  0  0  0
  -16.4105    2.7784  -16.7157 N   0  0  0  0  0  0  0  0  0  0  0  0
  -16.0511    2.5688  -15.4655 C   0  0  0  0  0  0  0  0  0  0  0  0
  -17.0682    2.8665  -14.5899 O   0  0  0  0  0  0  0  0  0  0  0  0
  -14.8238    2.0303  -14.8754 C   0  0  0  0  0  0  0  0  0  0  0  0
  -13.6130    2.6832  -15.1583 C   0  0  0  0  0  0  0  0  0  0  0  0
  -12.3956    2.3497  -14.6652 N   0  0  0  0  0  0  0  0  0  0  0  0
  -12.3612    1.2922  -13.8449 C   0  0  0  0  0  0  0  0  0  0  0  0
  -13.4834    0.5539  -13.5081 C   0  0  0  0  0  0  0  0  0  0  0  0
  -14.7564    0.9177  -14.0006 C   0  0  0  0  0  0  0  0  0  0  0  0
  -15.9752    0.0817  -13.6061 C   0  0  0  0  0  0  0  0  0  0  0  0
  -15.7993   -0.7445  -12.3114 C   0  0  0  0  0  0  0  0  0  0  0  0
  -15.8801   -2.2485  -12.4001 C   0  0  0  0  0  0  0  0  0  0  0  0
  -16.0027   -2.9829  -11.2085 C   0  0  0  0  0  0  0  0  0  0  0  0
  -16.1416   -4.3602  -11.2691 C   0  0  0  0  0  0  0  0  0  0  0  0
  -16.1782   -5.0544  -12.4235 N   0  0  0  0  0  0  0  0  0  0  0  0
  -16.0746   -4.3339  -13.5616 C   0  0  0  0  0  0  0  0  0  0  0  0
  -15.9308   -2.9527  -13.6031 C   0  0  0  0  0  0  0  0  0  0  0  0
  -19.3020    3.4947  -14.8816 N   0  0  0  0  0  0  0  0  0  0  0  0
  -19.3601    4.3514  -14.3428 H   0  0  0  0  0  0  0  0  0  0  0  0
  -22.4178    0.7404  -13.8532 C   0  0  0  0  0  0  0  0  0  0  0  0
  -21.1843    0.2962  -14.3527 C   0  0  0  0  0  0  0  0  0  0  0  0
  -20.1577    1.1877  -14.6914 C   0  0  0  0  0  0  0  0  0  0  0  0
  -20.3054    2.5641  -14.5318 C   0  0  0  0  0  0  0  0  0  0  0  0
  -21.5411    3.0238  -14.0551 C   0  0  0  0  0  0  0  0  0  0  0  0
  -22.5772    2.1300  -13.7176 C   0  0  0  0  0  0  0  0  0  0  0  0
  -24.4908    0.3178  -12.3913 C   0  0  0  0  0  0  0  0  0  0  0  0
  -23.5387   -0.2443  -13.4721 C   0  0  0  0  0  0  0  0  0  0  0  0
  -22.9447   -1.5556  -12.9137 C   0  0  0  0  0  0  0  0  0  0  0  0
  -24.4001   -0.5798  -14.7095 C   0  0  0  0  0  0  0  0  0  0  0  0
 28 29  1  0  0  0
 29 30  1  0  0  0
 29 31  1  0  0  0
 29 22  1  0  0  0
 22 23  1  0  0  0
 22 27  2  0  0  0
 23 24  2  0  0  0
 24 25  1  0  0  0
 25 20  1  0  0  0
 25 26  2  0  0  0
 20  1  1  0  0  0
 20 21  1  0  0  0
  1  2  2  0  0  0
  1  5  1  0  0  0
  2  3  1  0  0  0
  3  4  2  0  0  0
  4  6  1  0  0  0
  4  5  1  0  0  0
  6  7  1  0  0  0
  6 11  2  0  0  0
  7  8  2  0  0  0
  8  9  1  0  0  0
  9 10  2  0  0  0
 10 11  1  0  0  0
 11 12  1  0  0  0
 12 13  1  0  0  0
 13 14  1  0  0  0
 14 15  1  0  0  0
 14 19  2  0  0  0
 15 16  2  0  0  0
 16 17  1  0  0  0
 17 18  2  0  0  0
 18 19  1  0  0  0
 26 27  1  0  0  0
M  END
> <minimizedAffinity>
-8.67154

$$$$
