CHEMBL4439680


 40 44  0  0  0  0  0  0  0  0999 V2000
  -28.3253   -3.6751   -7.9144 C   0  0  0  0  0  0  0  0  0  0  0  0
  -28.5516   -5.0488   -7.8282 C   0  0  0  0  0  0  0  0  0  0  0  0
  -28.9174   -5.5757   -6.5746 C   0  0  0  0  0  0  0  0  0  0  0  0
  -28.9866   -6.9221   -6.2172 C   0  0  0  0  0  0  0  0  0  0  0  0
  -28.0189   -7.3971   -5.4386 N   0  0  0  0  0  0  0  0  0  0  0  0
  -27.5150   -6.4830   -4.6072 C   0  0  0  0  0  0  0  0  0  0  0  0
  -28.0065   -5.2394   -4.4458 N   0  0  0  0  0  0  0  0  0  0  0  0
  -28.6845   -4.7539   -5.4956 C   0  0  0  0  0  0  0  0  0  0  0  0
  -28.9712   -3.4065   -5.6610 C   0  0  0  0  0  0  0  0  0  0  0  0
  -28.8828   -2.8576   -6.9365 C   0  0  0  0  0  0  0  0  0  0  0  0
  -27.5158   -2.3376   -9.7843 C   0  0  0  0  0  0  0  0  0  0  0  0
  -28.6234   -2.0206  -10.2003 O   0  0  0  0  0  0  0  0  0  0  0  0
  -27.2522   -3.2331   -8.7363 N   0  0  0  0  0  0  0  0  0  0  0  0
  -26.3628   -3.0912   -8.2681 H   0  0  0  0  0  0  0  0  0  0  0  0
  -26.1018   -1.5635  -11.6836 C   0  0  0  0  0  0  0  0  0  0  0  0
  -26.2782   -1.7182  -10.3512 C   0  0  0  0  0  0  0  0  0  0  0  0
  -22.5484   -0.1474  -13.7128 C   0  0  0  0  0  0  0  0  0  0  0  0
  -22.5766   -0.2193  -12.3219 C   0  0  0  0  0  0  0  0  0  0  0  0
  -23.7443   -0.6495  -11.6541 C   0  0  0  0  0  0  0  0  0  0  0  0
  -24.9031   -1.0228  -12.3567 C   0  0  0  0  0  0  0  0  0  0  0  0
  -24.8503   -0.9477  -13.7572 C   0  0  0  0  0  0  0  0  0  0  0  0
  -23.6997   -0.5083  -14.4163 C   0  0  0  0  0  0  0  0  0  0  0  0
  -20.8586    1.4788  -14.1505 C   0  0  0  0  0  0  0  0  0  0  0  0
  -21.4896    0.2468  -14.4837 O   0  0  0  0  0  0  0  0  0  0  0  0
  -30.3195   -7.4492   -6.0235 N   0  0  0  0  0  0  0  0  0  0  0  0
  -30.5028   -7.4242   -5.0190 H   0  0  0  0  0  0  0  0  0  0  0  0
  -30.8560   -8.6605   -6.5477 C   0  0  0  0  0  0  0  0  0  0  0  0
  -32.0177   -8.6141   -7.3474 C   0  0  0  0  0  0  0  0  0  0  0  0
  -32.4154   -9.7208   -8.1077 C   0  0  0  0  0  0  0  0  0  0  0  0
  -31.6526  -10.8813   -8.0756 C   0  0  0  0  0  0  0  0  0  0  0  0
  -31.9912  -11.8998   -8.8805 F   0  0  0  0  0  0  0  0  0  0  0  0
  -30.5399  -10.9675   -7.2445 C   0  0  0  0  0  0  0  0  0  0  0  0
  -29.5884  -12.4021   -7.2006 Cl  0  0  0  0  0  0  0  0  0  0  0  0
  -30.1501   -9.8667   -6.4774 C   0  0  0  0  0  0  0  0  0  0  0  0
  -29.1828   -1.5369   -7.0623 O   0  0  0  0  0  0  0  0  0  0  0  0
  -28.9577   -0.5998   -5.9882 C   0  0  0  0  0  0  0  0  0  0  0  0
  -30.1164    0.2312   -5.4622 C   0  0  0  0  0  0  0  0  0  0  0  0
  -29.9744    1.5517   -6.1905 C   0  0  0  0  0  0  0  0  0  0  0  0
  -28.6011    1.6835   -6.5904 O   0  0  0  0  0  0  0  0  0  0  0  0
  -27.9076    0.4592   -6.2699 C   0  0  0  0  0  0  0  0  0  0  0  0
 23 24  1  0  0  0
 24 17  1  0  0  0
 17 18  1  0  0  0
 17 22  2  0  0  0
 18 19  2  0  0  0
 19 20  1  0  0  0
 20 15  1  0  0  0
 20 21  2  0  0  0
 15 16  2  0  0  0
 16 11  1  0  0  0
 11 12  2  0  0  0
 11 13  1  0  0  0
 13  1  1  0  0  0
 13 14  1  0  0  0
  1  2  1  0  0  0
  1 10  2  0  0  0
  2  3  2  0  0  0
  3  4  1  0  0  0
  3  8  1  0  0  0
  4 25  1  0  0  0
  4  5  2  0  0  0
 25 27  1  0  0  0
 25 26  1  0  0  0
 27 28  1  0  0  0
 27 34  2  0  0  0
 28 29  2  0  0  0
 29 30  1  0  0  0
 30 31  1  0  0  0
 30 32  2  0  0  0
 32 33  1  0  0  0
 32 34  1  0  0  0
  5  6  1  0  0  0
  6  7  2  0  0  0
  7  8  1  0  0  0
  8  9  2  0  0  0
  9 10  1  0  0  0
 10 35  1  0  0  0
 35 36  1  0  0  0
 36 37  1  0  0  0
 36 40  1  0  0  0
 37 38  1  0  0  0
 38 39  1  0  0  0
 39 40  1  0  0  0
 21 22  1  0  0  0
M  END
> <minimizedAffinity>
-9.75395

$$$$
