CHEMBL3321903


 29 33  0  0  0  0  0  0  0  0999 V2000
  -23.4800    0.2807  -13.2810 C   0  0  0  0  0  0  0  0  0  0  0  0
  -24.5214   -0.1503  -13.9697 N   0  0  0  0  0  0  0  0  0  0  0  0
  -25.2777   -0.8779  -13.0914 C   0  0  0  0  0  0  0  0  0  0  0  0
  -26.4615   -1.5829  -13.3180 C   0  0  0  0  0  0  0  0  0  0  0  0
  -27.0430   -2.2515  -12.2373 C   0  0  0  0  0  0  0  0  0  0  0  0
  -26.5059   -2.2011  -10.9366 C   0  0  0  0  0  0  0  0  0  0  0  0
  -25.2885   -1.5309  -10.7225 C   0  0  0  0  0  0  0  0  0  0  0  0
  -24.7173   -0.8757  -11.8220 C   0  0  0  0  0  0  0  0  0  0  0  0
  -23.5779   -0.1273  -11.9704 N   0  0  0  0  0  0  0  0  0  0  0  0
  -22.9275    0.1065  -11.2370 H   0  0  0  0  0  0  0  0  0  0  0  0
  -18.7263    0.4181  -15.2950 Cl  0  0  0  0  0  0  0  0  0  0  0  0
  -20.1570    1.2066  -14.7549 C   0  0  0  0  0  0  0  0  0  0  0  0
  -20.2472    2.5958  -14.8241 C   0  0  0  0  0  0  0  0  0  0  0  0
  -21.4039    3.2374  -14.3840 C   0  0  0  0  0  0  0  0  0  0  0  0
  -22.4711    2.4865  -13.8833 C   0  0  0  0  0  0  0  0  0  0  0  0
  -22.3889    1.0892  -13.8168 C   0  0  0  0  0  0  0  0  0  0  0  0
  -21.2163    0.4549  -14.2502 C   0  0  0  0  0  0  0  0  0  0  0  0
  -27.1153   -2.9246   -9.8799 N   0  0  0  0  0  0  0  0  0  0  0  0
  -26.6656   -3.8123   -9.6818 H   0  0  0  0  0  0  0  0  0  0  0  0
  -27.5668   -2.3380   -8.6694 C   0  0  0  0  0  0  0  0  0  0  0  0
  -27.2509   -1.0478   -8.4456 N   0  0  0  0  0  0  0  0  0  0  0  0
  -27.7687   -0.4756   -7.3623 C   0  0  0  0  0  0  0  0  0  0  0  0
  -28.5765   -1.0632   -6.4776 N   0  0  0  0  0  0  0  0  0  0  0  0
  -28.8623   -2.3510   -6.6900 C   0  0  0  0  0  0  0  0  0  0  0  0
  -29.7322   -2.9798   -5.8105 C   0  0  0  0  0  0  0  0  0  0  0  0
  -30.0844   -4.3233   -5.9534 C   0  0  0  0  0  0  0  0  0  0  0  0
  -29.5507   -5.0679   -6.9971 C   0  0  0  0  0  0  0  0  0  0  0  0
  -28.6927   -4.4544   -7.9091 C   0  0  0  0  0  0  0  0  0  0  0  0
  -28.3492   -3.0841   -7.7709 C   0  0  0  0  0  0  0  0  0  0  0  0
 11 12  1  0  0  0
 12 13  1  0  0  0
 12 17  2  0  0  0
 13 14  2  0  0  0
 14 15  1  0  0  0
 15 16  2  0  0  0
 16  1  1  0  0  0
 16 17  1  0  0  0
  1  2  2  0  0  0
  1  9  1  0  0  0
  2  3  1  0  0  0
  3  4  1  0  0  0
  3  8  2  0  0  0
  4  5  2  0  0  0
  5  6  1  0  0  0
  6 18  1  0  0  0
  6  7  2  0  0  0
 18 20  1  0  0  0
 18 19  1  0  0  0
 20 21  1  0  0  0
 20 29  2  0  0  0
 21 22  2  0  0  0
 22 23  1  0  0  0
 23 24  2  0  0  0
 24 25  1  0  0  0
 24 29  1  0  0  0
 25 26  2  0  0  0
 26 27  1  0  0  0
 27 28  2  0  0  0
 28 29  1  0  0  0
  7  8  1  0  0  0
  8  9  1  0  0  0
  9 10  1  0  0  0
M  END
> <minimizedAffinity>
-10.64929

$$$$
