CHEMBL3657555


 35 39  0  0  0  0  0  0  0  0999 V2000
  -30.0840   -4.0270   -5.3945 C   0  0  0  0  0  0  0  0  0  0  0  0
  -30.6507   -3.6967   -4.1800 C   0  0  0  0  0  0  0  0  0  0  0  0
  -31.3043   -4.7107   -3.5357 C   0  0  0  0  0  0  0  0  0  0  0  0
  -31.3829   -5.9590   -4.0196 N   0  0  0  0  0  0  0  0  0  0  0  0
  -30.8043   -6.2081   -5.2054 C   0  0  0  0  0  0  0  0  0  0  0  0
  -30.1774   -5.2686   -5.9364 N   0  0  0  0  0  0  0  0  0  0  0  0
  -28.2877    0.3826   -6.3098 C   0  0  0  0  0  0  0  0  0  0  0  0
  -28.5340   -1.0714   -6.4900 C   0  0  0  0  0  0  0  0  0  0  0  0
  -29.3390   -1.7212   -5.6456 N   0  0  0  0  0  0  0  0  0  0  0  0
  -29.3427   -3.0110   -6.0802 N   0  0  0  0  0  0  0  0  0  0  0  0
  -28.5514   -3.1627   -7.1989 C   0  0  0  0  0  0  0  0  0  0  0  0
  -28.0262   -1.9229   -7.5053 C   0  0  0  0  0  0  0  0  0  0  0  0
  -27.1874   -1.5288   -8.6765 C   0  0  0  0  0  0  0  0  0  0  0  0
  -27.8918   -1.6316  -10.0403 C   0  0  0  0  0  0  0  0  0  0  0  0
  -26.9509   -2.0493  -11.0890 N   0  0  0  0  0  0  0  0  0  0  0  0
  -27.2781   -1.5461  -12.4272 C   0  0  0  0  0  0  0  0  0  0  0  0
  -25.9563   -1.6092  -13.1695 C   0  0  0  0  0  0  0  0  0  0  0  0
  -24.9694   -1.1527  -12.1090 C   0  0  0  0  0  0  0  0  0  0  0  0
  -24.9303    0.2758  -12.0765 O   0  0  0  0  0  0  0  0  0  0  0  0
  -25.5438   -1.7147  -10.8045 C   0  0  0  0  0  0  0  0  0  0  0  0
  -25.7718    0.5875  -11.6967 H   0  0  0  0  0  0  0  0  0  0  0  0
  -30.8260   -7.4978   -5.7427 N   0  0  0  0  0  0  0  0  0  0  0  0
  -31.7890   -7.7795   -5.8641 H   0  0  0  0  0  0  0  0  0  0  0  0
  -29.9211   -8.1444   -6.6128 C   0  0  0  0  0  0  0  0  0  0  0  0
  -30.0869   -8.2129   -7.9986 C   0  0  0  0  0  0  0  0  0  0  0  0
  -29.1849   -8.8925   -8.8321 C   0  0  0  0  0  0  0  0  0  0  0  0
  -28.0767   -9.5133   -8.2397 C   0  0  0  0  0  0  0  0  0  0  0  0
  -27.8380   -9.4225   -6.8692 C   0  0  0  0  0  0  0  0  0  0  0  0
  -28.7557   -8.7078   -6.0632 C   0  0  0  0  0  0  0  0  0  0  0  0
  -26.6426  -10.1466   -6.6109 C   0  0  0  0  0  0  0  0  0  0  0  0
  -25.9351  -10.3200   -5.0691 Cl  0  0  0  0  0  0  0  0  0  0  0  0
  -26.1981  -10.7034   -7.7935 C   0  0  0  0  0  0  0  0  0  0  0  0
  -25.0415  -11.6062   -8.0467 C   0  0  0  0  0  0  0  0  0  0  0  0
  -27.0608  -10.2788   -8.7854 N   0  0  0  0  0  0  0  0  0  0  0  0
  -26.9630  -10.5904  -10.1970 C   0  0  0  0  0  0  0  0  0  0  0  0
  7  8  1  0  0  0
  8  9  2  0  0  0
  8 12  1  0  0  0
  9 10  1  0  0  0
 10  1  1  0  0  0
 10 11  1  0  0  0
  1  2  1  0  0  0
  1  6  2  0  0  0
  2  3  2  0  0  0
  3  4  1  0  0  0
  4  5  2  0  0  0
  5 22  1  0  0  0
  5  6  1  0  0  0
 22 24  1  0  0  0
 22 23  1  0  0  0
 24 25  1  0  0  0
 24 29  2  0  0  0
 25 26  2  0  0  0
 26 27  1  0  0  0
 27 28  2  0  0  0
 27 34  1  0  0  0
 28 29  1  0  0  0
 28 30  1  0  0  0
 30 31  1  0  0  0
 30 32  2  0  0  0
 32 33  1  0  0  0
 32 34  1  0  0  0
 34 35  1  0  0  0
 11 12  2  0  0  0
 12 13  1  0  0  0
 13 14  1  0  0  0
 14 15  1  0  0  0
 15 16  1  0  0  0
 15 20  1  0  0  0
 16 17  1  0  0  0
 17 18  1  0  0  0
 18 19  1  0  0  0
 18 20  1  0  0  0
 19 21  1  0  0  0
M  END
> <minimizedAffinity>
-9.36176

$$$$
