CHEMBL3221544


 36 38  0  0  0  0  0  0  0  0999 V2000
  -29.5020   -1.2624   -5.0266 C   0  0  0  0  0  0  0  0  0  0  0  0
  -29.2686    0.0032   -4.5906 N   0  0  0  0  0  0  0  0  0  0  0  0
  -28.4580    0.8483   -5.2673 C   0  0  0  0  0  0  0  0  0  0  0  0
  -27.8855    0.4659   -6.4544 N   0  0  0  0  0  0  0  0  0  0  0  0
  -28.1089   -0.7852   -6.9502 C   0  0  0  0  0  0  0  0  0  0  0  0
  -27.5475   -1.1539   -8.1824 C   0  0  0  0  0  0  0  0  0  0  0  0
  -27.7554   -2.4503   -8.7563 C   0  0  0  0  0  0  0  0  0  0  0  0
  -28.5689   -3.3560   -7.9753 C   0  0  0  0  0  0  0  0  0  0  0  0
  -29.1178   -2.9400   -6.7627 C   0  0  0  0  0  0  0  0  0  0  0  0
  -28.9253   -1.6786   -6.2543 C   0  0  0  0  0  0  0  0  0  0  0  0
  -30.3031   -2.1482   -4.2353 N   0  0  0  0  0  0  0  0  0  0  0  0
  -31.1845   -1.8206   -3.8233 H   0  0  0  0  0  0  0  0  0  0  0  0
  -29.3641   -6.2471   -3.7477 C   0  0  0  0  0  0  0  0  0  0  0  0
  -30.7054   -5.8355   -3.7806 C   0  0  0  0  0  0  0  0  0  0  0  0
  -31.0184   -4.4815   -3.9333 C   0  0  0  0  0  0  0  0  0  0  0  0
  -29.9996   -3.5279   -4.0519 C   0  0  0  0  0  0  0  0  0  0  0  0
  -28.6587   -3.9478   -4.0490 C   0  0  0  0  0  0  0  0  0  0  0  0
  -28.3397   -5.2995   -3.8938 C   0  0  0  0  0  0  0  0  0  0  0  0
  -26.6464   -5.7694   -3.8997 Cl  0  0  0  0  0  0  0  0  0  0  0  0
  -29.1732   -8.5110   -4.5287 C   0  0  0  0  0  0  0  0  0  0  0  0
  -28.8849   -9.6818   -4.3244 O   0  0  0  0  0  0  0  0  0  0  0  0
  -29.0477   -7.6120   -3.5256 N   0  0  0  0  0  0  0  0  0  0  0  0
  -28.6819   -7.9090   -2.6086 H   0  0  0  0  0  0  0  0  0  0  0  0
  -29.5838   -8.1032   -5.7606 O   0  0  0  0  0  0  0  0  0  0  0  0
  -31.5993   -7.9235   -7.0155 C   0  0  0  0  0  0  0  0  0  0  0  0
  -30.4716   -8.8205   -6.5423 C   0  0  0  0  0  0  0  0  0  0  0  0
  -28.9444   -4.6472   -8.1979 O   0  0  0  0  0  0  0  0  0  0  0  0
  -28.4708   -5.8724   -7.9005 C   0  0  0  0  0  0  0  0  0  0  0  0
  -27.2048   -2.7059   -9.9958 O   0  0  0  0  0  0  0  0  0  0  0  0
  -26.7857   -1.6652  -10.8542 C   0  0  0  0  0  0  0  0  0  0  0  0
  -25.2851   -1.4737  -11.1961 C   0  0  0  0  0  0  0  0  0  0  0  0
  -24.9389   -1.6749  -12.6248 N   0  0  0  0  0  0  0  0  0  0  0  0
  -26.1108   -1.7417  -13.5242 C   0  0  0  0  0  0  0  0  0  0  0  0
  -25.8464   -1.3196  -14.9716 C   0  0  0  0  0  0  0  0  0  0  0  0
  -23.9095   -0.6915  -13.0374 C   0  0  0  0  0  0  0  0  0  0  0  0
  -22.7550   -0.5306  -12.0411 C   0  0  0  0  0  0  0  0  0  0  0  0
 25 26  1  0  0  0
 26 24  1  0  0  0
 24 20  1  0  0  0
 20 21  2  0  0  0
 20 22  1  0  0  0
 22 13  1  0  0  0
 22 23  1  0  0  0
 13 14  1  0  0  0
 13 18  2  0  0  0
 14 15  2  0  0  0
 15 16  1  0  0  0
 16 11  1  0  0  0
 16 17  2  0  0  0
 11  1  1  0  0  0
 11 12  1  0  0  0
  1  2  1  0  0  0
  1 10  2  0  0  0
  2  3  2  0  0  0
  3  4  1  0  0  0
  4  5  2  0  0  0
  5  6  1  0  0  0
  5 10  1  0  0  0
  6  7  2  0  0  0
  7 29  1  0  0  0
  7  8  1  0  0  0
 29 30  1  0  0  0
 30 31  1  0  0  0
 31 32  1  0  0  0
 32 33  1  0  0  0
 32 35  1  0  0  0
 33 34  1  0  0  0
 35 36  1  0  0  0
  8 27  1  0  0  0
  8  9  2  0  0  0
 27 28  1  0  0  0
  9 10  1  0  0  0
 17 18  1  0  0  0
 18 19  1  0  0  0
M  END
> <minimizedAffinity>
-7.41212

$$$$
