CHEMBL4290345


 26 29  0  0  0  0  0  0  0  0999 V2000
  -14.8273   -1.0786  -13.1228 C   0  0  0  0  0  0  0  0  0  0  0  0
  -15.6836   -0.2876  -12.4604 N   0  0  0  0  0  0  0  0  0  0  0  0
  -16.3291    0.6419  -13.1944 C   0  0  0  0  0  0  0  0  0  0  0  0
  -16.1542    0.8080  -14.5539 C   0  0  0  0  0  0  0  0  0  0  0  0
  -15.2164   -0.0316  -15.1331 C   0  0  0  0  0  0  0  0  0  0  0  0
  -14.5848   -1.0008  -14.4387 N   0  0  0  0  0  0  0  0  0  0  0  0
  -14.7688    0.1307  -16.4530 N   0  0  0  0  0  0  0  0  0  0  0  0
  -14.4088    1.3603  -16.8791 C   0  0  0  0  0  0  0  0  0  0  0  0
  -13.2445    1.6401  -17.4657 N   0  0  0  0  0  0  0  0  0  0  0  0
  -13.2544    2.9812  -17.5734 N   0  0  0  0  0  0  0  0  0  0  0  0
  -14.3913    3.5719  -17.0929 C   0  0  0  0  0  0  0  0  0  0  0  0
  -14.6109    5.0322  -17.1107 C   0  0  0  0  0  0  0  0  0  0  0  0
  -15.1658    2.5323  -16.6545 C   0  0  0  0  0  0  0  0  0  0  0  0
  -16.4777    2.6616  -16.1996 N   0  0  0  0  0  0  0  0  0  0  0  0
  -16.9336    1.8362  -15.3012 C   0  0  0  0  0  0  0  0  0  0  0  0
  -14.0594   -0.5760  -16.6202 H   0  0  0  0  0  0  0  0  0  0  0  0
  -12.4423    3.4325  -17.9824 H   0  0  0  0  0  0  0  0  0  0  0  0
  -18.4125    1.9545  -15.0140 C   0  0  0  0  0  0  0  0  0  0  0  0
  -18.9740    3.1377  -14.5108 C   0  0  0  0  0  0  0  0  0  0  0  0
  -20.3336    3.1880  -14.1829 C   0  0  0  0  0  0  0  0  0  0  0  0
  -21.1310    2.0554  -14.3392 C   0  0  0  0  0  0  0  0  0  0  0  0
  -22.7938    2.1137  -13.9039 Cl  0  0  0  0  0  0  0  0  0  0  0  0
  -20.5839    0.8722  -14.8288 C   0  0  0  0  0  0  0  0  0  0  0  0
  -19.2275    0.8213  -15.1633 C   0  0  0  0  0  0  0  0  0  0  0  0
  -15.2976   -2.9490  -11.1805 C   0  0  0  0  0  0  0  0  0  0  0  0
  -13.9362   -2.2818  -12.1725 S   0  0  0  0  0  0  0  0  0  0  0  0
 25 26  1  0  0  0
 26  1  1  0  0  0
  1  2  1  0  0  0
  1  6  2  0  0  0
  2  3  2  0  0  0
  3  4  1  0  0  0
  4  5  2  0  0  0
  4 15  1  0  0  0
  5  6  1  0  0  0
  5  7  1  0  0  0
  7  8  1  0  0  0
  7 16  1  0  0  0
  8  9  2  0  0  0
  8 13  1  0  0  0
  9 10  1  0  0  0
 10 11  1  0  0  0
 10 17  1  0  0  0
 11 12  1  0  0  0
 11 13  2  0  0  0
 13 14  1  0  0  0
 14 15  2  0  0  0
 15 18  1  0  0  0
 18 19  1  0  0  0
 18 24  2  0  0  0
 19 20  2  0  0  0
 20 21  1  0  0  0
 21 22  1  0  0  0
 21 23  2  0  0  0
 23 24  1  0  0  0
M  END
> <minimizedAffinity>
-7.61562

$$$$
