CHEMBL1985433


 22 24  0  0  0  0  0  0  0  0999 V2000
  -29.8708   -5.6538   -5.3947 C   0  0  0  0  0  0  0  0  0  0  0  0
  -30.4747   -4.8960   -4.3779 C   0  0  0  0  0  0  0  0  0  0  0  0
  -30.3414   -3.5038   -4.3494 C   0  0  0  0  0  0  0  0  0  0  0  0
  -29.6126   -2.8883   -5.3556 C   0  0  0  0  0  0  0  0  0  0  0  0
  -29.0340   -3.6537   -6.3893 C   0  0  0  0  0  0  0  0  0  0  0  0
  -29.1620   -5.0344   -6.4298 C   0  0  0  0  0  0  0  0  0  0  0  0
  -28.3272   -2.6979   -7.2885 C   0  0  0  0  0  0  0  0  0  0  0  0
  -27.6342   -2.8739   -8.3688 N   0  0  0  0  0  0  0  0  0  0  0  0
  -27.5479   -4.2134   -8.7442 O   0  0  0  0  0  0  0  0  0  0  0  0
  -28.5331   -1.3475   -6.7122 C   0  0  0  0  0  0  0  0  0  0  0  0
  -28.0725   -0.1207   -7.1613 C   0  0  0  0  0  0  0  0  0  0  0  0
  -28.4086    1.0051   -6.4087 C   0  0  0  0  0  0  0  0  0  0  0  0
  -29.1849    0.8821   -5.2415 C   0  0  0  0  0  0  0  0  0  0  0  0
  -29.6389   -0.3696   -4.8072 C   0  0  0  0  0  0  0  0  0  0  0  0
  -29.3059   -1.4891   -5.5536 C   0  0  0  0  0  0  0  0  0  0  0  0
  -27.0400   -4.1611   -9.5747 H   0  0  0  0  0  0  0  0  0  0  0  0
  -30.0193   -7.0773   -5.3784 N   0  0  0  0  0  0  0  0  0  0  0  0
  -30.9545   -7.3853   -5.1010 H   0  0  0  0  0  0  0  0  0  0  0  0
  -29.0788   -9.5806   -5.1656 C   0  0  0  0  0  0  0  0  0  0  0  0
  -28.8937   -7.9564   -4.4607 S   0  0  0  0  0  0  0  0  0  0  0  0
  -29.4324   -7.9958   -3.1187 O   0  0  0  0  0  0  0  0  0  0  0  0
  -27.5518   -7.4956   -4.7323 O   0  0  0  0  0  0  0  0  0  0  0  0
 19 20  1  0  0  0
 20 21  2  0  0  0
 20 22  2  0  0  0
 20 17  1  0  0  0
 17  1  1  0  0  0
 17 18  1  0  0  0
  1  2  1  0  0  0
  1  6  2  0  0  0
  2  3  2  0  0  0
  3  4  1  0  0  0
  4  5  2  0  0  0
  4 15  1  0  0  0
  5  6  1  0  0  0
  5  7  1  0  0  0
  7  8  2  0  0  0
  7 10  1  0  0  0
  8  9  1  0  0  0
  9 16  1  0  0  0
 10 11  1  0  0  0
 10 15  2  0  0  0
 11 12  2  0  0  0
 12 13  1  0  0  0
 13 14  2  0  0  0
 14 15  1  0  0  0
M  END
> <minimizedAffinity>
-8.40541

$$$$
