CHEMBL194057


 29 32  0  0  0  0  0  0  0  0999 V2000
  -28.7155   -9.7667   -6.3075 C   0  0  0  0  0  0  0  0  0  0  0  0
  -29.1727  -11.0530   -6.3826 O   0  0  0  0  0  0  0  0  0  0  0  0
  -30.4888  -11.0078   -6.7256 C   0  0  0  0  0  0  0  0  0  0  0  0
  -31.2211  -12.1178   -6.9099 N   0  0  0  0  0  0  0  0  0  0  0  0
  -32.4859  -11.8123   -7.2300 C   0  0  0  0  0  0  0  0  0  0  0  0
  -33.0372  -10.5959   -7.3491 N   0  0  0  0  0  0  0  0  0  0  0  0
  -32.2699   -9.5068   -7.1348 C   0  0  0  0  0  0  0  0  0  0  0  0
  -32.9100   -8.2931   -7.2238 N   0  0  0  0  0  0  0  0  0  0  0  0
  -30.9113   -9.6874   -6.8346 C   0  0  0  0  0  0  0  0  0  0  0  0
  -29.7566   -8.8773   -6.5857 C   0  0  0  0  0  0  0  0  0  0  0  0
  -33.8560   -8.3170   -7.5776 H   0  0  0  0  0  0  0  0  0  0  0  0
  -32.4211   -7.4190   -7.1258 H   0  0  0  0  0  0  0  0  0  0  0  0
  -24.6748   -9.8269   -4.9081 C   0  0  0  0  0  0  0  0  0  0  0  0
  -25.6491   -9.1248   -4.2051 C   0  0  0  0  0  0  0  0  0  0  0  0
  -26.9405   -9.0003   -4.7292 C   0  0  0  0  0  0  0  0  0  0  0  0
  -27.3069   -9.6420   -5.9189 C   0  0  0  0  0  0  0  0  0  0  0  0
  -26.3030  -10.2827   -6.6560 C   0  0  0  0  0  0  0  0  0  0  0  0
  -24.9981  -10.3682   -6.1541 C   0  0  0  0  0  0  0  0  0  0  0  0
  -22.6526  -11.0385   -5.2005 C   0  0  0  0  0  0  0  0  0  0  0  0
  -23.3933  -10.0534   -4.4888 O   0  0  0  0  0  0  0  0  0  0  0  0
  -29.5763   -7.4378   -6.6724 C   0  0  0  0  0  0  0  0  0  0  0  0
  -29.9568   -6.5871   -5.6317 C   0  0  0  0  0  0  0  0  0  0  0  0
  -29.5887   -5.2344   -5.6483 C   0  0  0  0  0  0  0  0  0  0  0  0
  -28.9083   -4.6580   -6.7327 C   0  0  0  0  0  0  0  0  0  0  0  0
  -28.6328   -5.5070   -7.8135 C   0  0  0  0  0  0  0  0  0  0  0  0
  -28.9290   -6.8776   -7.7728 C   0  0  0  0  0  0  0  0  0  0  0  0
  -28.5918   -3.3006   -6.7262 N   0  0  0  0  0  0  0  0  0  0  0  0
  -28.0627   -2.7161   -7.9623 C   0  0  0  0  0  0  0  0  0  0  0  0
  -29.3727   -2.3687   -5.9159 C   0  0  0  0  0  0  0  0  0  0  0  0
 19 20  1  0  0  0
 20 13  1  0  0  0
 13 14  1  0  0  0
 13 18  2  0  0  0
 14 15  2  0  0  0
 15 16  1  0  0  0
 16  1  1  0  0  0
 16 17  2  0  0  0
  1  2  1  0  0  0
  1 10  2  0  0  0
  2  3  1  0  0  0
  3  4  1  0  0  0
  3  9  2  0  0  0
  4  5  2  0  0  0
  5  6  1  0  0  0
  6  7  2  0  0  0
  7  8  1  0  0  0
  7  9  1  0  0  0
  8 11  1  0  0  0
  8 12  1  0  0  0
  9 10  1  0  0  0
 10 21  1  0  0  0
 21 22  1  0  0  0
 21 26  2  0  0  0
 22 23  2  0  0  0
 23 24  1  0  0  0
 24 27  1  0  0  0
 24 25  2  0  0  0
 27 28  1  0  0  0
 27 29  1  0  0  0
 25 26  1  0  0  0
 17 18  1  0  0  0
M  END
> <minimizedAffinity>
-7.48883

$$$$
