CHEMBL3950510


 40 43  0  0  0  0  0  0  0  0999 V2000
  -27.4346   -1.7659   -9.6029 C   0  0  0  0  0  0  0  0  0  0  0  0
  -28.3205   -1.5578  -10.6605 C   0  0  0  0  0  0  0  0  0  0  0  0
  -27.8541   -1.5812  -11.9540 C   0  0  0  0  0  0  0  0  0  0  0  0
  -26.5131   -1.5288  -12.2375 C   0  0  0  0  0  0  0  0  0  0  0  0
  -26.2457   -1.7002  -13.5280 N   0  0  0  0  0  0  0  0  0  0  0  0
  -25.0235   -1.3520  -13.9165 C   0  0  0  0  0  0  0  0  0  0  0  0
  -24.1165   -0.7793  -13.0419 C   0  0  0  0  0  0  0  0  0  0  0  0
  -24.3354   -0.8011  -11.6731 N   0  0  0  0  0  0  0  0  0  0  0  0
  -25.5721   -1.2497  -11.2233 C   0  0  0  0  0  0  0  0  0  0  0  0
  -26.0694   -1.4835   -9.8723 C   0  0  0  0  0  0  0  0  0  0  0  0
  -23.1630    0.1288  -13.6819 C   0  0  0  0  0  0  0  0  0  0  0  0
  -23.0032    1.5316  -13.6689 C   0  0  0  0  0  0  0  0  0  0  0  0
  -21.8408    1.9326  -14.2115 N   0  0  0  0  0  0  0  0  0  0  0  0
  -21.2311    0.7809  -14.5524 N   0  0  0  0  0  0  0  0  0  0  0  0
  -21.9381   -0.3206  -14.1625 C   0  0  0  0  0  0  0  0  0  0  0  0
  -19.9809    0.7918  -15.2967 C   0  0  0  0  0  0  0  0  0  0  0  0
  -18.8987    1.6316  -14.6121 C   0  0  0  0  0  0  0  0  0  0  0  0
  -18.5962    2.9622  -15.3043 C   0  0  0  0  0  0  0  0  0  0  0  0
  -19.5967    3.9770  -14.9941 N   0  0  0  0  0  0  0  0  0  0  0  0
  -20.4814    3.7136  -15.4400 H   0  0  0  0  0  0  0  0  0  0  0  0
  -19.3318    4.8459  -15.4615 H   0  0  0  0  0  0  0  0  0  0  0  0
  -28.0153   -2.4160   -8.4428 N   0  0  0  0  0  0  0  0  0  0  0  0
  -28.6356   -0.2215   -5.4732 C   0  0  0  0  0  0  0  0  0  0  0  0
  -28.3016   -1.0643   -4.4121 C   0  0  0  0  0  0  0  0  0  0  0  0
  -27.8548   -2.3494   -4.6789 C   0  0  0  0  0  0  0  0  0  0  0  0
  -27.7090   -2.7676   -6.0079 C   0  0  0  0  0  0  0  0  0  0  0  0
  -28.0560   -1.9536   -7.1050 C   0  0  0  0  0  0  0  0  0  0  0  0
  -28.5572   -0.6762   -6.8014 C   0  0  0  0  0  0  0  0  0  0  0  0
  -30.4493    1.2323   -5.7233 C   0  0  0  0  0  0  0  0  0  0  0  0
  -29.1052    1.0540   -5.2749 O   0  0  0  0  0  0  0  0  0  0  0  0
  -27.5111   -3.2822   -3.7388 O   0  0  0  0  0  0  0  0  0  0  0  0
  -27.8082   -4.6375   -4.0614 C   0  0  0  0  0  0  0  0  0  0  0  0
  -27.9073   -3.9199   -8.6385 C   0  0  0  0  0  0  0  0  0  0  0  0
  -28.5351   -4.8245   -7.5667 C   0  0  0  0  0  0  0  0  0  0  0  0
  -28.0519   -6.1858   -7.8514 O   0  0  0  0  0  0  0  0  0  0  0  0
  -28.8340   -6.7409   -8.0622 H   0  0  0  0  0  0  0  0  0  0  0  0
  -30.0694   -4.8198   -7.5229 C   0  0  0  0  0  0  0  0  0  0  0  0
  -30.6511   -6.0040   -7.7574 F   0  0  0  0  0  0  0  0  0  0  0  0
  -30.4822   -4.4170   -6.2870 F   0  0  0  0  0  0  0  0  0  0  0  0
  -30.5792   -3.9195   -8.4031 F   0  0  0  0  0  0  0  0  0  0  0  0
 29 30  1  0  0  0
 30 23  1  0  0  0
 23 24  1  0  0  0
 23 28  2  0  0  0
 24 25  2  0  0  0
 25 31  1  0  0  0
 25 26  1  0  0  0
 31 32  1  0  0  0
 26 27  2  0  0  0
 27 22  1  0  0  0
 27 28  1  0  0  0
 22 33  1  0  0  0
 22  1  1  0  0  0
 34 37  1  0  0  0
 34 35  1  0  0  0
 34 33  1  0  0  0
 35 36  1  0  0  0
 37 38  1  0  0  0
 37 39  1  0  0  0
 37 40  1  0  0  0
  1  2  1  0  0  0
  1 10  2  0  0  0
  2  3  2  0  0  0
  3  4  1  0  0  0
  4  5  1  0  0  0
  4  9  2  0  0  0
  5  6  2  0  0  0
  6  7  1  0  0  0
  7 11  1  0  0  0
  7  8  2  0  0  0
 11 12  1  0  0  0
 11 15  2  0  0  0
 12 13  2  0  0  0
 13 14  1  0  0  0
 14 16  1  0  0  0
 14 15  1  0  0  0
 16 17  1  0  0  0
 17 18  1  0  0  0
 18 19  1  0  0  0
 19 20  1  0  0  0
 19 21  1  0  0  0
  8  9  1  0  0  0
  9 10  1  0  0  0
M  END
> <minimizedAffinity>
-9.45819

$$$$
