CHEMBL200586


 14 15  0  0  0  0  0  0  0  0999 V2000
  -19.0564    1.9348  -15.2461 C   0  0  0  0  0  0  0  0  0  0  0  0
  -19.8814    0.8459  -14.9266 C   0  0  0  0  0  0  0  0  0  0  0  0
  -21.1096    1.3274  -14.4791 C   0  0  0  0  0  0  0  0  0  0  0  0
  -22.3098    0.8061  -14.0059 C   0  0  0  0  0  0  0  0  0  0  0  0
  -22.7332   -0.5927  -13.7785 C   0  0  0  0  0  0  0  0  0  0  0  0
  -23.1594    1.8218  -13.7209 N   0  0  0  0  0  0  0  0  0  0  0  0
  -22.4548    2.9498  -14.0202 N   0  0  0  0  0  0  0  0  0  0  0  0
  -21.2196    2.6564  -14.4724 C   0  0  0  0  0  0  0  0  0  0  0  0
  -19.8754    3.4693  -14.9829 S   0  0  0  0  0  0  0  0  0  0  0  0
  -22.8898    3.8549  -13.8813 H   0  0  0  0  0  0  0  0  0  0  0  0
  -17.6898    1.9744  -15.7351 C   0  0  0  0  0  0  0  0  0  0  0  0
  -16.8651    1.0717  -15.6447 O   0  0  0  0  0  0  0  0  0  0  0  0
  -16.1360    3.6969  -16.0171 C   0  0  0  0  0  0  0  0  0  0  0  0
  -17.4324    3.1784  -16.3273 O   0  0  0  0  0  0  0  0  0  0  0  0
 13 14  1  0  0  0
 14 11  1  0  0  0
 11 12  2  0  0  0
 11  1  1  0  0  0
  1  2  2  0  0  0
  1  9  1  0  0  0
  2  3  1  0  0  0
  3  4  1  0  0  0
  3  8  2  0  0  0
  4  5  1  0  0  0
  4  6  2  0  0  0
  6  7  1  0  0  0
  7  8  1  0  0  0
  7 10  1  0  0  0
  8  9  1  0  0  0
M  END
> <minimizedAffinity>
-6.24566

$$$$
