CHEMBL3656080


 48 51  0  0  0  0  0  0  0  0999 V2000
  -15.0300    1.9643  -15.6970 C   0  0  0  0  0  0  0  0  0  0  0  0
  -16.3564    2.2208  -15.3725 C   0  0  0  0  0  0  0  0  0  0  0  0
  -16.8965    3.4751  -15.6416 C   0  0  0  0  0  0  0  0  0  0  0  0
  -16.1269    4.3933  -16.3431 C   0  0  0  0  0  0  0  0  0  0  0  0
  -14.8257    4.0373  -16.6751 C   0  0  0  0  0  0  0  0  0  0  0  0
  -14.2475    2.8532  -16.3510 N   0  0  0  0  0  0  0  0  0  0  0  0
  -13.3761   -0.9550  -14.0778 C   0  0  0  0  0  0  0  0  0  0  0  0
  -13.2950   -1.2509  -15.4282 C   0  0  0  0  0  0  0  0  0  0  0  0
  -13.9008   -0.2270  -16.1341 N   0  0  0  0  0  0  0  0  0  0  0  0
  -14.3849    0.7283  -15.2661 C   0  0  0  0  0  0  0  0  0  0  0  0
  -14.0826    0.2810  -13.9926 C   0  0  0  0  0  0  0  0  0  0  0  0
  -13.9820   -0.1586  -17.1348 H   0  0  0  0  0  0  0  0  0  0  0  0
  -13.6000   -2.7626  -12.5121 N   0  0  0  0  0  0  0  0  0  0  0  0
  -12.8613   -1.6808  -12.9207 C   0  0  0  0  0  0  0  0  0  0  0  0
  -11.8276   -1.3410  -12.3521 O   0  0  0  0  0  0  0  0  0  0  0  0
  -14.3908   -3.0609  -13.0690 H   0  0  0  0  0  0  0  0  0  0  0  0
  -13.1889   -3.6118  -11.3892 C   0  0  0  0  0  0  0  0  0  0  0  0
  -12.7173   -4.9919  -11.8928 C   0  0  0  0  0  0  0  0  0  0  0  0
  -12.0158   -5.1584  -12.8841 O   0  0  0  0  0  0  0  0  0  0  0  0
  -13.9389   -6.9886  -11.8240 C   0  0  0  0  0  0  0  0  0  0  0  0
  -13.1794   -6.0114  -11.1065 O   0  0  0  0  0  0  0  0  0  0  0  0
  -14.3242   -3.7329  -10.3540 C   0  0  0  0  0  0  0  0  0  0  0  0
  -15.6778   -3.2023  -10.8285 C   0  0  0  0  0  0  0  0  0  0  0  0
  -16.4292   -4.2194  -11.6581 C   0  0  0  0  0  0  0  0  0  0  0  0
  -16.9866   -5.2136  -11.2269 O   0  0  0  0  0  0  0  0  0  0  0  0
  -16.4420   -3.8912  -12.9707 O   0  0  0  0  0  0  0  0  0  0  0  0
  -15.9726   -3.0586  -13.1684 H   0  0  0  0  0  0  0  0  0  0  0  0
  -18.1740    3.8575  -15.2705 O   0  0  0  0  0  0  0  0  0  0  0  0
  -19.1215    2.8800  -15.0337 C   0  0  0  0  0  0  0  0  0  0  0  0
  -20.2740    3.1064  -14.2878 C   0  0  0  0  0  0  0  0  0  0  0  0
  -21.1287    2.0491  -13.9729 C   0  0  0  0  0  0  0  0  0  0  0  0
  -20.9126    0.7592  -14.4616 C   0  0  0  0  0  0  0  0  0  0  0  0
  -19.8155    0.5603  -15.3110 C   0  0  0  0  0  0  0  0  0  0  0  0
  -18.9242    1.6157  -15.5927 C   0  0  0  0  0  0  0  0  0  0  0  0
  -21.7352   -0.3427  -14.1076 N   0  0  0  0  0  0  0  0  0  0  0  0
  -23.0679   -0.2593  -13.7337 C   0  0  0  0  0  0  0  0  0  0  0  0
  -23.7326    0.7711  -13.7198 O   0  0  0  0  0  0  0  0  0  0  0  0
  -23.5990   -1.4821  -13.3423 N   0  0  0  0  0  0  0  0  0  0  0  0
  -21.3345   -1.2666  -14.1782 H   0  0  0  0  0  0  0  0  0  0  0  0
  -22.9733   -2.0456  -12.7802 H   0  0  0  0  0  0  0  0  0  0  0  0
  -24.9613   -1.5205  -12.9276 C   0  0  0  0  0  0  0  0  0  0  0  0
  -25.3126   -1.5371  -11.5703 C   0  0  0  0  0  0  0  0  0  0  0  0
  -26.6525   -1.6721  -11.1768 C   0  0  0  0  0  0  0  0  0  0  0  0
  -27.0268   -1.6920   -9.7224 C   0  0  0  0  0  0  0  0  0  0  0  0
  -27.6417   -1.8051  -12.1600 C   0  0  0  0  0  0  0  0  0  0  0  0
  -27.2991   -1.7730  -13.5143 C   0  0  0  0  0  0  0  0  0  0  0  0
  -25.9678   -1.6079  -13.8881 C   0  0  0  0  0  0  0  0  0  0  0  0
  -25.6471   -1.6090  -15.1913 F   0  0  0  0  0  0  0  0  0  0  0  0
 20 21  1  0  0  0
 21 18  1  0  0  0
 18 19  2  0  0  0
 17 13  1  0  0  0
 17 22  1  0  0  0
 17 18  1  0  0  0
 22 23  1  0  0  0
 23 24  1  0  0  0
 24 25  2  0  0  0
 24 26  1  0  0  0
 26 27  1  0  0  0
 13 14  1  0  0  0
 13 16  1  0  0  0
 14 15  2  0  0  0
 14  7  1  0  0  0
  7  8  2  0  0  0
  7 11  1  0  0  0
  8  9  1  0  0  0
  9 10  1  0  0  0
  9 12  1  0  0  0
 10  1  1  0  0  0
 10 11  2  0  0  0
  1  2  1  0  0  0
  1  6  2  0  0  0
  2  3  2  0  0  0
  3 28  1  0  0  0
  3  4  1  0  0  0
 28 29  1  0  0  0
 29 30  1  0  0  0
 29 34  2  0  0  0
 30 31  2  0  0  0
 31 32  1  0  0  0
 32 35  1  0  0  0
 32 33  2  0  0  0
 35 36  1  0  0  0
 35 39  1  0  0  0
 36 37  2  0  0  0
 36 38  1  0  0  0
 38 41  1  0  0  0
 38 40  1  0  0  0
 41 42  1  0  0  0
 41 47  2  0  0  0
 42 43  2  0  0  0
 43 44  1  0  0  0
 43 45  1  0  0  0
 45 46  2  0  0  0
 46 47  1  0  0  0
 47 48  1  0  0  0
 33 34  1  0  0  0
  4  5  2  0  0  0
  5  6  1  0  0  0
M  END
> <minimizedAffinity>
-10.21733

$$$$
