CHEMBL3937879


 31 35  0  0  0  0  0  0  0  0999 V2000
  -16.8430    2.1915  -15.6334 C   0  0  0  0  0  0  0  0  0  0  0  0
  -17.3527    0.9125  -15.3210 C   0  0  0  0  0  0  0  0  0  0  0  0
  -18.6798    0.7028  -14.9135 C   0  0  0  0  0  0  0  0  0  0  0  0
  -19.5225    1.8130  -14.7553 C   0  0  0  0  0  0  0  0  0  0  0  0
  -20.8686    2.0388  -14.3713 C   0  0  0  0  0  0  0  0  0  0  0  0
  -21.1904    3.3426  -14.3816 N   0  0  0  0  0  0  0  0  0  0  0  0
  -20.0491    3.9388  -14.7759 N   0  0  0  0  0  0  0  0  0  0  0  0
  -19.0242    3.0736  -15.0518 C   0  0  0  0  0  0  0  0  0  0  0  0
  -17.7235    3.2887  -15.5292 C   0  0  0  0  0  0  0  0  0  0  0  0
  -20.0293    4.9505  -14.8327 H   0  0  0  0  0  0  0  0  0  0  0  0
  -21.8703    0.9919  -14.0100 C   0  0  0  0  0  0  0  0  0  0  0  0
  -22.8899    0.6085  -14.7493 N   0  0  0  0  0  0  0  0  0  0  0  0
  -23.5478   -0.3329  -13.9923 C   0  0  0  0  0  0  0  0  0  0  0  0
  -24.7041   -1.0685  -14.2848 C   0  0  0  0  0  0  0  0  0  0  0  0
  -25.1951   -1.9591  -13.3209 C   0  0  0  0  0  0  0  0  0  0  0  0
  -24.5480   -2.1132  -12.0920 C   0  0  0  0  0  0  0  0  0  0  0  0
  -23.3857   -1.3959  -11.7864 C   0  0  0  0  0  0  0  0  0  0  0  0
  -22.9170   -0.5205  -12.7675 C   0  0  0  0  0  0  0  0  0  0  0  0
  -21.8384    0.3202  -12.8165 N   0  0  0  0  0  0  0  0  0  0  0  0
  -21.1372    0.4679  -12.1069 H   0  0  0  0  0  0  0  0  0  0  0  0
  -13.9210    3.2067  -17.8685 C   0  0  0  0  0  0  0  0  0  0  0  0
  -15.2027    3.0118  -17.3408 C   0  0  0  0  0  0  0  0  0  0  0  0
  -15.4333    2.3559  -16.1005 C   0  0  0  0  0  0  0  0  0  0  0  0
  -14.2958    1.8839  -15.3976 C   0  0  0  0  0  0  0  0  0  0  0  0
  -14.3413    1.0994  -14.1109 C   0  0  0  0  0  0  0  0  0  0  0  0
  -13.0035    2.1411  -15.9026 C   0  0  0  0  0  0  0  0  0  0  0  0
  -12.8246    2.7822  -17.1239 C   0  0  0  0  0  0  0  0  0  0  0  0
  -11.5608    3.0049  -17.5998 O   0  0  0  0  0  0  0  0  0  0  0  0
  -10.9157    2.7095  -16.9398 H   0  0  0  0  0  0  0  0  0  0  0  0
  -13.8598    5.1533  -19.2409 C   0  0  0  0  0  0  0  0  0  0  0  0
  -13.6479    3.7580  -19.0918 O   0  0  0  0  0  0  0  0  0  0  0  0
 30 31  1  0  0  0
 31 21  1  0  0  0
 21 22  1  0  0  0
 21 27  2  0  0  0
 22 23  2  0  0  0
 23  1  1  0  0  0
 23 24  1  0  0  0
  1  2  1  0  0  0
  1  9  2  0  0  0
  2  3  2  0  0  0
  3  4  1  0  0  0
  4  5  1  0  0  0
  4  8  2  0  0  0
  5 11  1  0  0  0
  5  6  2  0  0  0
 11 12  2  0  0  0
 11 19  1  0  0  0
 12 13  1  0  0  0
 13 14  1  0  0  0
 13 18  2  0  0  0
 14 15  2  0  0  0
 15 16  1  0  0  0
 16 17  2  0  0  0
 17 18  1  0  0  0
 18 19  1  0  0  0
 19 20  1  0  0  0
  6  7  1  0  0  0
  7  8  1  0  0  0
  7 10  1  0  0  0
  8  9  1  0  0  0
 24 25  1  0  0  0
 24 26  2  0  0  0
 26 27  1  0  0  0
 27 28  1  0  0  0
 28 29  1  0  0  0
M  END
> <minimizedAffinity>
-9.53283

$$$$
