CHEMBL3221543


 39 41  0  0  0  0  0  0  0  0999 V2000
  -13.0676   -4.1208  -15.8751 C   0  0  0  0  0  0  0  0  0  0  0  0
  -12.8161   -2.9222  -15.1862 C   0  0  0  0  0  0  0  0  0  0  0  0
  -12.2219   -2.9040  -13.9138 C   0  0  0  0  0  0  0  0  0  0  0  0
  -11.9980   -1.7236  -13.1608 C   0  0  0  0  0  0  0  0  0  0  0  0
  -11.4073   -1.8407  -11.9399 N   0  0  0  0  0  0  0  0  0  0  0  0
  -11.0156   -3.0289  -11.4283 C   0  0  0  0  0  0  0  0  0  0  0  0
  -11.2263   -4.1630  -12.1309 N   0  0  0  0  0  0  0  0  0  0  0  0
  -11.8184   -4.1247  -13.3505 C   0  0  0  0  0  0  0  0  0  0  0  0
  -12.0373   -5.3143  -14.0209 C   0  0  0  0  0  0  0  0  0  0  0  0
  -12.6849   -5.3639  -15.2843 C   0  0  0  0  0  0  0  0  0  0  0  0
  -12.4444   -0.4367  -13.6149 N   0  0  0  0  0  0  0  0  0  0  0  0
  -11.7440    0.3053  -13.7458 H   0  0  0  0  0  0  0  0  0  0  0  0
  -13.7841   -0.1180  -14.0062 C   0  0  0  0  0  0  0  0  0  0  0  0
  -14.9009   -0.5628  -13.2921 C   0  0  0  0  0  0  0  0  0  0  0  0
  -16.1840   -0.2312  -13.6921 C   0  0  0  0  0  0  0  0  0  0  0  0
  -16.4327    0.5704  -14.8300 C   0  0  0  0  0  0  0  0  0  0  0  0
  -15.2937    1.0245  -15.5723 C   0  0  0  0  0  0  0  0  0  0  0  0
  -15.3811    1.8835  -16.8114 C   0  0  0  0  0  0  0  0  0  0  0  0
  -13.9965    0.6888  -15.1329 C   0  0  0  0  0  0  0  0  0  0  0  0
  -17.7859    0.8891  -15.2473 N   0  0  0  0  0  0  0  0  0  0  0  0
  -18.5273    1.9655  -14.8411 C   0  0  0  0  0  0  0  0  0  0  0  0
  -18.0592    2.8441  -14.1416 O   0  0  0  0  0  0  0  0  0  0  0  0
  -18.2584    0.2482  -15.8961 H   0  0  0  0  0  0  0  0  0  0  0  0
  -19.8357    2.0472  -15.2160 O   0  0  0  0  0  0  0  0  0  0  0  0
  -20.5608    3.2319  -15.2137 C   0  0  0  0  0  0  0  0  0  0  0  0
  -21.7077    3.1862  -14.2075 C   0  0  0  0  0  0  0  0  0  0  0  0
  -13.6580   -3.9526  -17.0863 O   0  0  0  0  0  0  0  0  0  0  0  0
  -13.2142   -3.7111  -18.3707 C   0  0  0  0  0  0  0  0  0  0  0  0
  -14.1517   -4.1086  -19.5188 C   0  0  0  0  0  0  0  0  0  0  0  0
  -13.2981   -6.4970  -19.4986 C   0  0  0  0  0  0  0  0  0  0  0  0
  -14.5107   -5.5888  -19.3539 C   0  0  0  0  0  0  0  0  0  0  0  0
  -12.9441   -6.5907  -15.8539 O   0  0  0  0  0  0  0  0  0  0  0  0
  -13.7776   -7.4868  -15.1815 C   0  0  0  0  0  0  0  0  0  0  0  0
  -15.0981   -6.9505  -14.5992 C   0  0  0  0  0  0  0  0  0  0  0  0
  -15.2045   -7.2609  -13.1333 N   0  0  0  0  0  0  0  0  0  0  0  0
  -14.1403   -8.1644  -12.5949 C   0  0  0  0  0  0  0  0  0  0  0  0
  -13.3161   -7.5517  -11.4545 C   0  0  0  0  0  0  0  0  0  0  0  0
  -15.3640   -6.0168  -12.3403 C   0  0  0  0  0  0  0  0  0  0  0  0
  -16.8187   -5.5171  -12.2739 C   0  0  0  0  0  0  0  0  0  0  0  0
 30 31  1  0  0  0
 31 29  1  0  0  0
 29 28  1  0  0  0
 28 27  1  0  0  0
 27  1  1  0  0  0
  1  2  1  0  0  0
  1 10  2  0  0  0
  2  3  2  0  0  0
  3  4  1  0  0  0
  3  8  1  0  0  0
  4 11  1  0  0  0
  4  5  2  0  0  0
 11 13  1  0  0  0
 11 12  1  0  0  0
 13 14  1  0  0  0
 13 19  2  0  0  0
 14 15  2  0  0  0
 15 16  1  0  0  0
 16 20  1  0  0  0
 16 17  2  0  0  0
 20 21  1  0  0  0
 20 23  1  0  0  0
 21 22  2  0  0  0
 21 24  1  0  0  0
 24 25  1  0  0  0
 25 26  1  0  0  0
 17 18  1  0  0  0
 17 19  1  0  0  0
  5  6  1  0  0  0
  6  7  2  0  0  0
  7  8  1  0  0  0
  8  9  2  0  0  0
  9 10  1  0  0  0
 10 32  1  0  0  0
 32 33  1  0  0  0
 33 34  1  0  0  0
 34 35  1  0  0  0
 35 36  1  0  0  0
 35 38  1  0  0  0
 36 37  1  0  0  0
 38 39  1  0  0  0
M  END
> <minimizedAffinity>
-5.77425

$$$$
