CHEMBL4067869


 40 46  0  0  0  0  0  0  0  0999 V2000
  -27.5495   -9.2505   -3.3637 N   0  0  0  0  0  0  0  0  0  0  0  0
  -27.6363   -9.6656   -2.4464 H   0  0  0  0  0  0  0  0  0  0  0  0
  -26.3505  -10.8621   -6.1210 N   0  0  0  0  0  0  0  0  0  0  0  0
  -27.1403   -9.9072   -5.6114 N   0  0  0  0  0  0  0  0  0  0  0  0
  -26.9493   -9.9991   -4.3044 C   0  0  0  0  0  0  0  0  0  0  0  0
  -26.0196  -10.9216   -3.9330 N   0  0  0  0  0  0  0  0  0  0  0  0
  -25.6593  -11.4721   -5.0720 C   0  0  0  0  0  0  0  0  0  0  0  0
  -24.7604  -12.4659   -5.2114 N   0  0  0  0  0  0  0  0  0  0  0  0
  -24.1523  -12.6714   -4.4250 H   0  0  0  0  0  0  0  0  0  0  0  0
  -24.3834  -12.6876   -6.1301 H   0  0  0  0  0  0  0  0  0  0  0  0
  -28.4046  -10.6230  -12.0292 C   0  0  0  0  0  0  0  0  0  0  0  0
  -28.2707  -10.4346  -10.5571 C   0  0  0  0  0  0  0  0  0  0  0  0
  -29.1678   -9.7310   -9.7881 C   0  0  0  0  0  0  0  0  0  0  0  0
  -28.7313   -9.7049   -8.1504 S   0  0  0  0  0  0  0  0  0  0  0  0
  -27.3090  -10.6554   -8.4025 C   0  0  0  0  0  0  0  0  0  0  0  0
  -26.3117  -11.1193   -7.5188 C   0  0  0  0  0  0  0  0  0  0  0  0
  -25.2766  -11.8449   -8.0346 N   0  0  0  0  0  0  0  0  0  0  0  0
  -25.2776  -12.1017   -9.3500 C   0  0  0  0  0  0  0  0  0  0  0  0
  -26.1770  -11.7127  -10.2529 N   0  0  0  0  0  0  0  0  0  0  0  0
  -27.2006  -10.9735   -9.7588 C   0  0  0  0  0  0  0  0  0  0  0  0
  -28.1262   -7.9720   -3.4958 C   0  0  0  0  0  0  0  0  0  0  0  0
  -27.3837   -6.9476   -4.0817 C   0  0  0  0  0  0  0  0  0  0  0  0
  -27.9500   -5.6853   -4.3053 C   0  0  0  0  0  0  0  0  0  0  0  0
  -29.2789   -5.3864   -3.9616 C   0  0  0  0  0  0  0  0  0  0  0  0
  -30.0199   -6.4376   -3.4025 C   0  0  0  0  0  0  0  0  0  0  0  0
  -31.3032   -6.2634   -3.0424 F   0  0  0  0  0  0  0  0  0  0  0  0
  -29.4605   -7.6974   -3.1772 C   0  0  0  0  0  0  0  0  0  0  0  0
  -29.7858   -4.1222   -4.2616 N   0  0  0  0  0  0  0  0  0  0  0  0
  -29.1682   -2.9276   -3.6608 C   0  0  0  0  0  0  0  0  0  0  0  0
  -30.1751   -1.7493   -3.7287 C   0  0  0  0  0  0  0  0  0  0  0  0
  -30.6670   -1.4200   -5.0981 N   0  0  0  0  0  0  0  0  0  0  0  0
  -31.2431   -2.6703   -5.6568 C   0  0  0  0  0  0  0  0  0  0  0  0
  -30.3142   -3.9108   -5.6252 C   0  0  0  0  0  0  0  0  0  0  0  0
  -29.5951   -0.8681   -5.9388 C   0  0  0  0  0  0  0  0  0  0  0  0
  -28.1767   -1.0051   -5.3232 C   0  0  0  0  0  0  0  0  0  0  0  0
  -27.5602    0.3906   -5.5358 C   0  0  0  0  0  0  0  0  0  0  0  0
  -28.1672    1.3515   -4.5014 C   0  0  0  0  0  0  0  0  0  0  0  0
  -29.6075    1.5242   -5.0026 C   0  0  0  0  0  0  0  0  0  0  0  0
  -29.6465    0.6497   -6.2681 C   0  0  0  0  0  0  0  0  0  0  0  0
  -28.2339    0.8583   -6.8235 C   0  0  0  0  0  0  0  0  0  0  0  0
 11 12  1  0  0  0
 12 13  2  0  0  0
 12 20  1  0  0  0
 13 14  1  0  0  0
 14 15  1  0  0  0
 15 16  1  0  0  0
 15 20  2  0  0  0
 16  3  1  0  0  0
 16 17  2  0  0  0
  3  4  1  0  0  0
  3  7  1  0  0  0
  4  5  2  0  0  0
  5  1  1  0  0  0
  5  6  1  0  0  0
  1 21  1  0  0  0
  1  2  1  0  0  0
 21 22  1  0  0  0
 21 27  2  0  0  0
 22 23  2  0  0  0
 23 24  1  0  0  0
 24 28  1  0  0  0
 24 25  2  0  0  0
 28 29  1  0  0  0
 28 33  1  0  0  0
 29 30  1  0  0  0
 30 31  1  0  0  0
 31 34  1  0  0  0
 31 32  1  0  0  0
 34 35  1  0  0  0
 34 39  1  0  0  0
 35 36  1  0  0  0
 36 37  1  0  0  0
 36 40  1  0  0  0
 37 38  1  0  0  0
 38 39  1  0  0  0
 39 40  1  0  0  0
 32 33  1  0  0  0
 25 26  1  0  0  0
 25 27  1  0  0  0
  6  7  2  0  0  0
  7  8  1  0  0  0
  8  9  1  0  0  0
  8 10  1  0  0  0
 17 18  1  0  0  0
 18 19  2  0  0  0
 19 20  1  0  0  0
M  END
> <minimizedAffinity>
-4.48982

$$$$
