CHEMBL3959193


 33 36  0  0  0  0  0  0  0  0999 V2000
  -29.6071   -5.6775   -5.1083 N   0  0  0  0  0  0  0  0  0  0  0  0
  -29.1763   -4.7001   -6.0633 C   0  0  0  0  0  0  0  0  0  0  0  0
  -28.8862   -5.1511   -7.3277 C   0  0  0  0  0  0  0  0  0  0  0  0
  -28.4567   -4.2904   -8.2608 C   0  0  0  0  0  0  0  0  0  0  0  0
  -28.2226   -2.9956   -8.0096 C   0  0  0  0  0  0  0  0  0  0  0  0
  -27.1531   -2.8051   -8.6639 N   0  0  0  0  0  0  0  0  0  0  0  0
  -27.3921   -2.4330   -9.8793 C   0  0  0  0  0  0  0  0  0  0  0  0
  -27.3295   -1.1652   -9.9337 C   0  0  0  0  0  0  0  0  0  0  0  0
  -27.7930   -0.8436   -8.3120 N   0  0  0  0  0  0  0  0  0  0  0  0
  -28.3581   -2.0523   -7.1033 C   0  0  0  0  0  0  0  0  0  0  0  0
  -28.9205   -3.2238   -5.8844 C   0  0  0  0  0  0  0  0  0  0  0  0
  -26.2989   -1.2095  -11.5013 C   0  0  0  0  0  0  0  0  0  0  0  0
  -26.5049   -1.6270  -13.1035 C   0  0  0  0  0  0  0  0  0  0  0  0
  -25.4785   -1.4155  -13.9903 N   0  0  0  0  0  0  0  0  0  0  0  0
  -24.5060   -0.8593  -13.2565 N   0  0  0  0  0  0  0  0  0  0  0  0
  -23.2387   -0.3533  -13.9118 C   0  0  0  0  0  0  0  0  0  0  0  0
  -24.9753   -0.7861  -11.8426 C   0  0  0  0  0  0  0  0  0  0  0  0
  -30.5842   -9.0004   -6.6021 C   0  0  0  0  0  0  0  0  0  0  0  0
  -29.6863   -9.7992   -5.9775 C   0  0  0  0  0  0  0  0  0  0  0  0
  -28.8394   -9.2905   -4.9926 C   0  0  0  0  0  0  0  0  0  0  0  0
  -28.8894   -7.9418   -4.6335 C   0  0  0  0  0  0  0  0  0  0  0  0
  -29.7241   -7.0678   -5.3129 C   0  0  0  0  0  0  0  0  0  0  0  0
  -30.6408   -7.6945   -6.1769 C   0  0  0  0  0  0  0  0  0  0  0  0
  -32.7856   -8.9669   -7.4058 C   0  0  0  0  0  0  0  0  0  0  0  0
  -31.4273   -9.3204   -7.6254 O   0  0  0  0  0  0  0  0  0  0  0  0
  -27.8937  -10.0489   -4.3642 O   0  0  0  0  0  0  0  0  0  0  0  0
  -26.5635   -9.8934   -4.8677 C   0  0  0  0  0  0  0  0  0  0  0  0
  -25.6390   -9.6242   -3.7065 C   0  0  0  0  0  0  0  0  0  0  0  0
  -25.1873   -8.3450   -3.7710 F   0  0  0  0  0  0  0  0  0  0  0  0
  -30.1436   -5.0898   -3.8418 C   0  0  0  0  0  0  0  0  0  0  0  0
  -31.6423   -5.2887   -3.6637 C   0  0  0  0  0  0  0  0  0  0  0  0
  -32.0902   -5.4717   -2.3352 O   0  0  0  0  0  0  0  0  0  0  0  0
  -31.6846   -6.3170   -2.0750 H   0  0  0  0  0  0  0  0  0  0  0  0
 24 25  1  0  0  0
 25 18  1  0  0  0
 18 19  1  0  0  0
 18 23  2  0  0  0
 19 20  2  0  0  0
 20 26  1  0  0  0
 20 21  1  0  0  0
 26 27  1  0  0  0
 27 28  1  0  0  0
 28 29  1  0  0  0
 21 22  2  0  0  0
 22  1  1  0  0  0
 22 23  1  0  0  0
  1 30  1  0  0  0
  1  2  1  0  0  0
 30 31  1  0  0  0
 31 32  1  0  0  0
 32 33  1  0  0  0
  2  3  1  0  0  0
  2 11  2  0  0  0
  3  4  2  0  0  0
  4  5  1  0  0  0
  5  6  1  0  0  0
  5 10  2  0  0  0
  6  7  2  0  0  0
  7  8  1  0  0  0
  8 12  1  0  0  0
  8  9  2  0  0  0
 12 13  1  0  0  0
 12 17  2  0  0  0
 13 14  2  0  0  0
 14 15  1  0  0  0
 15 16  1  0  0  0
 15 17  1  0  0  0
  9 10  1  0  0  0
 10 11  1  0  0  0
M  END
> <minimizedAffinity>
-8.20670

$$$$
