CHEMBL3656056


 29 32  0  0  0  0  0  0  0  0999 V2000
  -26.3178   -2.0271  -11.7323 C   0  0  0  0  0  0  0  0  0  0  0  0
  -27.1492   -1.9891  -12.8540 C   0  0  0  0  0  0  0  0  0  0  0  0
  -26.6286   -1.7322  -14.1223 C   0  0  0  0  0  0  0  0  0  0  0  0
  -25.2686   -1.4889  -14.2809 C   0  0  0  0  0  0  0  0  0  0  0  0
  -24.4428   -1.4051  -13.1590 C   0  0  0  0  0  0  0  0  0  0  0  0
  -24.9641   -1.6984  -11.8900 C   0  0  0  0  0  0  0  0  0  0  0  0
  -27.7498   -1.7382   -9.6957 C   0  0  0  0  0  0  0  0  0  0  0  0
  -28.3632   -0.7361  -10.0556 O   0  0  0  0  0  0  0  0  0  0  0  0
  -26.7790   -2.3884  -10.4483 N   0  0  0  0  0  0  0  0  0  0  0  0
  -26.4504   -3.2652  -10.0566 H   0  0  0  0  0  0  0  0  0  0  0  0
  -27.7365   -0.4856   -6.6935 C   0  0  0  0  0  0  0  0  0  0  0  0
  -28.0204   -1.8804   -7.1218 C   0  0  0  0  0  0  0  0  0  0  0  0
  -28.3452   -2.9797   -6.2795 C   0  0  0  0  0  0  0  0  0  0  0  0
  -28.5315   -4.0626   -7.1030 C   0  0  0  0  0  0  0  0  0  0  0  0
  -28.3483   -3.7127   -8.4005 O   0  0  0  0  0  0  0  0  0  0  0  0
  -28.0229   -2.3800   -8.4189 C   0  0  0  0  0  0  0  0  0  0  0  0
  -23.0956   -1.1113  -13.2156 O   0  0  0  0  0  0  0  0  0  0  0  0
  -22.6808    0.1591  -13.5554 C   0  0  0  0  0  0  0  0  0  0  0  0
  -23.4321    1.3123  -13.3487 C   0  0  0  0  0  0  0  0  0  0  0  0
  -22.8981    2.5203  -13.7597 C   0  0  0  0  0  0  0  0  0  0  0  0
  -21.6673    2.6553  -14.2992 N   0  0  0  0  0  0  0  0  0  0  0  0
  -20.9275    1.5265  -14.4304 C   0  0  0  0  0  0  0  0  0  0  0  0
  -21.3943    0.2678  -14.0763 C   0  0  0  0  0  0  0  0  0  0  0  0
  -19.5836    1.7466  -14.9592 C   0  0  0  0  0  0  0  0  0  0  0  0
  -18.4655    0.9322  -15.0249 C   0  0  0  0  0  0  0  0  0  0  0  0
  -17.4109    1.6735  -15.6132 C   0  0  0  0  0  0  0  0  0  0  0  0
  -17.9051    2.9240  -15.9030 C   0  0  0  0  0  0  0  0  0  0  0  0
  -19.2170    2.9547  -15.5137 N   0  0  0  0  0  0  0  0  0  0  0  0
  -19.8522    3.7399  -15.5965 H   0  0  0  0  0  0  0  0  0  0  0  0
 11 12  1  0  0  0
 12 13  1  0  0  0
 12 16  2  0  0  0
 13 14  2  0  0  0
 14 15  1  0  0  0
 15 16  1  0  0  0
 16  7  1  0  0  0
  7  8  2  0  0  0
  7  9  1  0  0  0
  9  1  1  0  0  0
  9 10  1  0  0  0
  1  2  1  0  0  0
  1  6  2  0  0  0
  2  3  2  0  0  0
  3  4  1  0  0  0
  4  5  2  0  0  0
  5 17  1  0  0  0
  5  6  1  0  0  0
 17 18  1  0  0  0
 18 19  1  0  0  0
 18 23  2  0  0  0
 19 20  2  0  0  0
 20 21  1  0  0  0
 21 22  2  0  0  0
 22 24  1  0  0  0
 22 23  1  0  0  0
 24 25  2  0  0  0
 24 28  1  0  0  0
 25 26  1  0  0  0
 26 27  2  0  0  0
 27 28  1  0  0  0
 28 29  1  0  0  0
M  END
> <minimizedAffinity>
-9.95943

$$$$
