CHEMBL447602


 46 51  0  0  0  0  0  0  0  0999 V2000
  -12.6167    1.8853  -16.0343 O   0  0  0  0  0  0  0  0  0  0  0  0
  -16.4963    1.2997  -14.2612 C   0  0  0  0  0  0  0  0  0  0  0  0
  -15.2168    1.6342  -14.6843 C   0  0  0  0  0  0  0  0  0  0  0  0
  -15.0111    2.4565  -15.7905 C   0  0  0  0  0  0  0  0  0  0  0  0
  -13.7524    2.5705  -16.4272 C   0  0  0  0  0  0  0  0  0  0  0  0
  -13.5986    3.4314  -17.5040 C   0  0  0  0  0  0  0  0  0  0  0  0
  -14.7156    4.1130  -17.9438 C   0  0  0  0  0  0  0  0  0  0  0  0
  -15.9463    3.9841  -17.3924 N   0  0  0  0  0  0  0  0  0  0  0  0
  -16.0951    3.1557  -16.3422 C   0  0  0  0  0  0  0  0  0  0  0  0
  -17.3627    2.9589  -15.7811 C   0  0  0  0  0  0  0  0  0  0  0  0
  -17.5741    2.0372  -14.7434 C   0  0  0  0  0  0  0  0  0  0  0  0
  -15.4760   -0.4007  -13.0213 C   0  0  0  0  0  0  0  0  0  0  0  0
  -16.6946    0.2338  -13.4221 O   0  0  0  0  0  0  0  0  0  0  0  0
  -18.8694    1.9323  -14.3082 O   0  0  0  0  0  0  0  0  0  0  0  0
  -19.7671    1.3453  -15.2580 C   0  0  0  0  0  0  0  0  0  0  0  0
  -21.1964    1.4476  -14.7377 C   0  0  0  0  0  0  0  0  0  0  0  0
  -21.6231    0.1561  -14.0300 C   0  0  0  0  0  0  0  0  0  0  0  0
  -22.7549    0.3492  -13.1079 N   0  0  0  0  0  0  0  0  0  0  0  0
  -22.8708   -0.7033  -12.0737 C   0  0  0  0  0  0  0  0  0  0  0  0
  -23.3858   -2.0588  -12.5885 C   0  0  0  0  0  0  0  0  0  0  0  0
  -24.6229   -1.9236  -13.2997 O   0  0  0  0  0  0  0  0  0  0  0  0
  -24.4922   -0.9849  -14.3739 C   0  0  0  0  0  0  0  0  0  0  0  0
  -24.0366    0.3892  -13.8523 C   0  0  0  0  0  0  0  0  0  0  0  0
  -12.6252    0.5083  -16.0002 C   0  0  0  0  0  0  0  0  0  0  0  0
  -12.2111   -0.0890  -14.8128 C   0  0  0  0  0  0  0  0  0  0  0  0
  -12.2496   -1.4806  -14.6742 C   0  0  0  0  0  0  0  0  0  0  0  0
  -12.6999   -2.2611  -15.7332 C   0  0  0  0  0  0  0  0  0  0  0  0
  -13.0901   -1.6881  -16.9036 N   0  0  0  0  0  0  0  0  0  0  0  0
  -13.0323   -0.3373  -17.0196 C   0  0  0  0  0  0  0  0  0  0  0  0
  -12.7199   -3.7360  -15.6976 C   0  0  0  0  0  0  0  0  0  0  0  0
  -11.7830   -4.4437  -16.3392 C   0  0  0  0  0  0  0  0  0  0  0  0
  -11.6881   -5.7971  -16.3580 N   0  0  0  0  0  0  0  0  0  0  0  0
  -12.4629   -6.5171  -15.6023 C   0  0  0  0  0  0  0  0  0  0  0  0
  -13.4071   -5.9002  -14.7880 N   0  0  0  0  0  0  0  0  0  0  0  0
  -14.2801   -6.6329  -13.8864 C   0  0  0  0  0  0  0  0  0  0  0  0
  -13.7222   -4.5547  -14.9712 C   0  0  0  0  0  0  0  0  0  0  0  0
  -14.7767   -4.0576  -14.5748 O   0  0  0  0  0  0  0  0  0  0  0  0
  -12.3349   -7.8969  -15.6143 N   0  0  0  0  0  0  0  0  0  0  0  0
  -11.6251   -8.3346  -15.0504 H   0  0  0  0  0  0  0  0  0  0  0  0
  -12.9485   -8.7476  -16.5623 C   0  0  0  0  0  0  0  0  0  0  0  0
  -12.9462  -10.1373  -16.3738 C   0  0  0  0  0  0  0  0  0  0  0  0
  -13.4222  -10.9911  -17.3779 C   0  0  0  0  0  0  0  0  0  0  0  0
  -13.9018  -10.4608  -18.5699 C   0  0  0  0  0  0  0  0  0  0  0  0
  -14.3192  -11.2815  -19.5420 F   0  0  0  0  0  0  0  0  0  0  0  0
  -13.9415   -9.0918  -18.7705 C   0  0  0  0  0  0  0  0  0  0  0  0
  -13.4706   -8.2435  -17.7667 C   0  0  0  0  0  0  0  0  0  0  0  0
 12 13  1  0  0  0
 13  2  1  0  0  0
  2  3  1  0  0  0
  2 11  2  0  0  0
  3  4  2  0  0  0
  4  5  1  0  0  0
  4  9  1  0  0  0
  5  1  1  0  0  0
  5  6  2  0  0  0
  1 24  1  0  0  0
 24 25  1  0  0  0
 24 29  2  0  0  0
 25 26  2  0  0  0
 26 27  1  0  0  0
 27 30  1  0  0  0
 27 28  2  0  0  0
 30 31  2  0  0  0
 30 36  1  0  0  0
 31 32  1  0  0  0
 32 33  2  0  0  0
 33 38  1  0  0  0
 33 34  1  0  0  0
 38 40  1  0  0  0
 38 39  1  0  0  0
 40 41  1  0  0  0
 40 46  2  0  0  0
 41 42  2  0  0  0
 42 43  1  0  0  0
 43 44  1  0  0  0
 43 45  2  0  0  0
 45 46  1  0  0  0
 34 35  1  0  0  0
 34 36  1  0  0  0
 36 37  2  0  0  0
 28 29  1  0  0  0
  6  7  1  0  0  0
  7  8  2  0  0  0
  8  9  1  0  0  0
  9 10  2  0  0  0
 10 11  1  0  0  0
 11 14  1  0  0  0
 14 15  1  0  0  0
 15 16  1  0  0  0
 16 17  1  0  0  0
 17 18  1  0  0  0
 18 19  1  0  0  0
 18 23  1  0  0  0
 19 20  1  0  0  0
 20 21  1  0  0  0
 21 22  1  0  0  0
 22 23  1  0  0  0
M  END
> <minimizedAffinity>
-7.34372

$$$$
