CHEMBL3973002


 41 44  0  0  0  0  0  0  0  0999 V2000
  -19.5112    2.2150  -15.2017 C   0  0  0  0  0  0  0  0  0  0  0  0
  -19.9516    0.8835  -15.1819 C   0  0  0  0  0  0  0  0  0  0  0  0
  -21.2115    0.5491  -14.6834 C   0  0  0  0  0  0  0  0  0  0  0  0
  -22.0198    1.5322  -14.1120 C   0  0  0  0  0  0  0  0  0  0  0  0
  -21.5670    2.8560  -14.1165 C   0  0  0  0  0  0  0  0  0  0  0  0
  -22.3540    3.8344  -13.6443 F   0  0  0  0  0  0  0  0  0  0  0  0
  -20.3129    3.2031  -14.6351 C   0  0  0  0  0  0  0  0  0  0  0  0
  -16.0073    2.8230  -15.9611 N   0  0  0  0  0  0  0  0  0  0  0  0
  -17.1136    2.4842  -15.1990 C   0  0  0  0  0  0  0  0  0  0  0  0
  -17.0587    2.1202  -14.0278 O   0  0  0  0  0  0  0  0  0  0  0  0
  -18.3170    2.5728  -15.8885 N   0  0  0  0  0  0  0  0  0  0  0  0
  -16.1744    3.3492  -16.8071 H   0  0  0  0  0  0  0  0  0  0  0  0
  -18.2664    2.3360  -16.8696 H   0  0  0  0  0  0  0  0  0  0  0  0
  -12.8262    1.4258  -14.5765 C   0  0  0  0  0  0  0  0  0  0  0  0
  -14.1021    1.4962  -15.1286 C   0  0  0  0  0  0  0  0  0  0  0  0
  -14.6656    2.7179  -15.5015 C   0  0  0  0  0  0  0  0  0  0  0  0
  -13.8746    3.8694  -15.3928 C   0  0  0  0  0  0  0  0  0  0  0  0
  -12.5540    3.8000  -14.8859 C   0  0  0  0  0  0  0  0  0  0  0  0
  -12.0351    2.5621  -14.4714 C   0  0  0  0  0  0  0  0  0  0  0  0
  -13.7998   -1.0866  -13.8706 C   0  0  0  0  0  0  0  0  0  0  0  0
  -12.2893   -0.1391  -13.9352 S   0  0  0  0  0  0  0  0  0  0  0  0
  -11.8474    0.0784  -12.5749 O   0  0  0  0  0  0  0  0  0  0  0  0
  -11.4073   -0.7269  -14.9267 O   0  0  0  0  0  0  0  0  0  0  0  0
  -11.6914    5.0326  -14.7444 C   0  0  0  0  0  0  0  0  0  0  0  0
  -12.3948    6.1961  -14.8023 F   0  0  0  0  0  0  0  0  0  0  0  0
  -11.0238    5.0579  -13.5578 F   0  0  0  0  0  0  0  0  0  0  0  0
  -10.7403    5.1177  -15.7134 F   0  0  0  0  0  0  0  0  0  0  0  0
  -23.2749    1.2747  -13.5927 O   0  0  0  0  0  0  0  0  0  0  0  0
  -23.5394    0.0349  -13.0419 C   0  0  0  0  0  0  0  0  0  0  0  0
  -22.8433   -1.1193  -13.3931 C   0  0  0  0  0  0  0  0  0  0  0  0
  -23.2403   -2.3087  -12.8253 C   0  0  0  0  0  0  0  0  0  0  0  0
  -24.2139   -2.3976  -11.9025 N   0  0  0  0  0  0  0  0  0  0  0  0
  -24.8339   -1.2773  -11.4936 C   0  0  0  0  0  0  0  0  0  0  0  0
  -24.5291   -0.0363  -12.0500 C   0  0  0  0  0  0  0  0  0  0  0  0
  -25.8049   -1.3630  -10.4748 N   0  0  0  0  0  0  0  0  0  0  0  0
  -27.1469   -1.5824  -10.7156 C   0  0  0  0  0  0  0  0  0  0  0  0
  -27.6967   -1.6996  -11.8024 O   0  0  0  0  0  0  0  0  0  0  0  0
  -25.4845   -1.2987   -9.5231 H   0  0  0  0  0  0  0  0  0  0  0  0
  -28.0351   -1.7045   -9.5195 C   0  0  0  0  0  0  0  0  0  0  0  0
  -27.6660   -1.4859   -8.0775 C   0  0  0  0  0  0  0  0  0  0  0  0
  -27.8633   -2.8839   -8.5898 C   0  0  0  0  0  0  0  0  0  0  0  0
 20 21  1  0  0  0
 21 22  2  0  0  0
 21 23  2  0  0  0
 21 14  1  0  0  0
 14 15  1  0  0  0
 14 19  2  0  0  0
 15 16  2  0  0  0
 16  8  1  0  0  0
 16 17  1  0  0  0
  8  9  1  0  0  0
  8 12  1  0  0  0
  9 10  2  0  0  0
  9 11  1  0  0  0
 11  1  1  0  0  0
 11 13  1  0  0  0
  1  2  1  0  0  0
  1  7  2  0  0  0
  2  3  2  0  0  0
  3  4  1  0  0  0
  4 28  1  0  0  0
  4  5  2  0  0  0
 28 29  1  0  0  0
 29 30  1  0  0  0
 29 34  2  0  0  0
 30 31  2  0  0  0
 31 32  1  0  0  0
 32 33  2  0  0  0
 33 35  1  0  0  0
 33 34  1  0  0  0
 35 36  1  0  0  0
 35 38  1  0  0  0
 36 37  2  0  0  0
 36 39  1  0  0  0
 39 40  1  0  0  0
 39 41  1  0  0  0
 40 41  1  0  0  0
  5  6  1  0  0  0
  5  7  1  0  0  0
 17 18  2  0  0  0
 18 24  1  0  0  0
 18 19  1  0  0  0
 24 25  1  0  0  0
 24 26  1  0  0  0
 24 27  1  0  0  0
M  END
> <minimizedAffinity>
-10.21974

$$$$
