CHEMBL203907


 23 25  0  0  0  0  0  0  0  0999 V2000
  -28.0765   -2.4704   -8.5816 C   0  0  0  0  0  0  0  0  0  0  0  0
  -28.3049   -3.6804   -7.9573 C   0  0  0  0  0  0  0  0  0  0  0  0
  -28.4841   -3.7276   -6.5927 C   0  0  0  0  0  0  0  0  0  0  0  0
  -28.3026   -2.6141   -5.8688 N   0  0  0  0  0  0  0  0  0  0  0  0
  -28.0066   -1.4892   -6.5396 C   0  0  0  0  0  0  0  0  0  0  0  0
  -27.8930   -1.3520   -7.8698 N   0  0  0  0  0  0  0  0  0  0  0  0
  -28.8432   -4.9131   -5.9801 N   0  0  0  0  0  0  0  0  0  0  0  0
  -28.7508   -5.0956   -4.5308 C   0  0  0  0  0  0  0  0  0  0  0  0
  -30.1161   -4.9819   -3.8649 C   0  0  0  0  0  0  0  0  0  0  0  0
  -31.2284   -5.8503   -4.4580 C   0  0  0  0  0  0  0  0  0  0  0  0
  -30.8119   -7.0480   -5.1977 N   0  0  0  0  0  0  0  0  0  0  0  0
  -30.4162   -6.7091   -6.5864 C   0  0  0  0  0  0  0  0  0  0  0  0
  -28.9954   -6.1328   -6.7653 C   0  0  0  0  0  0  0  0  0  0  0  0
  -31.6227   -7.6641   -5.2623 H   0  0  0  0  0  0  0  0  0  0  0  0
  -28.0680   -2.3441   -9.9814 N   0  0  0  0  0  0  0  0  0  0  0  0
  -28.6411   -3.0757  -10.3845 H   0  0  0  0  0  0  0  0  0  0  0  0
  -25.4599   -1.2737  -12.4650 C   0  0  0  0  0  0  0  0  0  0  0  0
  -24.9249   -1.3014  -11.2008 C   0  0  0  0  0  0  0  0  0  0  0  0
  -25.8114   -1.6185  -10.2049 N   0  0  0  0  0  0  0  0  0  0  0  0
  -27.0083   -1.8808  -10.6892 C   0  0  0  0  0  0  0  0  0  0  0  0
  -27.1333   -1.6286  -12.3929 S   0  0  0  0  0  0  0  0  0  0  0  0
  -24.1351   -0.8079  -14.6259 N   0  0  0  0  0  0  0  0  0  0  0  0
  -24.7335   -1.0016  -13.6488 C   0  0  0  0  0  0  0  0  0  0  0  0
 22 23  3  0  0  0
 23 17  1  0  0  0
 17 18  2  0  0  0
 17 21  1  0  0  0
 18 19  1  0  0  0
 19 20  2  0  0  0
 20 15  1  0  0  0
 20 21  1  0  0  0
 15  1  1  0  0  0
 15 16  1  0  0  0
  1  2  1  0  0  0
  1  6  2  0  0  0
  2  3  2  0  0  0
  3  7  1  0  0  0
  3  4  1  0  0  0
  7  8  1  0  0  0
  7 13  1  0  0  0
  8  9  1  0  0  0
  9 10  1  0  0  0
 10 11  1  0  0  0
 11 12  1  0  0  0
 11 14  1  0  0  0
 12 13  1  0  0  0
  4  5  2  0  0  0
  5  6  1  0  0  0
M  END
> <minimizedAffinity>
-7.24985

$$$$
