CHEMBL4107561


 35 37  0  0  0  0  0  0  0  0999 V2000
  -26.7077   -1.6500  -10.5833 C   0  0  0  0  0  0  0  0  0  0  0  0
  -27.1945   -1.7881   -9.4915 C   0  0  0  0  0  0  0  0  0  0  0  0
  -24.6099   -1.0752  -13.6820 C   0  0  0  0  0  0  0  0  0  0  0  0
  -25.5659   -1.4353  -14.6399 C   0  0  0  0  0  0  0  0  0  0  0  0
  -26.8512   -1.8254  -14.2719 C   0  0  0  0  0  0  0  0  0  0  0  0
  -27.2002   -1.8784  -12.9305 C   0  0  0  0  0  0  0  0  0  0  0  0
  -26.2567   -1.5739  -11.9454 C   0  0  0  0  0  0  0  0  0  0  0  0
  -24.9527   -1.1893  -12.3187 C   0  0  0  0  0  0  0  0  0  0  0  0
  -22.8869    0.7283  -13.9484 C   0  0  0  0  0  0  0  0  0  0  0  0
  -23.5601    1.6406  -13.4658 O   0  0  0  0  0  0  0  0  0  0  0  0
  -23.3251   -0.5945  -14.0617 N   0  0  0  0  0  0  0  0  0  0  0  0
  -22.6181   -1.2682  -14.3332 H   0  0  0  0  0  0  0  0  0  0  0  0
  -21.2785    3.5402  -14.1222 C   0  0  0  0  0  0  0  0  0  0  0  0
  -20.8157    2.1772  -14.4985 C   0  0  0  0  0  0  0  0  0  0  0  0
  -19.5468    1.8359  -15.0384 C   0  0  0  0  0  0  0  0  0  0  0  0
  -19.5572    0.4729  -15.2279 C   0  0  0  0  0  0  0  0  0  0  0  0
  -20.7476   -0.0565  -14.8431 O   0  0  0  0  0  0  0  0  0  0  0  0
  -21.5288    0.9819  -14.4037 C   0  0  0  0  0  0  0  0  0  0  0  0
  -27.7454   -1.9325   -8.1763 C   0  0  0  0  0  0  0  0  0  0  0  0
  -27.9074   -0.8568   -7.3132 C   0  0  0  0  0  0  0  0  0  0  0  0
  -28.5529   -0.9374   -6.1184 N   0  0  0  0  0  0  0  0  0  0  0  0
  -29.1068   -2.1381   -5.7978 C   0  0  0  0  0  0  0  0  0  0  0  0
  -28.9965   -3.2661   -6.5974 C   0  0  0  0  0  0  0  0  0  0  0  0
  -28.2390   -3.1675   -7.7718 C   0  0  0  0  0  0  0  0  0  0  0  0
  -29.7940   -4.5034   -6.3301 C   0  0  0  0  0  0  0  0  0  0  0  0
  -30.6483   -4.4848   -5.4530 O   0  0  0  0  0  0  0  0  0  0  0  0
  -29.5228   -5.6254   -7.1239 N   0  0  0  0  0  0  0  0  0  0  0  0
  -29.2635   -7.0826   -6.7309 S   0  0  0  0  0  0  0  0  0  0  0  0
  -28.2623   -7.1730   -5.2676 C   0  0  0  0  0  0  0  0  0  0  0  0
  -28.6714   -8.0216   -7.6693 O   0  0  0  0  0  0  0  0  0  0  0  0
  -30.7933   -7.8352   -6.1919 C   0  0  0  0  0  0  0  0  0  0  0  0
  -31.8055   -7.9522   -7.3296 C   0  0  0  0  0  0  0  0  0  0  0  0
  -32.3567   -9.3657   -7.4554 C   0  0  0  0  0  0  0  0  0  0  0  0
  -32.3437   -9.7847   -8.8130 O   0  0  0  0  0  0  0  0  0  0  0  0
  -32.9369   -9.1930   -9.3098 H   0  0  0  0  0  0  0  0  0  0  0  0
 13 14  1  0  0  0
 14 15  1  0  0  0
 14 18  2  0  0  0
 15 16  2  0  0  0
 16 17  1  0  0  0
 17 18  1  0  0  0
 18  9  1  0  0  0
  9 10  2  0  0  0
  9 11  1  0  0  0
 11  3  1  0  0  0
 11 12  1  0  0  0
  3  4  1  0  0  0
  3  8  2  0  0  0
  4  5  2  0  0  0
  5  6  1  0  0  0
  6  7  2  0  0  0
  7  1  1  0  0  0
  7  8  1  0  0  0
  1  2  3  0  0  0
  2 19  1  0  0  0
 19 20  1  0  0  0
 19 24  2  0  0  0
 20 21  2  0  0  0
 21 22  1  0  0  0
 22 23  2  0  0  0
 23 25  1  0  0  0
 23 24  1  0  0  0
 25 26  2  0  0  0
 25 27  1  0  0  0
 28 30  2  0  0  0
 28 31  1  0  0  0
 28 29  1  0  0  0
 28 27  2  0  0  0
 31 32  1  0  0  0
 32 33  1  0  0  0
 33 34  1  0  0  0
 34 35  1  0  0  0
M  END
> <minimizedAffinity>
-10.31942

$$$$
