CHEMBL3621299


 29 31  0  0  0  0  0  0  0  0999 V2000
  -21.8104    0.9415  -14.0431 C   0  0  0  0  0  0  0  0  0  0  0  0
  -22.2894    2.2621  -14.2089 C   0  0  0  0  0  0  0  0  0  0  0  0
  -21.4313    3.2948  -14.5801 C   0  0  0  0  0  0  0  0  0  0  0  0
  -20.1083    2.9665  -14.7885 C   0  0  0  0  0  0  0  0  0  0  0  0
  -19.6078    1.6647  -14.6534 C   0  0  0  0  0  0  0  0  0  0  0  0
  -20.4542    0.6313  -14.2742 C   0  0  0  0  0  0  0  0  0  0  0  0
  -18.1734    1.7560  -14.9957 C   0  0  0  0  0  0  0  0  0  0  0  0
  -17.3003    0.7396  -15.0897 C   0  0  0  0  0  0  0  0  0  0  0  0
  -17.8810    3.2163  -15.2728 C   0  0  0  0  0  0  0  0  0  0  0  0
  -16.8249    3.7641  -15.5175 O   0  0  0  0  0  0  0  0  0  0  0  0
  -19.1028    3.8521  -15.1499 N   0  0  0  0  0  0  0  0  0  0  0  0
  -19.2048    4.8450  -15.2907 H   0  0  0  0  0  0  0  0  0  0  0  0
  -15.9596    0.9250  -15.5116 C   0  0  0  0  0  0  0  0  0  0  0  0
  -15.7026    1.0534  -16.8561 N   0  0  0  0  0  0  0  0  0  0  0  0
  -14.3504    1.1769  -17.0693 C   0  0  0  0  0  0  0  0  0  0  0  0
  -13.7625    1.2695  -18.4281 C   0  0  0  0  0  0  0  0  0  0  0  0
  -13.7382    1.1476  -15.8343 C   0  0  0  0  0  0  0  0  0  0  0  0
  -14.7468    0.9824  -14.8429 C   0  0  0  0  0  0  0  0  0  0  0  0
  -14.5149    0.8454  -13.3819 C   0  0  0  0  0  0  0  0  0  0  0  0
  -16.3986    1.0065  -17.5867 H   0  0  0  0  0  0  0  0  0  0  0  0
  -22.7472   -0.5668  -12.3612 N   0  0  0  0  0  0  0  0  0  0  0  0
  -22.8171   -0.0856  -13.6518 C   0  0  0  0  0  0  0  0  0  0  0  0
  -23.6798   -0.4266  -14.4531 O   0  0  0  0  0  0  0  0  0  0  0  0
  -22.1187   -0.1335  -11.6992 H   0  0  0  0  0  0  0  0  0  0  0  0
  -23.7293   -1.5139  -11.8628 C   0  0  0  0  0  0  0  0  0  0  0  0
  -25.0388   -0.8465  -11.4426 C   0  0  0  0  0  0  0  0  0  0  0  0
  -26.2500   -1.7339  -11.7220 C   0  0  0  0  0  0  0  0  0  0  0  0
  -28.3217   -2.3615  -13.4316 C   0  0  0  0  0  0  0  0  0  0  0  0
  -26.6362   -1.7115  -13.5021 S   0  0  0  0  0  0  0  0  0  0  0  0
 28 29  1  0  0  0
 29 27  1  0  0  0
 27 26  1  0  0  0
 26 25  1  0  0  0
 25 21  1  0  0  0
 21 22  1  0  0  0
 21 24  1  0  0  0
 22 23  2  0  0  0
 22  1  1  0  0  0
  1  2  1  0  0  0
  1  6  2  0  0  0
  2  3  2  0  0  0
  3  4  1  0  0  0
  4  5  2  0  0  0
  4 11  1  0  0  0
  5  6  1  0  0  0
  5  7  1  0  0  0
  7  8  2  0  0  0
  7  9  1  0  0  0
  8 13  1  0  0  0
 13 14  1  0  0  0
 13 18  2  0  0  0
 14 15  1  0  0  0
 14 20  1  0  0  0
 15 16  1  0  0  0
 15 17  2  0  0  0
 17 18  1  0  0  0
 18 19  1  0  0  0
  9 10  2  0  0  0
  9 11  1  0  0  0
 11 12  1  0  0  0
M  END
> <minimizedAffinity>
-8.71701

$$$$
