CHEMBL2086748


 38 43  0  0  0  0  0  0  0  0999 V2000
  -13.6502   -4.9492  -11.5218 C   0  0  0  0  0  0  0  0  0  0  0  0
  -14.5425   -4.8112  -10.4385 C   0  0  0  0  0  0  0  0  0  0  0  0
  -15.3488   -3.6754  -10.3542 C   0  0  0  0  0  0  0  0  0  0  0  0
  -15.1981   -2.6974  -11.3266 C   0  0  0  0  0  0  0  0  0  0  0  0
  -14.3100   -2.7977  -12.4128 C   0  0  0  0  0  0  0  0  0  0  0  0
  -13.5360   -3.9505  -12.5143 C   0  0  0  0  0  0  0  0  0  0  0  0
  -14.4856   -1.5376  -13.2174 C   0  0  0  0  0  0  0  0  0  0  0  0
  -13.8921   -1.1095  -14.3670 C   0  0  0  0  0  0  0  0  0  0  0  0
  -15.5711   -0.7517  -12.4915 C   0  0  0  0  0  0  0  0  0  0  0  0
  -16.0719    0.3156  -12.7842 O   0  0  0  0  0  0  0  0  0  0  0  0
  -15.9162   -1.5133  -11.3878 N   0  0  0  0  0  0  0  0  0  0  0  0
  -16.6454   -1.2337  -10.7472 H   0  0  0  0  0  0  0  0  0  0  0  0
  -14.1422    0.2090  -14.9308 C   0  0  0  0  0  0  0  0  0  0  0  0
  -13.5204    1.3814  -14.8425 N   0  0  0  0  0  0  0  0  0  0  0  0
  -14.3782    2.3331  -15.3932 C   0  0  0  0  0  0  0  0  0  0  0  0
  -14.2710    3.7219  -15.5860 C   0  0  0  0  0  0  0  0  0  0  0  0
  -15.3850    4.4497  -16.0528 C   0  0  0  0  0  0  0  0  0  0  0  0
  -16.5858    3.8032  -16.3646 C   0  0  0  0  0  0  0  0  0  0  0  0
  -16.6884    2.4152  -16.2640 C   0  0  0  0  0  0  0  0  0  0  0  0
  -15.5744    1.7241  -15.7734 C   0  0  0  0  0  0  0  0  0  0  0  0
  -15.3559    0.3854  -15.5618 N   0  0  0  0  0  0  0  0  0  0  0  0
  -16.0135   -0.3388  -15.7858 H   0  0  0  0  0  0  0  0  0  0  0  0
  -12.9476   -2.0158  -15.0810 C   0  0  0  0  0  0  0  0  0  0  0  0
  -13.4577   -2.9498  -15.9955 C   0  0  0  0  0  0  0  0  0  0  0  0
  -12.5982   -3.7566  -16.7457 C   0  0  0  0  0  0  0  0  0  0  0  0
  -11.2185   -3.6163  -16.6137 C   0  0  0  0  0  0  0  0  0  0  0  0
  -10.6972   -2.6943  -15.7064 C   0  0  0  0  0  0  0  0  0  0  0  0
  -11.5563   -1.9112  -14.9253 C   0  0  0  0  0  0  0  0  0  0  0  0
  -12.6172   -6.4097  -11.6050 S   0  0  0  0  0  0  0  0  0  0  0  0
  -11.9438   -6.5378  -10.3397 O   0  0  0  0  0  0  0  0  0  0  0  0
  -11.8440   -6.3079  -12.8255 O   0  0  0  0  0  0  0  0  0  0  0  0
  -13.0600   -9.0640  -15.8130 C   0  0  0  0  0  0  0  0  0  0  0  0
  -13.6366   -8.9748  -14.4714 N   0  0  0  0  0  0  0  0  0  0  0  0
  -12.5971   -9.2283  -13.4526 C   0  0  0  0  0  0  0  0  0  0  0  0
  -13.1551   -9.0821  -12.0234 C   0  0  0  0  0  0  0  0  0  0  0  0
  -13.7089   -7.7128  -11.7877 N   0  0  0  0  0  0  0  0  0  0  0  0
  -14.7874   -7.4660  -12.8085 C   0  0  0  0  0  0  0  0  0  0  0  0
  -14.2705   -7.6544  -14.2541 C   0  0  0  0  0  0  0  0  0  0  0  0
 32 33  1  0  0  0
 33 34  1  0  0  0
 33 38  1  0  0  0
 34 35  1  0  0  0
 35 36  1  0  0  0
 36 29  1  0  0  0
 36 37  1  0  0  0
 29 30  2  0  0  0
 29 31  2  0  0  0
 29  1  1  0  0  0
  1  2  1  0  0  0
  1  6  2  0  0  0
  2  3  2  0  0  0
  3  4  1  0  0  0
  4  5  2  0  0  0
  4 11  1  0  0  0
  5  6  1  0  0  0
  5  7  1  0  0  0
  7  8  2  0  0  0
  7  9  1  0  0  0
  8 23  1  0  0  0
  8 13  1  0  0  0
 23 24  1  0  0  0
 23 28  2  0  0  0
 24 25  2  0  0  0
 25 26  1  0  0  0
 26 27  2  0  0  0
 27 28  1  0  0  0
 13 14  2  0  0  0
 13 21  1  0  0  0
 14 15  1  0  0  0
 15 16  1  0  0  0
 15 20  2  0  0  0
 16 17  2  0  0  0
 17 18  1  0  0  0
 18 19  2  0  0  0
 19 20  1  0  0  0
 20 21  1  0  0  0
 21 22  1  0  0  0
  9 10  2  0  0  0
  9 11  1  0  0  0
 11 12  1  0  0  0
 37 38  1  0  0  0
M  END
> <minimizedAffinity>
-7.84204

$$$$
