CHEMBL3676347


 40 42  0  0  0  0  0  0  0  0999 V2000
  -17.2724    1.1981  -14.9443 C   0  0  0  0  0  0  0  0  0  0  0  0
  -16.7647    0.3155  -13.9932 C   0  0  0  0  0  0  0  0  0  0  0  0
  -15.3710    0.0841  -13.8915 C   0  0  0  0  0  0  0  0  0  0  0  0
  -14.7749   -0.8731  -13.0542 C   0  0  0  0  0  0  0  0  0  0  0  0
  -13.4466   -1.0109  -12.9488 N   0  0  0  0  0  0  0  0  0  0  0  0
  -12.7075   -0.2182  -13.7270 C   0  0  0  0  0  0  0  0  0  0  0  0
  -13.1575    0.7002  -14.5849 N   0  0  0  0  0  0  0  0  0  0  0  0
  -14.4868    0.8442  -14.6658 C   0  0  0  0  0  0  0  0  0  0  0  0
  -15.0116    1.7858  -15.5395 C   0  0  0  0  0  0  0  0  0  0  0  0
  -16.3903    1.9944  -15.6830 C   0  0  0  0  0  0  0  0  0  0  0  0
  -19.4580    2.2168  -14.6638 C   0  0  0  0  0  0  0  0  0  0  0  0
  -19.0640    3.2248  -14.0908 O   0  0  0  0  0  0  0  0  0  0  0  0
  -18.6656    1.1918  -15.1348 N   0  0  0  0  0  0  0  0  0  0  0  0
  -19.0407    0.6362  -15.8996 H   0  0  0  0  0  0  0  0  0  0  0  0
  -21.5271    0.9090  -14.4986 C   0  0  0  0  0  0  0  0  0  0  0  0
  -20.8978    1.9918  -14.9744 C   0  0  0  0  0  0  0  0  0  0  0  0
  -15.6056   -1.7544  -12.3255 N   0  0  0  0  0  0  0  0  0  0  0  0
  -16.5082   -1.3307  -12.1249 H   0  0  0  0  0  0  0  0  0  0  0  0
  -15.6456   -3.1620  -12.3901 C   0  0  0  0  0  0  0  0  0  0  0  0
  -16.0801   -3.8275  -13.5446 C   0  0  0  0  0  0  0  0  0  0  0  0
  -15.8537   -5.1964  -13.7115 C   0  0  0  0  0  0  0  0  0  0  0  0
  -15.2050   -5.9176  -12.7103 C   0  0  0  0  0  0  0  0  0  0  0  0
  -14.7418   -7.7226  -13.0278 Br  0  0  0  0  0  0  0  0  0  0  0  0
  -14.8509   -5.2903  -11.5204 C   0  0  0  0  0  0  0  0  0  0  0  0
  -14.2525   -5.9782  -10.5356 F   0  0  0  0  0  0  0  0  0  0  0  0
  -15.0671   -3.9250  -11.3669 C   0  0  0  0  0  0  0  0  0  0  0  0
  -14.6764   -3.3155  -10.2347 F   0  0  0  0  0  0  0  0  0  0  0  0
  -16.7010    3.0383  -16.5111 O   0  0  0  0  0  0  0  0  0  0  0  0
  -15.8880    4.2110  -16.4880 C   0  0  0  0  0  0  0  0  0  0  0  0
  -15.3513    4.6557  -17.8536 C   0  0  0  0  0  0  0  0  0  0  0  0
  -14.8867    6.0270  -17.8358 N   0  0  0  0  0  0  0  0  0  0  0  0
  -14.4793    6.6797  -18.9797 C   0  0  0  0  0  0  0  0  0  0  0  0
  -14.4840    6.1600  -20.0990 O   0  0  0  0  0  0  0  0  0  0  0  0
  -14.9069    6.5516  -16.9597 H   0  0  0  0  0  0  0  0  0  0  0  0
  -14.0354    8.1037  -18.7585 C   0  0  0  0  0  0  0  0  0  0  0  0
  -12.5166    8.2010  -18.6120 C   0  0  0  0  0  0  0  0  0  0  0  0
  -12.0251    8.3447  -17.1628 C   0  0  0  0  0  0  0  0  0  0  0  0
  -12.1687    7.1107  -16.3664 N   0  0  0  0  0  0  0  0  0  0  0  0
  -11.2997    6.0445  -16.8831 C   0  0  0  0  0  0  0  0  0  0  0  0
  -11.8164    7.3769  -14.9661 C   0  0  0  0  0  0  0  0  0  0  0  0
 15 16  2  0  0  0
 16 11  1  0  0  0
 11 12  2  0  0  0
 11 13  1  0  0  0
 13  1  1  0  0  0
 13 14  1  0  0  0
  1  2  1  0  0  0
  1 10  2  0  0  0
  2  3  2  0  0  0
  3  4  1  0  0  0
  3  8  1  0  0  0
  4 17  1  0  0  0
  4  5  2  0  0  0
 17 19  1  0  0  0
 17 18  1  0  0  0
 19 20  1  0  0  0
 19 26  2  0  0  0
 20 21  2  0  0  0
 21 22  1  0  0  0
 22 23  1  0  0  0
 22 24  2  0  0  0
 24 25  1  0  0  0
 24 26  1  0  0  0
 26 27  1  0  0  0
  5  6  1  0  0  0
  6  7  2  0  0  0
  7  8  1  0  0  0
  8  9  2  0  0  0
  9 10  1  0  0  0
 10 28  1  0  0  0
 28 29  1  0  0  0
 29 30  1  0  0  0
 30 31  1  0  0  0
 31 32  1  0  0  0
 31 34  1  0  0  0
 32 33  2  0  0  0
 32 35  1  0  0  0
 35 36  1  0  0  0
 36 37  1  0  0  0
 37 38  1  0  0  0
 38 39  1  0  0  0
 38 40  1  0  0  0
M  END
> <minimizedAffinity>
-7.34041

$$$$
