CHEMBL3938643


 36 38  0  0  0  0  0  0  0  0999 V2000
  -25.2495   -0.8447  -12.5097 C   0  0  0  0  0  0  0  0  0  0  0  0
  -26.0621   -1.3454  -13.5359 C   0  0  0  0  0  0  0  0  0  0  0  0
  -27.2464   -2.0192  -13.2422 C   0  0  0  0  0  0  0  0  0  0  0  0
  -27.6590   -2.1705  -11.9275 C   0  0  0  0  0  0  0  0  0  0  0  0
  -26.8599   -1.6749  -10.8756 C   0  0  0  0  0  0  0  0  0  0  0  0
  -25.6192   -1.0788  -11.1825 C   0  0  0  0  0  0  0  0  0  0  0  0
  -23.4912    0.0585  -14.0173 C   0  0  0  0  0  0  0  0  0  0  0  0
  -23.8701   -0.5082  -15.0393 O   0  0  0  0  0  0  0  0  0  0  0  0
  -24.1015   -0.0505  -12.7728 N   0  0  0  0  0  0  0  0  0  0  0  0
  -23.8196    0.6002  -12.0463 H   0  0  0  0  0  0  0  0  0  0  0  0
  -18.6617    0.5582  -15.1975 C   0  0  0  0  0  0  0  0  0  0  0  0
  -19.9449    1.1869  -14.7345 C   0  0  0  0  0  0  0  0  0  0  0  0
  -20.0153    2.5497  -14.4391 C   0  0  0  0  0  0  0  0  0  0  0  0
  -21.2216    3.1156  -14.0163 C   0  0  0  0  0  0  0  0  0  0  0  0
  -22.3638    2.3275  -13.8805 C   0  0  0  0  0  0  0  0  0  0  0  0
  -23.4954    2.9185  -13.4819 F   0  0  0  0  0  0  0  0  0  0  0  0
  -22.3183    0.9684  -14.1588 C   0  0  0  0  0  0  0  0  0  0  0  0
  -21.1001    0.4046  -14.5917 C   0  0  0  0  0  0  0  0  0  0  0  0
  -27.3445   -1.6778   -9.5268 C   0  0  0  0  0  0  0  0  0  0  0  0
  -27.7539   -1.6403   -8.3983 C   0  0  0  0  0  0  0  0  0  0  0  0
  -28.2642   -1.6987   -7.0427 C   0  0  0  0  0  0  0  0  0  0  0  0
  -28.7227   -2.9140   -6.5215 C   0  0  0  0  0  0  0  0  0  0  0  0
  -28.8632   -3.0551   -5.1369 C   0  0  0  0  0  0  0  0  0  0  0  0
  -28.7622   -1.9115   -4.3567 C   0  0  0  0  0  0  0  0  0  0  0  0
  -28.4758   -0.6832   -4.8575 N   0  0  0  0  0  0  0  0  0  0  0  0
  -28.1781   -0.6012   -6.1717 C   0  0  0  0  0  0  0  0  0  0  0  0
  -27.6389    0.6172   -6.5833 N   0  0  0  0  0  0  0  0  0  0  0  0
  -27.7793    1.2971   -5.8436 H   0  0  0  0  0  0  0  0  0  0  0  0
  -27.9634    0.9134   -7.4919 H   0  0  0  0  0  0  0  0  0  0  0  0
  -28.9008   -4.4117   -4.5094 C   0  0  0  0  0  0  0  0  0  0  0  0
  -28.5092   -4.4931   -3.3497 O   0  0  0  0  0  0  0  0  0  0  0  0
  -29.3251   -5.5401   -5.2411 N   0  0  0  0  0  0  0  0  0  0  0  0
  -29.3179   -6.9572   -4.6141 S   0  0  0  0  0  0  0  0  0  0  0  0
  -27.6686   -7.6118   -4.6776 C   0  0  0  0  0  0  0  0  0  0  0  0
  -30.1177   -8.0349   -5.7850 C   0  0  0  0  0  0  0  0  0  0  0  0
  -29.8670   -7.2877   -3.3171 O   0  0  0  0  0  0  0  0  0  0  0  0
 11 12  1  0  0  0
 12 13  1  0  0  0
 12 18  2  0  0  0
 13 14  2  0  0  0
 14 15  1  0  0  0
 15 16  1  0  0  0
 15 17  2  0  0  0
 17  7  1  0  0  0
 17 18  1  0  0  0
  7  8  2  0  0  0
  7  9  1  0  0  0
  9  1  1  0  0  0
  9 10  1  0  0  0
  1  2  1  0  0  0
  1  6  2  0  0  0
  2  3  2  0  0  0
  3  4  1  0  0  0
  4  5  2  0  0  0
  5 19  1  0  0  0
  5  6  1  0  0  0
 19 20  3  0  0  0
 20 21  1  0  0  0
 21 22  1  0  0  0
 21 26  2  0  0  0
 22 23  2  0  0  0
 23 30  1  0  0  0
 23 24  1  0  0  0
 30 31  2  0  0  0
 30 32  1  0  0  0
 32 33  2  0  0  0
 33 34  1  0  0  0
 33 35  1  0  0  0
 33 36  2  0  0  0
 24 25  2  0  0  0
 25 26  1  0  0  0
 26 27  1  0  0  0
 27 28  1  0  0  0
 27 29  1  0  0  0
M  END
> <minimizedAffinity>
-11.41287

$$$$
