CHEMBL3644031


 29 31  0  0  0  0  0  0  0  0999 V2000
  -30.7101   -6.4767   -5.2242 C   0  0  0  0  0  0  0  0  0  0  0  0
  -31.4618   -6.1636   -4.1706 N   0  0  0  0  0  0  0  0  0  0  0  0
  -31.1858   -4.9891   -3.5632 C   0  0  0  0  0  0  0  0  0  0  0  0
  -30.1878   -4.1215   -3.9585 C   0  0  0  0  0  0  0  0  0  0  0  0
  -29.4970   -4.5229   -5.0797 C   0  0  0  0  0  0  0  0  0  0  0  0
  -29.7527   -5.6757   -5.7014 N   0  0  0  0  0  0  0  0  0  0  0  0
  -29.9179   -2.8780   -3.2020 C   0  0  0  0  0  0  0  0  0  0  0  0
  -30.0582   -1.7613   -3.9769 F   0  0  0  0  0  0  0  0  0  0  0  0
  -30.7625   -2.6871   -2.1534 F   0  0  0  0  0  0  0  0  0  0  0  0
  -28.6551   -2.8053   -2.7025 F   0  0  0  0  0  0  0  0  0  0  0  0
  -30.9133   -7.7189   -5.8332 N   0  0  0  0  0  0  0  0  0  0  0  0
  -31.3019   -8.3415   -5.1360 H   0  0  0  0  0  0  0  0  0  0  0  0
  -28.1367   -9.5865   -8.3830 C   0  0  0  0  0  0  0  0  0  0  0  0
  -29.2430   -8.9505   -8.9417 C   0  0  0  0  0  0  0  0  0  0  0  0
  -30.1620   -8.3186   -8.1022 C   0  0  0  0  0  0  0  0  0  0  0  0
  -29.9987   -8.3390   -6.7066 C   0  0  0  0  0  0  0  0  0  0  0  0
  -28.8631   -8.9545   -6.1700 C   0  0  0  0  0  0  0  0  0  0  0  0
  -27.9421   -9.5964   -7.0007 C   0  0  0  0  0  0  0  0  0  0  0  0
  -27.9662  -11.7953  -10.0592 C   0  0  0  0  0  0  0  0  0  0  0  0
  -26.9988  -10.4410   -9.4440 S   0  0  0  0  0  0  0  0  0  0  0  0
  -25.9424  -10.9802   -8.6103 O   0  0  0  0  0  0  0  0  0  0  0  0
  -26.6903   -9.5635  -10.5577 O   0  0  0  0  0  0  0  0  0  0  0  0
  -28.4447   -3.7761   -5.5577 O   0  0  0  0  0  0  0  0  0  0  0  0
  -28.7725   -2.8637   -6.6489 C   0  0  0  0  0  0  0  0  0  0  0  0
  -28.4540   -3.5840   -7.9712 C   0  0  0  0  0  0  0  0  0  0  0  0
  -28.2061   -2.6665   -9.1654 C   0  0  0  0  0  0  0  0  0  0  0  0
  -27.2414   -1.5387   -8.8343 C   0  0  0  0  0  0  0  0  0  0  0  0
  -27.7619   -0.7138   -7.6676 C   0  0  0  0  0  0  0  0  0  0  0  0
  -27.9912   -1.5610   -6.4231 C   0  0  0  0  0  0  0  0  0  0  0  0
 19 20  1  0  0  0
 20 21  2  0  0  0
 20 22  2  0  0  0
 20 13  1  0  0  0
 13 14  1  0  0  0
 13 18  2  0  0  0
 14 15  2  0  0  0
 15 16  1  0  0  0
 16 11  1  0  0  0
 16 17  2  0  0  0
 11  1  1  0  0  0
 11 12  1  0  0  0
  1  2  1  0  0  0
  1  6  2  0  0  0
  2  3  2  0  0  0
  3  4  1  0  0  0
  4  7  1  0  0  0
  4  5  2  0  0  0
  7  8  1  0  0  0
  7  9  1  0  0  0
  7 10  1  0  0  0
  5 23  1  0  0  0
  5  6  1  0  0  0
 23 24  1  0  0  0
 24 25  1  0  0  0
 24 29  1  0  0  0
 25 26  1  0  0  0
 26 27  1  0  0  0
 27 28  1  0  0  0
 28 29  1  0  0  0
 17 18  1  0  0  0
M  END
> <minimizedAffinity>
-8.39456

$$$$
