CHEMBL3960730


 32 35  0  0  0  0  0  0  0  0999 V2000
  -29.5466   -5.0851   -6.9876 C   0  0  0  0  0  0  0  0  0  0  0  0
  -28.9584   -4.3138   -7.9933 C   0  0  0  0  0  0  0  0  0  0  0  0
  -28.4697   -3.0141   -7.7245 C   0  0  0  0  0  0  0  0  0  0  0  0
  -27.9857   -2.1107   -8.6849 C   0  0  0  0  0  0  0  0  0  0  0  0
  -27.4933   -0.9020   -8.3472 N   0  0  0  0  0  0  0  0  0  0  0  0
  -27.4988   -0.5830   -7.0600 C   0  0  0  0  0  0  0  0  0  0  0  0
  -27.9472   -1.3525   -6.0616 N   0  0  0  0  0  0  0  0  0  0  0  0
  -28.4293   -2.5468   -6.4117 C   0  0  0  0  0  0  0  0  0  0  0  0
  -28.9363   -3.3532   -5.4115 C   0  0  0  0  0  0  0  0  0  0  0  0
  -29.5594   -4.5838   -5.6759 C   0  0  0  0  0  0  0  0  0  0  0  0
  -29.3691   -7.2885   -7.9054 C   0  0  0  0  0  0  0  0  0  0  0  0
  -30.1321   -6.3017   -7.2126 O   0  0  0  0  0  0  0  0  0  0  0  0
  -28.0595   -2.4508  -10.0634 N   0  0  0  0  0  0  0  0  0  0  0  0
  -29.0161   -2.3347  -10.3794 H   0  0  0  0  0  0  0  0  0  0  0  0
  -27.1064   -2.0134  -11.0049 C   0  0  0  0  0  0  0  0  0  0  0  0
  -27.5234   -1.5934  -12.2763 C   0  0  0  0  0  0  0  0  0  0  0  0
  -26.5991   -1.2409  -13.2566 C   0  0  0  0  0  0  0  0  0  0  0  0
  -25.2364   -1.2871  -12.9706 C   0  0  0  0  0  0  0  0  0  0  0  0
  -24.1393   -0.8957  -14.2449 Cl  0  0  0  0  0  0  0  0  0  0  0  0
  -24.8065   -1.6536  -11.6896 C   0  0  0  0  0  0  0  0  0  0  0  0
  -23.1319   -1.7161  -11.2621 Cl  0  0  0  0  0  0  0  0  0  0  0  0
  -25.7410   -2.0038  -10.7052 C   0  0  0  0  0  0  0  0  0  0  0  0
  -30.2160   -5.3083   -4.6907 O   0  0  0  0  0  0  0  0  0  0  0  0
  -29.3300   -5.7860   -3.6662 C   0  0  0  0  0  0  0  0  0  0  0  0
  -28.8679   -7.1736   -3.8854 C   0  0  0  0  0  0  0  0  0  0  0  0
  -27.8881   -7.5488   -4.6773 N   0  0  0  0  0  0  0  0  0  0  0  0
  -27.6121   -8.8172   -4.2496 C   0  0  0  0  0  0  0  0  0  0  0  0
  -28.4416   -9.2460   -3.2836 N   0  0  0  0  0  0  0  0  0  0  0  0
  -29.2648   -8.1481   -3.0262 O   0  0  0  0  0  0  0  0  0  0  0  0
  -26.5286   -9.4549   -4.7563 N   0  0  0  0  0  0  0  0  0  0  0  0
  -26.5850  -10.0860   -6.0607 C   0  0  0  0  0  0  0  0  0  0  0  0
  -25.2080   -9.2862   -4.1751 C   0  0  0  0  0  0  0  0  0  0  0  0
 11 12  1  0  0  0
 12  1  1  0  0  0
  1  2  1  0  0  0
  1 10  2  0  0  0
  2  3  2  0  0  0
  3  4  1  0  0  0
  3  8  1  0  0  0
  4 13  1  0  0  0
  4  5  2  0  0  0
 13 15  1  0  0  0
 13 14  1  0  0  0
 15 16  1  0  0  0
 15 22  2  0  0  0
 16 17  2  0  0  0
 17 18  1  0  0  0
 18 19  1  0  0  0
 18 20  2  0  0  0
 20 21  1  0  0  0
 20 22  1  0  0  0
  5  6  1  0  0  0
  6  7  2  0  0  0
  7  8  1  0  0  0
  8  9  2  0  0  0
  9 10  1  0  0  0
 10 23  1  0  0  0
 23 24  1  0  0  0
 24 25  1  0  0  0
 25 26  2  0  0  0
 25 29  1  0  0  0
 26 27  1  0  0  0
 27 30  1  0  0  0
 27 28  2  0  0  0
 30 31  1  0  0  0
 30 32  1  0  0  0
 28 29  1  0  0  0
M  END
> <minimizedAffinity>
-8.68719

$$$$
