CHEMBL3914631


 38 41  0  0  0  0  0  0  0  0999 V2000
  -27.6609   -0.5395   -4.6977 C   0  0  0  0  0  0  0  0  0  0  0  0
  -27.9392   -1.4961   -5.8221 C   0  0  0  0  0  0  0  0  0  0  0  0
  -27.9606   -0.9796   -7.1302 C   0  0  0  0  0  0  0  0  0  0  0  0
  -28.1778   -1.7927   -8.2472 C   0  0  0  0  0  0  0  0  0  0  0  0
  -28.4827   -3.1351   -8.0453 C   0  0  0  0  0  0  0  0  0  0  0  0
  -28.5069   -3.6595   -6.7452 C   0  0  0  0  0  0  0  0  0  0  0  0
  -28.1971   -2.8620   -5.6322 C   0  0  0  0  0  0  0  0  0  0  0  0
  -28.1196   -1.2872   -9.5651 N   0  0  0  0  0  0  0  0  0  0  0  0
  -27.0962   -1.5804  -10.4531 C   0  0  0  0  0  0  0  0  0  0  0  0
  -26.2175   -2.4111  -10.2456 O   0  0  0  0  0  0  0  0  0  0  0  0
  -27.1468   -0.7900  -11.5913 N   0  0  0  0  0  0  0  0  0  0  0  0
  -28.9854   -0.9751   -9.9864 H   0  0  0  0  0  0  0  0  0  0  0  0
  -27.4456    0.1616  -11.4159 H   0  0  0  0  0  0  0  0  0  0  0  0
  -26.1154   -0.9261  -12.5562 C   0  0  0  0  0  0  0  0  0  0  0  0
  -24.8922   -0.2595  -12.4141 C   0  0  0  0  0  0  0  0  0  0  0  0
  -23.9441   -0.2683  -13.4489 C   0  0  0  0  0  0  0  0  0  0  0  0
  -24.2392   -0.9672  -14.6305 C   0  0  0  0  0  0  0  0  0  0  0  0
  -25.4379   -1.6751  -14.7561 C   0  0  0  0  0  0  0  0  0  0  0  0
  -26.3568   -1.6688  -13.7109 C   0  0  0  0  0  0  0  0  0  0  0  0
  -27.5234   -2.3153  -13.8568 F   0  0  0  0  0  0  0  0  0  0  0  0
  -22.6443    0.4945  -13.2973 C   0  0  0  0  0  0  0  0  0  0  0  0
  -21.6768    0.2039  -14.4343 C   0  0  0  0  0  0  0  0  0  0  0  0
  -22.8412    1.8453  -13.2526 F   0  0  0  0  0  0  0  0  0  0  0  0
  -22.0077    0.1897  -12.1268 F   0  0  0  0  0  0  0  0  0  0  0  0
  -28.2201   -3.3689   -4.3432 O   0  0  0  0  0  0  0  0  0  0  0  0
  -29.2076   -4.3061   -4.0309 C   0  0  0  0  0  0  0  0  0  0  0  0
  -28.8408   -5.6396   -4.0125 C   0  0  0  0  0  0  0  0  0  0  0  0
  -29.8425   -6.5411   -3.7039 C   0  0  0  0  0  0  0  0  0  0  0  0
  -31.0899   -6.1361   -3.4327 N   0  0  0  0  0  0  0  0  0  0  0  0
  -31.3445   -4.8283   -3.4962 C   0  0  0  0  0  0  0  0  0  0  0  0
  -30.4611   -3.8797   -3.8026 N   0  0  0  0  0  0  0  0  0  0  0  0
  -29.5609   -7.9223   -3.7296 N   0  0  0  0  0  0  0  0  0  0  0  0
  -29.1718   -8.6047   -4.8649 C   0  0  0  0  0  0  0  0  0  0  0  0
  -29.2028   -8.1978   -6.0200 O   0  0  0  0  0  0  0  0  0  0  0  0
  -29.6152   -8.4284   -2.8618 H   0  0  0  0  0  0  0  0  0  0  0  0
  -28.6680  -10.0035   -4.6748 C   0  0  0  0  0  0  0  0  0  0  0  0
  -29.5312  -11.1902   -5.0153 C   0  0  0  0  0  0  0  0  0  0  0  0
  -29.0979  -10.9622   -3.5955 C   0  0  0  0  0  0  0  0  0  0  0  0
  1  2  1  0  0  0
  2  3  1  0  0  0
  2  7  2  0  0  0
  3  4  2  0  0  0
  4  8  1  0  0  0
  4  5  1  0  0  0
  8  9  1  0  0  0
  8 12  1  0  0  0
  9 10  2  0  0  0
  9 11  1  0  0  0
 11 14  1  0  0  0
 11 13  1  0  0  0
 14 15  1  0  0  0
 14 19  2  0  0  0
 15 16  2  0  0  0
 16 21  1  0  0  0
 16 17  1  0  0  0
 21 22  1  0  0  0
 21 23  1  0  0  0
 21 24  1  0  0  0
 17 18  2  0  0  0
 18 19  1  0  0  0
 19 20  1  0  0  0
  5  6  2  0  0  0
  6  7  1  0  0  0
  7 25  1  0  0  0
 25 26  1  0  0  0
 26 27  1  0  0  0
 26 31  2  0  0  0
 27 28  2  0  0  0
 28 32  1  0  0  0
 28 29  1  0  0  0
 32 33  1  0  0  0
 32 35  1  0  0  0
 33 34  2  0  0  0
 33 36  1  0  0  0
 36 37  1  0  0  0
 36 38  1  0  0  0
 37 38  1  0  0  0
 29 30  2  0  0  0
 30 31  1  0  0  0
M  END
> <minimizedAffinity>
-10.50329

$$$$
