CHEMBL4469902


 35 38  0  0  0  0  0  0  0  0999 V2000
  -26.4690   -2.0859   -9.3792 N   0  0  0  0  0  0  0  0  0  0  0  0
  -26.4168   -2.1721  -10.7663 C   0  0  0  0  0  0  0  0  0  0  0  0
  -27.1484   -2.8848  -11.4507 O   0  0  0  0  0  0  0  0  0  0  0  0
  -25.9050   -1.4206   -8.8511 H   0  0  0  0  0  0  0  0  0  0  0  0
  -30.1951   -4.8864   -5.9409 C   0  0  0  0  0  0  0  0  0  0  0  0
  -30.6059   -4.0145   -4.9049 C   0  0  0  0  0  0  0  0  0  0  0  0
  -30.1515   -2.6883   -4.8307 C   0  0  0  0  0  0  0  0  0  0  0  0
  -29.2798   -2.2678   -5.8116 C   0  0  0  0  0  0  0  0  0  0  0  0
  -28.8811   -3.1313   -6.8272 C   0  0  0  0  0  0  0  0  0  0  0  0
  -29.3181   -4.4355   -6.9268 C   0  0  0  0  0  0  0  0  0  0  0  0
  -27.9478   -2.3962   -7.6687 C   0  0  0  0  0  0  0  0  0  0  0  0
  -27.3439   -2.8890   -8.7015 N   0  0  0  0  0  0  0  0  0  0  0  0
  -27.8466   -1.0010   -7.0550 C   0  0  0  0  0  0  0  0  0  0  0  0
  -27.1534   -0.1053   -7.4935 O   0  0  0  0  0  0  0  0  0  0  0  0
  -28.6788   -1.0175   -5.9499 N   0  0  0  0  0  0  0  0  0  0  0  0
  -28.8106   -0.2275   -5.3390 H   0  0  0  0  0  0  0  0  0  0  0  0
  -30.5933   -6.9491   -7.0450 C   0  0  0  0  0  0  0  0  0  0  0  0
  -30.7170   -6.1505   -5.8707 O   0  0  0  0  0  0  0  0  0  0  0  0
  -25.4015   -1.3223  -11.4546 C   0  0  0  0  0  0  0  0  0  0  0  0
  -25.7439   -0.1442  -12.1147 C   0  0  0  0  0  0  0  0  0  0  0  0
  -24.7492    0.6417  -12.7118 C   0  0  0  0  0  0  0  0  0  0  0  0
  -23.3964    0.2833  -12.6607 C   0  0  0  0  0  0  0  0  0  0  0  0
  -23.0552   -0.8950  -11.9878 C   0  0  0  0  0  0  0  0  0  0  0  0
  -24.0488   -1.6877  -11.3864 C   0  0  0  0  0  0  0  0  0  0  0  0
  -22.3565    1.0519  -13.2548 N   0  0  0  0  0  0  0  0  0  0  0  0
  -21.5118    0.6136  -14.2643 C   0  0  0  0  0  0  0  0  0  0  0  0
  -21.5716   -0.4792  -14.8209 O   0  0  0  0  0  0  0  0  0  0  0  0
  -22.2703    2.0058  -12.9334 H   0  0  0  0  0  0  0  0  0  0  0  0
  -20.4303    1.5314  -14.7371 C   0  0  0  0  0  0  0  0  0  0  0  0
  -20.5245    2.9282  -14.7349 C   0  0  0  0  0  0  0  0  0  0  0  0
  -19.3996    3.7011  -15.0678 C   0  0  0  0  0  0  0  0  0  0  0  0
  -18.1908    3.0860  -15.3979 C   0  0  0  0  0  0  0  0  0  0  0  0
  -16.8024    4.0415  -15.7442 Cl  0  0  0  0  0  0  0  0  0  0  0  0
  -18.0933    1.7004  -15.4245 C   0  0  0  0  0  0  0  0  0  0  0  0
  -19.2093    0.9300  -15.0983 C   0  0  0  0  0  0  0  0  0  0  0  0
 17 18  1  0  0  0
 18  5  1  0  0  0
  5  6  1  0  0  0
  5 10  2  0  0  0
  6  7  2  0  0  0
  7  8  1  0  0  0
  8  9  2  0  0  0
  8 15  1  0  0  0
  9 10  1  0  0  0
  9 11  1  0  0  0
 11 12  2  0  0  0
 11 13  1  0  0  0
 12  1  1  0  0  0
  1  2  1  0  0  0
  1  4  1  0  0  0
  2  3  2  0  0  0
  2 19  1  0  0  0
 19 20  1  0  0  0
 19 24  2  0  0  0
 20 21  2  0  0  0
 21 22  1  0  0  0
 22 25  1  0  0  0
 22 23  2  0  0  0
 25 26  1  0  0  0
 25 28  1  0  0  0
 26 27  2  0  0  0
 26 29  1  0  0  0
 29 30  1  0  0  0
 29 35  2  0  0  0
 30 31  2  0  0  0
 31 32  1  0  0  0
 32 33  1  0  0  0
 32 34  2  0  0  0
 34 35  1  0  0  0
 23 24  1  0  0  0
 13 14  2  0  0  0
 13 15  1  0  0  0
 15 16  1  0  0  0
M  END
> <minimizedAffinity>
-9.84526

$$$$
