CHEMBL3696092


 33 35  0  0  0  0  0  0  0  0999 V2000
  -28.7874   -3.7220   -7.0628 C   0  0  0  0  0  0  0  0  0  0  0  0
  -28.7619   -2.6462   -6.1644 C   0  0  0  0  0  0  0  0  0  0  0  0
  -28.2745   -1.4068   -6.5583 C   0  0  0  0  0  0  0  0  0  0  0  0
  -27.7164   -1.2547   -7.8231 C   0  0  0  0  0  0  0  0  0  0  0  0
  -27.6123   -2.3382   -8.7010 C   0  0  0  0  0  0  0  0  0  0  0  0
  -28.2006   -3.5573   -8.3351 C   0  0  0  0  0  0  0  0  0  0  0  0
  -29.1379   -5.7426   -5.4055 C   0  0  0  0  0  0  0  0  0  0  0  0
  -29.3651   -5.0183   -6.6547 C   0  0  0  0  0  0  0  0  0  0  0  0
  -30.1664   -5.6413   -7.5269 N   0  0  0  0  0  0  0  0  0  0  0  0
  -30.5647   -7.1320   -6.9560 S   0  0  0  0  0  0  0  0  0  0  0  0
  -29.7178   -7.0043   -5.4789 C   0  0  0  0  0  0  0  0  0  0  0  0
  -29.6792   -8.0072   -4.5682 N   0  0  0  0  0  0  0  0  0  0  0  0
  -29.8969   -8.9541   -4.8650 H   0  0  0  0  0  0  0  0  0  0  0  0
  -28.9492   -7.9711   -3.8517 H   0  0  0  0  0  0  0  0  0  0  0  0
  -29.1021   -5.0853   -3.0897 N   0  0  0  0  0  0  0  0  0  0  0  0
  -28.3869   -5.3256   -4.2280 C   0  0  0  0  0  0  0  0  0  0  0  0
  -27.1639   -5.2108   -4.2124 O   0  0  0  0  0  0  0  0  0  0  0  0
  -28.5958   -4.7546   -2.2798 H   0  0  0  0  0  0  0  0  0  0  0  0
  -30.1058   -5.1790   -3.0274 H   0  0  0  0  0  0  0  0  0  0  0  0
  -26.9110   -2.2533   -9.9327 N   0  0  0  0  0  0  0  0  0  0  0  0
  -27.3469   -1.5182  -11.0226 C   0  0  0  0  0  0  0  0  0  0  0  0
  -28.3646   -0.8287  -11.0631 O   0  0  0  0  0  0  0  0  0  0  0  0
  -25.9522   -2.5803   -9.9309 H   0  0  0  0  0  0  0  0  0  0  0  0
  -26.5029   -1.5141  -12.2494 C   0  0  0  0  0  0  0  0  0  0  0  0
  -26.9948   -1.8284  -13.5180 C   0  0  0  0  0  0  0  0  0  0  0  0
  -26.1663   -1.6758  -14.6357 C   0  0  0  0  0  0  0  0  0  0  0  0
  -24.8592   -1.1959  -14.4933 C   0  0  0  0  0  0  0  0  0  0  0  0
  -24.3550   -0.8718  -13.2281 C   0  0  0  0  0  0  0  0  0  0  0  0
  -25.1823   -1.0548  -12.1120 C   0  0  0  0  0  0  0  0  0  0  0  0
  -22.9714   -0.2991  -13.0381 C   0  0  0  0  0  0  0  0  0  0  0  0
  -22.9312    1.0604  -13.1092 F   0  0  0  0  0  0  0  0  0  0  0  0
  -22.4356   -0.6234  -11.8280 F   0  0  0  0  0  0  0  0  0  0  0  0
  -22.0878   -0.7492  -13.9713 F   0  0  0  0  0  0  0  0  0  0  0  0
 15 16  1  0  0  0
 15 18  1  0  0  0
 15 19  1  0  0  0
 16 17  2  0  0  0
 16  7  1  0  0  0
  7  8  1  0  0  0
  7 11  2  0  0  0
  8  1  1  0  0  0
  8  9  2  0  0  0
  1  2  1  0  0  0
  1  6  2  0  0  0
  2  3  2  0  0  0
  3  4  1  0  0  0
  4  5  2  0  0  0
  5 20  1  0  0  0
  5  6  1  0  0  0
 20 21  1  0  0  0
 20 23  1  0  0  0
 21 22  2  0  0  0
 21 24  1  0  0  0
 24 25  1  0  0  0
 24 29  2  0  0  0
 25 26  2  0  0  0
 26 27  1  0  0  0
 27 28  2  0  0  0
 28 30  1  0  0  0
 28 29  1  0  0  0
 30 31  1  0  0  0
 30 32  1  0  0  0
 30 33  1  0  0  0
  9 10  1  0  0  0
 10 11  1  0  0  0
 11 12  1  0  0  0
 12 13  1  0  0  0
 12 14  1  0  0  0
M  END
> <minimizedAffinity>
-10.98286

$$$$
