CHEMBL475509


 29 31  0  0  0  0  0  0  0  0999 V2000
  -17.3611    1.3093  -13.4575 O   0  0  0  0  0  0  0  0  0  0  0  0
  -17.2612    1.5319  -14.6629 C   0  0  0  0  0  0  0  0  0  0  0  0
  -18.3332    1.8006  -15.5056 N   0  0  0  0  0  0  0  0  0  0  0  0
  -18.1211    1.7933  -16.4990 H   0  0  0  0  0  0  0  0  0  0  0  0
  -19.6765    1.9040  -15.0815 C   0  0  0  0  0  0  0  0  0  0  0  0
  -20.3059    3.1374  -14.8928 C   0  0  0  0  0  0  0  0  0  0  0  0
  -21.5895    3.2156  -14.3608 C   0  0  0  0  0  0  0  0  0  0  0  0
  -22.2854    2.0538  -14.0470 C   0  0  0  0  0  0  0  0  0  0  0  0
  -21.7268    0.8110  -14.3390 C   0  0  0  0  0  0  0  0  0  0  0  0
  -20.4108    0.7383  -14.8345 C   0  0  0  0  0  0  0  0  0  0  0  0
  -22.3367   -0.3940  -14.1517 O   0  0  0  0  0  0  0  0  0  0  0  0
  -22.9027   -0.7020  -12.8827 C   0  0  0  0  0  0  0  0  0  0  0  0
  -24.1719   -0.2711  -12.7217 F   0  0  0  0  0  0  0  0  0  0  0  0
  -22.9116   -2.0465  -12.7379 F   0  0  0  0  0  0  0  0  0  0  0  0
  -22.1343   -0.1785  -11.9033 F   0  0  0  0  0  0  0  0  0  0  0  0
  -15.9365    1.4650  -15.3056 C   0  0  0  0  0  0  0  0  0  0  0  0
  -15.4693    2.4791  -16.0473 N   0  0  0  0  0  0  0  0  0  0  0  0
  -13.9537    2.0743  -16.6021 S   0  0  0  0  0  0  0  0  0  0  0  0
  -13.9003    0.5129  -15.9088 C   0  0  0  0  0  0  0  0  0  0  0  0
  -15.0717    0.3008  -15.2170 C   0  0  0  0  0  0  0  0  0  0  0  0
  -15.3811   -0.8339  -14.5129 N   0  0  0  0  0  0  0  0  0  0  0  0
  -15.4538   -1.7008  -15.0587 H   0  0  0  0  0  0  0  0  0  0  0  0
  -14.9489   -1.0573  -13.1414 C   0  0  0  0  0  0  0  0  0  0  0  0
  -15.5642   -2.3063  -12.5382 C   0  0  0  0  0  0  0  0  0  0  0  0
  -15.9898   -3.3922  -13.3156 C   0  0  0  0  0  0  0  0  0  0  0  0
  -16.4871   -4.5222  -12.6802 C   0  0  0  0  0  0  0  0  0  0  0  0
  -16.5707   -4.6556  -11.3398 N   0  0  0  0  0  0  0  0  0  0  0  0
  -16.1398   -3.6122  -10.6036 C   0  0  0  0  0  0  0  0  0  0  0  0
  -15.6356   -2.4381  -11.1458 C   0  0  0  0  0  0  0  0  0  0  0  0
  1  2  2  0  0  0
  2  3  1  0  0  0
  2 16  1  0  0  0
  3  5  1  0  0  0
  3  4  1  0  0  0
  5  6  1  0  0  0
  5 10  2  0  0  0
  6  7  2  0  0  0
  7  8  1  0  0  0
  8  9  2  0  0  0
  9 11  1  0  0  0
  9 10  1  0  0  0
 11 12  1  0  0  0
 12 13  1  0  0  0
 12 14  1  0  0  0
 12 15  1  0  0  0
 16 17  2  0  0  0
 16 20  1  0  0  0
 17 18  1  0  0  0
 18 19  1  0  0  0
 19 20  2  0  0  0
 20 21  1  0  0  0
 21 23  1  0  0  0
 21 22  1  0  0  0
 23 24  1  0  0  0
 24 25  1  0  0  0
 24 29  2  0  0  0
 25 26  2  0  0  0
 26 27  1  0  0  0
 27 28  2  0  0  0
 28 29  1  0  0  0
M  END
> <minimizedAffinity>
-9.05067

$$$$
