CHEMBL1992634


 17 19  0  0  0  0  0  0  0  0999 V2000
  -17.1188    0.8480  -15.3211 Br  0  0  0  0  0  0  0  0  0  0  0  0
  -18.7572    1.7205  -14.9796 C   0  0  0  0  0  0  0  0  0  0  0  0
  -18.8814    3.0905  -15.1679 C   0  0  0  0  0  0  0  0  0  0  0  0
  -20.0058    3.8157  -14.9528 N   0  0  0  0  0  0  0  0  0  0  0  0
  -21.0325    3.0656  -14.5091 C   0  0  0  0  0  0  0  0  0  0  0  0
  -22.2709    3.5606  -14.2181 N   0  0  0  0  0  0  0  0  0  0  0  0
  -23.0856    2.5492  -13.7786 C   0  0  0  0  0  0  0  0  0  0  0  0
  -22.3616    1.3672  -13.7883 C   0  0  0  0  0  0  0  0  0  0  0  0
  -21.0475    1.6943  -14.2656 C   0  0  0  0  0  0  0  0  0  0  0  0
  -19.8560    0.9905  -14.5292 C   0  0  0  0  0  0  0  0  0  0  0  0
  -22.5194    4.5344  -14.3131 H   0  0  0  0  0  0  0  0  0  0  0  0
  -22.9169    0.0889  -13.3515 C   0  0  0  0  0  0  0  0  0  0  0  0
  -22.5562   -0.4747  -12.1186 C   0  0  0  0  0  0  0  0  0  0  0  0
  -23.0913   -1.6998  -11.7092 C   0  0  0  0  0  0  0  0  0  0  0  0
  -24.0010   -2.3716  -12.5222 C   0  0  0  0  0  0  0  0  0  0  0  0
  -24.3679   -1.8251  -13.7489 C   0  0  0  0  0  0  0  0  0  0  0  0
  -23.8217   -0.6077  -14.1642 C   0  0  0  0  0  0  0  0  0  0  0  0
  1  2  1  0  0  0
  2  3  1  0  0  0
  2 10  2  0  0  0
  3  4  2  0  0  0
  4  5  1  0  0  0
  5  6  1  0  0  0
  5  9  2  0  0  0
  6  7  1  0  0  0
  6 11  1  0  0  0
  7  8  2  0  0  0
  8 12  1  0  0  0
  8  9  1  0  0  0
 12 13  1  0  0  0
 12 17  2  0  0  0
 13 14  2  0  0  0
 14 15  1  0  0  0
 15 16  2  0  0  0
 16 17  1  0  0  0
  9 10  1  0  0  0
M  END
> <minimizedAffinity>
-8.95318

$$$$
