CHEMBL382797


 35 39  0  0  0  0  0  0  0  0999 V2000
  -29.2832   -3.2856   -5.2880 C   0  0  0  0  0  0  0  0  0  0  0  0
  -28.8881   -2.1793   -4.5063 C   0  0  0  0  0  0  0  0  0  0  0  0
  -28.1926   -1.1110   -5.0651 C   0  0  0  0  0  0  0  0  0  0  0  0
  -27.9106   -1.1621   -6.4109 C   0  0  0  0  0  0  0  0  0  0  0  0
  -28.2855   -2.1832   -7.2036 N   0  0  0  0  0  0  0  0  0  0  0  0
  -28.9504   -3.2445   -6.6561 C   0  0  0  0  0  0  0  0  0  0  0  0
  -30.1662   -6.3918   -3.8560 C   0  0  0  0  0  0  0  0  0  0  0  0
  -31.3579   -5.8334   -3.7850 N   0  0  0  0  0  0  0  0  0  0  0  0
  -31.2255   -4.5470   -4.2622 N   0  0  0  0  0  0  0  0  0  0  0  0
  -29.9758   -4.4039   -4.6419 C   0  0  0  0  0  0  0  0  0  0  0  0
  -29.2397   -5.5455   -4.4072 O   0  0  0  0  0  0  0  0  0  0  0  0
  -29.8293   -7.6536   -3.5332 N   0  0  0  0  0  0  0  0  0  0  0  0
  -30.0039   -7.8929   -2.5617 H   0  0  0  0  0  0  0  0  0  0  0  0
  -26.6548   -9.3740   -4.4522 C   0  0  0  0  0  0  0  0  0  0  0  0
  -27.1204  -10.3755   -5.3120 C   0  0  0  0  0  0  0  0  0  0  0  0
  -28.4801  -10.4782   -5.5929 C   0  0  0  0  0  0  0  0  0  0  0  0
  -29.3876   -9.5865   -5.0198 C   0  0  0  0  0  0  0  0  0  0  0  0
  -28.9589   -8.5514   -4.1774 C   0  0  0  0  0  0  0  0  0  0  0  0
  -27.5795   -8.4672   -3.9050 C   0  0  0  0  0  0  0  0  0  0  0  0
  -24.3568   -9.4277   -5.1592 F   0  0  0  0  0  0  0  0  0  0  0  0
  -25.1918   -9.2825   -4.0920 C   0  0  0  0  0  0  0  0  0  0  0  0
  -24.8200  -10.2409   -3.1984 F   0  0  0  0  0  0  0  0  0  0  0  0
  -24.8636   -8.0913   -3.5208 F   0  0  0  0  0  0  0  0  0  0  0  0
  -29.3580   -4.3003   -7.6688 C   0  0  0  0  0  0  0  0  0  0  0  0
  -28.5158   -5.5895   -7.5731 C   0  0  0  0  0  0  0  0  0  0  0  0
  -29.3444   -6.8386   -7.7803 C   0  0  0  0  0  0  0  0  0  0  0  0
  -28.7944   -7.9439   -8.4472 C   0  0  0  0  0  0  0  0  0  0  0  0
  -29.5605   -9.0760   -8.7505 C   0  0  0  0  0  0  0  0  0  0  0  0
  -30.8909   -9.0718   -8.3256 C   0  0  0  0  0  0  0  0  0  0  0  0
  -31.9145   -9.9626   -8.5141 N   0  0  0  0  0  0  0  0  0  0  0  0
  -33.0360   -9.6635   -7.8332 N   0  0  0  0  0  0  0  0  0  0  0  0
  -32.7441   -8.4895   -7.2653 C   0  0  0  0  0  0  0  0  0  0  0  0
  -31.4448   -8.0359   -7.5841 C   0  0  0  0  0  0  0  0  0  0  0  0
  -30.6755   -6.8872   -7.3269 C   0  0  0  0  0  0  0  0  0  0  0  0
  -31.9148  -10.7871   -9.1030 H   0  0  0  0  0  0  0  0  0  0  0  0
 20 21  1  0  0  0
 21 22  1  0  0  0
 21 23  1  0  0  0
 21 14  1  0  0  0
 14 15  1  0  0  0
 14 19  2  0  0  0
 15 16  2  0  0  0
 16 17  1  0  0  0
 17 18  2  0  0  0
 18 12  1  0  0  0
 18 19  1  0  0  0
 12  7  1  0  0  0
 12 13  1  0  0  0
  7  8  2  0  0  0
  7 11  1  0  0  0
  8  9  1  0  0  0
  9 10  2  0  0  0
 10  1  1  0  0  0
 10 11  1  0  0  0
  1  2  1  0  0  0
  1  6  2  0  0  0
  2  3  2  0  0  0
  3  4  1  0  0  0
  4  5  2  0  0  0
  5  6  1  0  0  0
  6 24  1  0  0  0
 24 25  1  0  0  0
 25 26  1  0  0  0
 26 27  1  0  0  0
 26 34  2  0  0  0
 27 28  2  0  0  0
 28 29  1  0  0  0
 29 30  1  0  0  0
 29 33  2  0  0  0
 30 31  1  0  0  0
 30 35  1  0  0  0
 31 32  2  0  0  0
 32 33  1  0  0  0
 33 34  1  0  0  0
M  END
> <minimizedAffinity>
-9.70609

$$$$
