CHEMBL3936673


 38 42  0  0  0  0  0  0  0  0999 V2000
  -16.2229    1.5021  -15.5697 N   0  0  0  0  0  0  0  0  0  0  0  0
  -17.5866    1.9000  -15.4508 C   0  0  0  0  0  0  0  0  0  0  0  0
  -17.9406    3.2556  -15.4855 C   0  0  0  0  0  0  0  0  0  0  0  0
  -19.2217    3.6834  -15.1675 C   0  0  0  0  0  0  0  0  0  0  0  0
  -20.2022    2.7891  -14.8118 C   0  0  0  0  0  0  0  0  0  0  0  0
  -21.3556    3.3259  -14.4018 N   0  0  0  0  0  0  0  0  0  0  0  0
  -22.2968    2.4554  -13.9983 C   0  0  0  0  0  0  0  0  0  0  0  0
  -22.1327    1.0783  -14.0477 C   0  0  0  0  0  0  0  0  0  0  0  0
  -20.9676    0.5274  -14.5014 N   0  0  0  0  0  0  0  0  0  0  0  0
  -19.9598    1.3939  -14.8552 C   0  0  0  0  0  0  0  0  0  0  0  0
  -18.6467    0.9859  -15.2065 C   0  0  0  0  0  0  0  0  0  0  0  0
  -23.2234    0.2408  -13.5643 C   0  0  0  0  0  0  0  0  0  0  0  0
  -24.0006   -0.7083  -14.2806 C   0  0  0  0  0  0  0  0  0  0  0  0
  -24.8603   -1.3726  -13.5098 N   0  0  0  0  0  0  0  0  0  0  0  0
  -24.6466   -0.8561  -12.2876 N   0  0  0  0  0  0  0  0  0  0  0  0
  -25.3729   -1.3944  -11.1629 C   0  0  0  0  0  0  0  0  0  0  0  0
  -23.6891    0.1258  -12.2700 C   0  0  0  0  0  0  0  0  0  0  0  0
  -15.5068    0.5353  -14.8070 C   0  0  0  0  0  0  0  0  0  0  0  0
  -14.3744   -0.1308  -15.3279 C   0  0  0  0  0  0  0  0  0  0  0  0
  -13.7440   -1.1640  -14.6295 C   0  0  0  0  0  0  0  0  0  0  0  0
  -14.2222   -1.5321  -13.3735 C   0  0  0  0  0  0  0  0  0  0  0  0
  -15.3170   -0.8760  -12.8132 C   0  0  0  0  0  0  0  0  0  0  0  0
  -15.9493    0.1510  -13.5308 C   0  0  0  0  0  0  0  0  0  0  0  0
  -12.6717   -1.8986  -15.0594 O   0  0  0  0  0  0  0  0  0  0  0  0
  -11.4277   -1.6911  -14.4035 C   0  0  0  0  0  0  0  0  0  0  0  0
  -15.8677   -1.1628  -11.5916 O   0  0  0  0  0  0  0  0  0  0  0  0
  -15.7562   -2.5095  -11.1399 C   0  0  0  0  0  0  0  0  0  0  0  0
  -15.3889    2.2343  -16.5677 C   0  0  0  0  0  0  0  0  0  0  0  0
  -13.5711    3.8474  -15.4427 C   0  0  0  0  0  0  0  0  0  0  0  0
  -14.3827    3.1106  -15.9322 C   0  0  0  0  0  0  0  0  0  0  0  0
  -11.7313    6.8831  -14.8284 C   0  0  0  0  0  0  0  0  0  0  0  0
  -10.7732    6.4483  -13.9311 C   0  0  0  0  0  0  0  0  0  0  0  0
  -10.7934    5.1126  -13.6060 C   0  0  0  0  0  0  0  0  0  0  0  0
  -11.6858    4.2412  -14.1065 N   0  0  0  0  0  0  0  0  0  0  0  0
  -12.5890    4.7663  -14.9489 C   0  0  0  0  0  0  0  0  0  0  0  0
  -12.6633    6.0482  -15.3503 N   0  0  0  0  0  0  0  0  0  0  0  0
  -12.2458    8.5213  -16.6708 C   0  0  0  0  0  0  0  0  0  0  0  0
  -11.7672    8.3362  -15.2389 C   0  0  0  0  0  0  0  0  0  0  0  0
 37 38  1  0  0  0
 38 31  1  0  0  0
 31 32  1  0  0  0
 31 36  2  0  0  0
 32 33  2  0  0  0
 33 34  1  0  0  0
 34 35  2  0  0  0
 35 29  1  0  0  0
 35 36  1  0  0  0
 29 30  3  0  0  0
 30 28  1  0  0  0
 28  1  1  0  0  0
  1 18  1  0  0  0
  1  2  1  0  0  0
 18 19  1  0  0  0
 18 23  2  0  0  0
 19 20  2  0  0  0
 20 24  1  0  0  0
 20 21  1  0  0  0
 24 25  1  0  0  0
 21 22  2  0  0  0
 22 26  1  0  0  0
 22 23  1  0  0  0
 26 27  1  0  0  0
  2  3  1  0  0  0
  2 11  2  0  0  0
  3  4  2  0  0  0
  4  5  1  0  0  0
  5  6  1  0  0  0
  5 10  2  0  0  0
  6  7  2  0  0  0
  7  8  1  0  0  0
  8 12  1  0  0  0
  8  9  2  0  0  0
 12 13  1  0  0  0
 12 17  2  0  0  0
 13 14  2  0  0  0
 14 15  1  0  0  0
 15 16  1  0  0  0
 15 17  1  0  0  0
  9 10  1  0  0  0
 10 11  1  0  0  0
M  END
> <minimizedAffinity>
-9.27347

$$$$
