CHEMBL458248


 36 40  0  0  0  0  0  0  0  0999 V2000
  -13.3900   -0.9389  -15.1656 C   0  0  0  0  0  0  0  0  0  0  0  0
  -13.8069    0.1471  -15.9530 C   0  0  0  0  0  0  0  0  0  0  0  0
  -13.4101    0.5083  -17.2225 O   0  0  0  0  0  0  0  0  0  0  0  0
  -13.9596    1.7474  -17.4515 C   0  0  0  0  0  0  0  0  0  0  0  0
  -13.9717    2.4790  -18.6373 C   0  0  0  0  0  0  0  0  0  0  0  0
  -14.4669    3.7852  -18.5173 C   0  0  0  0  0  0  0  0  0  0  0  0
  -14.6367    4.5824  -19.6190 O   0  0  0  0  0  0  0  0  0  0  0  0
  -14.8326    4.3346  -17.2845 C   0  0  0  0  0  0  0  0  0  0  0  0
  -15.2116    5.6415  -17.1722 O   0  0  0  0  0  0  0  0  0  0  0  0
  -14.8847    3.5578  -16.1430 C   0  0  0  0  0  0  0  0  0  0  0  0
  -14.5393    2.2109  -16.2792 C   0  0  0  0  0  0  0  0  0  0  0  0
  -14.7485    1.0562  -15.5084 C   0  0  0  0  0  0  0  0  0  0  0  0
  -15.6024    0.6764  -14.4811 C   0  0  0  0  0  0  0  0  0  0  0  0
  -15.2858   -0.4690  -13.7669 C   0  0  0  0  0  0  0  0  0  0  0  0
  -16.0078   -0.9456  -12.7275 O   0  0  0  0  0  0  0  0  0  0  0  0
  -15.3082   -1.9778  -12.2062 C   0  0  0  0  0  0  0  0  0  0  0  0
  -15.7223   -2.6887  -11.0830 C   0  0  0  0  0  0  0  0  0  0  0  0
  -14.8459   -3.6678  -10.6316 C   0  0  0  0  0  0  0  0  0  0  0  0
  -15.1355   -4.4102   -9.5239 O   0  0  0  0  0  0  0  0  0  0  0  0
  -13.6358   -3.9000  -11.2887 C   0  0  0  0  0  0  0  0  0  0  0  0
  -12.7856   -4.8454  -10.7793 O   0  0  0  0  0  0  0  0  0  0  0  0
  -13.2572   -3.1949  -12.4403 C   0  0  0  0  0  0  0  0  0  0  0  0
  -14.1300   -2.1958  -12.9235 C   0  0  0  0  0  0  0  0  0  0  0  0
  -14.1561   -1.2586  -14.0161 C   0  0  0  0  0  0  0  0  0  0  0  0
  -14.7708    3.9914  -20.3815 H   0  0  0  0  0  0  0  0  0  0  0  0
  -15.1107    5.9929  -18.0764 H   0  0  0  0  0  0  0  0  0  0  0  0
  -16.0106   -4.1478   -9.1978 H   0  0  0  0  0  0  0  0  0  0  0  0
  -13.2373   -5.1788   -9.9768 H   0  0  0  0  0  0  0  0  0  0  0  0
  -12.2411   -1.6864  -15.5370 O   0  0  0  0  0  0  0  0  0  0  0  0
  -11.9214   -4.0459  -15.6829 C   0  0  0  0  0  0  0  0  0  0  0  0
  -12.5469   -2.8270  -16.2918 C   0  0  0  0  0  0  0  0  0  0  0  0
  -13.1857   -2.8461  -17.3369 O   0  0  0  0  0  0  0  0  0  0  0  0
  -16.7859    1.4059  -14.1577 O   0  0  0  0  0  0  0  0  0  0  0  0
  -17.8995    1.2562  -14.9907 C   0  0  0  0  0  0  0  0  0  0  0  0
  -18.3296    2.5930  -15.5179 C   0  0  0  0  0  0  0  0  0  0  0  0
  -18.5095    0.2207  -15.2294 O   0  0  0  0  0  0  0  0  0  0  0  0
 30 31  1  0  0  0
 31 32  2  0  0  0
 31 29  1  0  0  0
 29  1  1  0  0  0
  1  2  1  0  0  0
  1 24  2  0  0  0
  2  3  1  0  0  0
  2 12  2  0  0  0
  3  4  1  0  0  0
  4  5  1  0  0  0
  4 11  2  0  0  0
  5  6  2  0  0  0
  6  7  1  0  0  0
  6  8  1  0  0  0
  7 25  1  0  0  0
  8  9  1  0  0  0
  8 10  2  0  0  0
  9 26  1  0  0  0
 10 11  1  0  0  0
 11 12  1  0  0  0
 12 13  1  0  0  0
 13 33  1  0  0  0
 13 14  2  0  0  0
 33 34  1  0  0  0
 34 35  1  0  0  0
 34 36  2  0  0  0
 14 15  1  0  0  0
 14 24  1  0  0  0
 15 16  1  0  0  0
 16 17  1  0  0  0
 16 23  2  0  0  0
 17 18  2  0  0  0
 18 19  1  0  0  0
 18 20  1  0  0  0
 19 27  1  0  0  0
 20 21  1  0  0  0
 20 22  2  0  0  0
 21 28  1  0  0  0
 22 23  1  0  0  0
 23 24  1  0  0  0
M  END
> <minimizedAffinity>
-7.59792

$$$$
