CHEMBL3893417


 38 41  0  0  0  0  0  0  0  0999 V2000
  -15.1073   -3.2107  -11.6978 C   0  0  0  0  0  0  0  0  0  0  0  0
  -16.1487   -4.1429  -11.8134 C   0  0  0  0  0  0  0  0  0  0  0  0
  -15.9441   -5.5055  -11.5931 C   0  0  0  0  0  0  0  0  0  0  0  0
  -14.6697   -5.9727  -11.3043 C   0  0  0  0  0  0  0  0  0  0  0  0
  -13.6042   -5.0680  -11.3066 C   0  0  0  0  0  0  0  0  0  0  0  0
  -12.3424   -5.4996  -11.1577 F   0  0  0  0  0  0  0  0  0  0  0  0
  -13.8154   -3.6941  -11.4822 C   0  0  0  0  0  0  0  0  0  0  0  0
  -15.9077    0.2065  -12.7668 N   0  0  0  0  0  0  0  0  0  0  0  0
  -15.7113   -1.1553  -12.9301 C   0  0  0  0  0  0  0  0  0  0  0  0
  -15.8718   -1.7187  -14.0067 O   0  0  0  0  0  0  0  0  0  0  0  0
  -15.3258   -1.8061  -11.7685 N   0  0  0  0  0  0  0  0  0  0  0  0
  -15.3880    0.6615  -12.0301 H   0  0  0  0  0  0  0  0  0  0  0  0
  -15.4714   -1.3186  -10.8953 H   0  0  0  0  0  0  0  0  0  0  0  0
  -18.3580    2.2004  -14.8154 C   0  0  0  0  0  0  0  0  0  0  0  0
  -17.7984    1.4410  -13.7772 C   0  0  0  0  0  0  0  0  0  0  0  0
  -16.4545    1.0296  -13.7892 C   0  0  0  0  0  0  0  0  0  0  0  0
  -15.6401    1.4490  -14.8403 C   0  0  0  0  0  0  0  0  0  0  0  0
  -16.1817    2.2135  -15.8830 C   0  0  0  0  0  0  0  0  0  0  0  0
  -17.5310    2.5709  -15.8670 C   0  0  0  0  0  0  0  0  0  0  0  0
  -18.0199    3.2802  -16.8922 F   0  0  0  0  0  0  0  0  0  0  0  0
  -20.7076    1.3606  -14.5277 C   0  0  0  0  0  0  0  0  0  0  0  0
  -19.8173    2.5702  -14.7762 C   0  0  0  0  0  0  0  0  0  0  0  0
  -20.2439    3.1766  -15.9210 F   0  0  0  0  0  0  0  0  0  0  0  0
  -20.0868    3.4755  -13.7847 F   0  0  0  0  0  0  0  0  0  0  0  0
  -14.5485   -7.3304  -11.1358 O   0  0  0  0  0  0  0  0  0  0  0  0
  -13.8757   -8.0561  -12.1127 C   0  0  0  0  0  0  0  0  0  0  0  0
  -14.2799   -7.8353  -13.4126 C   0  0  0  0  0  0  0  0  0  0  0  0
  -13.5979   -8.5389  -14.3803 C   0  0  0  0  0  0  0  0  0  0  0  0
  -12.5950   -9.3691  -14.0708 N   0  0  0  0  0  0  0  0  0  0  0  0
  -12.3020   -9.5300  -12.7777 C   0  0  0  0  0  0  0  0  0  0  0  0
  -12.9226   -8.9335  -11.7601 N   0  0  0  0  0  0  0  0  0  0  0  0
  -13.9916   -8.3821  -15.7212 N   0  0  0  0  0  0  0  0  0  0  0  0
  -13.1366   -8.0243  -16.7421 C   0  0  0  0  0  0  0  0  0  0  0  0
  -11.9496   -7.7414  -16.6480 O   0  0  0  0  0  0  0  0  0  0  0  0
  -14.9465   -8.5996  -15.9519 H   0  0  0  0  0  0  0  0  0  0  0  0
  -13.7178   -8.0064  -18.1178 C   0  0  0  0  0  0  0  0  0  0  0  0
  -13.0379   -7.5710  -19.3892 C   0  0  0  0  0  0  0  0  0  0  0  0
  -14.0588   -6.6748  -18.7493 C   0  0  0  0  0  0  0  0  0  0  0  0
 21 22  1  0  0  0
 22 23  1  0  0  0
 22 24  1  0  0  0
 22 14  1  0  0  0
 14 15  1  0  0  0
 14 19  2  0  0  0
 15 16  2  0  0  0
 16  8  1  0  0  0
 16 17  1  0  0  0
  8  9  1  0  0  0
  8 12  1  0  0  0
  9 10  2  0  0  0
  9 11  1  0  0  0
 11  1  1  0  0  0
 11 13  1  0  0  0
  1  2  1  0  0  0
  1  7  2  0  0  0
  2  3  2  0  0  0
  3  4  1  0  0  0
  4 25  1  0  0  0
  4  5  2  0  0  0
 25 26  1  0  0  0
 26 27  1  0  0  0
 26 31  2  0  0  0
 27 28  2  0  0  0
 28 32  1  0  0  0
 28 29  1  0  0  0
 32 33  1  0  0  0
 32 35  1  0  0  0
 33 34  2  0  0  0
 33 36  1  0  0  0
 36 37  1  0  0  0
 36 38  1  0  0  0
 37 38  1  0  0  0
 29 30  2  0  0  0
 30 31  1  0  0  0
  5  6  1  0  0  0
  5  7  1  0  0  0
 17 18  2  0  0  0
 18 19  1  0  0  0
 19 20  1  0  0  0
M  END
> <minimizedAffinity>
-9.22177

$$$$
