CHEMBL363639


 32 34  0  0  0  0  0  0  0  0999 V2000
  -13.1065    2.6765  -14.8369 C   0  0  0  0  0  0  0  0  0  0  0  0
  -11.8881    2.2591  -14.3421 C   0  0  0  0  0  0  0  0  0  0  0  0
  -11.9921    0.9701  -13.9414 N   0  0  0  0  0  0  0  0  0  0  0  0
  -10.9646    0.2834  -13.4272 N   0  0  0  0  0  0  0  0  0  0  0  0
  -11.2447   -0.9438  -13.1475 C   0  0  0  0  0  0  0  0  0  0  0  0
  -12.4460   -1.5589  -13.3363 N   0  0  0  0  0  0  0  0  0  0  0  0
  -13.4508   -0.9063  -13.8552 C   0  0  0  0  0  0  0  0  0  0  0  0
  -13.2585    0.4940  -14.1708 C   0  0  0  0  0  0  0  0  0  0  0  0
  -14.0195    1.5414  -14.7173 C   0  0  0  0  0  0  0  0  0  0  0  0
  -15.4562    1.6197  -15.2243 C   0  0  0  0  0  0  0  0  0  0  0  0
  -15.5996    1.0157  -16.6241 C   0  0  0  0  0  0  0  0  0  0  0  0
  -16.5566    1.1064  -14.3050 C   0  0  0  0  0  0  0  0  0  0  0  0
  -13.3188    3.9973  -15.4340 C   0  0  0  0  0  0  0  0  0  0  0  0
  -14.2483    4.7433  -15.1396 O   0  0  0  0  0  0  0  0  0  0  0  0
  -12.4290    4.2484  -16.4401 O   0  0  0  0  0  0  0  0  0  0  0  0
  -12.9697    3.0085  -18.4055 C   0  0  0  0  0  0  0  0  0  0  0  0
  -13.0029    4.3754  -17.7456 C   0  0  0  0  0  0  0  0  0  0  0  0
  -14.6267   -1.5911  -14.0754 N   0  0  0  0  0  0  0  0  0  0  0  0
  -15.4001   -0.9771  -14.3156 H   0  0  0  0  0  0  0  0  0  0  0  0
  -15.0748   -2.6674  -13.2651 C   0  0  0  0  0  0  0  0  0  0  0  0
  -15.0003   -4.0006  -13.6910 C   0  0  0  0  0  0  0  0  0  0  0  0
  -15.5176   -5.0449  -12.9120 C   0  0  0  0  0  0  0  0  0  0  0  0
  -16.1690   -4.7579  -11.7059 C   0  0  0  0  0  0  0  0  0  0  0  0
  -16.2927   -3.4317  -11.2881 C   0  0  0  0  0  0  0  0  0  0  0  0
  -15.7559   -2.4071  -12.0678 C   0  0  0  0  0  0  0  0  0  0  0  0
  -15.9057   -1.1376  -11.6587 F   0  0  0  0  0  0  0  0  0  0  0  0
  -15.4214   -6.4284  -13.4497 C   0  0  0  0  0  0  0  0  0  0  0  0
  -15.8929   -6.6821  -14.5541 O   0  0  0  0  0  0  0  0  0  0  0  0
  -14.7999   -7.3421  -12.6261 N   0  0  0  0  0  0  0  0  0  0  0  0
  -14.0798   -7.0380  -11.9815 H   0  0  0  0  0  0  0  0  0  0  0  0
  -14.5678   -8.6082  -13.2150 O   0  0  0  0  0  0  0  0  0  0  0  0
  -13.3589   -9.1252  -12.6636 C   0  0  0  0  0  0  0  0  0  0  0  0
 16 17  1  0  0  0
 17 15  1  0  0  0
 15 13  1  0  0  0
 13 14  2  0  0  0
 13  1  1  0  0  0
  1  2  2  0  0  0
  1  9  1  0  0  0
  2  3  1  0  0  0
  3  4  1  0  0  0
  3  8  1  0  0  0
  4  5  2  0  0  0
  5  6  1  0  0  0
  6  7  2  0  0  0
  7 18  1  0  0  0
  7  8  1  0  0  0
 18 20  1  0  0  0
 18 19  1  0  0  0
 20 21  1  0  0  0
 20 25  2  0  0  0
 21 22  2  0  0  0
 22 27  1  0  0  0
 22 23  1  0  0  0
 27 28  2  0  0  0
 27 29  1  0  0  0
 29 31  1  0  0  0
 29 30  1  0  0  0
 31 32  1  0  0  0
 23 24  2  0  0  0
 24 25  1  0  0  0
 25 26  1  0  0  0
  8  9  2  0  0  0
  9 10  1  0  0  0
 10 11  1  0  0  0
 10 12  1  0  0  0
M  END
> <minimizedAffinity>
-6.59934

$$$$
