CHEMBL3660279


 40 43  0  0  0  0  0  0  0  0999 V2000
  -20.4453    1.1199  -15.0207 C   0  0  0  0  0  0  0  0  0  0  0  0
  -20.2860    2.4798  -14.7464 C   0  0  0  0  0  0  0  0  0  0  0  0
  -19.0399    3.0943  -14.8482 C   0  0  0  0  0  0  0  0  0  0  0  0
  -17.9068    2.3360  -15.1276 C   0  0  0  0  0  0  0  0  0  0  0  0
  -18.0462    0.9716  -15.3868 C   0  0  0  0  0  0  0  0  0  0  0  0
  -19.3087    0.3630  -15.3285 C   0  0  0  0  0  0  0  0  0  0  0  0
  -21.9419    0.0731  -12.7813 O   0  0  0  0  0  0  0  0  0  0  0  0
  -22.3864    0.0214  -13.9254 C   0  0  0  0  0  0  0  0  0  0  0  0
  -21.7104    0.4835  -15.0441 N   0  0  0  0  0  0  0  0  0  0  0  0
  -23.6381   -0.4762  -14.2374 N   0  0  0  0  0  0  0  0  0  0  0  0
  -22.2314    0.5553  -15.9047 H   0  0  0  0  0  0  0  0  0  0  0  0
  -23.8577   -0.5837  -15.2163 H   0  0  0  0  0  0  0  0  0  0  0  0
  -24.6190   -0.8998  -13.3081 C   0  0  0  0  0  0  0  0  0  0  0  0
  -24.4430   -0.8702  -11.9205 C   0  0  0  0  0  0  0  0  0  0  0  0
  -25.4561   -1.2926  -11.0583 C   0  0  0  0  0  0  0  0  0  0  0  0
  -26.6628   -1.7336  -11.5783 C   0  0  0  0  0  0  0  0  0  0  0  0
  -27.6169   -2.1253  -10.7252 F   0  0  0  0  0  0  0  0  0  0  0  0
  -26.8830   -1.7606  -12.9513 C   0  0  0  0  0  0  0  0  0  0  0  0
  -25.8443   -1.3495  -13.8157 C   0  0  0  0  0  0  0  0  0  0  0  0
  -28.2019   -2.1918  -13.5146 C   0  0  0  0  0  0  0  0  0  0  0  0
  -28.4002   -3.5345  -13.5778 F   0  0  0  0  0  0  0  0  0  0  0  0
  -29.2456   -1.6973  -12.7884 F   0  0  0  0  0  0  0  0  0  0  0  0
  -28.3926   -1.7278  -14.7829 F   0  0  0  0  0  0  0  0  0  0  0  0
  -16.6354    2.8590  -15.2124 O   0  0  0  0  0  0  0  0  0  0  0  0
  -15.5497    2.0180  -15.0866 C   0  0  0  0  0  0  0  0  0  0  0  0
  -14.3195    2.2416  -15.7011 C   0  0  0  0  0  0  0  0  0  0  0  0
  -13.3224    1.3029  -15.5223 C   0  0  0  0  0  0  0  0  0  0  0  0
  -13.4525    0.2127  -14.7392 N   0  0  0  0  0  0  0  0  0  0  0  0
  -14.6397    0.0490  -14.1016 C   0  0  0  0  0  0  0  0  0  0  0  0
  -15.7090    0.9198  -14.2466 C   0  0  0  0  0  0  0  0  0  0  0  0
  -14.6788   -1.1254  -13.2376 C   0  0  0  0  0  0  0  0  0  0  0  0
  -15.6129   -1.5985  -12.3334 C   0  0  0  0  0  0  0  0  0  0  0  0
  -15.1106   -2.7953  -11.7357 C   0  0  0  0  0  0  0  0  0  0  0  0
  -13.8797   -3.0313  -12.3255 C   0  0  0  0  0  0  0  0  0  0  0  0
  -13.6387   -2.0281  -13.2269 N   0  0  0  0  0  0  0  0  0  0  0  0
  -12.8260   -1.9299  -13.8249 H   0  0  0  0  0  0  0  0  0  0  0  0
  -15.7857   -3.6077  -10.7302 C   0  0  0  0  0  0  0  0  0  0  0  0
  -16.3857   -4.6399  -10.9925 O   0  0  0  0  0  0  0  0  0  0  0  0
  -15.7299   -3.1083   -9.4692 O   0  0  0  0  0  0  0  0  0  0  0  0
  -15.3305   -2.2202   -9.4572 H   0  0  0  0  0  0  0  0  0  0  0  0
  7  8  2  0  0  0
  8  9  1  0  0  0
  8 10  1  0  0  0
  9  1  1  0  0  0
  9 11  1  0  0  0
  1  2  1  0  0  0
  1  6  2  0  0  0
  2  3  2  0  0  0
  3  4  1  0  0  0
  4 24  1  0  0  0
  4  5  2  0  0  0
 24 25  1  0  0  0
 25 26  1  0  0  0
 25 30  2  0  0  0
 26 27  2  0  0  0
 27 28  1  0  0  0
 28 29  2  0  0  0
 29 31  1  0  0  0
 29 30  1  0  0  0
 31 32  2  0  0  0
 31 35  1  0  0  0
 32 33  1  0  0  0
 33 37  1  0  0  0
 33 34  2  0  0  0
 37 38  2  0  0  0
 37 39  1  0  0  0
 39 40  1  0  0  0
 34 35  1  0  0  0
 35 36  1  0  0  0
  5  6  1  0  0  0
 10 13  1  0  0  0
 10 12  1  0  0  0
 13 14  1  0  0  0
 13 19  2  0  0  0
 14 15  2  0  0  0
 15 16  1  0  0  0
 16 17  1  0  0  0
 16 18  2  0  0  0
 18 20  1  0  0  0
 18 19  1  0  0  0
 20 21  1  0  0  0
 20 22  1  0  0  0
 20 23  1  0  0  0
M  END
> <minimizedAffinity>
-10.74369

$$$$
