CHEMBL374627


 34 38  0  0  0  0  0  0  0  0999 V2000
  -13.1304   -1.9656  -13.4556 C   0  0  0  0  0  0  0  0  0  0  0  0
  -12.4263   -1.1903  -14.4196 C   0  0  0  0  0  0  0  0  0  0  0  0
  -13.0218   -0.1213  -15.0902 C   0  0  0  0  0  0  0  0  0  0  0  0
  -14.3440    0.1197  -14.8198 C   0  0  0  0  0  0  0  0  0  0  0  0
  -15.0978   -0.6658  -13.9042 C   0  0  0  0  0  0  0  0  0  0  0  0
  -14.4860   -1.6959  -13.2030 C   0  0  0  0  0  0  0  0  0  0  0  0
  -16.5770   -0.2424  -13.8286 C   0  0  0  0  0  0  0  0  0  0  0  0
  -16.4984    0.8986  -14.7857 C   0  0  0  0  0  0  0  0  0  0  0  0
  -17.2868    1.8827  -15.3856 C   0  0  0  0  0  0  0  0  0  0  0  0
  -16.5708    2.6311  -16.2505 N   0  0  0  0  0  0  0  0  0  0  0  0
  -15.3106    2.1276  -16.1640 N   0  0  0  0  0  0  0  0  0  0  0  0
  -15.2589    1.0782  -15.3243 C   0  0  0  0  0  0  0  0  0  0  0  0
  -14.5716    2.5610  -16.7047 H   0  0  0  0  0  0  0  0  0  0  0  0
  -18.7137    2.0746  -15.1317 C   0  0  0  0  0  0  0  0  0  0  0  0
  -19.3559    3.2939  -15.0908 C   0  0  0  0  0  0  0  0  0  0  0  0
  -21.0155    3.1373  -14.7266 S   0  0  0  0  0  0  0  0  0  0  0  0
  -20.8890    1.4373  -14.6260 C   0  0  0  0  0  0  0  0  0  0  0  0
  -19.6121    0.9927  -14.8821 C   0  0  0  0  0  0  0  0  0  0  0  0
  -22.0016    0.6120  -14.3116 C   0  0  0  0  0  0  0  0  0  0  0  0
  -23.0354   -0.1461  -14.0740 C   0  0  0  0  0  0  0  0  0  0  0  0
  -24.2407   -1.0299  -13.7971 C   0  0  0  0  0  0  0  0  0  0  0  0
  -24.5339   -1.0380  -12.2739 C   0  0  0  0  0  0  0  0  0  0  0  0
  -25.9052   -1.6461  -11.9501 C   0  0  0  0  0  0  0  0  0  0  0  0
  -23.4422   -1.8056  -11.5269 C   0  0  0  0  0  0  0  0  0  0  0  0
  -24.4999    0.3010  -11.7592 O   0  0  0  0  0  0  0  0  0  0  0  0
  -25.2143    0.8066  -12.1929 H   0  0  0  0  0  0  0  0  0  0  0  0
  -12.4062   -3.0792  -12.7146 C   0  0  0  0  0  0  0  0  0  0  0  0
  -10.9235   -7.0151  -10.3675 C   0  0  0  0  0  0  0  0  0  0  0  0
  -11.5952   -5.7295  -10.2121 N   0  0  0  0  0  0  0  0  0  0  0  0
  -10.7133   -4.6184  -10.6025 C   0  0  0  0  0  0  0  0  0  0  0  0
  -11.4356   -3.2621  -10.4402 C   0  0  0  0  0  0  0  0  0  0  0  0
  -12.6592   -3.1269  -11.2615 N   0  0  0  0  0  0  0  0  0  0  0  0
  -13.5360   -4.2774  -10.9218 C   0  0  0  0  0  0  0  0  0  0  0  0
  -12.8528   -5.6737  -10.9819 C   0  0  0  0  0  0  0  0  0  0  0  0
 28 29  1  0  0  0
 29 30  1  0  0  0
 29 34  1  0  0  0
 30 31  1  0  0  0
 31 32  1  0  0  0
 32 27  1  0  0  0
 32 33  1  0  0  0
 27  1  1  0  0  0
  1  2  1  0  0  0
  1  6  2  0  0  0
  2  3  2  0  0  0
  3  4  1  0  0  0
  4  5  2  0  0  0
  4 12  1  0  0  0
  5  6  1  0  0  0
  5  7  1  0  0  0
  7  8  1  0  0  0
  8  9  1  0  0  0
  8 12  2  0  0  0
  9 14  1  0  0  0
  9 10  2  0  0  0
 14 15  2  0  0  0
 14 18  1  0  0  0
 15 16  1  0  0  0
 16 17  1  0  0  0
 17 19  1  0  0  0
 17 18  2  0  0  0
 19 20  3  0  0  0
 20 21  1  0  0  0
 21 22  1  0  0  0
 22 23  1  0  0  0
 22 24  1  0  0  0
 22 25  1  0  0  0
 25 26  1  0  0  0
 10 11  1  0  0  0
 11 12  1  0  0  0
 11 13  1  0  0  0
 33 34  1  0  0  0
M  END
> <minimizedAffinity>
-9.43698

$$$$
