CHEMBL84332


 31 35  0  0  0  0  0  0  0  0999 V2000
  -25.2138   -1.4418  -14.7374 O   0  0  0  0  0  0  0  0  0  0  0  0
  -25.6388   -1.6122  -13.6022 C   0  0  0  0  0  0  0  0  0  0  0  0
  -27.1019   -1.7967  -13.3930 C   0  0  0  0  0  0  0  0  0  0  0  0
  -27.5936   -1.9273  -12.1545 C   0  0  0  0  0  0  0  0  0  0  0  0
  -26.7149   -1.9163  -11.0069 C   0  0  0  0  0  0  0  0  0  0  0  0
  -25.3910   -1.7859  -11.1887 C   0  0  0  0  0  0  0  0  0  0  0  0
  -24.8513   -1.6254  -12.4507 N   0  0  0  0  0  0  0  0  0  0  0  0
  -27.2045   -1.9811   -9.6330 C   0  0  0  0  0  0  0  0  0  0  0  0
  -27.7212   -3.1824   -9.1356 C   0  0  0  0  0  0  0  0  0  0  0  0
  -28.2977   -3.2453   -7.8673 C   0  0  0  0  0  0  0  0  0  0  0  0
  -28.3930   -2.0402   -7.1581 C   0  0  0  0  0  0  0  0  0  0  0  0
  -27.8993   -0.8321   -7.6478 C   0  0  0  0  0  0  0  0  0  0  0  0
  -27.2324   -0.8034   -8.8743 C   0  0  0  0  0  0  0  0  0  0  0  0
  -28.2292    0.2188   -6.8350 N   0  0  0  0  0  0  0  0  0  0  0  0
  -28.9752   -0.3158   -5.8968 C   0  0  0  0  0  0  0  0  0  0  0  0
  -29.0231   -1.6883   -5.9841 N   0  0  0  0  0  0  0  0  0  0  0  0
  -29.6052   -2.5350   -5.0232 C   0  0  0  0  0  0  0  0  0  0  0  0
  -30.4419   -3.5694   -5.4521 C   0  0  0  0  0  0  0  0  0  0  0  0
  -31.1617   -4.2993   -4.5127 C   0  0  0  0  0  0  0  0  0  0  0  0
  -31.0636   -3.9790   -3.1587 C   0  0  0  0  0  0  0  0  0  0  0  0
  -30.1980   -2.9682   -2.7325 C   0  0  0  0  0  0  0  0  0  0  0  0
  -29.4438   -2.2539   -3.6624 C   0  0  0  0  0  0  0  0  0  0  0  0
  -23.4274   -1.3286  -12.5576 C   0  0  0  0  0  0  0  0  0  0  0  0
  -23.1220    0.1684  -12.4254 C   0  0  0  0  0  0  0  0  0  0  0  0
  -22.8226    0.8938  -13.7495 C   0  0  0  0  0  0  0  0  0  0  0  0
  -21.4286    1.3492  -13.9175 N   0  0  0  0  0  0  0  0  0  0  0  0
  -20.7244    0.5957  -14.9658 C   0  0  0  0  0  0  0  0  0  0  0  0
  -19.2734    1.0575  -15.1075 C   0  0  0  0  0  0  0  0  0  0  0  0
  -19.1915    2.5513  -15.3883 C   0  0  0  0  0  0  0  0  0  0  0  0
  -19.9789    3.3264  -14.3397 C   0  0  0  0  0  0  0  0  0  0  0  0
  -21.4085    2.7956  -14.2142 C   0  0  0  0  0  0  0  0  0  0  0  0
  1  2  2  0  0  0
  2  3  1  0  0  0
  2  7  1  0  0  0
  3  4  2  0  0  0
  4  5  1  0  0  0
  5  8  1  0  0  0
  5  6  2  0  0  0
  8  9  1  0  0  0
  8 13  2  0  0  0
  9 10  2  0  0  0
 10 11  1  0  0  0
 11 12  2  0  0  0
 11 16  1  0  0  0
 12 13  1  0  0  0
 12 14  1  0  0  0
 14 15  2  0  0  0
 15 16  1  0  0  0
 16 17  1  0  0  0
 17 18  1  0  0  0
 17 22  2  0  0  0
 18 19  2  0  0  0
 19 20  1  0  0  0
 20 21  2  0  0  0
 21 22  1  0  0  0
  6  7  1  0  0  0
  7 23  1  0  0  0
 23 24  1  0  0  0
 24 25  1  0  0  0
 25 26  1  0  0  0
 26 27  1  0  0  0
 26 31  1  0  0  0
 27 28  1  0  0  0
 28 29  1  0  0  0
 29 30  1  0  0  0
 30 31  1  0  0  0
M  END
> <minimizedAffinity>
-10.79993

$$$$
