CHEMBL254704


 37 41  0  0  0  0  0  0  0  0999 V2000
  -31.3226  -10.9430   -6.6700 C   0  0  0  0  0  0  0  0  0  0  0  0
  -31.4094  -12.1878   -7.2729 C   0  0  0  0  0  0  0  0  0  0  0  0
  -30.9562  -12.3068   -8.6045 C   0  0  0  0  0  0  0  0  0  0  0  0
  -30.2146  -11.2457   -9.1535 C   0  0  0  0  0  0  0  0  0  0  0  0
  -30.3031  -10.0610   -8.4741 C   0  0  0  0  0  0  0  0  0  0  0  0
  -31.3650   -9.9281   -7.5895 C   0  0  0  0  0  0  0  0  0  0  0  0
  -31.5434   -8.4786   -7.3324 C   0  0  0  0  0  0  0  0  0  0  0  0
  -32.5738   -7.8743   -7.1387 O   0  0  0  0  0  0  0  0  0  0  0  0
  -30.2257   -7.9770   -7.5256 C   0  0  0  0  0  0  0  0  0  0  0  0
  -29.4344   -8.9085   -8.2110 C   0  0  0  0  0  0  0  0  0  0  0  0
  -28.1819   -8.8628   -7.7194 N   0  0  0  0  0  0  0  0  0  0  0  0
  -28.2179   -7.8086   -6.8301 N   0  0  0  0  0  0  0  0  0  0  0  0
  -29.4540   -7.1991   -6.7137 C   0  0  0  0  0  0  0  0  0  0  0  0
  -27.4019   -7.6462   -6.2486 H   0  0  0  0  0  0  0  0  0  0  0  0
  -29.9288   -6.1862   -5.7820 C   0  0  0  0  0  0  0  0  0  0  0  0
  -29.9559   -4.8147   -6.0448 C   0  0  0  0  0  0  0  0  0  0  0  0
  -30.4258   -3.9252   -5.0642 C   0  0  0  0  0  0  0  0  0  0  0  0
  -30.8533   -4.4096   -3.8282 C   0  0  0  0  0  0  0  0  0  0  0  0
  -31.3845   -3.5937   -2.8756 O   0  0  0  0  0  0  0  0  0  0  0  0
  -30.7535   -5.7554   -3.5252 C   0  0  0  0  0  0  0  0  0  0  0  0
  -30.2856   -6.6334   -4.4959 C   0  0  0  0  0  0  0  0  0  0  0  0
  -31.5309   -2.7147   -3.2589 H   0  0  0  0  0  0  0  0  0  0  0  0
  -28.6293  -10.4657   -4.1649 N   0  0  0  0  0  0  0  0  0  0  0  0
  -29.2340  -11.0976   -5.2607 C   0  0  0  0  0  0  0  0  0  0  0  0
  -28.6505  -11.8929   -5.9863 O   0  0  0  0  0  0  0  0  0  0  0  0
  -30.5515  -10.7344   -5.4484 N   0  0  0  0  0  0  0  0  0  0  0  0
  -29.2421  -10.0326   -3.4928 H   0  0  0  0  0  0  0  0  0  0  0  0
  -30.8623   -9.9564   -4.8840 H   0  0  0  0  0  0  0  0  0  0  0  0
  -23.2503  -10.7736   -2.4187 N   0  0  0  0  0  0  0  0  0  0  0  0
  -24.5308  -10.7620   -2.9825 C   0  0  0  0  0  0  0  0  0  0  0  0
  -25.4170  -11.8057   -2.7297 C   0  0  0  0  0  0  0  0  0  0  0  0
  -26.7557  -11.7407   -3.1463 C   0  0  0  0  0  0  0  0  0  0  0  0
  -27.2643  -10.5993   -3.7733 C   0  0  0  0  0  0  0  0  0  0  0  0
  -26.3765   -9.5474   -4.0283 C   0  0  0  0  0  0  0  0  0  0  0  0
  -25.0327   -9.6192   -3.6041 C   0  0  0  0  0  0  0  0  0  0  0  0
  -22.8826  -11.7054   -2.2387 H   0  0  0  0  0  0  0  0  0  0  0  0
  -22.5751  -10.1741   -2.8811 H   0  0  0  0  0  0  0  0  0  0  0  0
 29 30  1  0  0  0
 29 36  1  0  0  0
 29 37  1  0  0  0
 30 31  1  0  0  0
 30 35  2  0  0  0
 31 32  2  0  0  0
 32 33  1  0  0  0
 33 23  1  0  0  0
 33 34  2  0  0  0
 23 24  1  0  0  0
 23 27  1  0  0  0
 24 25  2  0  0  0
 24 26  1  0  0  0
 26  1  1  0  0  0
 26 28  1  0  0  0
  1  2  1  0  0  0
  1  6  2  0  0  0
  2  3  2  0  0  0
  3  4  1  0  0  0
  4  5  2  0  0  0
  5  6  1  0  0  0
  5 10  1  0  0  0
  6  7  1  0  0  0
  7  8  2  0  0  0
  7  9  1  0  0  0
  9 10  1  0  0  0
  9 13  2  0  0  0
 10 11  2  0  0  0
 11 12  1  0  0  0
 12 13  1  0  0  0
 12 14  1  0  0  0
 13 15  1  0  0  0
 15 16  1  0  0  0
 15 21  2  0  0  0
 16 17  2  0  0  0
 17 18  1  0  0  0
 18 19  1  0  0  0
 18 20  2  0  0  0
 19 22  1  0  0  0
 20 21  1  0  0  0
 34 35  1  0  0  0
M  END
> <minimizedAffinity>
-9.15371

$$$$
