CHEMBL1242853


 33 37  0  0  0  0  0  0  0  0999 V2000
  -31.4935   11.0321  -13.4641 C   0  0  0  0  0  0  0  0  0  0  0  0
  -32.3784   10.4817  -14.3227 N   0  0  0  0  0  0  0  0  0  0  0  0
  -33.5481   10.4624  -13.6463 N   0  0  0  0  0  0  0  0  0  0  0  0
  -33.4601   11.0441  -12.4092 C   0  0  0  0  0  0  0  0  0  0  0  0
  -34.4519   11.1836  -11.5108 N   0  0  0  0  0  0  0  0  0  0  0  0
  -34.0212   11.7882  -10.3927 C   0  0  0  0  0  0  0  0  0  0  0  0
  -32.7837   12.2467  -10.1221 N   0  0  0  0  0  0  0  0  0  0  0  0
  -31.8187   12.0910  -11.0524 C   0  0  0  0  0  0  0  0  0  0  0  0
  -30.5701   12.5964  -10.7203 N   0  0  0  0  0  0  0  0  0  0  0  0
  -32.1419   11.4473  -12.2592 C   0  0  0  0  0  0  0  0  0  0  0  0
  -30.6169   13.1970   -9.9054 H   0  0  0  0  0  0  0  0  0  0  0  0
  -30.0212   12.9456  -11.4951 H   0  0  0  0  0  0  0  0  0  0  0  0
  -24.8599   11.8688  -14.8564 C   0  0  0  0  0  0  0  0  0  0  0  0
  -23.9048   11.6425  -15.5822 O   0  0  0  0  0  0  0  0  0  0  0  0
  -26.0996   11.2692  -15.1861 N   0  0  0  0  0  0  0  0  0  0  0  0
  -26.2272   10.4239  -16.2925 C   0  0  0  0  0  0  0  0  0  0  0  0
  -27.5191   10.0039  -16.4152 C   0  0  0  0  0  0  0  0  0  0  0  0
  -28.2475   10.5829  -15.3528 C   0  0  0  0  0  0  0  0  0  0  0  0
  -29.6077   10.5004  -14.9905 C   0  0  0  0  0  0  0  0  0  0  0  0
  -30.0738   11.1369  -13.8343 C   0  0  0  0  0  0  0  0  0  0  0  0
  -29.1540   11.8343  -13.0441 C   0  0  0  0  0  0  0  0  0  0  0  0
  -27.8060   11.9839  -13.4114 C   0  0  0  0  0  0  0  0  0  0  0  0
  -27.3621   11.3411  -14.5764 C   0  0  0  0  0  0  0  0  0  0  0  0
  -24.8900   12.6525  -13.7438 O   0  0  0  0  0  0  0  0  0  0  0  0
  -22.9765   12.6590  -12.1842 C   0  0  0  0  0  0  0  0  0  0  0  0
  -24.3496   12.0550  -12.5231 C   0  0  0  0  0  0  0  0  0  0  0  0
  -24.2996   10.5218  -12.6389 C   0  0  0  0  0  0  0  0  0  0  0  0
  -25.2890   12.4015  -11.3496 C   0  0  0  0  0  0  0  0  0  0  0  0
  -34.7184    9.8199  -14.2138 C   0  0  0  0  0  0  0  0  0  0  0  0
  -34.8448    8.3355  -13.8592 C   0  0  0  0  0  0  0  0  0  0  0  0
  -35.7612    7.7382  -14.9258 C   0  0  0  0  0  0  0  0  0  0  0  0
  -35.8127    8.7469  -16.0716 C   0  0  0  0  0  0  0  0  0  0  0  0
  -34.7768    9.8165  -15.7423 C   0  0  0  0  0  0  0  0  0  0  0  0
 25 26  1  0  0  0
 26 27  1  0  0  0
 26 28  1  0  0  0
 26 24  1  0  0  0
 24 13  1  0  0  0
 13 14  2  0  0  0
 13 15  1  0  0  0
 15 16  1  0  0  0
 15 23  1  0  0  0
 16 17  2  0  0  0
 17 18  1  0  0  0
 18 19  1  0  0  0
 18 23  2  0  0  0
 19 20  2  0  0  0
 20  1  1  0  0  0
 20 21  1  0  0  0
  1  2  2  0  0  0
  1 10  1  0  0  0
  2  3  1  0  0  0
  3 29  1  0  0  0
  3  4  1  0  0  0
 29 30  1  0  0  0
 29 33  1  0  0  0
 30 31  1  0  0  0
 31 32  1  0  0  0
 32 33  1  0  0  0
  4  5  1  0  0  0
  4 10  2  0  0  0
  5  6  2  0  0  0
  6  7  1  0  0  0
  7  8  2  0  0  0
  8  9  1  0  0  0
  8 10  1  0  0  0
  9 11  1  0  0  0
  9 12  1  0  0  0
 21 22  2  0  0  0
 22 23  1  0  0  0
M  END
> <minimizedAffinity>
-5.60815

$$$$
