CHEMBL3694664


 42 46  0  0  0  0  0  0  0  0999 V2000
  -26.0676   -1.2782  -10.8182 C   0  0  0  0  0  0  0  0  0  0  0  0
  -25.1320   -0.1750  -10.5922 C   0  0  0  0  0  0  0  0  0  0  0  0
  -24.3655    0.2730  -11.6061 C   0  0  0  0  0  0  0  0  0  0  0  0
  -24.4531   -0.3282  -12.8598 N   0  0  0  0  0  0  0  0  0  0  0  0
  -23.7250   -0.1143  -14.0278 C   0  0  0  0  0  0  0  0  0  0  0  0
  -24.3464   -0.9484  -14.9524 C   0  0  0  0  0  0  0  0  0  0  0  0
  -25.3453   -1.6957  -14.3948 N   0  0  0  0  0  0  0  0  0  0  0  0
  -25.3782   -1.3381  -13.1324 C   0  0  0  0  0  0  0  0  0  0  0  0
  -26.1859   -1.8147  -12.0550 C   0  0  0  0  0  0  0  0  0  0  0  0
  -28.3877   -3.0085   -7.6547 C   0  0  0  0  0  0  0  0  0  0  0  0
  -28.1122   -1.6388   -7.6692 C   0  0  0  0  0  0  0  0  0  0  0  0
  -27.3528   -1.0632   -8.6970 C   0  0  0  0  0  0  0  0  0  0  0  0
  -26.8663   -1.8602   -9.7250 C   0  0  0  0  0  0  0  0  0  0  0  0
  -27.2038   -3.2039   -9.6710 C   0  0  0  0  0  0  0  0  0  0  0  0
  -27.9423   -3.7763   -8.6784 N   0  0  0  0  0  0  0  0  0  0  0  0
  -28.7239   -5.7300   -4.7019 C   0  0  0  0  0  0  0  0  0  0  0  0
  -28.4119   -4.2536   -4.3827 C   0  0  0  0  0  0  0  0  0  0  0  0
  -29.0952   -3.1889   -5.2505 C   0  0  0  0  0  0  0  0  0  0  0  0
  -29.1534   -3.5860   -6.6555 N   0  0  0  0  0  0  0  0  0  0  0  0
  -29.7806   -4.8814   -6.8879 C   0  0  0  0  0  0  0  0  0  0  0  0
  -28.9856   -5.9816   -6.1964 C   0  0  0  0  0  0  0  0  0  0  0  0
  -29.2248   -7.0893   -2.6084 N   0  0  0  0  0  0  0  0  0  0  0  0
  -29.7598   -6.3889   -3.7662 C   0  0  0  0  0  0  0  0  0  0  0  0
  -30.0113   -7.4687   -2.0755 H   0  0  0  0  0  0  0  0  0  0  0  0
  -28.7769   -6.4289   -1.9764 H   0  0  0  0  0  0  0  0  0  0  0  0
  -22.5749    0.7818  -14.2165 C   0  0  0  0  0  0  0  0  0  0  0  0
  -22.7476    2.1593  -14.0270 C   0  0  0  0  0  0  0  0  0  0  0  0
  -21.7075    3.0473  -14.2864 C   0  0  0  0  0  0  0  0  0  0  0  0
  -20.4652    2.5702  -14.6996 C   0  0  0  0  0  0  0  0  0  0  0  0
  -20.2392    1.2026  -14.8555 C   0  0  0  0  0  0  0  0  0  0  0  0
  -21.3141    0.3197  -14.6474 C   0  0  0  0  0  0  0  0  0  0  0  0
  -18.9784    0.6638  -15.2188 N   0  0  0  0  0  0  0  0  0  0  0  0
  -17.7940    0.8352  -14.5353 C   0  0  0  0  0  0  0  0  0  0  0  0
  -17.6239    1.4663  -13.5006 O   0  0  0  0  0  0  0  0  0  0  0  0
  -16.7222    0.2415  -15.1679 N   0  0  0  0  0  0  0  0  0  0  0  0
  -18.9452    0.0998  -16.0545 H   0  0  0  0  0  0  0  0  0  0  0  0
  -16.9087   -0.6195  -15.6624 H   0  0  0  0  0  0  0  0  0  0  0  0
  -15.4018    0.3689  -14.5292 C   0  0  0  0  0  0  0  0  0  0  0  0
  -15.0562   -0.6830  -13.4619 C   0  0  0  0  0  0  0  0  0  0  0  0
  -15.4345   -0.2946  -12.2225 F   0  0  0  0  0  0  0  0  0  0  0  0
  -15.7189   -1.8382  -13.7267 F   0  0  0  0  0  0  0  0  0  0  0  0
  -13.7404   -0.9781  -13.4304 F   0  0  0  0  0  0  0  0  0  0  0  0
 22 23  1  0  0  0
 22 24  1  0  0  0
 22 25  1  0  0  0
 23 16  1  0  0  0
 16 17  1  0  0  0
 16 21  1  0  0  0
 17 18  1  0  0  0
 18 19  1  0  0  0
 19 10  1  0  0  0
 19 20  1  0  0  0
 10 11  1  0  0  0
 10 15  2  0  0  0
 11 12  2  0  0  0
 12 13  1  0  0  0
 13  1  1  0  0  0
 13 14  2  0  0  0
  1  2  1  0  0  0
  1  9  2  0  0  0
  2  3  2  0  0  0
  3  4  1  0  0  0
  4  5  1  0  0  0
  4  8  1  0  0  0
  5 26  1  0  0  0
  5  6  2  0  0  0
 26 27  1  0  0  0
 26 31  2  0  0  0
 27 28  2  0  0  0
 28 29  1  0  0  0
 29 30  2  0  0  0
 30 32  1  0  0  0
 30 31  1  0  0  0
 32 33  1  0  0  0
 32 36  1  0  0  0
 33 34  2  0  0  0
 33 35  1  0  0  0
 35 38  1  0  0  0
 35 37  1  0  0  0
 38 39  1  0  0  0
 39 40  1  0  0  0
 39 41  1  0  0  0
 39 42  1  0  0  0
  6  7  1  0  0  0
  7  8  2  0  0  0
  8  9  1  0  0  0
 14 15  1  0  0  0
 20 21  1  0  0  0
M  END
> <minimizedAffinity>
-9.55278

$$$$
