CHEMBL1242109


 25 27  0  0  0  0  0  0  0  0999 V2000
  -15.0023    3.1097  -16.4070 N   0  0  0  0  0  0  0  0  0  0  0  0
  -16.3494    3.1011  -16.3776 N   0  0  0  0  0  0  0  0  0  0  0  0
  -16.6610    2.2330  -15.3962 C   0  0  0  0  0  0  0  0  0  0  0  0
  -15.4783    1.7324  -14.7535 C   0  0  0  0  0  0  0  0  0  0  0  0
  -15.1147    0.8761  -13.7015 C   0  0  0  0  0  0  0  0  0  0  0  0
  -15.9889    0.1905  -12.8743 N   0  0  0  0  0  0  0  0  0  0  0  0
  -13.8039    0.6877  -13.4388 N   0  0  0  0  0  0  0  0  0  0  0  0
  -12.8935    1.3284  -14.1947 C   0  0  0  0  0  0  0  0  0  0  0  0
  -13.1158    2.1672  -15.2148 N   0  0  0  0  0  0  0  0  0  0  0  0
  -14.4294    2.3273  -15.4424 C   0  0  0  0  0  0  0  0  0  0  0  0
  -16.8795    0.6343  -12.6953 H   0  0  0  0  0  0  0  0  0  0  0  0
  -15.5107   -0.1922  -12.0676 H   0  0  0  0  0  0  0  0  0  0  0  0
  -18.0670    1.9462  -15.1050 C   0  0  0  0  0  0  0  0  0  0  0  0
  -18.5913    0.6670  -15.3309 C   0  0  0  0  0  0  0  0  0  0  0  0
  -19.9410    0.3907  -15.0806 C   0  0  0  0  0  0  0  0  0  0  0  0
  -20.8013    1.3935  -14.6129 C   0  0  0  0  0  0  0  0  0  0  0  0
  -22.2455    1.0761  -14.3585 C   0  0  0  0  0  0  0  0  0  0  0  0
  -20.2675    2.6639  -14.3818 C   0  0  0  0  0  0  0  0  0  0  0  0
  -21.0201    3.7211  -13.9543 O   0  0  0  0  0  0  0  0  0  0  0  0
  -18.9137    2.9285  -14.5861 C   0  0  0  0  0  0  0  0  0  0  0  0
  -21.9473    3.4500  -13.8791 H   0  0  0  0  0  0  0  0  0  0  0  0
  -14.2974    3.9065  -17.4042 C   0  0  0  0  0  0  0  0  0  0  0  0
  -13.6500    5.1311  -16.7521 C   0  0  0  0  0  0  0  0  0  0  0  0
  -14.7850    5.6499  -19.2159 C   0  0  0  0  0  0  0  0  0  0  0  0
  -15.2010    4.3301  -18.5777 C   0  0  0  0  0  0  0  0  0  0  0  0
 24 25  1  0  0  0
 25 22  1  0  0  0
 22 23  1  0  0  0
 22  1  1  0  0  0
  1  2  1  0  0  0
  1 10  1  0  0  0
  2  3  2  0  0  0
  3 13  1  0  0  0
  3  4  1  0  0  0
 13 14  1  0  0  0
 13 20  2  0  0  0
 14 15  2  0  0  0
 15 16  1  0  0  0
 16 17  1  0  0  0
 16 18  2  0  0  0
 18 19  1  0  0  0
 18 20  1  0  0  0
 19 21  1  0  0  0
  4  5  1  0  0  0
  4 10  2  0  0  0
  5  6  1  0  0  0
  5  7  2  0  0  0
  6 11  1  0  0  0
  6 12  1  0  0  0
  7  8  1  0  0  0
  8  9  2  0  0  0
  9 10  1  0  0  0
M  END
> <minimizedAffinity>
-7.35735

$$$$
