CHEMBL3702605


 33 36  0  0  0  0  0  0  0  0999 V2000
  -14.5475   -2.7325  -12.9071 C   0  0  0  0  0  0  0  0  0  0  0  0
  -13.3855   -2.5039  -13.6583 C   0  0  0  0  0  0  0  0  0  0  0  0
  -13.2444   -1.3806  -14.4870 C   0  0  0  0  0  0  0  0  0  0  0  0
  -14.2720   -0.4440  -14.5906 C   0  0  0  0  0  0  0  0  0  0  0  0
  -15.4391   -0.6433  -13.8529 C   0  0  0  0  0  0  0  0  0  0  0  0
  -15.5595   -1.7728  -13.0239 C   0  0  0  0  0  0  0  0  0  0  0  0
  -12.9219   -9.8887  -12.0340 N   0  0  0  0  0  0  0  0  0  0  0  0
  -13.0677   -8.5251  -11.8892 C   0  0  0  0  0  0  0  0  0  0  0  0
  -12.0552   -7.8535  -11.3368 N   0  0  0  0  0  0  0  0  0  0  0  0
  -12.2240   -6.5248  -11.1982 C   0  0  0  0  0  0  0  0  0  0  0  0
  -13.3530   -5.8448  -11.6025 C   0  0  0  0  0  0  0  0  0  0  0  0
  -14.3331   -6.6323  -12.1807 C   0  0  0  0  0  0  0  0  0  0  0  0
  -14.1948   -7.9690  -12.3422 N   0  0  0  0  0  0  0  0  0  0  0  0
  -15.6005   -6.0147  -12.7092 C   0  0  0  0  0  0  0  0  0  0  0  0
  -15.8762   -4.6671  -12.0498 C   0  0  0  0  0  0  0  0  0  0  0  0
  -14.6705   -3.8302  -12.0753 N   0  0  0  0  0  0  0  0  0  0  0  0
  -13.5058   -4.3695  -11.3695 C   0  0  0  0  0  0  0  0  0  0  0  0
  -11.9401  -10.1238  -12.0484 H   0  0  0  0  0  0  0  0  0  0  0  0
  -13.4910  -10.2108  -12.8035 H   0  0  0  0  0  0  0  0  0  0  0  0
  -16.5583    0.3355  -13.8193 C   0  0  0  0  0  0  0  0  0  0  0  0
  -16.6701    1.0047  -12.7942 O   0  0  0  0  0  0  0  0  0  0  0  0
  -17.4210    0.3699  -14.9062 N   0  0  0  0  0  0  0  0  0  0  0  0
  -17.3528   -0.3806  -15.5814 H   0  0  0  0  0  0  0  0  0  0  0  0
  -18.5610    1.2112  -14.9914 C   0  0  0  0  0  0  0  0  0  0  0  0
  -18.4928    2.5252  -15.4683 C   0  0  0  0  0  0  0  0  0  0  0  0
  -19.6086    3.3613  -15.4453 C   0  0  0  0  0  0  0  0  0  0  0  0
  -20.8171    2.8898  -14.9464 C   0  0  0  0  0  0  0  0  0  0  0  0
  -20.9284    1.5675  -14.4960 C   0  0  0  0  0  0  0  0  0  0  0  0
  -19.7958    0.7245  -14.5502 C   0  0  0  0  0  0  0  0  0  0  0  0
  -22.2295    1.0685  -13.9239 C   0  0  0  0  0  0  0  0  0  0  0  0
  -23.1131    2.0613  -13.6201 F   0  0  0  0  0  0  0  0  0  0  0  0
  -22.8900    0.2321  -14.7744 F   0  0  0  0  0  0  0  0  0  0  0  0
  -22.0542    0.3640  -12.7711 F   0  0  0  0  0  0  0  0  0  0  0  0
  7  8  1  0  0  0
  7 18  1  0  0  0
  7 19  1  0  0  0
  8  9  1  0  0  0
  8 13  2  0  0  0
  9 10  2  0  0  0
 10 11  1  0  0  0
 11 12  2  0  0  0
 11 17  1  0  0  0
 12 13  1  0  0  0
 12 14  1  0  0  0
 14 15  1  0  0  0
 15 16  1  0  0  0
 16  1  1  0  0  0
 16 17  1  0  0  0
  1  2  1  0  0  0
  1  6  2  0  0  0
  2  3  2  0  0  0
  3  4  1  0  0  0
  4  5  2  0  0  0
  5 20  1  0  0  0
  5  6  1  0  0  0
 20 21  2  0  0  0
 20 22  1  0  0  0
 22 24  1  0  0  0
 22 23  1  0  0  0
 24 25  1  0  0  0
 24 29  2  0  0  0
 25 26  2  0  0  0
 26 27  1  0  0  0
 27 28  2  0  0  0
 28 30  1  0  0  0
 28 29  1  0  0  0
 30 31  1  0  0  0
 30 32  1  0  0  0
 30 33  1  0  0  0
M  END
> <minimizedAffinity>
-10.31399

$$$$
