CHEMBL3986984


 43 47  0  0  0  0  0  0  0  0999 V2000
  -15.8193    1.8350  -16.3901 O   0  0  0  0  0  0  0  0  0  0  0  0
  -14.7709    2.4363  -15.7213 C   0  0  0  0  0  0  0  0  0  0  0  0
  -14.4917    3.8018  -15.8019 C   0  0  0  0  0  0  0  0  0  0  0  0
  -13.4302    4.3147  -15.0831 C   0  0  0  0  0  0  0  0  0  0  0  0
  -12.5830    3.5928  -14.3319 N   0  0  0  0  0  0  0  0  0  0  0  0
  -12.8091    2.2523  -14.3065 C   0  0  0  0  0  0  0  0  0  0  0  0
  -12.0022    1.3106  -13.6065 C   0  0  0  0  0  0  0  0  0  0  0  0
  -12.4525    0.0130  -13.7346 C   0  0  0  0  0  0  0  0  0  0  0  0
  -13.8542   -0.0534  -14.7206 S   0  0  0  0  0  0  0  0  0  0  0  0
  -13.8728    1.6478  -14.9756 C   0  0  0  0  0  0  0  0  0  0  0  0
  -11.8594   -1.1784  -13.1365 C   0  0  0  0  0  0  0  0  0  0  0  0
  -11.1585   -1.1467  -12.1291 O   0  0  0  0  0  0  0  0  0  0  0  0
  -12.1401   -2.3634  -13.7782 N   0  0  0  0  0  0  0  0  0  0  0  0
  -12.7349   -2.3226  -14.5973 H   0  0  0  0  0  0  0  0  0  0  0  0
  -11.6545   -3.6511  -13.3274 C   0  0  0  0  0  0  0  0  0  0  0  0
  -12.8041   -4.6495  -13.2619 C   0  0  0  0  0  0  0  0  0  0  0  0
  -13.7255   -4.3998  -12.0626 C   0  0  0  0  0  0  0  0  0  0  0  0
  -14.9339   -3.6445  -12.4347 N   0  0  0  0  0  0  0  0  0  0  0  0
  -15.9976   -3.7969  -11.4277 C   0  0  0  0  0  0  0  0  0  0  0  0
  -16.7703   -5.0352  -11.8430 C   0  0  0  0  0  0  0  0  0  0  0  0
  -16.6942   -5.0253  -13.3573 C   0  0  0  0  0  0  0  0  0  0  0  0
  -15.5512   -4.0778  -13.6985 C   0  0  0  0  0  0  0  0  0  0  0  0
  -19.6238    1.8530  -14.6550 C   0  0  0  0  0  0  0  0  0  0  0  0
  -18.7671    0.7559  -14.5202 C   0  0  0  0  0  0  0  0  0  0  0  0
  -17.5052    0.7731  -15.1269 C   0  0  0  0  0  0  0  0  0  0  0  0
  -17.0888    1.8907  -15.8557 C   0  0  0  0  0  0  0  0  0  0  0  0
  -17.9254    3.0052  -15.9512 C   0  0  0  0  0  0  0  0  0  0  0  0
  -19.2001    2.9567  -15.3940 C   0  0  0  0  0  0  0  0  0  0  0  0
  -20.0082    4.0212  -15.5183 F   0  0  0  0  0  0  0  0  0  0  0  0
  -22.9345    1.0159  -13.4368 N   0  0  0  0  0  0  0  0  0  0  0  0
  -21.7544    0.8199  -14.1336 C   0  0  0  0  0  0  0  0  0  0  0  0
  -21.4310   -0.1941  -14.7364 O   0  0  0  0  0  0  0  0  0  0  0  0
  -20.8906    1.9042  -14.0114 N   0  0  0  0  0  0  0  0  0  0  0  0
  -23.0021    1.8593  -12.8869 H   0  0  0  0  0  0  0  0  0  0  0  0
  -20.8621    2.2978  -13.0793 H   0  0  0  0  0  0  0  0  0  0  0  0
  -25.9834   -1.3939  -10.3720 C   0  0  0  0  0  0  0  0  0  0  0  0
  -25.4675   -1.1437  -11.7601 C   0  0  0  0  0  0  0  0  0  0  0  0
  -25.9718   -1.8879  -12.8307 C   0  0  0  0  0  0  0  0  0  0  0  0
  -25.5241   -1.6360  -14.1208 C   0  0  0  0  0  0  0  0  0  0  0  0
  -24.5606   -0.6565  -14.3506 C   0  0  0  0  0  0  0  0  0  0  0  0
  -24.2917   -0.3961  -15.6341 F   0  0  0  0  0  0  0  0  0  0  0  0
  -23.9861    0.0645  -13.2970 C   0  0  0  0  0  0  0  0  0  0  0  0
  -24.4752   -0.1705  -12.0000 C   0  0  0  0  0  0  0  0  0  0  0  0
 36 37  1  0  0  0
 37 38  1  0  0  0
 37 43  2  0  0  0
 38 39  2  0  0  0
 39 40  1  0  0  0
 40 41  1  0  0  0
 40 42  2  0  0  0
 42 30  1  0  0  0
 42 43  1  0  0  0
 30 31  1  0  0  0
 30 34  1  0  0  0
 31 32  2  0  0  0
 31 33  1  0  0  0
 33 23  1  0  0  0
 33 35  1  0  0  0
 23 24  1  0  0  0
 23 28  2  0  0  0
 24 25  2  0  0  0
 25 26  1  0  0  0
 26  1  1  0  0  0
 26 27  2  0  0  0
  1  2  1  0  0  0
  2  3  1  0  0  0
  2 10  2  0  0  0
  3  4  2  0  0  0
  4  5  1  0  0  0
  5  6  2  0  0  0
  6  7  1  0  0  0
  6 10  1  0  0  0
  7  8  2  0  0  0
  8 11  1  0  0  0
  8  9  1  0  0  0
 11 12  2  0  0  0
 11 13  1  0  0  0
 13 15  1  0  0  0
 13 14  1  0  0  0
 15 16  1  0  0  0
 16 17  1  0  0  0
 17 18  1  0  0  0
 18 19  1  0  0  0
 18 22  1  0  0  0
 19 20  1  0  0  0
 20 21  1  0  0  0
 21 22  1  0  0  0
  9 10  1  0  0  0
 27 28  1  0  0  0
 28 29  1  0  0  0
M  END
> <minimizedAffinity>
-9.97561

$$$$
