CHEMBL3109353


 35 39  0  0  0  0  0  0  0  0999 V2000
  -15.0096    0.8263  -15.7246 C   0  0  0  0  0  0  0  0  0  0  0  0
  -14.2706    0.5217  -16.8562 C   0  0  0  0  0  0  0  0  0  0  0  0
  -13.3434   -0.5048  -16.7837 C   0  0  0  0  0  0  0  0  0  0  0  0
  -13.1821   -1.2121  -15.5909 C   0  0  0  0  0  0  0  0  0  0  0  0
  -12.2447   -2.2508  -15.5291 C   0  0  0  0  0  0  0  0  0  0  0  0
  -12.0788   -2.9717  -14.3565 C   0  0  0  0  0  0  0  0  0  0  0  0
  -12.8614   -2.6690  -13.2451 C   0  0  0  0  0  0  0  0  0  0  0  0
  -13.8235   -1.6444  -13.2993 C   0  0  0  0  0  0  0  0  0  0  0  0
  -13.9830   -0.8702  -14.4724 C   0  0  0  0  0  0  0  0  0  0  0  0
  -14.8767    0.1500  -14.5588 N   0  0  0  0  0  0  0  0  0  0  0  0
  -20.0724    2.0925  -15.0932 C   0  0  0  0  0  0  0  0  0  0  0  0
  -19.4576    0.7684  -15.0167 C   0  0  0  0  0  0  0  0  0  0  0  0
  -18.1381    0.6357  -15.2306 C   0  0  0  0  0  0  0  0  0  0  0  0
  -17.3673    1.7592  -15.5249 N   0  0  0  0  0  0  0  0  0  0  0  0
  -16.0073    1.8906  -15.7562 C   0  0  0  0  0  0  0  0  0  0  0  0
  -15.8366    3.2489  -15.9772 C   0  0  0  0  0  0  0  0  0  0  0  0
  -17.0062    3.9484  -15.8713 N   0  0  0  0  0  0  0  0  0  0  0  0
  -17.9180    3.0401  -15.5990 C   0  0  0  0  0  0  0  0  0  0  0  0
  -19.3185    3.1720  -15.3717 C   0  0  0  0  0  0  0  0  0  0  0  0
  -21.4294    2.2501  -14.8765 O   0  0  0  0  0  0  0  0  0  0  0  0
  -22.0074    1.5752  -13.7604 C   0  0  0  0  0  0  0  0  0  0  0  0
  -22.9422    0.4817  -14.2515 C   0  0  0  0  0  0  0  0  0  0  0  0
  -22.7975   -0.5754  -12.1567 C   0  0  0  0  0  0  0  0  0  0  0  0
  -22.6363   -0.7322  -13.5602 O   0  0  0  0  0  0  0  0  0  0  0  0
  -14.6439   -1.3256  -12.2262 O   0  0  0  0  0  0  0  0  0  0  0  0
  -15.7144   -2.2230  -11.9257 C   0  0  0  0  0  0  0  0  0  0  0  0
  -15.4422   -3.1407  -10.7398 C   0  0  0  0  0  0  0  0  0  0  0  0
  -16.3964   -4.2429  -10.9030 N   0  0  0  0  0  0  0  0  0  0  0  0
  -16.4780   -4.4904  -12.3711 C   0  0  0  0  0  0  0  0  0  0  0  0
  -15.9387   -3.2312  -13.0594 C   0  0  0  0  0  0  0  0  0  0  0  0
  -17.3114   -3.9467  -10.5681 H   0  0  0  0  0  0  0  0  0  0  0  0
  -15.7051   -5.7660  -12.7584 C   0  0  0  0  0  0  0  0  0  0  0  0
  -15.0503   -6.4714  -12.0006 O   0  0  0  0  0  0  0  0  0  0  0  0
  -15.9014   -6.0486  -14.0848 O   0  0  0  0  0  0  0  0  0  0  0  0
  -14.7936   -6.7208  -14.6916 C   0  0  0  0  0  0  0  0  0  0  0  0
 23 24  1  0  0  0
 24 22  1  0  0  0
 22 21  1  0  0  0
 21 20  1  0  0  0
 20 11  1  0  0  0
 11 12  1  0  0  0
 11 19  2  0  0  0
 12 13  2  0  0  0
 13 14  1  0  0  0
 14 15  1  0  0  0
 14 18  1  0  0  0
 15  1  1  0  0  0
 15 16  2  0  0  0
  1  2  1  0  0  0
  1 10  2  0  0  0
  2  3  2  0  0  0
  3  4  1  0  0  0
  4  5  1  0  0  0
  4  9  2  0  0  0
  5  6  2  0  0  0
  6  7  1  0  0  0
  7  8  2  0  0  0
  8 25  1  0  0  0
  8  9  1  0  0  0
 25 26  1  0  0  0
 26 27  1  0  0  0
 26 30  1  0  0  0
 27 28  1  0  0  0
 28 29  1  0  0  0
 28 31  1  0  0  0
 29 32  1  0  0  0
 29 30  1  0  0  0
 32 33  2  0  0  0
 32 34  1  0  0  0
 34 35  1  0  0  0
  9 10  1  0  0  0
 16 17  1  0  0  0
 17 18  2  0  0  0
 18 19  1  0  0  0
M  END
> <minimizedAffinity>
-8.16078

$$$$
