CHEMBL431038


 30 33  0  0  0  0  0  0  0  0999 V2000
  -27.7158   -1.8383   -9.1069 C   0  0  0  0  0  0  0  0  0  0  0  0
  -28.2483   -2.8228   -8.4173 N   0  0  0  0  0  0  0  0  0  0  0  0
  -28.3023   -2.3356   -7.1229 C   0  0  0  0  0  0  0  0  0  0  0  0
  -27.7947   -1.0434   -7.0897 C   0  0  0  0  0  0  0  0  0  0  0  0
  -27.4284   -0.7301   -8.3603 O   0  0  0  0  0  0  0  0  0  0  0  0
  -25.8264   -1.1876  -12.3222 C   0  0  0  0  0  0  0  0  0  0  0  0
  -26.8284   -1.6148  -13.1949 C   0  0  0  0  0  0  0  0  0  0  0  0
  -28.0341   -2.1110  -12.8170 N   0  0  0  0  0  0  0  0  0  0  0  0
  -28.2778   -2.1728  -11.4873 C   0  0  0  0  0  0  0  0  0  0  0  0
  -27.3783   -1.7610  -10.5161 C   0  0  0  0  0  0  0  0  0  0  0  0
  -26.1380   -1.2805  -10.9576 C   0  0  0  0  0  0  0  0  0  0  0  0
  -22.0313    0.3598  -13.6886 C   0  0  0  0  0  0  0  0  0  0  0  0
  -22.9776   -0.0910  -14.6025 C   0  0  0  0  0  0  0  0  0  0  0  0
  -24.1977   -0.6117  -14.1519 C   0  0  0  0  0  0  0  0  0  0  0  0
  -24.5166   -0.6807  -12.7822 C   0  0  0  0  0  0  0  0  0  0  0  0
  -23.5445   -0.2228  -11.8786 C   0  0  0  0  0  0  0  0  0  0  0  0
  -22.3187    0.2840  -12.3270 C   0  0  0  0  0  0  0  0  0  0  0  0
  -20.7843    2.2552  -14.3886 C   0  0  0  0  0  0  0  0  0  0  0  0
  -20.8088    0.8891  -13.9928 O   0  0  0  0  0  0  0  0  0  0  0  0
  -28.7061   -3.1746   -6.0057 C   0  0  0  0  0  0  0  0  0  0  0  0
  -29.9033   -3.8988   -6.1179 C   0  0  0  0  0  0  0  0  0  0  0  0
  -30.2763   -4.8247   -5.1427 C   0  0  0  0  0  0  0  0  0  0  0  0
  -29.4606   -5.0288   -4.0344 C   0  0  0  0  0  0  0  0  0  0  0  0
  -28.3033   -4.2692   -3.8750 C   0  0  0  0  0  0  0  0  0  0  0  0
  -27.9374   -3.3304   -4.8456 C   0  0  0  0  0  0  0  0  0  0  0  0
  -27.5717   -0.1396   -6.0860 N   0  0  0  0  0  0  0  0  0  0  0  0
  -28.4584    0.6520   -5.4273 C   0  0  0  0  0  0  0  0  0  0  0  0
  -29.9287    0.6876   -5.7500 C   0  0  0  0  0  0  0  0  0  0  0  0
  -28.0132    1.3943   -4.5458 O   0  0  0  0  0  0  0  0  0  0  0  0
  -26.6174   -0.0091   -5.7698 H   0  0  0  0  0  0  0  0  0  0  0  0
 18 19  1  0  0  0
 19 12  1  0  0  0
 12 13  1  0  0  0
 12 17  2  0  0  0
 13 14  2  0  0  0
 14 15  1  0  0  0
 15  6  1  0  0  0
 15 16  2  0  0  0
  6  7  1  0  0  0
  6 11  2  0  0  0
  7  8  2  0  0  0
  8  9  1  0  0  0
  9 10  2  0  0  0
 10  1  1  0  0  0
 10 11  1  0  0  0
  1  2  2  0  0  0
  1  5  1  0  0  0
  2  3  1  0  0  0
  3 20  1  0  0  0
  3  4  2  0  0  0
 20 21  1  0  0  0
 20 25  2  0  0  0
 21 22  2  0  0  0
 22 23  1  0  0  0
 23 24  2  0  0  0
 24 25  1  0  0  0
  4 26  1  0  0  0
  4  5  1  0  0  0
 26 27  1  0  0  0
 26 30  1  0  0  0
 27 28  1  0  0  0
 27 29  2  0  0  0
 16 17  1  0  0  0
M  END
> <minimizedAffinity>
-9.79882

$$$$
