CHEMBL4093349


 43 46  0  0  0  0  0  0  0  0999 V2000
  -28.1658   -3.3661   -7.7870 N   0  0  0  0  0  0  0  0  0  0  0  0
  -27.4999   -3.2066   -8.9970 C   0  0  0  0  0  0  0  0  0  0  0  0
  -27.1881   -4.1474   -9.7196 O   0  0  0  0  0  0  0  0  0  0  0  0
  -27.1417   -1.8020   -9.4130 C   0  0  0  0  0  0  0  0  0  0  0  0
  -27.4804   -0.7599   -8.6443 C   0  0  0  0  0  0  0  0  0  0  0  0
  -28.1680   -0.9907   -7.3846 C   0  0  0  0  0  0  0  0  0  0  0  0
  -28.5575    0.0258   -6.5411 C   0  0  0  0  0  0  0  0  0  0  0  0
  -29.1772   -0.1746   -5.3630 N   0  0  0  0  0  0  0  0  0  0  0  0
  -29.3880   -1.4433   -5.0016 C   0  0  0  0  0  0  0  0  0  0  0  0
  -29.0566   -2.4997   -5.7535 N   0  0  0  0  0  0  0  0  0  0  0  0
  -28.4718   -2.2646   -6.9443 C   0  0  0  0  0  0  0  0  0  0  0  0
  -26.4058   -1.5823  -10.6712 C   0  0  0  0  0  0  0  0  0  0  0  0
  -25.0204   -1.3559  -10.6162 C   0  0  0  0  0  0  0  0  0  0  0  0
  -24.2709   -1.2096  -11.7867 C   0  0  0  0  0  0  0  0  0  0  0  0
  -24.8967   -1.2890  -13.0285 C   0  0  0  0  0  0  0  0  0  0  0  0
  -26.2751   -1.4942  -13.1016 C   0  0  0  0  0  0  0  0  0  0  0  0
  -27.0295   -1.6345  -11.9316 C   0  0  0  0  0  0  0  0  0  0  0  0
  -28.7369   -1.8564  -12.0913 Cl  0  0  0  0  0  0  0  0  0  0  0  0
  -29.9309   -1.7410   -3.7738 N   0  0  0  0  0  0  0  0  0  0  0  0
  -29.7425   -0.9905   -3.1233 H   0  0  0  0  0  0  0  0  0  0  0  0
  -29.8139   -3.0969   -3.2748 C   0  0  0  0  0  0  0  0  0  0  0  0
  -31.1710   -3.8022   -3.4027 C   0  0  0  0  0  0  0  0  0  0  0  0
  -30.9998   -5.1861   -4.0409 C   0  0  0  0  0  0  0  0  0  0  0  0
  -29.8545   -6.0227   -3.4656 C   0  0  0  0  0  0  0  0  0  0  0  0
  -29.1017   -6.8673   -4.4160 N   0  0  0  0  0  0  0  0  0  0  0  0
  -27.7121   -6.4292   -4.6311 C   0  0  0  0  0  0  0  0  0  0  0  0
  -27.2944   -5.1178   -3.9695 C   0  0  0  0  0  0  0  0  0  0  0  0
  -29.2182   -8.2755   -3.9897 C   0  0  0  0  0  0  0  0  0  0  0  0
  -28.1386   -9.2050   -4.5324 C   0  0  0  0  0  0  0  0  0  0  0  0
  -28.5143   -4.7171   -7.3287 C   0  0  0  0  0  0  0  0  0  0  0  0
  -29.9694   -5.1131   -7.6284 C   0  0  0  0  0  0  0  0  0  0  0  0
  -29.3596   -8.8674   -8.0580 C   0  0  0  0  0  0  0  0  0  0  0  0
  -30.5464   -9.3703   -7.5173 C   0  0  0  0  0  0  0  0  0  0  0  0
  -31.5452   -8.5194   -7.0523 C   0  0  0  0  0  0  0  0  0  0  0  0
  -31.3603   -7.1437   -7.1033 C   0  0  0  0  0  0  0  0  0  0  0  0
  -30.1630   -6.6108   -7.6040 C   0  0  0  0  0  0  0  0  0  0  0  0
  -29.1609   -7.4794   -8.0695 C   0  0  0  0  0  0  0  0  0  0  0  0
  -28.3754  -10.2653   -9.8505 C   0  0  0  0  0  0  0  0  0  0  0  0
  -29.2115  -10.0590  -10.7224 O   0  0  0  0  0  0  0  0  0  0  0  0
  -28.3514   -9.7105   -8.5839 N   0  0  0  0  0  0  0  0  0  0  0  0
  -27.5273   -9.8413   -8.0129 H   0  0  0  0  0  0  0  0  0  0  0  0
  -26.1973  -11.1810   -9.2653 C   0  0  0  0  0  0  0  0  0  0  0  0
  -27.2245  -11.1667  -10.1280 C   0  0  0  0  0  0  0  0  0  0  0  0
 42 43  2  0  0  0
 43 38  1  0  0  0
 38 39  2  0  0  0
 38 40  1  0  0  0
 40 32  1  0  0  0
 40 41  1  0  0  0
 32 33  1  0  0  0
 32 37  2  0  0  0
 33 34  2  0  0  0
 34 35  1  0  0  0
 35 36  2  0  0  0
 36 31  1  0  0  0
 36 37  1  0  0  0
 31 30  1  0  0  0
 30  1  1  0  0  0
  1  2  1  0  0  0
  1 11  1  0  0  0
  2  3  2  0  0  0
  2  4  1  0  0  0
  4 12  1  0  0  0
  4  5  2  0  0  0
 12 13  1  0  0  0
 12 17  2  0  0  0
 13 14  2  0  0  0
 14 15  1  0  0  0
 15 16  2  0  0  0
 16 17  1  0  0  0
 17 18  1  0  0  0
  5  6  1  0  0  0
  6  7  1  0  0  0
  6 11  2  0  0  0
  7  8  2  0  0  0
  8  9  1  0  0  0
  9 19  1  0  0  0
  9 10  2  0  0  0
 19 21  1  0  0  0
 19 20  1  0  0  0
 21 22  1  0  0  0
 22 23  1  0  0  0
 23 24  1  0  0  0
 24 25  1  0  0  0
 25 26  1  0  0  0
 25 28  1  0  0  0
 26 27  1  0  0  0
 28 29  1  0  0  0
 10 11  1  0  0  0
M  END
> <minimizedAffinity>
-7.04236

$$$$
