CHEMBL1681940


 33 35  0  0  0  0  0  0  0  0999 V2000
  -25.6475   11.2367  -14.8735 C   0  0  0  0  0  0  0  0  0  0  0  0
  -25.8093   12.1957  -15.8693 C   0  0  0  0  0  0  0  0  0  0  0  0
  -24.7086   12.6585  -16.5865 C   0  0  0  0  0  0  0  0  0  0  0  0
  -23.4146   12.1980  -16.3209 C   0  0  0  0  0  0  0  0  0  0  0  0
  -23.2476   11.3200  -15.2353 C   0  0  0  0  0  0  0  0  0  0  0  0
  -21.6716   10.7597  -14.7873 Cl  0  0  0  0  0  0  0  0  0  0  0  0
  -24.3583   10.8369  -14.5148 C   0  0  0  0  0  0  0  0  0  0  0  0
  -22.3033   12.5855  -17.1315 N   0  0  0  0  0  0  0  0  0  0  0  0
  -21.9355   11.9442  -18.3020 C   0  0  0  0  0  0  0  0  0  0  0  0
  -22.5340   10.9800  -18.7713 O   0  0  0  0  0  0  0  0  0  0  0  0
  -20.8036   12.4680  -18.8969 N   0  0  0  0  0  0  0  0  0  0  0  0
  -21.6640   13.2608  -16.7325 H   0  0  0  0  0  0  0  0  0  0  0  0
  -20.0510   12.7151  -18.2721 H   0  0  0  0  0  0  0  0  0  0  0  0
  -20.3260   11.8440  -20.0675 C   0  0  0  0  0  0  0  0  0  0  0  0
  -19.4179   10.7871  -19.9997 C   0  0  0  0  0  0  0  0  0  0  0  0
  -18.7848   10.3641  -21.1618 C   0  0  0  0  0  0  0  0  0  0  0  0
  -19.0941   10.9936  -22.3576 C   0  0  0  0  0  0  0  0  0  0  0  0
  -20.0678   11.9823  -22.3428 C   0  0  0  0  0  0  0  0  0  0  0  0
  -20.7157   12.4025  -21.2295 N   0  0  0  0  0  0  0  0  0  0  0  0
  -26.7350   10.6927  -14.2138 O   0  0  0  0  0  0  0  0  0  0  0  0
  -29.0829   11.2054  -14.3037 C   0  0  0  0  0  0  0  0  0  0  0  0
  -30.2506   11.1578  -15.0596 C   0  0  0  0  0  0  0  0  0  0  0  0
  -31.4498   11.7240  -14.6355 N   0  0  0  0  0  0  0  0  0  0  0  0
  -30.2851   10.6673  -16.3084 N   0  0  0  0  0  0  0  0  0  0  0  0
  -29.1351   10.1932  -16.7958 C   0  0  0  0  0  0  0  0  0  0  0  0
  -27.9698   10.1560  -16.1480 N   0  0  0  0  0  0  0  0  0  0  0  0
  -27.9501   10.6940  -14.9062 C   0  0  0  0  0  0  0  0  0  0  0  0
  -31.6358   11.5250  -13.6508 H   0  0  0  0  0  0  0  0  0  0  0  0
  -32.1974   11.4617  -15.2680 H   0  0  0  0  0  0  0  0  0  0  0  0
  -29.3167   10.9475  -11.9185 N   0  0  0  0  0  0  0  0  0  0  0  0
  -29.0709   11.7279  -12.9252 C   0  0  0  0  0  0  0  0  0  0  0  0
  -27.9832   12.2770  -10.6294 C   0  0  0  0  0  0  0  0  0  0  0  0
  -29.2712   11.6732  -10.7230 O   0  0  0  0  0  0  0  0  0  0  0  0
 32 33  1  0  0  0
 33 30  1  0  0  0
 30 31  2  0  0  0
 31 21  1  0  0  0
 21 22  1  0  0  0
 21 27  2  0  0  0
 22 23  1  0  0  0
 22 24  2  0  0  0
 23 28  1  0  0  0
 23 29  1  0  0  0
 24 25  1  0  0  0
 25 26  2  0  0  0
 26 27  1  0  0  0
 27 20  1  0  0  0
 20  1  1  0  0  0
  1  2  1  0  0  0
  1  7  2  0  0  0
  2  3  2  0  0  0
  3  4  1  0  0  0
  4  8  1  0  0  0
  4  5  2  0  0  0
  8  9  1  0  0  0
  8 12  1  0  0  0
  9 10  2  0  0  0
  9 11  1  0  0  0
 11 14  1  0  0  0
 11 13  1  0  0  0
 14 15  1  0  0  0
 14 19  2  0  0  0
 15 16  2  0  0  0
 16 17  1  0  0  0
 17 18  2  0  0  0
 18 19  1  0  0  0
  5  6  1  0  0  0
  5  7  1  0  0  0
M  END
> <minimizedAffinity>
-4.07928

$$$$
