CHEMBL3939852


 37 41  0  0  0  0  0  0  0  0999 V2000
  -15.6416    2.4326  -15.9605 N   0  0  0  0  0  0  0  0  0  0  0  0
  -17.0398    2.4077  -15.5100 C   0  0  0  0  0  0  0  0  0  0  0  0
  -17.4049    1.2556  -14.8634 C   0  0  0  0  0  0  0  0  0  0  0  0
  -18.6876    1.1206  -14.4678 C   0  0  0  0  0  0  0  0  0  0  0  0
  -19.6739    2.0051  -14.7659 C   0  0  0  0  0  0  0  0  0  0  0  0
  -20.6631    1.3052  -15.1538 N   0  0  0  0  0  0  0  0  0  0  0  0
  -21.5114    1.1643  -14.1777 C   0  0  0  0  0  0  0  0  0  0  0  0
  -22.4726    2.0615  -13.9631 C   0  0  0  0  0  0  0  0  0  0  0  0
  -21.4699    3.2169  -14.4350 N   0  0  0  0  0  0  0  0  0  0  0  0
  -19.7987    3.2652  -14.9697 C   0  0  0  0  0  0  0  0  0  0  0  0
  -18.1705    3.4201  -15.5859 C   0  0  0  0  0  0  0  0  0  0  0  0
  -23.4712    0.6614  -13.4281 C   0  0  0  0  0  0  0  0  0  0  0  0
  -23.9454   -0.6584  -14.0804 C   0  0  0  0  0  0  0  0  0  0  0  0
  -24.7086   -1.5051  -13.3516 N   0  0  0  0  0  0  0  0  0  0  0  0
  -24.8471   -0.9049  -12.1615 N   0  0  0  0  0  0  0  0  0  0  0  0
  -25.5325   -1.6301  -11.0502 C   0  0  0  0  0  0  0  0  0  0  0  0
  -24.1833    0.3889  -12.1985 C   0  0  0  0  0  0  0  0  0  0  0  0
  -13.1035    5.2486  -16.1114 C   0  0  0  0  0  0  0  0  0  0  0  0
  -13.2179    5.5903  -17.4319 C   0  0  0  0  0  0  0  0  0  0  0  0
  -14.1909    4.9923  -18.2221 C   0  0  0  0  0  0  0  0  0  0  0  0
  -15.0145    4.0081  -17.6914 C   0  0  0  0  0  0  0  0  0  0  0  0
  -14.8816    3.5481  -16.3963 C   0  0  0  0  0  0  0  0  0  0  0  0
  -14.0351    4.3520  -15.6032 C   0  0  0  0  0  0  0  0  0  0  0  0
  -11.4598    4.7460  -14.4888 C   0  0  0  0  0  0  0  0  0  0  0  0
  -12.1765    5.7288  -15.2294 O   0  0  0  0  0  0  0  0  0  0  0  0
  -14.4080    5.2867  -19.5380 O   0  0  0  0  0  0  0  0  0  0  0  0
  -14.4138    6.6790  -19.8193 C   0  0  0  0  0  0  0  0  0  0  0  0
  -15.1852    1.0584  -16.4661 C   0  0  0  0  0  0  0  0  0  0  0  0
  -13.7566    0.6549  -16.1587 C   0  0  0  0  0  0  0  0  0  0  0  0
  -13.2535   -0.0007  -15.1043 C   0  0  0  0  0  0  0  0  0  0  0  0
  -14.1334   -0.6778  -14.1786 C   0  0  0  0  0  0  0  0  0  0  0  0
  -14.4884   -1.9982  -14.3555 C   0  0  0  0  0  0  0  0  0  0  0  0
  -15.3895   -2.5638  -13.4647 C   0  0  0  0  0  0  0  0  0  0  0  0
  -15.8438   -3.9749  -13.6535 C   0  0  0  0  0  0  0  0  0  0  0  0
  -15.8491   -1.7852  -12.4035 C   0  0  0  0  0  0  0  0  0  0  0  0
  -15.4298   -0.4729  -12.2995 C   0  0  0  0  0  0  0  0  0  0  0  0
  -14.6090    0.1014  -13.1816 N   0  0  0  0  0  0  0  0  0  0  0  0
 24 25  1  0  0  0
 25 18  1  0  0  0
 18 19  1  0  0  0
 18 23  2  0  0  0
 19 20  2  0  0  0
 20 26  1  0  0  0
 20 21  1  0  0  0
 26 27  1  0  0  0
 21 22  2  0  0  0
 22  1  1  0  0  0
 22 23  1  0  0  0
  1 28  1  0  0  0
  1  2  1  0  0  0
 28 29  1  0  0  0
 29 30  2  0  0  0
 30 31  1  0  0  0
 31 32  1  0  0  0
 31 37  2  0  0  0
 32 33  2  0  0  0
 33 34  1  0  0  0
 33 35  1  0  0  0
 35 36  2  0  0  0
 36 37  1  0  0  0
  2  3  1  0  0  0
  2 11  2  0  0  0
  3  4  2  0  0  0
  4  5  1  0  0  0
  5  6  1  0  0  0
  5 10  2  0  0  0
  6  7  2  0  0  0
  7  8  1  0  0  0
  8 12  1  0  0  0
  8  9  2  0  0  0
 12 13  1  0  0  0
 12 17  2  0  0  0
 13 14  2  0  0  0
 14 15  1  0  0  0
 15 16  1  0  0  0
 15 17  1  0  0  0
  9 10  1  0  0  0
 10 11  1  0  0  0
M  END
> <minimizedAffinity>
-9.70945

$$$$
