CHEMBL2071277


 35 39  0  0  0  0  0  0  0  0999 V2000
  -29.4158   -5.4588   -5.2313 C   0  0  0  0  0  0  0  0  0  0  0  0
  -28.6444   -6.4046   -5.8074 N   0  0  0  0  0  0  0  0  0  0  0  0
  -28.5272   -7.5931   -5.1876 C   0  0  0  0  0  0  0  0  0  0  0  0
  -29.2049   -7.9156   -4.0757 N   0  0  0  0  0  0  0  0  0  0  0  0
  -29.9796   -6.9645   -3.5269 C   0  0  0  0  0  0  0  0  0  0  0  0
  -30.0953   -5.6987   -4.0417 C   0  0  0  0  0  0  0  0  0  0  0  0
  -31.0922   -4.5337   -3.2648 Cl  0  0  0  0  0  0  0  0  0  0  0  0
  -29.5483   -4.2093   -5.8604 N   0  0  0  0  0  0  0  0  0  0  0  0
  -30.5222   -3.9074   -5.8715 H   0  0  0  0  0  0  0  0  0  0  0  0
  -27.8637   -2.5758   -6.8059 C   0  0  0  0  0  0  0  0  0  0  0  0
  -28.1233   -1.0567   -6.6391 C   0  0  0  0  0  0  0  0  0  0  0  0
  -27.3593   -0.5969   -5.4136 C   0  0  0  0  0  0  0  0  0  0  0  0
  -27.9875   -1.1028   -4.3404 C   0  0  0  0  0  0  0  0  0  0  0  0
  -29.1618   -1.9177   -4.8520 C   0  0  0  0  0  0  0  0  0  0  0  0
  -29.5357   -1.0356   -6.0477 C   0  0  0  0  0  0  0  0  0  0  0  0
  -28.5624   -3.1787   -5.5366 C   0  0  0  0  0  0  0  0  0  0  0  0
  -27.4094   -2.9907   -9.1617 N   0  0  0  0  0  0  0  0  0  0  0  0
  -28.3293   -3.0897   -8.1559 C   0  0  0  0  0  0  0  0  0  0  0  0
  -29.4598   -3.5058   -8.3869 O   0  0  0  0  0  0  0  0  0  0  0  0
  -27.6804   -3.4068  -10.0436 H   0  0  0  0  0  0  0  0  0  0  0  0
  -26.4306   -3.0869   -8.9108 H   0  0  0  0  0  0  0  0  0  0  0  0
  -27.5653   -8.4690   -5.7078 N   0  0  0  0  0  0  0  0  0  0  0  0
  -27.4597   -8.2514   -6.6917 H   0  0  0  0  0  0  0  0  0  0  0  0
  -26.5831   -9.1006   -5.0326 C   0  0  0  0  0  0  0  0  0  0  0  0
  -25.8034   -8.6598   -3.9421 C   0  0  0  0  0  0  0  0  0  0  0  0
  -24.8538   -9.5389   -3.6064 N   0  0  0  0  0  0  0  0  0  0  0  0
  -25.0222  -10.5353   -4.4983 N   0  0  0  0  0  0  0  0  0  0  0  0
  -26.0947  -10.3526   -5.3247 C   0  0  0  0  0  0  0  0  0  0  0  0
  -24.0771  -11.6376   -4.5030 C   0  0  0  0  0  0  0  0  0  0  0  0
  -22.6025  -11.1910   -4.4617 C   0  0  0  0  0  0  0  0  0  0  0  0
  -21.5897  -12.3003   -4.7307 C   0  0  0  0  0  0  0  0  0  0  0  0
  -21.5356  -12.3788   -6.2429 C   0  0  0  0  0  0  0  0  0  0  0  0
  -21.8400  -10.9619   -6.7043 C   0  0  0  0  0  0  0  0  0  0  0  0
  -22.2778  -10.2146   -5.5197 N   0  0  0  0  0  0  0  0  0  0  0  0
  -23.0690   -9.6142   -5.7464 H   0  0  0  0  0  0  0  0  0  0  0  0
 17 18  1  0  0  0
 17 20  1  0  0  0
 17 21  1  0  0  0
 18 19  2  0  0  0
 18 10  1  0  0  0
 10 11  1  0  0  0
 10 16  1  0  0  0
 11 12  1  0  0  0
 11 15  1  0  0  0
 12 13  2  0  0  0
 13 14  1  0  0  0
 14 15  1  0  0  0
 14 16  1  0  0  0
 16  8  1  0  0  0
  8  1  1  0  0  0
  8  9  1  0  0  0
  1  2  1  0  0  0
  1  6  2  0  0  0
  2  3  2  0  0  0
  3 22  1  0  0  0
  3  4  1  0  0  0
 22 24  1  0  0  0
 22 23  1  0  0  0
 24 25  1  0  0  0
 24 28  2  0  0  0
 25 26  2  0  0  0
 26 27  1  0  0  0
 27 29  1  0  0  0
 27 28  1  0  0  0
 30 31  1  0  0  0
 30 34  1  0  0  0
 30 29  1  0  0  0
 31 32  1  0  0  0
 32 33  1  0  0  0
 33 34  1  0  0  0
 34 35  1  0  0  0
  4  5  2  0  0  0
  5  6  1  0  0  0
  6  7  1  0  0  0
M  END
> <minimizedAffinity>
-8.60992

$$$$
