CHEMBL3099474


 42 45  0  0  0  0  0  0  0  0999 V2000
  -28.9011   -4.3029   -6.9949 C   0  0  0  0  0  0  0  0  0  0  0  0
  -28.7307   -3.5464   -8.1750 C   0  0  0  0  0  0  0  0  0  0  0  0
  -28.2663   -2.2328   -8.2174 C   0  0  0  0  0  0  0  0  0  0  0  0
  -27.9061   -1.6357   -7.0135 C   0  0  0  0  0  0  0  0  0  0  0  0
  -28.0612   -2.3365   -5.8032 C   0  0  0  0  0  0  0  0  0  0  0  0
  -28.5481   -3.6657   -5.7790 C   0  0  0  0  0  0  0  0  0  0  0  0
  -29.3745   -7.9161   -8.2059 C   0  0  0  0  0  0  0  0  0  0  0  0
  -28.8000   -6.6784   -7.8771 C   0  0  0  0  0  0  0  0  0  0  0  0
  -29.4959   -5.6741   -7.1551 C   0  0  0  0  0  0  0  0  0  0  0  0
  -30.7930   -5.9828   -6.7381 C   0  0  0  0  0  0  0  0  0  0  0  0
  -31.3431   -7.2517   -6.9723 C   0  0  0  0  0  0  0  0  0  0  0  0
  -30.6279   -8.2298   -7.6731 C   0  0  0  0  0  0  0  0  0  0  0  0
  -31.2451   -9.5776   -7.8070 C   0  0  0  0  0  0  0  0  0  0  0  0
  -30.7127  -10.7333   -6.9921 C   0  0  0  0  0  0  0  0  0  0  0  0
  -32.2360   -9.7185   -8.5287 O   0  0  0  0  0  0  0  0  0  0  0  0
  -27.5691   -9.4247   -8.6742 C   0  0  0  0  0  0  0  0  0  0  0  0
  -28.7989   -8.8211   -9.0559 O   0  0  0  0  0  0  0  0  0  0  0  0
  -28.1425   -1.5321   -9.4405 N   0  0  0  0  0  0  0  0  0  0  0  0
  -27.0833   -1.7007  -10.3222 C   0  0  0  0  0  0  0  0  0  0  0  0
  -26.1695   -2.5085  -10.1815 O   0  0  0  0  0  0  0  0  0  0  0  0
  -27.1450   -0.8350  -11.4030 N   0  0  0  0  0  0  0  0  0  0  0  0
  -28.9655   -1.0723   -9.8035 H   0  0  0  0  0  0  0  0  0  0  0  0
  -27.4797    0.0858  -11.1630 H   0  0  0  0  0  0  0  0  0  0  0  0
  -26.1118   -0.9041  -12.3815 C   0  0  0  0  0  0  0  0  0  0  0  0
  -24.8994   -0.2229  -12.1578 C   0  0  0  0  0  0  0  0  0  0  0  0
  -23.8908   -0.2057  -13.1235 C   0  0  0  0  0  0  0  0  0  0  0  0
  -24.1049   -0.8815  -14.3229 C   0  0  0  0  0  0  0  0  0  0  0  0
  -25.3028   -1.5727  -14.5511 C   0  0  0  0  0  0  0  0  0  0  0  0
  -26.3262   -1.5907  -13.5889 C   0  0  0  0  0  0  0  0  0  0  0  0
  -27.6538   -2.1880  -13.9364 C   0  0  0  0  0  0  0  0  0  0  0  0
  -22.7015    0.4771  -13.0296 O   0  0  0  0  0  0  0  0  0  0  0  0
  -21.8167    0.3501  -14.1542 C   0  0  0  0  0  0  0  0  0  0  0  0
  -21.2373    1.7301  -14.5438 C   0  0  0  0  0  0  0  0  0  0  0  0
  -19.8182    1.9140  -14.1663 N   0  0  0  0  0  0  0  0  0  0  0  0
  -19.3282    3.2922  -14.3324 C   0  0  0  0  0  0  0  0  0  0  0  0
  -18.5888    3.3119  -15.6541 C   0  0  0  0  0  0  0  0  0  0  0  0
  -17.9092    1.9626  -15.6527 C   0  0  0  0  0  0  0  0  0  0  0  0
  -18.9253    1.0508  -14.9722 C   0  0  0  0  0  0  0  0  0  0  0  0
  -27.6324   -1.7549   -4.6326 O   0  0  0  0  0  0  0  0  0  0  0  0
  -27.8998   -0.3574   -4.5267 C   0  0  0  0  0  0  0  0  0  0  0  0
  -28.6592   -4.4301   -4.6372 O   0  0  0  0  0  0  0  0  0  0  0  0
  -27.4721   -5.0341   -4.1295 C   0  0  0  0  0  0  0  0  0  0  0  0
 16 17  1  0  0  0
 17  7  1  0  0  0
  7  8  1  0  0  0
  7 12  2  0  0  0
  8  9  2  0  0  0
  9  1  1  0  0  0
  9 10  1  0  0  0
  1  2  1  0  0  0
  1  6  2  0  0  0
  2  3  2  0  0  0
  3 18  1  0  0  0
  3  4  1  0  0  0
 18 19  1  0  0  0
 18 22  1  0  0  0
 19 20  2  0  0  0
 19 21  1  0  0  0
 21 24  1  0  0  0
 21 23  1  0  0  0
 24 25  1  0  0  0
 24 29  2  0  0  0
 25 26  2  0  0  0
 26 31  1  0  0  0
 26 27  1  0  0  0
 31 32  1  0  0  0
 32 33  1  0  0  0
 33 34  1  0  0  0
 34 35  1  0  0  0
 34 38  1  0  0  0
 35 36  1  0  0  0
 36 37  1  0  0  0
 37 38  1  0  0  0
 27 28  2  0  0  0
 28 29  1  0  0  0
 29 30  1  0  0  0
  4  5  2  0  0  0
  5 39  1  0  0  0
  5  6  1  0  0  0
 39 40  1  0  0  0
  6 41  1  0  0  0
 41 42  1  0  0  0
 10 11  2  0  0  0
 11 12  1  0  0  0
 12 13  1  0  0  0
 13 14  1  0  0  0
 13 15  2  0  0  0
M  END
> <minimizedAffinity>
-10.52559

$$$$
