CHEMBL3321901


 29 33  0  0  0  0  0  0  0  0999 V2000
  -23.4666    0.1620  -13.4081 C   0  0  0  0  0  0  0  0  0  0  0  0
  -24.5042   -0.2937  -14.0835 N   0  0  0  0  0  0  0  0  0  0  0  0
  -25.2855   -0.9597  -13.1755 C   0  0  0  0  0  0  0  0  0  0  0  0
  -26.4996   -1.6212  -13.3627 C   0  0  0  0  0  0  0  0  0  0  0  0
  -27.0885   -2.2475  -12.2575 C   0  0  0  0  0  0  0  0  0  0  0  0
  -26.5129   -2.2092  -10.9731 C   0  0  0  0  0  0  0  0  0  0  0  0
  -25.2756   -1.5665  -10.7944 C   0  0  0  0  0  0  0  0  0  0  0  0
  -24.7081   -0.9421  -11.9133 C   0  0  0  0  0  0  0  0  0  0  0  0
  -23.5532   -0.2250  -12.0890 N   0  0  0  0  0  0  0  0  0  0  0  0
  -22.8655   -0.0310  -11.3780 H   0  0  0  0  0  0  0  0  0  0  0  0
  -19.2590    3.1987  -15.5037 F   0  0  0  0  0  0  0  0  0  0  0  0
  -20.2633    2.4673  -15.0043 C   0  0  0  0  0  0  0  0  0  0  0  0
  -20.1875    1.0803  -15.0513 C   0  0  0  0  0  0  0  0  0  0  0  0
  -21.2331    0.3125  -14.5324 C   0  0  0  0  0  0  0  0  0  0  0  0
  -22.3563    0.9340  -13.9652 C   0  0  0  0  0  0  0  0  0  0  0  0
  -22.4035    2.3369  -13.9177 C   0  0  0  0  0  0  0  0  0  0  0  0
  -21.3611    3.1039  -14.4416 C   0  0  0  0  0  0  0  0  0  0  0  0
  -27.0981   -2.9188   -9.8970 N   0  0  0  0  0  0  0  0  0  0  0  0
  -26.6498   -3.8046   -9.6945 H   0  0  0  0  0  0  0  0  0  0  0  0
  -27.5822   -2.3349   -8.6987 C   0  0  0  0  0  0  0  0  0  0  0  0
  -27.3034   -1.0363   -8.4746 N   0  0  0  0  0  0  0  0  0  0  0  0
  -27.8270   -0.4866   -7.3789 C   0  0  0  0  0  0  0  0  0  0  0  0
  -28.6074   -1.1027   -6.4877 N   0  0  0  0  0  0  0  0  0  0  0  0
  -28.8665   -2.3943   -6.7105 C   0  0  0  0  0  0  0  0  0  0  0  0
  -29.7083   -3.0552   -5.8259 C   0  0  0  0  0  0  0  0  0  0  0  0
  -30.0341   -4.4044   -5.9838 C   0  0  0  0  0  0  0  0  0  0  0  0
  -29.5024   -5.1216   -7.0466 C   0  0  0  0  0  0  0  0  0  0  0  0
  -28.6667   -4.4773   -7.9583 C   0  0  0  0  0  0  0  0  0  0  0  0
  -28.3484   -3.1024   -7.8040 C   0  0  0  0  0  0  0  0  0  0  0  0
 11 12  1  0  0  0
 12 13  1  0  0  0
 12 17  2  0  0  0
 13 14  2  0  0  0
 14 15  1  0  0  0
 15  1  1  0  0  0
 15 16  2  0  0  0
  1  2  2  0  0  0
  1  9  1  0  0  0
  2  3  1  0  0  0
  3  4  1  0  0  0
  3  8  2  0  0  0
  4  5  2  0  0  0
  5  6  1  0  0  0
  6 18  1  0  0  0
  6  7  2  0  0  0
 18 20  1  0  0  0
 18 19  1  0  0  0
 20 21  1  0  0  0
 20 29  2  0  0  0
 21 22  2  0  0  0
 22 23  1  0  0  0
 23 24  2  0  0  0
 24 25  1  0  0  0
 24 29  1  0  0  0
 25 26  2  0  0  0
 26 27  1  0  0  0
 27 28  2  0  0  0
 28 29  1  0  0  0
  7  8  1  0  0  0
  8  9  1  0  0  0
  9 10  1  0  0  0
 16 17  1  0  0  0
M  END
> <minimizedAffinity>
-10.93310

$$$$
