CHEMBL25610


 31 34  0  0  0  0  0  0  0  0999 V2000
  -30.7390   -7.8462   -6.5884 C   0  0  0  0  0  0  0  0  0  0  0  0
  -29.8212   -8.7885   -7.0455 C   0  0  0  0  0  0  0  0  0  0  0  0
  -28.6188   -9.0386   -6.3519 C   0  0  0  0  0  0  0  0  0  0  0  0
  -27.7044  -10.0302   -6.7292 C   0  0  0  0  0  0  0  0  0  0  0  0
  -26.6104  -10.3067   -6.0026 N   0  0  0  0  0  0  0  0  0  0  0  0
  -26.4076   -9.5401   -4.9249 C   0  0  0  0  0  0  0  0  0  0  0  0
  -27.1992   -8.5469   -4.4936 N   0  0  0  0  0  0  0  0  0  0  0  0
  -28.3114   -8.3108   -5.2009 C   0  0  0  0  0  0  0  0  0  0  0  0
  -29.2077   -7.3268   -4.7902 C   0  0  0  0  0  0  0  0  0  0  0  0
  -30.4270   -7.0939   -5.4523 C   0  0  0  0  0  0  0  0  0  0  0  0
  -32.8238   -8.6931   -7.2836 C   0  0  0  0  0  0  0  0  0  0  0  0
  -31.8833   -7.6134   -7.3016 O   0  0  0  0  0  0  0  0  0  0  0  0
  -27.9566  -10.7609   -7.9111 N   0  0  0  0  0  0  0  0  0  0  0  0
  -28.5644  -11.5610   -7.7403 H   0  0  0  0  0  0  0  0  0  0  0  0
  -27.9474  -10.3319   -9.2455 C   0  0  0  0  0  0  0  0  0  0  0  0
  -26.8453   -9.6854   -9.8136 C   0  0  0  0  0  0  0  0  0  0  0  0
  -26.8082   -9.4249  -11.1900 C   0  0  0  0  0  0  0  0  0  0  0  0
  -27.8780   -9.8043  -12.0000 C   0  0  0  0  0  0  0  0  0  0  0  0
  -27.7974   -9.5341  -13.6965 Cl  0  0  0  0  0  0  0  0  0  0  0  0
  -28.9932  -10.4269  -11.4537 C   0  0  0  0  0  0  0  0  0  0  0  0
  -29.0127  -10.6895  -10.0885 C   0  0  0  0  0  0  0  0  0  0  0  0
  -30.0702  -11.3329   -9.5676 F   0  0  0  0  0  0  0  0  0  0  0  0
  -31.1792   -6.0851   -4.9056 O   0  0  0  0  0  0  0  0  0  0  0  0
  -30.6640   -5.4416   -3.7337 C   0  0  0  0  0  0  0  0  0  0  0  0
  -30.4854   -3.9429   -4.0061 C   0  0  0  0  0  0  0  0  0  0  0  0
  -29.0787   -3.4816   -4.0573 N   0  0  0  0  0  0  0  0  0  0  0  0
  -29.0217   -2.0029   -3.9537 C   0  0  0  0  0  0  0  0  0  0  0  0
  -29.5713   -1.2864   -5.2030 C   0  0  0  0  0  0  0  0  0  0  0  0
  -28.8817   -1.6969   -6.3916 O   0  0  0  0  0  0  0  0  0  0  0  0
  -28.9096   -3.1203   -6.5555 C   0  0  0  0  0  0  0  0  0  0  0  0
  -28.3694   -3.8404   -5.3094 C   0  0  0  0  0  0  0  0  0  0  0  0
 11 12  1  0  0  0
 12  1  1  0  0  0
  1  2  1  0  0  0
  1 10  2  0  0  0
  2  3  2  0  0  0
  3  4  1  0  0  0
  3  8  1  0  0  0
  4 13  1  0  0  0
  4  5  2  0  0  0
 13 15  1  0  0  0
 13 14  1  0  0  0
 15 16  1  0  0  0
 15 21  2  0  0  0
 16 17  2  0  0  0
 17 18  1  0  0  0
 18 19  1  0  0  0
 18 20  2  0  0  0
 20 21  1  0  0  0
 21 22  1  0  0  0
  5  6  1  0  0  0
  6  7  2  0  0  0
  7  8  1  0  0  0
  8  9  2  0  0  0
  9 10  1  0  0  0
 10 23  1  0  0  0
 23 24  1  0  0  0
 24 25  1  0  0  0
 25 26  1  0  0  0
 26 27  1  0  0  0
 26 31  1  0  0  0
 27 28  1  0  0  0
 28 29  1  0  0  0
 29 30  1  0  0  0
 30 31  1  0  0  0
M  END
> <minimizedAffinity>
-7.48223

$$$$
