CHEMBL4163939


 30 34  0  0  0  0  0  0  0  0999 V2000
  -29.7436   -5.8050   -6.1201 C   0  0  0  0  0  0  0  0  0  0  0  0
  -29.9300   -4.8690   -5.0970 C   0  0  0  0  0  0  0  0  0  0  0  0
  -29.5027   -3.5397   -5.2379 C   0  0  0  0  0  0  0  0  0  0  0  0
  -28.8911   -3.1956   -6.4540 C   0  0  0  0  0  0  0  0  0  0  0  0
  -28.6501   -4.1221   -7.4531 C   0  0  0  0  0  0  0  0  0  0  0  0
  -29.0457   -5.4538   -7.2833 C   0  0  0  0  0  0  0  0  0  0  0  0
  -28.0321   -3.5451   -8.5211 N   0  0  0  0  0  0  0  0  0  0  0  0
  -27.9016   -2.2673   -8.2374 C   0  0  0  0  0  0  0  0  0  0  0  0
  -28.4210   -2.0099   -6.9827 N   0  0  0  0  0  0  0  0  0  0  0  0
  -28.5536   -0.7408   -6.3081 C   0  0  0  0  0  0  0  0  0  0  0  0
  -27.3222   -1.3120   -9.0134 N   0  0  0  0  0  0  0  0  0  0  0  0
  -26.9773   -0.4550   -8.6032 H   0  0  0  0  0  0  0  0  0  0  0  0
  -26.8721   -1.5238  -10.3392 C   0  0  0  0  0  0  0  0  0  0  0  0
  -25.5098   -1.5562  -10.6820 C   0  0  0  0  0  0  0  0  0  0  0  0
  -25.0911   -1.6389  -12.0145 C   0  0  0  0  0  0  0  0  0  0  0  0
  -26.0373   -1.6855  -13.0311 C   0  0  0  0  0  0  0  0  0  0  0  0
  -25.5301   -1.7253  -14.6749 Cl  0  0  0  0  0  0  0  0  0  0  0  0
  -27.3941   -1.6831  -12.7206 C   0  0  0  0  0  0  0  0  0  0  0  0
  -27.8082   -1.6058  -11.3833 C   0  0  0  0  0  0  0  0  0  0  0  0
  -30.2310   -7.0753   -5.8965 O   0  0  0  0  0  0  0  0  0  0  0  0
  -25.4505  -10.7060   -5.6879 C   0  0  0  0  0  0  0  0  0  0  0  0
  -26.5053   -9.7458   -5.4810 N   0  0  0  0  0  0  0  0  0  0  0  0
  -26.4627   -8.8995   -4.4240 N   0  0  0  0  0  0  0  0  0  0  0  0
  -27.5676   -8.1596   -4.5793 C   0  0  0  0  0  0  0  0  0  0  0  0
  -28.3170   -8.5321   -5.7102 C   0  0  0  0  0  0  0  0  0  0  0  0
  -29.4787   -8.1445   -6.3647 C   0  0  0  0  0  0  0  0  0  0  0  0
  -29.8788   -8.8315   -7.4654 N   0  0  0  0  0  0  0  0  0  0  0  0
  -29.0785   -9.8129   -7.9235 C   0  0  0  0  0  0  0  0  0  0  0  0
  -27.9200  -10.2480   -7.3977 N   0  0  0  0  0  0  0  0  0  0  0  0
  -27.6021   -9.5698   -6.2809 C   0  0  0  0  0  0  0  0  0  0  0  0
 21 22  1  0  0  0
 22 23  1  0  0  0
 22 30  1  0  0  0
 23 24  2  0  0  0
 24 25  1  0  0  0
 25 26  1  0  0  0
 25 30  2  0  0  0
 26 20  1  0  0  0
 26 27  2  0  0  0
 20  1  1  0  0  0
  1  2  1  0  0  0
  1  6  2  0  0  0
  2  3  2  0  0  0
  3  4  1  0  0  0
  4  5  2  0  0  0
  4  9  1  0  0  0
  5  6  1  0  0  0
  5  7  1  0  0  0
  7  8  2  0  0  0
  8 11  1  0  0  0
  8  9  1  0  0  0
 11 13  1  0  0  0
 11 12  1  0  0  0
 13 14  1  0  0  0
 13 19  2  0  0  0
 14 15  2  0  0  0
 15 16  1  0  0  0
 16 17  1  0  0  0
 16 18  2  0  0  0
 18 19  1  0  0  0
  9 10  1  0  0  0
 27 28  1  0  0  0
 28 29  2  0  0  0
 29 30  1  0  0  0
M  END
> <minimizedAffinity>
-8.67939

$$$$
