CHEMBL438970


 26 29  0  0  0  0  0  0  0  0999 V2000
  -29.6932   -5.3914   -6.6652 C   0  0  0  0  0  0  0  0  0  0  0  0
  -28.7713   -5.1768   -5.7075 C   0  0  0  0  0  0  0  0  0  0  0  0
  -28.0755   -6.1721   -4.8498 C   0  0  0  0  0  0  0  0  0  0  0  0
  -27.9217   -7.3689   -4.9900 O   0  0  0  0  0  0  0  0  0  0  0  0
  -27.5517   -5.3936   -3.8308 N   0  0  0  0  0  0  0  0  0  0  0  0
  -27.6154   -4.0407   -4.0438 N   0  0  0  0  0  0  0  0  0  0  0  0
  -28.2822   -3.8761   -5.1649 C   0  0  0  0  0  0  0  0  0  0  0  0
  -26.9710   -5.7761   -3.0935 H   0  0  0  0  0  0  0  0  0  0  0  0
  -28.2090   -9.0007   -9.2940 C   0  0  0  0  0  0  0  0  0  0  0  0
  -29.1859   -9.9892   -9.3844 C   0  0  0  0  0  0  0  0  0  0  0  0
  -30.4230   -9.8405   -8.7531 C   0  0  0  0  0  0  0  0  0  0  0  0
  -30.6614   -8.6657   -8.0277 C   0  0  0  0  0  0  0  0  0  0  0  0
  -29.7026   -7.6522   -7.8996 C   0  0  0  0  0  0  0  0  0  0  0  0
  -28.4595   -7.8331   -8.5523 C   0  0  0  0  0  0  0  0  0  0  0  0
  -30.2823   -6.6294   -7.0752 C   0  0  0  0  0  0  0  0  0  0  0  0
  -31.5832   -7.0063   -6.8209 C   0  0  0  0  0  0  0  0  0  0  0  0
  -31.7774   -8.2555   -7.3357 N   0  0  0  0  0  0  0  0  0  0  0  0
  -32.9941   -9.0205   -7.1819 C   0  0  0  0  0  0  0  0  0  0  0  0
  -26.9103   -9.6706  -11.1717 C   0  0  0  0  0  0  0  0  0  0  0  0
  -26.9727   -9.0583   -9.8868 O   0  0  0  0  0  0  0  0  0  0  0  0
  -28.4421   -2.5630   -5.8014 C   0  0  0  0  0  0  0  0  0  0  0  0
  -29.3056   -1.6269   -5.2400 C   0  0  0  0  0  0  0  0  0  0  0  0
  -29.4322   -0.3643   -5.7215 N   0  0  0  0  0  0  0  0  0  0  0  0
  -28.6499   -0.0717   -6.7836 C   0  0  0  0  0  0  0  0  0  0  0  0
  -27.7902   -1.0004   -7.3451 C   0  0  0  0  0  0  0  0  0  0  0  0
  -27.6654   -2.2619   -6.8717 N   0  0  0  0  0  0  0  0  0  0  0  0
 19 20  1  0  0  0
 20  9  1  0  0  0
  9 10  1  0  0  0
  9 14  2  0  0  0
 10 11  2  0  0  0
 11 12  1  0  0  0
 12 13  2  0  0  0
 12 17  1  0  0  0
 13 14  1  0  0  0
 13 15  1  0  0  0
 15  1  1  0  0  0
 15 16  2  0  0  0
  1  2  2  0  0  0
  2  3  1  0  0  0
  2  7  1  0  0  0
  3  4  2  0  0  0
  3  5  1  0  0  0
  5  6  1  0  0  0
  5  8  1  0  0  0
  6  7  2  0  0  0
  7 21  1  0  0  0
 21 22  1  0  0  0
 21 26  2  0  0  0
 22 23  2  0  0  0
 23 24  1  0  0  0
 24 25  2  0  0  0
 25 26  1  0  0  0
 16 17  1  0  0  0
 17 18  1  0  0  0
M  END
> <minimizedAffinity>
-8.42590

$$$$
