CHEMBL212304


 28 30  0  0  0  0  0  0  0  0999 V2000
  -22.5128   -0.4559  -13.7283 N   0  0  0  0  0  0  0  0  0  0  0  0
  -21.8834   -1.2484  -13.8315 H   0  0  0  0  0  0  0  0  0  0  0  0
  -19.9305    1.9309  -14.8550 C   0  0  0  0  0  0  0  0  0  0  0  0
  -20.5502    3.1680  -14.6505 C   0  0  0  0  0  0  0  0  0  0  0  0
  -21.8503    3.2111  -14.1562 C   0  0  0  0  0  0  0  0  0  0  0  0
  -22.5243    2.0257  -13.8673 C   0  0  0  0  0  0  0  0  0  0  0  0
  -23.7729    2.1315  -13.3859 F   0  0  0  0  0  0  0  0  0  0  0  0
  -21.9433    0.7649  -14.0912 C   0  0  0  0  0  0  0  0  0  0  0  0
  -20.6313    0.7440  -14.5916 C   0  0  0  0  0  0  0  0  0  0  0  0
  -16.6072    3.0402  -16.2724 C   0  0  0  0  0  0  0  0  0  0  0  0
  -17.9665    3.0110  -15.7979 N   0  0  0  0  0  0  0  0  0  0  0  0
  -18.5337    1.8339  -15.3565 C   0  0  0  0  0  0  0  0  0  0  0  0
  -17.9440    0.7594  -15.3382 O   0  0  0  0  0  0  0  0  0  0  0  0
  -18.4240    3.8912  -15.6029 H   0  0  0  0  0  0  0  0  0  0  0  0
  -23.9062   -0.7505  -14.0261 C   0  0  0  0  0  0  0  0  0  0  0  0
  -24.6884   -1.1113  -12.8101 C   0  0  0  0  0  0  0  0  0  0  0  0
  -24.2433   -1.1956  -11.5124 C   0  0  0  0  0  0  0  0  0  0  0  0
  -25.1857   -1.5683  -10.5899 N   0  0  0  0  0  0  0  0  0  0  0  0
  -26.3519   -1.7862  -11.1622 C   0  0  0  0  0  0  0  0  0  0  0  0
  -26.3600   -1.4822  -12.8664 S   0  0  0  0  0  0  0  0  0  0  0  0
  -27.4703   -2.2308  -10.5481 N   0  0  0  0  0  0  0  0  0  0  0  0
  -28.0038   -2.9749  -10.9789 H   0  0  0  0  0  0  0  0  0  0  0  0
  -27.7138   -2.2213   -9.1724 C   0  0  0  0  0  0  0  0  0  0  0  0
  -28.1376   -3.3381   -8.4556 C   0  0  0  0  0  0  0  0  0  0  0  0
  -28.4516   -3.2217   -7.1036 C   0  0  0  0  0  0  0  0  0  0  0  0
  -28.3034   -1.9938   -6.4834 C   0  0  0  0  0  0  0  0  0  0  0  0
  -27.8302   -0.9391   -7.2443 C   0  0  0  0  0  0  0  0  0  0  0  0
  -27.5331   -1.0282   -8.5627 N   0  0  0  0  0  0  0  0  0  0  0  0
 10 11  1  0  0  0
 11 12  1  0  0  0
 11 14  1  0  0  0
 12 13  2  0  0  0
 12  3  1  0  0  0
  3  4  1  0  0  0
  3  9  2  0  0  0
  4  5  2  0  0  0
  5  6  1  0  0  0
  6  7  1  0  0  0
  6  8  2  0  0  0
  8  1  1  0  0  0
  8  9  1  0  0  0
  1 15  1  0  0  0
  1  2  1  0  0  0
 15 16  1  0  0  0
 16 17  2  0  0  0
 16 20  1  0  0  0
 17 18  1  0  0  0
 18 19  2  0  0  0
 19 21  1  0  0  0
 19 20  1  0  0  0
 21 23  1  0  0  0
 21 22  1  0  0  0
 23 24  1  0  0  0
 23 28  2  0  0  0
 24 25  2  0  0  0
 25 26  1  0  0  0
 26 27  2  0  0  0
 27 28  1  0  0  0
M  END
> <minimizedAffinity>
-9.00818

$$$$
