CHEMBL1241684


 26 29  0  0  0  0  0  0  0  0999 V2000
  -14.3454    0.8086  -15.4715 N   0  0  0  0  0  0  0  0  0  0  0  0
  -15.6122    0.5667  -15.0711 N   0  0  0  0  0  0  0  0  0  0  0  0
  -16.2565    1.7157  -15.3272 C   0  0  0  0  0  0  0  0  0  0  0  0
  -15.3757    2.7323  -15.7898 C   0  0  0  0  0  0  0  0  0  0  0  0
  -15.3945    4.1017  -16.0903 C   0  0  0  0  0  0  0  0  0  0  0  0
  -16.5013    4.9276  -15.9876 N   0  0  0  0  0  0  0  0  0  0  0  0
  -14.2415    4.7057  -16.4442 N   0  0  0  0  0  0  0  0  0  0  0  0
  -13.1161    3.9691  -16.5008 C   0  0  0  0  0  0  0  0  0  0  0  0
  -12.9726    2.6624  -16.2299 N   0  0  0  0  0  0  0  0  0  0  0  0
  -14.1406    2.1033  -15.8658 C   0  0  0  0  0  0  0  0  0  0  0  0
  -17.2403    4.6182  -15.3712 H   0  0  0  0  0  0  0  0  0  0  0  0
  -16.2424    5.9049  -15.9387 H   0  0  0  0  0  0  0  0  0  0  0  0
  -17.7275    1.8195  -15.0596 C   0  0  0  0  0  0  0  0  0  0  0  0
  -18.5928    0.7501  -15.1450 C   0  0  0  0  0  0  0  0  0  0  0  0
  -19.9361    1.0889  -14.7663 C   0  0  0  0  0  0  0  0  0  0  0  0
  -21.0892    0.2808  -14.6297 C   0  0  0  0  0  0  0  0  0  0  0  0
  -22.3088    0.8639  -14.2581 C   0  0  0  0  0  0  0  0  0  0  0  0
  -22.4080    2.2324  -14.0287 C   0  0  0  0  0  0  0  0  0  0  0  0
  -21.2806    3.0454  -14.1484 C   0  0  0  0  0  0  0  0  0  0  0  0
  -20.0525    2.4554  -14.5028 C   0  0  0  0  0  0  0  0  0  0  0  0
  -18.5415    3.2534  -14.6562 S   0  0  0  0  0  0  0  0  0  0  0  0
  -23.5124    0.0240  -14.1002 C   0  0  0  0  0  0  0  0  0  0  0  0
  -23.4674   -1.0897  -13.5947 O   0  0  0  0  0  0  0  0  0  0  0  0
  -13.7567   -1.2967  -14.3446 C   0  0  0  0  0  0  0  0  0  0  0  0
  -13.3436   -0.2490  -15.3778 C   0  0  0  0  0  0  0  0  0  0  0  0
  -13.0785   -0.8937  -16.7400 C   0  0  0  0  0  0  0  0  0  0  0  0
 24 25  1  0  0  0
 25 26  1  0  0  0
 25  1  1  0  0  0
  1  2  1  0  0  0
  1 10  1  0  0  0
  2  3  2  0  0  0
  3 13  1  0  0  0
  3  4  1  0  0  0
 13 14  2  0  0  0
 13 21  1  0  0  0
 14 15  1  0  0  0
 15 16  1  0  0  0
 15 20  2  0  0  0
 16 17  2  0  0  0
 17 22  1  0  0  0
 17 18  1  0  0  0
 22 23  2  0  0  0
 18 19  2  0  0  0
 19 20  1  0  0  0
 20 21  1  0  0  0
  4  5  1  0  0  0
  4 10  2  0  0  0
  5  6  1  0  0  0
  5  7  2  0  0  0
  6 11  1  0  0  0
  6 12  1  0  0  0
  7  8  1  0  0  0
  8  9  2  0  0  0
  9 10  1  0  0  0
M  END
> <minimizedAffinity>
-7.91915

$$$$
