CHEMBL469037


 31 35  0  0  0  0  0  0  0  0999 V2000
  -28.6614   -1.4381   -6.0548 C   0  0  0  0  0  0  0  0  0  0  0  0
  -29.4221   -0.6671   -5.1505 C   0  0  0  0  0  0  0  0  0  0  0  0
  -29.4547    0.7183   -5.2763 C   0  0  0  0  0  0  0  0  0  0  0  0
  -28.7903    1.3202   -6.3367 C   0  0  0  0  0  0  0  0  0  0  0  0
  -28.1903    0.5324   -7.3242 C   0  0  0  0  0  0  0  0  0  0  0  0
  -28.1612   -0.8733   -7.2440 C   0  0  0  0  0  0  0  0  0  0  0  0
  -26.8404   -2.6871   -5.1613 O   0  0  0  0  0  0  0  0  0  0  0  0
  -28.0279   -2.6572   -5.4538 C   0  0  0  0  0  0  0  0  0  0  0  0
  -28.9201   -3.8211   -5.2881 C   0  0  0  0  0  0  0  0  0  0  0  0
  -29.6152   -4.1725   -4.1341 C   0  0  0  0  0  0  0  0  0  0  0  0
  -30.4811   -5.1622   -4.4886 N   0  0  0  0  0  0  0  0  0  0  0  0
  -29.8907   -5.8561   -5.5047 C   0  0  0  0  0  0  0  0  0  0  0  0
  -29.9513   -7.1989   -5.8619 C   0  0  0  0  0  0  0  0  0  0  0  0
  -29.3239   -7.5410   -7.0587 C   0  0  0  0  0  0  0  0  0  0  0  0
  -28.8107   -6.5582   -7.9074 C   0  0  0  0  0  0  0  0  0  0  0  0
  -28.7470   -5.2151   -7.5110 C   0  0  0  0  0  0  0  0  0  0  0  0
  -29.1671   -4.8945   -6.2108 C   0  0  0  0  0  0  0  0  0  0  0  0
  -31.3699   -5.3655   -4.0535 H   0  0  0  0  0  0  0  0  0  0  0  0
  -27.4943   -1.5544   -8.2706 N   0  0  0  0  0  0  0  0  0  0  0  0
  -26.5618   -1.1843   -8.4325 H   0  0  0  0  0  0  0  0  0  0  0  0
  -28.1653   -1.7308   -9.5681 C   0  0  0  0  0  0  0  0  0  0  0  0
  -27.1434   -1.6640  -10.6947 C   0  0  0  0  0  0  0  0  0  0  0  0
  -27.5873   -1.7119  -12.0375 C   0  0  0  0  0  0  0  0  0  0  0  0
  -26.6785   -1.6756  -13.1048 C   0  0  0  0  0  0  0  0  0  0  0  0
  -25.3221   -1.5606  -12.7916 C   0  0  0  0  0  0  0  0  0  0  0  0
  -24.2097   -1.5118  -13.5740 N   0  0  0  0  0  0  0  0  0  0  0  0
  -23.0653   -1.3448  -12.8954 N   0  0  0  0  0  0  0  0  0  0  0  0
  -23.4597   -1.3410  -11.6239 C   0  0  0  0  0  0  0  0  0  0  0  0
  -24.8569   -1.4931  -11.4868 C   0  0  0  0  0  0  0  0  0  0  0  0
  -25.7716   -1.5604  -10.4305 C   0  0  0  0  0  0  0  0  0  0  0  0
  -24.1518   -1.5850  -14.5856 H   0  0  0  0  0  0  0  0  0  0  0  0
  7  8  2  0  0  0
  8  1  1  0  0  0
  8  9  1  0  0  0
  1  2  1  0  0  0
  1  6  2  0  0  0
  2  3  2  0  0  0
  3  4  1  0  0  0
  4  5  2  0  0  0
  5  6  1  0  0  0
  6 19  1  0  0  0
 19 21  1  0  0  0
 19 20  1  0  0  0
 21 22  1  0  0  0
 22 23  1  0  0  0
 22 30  2  0  0  0
 23 24  2  0  0  0
 24 25  1  0  0  0
 25 26  1  0  0  0
 25 29  2  0  0  0
 26 27  1  0  0  0
 26 31  1  0  0  0
 27 28  2  0  0  0
 28 29  1  0  0  0
 29 30  1  0  0  0
  9 10  2  0  0  0
  9 17  1  0  0  0
 10 11  1  0  0  0
 11 12  1  0  0  0
 11 18  1  0  0  0
 12 13  1  0  0  0
 12 17  2  0  0  0
 13 14  2  0  0  0
 14 15  1  0  0  0
 15 16  2  0  0  0
 16 17  1  0  0  0
M  END
> <minimizedAffinity>
-9.84650

$$$$
