CHEMBL3808619


 32 34  0  0  0  0  0  0  0  0999 V2000
  -22.5067    0.5712  -13.5268 C   0  0  0  0  0  0  0  0  0  0  0  0
  -23.4327    1.3975  -12.8788 C   0  0  0  0  0  0  0  0  0  0  0  0
  -24.5174    0.8600  -12.1955 C   0  0  0  0  0  0  0  0  0  0  0  0
  -24.6896   -0.5165  -12.1423 C   0  0  0  0  0  0  0  0  0  0  0  0
  -23.7790   -1.3534  -12.8031 C   0  0  0  0  0  0  0  0  0  0  0  0
  -22.6924   -0.8119  -13.4966 C   0  0  0  0  0  0  0  0  0  0  0  0
  -19.4206    1.7164  -15.1182 C   0  0  0  0  0  0  0  0  0  0  0  0
  -20.2686    0.6362  -14.7947 C   0  0  0  0  0  0  0  0  0  0  0  0
  -21.3865    1.1967  -14.2070 C   0  0  0  0  0  0  0  0  0  0  0  0
  -21.1805    2.5459  -14.2890 N   0  0  0  0  0  0  0  0  0  0  0  0
  -20.0064    2.8787  -14.8392 N   0  0  0  0  0  0  0  0  0  0  0  0
  -21.7734    3.2929  -13.9462 H   0  0  0  0  0  0  0  0  0  0  0  0
  -15.7927    1.2448  -15.7508 C   0  0  0  0  0  0  0  0  0  0  0  0
  -17.0389    1.2572  -14.9061 C   0  0  0  0  0  0  0  0  0  0  0  0
  -16.9763    1.0085  -13.7074 O   0  0  0  0  0  0  0  0  0  0  0  0
  -18.1605    1.5599  -15.6500 N   0  0  0  0  0  0  0  0  0  0  0  0
  -18.0974    1.5593  -16.6565 H   0  0  0  0  0  0  0  0  0  0  0  0
  -25.7378   -1.1237  -11.4455 N   0  0  0  0  0  0  0  0  0  0  0  0
  -26.8249   -1.7980  -11.9365 C   0  0  0  0  0  0  0  0  0  0  0  0
  -27.0832   -2.0091  -13.1195 O   0  0  0  0  0  0  0  0  0  0  0  0
  -27.6710   -2.3263  -10.9973 N   0  0  0  0  0  0  0  0  0  0  0  0
  -25.7121   -1.0330  -10.4343 H   0  0  0  0  0  0  0  0  0  0  0  0
  -28.3981   -2.9143  -11.3774 H   0  0  0  0  0  0  0  0  0  0  0  0
  -27.6339   -2.1193   -9.6381 C   0  0  0  0  0  0  0  0  0  0  0  0
  -28.3605   -2.8614   -8.6882 C   0  0  0  0  0  0  0  0  0  0  0  0
  -28.0247   -2.2967   -7.4790 C   0  0  0  0  0  0  0  0  0  0  0  0
  -27.1474   -1.2834   -7.6956 O   0  0  0  0  0  0  0  0  0  0  0  0
  -26.8946   -1.1789   -9.0391 N   0  0  0  0  0  0  0  0  0  0  0  0
  -28.4220   -2.5697   -6.0594 C   0  0  0  0  0  0  0  0  0  0  0  0
  -27.3252   -2.0399   -5.1208 C   0  0  0  0  0  0  0  0  0  0  0  0
  -29.7546   -1.8829   -5.7035 C   0  0  0  0  0  0  0  0  0  0  0  0
  -28.5839   -4.0876   -5.8765 C   0  0  0  0  0  0  0  0  0  0  0  0
 13 14  1  0  0  0
 14 15  2  0  0  0
 14 16  1  0  0  0
 16  7  1  0  0  0
 16 17  1  0  0  0
  7  8  1  0  0  0
  7 11  2  0  0  0
  8  9  2  0  0  0
  9  1  1  0  0  0
  9 10  1  0  0  0
  1  2  1  0  0  0
  1  6  2  0  0  0
  2  3  2  0  0  0
  3  4  1  0  0  0
  4 18  1  0  0  0
  4  5  2  0  0  0
 18 19  1  0  0  0
 18 22  1  0  0  0
 19 20  2  0  0  0
 19 21  1  0  0  0
 21 24  1  0  0  0
 21 23  1  0  0  0
 24 25  1  0  0  0
 24 28  2  0  0  0
 25 26  2  0  0  0
 26 29  1  0  0  0
 26 27  1  0  0  0
 29 30  1  0  0  0
 29 31  1  0  0  0
 29 32  1  0  0  0
 27 28  1  0  0  0
  5  6  1  0  0  0
 10 11  1  0  0  0
 10 12  1  0  0  0
M  END
> <minimizedAffinity>
-10.00611

$$$$
