CHEMBL4573547


 31 33  0  0  0  0  0  0  0  0999 V2000
  -27.0313   -1.4818   -9.8836 C   0  0  0  0  0  0  0  0  0  0  0  0
  -27.9855   -1.4955  -10.8805 C   0  0  0  0  0  0  0  0  0  0  0  0
  -27.5182   -1.5629  -12.1715 C   0  0  0  0  0  0  0  0  0  0  0  0
  -26.2166   -1.6458  -12.4857 N   0  0  0  0  0  0  0  0  0  0  0  0
  -25.3637   -1.6860  -11.4543 C   0  0  0  0  0  0  0  0  0  0  0  0
  -25.7204   -1.5915  -10.1645 N   0  0  0  0  0  0  0  0  0  0  0  0
  -27.4457   -1.4561   -8.5296 N   0  0  0  0  0  0  0  0  0  0  0  0
  -26.6806   -1.1487   -7.9337 H   0  0  0  0  0  0  0  0  0  0  0  0
  -29.1835   -4.6927   -6.4325 C   0  0  0  0  0  0  0  0  0  0  0  0
  -28.6385   -4.9058   -7.7025 C   0  0  0  0  0  0  0  0  0  0  0  0
  -28.0855   -3.8373   -8.4126 C   0  0  0  0  0  0  0  0  0  0  0  0
  -28.0898   -2.5395   -7.8804 C   0  0  0  0  0  0  0  0  0  0  0  0
  -28.6067   -2.3406   -6.5974 C   0  0  0  0  0  0  0  0  0  0  0  0
  -29.1656   -3.4028   -5.8843 C   0  0  0  0  0  0  0  0  0  0  0  0
  -29.8352   -5.8355   -5.7406 C   0  0  0  0  0  0  0  0  0  0  0  0
  -30.2452   -6.8335   -6.3088 O   0  0  0  0  0  0  0  0  0  0  0  0
  -30.0176   -5.5184   -4.4361 O   0  0  0  0  0  0  0  0  0  0  0  0
  -31.8885   -4.4870   -3.3864 C   0  0  0  0  0  0  0  0  0  0  0  0
  -31.3196   -5.7952   -3.9086 C   0  0  0  0  0  0  0  0  0  0  0  0
  -23.6328   -1.8221  -11.8258 S   0  0  0  0  0  0  0  0  0  0  0  0
  -23.2681   -0.0751  -12.2082 C   0  0  0  0  0  0  0  0  0  0  0  0
  -23.0538    0.1506  -13.6974 C   0  0  0  0  0  0  0  0  0  0  0  0
  -23.8327   -0.2763  -14.5516 O   0  0  0  0  0  0  0  0  0  0  0  0
  -21.8895    0.9724  -14.1634 C   0  0  0  0  0  0  0  0  0  0  0  0
  -21.8187    2.3642  -14.0267 C   0  0  0  0  0  0  0  0  0  0  0  0
  -20.6786    3.0591  -14.4572 C   0  0  0  0  0  0  0  0  0  0  0  0
  -19.6065    2.3732  -15.0378 C   0  0  0  0  0  0  0  0  0  0  0  0
  -19.6822    0.9898  -15.2033 C   0  0  0  0  0  0  0  0  0  0  0  0
  -20.8167    0.2970  -14.7698 C   0  0  0  0  0  0  0  0  0  0  0  0
  -18.4343    3.0855  -15.4501 C   0  0  0  0  0  0  0  0  0  0  0  0
  -17.4861    3.6744  -15.7786 N   0  0  0  0  0  0  0  0  0  0  0  0
 18 19  1  0  0  0
 19 17  1  0  0  0
 17 15  1  0  0  0
 15 16  2  0  0  0
 15  9  1  0  0  0
  9 10  1  0  0  0
  9 14  2  0  0  0
 10 11  2  0  0  0
 11 12  1  0  0  0
 12  7  1  0  0  0
 12 13  2  0  0  0
  7  1  1  0  0  0
  7  8  1  0  0  0
  1  2  1  0  0  0
  1  6  2  0  0  0
  2  3  2  0  0  0
  3  4  1  0  0  0
  4  5  2  0  0  0
  5 20  1  0  0  0
  5  6  1  0  0  0
 20 21  1  0  0  0
 21 22  1  0  0  0
 22 23  2  0  0  0
 22 24  1  0  0  0
 24 25  1  0  0  0
 24 29  2  0  0  0
 25 26  2  0  0  0
 26 27  1  0  0  0
 27 30  1  0  0  0
 27 28  2  0  0  0
 30 31  3  0  0  0
 28 29  1  0  0  0
 13 14  1  0  0  0
M  END
> <minimizedAffinity>
-9.39856

$$$$
