CHEMBL4548316


 39 43  0  0  0  0  0  0  0  0999 V2000
  -22.6090   -0.3181  -13.5889 C   0  0  0  0  0  0  0  0  0  0  0  0
  -22.6836   -0.6542  -12.2411 C   0  0  0  0  0  0  0  0  0  0  0  0
  -23.8497   -1.2052  -11.6990 C   0  0  0  0  0  0  0  0  0  0  0  0
  -25.0038   -1.4126  -12.4683 C   0  0  0  0  0  0  0  0  0  0  0  0
  -24.9441   -1.0541  -13.8283 C   0  0  0  0  0  0  0  0  0  0  0  0
  -23.7529   -0.5163  -14.3684 C   0  0  0  0  0  0  0  0  0  0  0  0
  -26.1070   -1.2517  -14.7645 C   0  0  0  0  0  0  0  0  0  0  0  0
  -27.4008   -1.5834  -14.0411 C   0  0  0  0  0  0  0  0  0  0  0  0
  -27.1304   -2.5618  -12.9124 C   0  0  0  0  0  0  0  0  0  0  0  0
  -26.2198   -1.9844  -11.9139 N   0  0  0  0  0  0  0  0  0  0  0  0
  -26.4730   -1.9065  -10.5342 C   0  0  0  0  0  0  0  0  0  0  0  0
  -25.7165   -1.3210   -9.7624 O   0  0  0  0  0  0  0  0  0  0  0  0
  -27.6475   -2.4884  -10.0741 N   0  0  0  0  0  0  0  0  0  0  0  0
  -28.0682   -3.2057  -10.6397 H   0  0  0  0  0  0  0  0  0  0  0  0
  -28.1069   -2.4190   -8.7256 C   0  0  0  0  0  0  0  0  0  0  0  0
  -27.8995   -1.3043   -7.9068 C   0  0  0  0  0  0  0  0  0  0  0  0
  -28.2524   -1.3212   -6.5599 C   0  0  0  0  0  0  0  0  0  0  0  0
  -28.8731   -2.4382   -6.0087 C   0  0  0  0  0  0  0  0  0  0  0  0
  -29.1598   -3.5345   -6.8298 C   0  0  0  0  0  0  0  0  0  0  0  0
  -28.7775   -3.5222   -8.1845 C   0  0  0  0  0  0  0  0  0  0  0  0
  -29.1766   -2.3912   -4.5531 C   0  0  0  0  0  0  0  0  0  0  0  0
  -30.1839   -3.3438   -3.9740 C   0  0  0  0  0  0  0  0  0  0  0  0
  -28.6224   -1.5626   -3.8406 O   0  0  0  0  0  0  0  0  0  0  0  0
  -21.4128    0.1058  -14.1863 N   0  0  0  0  0  0  0  0  0  0  0  0
  -20.8765   -0.6122  -14.6509 H   0  0  0  0  0  0  0  0  0  0  0  0
  -16.9793    2.3234  -15.3497 C   0  0  0  0  0  0  0  0  0  0  0  0
  -18.0127    3.2765  -15.4439 C   0  0  0  0  0  0  0  0  0  0  0  0
  -19.3456    2.9681  -15.1935 C   0  0  0  0  0  0  0  0  0  0  0  0
  -20.2453    3.9562  -15.1848 N   0  0  0  0  0  0  0  0  0  0  0  0
  -21.4929    3.6254  -14.8323 C   0  0  0  0  0  0  0  0  0  0  0  0
  -21.9234    2.4037  -14.5067 N   0  0  0  0  0  0  0  0  0  0  0  0
  -21.0183    1.4098  -14.5586 C   0  0  0  0  0  0  0  0  0  0  0  0
  -19.6776    1.6436  -14.9121 C   0  0  0  0  0  0  0  0  0  0  0  0
  -18.6638    0.6600  -14.9369 C   0  0  0  0  0  0  0  0  0  0  0  0
  -17.3170    0.9839  -15.1395 C   0  0  0  0  0  0  0  0  0  0  0  0
  -15.4238    4.0379  -15.8794 C   0  0  0  0  0  0  0  0  0  0  0  0
  -15.6639    2.6885  -15.4649 O   0  0  0  0  0  0  0  0  0  0  0  0
  -16.5288   -0.1266  -15.0542 O   0  0  0  0  0  0  0  0  0  0  0  0
  -15.8571   -0.4544  -13.8518 C   0  0  0  0  0  0  0  0  0  0  0  0
 36 37  1  0  0  0
 37 26  1  0  0  0
 26 27  1  0  0  0
 26 35  2  0  0  0
 27 28  2  0  0  0
 28 29  1  0  0  0
 28 33  1  0  0  0
 29 30  2  0  0  0
 30 31  1  0  0  0
 31 32  2  0  0  0
 32 24  1  0  0  0
 32 33  1  0  0  0
 24  1  1  0  0  0
 24 25  1  0  0  0
  1  2  1  0  0  0
  1  6  2  0  0  0
  2  3  2  0  0  0
  3  4  1  0  0  0
  4  5  2  0  0  0
  4 10  1  0  0  0
  5  6  1  0  0  0
  5  7  1  0  0  0
  7  8  1  0  0  0
  8  9  1  0  0  0
  9 10  1  0  0  0
 10 11  1  0  0  0
 11 12  2  0  0  0
 11 13  1  0  0  0
 13 15  1  0  0  0
 13 14  1  0  0  0
 15 16  1  0  0  0
 15 20  2  0  0  0
 16 17  2  0  0  0
 17 18  1  0  0  0
 18 21  1  0  0  0
 18 19  2  0  0  0
 21 22  1  0  0  0
 21 23  2  0  0  0
 19 20  1  0  0  0
 33 34  2  0  0  0
 34 35  1  0  0  0
 35 38  1  0  0  0
 38 39  1  0  0  0
M  END
> <minimizedAffinity>
-11.60499

$$$$
