CHEMBL293068


 27 30  0  0  0  0  0  0  0  0999 V2000
  -28.1610   -6.9135   -4.9574 O   0  0  0  0  0  0  0  0  0  0  0  0
  -28.2831   -5.7061   -5.0027 C   0  0  0  0  0  0  0  0  0  0  0  0
  -27.8954   -4.8152   -4.0171 N   0  0  0  0  0  0  0  0  0  0  0  0
  -28.2009   -3.5062   -4.3585 C   0  0  0  0  0  0  0  0  0  0  0  0
  -27.9294   -2.3870   -3.6006 C   0  0  0  0  0  0  0  0  0  0  0  0
  -28.3095   -1.1535   -4.1270 C   0  0  0  0  0  0  0  0  0  0  0  0
  -28.9513   -1.0660   -5.3833 C   0  0  0  0  0  0  0  0  0  0  0  0
  -29.2049   -2.2243   -6.1458 C   0  0  0  0  0  0  0  0  0  0  0  0
  -28.8259   -3.4488   -5.6123 C   0  0  0  0  0  0  0  0  0  0  0  0
  -28.8904   -4.8421   -6.0881 C   0  0  0  0  0  0  0  0  0  0  0  0
  -29.3662   -5.2685   -7.2692 C   0  0  0  0  0  0  0  0  0  0  0  0
  -27.4484   -5.1193   -3.1657 H   0  0  0  0  0  0  0  0  0  0  0  0
  -29.2884   -6.6232   -7.6656 C   0  0  0  0  0  0  0  0  0  0  0  0
  -28.1529   -7.0784   -8.3017 N   0  0  0  0  0  0  0  0  0  0  0  0
  -28.2963   -8.4081   -8.6202 C   0  0  0  0  0  0  0  0  0  0  0  0
  -29.5435   -8.8139   -8.1964 C   0  0  0  0  0  0  0  0  0  0  0  0
  -30.1600   -7.6889   -7.5868 C   0  0  0  0  0  0  0  0  0  0  0  0
  -31.5296   -7.8081   -7.0346 C   0  0  0  0  0  0  0  0  0  0  0  0
  -32.2432   -8.9701   -7.7390 C   0  0  0  0  0  0  0  0  0  0  0  0
  -31.4569  -10.1874   -7.8132 O   0  0  0  0  0  0  0  0  0  0  0  0
  -30.1732  -10.1218   -8.3084 C   0  0  0  0  0  0  0  0  0  0  0  0
  -29.6034  -11.1113   -8.7523 O   0  0  0  0  0  0  0  0  0  0  0  0
  -27.3454   -6.5163   -8.5352 H   0  0  0  0  0  0  0  0  0  0  0  0
  -29.2824    0.3011   -5.8717 C   0  0  0  0  0  0  0  0  0  0  0  0
  -30.4122    0.7570   -5.8213 O   0  0  0  0  0  0  0  0  0  0  0  0
  -28.2438    0.9656   -6.4110 O   0  0  0  0  0  0  0  0  0  0  0  0
  -27.4457    0.4362   -6.5843 H   0  0  0  0  0  0  0  0  0  0  0  0
  1  2  2  0  0  0
  2  3  1  0  0  0
  2 10  1  0  0  0
  3  4  1  0  0  0
  3 12  1  0  0  0
  4  5  1  0  0  0
  4  9  2  0  0  0
  5  6  2  0  0  0
  6  7  1  0  0  0
  7 24  1  0  0  0
  7  8  2  0  0  0
 24 25  2  0  0  0
 24 26  1  0  0  0
 26 27  1  0  0  0
  8  9  1  0  0  0
  9 10  1  0  0  0
 10 11  2  0  0  0
 11 13  1  0  0  0
 13 14  1  0  0  0
 13 17  2  0  0  0
 14 15  1  0  0  0
 14 23  1  0  0  0
 15 16  2  0  0  0
 16 17  1  0  0  0
 16 21  1  0  0  0
 17 18  1  0  0  0
 18 19  1  0  0  0
 19 20  1  0  0  0
 20 21  1  0  0  0
 21 22  2  0  0  0
M  END
> <minimizedAffinity>
-8.95827

$$$$
