CHEMBL13354


 33 36  0  0  0  0  0  0  0  0999 V2000
  -27.1029   -9.5171   -3.4312 C   0  0  0  0  0  0  0  0  0  0  0  0
  -27.7558   -8.7188   -4.5032 C   0  0  0  0  0  0  0  0  0  0  0  0
  -27.5799   -7.3543   -4.5220 N   0  0  0  0  0  0  0  0  0  0  0  0
  -28.1987   -6.7898   -5.6042 C   0  0  0  0  0  0  0  0  0  0  0  0
  -28.7590   -7.8279   -6.3350 C   0  0  0  0  0  0  0  0  0  0  0  0
  -29.5121   -7.7211   -7.6226 C   0  0  0  0  0  0  0  0  0  0  0  0
  -28.5255   -9.0560   -5.6119 C   0  0  0  0  0  0  0  0  0  0  0  0
  -27.0501   -6.8431   -3.8221 H   0  0  0  0  0  0  0  0  0  0  0  0
  -28.2110   -5.3855   -5.8276 C   0  0  0  0  0  0  0  0  0  0  0  0
  -28.8898   -4.4216   -5.1965 C   0  0  0  0  0  0  0  0  0  0  0  0
  -29.8505   -4.4631   -4.0319 C   0  0  0  0  0  0  0  0  0  0  0  0
  -30.2212   -5.4302   -3.3953 O   0  0  0  0  0  0  0  0  0  0  0  0
  -30.2341   -3.1478   -3.8256 N   0  0  0  0  0  0  0  0  0  0  0  0
  -29.6296   -2.2899   -4.7356 C   0  0  0  0  0  0  0  0  0  0  0  0
  -29.7897   -0.9195   -4.8211 C   0  0  0  0  0  0  0  0  0  0  0  0
  -29.0797   -0.2519   -5.8269 C   0  0  0  0  0  0  0  0  0  0  0  0
  -28.2485   -0.9724   -6.7006 C   0  0  0  0  0  0  0  0  0  0  0  0
  -27.5893   -0.3117   -7.6607 F   0  0  0  0  0  0  0  0  0  0  0  0
  -28.0925   -2.3526   -6.6003 C   0  0  0  0  0  0  0  0  0  0  0  0
  -28.7967   -3.0042   -5.6006 C   0  0  0  0  0  0  0  0  0  0  0  0
  -30.8789   -2.8760   -3.0980 H   0  0  0  0  0  0  0  0  0  0  0  0
  -29.0095  -10.3723   -6.0395 C   0  0  0  0  0  0  0  0  0  0  0  0
  -28.5697  -10.9299   -7.0417 O   0  0  0  0  0  0  0  0  0  0  0  0
  -30.0447  -10.9034   -5.2995 N   0  0  0  0  0  0  0  0  0  0  0  0
  -30.3311  -10.4363   -4.4546 H   0  0  0  0  0  0  0  0  0  0  0  0
  -30.5930  -12.2021   -5.6351 C   0  0  0  0  0  0  0  0  0  0  0  0
  -32.1154  -12.3100   -5.4126 C   0  0  0  0  0  0  0  0  0  0  0  0
  -32.8706  -12.0310   -6.6386 N   0  0  0  0  0  0  0  0  0  0  0  0
  -32.1325  -12.2150   -7.9049 C   0  0  0  0  0  0  0  0  0  0  0  0
  -31.5242  -10.9629   -8.5699 C   0  0  0  0  0  0  0  0  0  0  0  0
  -32.3926   -9.8291   -8.5256 O   0  0  0  0  0  0  0  0  0  0  0  0
  -32.7713   -9.5657   -7.1729 C   0  0  0  0  0  0  0  0  0  0  0  0
  -33.5808  -10.7422   -6.6184 C   0  0  0  0  0  0  0  0  0  0  0  0
  1  2  1  0  0  0
  2  3  1  0  0  0
  2  7  2  0  0  0
  3  4  1  0  0  0
  3  8  1  0  0  0
  4  9  1  0  0  0
  4  5  2  0  0  0
  9 10  2  0  0  0
 10 11  1  0  0  0
 10 20  1  0  0  0
 11 12  2  0  0  0
 11 13  1  0  0  0
 13 14  1  0  0  0
 13 21  1  0  0  0
 14 15  1  0  0  0
 14 20  2  0  0  0
 15 16  2  0  0  0
 16 17  1  0  0  0
 17 18  1  0  0  0
 17 19  2  0  0  0
 19 20  1  0  0  0
  5  6  1  0  0  0
  5  7  1  0  0  0
  7 22  1  0  0  0
 22 23  2  0  0  0
 22 24  1  0  0  0
 24 26  1  0  0  0
 24 25  1  0  0  0
 26 27  1  0  0  0
 27 28  1  0  0  0
 28 29  1  0  0  0
 28 33  1  0  0  0
 29 30  1  0  0  0
 30 31  1  0  0  0
 31 32  1  0  0  0
 32 33  1  0  0  0
M  END
> <minimizedAffinity>
-7.96180

$$$$
