CHEMBL4449250


 48 53  0  0  0  0  0  0  0  0999 V2000
  -21.9299   -0.4862  -13.9953 O   0  0  0  0  0  0  0  0  0  0  0  0
  -21.8426    0.8838  -14.2747 C   0  0  0  0  0  0  0  0  0  0  0  0
  -23.0119    1.5654  -14.2393 N   0  0  0  0  0  0  0  0  0  0  0  0
  -22.9353    2.8855  -14.2369 C   0  0  0  0  0  0  0  0  0  0  0  0
  -21.8244    3.5843  -14.3412 N   0  0  0  0  0  0  0  0  0  0  0  0
  -20.6775    2.8998  -14.4356 C   0  0  0  0  0  0  0  0  0  0  0  0
  -19.5924    3.7311  -14.5110 C   0  0  0  0  0  0  0  0  0  0  0  0
  -18.2995    3.2498  -14.4367 C   0  0  0  0  0  0  0  0  0  0  0  0
  -18.1250    1.8818  -14.3858 C   0  0  0  0  0  0  0  0  0  0  0  0
  -19.1951    1.0226  -14.6196 C   0  0  0  0  0  0  0  0  0  0  0  0
  -20.5578    1.4983  -14.4526 C   0  0  0  0  0  0  0  0  0  0  0  0
  -18.8989   -0.2088  -15.1809 O   0  0  0  0  0  0  0  0  0  0  0  0
  -17.5489   -0.3151  -15.7593 C   0  0  0  0  0  0  0  0  0  0  0  0
  -16.5813    0.8528  -15.5317 C   0  0  0  0  0  0  0  0  0  0  0  0
  -16.8483    1.4078  -14.2618 O   0  0  0  0  0  0  0  0  0  0  0  0
  -17.1577    3.9893  -14.5316 O   0  0  0  0  0  0  0  0  0  0  0  0
  -16.6940    4.3299  -15.8312 C   0  0  0  0  0  0  0  0  0  0  0  0
  -15.1983    4.0420  -15.9363 C   0  0  0  0  0  0  0  0  0  0  0  0
  -14.6047    4.8728  -17.0752 C   0  0  0  0  0  0  0  0  0  0  0  0
  -15.0603    4.4742  -18.4153 N   0  0  0  0  0  0  0  0  0  0  0  0
  -14.0805    3.5256  -19.0026 C   0  0  0  0  0  0  0  0  0  0  0  0
  -12.7447    4.1778  -19.4151 C   0  0  0  0  0  0  0  0  0  0  0  0
  -12.9408    5.2913  -20.2964 O   0  0  0  0  0  0  0  0  0  0  0  0
  -13.8260    6.2589  -19.7166 C   0  0  0  0  0  0  0  0  0  0  0  0
  -15.1755    5.6151  -19.3575 C   0  0  0  0  0  0  0  0  0  0  0  0
  -25.3641   -1.9328  -11.9113 C   0  0  0  0  0  0  0  0  0  0  0  0
  -25.4820   -1.5518  -13.2482 C   0  0  0  0  0  0  0  0  0  0  0  0
  -24.3663   -1.0739  -13.9755 C   0  0  0  0  0  0  0  0  0  0  0  0
  -23.0882   -1.0002  -13.4032 C   0  0  0  0  0  0  0  0  0  0  0  0
  -22.9732   -1.3937  -12.0654 C   0  0  0  0  0  0  0  0  0  0  0  0
  -24.0949   -1.8384  -11.3270 C   0  0  0  0  0  0  0  0  0  0  0  0
  -26.0750   -1.2010   -9.1498 O   0  0  0  0  0  0  0  0  0  0  0  0
  -26.7333   -2.0180   -9.8011 C   0  0  0  0  0  0  0  0  0  0  0  0
  -26.4463   -2.3934  -11.1081 N   0  0  0  0  0  0  0  0  0  0  0  0
  -27.8752   -2.6453   -9.3123 N   0  0  0  0  0  0  0  0  0  0  0  0
  -27.1371   -2.9611  -11.5775 H   0  0  0  0  0  0  0  0  0  0  0  0
  -28.2634   -3.4071   -9.8514 H   0  0  0  0  0  0  0  0  0  0  0  0
  -28.5304   -2.3939   -8.0733 C   0  0  0  0  0  0  0  0  0  0  0  0
  -28.5556   -1.1513   -7.4308 C   0  0  0  0  0  0  0  0  0  0  0  0
  -29.2538   -0.9636   -6.2192 C   0  0  0  0  0  0  0  0  0  0  0  0
  -29.9344   -2.0475   -5.6431 C   0  0  0  0  0  0  0  0  0  0  0  0
  -29.9164   -3.2930   -6.2691 C   0  0  0  0  0  0  0  0  0  0  0  0
  -29.2206   -3.4538   -7.4686 C   0  0  0  0  0  0  0  0  0  0  0  0
  -29.2294   -4.6602   -8.0592 F   0  0  0  0  0  0  0  0  0  0  0  0
  -29.2871    0.3911   -5.5483 C   0  0  0  0  0  0  0  0  0  0  0  0
  -28.8185    1.4059   -6.3243 F   0  0  0  0  0  0  0  0  0  0  0  0
  -30.5487    0.7542   -5.1821 F   0  0  0  0  0  0  0  0  0  0  0  0
  -28.5468    0.4228   -4.4047 F   0  0  0  0  0  0  0  0  0  0  0  0
 32 33  2  0  0  0
 33 34  1  0  0  0
 33 35  1  0  0  0
 34 26  1  0  0  0
 34 36  1  0  0  0
 26 27  1  0  0  0
 26 31  2  0  0  0
 27 28  2  0  0  0
 28 29  1  0  0  0
 29  1  1  0  0  0
 29 30  2  0  0  0
  1  2  1  0  0  0
  2  3  1  0  0  0
  2 11  2  0  0  0
  3  4  2  0  0  0
  4  5  1  0  0  0
  5  6  2  0  0  0
  6  7  1  0  0  0
  6 11  1  0  0  0
  7  8  2  0  0  0
  8 16  1  0  0  0
  8  9  1  0  0  0
 16 17  1  0  0  0
 17 18  1  0  0  0
 18 19  1  0  0  0
 19 20  1  0  0  0
 20 21  1  0  0  0
 20 25  1  0  0  0
 21 22  1  0  0  0
 22 23  1  0  0  0
 23 24  1  0  0  0
 24 25  1  0  0  0
  9 10  2  0  0  0
  9 15  1  0  0  0
 10 11  1  0  0  0
 10 12  1  0  0  0
 12 13  1  0  0  0
 13 14  1  0  0  0
 14 15  1  0  0  0
 30 31  1  0  0  0
 35 38  1  0  0  0
 35 37  1  0  0  0
 38 39  1  0  0  0
 38 43  2  0  0  0
 39 40  2  0  0  0
 40 45  1  0  0  0
 40 41  1  0  0  0
 45 46  1  0  0  0
 45 47  1  0  0  0
 45 48  1  0  0  0
 41 42  2  0  0  0
 42 43  1  0  0  0
 43 44  1  0  0  0
M  END
> <minimizedAffinity>
-8.64306

$$$$
