CHEMBL512862


 29 31  0  0  0  0  0  0  0  0999 V2000
  -15.2155    0.2794  -12.4997 O   0  0  0  0  0  0  0  0  0  0  0  0
  -15.1823    0.0955  -13.7159 C   0  0  0  0  0  0  0  0  0  0  0  0
  -14.8817   -1.1137  -14.3285 N   0  0  0  0  0  0  0  0  0  0  0  0
  -14.7423   -1.0599  -15.3343 H   0  0  0  0  0  0  0  0  0  0  0  0
  -14.6539   -2.3379  -13.6685 C   0  0  0  0  0  0  0  0  0  0  0  0
  -13.3712   -2.8193  -13.4022 C   0  0  0  0  0  0  0  0  0  0  0  0
  -13.1837   -4.0526  -12.7775 C   0  0  0  0  0  0  0  0  0  0  0  0
  -14.2792   -4.8416  -12.3998 C   0  0  0  0  0  0  0  0  0  0  0  0
  -15.5655   -4.3458  -12.6445 C   0  0  0  0  0  0  0  0  0  0  0  0
  -16.9784   -5.2474  -12.2272 Cl  0  0  0  0  0  0  0  0  0  0  0  0
  -15.7523   -3.0963  -13.2592 C   0  0  0  0  0  0  0  0  0  0  0  0
  -14.0409   -6.1777  -11.7499 C   0  0  0  0  0  0  0  0  0  0  0  0
  -12.7205   -6.5286  -11.7263 F   0  0  0  0  0  0  0  0  0  0  0  0
  -14.4442   -6.2186  -10.4509 F   0  0  0  0  0  0  0  0  0  0  0  0
  -14.6707   -7.2033  -12.3852 F   0  0  0  0  0  0  0  0  0  0  0  0
  -15.4494    1.2034  -14.6535 C   0  0  0  0  0  0  0  0  0  0  0  0
  -14.4367    1.8193  -15.2836 N   0  0  0  0  0  0  0  0  0  0  0  0
  -15.0617    2.9587  -16.3135 S   0  0  0  0  0  0  0  0  0  0  0  0
  -16.7042    2.6732  -15.9398 C   0  0  0  0  0  0  0  0  0  0  0  0
  -16.7770    1.6826  -14.9872 C   0  0  0  0  0  0  0  0  0  0  0  0
  -17.9165    1.2278  -14.3943 N   0  0  0  0  0  0  0  0  0  0  0  0
  -17.8498    0.9154  -13.4181 H   0  0  0  0  0  0  0  0  0  0  0  0
  -19.0201    0.6014  -15.0973 C   0  0  0  0  0  0  0  0  0  0  0  0
  -20.3214    1.2483  -14.6985 C   0  0  0  0  0  0  0  0  0  0  0  0
  -21.4144    0.4656  -14.3071 C   0  0  0  0  0  0  0  0  0  0  0  0
  -22.5879    1.0975  -13.9252 C   0  0  0  0  0  0  0  0  0  0  0  0
  -22.7446    2.4363  -13.9014 N   0  0  0  0  0  0  0  0  0  0  0  0
  -21.6829    3.1764  -14.2890 C   0  0  0  0  0  0  0  0  0  0  0  0
  -20.4686    2.6385  -14.6912 C   0  0  0  0  0  0  0  0  0  0  0  0
  1  2  2  0  0  0
  2  3  1  0  0  0
  2 16  1  0  0  0
  3  5  1  0  0  0
  3  4  1  0  0  0
  5  6  1  0  0  0
  5 11  2  0  0  0
  6  7  2  0  0  0
  7  8  1  0  0  0
  8 12  1  0  0  0
  8  9  2  0  0  0
 12 13  1  0  0  0
 12 14  1  0  0  0
 12 15  1  0  0  0
  9 10  1  0  0  0
  9 11  1  0  0  0
 16 17  2  0  0  0
 16 20  1  0  0  0
 17 18  1  0  0  0
 18 19  1  0  0  0
 19 20  2  0  0  0
 20 21  1  0  0  0
 21 23  1  0  0  0
 21 22  1  0  0  0
 23 24  1  0  0  0
 24 25  1  0  0  0
 24 29  2  0  0  0
 25 26  2  0  0  0
 26 27  1  0  0  0
 27 28  2  0  0  0
 28 29  1  0  0  0
M  END
> <minimizedAffinity>
-8.09735

$$$$
