CHEMBL425387


 35 38  0  0  0  0  0  0  0  0999 V2000
  -14.3481   -1.7710  -13.8480 C   0  0  0  0  0  0  0  0  0  0  0  0
  -12.9601   -1.8536  -13.7854 C   0  0  0  0  0  0  0  0  0  0  0  0
  -12.3236   -2.8667  -13.0732 C   0  0  0  0  0  0  0  0  0  0  0  0
  -13.0333   -3.7445  -12.2590 C   0  0  0  0  0  0  0  0  0  0  0  0
  -14.4228   -3.5481  -12.1865 C   0  0  0  0  0  0  0  0  0  0  0  0
  -15.0833   -2.6059  -13.0079 C   0  0  0  0  0  0  0  0  0  0  0  0
  -12.3466   -4.8441  -11.5421 C   0  0  0  0  0  0  0  0  0  0  0  0
  -11.4703   -4.6169  -10.4659 C   0  0  0  0  0  0  0  0  0  0  0  0
  -10.8687   -6.0903   -9.8161 S   0  0  0  0  0  0  0  0  0  0  0  0
  -11.6250   -7.0189  -11.0024 C   0  0  0  0  0  0  0  0  0  0  0  0
  -11.4160   -8.3453  -11.0062 N   0  0  0  0  0  0  0  0  0  0  0  0
  -12.0424   -8.9568  -12.0044 C   0  0  0  0  0  0  0  0  0  0  0  0
  -12.8157   -8.3910  -12.9358 N   0  0  0  0  0  0  0  0  0  0  0  0
  -13.0017   -7.0564  -12.9054 C   0  0  0  0  0  0  0  0  0  0  0  0
  -13.7789   -6.5742  -13.9521 N   0  0  0  0  0  0  0  0  0  0  0  0
  -12.3918   -6.2785  -11.8901 C   0  0  0  0  0  0  0  0  0  0  0  0
  -13.9066   -7.3104  -14.6385 H   0  0  0  0  0  0  0  0  0  0  0  0
  -13.4487   -5.6935  -14.3278 H   0  0  0  0  0  0  0  0  0  0  0  0
  -10.9263   -3.3627   -9.7981 C   0  0  0  0  0  0  0  0  0  0  0  0
  -11.7472   -2.8503   -8.6922 N   0  0  0  0  0  0  0  0  0  0  0  0
  -13.0730   -3.4660   -8.6807 C   0  0  0  0  0  0  0  0  0  0  0  0
  -11.0715   -3.0910   -7.4142 C   0  0  0  0  0  0  0  0  0  0  0  0
  -16.6423    0.6249  -15.3935 N   0  0  0  0  0  0  0  0  0  0  0  0
  -16.0307   -0.0447  -14.3494 C   0  0  0  0  0  0  0  0  0  0  0  0
  -16.3609    0.0869  -13.1755 O   0  0  0  0  0  0  0  0  0  0  0  0
  -14.9982   -0.8853  -14.7515 N   0  0  0  0  0  0  0  0  0  0  0  0
  -16.2457    0.5276  -16.3156 H   0  0  0  0  0  0  0  0  0  0  0  0
  -14.4997   -0.6407  -15.5930 H   0  0  0  0  0  0  0  0  0  0  0  0
  -21.4699    1.0876  -14.3765 C   0  0  0  0  0  0  0  0  0  0  0  0
  -20.1575    1.7037  -14.7586 C   0  0  0  0  0  0  0  0  0  0  0  0
  -20.0745    3.0828  -14.9758 C   0  0  0  0  0  0  0  0  0  0  0  0
  -18.8621    3.6590  -15.3230 C   0  0  0  0  0  0  0  0  0  0  0  0
  -17.7268    2.8628  -15.4535 C   0  0  0  0  0  0  0  0  0  0  0  0
  -17.7768    1.4737  -15.2566 C   0  0  0  0  0  0  0  0  0  0  0  0
  -19.0040    0.9056  -14.8974 C   0  0  0  0  0  0  0  0  0  0  0  0
 29 30  1  0  0  0
 30 31  1  0  0  0
 30 35  2  0  0  0
 31 32  2  0  0  0
 32 33  1  0  0  0
 33 34  2  0  0  0
 34 23  1  0  0  0
 34 35  1  0  0  0
 23 24  1  0  0  0
 23 27  1  0  0  0
 24 25  2  0  0  0
 24 26  1  0  0  0
 26  1  1  0  0  0
 26 28  1  0  0  0
  1  2  1  0  0  0
  1  6  2  0  0  0
  2  3  2  0  0  0
  3  4  1  0  0  0
  4  7  1  0  0  0
  4  5  2  0  0  0
  7  8  2  0  0  0
  7 16  1  0  0  0
  8 19  1  0  0  0
  8  9  1  0  0  0
 19 20  1  0  0  0
 20 21  1  0  0  0
 20 22  1  0  0  0
  9 10  1  0  0  0
 10 11  1  0  0  0
 10 16  2  0  0  0
 11 12  2  0  0  0
 12 13  1  0  0  0
 13 14  2  0  0  0
 14 15  1  0  0  0
 14 16  1  0  0  0
 15 17  1  0  0  0
 15 18  1  0  0  0
  5  6  1  0  0  0
M  END
> <minimizedAffinity>
-8.71931

$$$$
