CHEMBL475510


 28 30  0  0  0  0  0  0  0  0999 V2000
  -27.6591   -1.2431   -9.6228 N   0  0  0  0  0  0  0  0  0  0  0  0
  -27.6391   -2.2368   -8.6607 C   0  0  0  0  0  0  0  0  0  0  0  0
  -27.3137   -3.3902   -8.9133 O   0  0  0  0  0  0  0  0  0  0  0  0
  -28.0460   -0.3513   -9.3255 H   0  0  0  0  0  0  0  0  0  0  0  0
  -25.3748   -1.3176  -12.5642 C   0  0  0  0  0  0  0  0  0  0  0  0
  -26.2725   -1.7157  -13.5720 C   0  0  0  0  0  0  0  0  0  0  0  0
  -27.6139   -1.9459  -13.2950 C   0  0  0  0  0  0  0  0  0  0  0  0
  -28.0820   -1.7914  -11.9965 C   0  0  0  0  0  0  0  0  0  0  0  0
  -27.2276   -1.3968  -10.9608 C   0  0  0  0  0  0  0  0  0  0  0  0
  -25.8788   -1.1650  -11.2551 C   0  0  0  0  0  0  0  0  0  0  0  0
  -23.7551   -0.5672  -14.3572 C   0  0  0  0  0  0  0  0  0  0  0  0
  -23.8937   -1.1130  -12.9181 C   0  0  0  0  0  0  0  0  0  0  0  0
  -23.1770   -2.4757  -12.8162 C   0  0  0  0  0  0  0  0  0  0  0  0
  -23.1605   -0.1241  -11.9873 C   0  0  0  0  0  0  0  0  0  0  0  0
  -28.0605   -1.8201   -7.2996 C   0  0  0  0  0  0  0  0  0  0  0  0
  -28.0443   -0.5032   -7.0184 N   0  0  0  0  0  0  0  0  0  0  0  0
  -28.4253   -0.2713   -5.4291 S   0  0  0  0  0  0  0  0  0  0  0  0
  -28.6563   -1.9152   -5.0511 C   0  0  0  0  0  0  0  0  0  0  0  0
  -28.4704   -2.6783   -6.1854 C   0  0  0  0  0  0  0  0  0  0  0  0
  -28.6661   -4.0298   -6.1200 N   0  0  0  0  0  0  0  0  0  0  0  0
  -27.9656   -4.6420   -5.7094 H   0  0  0  0  0  0  0  0  0  0  0  0
  -29.9603   -4.6645   -6.2920 C   0  0  0  0  0  0  0  0  0  0  0  0
  -29.8435   -6.0150   -6.9386 C   0  0  0  0  0  0  0  0  0  0  0  0
  -30.8958   -6.9292   -6.8875 C   0  0  0  0  0  0  0  0  0  0  0  0
  -30.7625   -8.1241   -7.5724 C   0  0  0  0  0  0  0  0  0  0  0  0
  -29.6643   -8.4632   -8.2847 N   0  0  0  0  0  0  0  0  0  0  0  0
  -28.6551   -7.5678   -8.3136 C   0  0  0  0  0  0  0  0  0  0  0  0
  -28.6944   -6.3490   -7.6603 C   0  0  0  0  0  0  0  0  0  0  0  0
 11 12  1  0  0  0
 12 13  1  0  0  0
 12 14  1  0  0  0
 12  5  1  0  0  0
  5  6  1  0  0  0
  5 10  2  0  0  0
  6  7  2  0  0  0
  7  8  1  0  0  0
  8  9  2  0  0  0
  9  1  1  0  0  0
  9 10  1  0  0  0
  1  2  1  0  0  0
  1  4  1  0  0  0
  2  3  2  0  0  0
  2 15  1  0  0  0
 15 16  2  0  0  0
 15 19  1  0  0  0
 16 17  1  0  0  0
 17 18  1  0  0  0
 18 19  2  0  0  0
 19 20  1  0  0  0
 20 22  1  0  0  0
 20 21  1  0  0  0
 22 23  1  0  0  0
 23 24  1  0  0  0
 23 28  2  0  0  0
 24 25  2  0  0  0
 25 26  1  0  0  0
 26 27  2  0  0  0
 27 28  1  0  0  0
M  END
> <minimizedAffinity>
-8.85678

$$$$
