CHEMBL3896430


 38 41  0  0  0  0  0  0  0  0999 V2000
  -15.6949   -2.7829  -13.6237 C   0  0  0  0  0  0  0  0  0  0  0  0
  -14.4194   -1.9955  -13.4981 C   0  0  0  0  0  0  0  0  0  0  0  0
  -13.4373   -2.5174  -12.6253 C   0  0  0  0  0  0  0  0  0  0  0  0
  -12.1768   -1.9305  -12.5016 C   0  0  0  0  0  0  0  0  0  0  0  0
  -11.9023   -0.7772  -13.2180 C   0  0  0  0  0  0  0  0  0  0  0  0
  -12.8759   -0.2307  -14.0617 C   0  0  0  0  0  0  0  0  0  0  0  0
  -14.1499   -0.8079  -14.2096 C   0  0  0  0  0  0  0  0  0  0  0  0
  -15.1511   -0.2055  -15.0307 N   0  0  0  0  0  0  0  0  0  0  0  0
  -16.2836    0.4586  -14.5689 C   0  0  0  0  0  0  0  0  0  0  0  0
  -16.5524    0.6561  -13.3893 O   0  0  0  0  0  0  0  0  0  0  0  0
  -17.1521    0.8212  -15.5951 N   0  0  0  0  0  0  0  0  0  0  0  0
  -15.0623   -0.3305  -16.0285 H   0  0  0  0  0  0  0  0  0  0  0  0
  -17.1512    0.2042  -16.3937 H   0  0  0  0  0  0  0  0  0  0  0  0
  -18.3907    1.4555  -15.3004 C   0  0  0  0  0  0  0  0  0  0  0  0
  -18.4330    2.8475  -15.2375 C   0  0  0  0  0  0  0  0  0  0  0  0
  -19.6512    3.5006  -15.0297 C   0  0  0  0  0  0  0  0  0  0  0  0
  -20.8307    2.7703  -14.8492 C   0  0  0  0  0  0  0  0  0  0  0  0
  -20.8052    1.3801  -14.9194 C   0  0  0  0  0  0  0  0  0  0  0  0
  -19.5775    0.7305  -15.1168 C   0  0  0  0  0  0  0  0  0  0  0  0
  -21.8769    0.5481  -14.7895 O   0  0  0  0  0  0  0  0  0  0  0  0
  -22.5181    0.4055  -13.5293 C   0  0  0  0  0  0  0  0  0  0  0  0
  -23.4619    1.3376  -13.2792 F   0  0  0  0  0  0  0  0  0  0  0  0
  -23.1196   -0.8057  -13.4867 F   0  0  0  0  0  0  0  0  0  0  0  0
  -21.5945    0.4457  -12.5436 F   0  0  0  0  0  0  0  0  0  0  0  0
  -11.1998   -2.3961  -11.6490 O   0  0  0  0  0  0  0  0  0  0  0  0
  -11.5631   -3.3424  -10.6944 C   0  0  0  0  0  0  0  0  0  0  0  0
  -11.6301   -4.6569  -11.1099 C   0  0  0  0  0  0  0  0  0  0  0  0
  -11.9948   -5.5708  -10.1432 C   0  0  0  0  0  0  0  0  0  0  0  0
  -12.2400   -5.2014   -8.8808 N   0  0  0  0  0  0  0  0  0  0  0  0
  -12.1652   -3.9032   -8.5878 C   0  0  0  0  0  0  0  0  0  0  0  0
  -11.8543   -2.9363   -9.4472 N   0  0  0  0  0  0  0  0  0  0  0  0
  -12.1165   -6.9274  -10.5007 N   0  0  0  0  0  0  0  0  0  0  0  0
  -12.9438   -7.3813  -11.5084 C   0  0  0  0  0  0  0  0  0  0  0  0
  -13.6828   -6.7226  -12.2291 O   0  0  0  0  0  0  0  0  0  0  0  0
  -11.5576   -7.5985   -9.9990 H   0  0  0  0  0  0  0  0  0  0  0  0
  -12.9151   -8.8661  -11.6831 C   0  0  0  0  0  0  0  0  0  0  0  0
  -11.6265   -9.5615  -12.0782 C   0  0  0  0  0  0  0  0  0  0  0  0
  -12.7393   -9.4289  -13.0756 C   0  0  0  0  0  0  0  0  0  0  0  0
  1  2  1  0  0  0
  2  3  1  0  0  0
  2  7  2  0  0  0
  3  4  2  0  0  0
  4 25  1  0  0  0
  4  5  1  0  0  0
 25 26  1  0  0  0
 26 27  1  0  0  0
 26 31  2  0  0  0
 27 28  2  0  0  0
 28 32  1  0  0  0
 28 29  1  0  0  0
 32 33  1  0  0  0
 32 35  1  0  0  0
 33 34  2  0  0  0
 33 36  1  0  0  0
 36 37  1  0  0  0
 36 38  1  0  0  0
 37 38  1  0  0  0
 29 30  2  0  0  0
 30 31  1  0  0  0
  5  6  2  0  0  0
  6  7  1  0  0  0
  7  8  1  0  0  0
  8  9  1  0  0  0
  8 12  1  0  0  0
  9 10  2  0  0  0
  9 11  1  0  0  0
 11 14  1  0  0  0
 11 13  1  0  0  0
 14 15  1  0  0  0
 14 19  2  0  0  0
 15 16  2  0  0  0
 16 17  1  0  0  0
 17 18  2  0  0  0
 18 20  1  0  0  0
 18 19  1  0  0  0
 20 21  1  0  0  0
 21 22  1  0  0  0
 21 23  1  0  0  0
 21 24  1  0  0  0
M  END
> <minimizedAffinity>
-9.71373

$$$$
