CHEMBL199016


 37 40  0  0  0  0  0  0  0  0999 V2000
  -15.7982    2.8584  -16.2534 C   0  0  0  0  0  0  0  0  0  0  0  0
  -16.9723    3.5036  -16.4090 N   0  0  0  0  0  0  0  0  0  0  0  0
  -17.9471    3.1953  -15.5536 C   0  0  0  0  0  0  0  0  0  0  0  0
  -17.8838    2.2674  -14.5988 N   0  0  0  0  0  0  0  0  0  0  0  0
  -16.7210    1.6311  -14.4504 C   0  0  0  0  0  0  0  0  0  0  0  0
  -16.6637    0.6582  -13.4641 C   0  0  0  0  0  0  0  0  0  0  0  0
  -15.4791    0.0048  -13.1380 C   0  0  0  0  0  0  0  0  0  0  0  0
  -14.3205    0.3038  -13.8577 C   0  0  0  0  0  0  0  0  0  0  0  0
  -14.3672    1.2108  -14.9240 C   0  0  0  0  0  0  0  0  0  0  0  0
  -15.5830    1.9027  -15.2293 C   0  0  0  0  0  0  0  0  0  0  0  0
  -14.7607    3.1487  -17.1739 N   0  0  0  0  0  0  0  0  0  0  0  0
  -14.7931    2.4881  -17.9456 H   0  0  0  0  0  0  0  0  0  0  0  0
  -14.6507    5.9869  -19.3350 C   0  0  0  0  0  0  0  0  0  0  0  0
  -13.7661    6.8367  -18.7967 N   0  0  0  0  0  0  0  0  0  0  0  0
  -13.1742    6.4238  -17.6670 C   0  0  0  0  0  0  0  0  0  0  0  0
  -13.4266    5.2043  -17.0599 C   0  0  0  0  0  0  0  0  0  0  0  0
  -12.4596    4.7603  -15.7090 Cl  0  0  0  0  0  0  0  0  0  0  0  0
  -14.3940    4.4124  -17.6682 C   0  0  0  0  0  0  0  0  0  0  0  0
  -14.9957    4.7888  -18.8263 N   0  0  0  0  0  0  0  0  0  0  0  0
  -15.5990    7.7245  -20.5515 C   0  0  0  0  0  0  0  0  0  0  0  0
  -15.2743    6.3363  -20.5117 O   0  0  0  0  0  0  0  0  0  0  0  0
  -15.5701   -0.8927  -12.0972 O   0  0  0  0  0  0  0  0  0  0  0  0
  -14.9692   -2.1614  -12.3693 C   0  0  0  0  0  0  0  0  0  0  0  0
  -15.9958   -3.2366  -12.7910 C   0  0  0  0  0  0  0  0  0  0  0  0
  -16.2569   -4.1819  -11.6859 N   0  0  0  0  0  0  0  0  0  0  0  0
  -15.1466   -4.3023  -10.7201 C   0  0  0  0  0  0  0  0  0  0  0  0
  -13.9453   -5.1187  -11.2197 C   0  0  0  0  0  0  0  0  0  0  0  0
  -14.3408   -6.4470  -11.6936 N   0  0  0  0  0  0  0  0  0  0  0  0
  -13.3842   -7.4483  -11.6325 C   0  0  0  0  0  0  0  0  0  0  0  0
  -13.7302   -8.8372  -12.1089 C   0  0  0  0  0  0  0  0  0  0  0  0
  -12.2675   -7.2484  -11.1312 O   0  0  0  0  0  0  0  0  0  0  0  0
  -15.5158   -6.4750  -12.5719 C   0  0  0  0  0  0  0  0  0  0  0  0
  -16.6515   -5.5274  -12.1250 C   0  0  0  0  0  0  0  0  0  0  0  0
  -13.2630    1.5214  -15.6850 O   0  0  0  0  0  0  0  0  0  0  0  0
  -12.5627    0.4904  -16.3946 C   0  0  0  0  0  0  0  0  0  0  0  0
  -13.4856   -0.2470  -17.3625 C   0  0  0  0  0  0  0  0  0  0  0  0
  -11.4617    1.1781  -17.2090 C   0  0  0  0  0  0  0  0  0  0  0  0
 20 21  1  0  0  0
 21 13  1  0  0  0
 13 14  1  0  0  0
 13 19  2  0  0  0
 14 15  2  0  0  0
 15 16  1  0  0  0
 16 17  1  0  0  0
 16 18  2  0  0  0
 18 11  1  0  0  0
 18 19  1  0  0  0
 11  1  1  0  0  0
 11 12  1  0  0  0
  1  2  1  0  0  0
  1 10  2  0  0  0
  2  3  2  0  0  0
  3  4  1  0  0  0
  4  5  2  0  0  0
  5  6  1  0  0  0
  5 10  1  0  0  0
  6  7  2  0  0  0
  7 22  1  0  0  0
  7  8  1  0  0  0
 22 23  1  0  0  0
 23 24  1  0  0  0
 24 25  1  0  0  0
 25 26  1  0  0  0
 25 33  1  0  0  0
 26 27  1  0  0  0
 27 28  1  0  0  0
 28 29  1  0  0  0
 28 32  1  0  0  0
 29 30  1  0  0  0
 29 31  2  0  0  0
 32 33  1  0  0  0
  8  9  2  0  0  0
  9 34  1  0  0  0
  9 10  1  0  0  0
 34 35  1  0  0  0
 35 36  1  0  0  0
 35 37  1  0  0  0
M  END
> <minimizedAffinity>
-7.19231

$$$$
