CHEMBL3690421


 33 36  0  0  0  0  0  0  0  0999 V2000
  -30.1564   -3.6579   -4.9490 C   0  0  0  0  0  0  0  0  0  0  0  0
  -30.9455   -3.3165   -3.8412 C   0  0  0  0  0  0  0  0  0  0  0  0
  -31.6793   -4.2791   -3.1592 C   0  0  0  0  0  0  0  0  0  0  0  0
  -31.6443   -5.6050   -3.5776 C   0  0  0  0  0  0  0  0  0  0  0  0
  -30.9042   -5.9850   -4.7002 C   0  0  0  0  0  0  0  0  0  0  0  0
  -30.1568   -5.0033   -5.3780 C   0  0  0  0  0  0  0  0  0  0  0  0
  -27.3694   -2.0805   -9.2092 C   0  0  0  0  0  0  0  0  0  0  0  0
  -27.8757   -3.4302   -8.9005 C   0  0  0  0  0  0  0  0  0  0  0  0
  -28.5395   -3.6664   -7.7551 C   0  0  0  0  0  0  0  0  0  0  0  0
  -28.7636   -2.6205   -6.8585 N   0  0  0  0  0  0  0  0  0  0  0  0
  -29.4464   -2.5736   -5.6469 C   0  0  0  0  0  0  0  0  0  0  0  0
  -29.2529   -1.2664   -5.2134 C   0  0  0  0  0  0  0  0  0  0  0  0
  -28.5315   -0.5199   -6.0967 N   0  0  0  0  0  0  0  0  0  0  0  0
  -28.2594   -1.3394   -7.0846 C   0  0  0  0  0  0  0  0  0  0  0  0
  -27.5543   -1.0980   -8.2958 C   0  0  0  0  0  0  0  0  0  0  0  0
  -24.6681   -0.9880  -14.0978 C   0  0  0  0  0  0  0  0  0  0  0  0
  -25.3876   -1.2467  -12.8211 C   0  0  0  0  0  0  0  0  0  0  0  0
  -26.7346   -1.5238  -12.7674 C   0  0  0  0  0  0  0  0  0  0  0  0
  -27.3982   -1.7772  -11.6253 N   0  0  0  0  0  0  0  0  0  0  0  0
  -26.6785   -1.7550  -10.4868 C   0  0  0  0  0  0  0  0  0  0  0  0
  -25.3595   -1.4859  -10.4274 N   0  0  0  0  0  0  0  0  0  0  0  0
  -24.7464   -1.2389  -11.5983 C   0  0  0  0  0  0  0  0  0  0  0  0
  -30.8865   -7.3226   -5.1773 N   0  0  0  0  0  0  0  0  0  0  0  0
  -31.0446   -7.7166   -6.4900 C   0  0  0  0  0  0  0  0  0  0  0  0
  -31.1871   -6.9926   -7.4675 O   0  0  0  0  0  0  0  0  0  0  0  0
  -31.0782   -9.0846   -6.6389 N   0  0  0  0  0  0  0  0  0  0  0  0
  -30.7077   -8.0460   -4.4980 H   0  0  0  0  0  0  0  0  0  0  0  0
  -30.5597   -9.6375   -5.9733 H   0  0  0  0  0  0  0  0  0  0  0  0
  -31.2005   -9.6166   -8.0051 C   0  0  0  0  0  0  0  0  0  0  0  0
  -29.8817   -9.9060   -8.7420 C   0  0  0  0  0  0  0  0  0  0  0  0
  -29.3377   -8.7881   -9.2755 F   0  0  0  0  0  0  0  0  0  0  0  0
  -28.9695  -10.4029   -7.8674 F   0  0  0  0  0  0  0  0  0  0  0  0
  -30.0276  -10.8178   -9.7253 F   0  0  0  0  0  0  0  0  0  0  0  0
 16 17  1  0  0  0
 17 18  1  0  0  0
 17 22  2  0  0  0
 18 19  2  0  0  0
 19 20  1  0  0  0
 20  7  1  0  0  0
 20 21  2  0  0  0
  7  8  1  0  0  0
  7 15  2  0  0  0
  8  9  2  0  0  0
  9 10  1  0  0  0
 10 11  1  0  0  0
 10 14  1  0  0  0
 11  1  1  0  0  0
 11 12  2  0  0  0
  1  2  1  0  0  0
  1  6  2  0  0  0
  2  3  2  0  0  0
  3  4  1  0  0  0
  4  5  2  0  0  0
  5 23  1  0  0  0
  5  6  1  0  0  0
 23 24  1  0  0  0
 23 27  1  0  0  0
 24 25  2  0  0  0
 24 26  1  0  0  0
 26 29  1  0  0  0
 26 28  1  0  0  0
 29 30  1  0  0  0
 30 31  1  0  0  0
 30 32  1  0  0  0
 30 33  1  0  0  0
 12 13  1  0  0  0
 13 14  2  0  0  0
 14 15  1  0  0  0
 21 22  1  0  0  0
M  END
> <minimizedAffinity>
-10.24263

$$$$
