CHEMBL2005528


 21 23  0  0  0  0  0  0  0  0999 V2000
  -21.6455    1.2927  -14.1894 C   0  0  0  0  0  0  0  0  0  0  0  0
  -22.0182    2.6440  -14.2085 C   0  0  0  0  0  0  0  0  0  0  0  0
  -21.1178    3.6376  -14.6144 C   0  0  0  0  0  0  0  0  0  0  0  0
  -19.8312    3.2313  -14.9798 C   0  0  0  0  0  0  0  0  0  0  0  0
  -18.7450    3.9781  -15.3856 N   0  0  0  0  0  0  0  0  0  0  0  0
  -17.6572    3.1650  -15.5504 C   0  0  0  0  0  0  0  0  0  0  0  0
  -18.0672    1.8627  -15.3537 C   0  0  0  0  0  0  0  0  0  0  0  0
  -19.4283    1.8929  -14.9629 C   0  0  0  0  0  0  0  0  0  0  0  0
  -20.3508    0.9100  -14.5684 C   0  0  0  0  0  0  0  0  0  0  0  0
  -17.1141    0.7226  -15.4467 C   0  0  0  0  0  0  0  0  0  0  0  0
  -15.8164    1.1615  -16.1534 C   0  0  0  0  0  0  0  0  0  0  0  0
  -15.4080    2.5397  -15.8857 N   0  0  0  0  0  0  0  0  0  0  0  0
  -16.3084    3.5807  -15.8197 C   0  0  0  0  0  0  0  0  0  0  0  0
  -15.9490    4.7471  -15.9449 O   0  0  0  0  0  0  0  0  0  0  0  0
  -18.7221    4.9858  -15.4760 H   0  0  0  0  0  0  0  0  0  0  0  0
  -14.4718    2.8313  -16.1337 H   0  0  0  0  0  0  0  0  0  0  0  0
  -22.5979    0.2078  -13.8482 C   0  0  0  0  0  0  0  0  0  0  0  0
  -23.4957   -0.1629  -14.5897 O   0  0  0  0  0  0  0  0  0  0  0  0
  -22.4103   -0.1853  -12.5633 O   0  0  0  0  0  0  0  0  0  0  0  0
  -23.4649   -2.1810  -11.8182 C   0  0  0  0  0  0  0  0  0  0  0  0
  -23.5850   -0.6715  -11.9062 C   0  0  0  0  0  0  0  0  0  0  0  0
 20 21  1  0  0  0
 21 19  1  0  0  0
 19 17  1  0  0  0
 17 18  2  0  0  0
 17  1  1  0  0  0
  1  2  1  0  0  0
  1  9  2  0  0  0
  2  3  2  0  0  0
  3  4  1  0  0  0
  4  5  1  0  0  0
  4  8  2  0  0  0
  5  6  1  0  0  0
  5 15  1  0  0  0
  6  7  2  0  0  0
  6 13  1  0  0  0
  7  8  1  0  0  0
  7 10  1  0  0  0
  8  9  1  0  0  0
 10 11  1  0  0  0
 11 12  1  0  0  0
 12 13  1  0  0  0
 12 16  1  0  0  0
 13 14  2  0  0  0
M  END
> <minimizedAffinity>
-8.29221

$$$$
