CHEMBL4797072


 37 41  0  0  0  0  0  0  0  0999 V2000
  -28.5278   -7.9271   -4.5177 C   0  0  0  0  0  0  0  0  0  0  0  0
  -29.4548   -8.4668   -5.3199 N   0  0  0  0  0  0  0  0  0  0  0  0
  -30.1203   -7.5982   -6.1059 C   0  0  0  0  0  0  0  0  0  0  0  0
  -29.8920   -6.2368   -6.0837 C   0  0  0  0  0  0  0  0  0  0  0  0
  -28.9146   -5.7679   -5.2300 C   0  0  0  0  0  0  0  0  0  0  0  0
  -28.2600   -6.6158   -4.4139 N   0  0  0  0  0  0  0  0  0  0  0  0
  -25.9723  -10.1292   -3.2842 N   0  0  0  0  0  0  0  0  0  0  0  0
  -26.6756   -9.3623   -4.2098 C   0  0  0  0  0  0  0  0  0  0  0  0
  -26.3510   -9.1370   -5.3671 O   0  0  0  0  0  0  0  0  0  0  0  0
  -27.7965   -8.7636   -3.6505 N   0  0  0  0  0  0  0  0  0  0  0  0
  -26.3914  -10.1592   -2.3653 H   0  0  0  0  0  0  0  0  0  0  0  0
  -27.5239   -8.2242   -2.8440 H   0  0  0  0  0  0  0  0  0  0  0  0
  -21.9774  -10.8375   -6.1355 C   0  0  0  0  0  0  0  0  0  0  0  0
  -22.7581  -11.1596   -4.8931 C   0  0  0  0  0  0  0  0  0  0  0  0
  -22.2794  -12.1371   -4.0329 C   0  0  0  0  0  0  0  0  0  0  0  0
  -22.9872  -12.4492   -2.8818 C   0  0  0  0  0  0  0  0  0  0  0  0
  -24.1990  -11.8036   -2.5446 C   0  0  0  0  0  0  0  0  0  0  0  0
  -24.7816  -12.2265   -1.2320 C   0  0  0  0  0  0  0  0  0  0  0  0
  -24.7358  -10.8379   -3.4228 C   0  0  0  0  0  0  0  0  0  0  0  0
  -23.9761  -10.5139   -4.5841 C   0  0  0  0  0  0  0  0  0  0  0  0
  -28.5713   -4.4326   -5.2001 N   0  0  0  0  0  0  0  0  0  0  0  0
  -27.8867   -3.8855   -4.0316 C   0  0  0  0  0  0  0  0  0  0  0  0
  -28.6858   -2.7161   -3.4618 C   0  0  0  0  0  0  0  0  0  0  0  0
  -29.0150   -1.6834   -4.5408 C   0  0  0  0  0  0  0  0  0  0  0  0
  -29.6796   -2.3390   -5.7512 C   0  0  0  0  0  0  0  0  0  0  0  0
  -28.8503   -3.5073   -6.2899 C   0  0  0  0  0  0  0  0  0  0  0  0
  -31.4256   -8.2255   -7.1637 S   0  0  0  0  0  0  0  0  0  0  0  0
  -30.6767   -9.4812   -8.1304 C   0  0  0  0  0  0  0  0  0  0  0  0
  -31.1937  -10.7145   -8.4446 C   0  0  0  0  0  0  0  0  0  0  0  0
  -30.2985  -11.3584   -9.2555 N   0  0  0  0  0  0  0  0  0  0  0  0
  -29.1891  -10.5713   -9.4636 C   0  0  0  0  0  0  0  0  0  0  0  0
  -28.0410  -10.8221  -10.2268 C   0  0  0  0  0  0  0  0  0  0  0  0
  -27.0549   -9.8345  -10.2628 C   0  0  0  0  0  0  0  0  0  0  0  0
  -27.2085   -8.6438   -9.5575 C   0  0  0  0  0  0  0  0  0  0  0  0
  -28.3672   -8.4066   -8.8011 C   0  0  0  0  0  0  0  0  0  0  0  0
  -29.3885   -9.3830   -8.7530 C   0  0  0  0  0  0  0  0  0  0  0  0
  -30.4356  -12.2761   -9.6553 H   0  0  0  0  0  0  0  0  0  0  0  0
 13 14  1  0  0  0
 14 15  1  0  0  0
 14 20  2  0  0  0
 15 16  2  0  0  0
 16 17  1  0  0  0
 17 18  1  0  0  0
 17 19  2  0  0  0
 19  7  1  0  0  0
 19 20  1  0  0  0
  7  8  1  0  0  0
  7 11  1  0  0  0
  8  9  2  0  0  0
  8 10  1  0  0  0
 10  1  1  0  0  0
 10 12  1  0  0  0
  1  2  1  0  0  0
  1  6  2  0  0  0
  2  3  2  0  0  0
  3 27  1  0  0  0
  3  4  1  0  0  0
 27 28  1  0  0  0
 28 29  2  0  0  0
 28 36  1  0  0  0
 29 30  1  0  0  0
 30 31  1  0  0  0
 30 37  1  0  0  0
 31 32  1  0  0  0
 31 36  2  0  0  0
 32 33  2  0  0  0
 33 34  1  0  0  0
 34 35  2  0  0  0
 35 36  1  0  0  0
  4  5  2  0  0  0
  5 21  1  0  0  0
  5  6  1  0  0  0
 21 22  1  0  0  0
 21 26  1  0  0  0
 22 23  1  0  0  0
 23 24  1  0  0  0
 24 25  1  0  0  0
 25 26  1  0  0  0
M  END
> <minimizedAffinity>
-9.86416

$$$$
