CHEMBL238521


 26 28  0  0  0  0  0  0  0  0999 V2000
  -12.4942    0.8701  -13.4731 C   0  0  0  0  0  0  0  0  0  0  0  0
  -12.9527   -0.4639  -13.7764 N   0  0  0  0  0  0  0  0  0  0  0  0
  -12.1471   -1.5577  -13.9266 C   0  0  0  0  0  0  0  0  0  0  0  0
  -12.8509   -2.6519  -14.1095 N   0  0  0  0  0  0  0  0  0  0  0  0
  -14.1477   -2.2377  -14.1160 C   0  0  0  0  0  0  0  0  0  0  0  0
  -14.2624   -0.8834  -13.8740 C   0  0  0  0  0  0  0  0  0  0  0  0
  -15.4308   -0.0502  -13.7174 C   0  0  0  0  0  0  0  0  0  0  0  0
  -15.8247    0.3035  -12.6116 O   0  0  0  0  0  0  0  0  0  0  0  0
  -16.0827    0.2120  -14.9128 N   0  0  0  0  0  0  0  0  0  0  0  0
  -15.7762   -0.3443  -15.7038 H   0  0  0  0  0  0  0  0  0  0  0  0
  -17.2281    1.0092  -15.0925 C   0  0  0  0  0  0  0  0  0  0  0  0
  -17.1647    2.3819  -15.3410 C   0  0  0  0  0  0  0  0  0  0  0  0
  -18.3343    3.1376  -15.4592 C   0  0  0  0  0  0  0  0  0  0  0  0
  -19.5740    2.5199  -15.3315 C   0  0  0  0  0  0  0  0  0  0  0  0
  -21.0104    3.4613  -15.4184 Cl  0  0  0  0  0  0  0  0  0  0  0  0
  -19.6541    1.1447  -15.1260 C   0  0  0  0  0  0  0  0  0  0  0  0
  -18.4816    0.3871  -15.0216 C   0  0  0  0  0  0  0  0  0  0  0  0
  -15.1656   -3.0856  -14.3380 N   0  0  0  0  0  0  0  0  0  0  0  0
  -15.2507   -3.6070  -15.2043 H   0  0  0  0  0  0  0  0  0  0  0  0
  -16.1897   -3.3412  -13.3482 C   0  0  0  0  0  0  0  0  0  0  0  0
  -15.5990   -3.7225  -12.0162 C   0  0  0  0  0  0  0  0  0  0  0  0
  -15.6695   -2.8434  -10.9316 C   0  0  0  0  0  0  0  0  0  0  0  0
  -15.1861   -3.2615   -9.7020 C   0  0  0  0  0  0  0  0  0  0  0  0
  -14.6426   -4.4783   -9.4813 N   0  0  0  0  0  0  0  0  0  0  0  0
  -14.5772   -5.3111  -10.5406 C   0  0  0  0  0  0  0  0  0  0  0  0
  -15.0325   -4.9848  -11.8095 C   0  0  0  0  0  0  0  0  0  0  0  0
  1  2  1  0  0  0
  2  3  1  0  0  0
  2  6  1  0  0  0
  3  4  2  0  0  0
  4  5  1  0  0  0
  5 18  1  0  0  0
  5  6  2  0  0  0
 18 20  1  0  0  0
 18 19  1  0  0  0
 20 21  1  0  0  0
 21 22  1  0  0  0
 21 26  2  0  0  0
 22 23  2  0  0  0
 23 24  1  0  0  0
 24 25  2  0  0  0
 25 26  1  0  0  0
  6  7  1  0  0  0
  7  8  2  0  0  0
  7  9  1  0  0  0
  9 11  1  0  0  0
  9 10  1  0  0  0
 11 12  1  0  0  0
 11 17  2  0  0  0
 12 13  2  0  0  0
 13 14  1  0  0  0
 14 15  1  0  0  0
 14 16  2  0  0  0
 16 17  1  0  0  0
M  END
> <minimizedAffinity>
-7.74744

$$$$
