CHEMBL3941533


 35 38  0  0  0  0  0  0  0  0999 V2000
  -14.7682   -1.2446  -13.8413 C   0  0  0  0  0  0  0  0  0  0  0  0
  -15.3927   -1.9732  -12.8208 C   0  0  0  0  0  0  0  0  0  0  0  0
  -14.6463   -2.7730  -11.9432 C   0  0  0  0  0  0  0  0  0  0  0  0
  -13.2577   -2.8534  -12.0715 C   0  0  0  0  0  0  0  0  0  0  0  0
  -12.6343   -1.9944  -13.0075 C   0  0  0  0  0  0  0  0  0  0  0  0
  -13.3824   -1.2410  -13.9225 C   0  0  0  0  0  0  0  0  0  0  0  0
  -12.5110   -4.0540  -11.5189 C   0  0  0  0  0  0  0  0  0  0  0  0
  -11.8216   -4.8193  -12.4857 N   0  0  0  0  0  0  0  0  0  0  0  0
  -12.7893   -5.6764  -12.9956 C   0  0  0  0  0  0  0  0  0  0  0  0
  -13.0191   -6.1721  -14.2777 C   0  0  0  0  0  0  0  0  0  0  0  0
  -14.1559   -6.9709  -14.4351 C   0  0  0  0  0  0  0  0  0  0  0  0
  -14.9574   -7.3216  -13.3452 C   0  0  0  0  0  0  0  0  0  0  0  0
  -14.6651   -6.8593  -12.0580 C   0  0  0  0  0  0  0  0  0  0  0  0
  -13.6021   -5.9556  -11.9010 C   0  0  0  0  0  0  0  0  0  0  0  0
  -13.0983   -5.1482  -10.8273 C   0  0  0  0  0  0  0  0  0  0  0  0
  -11.1074   -4.4247  -13.0768 H   0  0  0  0  0  0  0  0  0  0  0  0
  -13.3890   -5.3573   -9.4176 C   0  0  0  0  0  0  0  0  0  0  0  0
  -12.3663   -5.7827   -8.6235 N   0  0  0  0  0  0  0  0  0  0  0  0
  -14.5162   -5.2462   -8.9407 O   0  0  0  0  0  0  0  0  0  0  0  0
  -11.4508   -5.9956   -8.9734 H   0  0  0  0  0  0  0  0  0  0  0  0
  -12.6368   -6.0883   -7.6928 H   0  0  0  0  0  0  0  0  0  0  0  0
  -17.3914    0.7223  -15.3692 N   0  0  0  0  0  0  0  0  0  0  0  0
  -16.5681    0.2797  -14.3453 C   0  0  0  0  0  0  0  0  0  0  0  0
  -16.6648    0.6046  -13.1700 O   0  0  0  0  0  0  0  0  0  0  0  0
  -15.5394   -0.5387  -14.7985 N   0  0  0  0  0  0  0  0  0  0  0  0
  -17.0552    0.6195  -16.3159 H   0  0  0  0  0  0  0  0  0  0  0  0
  -15.0479   -0.1941  -15.6103 H   0  0  0  0  0  0  0  0  0  0  0  0
  -22.1755    0.9585  -14.0945 C   0  0  0  0  0  0  0  0  0  0  0  0
  -20.9190    1.6287  -14.5706 C   0  0  0  0  0  0  0  0  0  0  0  0
  -20.9391    2.9926  -14.8874 C   0  0  0  0  0  0  0  0  0  0  0  0
  -19.7698    3.6315  -15.2800 C   0  0  0  0  0  0  0  0  0  0  0  0
  -18.5848    2.9116  -15.3846 C   0  0  0  0  0  0  0  0  0  0  0  0
  -17.4773    3.6266  -15.6129 F   0  0  0  0  0  0  0  0  0  0  0  0
  -18.5456    1.5259  -15.1608 C   0  0  0  0  0  0  0  0  0  0  0  0
  -19.7186    0.9010  -14.7069 C   0  0  0  0  0  0  0  0  0  0  0  0
 28 29  1  0  0  0
 29 30  1  0  0  0
 29 35  2  0  0  0
 30 31  2  0  0  0
 31 32  1  0  0  0
 32 33  1  0  0  0
 32 34  2  0  0  0
 34 22  1  0  0  0
 34 35  1  0  0  0
 22 23  1  0  0  0
 22 26  1  0  0  0
 23 24  2  0  0  0
 23 25  1  0  0  0
 25  1  1  0  0  0
 25 27  1  0  0  0
  1  2  1  0  0  0
  1  6  2  0  0  0
  2  3  2  0  0  0
  3  4  1  0  0  0
  4  7  1  0  0  0
  4  5  2  0  0  0
  7  8  1  0  0  0
  7 15  2  0  0  0
  8  9  1  0  0  0
  8 16  1  0  0  0
  9 10  1  0  0  0
  9 14  2  0  0  0
 10 11  2  0  0  0
 11 12  1  0  0  0
 12 13  2  0  0  0
 13 14  1  0  0  0
 14 15  1  0  0  0
 15 17  1  0  0  0
 17 18  1  0  0  0
 17 19  2  0  0  0
 18 20  1  0  0  0
 18 21  1  0  0  0
  5  6  1  0  0  0
M  END
> <minimizedAffinity>
-9.50828

$$$$
