CHEMBL256195


 41 45  0  0  0  0  0  0  0  0999 V2000
  -27.9652   -9.3135   -7.8289 C   0  0  0  0  0  0  0  0  0  0  0  0
  -27.1533   -9.9126   -6.9030 C   0  0  0  0  0  0  0  0  0  0  0  0
  -27.5195   -9.4673   -5.6713 N   0  0  0  0  0  0  0  0  0  0  0  0
  -26.8893   -9.8290   -4.5471 N   0  0  0  0  0  0  0  0  0  0  0  0
  -27.4202   -9.3575   -3.4753 C   0  0  0  0  0  0  0  0  0  0  0  0
  -28.5344   -8.5737   -3.4053 N   0  0  0  0  0  0  0  0  0  0  0  0
  -29.1597   -8.2058   -4.4904 C   0  0  0  0  0  0  0  0  0  0  0  0
  -28.6111   -8.6350   -5.7625 C   0  0  0  0  0  0  0  0  0  0  0  0
  -28.9177   -8.4707   -7.1234 C   0  0  0  0  0  0  0  0  0  0  0  0
  -27.1813   -9.4742  -11.3104 C   0  0  0  0  0  0  0  0  0  0  0  0
  -28.2462  -10.2325  -11.3201 N   0  0  0  0  0  0  0  0  0  0  0  0
  -28.6476  -10.3111  -10.0098 N   0  0  0  0  0  0  0  0  0  0  0  0
  -27.8215   -9.5601   -9.2974 C   0  0  0  0  0  0  0  0  0  0  0  0
  -26.8306   -9.0104  -10.0803 O   0  0  0  0  0  0  0  0  0  0  0  0
  -26.4585   -9.0425  -12.3345 O   0  0  0  0  0  0  0  0  0  0  0  0
  -27.1947   -9.0226  -13.5613 C   0  0  0  0  0  0  0  0  0  0  0  0
  -26.9624   -9.0702  -16.0905 C   0  0  0  0  0  0  0  0  0  0  0  0
  -26.2630   -9.3127  -14.7540 C   0  0  0  0  0  0  0  0  0  0  0  0
  -25.0420   -8.4997  -14.6799 N   0  0  0  0  0  0  0  0  0  0  0  0
  -25.2947   -7.5115  -14.7318 H   0  0  0  0  0  0  0  0  0  0  0  0
  -24.4555   -8.6847  -15.4928 H   0  0  0  0  0  0  0  0  0  0  0  0
  -30.0129   -7.7145   -7.8644 C   0  0  0  0  0  0  0  0  0  0  0  0
  -31.3947   -8.2909   -7.5437 C   0  0  0  0  0  0  0  0  0  0  0  0
  -30.0396   -6.1966   -7.7689 C   0  0  0  0  0  0  0  0  0  0  0  0
  -30.2970   -7.4348   -4.3519 N   0  0  0  0  0  0  0  0  0  0  0  0
  -31.0501   -7.7376   -4.9620 H   0  0  0  0  0  0  0  0  0  0  0  0
  -30.2672   -6.0188   -4.2401 C   0  0  0  0  0  0  0  0  0  0  0  0
  -29.2990   -5.2403   -4.8967 C   0  0  0  0  0  0  0  0  0  0  0  0
  -29.2601   -3.8401   -4.7548 C   0  0  0  0  0  0  0  0  0  0  0  0
  -30.1928   -3.2290   -3.9155 C   0  0  0  0  0  0  0  0  0  0  0  0
  -30.1898   -1.8998   -3.7307 F   0  0  0  0  0  0  0  0  0  0  0  0
  -31.1546   -3.9787   -3.2430 C   0  0  0  0  0  0  0  0  0  0  0  0
  -31.1812   -5.3600   -3.4082 C   0  0  0  0  0  0  0  0  0  0  0  0
  -32.1204   -6.0742   -2.7695 F   0  0  0  0  0  0  0  0  0  0  0  0
  -28.2282   -3.0826   -5.5212 C   0  0  0  0  0  0  0  0  0  0  0  0
  -27.2047   -2.7157   -4.9486 O   0  0  0  0  0  0  0  0  0  0  0  0
  -28.4701   -2.8308   -6.8593 N   0  0  0  0  0  0  0  0  0  0  0  0
  -29.3274   -3.1665   -7.2868 H   0  0  0  0  0  0  0  0  0  0  0  0
  -27.5214   -2.1488   -7.6869 C   0  0  0  0  0  0  0  0  0  0  0  0
  -27.9414   -1.0673   -8.6439 C   0  0  0  0  0  0  0  0  0  0  0  0
  -27.4975   -2.3995   -9.1692 C   0  0  0  0  0  0  0  0  0  0  0  0
 17 18  1  0  0  0
 18 19  1  0  0  0
 18 16  1  0  0  0
 19 20  1  0  0  0
 19 21  1  0  0  0
 16 15  1  0  0  0
 15 10  1  0  0  0
 10 11  2  0  0  0
 10 14  1  0  0  0
 11 12  1  0  0  0
 12 13  2  0  0  0
 13  1  1  0  0  0
 13 14  1  0  0  0
  1  2  2  0  0  0
  1  9  1  0  0  0
  2  3  1  0  0  0
  3  4  1  0  0  0
  3  8  1  0  0  0
  4  5  2  0  0  0
  5  6  1  0  0  0
  6  7  2  0  0  0
  7 25  1  0  0  0
  7  8  1  0  0  0
 25 27  1  0  0  0
 25 26  1  0  0  0
 27 28  1  0  0  0
 27 33  2  0  0  0
 28 29  2  0  0  0
 29 35  1  0  0  0
 29 30  1  0  0  0
 35 36  2  0  0  0
 35 37  1  0  0  0
 37 39  1  0  0  0
 37 38  1  0  0  0
 39 40  1  0  0  0
 39 41  1  0  0  0
 40 41  1  0  0  0
 30 31  1  0  0  0
 30 32  2  0  0  0
 32 33  1  0  0  0
 33 34  1  0  0  0
  8  9  2  0  0  0
  9 22  1  0  0  0
 22 23  1  0  0  0
 22 24  1  0  0  0
M  END
> <minimizedAffinity>
-8.12246

$$$$
