CHEMBL395695


 28 32  0  0  0  0  0  0  0  0999 V2000
  -16.6445    1.2148  -15.0693 C   0  0  0  0  0  0  0  0  0  0  0  0
  -15.8140    2.1902  -15.6491 C   0  0  0  0  0  0  0  0  0  0  0  0
  -16.3006    3.4515  -16.0510 C   0  0  0  0  0  0  0  0  0  0  0  0
  -17.6409    3.7802  -15.8885 C   0  0  0  0  0  0  0  0  0  0  0  0
  -18.4545    2.8135  -15.3440 C   0  0  0  0  0  0  0  0  0  0  0  0
  -17.9943    1.5253  -14.9391 C   0  0  0  0  0  0  0  0  0  0  0  0
  -19.1232    0.6599  -14.3488 C   0  0  0  0  0  0  0  0  0  0  0  0
  -20.2372    1.6431  -14.4753 C   0  0  0  0  0  0  0  0  0  0  0  0
  -19.8414    2.8581  -15.0460 C   0  0  0  0  0  0  0  0  0  0  0  0
  -20.8139    3.7487  -15.1697 N   0  0  0  0  0  0  0  0  0  0  0  0
  -21.8747    3.0698  -14.6644 N   0  0  0  0  0  0  0  0  0  0  0  0
  -21.5785    1.7914  -14.2311 C   0  0  0  0  0  0  0  0  0  0  0  0
  -22.7715    3.5404  -14.6400 H   0  0  0  0  0  0  0  0  0  0  0  0
  -22.5365    0.8213  -13.6397 C   0  0  0  0  0  0  0  0  0  0  0  0
  -22.5701   -0.5780  -13.9138 C   0  0  0  0  0  0  0  0  0  0  0  0
  -23.5732   -1.2226  -13.2231 C   0  0  0  0  0  0  0  0  0  0  0  0
  -24.4754   -0.1477  -12.2475 S   0  0  0  0  0  0  0  0  0  0  0  0
  -23.5189    1.1855  -12.7420 C   0  0  0  0  0  0  0  0  0  0  0  0
  -15.5558   -0.2932  -13.4012 C   0  0  0  0  0  0  0  0  0  0  0  0
  -15.3819    0.5192  -12.4963 O   0  0  0  0  0  0  0  0  0  0  0  0
  -16.1552   -0.0319  -14.6257 N   0  0  0  0  0  0  0  0  0  0  0  0
  -16.3225   -0.8525  -15.1997 H   0  0  0  0  0  0  0  0  0  0  0  0
  -15.2689   -5.3631  -13.3227 C   0  0  0  0  0  0  0  0  0  0  0  0
  -15.1246   -3.8999  -13.2243 C   0  0  0  0  0  0  0  0  0  0  0  0
  -15.9083   -2.8378  -13.5919 C   0  0  0  0  0  0  0  0  0  0  0  0
  -15.1603   -1.6918  -13.2170 C   0  0  0  0  0  0  0  0  0  0  0  0
  -13.9895   -2.0467  -12.6571 N   0  0  0  0  0  0  0  0  0  0  0  0
  -13.9787   -3.4339  -12.6585 O   0  0  0  0  0  0  0  0  0  0  0  0
 23 24  1  0  0  0
 24 25  2  0  0  0
 24 28  1  0  0  0
 25 26  1  0  0  0
 26 19  1  0  0  0
 26 27  2  0  0  0
 19 20  2  0  0  0
 19 21  1  0  0  0
 21  1  1  0  0  0
 21 22  1  0  0  0
  1  2  1  0  0  0
  1  6  2  0  0  0
  2  3  2  0  0  0
  3  4  1  0  0  0
  4  5  2  0  0  0
  5  6  1  0  0  0
  5  9  1  0  0  0
  6  7  1  0  0  0
  7  8  1  0  0  0
  8  9  1  0  0  0
  8 12  2  0  0  0
  9 10  2  0  0  0
 10 11  1  0  0  0
 11 12  1  0  0  0
 11 13  1  0  0  0
 12 14  1  0  0  0
 14 15  1  0  0  0
 14 18  2  0  0  0
 15 16  2  0  0  0
 16 17  1  0  0  0
 17 18  1  0  0  0
 27 28  1  0  0  0
M  END
> <minimizedAffinity>
-9.89956

$$$$
