CHEMBL3287219


 30 33  0  0  0  0  0  0  0  0999 V2000
  -28.2851   -2.9005   -6.4965 C   0  0  0  0  0  0  0  0  0  0  0  0
  -28.6237   -1.7888   -5.7715 N   0  0  0  0  0  0  0  0  0  0  0  0
  -28.6104   -0.5348   -6.3301 C   0  0  0  0  0  0  0  0  0  0  0  0
  -28.9357    0.6562   -5.4877 C   0  0  0  0  0  0  0  0  0  0  0  0
  -28.2738   -0.3677   -7.6448 N   0  0  0  0  0  0  0  0  0  0  0  0
  -27.9467   -1.4669   -8.3693 C   0  0  0  0  0  0  0  0  0  0  0  0
  -27.5957   -1.5885   -9.6979 C   0  0  0  0  0  0  0  0  0  0  0  0
  -27.3739   -2.9481   -9.9000 C   0  0  0  0  0  0  0  0  0  0  0  0
  -27.5775   -3.6299   -8.7497 N   0  0  0  0  0  0  0  0  0  0  0  0
  -27.9316   -2.7138   -7.8289 C   0  0  0  0  0  0  0  0  0  0  0  0
  -27.4887   -4.6623   -8.6248 H   0  0  0  0  0  0  0  0  0  0  0  0
  -28.2501   -4.1941   -5.9068 N   0  0  0  0  0  0  0  0  0  0  0  0
  -27.4076   -4.4425   -5.3815 H   0  0  0  0  0  0  0  0  0  0  0  0
  -30.8486   -7.4827   -6.6202 C   0  0  0  0  0  0  0  0  0  0  0  0
  -29.8583   -7.1268   -7.5468 C   0  0  0  0  0  0  0  0  0  0  0  0
  -29.0484   -6.0174   -7.3204 C   0  0  0  0  0  0  0  0  0  0  0  0
  -29.1927   -5.2335   -6.1586 C   0  0  0  0  0  0  0  0  0  0  0  0
  -30.2219   -5.5706   -5.2254 C   0  0  0  0  0  0  0  0  0  0  0  0
  -31.0269   -6.6919   -5.4816 C   0  0  0  0  0  0  0  0  0  0  0  0
  -32.9681   -8.5497   -7.1703 C   0  0  0  0  0  0  0  0  0  0  0  0
  -31.6426   -8.5734   -6.7843 O   0  0  0  0  0  0  0  0  0  0  0  0
  -30.5360   -4.8641   -4.0993 O   0  0  0  0  0  0  0  0  0  0  0  0
  -31.7690   -4.5493   -3.5650 C   0  0  0  0  0  0  0  0  0  0  0  0
  -27.4767   -0.5122  -10.7334 C   0  0  0  0  0  0  0  0  0  0  0  0
  -26.4313   -0.8538  -11.7647 C   0  0  0  0  0  0  0  0  0  0  0  0
  -26.7963   -1.5030  -12.9575 C   0  0  0  0  0  0  0  0  0  0  0  0
  -25.8334   -1.8018  -13.9243 C   0  0  0  0  0  0  0  0  0  0  0  0
  -24.4967   -1.4575  -13.7124 C   0  0  0  0  0  0  0  0  0  0  0  0
  -24.1202   -0.8138  -12.5305 C   0  0  0  0  0  0  0  0  0  0  0  0
  -25.0821   -0.5100  -11.5583 C   0  0  0  0  0  0  0  0  0  0  0  0
 20 21  1  0  0  0
 21 14  1  0  0  0
 14 15  1  0  0  0
 14 19  2  0  0  0
 15 16  2  0  0  0
 16 17  1  0  0  0
 17 12  1  0  0  0
 17 18  2  0  0  0
 12  1  1  0  0  0
 12 13  1  0  0  0
  1  2  1  0  0  0
  1 10  2  0  0  0
  2  3  2  0  0  0
  3  4  1  0  0  0
  3  5  1  0  0  0
  5  6  2  0  0  0
  6  7  1  0  0  0
  6 10  1  0  0  0
  7 24  1  0  0  0
  7  8  2  0  0  0
 24 25  1  0  0  0
 25 26  1  0  0  0
 25 30  2  0  0  0
 26 27  2  0  0  0
 27 28  1  0  0  0
 28 29  2  0  0  0
 29 30  1  0  0  0
  8  9  1  0  0  0
  9 10  1  0  0  0
  9 11  1  0  0  0
 18 22  1  0  0  0
 18 19  1  0  0  0
 22 23  1  0  0  0
M  END
> <minimizedAffinity>
-8.36148

$$$$
