CHEMBL495735


 41 46  0  0  0  0  0  0  0  0999 V2000
  -14.8074   -1.2509  -13.6566 C   0  0  0  0  0  0  0  0  0  0  0  0
  -14.4587   -2.4159  -14.2599 C   0  0  0  0  0  0  0  0  0  0  0  0
  -13.7046   -2.5100  -15.4338 N   0  0  0  0  0  0  0  0  0  0  0  0
  -14.9236   -3.7010  -13.6671 C   0  0  0  0  0  0  0  0  0  0  0  0
  -14.6660   -4.9489  -14.2587 C   0  0  0  0  0  0  0  0  0  0  0  0
  -15.1638   -6.1505  -13.7282 C   0  0  0  0  0  0  0  0  0  0  0  0
  -15.9558   -6.0787  -12.5800 C   0  0  0  0  0  0  0  0  0  0  0  0
  -16.1945   -4.8588  -11.9463 C   0  0  0  0  0  0  0  0  0  0  0  0
  -15.6823   -3.6854  -12.4940 C   0  0  0  0  0  0  0  0  0  0  0  0
  -15.9595   -2.4755  -11.8654 N   0  0  0  0  0  0  0  0  0  0  0  0
  -15.5714   -1.2677  -12.3599 C   0  0  0  0  0  0  0  0  0  0  0  0
  -15.8618   -0.2359  -11.7516 O   0  0  0  0  0  0  0  0  0  0  0  0
  -13.5522   -1.5729  -15.8363 H   0  0  0  0  0  0  0  0  0  0  0  0
  -14.1521   -3.0968  -16.1316 H   0  0  0  0  0  0  0  0  0  0  0  0
  -16.4888   -2.4533  -11.0043 H   0  0  0  0  0  0  0  0  0  0  0  0
  -13.7160    3.9498  -16.3870 C   0  0  0  0  0  0  0  0  0  0  0  0
  -12.9606    4.1537  -15.2139 C   0  0  0  0  0  0  0  0  0  0  0  0
  -12.8679    3.2095  -14.1872 C   0  0  0  0  0  0  0  0  0  0  0  0
  -13.5647    2.0255  -14.3868 C   0  0  0  0  0  0  0  0  0  0  0  0
  -13.6888    0.9009  -13.6249 N   0  0  0  0  0  0  0  0  0  0  0  0
  -14.4950   -0.0003  -14.2826 C   0  0  0  0  0  0  0  0  0  0  0  0
  -14.8963    0.5155  -15.4373 N   0  0  0  0  0  0  0  0  0  0  0  0
  -14.3224    1.7633  -15.5158 C   0  0  0  0  0  0  0  0  0  0  0  0
  -14.4042    2.7322  -16.5279 C   0  0  0  0  0  0  0  0  0  0  0  0
  -13.2733    0.7456  -12.7130 H   0  0  0  0  0  0  0  0  0  0  0  0
  -14.3728    8.2034  -19.9370 C   0  0  0  0  0  0  0  0  0  0  0  0
  -13.7833    6.9646  -19.4330 N   0  0  0  0  0  0  0  0  0  0  0  0
  -13.1599    7.1956  -18.1067 C   0  0  0  0  0  0  0  0  0  0  0  0
  -12.6042    5.9023  -17.4610 C   0  0  0  0  0  0  0  0  0  0  0  0
  -13.6924    4.9204  -17.3739 N   0  0  0  0  0  0  0  0  0  0  0  0
  -14.2894    4.6067  -18.6832 C   0  0  0  0  0  0  0  0  0  0  0  0
  -14.8210    5.9118  -19.3182 C   0  0  0  0  0  0  0  0  0  0  0  0
  -14.9405   -7.3256  -14.4325 N   0  0  0  0  0  0  0  0  0  0  0  0
  -15.6939   -7.6000  -15.0527 H   0  0  0  0  0  0  0  0  0  0  0  0
  -13.6242   -7.7099  -14.9174 C   0  0  0  0  0  0  0  0  0  0  0  0
  -12.7617   -8.1619  -13.7654 C   0  0  0  0  0  0  0  0  0  0  0  0
  -11.7570   -7.3236  -13.2563 C   0  0  0  0  0  0  0  0  0  0  0  0
  -10.9462   -7.7441  -12.2018 C   0  0  0  0  0  0  0  0  0  0  0  0
  -11.1341   -9.0044  -11.6394 C   0  0  0  0  0  0  0  0  0  0  0  0
  -12.1360   -9.8420  -12.1264 C   0  0  0  0  0  0  0  0  0  0  0  0
  -12.9471   -9.4235  -13.1832 C   0  0  0  0  0  0  0  0  0  0  0  0
 26 27  1  0  0  0
 27 28  1  0  0  0
 27 32  1  0  0  0
 28 29  1  0  0  0
 29 30  1  0  0  0
 30 16  1  0  0  0
 30 31  1  0  0  0
 16 17  1  0  0  0
 16 24  2  0  0  0
 17 18  2  0  0  0
 18 19  1  0  0  0
 19 20  1  0  0  0
 19 23  2  0  0  0
 20 21  1  0  0  0
 20 25  1  0  0  0
 21  1  1  0  0  0
 21 22  2  0  0  0
  1  2  2  0  0  0
  1 11  1  0  0  0
  2  3  1  0  0  0
  2  4  1  0  0  0
  3 13  1  0  0  0
  3 14  1  0  0  0
  4  5  1  0  0  0
  4  9  2  0  0  0
  5  6  2  0  0  0
  6 33  1  0  0  0
  6  7  1  0  0  0
 33 35  1  0  0  0
 33 34  1  0  0  0
 35 36  1  0  0  0
 36 37  1  0  0  0
 36 41  2  0  0  0
 37 38  2  0  0  0
 38 39  1  0  0  0
 39 40  2  0  0  0
 40 41  1  0  0  0
  7  8  2  0  0  0
  8  9  1  0  0  0
  9 10  1  0  0  0
 10 11  1  0  0  0
 10 15  1  0  0  0
 11 12  2  0  0  0
 22 23  1  0  0  0
 23 24  1  0  0  0
 31 32  1  0  0  0
M  END
> <minimizedAffinity>
-8.22318

$$$$
