CHEMBL3694670


 36 39  0  0  0  0  0  0  0  0999 V2000
  -22.7250    0.4885  -13.7900 C   0  0  0  0  0  0  0  0  0  0  0  0
  -21.4650   -0.2529  -13.9452 C   0  0  0  0  0  0  0  0  0  0  0  0
  -20.3439    0.3841  -14.3129 C   0  0  0  0  0  0  0  0  0  0  0  0
  -20.3824    1.7506  -14.5863 N   0  0  0  0  0  0  0  0  0  0  0  0
  -19.3957    2.6208  -15.0376 C   0  0  0  0  0  0  0  0  0  0  0  0
  -20.0261    3.8583  -15.0353 C   0  0  0  0  0  0  0  0  0  0  0  0
  -21.3384    3.7780  -14.6635 N   0  0  0  0  0  0  0  0  0  0  0  0
  -21.5430    2.5043  -14.4163 C   0  0  0  0  0  0  0  0  0  0  0  0
  -22.7268    1.8255  -14.0084 C   0  0  0  0  0  0  0  0  0  0  0  0
  -26.2800   -1.4111  -12.5783 C   0  0  0  0  0  0  0  0  0  0  0  0
  -25.7366   -1.5839  -13.8363 C   0  0  0  0  0  0  0  0  0  0  0  0
  -24.5990   -1.0005  -14.2582 N   0  0  0  0  0  0  0  0  0  0  0  0
  -23.9801   -0.1913  -13.3803 C   0  0  0  0  0  0  0  0  0  0  0  0
  -24.4245    0.0576  -12.1345 N   0  0  0  0  0  0  0  0  0  0  0  0
  -25.5692   -0.5493  -11.7689 C   0  0  0  0  0  0  0  0  0  0  0  0
  -28.2980   -1.3255  -11.0683 C   0  0  0  0  0  0  0  0  0  0  0  0
  -27.5528   -2.0864  -12.1613 C   0  0  0  0  0  0  0  0  0  0  0  0
  -28.4247   -2.2592  -13.2781 O   0  0  0  0  0  0  0  0  0  0  0  0
  -28.9214   -1.4323  -13.4039 H   0  0  0  0  0  0  0  0  0  0  0  0
  -18.0029    2.2930  -15.3773 C   0  0  0  0  0  0  0  0  0  0  0  0
  -17.2474    3.2322  -16.0878 C   0  0  0  0  0  0  0  0  0  0  0  0
  -15.9278    2.9622  -16.4413 C   0  0  0  0  0  0  0  0  0  0  0  0
  -15.3317    1.7629  -16.0531 C   0  0  0  0  0  0  0  0  0  0  0  0
  -16.0473    0.8124  -15.3232 C   0  0  0  0  0  0  0  0  0  0  0  0
  -17.3981    1.0662  -15.0371 C   0  0  0  0  0  0  0  0  0  0  0  0
  -15.4715   -0.3938  -14.8500 N   0  0  0  0  0  0  0  0  0  0  0  0
  -15.2698   -0.7360  -13.5317 C   0  0  0  0  0  0  0  0  0  0  0  0
  -15.5564   -0.0664  -12.5427 O   0  0  0  0  0  0  0  0  0  0  0  0
  -14.6324   -1.9458  -13.3823 N   0  0  0  0  0  0  0  0  0  0  0  0
  -15.2123   -1.0796  -15.5409 H   0  0  0  0  0  0  0  0  0  0  0  0
  -14.8134   -2.6517  -14.0802 H   0  0  0  0  0  0  0  0  0  0  0  0
  -14.3523   -2.4095  -12.0126 C   0  0  0  0  0  0  0  0  0  0  0  0
  -15.4944   -3.1489  -11.2966 C   0  0  0  0  0  0  0  0  0  0  0  0
  -15.0646   -4.2631  -10.6618 F   0  0  0  0  0  0  0  0  0  0  0  0
  -16.0340   -2.3431  -10.3463 F   0  0  0  0  0  0  0  0  0  0  0  0
  -16.4916   -3.4968  -12.1359 F   0  0  0  0  0  0  0  0  0  0  0  0
 16 17  1  0  0  0
 17 18  1  0  0  0
 17 10  1  0  0  0
 18 19  1  0  0  0
 10 11  1  0  0  0
 10 15  2  0  0  0
 11 12  2  0  0  0
 12 13  1  0  0  0
 13  1  1  0  0  0
 13 14  2  0  0  0
  1  2  1  0  0  0
  1  9  2  0  0  0
  2  3  2  0  0  0
  3  4  1  0  0  0
  4  5  1  0  0  0
  4  8  1  0  0  0
  5 20  1  0  0  0
  5  6  2  0  0  0
 20 21  1  0  0  0
 20 25  2  0  0  0
 21 22  2  0  0  0
 22 23  1  0  0  0
 23 24  2  0  0  0
 24 26  1  0  0  0
 24 25  1  0  0  0
 26 27  1  0  0  0
 26 30  1  0  0  0
 27 28  2  0  0  0
 27 29  1  0  0  0
 29 32  1  0  0  0
 29 31  1  0  0  0
 32 33  1  0  0  0
 33 34  1  0  0  0
 33 35  1  0  0  0
 33 36  1  0  0  0
  6  7  1  0  0  0
  7  8  2  0  0  0
  8  9  1  0  0  0
 14 15  1  0  0  0
M  END
> <minimizedAffinity>
-9.80905

$$$$
