CHEMBL206538


 33 36  0  0  0  0  0  0  0  0999 V2000
  -26.6847   11.8405  -13.8576 C   0  0  0  0  0  0  0  0  0  0  0  0
  -27.2092   12.6590  -12.9646 N   0  0  0  0  0  0  0  0  0  0  0  0
  -28.5664   12.6294  -13.1488 N   0  0  0  0  0  0  0  0  0  0  0  0
  -28.8024   11.8029  -14.1456 C   0  0  0  0  0  0  0  0  0  0  0  0
  -27.6555   11.2303  -14.6178 O   0  0  0  0  0  0  0  0  0  0  0  0
  -24.5151   11.9417  -11.6655 C   0  0  0  0  0  0  0  0  0  0  0  0
  -24.3212   11.7143  -13.0782 N   0  0  0  0  0  0  0  0  0  0  0  0
  -23.1053   11.5594  -13.6864 C   0  0  0  0  0  0  0  0  0  0  0  0
  -23.2281   11.4664  -14.9942 N   0  0  0  0  0  0  0  0  0  0  0  0
  -24.5695   11.5032  -15.2239 C   0  0  0  0  0  0  0  0  0  0  0  0
  -25.2877   11.6614  -14.0565 C   0  0  0  0  0  0  0  0  0  0  0  0
  -25.0819   11.4290  -16.4586 N   0  0  0  0  0  0  0  0  0  0  0  0
  -25.8874   11.9835  -16.7253 H   0  0  0  0  0  0  0  0  0  0  0  0
  -24.6630   10.4263  -17.4098 C   0  0  0  0  0  0  0  0  0  0  0  0
  -23.6163   11.0303  -18.3247 C   0  0  0  0  0  0  0  0  0  0  0  0
  -22.2612   10.7240  -18.1604 C   0  0  0  0  0  0  0  0  0  0  0  0
  -21.3362   11.2925  -19.0190 C   0  0  0  0  0  0  0  0  0  0  0  0
  -21.6648   12.1338  -20.0220 N   0  0  0  0  0  0  0  0  0  0  0  0
  -22.9773   12.4084  -20.1743 C   0  0  0  0  0  0  0  0  0  0  0  0
  -23.9778   11.8925  -19.3648 C   0  0  0  0  0  0  0  0  0  0  0  0
  -29.9323   11.4504  -14.7836 N   0  0  0  0  0  0  0  0  0  0  0  0
  -29.9147   11.5110  -15.7947 H   0  0  0  0  0  0  0  0  0  0  0  0
  -31.2296   11.4327  -14.2335 C   0  0  0  0  0  0  0  0  0  0  0  0
  -32.2482   12.3071  -14.6286 C   0  0  0  0  0  0  0  0  0  0  0  0
  -33.5038   12.2786  -14.0182 C   0  0  0  0  0  0  0  0  0  0  0  0
  -33.7645   11.3722  -12.9925 C   0  0  0  0  0  0  0  0  0  0  0  0
  -32.7802   10.4716  -12.5985 C   0  0  0  0  0  0  0  0  0  0  0  0
  -31.5093   10.5392  -13.1881 C   0  0  0  0  0  0  0  0  0  0  0  0
  -32.9106    9.5232  -11.6292 O   0  0  0  0  0  0  0  0  0  0  0  0
  -33.9535    8.5625  -11.7381 C   0  0  0  0  0  0  0  0  0  0  0  0
  -33.7401    7.4279  -11.0426 F   0  0  0  0  0  0  0  0  0  0  0  0
  -35.0945    9.1195  -11.2712 F   0  0  0  0  0  0  0  0  0  0  0  0
  -34.1404    8.2506  -13.0386 F   0  0  0  0  0  0  0  0  0  0  0  0
  6  7  1  0  0  0
  7  8  1  0  0  0
  7 11  1  0  0  0
  8  9  2  0  0  0
  9 10  1  0  0  0
 10 12  1  0  0  0
 10 11  2  0  0  0
 12 14  1  0  0  0
 12 13  1  0  0  0
 14 15  1  0  0  0
 15 16  1  0  0  0
 15 20  2  0  0  0
 16 17  2  0  0  0
 17 18  1  0  0  0
 18 19  2  0  0  0
 19 20  1  0  0  0
 11  1  1  0  0  0
  1  2  2  0  0  0
  1  5  1  0  0  0
  2  3  1  0  0  0
  3  4  2  0  0  0
  4 21  1  0  0  0
  4  5  1  0  0  0
 21 23  1  0  0  0
 21 22  1  0  0  0
 23 24  1  0  0  0
 23 28  2  0  0  0
 24 25  2  0  0  0
 25 26  1  0  0  0
 26 27  2  0  0  0
 27 29  1  0  0  0
 27 28  1  0  0  0
 29 30  1  0  0  0
 30 31  1  0  0  0
 30 32  1  0  0  0
 30 33  1  0  0  0
M  END
> <minimizedAffinity>
-5.44364

$$$$
