CHEMBL194176


 32 35  0  0  0  0  0  0  0  0999 V2000
  -16.1634    0.8550  -14.0262 C   0  0  0  0  0  0  0  0  0  0  0  0
  -15.9659    1.2329  -15.2728 N   0  0  0  0  0  0  0  0  0  0  0  0
  -17.1775    1.6969  -15.6941 C   0  0  0  0  0  0  0  0  0  0  0  0
  -18.1015    1.5861  -14.6791 C   0  0  0  0  0  0  0  0  0  0  0  0
  -17.4435    1.0605  -13.5906 O   0  0  0  0  0  0  0  0  0  0  0  0
  -19.5151    1.8785  -14.5360 C   0  0  0  0  0  0  0  0  0  0  0  0
  -20.0318    3.1182  -14.9299 C   0  0  0  0  0  0  0  0  0  0  0  0
  -21.3863    3.3975  -14.7868 C   0  0  0  0  0  0  0  0  0  0  0  0
  -22.2444    2.4270  -14.2727 C   0  0  0  0  0  0  0  0  0  0  0  0
  -21.7779    1.1521  -13.9039 C   0  0  0  0  0  0  0  0  0  0  0  0
  -20.3950    0.9132  -14.0106 C   0  0  0  0  0  0  0  0  0  0  0  0
  -22.7139    0.0919  -13.4748 C   0  0  0  0  0  0  0  0  0  0  0  0
  -22.6167   -0.5021  -12.2153 C   0  0  0  0  0  0  0  0  0  0  0  0
  -23.5232   -1.4897  -11.8439 C   0  0  0  0  0  0  0  0  0  0  0  0
  -24.5174   -1.8613  -12.7347 C   0  0  0  0  0  0  0  0  0  0  0  0
  -24.5648   -1.2191  -13.9610 C   0  0  0  0  0  0  0  0  0  0  0  0
  -23.6964   -0.2535  -14.3481 N   0  0  0  0  0  0  0  0  0  0  0  0
  -15.3309    0.2701  -13.1492 N   0  0  0  0  0  0  0  0  0  0  0  0
  -15.2637    0.6623  -12.2169 H   0  0  0  0  0  0  0  0  0  0  0  0
  -15.1220   -3.4478  -12.8380 C   0  0  0  0  0  0  0  0  0  0  0  0
  -13.8301   -3.6865  -13.2955 C   0  0  0  0  0  0  0  0  0  0  0  0
  -13.0491   -2.6158  -13.7435 C   0  0  0  0  0  0  0  0  0  0  0  0
  -13.5524   -1.3071  -13.7128 C   0  0  0  0  0  0  0  0  0  0  0  0
  -14.8567   -1.0610  -13.2218 C   0  0  0  0  0  0  0  0  0  0  0  0
  -15.6391   -2.1564  -12.8314 C   0  0  0  0  0  0  0  0  0  0  0  0
  -16.1581   -4.7793  -12.2767 S   0  0  0  0  0  0  0  0  0  0  0  0
  -17.0710   -5.0890  -13.3625 O   0  0  0  0  0  0  0  0  0  0  0  0
  -16.6594   -4.3990  -10.9704 O   0  0  0  0  0  0  0  0  0  0  0  0
  -15.2307   -7.1765  -13.2020 C   0  0  0  0  0  0  0  0  0  0  0  0
  -15.0465   -6.1668  -12.0824 C   0  0  0  0  0  0  0  0  0  0  0  0
  -12.8414   -0.1916  -14.0930 O   0  0  0  0  0  0  0  0  0  0  0  0
  -11.6575    0.0910  -13.3531 C   0  0  0  0  0  0  0  0  0  0  0  0
 29 30  1  0  0  0
 30 26  1  0  0  0
 26 27  2  0  0  0
 26 28  2  0  0  0
 26 20  1  0  0  0
 20 21  1  0  0  0
 20 25  2  0  0  0
 21 22  2  0  0  0
 22 23  1  0  0  0
 23 31  1  0  0  0
 23 24  2  0  0  0
 31 32  1  0  0  0
 24 18  1  0  0  0
 24 25  1  0  0  0
 18  1  1  0  0  0
 18 19  1  0  0  0
  1  2  2  0  0  0
  1  5  1  0  0  0
  2  3  1  0  0  0
  3  4  2  0  0  0
  4  6  1  0  0  0
  4  5  1  0  0  0
  6  7  1  0  0  0
  6 11  2  0  0  0
  7  8  2  0  0  0
  8  9  1  0  0  0
  9 10  2  0  0  0
 10 12  1  0  0  0
 10 11  1  0  0  0
 12 13  1  0  0  0
 12 17  2  0  0  0
 13 14  2  0  0  0
 14 15  1  0  0  0
 15 16  2  0  0  0
 16 17  1  0  0  0
M  END
> <minimizedAffinity>
-9.66564

$$$$
