CHEMBL478612


 33 36  0  0  0  0  0  0  0  0999 V2000
  -29.1903   -8.1281   -5.8193 C   0  0  0  0  0  0  0  0  0  0  0  0
  -29.7369   -9.3986   -5.7649 C   0  0  0  0  0  0  0  0  0  0  0  0
  -28.9125  -10.4198   -5.3848 C   0  0  0  0  0  0  0  0  0  0  0  0
  -27.6439  -10.2237   -5.0302 N   0  0  0  0  0  0  0  0  0  0  0  0
  -27.1751   -8.9724   -5.0415 C   0  0  0  0  0  0  0  0  0  0  0  0
  -27.8977   -7.9244   -5.4643 N   0  0  0  0  0  0  0  0  0  0  0  0
  -29.9677   -7.0289   -6.2797 N   0  0  0  0  0  0  0  0  0  0  0  0
  -31.0100   -7.3591   -7.2579 C   0  0  0  0  0  0  0  0  0  0  0  0
  -28.6085    0.1445   -5.2054 C   0  0  0  0  0  0  0  0  0  0  0  0
  -29.0566   -1.2704   -5.1699 C   0  0  0  0  0  0  0  0  0  0  0  0
  -29.7914   -1.8163   -4.2222 N   0  0  0  0  0  0  0  0  0  0  0  0
  -29.9430   -3.1309   -4.5798 C   0  0  0  0  0  0  0  0  0  0  0  0
  -30.6196   -4.1621   -3.9196 C   0  0  0  0  0  0  0  0  0  0  0  0
  -30.6162   -5.4502   -4.4822 C   0  0  0  0  0  0  0  0  0  0  0  0
  -29.9672   -5.7390   -5.6952 C   0  0  0  0  0  0  0  0  0  0  0  0
  -29.2985   -4.6810   -6.3547 C   0  0  0  0  0  0  0  0  0  0  0  0
  -29.2966   -3.4018   -5.7785 C   0  0  0  0  0  0  0  0  0  0  0  0
  -28.7437   -2.1973   -6.1413 N   0  0  0  0  0  0  0  0  0  0  0  0
  -27.9543   -1.9340   -7.3197 C   0  0  0  0  0  0  0  0  0  0  0  0
  -25.8696   -8.7444   -4.6034 N   0  0  0  0  0  0  0  0  0  0  0  0
  -25.7728   -7.8561   -4.1315 H   0  0  0  0  0  0  0  0  0  0  0  0
  -24.8610   -9.7034   -4.4162 C   0  0  0  0  0  0  0  0  0  0  0  0
  -24.5215  -10.1341   -3.1305 C   0  0  0  0  0  0  0  0  0  0  0  0
  -23.4091  -10.9633   -2.9201 C   0  0  0  0  0  0  0  0  0  0  0  0
  -22.6199  -11.3689   -3.9942 C   0  0  0  0  0  0  0  0  0  0  0  0
  -22.9626  -10.9545   -5.2775 C   0  0  0  0  0  0  0  0  0  0  0  0
  -24.0861  -10.1521   -5.4919 C   0  0  0  0  0  0  0  0  0  0  0  0
  -21.9234  -11.3247   -6.6563 S   0  0  0  0  0  0  0  0  0  0  0  0
  -21.2063   -9.8387   -6.8529 N   0  0  0  0  0  0  0  0  0  0  0  0
  -20.8872  -12.2373   -6.2234 O   0  0  0  0  0  0  0  0  0  0  0  0
  -22.7398  -11.5680   -7.8199 O   0  0  0  0  0  0  0  0  0  0  0  0
  -20.3079   -9.6752   -6.4123 H   0  0  0  0  0  0  0  0  0  0  0  0
  -21.6675   -9.1604   -7.4492 H   0  0  0  0  0  0  0  0  0  0  0  0
  9 10  1  0  0  0
 10 11  2  0  0  0
 10 18  1  0  0  0
 11 12  1  0  0  0
 12 13  1  0  0  0
 12 17  2  0  0  0
 13 14  2  0  0  0
 14 15  1  0  0  0
 15  7  1  0  0  0
 15 16  2  0  0  0
  7  8  1  0  0  0
  7  1  1  0  0  0
  1  2  1  0  0  0
  1  6  2  0  0  0
  2  3  2  0  0  0
  3  4  1  0  0  0
  4  5  2  0  0  0
  5 20  1  0  0  0
  5  6  1  0  0  0
 20 22  1  0  0  0
 20 21  1  0  0  0
 22 23  1  0  0  0
 22 27  2  0  0  0
 23 24  2  0  0  0
 24 25  1  0  0  0
 25 26  2  0  0  0
 26 28  1  0  0  0
 26 27  1  0  0  0
 28 29  1  0  0  0
 28 30  2  0  0  0
 28 31  2  0  0  0
 29 32  1  0  0  0
 29 33  1  0  0  0
 16 17  1  0  0  0
 17 18  1  0  0  0
 18 19  1  0  0  0
M  END
> <minimizedAffinity>
-9.07395

$$$$
