CHEMBL3893398


 38 41  0  0  0  0  0  0  0  0999 V2000
  -27.9706   -2.3566   -8.4143 N   0  0  0  0  0  0  0  0  0  0  0  0
  -27.4496   -1.7304   -9.6185 C   0  0  0  0  0  0  0  0  0  0  0  0
  -28.3267   -1.7851  -10.7025 C   0  0  0  0  0  0  0  0  0  0  0  0
  -27.8553   -1.7914  -11.9940 C   0  0  0  0  0  0  0  0  0  0  0  0
  -26.5435   -1.5641  -12.2877 C   0  0  0  0  0  0  0  0  0  0  0  0
  -26.2299   -1.7804  -13.5647 N   0  0  0  0  0  0  0  0  0  0  0  0
  -25.0316   -1.3556  -13.9671 C   0  0  0  0  0  0  0  0  0  0  0  0
  -24.1855   -0.6647  -13.1274 C   0  0  0  0  0  0  0  0  0  0  0  0
  -24.4364   -0.5694  -11.7738 N   0  0  0  0  0  0  0  0  0  0  0  0
  -25.6374   -1.0987  -11.2852 C   0  0  0  0  0  0  0  0  0  0  0  0
  -26.1267   -1.2761   -9.9114 C   0  0  0  0  0  0  0  0  0  0  0  0
  -23.1353    0.1039  -13.7972 C   0  0  0  0  0  0  0  0  0  0  0  0
  -21.8718   -0.3317  -14.2866 C   0  0  0  0  0  0  0  0  0  0  0  0
  -21.0404    0.6773  -14.5712 N   0  0  0  0  0  0  0  0  0  0  0  0
  -21.7561    1.7701  -14.2595 N   0  0  0  0  0  0  0  0  0  0  0  0
  -21.3027    3.0833  -14.6580 C   0  0  0  0  0  0  0  0  0  0  0  0
  -22.9444    1.4704  -13.6477 C   0  0  0  0  0  0  0  0  0  0  0  0
  -28.7488   -0.0830   -5.5248 C   0  0  0  0  0  0  0  0  0  0  0  0
  -28.5756   -0.9387   -4.4383 C   0  0  0  0  0  0  0  0  0  0  0  0
  -28.1397   -2.2454   -4.6490 C   0  0  0  0  0  0  0  0  0  0  0  0
  -27.8741   -2.6890   -5.9556 C   0  0  0  0  0  0  0  0  0  0  0  0
  -28.0307   -1.8610   -7.0820 C   0  0  0  0  0  0  0  0  0  0  0  0
  -28.4554   -0.5387   -6.8309 C   0  0  0  0  0  0  0  0  0  0  0  0
  -30.5564    1.4444   -5.9115 C   0  0  0  0  0  0  0  0  0  0  0  0
  -29.2343    1.2004   -5.4227 O   0  0  0  0  0  0  0  0  0  0  0  0
  -27.9728   -3.1925   -3.6710 O   0  0  0  0  0  0  0  0  0  0  0  0
  -27.7837   -4.5401   -4.0953 C   0  0  0  0  0  0  0  0  0  0  0  0
  -27.7647   -3.8540   -8.5574 C   0  0  0  0  0  0  0  0  0  0  0  0
  -28.8068   -4.8204   -7.9661 C   0  0  0  0  0  0  0  0  0  0  0  0
  -28.5489   -6.3325   -8.0108 C   0  0  0  0  0  0  0  0  0  0  0  0
  -28.3414   -6.9151   -6.6620 N   0  0  0  0  0  0  0  0  0  0  0  0
  -28.0742   -6.2110   -5.9715 H   0  0  0  0  0  0  0  0  0  0  0  0
  -29.6799   -7.6937   -5.9795 S   0  0  0  0  0  0  0  0  0  0  0  0
  -29.1939   -8.8951   -5.3387 O   0  0  0  0  0  0  0  0  0  0  0  0
  -30.4320   -6.7068   -5.2402 O   0  0  0  0  0  0  0  0  0  0  0  0
  -30.5705   -8.1322   -7.3501 N   0  0  0  0  0  0  0  0  0  0  0  0
  -30.1726   -9.4098   -7.9723 C   0  0  0  0  0  0  0  0  0  0  0  0
  -32.0380   -8.0877   -7.1406 C   0  0  0  0  0  0  0  0  0  0  0  0
 24 25  1  0  0  0
 25 18  1  0  0  0
 18 19  1  0  0  0
 18 23  2  0  0  0
 19 20  2  0  0  0
 20 26  1  0  0  0
 20 21  1  0  0  0
 26 27  1  0  0  0
 21 22  2  0  0  0
 22  1  1  0  0  0
 22 23  1  0  0  0
  1 28  1  0  0  0
  1  2  1  0  0  0
 28 29  1  0  0  0
 29 30  1  0  0  0
 30 31  1  0  0  0
 31 33  1  0  0  0
 31 32  1  0  0  0
 33 34  2  0  0  0
 33 35  2  0  0  0
 33 36  1  0  0  0
 36 37  1  0  0  0
 36 38  1  0  0  0
  2  3  1  0  0  0
  2 11  2  0  0  0
  3  4  2  0  0  0
  4  5  1  0  0  0
  5  6  1  0  0  0
  5 10  2  0  0  0
  6  7  2  0  0  0
  7  8  1  0  0  0
  8 12  1  0  0  0
  8  9  2  0  0  0
 12 13  1  0  0  0
 12 17  2  0  0  0
 13 14  2  0  0  0
 14 15  1  0  0  0
 15 16  1  0  0  0
 15 17  1  0  0  0
  9 10  1  0  0  0
 10 11  1  0  0  0
M  END
> <minimizedAffinity>
-8.73951

$$$$
