CHEMBL1241486


 30 32  0  0  0  0  0  0  0  0999 V2000
  -27.5681   -1.4702  -11.7827 C   0  0  0  0  0  0  0  0  0  0  0  0
  -28.2134   -1.6061  -10.5398 C   0  0  0  0  0  0  0  0  0  0  0  0
  -27.4730   -1.6710   -9.3518 C   0  0  0  0  0  0  0  0  0  0  0  0
  -26.0865   -1.7072   -9.4389 C   0  0  0  0  0  0  0  0  0  0  0  0
  -25.4440   -1.4800  -10.6477 C   0  0  0  0  0  0  0  0  0  0  0  0
  -26.1563   -1.3333  -11.8411 C   0  0  0  0  0  0  0  0  0  0  0  0
  -28.1146   -1.6631   -8.0358 C   0  0  0  0  0  0  0  0  0  0  0  0
  -28.2789   -0.5149   -7.3537 N   0  0  0  0  0  0  0  0  0  0  0  0
  -28.9400   -0.8847   -6.2330 N   0  0  0  0  0  0  0  0  0  0  0  0
  -29.1830   -2.2310   -6.1601 C   0  0  0  0  0  0  0  0  0  0  0  0
  -29.8283   -2.8852   -5.1790 N   0  0  0  0  0  0  0  0  0  0  0  0
  -29.8830   -4.2042   -5.4190 C   0  0  0  0  0  0  0  0  0  0  0  0
  -29.3579   -4.8768   -6.4579 N   0  0  0  0  0  0  0  0  0  0  0  0
  -28.7045   -4.1851   -7.4128 C   0  0  0  0  0  0  0  0  0  0  0  0
  -28.1524   -4.9504   -8.4330 N   0  0  0  0  0  0  0  0  0  0  0  0
  -28.6219   -2.7852   -7.2985 C   0  0  0  0  0  0  0  0  0  0  0  0
  -28.1596   -5.9335   -8.1859 H   0  0  0  0  0  0  0  0  0  0  0  0
  -27.2741   -4.6023   -8.7991 H   0  0  0  0  0  0  0  0  0  0  0  0
  -29.3160    0.1150   -5.2391 C   0  0  0  0  0  0  0  0  0  0  0  0
  -28.1080    0.9325   -4.7794 C   0  0  0  0  0  0  0  0  0  0  0  0
  -30.4324    1.0250   -5.7511 C   0  0  0  0  0  0  0  0  0  0  0  0
  -28.4217   -2.6923  -13.6428 C   0  0  0  0  0  0  0  0  0  0  0  0
  -28.2292   -1.4408  -12.9907 O   0  0  0  0  0  0  0  0  0  0  0  0
  -25.5056   -1.0877  -13.0618 N   0  0  0  0  0  0  0  0  0  0  0  0
  -25.9254   -1.6362  -13.8119 H   0  0  0  0  0  0  0  0  0  0  0  0
  -24.0349   -0.9509  -13.1143 C   0  0  0  0  0  0  0  0  0  0  0  0
  -23.3022   -2.2880  -13.0320 C   0  0  0  0  0  0  0  0  0  0  0  0
  -23.6460   -0.2497  -14.4342 C   0  0  0  0  0  0  0  0  0  0  0  0
  -22.3293    0.2897  -14.3489 O   0  0  0  0  0  0  0  0  0  0  0  0
  -22.2793    0.6791  -13.4514 H   0  0  0  0  0  0  0  0  0  0  0  0
 22 23  1  0  0  0
 23  1  1  0  0  0
  1  2  1  0  0  0
  1  6  2  0  0  0
  2  3  2  0  0  0
  3  7  1  0  0  0
  3  4  1  0  0  0
  7  8  2  0  0  0
  7 16  1  0  0  0
  8  9  1  0  0  0
  9 19  1  0  0  0
  9 10  1  0  0  0
 19 20  1  0  0  0
 19 21  1  0  0  0
 10 11  1  0  0  0
 10 16  2  0  0  0
 11 12  2  0  0  0
 12 13  1  0  0  0
 13 14  2  0  0  0
 14 15  1  0  0  0
 14 16  1  0  0  0
 15 17  1  0  0  0
 15 18  1  0  0  0
  4  5  2  0  0  0
  5  6  1  0  0  0
  6 24  1  0  0  0
 24 26  1  0  0  0
 24 25  1  0  0  0
 26 27  1  0  0  0
 26 28  1  0  0  0
 28 29  1  0  0  0
 29 30  1  0  0  0
M  END
> <minimizedAffinity>
-7.00311

$$$$
