CHEMBL3759190


 42 46  0  0  0  0  0  0  0  0999 V2000
  -29.0251   -5.6197   -7.5904 C   0  0  0  0  0  0  0  0  0  0  0  0
  -28.3794   -4.6557   -8.3565 C   0  0  0  0  0  0  0  0  0  0  0  0
  -28.1759   -3.3492   -7.8697 C   0  0  0  0  0  0  0  0  0  0  0  0
  -27.6469   -2.3073   -8.6426 C   0  0  0  0  0  0  0  0  0  0  0  0
  -27.4858   -1.0702   -8.1442 N   0  0  0  0  0  0  0  0  0  0  0  0
  -27.8555   -0.8785   -6.8747 C   0  0  0  0  0  0  0  0  0  0  0  0
  -28.3807   -1.7933   -6.0599 N   0  0  0  0  0  0  0  0  0  0  0  0
  -28.5535   -3.0193   -6.5631 C   0  0  0  0  0  0  0  0  0  0  0  0
  -29.1147   -4.0119   -5.7737 C   0  0  0  0  0  0  0  0  0  0  0  0
  -29.3235   -5.3166   -6.2498 C   0  0  0  0  0  0  0  0  0  0  0  0
  -28.3199   -7.7642   -8.4267 C   0  0  0  0  0  0  0  0  0  0  0  0
  -29.3570   -6.8492   -8.0834 O   0  0  0  0  0  0  0  0  0  0  0  0
  -27.3005   -2.5639   -9.9974 N   0  0  0  0  0  0  0  0  0  0  0  0
  -27.2362   -3.5663  -10.1403 H   0  0  0  0  0  0  0  0  0  0  0  0
  -26.3402   -1.8602  -10.7478 C   0  0  0  0  0  0  0  0  0  0  0  0
  -25.0004   -2.2428  -10.6913 C   0  0  0  0  0  0  0  0  0  0  0  0
  -24.0225   -1.5035  -11.3612 C   0  0  0  0  0  0  0  0  0  0  0  0
  -24.3660   -0.3850  -12.1223 C   0  0  0  0  0  0  0  0  0  0  0  0
  -25.7172   -0.0713  -12.2774 C   0  0  0  0  0  0  0  0  0  0  0  0
  -26.6932   -0.8106  -11.6026 C   0  0  0  0  0  0  0  0  0  0  0  0
  -23.4202    0.4618  -12.7404 N   0  0  0  0  0  0  0  0  0  0  0  0
  -22.4546    0.0837  -13.6515 C   0  0  0  0  0  0  0  0  0  0  0  0
  -22.2611   -1.0610  -14.0526 O   0  0  0  0  0  0  0  0  0  0  0  0
  -23.4349    1.4320  -12.4494 H   0  0  0  0  0  0  0  0  0  0  0  0
  -21.5392    1.1348  -14.1794 C   0  0  0  0  0  0  0  0  0  0  0  0
  -20.3654    0.6538  -14.7953 C   0  0  0  0  0  0  0  0  0  0  0  0
  -19.4914    1.5127  -15.4584 C   0  0  0  0  0  0  0  0  0  0  0  0
  -19.7764    2.8711  -15.5156 C   0  0  0  0  0  0  0  0  0  0  0  0
  -20.9144    3.3702  -14.8788 C   0  0  0  0  0  0  0  0  0  0  0  0
  -21.7942    2.5113  -14.2029 C   0  0  0  0  0  0  0  0  0  0  0  0
  -23.1737    3.2503  -13.4697 Cl  0  0  0  0  0  0  0  0  0  0  0  0
  -29.8236   -6.1772   -5.3004 O   0  0  0  0  0  0  0  0  0  0  0  0
  -28.8982   -6.5152   -4.2690 C   0  0  0  0  0  0  0  0  0  0  0  0
  -29.0776   -7.9579   -3.8068 C   0  0  0  0  0  0  0  0  0  0  0  0
  -28.6174   -8.8724   -4.9510 C   0  0  0  0  0  0  0  0  0  0  0  0
  -27.1684   -9.0443   -5.0660 N   0  0  0  0  0  0  0  0  0  0  0  0
  -26.5117   -9.3002   -3.7724 C   0  0  0  0  0  0  0  0  0  0  0  0
  -24.9859   -9.4841   -3.9479 C   0  0  0  0  0  0  0  0  0  0  0  0
  -24.5867  -10.5471   -4.8920 N   0  0  0  0  0  0  0  0  0  0  0  0
  -24.7705  -11.8753   -4.3155 C   0  0  0  0  0  0  0  0  0  0  0  0
  -25.3396  -10.3866   -6.1524 C   0  0  0  0  0  0  0  0  0  0  0  0
  -26.8610  -10.1618   -5.9872 C   0  0  0  0  0  0  0  0  0  0  0  0
 11 12  1  0  0  0
 12  1  1  0  0  0
  1  2  1  0  0  0
  1 10  2  0  0  0
  2  3  2  0  0  0
  3  4  1  0  0  0
  3  8  1  0  0  0
  4 13  1  0  0  0
  4  5  2  0  0  0
 13 15  1  0  0  0
 13 14  1  0  0  0
 15 16  1  0  0  0
 15 20  2  0  0  0
 16 17  2  0  0  0
 17 18  1  0  0  0
 18 21  1  0  0  0
 18 19  2  0  0  0
 21 22  1  0  0  0
 21 24  1  0  0  0
 22 23  2  0  0  0
 22 25  1  0  0  0
 25 26  1  0  0  0
 25 30  2  0  0  0
 26 27  2  0  0  0
 27 28  1  0  0  0
 28 29  2  0  0  0
 29 30  1  0  0  0
 30 31  1  0  0  0
 19 20  1  0  0  0
  5  6  1  0  0  0
  6  7  2  0  0  0
  7  8  1  0  0  0
  8  9  2  0  0  0
  9 10  1  0  0  0
 10 32  1  0  0  0
 32 33  1  0  0  0
 33 34  1  0  0  0
 34 35  1  0  0  0
 35 36  1  0  0  0
 36 37  1  0  0  0
 36 42  1  0  0  0
 37 38  1  0  0  0
 38 39  1  0  0  0
 39 40  1  0  0  0
 39 41  1  0  0  0
 41 42  1  0  0  0
M  END
> <minimizedAffinity>
-9.06747

$$$$
