CHEMBL3656113


 43 46  0  0  0  0  0  0  0  0999 V2000
  -29.3949   -4.3811   -4.1722 C   0  0  0  0  0  0  0  0  0  0  0  0
  -30.6816   -4.4702   -3.6469 C   0  0  0  0  0  0  0  0  0  0  0  0
  -31.2161   -5.7276   -3.4562 C   0  0  0  0  0  0  0  0  0  0  0  0
  -30.5401   -6.8707   -3.6902 N   0  0  0  0  0  0  0  0  0  0  0  0
  -29.2607   -6.7579   -4.1303 C   0  0  0  0  0  0  0  0  0  0  0  0
  -28.6515   -5.5384   -4.3874 C   0  0  0  0  0  0  0  0  0  0  0  0
  -28.5907   -8.0429   -4.3065 C   0  0  0  0  0  0  0  0  0  0  0  0
  -27.3690   -8.4066   -4.8513 C   0  0  0  0  0  0  0  0  0  0  0  0
  -27.2330   -9.8299   -4.7736 C   0  0  0  0  0  0  0  0  0  0  0  0
  -28.3895  -10.2820   -4.1643 C   0  0  0  0  0  0  0  0  0  0  0  0
  -29.1895   -9.2113   -3.8897 N   0  0  0  0  0  0  0  0  0  0  0  0
  -30.1035   -9.2357   -3.4536 H   0  0  0  0  0  0  0  0  0  0  0  0
  -26.1607  -10.7082   -5.2374 C   0  0  0  0  0  0  0  0  0  0  0  0
  -25.9548  -11.8162   -4.7494 O   0  0  0  0  0  0  0  0  0  0  0  0
  -25.3947  -10.2042   -6.2648 N   0  0  0  0  0  0  0  0  0  0  0  0
  -25.4210   -9.2102   -6.4512 H   0  0  0  0  0  0  0  0  0  0  0  0
  -24.2576  -10.9484   -6.7680 C   0  0  0  0  0  0  0  0  0  0  0  0
  -22.9407  -10.4054   -6.2082 C   0  0  0  0  0  0  0  0  0  0  0  0
  -23.0826   -8.9978   -5.9624 O   0  0  0  0  0  0  0  0  0  0  0  0
  -23.5074   -8.8896   -5.0915 H   0  0  0  0  0  0  0  0  0  0  0  0
  -22.5446  -11.1506   -4.9265 C   0  0  0  0  0  0  0  0  0  0  0  0
  -23.1647  -10.5775   -3.7785 O   0  0  0  0  0  0  0  0  0  0  0  0
  -23.0713   -9.6103   -3.8355 H   0  0  0  0  0  0  0  0  0  0  0  0
  -28.7859   -3.1796   -4.4609 O   0  0  0  0  0  0  0  0  0  0  0  0
  -28.3103   -2.2797   -8.5149 C   0  0  0  0  0  0  0  0  0  0  0  0
  -28.9369   -3.4588   -8.0933 C   0  0  0  0  0  0  0  0  0  0  0  0
  -29.0708   -3.7473   -6.7327 C   0  0  0  0  0  0  0  0  0  0  0  0
  -28.5778   -2.8484   -5.7852 C   0  0  0  0  0  0  0  0  0  0  0  0
  -27.9721   -1.6618   -6.2083 C   0  0  0  0  0  0  0  0  0  0  0  0
  -27.7875   -1.4017   -7.5685 C   0  0  0  0  0  0  0  0  0  0  0  0
  -27.1502   -1.3555  -11.8216 N   0  0  0  0  0  0  0  0  0  0  0  0
  -27.0452   -1.6240  -10.4617 C   0  0  0  0  0  0  0  0  0  0  0  0
  -25.9982   -1.6686   -9.8304 O   0  0  0  0  0  0  0  0  0  0  0  0
  -28.2804   -1.9032   -9.8819 N   0  0  0  0  0  0  0  0  0  0  0  0
  -28.0644   -1.1337  -12.1844 H   0  0  0  0  0  0  0  0  0  0  0  0
  -28.9123   -2.4003  -10.4924 H   0  0  0  0  0  0  0  0  0  0  0  0
  -22.4924    0.2069  -12.5213 C   0  0  0  0  0  0  0  0  0  0  0  0
  -23.7535   -0.4111  -13.0439 C   0  0  0  0  0  0  0  0  0  0  0  0
  -23.8182   -0.8141  -14.3829 C   0  0  0  0  0  0  0  0  0  0  0  0
  -24.9811   -1.3838  -14.8809 C   0  0  0  0  0  0  0  0  0  0  0  0
  -26.0845   -1.5580  -14.0504 C   0  0  0  0  0  0  0  0  0  0  0  0
  -26.0491   -1.1870  -12.7021 C   0  0  0  0  0  0  0  0  0  0  0  0
  -24.8713   -0.6003  -12.2081 C   0  0  0  0  0  0  0  0  0  0  0  0
 37 38  1  0  0  0
 38 39  1  0  0  0
 38 43  2  0  0  0
 39 40  2  0  0  0
 40 41  1  0  0  0
 41 42  2  0  0  0
 42 31  1  0  0  0
 42 43  1  0  0  0
 31 32  1  0  0  0
 31 35  1  0  0  0
 32 33  2  0  0  0
 32 34  1  0  0  0
 34 25  1  0  0  0
 34 36  1  0  0  0
 25 26  1  0  0  0
 25 30  2  0  0  0
 26 27  2  0  0  0
 27 28  1  0  0  0
 28 24  1  0  0  0
 28 29  2  0  0  0
 24  1  1  0  0  0
  1  2  1  0  0  0
  1  6  2  0  0  0
  2  3  2  0  0  0
  3  4  1  0  0  0
  4  5  2  0  0  0
  5  7  1  0  0  0
  5  6  1  0  0  0
  7  8  2  0  0  0
  7 11  1  0  0  0
  8  9  1  0  0  0
  9 13  1  0  0  0
  9 10  2  0  0  0
 13 14  2  0  0  0
 13 15  1  0  0  0
 15 17  1  0  0  0
 15 16  1  0  0  0
 17 18  1  0  0  0
 18 19  1  0  0  0
 18 21  1  0  0  0
 19 20  1  0  0  0
 21 22  1  0  0  0
 22 23  1  0  0  0
 10 11  1  0  0  0
 11 12  1  0  0  0
 29 30  1  0  0  0
M  END
> <minimizedAffinity>
-10.42043

$$$$
