CHEMBL3690430


 38 41  0  0  0  0  0  0  0  0999 V2000
  -20.6398    2.4727  -14.4974 C   0  0  0  0  0  0  0  0  0  0  0  0
  -21.3903    3.6398  -14.4649 C   0  0  0  0  0  0  0  0  0  0  0  0
  -22.6658    3.4252  -14.0253 N   0  0  0  0  0  0  0  0  0  0  0  0
  -22.7210    2.1403  -13.7653 C   0  0  0  0  0  0  0  0  0  0  0  0
  -23.7977    1.3591  -13.2636 C   0  0  0  0  0  0  0  0  0  0  0  0
  -23.6342    0.0472  -12.9642 C   0  0  0  0  0  0  0  0  0  0  0  0
  -22.3333   -0.5809  -13.2276 C   0  0  0  0  0  0  0  0  0  0  0  0
  -21.3109    0.1548  -13.6931 C   0  0  0  0  0  0  0  0  0  0  0  0
  -21.5033    1.5076  -13.9848 N   0  0  0  0  0  0  0  0  0  0  0  0
  -17.2447    0.9020  -15.1545 C   0  0  0  0  0  0  0  0  0  0  0  0
  -16.6392    1.9047  -15.9104 C   0  0  0  0  0  0  0  0  0  0  0  0
  -17.3309    3.0832  -16.1920 C   0  0  0  0  0  0  0  0  0  0  0  0
  -18.6257    3.2738  -15.7074 C   0  0  0  0  0  0  0  0  0  0  0  0
  -19.2602    2.2771  -14.9574 C   0  0  0  0  0  0  0  0  0  0  0  0
  -18.5624    1.0853  -14.7151 C   0  0  0  0  0  0  0  0  0  0  0  0
  -15.9560    0.1336  -12.5872 O   0  0  0  0  0  0  0  0  0  0  0  0
  -16.0417   -0.5984  -13.5649 C   0  0  0  0  0  0  0  0  0  0  0  0
  -15.5552   -1.8888  -13.5418 N   0  0  0  0  0  0  0  0  0  0  0  0
  -16.6082   -0.2987  -14.7807 N   0  0  0  0  0  0  0  0  0  0  0  0
  -15.2598   -2.2665  -14.4309 H   0  0  0  0  0  0  0  0  0  0  0  0
  -16.6264   -1.0470  -15.4571 H   0  0  0  0  0  0  0  0  0  0  0  0
  -14.7806   -2.3215  -12.3739 C   0  0  0  0  0  0  0  0  0  0  0  0
  -15.5817   -3.1059  -11.3258 C   0  0  0  0  0  0  0  0  0  0  0  0
  -15.9453   -2.3242  -10.2815 F   0  0  0  0  0  0  0  0  0  0  0  0
  -16.6942   -3.6665  -11.8398 F   0  0  0  0  0  0  0  0  0  0  0  0
  -14.8196   -4.1050  -10.8153 F   0  0  0  0  0  0  0  0  0  0  0  0
  -24.7489   -0.6977  -12.3283 C   0  0  0  0  0  0  0  0  0  0  0  0
  -25.9312   -0.9648  -13.0012 C   0  0  0  0  0  0  0  0  0  0  0  0
  -26.9869   -1.5540  -12.3135 C   0  0  0  0  0  0  0  0  0  0  0  0
  -26.8634   -1.8217  -10.9610 C   0  0  0  0  0  0  0  0  0  0  0  0
  -25.6987   -1.5604  -10.3336 N   0  0  0  0  0  0  0  0  0  0  0  0
  -24.6295   -1.0066  -11.0198 N   0  0  0  0  0  0  0  0  0  0  0  0
  -28.0227   -2.2228  -10.2847 N   0  0  0  0  0  0  0  0  0  0  0  0
  -28.3082   -3.1597  -10.5547 H   0  0  0  0  0  0  0  0  0  0  0  0
  -28.0717   -1.9697   -8.8425 C   0  0  0  0  0  0  0  0  0  0  0  0
  -28.2260   -3.3062   -8.1002 C   0  0  0  0  0  0  0  0  0  0  0  0
  -27.5801   -4.3447   -8.8438 O   0  0  0  0  0  0  0  0  0  0  0  0
  -27.9033   -4.2198   -9.7587 H   0  0  0  0  0  0  0  0  0  0  0  0
 16 17  2  0  0  0
 17 18  1  0  0  0
 17 19  1  0  0  0
 18 22  1  0  0  0
 18 20  1  0  0  0
 22 23  1  0  0  0
 23 24  1  0  0  0
 23 25  1  0  0  0
 23 26  1  0  0  0
 19 10  1  0  0  0
 19 21  1  0  0  0
 10 11  1  0  0  0
 10 15  2  0  0  0
 11 12  2  0  0  0
 12 13  1  0  0  0
 13 14  2  0  0  0
 14  1  1  0  0  0
 14 15  1  0  0  0
  1  2  2  0  0  0
  1  9  1  0  0  0
  2  3  1  0  0  0
  3  4  2  0  0  0
  4  5  1  0  0  0
  4  9  1  0  0  0
  5  6  2  0  0  0
  6 27  1  0  0  0
  6  7  1  0  0  0
 27 28  1  0  0  0
 27 32  2  0  0  0
 28 29  2  0  0  0
 29 30  1  0  0  0
 30 33  1  0  0  0
 30 31  2  0  0  0
 33 35  1  0  0  0
 33 34  1  0  0  0
 35 36  1  0  0  0
 36 37  1  0  0  0
 37 38  1  0  0  0
 31 32  1  0  0  0
  7  8  2  0  0  0
  8  9  1  0  0  0
M  END
> <minimizedAffinity>
-9.98519

$$$$
