CHEMBL525443


 38 42  0  0  0  0  0  0  0  0999 V2000
  -27.7577   -2.5757   -8.7781 C   0  0  0  0  0  0  0  0  0  0  0  0
  -28.1526   -2.1695   -7.4837 C   0  0  0  0  0  0  0  0  0  0  0  0
  -28.5690   -3.1056   -6.5247 C   0  0  0  0  0  0  0  0  0  0  0  0
  -28.6024   -4.4442   -6.8750 C   0  0  0  0  0  0  0  0  0  0  0  0
  -28.1830   -4.8228   -8.1567 C   0  0  0  0  0  0  0  0  0  0  0  0
  -27.7533   -3.9302   -9.1157 C   0  0  0  0  0  0  0  0  0  0  0  0
  -28.2935   -6.1916   -8.3324 N   0  0  0  0  0  0  0  0  0  0  0  0
  -28.8487   -6.7994   -7.2225 C   0  0  0  0  0  0  0  0  0  0  0  0
  -29.2245   -7.9544   -7.1868 O   0  0  0  0  0  0  0  0  0  0  0  0
  -28.9745   -5.6975   -6.1820 C   0  0  0  0  0  0  0  0  0  0  0  0
  -29.3511   -5.9399   -4.9053 C   0  0  0  0  0  0  0  0  0  0  0  0
  -28.1245   -6.6976   -9.1878 H   0  0  0  0  0  0  0  0  0  0  0  0
  -29.7164   -4.8204   -4.0113 C   0  0  0  0  0  0  0  0  0  0  0  0
  -28.7041   -4.0578   -3.4172 C   0  0  0  0  0  0  0  0  0  0  0  0
  -29.0268   -2.9863   -2.5823 C   0  0  0  0  0  0  0  0  0  0  0  0
  -30.3641   -2.6687   -2.3460 C   0  0  0  0  0  0  0  0  0  0  0  0
  -31.3776   -3.4168   -2.9407 C   0  0  0  0  0  0  0  0  0  0  0  0
  -31.0589   -4.4872   -3.7805 C   0  0  0  0  0  0  0  0  0  0  0  0
  -27.2851   -1.6156   -9.8065 C   0  0  0  0  0  0  0  0  0  0  0  0
  -28.0343   -0.9746  -10.5252 O   0  0  0  0  0  0  0  0  0  0  0  0
  -25.9342   -1.6550   -9.8852 O   0  0  0  0  0  0  0  0  0  0  0  0
  -24.9518   -0.4412  -11.6808 C   0  0  0  0  0  0  0  0  0  0  0  0
  -25.4126   -1.8094  -11.2100 C   0  0  0  0  0  0  0  0  0  0  0  0
  -29.4982   -7.1757   -4.2897 N   0  0  0  0  0  0  0  0  0  0  0  0
  -30.2455   -7.2332   -3.6052 H   0  0  0  0  0  0  0  0  0  0  0  0
  -28.4673   -8.1157   -4.0568 C   0  0  0  0  0  0  0  0  0  0  0  0
  -27.1153   -7.8379   -4.3156 C   0  0  0  0  0  0  0  0  0  0  0  0
  -26.1619   -8.8548   -4.3172 C   0  0  0  0  0  0  0  0  0  0  0  0
  -26.5290  -10.1756   -4.0413 C   0  0  0  0  0  0  0  0  0  0  0  0
  -27.8577  -10.4440   -3.6861 C   0  0  0  0  0  0  0  0  0  0  0  0
  -28.8161   -9.4245   -3.6987 C   0  0  0  0  0  0  0  0  0  0  0  0
  -25.5435  -11.3029   -4.2588 C   0  0  0  0  0  0  0  0  0  0  0  0
  -24.1226  -10.9455   -4.0540 N   0  0  0  0  0  0  0  0  0  0  0  0
  -23.6762  -11.3793   -2.7202 C   0  0  0  0  0  0  0  0  0  0  0  0
  -22.1711  -11.2091   -2.5130 C   0  0  0  0  0  0  0  0  0  0  0  0
  -21.3919  -11.9420   -3.5942 C   0  0  0  0  0  0  0  0  0  0  0  0
  -21.8219  -11.4259   -4.9585 C   0  0  0  0  0  0  0  0  0  0  0  0
  -23.3339  -11.5522   -5.1416 C   0  0  0  0  0  0  0  0  0  0  0  0
 22 23  1  0  0  0
 23 21  1  0  0  0
 21 19  1  0  0  0
 19 20  2  0  0  0
 19  1  1  0  0  0
  1  2  1  0  0  0
  1  6  2  0  0  0
  2  3  2  0  0  0
  3  4  1  0  0  0
  4  5  2  0  0  0
  4 10  1  0  0  0
  5  6  1  0  0  0
  5  7  1  0  0  0
  7  8  1  0  0  0
  7 12  1  0  0  0
  8  9  2  0  0  0
  8 10  1  0  0  0
 10 11  2  0  0  0
 11 24  1  0  0  0
 11 13  1  0  0  0
 24 26  1  0  0  0
 24 25  1  0  0  0
 26 27  1  0  0  0
 26 31  2  0  0  0
 27 28  2  0  0  0
 28 29  1  0  0  0
 29 32  1  0  0  0
 29 30  2  0  0  0
 32 33  1  0  0  0
 33 34  1  0  0  0
 33 38  1  0  0  0
 34 35  1  0  0  0
 35 36  1  0  0  0
 36 37  1  0  0  0
 37 38  1  0  0  0
 30 31  1  0  0  0
 13 14  1  0  0  0
 13 18  2  0  0  0
 14 15  2  0  0  0
 15 16  1  0  0  0
 16 17  2  0  0  0
 17 18  1  0  0  0
M  END
> <minimizedAffinity>
-8.79667

$$$$
