CHEMBL2386816


 41 45  0  0  0  0  0  0  0  0999 V2000
  -25.8456   -1.8434  -11.3618 C   0  0  0  0  0  0  0  0  0  0  0  0
  -24.6760   -1.1287  -11.3965 C   0  0  0  0  0  0  0  0  0  0  0  0
  -24.4743   -0.7430  -12.7549 C   0  0  0  0  0  0  0  0  0  0  0  0
  -25.4928   -1.1759  -13.5108 N   0  0  0  0  0  0  0  0  0  0  0  0
  -26.2566   -1.8703  -12.6667 N   0  0  0  0  0  0  0  0  0  0  0  0
  -27.0966   -2.3117  -13.0448 H   0  0  0  0  0  0  0  0  0  0  0  0
  -23.3325   -0.0102  -13.2978 C   0  0  0  0  0  0  0  0  0  0  0  0
  -22.3251   -0.7291  -13.9432 C   0  0  0  0  0  0  0  0  0  0  0  0
  -21.2262   -0.0827  -14.5008 C   0  0  0  0  0  0  0  0  0  0  0  0
  -21.0927    1.2910  -14.4035 C   0  0  0  0  0  0  0  0  0  0  0  0
  -22.0961    2.0322  -13.7851 C   0  0  0  0  0  0  0  0  0  0  0  0
  -23.2208    1.3866  -13.2328 C   0  0  0  0  0  0  0  0  0  0  0  0
  -19.9578    1.9470  -14.9094 N   0  0  0  0  0  0  0  0  0  0  0  0
  -19.8730    3.2501  -15.3676 C   0  0  0  0  0  0  0  0  0  0  0  0
  -20.7775    4.0849  -15.3862 O   0  0  0  0  0  0  0  0  0  0  0  0
  -18.6076    3.6745  -15.6546 N   0  0  0  0  0  0  0  0  0  0  0  0
  -19.1094    1.4065  -14.9963 H   0  0  0  0  0  0  0  0  0  0  0  0
  -18.4746    4.6619  -15.5065 H   0  0  0  0  0  0  0  0  0  0  0  0
  -17.5056    2.8412  -15.7640 C   0  0  0  0  0  0  0  0  0  0  0  0
  -16.4850    3.2350  -16.6072 C   0  0  0  0  0  0  0  0  0  0  0  0
  -15.3711    2.4137  -16.7109 C   0  0  0  0  0  0  0  0  0  0  0  0
  -15.3391    1.2129  -16.0096 C   0  0  0  0  0  0  0  0  0  0  0  0
  -16.3967    0.9149  -15.1699 C   0  0  0  0  0  0  0  0  0  0  0  0
  -17.4533    1.7315  -14.9968 N   0  0  0  0  0  0  0  0  0  0  0  0
  -27.6071   -1.8060   -9.6202 C   0  0  0  0  0  0  0  0  0  0  0  0
  -28.0566   -0.7452  -10.0217 O   0  0  0  0  0  0  0  0  0  0  0  0
  -26.4791   -2.4289  -10.2700 N   0  0  0  0  0  0  0  0  0  0  0  0
  -26.1371   -3.3216   -9.9429 H   0  0  0  0  0  0  0  0  0  0  0  0
  -29.3739   -3.6585   -6.1456 C   0  0  0  0  0  0  0  0  0  0  0  0
  -29.6566   -4.1316   -7.4389 C   0  0  0  0  0  0  0  0  0  0  0  0
  -29.0932   -3.5648   -8.5869 C   0  0  0  0  0  0  0  0  0  0  0  0
  -28.2171   -2.4903   -8.4573 C   0  0  0  0  0  0  0  0  0  0  0  0
  -27.9217   -1.9968   -7.1800 C   0  0  0  0  0  0  0  0  0  0  0  0
  -28.4810   -2.5890   -6.0420 C   0  0  0  0  0  0  0  0  0  0  0  0
  -32.8875   -5.5518   -2.2778 C   0  0  0  0  0  0  0  0  0  0  0  0
  -31.6017   -5.3213   -2.9283 N   0  0  0  0  0  0  0  0  0  0  0  0
  -31.5729   -5.9361   -4.2756 C   0  0  0  0  0  0  0  0  0  0  0  0
  -30.2172   -5.7107   -4.9911 C   0  0  0  0  0  0  0  0  0  0  0  0
  -29.9388   -4.2675   -5.0501 N   0  0  0  0  0  0  0  0  0  0  0  0
  -29.9717   -3.5926   -3.7395 C   0  0  0  0  0  0  0  0  0  0  0  0
  -31.3239   -3.8728   -3.0488 C   0  0  0  0  0  0  0  0  0  0  0  0
 35 36  1  0  0  0
 36 37  1  0  0  0
 36 41  1  0  0  0
 37 38  1  0  0  0
 38 39  1  0  0  0
 39 29  1  0  0  0
 39 40  1  0  0  0
 29 30  1  0  0  0
 29 34  2  0  0  0
 30 31  2  0  0  0
 31 32  1  0  0  0
 32 25  1  0  0  0
 32 33  2  0  0  0
 25 26  2  0  0  0
 25 27  1  0  0  0
 27  1  1  0  0  0
 27 28  1  0  0  0
  1  2  2  0  0  0
  1  5  1  0  0  0
  2  3  1  0  0  0
  3  7  1  0  0  0
  3  4  2  0  0  0
  7  8  1  0  0  0
  7 12  2  0  0  0
  8  9  2  0  0  0
  9 10  1  0  0  0
 10 13  1  0  0  0
 10 11  2  0  0  0
 13 14  1  0  0  0
 13 17  1  0  0  0
 14 15  2  0  0  0
 14 16  1  0  0  0
 16 19  1  0  0  0
 16 18  1  0  0  0
 19 20  1  0  0  0
 19 24  2  0  0  0
 20 21  2  0  0  0
 21 22  1  0  0  0
 22 23  2  0  0  0
 23 24  1  0  0  0
 11 12  1  0  0  0
  4  5  1  0  0  0
  5  6  1  0  0  0
 33 34  1  0  0  0
 40 41  1  0  0  0
M  END
> <minimizedAffinity>
-10.60942

$$$$
