CHEMBL213743


 26 30  0  0  0  0  0  0  0  0999 V2000
  -21.7190    0.9600  -14.3038 C   0  0  0  0  0  0  0  0  0  0  0  0
  -21.9849    2.3547  -14.2643 C   0  0  0  0  0  0  0  0  0  0  0  0
  -21.0312    3.3005  -14.6423 C   0  0  0  0  0  0  0  0  0  0  0  0
  -19.7860    2.8406  -15.0215 C   0  0  0  0  0  0  0  0  0  0  0  0
  -19.4982    1.4475  -15.0125 C   0  0  0  0  0  0  0  0  0  0  0  0
  -20.4443    0.5006  -14.6793 C   0  0  0  0  0  0  0  0  0  0  0  0
  -18.1322    1.3653  -15.3927 C   0  0  0  0  0  0  0  0  0  0  0  0
  -17.1344    0.4723  -15.5279 N   0  0  0  0  0  0  0  0  0  0  0  0
  -15.9706    1.0730  -15.8970 N   0  0  0  0  0  0  0  0  0  0  0  0
  -16.2731    2.3876  -15.9681 C   0  0  0  0  0  0  0  0  0  0  0  0
  -17.6154    2.6075  -15.6417 C   0  0  0  0  0  0  0  0  0  0  0  0
  -18.6033    3.7067  -15.4791 C   0  0  0  0  0  0  0  0  0  0  0  0
  -17.1438   -0.5311  -15.3837 H   0  0  0  0  0  0  0  0  0  0  0  0
  -15.3028    3.4287  -16.3382 C   0  0  0  0  0  0  0  0  0  0  0  0
  -15.4691    4.2555  -17.4926 C   0  0  0  0  0  0  0  0  0  0  0  0
  -14.4471    5.1691  -17.6353 C   0  0  0  0  0  0  0  0  0  0  0  0
  -13.2843    5.0332  -16.3899 S   0  0  0  0  0  0  0  0  0  0  0  0
  -14.1470    3.7512  -15.6541 C   0  0  0  0  0  0  0  0  0  0  0  0
  -22.8263   -0.0185  -13.9524 C   0  0  0  0  0  0  0  0  0  0  0  0
  -26.9446   -1.9163  -12.4163 C   0  0  0  0  0  0  0  0  0  0  0  0
  -25.6067   -1.5263  -11.9804 N   0  0  0  0  0  0  0  0  0  0  0  0
  -24.5752   -2.2875  -12.7042 C   0  0  0  0  0  0  0  0  0  0  0  0
  -23.1511   -1.8391  -12.3027 C   0  0  0  0  0  0  0  0  0  0  0  0
  -22.8754   -0.4023  -12.5293 N   0  0  0  0  0  0  0  0  0  0  0  0
  -23.9340    0.3597  -11.8212 C   0  0  0  0  0  0  0  0  0  0  0  0
  -25.3892   -0.0769  -12.1457 C   0  0  0  0  0  0  0  0  0  0  0  0
 20 21  1  0  0  0
 21 22  1  0  0  0
 21 26  1  0  0  0
 22 23  1  0  0  0
 23 24  1  0  0  0
 24 19  1  0  0  0
 24 25  1  0  0  0
 19  1  1  0  0  0
  1  2  1  0  0  0
  1  6  2  0  0  0
  2  3  2  0  0  0
  3  4  1  0  0  0
  4  5  2  0  0  0
  4 12  1  0  0  0
  5  6  1  0  0  0
  5  7  1  0  0  0
  7  8  1  0  0  0
  7 11  2  0  0  0
  8  9  1  0  0  0
  8 13  1  0  0  0
  9 10  2  0  0  0
 10 14  1  0  0  0
 10 11  1  0  0  0
 14 15  1  0  0  0
 14 18  2  0  0  0
 15 16  2  0  0  0
 16 17  1  0  0  0
 17 18  1  0  0  0
 11 12  1  0  0  0
 25 26  1  0  0  0
M  END
> <minimizedAffinity>
-9.66957

$$$$
