CHEMBL2088102


 28 30  0  0  0  0  0  0  0  0999 V2000
  -29.3965   -3.6165   -6.1443 C   0  0  0  0  0  0  0  0  0  0  0  0
  -29.2062   -3.5697   -7.4867 N   0  0  0  0  0  0  0  0  0  0  0  0
  -28.2805   -2.7345   -7.9861 C   0  0  0  0  0  0  0  0  0  0  0  0
  -27.5433   -1.9196   -7.2248 N   0  0  0  0  0  0  0  0  0  0  0  0
  -27.7945   -1.9282   -5.9071 C   0  0  0  0  0  0  0  0  0  0  0  0
  -28.7022   -2.7605   -5.3045 C   0  0  0  0  0  0  0  0  0  0  0  0
  -28.9047   -2.7284   -3.4262 Br  0  0  0  0  0  0  0  0  0  0  0  0
  -30.2247   -4.6206   -5.5785 N   0  0  0  0  0  0  0  0  0  0  0  0
  -31.1940   -4.3349   -5.4716 H   0  0  0  0  0  0  0  0  0  0  0  0
  -28.1562   -8.8234   -4.0062 C   0  0  0  0  0  0  0  0  0  0  0  0
  -29.0044   -7.7913   -4.6219 C   0  0  0  0  0  0  0  0  0  0  0  0
  -28.9291   -6.4186   -4.5546 C   0  0  0  0  0  0  0  0  0  0  0  0
  -29.9579   -5.9329   -5.3760 C   0  0  0  0  0  0  0  0  0  0  0  0
  -30.6854   -6.9319   -5.8873 N   0  0  0  0  0  0  0  0  0  0  0  0
  -30.0866   -8.0390   -5.4180 N   0  0  0  0  0  0  0  0  0  0  0  0
  -30.4714   -8.9448   -5.6808 H   0  0  0  0  0  0  0  0  0  0  0  0
  -28.1186   -2.6870   -9.3472 N   0  0  0  0  0  0  0  0  0  0  0  0
  -28.7539   -3.2506   -9.8919 H   0  0  0  0  0  0  0  0  0  0  0  0
  -26.9630   -2.0479   -9.9396 C   0  0  0  0  0  0  0  0  0  0  0  0
  -27.3454   -1.2413  -11.1860 C   0  0  0  0  0  0  0  0  0  0  0  0
  -26.7392   -1.8520  -12.4541 C   0  0  0  0  0  0  0  0  0  0  0  0
  -25.3083   -1.4724  -12.6527 C   0  0  0  0  0  0  0  0  0  0  0  0
  -24.3302   -1.3299  -11.6903 C   0  0  0  0  0  0  0  0  0  0  0  0
  -23.1823   -1.0082  -12.3500 N   0  0  0  0  0  0  0  0  0  0  0  0
  -23.3395   -0.9087  -13.6772 N   0  0  0  0  0  0  0  0  0  0  0  0
  -24.6336   -1.1882  -13.8749 C   0  0  0  0  0  0  0  0  0  0  0  0
  -25.1969   -1.1773  -15.2475 C   0  0  0  0  0  0  0  0  0  0  0  0
  -22.2584   -0.8462  -11.9634 H   0  0  0  0  0  0  0  0  0  0  0  0
 10 11  1  0  0  0
 11 12  2  0  0  0
 11 15  1  0  0  0
 12 13  1  0  0  0
 13  8  1  0  0  0
 13 14  2  0  0  0
  8  1  1  0  0  0
  8  9  1  0  0  0
  1  2  1  0  0  0
  1  6  2  0  0  0
  2  3  2  0  0  0
  3 17  1  0  0  0
  3  4  1  0  0  0
 17 19  1  0  0  0
 17 18  1  0  0  0
 19 20  1  0  0  0
 20 21  1  0  0  0
 21 22  1  0  0  0
 22 23  2  0  0  0
 22 26  1  0  0  0
 23 24  1  0  0  0
 24 25  1  0  0  0
 24 28  1  0  0  0
 25 26  2  0  0  0
 26 27  1  0  0  0
  4  5  2  0  0  0
  5  6  1  0  0  0
  6  7  1  0  0  0
 14 15  1  0  0  0
 15 16  1  0  0  0
M  END
> <minimizedAffinity>
-7.97157

$$$$
