CHEMBL2001751


 40 45  0  0  0  0  0  0  0  0999 V2000
  -14.9392   -0.4027  -14.3115 C   0  0  0  0  0  0  0  0  0  0  0  0
  -14.2082   -0.0336  -15.4301 C   0  0  0  0  0  0  0  0  0  0  0  0
  -14.6492    0.8349  -16.3740 N   0  0  0  0  0  0  0  0  0  0  0  0
  -15.8882    1.3601  -16.1956 C   0  0  0  0  0  0  0  0  0  0  0  0
  -16.7315    1.0701  -15.1238 C   0  0  0  0  0  0  0  0  0  0  0  0
  -16.2094    0.1693  -14.1738 C   0  0  0  0  0  0  0  0  0  0  0  0
  -18.0905    1.6529  -14.9732 C   0  0  0  0  0  0  0  0  0  0  0  0
  -18.3245    3.0173  -15.2974 C   0  0  0  0  0  0  0  0  0  0  0  0
  -19.5750    3.6240  -15.1398 C   0  0  0  0  0  0  0  0  0  0  0  0
  -20.6015    2.8389  -14.6707 C   0  0  0  0  0  0  0  0  0  0  0  0
  -20.4310    1.4917  -14.3455 C   0  0  0  0  0  0  0  0  0  0  0  0
  -19.1834    0.8903  -14.4881 C   0  0  0  0  0  0  0  0  0  0  0  0
  -21.7557    1.0184  -13.9030 C   0  0  0  0  0  0  0  0  0  0  0  0
  -22.0715   -0.2252  -13.5148 C   0  0  0  0  0  0  0  0  0  0  0  0
  -22.6985    2.1988  -13.9950 C   0  0  0  0  0  0  0  0  0  0  0  0
  -23.8767    2.2659  -13.7119 O   0  0  0  0  0  0  0  0  0  0  0  0
  -21.9145    3.2408  -14.4655 N   0  0  0  0  0  0  0  0  0  0  0  0
  -22.2858    4.1652  -14.6278 H   0  0  0  0  0  0  0  0  0  0  0  0
  -23.3981   -0.6066  -13.1771 C   0  0  0  0  0  0  0  0  0  0  0  0
  -24.3895   -1.1818  -13.9645 C   0  0  0  0  0  0  0  0  0  0  0  0
  -25.5366   -1.3617  -13.1536 C   0  0  0  0  0  0  0  0  0  0  0  0
  -25.1957   -0.8870  -11.9139 C   0  0  0  0  0  0  0  0  0  0  0  0
  -23.9259   -0.4139  -11.9204 O   0  0  0  0  0  0  0  0  0  0  0  0
  -14.3619   -1.3023  -13.4453 O   0  0  0  0  0  0  0  0  0  0  0  0
  -15.1999   -2.4034  -13.0715 C   0  0  0  0  0  0  0  0  0  0  0  0
  -13.9205   -2.9885  -11.0060 N   0  0  0  0  0  0  0  0  0  0  0  0
  -15.2502   -2.6469  -11.5399 C   0  0  0  0  0  0  0  0  0  0  0  0
  -13.2507   -2.2814  -11.3109 H   0  0  0  0  0  0  0  0  0  0  0  0
  -13.6000   -3.8743  -11.3920 H   0  0  0  0  0  0  0  0  0  0  0  0
  -16.2767   -3.7794  -11.3014 C   0  0  0  0  0  0  0  0  0  0  0  0
  -16.2077   -4.9767  -12.1979 C   0  0  0  0  0  0  0  0  0  0  0  0
  -16.9482   -5.1827  -13.3457 C   0  0  0  0  0  0  0  0  0  0  0  0
  -16.4785   -6.3066  -13.9668 N   0  0  0  0  0  0  0  0  0  0  0  0
  -15.4125   -6.8272  -13.2727 C   0  0  0  0  0  0  0  0  0  0  0  0
  -14.5688   -7.8999  -13.5834 C   0  0  0  0  0  0  0  0  0  0  0  0
  -13.5621   -8.2232  -12.6693 C   0  0  0  0  0  0  0  0  0  0  0  0
  -13.4270   -7.5173  -11.4774 C   0  0  0  0  0  0  0  0  0  0  0  0
  -14.2696   -6.4353  -11.1895 C   0  0  0  0  0  0  0  0  0  0  0  0
  -15.2685   -6.0607  -12.1133 C   0  0  0  0  0  0  0  0  0  0  0  0
  -16.8312   -6.6859  -14.8331 H   0  0  0  0  0  0  0  0  0  0  0  0
 26 27  1  0  0  0
 26 28  1  0  0  0
 26 29  1  0  0  0
 27 25  1  0  0  0
 27 30  1  0  0  0
 25 24  1  0  0  0
 24  1  1  0  0  0
  1  2  1  0  0  0
  1  6  2  0  0  0
  2  3  2  0  0  0
  3  4  1  0  0  0
  4  5  2  0  0  0
  5  7  1  0  0  0
  5  6  1  0  0  0
  7  8  1  0  0  0
  7 12  2  0  0  0
  8  9  2  0  0  0
  9 10  1  0  0  0
 10 11  2  0  0  0
 10 17  1  0  0  0
 11 12  1  0  0  0
 11 13  1  0  0  0
 13 14  2  0  0  0
 13 15  1  0  0  0
 14 19  1  0  0  0
 19 20  2  0  0  0
 19 23  1  0  0  0
 20 21  1  0  0  0
 21 22  2  0  0  0
 22 23  1  0  0  0
 15 16  2  0  0  0
 15 17  1  0  0  0
 17 18  1  0  0  0
 30 31  1  0  0  0
 31 32  2  0  0  0
 31 39  1  0  0  0
 32 33  1  0  0  0
 33 34  1  0  0  0
 33 40  1  0  0  0
 34 35  1  0  0  0
 34 39  2  0  0  0
 35 36  2  0  0  0
 36 37  1  0  0  0
 37 38  2  0  0  0
 38 39  1  0  0  0
M  END
> <minimizedAffinity>
-11.60532

$$$$
