CHEMBL3900858


 42 46  0  0  0  0  0  0  0  0999 V2000
  -13.1255    0.4258  -15.1298 C   0  0  0  0  0  0  0  0  0  0  0  0
  -13.0403   -0.9664  -15.1122 C   0  0  0  0  0  0  0  0  0  0  0  0
  -13.0284   -1.7124  -16.3086 C   0  0  0  0  0  0  0  0  0  0  0  0
  -12.8367   -3.1042  -16.3667 C   0  0  0  0  0  0  0  0  0  0  0  0
  -12.7704   -3.7616  -17.5400 N   0  0  0  0  0  0  0  0  0  0  0  0
  -12.9238   -3.0314  -18.6461 C   0  0  0  0  0  0  0  0  0  0  0  0
  -13.1224   -1.7100  -18.7020 N   0  0  0  0  0  0  0  0  0  0  0  0
  -13.1621   -1.0544  -17.5360 C   0  0  0  0  0  0  0  0  0  0  0  0
  -13.3273    0.3289  -17.5333 C   0  0  0  0  0  0  0  0  0  0  0  0
  -13.3320    1.0827  -16.3492 C   0  0  0  0  0  0  0  0  0  0  0  0
  -11.8087    1.0159  -13.2434 C   0  0  0  0  0  0  0  0  0  0  0  0
  -13.0259    1.1477  -13.9772 O   0  0  0  0  0  0  0  0  0  0  0  0
  -12.6880   -3.8411  -15.1579 N   0  0  0  0  0  0  0  0  0  0  0  0
  -11.9386   -3.4335  -14.6085 H   0  0  0  0  0  0  0  0  0  0  0  0
  -13.7645   -4.2993  -14.3678 C   0  0  0  0  0  0  0  0  0  0  0  0
  -14.4001   -5.5128  -14.6632 C   0  0  0  0  0  0  0  0  0  0  0  0
  -15.5137   -5.9370  -13.9374 C   0  0  0  0  0  0  0  0  0  0  0  0
  -16.0055   -5.1515  -12.8955 C   0  0  0  0  0  0  0  0  0  0  0  0
  -17.4241   -5.6995  -12.0774 Cl  0  0  0  0  0  0  0  0  0  0  0  0
  -15.3542   -3.9594  -12.5604 C   0  0  0  0  0  0  0  0  0  0  0  0
  -15.9004   -2.9396  -11.2753 Cl  0  0  0  0  0  0  0  0  0  0  0  0
  -14.2298   -3.5434  -13.2860 C   0  0  0  0  0  0  0  0  0  0  0  0
  -13.4644    2.4420  -16.5366 O   0  0  0  0  0  0  0  0  0  0  0  0
  -14.4601    2.8358  -17.4881 C   0  0  0  0  0  0  0  0  0  0  0  0
  -15.7362    3.1534  -16.7962 C   0  0  0  0  0  0  0  0  0  0  0  0
  -16.6455    2.3227  -16.3337 N   0  0  0  0  0  0  0  0  0  0  0  0
  -17.4272    3.1295  -15.5508 C   0  0  0  0  0  0  0  0  0  0  0  0
  -17.0458    4.4156  -15.5557 N   0  0  0  0  0  0  0  0  0  0  0  0
  -15.9163    4.4337  -16.3678 O   0  0  0  0  0  0  0  0  0  0  0  0
  -18.4447    2.5867  -14.8467 N   0  0  0  0  0  0  0  0  0  0  0  0
  -18.6022    1.1401  -14.6482 C   0  0  0  0  0  0  0  0  0  0  0  0
  -19.9832    0.6530  -15.1515 C   0  0  0  0  0  0  0  0  0  0  0  0
  -21.0718    1.5292  -14.7033 N   0  0  0  0  0  0  0  0  0  0  0  0
  -22.2312    1.1336  -14.0723 C   0  0  0  0  0  0  0  0  0  0  0  0
  -23.0970    1.9378  -13.7510 O   0  0  0  0  0  0  0  0  0  0  0  0
  -20.8573    2.9589  -14.9498 C   0  0  0  0  0  0  0  0  0  0  0  0
  -19.5327    3.4184  -14.3285 C   0  0  0  0  0  0  0  0  0  0  0  0
  -22.3104   -0.2075  -13.8376 O   0  0  0  0  0  0  0  0  0  0  0  0
  -23.5515   -0.7464  -13.2967 C   0  0  0  0  0  0  0  0  0  0  0  0
  -24.6019   -0.9542  -14.3983 C   0  0  0  0  0  0  0  0  0  0  0  0
  -23.2084   -2.1269  -12.7090 C   0  0  0  0  0  0  0  0  0  0  0  0
  -24.0824    0.1255  -12.1474 C   0  0  0  0  0  0  0  0  0  0  0  0
 11 12  1  0  0  0
 12  1  1  0  0  0
  1  2  1  0  0  0
  1 10  2  0  0  0
  2  3  2  0  0  0
  3  4  1  0  0  0
  3  8  1  0  0  0
  4 13  1  0  0  0
  4  5  2  0  0  0
 13 15  1  0  0  0
 13 14  1  0  0  0
 15 16  1  0  0  0
 15 22  2  0  0  0
 16 17  2  0  0  0
 17 18  1  0  0  0
 18 19  1  0  0  0
 18 20  2  0  0  0
 20 21  1  0  0  0
 20 22  1  0  0  0
  5  6  1  0  0  0
  6  7  2  0  0  0
  7  8  1  0  0  0
  8  9  2  0  0  0
  9 10  1  0  0  0
 10 23  1  0  0  0
 23 24  1  0  0  0
 24 25  1  0  0  0
 25 26  2  0  0  0
 25 29  1  0  0  0
 26 27  1  0  0  0
 27 30  1  0  0  0
 27 28  2  0  0  0
 30 31  1  0  0  0
 30 37  1  0  0  0
 31 32  1  0  0  0
 32 33  1  0  0  0
 33 34  1  0  0  0
 33 36  1  0  0  0
 34 35  2  0  0  0
 34 38  1  0  0  0
 38 39  1  0  0  0
 39 40  1  0  0  0
 39 41  1  0  0  0
 39 42  1  0  0  0
 36 37  1  0  0  0
 28 29  1  0  0  0
M  END
> <minimizedAffinity>
-8.71623

$$$$
