CHEMBL2204532


 42 46  0  0  0  0  0  0  0  0999 V2000
  -28.8347   -4.8597   -7.2674 C   0  0  0  0  0  0  0  0  0  0  0  0
  -28.8397   -4.0305   -6.1381 C   0  0  0  0  0  0  0  0  0  0  0  0
  -28.3327   -2.7322   -6.2006 C   0  0  0  0  0  0  0  0  0  0  0  0
  -27.7814   -2.2462   -7.3838 C   0  0  0  0  0  0  0  0  0  0  0  0
  -27.4105   -0.9604   -7.3871 F   0  0  0  0  0  0  0  0  0  0  0  0
  -27.7122   -3.0479   -8.5252 C   0  0  0  0  0  0  0  0  0  0  0  0
  -28.2668   -4.3402   -8.4533 C   0  0  0  0  0  0  0  0  0  0  0  0
  -27.1505   -2.6694   -9.7716 N   0  0  0  0  0  0  0  0  0  0  0  0
  -27.5414   -1.6235  -10.5886 C   0  0  0  0  0  0  0  0  0  0  0  0
  -28.4394   -0.8266  -10.3370 O   0  0  0  0  0  0  0  0  0  0  0  0
  -26.3097   -3.1718  -10.0354 H   0  0  0  0  0  0  0  0  0  0  0  0
  -26.8188   -1.4519  -11.8969 C   0  0  0  0  0  0  0  0  0  0  0  0
  -27.5113   -1.8484  -13.0564 C   0  0  0  0  0  0  0  0  0  0  0  0
  -26.8658   -1.8912  -14.2886 C   0  0  0  0  0  0  0  0  0  0  0  0
  -25.4855   -1.7072  -14.3415 C   0  0  0  0  0  0  0  0  0  0  0  0
  -24.7679   -1.3545  -13.1930 C   0  0  0  0  0  0  0  0  0  0  0  0
  -25.4922   -1.0236  -12.0375 C   0  0  0  0  0  0  0  0  0  0  0  0
  -24.8958    0.2678  -11.0213 Cl  0  0  0  0  0  0  0  0  0  0  0  0
  -23.4142   -1.3019  -13.3757 O   0  0  0  0  0  0  0  0  0  0  0  0
  -22.6452   -0.0587  -13.4417 C   0  0  0  0  0  0  0  0  0  0  0  0
  -23.6088    1.1014  -13.7585 C   0  0  0  0  0  0  0  0  0  0  0  0
  -22.1044    0.1323  -12.0197 C   0  0  0  0  0  0  0  0  0  0  0  0
  -21.5613    0.0476  -14.4427 C   0  0  0  0  0  0  0  0  0  0  0  0
  -20.7279    0.1262  -15.2550 N   0  0  0  0  0  0  0  0  0  0  0  0
  -30.8134   -6.3217   -7.3624 C   0  0  0  0  0  0  0  0  0  0  0  0
  -29.3610   -6.1715   -7.2355 N   0  0  0  0  0  0  0  0  0  0  0  0
  -28.6749   -7.3751   -6.8865 C   0  0  0  0  0  0  0  0  0  0  0  0
  -28.3940   -8.2889   -7.9165 C   0  0  0  0  0  0  0  0  0  0  0  0
  -27.7267   -9.4830   -7.6703 C   0  0  0  0  0  0  0  0  0  0  0  0
  -27.3367   -9.7368   -6.3592 C   0  0  0  0  0  0  0  0  0  0  0  0
  -26.6509  -10.8388   -5.9104 N   0  0  0  0  0  0  0  0  0  0  0  0
  -26.4500  -10.7264   -4.6266 C   0  0  0  0  0  0  0  0  0  0  0  0
  -27.1133   -9.3406   -3.8659 S   0  0  0  0  0  0  0  0  0  0  0  0
  -27.6540   -8.7819   -5.3981 C   0  0  0  0  0  0  0  0  0  0  0  0
  -28.2917   -7.6036   -5.5986 N   0  0  0  0  0  0  0  0  0  0  0  0
  -25.7593  -11.5913   -3.8172 N   0  0  0  0  0  0  0  0  0  0  0  0
  -24.3937  -11.4704   -3.6617 C   0  0  0  0  0  0  0  0  0  0  0  0
  -23.6613  -10.6240   -4.1577 O   0  0  0  0  0  0  0  0  0  0  0  0
  -26.2877  -12.2358   -3.2509 H   0  0  0  0  0  0  0  0  0  0  0  0
  -23.8135  -12.4656   -2.7021 C   0  0  0  0  0  0  0  0  0  0  0  0
  -24.2354  -12.4389   -1.2510 C   0  0  0  0  0  0  0  0  0  0  0  0
  -22.8449  -12.0192   -1.6265 C   0  0  0  0  0  0  0  0  0  0  0  0
 25 26  1  0  0  0
 26  1  1  0  0  0
 26 27  1  0  0  0
  1  2  1  0  0  0
  1  7  2  0  0  0
  2  3  2  0  0  0
  3  4  1  0  0  0
  4  5  1  0  0  0
  4  6  2  0  0  0
  6  8  1  0  0  0
  6  7  1  0  0  0
  8  9  1  0  0  0
  8 11  1  0  0  0
  9 10  2  0  0  0
  9 12  1  0  0  0
 12 13  1  0  0  0
 12 17  2  0  0  0
 13 14  2  0  0  0
 14 15  1  0  0  0
 15 16  2  0  0  0
 16 19  1  0  0  0
 16 17  1  0  0  0
 19 20  1  0  0  0
 20 21  1  0  0  0
 20 22  1  0  0  0
 20 23  1  0  0  0
 23 24  3  0  0  0
 17 18  1  0  0  0
 27 28  1  0  0  0
 27 35  2  0  0  0
 28 29  2  0  0  0
 29 30  1  0  0  0
 30 31  1  0  0  0
 30 34  2  0  0  0
 31 32  2  0  0  0
 32 36  1  0  0  0
 32 33  1  0  0  0
 36 37  1  0  0  0
 36 39  1  0  0  0
 37 38  2  0  0  0
 37 40  1  0  0  0
 40 41  1  0  0  0
 40 42  1  0  0  0
 41 42  1  0  0  0
 33 34  1  0  0  0
 34 35  1  0  0  0
M  END
> <minimizedAffinity>
-8.57827

$$$$
