CHEMBL1097368


 30 34  0  0  0  0  0  0  0  0999 V2000
  -28.3082   10.9757  -15.1582 C   0  0  0  0  0  0  0  0  0  0  0  0
  -27.2363   10.5677  -15.9373 C   0  0  0  0  0  0  0  0  0  0  0  0
  -26.0346   11.0520  -15.3386 C   0  0  0  0  0  0  0  0  0  0  0  0
  -24.6549   10.9779  -15.6034 C   0  0  0  0  0  0  0  0  0  0  0  0
  -23.8166   11.6002  -14.7293 N   0  0  0  0  0  0  0  0  0  0  0  0
  -24.3318   12.2455  -13.6676 C   0  0  0  0  0  0  0  0  0  0  0  0
  -25.6303   12.3665  -13.3145 N   0  0  0  0  0  0  0  0  0  0  0  0
  -26.4206   11.7456  -14.2021 C   0  0  0  0  0  0  0  0  0  0  0  0
  -27.7862   11.7046  -14.1172 N   0  0  0  0  0  0  0  0  0  0  0  0
  -28.3027   12.1465  -13.3665 H   0  0  0  0  0  0  0  0  0  0  0  0
  -24.1434   10.3142  -16.7228 N   0  0  0  0  0  0  0  0  0  0  0  0
  -23.9854    9.3278  -16.5751 H   0  0  0  0  0  0  0  0  0  0  0  0
  -23.3350   10.8534  -17.7436 C   0  0  0  0  0  0  0  0  0  0  0  0
  -23.9457   11.5931  -18.7648 C   0  0  0  0  0  0  0  0  0  0  0  0
  -23.2212   12.0783  -19.8611 C   0  0  0  0  0  0  0  0  0  0  0  0
  -21.8407   11.8692  -19.8478 C   0  0  0  0  0  0  0  0  0  0  0  0
  -20.8745   12.1120  -20.7944 N   0  0  0  0  0  0  0  0  0  0  0  0
  -19.6511   12.1698  -20.1812 C   0  0  0  0  0  0  0  0  0  0  0  0
  -19.7836   11.5041  -18.9833 C   0  0  0  0  0  0  0  0  0  0  0  0
  -21.1744   11.2914  -18.7711 C   0  0  0  0  0  0  0  0  0  0  0  0
  -21.9373   10.7162  -17.7415 C   0  0  0  0  0  0  0  0  0  0  0  0
  -21.0473   12.2402  -21.7818 H   0  0  0  0  0  0  0  0  0  0  0  0
  -29.7863   10.7773  -15.2962 C   0  0  0  0  0  0  0  0  0  0  0  0
  -30.5955   11.7120  -14.3929 C   0  0  0  0  0  0  0  0  0  0  0  0
  -34.1437    9.8886  -12.7433 C   0  0  0  0  0  0  0  0  0  0  0  0
  -32.9137    9.7170  -12.1078 C   0  0  0  0  0  0  0  0  0  0  0  0
  -31.7629   10.3052  -12.6468 C   0  0  0  0  0  0  0  0  0  0  0  0
  -31.8305   11.0554  -13.8270 C   0  0  0  0  0  0  0  0  0  0  0  0
  -33.0657   11.1923  -14.4749 C   0  0  0  0  0  0  0  0  0  0  0  0
  -34.2131   10.6089  -13.9353 C   0  0  0  0  0  0  0  0  0  0  0  0
 25 26  1  0  0  0
 25 30  2  0  0  0
 26 27  2  0  0  0
 27 28  1  0  0  0
 28 24  1  0  0  0
 28 29  2  0  0  0
 24 23  1  0  0  0
 23  1  1  0  0  0
  1  2  2  0  0  0
  1  9  1  0  0  0
  2  3  1  0  0  0
  3  4  1  0  0  0
  3  8  2  0  0  0
  4 11  1  0  0  0
  4  5  2  0  0  0
 11 13  1  0  0  0
 11 12  1  0  0  0
 13 14  1  0  0  0
 13 21  2  0  0  0
 14 15  2  0  0  0
 15 16  1  0  0  0
 16 17  1  0  0  0
 16 20  2  0  0  0
 17 18  1  0  0  0
 17 22  1  0  0  0
 18 19  2  0  0  0
 19 20  1  0  0  0
 20 21  1  0  0  0
  5  6  1  0  0  0
  6  7  2  0  0  0
  7  8  1  0  0  0
  8  9  1  0  0  0
  9 10  1  0  0  0
 29 30  1  0  0  0
M  END
> <minimizedAffinity>
-7.24830

$$$$
