CHEMBL593274


 41 46  0  0  0  0  0  0  0  0999 V2000
  -14.6453    0.8397  -13.7700 C   0  0  0  0  0  0  0  0  0  0  0  0
  -15.5653    1.7255  -14.3086 C   0  0  0  0  0  0  0  0  0  0  0  0
  -15.3320    2.3536  -15.5428 C   0  0  0  0  0  0  0  0  0  0  0  0
  -16.1930    3.3213  -16.0696 C   0  0  0  0  0  0  0  0  0  0  0  0
  -15.9930    3.8545  -17.2869 N   0  0  0  0  0  0  0  0  0  0  0  0
  -14.9139    3.4470  -17.9550 C   0  0  0  0  0  0  0  0  0  0  0  0
  -14.0038    2.5598  -17.5203 N   0  0  0  0  0  0  0  0  0  0  0  0
  -14.2209    2.0191  -16.3169 C   0  0  0  0  0  0  0  0  0  0  0  0
  -13.3356    1.0802  -15.8021 C   0  0  0  0  0  0  0  0  0  0  0  0
  -13.5275    0.4821  -14.5448 C   0  0  0  0  0  0  0  0  0  0  0  0
  -15.9311   -0.5637  -12.2951 C   0  0  0  0  0  0  0  0  0  0  0  0
  -14.8241    0.2983  -12.5281 O   0  0  0  0  0  0  0  0  0  0  0  0
  -17.2814    3.7726  -15.2755 N   0  0  0  0  0  0  0  0  0  0  0  0
  -17.4427    4.7577  -15.4522 H   0  0  0  0  0  0  0  0  0  0  0  0
  -18.4605    3.0375  -15.0682 C   0  0  0  0  0  0  0  0  0  0  0  0
  -19.5723    3.6524  -14.4965 C   0  0  0  0  0  0  0  0  0  0  0  0
  -20.7190    2.9194  -14.1965 C   0  0  0  0  0  0  0  0  0  0  0  0
  -20.7974    1.5483  -14.4858 C   0  0  0  0  0  0  0  0  0  0  0  0
  -19.6935    0.9433  -15.1159 C   0  0  0  0  0  0  0  0  0  0  0  0
  -19.6652   -0.7239  -15.5853 Cl  0  0  0  0  0  0  0  0  0  0  0  0
  -18.5397    1.6884  -15.4134 C   0  0  0  0  0  0  0  0  0  0  0  0
  -21.9833    0.7883  -14.0516 C   0  0  0  0  0  0  0  0  0  0  0  0
  -22.9354    0.3602  -14.8533 N   0  0  0  0  0  0  0  0  0  0  0  0
  -23.8519   -0.4026  -14.1562 C   0  0  0  0  0  0  0  0  0  0  0  0
  -24.9905   -1.0246  -14.7025 C   0  0  0  0  0  0  0  0  0  0  0  0
  -25.8138   -1.8059  -13.8853 C   0  0  0  0  0  0  0  0  0  0  0  0
  -25.5134   -1.9723  -12.5369 C   0  0  0  0  0  0  0  0  0  0  0  0
  -24.3975   -1.3520  -11.9679 C   0  0  0  0  0  0  0  0  0  0  0  0
  -23.5845   -0.5638  -12.7975 C   0  0  0  0  0  0  0  0  0  0  0  0
  -22.1784    0.3345  -12.3976 S   0  0  0  0  0  0  0  0  0  0  0  0
  -12.5432   -0.4273  -14.2314 O   0  0  0  0  0  0  0  0  0  0  0  0
  -12.5223   -1.6066  -15.0247 C   0  0  0  0  0  0  0  0  0  0  0  0
  -13.3323   -2.7134  -14.3822 C   0  0  0  0  0  0  0  0  0  0  0  0
  -12.3941   -3.5230  -13.4786 C   0  0  0  0  0  0  0  0  0  0  0  0
  -13.1085   -4.3049  -12.4745 N   0  0  0  0  0  0  0  0  0  0  0  0
  -14.0906   -3.5022  -11.7260 C   0  0  0  0  0  0  0  0  0  0  0  0
  -14.7749   -4.3563  -10.6417 C   0  0  0  0  0  0  0  0  0  0  0  0
  -15.4692   -5.5522  -11.1551 N   0  0  0  0  0  0  0  0  0  0  0  0
  -16.6999   -5.1901  -11.8518 C   0  0  0  0  0  0  0  0  0  0  0  0
  -14.5458   -6.3072  -12.0302 C   0  0  0  0  0  0  0  0  0  0  0  0
  -13.7943   -5.4616  -13.0889 C   0  0  0  0  0  0  0  0  0  0  0  0
 11 12  1  0  0  0
 12  1  1  0  0  0
  1  2  1  0  0  0
  1 10  2  0  0  0
  2  3  2  0  0  0
  3  4  1  0  0  0
  3  8  1  0  0  0
  4 13  1  0  0  0
  4  5  2  0  0  0
 13 15  1  0  0  0
 13 14  1  0  0  0
 15 16  1  0  0  0
 15 21  2  0  0  0
 16 17  2  0  0  0
 17 18  1  0  0  0
 18 22  1  0  0  0
 18 19  2  0  0  0
 22 23  2  0  0  0
 22 30  1  0  0  0
 23 24  1  0  0  0
 24 25  1  0  0  0
 24 29  2  0  0  0
 25 26  2  0  0  0
 26 27  1  0  0  0
 27 28  2  0  0  0
 28 29  1  0  0  0
 29 30  1  0  0  0
 19 20  1  0  0  0
 19 21  1  0  0  0
  5  6  1  0  0  0
  6  7  2  0  0  0
  7  8  1  0  0  0
  8  9  2  0  0  0
  9 10  1  0  0  0
 10 31  1  0  0  0
 31 32  1  0  0  0
 32 33  1  0  0  0
 33 34  1  0  0  0
 34 35  1  0  0  0
 35 36  1  0  0  0
 35 41  1  0  0  0
 36 37  1  0  0  0
 37 38  1  0  0  0
 38 39  1  0  0  0
 38 40  1  0  0  0
 40 41  1  0  0  0
M  END
> <minimizedAffinity>
-8.77270

$$$$
