CHEMBL4205605


 46 50  0  0  0  0  0  0  0  0999 V2000
  -19.6934    1.7595  -14.7445 C   0  0  0  0  0  0  0  0  0  0  0  0
  -19.9949    0.4722  -15.1997 C   0  0  0  0  0  0  0  0  0  0  0  0
  -21.2288   -0.1074  -14.8926 C   0  0  0  0  0  0  0  0  0  0  0  0
  -22.2075    0.6386  -14.2301 C   0  0  0  0  0  0  0  0  0  0  0  0
  -21.9378    1.9479  -13.8338 C   0  0  0  0  0  0  0  0  0  0  0  0
  -20.6779    2.4896  -14.0774 C   0  0  0  0  0  0  0  0  0  0  0  0
  -20.4140    3.7303  -13.6418 F   0  0  0  0  0  0  0  0  0  0  0  0
  -23.4254    0.0205  -13.9232 N   0  0  0  0  0  0  0  0  0  0  0  0
  -23.5829   -0.9297  -12.9349 C   0  0  0  0  0  0  0  0  0  0  0  0
  -22.7504   -1.3438  -12.1472 O   0  0  0  0  0  0  0  0  0  0  0  0
  -24.2498    0.3563  -14.4112 H   0  0  0  0  0  0  0  0  0  0  0  0
  -24.9773   -1.4715  -12.8888 C   0  0  0  0  0  0  0  0  0  0  0  0
  -25.1792   -2.1210  -14.2947 C   0  0  0  0  0  0  0  0  0  0  0  0
  -26.3217   -1.4713  -13.7572 C   0  0  0  0  0  0  0  0  0  0  0  0
  -25.6199   -1.0012  -11.6234 C   0  0  0  0  0  0  0  0  0  0  0  0
  -25.4015    0.1122  -11.1891 O   0  0  0  0  0  0  0  0  0  0  0  0
  -26.4350   -2.0053  -11.0917 N   0  0  0  0  0  0  0  0  0  0  0  0
  -26.5274   -2.8416  -11.6648 H   0  0  0  0  0  0  0  0  0  0  0  0
  -27.0555   -2.0525   -9.8404 C   0  0  0  0  0  0  0  0  0  0  0  0
  -27.2600   -0.9230   -9.0494 C   0  0  0  0  0  0  0  0  0  0  0  0
  -27.8087   -1.0575   -7.7750 C   0  0  0  0  0  0  0  0  0  0  0  0
  -28.1537   -2.3156   -7.3007 C   0  0  0  0  0  0  0  0  0  0  0  0
  -28.6561   -2.4403   -6.0660 F   0  0  0  0  0  0  0  0  0  0  0  0
  -27.9799   -3.4485   -8.0854 C   0  0  0  0  0  0  0  0  0  0  0  0
  -27.4360   -3.3157   -9.3632 C   0  0  0  0  0  0  0  0  0  0  0  0
  -18.4947    2.3932  -14.9746 O   0  0  0  0  0  0  0  0  0  0  0  0
  -16.7176    3.6701  -17.0756 C   0  0  0  0  0  0  0  0  0  0  0  0
  -15.7352    2.7976  -16.3489 C   0  0  0  0  0  0  0  0  0  0  0  0
  -14.3851    2.6301  -16.6659 C   0  0  0  0  0  0  0  0  0  0  0  0
  -13.6082    1.5831  -15.5459 S   0  0  0  0  0  0  0  0  0  0  0  0
  -15.0352    1.3221  -14.6699 C   0  0  0  0  0  0  0  0  0  0  0  0
  -15.0342    0.5096  -13.5994 N   0  0  0  0  0  0  0  0  0  0  0  0
  -16.2345    0.4203  -13.0223 C   0  0  0  0  0  0  0  0  0  0  0  0
  -17.3671    1.0166  -13.4098 N   0  0  0  0  0  0  0  0  0  0  0  0
  -17.3287    1.7928  -14.5174 C   0  0  0  0  0  0  0  0  0  0  0  0
  -16.1160    2.0076  -15.1906 C   0  0  0  0  0  0  0  0  0  0  0  0
  -13.6269    3.2141  -17.7762 C   0  0  0  0  0  0  0  0  0  0  0  0
  -13.1973    2.5537  -18.7191 O   0  0  0  0  0  0  0  0  0  0  0  0
  -13.3903    4.5789  -17.7154 N   0  0  0  0  0  0  0  0  0  0  0  0
  -13.5944    5.0390  -16.8359 H   0  0  0  0  0  0  0  0  0  0  0  0
  -12.5286    5.2270  -18.6944 C   0  0  0  0  0  0  0  0  0  0  0  0
  -12.7569    6.7241  -18.7528 C   0  0  0  0  0  0  0  0  0  0  0  0
  -14.3150    7.0692  -19.5377 S   0  0  0  0  0  0  0  0  0  0  0  0
  -13.8359    7.9085  -21.0373 C   0  0  0  0  0  0  0  0  0  0  0  0
  -14.9174    5.8175  -19.9282 O   0  0  0  0  0  0  0  0  0  0  0  0
  -15.0221    8.0287  -18.7331 O   0  0  0  0  0  0  0  0  0  0  0  0
 27 28  1  0  0  0
 28 29  2  0  0  0
 28 36  1  0  0  0
 29 37  1  0  0  0
 29 30  1  0  0  0
 37 38  2  0  0  0
 37 39  1  0  0  0
 39 41  1  0  0  0
 39 40  1  0  0  0
 41 42  1  0  0  0
 42 43  1  0  0  0
 43 44  1  0  0  0
 43 45  2  0  0  0
 43 46  2  0  0  0
 30 31  1  0  0  0
 31 32  1  0  0  0
 31 36  2  0  0  0
 32 33  2  0  0  0
 33 34  1  0  0  0
 34 35  2  0  0  0
 35 26  1  0  0  0
 35 36  1  0  0  0
 26  1  1  0  0  0
  1  2  1  0  0  0
  1  6  2  0  0  0
  2  3  2  0  0  0
  3  4  1  0  0  0
  4  8  1  0  0  0
  4  5  2  0  0  0
  8  9  1  0  0  0
  8 11  1  0  0  0
  9 10  2  0  0  0
  9 12  1  0  0  0
 12 15  1  0  0  0
 12 13  1  0  0  0
 12 14  1  0  0  0
 15 16  2  0  0  0
 15 17  1  0  0  0
 17 19  1  0  0  0
 17 18  1  0  0  0
 19 20  1  0  0  0
 19 25  2  0  0  0
 20 21  2  0  0  0
 21 22  1  0  0  0
 22 23  1  0  0  0
 22 24  2  0  0  0
 24 25  1  0  0  0
 13 14  1  0  0  0
  5  6  1  0  0  0
  6  7  1  0  0  0
M  END
> <minimizedAffinity>
-8.39623

$$$$
