CHEMBL2086755


 40 45  0  0  0  0  0  0  0  0999 V2000
  -28.9752   -2.5894   -4.0730 C   0  0  0  0  0  0  0  0  0  0  0  0
  -28.8951   -3.1705   -2.7933 C   0  0  0  0  0  0  0  0  0  0  0  0
  -28.8246   -4.5528   -2.6285 C   0  0  0  0  0  0  0  0  0  0  0  0
  -28.7987   -5.3293   -3.7682 C   0  0  0  0  0  0  0  0  0  0  0  0
  -28.8049   -4.8025   -5.0639 C   0  0  0  0  0  0  0  0  0  0  0  0
  -28.8817   -3.4215   -5.2142 C   0  0  0  0  0  0  0  0  0  0  0  0
  -28.8011   -5.9771   -5.9823 C   0  0  0  0  0  0  0  0  0  0  0  0
  -28.7506   -6.0552   -7.3330 C   0  0  0  0  0  0  0  0  0  0  0  0
  -28.8383   -7.2027   -5.0829 C   0  0  0  0  0  0  0  0  0  0  0  0
  -28.9158   -8.3777   -5.3824 O   0  0  0  0  0  0  0  0  0  0  0  0
  -28.7989   -6.7148   -3.7919 N   0  0  0  0  0  0  0  0  0  0  0  0
  -28.8134   -7.3200   -2.9857 H   0  0  0  0  0  0  0  0  0  0  0  0
  -28.8567   -7.3153   -8.0145 C   0  0  0  0  0  0  0  0  0  0  0  0
  -29.8932   -8.0922   -8.2736 N   0  0  0  0  0  0  0  0  0  0  0  0
  -29.3655   -9.2867   -8.7199 C   0  0  0  0  0  0  0  0  0  0  0  0
  -29.9992  -10.4752   -9.1190 C   0  0  0  0  0  0  0  0  0  0  0  0
  -29.2122  -11.5879   -9.4483 C   0  0  0  0  0  0  0  0  0  0  0  0
  -27.8165  -11.5219   -9.3921 C   0  0  0  0  0  0  0  0  0  0  0  0
  -27.1646  -10.3378   -9.0319 C   0  0  0  0  0  0  0  0  0  0  0  0
  -27.9785   -9.2454   -8.7130 C   0  0  0  0  0  0  0  0  0  0  0  0
  -27.6856   -7.9666   -8.3244 N   0  0  0  0  0  0  0  0  0  0  0  0
  -26.7561   -7.5858   -8.2101 H   0  0  0  0  0  0  0  0  0  0  0  0
  -28.5629   -4.8411   -8.1627 C   0  0  0  0  0  0  0  0  0  0  0  0
  -29.6089   -3.9192   -8.2793 C   0  0  0  0  0  0  0  0  0  0  0  0
  -29.4229   -2.7131   -8.9633 C   0  0  0  0  0  0  0  0  0  0  0  0
  -28.1861   -2.4161   -9.5354 C   0  0  0  0  0  0  0  0  0  0  0  0
  -27.1440   -3.3415   -9.4275 C   0  0  0  0  0  0  0  0  0  0  0  0
  -27.3250   -4.5478   -8.7451 C   0  0  0  0  0  0  0  0  0  0  0  0
  -27.8682   -1.2720  -10.2137 O   0  0  0  0  0  0  0  0  0  0  0  0
  -27.2025   -1.4276  -11.4613 C   0  0  0  0  0  0  0  0  0  0  0  0
  -29.0685   -1.2010   -4.2662 N   0  0  0  0  0  0  0  0  0  0  0  0
  -29.8736   -1.0023   -4.8610 H   0  0  0  0  0  0  0  0  0  0  0  0
  -28.9929    1.4988   -6.6481 N   0  0  0  0  0  0  0  0  0  0  0  0
  -29.1872    1.6602   -5.1973 C   0  0  0  0  0  0  0  0  0  0  0  0
  -28.0299    1.0675   -4.3979 C   0  0  0  0  0  0  0  0  0  0  0  0
  -27.8761   -0.4275   -4.6856 C   0  0  0  0  0  0  0  0  0  0  0  0
  -27.6547   -0.5810   -6.1943 C   0  0  0  0  0  0  0  0  0  0  0  0
  -28.7710    0.0820   -7.0027 C   0  0  0  0  0  0  0  0  0  0  0  0
  -31.4861    1.8658   -6.6483 C   0  0  0  0  0  0  0  0  0  0  0  0
  -30.1644    1.9953   -7.3982 C   0  0  0  0  0  0  0  0  0  0  0  0
 39 40  1  0  0  0
 40 33  1  0  0  0
 33 34  1  0  0  0
 33 38  1  0  0  0
 34 35  1  0  0  0
 35 36  1  0  0  0
 36 31  1  0  0  0
 36 37  1  0  0  0
 31  1  1  0  0  0
 31 32  1  0  0  0
  1  2  1  0  0  0
  1  6  2  0  0  0
  2  3  2  0  0  0
  3  4  1  0  0  0
  4  5  2  0  0  0
  4 11  1  0  0  0
  5  6  1  0  0  0
  5  7  1  0  0  0
  7  8  2  0  0  0
  7  9  1  0  0  0
  8 23  1  0  0  0
  8 13  1  0  0  0
 23 24  1  0  0  0
 23 28  2  0  0  0
 24 25  2  0  0  0
 25 26  1  0  0  0
 26 29  1  0  0  0
 26 27  2  0  0  0
 29 30  1  0  0  0
 27 28  1  0  0  0
 13 14  2  0  0  0
 13 21  1  0  0  0
 14 15  1  0  0  0
 15 16  1  0  0  0
 15 20  2  0  0  0
 16 17  2  0  0  0
 17 18  1  0  0  0
 18 19  2  0  0  0
 19 20  1  0  0  0
 20 21  1  0  0  0
 21 22  1  0  0  0
  9 10  2  0  0  0
  9 11  1  0  0  0
 11 12  1  0  0  0
 37 38  1  0  0  0
M  END
> <minimizedAffinity>
-4.85140

$$$$
