CHEMBL3895384


 34 37  0  0  0  0  0  0  0  0999 V2000
  -29.3688   -5.8777   -4.0369 C   0  0  0  0  0  0  0  0  0  0  0  0
  -28.2622   -6.7062   -4.2607 C   0  0  0  0  0  0  0  0  0  0  0  0
  -28.3696   -7.8364   -5.0751 C   0  0  0  0  0  0  0  0  0  0  0  0
  -29.6042   -8.1727   -5.6405 C   0  0  0  0  0  0  0  0  0  0  0  0
  -30.6714   -7.2532   -5.5097 C   0  0  0  0  0  0  0  0  0  0  0  0
  -30.5725   -6.1412   -4.6710 C   0  0  0  0  0  0  0  0  0  0  0  0
  -29.9235   -9.6244   -5.9596 C   0  0  0  0  0  0  0  0  0  0  0  0
  -28.8797  -10.5695   -6.0664 C   0  0  0  0  0  0  0  0  0  0  0  0
  -28.4158  -10.3049   -7.4063 C   0  0  0  0  0  0  0  0  0  0  0  0
  -27.1584  -10.2960   -8.0268 C   0  0  0  0  0  0  0  0  0  0  0  0
  -27.0694   -9.8145   -9.3386 C   0  0  0  0  0  0  0  0  0  0  0  0
  -28.2099   -9.4330  -10.0492 C   0  0  0  0  0  0  0  0  0  0  0  0
  -29.4751   -9.4791   -9.4669 C   0  0  0  0  0  0  0  0  0  0  0  0
  -29.5232   -9.8565   -8.1264 C   0  0  0  0  0  0  0  0  0  0  0  0
  -30.5584   -9.9115   -7.1987 N   0  0  0  0  0  0  0  0  0  0  0  0
  -31.9216  -10.0844   -7.4703 C   0  0  0  0  0  0  0  0  0  0  0  0
  -32.5354  -10.8753   -6.5447 N   0  0  0  0  0  0  0  0  0  0  0  0
  -32.4286   -9.6849   -8.5096 O   0  0  0  0  0  0  0  0  0  0  0  0
  -31.9739  -11.4688   -5.9455 H   0  0  0  0  0  0  0  0  0  0  0  0
  -33.4122  -11.2743   -6.8604 H   0  0  0  0  0  0  0  0  0  0  0  0
  -29.0046   -3.2440   -4.8645 N   0  0  0  0  0  0  0  0  0  0  0  0
  -28.9194   -3.4944   -3.5146 C   0  0  0  0  0  0  0  0  0  0  0  0
  -28.6888   -2.6762   -2.6292 O   0  0  0  0  0  0  0  0  0  0  0  0
  -29.2849   -4.7778   -3.1721 N   0  0  0  0  0  0  0  0  0  0  0  0
  -29.4939   -3.9529   -5.3898 H   0  0  0  0  0  0  0  0  0  0  0  0
  -29.6429   -4.8579   -2.2282 H   0  0  0  0  0  0  0  0  0  0  0  0
  -29.6258    0.2407   -5.8585 C   0  0  0  0  0  0  0  0  0  0  0  0
  -28.5161    0.4928   -6.6774 C   0  0  0  0  0  0  0  0  0  0  0  0
  -27.5810   -0.5102   -6.9277 C   0  0  0  0  0  0  0  0  0  0  0  0
  -27.7273   -1.7684   -6.3488 C   0  0  0  0  0  0  0  0  0  0  0  0
  -28.8196   -2.0268   -5.5279 C   0  0  0  0  0  0  0  0  0  0  0  0
  -29.7853   -1.0355   -5.3097 C   0  0  0  0  0  0  0  0  0  0  0  0
  -31.2206    1.9389   -6.7456 C   0  0  0  0  0  0  0  0  0  0  0  0
  -30.5766    1.3530   -5.4971 C   0  0  0  0  0  0  0  0  0  0  0  0
 33 34  1  0  0  0
 34 27  1  0  0  0
 27 28  1  0  0  0
 27 32  2  0  0  0
 28 29  2  0  0  0
 29 30  1  0  0  0
 30 31  2  0  0  0
 31 21  1  0  0  0
 31 32  1  0  0  0
 21 22  1  0  0  0
 21 25  1  0  0  0
 22 23  2  0  0  0
 22 24  1  0  0  0
 24  1  1  0  0  0
 24 26  1  0  0  0
  1  2  1  0  0  0
  1  6  2  0  0  0
  2  3  2  0  0  0
  3  4  1  0  0  0
  4  7  1  0  0  0
  4  5  2  0  0  0
  7  8  2  0  0  0
  7 15  1  0  0  0
  8  9  1  0  0  0
  9 10  1  0  0  0
  9 14  2  0  0  0
 10 11  2  0  0  0
 11 12  1  0  0  0
 12 13  2  0  0  0
 13 14  1  0  0  0
 14 15  1  0  0  0
 15 16  1  0  0  0
 16 17  1  0  0  0
 16 18  2  0  0  0
 17 19  1  0  0  0
 17 20  1  0  0  0
  5  6  1  0  0  0
M  END
> <minimizedAffinity>
-9.90467

$$$$
