CHEMBL3919173


 37 40  0  0  0  0  0  0  0  0999 V2000
  -27.8239   -2.3567   -8.3681 N   0  0  0  0  0  0  0  0  0  0  0  0
  -27.2958   -1.6509   -9.5312 C   0  0  0  0  0  0  0  0  0  0  0  0
  -28.1060   -1.7775  -10.6403 C   0  0  0  0  0  0  0  0  0  0  0  0
  -27.5592   -1.8039  -11.9027 C   0  0  0  0  0  0  0  0  0  0  0  0
  -26.2700   -1.4539  -12.1611 C   0  0  0  0  0  0  0  0  0  0  0  0
  -25.9842   -1.6972  -13.4368 N   0  0  0  0  0  0  0  0  0  0  0  0
  -24.8645   -1.1918  -13.9215 C   0  0  0  0  0  0  0  0  0  0  0  0
  -24.0146   -0.4024  -13.1889 C   0  0  0  0  0  0  0  0  0  0  0  0
  -24.2306   -0.2604  -11.8068 N   0  0  0  0  0  0  0  0  0  0  0  0
  -25.4145   -0.8693  -11.2146 C   0  0  0  0  0  0  0  0  0  0  0  0
  -25.9873   -1.0865   -9.7990 C   0  0  0  0  0  0  0  0  0  0  0  0
  -22.9726    0.2363  -14.0706 C   0  0  0  0  0  0  0  0  0  0  0  0
  -21.6996   -0.2729  -14.5107 C   0  0  0  0  0  0  0  0  0  0  0  0
  -20.7860    0.6806  -14.7840 N   0  0  0  0  0  0  0  0  0  0  0  0
  -21.4121    1.8181  -14.4490 N   0  0  0  0  0  0  0  0  0  0  0  0
  -20.7327    3.0917  -14.5666 C   0  0  0  0  0  0  0  0  0  0  0  0
  -22.6772    1.5996  -13.9622 C   0  0  0  0  0  0  0  0  0  0  0  0
  -28.8898   -0.2651   -5.3950 C   0  0  0  0  0  0  0  0  0  0  0  0
  -28.8213   -1.2073   -4.3647 C   0  0  0  0  0  0  0  0  0  0  0  0
  -28.4201   -2.5083   -4.6497 C   0  0  0  0  0  0  0  0  0  0  0  0
  -28.0680   -2.8615   -5.9628 C   0  0  0  0  0  0  0  0  0  0  0  0
  -28.0705   -1.9407   -7.0306 C   0  0  0  0  0  0  0  0  0  0  0  0
  -28.4959   -0.6312   -6.7125 C   0  0  0  0  0  0  0  0  0  0  0  0
  -30.5413    1.3750   -5.9522 C   0  0  0  0  0  0  0  0  0  0  0  0
  -29.3613    1.0159   -5.2237 O   0  0  0  0  0  0  0  0  0  0  0  0
  -28.3586   -3.5337   -3.7408 O   0  0  0  0  0  0  0  0  0  0  0  0
  -27.5543   -4.6572   -4.0890 C   0  0  0  0  0  0  0  0  0  0  0  0
  -27.7845   -3.8708   -8.6188 C   0  0  0  0  0  0  0  0  0  0  0  0
  -28.8187   -4.8096   -7.9253 C   0  0  0  0  0  0  0  0  0  0  0  0
  -28.4071   -6.1832   -7.5466 N   0  0  0  0  0  0  0  0  0  0  0  0
  -27.4234   -6.2489   -7.2844 H   0  0  0  0  0  0  0  0  0  0  0  0
  -29.3301   -7.1752   -6.5721 S   0  0  0  0  0  0  0  0  0  0  0  0
  -28.4395   -8.1547   -5.9985 O   0  0  0  0  0  0  0  0  0  0  0  0
  -30.1393   -6.3318   -5.7286 O   0  0  0  0  0  0  0  0  0  0  0  0
  -30.3709   -7.9689   -7.6497 N   0  0  0  0  0  0  0  0  0  0  0  0
  -29.9494   -9.3316   -8.0583 C   0  0  0  0  0  0  0  0  0  0  0  0
  -31.7765   -8.0020   -7.1497 C   0  0  0  0  0  0  0  0  0  0  0  0
 24 25  1  0  0  0
 25 18  1  0  0  0
 18 19  1  0  0  0
 18 23  2  0  0  0
 19 20  2  0  0  0
 20 26  1  0  0  0
 20 21  1  0  0  0
 26 27  1  0  0  0
 21 22  2  0  0  0
 22  1  1  0  0  0
 22 23  1  0  0  0
  1 28  1  0  0  0
  1  2  1  0  0  0
 28 29  1  0  0  0
 29 30  1  0  0  0
 30 32  1  0  0  0
 30 31  1  0  0  0
 32 33  2  0  0  0
 32 34  2  0  0  0
 32 35  1  0  0  0
 35 36  1  0  0  0
 35 37  1  0  0  0
  2  3  1  0  0  0
  2 11  2  0  0  0
  3  4  2  0  0  0
  4  5  1  0  0  0
  5  6  1  0  0  0
  5 10  2  0  0  0
  6  7  2  0  0  0
  7  8  1  0  0  0
  8 12  1  0  0  0
  8  9  2  0  0  0
 12 13  1  0  0  0
 12 17  2  0  0  0
 13 14  2  0  0  0
 14 15  1  0  0  0
 15 16  1  0  0  0
 15 17  1  0  0  0
  9 10  1  0  0  0
 10 11  1  0  0  0
M  END
> <minimizedAffinity>
-8.52310

$$$$
