CHEMBL2430249


 35 39  0  0  0  0  0  0  0  0999 V2000
  -12.1786   -0.4235  -15.5668 C   0  0  0  0  0  0  0  0  0  0  0  0
  -13.0275   -1.2529  -14.6669 C   0  0  0  0  0  0  0  0  0  0  0  0
  -12.7103   -2.5833  -14.4224 N   0  0  0  0  0  0  0  0  0  0  0  0
  -13.6415   -3.1520  -13.5935 C   0  0  0  0  0  0  0  0  0  0  0  0
  -14.5652   -2.1680  -13.3053 C   0  0  0  0  0  0  0  0  0  0  0  0
  -14.2111   -0.9704  -13.9952 C   0  0  0  0  0  0  0  0  0  0  0  0
  -15.7393   -2.3337  -12.4117 C   0  0  0  0  0  0  0  0  0  0  0  0
  -15.8858   -3.7117  -11.7962 C   0  0  0  0  0  0  0  0  0  0  0  0
  -14.8709   -4.7961  -12.1704 C   0  0  0  0  0  0  0  0  0  0  0  0
  -13.6936   -4.4957  -13.0989 C   0  0  0  0  0  0  0  0  0  0  0  0
  -12.8288   -5.5090  -13.3820 C   0  0  0  0  0  0  0  0  0  0  0  0
  -11.5922   -5.4958  -14.2686 C   0  0  0  0  0  0  0  0  0  0  0  0
  -11.1148   -4.5730  -14.9025 O   0  0  0  0  0  0  0  0  0  0  0  0
  -11.0735   -6.7804  -14.2206 N   0  0  0  0  0  0  0  0  0  0  0  0
  -11.8281   -7.6161  -13.4113 C   0  0  0  0  0  0  0  0  0  0  0  0
  -11.5784   -8.9539  -13.1509 C   0  0  0  0  0  0  0  0  0  0  0  0
  -12.4579   -9.6293  -12.3025 C   0  0  0  0  0  0  0  0  0  0  0  0
  -13.5423   -8.9549  -11.7507 C   0  0  0  0  0  0  0  0  0  0  0  0
  -14.3863   -9.6037  -10.9367 F   0  0  0  0  0  0  0  0  0  0  0  0
  -13.7767   -7.6085  -12.0225 C   0  0  0  0  0  0  0  0  0  0  0  0
  -12.9126   -6.9167  -12.8639 C   0  0  0  0  0  0  0  0  0  0  0  0
  -11.9102   -3.0672  -14.8208 H   0  0  0  0  0  0  0  0  0  0  0  0
  -10.2434   -7.0503  -14.7270 H   0  0  0  0  0  0  0  0  0  0  0  0
  -15.0085    0.2592  -13.9600 C   0  0  0  0  0  0  0  0  0  0  0  0
  -14.8092    1.1510  -13.1385 O   0  0  0  0  0  0  0  0  0  0  0  0
  -15.9374    0.3941  -14.9600 N   0  0  0  0  0  0  0  0  0  0  0  0
  -15.8640   -0.2395  -15.7420 H   0  0  0  0  0  0  0  0  0  0  0  0
  -16.6351    1.6489  -15.1256 C   0  0  0  0  0  0  0  0  0  0  0  0
  -17.9112    1.6530  -14.3055 C   0  0  0  0  0  0  0  0  0  0  0  0
  -18.8156    2.8252  -14.6846 C   0  0  0  0  0  0  0  0  0  0  0  0
  -19.9802    2.4070  -15.4863 N   0  0  0  0  0  0  0  0  0  0  0  0
  -21.1862    3.2193  -15.2556 C   0  0  0  0  0  0  0  0  0  0  0  0
  -21.7945    2.6410  -13.9966 C   0  0  0  0  0  0  0  0  0  0  0  0
  -21.6057    1.1513  -14.2077 C   0  0  0  0  0  0  0  0  0  0  0  0
  -20.3841    1.0327  -15.1194 C   0  0  0  0  0  0  0  0  0  0  0  0
  1  2  1  0  0  0
  2  3  1  0  0  0
  2  6  2  0  0  0
  3  4  1  0  0  0
  3 22  1  0  0  0
  4  5  2  0  0  0
  4 10  1  0  0  0
  5  6  1  0  0  0
  5  7  1  0  0  0
  6 24  1  0  0  0
 24 25  2  0  0  0
 24 26  1  0  0  0
 26 28  1  0  0  0
 26 27  1  0  0  0
 28 29  1  0  0  0
 29 30  1  0  0  0
 30 31  1  0  0  0
 31 32  1  0  0  0
 31 35  1  0  0  0
 32 33  1  0  0  0
 33 34  1  0  0  0
 34 35  1  0  0  0
  7  8  1  0  0  0
  8  9  1  0  0  0
  9 10  1  0  0  0
 10 11  2  0  0  0
 11 12  1  0  0  0
 11 21  1  0  0  0
 12 13  2  0  0  0
 12 14  1  0  0  0
 14 15  1  0  0  0
 14 23  1  0  0  0
 15 16  1  0  0  0
 15 21  2  0  0  0
 16 17  2  0  0  0
 17 18  1  0  0  0
 18 19  1  0  0  0
 18 20  2  0  0  0
 20 21  1  0  0  0
M  END
> <minimizedAffinity>
-7.63952

$$$$
