CHEMBL4584893


 31 34  0  0  0  0  0  0  0  0999 V2000
  -18.7548    2.3276  -15.5615 C   0  0  0  0  0  0  0  0  0  0  0  0
  -19.4460    3.4603  -15.0934 C   0  0  0  0  0  0  0  0  0  0  0  0
  -20.7082    3.3678  -14.5099 C   0  0  0  0  0  0  0  0  0  0  0  0
  -21.2091    2.0842  -14.3723 C   0  0  0  0  0  0  0  0  0  0  0  0
  -22.4037    1.7676  -13.8267 O   0  0  0  0  0  0  0  0  0  0  0  0
  -22.4825    0.4033  -13.9172 C   0  0  0  0  0  0  0  0  0  0  0  0
  -21.4002   -0.1617  -14.4398 N   0  0  0  0  0  0  0  0  0  0  0  0
  -20.5863    0.9148  -14.7747 C   0  0  0  0  0  0  0  0  0  0  0  0
  -19.3212    1.0354  -15.4136 C   0  0  0  0  0  0  0  0  0  0  0  0
  -23.7716   -0.1402  -13.4587 C   0  0  0  0  0  0  0  0  0  0  0  0
  -24.5068   -0.9918  -14.3127 C   0  0  0  0  0  0  0  0  0  0  0  0
  -25.7186   -1.5647  -13.9175 C   0  0  0  0  0  0  0  0  0  0  0  0
  -26.2251   -1.2862  -12.6559 C   0  0  0  0  0  0  0  0  0  0  0  0
  -27.7039   -2.0100  -12.1566 Cl  0  0  0  0  0  0  0  0  0  0  0  0
  -25.5326   -0.4303  -11.7976 C   0  0  0  0  0  0  0  0  0  0  0  0
  -24.3084    0.1380  -12.1950 C   0  0  0  0  0  0  0  0  0  0  0  0
  -16.3015    2.0154  -15.6678 C   0  0  0  0  0  0  0  0  0  0  0  0
  -16.2138    1.2599  -14.7030 O   0  0  0  0  0  0  0  0  0  0  0  0
  -17.4832    2.5848  -16.1208 N   0  0  0  0  0  0  0  0  0  0  0  0
  -17.4748    2.8074  -17.1099 H   0  0  0  0  0  0  0  0  0  0  0  0
  -15.0801    2.3898  -16.5168 C   0  0  0  0  0  0  0  0  0  0  0  0
  -12.1416    5.1525  -14.8235 C   0  0  0  0  0  0  0  0  0  0  0  0
  -12.9501    5.5256  -15.9104 C   0  0  0  0  0  0  0  0  0  0  0  0
  -13.9184    4.6537  -16.4382 C   0  0  0  0  0  0  0  0  0  0  0  0
  -14.1062    3.3786  -15.8984 C   0  0  0  0  0  0  0  0  0  0  0  0
  -13.2651    2.9909  -14.8409 C   0  0  0  0  0  0  0  0  0  0  0  0
  -12.3042    3.8651  -14.2895 C   0  0  0  0  0  0  0  0  0  0  0  0
  -11.4143    7.3513  -14.2896 C   0  0  0  0  0  0  0  0  0  0  0  0
  -11.1528    5.9547  -14.3268 O   0  0  0  0  0  0  0  0  0  0  0  0
  -11.5682    3.2953  -13.2784 O   0  0  0  0  0  0  0  0  0  0  0  0
  -12.2943    2.6629  -12.2309 C   0  0  0  0  0  0  0  0  0  0  0  0
 28 29  1  0  0  0
 29 22  1  0  0  0
 22 23  1  0  0  0
 22 27  2  0  0  0
 23 24  2  0  0  0
 24 25  1  0  0  0
 25 21  1  0  0  0
 25 26  2  0  0  0
 21 17  1  0  0  0
 17 18  2  0  0  0
 17 19  1  0  0  0
 19  1  1  0  0  0
 19 20  1  0  0  0
  1  2  1  0  0  0
  1  9  2  0  0  0
  2  3  2  0  0  0
  3  4  1  0  0  0
  4  5  1  0  0  0
  4  8  2  0  0  0
  5  6  1  0  0  0
  6 10  1  0  0  0
  6  7  2  0  0  0
 10 11  1  0  0  0
 10 16  2  0  0  0
 11 12  2  0  0  0
 12 13  1  0  0  0
 13 14  1  0  0  0
 13 15  2  0  0  0
 15 16  1  0  0  0
  7  8  1  0  0  0
  8  9  1  0  0  0
 26 27  1  0  0  0
 27 30  1  0  0  0
 30 31  1  0  0  0
M  END
> <minimizedAffinity>
-9.42965

$$$$
