CHEMBL225278


 37 42  0  0  0  0  0  0  0  0999 V2000
  -27.5014   -1.5992  -10.3677 C   0  0  0  0  0  0  0  0  0  0  0  0
  -27.9943   -2.1638  -11.5732 C   0  0  0  0  0  0  0  0  0  0  0  0
  -27.3070   -2.0435  -12.7832 C   0  0  0  0  0  0  0  0  0  0  0  0
  -26.1433   -1.3155  -12.7681 C   0  0  0  0  0  0  0  0  0  0  0  0
  -25.6390   -0.7014  -11.5901 C   0  0  0  0  0  0  0  0  0  0  0  0
  -26.3041   -0.8598  -10.3826 C   0  0  0  0  0  0  0  0  0  0  0  0
  -24.3563    0.1177  -11.8386 C   0  0  0  0  0  0  0  0  0  0  0  0
  -24.2186   -0.1760  -13.2948 C   0  0  0  0  0  0  0  0  0  0  0  0
  -23.4085    0.1081  -14.4051 C   0  0  0  0  0  0  0  0  0  0  0  0
  -23.8919   -0.4804  -15.5184 N   0  0  0  0  0  0  0  0  0  0  0  0
  -24.9939   -1.1584  -15.0981 N   0  0  0  0  0  0  0  0  0  0  0  0
  -25.2190   -0.9674  -13.7862 C   0  0  0  0  0  0  0  0  0  0  0  0
  -25.5168   -1.7095  -15.7709 H   0  0  0  0  0  0  0  0  0  0  0  0
  -22.2063    0.9428  -14.3766 C   0  0  0  0  0  0  0  0  0  0  0  0
  -22.1713    2.2828  -14.0731 C   0  0  0  0  0  0  0  0  0  0  0  0
  -20.5897    2.9254  -14.1701 S   0  0  0  0  0  0  0  0  0  0  0  0
  -19.9338    1.4074  -14.6028 C   0  0  0  0  0  0  0  0  0  0  0  0
  -20.9044    0.4274  -14.6701 C   0  0  0  0  0  0  0  0  0  0  0  0
  -18.5469    1.2268  -14.8742 C   0  0  0  0  0  0  0  0  0  0  0  0
  -17.3717    1.1297  -15.1180 C   0  0  0  0  0  0  0  0  0  0  0  0
  -15.9472    1.0560  -15.4627 C   0  0  0  0  0  0  0  0  0  0  0  0
  -15.1637    0.9681  -14.2727 O   0  0  0  0  0  0  0  0  0  0  0  0
  -15.0733   -0.2659  -13.6839 C   0  0  0  0  0  0  0  0  0  0  0  0
  -15.7492   -0.6795  -12.5338 C   0  0  0  0  0  0  0  0  0  0  0  0
  -15.5571   -1.9701  -12.0291 C   0  0  0  0  0  0  0  0  0  0  0  0
  -14.6926   -2.8539  -12.6707 C   0  0  0  0  0  0  0  0  0  0  0  0
  -14.0198   -2.4503  -13.8214 C   0  0  0  0  0  0  0  0  0  0  0  0
  -14.2110   -1.1612  -14.3241 C   0  0  0  0  0  0  0  0  0  0  0  0
  -28.2710   -1.7882   -9.0720 C   0  0  0  0  0  0  0  0  0  0  0  0
  -30.6261   -3.8977   -5.2473 C   0  0  0  0  0  0  0  0  0  0  0  0
  -29.7021   -3.3979   -6.2418 N   0  0  0  0  0  0  0  0  0  0  0  0
  -29.5290   -4.1210   -7.4917 C   0  0  0  0  0  0  0  0  0  0  0  0
  -28.0885   -4.0246   -8.0006 C   0  0  0  0  0  0  0  0  0  0  0  0
  -27.5938   -2.6391   -8.0802 N   0  0  0  0  0  0  0  0  0  0  0  0
  -27.6926   -2.0247   -6.7319 C   0  0  0  0  0  0  0  0  0  0  0  0
  -29.0502   -2.1905   -6.0251 C   0  0  0  0  0  0  0  0  0  0  0  0
  -29.4327   -1.3742   -5.1864 O   0  0  0  0  0  0  0  0  0  0  0  0
 30 31  1  0  0  0
 31 32  1  0  0  0
 31 36  1  0  0  0
 32 33  1  0  0  0
 33 34  1  0  0  0
 34 29  1  0  0  0
 34 35  1  0  0  0
 29  1  1  0  0  0
  1  2  1  0  0  0
  1  6  2  0  0  0
  2  3  2  0  0  0
  3  4  1  0  0  0
  4  5  2  0  0  0
  4 12  1  0  0  0
  5  6  1  0  0  0
  5  7  1  0  0  0
  7  8  1  0  0  0
  8  9  1  0  0  0
  8 12  2  0  0  0
  9 14  1  0  0  0
  9 10  2  0  0  0
 14 15  2  0  0  0
 14 18  1  0  0  0
 15 16  1  0  0  0
 16 17  1  0  0  0
 17 19  1  0  0  0
 17 18  2  0  0  0
 19 20  3  0  0  0
 20 21  1  0  0  0
 21 22  1  0  0  0
 22 23  1  0  0  0
 23 24  1  0  0  0
 23 28  2  0  0  0
 24 25  2  0  0  0
 25 26  1  0  0  0
 26 27  2  0  0  0
 27 28  1  0  0  0
 10 11  1  0  0  0
 11 12  1  0  0  0
 11 13  1  0  0  0
 35 36  1  0  0  0
 36 37  2  0  0  0
M  END
> <minimizedAffinity>
-9.39389

$$$$
