CHEMBL3671566


 40 43  0  0  0  0  0  0  0  0999 V2000
  -15.9830    0.8340  -15.0580 C   0  0  0  0  0  0  0  0  0  0  0  0
  -14.8435    1.1126  -15.8325 C   0  0  0  0  0  0  0  0  0  0  0  0
  -14.7550    2.2838  -16.6234 C   0  0  0  0  0  0  0  0  0  0  0  0
  -13.7520    2.5781  -17.5603 C   0  0  0  0  0  0  0  0  0  0  0  0
  -13.7428    3.7339  -18.2566 N   0  0  0  0  0  0  0  0  0  0  0  0
  -14.7413    4.5861  -18.0352 C   0  0  0  0  0  0  0  0  0  0  0  0
  -15.7685    4.3810  -17.2103 N   0  0  0  0  0  0  0  0  0  0  0  0
  -15.7745    3.2260  -16.5368 C   0  0  0  0  0  0  0  0  0  0  0  0
  -16.8903    2.9400  -15.7797 C   0  0  0  0  0  0  0  0  0  0  0  0
  -17.0653    1.7197  -15.1031 C   0  0  0  0  0  0  0  0  0  0  0  0
  -15.5649   -0.4491  -13.0204 C   0  0  0  0  0  0  0  0  0  0  0  0
  -15.3218    0.5161  -12.3012 O   0  0  0  0  0  0  0  0  0  0  0  0
  -16.0346   -0.3698  -14.3188 N   0  0  0  0  0  0  0  0  0  0  0  0
  -16.6094   -1.1160  -14.6897 H   0  0  0  0  0  0  0  0  0  0  0  0
  -14.4405   -2.6138  -13.1095 C   0  0  0  0  0  0  0  0  0  0  0  0
  -15.3639   -1.8383  -12.5282 C   0  0  0  0  0  0  0  0  0  0  0  0
  -12.7595    1.6120  -17.8696 N   0  0  0  0  0  0  0  0  0  0  0  0
  -11.8246    1.9932  -17.7425 H   0  0  0  0  0  0  0  0  0  0  0  0
  -12.8433    0.7278  -18.9714 C   0  0  0  0  0  0  0  0  0  0  0  0
  -12.8187    1.2124  -20.2901 C   0  0  0  0  0  0  0  0  0  0  0  0
  -12.8051    0.3374  -21.3777 C   0  0  0  0  0  0  0  0  0  0  0  0
  -12.8335   -1.0367  -21.1550 C   0  0  0  0  0  0  0  0  0  0  0  0
  -12.7365   -2.2218  -22.6227 Br  0  0  0  0  0  0  0  0  0  0  0  0
  -12.9127   -1.5415  -19.8581 C   0  0  0  0  0  0  0  0  0  0  0  0
  -12.9254   -0.6564  -18.7823 C   0  0  0  0  0  0  0  0  0  0  0  0
  -12.9842   -1.1486  -17.5350 F   0  0  0  0  0  0  0  0  0  0  0  0
  -18.2391    1.3800  -14.4572 O   0  0  0  0  0  0  0  0  0  0  0  0
  -19.2053    0.7660  -15.3303 C   0  0  0  0  0  0  0  0  0  0  0  0
  -20.6130    1.3424  -15.1921 C   0  0  0  0  0  0  0  0  0  0  0  0
  -21.4728    0.4490  -14.4175 N   0  0  0  0  0  0  0  0  0  0  0  0
  -22.5449    0.9446  -13.7117 C   0  0  0  0  0  0  0  0  0  0  0  0
  -22.8438    2.1348  -13.7282 O   0  0  0  0  0  0  0  0  0  0  0  0
  -23.2421   -0.0102  -12.9758 N   0  0  0  0  0  0  0  0  0  0  0  0
  -24.4114    0.4814  -12.2364 C   0  0  0  0  0  0  0  0  0  0  0  0
  -24.9729   -0.5340  -11.2211 C   0  0  0  0  0  0  0  0  0  0  0  0
  -25.1756   -1.8989  -11.7473 N   0  0  0  0  0  0  0  0  0  0  0  0
  -26.3100   -1.9638  -12.6670 C   0  0  0  0  0  0  0  0  0  0  0  0
  -23.9271   -2.3564  -12.3829 C   0  0  0  0  0  0  0  0  0  0  0  0
  -23.3421   -1.3997  -13.4387 C   0  0  0  0  0  0  0  0  0  0  0  0
  -21.0040   -0.3142  -13.9514 H   0  0  0  0  0  0  0  0  0  0  0  0
 15 16  2  0  0  0
 16 11  1  0  0  0
 11 12  2  0  0  0
 11 13  1  0  0  0
 13  1  1  0  0  0
 13 14  1  0  0  0
  1  2  1  0  0  0
  1 10  2  0  0  0
  2  3  2  0  0  0
  3  4  1  0  0  0
  3  8  1  0  0  0
  4 17  1  0  0  0
  4  5  2  0  0  0
 17 19  1  0  0  0
 17 18  1  0  0  0
 19 20  1  0  0  0
 19 25  2  0  0  0
 20 21  2  0  0  0
 21 22  1  0  0  0
 22 23  1  0  0  0
 22 24  2  0  0  0
 24 25  1  0  0  0
 25 26  1  0  0  0
  5  6  1  0  0  0
  6  7  2  0  0  0
  7  8  1  0  0  0
  8  9  2  0  0  0
  9 10  1  0  0  0
 10 27  1  0  0  0
 27 28  1  0  0  0
 28 29  1  0  0  0
 29 30  1  0  0  0
 30 31  1  0  0  0
 30 40  1  0  0  0
 31 32  2  0  0  0
 31 33  1  0  0  0
 33 34  1  0  0  0
 33 39  1  0  0  0
 34 35  1  0  0  0
 35 36  1  0  0  0
 36 37  1  0  0  0
 36 38  1  0  0  0
 38 39  1  0  0  0
M  END
> <minimizedAffinity>
-8.00696

$$$$
