CHEMBL3980232


 37 41  0  0  0  0  0  0  0  0999 V2000
  -27.4518   -1.7477   -9.6585 C   0  0  0  0  0  0  0  0  0  0  0  0
  -28.2975   -1.7695  -10.7691 C   0  0  0  0  0  0  0  0  0  0  0  0
  -27.7707   -1.7295  -12.0412 C   0  0  0  0  0  0  0  0  0  0  0  0
  -26.4376   -1.4927  -12.2586 C   0  0  0  0  0  0  0  0  0  0  0  0
  -26.0536   -1.6720  -13.5278 N   0  0  0  0  0  0  0  0  0  0  0  0
  -24.8239   -1.2386  -13.8371 C   0  0  0  0  0  0  0  0  0  0  0  0
  -24.0417   -0.5417  -12.9372 C   0  0  0  0  0  0  0  0  0  0  0  0
  -24.3701   -0.5040  -11.5955 N   0  0  0  0  0  0  0  0  0  0  0  0
  -25.5890   -1.0596  -11.2127 C   0  0  0  0  0  0  0  0  0  0  0  0
  -26.1253   -1.2841   -9.8754 C   0  0  0  0  0  0  0  0  0  0  0  0
  -23.1496    0.4477  -13.5417 C   0  0  0  0  0  0  0  0  0  0  0  0
  -23.0687    1.8546  -13.5419 C   0  0  0  0  0  0  0  0  0  0  0  0
  -21.9851    2.3178  -14.1904 N   0  0  0  0  0  0  0  0  0  0  0  0
  -21.3764    1.1962  -14.6436 N   0  0  0  0  0  0  0  0  0  0  0  0
  -21.9330    0.0725  -14.0947 C   0  0  0  0  0  0  0  0  0  0  0  0
  -20.2815    1.2560  -15.6300 C   0  0  0  0  0  0  0  0  0  0  0  0
  -18.9529    0.6628  -15.1469 C   0  0  0  0  0  0  0  0  0  0  0  0
  -18.3617    1.4966  -14.0156 C   0  0  0  0  0  0  0  0  0  0  0  0
  -18.2448    2.9580  -14.4223 C   0  0  0  0  0  0  0  0  0  0  0  0
  -19.5015    3.4886  -15.0983 C   0  0  0  0  0  0  0  0  0  0  0  0
  -20.0490    2.6097  -16.0840 O   0  0  0  0  0  0  0  0  0  0  0  0
  -27.9913   -2.4120   -8.4850 N   0  0  0  0  0  0  0  0  0  0  0  0
  -28.7410   -0.1131   -5.6169 C   0  0  0  0  0  0  0  0  0  0  0  0
  -28.5709   -0.9636   -4.5236 C   0  0  0  0  0  0  0  0  0  0  0  0
  -28.1101   -2.2667   -4.7295 C   0  0  0  0  0  0  0  0  0  0  0  0
  -27.8546   -2.7176   -6.0249 C   0  0  0  0  0  0  0  0  0  0  0  0
  -28.0529   -1.9087   -7.1573 C   0  0  0  0  0  0  0  0  0  0  0  0
  -28.4823   -0.5867   -6.9209 C   0  0  0  0  0  0  0  0  0  0  0  0
  -30.5848    1.3755   -5.8717 C   0  0  0  0  0  0  0  0  0  0  0  0
  -29.2189    1.1731   -5.5219 O   0  0  0  0  0  0  0  0  0  0  0  0
  -27.9299   -3.2043   -3.7429 O   0  0  0  0  0  0  0  0  0  0  0  0
  -27.8546   -4.5680   -4.1403 C   0  0  0  0  0  0  0  0  0  0  0  0
  -27.6336   -3.8744   -8.6246 C   0  0  0  0  0  0  0  0  0  0  0  0
  -28.5811   -4.9108   -7.9872 C   0  0  0  0  0  0  0  0  0  0  0  0
  -28.2636   -6.3912   -8.2191 C   0  0  0  0  0  0  0  0  0  0  0  0
  -27.2129   -6.5553   -9.1612 O   0  0  0  0  0  0  0  0  0  0  0  0
  -27.6007   -6.5073  -10.0508 H   0  0  0  0  0  0  0  0  0  0  0  0
 29 30  1  0  0  0
 30 23  1  0  0  0
 23 24  1  0  0  0
 23 28  2  0  0  0
 24 25  2  0  0  0
 25 31  1  0  0  0
 25 26  1  0  0  0
 31 32  1  0  0  0
 26 27  2  0  0  0
 27 22  1  0  0  0
 27 28  1  0  0  0
 22 33  1  0  0  0
 22  1  1  0  0  0
 33 34  1  0  0  0
 34 35  1  0  0  0
 35 36  1  0  0  0
 36 37  1  0  0  0
  1  2  1  0  0  0
  1 10  2  0  0  0
  2  3  2  0  0  0
  3  4  1  0  0  0
  4  5  1  0  0  0
  4  9  2  0  0  0
  5  6  2  0  0  0
  6  7  1  0  0  0
  7 11  1  0  0  0
  7  8  2  0  0  0
 11 12  1  0  0  0
 11 15  2  0  0  0
 12 13  2  0  0  0
 13 14  1  0  0  0
 14 16  1  0  0  0
 14 15  1  0  0  0
 16 17  1  0  0  0
 16 21  1  0  0  0
 17 18  1  0  0  0
 18 19  1  0  0  0
 19 20  1  0  0  0
 20 21  1  0  0  0
  8  9  1  0  0  0
  9 10  1  0  0  0
M  END
> <minimizedAffinity>
-9.35197

$$$$
