CHEMBL1254191


 34 37  0  0  0  0  0  0  0  0999 V2000
  -23.4066   -0.9515  -13.5132 C   0  0  0  0  0  0  0  0  0  0  0  0
  -23.2278   -1.2666  -12.1725 C   0  0  0  0  0  0  0  0  0  0  0  0
  -24.2890   -1.7363  -11.4024 C   0  0  0  0  0  0  0  0  0  0  0  0
  -25.5634   -1.9583  -11.9449 C   0  0  0  0  0  0  0  0  0  0  0  0
  -25.7401   -1.6800  -13.3063 C   0  0  0  0  0  0  0  0  0  0  0  0
  -24.6628   -1.1853  -14.0857 C   0  0  0  0  0  0  0  0  0  0  0  0
  -24.9364   -0.8503  -15.7614 Cl  0  0  0  0  0  0  0  0  0  0  0  0
  -26.6450   -2.4414  -11.1505 N   0  0  0  0  0  0  0  0  0  0  0  0
  -26.9162   -2.0341   -9.8510 C   0  0  0  0  0  0  0  0  0  0  0  0
  -26.2504   -1.2039   -9.2306 O   0  0  0  0  0  0  0  0  0  0  0  0
  -28.0004   -2.6426   -9.2442 N   0  0  0  0  0  0  0  0  0  0  0  0
  -27.2833   -3.1054  -11.5865 H   0  0  0  0  0  0  0  0  0  0  0  0
  -28.1364   -3.6120   -9.4858 H   0  0  0  0  0  0  0  0  0  0  0  0
  -28.3032   -2.2919   -7.8915 C   0  0  0  0  0  0  0  0  0  0  0  0
  -28.6481   -3.2916   -6.9771 C   0  0  0  0  0  0  0  0  0  0  0  0
  -29.0305   -2.9575   -5.6752 C   0  0  0  0  0  0  0  0  0  0  0  0
  -29.0907   -1.6213   -5.2817 C   0  0  0  0  0  0  0  0  0  0  0  0
  -28.7219   -0.6028   -6.1720 C   0  0  0  0  0  0  0  0  0  0  0  0
  -28.3025   -0.9507   -7.4722 C   0  0  0  0  0  0  0  0  0  0  0  0
  -28.8262    0.8407   -5.7438 C   0  0  0  0  0  0  0  0  0  0  0  0
  -27.9334    1.1751   -4.7653 F   0  0  0  0  0  0  0  0  0  0  0  0
  -28.6062    1.7201   -6.7580 F   0  0  0  0  0  0  0  0  0  0  0  0
  -30.0520    1.1470   -5.2342 F   0  0  0  0  0  0  0  0  0  0  0  0
  -22.3704   -0.4712  -14.2864 O   0  0  0  0  0  0  0  0  0  0  0  0
  -19.5385   -0.5243  -15.4751 C   0  0  0  0  0  0  0  0  0  0  0  0
  -19.7514    0.8768  -15.1858 N   0  0  0  0  0  0  0  0  0  0  0  0
  -18.8258    1.8653  -15.4131 C   0  0  0  0  0  0  0  0  0  0  0  0
  -19.3836    3.0684  -15.0280 C   0  0  0  0  0  0  0  0  0  0  0  0
  -20.6863    2.7910  -14.5519 C   0  0  0  0  0  0  0  0  0  0  0  0
  -21.6037    3.6494  -14.0605 N   0  0  0  0  0  0  0  0  0  0  0  0
  -22.7466    3.0567  -13.6996 C   0  0  0  0  0  0  0  0  0  0  0  0
  -23.0525    1.7513  -13.7736 N   0  0  0  0  0  0  0  0  0  0  0  0
  -22.1096    0.8969  -14.2346 C   0  0  0  0  0  0  0  0  0  0  0  0
  -20.8983    1.4203  -14.6576 C   0  0  0  0  0  0  0  0  0  0  0  0
 25 26  1  0  0  0
 26 27  1  0  0  0
 26 34  1  0  0  0
 27 28  2  0  0  0
 28 29  1  0  0  0
 29 30  1  0  0  0
 29 34  2  0  0  0
 30 31  2  0  0  0
 31 32  1  0  0  0
 32 33  2  0  0  0
 33 24  1  0  0  0
 33 34  1  0  0  0
 24  1  1  0  0  0
  1  2  1  0  0  0
  1  6  2  0  0  0
  2  3  2  0  0  0
  3  4  1  0  0  0
  4  8  1  0  0  0
  4  5  2  0  0  0
  8  9  1  0  0  0
  8 12  1  0  0  0
  9 10  2  0  0  0
  9 11  1  0  0  0
 11 14  1  0  0  0
 11 13  1  0  0  0
 14 15  1  0  0  0
 14 19  2  0  0  0
 15 16  2  0  0  0
 16 17  1  0  0  0
 17 18  2  0  0  0
 18 20  1  0  0  0
 18 19  1  0  0  0
 20 21  1  0  0  0
 20 22  1  0  0  0
 20 23  1  0  0  0
  5  6  1  0  0  0
  6  7  1  0  0  0
M  END
> <minimizedAffinity>
-11.59955

$$$$
