CHEMBL3955288


 34 38  0  0  0  0  0  0  0  0999 V2000
  -25.1728   -1.4982  -11.3373 C   0  0  0  0  0  0  0  0  0  0  0  0
  -24.8309   -0.2991  -10.7596 C   0  0  0  0  0  0  0  0  0  0  0  0
  -24.1691    0.5610  -11.5719 C   0  0  0  0  0  0  0  0  0  0  0  0
  -23.7093    0.2024  -12.7762 C   0  0  0  0  0  0  0  0  0  0  0  0
  -23.7287    1.2752  -13.5043 N   0  0  0  0  0  0  0  0  0  0  0  0
  -22.6494    1.4944  -14.2187 C   0  0  0  0  0  0  0  0  0  0  0  0
  -21.5910    0.6269  -14.4282 C   0  0  0  0  0  0  0  0  0  0  0  0
  -21.9144   -0.7131  -14.0140 N   0  0  0  0  0  0  0  0  0  0  0  0
  -23.1787   -1.0136  -13.0885 C   0  0  0  0  0  0  0  0  0  0  0  0
  -24.2273   -1.9583  -12.3885 C   0  0  0  0  0  0  0  0  0  0  0  0
  -20.3689    1.4174  -14.8601 C   0  0  0  0  0  0  0  0  0  0  0  0
  -19.9400    2.7583  -15.0655 C   0  0  0  0  0  0  0  0  0  0  0  0
  -18.6180    2.8956  -15.3902 N   0  0  0  0  0  0  0  0  0  0  0  0
  -18.1574    1.6412  -15.4037 N   0  0  0  0  0  0  0  0  0  0  0  0
  -19.1336    0.7587  -15.0484 C   0  0  0  0  0  0  0  0  0  0  0  0
  -16.7552    1.2630  -15.6225 C   0  0  0  0  0  0  0  0  0  0  0  0
  -16.0026    0.7232  -14.4141 C   0  0  0  0  0  0  0  0  0  0  0  0
  -16.0607   -0.6960  -14.3454 O   0  0  0  0  0  0  0  0  0  0  0  0
  -17.0108   -0.9231  -14.3955 H   0  0  0  0  0  0  0  0  0  0  0  0
  -26.4801   -2.0540  -10.9650 N   0  0  0  0  0  0  0  0  0  0  0  0
  -27.8033   -1.0941   -7.5698 C   0  0  0  0  0  0  0  0  0  0  0  0
  -28.3051   -2.3141   -7.0949 C   0  0  0  0  0  0  0  0  0  0  0  0
  -28.1966   -3.4545   -7.8712 C   0  0  0  0  0  0  0  0  0  0  0  0
  -27.5821   -3.3574   -9.1290 C   0  0  0  0  0  0  0  0  0  0  0  0
  -27.0583   -2.1377   -9.6422 C   0  0  0  0  0  0  0  0  0  0  0  0
  -27.1644   -1.0168   -8.8184 C   0  0  0  0  0  0  0  0  0  0  0  0
  -27.6777   -0.2563   -5.3607 C   0  0  0  0  0  0  0  0  0  0  0  0
  -28.0114   -0.0365   -6.7238 O   0  0  0  0  0  0  0  0  0  0  0  0
  -28.6539   -4.7008   -7.5318 O   0  0  0  0  0  0  0  0  0  0  0  0
  -29.0820   -4.8860   -6.1846 C   0  0  0  0  0  0  0  0  0  0  0  0
  -27.6081   -1.6118  -11.9199 C   0  0  0  0  0  0  0  0  0  0  0  0
  -27.6347   -2.3136  -13.2510 C   0  0  0  0  0  0  0  0  0  0  0  0
  -26.9730   -1.6098  -14.4059 C   0  0  0  0  0  0  0  0  0  0  0  0
  -28.4406   -1.9233  -14.4642 C   0  0  0  0  0  0  0  0  0  0  0  0
 27 28  1  0  0  0
 28 21  1  0  0  0
 21 22  1  0  0  0
 21 26  2  0  0  0
 22 23  2  0  0  0
 23 29  1  0  0  0
 23 24  1  0  0  0
 29 30  1  0  0  0
 24 25  2  0  0  0
 25 20  1  0  0  0
 25 26  1  0  0  0
 20 31  1  0  0  0
 20  1  1  0  0  0
 31 32  1  0  0  0
 32 33  1  0  0  0
 32 34  1  0  0  0
 33 34  1  0  0  0
  1  2  1  0  0  0
  1 10  2  0  0  0
  2  3  2  0  0  0
  3  4  1  0  0  0
  4  5  1  0  0  0
  4  9  2  0  0  0
  5  6  2  0  0  0
  6  7  1  0  0  0
  7 11  1  0  0  0
  7  8  2  0  0  0
 11 12  1  0  0  0
 11 15  2  0  0  0
 12 13  2  0  0  0
 13 14  1  0  0  0
 14 16  1  0  0  0
 14 15  1  0  0  0
 16 17  1  0  0  0
 17 18  1  0  0  0
 18 19  1  0  0  0
  8  9  1  0  0  0
  9 10  1  0  0  0
M  END
> <minimizedAffinity>
-7.36343

$$$$
