CHEMBL179453


 27 29  0  0  0  0  0  0  0  0999 V2000
  -30.3827   -5.3427   -6.4684 N   0  0  0  0  0  0  0  0  0  0  0  0
  -31.3496   -5.3860   -6.7725 H   0  0  0  0  0  0  0  0  0  0  0  0
  -29.0008   -2.1793   -5.0294 C   0  0  0  0  0  0  0  0  0  0  0  0
  -29.5902   -2.1774   -3.7695 C   0  0  0  0  0  0  0  0  0  0  0  0
  -30.4690   -3.2073   -3.4161 C   0  0  0  0  0  0  0  0  0  0  0  0
  -30.7440   -4.2482   -4.3130 C   0  0  0  0  0  0  0  0  0  0  0  0
  -30.1292   -4.2647   -5.5862 C   0  0  0  0  0  0  0  0  0  0  0  0
  -29.2917   -3.1919   -5.9376 C   0  0  0  0  0  0  0  0  0  0  0  0
  -27.9196   -0.8607   -5.5362 S   0  0  0  0  0  0  0  0  0  0  0  0
  -27.9441   -0.8342   -6.9901 O   0  0  0  0  0  0  0  0  0  0  0  0
  -26.6727   -1.0439   -4.8193 O   0  0  0  0  0  0  0  0  0  0  0  0
  -29.9506    0.9471   -5.7526 C   0  0  0  0  0  0  0  0  0  0  0  0
  -28.6939    0.6412   -4.9528 C   0  0  0  0  0  0  0  0  0  0  0  0
  -31.5598   -5.3224   -4.0302 O   0  0  0  0  0  0  0  0  0  0  0  0
  -32.2593   -5.2845   -2.7888 C   0  0  0  0  0  0  0  0  0  0  0  0
  -29.6148   -6.4370   -6.6066 C   0  0  0  0  0  0  0  0  0  0  0  0
  -28.9458   -7.1191   -5.7022 N   0  0  0  0  0  0  0  0  0  0  0  0
  -28.3984   -8.1602   -6.3865 C   0  0  0  0  0  0  0  0  0  0  0  0
  -28.7634   -8.0973   -7.7098 C   0  0  0  0  0  0  0  0  0  0  0  0
  -29.5312   -6.9666   -7.8658 O   0  0  0  0  0  0  0  0  0  0  0  0
  -28.5173   -8.9059   -8.8922 C   0  0  0  0  0  0  0  0  0  0  0  0
  -27.2683   -8.8067   -9.5311 C   0  0  0  0  0  0  0  0  0  0  0  0
  -26.9628   -9.5965  -10.6418 C   0  0  0  0  0  0  0  0  0  0  0  0
  -27.8990  -10.4996  -11.1344 C   0  0  0  0  0  0  0  0  0  0  0  0
  -29.1464  -10.6056  -10.5240 C   0  0  0  0  0  0  0  0  0  0  0  0
  -29.4610   -9.8121   -9.4150 C   0  0  0  0  0  0  0  0  0  0  0  0
  -31.0632   -9.9896   -8.7790 Cl  0  0  0  0  0  0  0  0  0  0  0  0
 12 13  1  0  0  0
 13  9  1  0  0  0
  9 10  2  0  0  0
  9 11  2  0  0  0
  9  3  1  0  0  0
  3  4  1  0  0  0
  3  8  2  0  0  0
  4  5  2  0  0  0
  5  6  1  0  0  0
  6 14  1  0  0  0
  6  7  2  0  0  0
 14 15  1  0  0  0
  7  1  1  0  0  0
  7  8  1  0  0  0
  1 16  1  0  0  0
  1  2  1  0  0  0
 16 17  2  0  0  0
 16 20  1  0  0  0
 17 18  1  0  0  0
 18 19  2  0  0  0
 19 21  1  0  0  0
 19 20  1  0  0  0
 21 22  1  0  0  0
 21 26  2  0  0  0
 22 23  2  0  0  0
 23 24  1  0  0  0
 24 25  2  0  0  0
 25 26  1  0  0  0
 26 27  1  0  0  0
M  END
> <minimizedAffinity>
-8.04492

$$$$
