CHEMBL3925180


 44 46  0  0  0  0  0  0  0  0999 V2000
  -18.8232    1.5963  -14.8864 C   0  0  0  0  0  0  0  0  0  0  0  0
  -18.9846    2.9681  -14.7912 C   0  0  0  0  0  0  0  0  0  0  0  0
  -20.1664    3.5706  -14.4918 N   0  0  0  0  0  0  0  0  0  0  0  0
  -21.2410    2.7799  -14.2767 C   0  0  0  0  0  0  0  0  0  0  0  0
  -22.4514    3.4514  -14.1240 N   0  0  0  0  0  0  0  0  0  0  0  0
  -21.1664    1.3803  -14.3115 C   0  0  0  0  0  0  0  0  0  0  0  0
  -19.9363    0.7907  -14.6161 C   0  0  0  0  0  0  0  0  0  0  0  0
  -22.2628    4.4441  -14.0296 H   0  0  0  0  0  0  0  0  0  0  0  0
  -23.0379    3.0723  -13.3906 H   0  0  0  0  0  0  0  0  0  0  0  0
  -17.5242    0.9962  -15.2978 C   0  0  0  0  0  0  0  0  0  0  0  0
  -16.7931    1.7202  -15.9708 O   0  0  0  0  0  0  0  0  0  0  0  0
  -15.8637   -0.3926  -13.9304 S   0  0  0  0  0  0  0  0  0  0  0  0
  -16.3074    0.2290  -12.3144 C   0  0  0  0  0  0  0  0  0  0  0  0
  -14.5708    0.1747  -14.2652 O   0  0  0  0  0  0  0  0  0  0  0  0
  -17.1089   -0.2740  -14.8453 N   0  0  0  0  0  0  0  0  0  0  0  0
  -15.5818   -2.1335  -13.5977 C   0  0  0  0  0  0  0  0  0  0  0  0
  -14.9916   -2.3738  -12.2065 C   0  0  0  0  0  0  0  0  0  0  0  0
  -15.9648   -3.1375  -11.3003 C   0  0  0  0  0  0  0  0  0  0  0  0
  -16.3973   -4.4753  -11.9057 C   0  0  0  0  0  0  0  0  0  0  0  0
  -15.4050   -5.5736  -11.5822 C   0  0  0  0  0  0  0  0  0  0  0  0
  -14.8214   -5.6899  -10.5065 O   0  0  0  0  0  0  0  0  0  0  0  0
  -15.7738   -5.8978  -13.8706 C   0  0  0  0  0  0  0  0  0  0  0  0
  -15.2547   -6.4108  -12.6427 O   0  0  0  0  0  0  0  0  0  0  0  0
  -22.3064    0.5518  -14.0217 C   0  0  0  0  0  0  0  0  0  0  0  0
  -23.3001   -0.0958  -13.8051 C   0  0  0  0  0  0  0  0  0  0  0  0
  -24.5262   -0.8202  -13.6021 C   0  0  0  0  0  0  0  0  0  0  0  0
  -25.4564   -0.9068  -14.6329 C   0  0  0  0  0  0  0  0  0  0  0  0
  -26.6670   -1.5704  -14.4167 C   0  0  0  0  0  0  0  0  0  0  0  0
  -26.9426   -2.1219  -13.1682 C   0  0  0  0  0  0  0  0  0  0  0  0
  -26.0227   -2.0576  -12.1136 C   0  0  0  0  0  0  0  0  0  0  0  0
  -24.8026   -1.4023  -12.3477 C   0  0  0  0  0  0  0  0  0  0  0  0
  -26.3193   -2.6006  -10.8273 N   0  0  0  0  0  0  0  0  0  0  0  0
  -27.1957   -2.0116   -9.9189 C   0  0  0  0  0  0  0  0  0  0  0  0
  -27.8841   -1.0227  -10.1528 O   0  0  0  0  0  0  0  0  0  0  0  0
  -27.2105   -2.6429   -8.6826 N   0  0  0  0  0  0  0  0  0  0  0  0
  -26.0192   -3.5440  -10.6395 H   0  0  0  0  0  0  0  0  0  0  0  0
  -26.3153   -2.9964   -8.3775 H   0  0  0  0  0  0  0  0  0  0  0  0
  -28.0625   -2.1500   -7.6552 C   0  0  0  0  0  0  0  0  0  0  0  0
  -27.9278   -0.8279   -7.2262 C   0  0  0  0  0  0  0  0  0  0  0  0
  -28.7108   -0.3486   -6.1714 C   0  0  0  0  0  0  0  0  0  0  0  0
  -29.5861   -1.2028   -5.5017 C   0  0  0  0  0  0  0  0  0  0  0  0
  -29.7265   -2.5325   -5.9124 C   0  0  0  0  0  0  0  0  0  0  0  0
  -30.5964   -3.4785   -5.1360 C   0  0  0  0  0  0  0  0  0  0  0  0
  -28.9968   -2.9853   -7.0255 C   0  0  0  0  0  0  0  0  0  0  0  0
 22 23  1  0  0  0
 23 20  1  0  0  0
 20 21  2  0  0  0
 20 19  1  0  0  0
 19 18  1  0  0  0
 18 17  1  0  0  0
 17 16  1  0  0  0
 16 12  1  0  0  0
 12 13  1  0  0  0
 12 14  2  0  0  0
 12 15  2  0  0  0
 15 10  1  0  0  0
 10 11  2  0  0  0
 10  1  1  0  0  0
  1  2  1  0  0  0
  1  7  2  0  0  0
  2  3  2  0  0  0
  3  4  1  0  0  0
  4  5  1  0  0  0
  4  6  2  0  0  0
  5  8  1  0  0  0
  5  9  1  0  0  0
  6 24  1  0  0  0
  6  7  1  0  0  0
 24 25  3  0  0  0
 25 26  1  0  0  0
 26 27  1  0  0  0
 26 31  2  0  0  0
 27 28  2  0  0  0
 28 29  1  0  0  0
 29 30  2  0  0  0
 30 32  1  0  0  0
 30 31  1  0  0  0
 32 33  1  0  0  0
 32 36  1  0  0  0
 33 34  2  0  0  0
 33 35  1  0  0  0
 35 38  1  0  0  0
 35 37  1  0  0  0
 38 39  1  0  0  0
 38 44  2  0  0  0
 39 40  2  0  0  0
 40 41  1  0  0  0
 41 42  2  0  0  0
 42 43  1  0  0  0
 42 44  1  0  0  0
M  END
> <minimizedAffinity>
-11.13451

$$$$
