CHEMBL2023116


 35 38  0  0  0  0  0  0  0  0999 V2000
  -18.7521    2.4239  -15.3340 C   0  0  0  0  0  0  0  0  0  0  0  0
  -18.5401    1.1703  -14.7558 C   0  0  0  0  0  0  0  0  0  0  0  0
  -17.2385    0.6925  -14.5539 C   0  0  0  0  0  0  0  0  0  0  0  0
  -16.1217    1.4314  -14.9677 C   0  0  0  0  0  0  0  0  0  0  0  0
  -16.3368    2.6867  -15.5653 C   0  0  0  0  0  0  0  0  0  0  0  0
  -17.6409    3.1767  -15.7251 C   0  0  0  0  0  0  0  0  0  0  0  0
  -15.3809    3.5849  -15.9661 O   0  0  0  0  0  0  0  0  0  0  0  0
  -15.2416    3.7909  -17.3655 C   0  0  0  0  0  0  0  0  0  0  0  0
  -20.1432    2.9791  -15.5027 C   0  0  0  0  0  0  0  0  0  0  0  0
  -21.4436    1.0332  -14.6886 N   0  0  0  0  0  0  0  0  0  0  0  0
  -21.2486    2.3994  -14.6306 C   0  0  0  0  0  0  0  0  0  0  0  0
  -21.9178    3.1782  -13.9486 O   0  0  0  0  0  0  0  0  0  0  0  0
  -20.9219    0.4777  -15.3557 H   0  0  0  0  0  0  0  0  0  0  0  0
  -24.1103   -0.7759  -13.1931 N   0  0  0  0  0  0  0  0  0  0  0  0
  -23.5633   -0.1955  -14.2987 C   0  0  0  0  0  0  0  0  0  0  0  0
  -22.3633    0.3461  -13.9077 C   0  0  0  0  0  0  0  0  0  0  0  0
  -22.2929    0.0532  -12.5262 C   0  0  0  0  0  0  0  0  0  0  0  0
  -23.3520   -0.6385  -12.0884 N   0  0  0  0  0  0  0  0  0  0  0  0
  -26.1711   -1.1160  -11.8875 C   0  0  0  0  0  0  0  0  0  0  0  0
  -25.3863   -1.4627  -13.1385 C   0  0  0  0  0  0  0  0  0  0  0  0
  -14.8201    1.0880  -14.6847 O   0  0  0  0  0  0  0  0  0  0  0  0
  -14.1240    0.0741  -15.3427 C   0  0  0  0  0  0  0  0  0  0  0  0
  -13.6773    0.2535  -16.5982 N   0  0  0  0  0  0  0  0  0  0  0  0
  -13.0449   -0.7935  -17.1366 C   0  0  0  0  0  0  0  0  0  0  0  0
  -12.7943   -1.9640  -16.5340 N   0  0  0  0  0  0  0  0  0  0  0  0
  -13.2210   -2.1056  -15.2737 C   0  0  0  0  0  0  0  0  0  0  0  0
  -12.9878   -3.3090  -14.6148 C   0  0  0  0  0  0  0  0  0  0  0  0
  -13.4275   -3.5551  -13.3034 C   0  0  0  0  0  0  0  0  0  0  0  0
  -14.1155   -2.5429  -12.6224 C   0  0  0  0  0  0  0  0  0  0  0  0
  -14.3370   -1.3215  -13.2711 C   0  0  0  0  0  0  0  0  0  0  0  0
  -13.9093   -1.0976  -14.6004 C   0  0  0  0  0  0  0  0  0  0  0  0
  -13.2626   -4.7657  -12.6871 O   0  0  0  0  0  0  0  0  0  0  0  0
  -14.0825   -5.8475  -13.1105 C   0  0  0  0  0  0  0  0  0  0  0  0
  -14.6261   -2.5560  -11.3521 O   0  0  0  0  0  0  0  0  0  0  0  0
  -15.9143   -3.1132  -11.1349 C   0  0  0  0  0  0  0  0  0  0  0  0
 19 20  1  0  0  0
 20 14  1  0  0  0
 14 15  1  0  0  0
 14 18  1  0  0  0
 15 16  2  0  0  0
 16 10  1  0  0  0
 16 17  1  0  0  0
 10 11  1  0  0  0
 10 13  1  0  0  0
 11 12  2  0  0  0
 11  9  1  0  0  0
  9  1  1  0  0  0
  1  2  1  0  0  0
  1  6  2  0  0  0
  2  3  2  0  0  0
  3  4  1  0  0  0
  4 21  1  0  0  0
  4  5  2  0  0  0
 21 22  1  0  0  0
 22 23  1  0  0  0
 22 31  2  0  0  0
 23 24  2  0  0  0
 24 25  1  0  0  0
 25 26  2  0  0  0
 26 27  1  0  0  0
 26 31  1  0  0  0
 27 28  2  0  0  0
 28 32  1  0  0  0
 28 29  1  0  0  0
 32 33  1  0  0  0
 29 34  1  0  0  0
 29 30  2  0  0  0
 34 35  1  0  0  0
 30 31  1  0  0  0
  5  7  1  0  0  0
  5  6  1  0  0  0
  7  8  1  0  0  0
 17 18  2  0  0  0
M  END
> <minimizedAffinity>
-8.16343

$$$$
