CHEMBL1981725


 48 54  0  0  0  0  0  0  0  0999 V2000
  -13.5929    2.0303  -15.9541 C   0  0  0  0  0  0  0  0  0  0  0  0
  -12.6982    1.3195  -16.7572 C   0  0  0  0  0  0  0  0  0  0  0  0
  -11.7327    2.1426  -17.2919 N   0  0  0  0  0  0  0  0  0  0  0  0
  -12.0277    3.3488  -16.8725 C   0  0  0  0  0  0  0  0  0  0  0  0
  -11.4042    4.5985  -17.1531 C   0  0  0  0  0  0  0  0  0  0  0  0
  -11.8909    5.7310  -16.6143 C   0  0  0  0  0  0  0  0  0  0  0  0
  -13.0293    5.7044  -15.7152 C   0  0  0  0  0  0  0  0  0  0  0  0
  -13.6082    4.5266  -15.4282 C   0  0  0  0  0  0  0  0  0  0  0  0
  -13.1347    3.3479  -16.0252 N   0  0  0  0  0  0  0  0  0  0  0  0
  -17.0511    1.7094  -14.9926 C   0  0  0  0  0  0  0  0  0  0  0  0
  -17.0343    1.0526  -13.8210 N   0  0  0  0  0  0  0  0  0  0  0  0
  -15.8440    0.6897  -13.3309 C   0  0  0  0  0  0  0  0  0  0  0  0
  -14.6589    0.9613  -13.9614 C   0  0  0  0  0  0  0  0  0  0  0  0
  -14.7588    1.5822  -15.1848 C   0  0  0  0  0  0  0  0  0  0  0  0
  -15.9474    1.9378  -15.7135 N   0  0  0  0  0  0  0  0  0  0  0  0
  -18.2540    2.2323  -15.4770 N   0  0  0  0  0  0  0  0  0  0  0  0
  -18.1446    3.2378  -15.5611 H   0  0  0  0  0  0  0  0  0  0  0  0
  -22.1059    0.9434  -14.1942 C   0  0  0  0  0  0  0  0  0  0  0  0
  -21.7337    2.2893  -14.1103 C   0  0  0  0  0  0  0  0  0  0  0  0
  -20.4762    2.7321  -14.5429 C   0  0  0  0  0  0  0  0  0  0  0  0
  -19.5406    1.8368  -15.0675 C   0  0  0  0  0  0  0  0  0  0  0  0
  -19.9315    0.5104  -15.2401 C   0  0  0  0  0  0  0  0  0  0  0  0
  -21.1829    0.0699  -14.7877 C   0  0  0  0  0  0  0  0  0  0  0  0
  -24.9173   -1.5959  -12.3429 N   0  0  0  0  0  0  0  0  0  0  0  0
  -23.9832   -0.6889  -11.6260 C   0  0  0  0  0  0  0  0  0  0  0  0
  -23.7389    0.6672  -12.3266 C   0  0  0  0  0  0  0  0  0  0  0  0
  -23.3189    0.4808  -13.7217 N   0  0  0  0  0  0  0  0  0  0  0  0
  -24.0962   -0.4863  -14.5178 C   0  0  0  0  0  0  0  0  0  0  0  0
  -24.3904   -1.7797  -13.7152 C   0  0  0  0  0  0  0  0  0  0  0  0
  -27.3378   -1.9462  -12.9536 C   0  0  0  0  0  0  0  0  0  0  0  0
  -26.2879   -1.0645  -12.2884 C   0  0  0  0  0  0  0  0  0  0  0  0
  -12.7044   -0.1079  -17.0747 C   0  0  0  0  0  0  0  0  0  0  0  0
  -12.2009   -0.6071  -18.2853 C   0  0  0  0  0  0  0  0  0  0  0  0
  -12.2466   -1.9702  -18.5797 C   0  0  0  0  0  0  0  0  0  0  0  0
  -12.7395   -2.8623  -17.6341 C   0  0  0  0  0  0  0  0  0  0  0  0
  -13.1943   -2.3923  -16.3961 C   0  0  0  0  0  0  0  0  0  0  0  0
  -13.1834   -1.0189  -16.1202 C   0  0  0  0  0  0  0  0  0  0  0  0
  -13.6059   -3.3975  -15.3811 C   0  0  0  0  0  0  0  0  0  0  0  0
  -12.8698   -4.3608  -15.1950 O   0  0  0  0  0  0  0  0  0  0  0  0
  -14.8258   -3.1753  -14.7746 N   0  0  0  0  0  0  0  0  0  0  0  0
  -15.4330   -2.4630  -15.1672 H   0  0  0  0  0  0  0  0  0  0  0  0
  -15.4095   -3.9731  -13.7644 C   0  0  0  0  0  0  0  0  0  0  0  0
  -15.5924   -5.3534  -13.8717 C   0  0  0  0  0  0  0  0  0  0  0  0
  -16.1999   -6.0698  -12.8343 C   0  0  0  0  0  0  0  0  0  0  0  0
  -16.6296   -5.4137  -11.6813 C   0  0  0  0  0  0  0  0  0  0  0  0
  -16.4348   -4.0401  -11.5548 C   0  0  0  0  0  0  0  0  0  0  0  0
  -15.8192   -3.3364  -12.5873 C   0  0  0  0  0  0  0  0  0  0  0  0
  -15.6424   -2.0119  -12.4544 F   0  0  0  0  0  0  0  0  0  0  0  0
 30 31  1  0  0  0
 31 24  1  0  0  0
 24 25  1  0  0  0
 24 29  1  0  0  0
 25 26  1  0  0  0
 26 27  1  0  0  0
 27 18  1  0  0  0
 27 28  1  0  0  0
 18 19  1  0  0  0
 18 23  2  0  0  0
 19 20  2  0  0  0
 20 21  1  0  0  0
 21 16  1  0  0  0
 21 22  2  0  0  0
 16 10  1  0  0  0
 16 17  1  0  0  0
 10 11  1  0  0  0
 10 15  2  0  0  0
 11 12  2  0  0  0
 12 13  1  0  0  0
 13 14  2  0  0  0
 14  1  1  0  0  0
 14 15  1  0  0  0
  1  2  2  0  0  0
  1  9  1  0  0  0
  2 32  1  0  0  0
  2  3  1  0  0  0
 32 33  1  0  0  0
 32 37  2  0  0  0
 33 34  2  0  0  0
 34 35  1  0  0  0
 35 36  2  0  0  0
 36 38  1  0  0  0
 36 37  1  0  0  0
 38 39  2  0  0  0
 38 40  1  0  0  0
 40 42  1  0  0  0
 40 41  1  0  0  0
 42 43  1  0  0  0
 42 47  2  0  0  0
 43 44  2  0  0  0
 44 45  1  0  0  0
 45 46  2  0  0  0
 46 47  1  0  0  0
 47 48  1  0  0  0
  3  4  2  0  0  0
  4  5  1  0  0  0
  4  9  1  0  0  0
  5  6  2  0  0  0
  6  7  1  0  0  0
  7  8  2  0  0  0
  8  9  1  0  0  0
 22 23  1  0  0  0
 28 29  1  0  0  0
M  END
> <minimizedAffinity>
-10.40276

$$$$
