CHEMBL3690404


 38 42  0  0  0  0  0  0  0  0999 V2000
  -16.3444    1.3605  -15.5574 C   0  0  0  0  0  0  0  0  0  0  0  0
  -15.3752    1.6577  -16.5045 C   0  0  0  0  0  0  0  0  0  0  0  0
  -14.2284    0.9390  -16.3164 N   0  0  0  0  0  0  0  0  0  0  0  0
  -14.4656    0.1889  -15.2649 C   0  0  0  0  0  0  0  0  0  0  0  0
  -13.6379   -0.7647  -14.6121 C   0  0  0  0  0  0  0  0  0  0  0  0
  -14.0638   -1.4404  -13.5156 C   0  0  0  0  0  0  0  0  0  0  0  0
  -15.4160   -1.1860  -13.0134 C   0  0  0  0  0  0  0  0  0  0  0  0
  -16.2137   -0.3083  -13.6416 C   0  0  0  0  0  0  0  0  0  0  0  0
  -15.7426    0.3950  -14.7536 N   0  0  0  0  0  0  0  0  0  0  0  0
  -20.0915    1.4077  -15.0421 C   0  0  0  0  0  0  0  0  0  0  0  0
  -20.3329    2.7826  -15.0065 C   0  0  0  0  0  0  0  0  0  0  0  0
  -19.3019    3.6855  -15.2528 C   0  0  0  0  0  0  0  0  0  0  0  0
  -18.0139    3.2232  -15.5091 C   0  0  0  0  0  0  0  0  0  0  0  0
  -17.7194    1.8557  -15.4451 C   0  0  0  0  0  0  0  0  0  0  0  0
  -18.7802    0.9557  -15.2491 C   0  0  0  0  0  0  0  0  0  0  0  0
  -22.3441    1.2919  -13.1026 O   0  0  0  0  0  0  0  0  0  0  0  0
  -22.1241    0.4470  -13.9596 C   0  0  0  0  0  0  0  0  0  0  0  0
  -22.9500   -0.6479  -14.1117 N   0  0  0  0  0  0  0  0  0  0  0  0
  -21.1018    0.4360  -14.8820 N   0  0  0  0  0  0  0  0  0  0  0  0
  -22.5083   -1.4796  -14.4769 H   0  0  0  0  0  0  0  0  0  0  0  0
  -21.1217   -0.3083  -15.5623 H   0  0  0  0  0  0  0  0  0  0  0  0
  -24.0121   -0.8669  -13.1238 C   0  0  0  0  0  0  0  0  0  0  0  0
  -23.6677   -1.8716  -12.0157 C   0  0  0  0  0  0  0  0  0  0  0  0
  -24.6490   -1.9529  -11.0863 F   0  0  0  0  0  0  0  0  0  0  0  0
  -23.4383   -3.1104  -12.4949 F   0  0  0  0  0  0  0  0  0  0  0  0
  -22.5473   -1.4730  -11.3633 F   0  0  0  0  0  0  0  0  0  0  0  0
  -13.2160   -2.3756  -12.8420 C   0  0  0  0  0  0  0  0  0  0  0  0
  -11.8450   -2.3172  -12.5192 C   0  0  0  0  0  0  0  0  0  0  0  0
  -11.4247   -3.4076  -11.8661 N   0  0  0  0  0  0  0  0  0  0  0  0
  -12.5376   -4.1703  -11.7681 N   0  0  0  0  0  0  0  0  0  0  0  0
  -13.6209   -3.5967  -12.3641 C   0  0  0  0  0  0  0  0  0  0  0  0
  -12.4802   -5.4527  -11.0713 C   0  0  0  0  0  0  0  0  0  0  0  0
  -13.7280   -5.6978  -10.2129 C   0  0  0  0  0  0  0  0  0  0  0  0
  -13.6753   -4.9422   -8.8852 C   0  0  0  0  0  0  0  0  0  0  0  0
  -12.3577   -5.1677   -8.1426 C   0  0  0  0  0  0  0  0  0  0  0  0
  -11.1932   -4.8718   -8.9720 N   0  0  0  0  0  0  0  0  0  0  0  0
  -11.1982   -5.6334  -10.2296 C   0  0  0  0  0  0  0  0  0  0  0  0
  -10.3348   -5.0565   -8.4532 H   0  0  0  0  0  0  0  0  0  0  0  0
 16 17  2  0  0  0
 17 18  1  0  0  0
 17 19  1  0  0  0
 18 22  1  0  0  0
 18 20  1  0  0  0
 22 23  1  0  0  0
 23 24  1  0  0  0
 23 25  1  0  0  0
 23 26  1  0  0  0
 19 10  1  0  0  0
 19 21  1  0  0  0
 10 11  1  0  0  0
 10 15  2  0  0  0
 11 12  2  0  0  0
 12 13  1  0  0  0
 13 14  2  0  0  0
 14  1  1  0  0  0
 14 15  1  0  0  0
  1  2  2  0  0  0
  1  9  1  0  0  0
  2  3  1  0  0  0
  3  4  2  0  0  0
  4  5  1  0  0  0
  4  9  1  0  0  0
  5  6  2  0  0  0
  6 27  1  0  0  0
  6  7  1  0  0  0
 27 28  1  0  0  0
 27 31  2  0  0  0
 28 29  2  0  0  0
 29 30  1  0  0  0
 30 32  1  0  0  0
 30 31  1  0  0  0
 32 33  1  0  0  0
 32 37  1  0  0  0
 33 34  1  0  0  0
 34 35  1  0  0  0
 35 36  1  0  0  0
 36 37  1  0  0  0
 36 38  1  0  0  0
  7  8  2  0  0  0
  8  9  1  0  0  0
M  END
> <minimizedAffinity>
-9.72178

$$$$
