CHEMBL521552


 25 28  0  0  0  0  0  0  0  0999 V2000
  -28.8008   -3.3067   -7.4204 C   0  0  0  0  0  0  0  0  0  0  0  0
  -28.1934   -2.1505   -7.8034 C   0  0  0  0  0  0  0  0  0  0  0  0
  -28.0521   -0.9825   -6.8806 C   0  0  0  0  0  0  0  0  0  0  0  0
  -27.5253    0.0770   -7.2126 O   0  0  0  0  0  0  0  0  0  0  0  0
  -28.5860   -1.1022   -5.6308 N   0  0  0  0  0  0  0  0  0  0  0  0
  -29.2352   -2.2454   -5.1794 C   0  0  0  0  0  0  0  0  0  0  0  0
  -29.7526   -2.2455   -3.8754 C   0  0  0  0  0  0  0  0  0  0  0  0
  -30.4047   -3.3731   -3.3870 C   0  0  0  0  0  0  0  0  0  0  0  0
  -30.5306   -4.4947   -4.1964 C   0  0  0  0  0  0  0  0  0  0  0  0
  -30.0053   -4.4918   -5.4925 C   0  0  0  0  0  0  0  0  0  0  0  0
  -29.3578   -3.3586   -6.0221 C   0  0  0  0  0  0  0  0  0  0  0  0
  -28.4753   -0.2974   -5.0302 H   0  0  0  0  0  0  0  0  0  0  0  0
  -27.7235   -1.9502   -9.1305 C   0  0  0  0  0  0  0  0  0  0  0  0
  -28.3500   -1.9341  -10.2915 N   0  0  0  0  0  0  0  0  0  0  0  0
  -27.3728   -1.7827  -11.2450 C   0  0  0  0  0  0  0  0  0  0  0  0
  -27.4831   -1.7501  -12.6406 C   0  0  0  0  0  0  0  0  0  0  0  0
  -26.3166   -1.6186  -13.4032 C   0  0  0  0  0  0  0  0  0  0  0  0
  -25.0679   -1.5008  -12.7861 C   0  0  0  0  0  0  0  0  0  0  0  0
  -24.9414   -1.5081  -11.3923 C   0  0  0  0  0  0  0  0  0  0  0  0
  -26.1187   -1.6599  -10.6578 C   0  0  0  0  0  0  0  0  0  0  0  0
  -26.3722   -1.7472   -9.3124 N   0  0  0  0  0  0  0  0  0  0  0  0
  -25.6837   -1.6924   -8.5776 H   0  0  0  0  0  0  0  0  0  0  0  0
  -28.3635   -5.7575   -8.0421 C   0  0  0  0  0  0  0  0  0  0  0  0
  -28.9985   -4.4648   -8.1790 N   0  0  0  0  0  0  0  0  0  0  0  0
  -29.3834   -4.3050   -9.1013 H   0  0  0  0  0  0  0  0  0  0  0  0
 23 24  1  0  0  0
 24  1  1  0  0  0
 24 25  1  0  0  0
  1  2  2  0  0  0
  1 11  1  0  0  0
  2 13  1  0  0  0
  2  3  1  0  0  0
 13 14  2  0  0  0
 13 21  1  0  0  0
 14 15  1  0  0  0
 15 16  1  0  0  0
 15 20  2  0  0  0
 16 17  2  0  0  0
 17 18  1  0  0  0
 18 19  2  0  0  0
 19 20  1  0  0  0
 20 21  1  0  0  0
 21 22  1  0  0  0
  3  4  2  0  0  0
  3  5  1  0  0  0
  5  6  1  0  0  0
  5 12  1  0  0  0
  6  7  1  0  0  0
  6 11  2  0  0  0
  7  8  2  0  0  0
  8  9  1  0  0  0
  9 10  2  0  0  0
 10 11  1  0  0  0
M  END
> <minimizedAffinity>
-8.24217

$$$$
