CHEMBL3901682


 34 37  0  0  0  0  0  0  0  0999 V2000
  -28.0905   -2.2140   -7.8465 N   0  0  0  0  0  0  0  0  0  0  0  0
  -28.7225   -3.5202   -7.8377 C   0  0  0  0  0  0  0  0  0  0  0  0
  -29.9185   -3.5670   -7.1304 C   0  0  0  0  0  0  0  0  0  0  0  0
  -30.3042   -4.7347   -6.5067 C   0  0  0  0  0  0  0  0  0  0  0  0
  -29.6472   -5.9201   -6.7173 C   0  0  0  0  0  0  0  0  0  0  0  0
  -30.0210   -6.9101   -5.9049 N   0  0  0  0  0  0  0  0  0  0  0  0
  -29.5688   -8.1308   -6.2161 C   0  0  0  0  0  0  0  0  0  0  0  0
  -28.8376   -8.3791   -7.3551 C   0  0  0  0  0  0  0  0  0  0  0  0
  -28.3301   -7.3435   -8.1097 N   0  0  0  0  0  0  0  0  0  0  0  0
  -28.6810   -6.0421   -7.7445 C   0  0  0  0  0  0  0  0  0  0  0  0
  -28.1778   -4.7694   -8.2383 C   0  0  0  0  0  0  0  0  0  0  0  0
  -28.8552   -9.7610   -7.8180 C   0  0  0  0  0  0  0  0  0  0  0  0
  -28.9269  -10.9539   -7.0531 C   0  0  0  0  0  0  0  0  0  0  0  0
  -28.6356  -12.0504   -7.7643 N   0  0  0  0  0  0  0  0  0  0  0  0
  -28.3705  -11.5687   -8.9894 N   0  0  0  0  0  0  0  0  0  0  0  0
  -28.2216  -12.4653  -10.1115 C   0  0  0  0  0  0  0  0  0  0  0  0
  -28.3473  -10.2011   -9.0316 C   0  0  0  0  0  0  0  0  0  0  0  0
  -29.0837    1.0486   -6.2195 C   0  0  0  0  0  0  0  0  0  0  0  0
  -28.5585    0.8887   -4.9452 C   0  0  0  0  0  0  0  0  0  0  0  0
  -27.8564   -0.2748   -4.6320 C   0  0  0  0  0  0  0  0  0  0  0  0
  -27.6807   -1.2982   -5.5812 C   0  0  0  0  0  0  0  0  0  0  0  0
  -28.2547   -1.1857   -6.8773 C   0  0  0  0  0  0  0  0  0  0  0  0
  -28.9185    0.0265   -7.1683 C   0  0  0  0  0  0  0  0  0  0  0  0
  -31.1878    2.0321   -6.7378 C   0  0  0  0  0  0  0  0  0  0  0  0
  -29.7695    2.1502   -6.6587 O   0  0  0  0  0  0  0  0  0  0  0  0
  -26.9052   -2.4108   -5.3309 O   0  0  0  0  0  0  0  0  0  0  0  0
  -27.4733   -3.4168   -4.4949 C   0  0  0  0  0  0  0  0  0  0  0  0
  -27.9321   -1.8154   -9.2965 C   0  0  0  0  0  0  0  0  0  0  0  0
  -26.5141   -1.9019   -9.9277 C   0  0  0  0  0  0  0  0  0  0  0  0
  -26.3085   -2.4580  -11.2805 N   0  0  0  0  0  0  0  0  0  0  0  0
  -26.8512   -3.3191  -11.3555 H   0  0  0  0  0  0  0  0  0  0  0  0
  -26.5675   -1.6022  -12.4434 C   0  0  0  0  0  0  0  0  0  0  0  0
  -25.4787   -1.5894  -13.5225 C   0  0  0  0  0  0  0  0  0  0  0  0
  -27.8746   -2.0834  -13.0964 C   0  0  0  0  0  0  0  0  0  0  0  0
 24 25  1  0  0  0
 25 18  1  0  0  0
 18 19  1  0  0  0
 18 23  2  0  0  0
 19 20  2  0  0  0
 20 21  1  0  0  0
 21 26  1  0  0  0
 21 22  2  0  0  0
 26 27  1  0  0  0
 22  1  1  0  0  0
 22 23  1  0  0  0
  1 28  1  0  0  0
  1  2  1  0  0  0
 28 29  1  0  0  0
 29 30  1  0  0  0
 30 32  1  0  0  0
 30 31  1  0  0  0
 32 33  1  0  0  0
 32 34  1  0  0  0
  2  3  1  0  0  0
  2 11  2  0  0  0
  3  4  2  0  0  0
  4  5  1  0  0  0
  5  6  1  0  0  0
  5 10  2  0  0  0
  6  7  2  0  0  0
  7  8  1  0  0  0
  8 12  1  0  0  0
  8  9  2  0  0  0
 12 13  1  0  0  0
 12 17  2  0  0  0
 13 14  2  0  0  0
 14 15  1  0  0  0
 15 16  1  0  0  0
 15 17  1  0  0  0
  9 10  1  0  0  0
 10 11  1  0  0  0
M  END
> <minimizedAffinity>
-8.03504

$$$$
