CHEMBL1761944


 36 39  0  0  0  0  0  0  0  0999 V2000
  -29.9054   -9.2361   -6.8780 C   0  0  0  0  0  0  0  0  0  0  0  0
  -30.8245   -8.3030   -7.3464 C   0  0  0  0  0  0  0  0  0  0  0  0
  -31.0248   -7.1068   -6.6595 C   0  0  0  0  0  0  0  0  0  0  0  0
  -30.3204   -6.8133   -5.4863 C   0  0  0  0  0  0  0  0  0  0  0  0
  -29.4995   -7.8005   -4.9456 C   0  0  0  0  0  0  0  0  0  0  0  0
  -29.3040   -9.0020   -5.6343 C   0  0  0  0  0  0  0  0  0  0  0  0
  -30.3799   -5.5530   -4.8377 N   0  0  0  0  0  0  0  0  0  0  0  0
  -29.6613   -4.4345   -5.2161 C   0  0  0  0  0  0  0  0  0  0  0  0
  -28.8868   -4.4041   -6.1742 O   0  0  0  0  0  0  0  0  0  0  0  0
  -29.8808   -3.3389   -4.4021 N   0  0  0  0  0  0  0  0  0  0  0  0
  -30.8991   -5.5100   -3.9760 H   0  0  0  0  0  0  0  0  0  0  0  0
  -30.1447   -3.5307   -3.4465 H   0  0  0  0  0  0  0  0  0  0  0  0
  -29.3564   -2.0507   -4.6878 C   0  0  0  0  0  0  0  0  0  0  0  0
  -28.0192   -1.7141   -4.4181 C   0  0  0  0  0  0  0  0  0  0  0  0
  -27.5426   -0.4214   -4.6270 C   0  0  0  0  0  0  0  0  0  0  0  0
  -28.3940    0.5406   -5.1442 C   0  0  0  0  0  0  0  0  0  0  0  0
  -27.9254    1.7834   -5.3294 F   0  0  0  0  0  0  0  0  0  0  0  0
  -29.7108    0.2148   -5.4658 C   0  0  0  0  0  0  0  0  0  0  0  0
  -30.7623    1.4084   -6.1265 Cl  0  0  0  0  0  0  0  0  0  0  0  0
  -30.1953   -1.0827   -5.2484 C   0  0  0  0  0  0  0  0  0  0  0  0
  -29.6415  -10.3946   -7.6312 N   0  0  0  0  0  0  0  0  0  0  0  0
  -30.4799  -10.8076   -8.0268 H   0  0  0  0  0  0  0  0  0  0  0  0
  -24.8020  -11.8678   -7.1997 C   0  0  0  0  0  0  0  0  0  0  0  0
  -25.0618  -11.5396   -8.5432 C   0  0  0  0  0  0  0  0  0  0  0  0
  -26.3110  -11.1319   -8.9855 C   0  0  0  0  0  0  0  0  0  0  0  0
  -26.4463  -10.7313  -10.2541 N   0  0  0  0  0  0  0  0  0  0  0  0
  -27.6424  -10.2482  -10.6007 C   0  0  0  0  0  0  0  0  0  0  0  0
  -28.7020  -10.1284   -9.8051 N   0  0  0  0  0  0  0  0  0  0  0  0
  -28.5602  -10.5578   -8.5355 C   0  0  0  0  0  0  0  0  0  0  0  0
  -27.3585  -11.1065   -8.0671 C   0  0  0  0  0  0  0  0  0  0  0  0
  -27.1412  -11.5619   -6.7503 C   0  0  0  0  0  0  0  0  0  0  0  0
  -25.8712  -11.9340   -6.3013 C   0  0  0  0  0  0  0  0  0  0  0  0
  -22.7940  -10.9797   -6.3126 C   0  0  0  0  0  0  0  0  0  0  0  0
  -23.5270  -12.1227   -6.7666 O   0  0  0  0  0  0  0  0  0  0  0  0
  -25.8976  -12.2815   -4.9822 O   0  0  0  0  0  0  0  0  0  0  0  0
  -25.7426  -11.2935   -3.9807 C   0  0  0  0  0  0  0  0  0  0  0  0
 33 34  1  0  0  0
 34 23  1  0  0  0
 23 24  1  0  0  0
 23 32  2  0  0  0
 24 25  2  0  0  0
 25 26  1  0  0  0
 25 30  1  0  0  0
 26 27  2  0  0  0
 27 28  1  0  0  0
 28 29  2  0  0  0
 29 21  1  0  0  0
 29 30  1  0  0  0
 21  1  1  0  0  0
 21 22  1  0  0  0
  1  2  1  0  0  0
  1  6  2  0  0  0
  2  3  2  0  0  0
  3  4  1  0  0  0
  4  7  1  0  0  0
  4  5  2  0  0  0
  7  8  1  0  0  0
  7 11  1  0  0  0
  8  9  2  0  0  0
  8 10  1  0  0  0
 10 13  1  0  0  0
 10 12  1  0  0  0
 13 14  1  0  0  0
 13 20  2  0  0  0
 14 15  2  0  0  0
 15 16  1  0  0  0
 16 17  1  0  0  0
 16 18  2  0  0  0
 18 19  1  0  0  0
 18 20  1  0  0  0
  5  6  1  0  0  0
 30 31  2  0  0  0
 31 32  1  0  0  0
 32 35  1  0  0  0
 35 36  1  0  0  0
M  END
> <minimizedAffinity>
-8.28812

$$$$
