CHEMBL3893718


 38 42  0  0  0  0  0  0  0  0999 V2000
  -27.9040   -2.1137   -8.6065 N   0  0  0  0  0  0  0  0  0  0  0  0
  -27.4196   -1.5392   -9.8391 C   0  0  0  0  0  0  0  0  0  0  0  0
  -28.2550   -1.7430  -10.9355 C   0  0  0  0  0  0  0  0  0  0  0  0
  -27.7260   -1.7988  -12.2087 C   0  0  0  0  0  0  0  0  0  0  0  0
  -26.4214   -1.4734  -12.4603 C   0  0  0  0  0  0  0  0  0  0  0  0
  -26.0233   -1.7566  -13.7057 N   0  0  0  0  0  0  0  0  0  0  0  0
  -24.8153   -1.3114  -14.0661 C   0  0  0  0  0  0  0  0  0  0  0  0
  -24.0499   -0.5197  -13.2378 C   0  0  0  0  0  0  0  0  0  0  0  0
  -24.3923   -0.3365  -11.9153 N   0  0  0  0  0  0  0  0  0  0  0  0
  -25.6024   -0.8963  -11.4629 C   0  0  0  0  0  0  0  0  0  0  0  0
  -26.1377   -1.0003  -10.1030 C   0  0  0  0  0  0  0  0  0  0  0  0
  -22.9843    0.2265  -13.9065 C   0  0  0  0  0  0  0  0  0  0  0  0
  -21.7392   -0.2397  -14.4115 C   0  0  0  0  0  0  0  0  0  0  0  0
  -20.8785    0.7490  -14.6900 N   0  0  0  0  0  0  0  0  0  0  0  0
  -21.5586    1.8585  -14.3582 N   0  0  0  0  0  0  0  0  0  0  0  0
  -21.0564    3.1631  -14.7237 C   0  0  0  0  0  0  0  0  0  0  0  0
  -22.7546    1.5886  -13.7485 C   0  0  0  0  0  0  0  0  0  0  0  0
  -28.7855    0.2022   -5.7778 C   0  0  0  0  0  0  0  0  0  0  0  0
  -28.4951   -0.5948   -4.6739 C   0  0  0  0  0  0  0  0  0  0  0  0
  -27.9472   -1.8620   -4.8590 C   0  0  0  0  0  0  0  0  0  0  0  0
  -27.6870   -2.3222   -6.1554 C   0  0  0  0  0  0  0  0  0  0  0  0
  -27.9678   -1.5585   -7.3003 C   0  0  0  0  0  0  0  0  0  0  0  0
  -28.5095   -0.2758   -7.0814 C   0  0  0  0  0  0  0  0  0  0  0  0
  -30.7067    1.5631   -6.2158 C   0  0  0  0  0  0  0  0  0  0  0  0
  -29.3780    1.4397   -5.6993 O   0  0  0  0  0  0  0  0  0  0  0  0
  -27.6600   -2.7652   -3.8705 O   0  0  0  0  0  0  0  0  0  0  0  0
  -28.7447   -3.2042   -3.0630 C   0  0  0  0  0  0  0  0  0  0  0  0
  -27.6850   -3.6210   -8.6657 C   0  0  0  0  0  0  0  0  0  0  0  0
  -28.7894   -4.4787   -7.9765 C   0  0  0  0  0  0  0  0  0  0  0  0
  -28.3188   -5.7322   -7.3179 N   0  0  0  0  0  0  0  0  0  0  0  0
  -28.9349   -6.9329   -7.9160 C   0  0  0  0  0  0  0  0  0  0  0  0
  -30.4208   -7.1072   -7.5758 C   0  0  0  0  0  0  0  0  0  0  0  0
  -30.6892   -7.0754   -6.0679 C   0  0  0  0  0  0  0  0  0  0  0  0
  -30.3158   -8.3397   -5.4238 N   0  0  0  0  0  0  0  0  0  0  0  0
  -29.9643   -5.8907   -5.4175 C   0  0  0  0  0  0  0  0  0  0  0  0
  -28.5034   -5.7787   -5.8576 C   0  0  0  0  0  0  0  0  0  0  0  0
  -29.3168   -8.5156   -5.5272 H   0  0  0  0  0  0  0  0  0  0  0  0
  -30.7888   -9.1163   -5.8853 H   0  0  0  0  0  0  0  0  0  0  0  0
 24 25  1  0  0  0
 25 18  1  0  0  0
 18 19  1  0  0  0
 18 23  2  0  0  0
 19 20  2  0  0  0
 20 26  1  0  0  0
 20 21  1  0  0  0
 26 27  1  0  0  0
 21 22  2  0  0  0
 22  1  1  0  0  0
 22 23  1  0  0  0
  1 28  1  0  0  0
  1  2  1  0  0  0
 28 29  1  0  0  0
 29 30  1  0  0  0
 30 31  1  0  0  0
 30 36  1  0  0  0
 31 32  1  0  0  0
 32 33  1  0  0  0
 33 34  1  0  0  0
 33 35  1  0  0  0
 34 37  1  0  0  0
 34 38  1  0  0  0
 35 36  1  0  0  0
  2  3  1  0  0  0
  2 11  2  0  0  0
  3  4  2  0  0  0
  4  5  1  0  0  0
  5  6  1  0  0  0
  5 10  2  0  0  0
  6  7  2  0  0  0
  7  8  1  0  0  0
  8 12  1  0  0  0
  8  9  2  0  0  0
 12 13  1  0  0  0
 12 17  2  0  0  0
 13 14  2  0  0  0
 14 15  1  0  0  0
 15 16  1  0  0  0
 15 17  1  0  0  0
  9 10  1  0  0  0
 10 11  1  0  0  0
M  END
> <minimizedAffinity>
-9.35865

$$$$
