CHEMBL1076432


 49 54  0  0  0  0  0  0  0  0999 V2000
  -27.6395    0.0226   -7.6273 C   0  0  0  0  0  0  0  0  0  0  0  0
  -27.9421   -1.4429   -7.4134 C   0  0  0  0  0  0  0  0  0  0  0  0
  -28.6667   -1.7996   -6.2766 C   0  0  0  0  0  0  0  0  0  0  0  0
  -29.0818   -3.1160   -6.0895 C   0  0  0  0  0  0  0  0  0  0  0  0
  -28.8361   -4.0979   -7.0522 C   0  0  0  0  0  0  0  0  0  0  0  0
  -28.0771   -3.7430   -8.1817 C   0  0  0  0  0  0  0  0  0  0  0  0
  -27.5311   -2.4529   -8.3218 C   0  0  0  0  0  0  0  0  0  0  0  0
  -29.3621   -5.4194   -6.9455 N   0  0  0  0  0  0  0  0  0  0  0  0
  -28.7948   -6.5289   -7.5757 C   0  0  0  0  0  0  0  0  0  0  0  0
  -27.9041   -6.4560   -8.4220 O   0  0  0  0  0  0  0  0  0  0  0  0
  -30.2271   -5.5161   -6.4490 H   0  0  0  0  0  0  0  0  0  0  0  0
  -29.2862   -7.9107   -7.2457 C   0  0  0  0  0  0  0  0  0  0  0  0
  -28.3211   -8.7984   -6.6963 C   0  0  0  0  0  0  0  0  0  0  0  0
  -28.6608  -10.0913   -6.3256 C   0  0  0  0  0  0  0  0  0  0  0  0
  -29.9783  -10.5165   -6.5048 C   0  0  0  0  0  0  0  0  0  0  0  0
  -30.9488   -9.6844   -7.0893 C   0  0  0  0  0  0  0  0  0  0  0  0
  -30.5972   -8.3655   -7.4472 C   0  0  0  0  0  0  0  0  0  0  0  0
  -32.3270  -10.2309   -7.3888 C   0  0  0  0  0  0  0  0  0  0  0  0
  -32.9026  -10.8796   -6.3381 F   0  0  0  0  0  0  0  0  0  0  0  0
  -33.2090   -9.2626   -7.7589 F   0  0  0  0  0  0  0  0  0  0  0  0
  -32.3078  -11.1299   -8.4119 F   0  0  0  0  0  0  0  0  0  0  0  0
  -27.8273  -11.0584   -5.8644 O   0  0  0  0  0  0  0  0  0  0  0  0
  -27.6410  -11.3632   -4.4730 C   0  0  0  0  0  0  0  0  0  0  0  0
  -27.2072  -10.1160   -3.6953 C   0  0  0  0  0  0  0  0  0  0  0  0
  -25.8380   -9.5618   -4.1398 C   0  0  0  0  0  0  0  0  0  0  0  0
  -24.7831  -10.5582   -4.4069 N   0  0  0  0  0  0  0  0  0  0  0  0
  -23.6910   -9.9441   -5.1746 C   0  0  0  0  0  0  0  0  0  0  0  0
  -25.2689  -11.7433   -5.1189 C   0  0  0  0  0  0  0  0  0  0  0  0
  -26.4700  -12.3462   -4.3902 C   0  0  0  0  0  0  0  0  0  0  0  0
  -26.6550   -2.0801   -9.3644 N   0  0  0  0  0  0  0  0  0  0  0  0
  -26.3061   -2.9191   -9.8244 H   0  0  0  0  0  0  0  0  0  0  0  0
  -26.7460   -1.1177  -10.3289 C   0  0  0  0  0  0  0  0  0  0  0  0
  -27.9604   -0.6936  -10.6438 N   0  0  0  0  0  0  0  0  0  0  0  0
  -28.1750   -1.3139  -11.8479 C   0  0  0  0  0  0  0  0  0  0  0  0
  -29.3834   -1.6252  -12.4821 C   0  0  0  0  0  0  0  0  0  0  0  0
  -29.3365   -2.4009  -13.6444 C   0  0  0  0  0  0  0  0  0  0  0  0
  -28.1136   -2.7871  -14.2023 C   0  0  0  0  0  0  0  0  0  0  0  0
  -26.8962   -2.4170  -13.6243 C   0  0  0  0  0  0  0  0  0  0  0  0
  -26.9623   -1.7174  -12.4155 C   0  0  0  0  0  0  0  0  0  0  0  0
  -26.0343   -1.1900  -11.5243 N   0  0  0  0  0  0  0  0  0  0  0  0
  -24.7614   -0.6558  -11.8354 C   0  0  0  0  0  0  0  0  0  0  0  0
  -24.6627    0.5138  -12.5719 C   0  0  0  0  0  0  0  0  0  0  0  0
  -23.3882    0.9277  -12.9008 C   0  0  0  0  0  0  0  0  0  0  0  0
  -23.1762    2.1001  -13.6210 N   0  0  0  0  0  0  0  0  0  0  0  0
  -22.2857    0.2761  -12.5163 N   0  0  0  0  0  0  0  0  0  0  0  0
  -22.4837   -0.8532  -11.8228 C   0  0  0  0  0  0  0  0  0  0  0  0
  -23.6627   -1.3639  -11.4735 N   0  0  0  0  0  0  0  0  0  0  0  0
  -23.6939    2.1144  -14.4944 H   0  0  0  0  0  0  0  0  0  0  0  0
  -22.1744    2.1826  -13.7844 H   0  0  0  0  0  0  0  0  0  0  0  0
  1  2  1  0  0  0
  2  3  1  0  0  0
  2  7  2  0  0  0
  3  4  2  0  0  0
  4  5  1  0  0  0
  5  8  1  0  0  0
  5  6  2  0  0  0
  8  9  1  0  0  0
  8 11  1  0  0  0
  9 10  2  0  0  0
  9 12  1  0  0  0
 12 13  1  0  0  0
 12 17  2  0  0  0
 13 14  2  0  0  0
 14 22  1  0  0  0
 14 15  1  0  0  0
 22 23  1  0  0  0
 23 24  1  0  0  0
 23 29  1  0  0  0
 24 25  1  0  0  0
 25 26  1  0  0  0
 26 27  1  0  0  0
 26 28  1  0  0  0
 28 29  1  0  0  0
 15 16  2  0  0  0
 16 18  1  0  0  0
 16 17  1  0  0  0
 18 19  1  0  0  0
 18 20  1  0  0  0
 18 21  1  0  0  0
  6  7  1  0  0  0
  7 30  1  0  0  0
 30 32  1  0  0  0
 30 31  1  0  0  0
 32 33  2  0  0  0
 32 40  1  0  0  0
 33 34  1  0  0  0
 34 35  1  0  0  0
 34 39  2  0  0  0
 35 36  2  0  0  0
 36 37  1  0  0  0
 37 38  2  0  0  0
 38 39  1  0  0  0
 39 40  1  0  0  0
 40 41  1  0  0  0
 41 42  1  0  0  0
 41 47  2  0  0  0
 42 43  2  0  0  0
 43 44  1  0  0  0
 43 45  1  0  0  0
 44 48  1  0  0  0
 44 49  1  0  0  0
 45 46  2  0  0  0
 46 47  1  0  0  0
M  END
> <minimizedAffinity>
-6.16406

$$$$
