CHEMBL3906155


 32 35  0  0  0  0  0  0  0  0999 V2000
  -27.6910   -2.0586   -9.0064 N   0  0  0  0  0  0  0  0  0  0  0  0
  -26.7542   -1.7727  -10.1099 C   0  0  0  0  0  0  0  0  0  0  0  0
  -27.2814   -2.0063  -11.3635 C   0  0  0  0  0  0  0  0  0  0  0  0
  -26.6326   -1.6724  -12.5177 C   0  0  0  0  0  0  0  0  0  0  0  0
  -25.3955   -1.1807  -12.5661 C   0  0  0  0  0  0  0  0  0  0  0  0
  -25.1859   -1.1939  -13.8572 N   0  0  0  0  0  0  0  0  0  0  0  0
  -24.1248   -0.5813  -14.2977 C   0  0  0  0  0  0  0  0  0  0  0  0
  -23.1722   -0.0277  -13.4966 C   0  0  0  0  0  0  0  0  0  0  0  0
  -23.3439   -0.1075  -12.0808 N   0  0  0  0  0  0  0  0  0  0  0  0
  -24.5989   -0.7658  -11.5118 C   0  0  0  0  0  0  0  0  0  0  0  0
  -25.4041   -1.1768  -10.1612 C   0  0  0  0  0  0  0  0  0  0  0  0
  -22.1302    0.5857  -14.4132 C   0  0  0  0  0  0  0  0  0  0  0  0
  -20.8953    0.0716  -14.9549 C   0  0  0  0  0  0  0  0  0  0  0  0
  -19.9343    1.0197  -15.1223 N   0  0  0  0  0  0  0  0  0  0  0  0
  -20.4722    2.1325  -14.6199 N   0  0  0  0  0  0  0  0  0  0  0  0
  -19.6729    3.3288  -14.3719 C   0  0  0  0  0  0  0  0  0  0  0  0
  -21.7808    1.9468  -14.2534 C   0  0  0  0  0  0  0  0  0  0  0  0
  -27.9675   -1.3269   -7.7756 C   0  0  0  0  0  0  0  0  0  0  0  0
  -27.5638   -1.8356   -6.4997 C   0  0  0  0  0  0  0  0  0  0  0  0
  -27.9388   -1.3158   -5.2621 C   0  0  0  0  0  0  0  0  0  0  0  0
  -28.6447   -0.1338   -5.2568 C   0  0  0  0  0  0  0  0  0  0  0  0
  -28.9152    0.5175   -6.4676 C   0  0  0  0  0  0  0  0  0  0  0  0
  -28.6187   -0.0954   -7.7171 C   0  0  0  0  0  0  0  0  0  0  0  0
  -27.6422   -1.8566   -4.0389 O   0  0  0  0  0  0  0  0  0  0  0  0
  -28.6810   -2.5523   -3.3494 C   0  0  0  0  0  0  0  0  0  0  0  0
  -29.4639    1.7773   -6.5317 O   0  0  0  0  0  0  0  0  0  0  0  0
  -30.8923    1.8326   -6.5557 C   0  0  0  0  0  0  0  0  0  0  0  0
  -27.8042   -3.5800   -8.7302 C   0  0  0  0  0  0  0  0  0  0  0  0
  -29.0934   -4.0788   -8.0733 C   0  0  0  0  0  0  0  0  0  0  0  0
  -28.7994   -5.1415   -7.1922 O   0  0  0  0  0  0  0  0  0  0  0  0
  -30.5051   -3.8532   -6.1989 C   0  0  0  0  0  0  0  0  0  0  0  0
  -29.5887   -5.0319   -6.0172 C   0  0  0  0  0  0  0  0  0  0  0  0
 31 32  1  0  0  0
 32 30  1  0  0  0
 30 29  1  0  0  0
 29 28  1  0  0  0
 28  1  1  0  0  0
  1 18  1  0  0  0
  1  2  1  0  0  0
 18 19  1  0  0  0
 18 23  2  0  0  0
 19 20  2  0  0  0
 20 24  1  0  0  0
 20 21  1  0  0  0
 24 25  1  0  0  0
 21 22  2  0  0  0
 22 26  1  0  0  0
 22 23  1  0  0  0
 26 27  1  0  0  0
  2  3  1  0  0  0
  2 11  2  0  0  0
  3  4  2  0  0  0
  4  5  1  0  0  0
  5  6  1  0  0  0
  5 10  2  0  0  0
  6  7  2  0  0  0
  7  8  1  0  0  0
  8 12  1  0  0  0
  8  9  2  0  0  0
 12 13  1  0  0  0
 12 17  2  0  0  0
 13 14  2  0  0  0
 14 15  1  0  0  0
 15 16  1  0  0  0
 15 17  1  0  0  0
  9 10  1  0  0  0
 10 11  1  0  0  0
M  END
> <minimizedAffinity>
-7.43813

$$$$
