CHEMBL3904823


 34 37  0  0  0  0  0  0  0  0999 V2000
  -24.7967   -1.0504  -11.6740 C   0  0  0  0  0  0  0  0  0  0  0  0
  -23.9754   -2.0538  -12.3902 C   0  0  0  0  0  0  0  0  0  0  0  0
  -23.0632   -1.5920  -13.2512 C   0  0  0  0  0  0  0  0  0  0  0  0
  -22.9350   -0.2012  -13.4314 C   0  0  0  0  0  0  0  0  0  0  0  0
  -22.1366    0.4838  -14.2188 N   0  0  0  0  0  0  0  0  0  0  0  0
  -22.4182    1.7950  -13.9559 C   0  0  0  0  0  0  0  0  0  0  0  0
  -23.4223    1.9142  -13.0200 C   0  0  0  0  0  0  0  0  0  0  0  0
  -23.7587    0.6257  -12.6819 N   0  0  0  0  0  0  0  0  0  0  0  0
  -24.7218    0.2429  -11.7787 N   0  0  0  0  0  0  0  0  0  0  0  0
  -21.7501    2.8237  -14.5729 N   0  0  0  0  0  0  0  0  0  0  0  0
  -20.4041    2.9105  -14.8400 C   0  0  0  0  0  0  0  0  0  0  0  0
  -19.9865    3.9383  -15.3723 O   0  0  0  0  0  0  0  0  0  0  0  0
  -19.6425    1.8163  -14.5111 N   0  0  0  0  0  0  0  0  0  0  0  0
  -22.2761    3.6358  -14.8569 H   0  0  0  0  0  0  0  0  0  0  0  0
  -20.1912    1.0052  -14.2308 H   0  0  0  0  0  0  0  0  0  0  0  0
  -18.2577    1.6463  -14.6897 C   0  0  0  0  0  0  0  0  0  0  0  0
  -17.5729    2.1100  -15.8175 C   0  0  0  0  0  0  0  0  0  0  0  0
  -16.2106    1.8456  -15.9811 C   0  0  0  0  0  0  0  0  0  0  0  0
  -15.5301    1.1155  -15.0151 C   0  0  0  0  0  0  0  0  0  0  0  0
  -14.2342    0.8318  -15.2142 F   0  0  0  0  0  0  0  0  0  0  0  0
  -16.1881    0.6856  -13.8659 C   0  0  0  0  0  0  0  0  0  0  0  0
  -15.3475   -0.2201  -12.6650 Cl  0  0  0  0  0  0  0  0  0  0  0  0
  -17.5465    0.9676  -13.6906 C   0  0  0  0  0  0  0  0  0  0  0  0
  -26.5750   -1.7955   -9.8608 C   0  0  0  0  0  0  0  0  0  0  0  0
  -25.8054   -1.4887  -10.7339 C   0  0  0  0  0  0  0  0  0  0  0  0
  -30.1054   -3.0486   -5.6304 N   0  0  0  0  0  0  0  0  0  0  0  0
  -29.1734   -2.7765   -6.6382 C   0  0  0  0  0  0  0  0  0  0  0  0
  -28.9999   -3.6650   -7.7025 C   0  0  0  0  0  0  0  0  0  0  0  0
  -28.1440   -3.3492   -8.7673 C   0  0  0  0  0  0  0  0  0  0  0  0
  -27.4856   -2.1179   -8.7980 C   0  0  0  0  0  0  0  0  0  0  0  0
  -27.7189   -1.1943   -7.7810 C   0  0  0  0  0  0  0  0  0  0  0  0
  -28.5751   -1.5173   -6.7205 C   0  0  0  0  0  0  0  0  0  0  0  0
  -30.2447   -4.0388   -5.4516 H   0  0  0  0  0  0  0  0  0  0  0  0
  -29.9445   -2.5280   -4.7732 H   0  0  0  0  0  0  0  0  0  0  0  0
 26 27  1  0  0  0
 26 33  1  0  0  0
 26 34  1  0  0  0
 27 28  1  0  0  0
 27 32  2  0  0  0
 28 29  2  0  0  0
 29 30  1  0  0  0
 30 24  1  0  0  0
 30 31  2  0  0  0
 24 25  3  0  0  0
 25  1  1  0  0  0
  1  2  1  0  0  0
  1  9  2  0  0  0
  2  3  2  0  0  0
  3  4  1  0  0  0
  4  5  2  0  0  0
  4  8  1  0  0  0
  5  6  1  0  0  0
  6 10  1  0  0  0
  6  7  2  0  0  0
 10 11  1  0  0  0
 10 14  1  0  0  0
 11 12  2  0  0  0
 11 13  1  0  0  0
 13 16  1  0  0  0
 13 15  1  0  0  0
 16 17  1  0  0  0
 16 23  2  0  0  0
 17 18  2  0  0  0
 18 19  1  0  0  0
 19 20  1  0  0  0
 19 21  2  0  0  0
 21 22  1  0  0  0
 21 23  1  0  0  0
  7  8  1  0  0  0
  8  9  1  0  0  0
 31 32  1  0  0  0
M  END
> <minimizedAffinity>
-10.37197

$$$$
