CHEMBL382112


 38 41  0  0  0  0  0  0  0  0999 V2000
  -14.2165   -2.0013  -13.6307 C   0  0  0  0  0  0  0  0  0  0  0  0
  -12.8772   -1.8283  -13.2749 C   0  0  0  0  0  0  0  0  0  0  0  0
  -12.1883   -2.7968  -12.5530 C   0  0  0  0  0  0  0  0  0  0  0  0
  -12.8496   -3.8780  -11.9768 C   0  0  0  0  0  0  0  0  0  0  0  0
  -14.2372   -3.9529  -12.1822 C   0  0  0  0  0  0  0  0  0  0  0  0
  -14.9099   -3.0533  -13.0403 C   0  0  0  0  0  0  0  0  0  0  0  0
  -12.0917   -4.8843  -11.2007 C   0  0  0  0  0  0  0  0  0  0  0  0
  -11.4426   -5.9675  -11.8188 C   0  0  0  0  0  0  0  0  0  0  0  0
  -10.6965   -7.0004  -10.6694 S   0  0  0  0  0  0  0  0  0  0  0  0
  -11.1965   -6.0513   -9.3669 C   0  0  0  0  0  0  0  0  0  0  0  0
  -10.8550   -6.4310   -8.1249 N   0  0  0  0  0  0  0  0  0  0  0  0
  -11.3092   -5.5993   -7.1947 C   0  0  0  0  0  0  0  0  0  0  0  0
  -12.0427   -4.4985   -7.3875 N   0  0  0  0  0  0  0  0  0  0  0  0
  -12.3857   -4.1577   -8.6448 C   0  0  0  0  0  0  0  0  0  0  0  0
  -13.1934   -3.0285   -8.7249 N   0  0  0  0  0  0  0  0  0  0  0  0
  -11.9432   -4.9418   -9.7370 C   0  0  0  0  0  0  0  0  0  0  0  0
  -13.5149   -2.7886   -7.7922 H   0  0  0  0  0  0  0  0  0  0  0  0
  -13.9297   -3.1135   -9.4153 H   0  0  0  0  0  0  0  0  0  0  0  0
  -11.3016   -6.4006  -13.2697 C   0  0  0  0  0  0  0  0  0  0  0  0
  -12.1061   -7.6530  -13.5969 C   0  0  0  0  0  0  0  0  0  0  0  0
  -13.5842   -7.4779  -13.2905 C   0  0  0  0  0  0  0  0  0  0  0  0
  -14.0511   -7.8115  -12.2013 O   0  0  0  0  0  0  0  0  0  0  0  0
  -14.3652   -6.9244  -14.2990 N   0  0  0  0  0  0  0  0  0  0  0  0
  -13.8727   -6.4896  -15.5992 C   0  0  0  0  0  0  0  0  0  0  0  0
  -15.7905   -6.7451  -14.0716 C   0  0  0  0  0  0  0  0  0  0  0  0
  -16.4478    0.3814  -15.2860 N   0  0  0  0  0  0  0  0  0  0  0  0
  -15.8520   -0.2583  -14.2140 C   0  0  0  0  0  0  0  0  0  0  0  0
  -16.1898   -0.0808  -13.0484 O   0  0  0  0  0  0  0  0  0  0  0  0
  -14.8325   -1.1336  -14.5751 N   0  0  0  0  0  0  0  0  0  0  0  0
  -16.0335    0.2751  -16.1935 H   0  0  0  0  0  0  0  0  0  0  0  0
  -14.3070   -0.9179  -15.4111 H   0  0  0  0  0  0  0  0  0  0  0  0
  -21.3250    0.8759  -14.5295 C   0  0  0  0  0  0  0  0  0  0  0  0
  -19.9813    1.4863  -14.7986 C   0  0  0  0  0  0  0  0  0  0  0  0
  -19.8713    2.8729  -14.9488 C   0  0  0  0  0  0  0  0  0  0  0  0
  -18.6344    3.4428  -15.2050 C   0  0  0  0  0  0  0  0  0  0  0  0
  -17.5048    2.6333  -15.3083 C   0  0  0  0  0  0  0  0  0  0  0  0
  -17.5798    1.2411  -15.1764 C   0  0  0  0  0  0  0  0  0  0  0  0
  -18.8320    0.6741  -14.9065 C   0  0  0  0  0  0  0  0  0  0  0  0
 32 33  1  0  0  0
 33 34  1  0  0  0
 33 38  2  0  0  0
 34 35  2  0  0  0
 35 36  1  0  0  0
 36 37  2  0  0  0
 37 26  1  0  0  0
 37 38  1  0  0  0
 26 27  1  0  0  0
 26 30  1  0  0  0
 27 28  2  0  0  0
 27 29  1  0  0  0
 29  1  1  0  0  0
 29 31  1  0  0  0
  1  2  1  0  0  0
  1  6  2  0  0  0
  2  3  2  0  0  0
  3  4  1  0  0  0
  4  7  1  0  0  0
  4  5  2  0  0  0
  7  8  2  0  0  0
  7 16  1  0  0  0
  8 19  1  0  0  0
  8  9  1  0  0  0
 19 20  1  0  0  0
 20 21  1  0  0  0
 21 22  2  0  0  0
 21 23  1  0  0  0
 23 24  1  0  0  0
 23 25  1  0  0  0
  9 10  1  0  0  0
 10 11  1  0  0  0
 10 16  2  0  0  0
 11 12  2  0  0  0
 12 13  1  0  0  0
 13 14  2  0  0  0
 14 15  1  0  0  0
 14 16  1  0  0  0
 15 17  1  0  0  0
 15 18  1  0  0  0
  5  6  1  0  0  0
M  END
> <minimizedAffinity>
-8.56493

$$$$
