CHEMBL442273


 25 28  0  0  0  0  0  0  0  0999 V2000
  -16.6464    1.3782  -15.1906 C   0  0  0  0  0  0  0  0  0  0  0  0
  -15.8867    2.4276  -15.7346 C   0  0  0  0  0  0  0  0  0  0  0  0
  -16.4562    3.6759  -16.0583 C   0  0  0  0  0  0  0  0  0  0  0  0
  -17.8071    3.9162  -15.8467 C   0  0  0  0  0  0  0  0  0  0  0  0
  -18.5533    2.8749  -15.3414 C   0  0  0  0  0  0  0  0  0  0  0  0
  -18.0091    1.5980  -15.0199 C   0  0  0  0  0  0  0  0  0  0  0  0
  -19.0669    0.6340  -14.4533 C   0  0  0  0  0  0  0  0  0  0  0  0
  -20.2372    1.5548  -14.4883 C   0  0  0  0  0  0  0  0  0  0  0  0
  -19.9319    2.8211  -15.0023 C   0  0  0  0  0  0  0  0  0  0  0  0
  -20.9563    3.6582  -15.0374 N   0  0  0  0  0  0  0  0  0  0  0  0
  -21.9578    2.8921  -14.5330 N   0  0  0  0  0  0  0  0  0  0  0  0
  -21.5734    1.6112  -14.1851 C   0  0  0  0  0  0  0  0  0  0  0  0
  -22.8766    3.3094  -14.4464 H   0  0  0  0  0  0  0  0  0  0  0  0
  -22.4465    0.5543  -13.6106 C   0  0  0  0  0  0  0  0  0  0  0  0
  -22.3548    0.0395  -12.2837 C   0  0  0  0  0  0  0  0  0  0  0  0
  -23.2920   -0.9399  -12.0351 C   0  0  0  0  0  0  0  0  0  0  0  0
  -24.2819   -1.2403  -13.3950 S   0  0  0  0  0  0  0  0  0  0  0  0
  -23.4608   -0.0539  -14.3203 C   0  0  0  0  0  0  0  0  0  0  0  0
  -15.4573   -0.1495  -13.6232 C   0  0  0  0  0  0  0  0  0  0  0  0
  -15.3899    0.5859  -12.6412 O   0  0  0  0  0  0  0  0  0  0  0  0
  -16.0777    0.1377  -14.8330 N   0  0  0  0  0  0  0  0  0  0  0  0
  -16.1765   -0.6320  -15.4814 H   0  0  0  0  0  0  0  0  0  0  0  0
  -14.8367   -1.5471  -13.5907 C   0  0  0  0  0  0  0  0  0  0  0  0
  -15.6332   -2.8090  -11.7663 C   0  0  0  0  0  0  0  0  0  0  0  0
  -14.5603   -2.0190  -12.2775 O   0  0  0  0  0  0  0  0  0  0  0  0
 24 25  1  0  0  0
 25 23  1  0  0  0
 23 19  1  0  0  0
 19 20  2  0  0  0
 19 21  1  0  0  0
 21  1  1  0  0  0
 21 22  1  0  0  0
  1  2  1  0  0  0
  1  6  2  0  0  0
  2  3  2  0  0  0
  3  4  1  0  0  0
  4  5  2  0  0  0
  5  6  1  0  0  0
  5  9  1  0  0  0
  6  7  1  0  0  0
  7  8  1  0  0  0
  8  9  1  0  0  0
  8 12  2  0  0  0
  9 10  2  0  0  0
 10 11  1  0  0  0
 11 12  1  0  0  0
 11 13  1  0  0  0
 12 14  1  0  0  0
 14 15  1  0  0  0
 14 18  2  0  0  0
 15 16  2  0  0  0
 16 17  1  0  0  0
 17 18  1  0  0  0
M  END
> <minimizedAffinity>
-8.94506

$$$$
