CHEMBL3577120


 33 35  0  0  0  0  0  0  0  0999 V2000
  -14.9110    1.0845  -15.9309 C   0  0  0  0  0  0  0  0  0  0  0  0
  -14.4578    0.7566  -17.2239 C   0  0  0  0  0  0  0  0  0  0  0  0
  -13.2801    0.0283  -17.4376 C   0  0  0  0  0  0  0  0  0  0  0  0
  -12.4882   -0.3230  -16.3584 C   0  0  0  0  0  0  0  0  0  0  0  0
  -11.3515   -1.0039  -16.5666 F   0  0  0  0  0  0  0  0  0  0  0  0
  -12.8210    0.1095  -15.0821 C   0  0  0  0  0  0  0  0  0  0  0  0
  -14.0351    0.7741  -14.8689 C   0  0  0  0  0  0  0  0  0  0  0  0
  -21.1016    2.5646  -14.6348 C   0  0  0  0  0  0  0  0  0  0  0  0
  -20.0287    3.3772  -14.9868 C   0  0  0  0  0  0  0  0  0  0  0  0
  -18.7771    2.8336  -15.2193 C   0  0  0  0  0  0  0  0  0  0  0  0
  -17.7450    3.6353  -15.5186 N   0  0  0  0  0  0  0  0  0  0  0  0
  -16.5102    3.0980  -15.7502 C   0  0  0  0  0  0  0  0  0  0  0  0
  -15.4891    4.1377  -16.1168 C   0  0  0  0  0  0  0  0  0  0  0  0
  -16.2357    1.7206  -15.6603 C   0  0  0  0  0  0  0  0  0  0  0  0
  -17.3444    0.9094  -15.3436 C   0  0  0  0  0  0  0  0  0  0  0  0
  -18.6222    1.4550  -15.1297 C   0  0  0  0  0  0  0  0  0  0  0  0
  -19.7535    0.6998  -14.8285 C   0  0  0  0  0  0  0  0  0  0  0  0
  -20.9725    1.2257  -14.5746 N   0  0  0  0  0  0  0  0  0  0  0  0
  -23.2947    2.3412  -13.6807 C   0  0  0  0  0  0  0  0  0  0  0  0
  -22.3495    3.1740  -14.4067 N   0  0  0  0  0  0  0  0  0  0  0  0
  -22.2160    4.0718  -13.9518 H   0  0  0  0  0  0  0  0  0  0  0  0
  -11.9459   -0.1508  -14.0218 N   0  0  0  0  0  0  0  0  0  0  0  0
  -11.9545   -1.2251  -13.1804 C   0  0  0  0  0  0  0  0  0  0  0  0
  -11.0525   -1.3645  -12.3577 O   0  0  0  0  0  0  0  0  0  0  0  0
  -13.0580   -2.0480  -13.2426 N   0  0  0  0  0  0  0  0  0  0  0  0
  -11.4129    0.6249  -13.6443 H   0  0  0  0  0  0  0  0  0  0  0  0
  -13.9049   -1.5784  -13.5330 H   0  0  0  0  0  0  0  0  0  0  0  0
  -13.2031   -3.0216  -12.1792 C   0  0  0  0  0  0  0  0  0  0  0  0
  -14.1920   -4.1505  -12.4816 C   0  0  0  0  0  0  0  0  0  0  0  0
  -15.6794   -3.7710  -12.2094 C   0  0  0  0  0  0  0  0  0  0  0  0
  -15.7844   -2.6593  -11.1492 C   0  0  0  0  0  0  0  0  0  0  0  0
  -16.3287   -3.2551  -13.5075 C   0  0  0  0  0  0  0  0  0  0  0  0
  -16.4747   -5.0005  -11.7340 C   0  0  0  0  0  0  0  0  0  0  0  0
 19 20  1  0  0  0
 20  8  1  0  0  0
 20 21  1  0  0  0
  8  9  1  0  0  0
  8 18  2  0  0  0
  9 10  2  0  0  0
 10 11  1  0  0  0
 10 16  1  0  0  0
 11 12  2  0  0  0
 12 13  1  0  0  0
 12 14  1  0  0  0
 14  1  1  0  0  0
 14 15  2  0  0  0
  1  2  1  0  0  0
  1  7  2  0  0  0
  2  3  2  0  0  0
  3  4  1  0  0  0
  4  5  1  0  0  0
  4  6  2  0  0  0
  6 22  1  0  0  0
  6  7  1  0  0  0
 22 23  1  0  0  0
 22 26  1  0  0  0
 23 24  2  0  0  0
 23 25  1  0  0  0
 25 28  1  0  0  0
 25 27  1  0  0  0
 28 29  1  0  0  0
 29 30  1  0  0  0
 30 31  1  0  0  0
 30 32  1  0  0  0
 30 33  1  0  0  0
 15 16  1  0  0  0
 16 17  2  0  0  0
 17 18  1  0  0  0
M  END
> <minimizedAffinity>
-8.26211

$$$$
