CHEMBL4278759


 29 32  0  0  0  0  0  0  0  0999 V2000
  -29.9049   -5.6432   -5.9422 C   0  0  0  0  0  0  0  0  0  0  0  0
  -29.2827   -5.5856   -7.1271 N   0  0  0  0  0  0  0  0  0  0  0  0
  -28.6555   -6.6968   -7.5597 C   0  0  0  0  0  0  0  0  0  0  0  0
  -28.6669   -7.8993   -6.8893 C   0  0  0  0  0  0  0  0  0  0  0  0
  -29.3323   -7.8793   -5.6819 C   0  0  0  0  0  0  0  0  0  0  0  0
  -29.9639   -6.7768   -5.2259 N   0  0  0  0  0  0  0  0  0  0  0  0
  -29.3337   -8.9610   -4.7918 N   0  0  0  0  0  0  0  0  0  0  0  0
  -28.1870   -9.6096   -4.5064 C   0  0  0  0  0  0  0  0  0  0  0  0
  -27.7884   -9.9093   -3.2677 N   0  0  0  0  0  0  0  0  0  0  0  0
  -26.5620  -10.4315   -3.4456 N   0  0  0  0  0  0  0  0  0  0  0  0
  -26.1599  -10.4856   -4.7523 C   0  0  0  0  0  0  0  0  0  0  0  0
  -24.8470  -11.0204   -5.1661 C   0  0  0  0  0  0  0  0  0  0  0  0
  -27.2159   -9.9792   -5.4650 C   0  0  0  0  0  0  0  0  0  0  0  0
  -27.3000   -9.9953   -6.8566 N   0  0  0  0  0  0  0  0  0  0  0  0
  -28.0128   -9.1009   -7.4793 C   0  0  0  0  0  0  0  0  0  0  0  0
  -29.8607   -8.6778   -3.9723 H   0  0  0  0  0  0  0  0  0  0  0  0
  -26.0509  -10.7348   -2.6239 H   0  0  0  0  0  0  0  0  0  0  0  0
  -28.1921   -9.3379   -8.9613 C   0  0  0  0  0  0  0  0  0  0  0  0
  -29.4079   -9.7943   -9.4894 C   0  0  0  0  0  0  0  0  0  0  0  0
  -29.5245  -10.0794  -10.8527 C   0  0  0  0  0  0  0  0  0  0  0  0
  -28.4226   -9.9437  -11.7024 C   0  0  0  0  0  0  0  0  0  0  0  0
  -28.5232  -10.3028  -13.1552 C   0  0  0  0  0  0  0  0  0  0  0  0
  -27.2091   -9.4866  -11.1767 C   0  0  0  0  0  0  0  0  0  0  0  0
  -27.0931   -9.1885   -9.8158 C   0  0  0  0  0  0  0  0  0  0  0  0
  -30.4603   -4.4858   -5.3981 N   0  0  0  0  0  0  0  0  0  0  0  0
  -29.6754   -2.1135   -5.3679 C   0  0  0  0  0  0  0  0  0  0  0  0
  -30.2989   -3.2530   -6.1618 C   0  0  0  0  0  0  0  0  0  0  0  0
  -30.5100   -4.5116   -3.9326 C   0  0  0  0  0  0  0  0  0  0  0  0
  -31.9048   -4.5465   -3.3280 C   0  0  0  0  0  0  0  0  0  0  0  0
 26 27  1  0  0  0
 27 25  1  0  0  0
 25 28  1  0  0  0
 25  1  1  0  0  0
 28 29  1  0  0  0
  1  2  1  0  0  0
  1  6  2  0  0  0
  2  3  2  0  0  0
  3  4  1  0  0  0
  4  5  2  0  0  0
  4 15  1  0  0  0
  5  6  1  0  0  0
  5  7  1  0  0  0
  7  8  1  0  0  0
  7 16  1  0  0  0
  8  9  2  0  0  0
  8 13  1  0  0  0
  9 10  1  0  0  0
 10 11  1  0  0  0
 10 17  1  0  0  0
 11 12  1  0  0  0
 11 13  2  0  0  0
 13 14  1  0  0  0
 14 15  2  0  0  0
 15 18  1  0  0  0
 18 19  1  0  0  0
 18 24  2  0  0  0
 19 20  2  0  0  0
 20 21  1  0  0  0
 21 22  1  0  0  0
 21 23  2  0  0  0
 23 24  1  0  0  0
M  END
> <minimizedAffinity>
-7.63715

$$$$
