CHEMBL1085541


 39 45  0  0  0  0  0  0  0  0999 V2000
  -28.0049   -4.5762   -8.0853 N   0  0  0  0  0  0  0  0  0  0  0  0
  -28.1138   -5.9895   -7.9038 C   0  0  0  0  0  0  0  0  0  0  0  0
  -27.9923   -7.0662   -8.8043 C   0  0  0  0  0  0  0  0  0  0  0  0
  -28.2129   -8.3810   -8.3306 C   0  0  0  0  0  0  0  0  0  0  0  0
  -28.5425   -8.6527   -6.9976 C   0  0  0  0  0  0  0  0  0  0  0  0
  -28.6612   -7.5639   -6.1272 C   0  0  0  0  0  0  0  0  0  0  0  0
  -28.4847   -6.2438   -6.5784 C   0  0  0  0  0  0  0  0  0  0  0  0
  -28.6900   -4.9777   -6.0836 C   0  0  0  0  0  0  0  0  0  0  0  0
  -29.4836   -4.7561   -4.9470 C   0  0  0  0  0  0  0  0  0  0  0  0
  -30.0529   -3.4717   -4.8601 C   0  0  0  0  0  0  0  0  0  0  0  0
  -29.7268   -2.4190   -5.7285 C   0  0  0  0  0  0  0  0  0  0  0  0
  -28.4772   -2.6141   -6.4164 C   0  0  0  0  0  0  0  0  0  0  0  0
  -28.3046   -3.9323   -6.8824 C   0  0  0  0  0  0  0  0  0  0  0  0
  -27.3044   -1.7892   -5.7171 C   0  0  0  0  0  0  0  0  0  0  0  0
  -27.7071   -1.0834   -4.3544 C   0  0  0  0  0  0  0  0  0  0  0  0
  -28.9873   -0.3709   -4.6103 C   0  0  0  0  0  0  0  0  0  0  0  0
  -29.2101    0.9425   -4.5698 N   0  0  0  0  0  0  0  0  0  0  0  0
  -30.3403    1.0689   -5.3124 N   0  0  0  0  0  0  0  0  0  0  0  0
  -30.8393    2.3816   -5.6393 C   0  0  0  0  0  0  0  0  0  0  0  0
  -30.7626   -0.1072   -5.8800 C   0  0  0  0  0  0  0  0  0  0  0  0
  -29.9867   -1.0758   -5.2964 C   0  0  0  0  0  0  0  0  0  0  0  0
  -30.8658   -3.4458   -3.6689 C   0  0  0  0  0  0  0  0  0  0  0  0
  -31.5555   -2.5855   -3.1381 O   0  0  0  0  0  0  0  0  0  0  0  0
  -30.6959   -4.7061   -3.1043 N   0  0  0  0  0  0  0  0  0  0  0  0
  -29.8987   -5.6409   -3.8622 C   0  0  0  0  0  0  0  0  0  0  0  0
  -31.1118   -4.9132   -2.2090 H   0  0  0  0  0  0  0  0  0  0  0  0
  -28.7166  -10.0406   -6.3857 C   0  0  0  0  0  0  0  0  0  0  0  0
  -28.2925  -11.2651   -7.2069 C   0  0  0  0  0  0  0  0  0  0  0  0
  -29.3068  -11.6025   -8.2879 C   0  0  0  0  0  0  0  0  0  0  0  0
  -30.7015  -11.7232   -7.6957 C   0  0  0  0  0  0  0  0  0  0  0  0
  -31.0447  -10.5176   -6.8313 C   0  0  0  0  0  0  0  0  0  0  0  0
  -30.0410  -10.2428   -5.8544 O   0  0  0  0  0  0  0  0  0  0  0  0
  -27.8422   -4.0179   -9.4356 C   0  0  0  0  0  0  0  0  0  0  0  0
  -27.4487   -2.5351   -9.6295 C   0  0  0  0  0  0  0  0  0  0  0  0
  -26.7534   -2.2092  -10.9179 N   0  0  0  0  0  0  0  0  0  0  0  0
  -27.9338   -2.2300  -13.1903 C   0  0  0  0  0  0  0  0  0  0  0  0
  -27.7005   -1.5368  -11.8367 C   0  0  0  0  0  0  0  0  0  0  0  0
  -25.4781   -1.4897  -10.7709 C   0  0  0  0  0  0  0  0  0  0  0  0
  -25.1522   -0.4685  -11.8550 C   0  0  0  0  0  0  0  0  0  0  0  0
 36 37  1  0  0  0
 37 35  1  0  0  0
 35 38  1  0  0  0
 35 34  1  0  0  0
 38 39  1  0  0  0
 34 33  1  0  0  0
 33  1  1  0  0  0
  1  2  1  0  0  0
  1 13  1  0  0  0
  2  3  1  0  0  0
  2  7  2  0  0  0
  3  4  2  0  0  0
  4  5  1  0  0  0
  5 27  1  0  0  0
  5  6  2  0  0  0
 27 28  1  0  0  0
 27 32  1  0  0  0
 28 29  1  0  0  0
 29 30  1  0  0  0
 30 31  1  0  0  0
 31 32  1  0  0  0
  6  7  1  0  0  0
  7  8  1  0  0  0
  8  9  1  0  0  0
  8 13  2  0  0  0
  9 10  2  0  0  0
  9 25  1  0  0  0
 10 11  1  0  0  0
 10 22  1  0  0  0
 11 12  2  0  0  0
 11 21  1  0  0  0
 12 13  1  0  0  0
 12 14  1  0  0  0
 14 15  1  0  0  0
 15 16  1  0  0  0
 16 17  2  0  0  0
 16 21  1  0  0  0
 17 18  1  0  0  0
 18 19  1  0  0  0
 18 20  1  0  0  0
 20 21  2  0  0  0
 22 23  2  0  0  0
 22 24  1  0  0  0
 24 25  1  0  0  0
 24 26  1  0  0  0
M  END
> <minimizedAffinity>
-5.27561

$$$$
