CHEMBL3109338


 33 37  0  0  0  0  0  0  0  0999 V2000
  -15.0024   -0.9553  -13.3099 C   0  0  0  0  0  0  0  0  0  0  0  0
  -13.6888   -0.5162  -13.2632 C   0  0  0  0  0  0  0  0  0  0  0  0
  -13.3495    0.6322  -13.9647 C   0  0  0  0  0  0  0  0  0  0  0  0
  -14.3304    1.3251  -14.6797 C   0  0  0  0  0  0  0  0  0  0  0  0
  -13.9999    2.5098  -15.3541 C   0  0  0  0  0  0  0  0  0  0  0  0
  -14.9788    3.2302  -16.0248 C   0  0  0  0  0  0  0  0  0  0  0  0
  -16.2819    2.7459  -16.0656 C   0  0  0  0  0  0  0  0  0  0  0  0
  -16.6019    1.5175  -15.4635 C   0  0  0  0  0  0  0  0  0  0  0  0
  -15.6455    0.8095  -14.7051 C   0  0  0  0  0  0  0  0  0  0  0  0
  -15.9568   -0.3241  -14.0280 N   0  0  0  0  0  0  0  0  0  0  0  0
  -15.4285   -6.1922  -13.1936 C   0  0  0  0  0  0  0  0  0  0  0  0
  -14.9400   -5.3495  -14.2853 C   0  0  0  0  0  0  0  0  0  0  0  0
  -14.9257   -4.0167  -14.1371 C   0  0  0  0  0  0  0  0  0  0  0  0
  -15.3766   -3.4421  -12.9489 N   0  0  0  0  0  0  0  0  0  0  0  0
  -15.4326   -2.1176  -12.5417 C   0  0  0  0  0  0  0  0  0  0  0  0
  -15.9619   -2.1825  -11.2616 C   0  0  0  0  0  0  0  0  0  0  0  0
  -16.2044   -3.4673  -10.8627 N   0  0  0  0  0  0  0  0  0  0  0  0
  -15.8466   -4.2127  -11.8846 C   0  0  0  0  0  0  0  0  0  0  0  0
  -15.8581   -5.6276  -12.0473 C   0  0  0  0  0  0  0  0  0  0  0  0
  -15.4505   -7.5701  -13.3123 O   0  0  0  0  0  0  0  0  0  0  0  0
  -14.2734   -8.2898  -12.9552 C   0  0  0  0  0  0  0  0  0  0  0  0
  -13.5802   -8.8077  -14.2068 C   0  0  0  0  0  0  0  0  0  0  0  0
  -11.8528   -7.2986  -13.6621 C   0  0  0  0  0  0  0  0  0  0  0  0
  -12.1726   -8.6276  -14.0459 O   0  0  0  0  0  0  0  0  0  0  0  0
  -17.8480    0.9328  -15.5830 O   0  0  0  0  0  0  0  0  0  0  0  0
  -18.9046    1.4173  -14.7314 C   0  0  0  0  0  0  0  0  0  0  0  0
  -18.9551    2.9542  -14.7278 C   0  0  0  0  0  0  0  0  0  0  0  0
  -20.1310    3.4614  -13.9041 C   0  0  0  0  0  0  0  0  0  0  0  0
  -21.4035    2.9691  -14.4274 N   0  0  0  0  0  0  0  0  0  0  0  0
  -21.4161    1.5019  -14.4864 C   0  0  0  0  0  0  0  0  0  0  0  0
  -20.2450    0.8891  -15.2655 C   0  0  0  0  0  0  0  0  0  0  0  0
  -20.2936   -0.4645  -15.1003 F   0  0  0  0  0  0  0  0  0  0  0  0
  -21.5560    3.3494  -15.3626 H   0  0  0  0  0  0  0  0  0  0  0  0
 23 24  1  0  0  0
 24 22  1  0  0  0
 22 21  1  0  0  0
 21 20  1  0  0  0
 20 11  1  0  0  0
 11 12  1  0  0  0
 11 19  2  0  0  0
 12 13  2  0  0  0
 13 14  1  0  0  0
 14 15  1  0  0  0
 14 18  1  0  0  0
 15  1  1  0  0  0
 15 16  2  0  0  0
  1  2  1  0  0  0
  1 10  2  0  0  0
  2  3  2  0  0  0
  3  4  1  0  0  0
  4  5  1  0  0  0
  4  9  2  0  0  0
  5  6  2  0  0  0
  6  7  1  0  0  0
  7  8  2  0  0  0
  8 25  1  0  0  0
  8  9  1  0  0  0
 26 27  1  0  0  0
 26 31  1  0  0  0
 26 25  1  0  0  0
 27 28  1  0  0  0
 28 29  1  0  0  0
 29 30  1  0  0  0
 29 33  1  0  0  0
 30 31  1  0  0  0
 31 32  1  0  0  0
  9 10  1  0  0  0
 16 17  1  0  0  0
 17 18  2  0  0  0
 18 19  1  0  0  0
M  END
> <minimizedAffinity>
-7.93046

$$$$
