CHEMBL409872


 34 37  0  0  0  0  0  0  0  0999 V2000
  -22.9247    0.0829  -13.1415 C   0  0  0  0  0  0  0  0  0  0  0  0
  -24.0476    0.6690  -12.5654 C   0  0  0  0  0  0  0  0  0  0  0  0
  -24.9962   -0.1158  -11.9158 C   0  0  0  0  0  0  0  0  0  0  0  0
  -24.8571   -1.5038  -11.8268 C   0  0  0  0  0  0  0  0  0  0  0  0
  -23.7055   -2.0894  -12.3705 C   0  0  0  0  0  0  0  0  0  0  0  0
  -22.7444   -1.3011  -13.0260 C   0  0  0  0  0  0  0  0  0  0  0  0
  -18.6579   -0.5423  -15.3730 N   0  0  0  0  0  0  0  0  0  0  0  0
  -18.6918    0.8525  -15.2094 C   0  0  0  0  0  0  0  0  0  0  0  0
  -17.7262    1.5414  -15.8370 N   0  0  0  0  0  0  0  0  0  0  0  0
  -17.7986    2.8714  -15.7222 C   0  0  0  0  0  0  0  0  0  0  0  0
  -18.7337    3.5644  -15.0607 N   0  0  0  0  0  0  0  0  0  0  0  0
  -19.6981    2.8466  -14.4551 C   0  0  0  0  0  0  0  0  0  0  0  0
  -19.7336    1.4448  -14.4901 C   0  0  0  0  0  0  0  0  0  0  0  0
  -20.6750    0.6200  -13.8115 N   0  0  0  0  0  0  0  0  0  0  0  0
  -21.9349    0.9302  -13.8660 C   0  0  0  0  0  0  0  0  0  0  0  0
  -22.4492    2.1222  -14.6544 C   0  0  0  0  0  0  0  0  0  0  0  0
  -22.0523    3.4155  -13.9619 C   0  0  0  0  0  0  0  0  0  0  0  0
  -20.6226    3.6279  -13.7642 N   0  0  0  0  0  0  0  0  0  0  0  0
  -17.7615   -0.7996  -15.7688 H   0  0  0  0  0  0  0  0  0  0  0  0
  -18.8831   -0.9895  -14.4888 H   0  0  0  0  0  0  0  0  0  0  0  0
  -20.3428    4.5937  -13.9256 H   0  0  0  0  0  0  0  0  0  0  0  0
  -25.8073   -2.3282  -11.1803 N   0  0  0  0  0  0  0  0  0  0  0  0
  -26.5087   -1.9926  -10.0330 C   0  0  0  0  0  0  0  0  0  0  0  0
  -26.4691   -0.9046   -9.4702 O   0  0  0  0  0  0  0  0  0  0  0  0
  -27.2502   -3.0614   -9.5457 N   0  0  0  0  0  0  0  0  0  0  0  0
  -26.1124   -3.1572  -11.6719 H   0  0  0  0  0  0  0  0  0  0  0  0
  -26.8106   -3.9613   -9.6730 H   0  0  0  0  0  0  0  0  0  0  0  0
  -28.0347   -2.9031   -8.3774 C   0  0  0  0  0  0  0  0  0  0  0  0
  -28.9824   -3.8801   -8.0655 C   0  0  0  0  0  0  0  0  0  0  0  0
  -29.7116   -3.7921   -6.8764 C   0  0  0  0  0  0  0  0  0  0  0  0
  -29.5314   -2.7032   -6.0223 C   0  0  0  0  0  0  0  0  0  0  0  0
  -28.6131   -1.7099   -6.3542 C   0  0  0  0  0  0  0  0  0  0  0  0
  -28.4106   -0.3537   -5.3130 Cl  0  0  0  0  0  0  0  0  0  0  0  0
  -27.8588   -1.8084   -7.5215 C   0  0  0  0  0  0  0  0  0  0  0  0
  7  8  1  0  0  0
  7 19  1  0  0  0
  7 20  1  0  0  0
  8  9  1  0  0  0
  8 13  2  0  0  0
  9 10  2  0  0  0
 10 11  1  0  0  0
 11 12  2  0  0  0
 12 13  1  0  0  0
 12 18  1  0  0  0
 13 14  1  0  0  0
 14 15  2  0  0  0
 15  1  1  0  0  0
 15 16  1  0  0  0
  1  2  1  0  0  0
  1  6  2  0  0  0
  2  3  2  0  0  0
  3  4  1  0  0  0
  4 22  1  0  0  0
  4  5  2  0  0  0
 22 23  1  0  0  0
 22 26  1  0  0  0
 23 24  2  0  0  0
 23 25  1  0  0  0
 25 28  1  0  0  0
 25 27  1  0  0  0
 28 29  1  0  0  0
 28 34  2  0  0  0
 29 30  2  0  0  0
 30 31  1  0  0  0
 31 32  2  0  0  0
 32 33  1  0  0  0
 32 34  1  0  0  0
  5  6  1  0  0  0
 16 17  1  0  0  0
 17 18  1  0  0  0
 18 21  1  0  0  0
M  END
> <minimizedAffinity>
-10.17863

$$$$
