CHEMBL239590


 42 46  0  0  0  0  0  0  0  0999 V2000
  -14.7077    0.3127  -14.8701 C   0  0  0  0  0  0  0  0  0  0  0  0
  -13.3941    0.2670  -15.2215 O   0  0  0  0  0  0  0  0  0  0  0  0
  -13.1793    1.1916  -16.1853 C   0  0  0  0  0  0  0  0  0  0  0  0
  -11.9757    1.3287  -16.7687 N   0  0  0  0  0  0  0  0  0  0  0  0
  -11.9569    2.2686  -17.7264 C   0  0  0  0  0  0  0  0  0  0  0  0
  -13.0327    3.0617  -18.0882 C   0  0  0  0  0  0  0  0  0  0  0  0
  -14.2694    2.9279  -17.4323 C   0  0  0  0  0  0  0  0  0  0  0  0
  -14.3513    1.9062  -16.4454 C   0  0  0  0  0  0  0  0  0  0  0  0
  -15.3523    1.3261  -15.5754 C   0  0  0  0  0  0  0  0  0  0  0  0
  -15.8682   -2.6125  -11.9517 C   0  0  0  0  0  0  0  0  0  0  0  0
  -15.9412   -1.2436  -11.6705 C   0  0  0  0  0  0  0  0  0  0  0  0
  -15.5491   -0.2979  -12.6261 C   0  0  0  0  0  0  0  0  0  0  0  0
  -15.0790   -0.7004  -13.8810 C   0  0  0  0  0  0  0  0  0  0  0  0
  -14.9853   -2.0696  -14.1449 C   0  0  0  0  0  0  0  0  0  0  0  0
  -15.3880   -3.0204  -13.1959 C   0  0  0  0  0  0  0  0  0  0  0  0
  -16.2338   -3.6215  -11.0877 O   0  0  0  0  0  0  0  0  0  0  0  0
  -15.1388   -4.4266  -10.6424 C   0  0  0  0  0  0  0  0  0  0  0  0
  -15.1351   -5.8236  -11.2874 C   0  0  0  0  0  0  0  0  0  0  0  0
  -13.8020   -6.5174  -11.2608 N   0  0  0  0  0  0  0  0  0  0  0  0
  -11.6026   -5.9443  -10.1550 C   0  0  0  0  0  0  0  0  0  0  0  0
  -12.6876   -5.5137  -11.1730 C   0  0  0  0  0  0  0  0  0  0  0  0
  -11.9357   -5.2202  -12.4802 C   0  0  0  0  0  0  0  0  0  0  0  0
  -13.7036   -7.5263  -12.3696 C   0  0  0  0  0  0  0  0  0  0  0  0
  -13.5270   -8.9913  -11.9359 C   0  0  0  0  0  0  0  0  0  0  0  0
  -14.9596   -7.5298  -13.2753 C   0  0  0  0  0  0  0  0  0  0  0  0
  -16.7744    1.6337  -15.4351 C   0  0  0  0  0  0  0  0  0  0  0  0
  -17.2102    2.9631  -15.4837 C   0  0  0  0  0  0  0  0  0  0  0  0
  -18.5536    3.2881  -15.2902 C   0  0  0  0  0  0  0  0  0  0  0  0
  -19.4962    2.2762  -15.1385 C   0  0  0  0  0  0  0  0  0  0  0  0
  -19.0914    0.9440  -15.1560 C   0  0  0  0  0  0  0  0  0  0  0  0
  -17.7352    0.6253  -15.2706 C   0  0  0  0  0  0  0  0  0  0  0  0
  -15.3084    3.8328  -17.7411 N   0  0  0  0  0  0  0  0  0  0  0  0
  -16.2218    3.4109  -17.5893 H   0  0  0  0  0  0  0  0  0  0  0  0
  -15.2091    4.4816  -19.0607 C   0  0  0  0  0  0  0  0  0  0  0  0
  -14.8692    5.9819  -18.8965 C   0  0  0  0  0  0  0  0  0  0  0  0
  -14.5226    6.6698  -20.1570 N   0  0  0  0  0  0  0  0  0  0  0  0
  -13.2571    7.4218  -20.0153 C   0  0  0  0  0  0  0  0  0  0  0  0
  -13.3788    8.7383  -19.2138 C   0  0  0  0  0  0  0  0  0  0  0  0
  -14.4240    9.6428  -19.7217 N   0  0  0  0  0  0  0  0  0  0  0  0
  -15.6950    8.9178  -19.8809 C   0  0  0  0  0  0  0  0  0  0  0  0
  -15.5677    7.5849  -20.6530 C   0  0  0  0  0  0  0  0  0  0  0  0
  -14.1310    9.9744  -20.6412 H   0  0  0  0  0  0  0  0  0  0  0  0
 20 21  1  0  0  0
 21 22  1  0  0  0
 21 19  1  0  0  0
 19 18  1  0  0  0
 19 23  1  0  0  0
 18 17  1  0  0  0
 17 16  1  0  0  0
 16 10  1  0  0  0
 10 11  1  0  0  0
 10 15  2  0  0  0
 11 12  2  0  0  0
 12 13  1  0  0  0
 13  1  1  0  0  0
 13 14  2  0  0  0
  1  2  1  0  0  0
  1  9  2  0  0  0
  2  3  1  0  0  0
  3  4  1  0  0  0
  3  8  2  0  0  0
  4  5  2  0  0  0
  5  6  1  0  0  0
  6  7  2  0  0  0
  7 32  1  0  0  0
  7  8  1  0  0  0
 32 34  1  0  0  0
 32 33  1  0  0  0
 34 35  1  0  0  0
 35 36  1  0  0  0
 36 37  1  0  0  0
 36 41  1  0  0  0
 37 38  1  0  0  0
 38 39  1  0  0  0
 39 40  1  0  0  0
 39 42  1  0  0  0
 40 41  1  0  0  0
  8  9  1  0  0  0
  9 26  1  0  0  0
 26 27  1  0  0  0
 26 31  2  0  0  0
 27 28  2  0  0  0
 28 29  1  0  0  0
 29 30  2  0  0  0
 30 31  1  0  0  0
 14 15  1  0  0  0
 23 24  1  0  0  0
 23 25  1  0  0  0
M  END
> <minimizedAffinity>
-7.41780

$$$$
