CHEMBL1980763


 29 32  0  0  0  0  0  0  0  0999 V2000
  -27.4014   -1.5268   -8.5505 N   0  0  0  0  0  0  0  0  0  0  0  0
  -27.1495   -0.6452   -8.1327 H   0  0  0  0  0  0  0  0  0  0  0  0
  -25.1775   -1.6901  -11.3975 C   0  0  0  0  0  0  0  0  0  0  0  0
  -25.6595   -1.5879  -10.1342 N   0  0  0  0  0  0  0  0  0  0  0  0
  -26.9820   -1.5985   -9.8798 C   0  0  0  0  0  0  0  0  0  0  0  0
  -27.9383   -1.7193  -10.8138 N   0  0  0  0  0  0  0  0  0  0  0  0
  -27.4416   -1.7760  -12.0593 C   0  0  0  0  0  0  0  0  0  0  0  0
  -28.1990   -1.8573  -13.1969 N   0  0  0  0  0  0  0  0  0  0  0  0
  -27.3801   -1.8918  -14.2981 C   0  0  0  0  0  0  0  0  0  0  0  0
  -26.0753   -1.8440  -13.8547 C   0  0  0  0  0  0  0  0  0  0  0  0
  -26.1069   -1.7656  -12.4363 C   0  0  0  0  0  0  0  0  0  0  0  0
  -29.2090   -1.8756  -13.2003 H   0  0  0  0  0  0  0  0  0  0  0  0
  -23.6793   -1.7247  -11.5392 C   0  0  0  0  0  0  0  0  0  0  0  0
  -22.6579   -0.6010  -13.5869 C   0  0  0  0  0  0  0  0  0  0  0  0
  -23.1025   -0.4210  -12.1329 C   0  0  0  0  0  0  0  0  0  0  0  0
  -24.1344    0.7044  -12.0405 C   0  0  0  0  0  0  0  0  0  0  0  0
  -28.0436   -2.4899   -7.7620 C   0  0  0  0  0  0  0  0  0  0  0  0
  -28.6147   -3.6103   -8.3588 C   0  0  0  0  0  0  0  0  0  0  0  0
  -29.1888   -4.6309   -7.5797 C   0  0  0  0  0  0  0  0  0  0  0  0
  -29.2081   -4.5958   -6.1711 C   0  0  0  0  0  0  0  0  0  0  0  0
  -28.5805   -3.4746   -5.5860 C   0  0  0  0  0  0  0  0  0  0  0  0
  -28.2963   -3.3179   -3.8762 Cl  0  0  0  0  0  0  0  0  0  0  0  0
  -28.0380   -2.4445   -6.3684 C   0  0  0  0  0  0  0  0  0  0  0  0
  -29.8141   -5.6148   -5.4556 N   0  0  0  0  0  0  0  0  0  0  0  0
  -31.1257   -5.4847   -4.8019 C   0  0  0  0  0  0  0  0  0  0  0  0
  -30.9936   -5.7361   -3.2920 C   0  0  0  0  0  0  0  0  0  0  0  0
  -30.3895   -7.0121   -3.0217 O   0  0  0  0  0  0  0  0  0  0  0  0
  -29.0771   -7.0687   -3.6005 C   0  0  0  0  0  0  0  0  0  0  0  0
  -29.1068   -6.8646   -5.1234 C   0  0  0  0  0  0  0  0  0  0  0  0
 14 15  1  0  0  0
 15 16  1  0  0  0
 15 13  1  0  0  0
 13  3  1  0  0  0
  3  4  1  0  0  0
  3 11  2  0  0  0
  4  5  2  0  0  0
  5  1  1  0  0  0
  5  6  1  0  0  0
  1 17  1  0  0  0
  1  2  1  0  0  0
 17 18  1  0  0  0
 17 23  2  0  0  0
 18 19  2  0  0  0
 19 20  1  0  0  0
 20 24  1  0  0  0
 20 21  2  0  0  0
 24 25  1  0  0  0
 24 29  1  0  0  0
 25 26  1  0  0  0
 26 27  1  0  0  0
 27 28  1  0  0  0
 28 29  1  0  0  0
 21 22  1  0  0  0
 21 23  1  0  0  0
  6  7  2  0  0  0
  7  8  1  0  0  0
  7 11  1  0  0  0
  8  9  1  0  0  0
  8 12  1  0  0  0
  9 10  2  0  0  0
 10 11  1  0  0  0
M  END
> <minimizedAffinity>
-9.43982

$$$$
