CHEMBL233668


 24 26  0  0  0  0  0  0  0  0999 V2000
  -30.1419   -4.5819   -5.0668 C   0  0  0  0  0  0  0  0  0  0  0  0
  -29.7489   -4.8346   -3.8119 N   0  0  0  0  0  0  0  0  0  0  0  0
  -29.3955   -6.0961   -3.5140 C   0  0  0  0  0  0  0  0  0  0  0  0
  -29.4332   -7.1328   -4.4162 C   0  0  0  0  0  0  0  0  0  0  0  0
  -29.8533   -6.8047   -5.6967 C   0  0  0  0  0  0  0  0  0  0  0  0
  -30.2043   -5.5262   -6.0169 N   0  0  0  0  0  0  0  0  0  0  0  0
  -29.9712   -7.7536   -6.8339 C   0  0  0  0  0  0  0  0  0  0  0  0
  -31.1708   -8.4648   -7.0445 C   0  0  0  0  0  0  0  0  0  0  0  0
  -31.3265   -9.3423   -8.1235 C   0  0  0  0  0  0  0  0  0  0  0  0
  -30.2787   -9.5383   -9.0163 C   0  0  0  0  0  0  0  0  0  0  0  0
  -29.0842   -8.8517   -8.8360 C   0  0  0  0  0  0  0  0  0  0  0  0
  -28.9381   -7.9611   -7.7663 C   0  0  0  0  0  0  0  0  0  0  0  0
  -30.4350   -3.2776   -5.4476 N   0  0  0  0  0  0  0  0  0  0  0  0
  -31.3510   -2.9949   -5.1335 H   0  0  0  0  0  0  0  0  0  0  0  0
  -27.8566   -1.2789   -7.2638 C   0  0  0  0  0  0  0  0  0  0  0  0
  -27.8491   -0.1196   -6.4912 C   0  0  0  0  0  0  0  0  0  0  0  0
  -28.6769   -0.0234   -5.3703 C   0  0  0  0  0  0  0  0  0  0  0  0
  -29.5095   -1.0870   -5.0154 C   0  0  0  0  0  0  0  0  0  0  0  0
  -29.5472   -2.2490   -5.7904 C   0  0  0  0  0  0  0  0  0  0  0  0
  -28.7107   -2.3282   -6.9120 C   0  0  0  0  0  0  0  0  0  0  0  0
  -27.7731   -1.9518   -9.5410 C   0  0  0  0  0  0  0  0  0  0  0  0
  -27.0915   -1.5150   -8.3732 O   0  0  0  0  0  0  0  0  0  0  0  0
  -29.0423   -8.4278   -3.9801 C   0  0  0  0  0  0  0  0  0  0  0  0
  -28.7364   -9.4725   -3.5777 N   0  0  0  0  0  0  0  0  0  0  0  0
 21 22  1  0  0  0
 22 15  1  0  0  0
 15 16  1  0  0  0
 15 20  2  0  0  0
 16 17  2  0  0  0
 17 18  1  0  0  0
 18 19  2  0  0  0
 19 13  1  0  0  0
 19 20  1  0  0  0
 13  1  1  0  0  0
 13 14  1  0  0  0
  1  2  1  0  0  0
  1  6  2  0  0  0
  2  3  2  0  0  0
  3  4  1  0  0  0
  4 23  1  0  0  0
  4  5  2  0  0  0
 23 24  3  0  0  0
  5  7  1  0  0  0
  5  6  1  0  0  0
  7  8  1  0  0  0
  7 12  2  0  0  0
  8  9  2  0  0  0
  9 10  1  0  0  0
 10 11  2  0  0  0
 11 12  1  0  0  0
M  END
> <minimizedAffinity>
-7.71350

$$$$
