CHEMBL3968322


 29 32  0  0  0  0  0  0  0  0999 V2000
  -29.5408   -5.0931   -7.1444 C   0  0  0  0  0  0  0  0  0  0  0  0
  -28.7063   -4.3987   -8.0218 C   0  0  0  0  0  0  0  0  0  0  0  0
  -28.3430   -3.0599   -7.7784 C   0  0  0  0  0  0  0  0  0  0  0  0
  -27.6324   -2.2560   -8.6867 C   0  0  0  0  0  0  0  0  0  0  0  0
  -27.3640   -0.9635   -8.4388 N   0  0  0  0  0  0  0  0  0  0  0  0
  -27.8010   -0.4876   -7.2660 C   0  0  0  0  0  0  0  0  0  0  0  0
  -28.4865   -1.1561   -6.3371 N   0  0  0  0  0  0  0  0  0  0  0  0
  -28.7659   -2.4329   -6.6042 C   0  0  0  0  0  0  0  0  0  0  0  0
  -29.5169   -3.1651   -5.6920 C   0  0  0  0  0  0  0  0  0  0  0  0
  -29.8843   -4.5012   -5.9224 C   0  0  0  0  0  0  0  0  0  0  0  0
  -29.0571   -7.2309   -8.0008 C   0  0  0  0  0  0  0  0  0  0  0  0
  -30.0365   -6.3359   -7.4548 O   0  0  0  0  0  0  0  0  0  0  0  0
  -27.2160   -2.8166   -9.9144 N   0  0  0  0  0  0  0  0  0  0  0  0
  -27.0630   -3.8146   -9.8406 H   0  0  0  0  0  0  0  0  0  0  0  0
  -26.5768   -2.1904  -10.9988 C   0  0  0  0  0  0  0  0  0  0  0  0
  -27.2185   -1.9964  -12.2277 C   0  0  0  0  0  0  0  0  0  0  0  0
  -26.5235   -1.5010  -13.3347 C   0  0  0  0  0  0  0  0  0  0  0  0
  -25.1688   -1.1879  -13.2278 C   0  0  0  0  0  0  0  0  0  0  0  0
  -24.3519   -0.6384  -14.6463 Cl  0  0  0  0  0  0  0  0  0  0  0  0
  -24.5196   -1.3493  -12.0012 C   0  0  0  0  0  0  0  0  0  0  0  0
  -22.8483   -0.9673  -11.7796 Cl  0  0  0  0  0  0  0  0  0  0  0  0
  -25.2203   -1.8540  -10.8983 C   0  0  0  0  0  0  0  0  0  0  0  0
  -30.5939   -5.2542   -5.0134 O   0  0  0  0  0  0  0  0  0  0  0  0
  -29.8530   -5.6483   -3.8428 C   0  0  0  0  0  0  0  0  0  0  0  0
  -29.0383   -6.8916   -4.0403 C   0  0  0  0  0  0  0  0  0  0  0  0
  -27.7914   -6.9867   -4.6314 C   0  0  0  0  0  0  0  0  0  0  0  0
  -27.2056   -8.5946   -4.5303 S   0  0  0  0  0  0  0  0  0  0  0  0
  -28.6433   -9.0475   -3.7155 C   0  0  0  0  0  0  0  0  0  0  0  0
  -29.5196   -8.0886   -3.5140 N   0  0  0  0  0  0  0  0  0  0  0  0
 11 12  1  0  0  0
 12  1  1  0  0  0
  1  2  1  0  0  0
  1 10  2  0  0  0
  2  3  2  0  0  0
  3  4  1  0  0  0
  3  8  1  0  0  0
  4 13  1  0  0  0
  4  5  2  0  0  0
 13 15  1  0  0  0
 13 14  1  0  0  0
 15 16  1  0  0  0
 15 22  2  0  0  0
 16 17  2  0  0  0
 17 18  1  0  0  0
 18 19  1  0  0  0
 18 20  2  0  0  0
 20 21  1  0  0  0
 20 22  1  0  0  0
  5  6  1  0  0  0
  6  7  2  0  0  0
  7  8  1  0  0  0
  8  9  2  0  0  0
  9 10  1  0  0  0
 10 23  1  0  0  0
 23 24  1  0  0  0
 24 25  1  0  0  0
 25 26  2  0  0  0
 25 29  1  0  0  0
 26 27  1  0  0  0
 27 28  1  0  0  0
 28 29  2  0  0  0
M  END
> <minimizedAffinity>
-8.78867

$$$$
