CHEMBL1984586


 31 34  0  0  0  0  0  0  0  0999 V2000
  -25.2707   -1.8626  -12.4631 C   0  0  0  0  0  0  0  0  0  0  0  0
  -23.9939   -2.0026  -11.9080 C   0  0  0  0  0  0  0  0  0  0  0  0
  -22.8737   -1.4549  -12.5430 C   0  0  0  0  0  0  0  0  0  0  0  0
  -23.0113   -0.7685  -13.7556 C   0  0  0  0  0  0  0  0  0  0  0  0
  -24.2738   -0.7501  -14.3649 C   0  0  0  0  0  0  0  0  0  0  0  0
  -25.3999   -1.2873  -13.7242 C   0  0  0  0  0  0  0  0  0  0  0  0
  -21.8886   -0.0360  -14.3366 C   0  0  0  0  0  0  0  0  0  0  0  0
  -20.7944   -0.6588  -14.9088 C   0  0  0  0  0  0  0  0  0  0  0  0
  -19.8922    0.2497  -15.3549 O   0  0  0  0  0  0  0  0  0  0  0  0
  -20.3823    1.4857  -15.0638 C   0  0  0  0  0  0  0  0  0  0  0  0
  -19.7238    2.6076  -15.3705 N   0  0  0  0  0  0  0  0  0  0  0  0
  -20.3955    3.6910  -14.9724 C   0  0  0  0  0  0  0  0  0  0  0  0
  -21.5729    3.7406  -14.3239 N   0  0  0  0  0  0  0  0  0  0  0  0
  -22.1952    2.5845  -14.0216 C   0  0  0  0  0  0  0  0  0  0  0  0
  -23.3816    2.6998  -13.3082 N   0  0  0  0  0  0  0  0  0  0  0  0
  -21.6039    1.3769  -14.4120 C   0  0  0  0  0  0  0  0  0  0  0  0
  -23.4705    3.6445  -12.9495 H   0  0  0  0  0  0  0  0  0  0  0  0
  -23.5105    1.9685  -12.6174 H   0  0  0  0  0  0  0  0  0  0  0  0
  -27.7083   -2.2985   -9.7938 N   0  0  0  0  0  0  0  0  0  0  0  0
  -26.5123   -1.9111  -10.3771 C   0  0  0  0  0  0  0  0  0  0  0  0
  -25.6070   -1.3147   -9.8031 O   0  0  0  0  0  0  0  0  0  0  0  0
  -26.4389   -2.2187  -11.7355 N   0  0  0  0  0  0  0  0  0  0  0  0
  -28.4027   -2.7159  -10.3903 H   0  0  0  0  0  0  0  0  0  0  0  0
  -27.3131   -2.1326  -12.2306 H   0  0  0  0  0  0  0  0  0  0  0  0
  -28.5935   -4.5527   -8.0624 C   0  0  0  0  0  0  0  0  0  0  0  0
  -28.5035   -3.1224   -7.6063 C   0  0  0  0  0  0  0  0  0  0  0  0
  -28.8784   -2.8435   -6.2738 C   0  0  0  0  0  0  0  0  0  0  0  0
  -28.8349   -1.5484   -5.7615 C   0  0  0  0  0  0  0  0  0  0  0  0
  -28.3866   -0.5141   -6.5626 C   0  0  0  0  0  0  0  0  0  0  0  0
  -27.9969   -0.7772   -7.8740 C   0  0  0  0  0  0  0  0  0  0  0  0
  -28.0645   -2.0638   -8.4325 C   0  0  0  0  0  0  0  0  0  0  0  0
 25 26  1  0  0  0
 26 27  1  0  0  0
 26 31  2  0  0  0
 27 28  2  0  0  0
 28 29  1  0  0  0
 29 30  2  0  0  0
 30 31  1  0  0  0
 31 19  1  0  0  0
 19 20  1  0  0  0
 19 23  1  0  0  0
 20 21  2  0  0  0
 20 22  1  0  0  0
 22  1  1  0  0  0
 22 24  1  0  0  0
  1  2  1  0  0  0
  1  6  2  0  0  0
  2  3  2  0  0  0
  3  4  1  0  0  0
  4  7  1  0  0  0
  4  5  2  0  0  0
  7  8  2  0  0  0
  7 16  1  0  0  0
  8  9  1  0  0  0
  9 10  1  0  0  0
 10 11  1  0  0  0
 10 16  2  0  0  0
 11 12  2  0  0  0
 12 13  1  0  0  0
 13 14  2  0  0  0
 14 15  1  0  0  0
 14 16  1  0  0  0
 15 17  1  0  0  0
 15 18  1  0  0  0
  5  6  1  0  0  0
M  END
> <minimizedAffinity>
-9.86664

$$$$
