CHEMBL3966560


 38 42  0  0  0  0  0  0  0  0999 V2000
  -27.8926   -9.4526   -4.1348 N   0  0  0  0  0  0  0  0  0  0  0  0
  -28.2734   -8.0442   -4.0503 C   0  0  0  0  0  0  0  0  0  0  0  0
  -29.2951   -7.7498   -3.1457 C   0  0  0  0  0  0  0  0  0  0  0  0
  -30.1258   -6.6513   -3.3342 C   0  0  0  0  0  0  0  0  0  0  0  0
  -29.8404   -5.7304   -4.3257 C   0  0  0  0  0  0  0  0  0  0  0  0
  -30.8139   -4.8321   -4.5410 N   0  0  0  0  0  0  0  0  0  0  0  0
  -30.5281   -3.8242   -5.3696 C   0  0  0  0  0  0  0  0  0  0  0  0
  -29.2642   -3.6455   -5.9019 C   0  0  0  0  0  0  0  0  0  0  0  0
  -28.2980   -4.6216   -5.7890 N   0  0  0  0  0  0  0  0  0  0  0  0
  -28.6185   -5.7545   -5.0318 C   0  0  0  0  0  0  0  0  0  0  0  0
  -27.8667   -6.9857   -4.9151 C   0  0  0  0  0  0  0  0  0  0  0  0
  -28.9761   -2.3119   -6.4117 C   0  0  0  0  0  0  0  0  0  0  0  0
  -27.9705   -1.9078   -7.3326 C   0  0  0  0  0  0  0  0  0  0  0  0
  -27.7814   -0.5829   -7.3549 N   0  0  0  0  0  0  0  0  0  0  0  0
  -28.6568   -0.1268   -6.4436 N   0  0  0  0  0  0  0  0  0  0  0  0
  -28.9036    1.2905   -6.3131 C   0  0  0  0  0  0  0  0  0  0  0  0
  -29.2861   -1.1300   -5.7563 C   0  0  0  0  0  0  0  0  0  0  0  0
  -24.2176  -10.2219   -4.8889 C   0  0  0  0  0  0  0  0  0  0  0  0
  -23.9248  -11.1635   -3.9385 C   0  0  0  0  0  0  0  0  0  0  0  0
  -24.9403  -11.5576   -3.0667 C   0  0  0  0  0  0  0  0  0  0  0  0
  -26.2569  -11.0409   -3.1644 C   0  0  0  0  0  0  0  0  0  0  0  0
  -26.5949  -10.0311   -4.0735 C   0  0  0  0  0  0  0  0  0  0  0  0
  -25.5297   -9.7210   -4.9534 C   0  0  0  0  0  0  0  0  0  0  0  0
  -22.3929  -10.5609   -6.3793 C   0  0  0  0  0  0  0  0  0  0  0  0
  -23.3358   -9.6765   -5.7852 O   0  0  0  0  0  0  0  0  0  0  0  0
  -24.7119  -12.4660   -2.0603 O   0  0  0  0  0  0  0  0  0  0  0  0
  -23.3569  -12.4520   -1.6070 C   0  0  0  0  0  0  0  0  0  0  0  0
  -29.1942  -10.2261   -4.5096 C   0  0  0  0  0  0  0  0  0  0  0  0
  -29.6743  -10.2596   -5.9643 C   0  0  0  0  0  0  0  0  0  0  0  0
  -30.6191   -9.1853   -6.1383 O   0  0  0  0  0  0  0  0  0  0  0  0
  -30.2348   -8.5324   -6.7492 H   0  0  0  0  0  0  0  0  0  0  0  0
  -28.6473  -10.1954   -7.1262 C   0  0  0  0  0  0  0  0  0  0  0  0
  -29.2197   -9.4595   -8.2966 N   0  0  0  0  0  0  0  0  0  0  0  0
  -29.4900  -10.3025   -9.4943 C   0  0  0  0  0  0  0  0  0  0  0  0
  -28.2200  -10.7581  -10.2318 C   0  0  0  0  0  0  0  0  0  0  0  0
  -27.4163   -9.6378  -10.6237 O   0  0  0  0  0  0  0  0  0  0  0  0
  -27.0991   -8.8054   -9.5012 C   0  0  0  0  0  0  0  0  0  0  0  0
  -28.3648   -8.3444   -8.7577 C   0  0  0  0  0  0  0  0  0  0  0  0
 24 25  1  0  0  0
 25 18  1  0  0  0
 18 19  1  0  0  0
 18 23  2  0  0  0
 19 20  2  0  0  0
 20 26  1  0  0  0
 20 21  1  0  0  0
 26 27  1  0  0  0
 21 22  2  0  0  0
 22  1  1  0  0  0
 22 23  1  0  0  0
  1 28  1  0  0  0
  1  2  1  0  0  0
 28 29  1  0  0  0
 29 30  1  0  0  0
 29 32  1  0  0  0
 30 31  1  0  0  0
 32 33  1  0  0  0
 33 34  1  0  0  0
 33 38  1  0  0  0
 34 35  1  0  0  0
 35 36  1  0  0  0
 36 37  1  0  0  0
 37 38  1  0  0  0
  2  3  1  0  0  0
  2 11  2  0  0  0
  3  4  2  0  0  0
  4  5  1  0  0  0
  5  6  1  0  0  0
  5 10  2  0  0  0
  6  7  2  0  0  0
  7  8  1  0  0  0
  8 12  1  0  0  0
  8  9  2  0  0  0
 12 13  1  0  0  0
 12 17  2  0  0  0
 13 14  2  0  0  0
 14 15  1  0  0  0
 15 16  1  0  0  0
 15 17  1  0  0  0
  9 10  1  0  0  0
 10 11  1  0  0  0
M  END
> <minimizedAffinity>
-7.81870

$$$$
