CHEMBL1822792


 36 40  0  0  0  0  0  0  0  0999 V2000
  -13.3336   -2.1143  -13.9535 C   0  0  0  0  0  0  0  0  0  0  0  0
  -12.5081   -1.6854  -14.9852 C   0  0  0  0  0  0  0  0  0  0  0  0
  -12.7719   -0.4635  -15.6200 C   0  0  0  0  0  0  0  0  0  0  0  0
  -13.8686    0.3450  -15.2485 C   0  0  0  0  0  0  0  0  0  0  0  0
  -14.0027    1.6398  -15.9282 C   0  0  0  0  0  0  0  0  0  0  0  0
  -15.0910    2.4139  -16.0512 C   0  0  0  0  0  0  0  0  0  0  0  0
  -16.4452    2.1882  -15.5609 C   0  0  0  0  0  0  0  0  0  0  0  0
  -17.3783    2.9298  -16.2217 N   0  0  0  0  0  0  0  0  0  0  0  0
  -18.6753    2.8355  -15.8251 C   0  0  0  0  0  0  0  0  0  0  0  0
  -19.1175    2.0282  -14.7873 C   0  0  0  0  0  0  0  0  0  0  0  0
  -18.1408    1.3022  -14.1093 C   0  0  0  0  0  0  0  0  0  0  0  0
  -16.7901    1.3817  -14.4886 C   0  0  0  0  0  0  0  0  0  0  0  0
  -15.8372    0.6339  -13.6635 C   0  0  0  0  0  0  0  0  0  0  0  0
  -16.0733    0.5421  -12.4568 O   0  0  0  0  0  0  0  0  0  0  0  0
  -14.6878   -0.1080  -14.2117 C   0  0  0  0  0  0  0  0  0  0  0  0
  -14.4231   -1.3383  -13.5790 C   0  0  0  0  0  0  0  0  0  0  0  0
  -20.5214    1.9136  -14.4440 C   0  0  0  0  0  0  0  0  0  0  0  0
  -21.5195    2.9017  -14.2747 C   0  0  0  0  0  0  0  0  0  0  0  0
  -22.7225    2.3831  -14.0128 N   0  0  0  0  0  0  0  0  0  0  0  0
  -22.5027    1.0571  -14.0215 N   0  0  0  0  0  0  0  0  0  0  0  0
  -23.5980    0.1351  -13.8424 C   0  0  0  0  0  0  0  0  0  0  0  0
  -21.1985    0.7257  -14.2519 C   0  0  0  0  0  0  0  0  0  0  0  0
  -13.1672   -3.3872  -13.3166 N   0  0  0  0  0  0  0  0  0  0  0  0
  -14.0163   -3.9515  -13.3422 H   0  0  0  0  0  0  0  0  0  0  0  0
  -12.7520   -3.2849  -11.6735 S   0  0  0  0  0  0  0  0  0  0  0  0
  -14.0186   -3.0735  -11.0092 O   0  0  0  0  0  0  0  0  0  0  0  0
  -11.6155   -2.4071  -11.5289 O   0  0  0  0  0  0  0  0  0  0  0  0
  -10.8231   -5.0381  -11.0552 C   0  0  0  0  0  0  0  0  0  0  0  0
  -12.2489   -4.8945  -11.4281 N   0  0  0  0  0  0  0  0  0  0  0  0
  -13.1632   -5.7443  -10.5883 C   0  0  0  0  0  0  0  0  0  0  0  0
  -14.0132   -6.7389  -11.3971 C   0  0  0  0  0  0  0  0  0  0  0  0
  -13.2454   -8.0384  -11.6850 C   0  0  0  0  0  0  0  0  0  0  0  0
  -14.0477   -8.9305  -12.4809 O   0  0  0  0  0  0  0  0  0  0  0  0
  -14.4416   -8.2909  -13.7070 C   0  0  0  0  0  0  0  0  0  0  0  0
  -15.2066   -7.0073  -13.4141 C   0  0  0  0  0  0  0  0  0  0  0  0
  -14.3763   -6.1363  -12.6460 O   0  0  0  0  0  0  0  0  0  0  0  0
 28 29  1  0  0  0
 29 30  1  0  0  0
 29 25  1  0  0  0
 30 31  1  0  0  0
 31 32  1  0  0  0
 31 36  1  0  0  0
 32 33  1  0  0  0
 33 34  1  0  0  0
 34 35  1  0  0  0
 35 36  1  0  0  0
 25 26  2  0  0  0
 25 27  2  0  0  0
 25 23  1  0  0  0
 23  1  1  0  0  0
 23 24  1  0  0  0
  1  2  1  0  0  0
  1 16  2  0  0  0
  2  3  2  0  0  0
  3  4  1  0  0  0
  4  5  1  0  0  0
  4 15  2  0  0  0
  5  6  2  0  0  0
  6  7  1  0  0  0
  7  8  1  0  0  0
  7 12  2  0  0  0
  8  9  2  0  0  0
  9 10  1  0  0  0
 10 17  1  0  0  0
 10 11  2  0  0  0
 17 18  1  0  0  0
 17 22  2  0  0  0
 18 19  2  0  0  0
 19 20  1  0  0  0
 20 21  1  0  0  0
 20 22  1  0  0  0
 11 12  1  0  0  0
 12 13  1  0  0  0
 13 14  2  0  0  0
 13 15  1  0  0  0
 15 16  1  0  0  0
M  END
> <minimizedAffinity>
-9.29351

$$$$
