CHEMBL92516


 20 23  0  0  0  0  0  0  0  0999 V2000
  -30.5726   -6.5396   -6.6025 C   0  0  0  0  0  0  0  0  0  0  0  0
  -29.8345   -5.4478   -7.3088 C   0  0  0  0  0  0  0  0  0  0  0  0
  -29.5232   -4.2857   -6.8166 N   0  0  0  0  0  0  0  0  0  0  0  0
  -29.9138   -4.0551   -5.5206 C   0  0  0  0  0  0  0  0  0  0  0  0
  -29.7853   -2.9641   -4.6821 C   0  0  0  0  0  0  0  0  0  0  0  0
  -30.3870   -3.3647   -3.4743 C   0  0  0  0  0  0  0  0  0  0  0  0
  -30.8754   -4.6050   -3.5194 N   0  0  0  0  0  0  0  0  0  0  0  0
  -30.5942   -5.0283   -4.7755 N   0  0  0  0  0  0  0  0  0  0  0  0
  -30.9149   -6.2597   -5.3353 C   0  0  0  0  0  0  0  0  0  0  0  0
  -30.2922   -9.6724   -8.6055 C   0  0  0  0  0  0  0  0  0  0  0  0
  -29.9337   -8.4792   -8.0016 C   0  0  0  0  0  0  0  0  0  0  0  0
  -30.8969   -7.8061   -7.2497 C   0  0  0  0  0  0  0  0  0  0  0  0
  -32.1758   -8.3506   -7.1348 C   0  0  0  0  0  0  0  0  0  0  0  0
  -32.4355   -9.5498   -7.7761 C   0  0  0  0  0  0  0  0  0  0  0  0
  -31.5208  -10.2217   -8.5069 N   0  0  0  0  0  0  0  0  0  0  0  0
  -29.1696   -1.6600   -4.9494 C   0  0  0  0  0  0  0  0  0  0  0  0
  -27.7760   -1.3946   -4.7674 C   0  0  0  0  0  0  0  0  0  0  0  0
  -27.4436   -0.0948   -5.0826 C   0  0  0  0  0  0  0  0  0  0  0  0
  -28.8000    0.8093   -5.5951 S   0  0  0  0  0  0  0  0  0  0  0  0
  -29.8367   -0.5378   -5.3967 C   0  0  0  0  0  0  0  0  0  0  0  0
 10 11  1  0  0  0
 10 15  2  0  0  0
 11 12  2  0  0  0
 12  1  1  0  0  0
 12 13  1  0  0  0
  1  2  1  0  0  0
  1  9  2  0  0  0
  2  3  2  0  0  0
  3  4  1  0  0  0
  4  5  2  0  0  0
  4  8  1  0  0  0
  5 16  1  0  0  0
  5  6  1  0  0  0
 16 17  1  0  0  0
 16 20  2  0  0  0
 17 18  2  0  0  0
 18 19  1  0  0  0
 19 20  1  0  0  0
  6  7  2  0  0  0
  7  8  1  0  0  0
  8  9  1  0  0  0
 13 14  2  0  0  0
 14 15  1  0  0  0
M  END
> <minimizedAffinity>
-7.54645

$$$$
