CHEMBL1080299


 38 42  0  0  0  0  0  0  0  0999 V2000
  -29.6151   -5.8320   -6.4518 N   0  0  0  0  0  0  0  0  0  0  0  0
  -30.4348   -6.0585   -7.0142 H   0  0  0  0  0  0  0  0  0  0  0  0
  -28.9622   -6.8939   -5.8938 C   0  0  0  0  0  0  0  0  0  0  0  0
  -27.8731   -6.8648   -5.1549 N   0  0  0  0  0  0  0  0  0  0  0  0
  -27.6204   -8.1425   -4.7686 C   0  0  0  0  0  0  0  0  0  0  0  0
  -26.5676   -8.6164   -3.9714 C   0  0  0  0  0  0  0  0  0  0  0  0
  -26.4817   -9.9833   -3.7018 C   0  0  0  0  0  0  0  0  0  0  0  0
  -27.4052  -10.8670   -4.2519 C   0  0  0  0  0  0  0  0  0  0  0  0
  -28.4468  -10.4116   -5.0706 C   0  0  0  0  0  0  0  0  0  0  0  0
  -28.5665   -9.0236   -5.2799 C   0  0  0  0  0  0  0  0  0  0  0  0
  -29.4551   -8.2063   -5.9843 N   0  0  0  0  0  0  0  0  0  0  0  0
  -30.6473   -8.6100   -6.6618 C   0  0  0  0  0  0  0  0  0  0  0  0
  -30.6353   -9.7521   -7.4388 C   0  0  0  0  0  0  0  0  0  0  0  0
  -31.8092  -10.0883   -8.0726 C   0  0  0  0  0  0  0  0  0  0  0  0
  -31.8691  -11.2350   -8.8626 N   0  0  0  0  0  0  0  0  0  0  0  0
  -32.9095   -9.3370   -7.9992 N   0  0  0  0  0  0  0  0  0  0  0  0
  -32.8341   -8.2546   -7.2126 C   0  0  0  0  0  0  0  0  0  0  0  0
  -31.7675   -7.8685   -6.4931 N   0  0  0  0  0  0  0  0  0  0  0  0
  -31.5509  -12.0610   -8.3668 H   0  0  0  0  0  0  0  0  0  0  0  0
  -32.8251  -11.3406   -9.1927 H   0  0  0  0  0  0  0  0  0  0  0  0
  -27.9213   -3.0248   -8.3203 C   0  0  0  0  0  0  0  0  0  0  0  0
  -28.1839   -1.9729   -7.4485 C   0  0  0  0  0  0  0  0  0  0  0  0
  -28.7380   -2.2171   -6.1965 C   0  0  0  0  0  0  0  0  0  0  0  0
  -29.1105   -3.5130   -5.8125 C   0  0  0  0  0  0  0  0  0  0  0  0
  -29.4956   -3.7217   -4.3733 C   0  0  0  0  0  0  0  0  0  0  0  0
  -29.0576   -4.5603   -6.7609 C   0  0  0  0  0  0  0  0  0  0  0  0
  -28.3979   -4.2967   -7.9839 C   0  0  0  0  0  0  0  0  0  0  0  0
  -27.4097   -1.8694  -10.4530 C   0  0  0  0  0  0  0  0  0  0  0  0
  -28.2972   -1.0174  -10.3966 O   0  0  0  0  0  0  0  0  0  0  0  0
  -27.1697   -2.8610   -9.5165 N   0  0  0  0  0  0  0  0  0  0  0  0
  -26.2988   -3.3753   -9.5705 H   0  0  0  0  0  0  0  0  0  0  0  0
  -22.8092   -0.8624  -11.9837 C   0  0  0  0  0  0  0  0  0  0  0  0
  -24.2189   -1.2297  -12.3410 C   0  0  0  0  0  0  0  0  0  0  0  0
  -24.6496   -1.3210  -13.6651 C   0  0  0  0  0  0  0  0  0  0  0  0
  -25.9819   -1.6388  -13.9587 C   0  0  0  0  0  0  0  0  0  0  0  0
  -26.9056   -1.8637  -12.9342 C   0  0  0  0  0  0  0  0  0  0  0  0
  -26.4842   -1.7714  -11.6072 C   0  0  0  0  0  0  0  0  0  0  0  0
  -25.1456   -1.4614  -11.3201 C   0  0  0  0  0  0  0  0  0  0  0  0
 32 33  1  0  0  0
 33 34  1  0  0  0
 33 38  2  0  0  0
 34 35  2  0  0  0
 35 36  1  0  0  0
 36 37  2  0  0  0
 37 28  1  0  0  0
 37 38  1  0  0  0
 28 29  2  0  0  0
 28 30  1  0  0  0
 30 21  1  0  0  0
 30 31  1  0  0  0
 21 22  1  0  0  0
 21 27  2  0  0  0
 22 23  2  0  0  0
 23 24  1  0  0  0
 24 25  1  0  0  0
 24 26  2  0  0  0
 26  1  1  0  0  0
 26 27  1  0  0  0
  1  3  1  0  0  0
  1  2  1  0  0  0
  3  4  2  0  0  0
  3 11  1  0  0  0
  4  5  1  0  0  0
  5  6  1  0  0  0
  5 10  2  0  0  0
  6  7  2  0  0  0
  7  8  1  0  0  0
  8  9  2  0  0  0
  9 10  1  0  0  0
 10 11  1  0  0  0
 11 12  1  0  0  0
 12 13  1  0  0  0
 12 18  2  0  0  0
 13 14  2  0  0  0
 14 15  1  0  0  0
 14 16  1  0  0  0
 15 19  1  0  0  0
 15 20  1  0  0  0
 16 17  2  0  0  0
 17 18  1  0  0  0
M  END
> <minimizedAffinity>
-11.56047

$$$$
