CHEMBL529217


 32 35  0  0  0  0  0  0  0  0999 V2000
  -13.9436    1.0133  -17.2511 C   0  0  0  0  0  0  0  0  0  0  0  0
  -13.1035    2.0044  -17.5635 C   0  0  0  0  0  0  0  0  0  0  0  0
  -12.5903    1.6820  -18.9197 C   0  0  0  0  0  0  0  0  0  0  0  0
  -11.8173    2.3393  -19.5842 O   0  0  0  0  0  0  0  0  0  0  0  0
  -13.1635    0.4894  -19.3013 N   0  0  0  0  0  0  0  0  0  0  0  0
  -14.0442   -0.0402  -18.3078 C   0  0  0  0  0  0  0  0  0  0  0  0
  -12.9649    0.0765  -20.2038 H   0  0  0  0  0  0  0  0  0  0  0  0
  -15.4796    0.2036  -14.1099 N   0  0  0  0  0  0  0  0  0  0  0  0
  -14.4818    0.0468  -15.0444 C   0  0  0  0  0  0  0  0  0  0  0  0
  -14.7694    0.8730  -16.1057 C   0  0  0  0  0  0  0  0  0  0  0  0
  -15.9887    1.5472  -15.8217 C   0  0  0  0  0  0  0  0  0  0  0  0
  -16.7759    2.4883  -16.5200 C   0  0  0  0  0  0  0  0  0  0  0  0
  -17.9210    3.0186  -15.9202 C   0  0  0  0  0  0  0  0  0  0  0  0
  -18.2928    2.6243  -14.6398 C   0  0  0  0  0  0  0  0  0  0  0  0
  -17.5437    1.6785  -13.9315 C   0  0  0  0  0  0  0  0  0  0  0  0
  -16.3951    1.1456  -14.5432 C   0  0  0  0  0  0  0  0  0  0  0  0
  -15.5179   -0.5238  -12.8479 C   0  0  0  0  0  0  0  0  0  0  0  0
  -15.8233   -1.8839  -13.1295 O   0  0  0  0  0  0  0  0  0  0  0  0
  -16.2911   -3.6866  -11.6568 C   0  0  0  0  0  0  0  0  0  0  0  0
  -15.2148   -2.7672  -12.1983 C   0  0  0  0  0  0  0  0  0  0  0  0
  -12.7775    3.2103  -16.8054 C   0  0  0  0  0  0  0  0  0  0  0  0
  -12.9270    4.4710  -17.3843 C   0  0  0  0  0  0  0  0  0  0  0  0
  -12.6851    5.6424  -16.6464 C   0  0  0  0  0  0  0  0  0  0  0  0
  -12.2508    5.5533  -15.3017 C   0  0  0  0  0  0  0  0  0  0  0  0
  -12.0721    4.2731  -14.7269 C   0  0  0  0  0  0  0  0  0  0  0  0
  -12.3378    3.1212  -15.4855 C   0  0  0  0  0  0  0  0  0  0  0  0
  -12.8758    6.8924  -17.1760 O   0  0  0  0  0  0  0  0  0  0  0  0
  -13.5493    7.0307  -18.4166 C   0  0  0  0  0  0  0  0  0  0  0  0
  -11.9867    6.6172  -14.4784 O   0  0  0  0  0  0  0  0  0  0  0  0
  -10.6967    7.1983  -14.4119 C   0  0  0  0  0  0  0  0  0  0  0  0
  -11.6666    3.9555  -13.4515 O   0  0  0  0  0  0  0  0  0  0  0  0
  -12.2109    2.8083  -12.8154 C   0  0  0  0  0  0  0  0  0  0  0  0
 19 20  1  0  0  0
 20 18  1  0  0  0
 18 17  1  0  0  0
 17  8  1  0  0  0
  8  9  1  0  0  0
  8 16  1  0  0  0
  9 10  2  0  0  0
 10  1  1  0  0  0
 10 11  1  0  0  0
  1  2  2  0  0  0
  1  6  1  0  0  0
  2 21  1  0  0  0
  2  3  1  0  0  0
 21 22  1  0  0  0
 21 26  2  0  0  0
 22 23  2  0  0  0
 23 27  1  0  0  0
 23 24  1  0  0  0
 27 28  1  0  0  0
 24 29  1  0  0  0
 24 25  2  0  0  0
 29 30  1  0  0  0
 25 31  1  0  0  0
 25 26  1  0  0  0
 31 32  1  0  0  0
  3  4  2  0  0  0
  3  5  1  0  0  0
  5  6  1  0  0  0
  5  7  1  0  0  0
 11 12  1  0  0  0
 11 16  2  0  0  0
 12 13  2  0  0  0
 13 14  1  0  0  0
 14 15  2  0  0  0
 15 16  1  0  0  0
M  END
> <minimizedAffinity>
-5.87406

$$$$
