CHEMBL231067


 45 49  0  0  0  0  0  0  0  0999 V2000
  -29.6670   -5.5851   -7.8940 N   0  0  0  0  0  0  0  0  0  0  0  0
  -30.2737   -5.5180   -8.7001 H   0  0  0  0  0  0  0  0  0  0  0  0
  -27.3833  -10.6324   -6.1017 C   0  0  0  0  0  0  0  0  0  0  0  0
  -27.2874  -10.8727   -7.4822 C   0  0  0  0  0  0  0  0  0  0  0  0
  -27.7067   -9.9255   -8.4161 C   0  0  0  0  0  0  0  0  0  0  0  0
  -28.2893   -8.7726   -7.8969 C   0  0  0  0  0  0  0  0  0  0  0  0
  -28.7715   -7.6451   -8.4919 N   0  0  0  0  0  0  0  0  0  0  0  0
  -29.2178   -6.7951   -7.5142 C   0  0  0  0  0  0  0  0  0  0  0  0
  -29.0684   -7.3248   -6.3247 N   0  0  0  0  0  0  0  0  0  0  0  0
  -28.4760   -8.5409   -6.5368 C   0  0  0  0  0  0  0  0  0  0  0  0
  -28.0310   -9.4934   -5.6156 C   0  0  0  0  0  0  0  0  0  0  0  0
  -28.7376   -7.4384   -9.4772 H   0  0  0  0  0  0  0  0  0  0  0  0
  -26.8585  -11.4860   -5.1530 O   0  0  0  0  0  0  0  0  0  0  0  0
  -23.2283  -10.9946   -4.8664 C   0  0  0  0  0  0  0  0  0  0  0  0
  -24.4610  -11.1084   -5.4879 C   0  0  0  0  0  0  0  0  0  0  0  0
  -25.5874  -11.2375   -4.6798 C   0  0  0  0  0  0  0  0  0  0  0  0
  -25.4601  -11.1100   -3.3014 C   0  0  0  0  0  0  0  0  0  0  0  0
  -24.1912  -10.9414   -2.7736 C   0  0  0  0  0  0  0  0  0  0  0  0
  -23.0623  -10.9074   -3.5164 N   0  0  0  0  0  0  0  0  0  0  0  0
  -20.7052   -9.9031   -7.4631 C   0  0  0  0  0  0  0  0  0  0  0  0
  -21.8408   -9.9984   -6.5880 N   0  0  0  0  0  0  0  0  0  0  0  0
  -21.9865  -11.0450   -5.7041 C   0  0  0  0  0  0  0  0  0  0  0  0
  -21.1642  -11.9460   -5.5771 O   0  0  0  0  0  0  0  0  0  0  0  0
  -22.5704   -9.2906   -6.5887 H   0  0  0  0  0  0  0  0  0  0  0  0
  -29.2470   -4.3317   -7.4159 C   0  0  0  0  0  0  0  0  0  0  0  0
  -29.4882   -3.8338   -6.1464 C   0  0  0  0  0  0  0  0  0  0  0  0
  -29.0232   -2.5619   -5.7901 C   0  0  0  0  0  0  0  0  0  0  0  0
  -28.2647   -1.7708   -6.6844 C   0  0  0  0  0  0  0  0  0  0  0  0
  -27.9141   -2.3178   -7.9300 C   0  0  0  0  0  0  0  0  0  0  0  0
  -28.4508   -3.5701   -8.2780 C   0  0  0  0  0  0  0  0  0  0  0  0
  -27.8614   -0.3743   -6.2452 C   0  0  0  0  0  0  0  0  0  0  0  0
  -27.0088   -0.4185   -5.1571 F   0  0  0  0  0  0  0  0  0  0  0  0
  -27.0979    0.2377   -7.2075 F   0  0  0  0  0  0  0  0  0  0  0  0
  -29.0531    0.5423   -5.8592 C   0  0  0  0  0  0  0  0  0  0  0  0
  -28.9284    1.1493   -4.6539 F   0  0  0  0  0  0  0  0  0  0  0  0
  -29.2178    1.5474   -6.7650 F   0  0  0  0  0  0  0  0  0  0  0  0
  -30.2290   -0.1381   -5.8378 F   0  0  0  0  0  0  0  0  0  0  0  0
  -27.0676   -1.6198   -8.7804 O   0  0  0  0  0  0  0  0  0  0  0  0
  -27.1774   -2.0332  -10.1605 C   0  0  0  0  0  0  0  0  0  0  0  0
  -26.6678   -1.0629  -11.2446 C   0  0  0  0  0  0  0  0  0  0  0  0
  -25.2039   -0.6760  -11.0424 C   0  0  0  0  0  0  0  0  0  0  0  0
  -24.4748   -1.2043  -12.2701 C   0  0  0  0  0  0  0  0  0  0  0  0
  -25.4762   -2.1133  -12.9615 C   0  0  0  0  0  0  0  0  0  0  0  0
  -26.7417   -1.4581  -12.6556 N   0  0  0  0  0  0  0  0  0  0  0  0
  -27.9050   -2.2338  -13.0450 C   0  0  0  0  0  0  0  0  0  0  0  0
 20 21  1  0  0  0
 21 22  1  0  0  0
 21 24  1  0  0  0
 22 23  2  0  0  0
 22 14  1  0  0  0
 14 15  1  0  0  0
 14 19  2  0  0  0
 15 16  2  0  0  0
 16 13  1  0  0  0
 16 17  1  0  0  0
 13  3  1  0  0  0
  3  4  1  0  0  0
  3 11  2  0  0  0
  4  5  2  0  0  0
  5  6  1  0  0  0
  6  7  1  0  0  0
  6 10  2  0  0  0
  7  8  1  0  0  0
  7 12  1  0  0  0
  8  1  1  0  0  0
  8  9  2  0  0  0
  1 25  1  0  0  0
  1  2  1  0  0  0
 25 26  1  0  0  0
 25 30  2  0  0  0
 26 27  2  0  0  0
 27 28  1  0  0  0
 28 31  1  0  0  0
 28 29  2  0  0  0
 31 32  1  0  0  0
 31 33  1  0  0  0
 31 34  1  0  0  0
 34 35  1  0  0  0
 34 36  1  0  0  0
 34 37  1  0  0  0
 29 38  1  0  0  0
 29 30  1  0  0  0
 38 39  1  0  0  0
 39 40  1  0  0  0
 40 41  1  0  0  0
 40 44  1  0  0  0
 41 42  1  0  0  0
 42 43  1  0  0  0
 43 44  1  0  0  0
 44 45  1  0  0  0
  9 10  1  0  0  0
 10 11  1  0  0  0
 17 18  2  0  0  0
 18 19  1  0  0  0
M  END
> <minimizedAffinity>
-9.90696

$$$$
