CHEMBL219332


 43 49  0  0  0  0  0  0  0  0999 V2000
  -15.1811   -3.9612  -13.7833 N   0  0  0  0  0  0  0  0  0  0  0  0
  -15.0992   -2.5492  -13.7202 C   0  0  0  0  0  0  0  0  0  0  0  0
  -15.9461   -1.5862  -13.1486 C   0  0  0  0  0  0  0  0  0  0  0  0
  -15.6183   -0.2199  -13.2958 C   0  0  0  0  0  0  0  0  0  0  0  0
  -14.4736    0.2052  -13.9776 C   0  0  0  0  0  0  0  0  0  0  0  0
  -13.6536   -0.7635  -14.5517 C   0  0  0  0  0  0  0  0  0  0  0  0
  -13.9747   -2.1375  -14.4492 C   0  0  0  0  0  0  0  0  0  0  0  0
  -13.5346   -3.3308  -14.9894 C   0  0  0  0  0  0  0  0  0  0  0  0
  -12.7414   -3.3891  -16.1449 C   0  0  0  0  0  0  0  0  0  0  0  0
  -12.8502   -4.5819  -16.8881 C   0  0  0  0  0  0  0  0  0  0  0  0
  -13.5450   -5.7238  -16.4480 C   0  0  0  0  0  0  0  0  0  0  0  0
  -13.7250   -5.7401  -15.0212 C   0  0  0  0  0  0  0  0  0  0  0  0
  -14.1064   -4.4751  -14.5083 C   0  0  0  0  0  0  0  0  0  0  0  0
  -12.6495   -6.6744  -14.3171 C   0  0  0  0  0  0  0  0  0  0  0  0
  -11.5075   -7.2132  -15.2802 C   0  0  0  0  0  0  0  0  0  0  0  0
  -12.1939   -7.7672  -16.4783 C   0  0  0  0  0  0  0  0  0  0  0  0
  -12.1956   -9.0300  -16.9031 N   0  0  0  0  0  0  0  0  0  0  0  0
  -13.3053   -9.0741  -17.6836 N   0  0  0  0  0  0  0  0  0  0  0  0
  -13.7505  -10.3384  -18.2178 C   0  0  0  0  0  0  0  0  0  0  0  0
  -14.0265   -7.9039  -17.6810 C   0  0  0  0  0  0  0  0  0  0  0  0
  -13.2208   -6.9948  -17.0444 C   0  0  0  0  0  0  0  0  0  0  0  0
  -11.9866   -4.4437  -18.0400 C   0  0  0  0  0  0  0  0  0  0  0  0
  -11.6994   -5.1813  -18.9752 O   0  0  0  0  0  0  0  0  0  0  0  0
  -11.4086   -3.1889  -17.8878 N   0  0  0  0  0  0  0  0  0  0  0  0
  -11.8665   -2.4053  -16.7650 C   0  0  0  0  0  0  0  0  0  0  0  0
  -10.7034   -2.8892  -18.5441 H   0  0  0  0  0  0  0  0  0  0  0  0
  -14.0819    1.5679  -14.1327 N   0  0  0  0  0  0  0  0  0  0  0  0
  -14.0655    2.2909  -15.3131 C   0  0  0  0  0  0  0  0  0  0  0  0
  -14.3677    1.8213  -16.4049 O   0  0  0  0  0  0  0  0  0  0  0  0
  -13.6797    3.6263  -15.1265 N   0  0  0  0  0  0  0  0  0  0  0  0
  -13.7947    2.0629  -13.3004 H   0  0  0  0  0  0  0  0  0  0  0  0
  -13.0796    3.8175  -14.3346 H   0  0  0  0  0  0  0  0  0  0  0  0
  -13.7071    4.5983  -16.1589 C   0  0  0  0  0  0  0  0  0  0  0  0
  -14.7867    4.7023  -17.0350 C   0  0  0  0  0  0  0  0  0  0  0  0
  -14.7369    5.5348  -18.1542 C   0  0  0  0  0  0  0  0  0  0  0  0
  -13.6143    6.3230  -18.4110 C   0  0  0  0  0  0  0  0  0  0  0  0
  -12.5709    6.3106  -17.4813 C   0  0  0  0  0  0  0  0  0  0  0  0
  -12.6177    5.4593  -16.3528 C   0  0  0  0  0  0  0  0  0  0  0  0
  -13.5835    7.1404  -20.0000 S   0  0  0  0  0  0  0  0  0  0  0  0
  -15.3278    7.4155  -20.3749 C   0  0  0  0  0  0  0  0  0  0  0  0
  -16.3106   -4.7292  -13.2643 C   0  0  0  0  0  0  0  0  0  0  0  0
  -14.9736   -5.3372  -11.1550 C   0  0  0  0  0  0  0  0  0  0  0  0
  -16.3228   -4.9491  -11.7411 C   0  0  0  0  0  0  0  0  0  0  0  0
 42 43  1  0  0  0
 43 41  1  0  0  0
 41  1  1  0  0  0
  1  2  1  0  0  0
  1 13  1  0  0  0
  2  3  1  0  0  0
  2  7  2  0  0  0
  3  4  2  0  0  0
  4  5  1  0  0  0
  5 27  1  0  0  0
  5  6  2  0  0  0
 27 28  1  0  0  0
 27 31  1  0  0  0
 28 29  2  0  0  0
 28 30  1  0  0  0
 30 33  1  0  0  0
 30 32  1  0  0  0
 33 34  1  0  0  0
 33 38  2  0  0  0
 34 35  2  0  0  0
 35 36  1  0  0  0
 36 39  1  0  0  0
 36 37  2  0  0  0
 39 40  1  0  0  0
 37 38  1  0  0  0
  6  7  1  0  0  0
  7  8  1  0  0  0
  8  9  1  0  0  0
  8 13  2  0  0  0
  9 10  2  0  0  0
  9 25  1  0  0  0
 10 11  1  0  0  0
 10 22  1  0  0  0
 11 12  2  0  0  0
 11 21  1  0  0  0
 12 13  1  0  0  0
 12 14  1  0  0  0
 14 15  1  0  0  0
 15 16  1  0  0  0
 16 17  2  0  0  0
 16 21  1  0  0  0
 17 18  1  0  0  0
 18 19  1  0  0  0
 18 20  1  0  0  0
 20 21  2  0  0  0
 22 23  2  0  0  0
 22 24  1  0  0  0
 24 25  1  0  0  0
 24 26  1  0  0  0
M  END
> <minimizedAffinity>
-7.26327

$$$$
