CHEMBL1098561


 35 38  0  0  0  0  0  0  0  0999 V2000
  -30.1828   -5.6977   -6.0125 C   0  0  0  0  0  0  0  0  0  0  0  0
  -29.6174   -6.5793   -6.9800 C   0  0  0  0  0  0  0  0  0  0  0  0
  -28.6781   -6.0059   -7.8746 C   0  0  0  0  0  0  0  0  0  0  0  0
  -27.9888   -6.7196   -8.8357 O   0  0  0  0  0  0  0  0  0  0  0  0
  -28.3407   -4.6372   -7.8605 C   0  0  0  0  0  0  0  0  0  0  0  0
  -27.4462   -4.1614   -8.7909 O   0  0  0  0  0  0  0  0  0  0  0  0
  -28.9129   -3.7828   -6.9151 C   0  0  0  0  0  0  0  0  0  0  0  0
  -29.8214   -4.3415   -6.0229 C   0  0  0  0  0  0  0  0  0  0  0  0
  -30.3087   -3.3743   -5.1890 O   0  0  0  0  0  0  0  0  0  0  0  0
  -29.6890   -2.2064   -5.5160 C   0  0  0  0  0  0  0  0  0  0  0  0
  -29.8920   -0.9851   -4.8727 C   0  0  0  0  0  0  0  0  0  0  0  0
  -29.1701    0.0875   -5.3898 C   0  0  0  0  0  0  0  0  0  0  0  0
  -29.2792    1.3445   -4.8499 O   0  0  0  0  0  0  0  0  0  0  0  0
  -28.3076   -0.0667   -6.4770 C   0  0  0  0  0  0  0  0  0  0  0  0
  -27.6255    1.0187   -6.9576 O   0  0  0  0  0  0  0  0  0  0  0  0
  -28.1174   -1.2983   -7.0928 C   0  0  0  0  0  0  0  0  0  0  0  0
  -28.8284   -2.4013   -6.5907 C   0  0  0  0  0  0  0  0  0  0  0  0
  -28.0204   -7.6661   -8.6122 H   0  0  0  0  0  0  0  0  0  0  0  0
  -27.2257   -4.9391   -9.3417 H   0  0  0  0  0  0  0  0  0  0  0  0
  -29.8869    1.2955   -4.0919 H   0  0  0  0  0  0  0  0  0  0  0  0
  -27.9074    1.7604   -6.3857 H   0  0  0  0  0  0  0  0  0  0  0  0
  -29.9936   -8.0253   -7.0549 C   0  0  0  0  0  0  0  0  0  0  0  0
  -29.2587   -9.0210   -6.3743 C   0  0  0  0  0  0  0  0  0  0  0  0
  -29.5795  -10.3844   -6.4711 C   0  0  0  0  0  0  0  0  0  0  0  0
  -30.6133  -10.7792   -7.3042 C   0  0  0  0  0  0  0  0  0  0  0  0
  -30.9448  -12.0919   -7.4841 O   0  0  0  0  0  0  0  0  0  0  0  0
  -31.3445   -9.8242   -7.9964 C   0  0  0  0  0  0  0  0  0  0  0  0
  -32.3281  -10.2126   -8.8611 O   0  0  0  0  0  0  0  0  0  0  0  0
  -31.0761   -8.4670   -7.8439 C   0  0  0  0  0  0  0  0  0  0  0  0
  -30.3844  -12.6322   -6.9006 H   0  0  0  0  0  0  0  0  0  0  0  0
  -32.3076  -11.1908   -8.8384 H   0  0  0  0  0  0  0  0  0  0  0  0
  -31.2151   -6.1398   -5.1561 O   0  0  0  0  0  0  0  0  0  0  0  0
  -31.9296   -5.4506   -3.0217 C   0  0  0  0  0  0  0  0  0  0  0  0
  -30.8857   -6.1979   -3.8027 C   0  0  0  0  0  0  0  0  0  0  0  0
  -29.9282   -6.7770   -3.3074 O   0  0  0  0  0  0  0  0  0  0  0  0
 33 34  1  0  0  0
 34 35  2  0  0  0
 34 32  1  0  0  0
 32  1  1  0  0  0
  1  2  1  0  0  0
  1  8  2  0  0  0
  2 22  1  0  0  0
  2  3  2  0  0  0
 22 23  1  0  0  0
 22 29  2  0  0  0
 23 24  2  0  0  0
 24 25  1  0  0  0
 25 26  1  0  0  0
 25 27  2  0  0  0
 26 30  1  0  0  0
 27 28  1  0  0  0
 27 29  1  0  0  0
 28 31  1  0  0  0
  3  4  1  0  0  0
  3  5  1  0  0  0
  4 18  1  0  0  0
  5  6  1  0  0  0
  5  7  2  0  0  0
  6 19  1  0  0  0
  7  8  1  0  0  0
  7 17  1  0  0  0
  8  9  1  0  0  0
  9 10  1  0  0  0
 10 11  1  0  0  0
 10 17  2  0  0  0
 11 12  2  0  0  0
 12 13  1  0  0  0
 12 14  1  0  0  0
 13 20  1  0  0  0
 14 15  1  0  0  0
 14 16  2  0  0  0
 15 21  1  0  0  0
 16 17  1  0  0  0
M  END
> <minimizedAffinity>
-10.13413

$$$$
