CHEMBL3929416


 32 35  0  0  0  0  0  0  0  0999 V2000
  -29.2839   -5.3487   -4.5244 C   0  0  0  0  0  0  0  0  0  0  0  0
  -28.8702   -6.3472   -3.6315 C   0  0  0  0  0  0  0  0  0  0  0  0
  -29.0880   -7.6945   -3.9404 C   0  0  0  0  0  0  0  0  0  0  0  0
  -29.7497   -8.0513   -5.1165 C   0  0  0  0  0  0  0  0  0  0  0  0
  -30.2494   -7.0572   -5.9569 C   0  0  0  0  0  0  0  0  0  0  0  0
  -29.9695   -5.7205   -5.6903 C   0  0  0  0  0  0  0  0  0  0  0  0
  -29.1731   -3.0452   -5.3810 N   0  0  0  0  0  0  0  0  0  0  0  0
  -29.1085   -3.8835   -4.2823 C   0  0  0  0  0  0  0  0  0  0  0  0
  -28.9942   -3.5223   -3.1160 O   0  0  0  0  0  0  0  0  0  0  0  0
  -29.5946   -3.4140   -6.2227 H   0  0  0  0  0  0  0  0  0  0  0  0
  -31.0765    1.4695   -6.0079 C   0  0  0  0  0  0  0  0  0  0  0  0
  -29.9066    0.5948   -5.6616 C   0  0  0  0  0  0  0  0  0  0  0  0
  -28.6835    1.1690   -5.3041 C   0  0  0  0  0  0  0  0  0  0  0  0
  -27.5966    0.3557   -5.0008 C   0  0  0  0  0  0  0  0  0  0  0  0
  -27.7245   -1.0316   -5.0416 C   0  0  0  0  0  0  0  0  0  0  0  0
  -26.6035   -1.7390   -4.8557 F   0  0  0  0  0  0  0  0  0  0  0  0
  -28.9504   -1.6403   -5.3546 C   0  0  0  0  0  0  0  0  0  0  0  0
  -30.0298   -0.8088   -5.6890 C   0  0  0  0  0  0  0  0  0  0  0  0
  -30.9971   -7.2990   -7.0829 O   0  0  0  0  0  0  0  0  0  0  0  0
  -31.2136   -8.5946   -7.4949 C   0  0  0  0  0  0  0  0  0  0  0  0
  -32.3555   -9.3428   -7.2062 C   0  0  0  0  0  0  0  0  0  0  0  0
  -32.4156  -10.6603   -7.6185 C   0  0  0  0  0  0  0  0  0  0  0  0
  -31.4736  -11.2894   -8.3422 N   0  0  0  0  0  0  0  0  0  0  0  0
  -30.4091  -10.5296   -8.7119 C   0  0  0  0  0  0  0  0  0  0  0  0
  -29.3305  -10.9746   -9.5274 C   0  0  0  0  0  0  0  0  0  0  0  0
  -28.3936   -9.9887   -9.7690 C   0  0  0  0  0  0  0  0  0  0  0  0
  -28.8085   -8.5356   -8.9716 S   0  0  0  0  0  0  0  0  0  0  0  0
  -30.2524   -9.2026   -8.3186 C   0  0  0  0  0  0  0  0  0  0  0  0
  -27.1951  -10.1119  -10.5779 C   0  0  0  0  0  0  0  0  0  0  0  0
  -26.1996  -10.7424  -10.2645 O   0  0  0  0  0  0  0  0  0  0  0  0
  -27.2749   -9.4461  -11.7605 O   0  0  0  0  0  0  0  0  0  0  0  0
  -28.1358   -8.9994  -11.8716 H   0  0  0  0  0  0  0  0  0  0  0  0
 11 12  1  0  0  0
 12 13  1  0  0  0
 12 18  2  0  0  0
 13 14  2  0  0  0
 14 15  1  0  0  0
 15 16  1  0  0  0
 15 17  2  0  0  0
 17  7  1  0  0  0
 17 18  1  0  0  0
  7  8  1  0  0  0
  7 10  1  0  0  0
  8  9  2  0  0  0
  8  1  1  0  0  0
  1  2  1  0  0  0
  1  6  2  0  0  0
  2  3  2  0  0  0
  3  4  1  0  0  0
  4  5  2  0  0  0
  5 19  1  0  0  0
  5  6  1  0  0  0
 19 20  1  0  0  0
 20 21  1  0  0  0
 20 28  2  0  0  0
 21 22  2  0  0  0
 22 23  1  0  0  0
 23 24  2  0  0  0
 24 25  1  0  0  0
 24 28  1  0  0  0
 25 26  2  0  0  0
 26 29  1  0  0  0
 26 27  1  0  0  0
 29 30  2  0  0  0
 29 31  1  0  0  0
 31 32  1  0  0  0
 27 28  1  0  0  0
M  END
> <minimizedAffinity>
-9.14090

$$$$
