CHEMBL58224


 30 34  0  0  0  0  0  0  0  0999 V2000
  -26.9827   -4.7634   -4.1817 O   0  0  0  0  0  0  0  0  0  0  0  0
  -27.5944   -5.7892   -4.4016 C   0  0  0  0  0  0  0  0  0  0  0  0
  -27.3302   -7.0089   -3.8279 N   0  0  0  0  0  0  0  0  0  0  0  0
  -28.1117   -8.0104   -4.3811 C   0  0  0  0  0  0  0  0  0  0  0  0
  -27.9864   -9.3452   -4.0572 C   0  0  0  0  0  0  0  0  0  0  0  0
  -28.7663  -10.2401   -4.7702 C   0  0  0  0  0  0  0  0  0  0  0  0
  -29.5886   -9.7824   -5.8134 C   0  0  0  0  0  0  0  0  0  0  0  0
  -29.6856   -8.4196   -6.1833 C   0  0  0  0  0  0  0  0  0  0  0  0
  -28.9809   -7.5087   -5.3741 C   0  0  0  0  0  0  0  0  0  0  0  0
  -28.7729   -6.0278   -5.3183 C   0  0  0  0  0  0  0  0  0  0  0  0
  -29.5836   -5.0914   -5.8431 C   0  0  0  0  0  0  0  0  0  0  0  0
  -26.5823   -7.1432   -3.1633 H   0  0  0  0  0  0  0  0  0  0  0  0
  -29.4548   -3.6698   -5.8596 C   0  0  0  0  0  0  0  0  0  0  0  0
  -30.0152   -2.8334   -4.9160 N   0  0  0  0  0  0  0  0  0  0  0  0
  -29.6593   -1.5263   -5.1409 C   0  0  0  0  0  0  0  0  0  0  0  0
  -28.8676   -1.4949   -6.2638 C   0  0  0  0  0  0  0  0  0  0  0  0
  -28.7314   -2.8398   -6.7014 C   0  0  0  0  0  0  0  0  0  0  0  0
  -27.8685   -3.1321   -7.8701 C   0  0  0  0  0  0  0  0  0  0  0  0
  -27.8659   -1.8975   -8.7786 C   0  0  0  0  0  0  0  0  0  0  0  0
  -27.5573   -0.6652   -8.0785 O   0  0  0  0  0  0  0  0  0  0  0  0
  -28.2206   -0.3595   -6.9099 C   0  0  0  0  0  0  0  0  0  0  0  0
  -28.2184    0.7701   -6.4441 O   0  0  0  0  0  0  0  0  0  0  0  0
  -30.6185   -3.1306   -4.1518 H   0  0  0  0  0  0  0  0  0  0  0  0
  -30.4228   -8.0450   -7.4713 C   0  0  0  0  0  0  0  0  0  0  0  0
  -31.9460   -7.8975   -7.3271 C   0  0  0  0  0  0  0  0  0  0  0  0
  -32.6983   -9.2261   -7.3966 C   0  0  0  0  0  0  0  0  0  0  0  0
  -32.4069   -9.9736   -8.6173 N   0  0  0  0  0  0  0  0  0  0  0  0
  -30.9798  -10.2065   -8.8206 C   0  0  0  0  0  0  0  0  0  0  0  0
  -30.1080   -8.9539   -8.6844 C   0  0  0  0  0  0  0  0  0  0  0  0
  -32.7912   -9.4792   -9.4218 H   0  0  0  0  0  0  0  0  0  0  0  0
  1  2  2  0  0  0
  2  3  1  0  0  0
  2 10  1  0  0  0
  3  4  1  0  0  0
  3 12  1  0  0  0
  4  5  1  0  0  0
  4  9  2  0  0  0
  5  6  2  0  0  0
  6  7  1  0  0  0
  7  8  2  0  0  0
  8 24  1  0  0  0
  8  9  1  0  0  0
 24 25  1  0  0  0
 24 29  1  0  0  0
 25 26  1  0  0  0
 26 27  1  0  0  0
 27 28  1  0  0  0
 27 30  1  0  0  0
 28 29  1  0  0  0
  9 10  1  0  0  0
 10 11  2  0  0  0
 11 13  1  0  0  0
 13 14  1  0  0  0
 13 17  2  0  0  0
 14 15  1  0  0  0
 14 23  1  0  0  0
 15 16  2  0  0  0
 16 17  1  0  0  0
 16 21  1  0  0  0
 17 18  1  0  0  0
 18 19  1  0  0  0
 19 20  1  0  0  0
 20 21  1  0  0  0
 21 22  2  0  0  0
M  END
> <minimizedAffinity>
-8.82460

$$$$
