CHEMBL599027


 26 29  0  0  0  0  0  0  0  0999 V2000
  -17.4654   -5.7124  -11.6198 O   0  0  0  0  0  0  0  0  0  0  0  0
  -16.4473   -5.3480  -12.2023 C   0  0  0  0  0  0  0  0  0  0  0  0
  -15.4002   -4.5035  -11.5087 C   0  0  0  0  0  0  0  0  0  0  0  0
  -15.2452   -3.1952  -12.1979 C   0  0  0  0  0  0  0  0  0  0  0  0
  -15.6373   -2.0043  -11.6307 C   0  0  0  0  0  0  0  0  0  0  0  0
  -15.5648   -0.8203  -12.2609 N   0  0  0  0  0  0  0  0  0  0  0  0
  -15.0475   -0.8262  -13.4954 C   0  0  0  0  0  0  0  0  0  0  0  0
  -14.6153   -1.9374  -14.1163 N   0  0  0  0  0  0  0  0  0  0  0  0
  -14.7405   -3.1200  -13.4787 C   0  0  0  0  0  0  0  0  0  0  0  0
  -14.3118   -4.3162  -14.2341 C   0  0  0  0  0  0  0  0  0  0  0  0
  -13.1347   -4.2549  -15.0095 C   0  0  0  0  0  0  0  0  0  0  0  0
  -12.6957   -5.3450  -15.7649 C   0  0  0  0  0  0  0  0  0  0  0  0
  -13.4563   -6.5061  -15.8121 C   0  0  0  0  0  0  0  0  0  0  0  0
  -14.6428   -6.5843  -15.0875 C   0  0  0  0  0  0  0  0  0  0  0  0
  -15.0460   -5.5255  -14.2574 C   0  0  0  0  0  0  0  0  0  0  0  0
  -16.1912   -5.7811  -13.4742 N   0  0  0  0  0  0  0  0  0  0  0  0
  -16.8281   -6.5065  -13.7789 H   0  0  0  0  0  0  0  0  0  0  0  0
  -14.9962    0.4004  -14.1501 N   0  0  0  0  0  0  0  0  0  0  0  0
  -14.0961    0.5236  -14.5944 H   0  0  0  0  0  0  0  0  0  0  0  0
  -16.0486    1.1227  -14.7407 C   0  0  0  0  0  0  0  0  0  0  0  0
  -17.3749    0.6718  -14.6476 C   0  0  0  0  0  0  0  0  0  0  0  0
  -18.4269    1.3838  -15.2232 C   0  0  0  0  0  0  0  0  0  0  0  0
  -18.1757    2.5755  -15.8938 C   0  0  0  0  0  0  0  0  0  0  0  0
  -16.8684    3.0488  -15.9963 C   0  0  0  0  0  0  0  0  0  0  0  0
  -15.8124    2.3246  -15.4303 C   0  0  0  0  0  0  0  0  0  0  0  0
  -14.0577    3.0382  -15.6012 Br  0  0  0  0  0  0  0  0  0  0  0  0
  1  2  2  0  0  0
  2  3  1  0  0  0
  2 16  1  0  0  0
  3  4  1  0  0  0
  4  5  1  0  0  0
  4  9  2  0  0  0
  5  6  2  0  0  0
  6  7  1  0  0  0
  7 18  1  0  0  0
  7  8  2  0  0  0
 18 20  1  0  0  0
 18 19  1  0  0  0
 20 21  1  0  0  0
 20 25  2  0  0  0
 21 22  2  0  0  0
 22 23  1  0  0  0
 23 24  2  0  0  0
 24 25  1  0  0  0
 25 26  1  0  0  0
  8  9  1  0  0  0
  9 10  1  0  0  0
 10 11  1  0  0  0
 10 15  2  0  0  0
 11 12  2  0  0  0
 12 13  1  0  0  0
 13 14  2  0  0  0
 14 15  1  0  0  0
 15 16  1  0  0  0
 16 17  1  0  0  0
M  END
> <minimizedAffinity>
-7.64018

$$$$
