CHEMBL4475515


 24 26  0  0  0  0  0  0  0  0999 V2000
  -28.1928   -2.5622   -7.3467 N   0  0  0  0  0  0  0  0  0  0  0  0
  -28.7636   -3.6424   -7.9036 N   0  0  0  0  0  0  0  0  0  0  0  0
  -28.7980   -4.5761   -6.9365 C   0  0  0  0  0  0  0  0  0  0  0  0
  -28.3253   -4.0202   -5.6950 C   0  0  0  0  0  0  0  0  0  0  0  0
  -27.9405   -2.7112   -6.0067 C   0  0  0  0  0  0  0  0  0  0  0  0
  -29.2893   -5.9177   -7.3076 C   0  0  0  0  0  0  0  0  0  0  0  0
  -28.5464   -6.8151   -8.0809 C   0  0  0  0  0  0  0  0  0  0  0  0
  -29.0038   -8.1124   -8.3551 C   0  0  0  0  0  0  0  0  0  0  0  0
  -30.3043   -8.4511   -7.9615 C   0  0  0  0  0  0  0  0  0  0  0  0
  -31.1814   -9.9108   -8.2312 S   0  0  0  0  0  0  0  0  0  0  0  0
  -32.5663   -9.1953   -7.5234 C   0  0  0  0  0  0  0  0  0  0  0  0
  -32.4068   -7.9953   -7.0156 N   0  0  0  0  0  0  0  0  0  0  0  0
  -31.1171   -7.5546   -7.2679 C   0  0  0  0  0  0  0  0  0  0  0  0
  -30.5841   -6.2982   -6.9138 C   0  0  0  0  0  0  0  0  0  0  0  0
  -28.1867   -4.5850   -4.3589 C   0  0  0  0  0  0  0  0  0  0  0  0
  -27.6348   -5.8279   -4.2488 N   0  0  0  0  0  0  0  0  0  0  0  0
  -28.5838   -4.0232   -3.3387 O   0  0  0  0  0  0  0  0  0  0  0  0
  -27.4531   -6.4231   -5.0436 H   0  0  0  0  0  0  0  0  0  0  0  0
  -27.5557   -6.2169   -3.3196 H   0  0  0  0  0  0  0  0  0  0  0  0
  -27.3262   -1.7874   -5.2020 N   0  0  0  0  0  0  0  0  0  0  0  0
  -27.9813   -0.6044   -4.6679 C   0  0  0  0  0  0  0  0  0  0  0  0
  -26.7176   -2.2066   -4.4858 H   0  0  0  0  0  0  0  0  0  0  0  0
  -27.3164   -2.0146   -9.5964 C   0  0  0  0  0  0  0  0  0  0  0  0
  -27.8143   -1.4961   -8.2554 C   0  0  0  0  0  0  0  0  0  0  0  0
 23 24  1  0  0  0
 24  1  1  0  0  0
  1  2  1  0  0  0
  1  5  1  0  0  0
  2  3  2  0  0  0
  3  6  1  0  0  0
  3  4  1  0  0  0
  6  7  1  0  0  0
  6 14  2  0  0  0
  7  8  2  0  0  0
  8  9  1  0  0  0
  9 10  1  0  0  0
  9 13  2  0  0  0
 10 11  1  0  0  0
 11 12  2  0  0  0
 12 13  1  0  0  0
 13 14  1  0  0  0
  4 15  1  0  0  0
  4  5  2  0  0  0
 15 16  1  0  0  0
 15 17  2  0  0  0
 16 18  1  0  0  0
 16 19  1  0  0  0
  5 20  1  0  0  0
 20 21  1  0  0  0
 20 22  1  0  0  0
M  END
> <minimizedAffinity>
-7.37446

$$$$
