CHEMBL1965683


 15 17  0  0  0  0  0  0  0  0999 V2000
  -29.7007   -2.9963   -4.4839 C   0  0  0  0  0  0  0  0  0  0  0  0
  -28.7203   -3.7110   -3.4717 C   0  0  0  0  0  0  0  0  0  0  0  0
  -27.9988   -4.8898   -4.2249 C   0  0  0  0  0  0  0  0  0  0  0  0
  -28.6613   -4.8343   -5.5309 C   0  0  0  0  0  0  0  0  0  0  0  0
  -28.5799   -5.5124   -6.6936 N   0  0  0  0  0  0  0  0  0  0  0  0
  -29.4193   -4.9982   -7.6264 N   0  0  0  0  0  0  0  0  0  0  0  0
  -30.0141   -3.9616   -7.0086 C   0  0  0  0  0  0  0  0  0  0  0  0
  -29.5655   -3.8289   -5.6972 C   0  0  0  0  0  0  0  0  0  0  0  0
  -27.9971   -6.3041   -6.9464 H   0  0  0  0  0  0  0  0  0  0  0  0
  -28.4996    1.0387   -5.4859 C   0  0  0  0  0  0  0  0  0  0  0  0
  -29.8232    0.6526   -5.6774 C   0  0  0  0  0  0  0  0  0  0  0  0
  -30.2225   -0.6508   -5.3765 C   0  0  0  0  0  0  0  0  0  0  0  0
  -29.3070   -1.5844   -4.8589 C   0  0  0  0  0  0  0  0  0  0  0  0
  -27.9724   -1.1821   -4.6912 C   0  0  0  0  0  0  0  0  0  0  0  0
  -27.5716    0.1202   -5.0015 C   0  0  0  0  0  0  0  0  0  0  0  0
 10 11  1  0  0  0
 10 15  2  0  0  0
 11 12  2  0  0  0
 12 13  1  0  0  0
 13  1  1  0  0  0
 13 14  2  0  0  0
  1  2  1  0  0  0
  1  8  1  0  0  0
  2  3  1  0  0  0
  3  4  1  0  0  0
  4  5  1  0  0  0
  4  8  2  0  0  0
  5  6  1  0  0  0
  5  9  1  0  0  0
  6  7  2  0  0  0
  7  8  1  0  0  0
 14 15  1  0  0  0
M  END
> <minimizedAffinity>
-6.71037

$$$$
