CHEMBL3983977


 45 49  0  0  0  0  0  0  0  0999 V2000
  -12.3023   -4.6867  -17.5616 N   0  0  0  0  0  0  0  0  0  0  0  0
  -12.9456   -3.6465  -16.9072 C   0  0  0  0  0  0  0  0  0  0  0  0
  -13.7979   -3.7802  -16.0352 O   0  0  0  0  0  0  0  0  0  0  0  0
  -12.5726   -2.3867  -17.3664 N   0  0  0  0  0  0  0  0  0  0  0  0
  -11.6588   -4.4515  -18.3029 H   0  0  0  0  0  0  0  0  0  0  0  0
  -12.3666   -2.3261  -18.3523 H   0  0  0  0  0  0  0  0  0  0  0  0
  -12.7650   -7.9745  -15.7607 C   0  0  0  0  0  0  0  0  0  0  0  0
  -12.4436   -6.6364  -16.0322 C   0  0  0  0  0  0  0  0  0  0  0  0
  -12.5315   -6.0719  -17.3135 C   0  0  0  0  0  0  0  0  0  0  0  0
  -12.8542   -6.9180  -18.3797 C   0  0  0  0  0  0  0  0  0  0  0  0
  -13.1077   -8.2871  -18.1508 C   0  0  0  0  0  0  0  0  0  0  0  0
  -13.0863   -8.7898  -16.8373 C   0  0  0  0  0  0  0  0  0  0  0  0
  -13.3627   -9.2622  -19.2721 C   0  0  0  0  0  0  0  0  0  0  0  0
  -12.2608   -9.9691  -19.6456 F   0  0  0  0  0  0  0  0  0  0  0  0
  -14.3055  -10.1893  -18.9420 F   0  0  0  0  0  0  0  0  0  0  0  0
  -13.8204   -8.6550  -20.4021 F   0  0  0  0  0  0  0  0  0  0  0  0
  -12.6512   -8.4387  -14.4531 N   0  0  0  0  0  0  0  0  0  0  0  0
  -11.9298   -7.9429  -13.9341 H   0  0  0  0  0  0  0  0  0  0  0  0
  -13.4781   -5.6454  -10.7123 C   0  0  0  0  0  0  0  0  0  0  0  0
  -13.9590   -6.8322  -11.4261 N   0  0  0  0  0  0  0  0  0  0  0  0
  -14.3741   -6.4627  -12.7868 C   0  0  0  0  0  0  0  0  0  0  0  0
  -14.8712   -7.6779  -13.5662 C   0  0  0  0  0  0  0  0  0  0  0  0
  -13.8221   -8.7914  -13.6327 C   0  0  0  0  0  0  0  0  0  0  0  0
  -13.3547   -9.1191  -12.2092 C   0  0  0  0  0  0  0  0  0  0  0  0
  -12.9196   -7.8701  -11.4370 C   0  0  0  0  0  0  0  0  0  0  0  0
  -13.1467   -1.2356  -16.7576 C   0  0  0  0  0  0  0  0  0  0  0  0
  -13.7728   -0.2616  -17.5317 C   0  0  0  0  0  0  0  0  0  0  0  0
  -14.3861    0.8291  -16.9020 C   0  0  0  0  0  0  0  0  0  0  0  0
  -14.3073    0.9420  -15.5181 C   0  0  0  0  0  0  0  0  0  0  0  0
  -13.7071    0.0126  -14.7440 N   0  0  0  0  0  0  0  0  0  0  0  0
  -13.1457   -1.0468  -15.3734 C   0  0  0  0  0  0  0  0  0  0  0  0
  -14.8852    2.0611  -14.9157 O   0  0  0  0  0  0  0  0  0  0  0  0
  -16.2001    2.3615  -15.2411 C   0  0  0  0  0  0  0  0  0  0  0  0
  -16.5496    3.5262  -15.9191 C   0  0  0  0  0  0  0  0  0  0  0  0
  -17.8821    3.7492  -16.1696 C   0  0  0  0  0  0  0  0  0  0  0  0
  -18.8515    2.8756  -15.8513 N   0  0  0  0  0  0  0  0  0  0  0  0
  -18.5220    1.7214  -15.2484 C   0  0  0  0  0  0  0  0  0  0  0  0
  -17.1968    1.4228  -14.9265 C   0  0  0  0  0  0  0  0  0  0  0  0
  -19.5524    0.8027  -14.9432 N   0  0  0  0  0  0  0  0  0  0  0  0
  -20.8106    1.1861  -14.5149 C   0  0  0  0  0  0  0  0  0  0  0  0
  -21.2194    2.3339  -14.3467 O   0  0  0  0  0  0  0  0  0  0  0  0
  -19.3561   -0.1776  -15.0565 H   0  0  0  0  0  0  0  0  0  0  0  0
  -21.8077    0.1098  -14.2313 C   0  0  0  0  0  0  0  0  0  0  0  0
  -23.2822    0.2610  -13.9913 C   0  0  0  0  0  0  0  0  0  0  0  0
  -22.3680   -0.0368  -12.8374 C   0  0  0  0  0  0  0  0  0  0  0  0
 19 20  1  0  0  0
 20 21  1  0  0  0
 20 25  1  0  0  0
 21 22  1  0  0  0
 22 23  1  0  0  0
 23 17  1  0  0  0
 23 24  1  0  0  0
 17  7  1  0  0  0
 17 18  1  0  0  0
  7  8  1  0  0  0
  7 12  2  0  0  0
  8  9  2  0  0  0
  9  1  1  0  0  0
  9 10  1  0  0  0
  1  2  1  0  0  0
  1  5  1  0  0  0
  2  3  2  0  0  0
  2  4  1  0  0  0
  4 26  1  0  0  0
  4  6  1  0  0  0
 26 27  1  0  0  0
 26 31  2  0  0  0
 27 28  2  0  0  0
 28 29  1  0  0  0
 29 32  1  0  0  0
 29 30  2  0  0  0
 32 33  1  0  0  0
 33 34  1  0  0  0
 33 38  2  0  0  0
 34 35  2  0  0  0
 35 36  1  0  0  0
 36 37  2  0  0  0
 37 39  1  0  0  0
 37 38  1  0  0  0
 39 40  1  0  0  0
 39 42  1  0  0  0
 40 41  2  0  0  0
 40 43  1  0  0  0
 43 44  1  0  0  0
 43 45  1  0  0  0
 44 45  1  0  0  0
 30 31  1  0  0  0
 10 11  2  0  0  0
 11 13  1  0  0  0
 11 12  1  0  0  0
 13 14  1  0  0  0
 13 15  1  0  0  0
 13 16  1  0  0  0
 24 25  1  0  0  0
M  END
> <minimizedAffinity>
-8.18196

$$$$
