CHEMBL3741876


 41 45  0  0  0  0  0  0  0  0999 V2000
  -13.5118    2.6749  -15.3698 C   0  0  0  0  0  0  0  0  0  0  0  0
  -14.2030    1.4118  -15.1150 N   0  0  0  0  0  0  0  0  0  0  0  0
  -15.6090    1.3878  -15.1414 C   0  0  0  0  0  0  0  0  0  0  0  0
  -16.3497    0.2263  -14.9275 C   0  0  0  0  0  0  0  0  0  0  0  0
  -17.7522    0.2544  -14.8934 C   0  0  0  0  0  0  0  0  0  0  0  0
  -18.4868    1.4614  -15.0193 C   0  0  0  0  0  0  0  0  0  0  0  0
  -19.9031    1.5984  -14.9216 C   0  0  0  0  0  0  0  0  0  0  0  0
  -20.5129    2.8472  -15.1566 C   0  0  0  0  0  0  0  0  0  0  0  0
  -19.7536    3.9685  -15.4608 C   0  0  0  0  0  0  0  0  0  0  0  0
  -18.3711    3.8597  -15.5184 C   0  0  0  0  0  0  0  0  0  0  0  0
  -17.7341    2.6287  -15.2976 C   0  0  0  0  0  0  0  0  0  0  0  0
  -16.3330    2.5717  -15.3647 C   0  0  0  0  0  0  0  0  0  0  0  0
  -20.8638    0.4923  -14.6179 C   0  0  0  0  0  0  0  0  0  0  0  0
  -20.7828   -0.5195  -15.3082 O   0  0  0  0  0  0  0  0  0  0  0  0
  -21.7937    0.7196  -13.6169 N   0  0  0  0  0  0  0  0  0  0  0  0
  -21.7760    1.6187  -13.1549 H   0  0  0  0  0  0  0  0  0  0  0  0
  -22.7967   -0.1778  -13.1780 C   0  0  0  0  0  0  0  0  0  0  0  0
  -22.7772   -0.8161  -11.9351 C   0  0  0  0  0  0  0  0  0  0  0  0
  -23.7853   -1.7159  -11.5754 C   0  0  0  0  0  0  0  0  0  0  0  0
  -24.8353   -1.9765  -12.4497 C   0  0  0  0  0  0  0  0  0  0  0  0
  -24.8768   -1.3363  -13.6856 C   0  0  0  0  0  0  0  0  0  0  0  0
  -23.8594   -0.4468  -14.0510 C   0  0  0  0  0  0  0  0  0  0  0  0
  -13.3338    0.3053  -14.9144 C   0  0  0  0  0  0  0  0  0  0  0  0
  -12.4112   -0.0145  -15.8994 C   0  0  0  0  0  0  0  0  0  0  0  0
  -11.5857   -1.0791  -15.6689 C   0  0  0  0  0  0  0  0  0  0  0  0
  -11.6366   -1.8003  -14.5485 N   0  0  0  0  0  0  0  0  0  0  0  0
  -12.5472   -1.4460  -13.6257 C   0  0  0  0  0  0  0  0  0  0  0  0
  -13.3886   -0.4099  -13.7670 N   0  0  0  0  0  0  0  0  0  0  0  0
  -12.6301   -2.1999  -12.4512 N   0  0  0  0  0  0  0  0  0  0  0  0
  -11.7055   -2.4836  -12.1554 H   0  0  0  0  0  0  0  0  0  0  0  0
  -13.6701   -3.0775  -12.1030 C   0  0  0  0  0  0  0  0  0  0  0  0
  -14.9693   -2.5935  -11.9502 C   0  0  0  0  0  0  0  0  0  0  0  0
  -16.0140   -3.4636  -11.6277 C   0  0  0  0  0  0  0  0  0  0  0  0
  -15.7673   -4.8246  -11.4284 C   0  0  0  0  0  0  0  0  0  0  0  0
  -14.4729   -5.3360  -11.5633 C   0  0  0  0  0  0  0  0  0  0  0  0
  -13.4372   -4.4450  -11.8905 C   0  0  0  0  0  0  0  0  0  0  0  0
  -14.1337   -6.7760  -11.2797 C   0  0  0  0  0  0  0  0  0  0  0  0
  -13.9657   -7.7703  -12.7550 S   0  0  0  0  0  0  0  0  0  0  0  0
  -15.2738   -7.2360  -13.8342 C   0  0  0  0  0  0  0  0  0  0  0  0
  -12.7178   -7.3720  -13.3863 O   0  0  0  0  0  0  0  0  0  0  0  0
  -14.1886   -9.1668  -12.4306 O   0  0  0  0  0  0  0  0  0  0  0  0
  1  2  1  0  0  0
  2  3  1  0  0  0
  2 23  1  0  0  0
  3  4  1  0  0  0
  3 12  2  0  0  0
  4  5  2  0  0  0
  5  6  1  0  0  0
  6  7  1  0  0  0
  6 11  2  0  0  0
  7 13  1  0  0  0
  7  8  2  0  0  0
 13 14  2  0  0  0
 13 15  1  0  0  0
 15 17  1  0  0  0
 15 16  1  0  0  0
 17 18  1  0  0  0
 17 22  2  0  0  0
 18 19  2  0  0  0
 19 20  1  0  0  0
 20 21  2  0  0  0
 21 22  1  0  0  0
  8  9  1  0  0  0
  9 10  2  0  0  0
 10 11  1  0  0  0
 11 12  1  0  0  0
 23 24  1  0  0  0
 23 28  2  0  0  0
 24 25  2  0  0  0
 25 26  1  0  0  0
 26 27  2  0  0  0
 27 29  1  0  0  0
 27 28  1  0  0  0
 29 31  1  0  0  0
 29 30  1  0  0  0
 31 32  1  0  0  0
 31 36  2  0  0  0
 32 33  2  0  0  0
 33 34  1  0  0  0
 34 35  2  0  0  0
 35 37  1  0  0  0
 35 36  1  0  0  0
 37 38  1  0  0  0
 38 39  1  0  0  0
 38 40  2  0  0  0
 38 41  2  0  0  0
M  END
> <minimizedAffinity>
-9.67816

$$$$
