CHEMBL1081436


 41 46  0  0  0  0  0  0  0  0999 V2000
  -25.4245   -0.4902  -15.5090 C   0  0  0  0  0  0  0  0  0  0  0  0
  -25.8647   -0.6639  -14.0798 C   0  0  0  0  0  0  0  0  0  0  0  0
  -26.6838   -1.7681  -13.7743 C   0  0  0  0  0  0  0  0  0  0  0  0
  -27.0200   -2.0662  -12.4559 C   0  0  0  0  0  0  0  0  0  0  0  0
  -26.4980   -1.2967  -11.4206 C   0  0  0  0  0  0  0  0  0  0  0  0
  -25.6910   -0.2003  -11.7227 C   0  0  0  0  0  0  0  0  0  0  0  0
  -25.4424    0.2015  -13.0455 C   0  0  0  0  0  0  0  0  0  0  0  0
  -26.7860   -1.6856  -10.0136 C   0  0  0  0  0  0  0  0  0  0  0  0
  -25.8647   -1.6159   -9.2109 O   0  0  0  0  0  0  0  0  0  0  0  0
  -28.0711   -2.1446   -9.7630 N   0  0  0  0  0  0  0  0  0  0  0  0
  -28.6478   -2.3262  -10.5722 H   0  0  0  0  0  0  0  0  0  0  0  0
  -28.5882   -2.5468   -8.5022 C   0  0  0  0  0  0  0  0  0  0  0  0
  -29.0657   -3.8520   -8.3102 C   0  0  0  0  0  0  0  0  0  0  0  0
  -29.6188   -4.2504   -7.0955 C   0  0  0  0  0  0  0  0  0  0  0  0
  -29.7011   -3.3472   -6.0453 C   0  0  0  0  0  0  0  0  0  0  0  0
  -29.2064   -2.0419   -6.1949 C   0  0  0  0  0  0  0  0  0  0  0  0
  -29.2878   -1.1302   -5.1379 C   0  0  0  0  0  0  0  0  0  0  0  0
  -28.8369    0.1420   -5.1811 N   0  0  0  0  0  0  0  0  0  0  0  0
  -28.2722    0.5291   -6.3382 C   0  0  0  0  0  0  0  0  0  0  0  0
  -28.1480   -0.2898   -7.4533 C   0  0  0  0  0  0  0  0  0  0  0  0
  -28.6250   -1.6234   -7.4102 C   0  0  0  0  0  0  0  0  0  0  0  0
  -24.7973    1.4312  -13.3290 N   0  0  0  0  0  0  0  0  0  0  0  0
  -25.1771    2.2247  -12.8142 H   0  0  0  0  0  0  0  0  0  0  0  0
  -23.5223    1.5692  -13.8054 C   0  0  0  0  0  0  0  0  0  0  0  0
  -23.0108    2.6026  -14.4433 N   0  0  0  0  0  0  0  0  0  0  0  0
  -21.6880    2.3461  -14.6160 C   0  0  0  0  0  0  0  0  0  0  0  0
  -20.7138    3.1673  -15.2038 C   0  0  0  0  0  0  0  0  0  0  0  0
  -19.4040    2.6960  -15.3066 C   0  0  0  0  0  0  0  0  0  0  0  0
  -19.0812    1.4154  -14.8663 C   0  0  0  0  0  0  0  0  0  0  0  0
  -20.0473    0.5786  -14.2917 C   0  0  0  0  0  0  0  0  0  0  0  0
  -21.3494    1.0878  -14.1294 C   0  0  0  0  0  0  0  0  0  0  0  0
  -22.5393    0.5936  -13.5903 N   0  0  0  0  0  0  0  0  0  0  0  0
  -22.7450   -0.6521  -12.9261 C   0  0  0  0  0  0  0  0  0  0  0  0
  -22.9381   -1.7969  -13.6717 C   0  0  0  0  0  0  0  0  0  0  0  0
  -23.0902   -2.9723  -12.9726 C   0  0  0  0  0  0  0  0  0  0  0  0
  -23.1448   -4.1833  -13.6547 N   0  0  0  0  0  0  0  0  0  0  0  0
  -23.0930   -3.0250  -11.6380 N   0  0  0  0  0  0  0  0  0  0  0  0
  -22.8943   -1.8660  -10.9979 C   0  0  0  0  0  0  0  0  0  0  0  0
  -22.6793   -0.6733  -11.5729 N   0  0  0  0  0  0  0  0  0  0  0  0
  -23.8228   -4.1974  -14.4068 H   0  0  0  0  0  0  0  0  0  0  0  0
  -23.2939   -4.9295  -12.9797 H   0  0  0  0  0  0  0  0  0  0  0  0
  1  2  1  0  0  0
  2  3  1  0  0  0
  2  7  2  0  0  0
  3  4  2  0  0  0
  4  5  1  0  0  0
  5  8  1  0  0  0
  5  6  2  0  0  0
  8  9  2  0  0  0
  8 10  1  0  0  0
 10 12  1  0  0  0
 10 11  1  0  0  0
 12 13  1  0  0  0
 12 21  2  0  0  0
 13 14  2  0  0  0
 14 15  1  0  0  0
 15 16  2  0  0  0
 16 17  1  0  0  0
 16 21  1  0  0  0
 17 18  2  0  0  0
 18 19  1  0  0  0
 19 20  2  0  0  0
 20 21  1  0  0  0
  6  7  1  0  0  0
  7 22  1  0  0  0
 22 24  1  0  0  0
 22 23  1  0  0  0
 24 25  2  0  0  0
 24 32  1  0  0  0
 25 26  1  0  0  0
 26 27  1  0  0  0
 26 31  2  0  0  0
 27 28  2  0  0  0
 28 29  1  0  0  0
 29 30  2  0  0  0
 30 31  1  0  0  0
 31 32  1  0  0  0
 32 33  1  0  0  0
 33 34  1  0  0  0
 33 39  2  0  0  0
 34 35  2  0  0  0
 35 36  1  0  0  0
 35 37  1  0  0  0
 36 40  1  0  0  0
 36 41  1  0  0  0
 37 38  2  0  0  0
 38 39  1  0  0  0
M  END
> <minimizedAffinity>
-2.54795

$$$$
