CHEMBL377959


 26 30  0  0  0  0  0  0  0  0999 V2000
  -27.8000   11.7295  -15.1491 C   0  0  0  0  0  0  0  0  0  0  0  0
  -28.9401   11.1617  -15.7773 C   0  0  0  0  0  0  0  0  0  0  0  0
  -30.1740   11.0751  -15.1323 C   0  0  0  0  0  0  0  0  0  0  0  0
  -30.2292   11.5222  -13.8366 C   0  0  0  0  0  0  0  0  0  0  0  0
  -29.0979   12.0420  -13.1526 C   0  0  0  0  0  0  0  0  0  0  0  0
  -27.8854   12.1722  -13.8156 C   0  0  0  0  0  0  0  0  0  0  0  0
  -29.3958   12.3891  -11.6796 C   0  0  0  0  0  0  0  0  0  0  0  0
  -30.8417   12.0212  -11.6789 C   0  0  0  0  0  0  0  0  0  0  0  0
  -31.9632   11.9332  -10.8426 C   0  0  0  0  0  0  0  0  0  0  0  0
  -33.0461   11.4979  -11.5246 N   0  0  0  0  0  0  0  0  0  0  0  0
  -32.5913   11.2808  -12.7837 N   0  0  0  0  0  0  0  0  0  0  0  0
  -31.2808   11.5581  -12.8877 C   0  0  0  0  0  0  0  0  0  0  0  0
  -33.2399   10.9483  -13.4890 H   0  0  0  0  0  0  0  0  0  0  0  0
  -31.9957   12.2268   -9.4011 C   0  0  0  0  0  0  0  0  0  0  0  0
  -33.2238   12.4258   -8.6960 C   0  0  0  0  0  0  0  0  0  0  0  0
  -33.0239   12.6589   -7.3526 C   0  0  0  0  0  0  0  0  0  0  0  0
  -31.3640   12.6455   -6.9398 S   0  0  0  0  0  0  0  0  0  0  0  0
  -30.9099   12.3254   -8.5598 C   0  0  0  0  0  0  0  0  0  0  0  0
  -26.4992   11.8523  -15.9266 C   0  0  0  0  0  0  0  0  0  0  0  0
  -22.3167   12.1843  -18.2501 C   0  0  0  0  0  0  0  0  0  0  0  0
  -23.0090   11.4576  -17.1895 N   0  0  0  0  0  0  0  0  0  0  0  0
  -23.4223   12.3690  -16.1108 C   0  0  0  0  0  0  0  0  0  0  0  0
  -24.2093   11.6235  -15.0084 C   0  0  0  0  0  0  0  0  0  0  0  0
  -25.4296   10.9371  -15.4870 N   0  0  0  0  0  0  0  0  0  0  0  0
  -25.0179   10.0429  -16.5988 C   0  0  0  0  0  0  0  0  0  0  0  0
  -24.1730   10.7203  -17.7146 C   0  0  0  0  0  0  0  0  0  0  0  0
 20 21  1  0  0  0
 21 22  1  0  0  0
 21 26  1  0  0  0
 22 23  1  0  0  0
 23 24  1  0  0  0
 24 19  1  0  0  0
 24 25  1  0  0  0
 19  1  1  0  0  0
  1  2  1  0  0  0
  1  6  2  0  0  0
  2  3  2  0  0  0
  3  4  1  0  0  0
  4  5  2  0  0  0
  4 12  1  0  0  0
  5  6  1  0  0  0
  5  7  1  0  0  0
  7  8  1  0  0  0
  8  9  1  0  0  0
  8 12  2  0  0  0
  9 14  1  0  0  0
  9 10  2  0  0  0
 14 15  1  0  0  0
 14 18  2  0  0  0
 15 16  2  0  0  0
 16 17  1  0  0  0
 17 18  1  0  0  0
 10 11  1  0  0  0
 11 12  1  0  0  0
 11 13  1  0  0  0
 25 26  1  0  0  0
M  END
> <minimizedAffinity>
-5.54217

$$$$
