CHEMBL3983434


 34 37  0  0  0  0  0  0  0  0999 V2000
  -31.3477   -8.8482   -6.9493 C   0  0  0  0  0  0  0  0  0  0  0  0
  -30.9038  -10.0656   -7.3160 C   0  0  0  0  0  0  0  0  0  0  0  0
  -32.0919  -10.8724   -7.7224 C   0  0  0  0  0  0  0  0  0  0  0  0
  -32.0878  -11.9756   -8.2491 O   0  0  0  0  0  0  0  0  0  0  0  0
  -33.1821  -10.1216   -7.5077 N   0  0  0  0  0  0  0  0  0  0  0  0
  -32.8186   -8.8705   -7.1832 C   0  0  0  0  0  0  0  0  0  0  0  0
  -33.5708   -7.9123   -7.1799 O   0  0  0  0  0  0  0  0  0  0  0  0
  -34.0903  -10.3772   -7.8505 H   0  0  0  0  0  0  0  0  0  0  0  0
  -29.6260  -10.6210   -7.5970 C   0  0  0  0  0  0  0  0  0  0  0  0
  -28.7273  -10.7734   -6.5574 C   0  0  0  0  0  0  0  0  0  0  0  0
  -27.5210  -10.3232   -7.0409 N   0  0  0  0  0  0  0  0  0  0  0  0
  -27.5646  -10.2125   -8.4155 C   0  0  0  0  0  0  0  0  0  0  0  0
  -26.5987   -9.7586   -9.3287 C   0  0  0  0  0  0  0  0  0  0  0  0
  -26.9259   -9.7530  -10.6848 C   0  0  0  0  0  0  0  0  0  0  0  0
  -28.1768  -10.1831  -11.1156 C   0  0  0  0  0  0  0  0  0  0  0  0
  -29.1685  -10.5409  -10.1897 C   0  0  0  0  0  0  0  0  0  0  0  0
  -28.8698  -10.5407   -8.8091 C   0  0  0  0  0  0  0  0  0  0  0  0
  -26.4636   -9.8066   -6.1836 C   0  0  0  0  0  0  0  0  0  0  0  0
  -27.0043   -9.4281   -4.7967 C   0  0  0  0  0  0  0  0  0  0  0  0
  -27.0145   -7.9765   -4.5969 N   0  0  0  0  0  0  0  0  0  0  0  0
  -26.0604   -7.6191   -4.6182 H   0  0  0  0  0  0  0  0  0  0  0  0
  -27.3665   -7.7788   -3.6590 H   0  0  0  0  0  0  0  0  0  0  0  0
  -29.0501   -5.8017   -6.9387 C   0  0  0  0  0  0  0  0  0  0  0  0
  -29.6887   -6.9957   -7.3217 C   0  0  0  0  0  0  0  0  0  0  0  0
  -30.6068   -7.6578   -6.4866 C   0  0  0  0  0  0  0  0  0  0  0  0
  -30.8598   -7.1025   -5.2275 C   0  0  0  0  0  0  0  0  0  0  0  0
  -30.2029   -5.9415   -4.8061 C   0  0  0  0  0  0  0  0  0  0  0  0
  -29.3188   -5.2615   -5.6691 C   0  0  0  0  0  0  0  0  0  0  0  0
  -28.4437   -3.8940   -8.2452 C   0  0  0  0  0  0  0  0  0  0  0  0
  -28.1163   -5.1798   -7.7264 O   0  0  0  0  0  0  0  0  0  0  0  0
  -30.4344   -5.3747   -3.5732 O   0  0  0  0  0  0  0  0  0  0  0  0
  -31.7337   -4.8167   -3.4005 C   0  0  0  0  0  0  0  0  0  0  0  0
  -28.7341   -4.1334   -5.1409 O   0  0  0  0  0  0  0  0  0  0  0  0
  -27.5964   -4.3199   -4.3078 C   0  0  0  0  0  0  0  0  0  0  0  0
 29 30  1  0  0  0
 30 23  1  0  0  0
 23 24  1  0  0  0
 23 28  2  0  0  0
 24 25  2  0  0  0
 25  1  1  0  0  0
 25 26  1  0  0  0
  1  2  2  0  0  0
  1  6  1  0  0  0
  2  9  1  0  0  0
  2  3  1  0  0  0
  9 10  2  0  0  0
  9 17  1  0  0  0
 10 11  1  0  0  0
 11 18  1  0  0  0
 11 12  1  0  0  0
 18 19  1  0  0  0
 19 20  1  0  0  0
 20 21  1  0  0  0
 20 22  1  0  0  0
 12 13  1  0  0  0
 12 17  2  0  0  0
 13 14  2  0  0  0
 14 15  1  0  0  0
 15 16  2  0  0  0
 16 17  1  0  0  0
  3  4  2  0  0  0
  3  5  1  0  0  0
  5  6  1  0  0  0
  5  8  1  0  0  0
  6  7  2  0  0  0
 26 27  2  0  0  0
 27 31  1  0  0  0
 27 28  1  0  0  0
 31 32  1  0  0  0
 28 33  1  0  0  0
 33 34  1  0  0  0
M  END
> <minimizedAffinity>
-7.41951

$$$$
