CHEMBL3893200


 38 42  0  0  0  0  0  0  0  0999 V2000
  -28.9019   -3.8540   -7.4474 C   0  0  0  0  0  0  0  0  0  0  0  0
  -29.0746   -3.3767   -6.2105 N   0  0  0  0  0  0  0  0  0  0  0  0
  -28.6663   -2.1042   -5.9965 C   0  0  0  0  0  0  0  0  0  0  0  0
  -28.1035   -1.2846   -6.9587 C   0  0  0  0  0  0  0  0  0  0  0  0
  -27.7873    0.3558   -6.5855 Cl  0  0  0  0  0  0  0  0  0  0  0  0
  -27.9110   -1.8653   -8.1925 C   0  0  0  0  0  0  0  0  0  0  0  0
  -28.3068   -3.1479   -8.4269 N   0  0  0  0  0  0  0  0  0  0  0  0
  -29.4040   -5.1371   -7.7232 N   0  0  0  0  0  0  0  0  0  0  0  0
  -30.4104   -5.0564   -7.7804 H   0  0  0  0  0  0  0  0  0  0  0  0
  -28.1211   -8.6898   -5.7831 C   0  0  0  0  0  0  0  0  0  0  0  0
  -28.3498   -8.6550   -7.1639 C   0  0  0  0  0  0  0  0  0  0  0  0
  -28.7718   -7.4892   -7.8027 C   0  0  0  0  0  0  0  0  0  0  0  0
  -28.9590   -6.3062   -7.0902 C   0  0  0  0  0  0  0  0  0  0  0  0
  -28.5989   -6.2880   -5.7415 C   0  0  0  0  0  0  0  0  0  0  0  0
  -28.2019   -7.4681   -5.0921 C   0  0  0  0  0  0  0  0  0  0  0  0
  -23.5278   -9.7596   -5.4947 C   0  0  0  0  0  0  0  0  0  0  0  0
  -24.8090  -10.3459   -5.0753 N   0  0  0  0  0  0  0  0  0  0  0  0
  -25.4523   -9.4511   -4.1054 C   0  0  0  0  0  0  0  0  0  0  0  0
  -26.9031   -9.8298   -3.7786 C   0  0  0  0  0  0  0  0  0  0  0  0
  -27.7753   -9.9833   -5.0403 C   0  0  0  0  0  0  0  0  0  0  0  0
  -27.0659  -11.0251   -5.9260 C   0  0  0  0  0  0  0  0  0  0  0  0
  -25.6346  -10.6028   -6.2649 C   0  0  0  0  0  0  0  0  0  0  0  0
  -27.3971   -1.1400   -9.4110 C   0  0  0  0  0  0  0  0  0  0  0  0
  -26.4432   -1.8955  -10.3612 C   0  0  0  0  0  0  0  0  0  0  0  0
  -26.7837   -1.8095  -11.8509 C   0  0  0  0  0  0  0  0  0  0  0  0
  -28.1121   -2.0096  -12.2921 C   0  0  0  0  0  0  0  0  0  0  0  0
  -28.4520   -2.0001  -13.6437 C   0  0  0  0  0  0  0  0  0  0  0  0
  -27.4625   -1.8503  -14.5966 C   0  0  0  0  0  0  0  0  0  0  0  0
  -26.1501   -1.6282  -14.1874 C   0  0  0  0  0  0  0  0  0  0  0  0
  -25.7797   -1.5386  -12.8217 C   0  0  0  0  0  0  0  0  0  0  0  0
  -24.3831   -0.9704  -12.5104 C   0  0  0  0  0  0  0  0  0  0  0  0
  -24.3336    0.4479  -11.9208 C   0  0  0  0  0  0  0  0  0  0  0  0
  -23.7677    0.1896  -13.2777 C   0  0  0  0  0  0  0  0  0  0  0  0
  -23.4097   -1.9922  -11.9693 C   0  0  0  0  0  0  0  0  0  0  0  0
  -23.1501   -3.0533  -12.7856 N   0  0  0  0  0  0  0  0  0  0  0  0
  -22.8927   -1.8689  -10.8682 O   0  0  0  0  0  0  0  0  0  0  0  0
  -23.5252   -3.1189  -13.7196 H   0  0  0  0  0  0  0  0  0  0  0  0
  -22.4606   -3.7239  -12.4786 H   0  0  0  0  0  0  0  0  0  0  0  0
 16 17  1  0  0  0
 17 18  1  0  0  0
 17 22  1  0  0  0
 18 19  1  0  0  0
 19 20  1  0  0  0
 20 10  1  0  0  0
 20 21  1  0  0  0
 10 11  1  0  0  0
 10 15  2  0  0  0
 11 12  2  0  0  0
 12 13  1  0  0  0
 13  8  1  0  0  0
 13 14  2  0  0  0
  8  1  1  0  0  0
  8  9  1  0  0  0
  1  2  1  0  0  0
  1  7  2  0  0  0
  2  3  2  0  0  0
  3  4  1  0  0  0
  4  5  1  0  0  0
  4  6  2  0  0  0
  6 23  1  0  0  0
  6  7  1  0  0  0
 23 24  1  0  0  0
 24 25  1  0  0  0
 25 26  1  0  0  0
 25 30  2  0  0  0
 26 27  2  0  0  0
 27 28  1  0  0  0
 28 29  2  0  0  0
 29 30  1  0  0  0
 30 31  1  0  0  0
 31 34  1  0  0  0
 31 32  1  0  0  0
 31 33  1  0  0  0
 34 35  1  0  0  0
 34 36  2  0  0  0
 35 37  1  0  0  0
 35 38  1  0  0  0
 32 33  1  0  0  0
 14 15  1  0  0  0
 21 22  1  0  0  0
M  END
> <minimizedAffinity>
-9.21304

$$$$
