CHEMBL3956492


 37 41  0  0  0  0  0  0  0  0999 V2000
  -12.9800   -8.2940  -13.6535 C   0  0  0  0  0  0  0  0  0  0  0  0
  -13.1532   -7.1732  -12.9325 C   0  0  0  0  0  0  0  0  0  0  0  0
  -12.6918   -7.4525  -11.5376 C   0  0  0  0  0  0  0  0  0  0  0  0
  -12.5672   -6.6463  -10.6301 O   0  0  0  0  0  0  0  0  0  0  0  0
  -12.3587   -8.7439  -11.4805 N   0  0  0  0  0  0  0  0  0  0  0  0
  -12.3927   -9.2856  -12.7077 C   0  0  0  0  0  0  0  0  0  0  0  0
  -11.9478  -10.3850  -12.9980 O   0  0  0  0  0  0  0  0  0  0  0  0
  -11.8932   -9.1546  -10.6850 H   0  0  0  0  0  0  0  0  0  0  0  0
  -13.4771   -5.8281  -13.2538 C   0  0  0  0  0  0  0  0  0  0  0  0
  -12.4737   -4.9234  -13.5402 C   0  0  0  0  0  0  0  0  0  0  0  0
  -12.7868   -3.7971  -12.8190 N   0  0  0  0  0  0  0  0  0  0  0  0
  -14.0909   -3.8715  -12.3534 C   0  0  0  0  0  0  0  0  0  0  0  0
  -14.8100   -3.0177  -11.4988 C   0  0  0  0  0  0  0  0  0  0  0  0
  -16.1150   -3.3703  -11.1548 C   0  0  0  0  0  0  0  0  0  0  0  0
  -16.6914   -4.5291  -11.6614 C   0  0  0  0  0  0  0  0  0  0  0  0
  -15.9421   -5.4168  -12.4444 C   0  0  0  0  0  0  0  0  0  0  0  0
  -14.6056   -5.1004  -12.7721 C   0  0  0  0  0  0  0  0  0  0  0  0
  -11.8361   -2.8330  -12.2903 C   0  0  0  0  0  0  0  0  0  0  0  0
  -11.4220   -1.6541  -13.1821 C   0  0  0  0  0  0  0  0  0  0  0  0
  -12.3835   -0.5289  -13.1050 N   0  0  0  0  0  0  0  0  0  0  0  0
  -11.6773    0.7569  -13.2192 C   0  0  0  0  0  0  0  0  0  0  0  0
  -12.6388    1.9350  -13.0625 C   0  0  0  0  0  0  0  0  0  0  0  0
  -13.7790    1.8606  -14.0719 C   0  0  0  0  0  0  0  0  0  0  0  0
  -14.4654    0.5081  -13.9839 C   0  0  0  0  0  0  0  0  0  0  0  0
  -13.4585   -0.6329  -14.1052 C   0  0  0  0  0  0  0  0  0  0  0  0
  -13.2314  -10.0404  -17.0246 C   0  0  0  0  0  0  0  0  0  0  0  0
  -12.9974   -9.7917  -15.6625 C   0  0  0  0  0  0  0  0  0  0  0  0
  -13.1960   -8.5242  -15.0909 C   0  0  0  0  0  0  0  0  0  0  0  0
  -13.6297   -7.4894  -15.9245 C   0  0  0  0  0  0  0  0  0  0  0  0
  -13.8363   -7.7029  -17.2932 C   0  0  0  0  0  0  0  0  0  0  0  0
  -13.6724   -8.9883  -17.8463 C   0  0  0  0  0  0  0  0  0  0  0  0
  -11.5978  -11.5995  -17.8137 C   0  0  0  0  0  0  0  0  0  0  0  0
  -12.9623  -11.2511  -17.6104 O   0  0  0  0  0  0  0  0  0  0  0  0
  -14.2575   -6.7008  -18.1372 O   0  0  0  0  0  0  0  0  0  0  0  0
  -13.3651   -5.5970  -18.2603 C   0  0  0  0  0  0  0  0  0  0  0  0
  -13.9026   -9.0778  -19.2004 O   0  0  0  0  0  0  0  0  0  0  0  0
  -12.7789   -8.9036  -20.0548 C   0  0  0  0  0  0  0  0  0  0  0  0
 32 33  1  0  0  0
 33 26  1  0  0  0
 26 27  1  0  0  0
 26 31  2  0  0  0
 27 28  2  0  0  0
 28  1  1  0  0  0
 28 29  1  0  0  0
  1  2  2  0  0  0
  1  6  1  0  0  0
  2  9  1  0  0  0
  2  3  1  0  0  0
  9 10  2  0  0  0
  9 17  1  0  0  0
 10 11  1  0  0  0
 11 18  1  0  0  0
 11 12  1  0  0  0
 18 19  1  0  0  0
 19 20  1  0  0  0
 20 21  1  0  0  0
 20 25  1  0  0  0
 21 22  1  0  0  0
 22 23  1  0  0  0
 23 24  1  0  0  0
 24 25  1  0  0  0
 12 13  1  0  0  0
 12 17  2  0  0  0
 13 14  2  0  0  0
 14 15  1  0  0  0
 15 16  2  0  0  0
 16 17  1  0  0  0
  3  4  2  0  0  0
  3  5  1  0  0  0
  5  6  1  0  0  0
  5  8  1  0  0  0
  6  7  2  0  0  0
 29 30  2  0  0  0
 30 34  1  0  0  0
 30 31  1  0  0  0
 34 35  1  0  0  0
 31 36  1  0  0  0
 36 37  1  0  0  0
M  END
> <minimizedAffinity>
-7.47363

$$$$
