CHEMBL3921710


 23 25  0  0  0  0  0  0  0  0999 V2000
  -15.6379    0.1015  -15.0643 N   0  0  0  0  0  0  0  0  0  0  0  0
  -16.1449   -0.2114  -14.2310 H   0  0  0  0  0  0  0  0  0  0  0  0
  -16.2328    1.3574  -15.3576 C   0  0  0  0  0  0  0  0  0  0  0  0
  -15.3355    2.3390  -15.6403 N   0  0  0  0  0  0  0  0  0  0  0  0
  -15.7382    3.6174  -15.8755 N   0  0  0  0  0  0  0  0  0  0  0  0
  -17.0507    3.9078  -15.8220 C   0  0  0  0  0  0  0  0  0  0  0  0
  -18.0286    2.9650  -15.5374 C   0  0  0  0  0  0  0  0  0  0  0  0
  -19.3898    3.3246  -15.5001 C   0  0  0  0  0  0  0  0  0  0  0  0
  -20.3714    2.3778  -15.2157 C   0  0  0  0  0  0  0  0  0  0  0  0
  -20.0026    1.0682  -14.9534 C   0  0  0  0  0  0  0  0  0  0  0  0
  -18.6522    0.7090  -14.9764 C   0  0  0  0  0  0  0  0  0  0  0  0
  -17.6230    1.6384  -15.2827 C   0  0  0  0  0  0  0  0  0  0  0  0
  -14.2660   -2.2550  -14.0676 N   0  0  0  0  0  0  0  0  0  0  0  0
  -13.4074   -3.3411  -14.0319 C   0  0  0  0  0  0  0  0  0  0  0  0
  -13.7079   -4.4698  -13.6525 O   0  0  0  0  0  0  0  0  0  0  0  0
  -12.0302   -3.0144  -14.5356 C   0  0  0  0  0  0  0  0  0  0  0  0
  -12.0136   -1.2419  -14.8123 S   0  0  0  0  0  0  0  0  0  0  0  0
  -13.7480   -1.1013  -14.5988 C   0  0  0  0  0  0  0  0  0  0  0  0
  -14.2879    0.0064  -14.9998 N   0  0  0  0  0  0  0  0  0  0  0  0
  -15.5944   -2.4234  -13.4833 C   0  0  0  0  0  0  0  0  0  0  0  0
  -15.6876   -1.8935  -12.0410 C   0  0  0  0  0  0  0  0  0  0  0  0
  -16.4717   -4.2424  -11.5932 C   0  0  0  0  0  0  0  0  0  0  0  0
  -15.8171   -3.0053  -10.9973 C   0  0  0  0  0  0  0  0  0  0  0  0
 22 23  1  0  0  0
 23 21  1  0  0  0
 21 20  1  0  0  0
 20 13  1  0  0  0
 13 14  1  0  0  0
 13 18  1  0  0  0
 14 15  2  0  0  0
 14 16  1  0  0  0
 16 17  1  0  0  0
 17 18  1  0  0  0
 18 19  2  0  0  0
 19  1  1  0  0  0
  1  3  1  0  0  0
  1  2  1  0  0  0
  3  4  1  0  0  0
  3 12  2  0  0  0
  4  5  2  0  0  0
  5  6  1  0  0  0
  6  7  2  0  0  0
  7  8  1  0  0  0
  7 12  1  0  0  0
  8  9  2  0  0  0
  9 10  1  0  0  0
 10 11  2  0  0  0
 11 12  1  0  0  0
M  END
> <minimizedAffinity>
-7.28414

$$$$
