CHEMBL1987034


 33 35  0  0  0  0  0  0  0  0999 V2000
  -29.3332   -8.5893   -5.7208 C   0  0  0  0  0  0  0  0  0  0  0  0
  -28.1544   -8.2875   -5.1427 N   0  0  0  0  0  0  0  0  0  0  0  0
  -27.1064   -9.1070   -5.3042 C   0  0  0  0  0  0  0  0  0  0  0  0
  -27.1636  -10.2406   -6.0113 N   0  0  0  0  0  0  0  0  0  0  0  0
  -28.3699  -10.5664   -6.5250 C   0  0  0  0  0  0  0  0  0  0  0  0
  -29.4948   -9.7780   -6.4089 C   0  0  0  0  0  0  0  0  0  0  0  0
  -31.1162  -10.2972   -7.2183 Br  0  0  0  0  0  0  0  0  0  0  0  0
  -30.4168   -7.6917   -5.5189 N   0  0  0  0  0  0  0  0  0  0  0  0
  -31.2082   -7.9785   -6.0929 H   0  0  0  0  0  0  0  0  0  0  0  0
  -30.1274   -3.4655   -5.7783 C   0  0  0  0  0  0  0  0  0  0  0  0
  -29.8300   -4.2518   -6.8876 C   0  0  0  0  0  0  0  0  0  0  0  0
  -29.9246   -5.6447   -6.8042 C   0  0  0  0  0  0  0  0  0  0  0  0
  -30.2788   -6.2808   -5.6064 C   0  0  0  0  0  0  0  0  0  0  0  0
  -30.6154   -5.4840   -4.5101 C   0  0  0  0  0  0  0  0  0  0  0  0
  -30.5136   -4.0882   -4.5884 C   0  0  0  0  0  0  0  0  0  0  0  0
  -30.0340   -2.1014   -5.7310 O   0  0  0  0  0  0  0  0  0  0  0  0
  -29.3584   -1.5560   -4.5926 C   0  0  0  0  0  0  0  0  0  0  0  0
  -28.2541    0.9108   -5.2477 N   0  0  0  0  0  0  0  0  0  0  0  0
  -28.7548   -0.2077   -4.9507 C   0  0  0  0  0  0  0  0  0  0  0  0
  -25.8842   -8.7486   -4.7402 N   0  0  0  0  0  0  0  0  0  0  0  0
  -25.6600   -7.7872   -4.9557 H   0  0  0  0  0  0  0  0  0  0  0  0
  -24.7767   -9.5840   -4.5108 C   0  0  0  0  0  0  0  0  0  0  0  0
  -24.5561  -10.0871   -3.2219 C   0  0  0  0  0  0  0  0  0  0  0  0
  -23.4872  -10.9506   -2.9566 C   0  0  0  0  0  0  0  0  0  0  0  0
  -22.6194  -11.3262   -3.9803 C   0  0  0  0  0  0  0  0  0  0  0  0
  -22.8356  -10.8374   -5.2681 C   0  0  0  0  0  0  0  0  0  0  0  0
  -23.8978   -9.9661   -5.5331 C   0  0  0  0  0  0  0  0  0  0  0  0
  -21.7645  -11.3181   -6.5967 S   0  0  0  0  0  0  0  0  0  0  0  0
  -20.8360   -9.9422   -6.8134 N   0  0  0  0  0  0  0  0  0  0  0  0
  -20.8883  -12.3564   -6.1033 O   0  0  0  0  0  0  0  0  0  0  0  0
  -22.5640  -11.4689   -7.7893 O   0  0  0  0  0  0  0  0  0  0  0  0
  -20.0945   -9.8212   -6.1269 H   0  0  0  0  0  0  0  0  0  0  0  0
  -21.3566   -9.1138   -7.0916 H   0  0  0  0  0  0  0  0  0  0  0  0
 18 19  3  0  0  0
 19 17  1  0  0  0
 17 16  1  0  0  0
 16 10  1  0  0  0
 10 11  1  0  0  0
 10 15  2  0  0  0
 11 12  2  0  0  0
 12 13  1  0  0  0
 13  8  1  0  0  0
 13 14  2  0  0  0
  8  1  1  0  0  0
  8  9  1  0  0  0
  1  2  1  0  0  0
  1  6  2  0  0  0
  2  3  2  0  0  0
  3 20  1  0  0  0
  3  4  1  0  0  0
 20 22  1  0  0  0
 20 21  1  0  0  0
 22 23  1  0  0  0
 22 27  2  0  0  0
 23 24  2  0  0  0
 24 25  1  0  0  0
 25 26  2  0  0  0
 26 28  1  0  0  0
 26 27  1  0  0  0
 28 29  1  0  0  0
 28 30  2  0  0  0
 28 31  2  0  0  0
 29 32  1  0  0  0
 29 33  1  0  0  0
  4  5  2  0  0  0
  5  6  1  0  0  0
  6  7  1  0  0  0
 14 15  1  0  0  0
M  END
> <minimizedAffinity>
-8.14128

$$$$
