CHEMBL3907423


 32 36  0  0  0  0  0  0  0  0999 V2000
  -29.8184   -9.0820   -6.4409 C   0  0  0  0  0  0  0  0  0  0  0  0
  -30.8380   -8.2297   -6.8952 C   0  0  0  0  0  0  0  0  0  0  0  0
  -30.8947   -6.8739   -6.5066 C   0  0  0  0  0  0  0  0  0  0  0  0
  -30.0102   -6.4354   -5.5045 C   0  0  0  0  0  0  0  0  0  0  0  0
  -29.5258   -5.2153   -4.9183 C   0  0  0  0  0  0  0  0  0  0  0  0
  -29.2023   -5.5043   -3.6415 N   0  0  0  0  0  0  0  0  0  0  0  0
  -28.7162   -6.7529   -3.7763 N   0  0  0  0  0  0  0  0  0  0  0  0
  -29.1852   -7.3812   -4.9009 C   0  0  0  0  0  0  0  0  0  0  0  0
  -28.9658   -8.6604   -5.4160 C   0  0  0  0  0  0  0  0  0  0  0  0
  -28.1223   -7.1219   -3.0460 H   0  0  0  0  0  0  0  0  0  0  0  0
  -28.6352   -4.2486   -5.5478 C   0  0  0  0  0  0  0  0  0  0  0  0
  -27.9634   -3.3064   -4.8559 C   0  0  0  0  0  0  0  0  0  0  0  0
  -27.9301   -1.8912   -5.2939 C   0  0  0  0  0  0  0  0  0  0  0  0
  -28.4914   -0.9043   -4.4889 C   0  0  0  0  0  0  0  0  0  0  0  0
  -28.6942    0.3714   -5.0189 C   0  0  0  0  0  0  0  0  0  0  0  0
  -28.3453    0.6277   -6.3383 C   0  0  0  0  0  0  0  0  0  0  0  0
  -27.7881   -0.4040   -7.0715 C   0  0  0  0  0  0  0  0  0  0  0  0
  -27.5685   -1.6456   -6.5785 N   0  0  0  0  0  0  0  0  0  0  0  0
  -29.6512  -10.7693   -7.0267 S   0  0  0  0  0  0  0  0  0  0  0  0
  -27.3251  -10.7327   -8.6811 C   0  0  0  0  0  0  0  0  0  0  0  0
  -26.7295  -10.5687   -9.9539 C   0  0  0  0  0  0  0  0  0  0  0  0
  -27.4925  -10.2811  -11.0827 C   0  0  0  0  0  0  0  0  0  0  0  0
  -28.8651  -10.1569  -10.9633 C   0  0  0  0  0  0  0  0  0  0  0  0
  -29.4746  -10.3123   -9.7119 C   0  0  0  0  0  0  0  0  0  0  0  0
  -28.7202  -10.5783   -8.5528 C   0  0  0  0  0  0  0  0  0  0  0  0
  -26.0312  -12.2736   -7.4586 O   0  0  0  0  0  0  0  0  0  0  0  0
  -26.3592  -11.0967   -7.5988 C   0  0  0  0  0  0  0  0  0  0  0  0
  -25.9472  -10.0995   -6.7374 N   0  0  0  0  0  0  0  0  0  0  0  0
  -26.2476   -9.1474   -6.9104 H   0  0  0  0  0  0  0  0  0  0  0  0
  -25.1761  -10.3847   -5.5674 C   0  0  0  0  0  0  0  0  0  0  0  0
  -25.0115   -9.3635   -4.4765 C   0  0  0  0  0  0  0  0  0  0  0  0
  -23.8449   -9.7237   -5.3497 C   0  0  0  0  0  0  0  0  0  0  0  0
 26 27  2  0  0  0
 27 28  1  0  0  0
 27 20  1  0  0  0
 28 30  1  0  0  0
 28 29  1  0  0  0
 30 31  1  0  0  0
 30 32  1  0  0  0
 31 32  1  0  0  0
 20 21  1  0  0  0
 20 25  2  0  0  0
 21 22  2  0  0  0
 22 23  1  0  0  0
 23 24  2  0  0  0
 24 25  1  0  0  0
 25 19  1  0  0  0
 19  1  1  0  0  0
  1  2  1  0  0  0
  1  9  2  0  0  0
  2  3  2  0  0  0
  3  4  1  0  0  0
  4  5  1  0  0  0
  4  8  2  0  0  0
  5 11  1  0  0  0
  5  6  2  0  0  0
 11 12  2  0  0  0
 12 13  1  0  0  0
 13 14  1  0  0  0
 13 18  2  0  0  0
 14 15  2  0  0  0
 15 16  1  0  0  0
 16 17  2  0  0  0
 17 18  1  0  0  0
  6  7  1  0  0  0
  7  8  1  0  0  0
  7 10  1  0  0  0
  8  9  1  0  0  0
M  END
> <minimizedAffinity>
-8.83306

$$$$
