CHEMBL3927327


 39 44  0  0  0  0  0  0  0  0999 V2000
  -27.2700   -1.8342   -9.6675 C   0  0  0  0  0  0  0  0  0  0  0  0
  -28.0697   -1.5428  -10.7540 C   0  0  0  0  0  0  0  0  0  0  0  0
  -27.5708   -1.4719  -11.9896 C   0  0  0  0  0  0  0  0  0  0  0  0
  -26.2465   -1.4397  -12.2226 C   0  0  0  0  0  0  0  0  0  0  0  0
  -25.9219   -1.5676  -13.4960 N   0  0  0  0  0  0  0  0  0  0  0  0
  -24.7075   -1.3763  -13.9419 C   0  0  0  0  0  0  0  0  0  0  0  0
  -23.7497   -0.8217  -13.1039 C   0  0  0  0  0  0  0  0  0  0  0  0
  -24.0066   -0.8792  -11.6987 N   0  0  0  0  0  0  0  0  0  0  0  0
  -25.2867   -1.2804  -11.2180 C   0  0  0  0  0  0  0  0  0  0  0  0
  -25.8040   -1.5591   -9.8358 C   0  0  0  0  0  0  0  0  0  0  0  0
  -22.7371    0.0069  -13.9626 C   0  0  0  0  0  0  0  0  0  0  0  0
  -21.6501   -0.3320  -14.7672 C   0  0  0  0  0  0  0  0  0  0  0  0
  -20.9085    0.7908  -15.0345 N   0  0  0  0  0  0  0  0  0  0  0  0
  -21.4969    1.8434  -14.4830 N   0  0  0  0  0  0  0  0  0  0  0  0
  -22.5885    1.4179  -13.8397 C   0  0  0  0  0  0  0  0  0  0  0  0
  -20.9061    3.1891  -14.2233 C   0  0  0  0  0  0  0  0  0  0  0  0
  -19.6557    3.6015  -15.0264 C   0  0  0  0  0  0  0  0  0  0  0  0
  -18.2825    3.0831  -14.5502 C   0  0  0  0  0  0  0  0  0  0  0  0
  -17.6994    2.1716  -15.5755 N   0  0  0  0  0  0  0  0  0  0  0  0
  -17.3483    0.8041  -15.1221 C   0  0  0  0  0  0  0  0  0  0  0  0
  -16.0225    0.7901  -14.3467 C   0  0  0  0  0  0  0  0  0  0  0  0
  -14.9746    1.2962  -15.1506 O   0  0  0  0  0  0  0  0  0  0  0  0
  -15.2483    2.6397  -15.5005 C   0  0  0  0  0  0  0  0  0  0  0  0
  -16.5543    2.7456  -16.3098 C   0  0  0  0  0  0  0  0  0  0  0  0
  -28.0792   -2.4424   -8.5624 N   0  0  0  0  0  0  0  0  0  0  0  0
  -29.2017    0.3196   -5.9909 C   0  0  0  0  0  0  0  0  0  0  0  0
  -28.8853   -0.3476   -4.8061 C   0  0  0  0  0  0  0  0  0  0  0  0
  -28.2213   -1.5455   -4.8244 C   0  0  0  0  0  0  0  0  0  0  0  0
  -27.8270   -2.0992   -6.0493 C   0  0  0  0  0  0  0  0  0  0  0  0
  -28.2390   -1.5821   -7.3260 C   0  0  0  0  0  0  0  0  0  0  0  0
  -28.9122   -0.3061   -7.2558 C   0  0  0  0  0  0  0  0  0  0  0  0
  -31.0235    1.8755   -6.5351 C   0  0  0  0  0  0  0  0  0  0  0  0
  -29.8160    1.5373   -5.9182 O   0  0  0  0  0  0  0  0  0  0  0  0
  -28.0404   -2.1727   -3.6309 O   0  0  0  0  0  0  0  0  0  0  0  0
  -28.8020   -3.2177   -3.1472 C   0  0  0  0  0  0  0  0  0  0  0  0
  -27.9337   -3.9078   -8.3554 C   0  0  0  0  0  0  0  0  0  0  0  0
  -29.1376   -4.7450   -7.8389 C   0  0  0  0  0  0  0  0  0  0  0  0
  -28.7766   -5.3085   -6.4788 C   0  0  0  0  0  0  0  0  0  0  0  0
  -29.1785   -6.2485   -7.6052 C   0  0  0  0  0  0  0  0  0  0  0  0
 32 33  1  0  0  0
 33 26  1  0  0  0
 26 27  1  0  0  0
 26 31  2  0  0  0
 27 28  2  0  0  0
 28 34  1  0  0  0
 28 29  1  0  0  0
 34 35  1  0  0  0
 29 30  2  0  0  0
 30 25  1  0  0  0
 30 31  1  0  0  0
 25 36  1  0  0  0
 25  1  1  0  0  0
 36 37  1  0  0  0
 37 38  1  0  0  0
 37 39  1  0  0  0
 38 39  1  0  0  0
  1  2  1  0  0  0
  1 10  2  0  0  0
  2  3  2  0  0  0
  3  4  1  0  0  0
  4  5  1  0  0  0
  4  9  2  0  0  0
  5  6  2  0  0  0
  6  7  1  0  0  0
  7 11  1  0  0  0
  7  8  2  0  0  0
 11 12  1  0  0  0
 11 15  2  0  0  0
 12 13  2  0  0  0
 13 14  1  0  0  0
 14 16  1  0  0  0
 14 15  1  0  0  0
 16 17  1  0  0  0
 17 18  1  0  0  0
 18 19  1  0  0  0
 19 20  1  0  0  0
 19 24  1  0  0  0
 20 21  1  0  0  0
 21 22  1  0  0  0
 22 23  1  0  0  0
 23 24  1  0  0  0
  8  9  1  0  0  0
  9 10  1  0  0  0
M  END
> <minimizedAffinity>
-8.71304

$$$$
