CHEMBL1271719


 22 24  0  0  0  0  0  0  0  0999 V2000
  -27.4913   -2.0559   -8.8718 C   0  0  0  0  0  0  0  0  0  0  0  0
  -27.1655   -0.9019   -8.6034 O   0  0  0  0  0  0  0  0  0  0  0  0
  -27.2135   -2.7129  -10.0606 N   0  0  0  0  0  0  0  0  0  0  0  0
  -27.6938   -3.5845  -10.2469 H   0  0  0  0  0  0  0  0  0  0  0  0
  -26.5027   -2.1233  -11.1389 C   0  0  0  0  0  0  0  0  0  0  0  0
  -26.9883   -2.0442  -12.4423 C   0  0  0  0  0  0  0  0  0  0  0  0
  -26.3008   -1.5342  -13.4949 N   0  0  0  0  0  0  0  0  0  0  0  0
  -25.0560   -1.0957  -13.2769 C   0  0  0  0  0  0  0  0  0  0  0  0
  -24.3148   -0.6324  -14.3533 C   0  0  0  0  0  0  0  0  0  0  0  0
  -23.0007   -0.1874  -14.2001 C   0  0  0  0  0  0  0  0  0  0  0  0
  -22.4144   -0.1946  -12.9396 C   0  0  0  0  0  0  0  0  0  0  0  0
  -23.1444   -0.6441  -11.8383 C   0  0  0  0  0  0  0  0  0  0  0  0
  -24.4669   -1.1042  -11.9949 C   0  0  0  0  0  0  0  0  0  0  0  0
  -25.2277   -1.6033  -10.9164 C   0  0  0  0  0  0  0  0  0  0  0  0
  -30.0843   -6.0840   -7.2424 C   0  0  0  0  0  0  0  0  0  0  0  0
  -29.5335   -4.7024   -7.0375 C   0  0  0  0  0  0  0  0  0  0  0  0
  -29.6992   -4.0555   -5.8036 C   0  0  0  0  0  0  0  0  0  0  0  0
  -29.1777   -2.7797   -5.6033 C   0  0  0  0  0  0  0  0  0  0  0  0
  -29.3768   -2.0012   -4.0822 Cl  0  0  0  0  0  0  0  0  0  0  0  0
  -28.4880   -2.1364   -6.6230 C   0  0  0  0  0  0  0  0  0  0  0  0
  -28.3161   -2.7689   -7.8635 C   0  0  0  0  0  0  0  0  0  0  0  0
  -28.8378   -4.0514   -8.0722 C   0  0  0  0  0  0  0  0  0  0  0  0
 15 16  1  0  0  0
 16 17  1  0  0  0
 16 22  2  0  0  0
 17 18  2  0  0  0
 18 19  1  0  0  0
 18 20  1  0  0  0
 20 21  2  0  0  0
 21  1  1  0  0  0
 21 22  1  0  0  0
  1  2  2  0  0  0
  1  3  1  0  0  0
  3  5  1  0  0  0
  3  4  1  0  0  0
  5  6  1  0  0  0
  5 14  2  0  0  0
  6  7  2  0  0  0
  7  8  1  0  0  0
  8  9  1  0  0  0
  8 13  2  0  0  0
  9 10  2  0  0  0
 10 11  1  0  0  0
 11 12  2  0  0  0
 12 13  1  0  0  0
 13 14  1  0  0  0
M  END
> <minimizedAffinity>
-9.67615

$$$$
