CHEMBL231355


 31 34  0  0  0  0  0  0  0  0999 V2000
  -20.9067    1.5662  -14.6428 C   0  0  0  0  0  0  0  0  0  0  0  0
  -21.9500    2.3225  -14.1113 C   0  0  0  0  0  0  0  0  0  0  0  0
  -23.0635    1.7034  -13.5416 C   0  0  0  0  0  0  0  0  0  0  0  0
  -23.1995    0.3101  -13.5488 C   0  0  0  0  0  0  0  0  0  0  0  0
  -22.2261   -0.4319  -14.2263 C   0  0  0  0  0  0  0  0  0  0  0  0
  -21.0712    0.1848  -14.7391 C   0  0  0  0  0  0  0  0  0  0  0  0
  -24.3262   -0.3256  -12.8433 C   0  0  0  0  0  0  0  0  0  0  0  0
  -24.2924   -0.3994  -11.4603 C   0  0  0  0  0  0  0  0  0  0  0  0
  -25.6170   -1.2156  -10.7904 S   0  0  0  0  0  0  0  0  0  0  0  0
  -26.3141   -1.4888  -12.3348 C   0  0  0  0  0  0  0  0  0  0  0  0
  -27.5248   -2.1531  -12.5620 C   0  0  0  0  0  0  0  0  0  0  0  0
  -27.9130   -2.2699  -13.8730 C   0  0  0  0  0  0  0  0  0  0  0  0
  -27.1968   -1.8148  -14.9102 N   0  0  0  0  0  0  0  0  0  0  0  0
  -26.0139   -1.1929  -14.7020 C   0  0  0  0  0  0  0  0  0  0  0  0
  -25.3565   -0.8410  -15.8765 N   0  0  0  0  0  0  0  0  0  0  0  0
  -25.5284   -0.9773  -13.3806 C   0  0  0  0  0  0  0  0  0  0  0  0
  -25.8309   -1.2951  -16.6503 H   0  0  0  0  0  0  0  0  0  0  0  0
  -24.3601   -1.0155  -15.8312 H   0  0  0  0  0  0  0  0  0  0  0  0
  -17.3651    2.2401  -15.5483 N   0  0  0  0  0  0  0  0  0  0  0  0
  -17.4990    3.6623  -15.8487 C   0  0  0  0  0  0  0  0  0  0  0  0
  -18.4910    1.4529  -15.2330 C   0  0  0  0  0  0  0  0  0  0  0  0
  -18.4494    0.2279  -15.1257 O   0  0  0  0  0  0  0  0  0  0  0  0
  -19.6907    2.1474  -15.0843 N   0  0  0  0  0  0  0  0  0  0  0  0
  -19.7800    3.0176  -15.5813 H   0  0  0  0  0  0  0  0  0  0  0  0
  -13.6101    0.2813  -18.2475 C   0  0  0  0  0  0  0  0  0  0  0  0
  -14.1945    0.6587  -16.9189 C   0  0  0  0  0  0  0  0  0  0  0  0
  -13.4833    0.4170  -15.7423 C   0  0  0  0  0  0  0  0  0  0  0  0
  -14.0270    0.7856  -14.5205 C   0  0  0  0  0  0  0  0  0  0  0  0
  -15.2823    1.4003  -14.4696 C   0  0  0  0  0  0  0  0  0  0  0  0
  -16.0478    1.6344  -15.6249 C   0  0  0  0  0  0  0  0  0  0  0  0
  -15.4690    1.2595  -16.8510 C   0  0  0  0  0  0  0  0  0  0  0  0
 25 26  1  0  0  0
 26 27  1  0  0  0
 26 31  2  0  0  0
 27 28  2  0  0  0
 28 29  1  0  0  0
 29 30  2  0  0  0
 30 19  1  0  0  0
 30 31  1  0  0  0
 19 20  1  0  0  0
 19 21  1  0  0  0
 21 22  2  0  0  0
 21 23  1  0  0  0
 23  1  1  0  0  0
 23 24  1  0  0  0
  1  2  1  0  0  0
  1  6  2  0  0  0
  2  3  2  0  0  0
  3  4  1  0  0  0
  4  7  1  0  0  0
  4  5  2  0  0  0
  7  8  2  0  0  0
  7 16  1  0  0  0
  8  9  1  0  0  0
  9 10  1  0  0  0
 10 11  1  0  0  0
 10 16  2  0  0  0
 11 12  2  0  0  0
 12 13  1  0  0  0
 13 14  2  0  0  0
 14 15  1  0  0  0
 14 16  1  0  0  0
 15 17  1  0  0  0
 15 18  1  0  0  0
  5  6  1  0  0  0
M  END
> <minimizedAffinity>
-9.01608

$$$$
