CHEMBL3940859


 36 40  0  0  0  0  0  0  0  0999 V2000
  -30.5721   -9.1101   -7.0061 C   0  0  0  0  0  0  0  0  0  0  0  0
  -29.9131  -10.2927   -7.0620 N   0  0  0  0  0  0  0  0  0  0  0  0
  -28.6653  -10.3633   -6.5251 N   0  0  0  0  0  0  0  0  0  0  0  0
  -28.1157   -9.2751   -5.9465 C   0  0  0  0  0  0  0  0  0  0  0  0
  -28.7649   -8.1030   -5.8487 N   0  0  0  0  0  0  0  0  0  0  0  0
  -30.0114   -7.9937   -6.3855 C   0  0  0  0  0  0  0  0  0  0  0  0
  -32.1334   -9.9733   -8.6643 N   0  0  0  0  0  0  0  0  0  0  0  0
  -31.9263   -9.1012   -7.6245 C   0  0  0  0  0  0  0  0  0  0  0  0
  -32.8216   -8.3603   -7.2326 O   0  0  0  0  0  0  0  0  0  0  0  0
  -33.0382   -9.9980   -9.1157 H   0  0  0  0  0  0  0  0  0  0  0  0
  -31.4006  -10.5959   -8.9864 H   0  0  0  0  0  0  0  0  0  0  0  0
  -26.8251   -9.3062   -5.4314 N   0  0  0  0  0  0  0  0  0  0  0  0
  -26.7269   -8.5495   -4.7629 H   0  0  0  0  0  0  0  0  0  0  0  0
  -26.2204  -10.6061   -5.0989 C   0  0  0  0  0  0  0  0  0  0  0  0
  -25.7287  -10.6708   -3.6495 C   0  0  0  0  0  0  0  0  0  0  0  0
  -24.4548   -9.8656   -3.4420 C   0  0  0  0  0  0  0  0  0  0  0  0
  -23.4321  -10.2888   -4.3385 O   0  0  0  0  0  0  0  0  0  0  0  0
  -23.7929  -10.1126   -5.7103 C   0  0  0  0  0  0  0  0  0  0  0  0
  -25.0411  -10.9379   -6.0647 C   0  0  0  0  0  0  0  0  0  0  0  0
  -25.3987  -10.7825   -7.4862 N   0  0  0  0  0  0  0  0  0  0  0  0
  -25.8908   -9.8910   -7.5901 H   0  0  0  0  0  0  0  0  0  0  0  0
  -26.1005  -11.4848   -7.7236 H   0  0  0  0  0  0  0  0  0  0  0  0
  -30.7242   -6.7629   -6.3095 N   0  0  0  0  0  0  0  0  0  0  0  0
  -31.6126   -6.7948   -6.8250 H   0  0  0  0  0  0  0  0  0  0  0  0
  -30.6873   -5.7209   -5.3615 C   0  0  0  0  0  0  0  0  0  0  0  0
  -31.4657   -5.7424   -4.1919 C   0  0  0  0  0  0  0  0  0  0  0  0
  -31.5521   -4.6500   -3.3297 C   0  0  0  0  0  0  0  0  0  0  0  0
  -30.8500   -3.4788   -3.5890 C   0  0  0  0  0  0  0  0  0  0  0  0
  -29.9840   -3.4631   -4.6929 C   0  0  0  0  0  0  0  0  0  0  0  0
  -29.8604   -4.5716   -5.5497 C   0  0  0  0  0  0  0  0  0  0  0  0
  -28.8426   -4.2341   -6.4963 C   0  0  0  0  0  0  0  0  0  0  0  0
  -28.3898   -2.9603   -6.2114 C   0  0  0  0  0  0  0  0  0  0  0  0
  -29.1454   -2.4797   -5.1791 N   0  0  0  0  0  0  0  0  0  0  0  0
  -29.1005   -1.1079   -4.6880 C   0  0  0  0  0  0  0  0  0  0  0  0
  -29.8070    0.0230   -5.4257 C   0  0  0  0  0  0  0  0  0  0  0  0
  -28.3194   -0.0072   -5.3842 C   0  0  0  0  0  0  0  0  0  0  0  0
  7  8  1  0  0  0
  7 10  1  0  0  0
  7 11  1  0  0  0
  8  9  2  0  0  0
  8  1  1  0  0  0
  1  2  1  0  0  0
  1  6  2  0  0  0
  2  3  2  0  0  0
  3  4  1  0  0  0
  4 12  1  0  0  0
  4  5  2  0  0  0
 12 14  1  0  0  0
 12 13  1  0  0  0
 14 15  1  0  0  0
 14 19  1  0  0  0
 15 16  1  0  0  0
 16 17  1  0  0  0
 17 18  1  0  0  0
 18 19  1  0  0  0
 19 20  1  0  0  0
 20 21  1  0  0  0
 20 22  1  0  0  0
  5  6  1  0  0  0
  6 23  1  0  0  0
 23 25  1  0  0  0
 23 24  1  0  0  0
 25 26  1  0  0  0
 25 30  2  0  0  0
 26 27  2  0  0  0
 27 28  1  0  0  0
 28 29  2  0  0  0
 29 30  1  0  0  0
 29 33  1  0  0  0
 30 31  1  0  0  0
 31 32  2  0  0  0
 32 33  1  0  0  0
 33 34  1  0  0  0
 34 35  1  0  0  0
 34 36  1  0  0  0
 35 36  1  0  0  0
M  END
> <minimizedAffinity>
-8.75388

$$$$
