CHEMBL1986597


 40 44  0  0  0  0  0  0  0  0999 V2000
  -20.9692    1.3960  -14.2179 C   0  0  0  0  0  0  0  0  0  0  0  0
  -20.9146    2.7826  -14.0588 C   0  0  0  0  0  0  0  0  0  0  0  0
  -19.7933    3.4925  -14.4588 C   0  0  0  0  0  0  0  0  0  0  0  0
  -18.7039    2.8367  -15.0291 C   0  0  0  0  0  0  0  0  0  0  0  0
  -18.7483    1.4485  -15.1945 C   0  0  0  0  0  0  0  0  0  0  0  0
  -19.8741    0.7289  -14.7843 C   0  0  0  0  0  0  0  0  0  0  0  0
  -25.1294   -1.1763  -13.9118 C   0  0  0  0  0  0  0  0  0  0  0  0
  -25.6748   -1.9805  -12.8951 C   0  0  0  0  0  0  0  0  0  0  0  0
  -25.0428   -2.1012  -11.6524 C   0  0  0  0  0  0  0  0  0  0  0  0
  -23.8479   -1.4312  -11.3765 C   0  0  0  0  0  0  0  0  0  0  0  0
  -23.3345   -0.6332  -12.3973 C   0  0  0  0  0  0  0  0  0  0  0  0
  -22.2012    0.1270  -12.4783 N   0  0  0  0  0  0  0  0  0  0  0  0
  -22.1228    0.6642  -13.7408 C   0  0  0  0  0  0  0  0  0  0  0  0
  -23.1942    0.3607  -14.4411 N   0  0  0  0  0  0  0  0  0  0  0  0
  -23.9394   -0.4813  -13.6404 C   0  0  0  0  0  0  0  0  0  0  0  0
  -21.5035    0.2302  -11.7564 H   0  0  0  0  0  0  0  0  0  0  0  0
  -27.1459   -1.1170  -15.2720 N   0  0  0  0  0  0  0  0  0  0  0  0
  -25.7795   -1.1098  -15.2409 C   0  0  0  0  0  0  0  0  0  0  0  0
  -25.1216   -1.0320  -16.2717 O   0  0  0  0  0  0  0  0  0  0  0  0
  -27.6226   -1.0490  -16.1579 H   0  0  0  0  0  0  0  0  0  0  0  0
  -27.6905   -1.1887  -14.4139 H   0  0  0  0  0  0  0  0  0  0  0  0
  -17.5396    3.5142  -15.4236 N   0  0  0  0  0  0  0  0  0  0  0  0
  -16.4451    2.9458  -16.0479 C   0  0  0  0  0  0  0  0  0  0  0  0
  -16.2542    1.7606  -16.2926 O   0  0  0  0  0  0  0  0  0  0  0  0
  -17.5031    4.5010  -15.1988 H   0  0  0  0  0  0  0  0  0  0  0  0
  -15.3855    3.8933  -16.4441 C   0  0  0  0  0  0  0  0  0  0  0  0
  -14.3299    4.1128  -15.5501 C   0  0  0  0  0  0  0  0  0  0  0  0
  -13.3006    4.9874  -15.8885 C   0  0  0  0  0  0  0  0  0  0  0  0
  -13.3083    5.6167  -17.1343 C   0  0  0  0  0  0  0  0  0  0  0  0
  -14.3459    5.3560  -18.0366 C   0  0  0  0  0  0  0  0  0  0  0  0
  -15.3971    4.5066  -17.6967 C   0  0  0  0  0  0  0  0  0  0  0  0
  -14.3377    6.0723  -19.6580 S   0  0  0  0  0  0  0  0  0  0  0  0
  -13.1340    5.6028  -20.3093 O   0  0  0  0  0  0  0  0  0  0  0  0
  -15.6412    5.8649  -20.2441 O   0  0  0  0  0  0  0  0  0  0  0  0
  -14.1503    7.7416  -19.3554 N   0  0  0  0  0  0  0  0  0  0  0  0
  -15.3868    8.5626  -19.1606 C   0  0  0  0  0  0  0  0  0  0  0  0
  -16.0517    8.9273  -20.4918 C   0  0  0  0  0  0  0  0  0  0  0  0
  -15.1362    9.5849  -21.3782 O   0  0  0  0  0  0  0  0  0  0  0  0
  -13.9659    8.7908  -21.6229 C   0  0  0  0  0  0  0  0  0  0  0  0
  -13.2407    8.4488  -20.3165 C   0  0  0  0  0  0  0  0  0  0  0  0
 17 18  1  0  0  0
 17 20  1  0  0  0
 17 21  1  0  0  0
 18 19  2  0  0  0
 18  7  1  0  0  0
  7  8  1  0  0  0
  7 15  2  0  0  0
  8  9  2  0  0  0
  9 10  1  0  0  0
 10 11  2  0  0  0
 11 12  1  0  0  0
 11 15  1  0  0  0
 12 13  1  0  0  0
 12 16  1  0  0  0
 13  1  1  0  0  0
 13 14  2  0  0  0
  1  2  1  0  0  0
  1  6  2  0  0  0
  2  3  2  0  0  0
  3  4  1  0  0  0
  4 22  1  0  0  0
  4  5  2  0  0  0
 22 23  1  0  0  0
 22 25  1  0  0  0
 23 24  2  0  0  0
 23 26  1  0  0  0
 26 27  1  0  0  0
 26 31  2  0  0  0
 27 28  2  0  0  0
 28 29  1  0  0  0
 29 30  2  0  0  0
 30 32  1  0  0  0
 30 31  1  0  0  0
 32 33  2  0  0  0
 32 34  2  0  0  0
 32 35  1  0  0  0
 35 36  1  0  0  0
 35 40  1  0  0  0
 36 37  1  0  0  0
 37 38  1  0  0  0
 38 39  1  0  0  0
 39 40  1  0  0  0
  5  6  1  0  0  0
 14 15  1  0  0  0
M  END
> <minimizedAffinity>
-9.93478

$$$$
