CHEMBL3656042


 35 38  0  0  0  0  0  0  0  0999 V2000
  -26.6162   -1.5308  -12.0414 C   0  0  0  0  0  0  0  0  0  0  0  0
  -27.1569   -1.8339  -13.2971 C   0  0  0  0  0  0  0  0  0  0  0  0
  -26.3394   -1.8135  -14.4339 C   0  0  0  0  0  0  0  0  0  0  0  0
  -24.9919   -1.4627  -14.3290 C   0  0  0  0  0  0  0  0  0  0  0  0
  -24.4690   -1.0715  -13.0966 C   0  0  0  0  0  0  0  0  0  0  0  0
  -25.2669   -1.1482  -11.9549 C   0  0  0  0  0  0  0  0  0  0  0  0
  -27.0606   -2.4599   -9.8060 N   0  0  0  0  0  0  0  0  0  0  0  0
  -27.4132   -1.5311  -10.7740 C   0  0  0  0  0  0  0  0  0  0  0  0
  -28.2661   -0.6605  -10.6516 O   0  0  0  0  0  0  0  0  0  0  0  0
  -26.1530   -2.8952   -9.8927 H   0  0  0  0  0  0  0  0  0  0  0  0
  -29.8020   -5.5129   -7.0526 C   0  0  0  0  0  0  0  0  0  0  0  0
  -29.0954   -4.1977   -7.2139 C   0  0  0  0  0  0  0  0  0  0  0  0
  -29.1035   -3.2646   -6.1735 C   0  0  0  0  0  0  0  0  0  0  0  0
  -28.4659   -2.0387   -6.3346 C   0  0  0  0  0  0  0  0  0  0  0  0
  -27.8068   -1.7402   -7.5262 C   0  0  0  0  0  0  0  0  0  0  0  0
  -27.3248   -0.4971   -7.6448 F   0  0  0  0  0  0  0  0  0  0  0  0
  -27.7401   -2.6691   -8.5738 C   0  0  0  0  0  0  0  0  0  0  0  0
  -28.4170   -3.8911   -8.4100 C   0  0  0  0  0  0  0  0  0  0  0  0
  -23.1737   -0.6532  -12.8968 O   0  0  0  0  0  0  0  0  0  0  0  0
  -22.7772    0.5946  -13.3223 C   0  0  0  0  0  0  0  0  0  0  0  0
  -23.5719    1.7358  -13.2944 C   0  0  0  0  0  0  0  0  0  0  0  0
  -23.0443    2.9066  -13.8087 C   0  0  0  0  0  0  0  0  0  0  0  0
  -21.7894    3.0175  -14.2946 N   0  0  0  0  0  0  0  0  0  0  0  0
  -21.0119    1.9093  -14.2435 C   0  0  0  0  0  0  0  0  0  0  0  0
  -21.4603    0.6893  -13.7610 C   0  0  0  0  0  0  0  0  0  0  0  0
  -19.6659    2.0963  -14.7740 C   0  0  0  0  0  0  0  0  0  0  0  0
  -19.0033    3.2120  -15.2610 C   0  0  0  0  0  0  0  0  0  0  0  0
  -17.6682    2.8416  -15.6138 C   0  0  0  0  0  0  0  0  0  0  0  0
  -17.5754    1.4869  -15.3407 C   0  0  0  0  0  0  0  0  0  0  0  0
  -18.7739    1.0508  -14.8498 N   0  0  0  0  0  0  0  0  0  0  0  0
  -19.0010    0.1064  -14.5598 H   0  0  0  0  0  0  0  0  0  0  0  0
  -16.5682    3.6411  -16.1512 C   0  0  0  0  0  0  0  0  0  0  0  0
  -15.8121    3.2461  -17.0262 O   0  0  0  0  0  0  0  0  0  0  0  0
  -16.4297    4.8760  -15.6036 O   0  0  0  0  0  0  0  0  0  0  0  0
  -17.0926    5.0660  -14.9205 H   0  0  0  0  0  0  0  0  0  0  0  0
 11 12  1  0  0  0
 12 13  1  0  0  0
 12 18  2  0  0  0
 13 14  2  0  0  0
 14 15  1  0  0  0
 15 16  1  0  0  0
 15 17  2  0  0  0
 17  7  1  0  0  0
 17 18  1  0  0  0
  7  8  1  0  0  0
  7 10  1  0  0  0
  8  9  2  0  0  0
  8  1  1  0  0  0
  1  2  1  0  0  0
  1  6  2  0  0  0
  2  3  2  0  0  0
  3  4  1  0  0  0
  4  5  2  0  0  0
  5 19  1  0  0  0
  5  6  1  0  0  0
 19 20  1  0  0  0
 20 21  1  0  0  0
 20 25  2  0  0  0
 21 22  2  0  0  0
 22 23  1  0  0  0
 23 24  2  0  0  0
 24 26  1  0  0  0
 24 25  1  0  0  0
 26 27  2  0  0  0
 26 30  1  0  0  0
 27 28  1  0  0  0
 28 32  1  0  0  0
 28 29  2  0  0  0
 32 33  2  0  0  0
 32 34  1  0  0  0
 34 35  1  0  0  0
 29 30  1  0  0  0
 30 31  1  0  0  0
M  END
> <minimizedAffinity>
-11.24387

$$$$
