CHEMBL3963327


 46 48  0  0  0  0  0  0  0  0999 V2000
  -21.9357   -0.5938  -14.2812 O   0  0  0  0  0  0  0  0  0  0  0  0
  -20.0948    2.5632  -14.8487 C   0  0  0  0  0  0  0  0  0  0  0  0
  -20.3761    1.1952  -14.8557 C   0  0  0  0  0  0  0  0  0  0  0  0
  -21.5828    0.7427  -14.3474 C   0  0  0  0  0  0  0  0  0  0  0  0
  -22.5258    1.6792  -13.9307 C   0  0  0  0  0  0  0  0  0  0  0  0
  -22.1882    3.0225  -13.9918 C   0  0  0  0  0  0  0  0  0  0  0  0
  -20.9950    3.4848  -14.4234 N   0  0  0  0  0  0  0  0  0  0  0  0
  -18.7846    3.0485  -15.4361 C   0  0  0  0  0  0  0  0  0  0  0  0
  -17.8683    1.9458  -15.7755 N   0  0  0  0  0  0  0  0  0  0  0  0
  -18.0230    1.1763  -15.1268 H   0  0  0  0  0  0  0  0  0  0  0  0
  -16.4787    2.3944  -15.6792 C   0  0  0  0  0  0  0  0  0  0  0  0
  -15.6258    1.3077  -15.0408 C   0  0  0  0  0  0  0  0  0  0  0  0
  -16.5064    0.4082  -14.1773 C   0  0  0  0  0  0  0  0  0  0  0  0
  -15.8055    0.0576  -12.8720 C   0  0  0  0  0  0  0  0  0  0  0  0
  -14.9877   -1.2230  -13.0156 C   0  0  0  0  0  0  0  0  0  0  0  0
  -15.9103   -2.4288  -13.1691 C   0  0  0  0  0  0  0  0  0  0  0  0
  -15.9463   -3.2720  -11.9046 C   0  0  0  0  0  0  0  0  0  0  0  0
  -17.0182   -5.3962  -11.3786 O   0  0  0  0  0  0  0  0  0  0  0  0
  -16.4065   -4.6859  -12.1773 C   0  0  0  0  0  0  0  0  0  0  0  0
  -16.0758   -5.1292  -13.4361 N   0  0  0  0  0  0  0  0  0  0  0  0
  -16.4507   -6.4471  -13.7678 O   0  0  0  0  0  0  0  0  0  0  0  0
  -15.5387   -4.6089  -14.1160 H   0  0  0  0  0  0  0  0  0  0  0  0
  -16.9047   -6.7458  -12.9409 H   0  0  0  0  0  0  0  0  0  0  0  0
  -23.0366   -0.9680  -13.5342 C   0  0  0  0  0  0  0  0  0  0  0  0
  -22.9916   -1.1756  -12.1640 C   0  0  0  0  0  0  0  0  0  0  0  0
  -24.1152   -1.6357  -11.4783 C   0  0  0  0  0  0  0  0  0  0  0  0
  -25.3461   -1.8288  -12.1104 C   0  0  0  0  0  0  0  0  0  0  0  0
  -25.4193   -1.5196  -13.4750 C   0  0  0  0  0  0  0  0  0  0  0  0
  -24.2673   -1.1004  -14.1858 C   0  0  0  0  0  0  0  0  0  0  0  0
  -26.4886   -2.3255  -11.4135 N   0  0  0  0  0  0  0  0  0  0  0  0
  -26.8126   -2.0009  -10.1032 C   0  0  0  0  0  0  0  0  0  0  0  0
  -26.1773   -1.2204   -9.3961 O   0  0  0  0  0  0  0  0  0  0  0  0
  -27.9216   -2.6674   -9.5992 N   0  0  0  0  0  0  0  0  0  0  0  0
  -27.1079   -2.9392  -11.9208 H   0  0  0  0  0  0  0  0  0  0  0  0
  -28.0611   -3.5971   -9.9679 H   0  0  0  0  0  0  0  0  0  0  0  0
  -28.2529   -2.4763   -8.2235 C   0  0  0  0  0  0  0  0  0  0  0  0
  -28.3592   -3.5825   -7.3879 C   0  0  0  0  0  0  0  0  0  0  0  0
  -28.5746   -3.3984   -6.0175 C   0  0  0  0  0  0  0  0  0  0  0  0
  -28.6971   -2.1145   -5.4672 C   0  0  0  0  0  0  0  0  0  0  0  0
  -29.0287   -2.0341   -3.7752 Cl  0  0  0  0  0  0  0  0  0  0  0  0
  -28.5620   -0.9862   -6.2791 C   0  0  0  0  0  0  0  0  0  0  0  0
  -28.3740   -1.1905   -7.6682 C   0  0  0  0  0  0  0  0  0  0  0  0
  -28.5444    0.4334   -5.7678 C   0  0  0  0  0  0  0  0  0  0  0  0
  -28.3108    1.4048   -6.6895 F   0  0  0  0  0  0  0  0  0  0  0  0
  -29.7310    0.7795   -5.1883 F   0  0  0  0  0  0  0  0  0  0  0  0
  -27.6012    0.6196   -4.7993 F   0  0  0  0  0  0  0  0  0  0  0  0
 18 19  2  0  0  0
 19 17  1  0  0  0
 19 20  1  0  0  0
 17 16  1  0  0  0
 16 15  1  0  0  0
 15 14  1  0  0  0
 14 13  1  0  0  0
 13 12  1  0  0  0
 12 11  1  0  0  0
 11  9  1  0  0  0
  9  8  1  0  0  0
  9 10  1  0  0  0
  8  2  1  0  0  0
  2  3  1  0  0  0
  2  7  2  0  0  0
  3  4  2  0  0  0
  4  1  1  0  0  0
  4  5  1  0  0  0
  1 24  1  0  0  0
 24 25  1  0  0  0
 24 29  2  0  0  0
 25 26  2  0  0  0
 26 27  1  0  0  0
 27 30  1  0  0  0
 27 28  2  0  0  0
 30 31  1  0  0  0
 30 34  1  0  0  0
 31 32  2  0  0  0
 31 33  1  0  0  0
 33 36  1  0  0  0
 33 35  1  0  0  0
 36 37  1  0  0  0
 36 42  2  0  0  0
 37 38  2  0  0  0
 38 39  1  0  0  0
 39 40  1  0  0  0
 39 41  2  0  0  0
 41 43  1  0  0  0
 41 42  1  0  0  0
 43 44  1  0  0  0
 43 45  1  0  0  0
 43 46  1  0  0  0
 28 29  1  0  0  0
  5  6  2  0  0  0
  6  7  1  0  0  0
 20 21  1  0  0  0
 20 22  1  0  0  0
 21 23  1  0  0  0
M  END
> <minimizedAffinity>
-11.00897

$$$$
