CHEMBL4240970


 26 29  0  0  0  0  0  0  0  0999 V2000
  -28.8065   -5.9059   -6.9237 C   0  0  0  0  0  0  0  0  0  0  0  0
  -28.4859   -6.5728   -5.8001 N   0  0  0  0  0  0  0  0  0  0  0  0
  -28.2001   -5.8498   -4.7068 C   0  0  0  0  0  0  0  0  0  0  0  0
  -28.2552   -4.4815   -4.6910 C   0  0  0  0  0  0  0  0  0  0  0  0
  -28.4341   -3.8673   -5.9198 C   0  0  0  0  0  0  0  0  0  0  0  0
  -28.6995   -4.5658   -7.0428 N   0  0  0  0  0  0  0  0  0  0  0  0
  -28.5847   -2.3994   -5.9447 C   0  0  0  0  0  0  0  0  0  0  0  0
  -27.7631   -1.5557   -6.7003 C   0  0  0  0  0  0  0  0  0  0  0  0
  -27.8977   -0.1649   -6.5948 C   0  0  0  0  0  0  0  0  0  0  0  0
  -28.9242    0.3942   -5.8296 C   0  0  0  0  0  0  0  0  0  0  0  0
  -29.7287   -0.4228   -5.0450 C   0  0  0  0  0  0  0  0  0  0  0  0
  -29.4660   -1.7914   -5.0179 C   0  0  0  0  0  0  0  0  0  0  0  0
  -29.8985   -2.6997   -3.5109 S   0  0  0  0  0  0  0  0  0  0  0  0
  -28.3168   -3.6585   -3.4494 C   0  0  0  0  0  0  0  0  0  0  0  0
  -29.3503   -6.7137   -7.9231 N   0  0  0  0  0  0  0  0  0  0  0  0
  -29.0689   -6.3532   -8.8238 H   0  0  0  0  0  0  0  0  0  0  0  0
  -31.6488  -10.2602   -8.2225 C   0  0  0  0  0  0  0  0  0  0  0  0
  -32.0766   -9.1999   -7.4222 C   0  0  0  0  0  0  0  0  0  0  0  0
  -31.3118   -8.0360   -7.2864 C   0  0  0  0  0  0  0  0  0  0  0  0
  -30.0809   -7.9059   -7.9162 C   0  0  0  0  0  0  0  0  0  0  0  0
  -29.6045   -9.0114   -8.6342 C   0  0  0  0  0  0  0  0  0  0  0  0
  -30.3786  -10.1852   -8.8071 C   0  0  0  0  0  0  0  0  0  0  0  0
  -32.4721  -12.2416   -7.2453 C   0  0  0  0  0  0  0  0  0  0  0  0
  -32.3962  -11.4006   -8.3909 O   0  0  0  0  0  0  0  0  0  0  0  0
  -29.7483  -11.1498   -9.5547 O   0  0  0  0  0  0  0  0  0  0  0  0
  -28.8496  -10.6732  -10.5484 C   0  0  0  0  0  0  0  0  0  0  0  0
 23 24  1  0  0  0
 24 17  1  0  0  0
 17 18  1  0  0  0
 17 22  2  0  0  0
 18 19  2  0  0  0
 19 20  1  0  0  0
 20 15  1  0  0  0
 20 21  2  0  0  0
 15  1  1  0  0  0
 15 16  1  0  0  0
  1  2  1  0  0  0
  1  6  2  0  0  0
  2  3  2  0  0  0
  3  4  1  0  0  0
  4  5  2  0  0  0
  4 14  1  0  0  0
  5  6  1  0  0  0
  5  7  1  0  0  0
  7  8  1  0  0  0
  7 12  2  0  0  0
  8  9  2  0  0  0
  9 10  1  0  0  0
 10 11  2  0  0  0
 11 12  1  0  0  0
 12 13  1  0  0  0
 13 14  1  0  0  0
 21 22  1  0  0  0
 22 25  1  0  0  0
 25 26  1  0  0  0
M  END
> <minimizedAffinity>
-8.49660

$$$$
