CHEMBL194939


 31 34  0  0  0  0  0  0  0  0999 V2000
  -16.1986    1.0470  -14.3656 C   0  0  0  0  0  0  0  0  0  0  0  0
  -16.1198    1.6150  -15.5520 N   0  0  0  0  0  0  0  0  0  0  0  0
  -17.3926    1.9903  -15.8339 C   0  0  0  0  0  0  0  0  0  0  0  0
  -18.2323    1.6564  -14.7909 C   0  0  0  0  0  0  0  0  0  0  0  0
  -17.4699    0.9942  -13.8586 O   0  0  0  0  0  0  0  0  0  0  0  0
  -19.6487    1.8710  -14.5313 C   0  0  0  0  0  0  0  0  0  0  0  0
  -20.2051    3.1336  -14.7964 C   0  0  0  0  0  0  0  0  0  0  0  0
  -21.5588    3.3830  -14.5885 C   0  0  0  0  0  0  0  0  0  0  0  0
  -22.3814    2.3654  -14.1182 C   0  0  0  0  0  0  0  0  0  0  0  0
  -21.8609    1.0912  -13.8480 C   0  0  0  0  0  0  0  0  0  0  0  0
  -20.4860    0.8594  -14.0358 C   0  0  0  0  0  0  0  0  0  0  0  0
  -22.7760    0.0184  -13.4584 C   0  0  0  0  0  0  0  0  0  0  0  0
  -22.7183   -0.7430  -12.2420 C   0  0  0  0  0  0  0  0  0  0  0  0
  -23.7332   -1.6663  -12.1390 C   0  0  0  0  0  0  0  0  0  0  0  0
  -24.7574   -1.6397  -13.5052 S   0  0  0  0  0  0  0  0  0  0  0  0
  -23.8430   -0.3877  -14.2372 C   0  0  0  0  0  0  0  0  0  0  0  0
  -15.1956    0.6277  -13.5694 N   0  0  0  0  0  0  0  0  0  0  0  0
  -15.0325    1.1375  -12.7074 H   0  0  0  0  0  0  0  0  0  0  0  0
  -15.0558   -2.9390  -12.5088 C   0  0  0  0  0  0  0  0  0  0  0  0
  -14.0569   -3.4428  -13.3367 C   0  0  0  0  0  0  0  0  0  0  0  0
  -13.4270   -2.5905  -14.2521 C   0  0  0  0  0  0  0  0  0  0  0  0
  -13.7864   -1.2364  -14.3302 C   0  0  0  0  0  0  0  0  0  0  0  0
  -14.7997   -0.7301  -13.4911 C   0  0  0  0  0  0  0  0  0  0  0  0
  -15.4521   -1.6104  -12.6115 C   0  0  0  0  0  0  0  0  0  0  0  0
  -15.8276   -3.9593  -11.2742 S   0  0  0  0  0  0  0  0  0  0  0  0
  -16.7682   -4.8200  -11.9636 O   0  0  0  0  0  0  0  0  0  0  0  0
  -16.2641   -3.0720  -10.2112 O   0  0  0  0  0  0  0  0  0  0  0  0
  -13.6204   -4.2189   -9.6791 C   0  0  0  0  0  0  0  0  0  0  0  0
  -14.4878   -4.9732  -10.6679 C   0  0  0  0  0  0  0  0  0  0  0  0
  -13.1878   -0.3142  -15.1562 O   0  0  0  0  0  0  0  0  0  0  0  0
  -13.3183   -0.5341  -16.5568 C   0  0  0  0  0  0  0  0  0  0  0  0
 28 29  1  0  0  0
 29 25  1  0  0  0
 25 26  2  0  0  0
 25 27  2  0  0  0
 25 19  1  0  0  0
 19 20  1  0  0  0
 19 24  2  0  0  0
 20 21  2  0  0  0
 21 22  1  0  0  0
 22 30  1  0  0  0
 22 23  2  0  0  0
 30 31  1  0  0  0
 23 17  1  0  0  0
 23 24  1  0  0  0
 17  1  1  0  0  0
 17 18  1  0  0  0
  1  2  2  0  0  0
  1  5  1  0  0  0
  2  3  1  0  0  0
  3  4  2  0  0  0
  4  6  1  0  0  0
  4  5  1  0  0  0
  6  7  1  0  0  0
  6 11  2  0  0  0
  7  8  2  0  0  0
  8  9  1  0  0  0
  9 10  2  0  0  0
 10 12  1  0  0  0
 10 11  1  0  0  0
 12 13  1  0  0  0
 12 16  2  0  0  0
 13 14  2  0  0  0
 14 15  1  0  0  0
 15 16  1  0  0  0
M  END
> <minimizedAffinity>
-9.06806

$$$$
