CHEMBL245362


 25 28  0  0  0  0  0  0  0  0999 V2000
  -28.1594   -1.8230   -7.9839 C   0  0  0  0  0  0  0  0  0  0  0  0
  -27.7038   -0.7620   -7.1822 C   0  0  0  0  0  0  0  0  0  0  0  0
  -27.6897   -0.8376   -5.7742 C   0  0  0  0  0  0  0  0  0  0  0  0
  -28.1371   -1.9797   -5.1185 C   0  0  0  0  0  0  0  0  0  0  0  0
  -28.6123   -3.0024   -5.9071 C   0  0  0  0  0  0  0  0  0  0  0  0
  -28.6463   -2.9522   -7.3304 C   0  0  0  0  0  0  0  0  0  0  0  0
  -29.2093   -4.2450   -7.9484 C   0  0  0  0  0  0  0  0  0  0  0  0
  -29.4433   -5.0048   -6.6875 C   0  0  0  0  0  0  0  0  0  0  0  0
  -29.1081   -4.2812   -5.5370 C   0  0  0  0  0  0  0  0  0  0  0  0
  -29.3027   -4.9355   -4.4031 N   0  0  0  0  0  0  0  0  0  0  0  0
  -29.7789   -6.1251   -4.8491 N   0  0  0  0  0  0  0  0  0  0  0  0
  -29.8782   -6.2198   -6.2245 C   0  0  0  0  0  0  0  0  0  0  0  0
  -30.0040   -6.8341   -4.1611 H   0  0  0  0  0  0  0  0  0  0  0  0
  -30.3512   -7.4037   -6.9898 C   0  0  0  0  0  0  0  0  0  0  0  0
  -31.6749   -7.9343   -6.9572 C   0  0  0  0  0  0  0  0  0  0  0  0
  -31.8191   -9.0336   -7.7761 C   0  0  0  0  0  0  0  0  0  0  0  0
  -30.3640   -9.4306   -8.5792 S   0  0  0  0  0  0  0  0  0  0  0  0
  -29.5372   -8.1265   -7.8362 C   0  0  0  0  0  0  0  0  0  0  0  0
  -27.0120   -1.6421  -10.1896 C   0  0  0  0  0  0  0  0  0  0  0  0
  -25.8465   -1.6418   -9.8050 O   0  0  0  0  0  0  0  0  0  0  0  0
  -28.1410   -1.7733   -9.3958 N   0  0  0  0  0  0  0  0  0  0  0  0
  -29.0129   -1.9554   -9.8736 H   0  0  0  0  0  0  0  0  0  0  0  0
  -27.3193   -1.5234  -11.6710 C   0  0  0  0  0  0  0  0  0  0  0  0
  -26.2811   -1.6261  -13.9860 C   0  0  0  0  0  0  0  0  0  0  0  0
  -26.0843   -1.2495  -12.5239 C   0  0  0  0  0  0  0  0  0  0  0  0
 24 25  1  0  0  0
 25 23  1  0  0  0
 23 19  1  0  0  0
 19 20  2  0  0  0
 19 21  1  0  0  0
 21  1  1  0  0  0
 21 22  1  0  0  0
  1  2  1  0  0  0
  1  6  2  0  0  0
  2  3  2  0  0  0
  3  4  1  0  0  0
  4  5  2  0  0  0
  5  6  1  0  0  0
  5  9  1  0  0  0
  6  7  1  0  0  0
  7  8  1  0  0  0
  8  9  1  0  0  0
  8 12  2  0  0  0
  9 10  2  0  0  0
 10 11  1  0  0  0
 11 12  1  0  0  0
 11 13  1  0  0  0
 12 14  1  0  0  0
 14 15  1  0  0  0
 14 18  2  0  0  0
 15 16  2  0  0  0
 16 17  1  0  0  0
 17 18  1  0  0  0
M  END
> <minimizedAffinity>
-8.56332

$$$$
