CHEMBL50


 27 29  0  0  0  0  0  0  0  0999 V2000
  -30.0220   -6.8202   -3.3046 O   0  0  0  0  0  0  0  0  0  0  0  0
  -29.6387   -6.2292   -4.3093 C   0  0  0  0  0  0  0  0  0  0  0  0
  -29.4155   -4.7682   -4.2031 C   0  0  0  0  0  0  0  0  0  0  0  0
  -29.6097   -4.1916   -2.9603 O   0  0  0  0  0  0  0  0  0  0  0  0
  -29.0259   -4.0879   -5.2908 C   0  0  0  0  0  0  0  0  0  0  0  0
  -28.8333   -4.6487   -6.5410 O   0  0  0  0  0  0  0  0  0  0  0  0
  -28.9837   -6.0112   -6.6745 C   0  0  0  0  0  0  0  0  0  0  0  0
  -28.7204   -6.5404   -7.9419 C   0  0  0  0  0  0  0  0  0  0  0  0
  -28.8258   -7.9132   -8.1419 C   0  0  0  0  0  0  0  0  0  0  0  0
  -28.5712   -8.4808   -9.3538 O   0  0  0  0  0  0  0  0  0  0  0  0
  -29.1916   -8.7623   -7.1030 C   0  0  0  0  0  0  0  0  0  0  0  0
  -29.4627   -8.2309   -5.8420 C   0  0  0  0  0  0  0  0  0  0  0  0
  -29.8131   -9.0795   -4.8316 O   0  0  0  0  0  0  0  0  0  0  0  0
  -29.3647   -6.8503   -5.6208 C   0  0  0  0  0  0  0  0  0  0  0  0
  -29.8682   -4.9416   -2.3816 H   0  0  0  0  0  0  0  0  0  0  0  0
  -28.3058   -7.7887   -9.9829 H   0  0  0  0  0  0  0  0  0  0  0  0
  -29.8240   -9.9966   -5.1501 H   0  0  0  0  0  0  0  0  0  0  0  0
  -28.7250   -2.6514   -5.2153 C   0  0  0  0  0  0  0  0  0  0  0  0
  -27.4092   -2.1956   -5.0277 C   0  0  0  0  0  0  0  0  0  0  0  0
  -27.1207   -0.8248   -5.0405 C   0  0  0  0  0  0  0  0  0  0  0  0
  -28.1533    0.0833   -5.2426 C   0  0  0  0  0  0  0  0  0  0  0  0
  -27.9347    1.4326   -5.2871 O   0  0  0  0  0  0  0  0  0  0  0  0
  -29.4595   -0.3656   -5.4196 C   0  0  0  0  0  0  0  0  0  0  0  0
  -30.4662    0.5334   -5.6318 O   0  0  0  0  0  0  0  0  0  0  0  0
  -29.7562   -1.7211   -5.4037 C   0  0  0  0  0  0  0  0  0  0  0  0
  -26.9819    1.5894   -5.1723 H   0  0  0  0  0  0  0  0  0  0  0  0
  -30.0184    1.4026   -5.6472 H   0  0  0  0  0  0  0  0  0  0  0  0
  1  2  2  0  0  0
  2  3  1  0  0  0
  2 14  1  0  0  0
  3  4  1  0  0  0
  3  5  2  0  0  0
  4 15  1  0  0  0
  5 18  1  0  0  0
  5  6  1  0  0  0
 18 19  1  0  0  0
 18 25  2  0  0  0
 19 20  2  0  0  0
 20 21  1  0  0  0
 21 22  1  0  0  0
 21 23  2  0  0  0
 22 26  1  0  0  0
 23 24  1  0  0  0
 23 25  1  0  0  0
 24 27  1  0  0  0
  6  7  1  0  0  0
  7  8  1  0  0  0
  7 14  2  0  0  0
  8  9  2  0  0  0
  9 10  1  0  0  0
  9 11  1  0  0  0
 10 16  1  0  0  0
 11 12  2  0  0  0
 12 13  1  0  0  0
 12 14  1  0  0  0
 13 17  1  0  0  0
M  END
> <minimizedAffinity>
-9.13873

$$$$
