CHEMBL3593287


 39 43  0  0  0  0  0  0  0  0999 V2000
  -26.6393   -2.0716  -11.0391 C   0  0  0  0  0  0  0  0  0  0  0  0
  -27.2260   -1.5049  -12.0683 N   0  0  0  0  0  0  0  0  0  0  0  0
  -26.3363   -0.8177  -12.8347 C   0  0  0  0  0  0  0  0  0  0  0  0
  -25.0432   -0.7882  -12.3610 C   0  0  0  0  0  0  0  0  0  0  0  0
  -24.9589   -1.6898  -10.9039 S   0  0  0  0  0  0  0  0  0  0  0  0
  -23.9194   -0.0777  -12.9545 C   0  0  0  0  0  0  0  0  0  0  0  0
  -22.9415   -0.8338  -13.6144 C   0  0  0  0  0  0  0  0  0  0  0  0
  -21.8007   -0.2468  -14.1384 C   0  0  0  0  0  0  0  0  0  0  0  0
  -21.6192    1.1243  -14.0118 C   0  0  0  0  0  0  0  0  0  0  0  0
  -22.5899    1.8995  -13.3630 C   0  0  0  0  0  0  0  0  0  0  0  0
  -23.7381    1.3046  -12.8337 C   0  0  0  0  0  0  0  0  0  0  0  0
  -20.4932    1.7754  -14.5104 N   0  0  0  0  0  0  0  0  0  0  0  0
  -20.3913    2.9949  -15.1317 C   0  0  0  0  0  0  0  0  0  0  0  0
  -21.3086    3.7730  -15.3776 O   0  0  0  0  0  0  0  0  0  0  0  0
  -19.1135    3.3811  -15.4495 N   0  0  0  0  0  0  0  0  0  0  0  0
  -19.6184    1.2672  -14.4231 H   0  0  0  0  0  0  0  0  0  0  0  0
  -19.0323    4.3324  -15.7837 H   0  0  0  0  0  0  0  0  0  0  0  0
  -17.9790    2.6017  -15.3811 C   0  0  0  0  0  0  0  0  0  0  0  0
  -16.9830    2.5069  -16.3717 C   0  0  0  0  0  0  0  0  0  0  0  0
  -16.0742    1.6189  -15.8499 C   0  0  0  0  0  0  0  0  0  0  0  0
  -14.7968    1.0449  -16.2939 C   0  0  0  0  0  0  0  0  0  0  0  0
  -16.4989    1.1991  -14.6354 O   0  0  0  0  0  0  0  0  0  0  0  0
  -17.6806    1.8190  -14.3341 N   0  0  0  0  0  0  0  0  0  0  0  0
  -27.2496   -2.9062  -10.1645 N   0  0  0  0  0  0  0  0  0  0  0  0
  -27.7649   -3.7025  -10.5121 H   0  0  0  0  0  0  0  0  0  0  0  0
  -28.1079    0.5778   -7.0105 C   0  0  0  0  0  0  0  0  0  0  0  0
  -28.0920   -0.8801   -7.3479 C   0  0  0  0  0  0  0  0  0  0  0  0
  -27.7310   -1.2229   -8.6052 N   0  0  0  0  0  0  0  0  0  0  0  0
  -27.7011   -2.5319   -8.8887 C   0  0  0  0  0  0  0  0  0  0  0  0
  -28.0920   -3.4528   -7.9438 C   0  0  0  0  0  0  0  0  0  0  0  0
  -28.4635   -3.0291   -6.6867 C   0  0  0  0  0  0  0  0  0  0  0  0
  -28.4393   -1.7346   -6.3630 N   0  0  0  0  0  0  0  0  0  0  0  0
  -28.8383   -4.0273   -5.7892 N   0  0  0  0  0  0  0  0  0  0  0  0
  -30.1037   -3.8857   -5.0706 C   0  0  0  0  0  0  0  0  0  0  0  0
  -30.0903   -4.8971   -3.8890 C   0  0  0  0  0  0  0  0  0  0  0  0
  -29.8660   -6.3024   -4.3226 N   0  0  0  0  0  0  0  0  0  0  0  0
  -29.7463   -7.1856   -3.1615 C   0  0  0  0  0  0  0  0  0  0  0  0
  -28.6358   -6.3835   -5.1441 C   0  0  0  0  0  0  0  0  0  0  0  0
  -28.6467   -5.3875   -6.3217 C   0  0  0  0  0  0  0  0  0  0  0  0
 26 27  1  0  0  0
 27 28  1  0  0  0
 27 32  2  0  0  0
 28 29  2  0  0  0
 29 24  1  0  0  0
 29 30  1  0  0  0
 24  1  1  0  0  0
 24 25  1  0  0  0
  1  2  2  0  0  0
  1  5  1  0  0  0
  2  3  1  0  0  0
  3  4  2  0  0  0
  4  6  1  0  0  0
  4  5  1  0  0  0
  6  7  1  0  0  0
  6 11  2  0  0  0
  7  8  2  0  0  0
  8  9  1  0  0  0
  9 12  1  0  0  0
  9 10  2  0  0  0
 12 13  1  0  0  0
 12 16  1  0  0  0
 13 14  2  0  0  0
 13 15  1  0  0  0
 15 18  1  0  0  0
 15 17  1  0  0  0
 18 19  1  0  0  0
 18 23  2  0  0  0
 19 20  2  0  0  0
 20 21  1  0  0  0
 20 22  1  0  0  0
 22 23  1  0  0  0
 10 11  1  0  0  0
 30 31  2  0  0  0
 31 33  1  0  0  0
 31 32  1  0  0  0
 33 34  1  0  0  0
 33 39  1  0  0  0
 34 35  1  0  0  0
 35 36  1  0  0  0
 36 37  1  0  0  0
 36 38  1  0  0  0
 38 39  1  0  0  0
M  END
> <minimizedAffinity>
-10.10500

$$$$
