CHEMBL261592


 31 35  0  0  0  0  0  0  0  0999 V2000
  -29.0494   -8.0796   -4.4491 C   0  0  0  0  0  0  0  0  0  0  0  0
  -28.6989   -8.6811   -3.3483 N   0  0  0  0  0  0  0  0  0  0  0  0
  -28.0612   -9.8844   -3.3752 C   0  0  0  0  0  0  0  0  0  0  0  0
  -27.7538  -10.5629   -4.4258 N   0  0  0  0  0  0  0  0  0  0  0  0
  -28.0887   -9.9602   -5.5725 N   0  0  0  0  0  0  0  0  0  0  0  0
  -27.8403  -10.4964   -6.7941 C   0  0  0  0  0  0  0  0  0  0  0  0
  -28.1882   -9.5700   -7.7454 C   0  0  0  0  0  0  0  0  0  0  0  0
  -28.8151   -8.4547   -7.0729 C   0  0  0  0  0  0  0  0  0  0  0  0
  -28.6955   -8.7328   -5.6987 C   0  0  0  0  0  0  0  0  0  0  0  0
  -27.8881   -9.7920   -9.1955 C   0  0  0  0  0  0  0  0  0  0  0  0
  -26.6671   -9.7650   -9.7018 N   0  0  0  0  0  0  0  0  0  0  0  0
  -26.7876   -9.9177  -11.0666 N   0  0  0  0  0  0  0  0  0  0  0  0
  -28.0716  -10.0183  -11.3080 C   0  0  0  0  0  0  0  0  0  0  0  0
  -28.7795  -10.1287  -12.5956 C   0  0  0  0  0  0  0  0  0  0  0  0
  -28.8357   -9.9699  -10.1765 O   0  0  0  0  0  0  0  0  0  0  0  0
  -29.4543   -7.2897   -7.8049 C   0  0  0  0  0  0  0  0  0  0  0  0
  -30.9249   -7.0740   -7.4446 C   0  0  0  0  0  0  0  0  0  0  0  0
  -28.6275   -6.0059   -7.7725 C   0  0  0  0  0  0  0  0  0  0  0  0
  -29.7099   -6.8723   -4.3788 N   0  0  0  0  0  0  0  0  0  0  0  0
  -30.7013   -6.9031   -4.2226 H   0  0  0  0  0  0  0  0  0  0  0  0
  -28.8570    0.4178   -5.3519 C   0  0  0  0  0  0  0  0  0  0  0  0
  -28.9418   -1.0108   -4.9667 C   0  0  0  0  0  0  0  0  0  0  0  0
  -30.0158   -1.8829   -4.9288 C   0  0  0  0  0  0  0  0  0  0  0  0
  -29.5101   -3.1826   -4.6545 C   0  0  0  0  0  0  0  0  0  0  0  0
  -30.0440   -4.4825   -4.5878 C   0  0  0  0  0  0  0  0  0  0  0  0
  -29.1758   -5.5653   -4.3610 C   0  0  0  0  0  0  0  0  0  0  0  0
  -27.8235   -5.2499   -4.1744 C   0  0  0  0  0  0  0  0  0  0  0  0
  -27.2556   -4.0132   -4.1934 N   0  0  0  0  0  0  0  0  0  0  0  0
  -28.1449   -3.0442   -4.4542 C   0  0  0  0  0  0  0  0  0  0  0  0
  -27.8251   -1.7240   -4.5983 N   0  0  0  0  0  0  0  0  0  0  0  0
  -26.8829   -1.3708   -4.5172 H   0  0  0  0  0  0  0  0  0  0  0  0
 21 22  1  0  0  0
 22 23  2  0  0  0
 22 30  1  0  0  0
 23 24  1  0  0  0
 24 25  1  0  0  0
 24 29  2  0  0  0
 25 26  2  0  0  0
 26 19  1  0  0  0
 26 27  1  0  0  0
 19  1  1  0  0  0
 19 20  1  0  0  0
  1  2  2  0  0  0
  1  9  1  0  0  0
  2  3  1  0  0  0
  3  4  2  0  0  0
  4  5  1  0  0  0
  5  6  1  0  0  0
  5  9  1  0  0  0
  6  7  2  0  0  0
  7 10  1  0  0  0
  7  8  1  0  0  0
 10 11  2  0  0  0
 10 15  1  0  0  0
 11 12  1  0  0  0
 12 13  2  0  0  0
 13 14  1  0  0  0
 13 15  1  0  0  0
  8 16  1  0  0  0
  8  9  2  0  0  0
 16 17  1  0  0  0
 16 18  1  0  0  0
 27 28  2  0  0  0
 28 29  1  0  0  0
 29 30  1  0  0  0
 30 31  1  0  0  0
M  END
> <minimizedAffinity>
-9.05535

$$$$
