CHEMBL380068


 42 47  0  0  0  0  0  0  0  0999 V2000
  -23.8605   -1.1293  -12.2051 C   0  0  0  0  0  0  0  0  0  0  0  0
  -23.3170   -1.7168  -13.3283 C   0  0  0  0  0  0  0  0  0  0  0  0
  -22.4183   -0.8589  -14.0007 C   0  0  0  0  0  0  0  0  0  0  0  0
  -22.3952    0.4293  -13.4791 C   0  0  0  0  0  0  0  0  0  0  0  0
  -23.4533    0.5436  -12.1369 S   0  0  0  0  0  0  0  0  0  0  0  0
  -21.6114    1.5258  -13.9879 C   0  0  0  0  0  0  0  0  0  0  0  0
  -22.0548    2.8097  -14.2490 N   0  0  0  0  0  0  0  0  0  0  0  0
  -21.1101    3.6329  -14.7987 N   0  0  0  0  0  0  0  0  0  0  0  0
  -20.0479    2.8437  -14.8488 C   0  0  0  0  0  0  0  0  0  0  0  0
  -20.2861    1.5612  -14.3447 C   0  0  0  0  0  0  0  0  0  0  0  0
  -19.1066    0.6587  -14.3957 C   0  0  0  0  0  0  0  0  0  0  0  0
  -18.1421    1.6321  -15.0671 C   0  0  0  0  0  0  0  0  0  0  0  0
  -16.8352    1.3527  -15.4297 C   0  0  0  0  0  0  0  0  0  0  0  0
  -16.0816    2.3588  -16.0571 C   0  0  0  0  0  0  0  0  0  0  0  0
  -16.6666    3.6246  -16.3105 C   0  0  0  0  0  0  0  0  0  0  0  0
  -17.9896    3.9111  -15.9401 C   0  0  0  0  0  0  0  0  0  0  0  0
  -18.7046    2.9093  -15.3210 C   0  0  0  0  0  0  0  0  0  0  0  0
  -22.9834    3.1853  -14.0964 H   0  0  0  0  0  0  0  0  0  0  0  0
  -14.6431    2.0795  -16.4601 C   0  0  0  0  0  0  0  0  0  0  0  0
  -14.5228    1.1561  -17.5962 N   0  0  0  0  0  0  0  0  0  0  0  0
  -13.9621    1.8120  -18.7915 C   0  0  0  0  0  0  0  0  0  0  0  0
  -13.8609    0.8242  -19.9764 C   0  0  0  0  0  0  0  0  0  0  0  0
  -13.0683   -0.3904  -19.6972 N   0  0  0  0  0  0  0  0  0  0  0  0
  -11.6377   -0.0983  -19.6667 C   0  0  0  0  0  0  0  0  0  0  0  0
  -13.5364   -0.9935  -18.4355 C   0  0  0  0  0  0  0  0  0  0  0  0
  -13.6892   -0.0027  -17.2446 C   0  0  0  0  0  0  0  0  0  0  0  0
  -24.7666   -1.7586  -11.1777 C   0  0  0  0  0  0  0  0  0  0  0  0
  -26.1431   -1.2304  -11.2566 N   0  0  0  0  0  0  0  0  0  0  0  0
  -27.1571   -1.5945  -10.3651 C   0  0  0  0  0  0  0  0  0  0  0  0
  -28.3365   -1.4803  -10.6990 O   0  0  0  0  0  0  0  0  0  0  0  0
  -26.7640   -2.0456   -9.1216 N   0  0  0  0  0  0  0  0  0  0  0  0
  -25.8471   -1.7727   -8.8068 H   0  0  0  0  0  0  0  0  0  0  0  0
  -27.6765   -2.3948   -8.0867 C   0  0  0  0  0  0  0  0  0  0  0  0
  -28.4128   -3.5837   -8.0891 C   0  0  0  0  0  0  0  0  0  0  0  0
  -29.4301   -3.8049   -7.1623 C   0  0  0  0  0  0  0  0  0  0  0  0
  -29.7039   -2.8385   -6.2023 C   0  0  0  0  0  0  0  0  0  0  0  0
  -28.9424   -1.6685   -6.1441 C   0  0  0  0  0  0  0  0  0  0  0  0
  -29.2850   -0.5985   -5.1398 C   0  0  0  0  0  0  0  0  0  0  0  0
  -27.9020   -1.4691   -7.0645 C   0  0  0  0  0  0  0  0  0  0  0  0
  -26.6566   -0.7960  -12.5758 C   0  0  0  0  0  0  0  0  0  0  0  0
  -28.2869   -2.3111  -13.9144 C   0  0  0  0  0  0  0  0  0  0  0  0
  -26.8482   -1.9209  -13.6140 C   0  0  0  0  0  0  0  0  0  0  0  0
 41 42  1  0  0  0
 42 40  1  0  0  0
 40 28  1  0  0  0
 28 27  1  0  0  0
 28 29  1  0  0  0
 27  1  1  0  0  0
  1  2  2  0  0  0
  1  5  1  0  0  0
  2  3  1  0  0  0
  3  4  2  0  0  0
  4  6  1  0  0  0
  4  5  1  0  0  0
  6  7  1  0  0  0
  6 10  2  0  0  0
  7  8  1  0  0  0
  7 18  1  0  0  0
  8  9  2  0  0  0
  9 10  1  0  0  0
  9 17  1  0  0  0
 10 11  1  0  0  0
 11 12  1  0  0  0
 12 13  1  0  0  0
 12 17  2  0  0  0
 13 14  2  0  0  0
 14 19  1  0  0  0
 14 15  1  0  0  0
 19 20  1  0  0  0
 20 21  1  0  0  0
 20 26  1  0  0  0
 21 22  1  0  0  0
 22 23  1  0  0  0
 23 24  1  0  0  0
 23 25  1  0  0  0
 25 26  1  0  0  0
 15 16  2  0  0  0
 16 17  1  0  0  0
 29 30  2  0  0  0
 29 31  1  0  0  0
 31 33  1  0  0  0
 31 32  1  0  0  0
 33 34  1  0  0  0
 33 39  2  0  0  0
 34 35  2  0  0  0
 35 36  1  0  0  0
 36 37  2  0  0  0
 37 38  1  0  0  0
 37 39  1  0  0  0
M  END
> <minimizedAffinity>
-10.87484

$$$$
