CHEMBL4784961


 43 48  0  0  0  0  0  0  0  0999 V2000
  -29.2859   -6.5652   -4.8599 C   0  0  0  0  0  0  0  0  0  0  0  0
  -30.3472   -6.9229   -5.5884 N   0  0  0  0  0  0  0  0  0  0  0  0
  -30.2854   -8.1426   -6.1463 C   0  0  0  0  0  0  0  0  0  0  0  0
  -29.2199   -8.9985   -5.9711 C   0  0  0  0  0  0  0  0  0  0  0  0
  -28.1733   -8.5587   -5.1894 C   0  0  0  0  0  0  0  0  0  0  0  0
  -28.1763   -7.3057   -4.7019 N   0  0  0  0  0  0  0  0  0  0  0  0
  -29.2774   -2.9928   -4.3938 N   0  0  0  0  0  0  0  0  0  0  0  0
  -29.1896   -4.1996   -5.0985 C   0  0  0  0  0  0  0  0  0  0  0  0
  -29.1546   -4.3076   -6.3195 O   0  0  0  0  0  0  0  0  0  0  0  0
  -29.2462   -5.2969   -4.2523 N   0  0  0  0  0  0  0  0  0  0  0  0
  -29.2554   -3.0574   -3.3867 H   0  0  0  0  0  0  0  0  0  0  0  0
  -30.0147   -5.2166   -3.6077 H   0  0  0  0  0  0  0  0  0  0  0  0
  -26.8230   -1.3970   -5.0253 C   0  0  0  0  0  0  0  0  0  0  0  0
  -28.2327   -0.9183   -5.2505 C   0  0  0  0  0  0  0  0  0  0  0  0
  -28.3837    0.3845   -5.7799 C   0  0  0  0  0  0  0  0  0  0  0  0
  -29.6441    0.9254   -6.0175 C   0  0  0  0  0  0  0  0  0  0  0  0
  -29.8024    2.5255   -6.6266 Cl  0  0  0  0  0  0  0  0  0  0  0  0
  -30.7737    0.1716   -5.7582 C   0  0  0  0  0  0  0  0  0  0  0  0
  -30.6395   -1.1221   -5.2449 C   0  0  0  0  0  0  0  0  0  0  0  0
  -29.3873   -1.6907   -4.9614 C   0  0  0  0  0  0  0  0  0  0  0  0
  -27.1133   -9.3812   -4.8723 N   0  0  0  0  0  0  0  0  0  0  0  0
  -26.5477   -9.5269   -3.5097 C   0  0  0  0  0  0  0  0  0  0  0  0
  -24.9939   -9.4544   -3.5142 C   0  0  0  0  0  0  0  0  0  0  0  0
  -24.4956  -10.3982   -4.5150 N   0  0  0  0  0  0  0  0  0  0  0  0
  -24.9483  -10.0979   -5.8785 C   0  0  0  0  0  0  0  0  0  0  0  0
  -26.4864  -10.2127   -5.9200 C   0  0  0  0  0  0  0  0  0  0  0  0
  -23.3536  -11.1301   -4.2841 C   0  0  0  0  0  0  0  0  0  0  0  0
  -22.9365  -11.3621   -2.9713 C   0  0  0  0  0  0  0  0  0  0  0  0
  -21.7393  -12.0254   -2.7171 C   0  0  0  0  0  0  0  0  0  0  0  0
  -20.9785  -12.4660   -3.7844 C   0  0  0  0  0  0  0  0  0  0  0  0
  -21.4449  -12.1991   -5.0590 C   0  0  0  0  0  0  0  0  0  0  0  0
  -22.5969  -11.5367   -5.3249 N   0  0  0  0  0  0  0  0  0  0  0  0
  -31.6087   -8.6572   -7.2418 S   0  0  0  0  0  0  0  0  0  0  0  0
  -30.9896  -10.0766   -8.0602 C   0  0  0  0  0  0  0  0  0  0  0  0
  -31.5267  -11.3421   -8.0631 C   0  0  0  0  0  0  0  0  0  0  0  0
  -30.7571  -12.1237   -8.8785 N   0  0  0  0  0  0  0  0  0  0  0  0
  -29.7118  -11.3990   -9.3964 C   0  0  0  0  0  0  0  0  0  0  0  0
  -28.6993  -11.7900  -10.2824 C   0  0  0  0  0  0  0  0  0  0  0  0
  -27.7536  -10.8314  -10.6530 C   0  0  0  0  0  0  0  0  0  0  0  0
  -27.8178   -9.5343  -10.1533 C   0  0  0  0  0  0  0  0  0  0  0  0
  -28.8422   -9.1559   -9.2733 C   0  0  0  0  0  0  0  0  0  0  0  0
  -29.8189  -10.1018   -8.8855 C   0  0  0  0  0  0  0  0  0  0  0  0
  -30.9431  -13.0978   -9.0898 H   0  0  0  0  0  0  0  0  0  0  0  0
 13 14  1  0  0  0
 14 15  1  0  0  0
 14 20  2  0  0  0
 15 16  2  0  0  0
 16 17  1  0  0  0
 16 18  1  0  0  0
 18 19  2  0  0  0
 19 20  1  0  0  0
 20  7  1  0  0  0
  7  8  1  0  0  0
  7 11  1  0  0  0
  8  9  2  0  0  0
  8 10  1  0  0  0
 10  1  1  0  0  0
 10 12  1  0  0  0
  1  2  1  0  0  0
  1  6  2  0  0  0
  2  3  2  0  0  0
  3 33  1  0  0  0
  3  4  1  0  0  0
 33 34  1  0  0  0
 34 35  2  0  0  0
 34 42  1  0  0  0
 35 36  1  0  0  0
 36 37  1  0  0  0
 36 43  1  0  0  0
 37 38  1  0  0  0
 37 42  2  0  0  0
 38 39  2  0  0  0
 39 40  1  0  0  0
 40 41  2  0  0  0
 41 42  1  0  0  0
  4  5  2  0  0  0
  5 21  1  0  0  0
  5  6  1  0  0  0
 21 22  1  0  0  0
 21 26  1  0  0  0
 22 23  1  0  0  0
 23 24  1  0  0  0
 24 27  1  0  0  0
 24 25  1  0  0  0
 27 28  1  0  0  0
 27 32  2  0  0  0
 28 29  2  0  0  0
 29 30  1  0  0  0
 30 31  2  0  0  0
 31 32  1  0  0  0
 25 26  1  0  0  0
M  END
> <minimizedAffinity>
-8.21228

$$$$
