CHEMBL2409779


 34 38  0  0  0  0  0  0  0  0999 V2000
  -27.8304   -2.4770   -8.2874 C   0  0  0  0  0  0  0  0  0  0  0  0
  -27.9605   -1.4737   -7.3201 C   0  0  0  0  0  0  0  0  0  0  0  0
  -28.6678   -1.6841   -6.1416 C   0  0  0  0  0  0  0  0  0  0  0  0
  -29.3024   -2.8973   -5.9316 C   0  0  0  0  0  0  0  0  0  0  0  0
  -29.3228   -3.8604   -6.9454 C   0  0  0  0  0  0  0  0  0  0  0  0
  -28.5577   -3.6656   -8.1118 C   0  0  0  0  0  0  0  0  0  0  0  0
  -27.3024   -1.5238  -10.5248 C   0  0  0  0  0  0  0  0  0  0  0  0
  -28.3320   -0.8541  -10.5776 O   0  0  0  0  0  0  0  0  0  0  0  0
  -26.9837   -2.3180   -9.4216 N   0  0  0  0  0  0  0  0  0  0  0  0
  -26.0446   -2.6811   -9.3567 H   0  0  0  0  0  0  0  0  0  0  0  0
  -23.2522   -1.0559  -13.5828 C   0  0  0  0  0  0  0  0  0  0  0  0
  -24.5896   -1.2833  -12.9854 C   0  0  0  0  0  0  0  0  0  0  0  0
  -24.9983   -1.1441  -11.6384 C   0  0  0  0  0  0  0  0  0  0  0  0
  -26.3454   -1.4768  -11.6114 C   0  0  0  0  0  0  0  0  0  0  0  0
  -26.6451   -1.7951  -12.9261 N   0  0  0  0  0  0  0  0  0  0  0  0
  -27.8870   -2.2261  -13.5284 C   0  0  0  0  0  0  0  0  0  0  0  0
  -25.5934   -1.6782  -13.7602 N   0  0  0  0  0  0  0  0  0  0  0  0
  -30.0346   -5.0422   -6.8392 O   0  0  0  0  0  0  0  0  0  0  0  0
  -29.6899   -6.0106   -5.8932 C   0  0  0  0  0  0  0  0  0  0  0  0
  -30.3395   -6.0367   -4.5788 C   0  0  0  0  0  0  0  0  0  0  0  0
  -29.9654   -6.9033   -3.6202 C   0  0  0  0  0  0  0  0  0  0  0  0
  -28.9825   -7.8842   -3.9069 C   0  0  0  0  0  0  0  0  0  0  0  0
  -28.4726   -8.8327   -3.1589 N   0  0  0  0  0  0  0  0  0  0  0  0
  -27.6122   -9.5192   -3.9609 C   0  0  0  0  0  0  0  0  0  0  0  0
  -27.5819   -8.9758   -5.2283 C   0  0  0  0  0  0  0  0  0  0  0  0
  -28.4543   -7.9079   -5.1910 N   0  0  0  0  0  0  0  0  0  0  0  0
  -28.7952   -6.9791   -6.1774 C   0  0  0  0  0  0  0  0  0  0  0  0
  -26.8965  -10.6158   -3.5340 N   0  0  0  0  0  0  0  0  0  0  0  0
  -25.5526  -10.5728   -3.2161 C   0  0  0  0  0  0  0  0  0  0  0  0
  -24.7932   -9.6166   -3.2805 O   0  0  0  0  0  0  0  0  0  0  0  0
  -27.4001  -11.4819   -3.4379 H   0  0  0  0  0  0  0  0  0  0  0  0
  -25.0248  -11.8806   -2.7059 C   0  0  0  0  0  0  0  0  0  0  0  0
  -25.6382  -12.4654   -1.4527 C   0  0  0  0  0  0  0  0  0  0  0  0
  -24.2290  -11.9540   -1.4183 C   0  0  0  0  0  0  0  0  0  0  0  0
 11 12  1  0  0  0
 12 13  1  0  0  0
 12 17  2  0  0  0
 13 14  2  0  0  0
 14  7  1  0  0  0
 14 15  1  0  0  0
  7  8  2  0  0  0
  7  9  1  0  0  0
  9  1  1  0  0  0
  9 10  1  0  0  0
  1  2  1  0  0  0
  1  6  2  0  0  0
  2  3  2  0  0  0
  3  4  1  0  0  0
  4  5  2  0  0  0
  5 18  1  0  0  0
  5  6  1  0  0  0
 18 19  1  0  0  0
 19 20  1  0  0  0
 19 27  2  0  0  0
 20 21  2  0  0  0
 21 22  1  0  0  0
 22 23  2  0  0  0
 22 26  1  0  0  0
 23 24  1  0  0  0
 24 28  1  0  0  0
 24 25  2  0  0  0
 28 29  1  0  0  0
 28 31  1  0  0  0
 29 30  2  0  0  0
 29 32  1  0  0  0
 32 33  1  0  0  0
 32 34  1  0  0  0
 33 34  1  0  0  0
 25 26  1  0  0  0
 26 27  1  0  0  0
 15 16  1  0  0  0
 15 17  1  0  0  0
M  END
> <minimizedAffinity>
-9.76888

$$$$
