CHEMBL3648124


 30 31  0  0  0  0  0  0  0  0999 V2000
  -14.3858    0.6129  -14.6628 C   0  0  0  0  0  0  0  0  0  0  0  0
  -13.6613    0.9845  -15.7275 N   0  0  0  0  0  0  0  0  0  0  0  0
  -14.1235    2.0030  -16.4634 C   0  0  0  0  0  0  0  0  0  0  0  0
  -15.2947    2.6599  -16.1816 C   0  0  0  0  0  0  0  0  0  0  0  0
  -15.8056    4.1420  -17.2324 Br  0  0  0  0  0  0  0  0  0  0  0  0
  -16.0539    2.1485  -15.1330 C   0  0  0  0  0  0  0  0  0  0  0  0
  -15.5973    1.1277  -14.3704 N   0  0  0  0  0  0  0  0  0  0  0  0
  -13.8320   -0.3239  -13.7735 N   0  0  0  0  0  0  0  0  0  0  0  0
  -12.8313   -0.3362  -13.9252 H   0  0  0  0  0  0  0  0  0  0  0  0
  -15.4362   -4.1730  -13.0658 C   0  0  0  0  0  0  0  0  0  0  0  0
  -15.8940   -3.0895  -12.3170 C   0  0  0  0  0  0  0  0  0  0  0  0
  -15.3693   -1.8180  -12.5532 C   0  0  0  0  0  0  0  0  0  0  0  0
  -14.3684   -1.6067  -13.5149 C   0  0  0  0  0  0  0  0  0  0  0  0
  -13.9413   -2.7031  -14.2771 C   0  0  0  0  0  0  0  0  0  0  0  0
  -14.4547   -3.9856  -14.0436 C   0  0  0  0  0  0  0  0  0  0  0  0
  -16.0966   -5.8076  -12.7704 S   0  0  0  0  0  0  0  0  0  0  0  0
  -16.4346   -6.4076  -14.1515 N   0  0  0  0  0  0  0  0  0  0  0  0
  -17.0502   -5.6668  -11.6945 O   0  0  0  0  0  0  0  0  0  0  0  0
  -16.9376   -7.2957  -14.0499 H   0  0  0  0  0  0  0  0  0  0  0  0
  -14.0927   -6.0423  -10.9060 C   0  0  0  0  0  0  0  0  0  0  0  0
  -14.6796   -6.7011  -12.1402 C   0  0  0  0  0  0  0  0  0  0  0  0
  -17.3249    2.7014  -14.8863 N   0  0  0  0  0  0  0  0  0  0  0  0
  -17.4122    2.9438  -13.9014 H   0  0  0  0  0  0  0  0  0  0  0  0
  -18.5235    2.0754  -15.4817 C   0  0  0  0  0  0  0  0  0  0  0  0
  -18.4433    0.5575  -15.2407 C   0  0  0  0  0  0  0  0  0  0  0  0
  -19.8061    2.6950  -14.8099 C   0  0  0  0  0  0  0  0  0  0  0  0
  -20.7746    3.2774  -15.8475 C   0  0  0  0  0  0  0  0  0  0  0  0
  -20.5658    1.6849  -13.9429 C   0  0  0  0  0  0  0  0  0  0  0  0
  -19.4169    3.7755  -13.9424 O   0  0  0  0  0  0  0  0  0  0  0  0
  -18.8798    4.3699  -14.5011 H   0  0  0  0  0  0  0  0  0  0  0  0
 20 21  1  0  0  0
 21 16  1  0  0  0
 16 17  2  0  0  0
 16 18  2  0  0  0
 16 10  1  0  0  0
 17 19  1  0  0  0
 10 11  1  0  0  0
 10 15  2  0  0  0
 11 12  2  0  0  0
 12 13  1  0  0  0
 13  8  1  0  0  0
 13 14  2  0  0  0
  8  1  1  0  0  0
  8  9  1  0  0  0
  1  2  1  0  0  0
  1  7  2  0  0  0
  2  3  2  0  0  0
  3  4  1  0  0  0
  4  5  1  0  0  0
  4  6  2  0  0  0
  6 22  1  0  0  0
  6  7  1  0  0  0
 22 24  1  0  0  0
 22 23  1  0  0  0
 24 25  1  0  0  0
 24 26  1  0  0  0
 26 27  1  0  0  0
 26 28  1  0  0  0
 26 29  1  0  0  0
 29 30  1  0  0  0
 14 15  1  0  0  0
M  END
> <minimizedAffinity>
-7.03170

$$$$
