CHEMBL404497


 30 35  0  0  0  0  0  0  0  0999 V2000
  -20.7802    1.6675  -14.5485 C   0  0  0  0  0  0  0  0  0  0  0  0
  -20.9750    2.9231  -15.1310 C   0  0  0  0  0  0  0  0  0  0  0  0
  -19.9097    3.6051  -15.6796 C   0  0  0  0  0  0  0  0  0  0  0  0
  -18.6732    2.9773  -15.5753 C   0  0  0  0  0  0  0  0  0  0  0  0
  -17.4749    3.4509  -16.0168 N   0  0  0  0  0  0  0  0  0  0  0  0
  -16.4672    2.5597  -15.7666 C   0  0  0  0  0  0  0  0  0  0  0  0
  -15.1099    2.4438  -16.0990 C   0  0  0  0  0  0  0  0  0  0  0  0
  -13.5706    1.9645  -16.3490 C   0  0  0  0  0  0  0  0  0  0  0  0
  -14.4997    0.7457  -15.4482 C   0  0  0  0  0  0  0  0  0  0  0  0
  -16.1198    0.5455  -15.0022 C   0  0  0  0  0  0  0  0  0  0  0  0
  -17.0657    1.5357  -15.2179 C   0  0  0  0  0  0  0  0  0  0  0  0
  -18.4231    1.7221  -15.0068 C   0  0  0  0  0  0  0  0  0  0  0  0
  -19.5156    1.0508  -14.4694 C   0  0  0  0  0  0  0  0  0  0  0  0
  -16.5580   -0.5941  -14.2227 C   0  0  0  0  0  0  0  0  0  0  0  0
  -15.2823   -1.0874  -13.8739 N   0  0  0  0  0  0  0  0  0  0  0  0
  -14.1336   -0.6343  -14.6718 C   0  0  0  0  0  0  0  0  0  0  0  0
  -13.1606   -1.3892  -14.6476 O   0  0  0  0  0  0  0  0  0  0  0  0
  -12.8441    3.5211  -17.4063 C   0  0  0  0  0  0  0  0  0  0  0  0
  -12.3115    4.8174  -18.2504 C   0  0  0  0  0  0  0  0  0  0  0  0
  -13.0155    6.2240  -18.5076 N   0  0  0  0  0  0  0  0  0  0  0  0
  -13.0820    7.5751  -19.1545 C   0  0  0  0  0  0  0  0  0  0  0  0
  -14.0911    6.1117  -17.8561 N   0  0  0  0  0  0  0  0  0  0  0  0
  -14.0747    4.8526  -17.5730 C   0  0  0  0  0  0  0  0  0  0  0  0
  -15.4382    4.6920  -17.2061 C   0  0  0  0  0  0  0  0  0  0  0  0
  -14.8606    3.5535  -16.7559 C   0  0  0  0  0  0  0  0  0  0  0  0
  -17.4247    4.3027  -16.5528 H   0  0  0  0  0  0  0  0  0  0  0  0
  -15.2954   -1.9168  -13.2875 H   0  0  0  0  0  0  0  0  0  0  0  0
  -23.1099    1.7399  -13.5435 C   0  0  0  0  0  0  0  0  0  0  0  0
  -21.9343    0.9286  -14.0134 C   0  0  0  0  0  0  0  0  0  0  0  0
  -21.9244   -0.2981  -14.0258 O   0  0  0  0  0  0  0  0  0  0  0  0
 28 29  1  0  0  0
 29 30  2  0  0  0
 29  1  1  0  0  0
  1  2  1  0  0  0
  1 13  2  0  0  0
  2  3  2  0  0  0
  3  4  1  0  0  0
  4  5  1  0  0  0
  4 12  2  0  0  0
  5  6  1  0  0  0
  5 26  1  0  0  0
  6  7  1  0  0  0
  6 11  2  0  0  0
  7  8  2  0  0  0
  7 25  1  0  0  0
  8  9  1  0  0  0
  8 18  1  0  0  0
  9 10  2  0  0  0
  9 16  1  0  0  0
 10 11  1  0  0  0
 10 14  1  0  0  0
 11 12  1  0  0  0
 12 13  1  0  0  0
 14 15  1  0  0  0
 15 16  1  0  0  0
 15 27  1  0  0  0
 16 17  2  0  0  0
 18 19  2  0  0  0
 18 23  1  0  0  0
 19 20  1  0  0  0
 20 21  1  0  0  0
 20 22  1  0  0  0
 22 23  2  0  0  0
 23 24  1  0  0  0
 24 25  1  0  0  0
M  END
> <minimizedAffinity>
-8.81542

$$$$
