CHEMBL169757


 24 27  0  0  0  0  0  0  0  0999 V2000
  -29.2546   -6.7963   -2.8645 N   0  0  0  0  0  0  0  0  0  0  0  0
  -29.0508   -7.6964   -3.9032 C   0  0  0  0  0  0  0  0  0  0  0  0
  -28.9746   -8.9873   -3.5308 N   0  0  0  0  0  0  0  0  0  0  0  0
  -28.8025   -9.9170   -4.4792 C   0  0  0  0  0  0  0  0  0  0  0  0
  -28.7167   -9.7313   -5.7969 N   0  0  0  0  0  0  0  0  0  0  0  0
  -28.7870   -8.4297   -6.1478 C   0  0  0  0  0  0  0  0  0  0  0  0
  -28.9289   -7.3563   -5.2655 C   0  0  0  0  0  0  0  0  0  0  0  0
  -28.9021   -6.1582   -6.0573 C   0  0  0  0  0  0  0  0  0  0  0  0
  -28.7108   -6.5583   -7.3686 C   0  0  0  0  0  0  0  0  0  0  0  0
  -28.6603   -7.9370   -7.4393 N   0  0  0  0  0  0  0  0  0  0  0  0
  -29.5055   -7.2993   -2.0204 H   0  0  0  0  0  0  0  0  0  0  0  0
  -29.8577   -6.0230   -3.1080 H   0  0  0  0  0  0  0  0  0  0  0  0
  -29.0058   -4.7434   -5.6981 C   0  0  0  0  0  0  0  0  0  0  0  0
  -28.1029   -4.1567   -4.8045 C   0  0  0  0  0  0  0  0  0  0  0  0
  -28.2336   -2.8181   -4.4232 C   0  0  0  0  0  0  0  0  0  0  0  0
  -29.2345   -2.0278   -4.9799 C   0  0  0  0  0  0  0  0  0  0  0  0
  -30.1111   -2.5787   -5.9102 C   0  0  0  0  0  0  0  0  0  0  0  0
  -30.0073   -3.9302   -6.2550 C   0  0  0  0  0  0  0  0  0  0  0  0
  -28.4819   -8.6872   -8.6414 C   0  0  0  0  0  0  0  0  0  0  0  0
  -27.2271   -8.7151   -9.2678 C   0  0  0  0  0  0  0  0  0  0  0  0
  -27.0361   -9.4751  -10.4246 C   0  0  0  0  0  0  0  0  0  0  0  0
  -28.0973  -10.1862  -10.9786 C   0  0  0  0  0  0  0  0  0  0  0  0
  -29.3532  -10.1444  -10.3749 C   0  0  0  0  0  0  0  0  0  0  0  0
  -29.5448   -9.4051   -9.2046 C   0  0  0  0  0  0  0  0  0  0  0  0
  1  2  1  0  0  0
  1 11  1  0  0  0
  1 12  1  0  0  0
  2  3  1  0  0  0
  2  7  2  0  0  0
  3  4  2  0  0  0
  4  5  1  0  0  0
  5  6  2  0  0  0
  6  7  1  0  0  0
  6 10  1  0  0  0
  7  8  1  0  0  0
  8 13  1  0  0  0
  8  9  2  0  0  0
 13 14  1  0  0  0
 13 18  2  0  0  0
 14 15  2  0  0  0
 15 16  1  0  0  0
 16 17  2  0  0  0
 17 18  1  0  0  0
  9 10  1  0  0  0
 10 19  1  0  0  0
 19 20  1  0  0  0
 19 24  2  0  0  0
 20 21  2  0  0  0
 21 22  1  0  0  0
 22 23  2  0  0  0
 23 24  1  0  0  0
M  END
> <minimizedAffinity>
-8.18297

$$$$
