CHEMBL3656111


 42 46  0  0  0  0  0  0  0  0999 V2000
  -29.2275  -10.6566   -8.3688 C   0  0  0  0  0  0  0  0  0  0  0  0
  -29.4187  -10.7912   -9.7411 C   0  0  0  0  0  0  0  0  0  0  0  0
  -28.3470  -11.2004  -10.5112 C   0  0  0  0  0  0  0  0  0  0  0  0
  -27.1119  -11.4220  -10.0188 N   0  0  0  0  0  0  0  0  0  0  0  0
  -26.9320  -11.2222   -8.6884 C   0  0  0  0  0  0  0  0  0  0  0  0
  -27.9563  -10.8497   -7.8309 C   0  0  0  0  0  0  0  0  0  0  0  0
  -25.5534  -11.4190   -8.2551 C   0  0  0  0  0  0  0  0  0  0  0  0
  -24.8145  -10.9331   -7.1898 C   0  0  0  0  0  0  0  0  0  0  0  0
  -23.5064  -11.5065   -7.2436 C   0  0  0  0  0  0  0  0  0  0  0  0
  -23.4538  -12.2218   -8.4263 C   0  0  0  0  0  0  0  0  0  0  0  0
  -24.7031  -12.2268   -8.9772 N   0  0  0  0  0  0  0  0  0  0  0  0
  -24.9968  -12.7257   -9.8083 H   0  0  0  0  0  0  0  0  0  0  0  0
  -22.4308  -11.3184   -6.2766 C   0  0  0  0  0  0  0  0  0  0  0  0
  -21.4325  -10.6591   -6.5882 O   0  0  0  0  0  0  0  0  0  0  0  0
  -22.5939  -11.8439   -4.9917 N   0  0  0  0  0  0  0  0  0  0  0  0
  -21.5055  -11.6633   -4.0277 C   0  0  0  0  0  0  0  0  0  0  0  0
  -22.0066  -11.6010   -2.5802 C   0  0  0  0  0  0  0  0  0  0  0  0
  -23.3415  -10.8677   -2.5205 C   0  0  0  0  0  0  0  0  0  0  0  0
  -24.4085  -11.6279   -3.3133 C   0  0  0  0  0  0  0  0  0  0  0  0
  -25.3628  -10.6927   -3.8184 O   0  0  0  0  0  0  0  0  0  0  0  0
  -23.8127  -12.4651   -4.4585 C   0  0  0  0  0  0  0  0  0  0  0  0
  -24.9420  -10.2130   -4.5552 H   0  0  0  0  0  0  0  0  0  0  0  0
  -30.2107  -10.2612   -7.4875 O   0  0  0  0  0  0  0  0  0  0  0  0
  -30.1902   -6.5102   -5.6360 C   0  0  0  0  0  0  0  0  0  0  0  0
  -30.7556   -6.6439   -6.9102 C   0  0  0  0  0  0  0  0  0  0  0  0
  -30.7910   -7.8822   -7.5503 C   0  0  0  0  0  0  0  0  0  0  0  0
  -30.1923   -8.9906   -6.9541 C   0  0  0  0  0  0  0  0  0  0  0  0
  -29.5995   -8.8547   -5.6937 C   0  0  0  0  0  0  0  0  0  0  0  0
  -29.5767   -7.6129   -5.0419 C   0  0  0  0  0  0  0  0  0  0  0  0
  -29.8131   -3.0714   -4.5338 N   0  0  0  0  0  0  0  0  0  0  0  0
  -29.5787   -4.1932   -5.3096 C   0  0  0  0  0  0  0  0  0  0  0  0
  -28.8238   -4.2291   -6.2756 O   0  0  0  0  0  0  0  0  0  0  0  0
  -30.3267   -5.2980   -4.9079 N   0  0  0  0  0  0  0  0  0  0  0  0
  -30.2683   -3.2139   -3.6446 H   0  0  0  0  0  0  0  0  0  0  0  0
  -31.2515   -5.0774   -4.5680 H   0  0  0  0  0  0  0  0  0  0  0  0
  -30.5977    1.5565   -6.1715 C   0  0  0  0  0  0  0  0  0  0  0  0
  -29.6834    0.5018   -5.6171 C   0  0  0  0  0  0  0  0  0  0  0  0
  -28.3391    0.8121   -5.3849 C   0  0  0  0  0  0  0  0  0  0  0  0
  -27.4803   -0.1509   -4.8763 C   0  0  0  0  0  0  0  0  0  0  0  0
  -27.9568   -1.4302   -4.5964 C   0  0  0  0  0  0  0  0  0  0  0  0
  -29.2980   -1.7740   -4.8052 C   0  0  0  0  0  0  0  0  0  0  0  0
  -30.1586   -0.7938   -5.3226 C   0  0  0  0  0  0  0  0  0  0  0  0
 36 37  1  0  0  0
 37 38  1  0  0  0
 37 42  2  0  0  0
 38 39  2  0  0  0
 39 40  1  0  0  0
 40 41  2  0  0  0
 41 30  1  0  0  0
 41 42  1  0  0  0
 30 31  1  0  0  0
 30 34  1  0  0  0
 31 32  2  0  0  0
 31 33  1  0  0  0
 33 24  1  0  0  0
 33 35  1  0  0  0
 24 25  1  0  0  0
 24 29  2  0  0  0
 25 26  2  0  0  0
 26 27  1  0  0  0
 27 23  1  0  0  0
 27 28  2  0  0  0
 23  1  1  0  0  0
  1  2  1  0  0  0
  1  6  2  0  0  0
  2  3  2  0  0  0
  3  4  1  0  0  0
  4  5  2  0  0  0
  5  7  1  0  0  0
  5  6  1  0  0  0
  7  8  2  0  0  0
  7 11  1  0  0  0
  8  9  1  0  0  0
  9 13  1  0  0  0
  9 10  2  0  0  0
 13 14  2  0  0  0
 13 15  1  0  0  0
 15 16  1  0  0  0
 15 21  1  0  0  0
 16 17  1  0  0  0
 17 18  1  0  0  0
 18 19  1  0  0  0
 19 20  1  0  0  0
 19 21  1  0  0  0
 20 22  1  0  0  0
 10 11  1  0  0  0
 11 12  1  0  0  0
 28 29  1  0  0  0
M  END
> <minimizedAffinity>
-10.09650

$$$$
