CHEMBL3976275


 40 44  0  0  0  0  0  0  0  0999 V2000
  -15.5492    2.5353  -15.9286 N   0  0  0  0  0  0  0  0  0  0  0  0
  -16.9315    2.2211  -15.6468 C   0  0  0  0  0  0  0  0  0  0  0  0
  -17.6581    3.3386  -15.3359 C   0  0  0  0  0  0  0  0  0  0  0  0
  -18.9761    3.2319  -15.1305 C   0  0  0  0  0  0  0  0  0  0  0  0
  -19.6323    2.0473  -14.9220 C   0  0  0  0  0  0  0  0  0  0  0  0
  -20.6045    2.6625  -14.3708 N   0  0  0  0  0  0  0  0  0  0  0  0
  -21.7469    2.1011  -14.1721 C   0  0  0  0  0  0  0  0  0  0  0  0
  -21.9288    0.7747  -14.2722 C   0  0  0  0  0  0  0  0  0  0  0  0
  -20.7606    0.0208  -14.7424 N   0  0  0  0  0  0  0  0  0  0  0  0
  -19.3379    0.7473  -15.1357 C   0  0  0  0  0  0  0  0  0  0  0  0
  -17.7486    0.9408  -15.6179 C   0  0  0  0  0  0  0  0  0  0  0  0
  -23.3449    0.5348  -13.6281 C   0  0  0  0  0  0  0  0  0  0  0  0
  -23.7981    0.6072  -12.2602 C   0  0  0  0  0  0  0  0  0  0  0  0
  -24.8481   -0.1789  -11.9435 N   0  0  0  0  0  0  0  0  0  0  0  0
  -25.0916   -0.8818  -13.0569 N   0  0  0  0  0  0  0  0  0  0  0  0
  -26.1868   -1.8491  -13.0903 C   0  0  0  0  0  0  0  0  0  0  0  0
  -24.1775   -0.5587  -14.0450 C   0  0  0  0  0  0  0  0  0  0  0  0
  -14.8500    2.6444  -17.1739 C   0  0  0  0  0  0  0  0  0  0  0  0
  -14.7585    3.8599  -17.8538 C   0  0  0  0  0  0  0  0  0  0  0  0
  -15.4892    4.8941  -17.4074 F   0  0  0  0  0  0  0  0  0  0  0  0
  -13.9922    3.9942  -19.0251 C   0  0  0  0  0  0  0  0  0  0  0  0
  -13.3224    2.8871  -19.5613 C   0  0  0  0  0  0  0  0  0  0  0  0
  -13.4675    1.6407  -18.9794 C   0  0  0  0  0  0  0  0  0  0  0  0
  -14.2497    1.5316  -17.8275 C   0  0  0  0  0  0  0  0  0  0  0  0
  -14.4214    0.2811  -17.3750 F   0  0  0  0  0  0  0  0  0  0  0  0
  -13.7980    5.1427  -19.7472 O   0  0  0  0  0  0  0  0  0  0  0  0
  -12.9110    6.1027  -19.1895 C   0  0  0  0  0  0  0  0  0  0  0  0
  -12.9068    0.4716  -19.4172 O   0  0  0  0  0  0  0  0  0  0  0  0
  -12.3579    0.4655  -20.7254 C   0  0  0  0  0  0  0  0  0  0  0  0
  -14.5375    2.4415  -14.7769 C   0  0  0  0  0  0  0  0  0  0  0  0
  -14.7330    0.0538  -13.6131 C   0  0  0  0  0  0  0  0  0  0  0  0
  -14.5925    1.1317  -14.1078 C   0  0  0  0  0  0  0  0  0  0  0  0
  -14.3913   -2.3866  -13.6825 C   0  0  0  0  0  0  0  0  0  0  0  0
  -14.5992   -3.6138  -13.0548 C   0  0  0  0  0  0  0  0  0  0  0  0
  -15.2439   -3.6651  -11.8247 C   0  0  0  0  0  0  0  0  0  0  0  0
  -15.7545   -2.4912  -11.3016 C   0  0  0  0  0  0  0  0  0  0  0  0
  -15.6096   -1.2849  -11.8907 N   0  0  0  0  0  0  0  0  0  0  0  0
  -14.9183   -1.2563  -13.0608 C   0  0  0  0  0  0  0  0  0  0  0  0
  -12.3454   -2.5912  -14.8179 C   0  0  0  0  0  0  0  0  0  0  0  0
  -13.7248   -2.2447  -14.8704 O   0  0  0  0  0  0  0  0  0  0  0  0
 39 40  1  0  0  0
 40 33  1  0  0  0
 33 34  1  0  0  0
 33 38  2  0  0  0
 34 35  2  0  0  0
 35 36  1  0  0  0
 36 37  2  0  0  0
 37 38  1  0  0  0
 38 31  1  0  0  0
 31 32  3  0  0  0
 32 30  1  0  0  0
 30  1  1  0  0  0
  1  2  1  0  0  0
  1 18  1  0  0  0
  2  3  1  0  0  0
  2 11  2  0  0  0
  3  4  2  0  0  0
  4  5  1  0  0  0
  5  6  1  0  0  0
  5 10  2  0  0  0
  6  7  2  0  0  0
  7  8  1  0  0  0
  8 12  1  0  0  0
  8  9  2  0  0  0
 12 13  1  0  0  0
 12 17  2  0  0  0
 13 14  2  0  0  0
 14 15  1  0  0  0
 15 16  1  0  0  0
 15 17  1  0  0  0
  9 10  1  0  0  0
 10 11  1  0  0  0
 18 19  1  0  0  0
 18 24  2  0  0  0
 19 20  1  0  0  0
 19 21  2  0  0  0
 21 26  1  0  0  0
 21 22  1  0  0  0
 26 27  1  0  0  0
 22 23  2  0  0  0
 23 28  1  0  0  0
 23 24  1  0  0  0
 28 29  1  0  0  0
 24 25  1  0  0  0
M  END
> <minimizedAffinity>
-8.40387

$$$$
