CHEMBL565782


 39 43  0  0  0  0  0  0  0  0999 V2000
  -28.9361   -2.4379   -6.2916 C   0  0  0  0  0  0  0  0  0  0  0  0
  -28.1291   -1.4261   -6.7248 C   0  0  0  0  0  0  0  0  0  0  0  0
  -27.4135   -1.5579   -7.9398 C   0  0  0  0  0  0  0  0  0  0  0  0
  -27.7560   -2.4977   -8.9043 C   0  0  0  0  0  0  0  0  0  0  0  0
  -28.9102   -3.2490   -8.6450 C   0  0  0  0  0  0  0  0  0  0  0  0
  -29.4802   -3.2458   -7.3412 C   0  0  0  0  0  0  0  0  0  0  0  0
  -30.5583   -4.0438   -7.1544 F   0  0  0  0  0  0  0  0  0  0  0  0
  -26.9814   -2.7159  -10.1206 N   0  0  0  0  0  0  0  0  0  0  0  0
  -27.0077   -1.8550  -11.2216 C   0  0  0  0  0  0  0  0  0  0  0  0
  -27.8024   -0.9145  -11.3150 O   0  0  0  0  0  0  0  0  0  0  0  0
  -26.2084   -3.3842  -10.0831 H   0  0  0  0  0  0  0  0  0  0  0  0
  -26.0296   -2.0208  -12.3935 C   0  0  0  0  0  0  0  0  0  0  0  0
  -24.8858   -1.0234  -12.4873 C   0  0  0  0  0  0  0  0  0  0  0  0
  -24.3989   -0.6043  -11.4381 O   0  0  0  0  0  0  0  0  0  0  0  0
  -24.3962   -0.6298  -13.7410 N   0  0  0  0  0  0  0  0  0  0  0  0
  -24.8677   -1.1457  -15.0194 C   0  0  0  0  0  0  0  0  0  0  0  0
  -23.3151    0.3285  -13.7900 C   0  0  0  0  0  0  0  0  0  0  0  0
  -23.5559    1.7026  -13.6439 C   0  0  0  0  0  0  0  0  0  0  0  0
  -22.5114    2.6309  -13.7668 C   0  0  0  0  0  0  0  0  0  0  0  0
  -21.2506    2.2093  -14.1789 C   0  0  0  0  0  0  0  0  0  0  0  0
  -21.0199    0.8543  -14.3893 C   0  0  0  0  0  0  0  0  0  0  0  0
  -22.0102   -0.0849  -14.0799 C   0  0  0  0  0  0  0  0  0  0  0  0
  -29.0430   -2.7964   -4.9522 O   0  0  0  0  0  0  0  0  0  0  0  0
  -28.3316   -7.1735   -4.4892 C   0  0  0  0  0  0  0  0  0  0  0  0
  -29.5284   -7.2768   -3.9716 C   0  0  0  0  0  0  0  0  0  0  0  0
  -29.9328   -5.9893   -3.6565 C   0  0  0  0  0  0  0  0  0  0  0  0
  -31.2145   -6.0324   -3.2515 N   0  0  0  0  0  0  0  0  0  0  0  0
  -31.8766   -4.9638   -3.3390 C   0  0  0  0  0  0  0  0  0  0  0  0
  -31.2334   -3.7258   -3.6517 C   0  0  0  0  0  0  0  0  0  0  0  0
  -29.8278   -3.6586   -4.1682 C   0  0  0  0  0  0  0  0  0  0  0  0
  -29.2618   -4.9368   -4.1421 C   0  0  0  0  0  0  0  0  0  0  0  0
  -27.7102   -5.5674   -4.6431 S   0  0  0  0  0  0  0  0  0  0  0  0
  -26.3553  -10.0626   -4.9345 N   0  0  0  0  0  0  0  0  0  0  0  0
  -27.3511  -10.2506   -5.8377 C   0  0  0  0  0  0  0  0  0  0  0  0
  -28.2399   -9.2632   -5.7811 N   0  0  0  0  0  0  0  0  0  0  0  0
  -27.7183   -8.4076   -4.8447 C   0  0  0  0  0  0  0  0  0  0  0  0
  -26.5477   -8.8273   -4.3326 C   0  0  0  0  0  0  0  0  0  0  0  0
  -23.9364  -10.2138   -4.7187 C   0  0  0  0  0  0  0  0  0  0  0  0
  -25.2680  -10.9209   -4.6072 C   0  0  0  0  0  0  0  0  0  0  0  0
 38 39  1  0  0  0
 39 33  1  0  0  0
 33 34  1  0  0  0
 33 37  1  0  0  0
 34 35  2  0  0  0
 35 36  1  0  0  0
 36 24  1  0  0  0
 36 37  2  0  0  0
 24 25  2  0  0  0
 24 32  1  0  0  0
 25 26  1  0  0  0
 26 27  1  0  0  0
 26 31  2  0  0  0
 27 28  2  0  0  0
 28 29  1  0  0  0
 29 30  2  0  0  0
 30 23  1  0  0  0
 30 31  1  0  0  0
 23  1  1  0  0  0
  1  2  1  0  0  0
  1  6  2  0  0  0
  2  3  2  0  0  0
  3  4  1  0  0  0
  4  8  1  0  0  0
  4  5  2  0  0  0
  8  9  1  0  0  0
  8 11  1  0  0  0
  9 10  2  0  0  0
  9 12  1  0  0  0
 12 13  1  0  0  0
 13 14  2  0  0  0
 13 15  1  0  0  0
 15 16  1  0  0  0
 15 17  1  0  0  0
 17 18  1  0  0  0
 17 22  2  0  0  0
 18 19  2  0  0  0
 19 20  1  0  0  0
 20 21  2  0  0  0
 21 22  1  0  0  0
  5  6  1  0  0  0
  6  7  1  0  0  0
 31 32  1  0  0  0
M  END
> <minimizedAffinity>
-10.25058

$$$$
