CHEMBL3899151


 36 39  0  0  0  0  0  0  0  0999 V2000
  -28.3271   -2.4029   -8.2592 N   0  0  0  0  0  0  0  0  0  0  0  0
  -27.4371   -1.7204   -9.1695 C   0  0  0  0  0  0  0  0  0  0  0  0
  -28.0731   -1.0573  -10.1899 C   0  0  0  0  0  0  0  0  0  0  0  0
  -27.4124   -0.8988  -11.3639 C   0  0  0  0  0  0  0  0  0  0  0  0
  -26.1205   -1.3060  -11.5446 C   0  0  0  0  0  0  0  0  0  0  0  0
  -26.0312   -1.6610  -12.7768 N   0  0  0  0  0  0  0  0  0  0  0  0
  -24.9502   -1.3037  -13.4702 C   0  0  0  0  0  0  0  0  0  0  0  0
  -23.8215   -0.7562  -12.8762 C   0  0  0  0  0  0  0  0  0  0  0  0
  -23.8109   -0.8041  -11.4434 N   0  0  0  0  0  0  0  0  0  0  0  0
  -25.1238   -1.2388  -10.6137 C   0  0  0  0  0  0  0  0  0  0  0  0
  -25.9583   -1.6884   -9.2985 C   0  0  0  0  0  0  0  0  0  0  0  0
  -23.1946    0.1628  -14.0027 C   0  0  0  0  0  0  0  0  0  0  0  0
  -21.8997   -0.2159  -14.5854 C   0  0  0  0  0  0  0  0  0  0  0  0
  -21.0903    0.7800  -14.9321 N   0  0  0  0  0  0  0  0  0  0  0  0
  -21.8157    1.8778  -14.7081 N   0  0  0  0  0  0  0  0  0  0  0  0
  -21.2003    3.1361  -15.1172 C   0  0  0  0  0  0  0  0  0  0  0  0
  -23.0366    1.5736  -14.0771 C   0  0  0  0  0  0  0  0  0  0  0  0
  -28.4766   -2.7963   -4.5113 C   0  0  0  0  0  0  0  0  0  0  0  0
  -29.0464   -1.5780   -4.1398 C   0  0  0  0  0  0  0  0  0  0  0  0
  -29.3684   -0.6358   -5.1067 C   0  0  0  0  0  0  0  0  0  0  0  0
  -29.1390   -0.9328   -6.4546 C   0  0  0  0  0  0  0  0  0  0  0  0
  -28.6057   -2.1684   -6.8844 C   0  0  0  0  0  0  0  0  0  0  0  0
  -28.2808   -3.0944   -5.8781 C   0  0  0  0  0  0  0  0  0  0  0  0
  -27.7052   -5.0280   -4.1421 C   0  0  0  0  0  0  0  0  0  0  0  0
  -28.0619   -3.7486   -3.6105 O   0  0  0  0  0  0  0  0  0  0  0  0
  -29.8981    0.6038   -4.8590 O   0  0  0  0  0  0  0  0  0  0  0  0
  -30.4018    1.3153   -5.9861 C   0  0  0  0  0  0  0  0  0  0  0  0
  -29.2167   -3.5164   -8.9022 C   0  0  0  0  0  0  0  0  0  0  0  0
  -30.2077   -4.3088   -7.9707 C   0  0  0  0  0  0  0  0  0  0  0  0
  -29.7259   -5.7613   -7.6331 C   0  0  0  0  0  0  0  0  0  0  0  0
  -30.4072   -6.3115   -6.4364 N   0  0  0  0  0  0  0  0  0  0  0  0
  -31.3993   -6.0788   -6.4763 H   0  0  0  0  0  0  0  0  0  0  0  0
  -30.2441   -7.7762   -6.3060 C   0  0  0  0  0  0  0  0  0  0  0  0
  -30.3972   -8.5035   -7.6523 C   0  0  0  0  0  0  0  0  0  0  0  0
  -31.7929   -9.0333   -7.8022 C   0  0  0  0  0  0  0  0  0  0  0  0
  -32.9049   -9.4219   -7.9302 N   0  0  0  0  0  0  0  0  0  0  0  0
 24 25  1  0  0  0
 25 18  1  0  0  0
 18 19  1  0  0  0
 18 23  2  0  0  0
 19 20  2  0  0  0
 20 26  1  0  0  0
 20 21  1  0  0  0
 26 27  1  0  0  0
 21 22  2  0  0  0
 22  1  1  0  0  0
 22 23  1  0  0  0
  1 28  1  0  0  0
  1  2  1  0  0  0
 28 29  1  0  0  0
 29 30  1  0  0  0
 30 31  1  0  0  0
 31 33  1  0  0  0
 31 32  1  0  0  0
 33 34  1  0  0  0
 34 35  1  0  0  0
 35 36  3  0  0  0
  2  3  1  0  0  0
  2 11  2  0  0  0
  3  4  2  0  0  0
  4  5  1  0  0  0
  5  6  1  0  0  0
  5 10  2  0  0  0
  6  7  2  0  0  0
  7  8  1  0  0  0
  8 12  1  0  0  0
  8  9  2  0  0  0
 12 13  1  0  0  0
 12 17  2  0  0  0
 13 14  2  0  0  0
 14 15  1  0  0  0
 15 16  1  0  0  0
 15 17  1  0  0  0
  9 10  1  0  0  0
 10 11  1  0  0  0
M  END
> <minimizedAffinity>
-5.79767

$$$$
