CHEMBL3899609


 39 44  0  0  0  0  0  0  0  0999 V2000
  -22.9236   -1.9634  -11.1243 O   0  0  0  0  0  0  0  0  0  0  0  0
  -23.4970   -1.3191  -12.0084 C   0  0  0  0  0  0  0  0  0  0  0  0
  -22.6807   -0.4650  -12.9233 C   0  0  0  0  0  0  0  0  0  0  0  0
  -22.2729   -0.8752  -14.2069 C   0  0  0  0  0  0  0  0  0  0  0  0
  -21.5041   -0.0370  -15.0447 C   0  0  0  0  0  0  0  0  0  0  0  0
  -21.3209    1.2983  -14.6403 C   0  0  0  0  0  0  0  0  0  0  0  0
  -20.7782    2.5331  -15.1397 C   0  0  0  0  0  0  0  0  0  0  0  0
  -21.7711    3.4285  -14.9444 N   0  0  0  0  0  0  0  0  0  0  0  0
  -22.1864    3.0522  -13.7166 N   0  0  0  0  0  0  0  0  0  0  0  0
  -22.0005    1.7170  -13.4986 C   0  0  0  0  0  0  0  0  0  0  0  0
  -22.4916    0.8616  -12.5196 C   0  0  0  0  0  0  0  0  0  0  0  0
  -22.7427    3.7040  -13.1728 H   0  0  0  0  0  0  0  0  0  0  0  0
  -19.4702    3.1065  -14.8395 C   0  0  0  0  0  0  0  0  0  0  0  0
  -18.5668    3.4892  -15.7619 C   0  0  0  0  0  0  0  0  0  0  0  0
  -17.1138    3.2755  -15.5747 C   0  0  0  0  0  0  0  0  0  0  0  0
  -16.2150    4.2669  -15.9567 C   0  0  0  0  0  0  0  0  0  0  0  0
  -14.8484    3.9842  -15.9556 C   0  0  0  0  0  0  0  0  0  0  0  0
  -14.4124    2.7183  -15.5871 C   0  0  0  0  0  0  0  0  0  0  0  0
  -15.3679    1.7844  -15.2293 C   0  0  0  0  0  0  0  0  0  0  0  0
  -16.6985    2.0356  -15.2133 N   0  0  0  0  0  0  0  0  0  0  0  0
  -24.9708   -1.3853  -12.0712 C   0  0  0  0  0  0  0  0  0  0  0  0
  -25.5581   -1.6044  -13.3206 C   0  0  0  0  0  0  0  0  0  0  0  0
  -26.9385   -1.7242  -13.4185 C   0  0  0  0  0  0  0  0  0  0  0  0
  -27.7304   -1.6460  -12.2690 C   0  0  0  0  0  0  0  0  0  0  0  0
  -27.1596   -1.4238  -11.0123 C   0  0  0  0  0  0  0  0  0  0  0  0
  -25.7740   -1.2461  -10.9297 C   0  0  0  0  0  0  0  0  0  0  0  0
  -27.8959   -1.4059   -9.8037 N   0  0  0  0  0  0  0  0  0  0  0  0
  -27.8699   -2.3688   -8.8011 C   0  0  0  0  0  0  0  0  0  0  0  0
  -27.2235   -3.4034   -8.8144 O   0  0  0  0  0  0  0  0  0  0  0  0
  -28.4526   -0.5811   -9.6238 H   0  0  0  0  0  0  0  0  0  0  0  0
  -28.6765   -2.0149   -7.5966 C   0  0  0  0  0  0  0  0  0  0  0  0
  -28.0528   -1.1552   -6.5247 C   0  0  0  0  0  0  0  0  0  0  0  0
  -28.2891   -2.6206   -6.2509 C   0  0  0  0  0  0  0  0  0  0  0  0
  -29.3225   -3.0333   -5.2286 C   0  0  0  0  0  0  0  0  0  0  0  0
  -30.1825   -4.1215   -5.4335 C   0  0  0  0  0  0  0  0  0  0  0  0
  -31.0862   -4.5307   -4.4437 C   0  0  0  0  0  0  0  0  0  0  0  0
  -31.1429   -3.8672   -3.2259 C   0  0  0  0  0  0  0  0  0  0  0  0
  -30.2975   -2.7802   -2.9960 C   0  0  0  0  0  0  0  0  0  0  0  0
  -29.4006   -2.3721   -3.9904 C   0  0  0  0  0  0  0  0  0  0  0  0
  1  2  2  0  0  0
  2 21  1  0  0  0
  2  3  1  0  0  0
 21 22  1  0  0  0
 21 26  2  0  0  0
 22 23  2  0  0  0
 23 24  1  0  0  0
 24 25  2  0  0  0
 25 27  1  0  0  0
 25 26  1  0  0  0
 27 28  1  0  0  0
 27 30  1  0  0  0
 28 29  2  0  0  0
 28 31  1  0  0  0
 31 32  1  0  0  0
 31 33  1  0  0  0
 32 33  1  0  0  0
 33 34  1  0  0  0
 34 35  1  0  0  0
 34 39  2  0  0  0
 35 36  2  0  0  0
 36 37  1  0  0  0
 37 38  2  0  0  0
 38 39  1  0  0  0
  3  4  1  0  0  0
  3 11  2  0  0  0
  4  5  2  0  0  0
  5  6  1  0  0  0
  6  7  1  0  0  0
  6 10  2  0  0  0
  7 13  1  0  0  0
  7  8  2  0  0  0
 13 14  2  0  0  0
 14 15  1  0  0  0
 15 16  1  0  0  0
 15 20  2  0  0  0
 16 17  2  0  0  0
 17 18  1  0  0  0
 18 19  2  0  0  0
 19 20  1  0  0  0
  8  9  1  0  0  0
  9 10  1  0  0  0
  9 12  1  0  0  0
 10 11  1  0  0  0
M  END
> <minimizedAffinity>
-11.50594

$$$$
