CHEMBL204754


 32 36  0  0  0  0  0  0  0  0999 V2000
  -28.3973   -2.6061   -7.0648 C   0  0  0  0  0  0  0  0  0  0  0  0
  -27.5385   -1.6083   -6.9993 N   0  0  0  0  0  0  0  0  0  0  0  0
  -27.1881   -1.3138   -8.2914 N   0  0  0  0  0  0  0  0  0  0  0  0
  -27.8493   -2.1433   -9.0692 C   0  0  0  0  0  0  0  0  0  0  0  0
  -28.5983   -3.0385   -8.3503 O   0  0  0  0  0  0  0  0  0  0  0  0
  -30.0053   -2.9119   -3.7164 C   0  0  0  0  0  0  0  0  0  0  0  0
  -30.6912   -4.0916   -3.8807 C   0  0  0  0  0  0  0  0  0  0  0  0
  -30.6172   -4.8496   -4.9969 N   0  0  0  0  0  0  0  0  0  0  0  0
  -29.8608   -4.4255   -6.0440 C   0  0  0  0  0  0  0  0  0  0  0  0
  -29.1754   -3.1986   -5.9850 C   0  0  0  0  0  0  0  0  0  0  0  0
  -29.2350   -2.4695   -4.7786 C   0  0  0  0  0  0  0  0  0  0  0  0
  -29.8776   -5.2244   -7.2054 N   0  0  0  0  0  0  0  0  0  0  0  0
  -29.3921   -4.7639   -7.9687 H   0  0  0  0  0  0  0  0  0  0  0  0
  -29.3390   -6.5651   -6.9720 C   0  0  0  0  0  0  0  0  0  0  0  0
  -30.3508   -7.6199   -7.3604 C   0  0  0  0  0  0  0  0  0  0  0  0
  -31.6705   -7.5626   -6.9139 C   0  0  0  0  0  0  0  0  0  0  0  0
  -32.5722   -8.5145   -7.3739 C   0  0  0  0  0  0  0  0  0  0  0  0
  -32.2470   -9.5050   -8.2303 N   0  0  0  0  0  0  0  0  0  0  0  0
  -30.9650   -9.5439   -8.6504 C   0  0  0  0  0  0  0  0  0  0  0  0
  -29.9948   -8.6409   -8.2484 C   0  0  0  0  0  0  0  0  0  0  0  0
  -27.9675   -2.2286  -10.4084 N   0  0  0  0  0  0  0  0  0  0  0  0
  -28.9063   -2.1526  -10.7775 H   0  0  0  0  0  0  0  0  0  0  0  0
  -26.9538   -1.9027  -11.3346 C   0  0  0  0  0  0  0  0  0  0  0  0
  -27.2686   -1.8846  -12.7062 C   0  0  0  0  0  0  0  0  0  0  0  0
  -26.3161   -1.5185  -13.6646 C   0  0  0  0  0  0  0  0  0  0  0  0
  -25.0245   -1.1873  -13.2693 C   0  0  0  0  0  0  0  0  0  0  0  0
  -24.6898   -1.2062  -11.9162 C   0  0  0  0  0  0  0  0  0  0  0  0
  -25.6392   -1.5792  -10.9636 C   0  0  0  0  0  0  0  0  0  0  0  0
  -23.4453   -0.8772  -11.4418 O   0  0  0  0  0  0  0  0  0  0  0  0
  -22.6702   -0.1942  -12.4309 C   0  0  0  0  0  0  0  0  0  0  0  0
  -22.7881   -0.8867  -13.7783 C   0  0  0  0  0  0  0  0  0  0  0  0
  -24.1378   -0.8476  -14.2576 O   0  0  0  0  0  0  0  0  0  0  0  0
  6  7  1  0  0  0
  6 11  2  0  0  0
  7  8  2  0  0  0
  8  9  1  0  0  0
  9 12  1  0  0  0
  9 10  2  0  0  0
 12 14  1  0  0  0
 12 13  1  0  0  0
 14 15  1  0  0  0
 15 16  1  0  0  0
 15 20  2  0  0  0
 16 17  2  0  0  0
 17 18  1  0  0  0
 18 19  2  0  0  0
 19 20  1  0  0  0
 10  1  1  0  0  0
 10 11  1  0  0  0
  1  2  2  0  0  0
  1  5  1  0  0  0
  2  3  1  0  0  0
  3  4  2  0  0  0
  4 21  1  0  0  0
  4  5  1  0  0  0
 21 23  1  0  0  0
 21 22  1  0  0  0
 23 24  1  0  0  0
 23 28  2  0  0  0
 24 25  2  0  0  0
 25 26  1  0  0  0
 26 27  2  0  0  0
 26 32  1  0  0  0
 27 28  1  0  0  0
 27 29  1  0  0  0
 29 30  1  0  0  0
 30 31  1  0  0  0
 31 32  1  0  0  0
M  END
> <minimizedAffinity>
-10.36940

$$$$
