CHEMBL181654


 30 33  0  0  0  0  0  0  0  0999 V2000
  -26.1307   -1.2859  -12.1834 C   0  0  0  0  0  0  0  0  0  0  0  0
  -25.7763   -1.6624  -13.4802 C   0  0  0  0  0  0  0  0  0  0  0  0
  -24.6001   -1.1824  -14.0626 C   0  0  0  0  0  0  0  0  0  0  0  0
  -23.7599   -0.2850  -13.3823 C   0  0  0  0  0  0  0  0  0  0  0  0
  -24.1875    0.1391  -12.1096 C   0  0  0  0  0  0  0  0  0  0  0  0
  -25.3546   -0.3531  -11.5102 C   0  0  0  0  0  0  0  0  0  0  0  0
  -22.4995    0.1978  -13.9972 C   0  0  0  0  0  0  0  0  0  0  0  0
  -21.5562   -0.7224  -14.5198 C   0  0  0  0  0  0  0  0  0  0  0  0
  -20.3502   -0.3199  -15.1294 C   0  0  0  0  0  0  0  0  0  0  0  0
  -20.0395    1.0277  -15.2488 C   0  0  0  0  0  0  0  0  0  0  0  0
  -20.9478    1.9255  -14.7270 C   0  0  0  0  0  0  0  0  0  0  0  0
  -22.1479    1.5465  -14.1049 C   0  0  0  0  0  0  0  0  0  0  0  0
  -22.8452    2.7829  -13.6268 C   0  0  0  0  0  0  0  0  0  0  0  0
  -21.9573    3.8442  -14.0319 N   0  0  0  0  0  0  0  0  0  0  0  0
  -20.8544    3.3879  -14.7120 C   0  0  0  0  0  0  0  0  0  0  0  0
  -19.9807    4.0584  -15.2217 O   0  0  0  0  0  0  0  0  0  0  0  0
  -22.1497    4.8330  -13.9530 H   0  0  0  0  0  0  0  0  0  0  0  0
  -28.2904   -2.6121   -9.6069 N   0  0  0  0  0  0  0  0  0  0  0  0
  -27.1652   -2.0110  -10.1325 C   0  0  0  0  0  0  0  0  0  0  0  0
  -26.2239   -1.5743   -9.4725 O   0  0  0  0  0  0  0  0  0  0  0  0
  -27.2171   -1.8992  -11.5144 N   0  0  0  0  0  0  0  0  0  0  0  0
  -28.8922   -3.1019  -10.2540 H   0  0  0  0  0  0  0  0  0  0  0  0
  -28.1379   -1.7032  -11.8803 H   0  0  0  0  0  0  0  0  0  0  0  0
  -29.4398   -3.3276   -4.0309 C   0  0  0  0  0  0  0  0  0  0  0  0
  -29.1487   -3.1378   -5.4884 C   0  0  0  0  0  0  0  0  0  0  0  0
  -28.3706   -2.0623   -5.9028 C   0  0  0  0  0  0  0  0  0  0  0  0
  -28.0892   -1.8753   -7.2559 C   0  0  0  0  0  0  0  0  0  0  0  0
  -28.5643   -2.7621   -8.2259 C   0  0  0  0  0  0  0  0  0  0  0  0
  -29.3518   -3.8402   -7.8130 C   0  0  0  0  0  0  0  0  0  0  0  0
  -29.6439   -4.0266   -6.4533 C   0  0  0  0  0  0  0  0  0  0  0  0
 24 25  1  0  0  0
 25 26  1  0  0  0
 25 30  2  0  0  0
 26 27  2  0  0  0
 27 28  1  0  0  0
 28 18  1  0  0  0
 28 29  2  0  0  0
 18 19  1  0  0  0
 18 22  1  0  0  0
 19 20  2  0  0  0
 19 21  1  0  0  0
 21  1  1  0  0  0
 21 23  1  0  0  0
  1  2  1  0  0  0
  1  6  2  0  0  0
  2  3  2  0  0  0
  3  4  1  0  0  0
  4  7  1  0  0  0
  4  5  2  0  0  0
  7  8  1  0  0  0
  7 12  2  0  0  0
  8  9  2  0  0  0
  9 10  1  0  0  0
 10 11  2  0  0  0
 11 12  1  0  0  0
 11 15  1  0  0  0
 12 13  1  0  0  0
 13 14  1  0  0  0
 14 15  1  0  0  0
 14 17  1  0  0  0
 15 16  2  0  0  0
  5  6  1  0  0  0
 29 30  1  0  0  0
M  END
> <minimizedAffinity>
-10.84860

$$$$
