CHEMBL231153


 21 23  0  0  0  0  0  0  0  0999 V2000
  -29.0744   -4.4358   -5.0340 C   0  0  0  0  0  0  0  0  0  0  0  0
  -29.4566   -4.9424   -3.8033 C   0  0  0  0  0  0  0  0  0  0  0  0
  -29.7162   -6.6172   -3.8127 S   0  0  0  0  0  0  0  0  0  0  0  0
  -29.3647   -6.7315   -5.4907 C   0  0  0  0  0  0  0  0  0  0  0  0
  -29.4089   -7.9115   -6.2422 C   0  0  0  0  0  0  0  0  0  0  0  0
  -29.0972   -7.7912   -7.5744 C   0  0  0  0  0  0  0  0  0  0  0  0
  -28.7353   -6.6396   -8.1581 N   0  0  0  0  0  0  0  0  0  0  0  0
  -28.6723   -5.4990   -7.4353 C   0  0  0  0  0  0  0  0  0  0  0  0
  -28.2334   -4.4009   -8.1637 N   0  0  0  0  0  0  0  0  0  0  0  0
  -29.0140   -5.4940   -6.0520 C   0  0  0  0  0  0  0  0  0  0  0  0
  -27.8685   -4.7255   -9.0530 H   0  0  0  0  0  0  0  0  0  0  0  0
  -27.6190   -3.7902   -7.6409 H   0  0  0  0  0  0  0  0  0  0  0  0
  -28.0426    1.1603   -5.4488 N   0  0  0  0  0  0  0  0  0  0  0  0
  -28.3088   -0.2021   -5.2794 C   0  0  0  0  0  0  0  0  0  0  0  0
  -29.5861   -0.7080   -5.5131 C   0  0  0  0  0  0  0  0  0  0  0  0
  -29.8415   -2.0825   -5.4161 C   0  0  0  0  0  0  0  0  0  0  0  0
  -28.8051   -2.9926   -5.1573 C   0  0  0  0  0  0  0  0  0  0  0  0
  -27.5057   -2.4867   -5.0556 C   0  0  0  0  0  0  0  0  0  0  0  0
  -27.2646   -1.1083   -5.1025 C   0  0  0  0  0  0  0  0  0  0  0  0
  -28.8459    1.7594   -5.2865 H   0  0  0  0  0  0  0  0  0  0  0  0
  -27.2212    1.4779   -4.9425 H   0  0  0  0  0  0  0  0  0  0  0  0
 13 14  1  0  0  0
 13 20  1  0  0  0
 13 21  1  0  0  0
 14 15  1  0  0  0
 14 19  2  0  0  0
 15 16  2  0  0  0
 16 17  1  0  0  0
 17  1  1  0  0  0
 17 18  2  0  0  0
  1  2  2  0  0  0
  1 10  1  0  0  0
  2  3  1  0  0  0
  3  4  1  0  0  0
  4  5  1  0  0  0
  4 10  2  0  0  0
  5  6  2  0  0  0
  6  7  1  0  0  0
  7  8  2  0  0  0
  8  9  1  0  0  0
  8 10  1  0  0  0
  9 11  1  0  0  0
  9 12  1  0  0  0
 18 19  1  0  0  0
M  END
> <minimizedAffinity>
-7.23461

$$$$
