CHEMBL1254755


 42 46  0  0  0  0  0  0  0  0999 V2000
  -13.8304    3.7060  -15.2404 N   0  0  0  0  0  0  0  0  0  0  0  0
  -14.0019    2.3298  -15.1784 C   0  0  0  0  0  0  0  0  0  0  0  0
  -14.1810    1.5968  -16.1422 O   0  0  0  0  0  0  0  0  0  0  0  0
  -14.0078    1.8395  -13.8767 N   0  0  0  0  0  0  0  0  0  0  0  0
  -13.8027    4.2214  -14.3772 H   0  0  0  0  0  0  0  0  0  0  0  0
  -14.4789    2.4360  -13.2089 H   0  0  0  0  0  0  0  0  0  0  0  0
  -14.2168    0.4410  -13.6777 C   0  0  0  0  0  0  0  0  0  0  0  0
  -13.1454   -0.4576  -13.7678 C   0  0  0  0  0  0  0  0  0  0  0  0
  -13.3638   -1.8375  -13.7062 C   0  0  0  0  0  0  0  0  0  0  0  0
  -14.6529   -2.3386  -13.5150 C   0  0  0  0  0  0  0  0  0  0  0  0
  -15.7251   -1.4466  -13.4073 C   0  0  0  0  0  0  0  0  0  0  0  0
  -15.5056   -0.0647  -13.4680 C   0  0  0  0  0  0  0  0  0  0  0  0
  -16.8695    0.9961  -13.3945 Cl  0  0  0  0  0  0  0  0  0  0  0  0
  -14.9746   -3.6796  -13.5295 O   0  0  0  0  0  0  0  0  0  0  0  0
  -14.6766   -4.4565  -12.4188 C   0  0  0  0  0  0  0  0  0  0  0  0
  -14.7634   -3.9311  -11.1764 N   0  0  0  0  0  0  0  0  0  0  0  0
  -14.4597   -4.7206  -10.1334 C   0  0  0  0  0  0  0  0  0  0  0  0
  -14.0922   -6.0070  -10.1553 N   0  0  0  0  0  0  0  0  0  0  0  0
  -14.0614   -6.5352  -11.3956 C   0  0  0  0  0  0  0  0  0  0  0  0
  -13.7420   -7.8544  -11.7858 C   0  0  0  0  0  0  0  0  0  0  0  0
  -13.8572   -7.9151  -13.1572 C   0  0  0  0  0  0  0  0  0  0  0  0
  -14.2314   -6.6708  -13.6039 N   0  0  0  0  0  0  0  0  0  0  0  0
  -14.4695   -6.3451  -14.9937 C   0  0  0  0  0  0  0  0  0  0  0  0
  -14.3531   -5.8055  -12.5428 C   0  0  0  0  0  0  0  0  0  0  0  0
  -13.9657    6.0930  -18.7823 C   0  0  0  0  0  0  0  0  0  0  0  0
  -14.8735    5.0464  -18.5613 C   0  0  0  0  0  0  0  0  0  0  0  0
  -14.8233    4.2538  -17.4225 C   0  0  0  0  0  0  0  0  0  0  0  0
  -13.8461    4.4461  -16.4547 C   0  0  0  0  0  0  0  0  0  0  0  0
  -12.8702    5.4201  -16.6983 C   0  0  0  0  0  0  0  0  0  0  0  0
  -12.9287    6.2758  -17.8431 C   0  0  0  0  0  0  0  0  0  0  0  0
  -11.8427    7.3272  -17.9625 C   0  0  0  0  0  0  0  0  0  0  0  0
  -11.0765    7.2793  -19.0826 F   0  0  0  0  0  0  0  0  0  0  0  0
  -12.3433    8.5950  -17.9103 F   0  0  0  0  0  0  0  0  0  0  0  0
  -10.9591    7.2491  -16.9224 F   0  0  0  0  0  0  0  0  0  0  0  0
  -14.2106    6.9386  -20.0229 C   0  0  0  0  0  0  0  0  0  0  0  0
  -14.2844   11.2156  -22.1500 C   0  0  0  0  0  0  0  0  0  0  0  0
  -15.1441   10.2549  -21.4602 N   0  0  0  0  0  0  0  0  0  0  0  0
  -15.1946    8.9815  -22.1975 C   0  0  0  0  0  0  0  0  0  0  0  0
  -16.0117    7.9047  -21.4442 C   0  0  0  0  0  0  0  0  0  0  0  0
  -15.5286    7.6018  -20.0741 N   0  0  0  0  0  0  0  0  0  0  0  0
  -15.4800    8.9008  -19.3498 C   0  0  0  0  0  0  0  0  0  0  0  0
  -14.6925   10.0312  -20.0737 C   0  0  0  0  0  0  0  0  0  0  0  0
 36 37  1  0  0  0
 37 38  1  0  0  0
 37 42  1  0  0  0
 38 39  1  0  0  0
 39 40  1  0  0  0
 40 35  1  0  0  0
 40 41  1  0  0  0
 35 25  1  0  0  0
 25 26  1  0  0  0
 25 30  2  0  0  0
 26 27  2  0  0  0
 27 28  1  0  0  0
 28  1  1  0  0  0
 28 29  2  0  0  0
  1  2  1  0  0  0
  1  5  1  0  0  0
  2  3  2  0  0  0
  2  4  1  0  0  0
  4  7  1  0  0  0
  4  6  1  0  0  0
  7  8  1  0  0  0
  7 12  2  0  0  0
  8  9  2  0  0  0
  9 10  1  0  0  0
 10 14  1  0  0  0
 10 11  2  0  0  0
 14 15  1  0  0  0
 15 16  1  0  0  0
 15 24  2  0  0  0
 16 17  2  0  0  0
 17 18  1  0  0  0
 18 19  2  0  0  0
 19 20  1  0  0  0
 19 24  1  0  0  0
 20 21  2  0  0  0
 21 22  1  0  0  0
 22 23  1  0  0  0
 22 24  1  0  0  0
 11 12  1  0  0  0
 12 13  1  0  0  0
 29 30  1  0  0  0
 30 31  1  0  0  0
 31 32  1  0  0  0
 31 33  1  0  0  0
 31 34  1  0  0  0
 41 42  1  0  0  0
M  END
> <minimizedAffinity>
-6.99865

$$$$
