CHEMBL3128221


 38 42  0  0  0  0  0  0  0  0999 V2000
  -22.8164   -0.6854  -12.5972 C   0  0  0  0  0  0  0  0  0  0  0  0
  -26.1516   -2.1670  -11.4836 C   0  0  0  0  0  0  0  0  0  0  0  0
  -26.9061   -2.0873  -12.6521 C   0  0  0  0  0  0  0  0  0  0  0  0
  -26.3211   -1.5901  -13.8176 C   0  0  0  0  0  0  0  0  0  0  0  0
  -24.9927   -1.1619  -13.8035 C   0  0  0  0  0  0  0  0  0  0  0  0
  -24.2319   -1.2192  -12.6258 C   0  0  0  0  0  0  0  0  0  0  0  0
  -24.8248   -1.7360  -11.4665 C   0  0  0  0  0  0  0  0  0  0  0  0
  -26.7307   -2.6049  -10.2672 N   0  0  0  0  0  0  0  0  0  0  0  0
  -26.2847   -3.3653   -9.7576 H   0  0  0  0  0  0  0  0  0  0  0  0
  -26.5217   -0.7355   -8.6130 O   0  0  0  0  0  0  0  0  0  0  0  0
  -27.5439   -1.5160   -9.2778 S   0  0  0  0  0  0  0  0  0  0  0  0
  -28.6009   -0.8800  -10.0330 O   0  0  0  0  0  0  0  0  0  0  0  0
  -28.2694   -2.5672   -8.0422 C   0  0  0  0  0  0  0  0  0  0  0  0
  -29.0485   -3.6577   -8.4454 C   0  0  0  0  0  0  0  0  0  0  0  0
  -29.6343   -4.4791   -7.4806 C   0  0  0  0  0  0  0  0  0  0  0  0
  -29.4253   -4.2132   -6.1262 C   0  0  0  0  0  0  0  0  0  0  0  0
  -30.2237   -5.3251   -4.8219 Br  0  0  0  0  0  0  0  0  0  0  0  0
  -28.6329   -3.1362   -5.7249 C   0  0  0  0  0  0  0  0  0  0  0  0
  -28.0519   -2.3058   -6.6861 C   0  0  0  0  0  0  0  0  0  0  0  0
  -22.4272   -0.3649  -13.9593 N   0  0  0  0  0  0  0  0  0  0  0  0
  -23.0897   -0.6661  -14.6624 H   0  0  0  0  0  0  0  0  0  0  0  0
  -21.9134    0.9057  -14.1867 C   0  0  0  0  0  0  0  0  0  0  0  0
  -22.6456    2.0064  -13.8912 N   0  0  0  0  0  0  0  0  0  0  0  0
  -22.0992    3.2227  -14.0874 C   0  0  0  0  0  0  0  0  0  0  0  0
  -20.8814    3.5158  -14.5710 N   0  0  0  0  0  0  0  0  0  0  0  0
  -20.1762    2.4040  -14.8512 C   0  0  0  0  0  0  0  0  0  0  0  0
  -20.6181    1.1040  -14.6900 C   0  0  0  0  0  0  0  0  0  0  0  0
  -19.5351    0.3114  -15.1176 C   0  0  0  0  0  0  0  0  0  0  0  0
  -18.4849    1.0339  -15.5183 N   0  0  0  0  0  0  0  0  0  0  0  0
  -18.8879    2.3155  -15.3182 N   0  0  0  0  0  0  0  0  0  0  0  0
  -17.9613    3.3910  -15.6531 C   0  0  0  0  0  0  0  0  0  0  0  0
  -16.4832    3.0499  -15.4617 C   0  0  0  0  0  0  0  0  0  0  0  0
  -15.6497    3.0914  -16.7223 C   0  0  0  0  0  0  0  0  0  0  0  0
  -15.6659    4.2429  -17.5252 C   0  0  0  0  0  0  0  0  0  0  0  0
  -14.8319    4.3494  -18.6384 C   0  0  0  0  0  0  0  0  0  0  0  0
  -13.9748    3.3033  -18.9670 C   0  0  0  0  0  0  0  0  0  0  0  0
  -13.9608    2.1469  -18.1881 C   0  0  0  0  0  0  0  0  0  0  0  0
  -14.7936    2.0390  -17.0704 C   0  0  0  0  0  0  0  0  0  0  0  0
 10 11  2  0  0  0
 11 12  2  0  0  0
 11  8  1  0  0  0
 11 13  1  0  0  0
  8  2  1  0  0  0
  8  9  1  0  0  0
  2  3  1  0  0  0
  2  7  2  0  0  0
  3  4  2  0  0  0
  4  5  1  0  0  0
  5  6  2  0  0  0
  6  1  1  0  0  0
  6  7  1  0  0  0
  1 20  1  0  0  0
 20 22  1  0  0  0
 20 21  1  0  0  0
 22 23  1  0  0  0
 22 27  2  0  0  0
 23 24  2  0  0  0
 24 25  1  0  0  0
 25 26  2  0  0  0
 26 27  1  0  0  0
 26 30  1  0  0  0
 27 28  1  0  0  0
 28 29  2  0  0  0
 29 30  1  0  0  0
 30 31  1  0  0  0
 31 32  1  0  0  0
 32 33  1  0  0  0
 33 34  1  0  0  0
 33 38  2  0  0  0
 34 35  2  0  0  0
 35 36  1  0  0  0
 36 37  2  0  0  0
 37 38  1  0  0  0
 13 14  1  0  0  0
 13 19  2  0  0  0
 14 15  2  0  0  0
 15 16  1  0  0  0
 16 17  1  0  0  0
 16 18  2  0  0  0
 18 19  1  0  0  0
M  END
> <minimizedAffinity>
-9.44052

$$$$
