CHEMBL359507


 27 29  0  0  0  0  0  0  0  0999 V2000
  -27.8346   -9.9346   -7.8524 C   0  0  0  0  0  0  0  0  0  0  0  0
  -27.3269  -10.5568   -6.7287 C   0  0  0  0  0  0  0  0  0  0  0  0
  -27.8097   -9.9323   -5.6206 N   0  0  0  0  0  0  0  0  0  0  0  0
  -27.4946  -10.2788   -4.3676 N   0  0  0  0  0  0  0  0  0  0  0  0
  -28.0774   -9.5559   -3.4665 C   0  0  0  0  0  0  0  0  0  0  0  0
  -28.9520   -8.5336   -3.6871 N   0  0  0  0  0  0  0  0  0  0  0  0
  -29.2685   -8.1806   -4.9033 C   0  0  0  0  0  0  0  0  0  0  0  0
  -28.6514   -8.9132   -5.9852 C   0  0  0  0  0  0  0  0  0  0  0  0
  -28.7002   -8.8761   -7.3784 C   0  0  0  0  0  0  0  0  0  0  0  0
  -29.4583   -7.9802   -8.3013 C   0  0  0  0  0  0  0  0  0  0  0  0
  -27.5268  -10.3082   -9.2322 C   0  0  0  0  0  0  0  0  0  0  0  0
  -26.4707  -10.0318   -9.7857 O   0  0  0  0  0  0  0  0  0  0  0  0
  -28.9378  -10.4839  -11.0966 C   0  0  0  0  0  0  0  0  0  0  0  0
  -28.5496  -10.9920   -9.8231 O   0  0  0  0  0  0  0  0  0  0  0  0
  -30.1334   -7.1291   -5.1033 N   0  0  0  0  0  0  0  0  0  0  0  0
  -31.1132   -7.2902   -4.9477 H   0  0  0  0  0  0  0  0  0  0  0  0
  -29.8182   -5.7599   -5.0118 C   0  0  0  0  0  0  0  0  0  0  0  0
  -29.1408   -5.0700   -6.0141 C   0  0  0  0  0  0  0  0  0  0  0  0
  -28.8350   -3.7136   -5.8745 C   0  0  0  0  0  0  0  0  0  0  0  0
  -29.2326   -2.9830   -4.7410 C   0  0  0  0  0  0  0  0  0  0  0  0
  -29.9280   -3.6852   -3.7449 C   0  0  0  0  0  0  0  0  0  0  0  0
  -30.3714   -3.1188   -2.5819 O   0  0  0  0  0  0  0  0  0  0  0  0
  -30.2115   -5.0487   -3.8750 C   0  0  0  0  0  0  0  0  0  0  0  0
  -30.3042   -2.1549   -2.6367 H   0  0  0  0  0  0  0  0  0  0  0  0
  -28.8488   -1.5169   -4.6031 C   0  0  0  0  0  0  0  0  0  0  0  0
  -27.3855   -1.3166   -5.0056 C   0  0  0  0  0  0  0  0  0  0  0  0
  -29.7451   -0.5503   -5.3892 C   0  0  0  0  0  0  0  0  0  0  0  0
 13 14  1  0  0  0
 14 11  1  0  0  0
 11 12  2  0  0  0
 11  1  1  0  0  0
  1  2  2  0  0  0
  1  9  1  0  0  0
  2  3  1  0  0  0
  3  4  1  0  0  0
  3  8  1  0  0  0
  4  5  2  0  0  0
  5  6  1  0  0  0
  6  7  2  0  0  0
  7 15  1  0  0  0
  7  8  1  0  0  0
 15 17  1  0  0  0
 15 16  1  0  0  0
 17 18  1  0  0  0
 17 23  2  0  0  0
 18 19  2  0  0  0
 19 20  1  0  0  0
 20 25  1  0  0  0
 20 21  2  0  0  0
 25 26  1  0  0  0
 25 27  1  0  0  0
 21 22  1  0  0  0
 21 23  1  0  0  0
 22 24  1  0  0  0
  8  9  2  0  0  0
  9 10  1  0  0  0
M  END
> <minimizedAffinity>
-7.45693

$$$$
