CHEMBL1277620


 24 26  0  0  0  0  0  0  0  0999 V2000
  -28.5621   -1.7405   -4.9311 C   0  0  0  0  0  0  0  0  0  0  0  0
  -29.5531   -2.2240   -4.0609 C   0  0  0  0  0  0  0  0  0  0  0  0
  -30.1986   -3.4341   -4.2655 C   0  0  0  0  0  0  0  0  0  0  0  0
  -31.0527   -3.8734   -3.3343 N   0  0  0  0  0  0  0  0  0  0  0  0
  -31.5682   -5.0912   -3.5166 C   0  0  0  0  0  0  0  0  0  0  0  0
  -31.2928   -5.9104   -4.5313 N   0  0  0  0  0  0  0  0  0  0  0  0
  -30.4459   -5.4516   -5.4753 C   0  0  0  0  0  0  0  0  0  0  0  0
  -29.8835   -4.1668   -5.4072 C   0  0  0  0  0  0  0  0  0  0  0  0
  -29.0001   -3.6229   -6.3583 C   0  0  0  0  0  0  0  0  0  0  0  0
  -28.3278   -2.4189   -6.1306 C   0  0  0  0  0  0  0  0  0  0  0  0
  -28.4401    0.6219   -5.0122 C   0  0  0  0  0  0  0  0  0  0  0  0
  -27.8384   -0.6180   -4.6262 O   0  0  0  0  0  0  0  0  0  0  0  0
  -30.0401   -6.3368   -6.5046 N   0  0  0  0  0  0  0  0  0  0  0  0
  -29.9244   -5.8499   -7.3891 H   0  0  0  0  0  0  0  0  0  0  0  0
  -30.5402   -7.6472   -6.6597 C   0  0  0  0  0  0  0  0  0  0  0  0
  -31.7825   -7.8776   -7.2675 C   0  0  0  0  0  0  0  0  0  0  0  0
  -32.2243   -9.1760   -7.5226 C   0  0  0  0  0  0  0  0  0  0  0  0
  -31.4302  -10.2568   -7.1485 C   0  0  0  0  0  0  0  0  0  0  0  0
  -31.9831  -12.0108   -7.5818 Br  0  0  0  0  0  0  0  0  0  0  0  0
  -30.2251  -10.0531   -6.4811 C   0  0  0  0  0  0  0  0  0  0  0  0
  -29.7968   -8.7520   -6.2353 C   0  0  0  0  0  0  0  0  0  0  0  0
  -28.6238   -8.5580   -5.6119 F   0  0  0  0  0  0  0  0  0  0  0  0
  -27.4871   -2.1223   -7.1634 O   0  0  0  0  0  0  0  0  0  0  0  0
  -27.8666   -2.4115   -8.4962 C   0  0  0  0  0  0  0  0  0  0  0  0
 11 12  1  0  0  0
 12  1  1  0  0  0
  1  2  1  0  0  0
  1 10  2  0  0  0
  2  3  2  0  0  0
  3  4  1  0  0  0
  3  8  1  0  0  0
  4  5  2  0  0  0
  5  6  1  0  0  0
  6  7  2  0  0  0
  7 13  1  0  0  0
  7  8  1  0  0  0
 13 15  1  0  0  0
 13 14  1  0  0  0
 15 16  1  0  0  0
 15 21  2  0  0  0
 16 17  2  0  0  0
 17 18  1  0  0  0
 18 19  1  0  0  0
 18 20  2  0  0  0
 20 21  1  0  0  0
 21 22  1  0  0  0
  8  9  2  0  0  0
  9 10  1  0  0  0
 10 23  1  0  0  0
 23 24  1  0  0  0
M  END
> <minimizedAffinity>
-7.58060

$$$$
