CHEMBL262607


 35 38  0  0  0  0  0  0  0  0999 V2000
  -19.7691    2.1499  -14.6757 C   0  0  0  0  0  0  0  0  0  0  0  0
  -18.9042    1.0640  -14.4950 C   0  0  0  0  0  0  0  0  0  0  0  0
  -17.6072    1.0860  -15.0181 C   0  0  0  0  0  0  0  0  0  0  0  0
  -17.1501    2.2090  -15.7119 C   0  0  0  0  0  0  0  0  0  0  0  0
  -18.0361    3.2731  -15.9422 C   0  0  0  0  0  0  0  0  0  0  0  0
  -19.3496    3.2360  -15.4446 C   0  0  0  0  0  0  0  0  0  0  0  0
  -15.7339    2.3016  -16.1971 C   0  0  0  0  0  0  0  0  0  0  0  0
  -15.2643    3.4587  -16.5570 N   0  0  0  0  0  0  0  0  0  0  0  0
  -13.9191    3.5646  -17.0180 C   0  0  0  0  0  0  0  0  0  0  0  0
  -13.1469    4.6652  -16.6262 C   0  0  0  0  0  0  0  0  0  0  0  0
  -13.6444    5.5647  -15.6678 N   0  0  0  0  0  0  0  0  0  0  0  0
  -11.8959    4.9016  -17.0544 N   0  0  0  0  0  0  0  0  0  0  0  0
  -11.4108    4.0078  -17.9221 C   0  0  0  0  0  0  0  0  0  0  0  0
  -12.0412    2.9198  -18.3833 N   0  0  0  0  0  0  0  0  0  0  0  0
  -13.2914    2.7029  -17.9248 C   0  0  0  0  0  0  0  0  0  0  0  0
  -13.8888    1.5799  -18.4810 N   0  0  0  0  0  0  0  0  0  0  0  0
  -14.6317    0.6298  -17.6631 C   0  0  0  0  0  0  0  0  0  0  0  0
  -14.8872    1.0413  -16.2235 C   0  0  0  0  0  0  0  0  0  0  0  0
  -14.6252    5.7493  -15.8562 H   0  0  0  0  0  0  0  0  0  0  0  0
  -13.0452    6.3811  -15.6463 H   0  0  0  0  0  0  0  0  0  0  0  0
  -13.1871    1.1441  -19.0764 H   0  0  0  0  0  0  0  0  0  0  0  0
  -23.0535    1.1727  -13.4646 N   0  0  0  0  0  0  0  0  0  0  0  0
  -21.8069    1.0065  -14.0488 C   0  0  0  0  0  0  0  0  0  0  0  0
  -21.3656   -0.0478  -14.4876 O   0  0  0  0  0  0  0  0  0  0  0  0
  -21.0379    2.1731  -14.0324 N   0  0  0  0  0  0  0  0  0  0  0  0
  -23.2243    2.0422  -12.9837 H   0  0  0  0  0  0  0  0  0  0  0  0
  -21.0782    2.6762  -13.1586 H   0  0  0  0  0  0  0  0  0  0  0  0
  -26.0379   -1.4403  -10.4682 C   0  0  0  0  0  0  0  0  0  0  0  0
  -25.4855   -1.1570  -11.8367 C   0  0  0  0  0  0  0  0  0  0  0  0
  -25.8932   -1.9471  -12.9162 C   0  0  0  0  0  0  0  0  0  0  0  0
  -25.4193   -1.6741  -14.1917 C   0  0  0  0  0  0  0  0  0  0  0  0
  -24.5244   -0.6272  -14.3973 C   0  0  0  0  0  0  0  0  0  0  0  0
  -24.2391   -0.3488  -15.6749 F   0  0  0  0  0  0  0  0  0  0  0  0
  -24.0373    0.1473  -13.3318 C   0  0  0  0  0  0  0  0  0  0  0  0
  -24.5602   -0.1106  -12.0507 C   0  0  0  0  0  0  0  0  0  0  0  0
 28 29  1  0  0  0
 29 30  1  0  0  0
 29 35  2  0  0  0
 30 31  2  0  0  0
 31 32  1  0  0  0
 32 33  1  0  0  0
 32 34  2  0  0  0
 34 22  1  0  0  0
 34 35  1  0  0  0
 22 23  1  0  0  0
 22 26  1  0  0  0
 23 24  2  0  0  0
 23 25  1  0  0  0
 25  1  1  0  0  0
 25 27  1  0  0  0
  1  2  1  0  0  0
  1  6  2  0  0  0
  2  3  2  0  0  0
  3  4  1  0  0  0
  4  7  1  0  0  0
  4  5  2  0  0  0
  7  8  2  0  0  0
  7 18  1  0  0  0
  8  9  1  0  0  0
  9 10  1  0  0  0
  9 15  2  0  0  0
 10 11  1  0  0  0
 10 12  2  0  0  0
 11 19  1  0  0  0
 11 20  1  0  0  0
 12 13  1  0  0  0
 13 14  2  0  0  0
 14 15  1  0  0  0
 15 16  1  0  0  0
 16 17  1  0  0  0
 16 21  1  0  0  0
 17 18  1  0  0  0
  5  6  1  0  0  0
M  END
> <minimizedAffinity>
-9.74594

$$$$
