CHEMBL3754627


 35 39  0  0  0  0  0  0  0  0999 V2000
  -29.2021   -9.8021   -7.2121 N   0  0  0  0  0  0  0  0  0  0  0  0
  -29.9702   -8.7094   -7.8868 C   0  0  0  0  0  0  0  0  0  0  0  0
  -29.2213   -7.3577   -7.9792 C   0  0  0  0  0  0  0  0  0  0  0  0
  -28.9053   -6.9666   -6.6039 N   0  0  0  0  0  0  0  0  0  0  0  0
  -28.0490   -7.9100   -5.8862 C   0  0  0  0  0  0  0  0  0  0  0  0
  -28.7745   -9.2901   -5.8729 C   0  0  0  0  0  0  0  0  0  0  0  0
  -29.0501   -5.6413   -6.2537 C   0  0  0  0  0  0  0  0  0  0  0  0
  -28.3962   -4.7265   -7.0049 N   0  0  0  0  0  0  0  0  0  0  0  0
  -28.5100   -3.3943   -6.7500 N   0  0  0  0  0  0  0  0  0  0  0  0
  -29.3194   -2.9470   -5.7682 C   0  0  0  0  0  0  0  0  0  0  0  0
  -30.1128   -3.8438   -5.0067 C   0  0  0  0  0  0  0  0  0  0  0  0
  -31.0931   -3.4560   -4.0525 C   0  0  0  0  0  0  0  0  0  0  0  0
  -31.7776   -4.3694   -3.2450 C   0  0  0  0  0  0  0  0  0  0  0  0
  -31.5735   -5.7081   -3.4344 C   0  0  0  0  0  0  0  0  0  0  0  0
  -30.7159   -6.1222   -4.4469 C   0  0  0  0  0  0  0  0  0  0  0  0
  -29.9355   -5.2284   -5.2320 C   0  0  0  0  0  0  0  0  0  0  0  0
  -29.2185   -1.4843   -5.5421 C   0  0  0  0  0  0  0  0  0  0  0  0
  -28.0656   -0.9108   -4.9699 C   0  0  0  0  0  0  0  0  0  0  0  0
  -27.9780    0.4658   -4.7359 C   0  0  0  0  0  0  0  0  0  0  0  0
  -29.0286    1.3022   -5.0969 C   0  0  0  0  0  0  0  0  0  0  0  0
  -30.1827    0.7659   -5.6464 C   0  0  0  0  0  0  0  0  0  0  0  0
  -30.2883   -0.6120   -5.8156 C   0  0  0  0  0  0  0  0  0  0  0  0
  -28.0054  -10.1836   -7.9988 C   0  0  0  0  0  0  0  0  0  0  0  0
  -27.0641  -11.9041   -6.6167 O   0  0  0  0  0  0  0  0  0  0  0  0
  -26.8925  -10.8051   -7.1515 C   0  0  0  0  0  0  0  0  0  0  0  0
  -25.6909  -10.1130   -7.1430 N   0  0  0  0  0  0  0  0  0  0  0  0
  -25.5388   -9.5396   -7.9672 H   0  0  0  0  0  0  0  0  0  0  0  0
  -24.5477  -10.6530   -6.4897 C   0  0  0  0  0  0  0  0  0  0  0  0
  -24.2708  -10.2822   -5.1633 C   0  0  0  0  0  0  0  0  0  0  0  0
  -25.3611   -9.2834   -4.2648 Cl  0  0  0  0  0  0  0  0  0  0  0  0
  -23.0852  -10.6874   -4.5371 C   0  0  0  0  0  0  0  0  0  0  0  0
  -22.2064  -11.5479   -5.1916 C   0  0  0  0  0  0  0  0  0  0  0  0
  -22.5184  -12.0083   -6.4688 C   0  0  0  0  0  0  0  0  0  0  0  0
  -23.6703  -11.5538   -7.1244 C   0  0  0  0  0  0  0  0  0  0  0  0
  -24.0242  -12.2739   -8.6610 Cl  0  0  0  0  0  0  0  0  0  0  0  0
 24 25  2  0  0  0
 25 23  1  0  0  0
 25 26  1  0  0  0
 23  1  1  0  0  0
  1  2  1  0  0  0
  1  6  1  0  0  0
  2  3  1  0  0  0
  3  4  1  0  0  0
  4  7  1  0  0  0
  4  5  1  0  0  0
  7  8  1  0  0  0
  7 16  2  0  0  0
  8  9  2  0  0  0
  9 10  1  0  0  0
 10 17  1  0  0  0
 10 11  2  0  0  0
 17 18  1  0  0  0
 17 22  2  0  0  0
 18 19  2  0  0  0
 19 20  1  0  0  0
 20 21  2  0  0  0
 21 22  1  0  0  0
 11 12  1  0  0  0
 11 16  1  0  0  0
 12 13  2  0  0  0
 13 14  1  0  0  0
 14 15  2  0  0  0
 15 16  1  0  0  0
  5  6  1  0  0  0
 26 28  1  0  0  0
 26 27  1  0  0  0
 28 29  1  0  0  0
 28 34  2  0  0  0
 29 30  1  0  0  0
 29 31  2  0  0  0
 31 32  1  0  0  0
 32 33  2  0  0  0
 33 34  1  0  0  0
 34 35  1  0  0  0
M  END
> <minimizedAffinity>
-9.95636

$$$$
