CHEMBL3939828


 28 31  0  0  0  0  0  0  0  0999 V2000
  -14.5851   -5.8192  -14.2199 C   0  0  0  0  0  0  0  0  0  0  0  0
  -14.5406   -4.4129  -14.0823 C   0  0  0  0  0  0  0  0  0  0  0  0
  -15.0199   -3.7431  -12.9315 C   0  0  0  0  0  0  0  0  0  0  0  0
  -15.0092   -2.3448  -12.6961 C   0  0  0  0  0  0  0  0  0  0  0  0
  -15.4721   -1.8201  -11.5433 N   0  0  0  0  0  0  0  0  0  0  0  0
  -15.9474   -2.6727  -10.6353 C   0  0  0  0  0  0  0  0  0  0  0  0
  -16.0061   -4.0019  -10.7589 N   0  0  0  0  0  0  0  0  0  0  0  0
  -15.5410   -4.5216  -11.8975 C   0  0  0  0  0  0  0  0  0  0  0  0
  -15.5749   -5.9113  -12.0316 C   0  0  0  0  0  0  0  0  0  0  0  0
  -15.1262   -6.5890  -13.1838 C   0  0  0  0  0  0  0  0  0  0  0  0
  -12.9238   -5.6778  -15.9902 C   0  0  0  0  0  0  0  0  0  0  0  0
  -14.1298   -6.1888  -15.4539 O   0  0  0  0  0  0  0  0  0  0  0  0
  -14.5209   -1.4332  -13.6801 N   0  0  0  0  0  0  0  0  0  0  0  0
  -14.1206   -1.9655  -14.4465 H   0  0  0  0  0  0  0  0  0  0  0  0
  -15.2569   -0.3041  -14.1344 C   0  0  0  0  0  0  0  0  0  0  0  0
  -16.6570   -0.3570  -14.2154 C   0  0  0  0  0  0  0  0  0  0  0  0
  -17.4022    0.7143  -14.7177 C   0  0  0  0  0  0  0  0  0  0  0  0
  -16.7554    1.8743  -15.1403 C   0  0  0  0  0  0  0  0  0  0  0  0
  -17.8314    3.2552  -15.8778 Br  0  0  0  0  0  0  0  0  0  0  0  0
  -15.3632    1.9664  -15.0237 C   0  0  0  0  0  0  0  0  0  0  0  0
  -14.4919    3.3790  -15.5129 Cl  0  0  0  0  0  0  0  0  0  0  0  0
  -14.6201    0.8865  -14.5109 C   0  0  0  0  0  0  0  0  0  0  0  0
  -15.1957   -7.9658  -13.2664 O   0  0  0  0  0  0  0  0  0  0  0  0
  -14.0716   -8.7228  -12.7477 C   0  0  0  0  0  0  0  0  0  0  0  0
  -13.2095   -7.9430  -11.7668 C   0  0  0  0  0  0  0  0  0  0  0  0
  -11.8800   -7.7071  -12.4502 C   0  0  0  0  0  0  0  0  0  0  0  0
  -11.8225   -8.5062  -13.6244 O   0  0  0  0  0  0  0  0  0  0  0  0
  -13.1074   -9.0821  -13.8771 C   0  0  0  0  0  0  0  0  0  0  0  0
 11 12  1  0  0  0
 12  1  1  0  0  0
  1  2  1  0  0  0
  1 10  2  0  0  0
  2  3  2  0  0  0
  3  4  1  0  0  0
  3  8  1  0  0  0
  4 13  1  0  0  0
  4  5  2  0  0  0
 13 15  1  0  0  0
 13 14  1  0  0  0
 15 16  1  0  0  0
 15 22  2  0  0  0
 16 17  2  0  0  0
 17 18  1  0  0  0
 18 19  1  0  0  0
 18 20  2  0  0  0
 20 21  1  0  0  0
 20 22  1  0  0  0
  5  6  1  0  0  0
  6  7  2  0  0  0
  7  8  1  0  0  0
  8  9  2  0  0  0
  9 10  1  0  0  0
 10 23  1  0  0  0
 23 24  1  0  0  0
 24 25  1  0  0  0
 24 28  1  0  0  0
 25 26  1  0  0  0
 26 27  1  0  0  0
 27 28  1  0  0  0
M  END
> <minimizedAffinity>
-7.26554

$$$$
