CHEMBL3941474


 30 34  0  0  0  0  0  0  0  0999 V2000
  -27.5755   -4.0713   -9.0172 N   0  0  0  0  0  0  0  0  0  0  0  0
  -27.7043   -2.8001   -8.5186 C   0  0  0  0  0  0  0  0  0  0  0  0
  -27.6987   -1.6161   -9.2244 C   0  0  0  0  0  0  0  0  0  0  0  0
  -27.9337   -0.6235   -8.2436 C   0  0  0  0  0  0  0  0  0  0  0  0
  -28.1806   -1.1337   -7.0370 N   0  0  0  0  0  0  0  0  0  0  0  0
  -27.9936   -2.4791   -7.1918 N   0  0  0  0  0  0  0  0  0  0  0  0
  -27.6439   -4.1760  -10.0308 H   0  0  0  0  0  0  0  0  0  0  0  0
  -28.0554   -4.8614   -8.5500 H   0  0  0  0  0  0  0  0  0  0  0  0
  -28.1899   -3.3827   -6.1109 C   0  0  0  0  0  0  0  0  0  0  0  0
  -27.5646   -3.1398   -4.8815 C   0  0  0  0  0  0  0  0  0  0  0  0
  -27.8864   -3.9123   -3.7583 C   0  0  0  0  0  0  0  0  0  0  0  0
  -28.7896   -4.9691   -3.9267 C   0  0  0  0  0  0  0  0  0  0  0  0
  -29.2723   -5.8838   -3.0176 N   0  0  0  0  0  0  0  0  0  0  0  0
  -30.0993   -6.7819   -3.6418 C   0  0  0  0  0  0  0  0  0  0  0  0
  -30.1894   -6.4204   -4.9660 C   0  0  0  0  0  0  0  0  0  0  0  0
  -29.3685   -5.2768   -5.1547 C   0  0  0  0  0  0  0  0  0  0  0  0
  -29.0690   -4.4728   -6.2671 C   0  0  0  0  0  0  0  0  0  0  0  0
  -29.0303   -5.9021   -2.0370 H   0  0  0  0  0  0  0  0  0  0  0  0
  -27.6154   -1.5287  -10.6752 C   0  0  0  0  0  0  0  0  0  0  0  0
  -28.6313   -1.4777  -11.3607 O   0  0  0  0  0  0  0  0  0  0  0  0
  -26.3095   -1.4890  -11.2673 C   0  0  0  0  0  0  0  0  0  0  0  0
  -25.0615   -1.2523  -10.7240 C   0  0  0  0  0  0  0  0  0  0  0  0
  -24.1405   -1.1833  -11.7973 C   0  0  0  0  0  0  0  0  0  0  0  0
  -22.7845   -0.8535  -11.8784 C   0  0  0  0  0  0  0  0  0  0  0  0
  -22.4419   -0.0593  -12.9686 C   0  0  0  0  0  0  0  0  0  0  0  0
  -23.1766   -0.1532  -14.1462 C   0  0  0  0  0  0  0  0  0  0  0  0
  -24.3381   -0.9292  -14.2138 C   0  0  0  0  0  0  0  0  0  0  0  0
  -24.8691   -1.2880  -12.9761 C   0  0  0  0  0  0  0  0  0  0  0  0
  -26.1162   -1.7303  -12.6166 N   0  0  0  0  0  0  0  0  0  0  0  0
  -26.8655   -1.9543  -13.2576 H   0  0  0  0  0  0  0  0  0  0  0  0
  1  2  1  0  0  0
  1  7  1  0  0  0
  1  8  1  0  0  0
  2  3  2  0  0  0
  2  6  1  0  0  0
  3 19  1  0  0  0
  3  4  1  0  0  0
 19 20  2  0  0  0
 19 21  1  0  0  0
 21 22  2  0  0  0
 21 29  1  0  0  0
 22 23  1  0  0  0
 23 24  1  0  0  0
 23 28  2  0  0  0
 24 25  2  0  0  0
 25 26  1  0  0  0
 26 27  2  0  0  0
 27 28  1  0  0  0
 28 29  1  0  0  0
 29 30  1  0  0  0
  4  5  2  0  0  0
  5  6  1  0  0  0
  6  9  1  0  0  0
  9 10  1  0  0  0
  9 17  2  0  0  0
 10 11  2  0  0  0
 11 12  1  0  0  0
 12 13  1  0  0  0
 12 16  2  0  0  0
 13 14  1  0  0  0
 13 18  1  0  0  0
 14 15  2  0  0  0
 15 16  1  0  0  0
 16 17  1  0  0  0
M  END
> <minimizedAffinity>
-9.75231

$$$$
