CHEMBL3952920


 38 41  0  0  0  0  0  0  0  0999 V2000
  -27.7828   -2.4950   -8.0627 C   0  0  0  0  0  0  0  0  0  0  0  0
  -28.1162   -1.7594   -6.9191 C   0  0  0  0  0  0  0  0  0  0  0  0
  -29.1864   -2.1425   -6.1001 C   0  0  0  0  0  0  0  0  0  0  0  0
  -29.9544   -3.2584   -6.4296 C   0  0  0  0  0  0  0  0  0  0  0  0
  -29.6889   -3.9151   -7.6335 C   0  0  0  0  0  0  0  0  0  0  0  0
  -30.4518   -4.9354   -8.0502 F   0  0  0  0  0  0  0  0  0  0  0  0
  -28.5986   -3.5651   -8.4278 C   0  0  0  0  0  0  0  0  0  0  0  0
  -27.7280   -1.3021  -10.7131 O   0  0  0  0  0  0  0  0  0  0  0  0
  -26.7103   -1.6841  -10.1601 C   0  0  0  0  0  0  0  0  0  0  0  0
  -25.4556   -1.6867  -10.7517 N   0  0  0  0  0  0  0  0  0  0  0  0
  -26.6683   -2.2225   -8.8852 N   0  0  0  0  0  0  0  0  0  0  0  0
  -24.7402   -2.2317  -10.2929 H   0  0  0  0  0  0  0  0  0  0  0  0
  -25.7579   -2.3396   -8.4676 H   0  0  0  0  0  0  0  0  0  0  0  0
  -25.1878   -1.2743  -12.0788 C   0  0  0  0  0  0  0  0  0  0  0  0
  -26.0049   -1.6051  -13.1607 C   0  0  0  0  0  0  0  0  0  0  0  0
  -25.6530   -1.2154  -14.4462 C   0  0  0  0  0  0  0  0  0  0  0  0
  -26.4416   -1.5455  -15.4752 F   0  0  0  0  0  0  0  0  0  0  0  0
  -24.4918   -0.4975  -14.6825 C   0  0  0  0  0  0  0  0  0  0  0  0
  -23.6599   -0.1435  -13.6138 C   0  0  0  0  0  0  0  0  0  0  0  0
  -24.0301   -0.5179  -12.3072 C   0  0  0  0  0  0  0  0  0  0  0  0
  -22.3760    0.6055  -13.8659 C   0  0  0  0  0  0  0  0  0  0  0  0
  -21.5069    0.5598  -12.8189 F   0  0  0  0  0  0  0  0  0  0  0  0
  -21.6958    0.1223  -14.9409 F   0  0  0  0  0  0  0  0  0  0  0  0
  -22.5882    1.9261  -14.1183 F   0  0  0  0  0  0  0  0  0  0  0  0
  -30.9560   -3.5793   -5.5425 O   0  0  0  0  0  0  0  0  0  0  0  0
  -30.8007   -4.6496   -4.6832 C   0  0  0  0  0  0  0  0  0  0  0  0
  -31.7073   -4.9878   -3.6839 C   0  0  0  0  0  0  0  0  0  0  0  0
  -31.3818   -6.0288   -2.8458 C   0  0  0  0  0  0  0  0  0  0  0  0
  -30.2824   -6.7775   -2.9981 N   0  0  0  0  0  0  0  0  0  0  0  0
  -29.4439   -6.5086   -4.0112 C   0  0  0  0  0  0  0  0  0  0  0  0
  -29.6658   -5.4444   -4.8795 C   0  0  0  0  0  0  0  0  0  0  0  0
  -28.3159   -7.3228   -4.1874 N   0  0  0  0  0  0  0  0  0  0  0  0
  -28.3444   -8.5535   -4.8243 C   0  0  0  0  0  0  0  0  0  0  0  0
  -29.2945   -9.1200   -5.3331 O   0  0  0  0  0  0  0  0  0  0  0  0
  -27.4386   -6.9889   -3.8203 H   0  0  0  0  0  0  0  0  0  0  0  0
  -27.0121   -9.2355   -4.8270 C   0  0  0  0  0  0  0  0  0  0  0  0
  -26.5333  -10.0235   -3.6216 C   0  0  0  0  0  0  0  0  0  0  0  0
  -25.9150   -8.6939   -3.9408 C   0  0  0  0  0  0  0  0  0  0  0  0
  8  9  2  0  0  0
  9 10  1  0  0  0
  9 11  1  0  0  0
 10 14  1  0  0  0
 10 12  1  0  0  0
 14 15  1  0  0  0
 14 20  2  0  0  0
 15 16  2  0  0  0
 16 17  1  0  0  0
 16 18  1  0  0  0
 18 19  2  0  0  0
 19 21  1  0  0  0
 19 20  1  0  0  0
 21 22  1  0  0  0
 21 23  1  0  0  0
 21 24  1  0  0  0
 11  1  1  0  0  0
 11 13  1  0  0  0
  1  2  1  0  0  0
  1  7  2  0  0  0
  2  3  2  0  0  0
  3  4  1  0  0  0
  4 25  1  0  0  0
  4  5  2  0  0  0
 25 26  1  0  0  0
 26 27  1  0  0  0
 26 31  2  0  0  0
 27 28  2  0  0  0
 28 29  1  0  0  0
 29 30  2  0  0  0
 30 32  1  0  0  0
 30 31  1  0  0  0
 32 33  1  0  0  0
 32 35  1  0  0  0
 33 34  2  0  0  0
 33 36  1  0  0  0
 36 37  1  0  0  0
 36 38  1  0  0  0
 37 38  1  0  0  0
  5  6  1  0  0  0
  5  7  1  0  0  0
M  END
> <minimizedAffinity>
-10.35080

$$$$
