CHEMBL371510


 32 35  0  0  0  0  0  0  0  0999 V2000
  -29.7941   -6.0191   -5.4126 C   0  0  0  0  0  0  0  0  0  0  0  0
  -30.8649   -6.5393   -6.1452 C   0  0  0  0  0  0  0  0  0  0  0  0
  -30.7751   -7.8129   -6.7199 C   0  0  0  0  0  0  0  0  0  0  0  0
  -29.6046   -8.5825   -6.6019 C   0  0  0  0  0  0  0  0  0  0  0  0
  -28.5168   -8.0249   -5.9203 C   0  0  0  0  0  0  0  0  0  0  0  0
  -28.6227   -6.7656   -5.3280 C   0  0  0  0  0  0  0  0  0  0  0  0
  -27.5917   -6.2936   -4.6094 F   0  0  0  0  0  0  0  0  0  0  0  0
  -29.5248   -9.9201   -7.2085 C   0  0  0  0  0  0  0  0  0  0  0  0
  -30.1566  -10.9845   -6.5822 C   0  0  0  0  0  0  0  0  0  0  0  0
  -29.9941  -12.4562   -7.4222 S   0  0  0  0  0  0  0  0  0  0  0  0
  -29.0936  -11.7110   -8.6552 C   0  0  0  0  0  0  0  0  0  0  0  0
  -28.6710  -12.4503   -9.6937 N   0  0  0  0  0  0  0  0  0  0  0  0
  -27.9817  -11.7353  -10.5792 C   0  0  0  0  0  0  0  0  0  0  0  0
  -27.6781  -10.4337  -10.5081 N   0  0  0  0  0  0  0  0  0  0  0  0
  -28.1027   -9.7249   -9.4449 C   0  0  0  0  0  0  0  0  0  0  0  0
  -27.7019   -8.3945   -9.4349 N   0  0  0  0  0  0  0  0  0  0  0  0
  -28.8768  -10.3529   -8.4440 C   0  0  0  0  0  0  0  0  0  0  0  0
  -26.9963   -8.2494  -10.1505 H   0  0  0  0  0  0  0  0  0  0  0  0
  -27.4538   -8.0455   -8.5179 H   0  0  0  0  0  0  0  0  0  0  0  0
  -29.5173   -2.5217   -4.4645 N   0  0  0  0  0  0  0  0  0  0  0  0
  -29.3262   -3.6202   -5.2854 C   0  0  0  0  0  0  0  0  0  0  0  0
  -28.7762   -3.6012   -6.3791 O   0  0  0  0  0  0  0  0  0  0  0  0
  -29.8705   -4.7748   -4.7388 N   0  0  0  0  0  0  0  0  0  0  0  0
  -29.7244   -2.7140   -3.4947 H   0  0  0  0  0  0  0  0  0  0  0  0
  -30.7064   -4.6359   -4.1834 H   0  0  0  0  0  0  0  0  0  0  0  0
  -31.1116    1.7474   -6.4038 C   0  0  0  0  0  0  0  0  0  0  0  0
  -30.0211    0.9267   -5.7758 C   0  0  0  0  0  0  0  0  0  0  0  0
  -28.7583    1.4915   -5.5688 C   0  0  0  0  0  0  0  0  0  0  0  0
  -27.7452    0.7350   -4.9936 C   0  0  0  0  0  0  0  0  0  0  0  0
  -27.9830   -0.5884   -4.6242 C   0  0  0  0  0  0  0  0  0  0  0  0
  -29.2383   -1.1771   -4.8105 C   0  0  0  0  0  0  0  0  0  0  0  0
  -30.2552   -0.4088   -5.3934 C   0  0  0  0  0  0  0  0  0  0  0  0
 26 27  1  0  0  0
 27 28  1  0  0  0
 27 32  2  0  0  0
 28 29  2  0  0  0
 29 30  1  0  0  0
 30 31  2  0  0  0
 31 20  1  0  0  0
 31 32  1  0  0  0
 20 21  1  0  0  0
 20 24  1  0  0  0
 21 22  2  0  0  0
 21 23  1  0  0  0
 23  1  1  0  0  0
 23 25  1  0  0  0
  1  2  1  0  0  0
  1  6  2  0  0  0
  2  3  2  0  0  0
  3  4  1  0  0  0
  4  8  1  0  0  0
  4  5  2  0  0  0
  8  9  2  0  0  0
  8 17  1  0  0  0
  9 10  1  0  0  0
 10 11  1  0  0  0
 11 12  1  0  0  0
 11 17  2  0  0  0
 12 13  2  0  0  0
 13 14  1  0  0  0
 14 15  2  0  0  0
 15 16  1  0  0  0
 15 17  1  0  0  0
 16 18  1  0  0  0
 16 19  1  0  0  0
  5  6  1  0  0  0
  6  7  1  0  0  0
M  END
> <minimizedAffinity>
-8.69849

$$$$
