CHEMBL4582099


 24 27  0  0  0  0  0  0  0  0999 V2000
  -28.0483   -2.0414   -9.1298 C   0  0  0  0  0  0  0  0  0  0  0  0
  -27.7699   -0.9794   -8.3719 N   0  0  0  0  0  0  0  0  0  0  0  0
  -27.7591   -1.1806   -7.0413 C   0  0  0  0  0  0  0  0  0  0  0  0
  -28.0015   -2.3968   -6.4259 C   0  0  0  0  0  0  0  0  0  0  0  0
  -28.2972   -3.4331   -7.2798 C   0  0  0  0  0  0  0  0  0  0  0  0
  -28.3272   -3.2503   -8.6215 N   0  0  0  0  0  0  0  0  0  0  0  0
  -28.5940   -4.7984   -6.8236 C   0  0  0  0  0  0  0  0  0  0  0  0
  -28.9395   -5.8158   -7.7387 C   0  0  0  0  0  0  0  0  0  0  0  0
  -29.2001   -7.1148   -7.3127 C   0  0  0  0  0  0  0  0  0  0  0  0
  -29.1172   -7.3756   -5.9635 C   0  0  0  0  0  0  0  0  0  0  0  0
  -28.7966   -6.4399   -5.0491 N   0  0  0  0  0  0  0  0  0  0  0  0
  -28.5352   -5.1763   -5.4823 C   0  0  0  0  0  0  0  0  0  0  0  0
  -28.0714   -4.0951   -4.1546 S   0  0  0  0  0  0  0  0  0  0  0  0
  -27.9538   -2.4831   -4.9424 C   0  0  0  0  0  0  0  0  0  0  0  0
  -28.0165   -1.8562  -10.5137 N   0  0  0  0  0  0  0  0  0  0  0  0
  -28.7300   -2.4504  -10.9159 H   0  0  0  0  0  0  0  0  0  0  0  0
  -24.5231   -1.4543  -12.8551 C   0  0  0  0  0  0  0  0  0  0  0  0
  -25.7582   -1.6195  -13.4772 C   0  0  0  0  0  0  0  0  0  0  0  0
  -26.9185   -1.7604  -12.7085 C   0  0  0  0  0  0  0  0  0  0  0  0
  -26.8658   -1.7468  -11.3091 C   0  0  0  0  0  0  0  0  0  0  0  0
  -25.6292   -1.5271  -10.6950 C   0  0  0  0  0  0  0  0  0  0  0  0
  -24.4658   -1.4012  -11.4609 C   0  0  0  0  0  0  0  0  0  0  0  0
  -22.9735   -0.0395  -13.9646 C   0  0  0  0  0  0  0  0  0  0  0  0
  -23.3167   -1.3362  -13.4881 O   0  0  0  0  0  0  0  0  0  0  0  0
 23 24  1  0  0  0
 24 17  1  0  0  0
 17 18  1  0  0  0
 17 22  2  0  0  0
 18 19  2  0  0  0
 19 20  1  0  0  0
 20 15  1  0  0  0
 20 21  2  0  0  0
 15  1  1  0  0  0
 15 16  1  0  0  0
  1  2  1  0  0  0
  1  6  2  0  0  0
  2  3  2  0  0  0
  3  4  1  0  0  0
  4  5  2  0  0  0
  4 14  1  0  0  0
  5  6  1  0  0  0
  5  7  1  0  0  0
  7  8  1  0  0  0
  7 12  2  0  0  0
  8  9  2  0  0  0
  9 10  1  0  0  0
 10 11  2  0  0  0
 11 12  1  0  0  0
 12 13  1  0  0  0
 13 14  1  0  0  0
 21 22  1  0  0  0
M  END
> <minimizedAffinity>
-8.73705

$$$$
