CHEMBL240429


 29 33  0  0  0  0  0  0  0  0999 V2000
  -12.0544   -5.9866  -10.1264 C   0  0  0  0  0  0  0  0  0  0  0  0
  -11.2265   -7.0686  -10.1331 O   0  0  0  0  0  0  0  0  0  0  0  0
  -11.6502   -7.9180  -11.0994 C   0  0  0  0  0  0  0  0  0  0  0  0
  -11.0673   -9.1145  -11.2904 N   0  0  0  0  0  0  0  0  0  0  0  0
  -11.6378   -9.8263  -12.2750 C   0  0  0  0  0  0  0  0  0  0  0  0
  -12.6907   -9.3986  -13.0681 C   0  0  0  0  0  0  0  0  0  0  0  0
  -13.2553   -8.1276  -12.8763 C   0  0  0  0  0  0  0  0  0  0  0  0
  -12.7254   -7.3675  -11.7973 C   0  0  0  0  0  0  0  0  0  0  0  0
  -12.9998   -6.1047  -11.1463 C   0  0  0  0  0  0  0  0  0  0  0  0
  -11.1437   -3.2559   -6.9614 C   0  0  0  0  0  0  0  0  0  0  0  0
  -11.7634   -4.4702   -6.6792 C   0  0  0  0  0  0  0  0  0  0  0  0
  -12.0707   -5.3578   -7.7166 C   0  0  0  0  0  0  0  0  0  0  0  0
  -11.7736   -5.0352   -9.0498 C   0  0  0  0  0  0  0  0  0  0  0  0
  -11.1922   -3.7878   -9.3149 C   0  0  0  0  0  0  0  0  0  0  0  0
  -10.8578   -2.9136   -8.2799 C   0  0  0  0  0  0  0  0  0  0  0  0
  -14.0889   -5.1493  -11.3570 C   0  0  0  0  0  0  0  0  0  0  0  0
  -13.8017   -3.8244  -11.7133 C   0  0  0  0  0  0  0  0  0  0  0  0
  -14.8257   -2.9125  -11.9790 C   0  0  0  0  0  0  0  0  0  0  0  0
  -16.1524   -3.3319  -11.9627 C   0  0  0  0  0  0  0  0  0  0  0  0
  -16.4571   -4.6486  -11.6283 C   0  0  0  0  0  0  0  0  0  0  0  0
  -15.4348   -5.5402  -11.2880 C   0  0  0  0  0  0  0  0  0  0  0  0
  -14.1985   -7.6228  -13.7635 N   0  0  0  0  0  0  0  0  0  0  0  0
  -15.1462   -7.9659  -13.6177 H   0  0  0  0  0  0  0  0  0  0  0  0
  -13.9095   -7.4266  -15.1864 C   0  0  0  0  0  0  0  0  0  0  0  0
  -13.1894   -6.0819  -15.3789 C   0  0  0  0  0  0  0  0  0  0  0  0
  -14.0707   -4.8732  -15.0868 C   0  0  0  0  0  0  0  0  0  0  0  0
  -13.5210   -3.8361  -16.0317 C   0  0  0  0  0  0  0  0  0  0  0  0
  -13.1427   -4.6688  -17.2361 C   0  0  0  0  0  0  0  0  0  0  0  0
  -12.7284   -5.9495  -16.7423 O   0  0  0  0  0  0  0  0  0  0  0  0
 10 11  1  0  0  0
 10 15  2  0  0  0
 11 12  2  0  0  0
 12 13  1  0  0  0
 13  1  1  0  0  0
 13 14  2  0  0  0
  1  2  1  0  0  0
  1  9  2  0  0  0
  2  3  1  0  0  0
  3  4  1  0  0  0
  3  8  2  0  0  0
  4  5  2  0  0  0
  5  6  1  0  0  0
  6  7  2  0  0  0
  7 22  1  0  0  0
  7  8  1  0  0  0
 22 24  1  0  0  0
 22 23  1  0  0  0
 24 25  1  0  0  0
 25 26  1  0  0  0
 25 29  1  0  0  0
 26 27  1  0  0  0
 27 28  1  0  0  0
 28 29  1  0  0  0
  8  9  1  0  0  0
  9 16  1  0  0  0
 16 17  1  0  0  0
 16 21  2  0  0  0
 17 18  2  0  0  0
 18 19  1  0  0  0
 19 20  2  0  0  0
 20 21  1  0  0  0
 14 15  1  0  0  0
M  END
> <minimizedAffinity>
-6.95081

$$$$
