CHEMBL425356


 29 31  0  0  0  0  0  0  0  0999 V2000
  -30.1959   -4.6182   -5.5690 C   0  0  0  0  0  0  0  0  0  0  0  0
  -30.9242   -5.4551   -4.7435 C   0  0  0  0  0  0  0  0  0  0  0  0
  -31.6479   -5.2321   -3.4643 C   0  0  0  0  0  0  0  0  0  0  0  0
  -30.9052   -6.7045   -5.3023 N   0  0  0  0  0  0  0  0  0  0  0  0
  -30.2056   -6.7143   -6.4811 C   0  0  0  0  0  0  0  0  0  0  0  0
  -29.7301   -5.4190   -6.6719 C   0  0  0  0  0  0  0  0  0  0  0  0
  -28.8915   -4.9147   -7.7993 C   0  0  0  0  0  0  0  0  0  0  0  0
  -31.3769   -7.4976   -4.8878 H   0  0  0  0  0  0  0  0  0  0  0  0
  -30.0540   -7.9061   -7.2481 C   0  0  0  0  0  0  0  0  0  0  0  0
  -31.0079   -8.7831   -7.6342 C   0  0  0  0  0  0  0  0  0  0  0  0
  -32.4712   -8.8159   -7.3856 C   0  0  0  0  0  0  0  0  0  0  0  0
  -33.1981   -7.9505   -6.9129 O   0  0  0  0  0  0  0  0  0  0  0  0
  -32.8481  -10.0753   -7.8006 N   0  0  0  0  0  0  0  0  0  0  0  0
  -31.8622  -10.8104   -8.4058 N   0  0  0  0  0  0  0  0  0  0  0  0
  -30.7808  -10.0731   -8.3556 C   0  0  0  0  0  0  0  0  0  0  0  0
  -33.8133  -10.3947   -7.7940 H   0  0  0  0  0  0  0  0  0  0  0  0
  -29.5174  -10.4645   -8.9895 C   0  0  0  0  0  0  0  0  0  0  0  0
  -29.2367  -10.1273  -10.3003 C   0  0  0  0  0  0  0  0  0  0  0  0
  -28.0489  -10.4338  -10.8796 N   0  0  0  0  0  0  0  0  0  0  0  0
  -27.1470  -11.0623  -10.0788 C   0  0  0  0  0  0  0  0  0  0  0  0
  -27.4257  -11.3778   -8.7640 C   0  0  0  0  0  0  0  0  0  0  0  0
  -28.6124  -11.0937   -8.1915 N   0  0  0  0  0  0  0  0  0  0  0  0
  -29.9456   -3.1542   -5.3490 C   0  0  0  0  0  0  0  0  0  0  0  0
  -28.5280   -2.8769   -4.8206 C   0  0  0  0  0  0  0  0  0  0  0  0
  -27.7418   -1.8625   -5.5544 N   0  0  0  0  0  0  0  0  0  0  0  0
  -27.6919   -1.4274   -8.0707 C   0  0  0  0  0  0  0  0  0  0  0  0
  -28.4946   -1.4997   -6.7768 C   0  0  0  0  0  0  0  0  0  0  0  0
  -27.4014   -0.7183   -4.7013 C   0  0  0  0  0  0  0  0  0  0  0  0
  -28.1964    0.5584   -4.9483 C   0  0  0  0  0  0  0  0  0  0  0  0
 26 27  1  0  0  0
 27 25  1  0  0  0
 25 28  1  0  0  0
 25 24  1  0  0  0
 28 29  1  0  0  0
 24 23  1  0  0  0
 23  1  1  0  0  0
  1  2  2  0  0  0
  1  6  1  0  0  0
  2  3  1  0  0  0
  2  4  1  0  0  0
  4  5  1  0  0  0
  4  8  1  0  0  0
  5  9  1  0  0  0
  5  6  2  0  0  0
  9 10  2  0  0  0
 10 11  1  0  0  0
 10 15  1  0  0  0
 11 12  2  0  0  0
 11 13  1  0  0  0
 13 14  1  0  0  0
 13 16  1  0  0  0
 14 15  2  0  0  0
 15 17  1  0  0  0
 17 18  1  0  0  0
 17 22  2  0  0  0
 18 19  2  0  0  0
 19 20  1  0  0  0
 20 21  2  0  0  0
 21 22  1  0  0  0
  6  7  1  0  0  0
M  END
> <minimizedAffinity>
-8.10411

$$$$
