CHEMBL197923


 27 30  0  0  0  0  0  0  0  0999 V2000
  -28.5249   -3.0738   -7.5842 C   0  0  0  0  0  0  0  0  0  0  0  0
  -29.1084   -4.3022   -7.9976 C   0  0  0  0  0  0  0  0  0  0  0  0
  -29.6251   -5.0521   -6.9060 C   0  0  0  0  0  0  0  0  0  0  0  0
  -30.2444   -6.1988   -6.4983 C   0  0  0  0  0  0  0  0  0  0  0  0
  -30.3135   -6.0216   -5.1048 N   0  0  0  0  0  0  0  0  0  0  0  0
  -29.8054   -4.8338   -4.6552 N   0  0  0  0  0  0  0  0  0  0  0  0
  -29.4050   -4.2992   -5.7682 C   0  0  0  0  0  0  0  0  0  0  0  0
  -28.6281   -2.7504   -5.8310 S   0  0  0  0  0  0  0  0  0  0  0  0
  -30.6735   -6.6809   -4.4215 H   0  0  0  0  0  0  0  0  0  0  0  0
  -30.7185   -7.4123   -7.1609 C   0  0  0  0  0  0  0  0  0  0  0  0
  -29.8687   -8.1622   -7.9828 C   0  0  0  0  0  0  0  0  0  0  0  0
  -30.3137   -9.3495   -8.5753 C   0  0  0  0  0  0  0  0  0  0  0  0
  -31.6135   -9.7984   -8.3581 C   0  0  0  0  0  0  0  0  0  0  0  0
  -32.4758   -9.0587   -7.5543 C   0  0  0  0  0  0  0  0  0  0  0  0
  -32.0306   -7.8715   -6.9632 C   0  0  0  0  0  0  0  0  0  0  0  0
  -27.2441   -1.1323   -8.0147 O   0  0  0  0  0  0  0  0  0  0  0  0
  -27.8729   -2.0917   -8.4549 C   0  0  0  0  0  0  0  0  0  0  0  0
  -28.0238   -2.2921   -9.8158 N   0  0  0  0  0  0  0  0  0  0  0  0
  -28.6510   -3.0313  -10.1108 H   0  0  0  0  0  0  0  0  0  0  0  0
  -27.4885   -1.3623  -10.7966 C   0  0  0  0  0  0  0  0  0  0  0  0
  -26.9236   -2.0731  -12.0311 C   0  0  0  0  0  0  0  0  0  0  0  0
  -25.5228   -1.6428  -12.4049 C   0  0  0  0  0  0  0  0  0  0  0  0
  -24.4888   -1.6925  -11.4580 C   0  0  0  0  0  0  0  0  0  0  0  0
  -23.1813   -1.3463  -11.8092 C   0  0  0  0  0  0  0  0  0  0  0  0
  -22.8895   -0.9460  -13.1108 C   0  0  0  0  0  0  0  0  0  0  0  0
  -23.9071   -0.8895  -14.0603 C   0  0  0  0  0  0  0  0  0  0  0  0
  -25.2147   -1.2371  -13.7117 C   0  0  0  0  0  0  0  0  0  0  0  0
 16 17  2  0  0  0
 17 18  1  0  0  0
 17  1  1  0  0  0
 18 20  1  0  0  0
 18 19  1  0  0  0
 20 21  1  0  0  0
 21 22  1  0  0  0
 22 23  1  0  0  0
 22 27  2  0  0  0
 23 24  2  0  0  0
 24 25  1  0  0  0
 25 26  2  0  0  0
 26 27  1  0  0  0
  1  2  2  0  0  0
  1  8  1  0  0  0
  2  3  1  0  0  0
  3  4  2  0  0  0
  3  7  1  0  0  0
  4 10  1  0  0  0
  4  5  1  0  0  0
 10 11  1  0  0  0
 10 15  2  0  0  0
 11 12  2  0  0  0
 12 13  1  0  0  0
 13 14  2  0  0  0
 14 15  1  0  0  0
  5  6  1  0  0  0
  5  9  1  0  0  0
  6  7  2  0  0  0
  7  8  1  0  0  0
M  END
> <minimizedAffinity>
-9.78073

$$$$
