CHEMBL202721


 40 44  0  0  0  0  0  0  0  0999 V2000
  -15.2060   -0.4264  -13.1158 C   0  0  0  0  0  0  0  0  0  0  0  0
  -15.9797    0.5872  -13.6695 C   0  0  0  0  0  0  0  0  0  0  0  0
  -15.6464    1.1783  -14.9071 C   0  0  0  0  0  0  0  0  0  0  0  0
  -16.3178    2.2829  -15.4484 C   0  0  0  0  0  0  0  0  0  0  0  0
  -15.9690    2.8168  -16.6316 N   0  0  0  0  0  0  0  0  0  0  0  0
  -14.9451    2.2468  -17.2705 C   0  0  0  0  0  0  0  0  0  0  0  0
  -14.2188    1.2129  -16.8321 N   0  0  0  0  0  0  0  0  0  0  0  0
  -14.5664    0.6945  -15.6473 C   0  0  0  0  0  0  0  0  0  0  0  0
  -13.8417   -0.3643  -15.1229 C   0  0  0  0  0  0  0  0  0  0  0  0
  -14.1585   -0.9464  -13.8849 C   0  0  0  0  0  0  0  0  0  0  0  0
  -15.7916   -2.3469  -11.7905 C   0  0  0  0  0  0  0  0  0  0  0  0
  -15.4698   -0.9621  -11.8897 O   0  0  0  0  0  0  0  0  0  0  0  0
  -17.3731    2.8740  -14.7031 N   0  0  0  0  0  0  0  0  0  0  0  0
  -17.0271    3.1520  -13.7908 H   0  0  0  0  0  0  0  0  0  0  0  0
  -18.7028    2.4165  -14.6552 C   0  0  0  0  0  0  0  0  0  0  0  0
  -19.7122    3.2734  -14.2253 C   0  0  0  0  0  0  0  0  0  0  0  0
  -21.0253    2.8132  -14.0973 C   0  0  0  0  0  0  0  0  0  0  0  0
  -21.3689    1.4981  -14.4238 C   0  0  0  0  0  0  0  0  0  0  0  0
  -20.3789    0.6710  -14.9586 C   0  0  0  0  0  0  0  0  0  0  0  0
  -19.0629    1.1329  -15.0813 C   0  0  0  0  0  0  0  0  0  0  0  0
  -22.6570    0.9445  -14.2108 N   0  0  0  0  0  0  0  0  0  0  0  0
  -23.0101    0.1322  -13.1473 C   0  0  0  0  0  0  0  0  0  0  0  0
  -22.2980   -0.1232  -12.1799 O   0  0  0  0  0  0  0  0  0  0  0  0
  -23.3536    1.1528  -14.9116 H   0  0  0  0  0  0  0  0  0  0  0  0
  -24.3669   -0.4900  -13.1560 C   0  0  0  0  0  0  0  0  0  0  0  0
  -24.9051   -1.1882  -14.2392 C   0  0  0  0  0  0  0  0  0  0  0  0
  -26.1453   -1.8296  -14.0993 C   0  0  0  0  0  0  0  0  0  0  0  0
  -26.8364   -1.7831  -12.8862 C   0  0  0  0  0  0  0  0  0  0  0  0
  -26.3050   -1.0823  -11.8083 C   0  0  0  0  0  0  0  0  0  0  0  0
  -25.0820   -0.4395  -11.9414 C   0  0  0  0  0  0  0  0  0  0  0  0
  -13.3535   -2.0094  -13.5646 O   0  0  0  0  0  0  0  0  0  0  0  0
  -12.9404   -2.8706  -14.6270 C   0  0  0  0  0  0  0  0  0  0  0  0
  -13.8909   -4.0420  -14.9037 C   0  0  0  0  0  0  0  0  0  0  0  0
  -13.2272   -5.3880  -14.5911 C   0  0  0  0  0  0  0  0  0  0  0  0
  -13.4271   -5.8407  -13.2011 N   0  0  0  0  0  0  0  0  0  0  0  0
  -12.8482   -7.1706  -12.9115 C   0  0  0  0  0  0  0  0  0  0  0  0
  -13.5735   -8.3159  -13.6323 C   0  0  0  0  0  0  0  0  0  0  0  0
  -14.9596   -8.3508  -13.2692 O   0  0  0  0  0  0  0  0  0  0  0  0
  -15.6005   -7.0991  -13.5516 C   0  0  0  0  0  0  0  0  0  0  0  0
  -14.8752   -5.9133  -12.8841 C   0  0  0  0  0  0  0  0  0  0  0  0
 11 12  1  0  0  0
 12  1  1  0  0  0
  1  2  1  0  0  0
  1 10  2  0  0  0
  2  3  2  0  0  0
  3  4  1  0  0  0
  3  8  1  0  0  0
  4 13  1  0  0  0
  4  5  2  0  0  0
 13 15  1  0  0  0
 13 14  1  0  0  0
 15 16  1  0  0  0
 15 20  2  0  0  0
 16 17  2  0  0  0
 17 18  1  0  0  0
 18 21  1  0  0  0
 18 19  2  0  0  0
 21 22  1  0  0  0
 21 24  1  0  0  0
 22 23  2  0  0  0
 22 25  1  0  0  0
 25 26  1  0  0  0
 25 30  2  0  0  0
 26 27  2  0  0  0
 27 28  1  0  0  0
 28 29  2  0  0  0
 29 30  1  0  0  0
 19 20  1  0  0  0
  5  6  1  0  0  0
  6  7  2  0  0  0
  7  8  1  0  0  0
  8  9  2  0  0  0
  9 10  1  0  0  0
 10 31  1  0  0  0
 31 32  1  0  0  0
 32 33  1  0  0  0
 33 34  1  0  0  0
 34 35  1  0  0  0
 35 36  1  0  0  0
 35 40  1  0  0  0
 36 37  1  0  0  0
 37 38  1  0  0  0
 38 39  1  0  0  0
 39 40  1  0  0  0
M  END
> <minimizedAffinity>
-9.63237

$$$$
