CHEMBL493047


 39 43  0  0  0  0  0  0  0  0999 V2000
  -27.4422   -1.9153   -9.9123 N   0  0  0  0  0  0  0  0  0  0  0  0
  -25.9909   -1.8650   -9.7740 C   0  0  0  0  0  0  0  0  0  0  0  0
  -25.2540   -0.9961  -10.8043 C   0  0  0  0  0  0  0  0  0  0  0  0
  -25.6882   -1.2608  -12.2280 C   0  0  0  0  0  0  0  0  0  0  0  0
  -26.9816   -1.7883  -12.4213 C   0  0  0  0  0  0  0  0  0  0  0  0
  -27.4405   -2.0278  -13.7275 C   0  0  0  0  0  0  0  0  0  0  0  0
  -26.6454   -1.7356  -14.8314 C   0  0  0  0  0  0  0  0  0  0  0  0
  -25.3772   -1.1863  -14.6498 C   0  0  0  0  0  0  0  0  0  0  0  0
  -24.8805   -0.9421  -13.3569 C   0  0  0  0  0  0  0  0  0  0  0  0
  -27.9332   -2.0825  -11.2769 C   0  0  0  0  0  0  0  0  0  0  0  0
  -23.5550   -0.2415  -13.2133 C   0  0  0  0  0  0  0  0  0  0  0  0
  -22.8922   -0.4664  -12.2027 O   0  0  0  0  0  0  0  0  0  0  0  0
  -23.1902    0.6348  -14.2365 N   0  0  0  0  0  0  0  0  0  0  0  0
  -23.7989    0.6895  -15.0422 H   0  0  0  0  0  0  0  0  0  0  0  0
  -22.0047    1.4155  -14.3092 C   0  0  0  0  0  0  0  0  0  0  0  0
  -21.9705    2.7885  -14.0596 C   0  0  0  0  0  0  0  0  0  0  0  0
  -20.7663    3.4993  -14.0923 C   0  0  0  0  0  0  0  0  0  0  0  0
  -19.5713    2.8427  -14.3850 C   0  0  0  0  0  0  0  0  0  0  0  0
  -19.5748    1.4734  -14.6662 C   0  0  0  0  0  0  0  0  0  0  0  0
  -20.7991    0.7675  -14.6325 C   0  0  0  0  0  0  0  0  0  0  0  0
  -18.2868    0.7539  -14.9907 C   0  0  0  0  0  0  0  0  0  0  0  0
  -17.5657    1.3423  -15.9890 F   0  0  0  0  0  0  0  0  0  0  0  0
  -17.4489    0.6779  -13.9222 F   0  0  0  0  0  0  0  0  0  0  0  0
  -18.4947   -0.5313  -15.3950 F   0  0  0  0  0  0  0  0  0  0  0  0
  -28.1997   -0.9712   -9.0819 C   0  0  0  0  0  0  0  0  0  0  0  0
  -29.1776   -4.8848   -5.6041 C   0  0  0  0  0  0  0  0  0  0  0  0
  -28.6727   -3.7672   -4.9314 C   0  0  0  0  0  0  0  0  0  0  0  0
  -28.2871   -2.6091   -5.5868 C   0  0  0  0  0  0  0  0  0  0  0  0
  -27.8176   -1.6173   -4.8178 N   0  0  0  0  0  0  0  0  0  0  0  0
  -27.4493   -0.4735   -5.4165 C   0  0  0  0  0  0  0  0  0  0  0  0
  -27.5530   -0.2584   -6.7739 C   0  0  0  0  0  0  0  0  0  0  0  0
  -28.0581   -1.2815   -7.5977 C   0  0  0  0  0  0  0  0  0  0  0  0
  -28.4005   -2.5259   -6.9927 C   0  0  0  0  0  0  0  0  0  0  0  0
  -28.8384   -3.6856   -7.6789 C   0  0  0  0  0  0  0  0  0  0  0  0
  -29.2317   -4.8513   -6.9992 C   0  0  0  0  0  0  0  0  0  0  0  0
  -30.8104   -5.9593   -4.2740 C   0  0  0  0  0  0  0  0  0  0  0  0
  -29.5456   -6.0271   -4.9363 O   0  0  0  0  0  0  0  0  0  0  0  0
  -29.5624   -5.8864   -7.8310 O   0  0  0  0  0  0  0  0  0  0  0  0
  -28.5469   -6.8324   -8.1421 C   0  0  0  0  0  0  0  0  0  0  0  0
 36 37  1  0  0  0
 37 26  1  0  0  0
 26 27  1  0  0  0
 26 35  2  0  0  0
 27 28  2  0  0  0
 28 29  1  0  0  0
 28 33  1  0  0  0
 29 30  2  0  0  0
 30 31  1  0  0  0
 31 32  2  0  0  0
 32 25  1  0  0  0
 32 33  1  0  0  0
 25  1  1  0  0  0
  1  2  1  0  0  0
  1 10  1  0  0  0
  2  3  1  0  0  0
  3  4  1  0  0  0
  4  5  1  0  0  0
  4  9  2  0  0  0
  5  6  2  0  0  0
  5 10  1  0  0  0
  6  7  1  0  0  0
  7  8  2  0  0  0
  8  9  1  0  0  0
  9 11  1  0  0  0
 11 12  2  0  0  0
 11 13  1  0  0  0
 13 15  1  0  0  0
 13 14  1  0  0  0
 15 16  1  0  0  0
 15 20  2  0  0  0
 16 17  2  0  0  0
 17 18  1  0  0  0
 18 19  2  0  0  0
 19 21  1  0  0  0
 19 20  1  0  0  0
 21 22  1  0  0  0
 21 23  1  0  0  0
 21 24  1  0  0  0
 33 34  2  0  0  0
 34 35  1  0  0  0
 35 38  1  0  0  0
 38 39  1  0  0  0
M  END
> <minimizedAffinity>
-10.71227

$$$$
