CHEMBL3944502


 36 40  0  0  0  0  0  0  0  0999 V2000
  -27.5388   10.1332  -16.3149 C   0  0  0  0  0  0  0  0  0  0  0  0
  -26.1357   10.1573  -16.3246 C   0  0  0  0  0  0  0  0  0  0  0  0
  -25.4009   11.0280  -15.4853 C   0  0  0  0  0  0  0  0  0  0  0  0
  -24.0040   11.1699  -15.4529 C   0  0  0  0  0  0  0  0  0  0  0  0
  -23.3875   11.9779  -14.5676 N   0  0  0  0  0  0  0  0  0  0  0  0
  -24.1636   12.6583  -13.7219 C   0  0  0  0  0  0  0  0  0  0  0  0
  -25.4937   12.6207  -13.6852 N   0  0  0  0  0  0  0  0  0  0  0  0
  -26.0918   11.8151  -14.5616 C   0  0  0  0  0  0  0  0  0  0  0  0
  -27.4716   11.7736  -14.5533 C   0  0  0  0  0  0  0  0  0  0  0  0
  -28.2235   10.9936  -15.4499 C   0  0  0  0  0  0  0  0  0  0  0  0
  -27.1927    8.1631  -17.6534 C   0  0  0  0  0  0  0  0  0  0  0  0
  -28.0370    9.1953  -17.1712 O   0  0  0  0  0  0  0  0  0  0  0  0
  -23.1935   10.4671  -16.3876 N   0  0  0  0  0  0  0  0  0  0  0  0
  -23.5775    9.5371  -16.5248 H   0  0  0  0  0  0  0  0  0  0  0  0
  -22.7190   11.0563  -17.5823 C   0  0  0  0  0  0  0  0  0  0  0  0
  -23.6280   11.4751  -18.5650 C   0  0  0  0  0  0  0  0  0  0  0  0
  -23.1887   11.9760  -19.7893 C   0  0  0  0  0  0  0  0  0  0  0  0
  -21.8229   12.0780  -20.0452 C   0  0  0  0  0  0  0  0  0  0  0  0
  -21.3421   12.6579  -21.5994 Cl  0  0  0  0  0  0  0  0  0  0  0  0
  -20.9026   11.7026  -19.0590 C   0  0  0  0  0  0  0  0  0  0  0  0
  -19.1945   11.8114  -19.3079 Cl  0  0  0  0  0  0  0  0  0  0  0  0
  -21.3498   11.2020  -17.8277 C   0  0  0  0  0  0  0  0  0  0  0  0
  -29.5985   11.0550  -15.4647 O   0  0  0  0  0  0  0  0  0  0  0  0
  -30.1478   12.0663  -14.5971 C   0  0  0  0  0  0  0  0  0  0  0  0
  -31.5797   11.7963  -14.3656 C   0  0  0  0  0  0  0  0  0  0  0  0
  -32.6341   12.4834  -14.7534 N   0  0  0  0  0  0  0  0  0  0  0  0
  -33.7273   11.8652  -14.1821 N   0  0  0  0  0  0  0  0  0  0  0  0
  -33.2601   10.8514  -13.4811 C   0  0  0  0  0  0  0  0  0  0  0  0
  -31.8938   10.7598  -13.5360 O   0  0  0  0  0  0  0  0  0  0  0  0
  -33.9524    9.7990  -12.7579 C   0  0  0  0  0  0  0  0  0  0  0  0
  -35.1468    9.2684  -13.2615 C   0  0  0  0  0  0  0  0  0  0  0  0
  -35.7499    8.1681  -12.6456 C   0  0  0  0  0  0  0  0  0  0  0  0
  -35.1698    7.5875  -11.5129 C   0  0  0  0  0  0  0  0  0  0  0  0
  -35.7503    6.3572  -10.8839 C   0  0  0  0  0  0  0  0  0  0  0  0
  -34.0102    8.1515  -10.9736 C   0  0  0  0  0  0  0  0  0  0  0  0
  -33.4094    9.2486  -11.5882 C   0  0  0  0  0  0  0  0  0  0  0  0
 11 12  1  0  0  0
 12  1  1  0  0  0
  1  2  1  0  0  0
  1 10  2  0  0  0
  2  3  2  0  0  0
  3  4  1  0  0  0
  3  8  1  0  0  0
  4 13  1  0  0  0
  4  5  2  0  0  0
 13 15  1  0  0  0
 13 14  1  0  0  0
 15 16  1  0  0  0
 15 22  2  0  0  0
 16 17  2  0  0  0
 17 18  1  0  0  0
 18 19  1  0  0  0
 18 20  2  0  0  0
 20 21  1  0  0  0
 20 22  1  0  0  0
  5  6  1  0  0  0
  6  7  2  0  0  0
  7  8  1  0  0  0
  8  9  2  0  0  0
  9 10  1  0  0  0
 10 23  1  0  0  0
 23 24  1  0  0  0
 24 25  1  0  0  0
 25 26  2  0  0  0
 25 29  1  0  0  0
 26 27  1  0  0  0
 27 28  2  0  0  0
 28 30  1  0  0  0
 28 29  1  0  0  0
 30 31  1  0  0  0
 30 36  2  0  0  0
 31 32  2  0  0  0
 32 33  1  0  0  0
 33 34  1  0  0  0
 33 35  2  0  0  0
 35 36  1  0  0  0
M  END
> <minimizedAffinity>
-5.51258

$$$$
