CHEMBL3671538


 39 41  0  0  0  0  0  0  0  0999 V2000
  -13.8094   -1.6124  -13.7880 C   0  0  0  0  0  0  0  0  0  0  0  0
  -13.8015   -2.9780  -14.0674 C   0  0  0  0  0  0  0  0  0  0  0  0
  -14.6924   -3.8541  -13.3997 C   0  0  0  0  0  0  0  0  0  0  0  0
  -14.6859   -5.2531  -13.5317 C   0  0  0  0  0  0  0  0  0  0  0  0
  -15.5794   -6.0400  -12.9058 N   0  0  0  0  0  0  0  0  0  0  0  0
  -16.4568   -5.4263  -12.1073 C   0  0  0  0  0  0  0  0  0  0  0  0
  -16.5416   -4.1095  -11.8913 N   0  0  0  0  0  0  0  0  0  0  0  0
  -15.6596   -3.3366  -12.5337 C   0  0  0  0  0  0  0  0  0  0  0  0
  -15.7102   -1.9632  -12.3402 C   0  0  0  0  0  0  0  0  0  0  0  0
  -14.8161   -1.0879  -12.9687 C   0  0  0  0  0  0  0  0  0  0  0  0
  -11.7073   -0.4389  -13.5073 C   0  0  0  0  0  0  0  0  0  0  0  0
  -11.5614   -0.7130  -12.3226 O   0  0  0  0  0  0  0  0  0  0  0  0
  -12.7539   -0.8490  -14.3100 N   0  0  0  0  0  0  0  0  0  0  0  0
  -12.5884   -0.8714  -15.3103 H   0  0  0  0  0  0  0  0  0  0  0  0
  -11.0772    1.0913  -15.3146 C   0  0  0  0  0  0  0  0  0  0  0  0
  -10.7038    0.3600  -14.2573 C   0  0  0  0  0  0  0  0  0  0  0  0
  -13.6714   -5.8620  -14.3037 N   0  0  0  0  0  0  0  0  0  0  0  0
  -13.0025   -6.3404  -13.7047 H   0  0  0  0  0  0  0  0  0  0  0  0
  -13.7848   -6.4588  -15.5755 C   0  0  0  0  0  0  0  0  0  0  0  0
  -13.9343   -5.6938  -16.7378 C   0  0  0  0  0  0  0  0  0  0  0  0
  -13.8017   -6.2794  -17.9998 C   0  0  0  0  0  0  0  0  0  0  0  0
  -13.5273   -7.6418  -18.1069 C   0  0  0  0  0  0  0  0  0  0  0  0
  -13.2119   -8.3992  -19.8093 Br  0  0  0  0  0  0  0  0  0  0  0  0
  -13.4361   -8.4361  -16.9690 C   0  0  0  0  0  0  0  0  0  0  0  0
  -13.5584   -7.8364  -15.7194 C   0  0  0  0  0  0  0  0  0  0  0  0
  -13.4227   -8.5972  -14.6208 F   0  0  0  0  0  0  0  0  0  0  0  0
  -15.0957    0.2341  -12.7359 O   0  0  0  0  0  0  0  0  0  0  0  0
  -16.4177    0.7178  -12.9936 C   0  0  0  0  0  0  0  0  0  0  0  0
  -16.7264    1.0017  -14.4690 C   0  0  0  0  0  0  0  0  0  0  0  0
  -18.0688    0.5879  -14.8368 N   0  0  0  0  0  0  0  0  0  0  0  0
  -19.1641    1.3918  -14.6178 C   0  0  0  0  0  0  0  0  0  0  0  0
  -19.1061    2.5072  -14.1061 O   0  0  0  0  0  0  0  0  0  0  0  0
  -18.2057   -0.3030  -15.3093 H   0  0  0  0  0  0  0  0  0  0  0  0
  -20.4697    0.7977  -15.0950 C   0  0  0  0  0  0  0  0  0  0  0  0
  -21.5902    1.0008  -14.0767 C   0  0  0  0  0  0  0  0  0  0  0  0
  -22.5146   -0.2129  -13.8894 C   0  0  0  0  0  0  0  0  0  0  0  0
  -22.9156   -0.4440  -12.4885 N   0  0  0  0  0  0  0  0  0  0  0  0
  -24.1023    0.3499  -12.1413 C   0  0  0  0  0  0  0  0  0  0  0  0
  -23.2163   -1.8664  -12.2850 C   0  0  0  0  0  0  0  0  0  0  0  0
 15 16  2  0  0  0
 16 11  1  0  0  0
 11 12  2  0  0  0
 11 13  1  0  0  0
 13  1  1  0  0  0
 13 14  1  0  0  0
  1  2  1  0  0  0
  1 10  2  0  0  0
  2  3  2  0  0  0
  3  4  1  0  0  0
  3  8  1  0  0  0
  4 17  1  0  0  0
  4  5  2  0  0  0
 17 19  1  0  0  0
 17 18  1  0  0  0
 19 20  1  0  0  0
 19 25  2  0  0  0
 20 21  2  0  0  0
 21 22  1  0  0  0
 22 23  1  0  0  0
 22 24  2  0  0  0
 24 25  1  0  0  0
 25 26  1  0  0  0
  5  6  1  0  0  0
  6  7  2  0  0  0
  7  8  1  0  0  0
  8  9  2  0  0  0
  9 10  1  0  0  0
 10 27  1  0  0  0
 27 28  1  0  0  0
 28 29  1  0  0  0
 29 30  1  0  0  0
 30 31  1  0  0  0
 30 33  1  0  0  0
 31 32  2  0  0  0
 31 34  1  0  0  0
 34 35  1  0  0  0
 35 36  1  0  0  0
 36 37  1  0  0  0
 37 38  1  0  0  0
 37 39  1  0  0  0
M  END
> <minimizedAffinity>
-7.58772

$$$$
