CHEMBL249304


 37 43  0  0  0  0  0  0  0  0999 V2000
  -28.4959   -9.2973   -8.1702 C   0  0  0  0  0  0  0  0  0  0  0  0
  -29.5520   -9.7918   -8.8421 N   0  0  0  0  0  0  0  0  0  0  0  0
  -29.1126  -11.0041   -9.2516 N   0  0  0  0  0  0  0  0  0  0  0  0
  -27.8498  -11.3056   -8.8334 C   0  0  0  0  0  0  0  0  0  0  0  0
  -27.1897  -12.4589   -9.0366 N   0  0  0  0  0  0  0  0  0  0  0  0
  -25.9654  -12.4650   -8.4349 C   0  0  0  0  0  0  0  0  0  0  0  0
  -25.3563  -11.4187   -7.7182 C   0  0  0  0  0  0  0  0  0  0  0  0
  -26.0892  -10.2219   -7.6524 C   0  0  0  0  0  0  0  0  0  0  0  0
  -27.3962  -10.1874   -8.1613 C   0  0  0  0  0  0  0  0  0  0  0  0
  -29.7244  -11.5958   -9.7997 H   0  0  0  0  0  0  0  0  0  0  0  0
  -28.7676   -3.7438   -5.8492 C   0  0  0  0  0  0  0  0  0  0  0  0
  -28.6891   -4.4651   -4.6414 C   0  0  0  0  0  0  0  0  0  0  0  0
  -28.5998   -5.8630   -4.5819 C   0  0  0  0  0  0  0  0  0  0  0  0
  -28.5947   -6.5296   -5.7998 C   0  0  0  0  0  0  0  0  0  0  0  0
  -28.5262   -7.8570   -6.1200 N   0  0  0  0  0  0  0  0  0  0  0  0
  -28.5595   -7.9742   -7.4842 C   0  0  0  0  0  0  0  0  0  0  0  0
  -28.6266   -6.7897   -8.0622 N   0  0  0  0  0  0  0  0  0  0  0  0
  -28.6601   -5.8801   -7.0262 C   0  0  0  0  0  0  0  0  0  0  0  0
  -28.7421   -4.4736   -7.0522 C   0  0  0  0  0  0  0  0  0  0  0  0
  -28.4558   -8.6401   -5.4872 H   0  0  0  0  0  0  0  0  0  0  0  0
  -29.3997    1.7753   -6.5150 C   0  0  0  0  0  0  0  0  0  0  0  0
  -28.8977    0.5482   -5.9032 N   0  0  0  0  0  0  0  0  0  0  0  0
  -30.0189   -0.2711   -5.3825 C   0  0  0  0  0  0  0  0  0  0  0  0
  -29.5525   -1.6235   -4.7824 C   0  0  0  0  0  0  0  0  0  0  0  0
  -28.7931   -2.3582   -5.8035 N   0  0  0  0  0  0  0  0  0  0  0  0
  -27.6382   -1.5968   -6.3168 C   0  0  0  0  0  0  0  0  0  0  0  0
  -28.1295   -0.2464   -6.8911 C   0  0  0  0  0  0  0  0  0  0  0  0
  -24.0143  -11.5580   -7.0876 C   0  0  0  0  0  0  0  0  0  0  0  0
  -22.8924  -11.7765   -7.9017 C   0  0  0  0  0  0  0  0  0  0  0  0
  -21.6137  -11.8774   -7.4782 N   0  0  0  0  0  0  0  0  0  0  0  0
  -21.4118  -11.7130   -6.1573 C   0  0  0  0  0  0  0  0  0  0  0  0
  -22.4179  -11.4796   -5.2244 C   0  0  0  0  0  0  0  0  0  0  0  0
  -22.1034  -11.2899   -3.8667 C   0  0  0  0  0  0  0  0  0  0  0  0
  -23.1022  -11.0660   -2.9250 C   0  0  0  0  0  0  0  0  0  0  0  0
  -24.4282  -11.0903   -3.3229 C   0  0  0  0  0  0  0  0  0  0  0  0
  -24.7499  -11.3072   -4.6675 C   0  0  0  0  0  0  0  0  0  0  0  0
  -23.7581  -11.4478   -5.6784 C   0  0  0  0  0  0  0  0  0  0  0  0
 21 22  1  0  0  0
 22 23  1  0  0  0
 22 27  1  0  0  0
 23 24  1  0  0  0
 24 25  1  0  0  0
 25 11  1  0  0  0
 25 26  1  0  0  0
 11 12  1  0  0  0
 11 19  2  0  0  0
 12 13  2  0  0  0
 13 14  1  0  0  0
 14 15  1  0  0  0
 14 18  2  0  0  0
 15 16  1  0  0  0
 15 20  1  0  0  0
 16  1  1  0  0  0
 16 17  2  0  0  0
  1  2  2  0  0  0
  1  9  1  0  0  0
  2  3  1  0  0  0
  3  4  1  0  0  0
  3 10  1  0  0  0
  4  5  1  0  0  0
  4  9  2  0  0  0
  5  6  2  0  0  0
  6  7  1  0  0  0
  7 28  1  0  0  0
  7  8  2  0  0  0
 28 29  1  0  0  0
 28 37  2  0  0  0
 29 30  2  0  0  0
 30 31  1  0  0  0
 31 32  2  0  0  0
 32 33  1  0  0  0
 32 37  1  0  0  0
 33 34  2  0  0  0
 34 35  1  0  0  0
 35 36  2  0  0  0
 36 37  1  0  0  0
  8  9  1  0  0  0
 17 18  1  0  0  0
 18 19  1  0  0  0
 26 27  1  0  0  0
M  END
> <minimizedAffinity>
-9.60934

$$$$
