CHEMBL474863


 42 46  0  0  0  0  0  0  0  0999 V2000
  -17.3689    2.0410  -15.6559 C   0  0  0  0  0  0  0  0  0  0  0  0
  -17.0228    3.1885  -15.9081 O   0  0  0  0  0  0  0  0  0  0  0  0
  -16.5703    0.9156  -15.6773 N   0  0  0  0  0  0  0  0  0  0  0  0
  -16.9357    0.0675  -15.2601 H   0  0  0  0  0  0  0  0  0  0  0  0
  -21.3323    1.3840  -14.3195 C   0  0  0  0  0  0  0  0  0  0  0  0
  -20.7999    2.6709  -14.2463 C   0  0  0  0  0  0  0  0  0  0  0  0
  -19.4991    2.8869  -14.6958 C   0  0  0  0  0  0  0  0  0  0  0  0
  -18.7645    1.8149  -15.2007 C   0  0  0  0  0  0  0  0  0  0  0  0
  -19.3887    0.5711  -15.2721 C   0  0  0  0  0  0  0  0  0  0  0  0
  -20.6536    0.3170  -14.8321 N   0  0  0  0  0  0  0  0  0  0  0  0
  -23.0554   -0.1853  -13.6007 N   0  0  0  0  0  0  0  0  0  0  0  0
  -22.7215    1.1450  -13.8021 C   0  0  0  0  0  0  0  0  0  0  0  0
  -23.4308    2.1203  -13.5736 O   0  0  0  0  0  0  0  0  0  0  0  0
  -22.2949   -0.8423  -13.7190 H   0  0  0  0  0  0  0  0  0  0  0  0
  -25.0103   -1.1855  -15.4754 N   0  0  0  0  0  0  0  0  0  0  0  0
  -25.2785   -1.1019  -14.0922 C   0  0  0  0  0  0  0  0  0  0  0  0
  -26.4735   -1.6798  -13.6247 C   0  0  0  0  0  0  0  0  0  0  0  0
  -26.7568   -1.7621  -12.2599 C   0  0  0  0  0  0  0  0  0  0  0  0
  -25.8283   -1.2972  -11.3409 C   0  0  0  0  0  0  0  0  0  0  0  0
  -24.6142   -0.7696  -11.7845 C   0  0  0  0  0  0  0  0  0  0  0  0
  -24.3052   -0.6888  -13.1511 C   0  0  0  0  0  0  0  0  0  0  0  0
  -25.8566   -1.2358  -16.0382 H   0  0  0  0  0  0  0  0  0  0  0  0
  -24.3740   -0.4854  -15.8267 H   0  0  0  0  0  0  0  0  0  0  0  0
  -15.2240    0.8358  -16.1007 C   0  0  0  0  0  0  0  0  0  0  0  0
  -14.7957    1.0130  -17.4124 C   0  0  0  0  0  0  0  0  0  0  0  0
  -13.4412    0.8671  -17.7294 C   0  0  0  0  0  0  0  0  0  0  0  0
  -12.5048    0.5429  -16.7378 C   0  0  0  0  0  0  0  0  0  0  0  0
  -12.9088    0.3701  -15.4101 C   0  0  0  0  0  0  0  0  0  0  0  0
  -14.2751    0.5233  -15.1201 C   0  0  0  0  0  0  0  0  0  0  0  0
  -11.9611   -0.0390  -14.4474 N   0  0  0  0  0  0  0  0  0  0  0  0
  -11.1811    0.5919  -14.3184 H   0  0  0  0  0  0  0  0  0  0  0  0
  -12.0699   -1.1062  -13.6191 C   0  0  0  0  0  0  0  0  0  0  0  0
  -11.4252   -1.2596  -12.4822 N   0  0  0  0  0  0  0  0  0  0  0  0
  -11.7088   -2.4743  -11.9164 C   0  0  0  0  0  0  0  0  0  0  0  0
  -12.6106   -3.2658  -12.5979 C   0  0  0  0  0  0  0  0  0  0  0  0
  -13.1354   -2.4125  -13.9962 S   0  0  0  0  0  0  0  0  0  0  0  0
  -13.0929   -4.6012  -12.2447 C   0  0  0  0  0  0  0  0  0  0  0  0
  -12.8318   -5.6926  -13.0842 C   0  0  0  0  0  0  0  0  0  0  0  0
  -13.3457   -6.9513  -12.7820 C   0  0  0  0  0  0  0  0  0  0  0  0
  -14.1097   -7.0880  -11.6380 C   0  0  0  0  0  0  0  0  0  0  0  0
  -14.3849   -6.0689  -10.7976 N   0  0  0  0  0  0  0  0  0  0  0  0
  -13.8741   -4.8543  -11.1204 C   0  0  0  0  0  0  0  0  0  0  0  0
 15 16  1  0  0  0
 15 22  1  0  0  0
 15 23  1  0  0  0
 16 17  1  0  0  0
 16 21  2  0  0  0
 17 18  2  0  0  0
 18 19  1  0  0  0
 19 20  2  0  0  0
 20 21  1  0  0  0
 21 11  1  0  0  0
 11 12  1  0  0  0
 11 14  1  0  0  0
 12 13  2  0  0  0
 12  5  1  0  0  0
  5  6  1  0  0  0
  5 10  2  0  0  0
  6  7  2  0  0  0
  7  8  1  0  0  0
  8  1  1  0  0  0
  8  9  2  0  0  0
  1  2  2  0  0  0
  1  3  1  0  0  0
  3 24  1  0  0  0
  3  4  1  0  0  0
 24 25  1  0  0  0
 24 29  2  0  0  0
 25 26  2  0  0  0
 26 27  1  0  0  0
 27 28  2  0  0  0
 28 30  1  0  0  0
 28 29  1  0  0  0
 30 32  1  0  0  0
 30 31  1  0  0  0
 32 33  2  0  0  0
 32 36  1  0  0  0
 33 34  1  0  0  0
 34 35  2  0  0  0
 35 37  1  0  0  0
 35 36  1  0  0  0
 37 38  1  0  0  0
 37 42  2  0  0  0
 38 39  2  0  0  0
 39 40  1  0  0  0
 40 41  2  0  0  0
 41 42  1  0  0  0
  9 10  1  0  0  0
M  END
> <minimizedAffinity>
-9.84308

$$$$
