CHEMBL238528


 27 29  0  0  0  0  0  0  0  0999 V2000
  -28.2699   -2.3685  -12.9863 C   0  0  0  0  0  0  0  0  0  0  0  0
  -26.9432   -1.9039  -13.3179 N   0  0  0  0  0  0  0  0  0  0  0  0
  -26.5003   -1.6335  -14.5834 C   0  0  0  0  0  0  0  0  0  0  0  0
  -25.2850   -1.1332  -14.5697 N   0  0  0  0  0  0  0  0  0  0  0  0
  -24.9263   -1.1184  -13.2572 C   0  0  0  0  0  0  0  0  0  0  0  0
  -25.9469   -1.5527  -12.4351 C   0  0  0  0  0  0  0  0  0  0  0  0
  -26.0346   -1.6140  -10.9979 C   0  0  0  0  0  0  0  0  0  0  0  0
  -25.0716   -1.3783  -10.2767 O   0  0  0  0  0  0  0  0  0  0  0  0
  -27.2720   -2.0467  -10.5479 N   0  0  0  0  0  0  0  0  0  0  0  0
  -27.8864   -2.4135  -11.2685 H   0  0  0  0  0  0  0  0  0  0  0  0
  -27.6913   -2.1798   -9.2112 C   0  0  0  0  0  0  0  0  0  0  0  0
  -28.1467   -3.3850   -8.6743 C   0  0  0  0  0  0  0  0  0  0  0  0
  -28.5774   -3.4528   -7.3455 C   0  0  0  0  0  0  0  0  0  0  0  0
  -28.5620   -2.3127   -6.5420 C   0  0  0  0  0  0  0  0  0  0  0  0
  -29.1511   -2.4586   -4.9255 Cl  0  0  0  0  0  0  0  0  0  0  0  0
  -28.0835   -1.1077   -7.0648 C   0  0  0  0  0  0  0  0  0  0  0  0
  -28.0349    0.3478   -6.1337 Cl  0  0  0  0  0  0  0  0  0  0  0  0
  -27.6330   -1.0478   -8.3906 C   0  0  0  0  0  0  0  0  0  0  0  0
  -23.7148   -0.7063  -12.8497 N   0  0  0  0  0  0  0  0  0  0  0  0
  -23.5368   -0.4391  -11.8868 H   0  0  0  0  0  0  0  0  0  0  0  0
  -22.5537   -0.7509  -13.7130 C   0  0  0  0  0  0  0  0  0  0  0  0
  -22.0858    0.6273  -14.0997 C   0  0  0  0  0  0  0  0  0  0  0  0
  -22.8370    1.7543  -13.7567 C   0  0  0  0  0  0  0  0  0  0  0  0
  -22.3300    3.0097  -14.0572 C   0  0  0  0  0  0  0  0  0  0  0  0
  -21.1448    3.2148  -14.6716 N   0  0  0  0  0  0  0  0  0  0  0  0
  -20.4371    2.1147  -15.0020 C   0  0  0  0  0  0  0  0  0  0  0  0
  -20.8591    0.8191  -14.7441 C   0  0  0  0  0  0  0  0  0  0  0  0
  1  2  1  0  0  0
  2  3  1  0  0  0
  2  6  1  0  0  0
  3  4  2  0  0  0
  4  5  1  0  0  0
  5 19  1  0  0  0
  5  6  2  0  0  0
 19 21  1  0  0  0
 19 20  1  0  0  0
 21 22  1  0  0  0
 22 23  1  0  0  0
 22 27  2  0  0  0
 23 24  2  0  0  0
 24 25  1  0  0  0
 25 26  2  0  0  0
 26 27  1  0  0  0
  6  7  1  0  0  0
  7  8  2  0  0  0
  7  9  1  0  0  0
  9 11  1  0  0  0
  9 10  1  0  0  0
 11 12  1  0  0  0
 11 18  2  0  0  0
 12 13  2  0  0  0
 13 14  1  0  0  0
 14 15  1  0  0  0
 14 16  2  0  0  0
 16 17  1  0  0  0
 16 18  1  0  0  0
M  END
> <minimizedAffinity>
-8.83071

$$$$
