CHEMBL2430264


 34 37  0  0  0  0  0  0  0  0999 V2000
  -14.9729   -2.7508  -13.4632 C   0  0  0  0  0  0  0  0  0  0  0  0
  -15.4549   -3.8211  -12.7176 C   0  0  0  0  0  0  0  0  0  0  0  0
  -16.3671   -3.8799  -11.5442 C   0  0  0  0  0  0  0  0  0  0  0  0
  -14.9882   -4.9902  -13.3080 N   0  0  0  0  0  0  0  0  0  0  0  0
  -14.2432   -4.7037  -14.4177 C   0  0  0  0  0  0  0  0  0  0  0  0
  -14.2110   -3.3259  -14.5276 C   0  0  0  0  0  0  0  0  0  0  0  0
  -13.5110   -2.5712  -15.5982 C   0  0  0  0  0  0  0  0  0  0  0  0
  -12.7495   -3.4258  -16.5954 C   0  0  0  0  0  0  0  0  0  0  0  0
  -12.8277   -4.9500  -16.4674 C   0  0  0  0  0  0  0  0  0  0  0  0
  -13.6039   -5.6130  -15.3270 C   0  0  0  0  0  0  0  0  0  0  0  0
  -13.6309   -6.9746  -15.2882 C   0  0  0  0  0  0  0  0  0  0  0  0
  -14.3248   -7.8894  -14.2890 C   0  0  0  0  0  0  0  0  0  0  0  0
  -15.0018   -7.5886  -13.3248 O   0  0  0  0  0  0  0  0  0  0  0  0
  -14.0419   -9.1857  -14.6893 N   0  0  0  0  0  0  0  0  0  0  0  0
  -13.2469   -9.2100  -15.8264 C   0  0  0  0  0  0  0  0  0  0  0  0
  -12.7894  -10.3490  -16.4782 C   0  0  0  0  0  0  0  0  0  0  0  0
  -11.9905  -10.1742  -17.6098 C   0  0  0  0  0  0  0  0  0  0  0  0
  -11.6811   -8.8890  -18.0591 C   0  0  0  0  0  0  0  0  0  0  0  0
  -10.6966   -8.6756  -19.4537 Cl  0  0  0  0  0  0  0  0  0  0  0  0
  -12.1606   -7.7610  -17.3866 C   0  0  0  0  0  0  0  0  0  0  0  0
  -12.9564   -7.9120  -16.2525 C   0  0  0  0  0  0  0  0  0  0  0  0
  -15.2105   -5.9270  -12.9805 H   0  0  0  0  0  0  0  0  0  0  0  0
  -14.3861   -9.9961  -14.1920 H   0  0  0  0  0  0  0  0  0  0  0  0
  -16.1917   -0.7653  -14.1039 N   0  0  0  0  0  0  0  0  0  0  0  0
  -15.2151   -1.3139  -13.3066 C   0  0  0  0  0  0  0  0  0  0  0  0
  -14.6181   -0.6413  -12.4679 O   0  0  0  0  0  0  0  0  0  0  0  0
  -16.8761   -1.3869  -14.5172 H   0  0  0  0  0  0  0  0  0  0  0  0
  -16.5482    0.6245  -13.9183 C   0  0  0  0  0  0  0  0  0  0  0  0
  -17.5176    1.1468  -14.9887 C   0  0  0  0  0  0  0  0  0  0  0  0
  -18.2680    2.3685  -14.6116 N   0  0  0  0  0  0  0  0  0  0  0  0
  -16.6467    3.4917  -16.1950 C   0  0  0  0  0  0  0  0  0  0  0  0
  -18.0407    3.4600  -15.5766 C   0  0  0  0  0  0  0  0  0  0  0  0
  -19.6927    2.0580  -14.3875 C   0  0  0  0  0  0  0  0  0  0  0  0
  -20.2429    0.8244  -15.1019 C   0  0  0  0  0  0  0  0  0  0  0  0
 31 32  1  0  0  0
 32 30  1  0  0  0
 30 33  1  0  0  0
 30 29  1  0  0  0
 33 34  1  0  0  0
 29 28  1  0  0  0
 28 24  1  0  0  0
 24 25  1  0  0  0
 24 27  1  0  0  0
 25 26  2  0  0  0
 25  1  1  0  0  0
  1  2  2  0  0  0
  1  6  1  0  0  0
  2  3  1  0  0  0
  2  4  1  0  0  0
  4  5  1  0  0  0
  4 22  1  0  0  0
  5  6  2  0  0  0
  5 10  1  0  0  0
  6  7  1  0  0  0
  7  8  1  0  0  0
  8  9  1  0  0  0
  9 10  1  0  0  0
 10 11  2  0  0  0
 11 12  1  0  0  0
 11 21  1  0  0  0
 12 13  2  0  0  0
 12 14  1  0  0  0
 14 15  1  0  0  0
 14 23  1  0  0  0
 15 16  1  0  0  0
 15 21  2  0  0  0
 16 17  2  0  0  0
 17 18  1  0  0  0
 18 19  1  0  0  0
 18 20  2  0  0  0
 20 21  1  0  0  0
M  END
> <minimizedAffinity>
-7.04162

$$$$
