CHEMBL4580040


 37 40  0  0  0  0  0  0  0  0999 V2000
  -28.3507   -9.9034   -4.9322 C   0  0  0  0  0  0  0  0  0  0  0  0
  -29.1632   -9.4174   -5.9670 C   0  0  0  0  0  0  0  0  0  0  0  0
  -29.8682   -8.2293   -5.8008 C   0  0  0  0  0  0  0  0  0  0  0  0
  -29.7602   -7.5242   -4.5968 C   0  0  0  0  0  0  0  0  0  0  0  0
  -29.0220   -8.0544   -3.5336 C   0  0  0  0  0  0  0  0  0  0  0  0
  -28.3340   -9.2580   -3.6962 C   0  0  0  0  0  0  0  0  0  0  0  0
  -25.4340  -11.9107   -5.6095 N   0  0  0  0  0  0  0  0  0  0  0  0
  -26.1552  -10.7424   -5.4327 C   0  0  0  0  0  0  0  0  0  0  0  0
  -25.6718   -9.6136   -5.5210 O   0  0  0  0  0  0  0  0  0  0  0  0
  -27.4860  -10.9929   -5.1454 N   0  0  0  0  0  0  0  0  0  0  0  0
  -25.9624  -12.6994   -5.9545 H   0  0  0  0  0  0  0  0  0  0  0  0
  -27.6095  -11.8040   -4.5495 H   0  0  0  0  0  0  0  0  0  0  0  0
  -21.8119  -11.8290   -4.7864 C   0  0  0  0  0  0  0  0  0  0  0  0
  -21.2436  -12.1273   -6.0218 C   0  0  0  0  0  0  0  0  0  0  0  0
  -22.0557  -12.2931   -7.1417 C   0  0  0  0  0  0  0  0  0  0  0  0
  -23.4367  -12.1901   -7.0204 C   0  0  0  0  0  0  0  0  0  0  0  0
  -24.0289  -11.9462   -5.7813 C   0  0  0  0  0  0  0  0  0  0  0  0
  -23.2014  -11.7262   -4.6741 C   0  0  0  0  0  0  0  0  0  0  0  0
  -21.9025  -11.2718   -2.4830 C   0  0  0  0  0  0  0  0  0  0  0  0
  -21.1223  -11.6462   -3.6139 O   0  0  0  0  0  0  0  0  0  0  0  0
  -30.4255   -6.2083   -4.4895 C   0  0  0  0  0  0  0  0  0  0  0  0
  -31.6322   -6.1765   -4.2641 O   0  0  0  0  0  0  0  0  0  0  0  0
  -29.6107   -5.0871   -4.7309 N   0  0  0  0  0  0  0  0  0  0  0  0
  -28.7866   -5.2581   -5.2990 H   0  0  0  0  0  0  0  0  0  0  0  0
  -30.2249   -3.8926   -5.0187 N   0  0  0  0  0  0  0  0  0  0  0  0
  -30.0635   -3.4721   -6.2356 C   0  0  0  0  0  0  0  0  0  0  0  0
  -29.7896   -4.2689   -7.5197 C   0  0  0  0  0  0  0  0  0  0  0  0
  -30.1611   -5.3991   -7.7550 O   0  0  0  0  0  0  0  0  0  0  0  0
  -29.0581   -3.4155   -8.3210 N   0  0  0  0  0  0  0  0  0  0  0  0
  -28.7744   -2.2442   -7.6185 C   0  0  0  0  0  0  0  0  0  0  0  0
  -27.6766   -1.4277   -7.7762 C   0  0  0  0  0  0  0  0  0  0  0  0
  -27.4550   -0.4555   -6.7856 C   0  0  0  0  0  0  0  0  0  0  0  0
  -28.3681   -0.2644   -5.7275 C   0  0  0  0  0  0  0  0  0  0  0  0
  -28.0516    0.9305   -4.5311 Cl  0  0  0  0  0  0  0  0  0  0  0  0
  -29.4659   -1.0994   -5.5685 C   0  0  0  0  0  0  0  0  0  0  0  0
  -29.5954   -2.1131   -6.4969 C   0  0  0  0  0  0  0  0  0  0  0  0
  -28.6769   -3.6896   -9.2122 H   0  0  0  0  0  0  0  0  0  0  0  0
 19 20  1  0  0  0
 20 13  1  0  0  0
 13 14  1  0  0  0
 13 18  2  0  0  0
 14 15  2  0  0  0
 15 16  1  0  0  0
 16 17  2  0  0  0
 17  7  1  0  0  0
 17 18  1  0  0  0
  7  8  1  0  0  0
  7 11  1  0  0  0
  8  9  2  0  0  0
  8 10  1  0  0  0
 10  1  1  0  0  0
 10 12  1  0  0  0
  1  2  1  0  0  0
  1  6  2  0  0  0
  2  3  2  0  0  0
  3  4  1  0  0  0
  4 21  1  0  0  0
  4  5  2  0  0  0
 21 22  2  0  0  0
 21 23  1  0  0  0
 23 25  1  0  0  0
 23 24  1  0  0  0
 25 26  2  0  0  0
 26 27  1  0  0  0
 26 36  1  0  0  0
 27 28  2  0  0  0
 27 29  1  0  0  0
 29 30  1  0  0  0
 29 37  1  0  0  0
 30 31  1  0  0  0
 30 36  2  0  0  0
 31 32  2  0  0  0
 32 33  1  0  0  0
 33 34  1  0  0  0
 33 35  2  0  0  0
 35 36  1  0  0  0
  5  6  1  0  0  0
M  END
> <minimizedAffinity>
-8.59910

$$$$
