CHEMBL3671536


 37 39  0  0  0  0  0  0  0  0999 V2000
  -17.9742    1.1136  -14.9964 C   0  0  0  0  0  0  0  0  0  0  0  0
  -19.2602    0.5956  -14.8490 C   0  0  0  0  0  0  0  0  0  0  0  0
  -20.3558    1.4606  -14.6376 C   0  0  0  0  0  0  0  0  0  0  0  0
  -21.6538    1.0305  -14.3269 C   0  0  0  0  0  0  0  0  0  0  0  0
  -22.6614    1.9034  -14.1301 N   0  0  0  0  0  0  0  0  0  0  0  0
  -22.3675    3.2014  -14.2108 C   0  0  0  0  0  0  0  0  0  0  0  0
  -21.1619    3.7172  -14.4587 N   0  0  0  0  0  0  0  0  0  0  0  0
  -20.1673    2.8463  -14.6552 C   0  0  0  0  0  0  0  0  0  0  0  0
  -18.8829    3.3387  -14.8636 C   0  0  0  0  0  0  0  0  0  0  0  0
  -17.7787    2.4987  -15.0505 C   0  0  0  0  0  0  0  0  0  0  0  0
  -16.1820    0.0381  -13.8189 C   0  0  0  0  0  0  0  0  0  0  0  0
  -16.3491    0.6589  -12.7780 O   0  0  0  0  0  0  0  0  0  0  0  0
  -16.8996    0.1997  -14.9952 N   0  0  0  0  0  0  0  0  0  0  0  0
  -17.0822   -0.6817  -15.4608 H   0  0  0  0  0  0  0  0  0  0  0  0
  -15.4156   -2.2693  -13.4543 C   0  0  0  0  0  0  0  0  0  0  0  0
  -15.1724   -1.0456  -13.9397 C   0  0  0  0  0  0  0  0  0  0  0  0
  -21.9185   -0.3524  -14.1312 N   0  0  0  0  0  0  0  0  0  0  0  0
  -21.7753   -0.8744  -14.9909 H   0  0  0  0  0  0  0  0  0  0  0  0
  -23.0221   -0.8308  -13.3877 C   0  0  0  0  0  0  0  0  0  0  0  0
  -22.8841   -1.1496  -12.0288 C   0  0  0  0  0  0  0  0  0  0  0  0
  -23.9960   -1.4801  -11.2554 C   0  0  0  0  0  0  0  0  0  0  0  0
  -25.2554   -1.5235  -11.8481 C   0  0  0  0  0  0  0  0  0  0  0  0
  -26.7743   -1.8607  -10.7759 Br  0  0  0  0  0  0  0  0  0  0  0  0
  -25.4054   -1.2934  -13.2140 C   0  0  0  0  0  0  0  0  0  0  0  0
  -24.2864   -0.9596  -13.9725 C   0  0  0  0  0  0  0  0  0  0  0  0
  -24.4364   -0.7113  -15.2834 F   0  0  0  0  0  0  0  0  0  0  0  0
  -16.5903    3.1535  -15.2747 O   0  0  0  0  0  0  0  0  0  0  0  0
  -16.2115    3.2673  -16.6496 C   0  0  0  0  0  0  0  0  0  0  0  0
  -15.5022    4.6005  -16.9099 C   0  0  0  0  0  0  0  0  0  0  0  0
  -14.5392    4.9073  -15.8599 N   0  0  0  0  0  0  0  0  0  0  0  0
  -13.2192    5.1631  -16.1709 C   0  0  0  0  0  0  0  0  0  0  0  0
  -12.8279    5.3151  -17.3248 O   0  0  0  0  0  0  0  0  0  0  0  0
  -14.8185    4.7819  -14.8968 H   0  0  0  0  0  0  0  0  0  0  0  0
  -12.2812    5.2541  -14.9866 C   0  0  0  0  0  0  0  0  0  0  0  0
  -11.8269    3.8814  -14.5112 C   0  0  0  0  0  0  0  0  0  0  0  0
  -12.8535    3.2754  -13.7269 O   0  0  0  0  0  0  0  0  0  0  0  0
  -12.8666    1.8620  -13.8611 C   0  0  0  0  0  0  0  0  0  0  0  0
 15 16  2  0  0  0
 16 11  1  0  0  0
 11 12  2  0  0  0
 11 13  1  0  0  0
 13  1  1  0  0  0
 13 14  1  0  0  0
  1  2  1  0  0  0
  1 10  2  0  0  0
  2  3  2  0  0  0
  3  4  1  0  0  0
  3  8  1  0  0  0
  4 17  1  0  0  0
  4  5  2  0  0  0
 17 19  1  0  0  0
 17 18  1  0  0  0
 19 20  1  0  0  0
 19 25  2  0  0  0
 20 21  2  0  0  0
 21 22  1  0  0  0
 22 23  1  0  0  0
 22 24  2  0  0  0
 24 25  1  0  0  0
 25 26  1  0  0  0
  5  6  1  0  0  0
  6  7  2  0  0  0
  7  8  1  0  0  0
  8  9  2  0  0  0
  9 10  1  0  0  0
 10 27  1  0  0  0
 27 28  1  0  0  0
 28 29  1  0  0  0
 29 30  1  0  0  0
 30 31  1  0  0  0
 30 33  1  0  0  0
 31 32  2  0  0  0
 31 34  1  0  0  0
 34 35  1  0  0  0
 35 36  1  0  0  0
 36 37  1  0  0  0
M  END
> <minimizedAffinity>
-8.81673

$$$$
