CHEMBL495544


 24 27  0  0  0  0  0  0  0  0999 V2000
  -29.2430   -3.4946   -4.9638 C   0  0  0  0  0  0  0  0  0  0  0  0
  -28.9225   -2.2074   -5.1503 N   0  0  0  0  0  0  0  0  0  0  0  0
  -28.4982   -2.1436   -6.4234 N   0  0  0  0  0  0  0  0  0  0  0  0
  -28.0744   -0.9620   -6.9266 N   0  0  0  0  0  0  0  0  0  0  0  0
  -27.6849   -1.0535   -8.1556 C   0  0  0  0  0  0  0  0  0  0  0  0
  -27.6731   -2.2782   -8.9877 C   0  0  0  0  0  0  0  0  0  0  0  0
  -28.1271   -3.3985   -8.4164 C   0  0  0  0  0  0  0  0  0  0  0  0
  -28.5646   -3.3529   -7.0704 C   0  0  0  0  0  0  0  0  0  0  0  0
  -29.0695   -4.2628   -6.1554 C   0  0  0  0  0  0  0  0  0  0  0  0
  -29.2840   -5.6726   -6.4498 C   0  0  0  0  0  0  0  0  0  0  0  0
  -30.3425   -6.1074   -7.2128 C   0  0  0  0  0  0  0  0  0  0  0  0
  -30.4246   -7.4663   -7.3863 C   0  0  0  0  0  0  0  0  0  0  0  0
  -29.5192   -8.3353   -6.9020 N   0  0  0  0  0  0  0  0  0  0  0  0
  -28.4996   -7.8210   -6.2022 C   0  0  0  0  0  0  0  0  0  0  0  0
  -28.3694   -6.5181   -5.9345 N   0  0  0  0  0  0  0  0  0  0  0  0
  -27.5299   -8.7281   -5.7637 N   0  0  0  0  0  0  0  0  0  0  0  0
  -27.7431   -9.6132   -6.2097 H   0  0  0  0  0  0  0  0  0  0  0  0
  -27.1075   -8.7102   -4.3680 C   0  0  0  0  0  0  0  0  0  0  0  0
  -25.6654   -8.8791   -3.9810 C   0  0  0  0  0  0  0  0  0  0  0  0
  -26.6461   -9.9814   -3.7093 C   0  0  0  0  0  0  0  0  0  0  0  0
  -29.7025   -3.9137   -3.6011 C   0  0  0  0  0  0  0  0  0  0  0  0
  -31.2162   -3.8574   -3.3820 C   0  0  0  0  0  0  0  0  0  0  0  0
  -30.9052   -6.3392   -3.2883 C   0  0  0  0  0  0  0  0  0  0  0  0
  -31.9139   -5.2145   -3.4737 C   0  0  0  0  0  0  0  0  0  0  0  0
 23 24  1  0  0  0
 24 22  1  0  0  0
 22 21  1  0  0  0
 21  1  1  0  0  0
  1  2  2  0  0  0
  1  9  1  0  0  0
  2  3  1  0  0  0
  3  4  1  0  0  0
  3  8  1  0  0  0
  4  5  2  0  0  0
  5  6  1  0  0  0
  6  7  2  0  0  0
  7  8  1  0  0  0
  8  9  2  0  0  0
  9 10  1  0  0  0
 10 11  1  0  0  0
 10 15  2  0  0  0
 11 12  2  0  0  0
 12 13  1  0  0  0
 13 14  2  0  0  0
 14 16  1  0  0  0
 14 15  1  0  0  0
 16 18  1  0  0  0
 16 17  1  0  0  0
 18 19  1  0  0  0
 18 20  1  0  0  0
 19 20  1  0  0  0
M  END
> <minimizedAffinity>
-6.93699

$$$$
