CHEMBL3949308


 37 40  0  0  0  0  0  0  0  0999 V2000
  -25.7739   -1.4954  -12.2998 C   0  0  0  0  0  0  0  0  0  0  0  0
  -25.7462   -1.5383  -13.6956 C   0  0  0  0  0  0  0  0  0  0  0  0
  -24.5847   -1.2397  -14.4049 C   0  0  0  0  0  0  0  0  0  0  0  0
  -23.4422   -0.8094  -13.7367 C   0  0  0  0  0  0  0  0  0  0  0  0
  -23.4700   -0.7080  -12.3432 C   0  0  0  0  0  0  0  0  0  0  0  0
  -24.6336   -1.0402  -11.6270 C   0  0  0  0  0  0  0  0  0  0  0  0
  -26.0092   -1.5910   -9.4364 O   0  0  0  0  0  0  0  0  0  0  0  0
  -26.9376   -1.9374  -10.1544 C   0  0  0  0  0  0  0  0  0  0  0  0
  -26.8906   -1.9387  -11.5434 N   0  0  0  0  0  0  0  0  0  0  0  0
  -28.1711   -2.3396   -9.6659 N   0  0  0  0  0  0  0  0  0  0  0  0
  -27.7629   -2.0280  -12.0411 H   0  0  0  0  0  0  0  0  0  0  0  0
  -28.8386   -2.6967  -10.3325 H   0  0  0  0  0  0  0  0  0  0  0  0
  -28.5532   -2.3433   -8.2999 C   0  0  0  0  0  0  0  0  0  0  0  0
  -28.9613   -3.4849   -7.6085 C   0  0  0  0  0  0  0  0  0  0  0  0
  -29.3374   -3.4205   -6.2659 C   0  0  0  0  0  0  0  0  0  0  0  0
  -29.2934   -2.2120   -5.5733 C   0  0  0  0  0  0  0  0  0  0  0  0
  -29.8001   -2.2536   -3.9265 Cl  0  0  0  0  0  0  0  0  0  0  0  0
  -28.8579   -1.0541   -6.2231 C   0  0  0  0  0  0  0  0  0  0  0  0
  -28.5063   -1.1354   -7.5966 C   0  0  0  0  0  0  0  0  0  0  0  0
  -28.7085    0.2867   -5.5548 C   0  0  0  0  0  0  0  0  0  0  0  0
  -27.8831    0.3489   -4.4797 F   0  0  0  0  0  0  0  0  0  0  0  0
  -28.2373    1.2255   -6.4275 F   0  0  0  0  0  0  0  0  0  0  0  0
  -29.9084    0.7720   -5.1231 F   0  0  0  0  0  0  0  0  0  0  0  0
  -22.2479   -0.5497  -14.3755 O   0  0  0  0  0  0  0  0  0  0  0  0
  -21.8282    0.7760  -14.4577 C   0  0  0  0  0  0  0  0  0  0  0  0
  -20.5947    1.0114  -15.0295 C   0  0  0  0  0  0  0  0  0  0  0  0
  -20.1924    2.3312  -15.0561 C   0  0  0  0  0  0  0  0  0  0  0  0
  -20.9699    3.3178  -14.5969 N   0  0  0  0  0  0  0  0  0  0  0  0
  -22.1415    2.9815  -14.0567 C   0  0  0  0  0  0  0  0  0  0  0  0
  -22.6042    1.7395  -13.9332 N   0  0  0  0  0  0  0  0  0  0  0  0
  -18.9075    2.6318  -15.5393 N   0  0  0  0  0  0  0  0  0  0  0  0
  -17.7416    2.2391  -14.9134 C   0  0  0  0  0  0  0  0  0  0  0  0
  -17.6197    1.6729  -13.8378 O   0  0  0  0  0  0  0  0  0  0  0  0
  -18.8370    3.0849  -16.4362 H   0  0  0  0  0  0  0  0  0  0  0  0
  -16.5144    2.5142  -15.7278 C   0  0  0  0  0  0  0  0  0  0  0  0
  -15.7708    1.3396  -16.3281 C   0  0  0  0  0  0  0  0  0  0  0  0
  -15.1456    2.1234  -15.2124 C   0  0  0  0  0  0  0  0  0  0  0  0
  7  8  2  0  0  0
  8  9  1  0  0  0
  8 10  1  0  0  0
  9  1  1  0  0  0
  9 11  1  0  0  0
  1  2  1  0  0  0
  1  6  2  0  0  0
  2  3  2  0  0  0
  3  4  1  0  0  0
  4 24  1  0  0  0
  4  5  2  0  0  0
 24 25  1  0  0  0
 25 26  1  0  0  0
 25 30  2  0  0  0
 26 27  2  0  0  0
 27 31  1  0  0  0
 27 28  1  0  0  0
 31 32  1  0  0  0
 31 34  1  0  0  0
 32 33  2  0  0  0
 32 35  1  0  0  0
 35 36  1  0  0  0
 35 37  1  0  0  0
 36 37  1  0  0  0
 28 29  2  0  0  0
 29 30  1  0  0  0
  5  6  1  0  0  0
 10 13  1  0  0  0
 10 12  1  0  0  0
 13 14  1  0  0  0
 13 19  2  0  0  0
 14 15  2  0  0  0
 15 16  1  0  0  0
 16 17  1  0  0  0
 16 18  2  0  0  0
 18 20  1  0  0  0
 18 19  1  0  0  0
 20 21  1  0  0  0
 20 22  1  0  0  0
 20 23  1  0  0  0
M  END
> <minimizedAffinity>
-11.48663

$$$$
