CHEMBL3759261


 33 35  0  0  0  0  0  0  0  0999 V2000
  -12.8562    0.1649  -13.2900 C   0  0  0  0  0  0  0  0  0  0  0  0
  -12.8230    1.3850  -13.9746 C   0  0  0  0  0  0  0  0  0  0  0  0
  -13.8734    1.8177  -14.7700 C   0  0  0  0  0  0  0  0  0  0  0  0
  -13.7235    2.9772  -15.4157 N   0  0  0  0  0  0  0  0  0  0  0  0
  -14.7436    3.3671  -16.1842 C   0  0  0  0  0  0  0  0  0  0  0  0
  -15.8954    2.7201  -16.3377 N   0  0  0  0  0  0  0  0  0  0  0  0
  -16.0458    1.5613  -15.6669 C   0  0  0  0  0  0  0  0  0  0  0  0
  -15.0246    1.0286  -14.8630 C   0  0  0  0  0  0  0  0  0  0  0  0
  -15.0811   -0.2017  -14.1636 C   0  0  0  0  0  0  0  0  0  0  0  0
  -14.0217   -0.6135  -13.3508 C   0  0  0  0  0  0  0  0  0  0  0  0
  -10.6988   -0.8989  -13.2497 C   0  0  0  0  0  0  0  0  0  0  0  0
  -11.7990   -0.3105  -12.5647 O   0  0  0  0  0  0  0  0  0  0  0  0
  -17.2951    0.8816  -15.7580 N   0  0  0  0  0  0  0  0  0  0  0  0
  -17.1580   -0.0914  -15.5081 H   0  0  0  0  0  0  0  0  0  0  0  0
  -18.5020    1.4032  -15.2386 C   0  0  0  0  0  0  0  0  0  0  0  0
  -19.6665    0.6256  -15.2222 C   0  0  0  0  0  0  0  0  0  0  0  0
  -20.8810    1.1610  -14.7976 C   0  0  0  0  0  0  0  0  0  0  0  0
  -20.9339    2.4844  -14.3719 C   0  0  0  0  0  0  0  0  0  0  0  0
  -22.4416    3.1653  -13.8996 Cl  0  0  0  0  0  0  0  0  0  0  0  0
  -19.7792    3.2626  -14.3414 C   0  0  0  0  0  0  0  0  0  0  0  0
  -18.5634    2.7224  -14.7664 C   0  0  0  0  0  0  0  0  0  0  0  0
  -14.2336   -1.8094  -12.6991 O   0  0  0  0  0  0  0  0  0  0  0  0
  -14.6360   -2.8652  -13.5747 C   0  0  0  0  0  0  0  0  0  0  0  0
  -16.0240   -3.3907  -13.2006 C   0  0  0  0  0  0  0  0  0  0  0  0
  -15.9831   -3.9114  -11.7603 C   0  0  0  0  0  0  0  0  0  0  0  0
  -15.1498   -5.1777  -11.5968 C   0  0  0  0  0  0  0  0  0  0  0  0
  -14.4375   -5.1854  -10.2418 C   0  0  0  0  0  0  0  0  0  0  0  0
  -13.6670   -3.9054  -10.0049 C   0  0  0  0  0  0  0  0  0  0  0  0
  -13.9178   -3.0964   -9.1145 O   0  0  0  0  0  0  0  0  0  0  0  0
  -12.6369   -3.7045  -10.8941 N   0  0  0  0  0  0  0  0  0  0  0  0
  -11.8309   -2.5722  -10.6236 O   0  0  0  0  0  0  0  0  0  0  0  0
  -12.1881   -4.4648  -11.3951 H   0  0  0  0  0  0  0  0  0  0  0  0
  -12.2821   -2.1760   -9.8446 H   0  0  0  0  0  0  0  0  0  0  0  0
 11 12  1  0  0  0
 12  1  1  0  0  0
  1  2  1  0  0  0
  1 10  2  0  0  0
  2  3  2  0  0  0
  3  4  1  0  0  0
  3  8  1  0  0  0
  4  5  2  0  0  0
  5  6  1  0  0  0
  6  7  2  0  0  0
  7 13  1  0  0  0
  7  8  1  0  0  0
 13 15  1  0  0  0
 13 14  1  0  0  0
 15 16  1  0  0  0
 15 21  2  0  0  0
 16 17  2  0  0  0
 17 18  1  0  0  0
 18 19  1  0  0  0
 18 20  2  0  0  0
 20 21  1  0  0  0
  8  9  2  0  0  0
  9 10  1  0  0  0
 10 22  1  0  0  0
 22 23  1  0  0  0
 23 24  1  0  0  0
 24 25  1  0  0  0
 25 26  1  0  0  0
 26 27  1  0  0  0
 27 28  1  0  0  0
 28 29  2  0  0  0
 28 30  1  0  0  0
 30 31  1  0  0  0
 30 32  1  0  0  0
 31 33  1  0  0  0
M  END
> <minimizedAffinity>
-7.31779

$$$$
