CHEMBL3920551


 45 49  0  0  0  0  0  0  0  0999 V2000
  -29.7587   -2.8085   -4.2178 N   0  0  0  0  0  0  0  0  0  0  0  0
  -30.7307   -2.6752   -3.9636 H   0  0  0  0  0  0  0  0  0  0  0  0
  -28.1696   -3.3298   -8.1173 C   0  0  0  0  0  0  0  0  0  0  0  0
  -28.7922   -3.1340   -6.8873 C   0  0  0  0  0  0  0  0  0  0  0  0
  -28.7229   -1.9007   -6.2050 C   0  0  0  0  0  0  0  0  0  0  0  0
  -29.2593   -1.6922   -4.9249 C   0  0  0  0  0  0  0  0  0  0  0  0
  -29.2491   -0.4907   -4.3290 N   0  0  0  0  0  0  0  0  0  0  0  0
  -28.6603    0.4964   -5.0096 C   0  0  0  0  0  0  0  0  0  0  0  0
  -28.0796    0.3952   -6.2207 N   0  0  0  0  0  0  0  0  0  0  0  0
  -28.1207   -0.7987   -6.8154 C   0  0  0  0  0  0  0  0  0  0  0  0
  -27.5681   -0.9850   -8.0821 C   0  0  0  0  0  0  0  0  0  0  0  0
  -27.5911   -2.2182   -8.7523 C   0  0  0  0  0  0  0  0  0  0  0  0
  -28.3718   -5.7437   -7.9891 C   0  0  0  0  0  0  0  0  0  0  0  0
  -28.1286   -4.5502   -8.7217 O   0  0  0  0  0  0  0  0  0  0  0  0
  -27.0305   -2.1451  -10.0074 O   0  0  0  0  0  0  0  0  0  0  0  0
  -27.7651   -1.5018  -11.0412 C   0  0  0  0  0  0  0  0  0  0  0  0
  -26.8495   -0.9559  -12.1295 C   0  0  0  0  0  0  0  0  0  0  0  0
  -25.4143   -0.7134  -11.6715 C   0  0  0  0  0  0  0  0  0  0  0  0
  -24.4724   -1.7086  -12.2274 N   0  0  0  0  0  0  0  0  0  0  0  0
  -23.0603   -1.4929  -11.8348 C   0  0  0  0  0  0  0  0  0  0  0  0
  -22.4524   -0.2216  -12.4422 C   0  0  0  0  0  0  0  0  0  0  0  0
  -22.4994   -0.2744  -13.8745 O   0  0  0  0  0  0  0  0  0  0  0  0
  -23.8427   -0.4630  -14.3419 C   0  0  0  0  0  0  0  0  0  0  0  0
  -24.5140   -1.6981  -13.7086 C   0  0  0  0  0  0  0  0  0  0  0  0
  -29.3358   -4.1420   -4.2294 C   0  0  0  0  0  0  0  0  0  0  0  0
  -28.0018   -4.4164   -3.9225 C   0  0  0  0  0  0  0  0  0  0  0  0
  -27.4616   -5.6858   -4.1269 C   0  0  0  0  0  0  0  0  0  0  0  0
  -28.2236   -6.7126   -4.6883 C   0  0  0  0  0  0  0  0  0  0  0  0
  -29.5834   -6.4601   -4.9305 C   0  0  0  0  0  0  0  0  0  0  0  0
  -30.6137   -7.6793   -5.6009 Cl  0  0  0  0  0  0  0  0  0  0  0  0
  -30.1289   -5.1879   -4.7088 C   0  0  0  0  0  0  0  0  0  0  0  0
  -27.6500   -7.9549   -5.0694 N   0  0  0  0  0  0  0  0  0  0  0  0
  -26.4833   -8.4890   -4.5464 C   0  0  0  0  0  0  0  0  0  0  0  0
  -25.8447   -8.0060   -3.6174 O   0  0  0  0  0  0  0  0  0  0  0  0
  -26.0636   -9.6143   -5.2398 N   0  0  0  0  0  0  0  0  0  0  0  0
  -28.0570   -8.3971   -5.8827 H   0  0  0  0  0  0  0  0  0  0  0  0
  -26.3018   -9.6194   -6.2202 H   0  0  0  0  0  0  0  0  0  0  0  0
  -24.8462  -10.2524   -4.8959 C   0  0  0  0  0  0  0  0  0  0  0  0
  -24.7417  -10.8504   -3.6446 C   0  0  0  0  0  0  0  0  0  0  0  0
  -23.5806  -11.5454   -3.2995 C   0  0  0  0  0  0  0  0  0  0  0  0
  -22.4809  -11.6062   -4.1718 C   0  0  0  0  0  0  0  0  0  0  0  0
  -21.2423  -12.3346   -3.7269 C   0  0  0  0  0  0  0  0  0  0  0  0
  -22.5677  -10.9757   -5.4274 C   0  0  0  0  0  0  0  0  0  0  0  0
  -21.4313  -10.9591   -6.4157 C   0  0  0  0  0  0  0  0  0  0  0  0
  -23.7624  -10.3162   -5.7805 C   0  0  0  0  0  0  0  0  0  0  0  0
 13 14  1  0  0  0
 14  3  1  0  0  0
  3  4  1  0  0  0
  3 12  2  0  0  0
  4  5  2  0  0  0
  5  6  1  0  0  0
  5 10  1  0  0  0
  6  1  1  0  0  0
  6  7  2  0  0  0
  1 25  1  0  0  0
  1  2  1  0  0  0
 25 26  1  0  0  0
 25 31  2  0  0  0
 26 27  2  0  0  0
 27 28  1  0  0  0
 28 32  1  0  0  0
 28 29  2  0  0  0
 32 33  1  0  0  0
 32 36  1  0  0  0
 33 34  2  0  0  0
 33 35  1  0  0  0
 35 38  1  0  0  0
 35 37  1  0  0  0
 38 39  1  0  0  0
 38 45  2  0  0  0
 39 40  2  0  0  0
 40 41  1  0  0  0
 41 42  1  0  0  0
 41 43  2  0  0  0
 43 44  1  0  0  0
 43 45  1  0  0  0
 29 30  1  0  0  0
 29 31  1  0  0  0
  7  8  1  0  0  0
  8  9  2  0  0  0
  9 10  1  0  0  0
 10 11  2  0  0  0
 11 12  1  0  0  0
 12 15  1  0  0  0
 15 16  1  0  0  0
 16 17  1  0  0  0
 17 18  1  0  0  0
 18 19  1  0  0  0
 19 20  1  0  0  0
 19 24  1  0  0  0
 20 21  1  0  0  0
 21 22  1  0  0  0
 22 23  1  0  0  0
 23 24  1  0  0  0
M  END
> <minimizedAffinity>
-9.87487

$$$$
