CHEMBL2063326


 44 48  0  0  0  0  0  0  0  0999 V2000
  -26.9554   -1.8348  -10.0796 C   0  0  0  0  0  0  0  0  0  0  0  0
  -26.1258   -0.7003  -10.2788 C   0  0  0  0  0  0  0  0  0  0  0  0
  -25.6528   -0.7934  -11.5635 C   0  0  0  0  0  0  0  0  0  0  0  0
  -26.2258   -1.9306  -12.0676 N   0  0  0  0  0  0  0  0  0  0  0  0
  -26.9789   -2.6010  -11.1812 N   0  0  0  0  0  0  0  0  0  0  0  0
  -26.1222   -2.3318  -12.9924 H   0  0  0  0  0  0  0  0  0  0  0  0
  -29.0594   -2.7703   -6.4737 C   0  0  0  0  0  0  0  0  0  0  0  0
  -28.3748   -1.5573   -6.6086 C   0  0  0  0  0  0  0  0  0  0  0  0
  -27.6970   -1.2564   -7.7898 C   0  0  0  0  0  0  0  0  0  0  0  0
  -27.7003   -2.1559   -8.8652 C   0  0  0  0  0  0  0  0  0  0  0  0
  -28.4024   -3.3597   -8.7412 C   0  0  0  0  0  0  0  0  0  0  0  0
  -29.0752   -3.6659   -7.5525 C   0  0  0  0  0  0  0  0  0  0  0  0
  -29.7876   -3.0774   -5.1930 C   0  0  0  0  0  0  0  0  0  0  0  0
  -28.3903   -5.3270   -4.1329 O   0  0  0  0  0  0  0  0  0  0  0  0
  -29.4874   -5.4607   -4.6536 C   0  0  0  0  0  0  0  0  0  0  0  0
  -30.2410   -4.4444   -5.1563 N   0  0  0  0  0  0  0  0  0  0  0  0
  -31.1401   -4.6913   -5.5413 H   0  0  0  0  0  0  0  0  0  0  0  0
  -30.1138   -6.6390   -4.8869 O   0  0  0  0  0  0  0  0  0  0  0  0
  -30.8901   -6.6953   -6.0902 C   0  0  0  0  0  0  0  0  0  0  0  0
  -30.2814   -7.6228   -7.1108 C   0  0  0  0  0  0  0  0  0  0  0  0
  -30.9808   -8.7510   -7.5632 C   0  0  0  0  0  0  0  0  0  0  0  0
  -30.4386   -9.5709   -8.5557 C   0  0  0  0  0  0  0  0  0  0  0  0
  -29.1893   -9.2772   -9.0988 C   0  0  0  0  0  0  0  0  0  0  0  0
  -28.4775   -8.1685   -8.6445 C   0  0  0  0  0  0  0  0  0  0  0  0
  -29.0174   -7.3480   -7.6513 C   0  0  0  0  0  0  0  0  0  0  0  0
  -24.8014    0.0757  -12.2386 N   0  0  0  0  0  0  0  0  0  0  0  0
  -23.7491   -0.3972  -13.1022 C   0  0  0  0  0  0  0  0  0  0  0  0
  -23.6375   -1.5904  -13.3470 O   0  0  0  0  0  0  0  0  0  0  0  0
  -24.9639    1.0645  -12.1267 H   0  0  0  0  0  0  0  0  0  0  0  0
  -22.8109    0.5864  -13.7004 C   0  0  0  0  0  0  0  0  0  0  0  0
  -22.9995    1.9712  -13.6316 C   0  0  0  0  0  0  0  0  0  0  0  0
  -22.0302    2.8328  -14.1618 C   0  0  0  0  0  0  0  0  0  0  0  0
  -20.8671    2.3233  -14.7404 C   0  0  0  0  0  0  0  0  0  0  0  0
  -20.7081    0.9458  -14.8659 C   0  0  0  0  0  0  0  0  0  0  0  0
  -21.6692    0.0843  -14.3429 C   0  0  0  0  0  0  0  0  0  0  0  0
  -19.8291    3.0767  -15.2130 O   0  0  0  0  0  0  0  0  0  0  0  0
  -18.5916    2.9230  -14.5060 C   0  0  0  0  0  0  0  0  0  0  0  0
  -17.4431    2.8444  -15.5227 C   0  0  0  0  0  0  0  0  0  0  0  0
  -17.0164    1.4657  -15.8227 N   0  0  0  0  0  0  0  0  0  0  0  0
  -17.1171    0.5397  -14.6730 C   0  0  0  0  0  0  0  0  0  0  0  0
  -16.0504    0.7616  -13.5884 C   0  0  0  0  0  0  0  0  0  0  0  0
  -14.7295    0.6993  -14.1371 O   0  0  0  0  0  0  0  0  0  0  0  0
  -14.5701    1.6527  -15.1947 C   0  0  0  0  0  0  0  0  0  0  0  0
  -15.6141    1.4355  -16.3047 C   0  0  0  0  0  0  0  0  0  0  0  0
 14 15  2  0  0  0
 15 16  1  0  0  0
 15 18  1  0  0  0
 16 13  1  0  0  0
 16 17  1  0  0  0
 13  7  1  0  0  0
  7  8  1  0  0  0
  7 12  2  0  0  0
  8  9  2  0  0  0
  9 10  1  0  0  0
 10  1  1  0  0  0
 10 11  2  0  0  0
  1  2  1  0  0  0
  1  5  2  0  0  0
  2  3  2  0  0  0
  3 26  1  0  0  0
  3  4  1  0  0  0
 26 27  1  0  0  0
 26 29  1  0  0  0
 27 28  2  0  0  0
 27 30  1  0  0  0
 30 31  1  0  0  0
 30 35  2  0  0  0
 31 32  2  0  0  0
 32 33  1  0  0  0
 33 36  1  0  0  0
 33 34  2  0  0  0
 36 37  1  0  0  0
 37 38  1  0  0  0
 38 39  1  0  0  0
 39 40  1  0  0  0
 39 44  1  0  0  0
 40 41  1  0  0  0
 41 42  1  0  0  0
 42 43  1  0  0  0
 43 44  1  0  0  0
 34 35  1  0  0  0
  4  5  1  0  0  0
  4  6  1  0  0  0
 11 12  1  0  0  0
 18 19  1  0  0  0
 19 20  1  0  0  0
 20 21  1  0  0  0
 20 25  2  0  0  0
 21 22  2  0  0  0
 22 23  1  0  0  0
 23 24  2  0  0  0
 24 25  1  0  0  0
M  END
> <minimizedAffinity>
-9.86339

$$$$
