CHEMBL3739656


 42 46  0  0  0  0  0  0  0  0999 V2000
  -22.7458   10.2229  -17.5281 C   0  0  0  0  0  0  0  0  0  0  0  0
  -23.1982   10.7460  -18.7365 C   0  0  0  0  0  0  0  0  0  0  0  0
  -22.2798   11.1490  -19.7652 C   0  0  0  0  0  0  0  0  0  0  0  0
  -20.8531   11.2001  -19.5999 C   0  0  0  0  0  0  0  0  0  0  0  0
  -19.7266   11.5926  -20.5971 C   0  0  0  0  0  0  0  0  0  0  0  0
  -19.0037   12.6505  -20.0667 C   0  0  0  0  0  0  0  0  0  0  0  0
  -18.7700   12.6563  -18.6734 C   0  0  0  0  0  0  0  0  0  0  0  0
  -19.4213   11.7648  -17.7859 C   0  0  0  0  0  0  0  0  0  0  0  0
  -20.5484   11.0621  -18.2108 C   0  0  0  0  0  0  0  0  0  0  0  0
  -21.3990   10.4115  -17.2533 C   0  0  0  0  0  0  0  0  0  0  0  0
  -18.5888   10.4676  -20.7675 C   0  0  0  0  0  0  0  0  0  0  0  0
  -19.2790    9.5978  -21.2786 O   0  0  0  0  0  0  0  0  0  0  0  0
  -17.1276   10.2834  -20.3144 N   0  0  0  0  0  0  0  0  0  0  0  0
  -16.6321   11.1648  -20.2542 H   0  0  0  0  0  0  0  0  0  0  0  0
  -15.9936    9.0372  -20.2789 C   0  0  0  0  0  0  0  0  0  0  0  0
  -15.6905    7.9590  -19.3716 C   0  0  0  0  0  0  0  0  0  0  0  0
  -14.8713    6.7894  -19.5314 C   0  0  0  0  0  0  0  0  0  0  0  0
  -14.9159    5.4477  -18.4173 Cl  0  0  0  0  0  0  0  0  0  0  0  0
  -14.0178    6.7733  -20.5893 C   0  0  0  0  0  0  0  0  0  0  0  0
  -14.0270    7.8893  -21.3701 C   0  0  0  0  0  0  0  0  0  0  0  0
  -12.7006    8.0225  -22.4667 Cl  0  0  0  0  0  0  0  0  0  0  0  0
  -15.0061    8.9881  -21.2753 C   0  0  0  0  0  0  0  0  0  0  0  0
  -23.6595    9.8525  -16.5575 O   0  0  0  0  0  0  0  0  0  0  0  0
  -25.4440   12.1014  -14.3746 C   0  0  0  0  0  0  0  0  0  0  0  0
  -26.3527   12.6585  -15.1887 N   0  0  0  0  0  0  0  0  0  0  0  0
  -26.3699   12.2349  -16.4596 C   0  0  0  0  0  0  0  0  0  0  0  0
  -25.5022   11.2890  -16.9555 C   0  0  0  0  0  0  0  0  0  0  0  0
  -24.5706   10.8010  -16.0635 C   0  0  0  0  0  0  0  0  0  0  0  0
  -24.5524   11.1663  -14.7719 N   0  0  0  0  0  0  0  0  0  0  0  0
  -25.4528   12.6241  -13.0683 N   0  0  0  0  0  0  0  0  0  0  0  0
  -24.6905   12.1395  -12.6012 H   0  0  0  0  0  0  0  0  0  0  0  0
  -28.9058   12.4710  -11.8942 C   0  0  0  0  0  0  0  0  0  0  0  0
  -28.7249   12.3215  -10.5104 C   0  0  0  0  0  0  0  0  0  0  0  0
  -27.4683   12.4811   -9.9648 C   0  0  0  0  0  0  0  0  0  0  0  0
  -26.3698   12.6153  -10.8459 C   0  0  0  0  0  0  0  0  0  0  0  0
  -26.5602   12.6542  -12.2079 C   0  0  0  0  0  0  0  0  0  0  0  0
  -27.8310   12.6413  -12.7243 C   0  0  0  0  0  0  0  0  0  0  0  0
  -30.1890   12.5641  -12.5909 C   0  0  0  0  0  0  0  0  0  0  0  0
  -31.9265   11.3400  -14.4044 C   0  0  0  0  0  0  0  0  0  0  0  0
  -30.9806   11.0310  -12.5470 S   0  0  0  0  0  0  0  0  0  0  0  0
  -31.7121   10.8526  -11.3054 O   0  0  0  0  0  0  0  0  0  0  0  0
  -29.9176   10.0669  -12.7586 O   0  0  0  0  0  0  0  0  0  0  0  0
 39 40  1  0  0  0
 40 41  2  0  0  0
 40 42  2  0  0  0
 40 38  1  0  0  0
 38 32  1  0  0  0
 32 33  1  0  0  0
 32 37  2  0  0  0
 33 34  2  0  0  0
 34 35  1  0  0  0
 35 36  2  0  0  0
 36 30  1  0  0  0
 36 37  1  0  0  0
 30 24  1  0  0  0
 30 31  1  0  0  0
 24 25  1  0  0  0
 24 29  2  0  0  0
 25 26  2  0  0  0
 26 27  1  0  0  0
 27 28  2  0  0  0
 28 23  1  0  0  0
 28 29  1  0  0  0
 23  1  1  0  0  0
  1  2  1  0  0  0
  1 10  2  0  0  0
  2  3  2  0  0  0
  3  4  1  0  0  0
  4  5  1  0  0  0
  4  9  2  0  0  0
  5 11  1  0  0  0
  5  6  2  0  0  0
 11 12  2  0  0  0
 11 13  1  0  0  0
 13 15  1  0  0  0
 13 14  1  0  0  0
 15 16  1  0  0  0
 15 22  2  0  0  0
 16 17  2  0  0  0
 17 18  1  0  0  0
 17 19  1  0  0  0
 19 20  2  0  0  0
 20 21  1  0  0  0
 20 22  1  0  0  0
  6  7  1  0  0  0
  7  8  2  0  0  0
  8  9  1  0  0  0
  9 10  1  0  0  0
M  END
> <minimizedAffinity>
-3.96939

$$$$
