CHEMBL3397929


 33 36  0  0  0  0  0  0  0  0999 V2000
  -22.6923    2.2200  -13.7425 O   0  0  0  0  0  0  0  0  0  0  0  0
  -21.8471    1.3944  -14.0699 C   0  0  0  0  0  0  0  0  0  0  0  0
  -21.9118    0.0179  -13.8933 N   0  0  0  0  0  0  0  0  0  0  0  0
  -21.0628   -0.5177  -14.0179 H   0  0  0  0  0  0  0  0  0  0  0  0
  -23.0091   -0.6462  -13.3060 C   0  0  0  0  0  0  0  0  0  0  0  0
  -24.1666   -0.9091  -14.0305 C   0  0  0  0  0  0  0  0  0  0  0  0
  -25.2690   -1.5098  -13.4272 C   0  0  0  0  0  0  0  0  0  0  0  0
  -25.2360   -1.8535  -12.0766 C   0  0  0  0  0  0  0  0  0  0  0  0
  -24.0687   -1.6150  -11.3501 C   0  0  0  0  0  0  0  0  0  0  0  0
  -22.9481   -1.0321  -11.9652 C   0  0  0  0  0  0  0  0  0  0  0  0
  -26.2942   -2.3927  -11.3798 O   0  0  0  0  0  0  0  0  0  0  0  0
  -26.5993   -1.6813  -10.1707 C   0  0  0  0  0  0  0  0  0  0  0  0
  -27.6818   -2.3898   -9.3262 C   0  0  0  0  0  0  0  0  0  0  0  0
  -27.5550   -2.1437   -7.8661 N   0  0  0  0  0  0  0  0  0  0  0  0
  -27.8843   -0.7507   -7.5211 C   0  0  0  0  0  0  0  0  0  0  0  0
  -27.7215   -0.4821   -6.0245 C   0  0  0  0  0  0  0  0  0  0  0  0
  -28.5591   -1.4464   -5.1956 C   0  0  0  0  0  0  0  0  0  0  0  0
  -28.2404   -2.8842   -5.5851 C   0  0  0  0  0  0  0  0  0  0  0  0
  -28.3892   -3.0849   -7.0959 C   0  0  0  0  0  0  0  0  0  0  0  0
  -20.5902    1.9136  -14.6376 C   0  0  0  0  0  0  0  0  0  0  0  0
  -20.5994    3.1964  -15.2041 C   0  0  0  0  0  0  0  0  0  0  0  0
  -19.4375    3.7150  -15.7558 C   0  0  0  0  0  0  0  0  0  0  0  0
  -18.2654    2.9643  -15.7258 C   0  0  0  0  0  0  0  0  0  0  0  0
  -18.2282    1.6851  -15.1321 C   0  0  0  0  0  0  0  0  0  0  0  0
  -19.4220    1.1580  -14.6233 C   0  0  0  0  0  0  0  0  0  0  0  0
  -16.9569    0.9786  -14.9366 C   0  0  0  0  0  0  0  0  0  0  0  0
  -15.9357    1.1198  -15.8924 C   0  0  0  0  0  0  0  0  0  0  0  0
  -14.6713    0.5789  -15.6850 C   0  0  0  0  0  0  0  0  0  0  0  0
  -14.3948   -0.1161  -14.4966 C   0  0  0  0  0  0  0  0  0  0  0  0
  -15.4010   -0.2652  -13.5584 C   0  0  0  0  0  0  0  0  0  0  0  0
  -15.1573   -0.8992  -12.3750 O   0  0  0  0  0  0  0  0  0  0  0  0
  -16.6738    0.2477  -13.7706 C   0  0  0  0  0  0  0  0  0  0  0  0
  -14.1965   -1.0189  -12.2858 H   0  0  0  0  0  0  0  0  0  0  0  0
  1  2  2  0  0  0
  2  3  1  0  0  0
  2 20  1  0  0  0
  3  5  1  0  0  0
  3  4  1  0  0  0
  5  6  1  0  0  0
  5 10  2  0  0  0
  6  7  2  0  0  0
  7  8  1  0  0  0
  8 11  1  0  0  0
  8  9  2  0  0  0
 11 12  1  0  0  0
 12 13  1  0  0  0
 13 14  1  0  0  0
 14 15  1  0  0  0
 14 19  1  0  0  0
 15 16  1  0  0  0
 16 17  1  0  0  0
 17 18  1  0  0  0
 18 19  1  0  0  0
  9 10  1  0  0  0
 20 21  1  0  0  0
 20 25  2  0  0  0
 21 22  2  0  0  0
 22 23  1  0  0  0
 23 24  2  0  0  0
 24 26  1  0  0  0
 24 25  1  0  0  0
 26 27  1  0  0  0
 26 32  2  0  0  0
 27 28  2  0  0  0
 28 29  1  0  0  0
 29 30  2  0  0  0
 30 31  1  0  0  0
 30 32  1  0  0  0
 31 33  1  0  0  0
M  END
> <minimizedAffinity>
-10.80576

$$$$
