CHEMBL21156


 25 28  0  0  0  0  0  0  0  0999 V2000
  -30.2257   -8.0026   -7.4257 C   0  0  0  0  0  0  0  0  0  0  0  0
  -29.5700   -6.9874   -7.9512 N   0  0  0  0  0  0  0  0  0  0  0  0
  -29.6887   -5.9406   -7.0585 C   0  0  0  0  0  0  0  0  0  0  0  0
  -29.1527   -4.6283   -7.1082 C   0  0  0  0  0  0  0  0  0  0  0  0
  -28.3816   -4.2747   -8.2370 C   0  0  0  0  0  0  0  0  0  0  0  0
  -27.8217   -3.0053   -8.3337 C   0  0  0  0  0  0  0  0  0  0  0  0
  -28.0310   -2.0982   -7.3094 C   0  0  0  0  0  0  0  0  0  0  0  0
  -27.4900   -0.8755   -7.3943 F   0  0  0  0  0  0  0  0  0  0  0  0
  -28.7925   -2.4320   -6.1889 C   0  0  0  0  0  0  0  0  0  0  0  0
  -29.3860   -3.7124   -6.0426 C   0  0  0  0  0  0  0  0  0  0  0  0
  -30.1768   -4.1552   -4.9382 C   0  0  0  0  0  0  0  0  0  0  0  0
  -30.4819   -3.2818   -3.7496 C   0  0  0  0  0  0  0  0  0  0  0  0
  -30.0900   -2.1287   -3.6252 O   0  0  0  0  0  0  0  0  0  0  0  0
  -31.2513   -3.8380   -2.7477 N   0  0  0  0  0  0  0  0  0  0  0  0
  -31.7558   -5.1054   -2.7536 C   0  0  0  0  0  0  0  0  0  0  0  0
  -31.5289   -5.9358   -3.7738 C   0  0  0  0  0  0  0  0  0  0  0  0
  -30.7211   -5.4631   -4.8946 C   0  0  0  0  0  0  0  0  0  0  0  0
  -30.4553   -6.3222   -5.9657 C   0  0  0  0  0  0  0  0  0  0  0  0
  -30.8033   -7.6232   -6.2368 N   0  0  0  0  0  0  0  0  0  0  0  0
  -31.4331   -3.2222   -1.9629 H   0  0  0  0  0  0  0  0  0  0  0  0
  -31.3623   -8.2207   -5.6466 H   0  0  0  0  0  0  0  0  0  0  0  0
  -31.8220   -9.7587   -8.2275 C   0  0  0  0  0  0  0  0  0  0  0  0
  -30.3423   -9.4065   -7.9835 C   0  0  0  0  0  0  0  0  0  0  0  0
  -29.7512  -10.4268   -6.9952 C   0  0  0  0  0  0  0  0  0  0  0  0
  -29.5909   -9.5048   -9.3245 C   0  0  0  0  0  0  0  0  0  0  0  0
 22 23  1  0  0  0
 23 24  1  0  0  0
 23 25  1  0  0  0
 23  1  1  0  0  0
  1  2  2  0  0  0
  1 19  1  0  0  0
  2  3  1  0  0  0
  3  4  1  0  0  0
  3 18  2  0  0  0
  4  5  1  0  0  0
  4 10  2  0  0  0
  5  6  2  0  0  0
  6  7  1  0  0  0
  7  8  1  0  0  0
  7  9  2  0  0  0
  9 10  1  0  0  0
 10 11  1  0  0  0
 11 12  1  0  0  0
 11 17  2  0  0  0
 12 13  2  0  0  0
 12 14  1  0  0  0
 14 15  1  0  0  0
 14 20  1  0  0  0
 15 16  2  0  0  0
 16 17  1  0  0  0
 17 18  1  0  0  0
 18 19  1  0  0  0
 19 21  1  0  0  0
M  END
> <minimizedAffinity>
-8.98302

$$$$
