CHEMBL3702608


 31 34  0  0  0  0  0  0  0  0999 V2000
  -27.5772   -2.1566   -8.8870 C   0  0  0  0  0  0  0  0  0  0  0  0
  -27.9927   -1.1599   -8.0025 C   0  0  0  0  0  0  0  0  0  0  0  0
  -28.6248   -1.5294   -6.8188 C   0  0  0  0  0  0  0  0  0  0  0  0
  -28.8673   -2.8803   -6.5461 C   0  0  0  0  0  0  0  0  0  0  0  0
  -28.4716   -3.8983   -7.4272 C   0  0  0  0  0  0  0  0  0  0  0  0
  -27.7754   -3.5130   -8.5760 C   0  0  0  0  0  0  0  0  0  0  0  0
  -28.8418   -5.2128   -7.2275 N   0  0  0  0  0  0  0  0  0  0  0  0
  -29.7443   -5.5550   -6.1289 C   0  0  0  0  0  0  0  0  0  0  0  0
  -30.9269   -6.3343   -6.6934 C   0  0  0  0  0  0  0  0  0  0  0  0
  -30.4641   -7.4812   -7.5462 C   0  0  0  0  0  0  0  0  0  0  0  0
  -31.3400   -8.4989   -7.7102 N   0  0  0  0  0  0  0  0  0  0  0  0
  -30.9490   -9.5205   -8.4737 C   0  0  0  0  0  0  0  0  0  0  0  0
  -31.8487  -10.5487   -8.6631 N   0  0  0  0  0  0  0  0  0  0  0  0
  -29.7748   -9.5931   -9.1045 N   0  0  0  0  0  0  0  0  0  0  0  0
  -28.9306   -8.5565   -8.9256 C   0  0  0  0  0  0  0  0  0  0  0  0
  -29.2236   -7.4492   -8.1579 C   0  0  0  0  0  0  0  0  0  0  0  0
  -28.2412   -6.3267   -7.9661 C   0  0  0  0  0  0  0  0  0  0  0  0
  -32.7855  -10.1964   -8.5255 H   0  0  0  0  0  0  0  0  0  0  0  0
  -31.6513  -11.0089   -9.5406 H   0  0  0  0  0  0  0  0  0  0  0  0
  -25.5633   -1.7509  -10.1821 N   0  0  0  0  0  0  0  0  0  0  0  0
  -26.9470   -1.8436  -10.1929 C   0  0  0  0  0  0  0  0  0  0  0  0
  -27.6994   -1.6534  -11.1441 O   0  0  0  0  0  0  0  0  0  0  0  0
  -25.0867   -1.9416   -9.3109 H   0  0  0  0  0  0  0  0  0  0  0  0
  -23.0979   -0.4125  -13.3656 C   0  0  0  0  0  0  0  0  0  0  0  0
  -23.1724   -1.7741  -13.0642 C   0  0  0  0  0  0  0  0  0  0  0  0
  -23.9810   -2.2317  -12.0208 C   0  0  0  0  0  0  0  0  0  0  0  0
  -24.7407   -1.3429  -11.2616 C   0  0  0  0  0  0  0  0  0  0  0  0
  -24.7024    0.0181  -11.5878 C   0  0  0  0  0  0  0  0  0  0  0  0
  -23.8867    0.4801  -12.6315 C   0  0  0  0  0  0  0  0  0  0  0  0
  -21.3779    1.2919  -14.0600 C   0  0  0  0  0  0  0  0  0  0  0  0
  -22.1777    0.0627  -14.4602 C   0  0  0  0  0  0  0  0  0  0  0  0
 30 31  1  0  0  0
 31 24  1  0  0  0
 24 25  1  0  0  0
 24 29  2  0  0  0
 25 26  2  0  0  0
 26 27  1  0  0  0
 27 20  1  0  0  0
 27 28  2  0  0  0
 20 21  1  0  0  0
 20 23  1  0  0  0
 21 22  2  0  0  0
 21  1  1  0  0  0
  1  2  1  0  0  0
  1  6  2  0  0  0
  2  3  2  0  0  0
  3  4  1  0  0  0
  4  5  2  0  0  0
  5  7  1  0  0  0
  5  6  1  0  0  0
  7  8  1  0  0  0
  7 17  1  0  0  0
  8  9  1  0  0  0
  9 10  1  0  0  0
 10 11  1  0  0  0
 10 16  2  0  0  0
 11 12  2  0  0  0
 12 13  1  0  0  0
 12 14  1  0  0  0
 13 18  1  0  0  0
 13 19  1  0  0  0
 14 15  2  0  0  0
 15 16  1  0  0  0
 16 17  1  0  0  0
 28 29  1  0  0  0
M  END
> <minimizedAffinity>
-10.32595

$$$$
