CHEMBL3940199


 37 40  0  0  0  0  0  0  0  0999 V2000
  -16.7201    4.3728  -16.0930 C   0  0  0  0  0  0  0  0  0  0  0  0
  -17.3180    3.0791  -15.6194 C   0  0  0  0  0  0  0  0  0  0  0  0
  -18.6736    3.0983  -15.2417 C   0  0  0  0  0  0  0  0  0  0  0  0
  -19.3298    1.9669  -14.7530 C   0  0  0  0  0  0  0  0  0  0  0  0
  -18.6318    0.7579  -14.7339 C   0  0  0  0  0  0  0  0  0  0  0  0
  -17.2832    0.7175  -15.1183 C   0  0  0  0  0  0  0  0  0  0  0  0
  -16.5976    1.8865  -15.4861 C   0  0  0  0  0  0  0  0  0  0  0  0
  -20.6592    2.0018  -14.2644 N   0  0  0  0  0  0  0  0  0  0  0  0
  -21.5492    0.9360  -14.2931 C   0  0  0  0  0  0  0  0  0  0  0  0
  -21.2989   -0.1870  -14.7238 O   0  0  0  0  0  0  0  0  0  0  0  0
  -22.8106    1.2867  -13.8338 N   0  0  0  0  0  0  0  0  0  0  0  0
  -21.0040    2.8851  -13.9195 H   0  0  0  0  0  0  0  0  0  0  0  0
  -23.1003    2.2207  -14.0836 H   0  0  0  0  0  0  0  0  0  0  0  0
  -23.8359    0.3093  -13.7930 C   0  0  0  0  0  0  0  0  0  0  0  0
  -24.1966   -0.3393  -14.9738 C   0  0  0  0  0  0  0  0  0  0  0  0
  -25.1355   -1.3719  -14.9409 C   0  0  0  0  0  0  0  0  0  0  0  0
  -25.7571   -1.7223  -13.7412 C   0  0  0  0  0  0  0  0  0  0  0  0
  -25.4432   -1.0464  -12.5532 C   0  0  0  0  0  0  0  0  0  0  0  0
  -24.4654   -0.0396  -12.5899 C   0  0  0  0  0  0  0  0  0  0  0  0
  -26.1356   -1.3818  -11.2557 C   0  0  0  0  0  0  0  0  0  0  0  0
  -27.3119   -0.7133  -11.0816 F   0  0  0  0  0  0  0  0  0  0  0  0
  -26.4399   -2.7028  -11.1362 F   0  0  0  0  0  0  0  0  0  0  0  0
  -25.3754   -1.0716  -10.1676 F   0  0  0  0  0  0  0  0  0  0  0  0
  -15.2384    1.8853  -15.7656 O   0  0  0  0  0  0  0  0  0  0  0  0
  -14.3885    1.1778  -14.9255 C   0  0  0  0  0  0  0  0  0  0  0  0
  -13.2004    1.7097  -14.4350 C   0  0  0  0  0  0  0  0  0  0  0  0
  -12.4708    0.9479  -13.5494 C   0  0  0  0  0  0  0  0  0  0  0  0
  -12.8180   -0.3008  -13.1908 N   0  0  0  0  0  0  0  0  0  0  0  0
  -13.9187   -0.8543  -13.7217 C   0  0  0  0  0  0  0  0  0  0  0  0
  -14.7381   -0.1412  -14.5982 C   0  0  0  0  0  0  0  0  0  0  0  0
  -14.2448   -2.1817  -13.3807 N   0  0  0  0  0  0  0  0  0  0  0  0
  -15.0410   -2.5124  -12.3006 C   0  0  0  0  0  0  0  0  0  0  0  0
  -15.5992   -1.7571  -11.5189 O   0  0  0  0  0  0  0  0  0  0  0  0
  -13.8571   -2.9204  -13.9456 H   0  0  0  0  0  0  0  0  0  0  0  0
  -15.2434   -3.9940  -12.1041 C   0  0  0  0  0  0  0  0  0  0  0  0
  -16.2829   -4.7196  -12.9376 C   0  0  0  0  0  0  0  0  0  0  0  0
  -16.5351   -4.4858  -11.4767 C   0  0  0  0  0  0  0  0  0  0  0  0
  1  2  1  0  0  0
  2  3  1  0  0  0
  2  7  2  0  0  0
  3  4  2  0  0  0
  4  8  1  0  0  0
  4  5  1  0  0  0
  8  9  1  0  0  0
  8 12  1  0  0  0
  9 10  2  0  0  0
  9 11  1  0  0  0
 11 14  1  0  0  0
 11 13  1  0  0  0
 14 15  1  0  0  0
 14 19  2  0  0  0
 15 16  2  0  0  0
 16 17  1  0  0  0
 17 18  2  0  0  0
 18 20  1  0  0  0
 18 19  1  0  0  0
 20 21  1  0  0  0
 20 22  1  0  0  0
 20 23  1  0  0  0
  5  6  2  0  0  0
  6  7  1  0  0  0
  7 24  1  0  0  0
 24 25  1  0  0  0
 25 26  1  0  0  0
 25 30  2  0  0  0
 26 27  2  0  0  0
 27 28  1  0  0  0
 28 29  2  0  0  0
 29 31  1  0  0  0
 29 30  1  0  0  0
 31 32  1  0  0  0
 31 34  1  0  0  0
 32 33  2  0  0  0
 32 35  1  0  0  0
 35 36  1  0  0  0
 35 37  1  0  0  0
 36 37  1  0  0  0
M  END
> <minimizedAffinity>
-9.91776

$$$$
