CHEMBL3938078


 38 41  0  0  0  0  0  0  0  0999 V2000
  -28.8066   -7.2778   -5.0599 C   0  0  0  0  0  0  0  0  0  0  0  0
  -29.4449   -7.3414   -3.8146 C   0  0  0  0  0  0  0  0  0  0  0  0
  -30.4354   -6.4239   -3.4678 C   0  0  0  0  0  0  0  0  0  0  0  0
  -30.7795   -5.4150   -4.3536 C   0  0  0  0  0  0  0  0  0  0  0  0
  -31.8266   -4.6377   -4.0408 F   0  0  0  0  0  0  0  0  0  0  0  0
  -30.0785   -5.2500   -5.5519 C   0  0  0  0  0  0  0  0  0  0  0  0
  -29.0936   -6.1921   -5.9049 C   0  0  0  0  0  0  0  0  0  0  0  0
  -26.2654   -8.0344   -3.9374 O   0  0  0  0  0  0  0  0  0  0  0  0
  -26.7162   -8.6224   -4.9135 C   0  0  0  0  0  0  0  0  0  0  0  0
  -27.9241   -8.2945   -5.5227 N   0  0  0  0  0  0  0  0  0  0  0  0
  -26.0964   -9.7133   -5.5075 N   0  0  0  0  0  0  0  0  0  0  0  0
  -28.3136   -8.9718   -6.1604 H   0  0  0  0  0  0  0  0  0  0  0  0
  -26.4645  -10.0248   -6.3933 H   0  0  0  0  0  0  0  0  0  0  0  0
  -24.9146  -10.3494   -5.0420 C   0  0  0  0  0  0  0  0  0  0  0  0
  -24.7449  -10.8121   -3.7367 C   0  0  0  0  0  0  0  0  0  0  0  0
  -23.5505  -11.4131   -3.3325 C   0  0  0  0  0  0  0  0  0  0  0  0
  -22.4975  -11.5819   -4.2309 C   0  0  0  0  0  0  0  0  0  0  0  0
  -21.0730  -12.3257   -3.6071 Cl  0  0  0  0  0  0  0  0  0  0  0  0
  -22.6376  -11.1545   -5.5537 C   0  0  0  0  0  0  0  0  0  0  0  0
  -23.8580  -10.5369   -5.9426 C   0  0  0  0  0  0  0  0  0  0  0  0
  -21.5764  -11.3194   -6.6102 C   0  0  0  0  0  0  0  0  0  0  0  0
  -20.6566  -10.3273   -6.7165 F   0  0  0  0  0  0  0  0  0  0  0  0
  -20.8585  -12.4648   -6.4228 F   0  0  0  0  0  0  0  0  0  0  0  0
  -22.1236  -11.4398   -7.8551 F   0  0  0  0  0  0  0  0  0  0  0  0
  -30.3721   -4.2770   -6.4891 O   0  0  0  0  0  0  0  0  0  0  0  0
  -29.3700   -3.3731   -6.8408 C   0  0  0  0  0  0  0  0  0  0  0  0
  -28.8250   -3.5009   -8.1049 C   0  0  0  0  0  0  0  0  0  0  0  0
  -27.8196   -2.6109   -8.4247 C   0  0  0  0  0  0  0  0  0  0  0  0
  -27.4399   -1.6525   -7.5712 N   0  0  0  0  0  0  0  0  0  0  0  0
  -28.0223   -1.6223   -6.3701 C   0  0  0  0  0  0  0  0  0  0  0  0
  -28.9463   -2.4779   -5.9337 N   0  0  0  0  0  0  0  0  0  0  0  0
  -27.1625   -2.7348   -9.6655 N   0  0  0  0  0  0  0  0  0  0  0  0
  -27.3037   -1.8260  -10.6985 C   0  0  0  0  0  0  0  0  0  0  0  0
  -28.0274   -0.8418  -10.7210 O   0  0  0  0  0  0  0  0  0  0  0  0
  -26.5040   -3.4869   -9.7738 H   0  0  0  0  0  0  0  0  0  0  0  0
  -26.4553   -2.0465  -11.9123 C   0  0  0  0  0  0  0  0  0  0  0  0
  -25.9917   -1.0116  -12.9013 C   0  0  0  0  0  0  0  0  0  0  0  0
  -27.0902   -1.9603  -13.2819 C   0  0  0  0  0  0  0  0  0  0  0  0
  8  9  2  0  0  0
  9 10  1  0  0  0
  9 11  1  0  0  0
 10  1  1  0  0  0
 10 12  1  0  0  0
  1  2  1  0  0  0
  1  7  2  0  0  0
  2  3  2  0  0  0
  3  4  1  0  0  0
  4  5  1  0  0  0
  4  6  2  0  0  0
  6 25  1  0  0  0
  6  7  1  0  0  0
 25 26  1  0  0  0
 26 27  1  0  0  0
 26 31  2  0  0  0
 27 28  2  0  0  0
 28 32  1  0  0  0
 28 29  1  0  0  0
 32 33  1  0  0  0
 32 35  1  0  0  0
 33 34  2  0  0  0
 33 36  1  0  0  0
 36 37  1  0  0  0
 36 38  1  0  0  0
 37 38  1  0  0  0
 29 30  2  0  0  0
 30 31  1  0  0  0
 11 14  1  0  0  0
 11 13  1  0  0  0
 14 15  1  0  0  0
 14 20  2  0  0  0
 15 16  2  0  0  0
 16 17  1  0  0  0
 17 18  1  0  0  0
 17 19  2  0  0  0
 19 21  1  0  0  0
 19 20  1  0  0  0
 21 22  1  0  0  0
 21 23  1  0  0  0
 21 24  1  0  0  0
M  END
> <minimizedAffinity>
-10.53622

$$$$
