CHEMBL188025


 45 48  0  0  0  0  0  0  0  0999 V2000
  -17.9548    2.4170  -15.3534 C   0  0  0  0  0  0  0  0  0  0  0  0
  -18.9607    3.3791  -15.2822 C   0  0  0  0  0  0  0  0  0  0  0  0
  -20.3015    3.0095  -15.1722 C   0  0  0  0  0  0  0  0  0  0  0  0
  -20.6849    1.6665  -15.1387 C   0  0  0  0  0  0  0  0  0  0  0  0
  -19.6903    0.6926  -15.2094 C   0  0  0  0  0  0  0  0  0  0  0  0
  -18.3428    1.0671  -15.3081 C   0  0  0  0  0  0  0  0  0  0  0  0
  -22.0286    1.2491  -15.0123 N   0  0  0  0  0  0  0  0  0  0  0  0
  -22.5515    0.5584  -13.9384 C   0  0  0  0  0  0  0  0  0  0  0  0
  -21.9407    0.2986  -12.9041 O   0  0  0  0  0  0  0  0  0  0  0  0
  -23.8568    0.1438  -14.1595 N   0  0  0  0  0  0  0  0  0  0  0  0
  -22.6849    1.5766  -15.7064 H   0  0  0  0  0  0  0  0  0  0  0  0
  -24.0532   -0.1279  -15.1125 H   0  0  0  0  0  0  0  0  0  0  0  0
  -24.5320   -0.5740  -13.1452 C   0  0  0  0  0  0  0  0  0  0  0  0
  -25.5267   -1.5072  -13.4631 C   0  0  0  0  0  0  0  0  0  0  0  0
  -26.2675   -2.1340  -12.4596 C   0  0  0  0  0  0  0  0  0  0  0  0
  -25.9899   -1.8636  -11.1244 C   0  0  0  0  0  0  0  0  0  0  0  0
  -25.0030   -0.9216  -10.8079 C   0  0  0  0  0  0  0  0  0  0  0  0
  -24.2543   -0.2970  -11.8099 C   0  0  0  0  0  0  0  0  0  0  0  0
  -26.6343   -2.3992  -10.0531 O   0  0  0  0  0  0  0  0  0  0  0  0
  -27.7532   -1.7172   -9.5028 C   0  0  0  0  0  0  0  0  0  0  0  0
  -28.3366   -0.8341  -10.3401 F   0  0  0  0  0  0  0  0  0  0  0  0
  -28.6868   -2.6381   -9.1695 F   0  0  0  0  0  0  0  0  0  0  0  0
  -27.3799   -1.0725   -8.3767 F   0  0  0  0  0  0  0  0  0  0  0  0
  -16.2899    4.1451  -15.8789 C   0  0  0  0  0  0  0  0  0  0  0  0
  -16.6014    2.7651  -15.4867 N   0  0  0  0  0  0  0  0  0  0  0  0
  -15.5239    1.8713  -15.7111 C   0  0  0  0  0  0  0  0  0  0  0  0
  -14.9523    1.7237  -16.9579 C   0  0  0  0  0  0  0  0  0  0  0  0
  -13.8802    0.8706  -17.0566 C   0  0  0  0  0  0  0  0  0  0  0  0
  -13.3695    0.1863  -16.0199 N   0  0  0  0  0  0  0  0  0  0  0  0
  -13.9974    0.3478  -14.8522 C   0  0  0  0  0  0  0  0  0  0  0  0
  -15.0389    1.1740  -14.6719 N   0  0  0  0  0  0  0  0  0  0  0  0
  -13.5210   -0.3691  -13.7593 N   0  0  0  0  0  0  0  0  0  0  0  0
  -12.5818   -0.1038  -13.5050 H   0  0  0  0  0  0  0  0  0  0  0  0
  -14.0207   -1.5793  -13.2610 C   0  0  0  0  0  0  0  0  0  0  0  0
  -13.2041   -2.7183  -13.1656 C   0  0  0  0  0  0  0  0  0  0  0  0
  -13.7305   -3.9529  -12.7877 C   0  0  0  0  0  0  0  0  0  0  0  0
  -15.0882   -4.0549  -12.5096 C   0  0  0  0  0  0  0  0  0  0  0  0
  -15.9212   -2.9281  -12.5805 C   0  0  0  0  0  0  0  0  0  0  0  0
  -15.3769   -1.6959  -12.9441 C   0  0  0  0  0  0  0  0  0  0  0  0
  -15.7708   -5.6288  -12.1003 S   0  0  0  0  0  0  0  0  0  0  0  0
  -16.2711   -6.1625  -13.6129 N   0  0  0  0  0  0  0  0  0  0  0  0
  -14.7092   -6.5231  -11.6942 O   0  0  0  0  0  0  0  0  0  0  0  0
  -16.9791   -5.4510  -11.3270 O   0  0  0  0  0  0  0  0  0  0  0  0
  -15.7611   -7.0062  -13.8689 H   0  0  0  0  0  0  0  0  0  0  0  0
  -17.2857   -6.2547  -13.6298 H   0  0  0  0  0  0  0  0  0  0  0  0
 24 25  1  0  0  0
 25  1  1  0  0  0
 25 26  1  0  0  0
  1  2  1  0  0  0
  1  6  2  0  0  0
  2  3  2  0  0  0
  3  4  1  0  0  0
  4  7  1  0  0  0
  4  5  2  0  0  0
  7  8  1  0  0  0
  7 11  1  0  0  0
  8  9  2  0  0  0
  8 10  1  0  0  0
 10 13  1  0  0  0
 10 12  1  0  0  0
 13 14  1  0  0  0
 13 18  2  0  0  0
 14 15  2  0  0  0
 15 16  1  0  0  0
 16 19  1  0  0  0
 16 17  2  0  0  0
 19 20  1  0  0  0
 20 21  1  0  0  0
 20 22  1  0  0  0
 20 23  1  0  0  0
 17 18  1  0  0  0
  5  6  1  0  0  0
 26 27  1  0  0  0
 26 31  2  0  0  0
 27 28  2  0  0  0
 28 29  1  0  0  0
 29 30  2  0  0  0
 30 32  1  0  0  0
 30 31  1  0  0  0
 32 34  1  0  0  0
 32 33  1  0  0  0
 34 35  1  0  0  0
 34 39  2  0  0  0
 35 36  2  0  0  0
 36 37  1  0  0  0
 37 40  1  0  0  0
 37 38  2  0  0  0
 40 41  1  0  0  0
 40 42  2  0  0  0
 40 43  2  0  0  0
 41 44  1  0  0  0
 41 45  1  0  0  0
 38 39  1  0  0  0
M  END
> <minimizedAffinity>
-10.54961

$$$$
