CHEMBL258240


 38 42  0  0  0  0  0  0  0  0999 V2000
  -28.6516   -6.8358   -5.6383 C   0  0  0  0  0  0  0  0  0  0  0  0
  -28.5525   -7.0417   -7.0144 C   0  0  0  0  0  0  0  0  0  0  0  0
  -28.6468   -5.9584   -7.8834 C   0  0  0  0  0  0  0  0  0  0  0  0
  -28.7329   -4.6511   -7.3896 C   0  0  0  0  0  0  0  0  0  0  0  0
  -28.7780   -4.4423   -6.0141 C   0  0  0  0  0  0  0  0  0  0  0  0
  -28.7277   -5.5326   -5.1503 C   0  0  0  0  0  0  0  0  0  0  0  0
  -28.7724   -5.3100   -3.8275 F   0  0  0  0  0  0  0  0  0  0  0  0
  -28.7864   -3.6304   -8.3568 N   0  0  0  0  0  0  0  0  0  0  0  0
  -29.4635   -3.8000   -9.1046 H   0  0  0  0  0  0  0  0  0  0  0  0
  -28.0054   -2.5232   -8.5701 C   0  0  0  0  0  0  0  0  0  0  0  0
  -27.7024   -1.2311   -7.5564 S   0  0  0  0  0  0  0  0  0  0  0  0
  -27.3222   -2.5314   -9.7761 N   0  0  0  0  0  0  0  0  0  0  0  0
  -27.5353   -1.7304  -10.8871 C   0  0  0  0  0  0  0  0  0  0  0  0
  -28.3493   -0.7990  -10.9011 O   0  0  0  0  0  0  0  0  0  0  0  0
  -26.6235   -3.2619   -9.8401 H   0  0  0  0  0  0  0  0  0  0  0  0
  -26.7048   -2.0776  -12.1022 C   0  0  0  0  0  0  0  0  0  0  0  0
  -25.3374   -1.4546  -12.0299 C   0  0  0  0  0  0  0  0  0  0  0  0
  -25.1903   -0.0626  -12.0183 C   0  0  0  0  0  0  0  0  0  0  0  0
  -23.9198    0.5093  -12.0741 C   0  0  0  0  0  0  0  0  0  0  0  0
  -22.7889   -0.3034  -12.1336 C   0  0  0  0  0  0  0  0  0  0  0  0
  -22.9241   -1.6897  -12.1118 C   0  0  0  0  0  0  0  0  0  0  0  0
  -24.1932   -2.2649  -12.0586 C   0  0  0  0  0  0  0  0  0  0  0  0
  -28.6628   -7.8462   -4.7094 O   0  0  0  0  0  0  0  0  0  0  0  0
  -25.2020  -10.8359   -4.3055 C   0  0  0  0  0  0  0  0  0  0  0  0
  -26.0011  -11.7299   -4.9938 C   0  0  0  0  0  0  0  0  0  0  0  0
  -27.2761  -11.1837   -5.3311 C   0  0  0  0  0  0  0  0  0  0  0  0
  -28.2815  -11.8445   -5.9676 N   0  0  0  0  0  0  0  0  0  0  0  0
  -29.4240  -11.1501   -6.1324 C   0  0  0  0  0  0  0  0  0  0  0  0
  -29.6368   -9.8491   -5.7183 C   0  0  0  0  0  0  0  0  0  0  0  0
  -28.5817   -9.1522   -5.1372 C   0  0  0  0  0  0  0  0  0  0  0  0
  -27.3933   -9.8591   -4.9215 C   0  0  0  0  0  0  0  0  0  0  0  0
  -25.9488   -9.3054   -4.2022 S   0  0  0  0  0  0  0  0  0  0  0  0
  -22.5125  -10.7786   -5.9213 C   0  0  0  0  0  0  0  0  0  0  0  0
  -22.7040  -11.0981   -4.5254 N   0  0  0  0  0  0  0  0  0  0  0  0
  -21.6919  -11.4436   -3.6725 C   0  0  0  0  0  0  0  0  0  0  0  0
  -22.2850  -11.5701   -2.4412 C   0  0  0  0  0  0  0  0  0  0  0  0
  -23.6268  -11.3097   -2.5255 N   0  0  0  0  0  0  0  0  0  0  0  0
  -23.8762  -11.0718   -3.7999 C   0  0  0  0  0  0  0  0  0  0  0  0
 33 34  1  0  0  0
 34 35  1  0  0  0
 34 38  1  0  0  0
 35 36  2  0  0  0
 36 37  1  0  0  0
 37 38  2  0  0  0
 38 24  1  0  0  0
 24 25  2  0  0  0
 24 32  1  0  0  0
 25 26  1  0  0  0
 26 27  1  0  0  0
 26 31  2  0  0  0
 27 28  2  0  0  0
 28 29  1  0  0  0
 29 30  2  0  0  0
 30 23  1  0  0  0
 30 31  1  0  0  0
 23  1  1  0  0  0
  1  2  1  0  0  0
  1  6  2  0  0  0
  2  3  2  0  0  0
  3  4  1  0  0  0
  4  8  1  0  0  0
  4  5  2  0  0  0
  8 10  1  0  0  0
  8  9  1  0  0  0
 10 11  2  0  0  0
 10 12  1  0  0  0
 12 13  1  0  0  0
 12 15  1  0  0  0
 13 14  2  0  0  0
 13 16  1  0  0  0
 16 17  1  0  0  0
 17 18  1  0  0  0
 17 22  2  0  0  0
 18 19  2  0  0  0
 19 20  1  0  0  0
 20 21  2  0  0  0
 21 22  1  0  0  0
  5  6  1  0  0  0
  6  7  1  0  0  0
 31 32  1  0  0  0
M  END
> <minimizedAffinity>
-9.67149

$$$$
