CHEMBL258081


 35 39  0  0  0  0  0  0  0  0999 V2000
  -32.2396   -8.4621   -6.7968 N   0  0  0  0  0  0  0  0  0  0  0  0
  -31.5003   -9.5301   -7.2442 C   0  0  0  0  0  0  0  0  0  0  0  0
  -32.1709  -10.3936   -8.0335 N   0  0  0  0  0  0  0  0  0  0  0  0
  -31.5396  -11.4872   -8.4880 C   0  0  0  0  0  0  0  0  0  0  0  0
  -30.2782  -11.8545   -8.2578 N   0  0  0  0  0  0  0  0  0  0  0  0
  -29.6387  -10.9589   -7.4953 C   0  0  0  0  0  0  0  0  0  0  0  0
  -28.3374  -11.1172   -7.1434 O   0  0  0  0  0  0  0  0  0  0  0  0
  -27.9633  -10.0313   -6.4092 C   0  0  0  0  0  0  0  0  0  0  0  0
  -29.0525   -9.1725   -6.2510 C   0  0  0  0  0  0  0  0  0  0  0  0
  -30.1471   -9.7815   -6.9619 C   0  0  0  0  0  0  0  0  0  0  0  0
  -33.1450   -8.3487   -7.2320 H   0  0  0  0  0  0  0  0  0  0  0  0
  -31.8646   -7.7254   -6.2274 H   0  0  0  0  0  0  0  0  0  0  0  0
  -26.5539  -10.0327   -6.0114 C   0  0  0  0  0  0  0  0  0  0  0  0
  -26.1371   -9.5691   -4.7586 C   0  0  0  0  0  0  0  0  0  0  0  0
  -24.7782   -9.5463   -4.4354 C   0  0  0  0  0  0  0  0  0  0  0  0
  -23.8670   -9.9846   -5.3813 C   0  0  0  0  0  0  0  0  0  0  0  0
  -24.2214  -10.4500   -6.5954 N   0  0  0  0  0  0  0  0  0  0  0  0
  -25.5497  -10.4776   -6.8699 C   0  0  0  0  0  0  0  0  0  0  0  0
  -29.0030   -7.9250   -5.4959 C   0  0  0  0  0  0  0  0  0  0  0  0
  -28.4526   -6.7630   -6.0548 C   0  0  0  0  0  0  0  0  0  0  0  0
  -28.4646   -5.5512   -5.3520 C   0  0  0  0  0  0  0  0  0  0  0  0
  -28.9157   -5.5270   -4.0371 C   0  0  0  0  0  0  0  0  0  0  0  0
  -29.3879   -6.6932   -3.4449 C   0  0  0  0  0  0  0  0  0  0  0  0
  -29.4872   -7.8674   -4.1842 C   0  0  0  0  0  0  0  0  0  0  0  0
  -28.9617   -4.3203   -3.2941 N   0  0  0  0  0  0  0  0  0  0  0  0
  -28.0898   -3.8769   -3.0080 H   0  0  0  0  0  0  0  0  0  0  0  0
  -30.1871   -3.2016   -3.6507 S   0  0  0  0  0  0  0  0  0  0  0  0
  -31.0649   -3.8520   -4.5991 O   0  0  0  0  0  0  0  0  0  0  0  0
  -30.6915   -2.6755   -2.4005 O   0  0  0  0  0  0  0  0  0  0  0  0
  -29.3127   -1.9263   -4.5144 C   0  0  0  0  0  0  0  0  0  0  0  0
  -27.9134   -1.9430   -4.5275 C   0  0  0  0  0  0  0  0  0  0  0  0
  -27.2216   -0.8686   -5.0872 C   0  0  0  0  0  0  0  0  0  0  0  0
  -27.9252    0.1985   -5.6498 C   0  0  0  0  0  0  0  0  0  0  0  0
  -29.3216    0.1949   -5.6609 C   0  0  0  0  0  0  0  0  0  0  0  0
  -30.0222   -0.8689   -5.0916 C   0  0  0  0  0  0  0  0  0  0  0  0
  1  2  1  0  0  0
  1 11  1  0  0  0
  1 12  1  0  0  0
  2  3  1  0  0  0
  2 10  2  0  0  0
  3  4  2  0  0  0
  4  5  1  0  0  0
  5  6  2  0  0  0
  6  7  1  0  0  0
  6 10  1  0  0  0
  7  8  1  0  0  0
  8 13  1  0  0  0
  8  9  2  0  0  0
 13 14  1  0  0  0
 13 18  2  0  0  0
 14 15  2  0  0  0
 15 16  1  0  0  0
 16 17  2  0  0  0
 17 18  1  0  0  0
  9 19  1  0  0  0
  9 10  1  0  0  0
 19 20  1  0  0  0
 19 24  2  0  0  0
 20 21  2  0  0  0
 21 22  1  0  0  0
 22 25  1  0  0  0
 22 23  2  0  0  0
 25 27  1  0  0  0
 25 26  1  0  0  0
 27 28  2  0  0  0
 27 29  2  0  0  0
 27 30  1  0  0  0
 30 31  1  0  0  0
 30 35  2  0  0  0
 31 32  2  0  0  0
 32 33  1  0  0  0
 33 34  2  0  0  0
 34 35  1  0  0  0
 23 24  1  0  0  0
M  END
> <minimizedAffinity>
-9.43755

$$$$
