CHEMBL3742060


 36 41  0  0  0  0  0  0  0  0999 V2000
  -27.8823  -10.3533   -8.3121 C   0  0  0  0  0  0  0  0  0  0  0  0
  -27.3513  -10.4926   -9.5929 C   0  0  0  0  0  0  0  0  0  0  0  0
  -27.8890  -10.2800  -10.9677 C   0  0  0  0  0  0  0  0  0  0  0  0
  -26.0476  -10.8853   -9.4565 N   0  0  0  0  0  0  0  0  0  0  0  0
  -25.6745  -10.9819   -8.1378 C   0  0  0  0  0  0  0  0  0  0  0  0
  -26.8069  -10.6664   -7.3704 C   0  0  0  0  0  0  0  0  0  0  0  0
  -25.4128  -11.0435  -10.2299 H   0  0  0  0  0  0  0  0  0  0  0  0
  -29.7870   -6.4333   -7.4671 N   0  0  0  0  0  0  0  0  0  0  0  0
  -28.9790   -7.4193   -7.9813 C   0  0  0  0  0  0  0  0  0  0  0  0
  -29.6879   -8.5807   -7.8585 C   0  0  0  0  0  0  0  0  0  0  0  0
  -29.2392   -9.8917   -8.0564 C   0  0  0  0  0  0  0  0  0  0  0  0
  -30.2380  -10.7898   -7.8451 N   0  0  0  0  0  0  0  0  0  0  0  0
  -31.6262  -10.4415   -7.5797 N   0  0  0  0  0  0  0  0  0  0  0  0
  -32.0674   -9.1598   -7.4206 C   0  0  0  0  0  0  0  0  0  0  0  0
  -33.5163   -8.9159   -7.1953 C   0  0  0  0  0  0  0  0  0  0  0  0
  -31.0353   -8.1939   -7.5058 C   0  0  0  0  0  0  0  0  0  0  0  0
  -31.0683   -6.8629   -7.2960 N   0  0  0  0  0  0  0  0  0  0  0  0
  -28.3988   -1.0385   -6.1361 C   0  0  0  0  0  0  0  0  0  0  0  0
  -28.7166   -2.4671   -6.4689 C   0  0  0  0  0  0  0  0  0  0  0  0
  -28.2985   -3.0204   -7.6823 C   0  0  0  0  0  0  0  0  0  0  0  0
  -28.6274   -4.3385   -8.0043 C   0  0  0  0  0  0  0  0  0  0  0  0
  -29.3942   -5.1089   -7.1198 C   0  0  0  0  0  0  0  0  0  0  0  0
  -29.7698   -4.5719   -5.8832 C   0  0  0  0  0  0  0  0  0  0  0  0
  -29.4312   -3.2554   -5.5581 C   0  0  0  0  0  0  0  0  0  0  0  0
  -24.2984  -11.3818   -7.7864 C   0  0  0  0  0  0  0  0  0  0  0  0
  -23.5762  -12.2585   -8.6060 C   0  0  0  0  0  0  0  0  0  0  0  0
  -22.2095  -12.4639   -8.4075 C   0  0  0  0  0  0  0  0  0  0  0  0
  -21.5638  -11.8601   -7.3328 C   0  0  0  0  0  0  0  0  0  0  0  0
  -22.2890  -11.0663   -6.4474 C   0  0  0  0  0  0  0  0  0  0  0  0
  -23.6468  -10.8206   -6.6768 C   0  0  0  0  0  0  0  0  0  0  0  0
  -26.8120  -10.6719   -5.8849 C   0  0  0  0  0  0  0  0  0  0  0  0
  -26.7131   -9.4854   -5.1483 C   0  0  0  0  0  0  0  0  0  0  0  0
  -26.6705   -9.4748   -3.7497 C   0  0  0  0  0  0  0  0  0  0  0  0
  -26.6127  -10.6704   -3.0504 C   0  0  0  0  0  0  0  0  0  0  0  0
  -26.6717  -11.8693   -3.7509 C   0  0  0  0  0  0  0  0  0  0  0  0
  -26.8344  -11.8665   -5.1447 C   0  0  0  0  0  0  0  0  0  0  0  0
 18 19  1  0  0  0
 19 20  1  0  0  0
 19 24  2  0  0  0
 20 21  2  0  0  0
 21 22  1  0  0  0
 22  8  1  0  0  0
 22 23  2  0  0  0
  8  9  1  0  0  0
  8 17  1  0  0  0
  9 10  2  0  0  0
 10 11  1  0  0  0
 10 16  1  0  0  0
 11  1  1  0  0  0
 11 12  2  0  0  0
  1  2  2  0  0  0
  1  6  1  0  0  0
  2  3  1  0  0  0
  2  4  1  0  0  0
  4  5  1  0  0  0
  4  7  1  0  0  0
  5 25  1  0  0  0
  5  6  2  0  0  0
 25 26  1  0  0  0
 25 30  2  0  0  0
 26 27  2  0  0  0
 27 28  1  0  0  0
 28 29  2  0  0  0
 29 30  1  0  0  0
  6 31  1  0  0  0
 31 32  1  0  0  0
 31 36  2  0  0  0
 32 33  2  0  0  0
 33 34  1  0  0  0
 34 35  2  0  0  0
 35 36  1  0  0  0
 12 13  1  0  0  0
 13 14  2  0  0  0
 14 15  1  0  0  0
 14 16  1  0  0  0
 16 17  2  0  0  0
 23 24  1  0  0  0
M  END
> <minimizedAffinity>
-9.23038

$$$$
