CHEMBL1940864


 22 24  0  0  0  0  0  0  0  0999 V2000
  -17.5163    2.7677  -15.4993 C   0  0  0  0  0  0  0  0  0  0  0  0
  -16.9688    3.8445  -16.2071 C   0  0  0  0  0  0  0  0  0  0  0  0
  -15.7653    3.6988  -16.9296 C   0  0  0  0  0  0  0  0  0  0  0  0
  -15.1959    4.7641  -17.6512 C   0  0  0  0  0  0  0  0  0  0  0  0
  -14.0032    4.5891  -18.3504 C   0  0  0  0  0  0  0  0  0  0  0  0
  -13.3676    3.3528  -18.3329 C   0  0  0  0  0  0  0  0  0  0  0  0
  -13.9247    2.2826  -17.6172 C   0  0  0  0  0  0  0  0  0  0  0  0
  -13.2215    0.9502  -17.6008 C   0  0  0  0  0  0  0  0  0  0  0  0
  -15.1262    2.4399  -16.9154 C   0  0  0  0  0  0  0  0  0  0  0  0
  -15.6510    1.3966  -16.2530 N   0  0  0  0  0  0  0  0  0  0  0  0
  -16.8100    1.5692  -15.5794 C   0  0  0  0  0  0  0  0  0  0  0  0
  -17.3535    0.1033  -14.8611 Cl  0  0  0  0  0  0  0  0  0  0  0  0
  -19.9229    2.3858  -15.1528 C   0  0  0  0  0  0  0  0  0  0  0  0
  -18.7747    2.9595  -14.7556 C   0  0  0  0  0  0  0  0  0  0  0  0
  -21.2381    2.6226  -14.4652 C   0  0  0  0  0  0  0  0  0  0  0  0
  -21.6227    3.7890  -14.3101 O   0  0  0  0  0  0  0  0  0  0  0  0
  -24.9014   -0.5941  -12.3153 C   0  0  0  0  0  0  0  0  0  0  0  0
  -23.7151   -0.0536  -13.0392 C   0  0  0  0  0  0  0  0  0  0  0  0
  -22.7291   -0.7592  -13.6905 C   0  0  0  0  0  0  0  0  0  0  0  0
  -21.7517    0.0968  -14.2764 C   0  0  0  0  0  0  0  0  0  0  0  0
  -22.0020    1.4409  -14.0546 C   0  0  0  0  0  0  0  0  0  0  0  0
  -23.4464    1.6335  -13.1381 S   0  0  0  0  0  0  0  0  0  0  0  0
 17 18  1  0  0  0
 18 19  2  0  0  0
 18 22  1  0  0  0
 19 20  1  0  0  0
 20 21  2  0  0  0
 21 15  1  0  0  0
 21 22  1  0  0  0
 15 16  2  0  0  0
 15 13  1  0  0  0
 13 14  2  0  0  0
 14  1  1  0  0  0
  1  2  1  0  0  0
  1 11  2  0  0  0
  2  3  2  0  0  0
  3  4  1  0  0  0
  3  9  1  0  0  0
  4  5  2  0  0  0
  5  6  1  0  0  0
  6  7  2  0  0  0
  7  8  1  0  0  0
  7  9  1  0  0  0
  9 10  2  0  0  0
 10 11  1  0  0  0
 11 12  1  0  0  0
M  END
> <minimizedAffinity>
-8.12645

$$$$
