CHEMBL3951686


 32 35  0  0  0  0  0  0  0  0999 V2000
  -15.0072   -2.2889  -12.8921 C   0  0  0  0  0  0  0  0  0  0  0  0
  -13.6199   -2.2785  -13.0798 C   0  0  0  0  0  0  0  0  0  0  0  0
  -12.7745   -2.9134  -12.1655 C   0  0  0  0  0  0  0  0  0  0  0  0
  -13.3111   -3.5823  -11.0611 C   0  0  0  0  0  0  0  0  0  0  0  0
  -14.6951   -3.5439  -10.8451 C   0  0  0  0  0  0  0  0  0  0  0  0
  -15.5399   -2.8768  -11.7435 C   0  0  0  0  0  0  0  0  0  0  0  0
  -12.4299   -4.3953  -10.1963 C   0  0  0  0  0  0  0  0  0  0  0  0
  -12.0488   -3.8756   -9.0060 C   0  0  0  0  0  0  0  0  0  0  0  0
  -11.1641   -4.5889   -8.0933 C   0  0  0  0  0  0  0  0  0  0  0  0
  -10.7134   -5.8041   -8.4448 C   0  0  0  0  0  0  0  0  0  0  0  0
  -11.0926   -6.3577   -9.6638 N   0  0  0  0  0  0  0  0  0  0  0  0
  -10.7362   -7.5598  -10.1854 N   0  0  0  0  0  0  0  0  0  0  0  0
  -11.3137   -7.6882  -11.3747 N   0  0  0  0  0  0  0  0  0  0  0  0
  -12.0408   -6.5650  -11.6111 C   0  0  0  0  0  0  0  0  0  0  0  0
  -12.7303   -6.3980  -12.7462 N   0  0  0  0  0  0  0  0  0  0  0  0
  -11.9353   -5.6933  -10.5566 C   0  0  0  0  0  0  0  0  0  0  0  0
  -12.5391   -7.0227  -13.5225 H   0  0  0  0  0  0  0  0  0  0  0  0
  -13.0405   -5.4759  -13.0404 H   0  0  0  0  0  0  0  0  0  0  0  0
  -17.2119   -0.1113  -14.7861 N   0  0  0  0  0  0  0  0  0  0  0  0
  -16.3608   -0.4681  -13.7503 C   0  0  0  0  0  0  0  0  0  0  0  0
  -15.9842    0.2636  -12.8472 O   0  0  0  0  0  0  0  0  0  0  0  0
  -15.8813   -1.7771  -13.8895 N   0  0  0  0  0  0  0  0  0  0  0  0
  -17.3296   -0.7793  -15.5310 H   0  0  0  0  0  0  0  0  0  0  0  0
  -15.6482   -2.0222  -14.8389 H   0  0  0  0  0  0  0  0  0  0  0  0
  -21.2837    2.6843  -14.3628 C   0  0  0  0  0  0  0  0  0  0  0  0
  -19.8462    2.5362  -14.7727 C   0  0  0  0  0  0  0  0  0  0  0  0
  -19.1816    3.6127  -15.3652 C   0  0  0  0  0  0  0  0  0  0  0  0
  -17.8447    3.4901  -15.7207 C   0  0  0  0  0  0  0  0  0  0  0  0
  -17.1666    2.2925  -15.5057 C   0  0  0  0  0  0  0  0  0  0  0  0
  -15.8543    2.3111  -15.7621 F   0  0  0  0  0  0  0  0  0  0  0  0
  -17.8132    1.1688  -14.9657 C   0  0  0  0  0  0  0  0  0  0  0  0
  -19.1557    1.3196  -14.5740 C   0  0  0  0  0  0  0  0  0  0  0  0
 25 26  1  0  0  0
 26 27  1  0  0  0
 26 32  2  0  0  0
 27 28  2  0  0  0
 28 29  1  0  0  0
 29 30  1  0  0  0
 29 31  2  0  0  0
 31 19  1  0  0  0
 31 32  1  0  0  0
 19 20  1  0  0  0
 19 23  1  0  0  0
 20 21  2  0  0  0
 20 22  1  0  0  0
 22  1  1  0  0  0
 22 24  1  0  0  0
  1  2  1  0  0  0
  1  6  2  0  0  0
  2  3  2  0  0  0
  3  4  1  0  0  0
  4  7  1  0  0  0
  4  5  2  0  0  0
  7  8  2  0  0  0
  7 16  1  0  0  0
  8  9  1  0  0  0
  9 10  2  0  0  0
 10 11  1  0  0  0
 11 12  1  0  0  0
 11 16  1  0  0  0
 12 13  2  0  0  0
 13 14  1  0  0  0
 14 15  1  0  0  0
 14 16  2  0  0  0
 15 17  1  0  0  0
 15 18  1  0  0  0
  5  6  1  0  0  0
M  END
> <minimizedAffinity>
-8.84896

$$$$
