CHEMBL1242848


 26 28  0  0  0  0  0  0  0  0999 V2000
  -28.6284   -0.9242   -6.7063 N   0  0  0  0  0  0  0  0  0  0  0  0
  -28.0601   -0.5500   -7.8722 N   0  0  0  0  0  0  0  0  0  0  0  0
  -27.8118   -1.7079   -8.5151 C   0  0  0  0  0  0  0  0  0  0  0  0
  -28.1812   -2.8342   -7.7076 C   0  0  0  0  0  0  0  0  0  0  0  0
  -28.1420   -4.2362   -7.7539 C   0  0  0  0  0  0  0  0  0  0  0  0
  -27.5733   -4.9950   -8.7683 N   0  0  0  0  0  0  0  0  0  0  0  0
  -28.6729   -4.9367   -6.7295 N   0  0  0  0  0  0  0  0  0  0  0  0
  -29.2056   -4.2634   -5.6931 C   0  0  0  0  0  0  0  0  0  0  0  0
  -29.2674   -2.9383   -5.5194 N   0  0  0  0  0  0  0  0  0  0  0  0
  -28.7340   -2.2801   -6.5648 C   0  0  0  0  0  0  0  0  0  0  0  0
  -26.7611   -4.5767   -9.2045 H   0  0  0  0  0  0  0  0  0  0  0  0
  -27.4574   -5.9556   -8.4628 H   0  0  0  0  0  0  0  0  0  0  0  0
  -27.2460   -1.6831   -9.8703 C   0  0  0  0  0  0  0  0  0  0  0  0
  -28.0771   -1.6115  -10.9977 C   0  0  0  0  0  0  0  0  0  0  0  0
  -27.5446   -1.5939  -12.2933 C   0  0  0  0  0  0  0  0  0  0  0  0
  -26.1675   -1.6411  -12.4900 C   0  0  0  0  0  0  0  0  0  0  0  0
  -25.6222   -1.5067  -13.7816 N   0  0  0  0  0  0  0  0  0  0  0  0
  -25.3430   -1.6005  -11.3591 C   0  0  0  0  0  0  0  0  0  0  0  0
  -23.9911   -1.4483  -11.5152 O   0  0  0  0  0  0  0  0  0  0  0  0
  -25.8589   -1.6595  -10.0661 C   0  0  0  0  0  0  0  0  0  0  0  0
  -26.2860   -1.7590  -14.5100 H   0  0  0  0  0  0  0  0  0  0  0  0
  -24.7627   -2.0412  -13.8889 H   0  0  0  0  0  0  0  0  0  0  0  0
  -23.8987   -0.9754  -12.3635 H   0  0  0  0  0  0  0  0  0  0  0  0
  -27.8855    0.4495   -4.7927 C   0  0  0  0  0  0  0  0  0  0  0  0
  -29.0358    0.0830   -5.7303 C   0  0  0  0  0  0  0  0  0  0  0  0
  -29.6198    1.3247   -6.4037 C   0  0  0  0  0  0  0  0  0  0  0  0
 24 25  1  0  0  0
 25 26  1  0  0  0
 25  1  1  0  0  0
  1  2  1  0  0  0
  1 10  1  0  0  0
  2  3  2  0  0  0
  3 13  1  0  0  0
  3  4  1  0  0  0
 13 14  1  0  0  0
 13 20  2  0  0  0
 14 15  2  0  0  0
 15 16  1  0  0  0
 16 17  1  0  0  0
 16 18  2  0  0  0
 17 21  1  0  0  0
 17 22  1  0  0  0
 18 19  1  0  0  0
 18 20  1  0  0  0
 19 23  1  0  0  0
  4  5  1  0  0  0
  4 10  2  0  0  0
  5  6  1  0  0  0
  5  7  2  0  0  0
  6 11  1  0  0  0
  6 12  1  0  0  0
  7  8  1  0  0  0
  8  9  2  0  0  0
  9 10  1  0  0  0
M  END
> <minimizedAffinity>
-7.68099

$$$$
