CHEMBL4071242


 42 49  0  0  0  0  0  0  0  0999 V2000
  -27.9535   -0.4465   -6.9064 N   0  0  0  0  0  0  0  0  0  0  0  0
  -27.7363   -1.3854   -7.8447 C   0  0  0  0  0  0  0  0  0  0  0  0
  -27.3171   -1.1540   -9.0618 N   0  0  0  0  0  0  0  0  0  0  0  0
  -27.1968   -2.3966   -9.6158 C   0  0  0  0  0  0  0  0  0  0  0  0
  -27.5394   -3.4027   -8.7988 N   0  0  0  0  0  0  0  0  0  0  0  0
  -27.9146   -2.7591   -7.6571 N   0  0  0  0  0  0  0  0  0  0  0  0
  -27.9555    0.5325   -7.1654 H   0  0  0  0  0  0  0  0  0  0  0  0
  -28.4162   -0.6904   -6.0329 H   0  0  0  0  0  0  0  0  0  0  0  0
  -28.2358   -3.4256   -6.4506 C   0  0  0  0  0  0  0  0  0  0  0  0
  -28.4082   -2.6418   -5.3241 N   0  0  0  0  0  0  0  0  0  0  0  0
  -28.4763   -3.2370   -4.1317 C   0  0  0  0  0  0  0  0  0  0  0  0
  -28.2947   -4.5266   -3.8946 N   0  0  0  0  0  0  0  0  0  0  0  0
  -28.2666   -5.3031   -5.0063 C   0  0  0  0  0  0  0  0  0  0  0  0
  -28.3869   -4.7961   -6.3029 C   0  0  0  0  0  0  0  0  0  0  0  0
  -28.7486   -6.1170   -7.3684 S   0  0  0  0  0  0  0  0  0  0  0  0
  -28.8913   -7.1841   -6.0363 C   0  0  0  0  0  0  0  0  0  0  0  0
  -29.6417   -8.3065   -6.0078 N   0  0  0  0  0  0  0  0  0  0  0  0
  -29.6956   -8.8647   -4.7667 C   0  0  0  0  0  0  0  0  0  0  0  0
  -28.8653   -8.5539   -3.7059 C   0  0  0  0  0  0  0  0  0  0  0  0
  -27.8758   -7.6157   -3.9361 C   0  0  0  0  0  0  0  0  0  0  0  0
  -28.1014   -6.7234   -4.9987 C   0  0  0  0  0  0  0  0  0  0  0  0
  -26.8092   -2.4187  -10.8917 N   0  0  0  0  0  0  0  0  0  0  0  0
  -27.1188   -3.2327  -11.4190 H   0  0  0  0  0  0  0  0  0  0  0  0
  -25.9501   -1.5750  -11.6043 C   0  0  0  0  0  0  0  0  0  0  0  0
  -26.0065   -1.5550  -12.9995 C   0  0  0  0  0  0  0  0  0  0  0  0
  -25.0683   -0.8395  -13.7583 C   0  0  0  0  0  0  0  0  0  0  0  0
  -24.0361   -0.1055  -13.1604 C   0  0  0  0  0  0  0  0  0  0  0  0
  -24.0085   -0.0951  -11.7638 C   0  0  0  0  0  0  0  0  0  0  0  0
  -24.9336   -0.8271  -11.0008 C   0  0  0  0  0  0  0  0  0  0  0  0
  -23.1128    0.5672  -13.9725 N   0  0  0  0  0  0  0  0  0  0  0  0
  -22.6791    1.9135  -13.5609 C   0  0  0  0  0  0  0  0  0  0  0  0
  -21.8679    2.5860  -14.6968 C   0  0  0  0  0  0  0  0  0  0  0  0
  -20.6886    1.8160  -15.1828 N   0  0  0  0  0  0  0  0  0  0  0  0
  -21.1811    0.4659  -15.5548 C   0  0  0  0  0  0  0  0  0  0  0  0
  -22.0007   -0.2807  -14.4704 C   0  0  0  0  0  0  0  0  0  0  0  0
  -19.5934    1.7856  -14.2010 C   0  0  0  0  0  0  0  0  0  0  0  0
  -18.9025    3.1640  -14.0002 C   0  0  0  0  0  0  0  0  0  0  0  0
  -17.4042    2.8447  -14.1465 C   0  0  0  0  0  0  0  0  0  0  0  0
  -17.1020    2.5908  -15.6329 C   0  0  0  0  0  0  0  0  0  0  0  0
  -17.7223    1.2091  -15.8760 C   0  0  0  0  0  0  0  0  0  0  0  0
  -18.3693    0.8734  -14.5201 C   0  0  0  0  0  0  0  0  0  0  0  0
  -17.3194    1.4400  -13.5567 C   0  0  0  0  0  0  0  0  0  0  0  0
  1  2  1  0  0  0
  1  7  1  0  0  0
  1  8  1  0  0  0
  2  3  2  0  0  0
  2  6  1  0  0  0
  3  4  1  0  0  0
  4 22  1  0  0  0
  4  5  2  0  0  0
 22 24  1  0  0  0
 22 23  1  0  0  0
 24 25  1  0  0  0
 24 29  2  0  0  0
 25 26  2  0  0  0
 26 27  1  0  0  0
 27 30  1  0  0  0
 27 28  2  0  0  0
 30 31  1  0  0  0
 30 35  1  0  0  0
 31 32  1  0  0  0
 32 33  1  0  0  0
 33 36  1  0  0  0
 33 34  1  0  0  0
 36 37  1  0  0  0
 36 41  1  0  0  0
 37 38  1  0  0  0
 38 39  1  0  0  0
 38 42  1  0  0  0
 39 40  1  0  0  0
 40 41  1  0  0  0
 41 42  1  0  0  0
 34 35  1  0  0  0
 28 29  1  0  0  0
  5  6  1  0  0  0
  6  9  1  0  0  0
  9 10  1  0  0  0
  9 14  2  0  0  0
 10 11  2  0  0  0
 11 12  1  0  0  0
 12 13  2  0  0  0
 13 14  1  0  0  0
 13 21  1  0  0  0
 14 15  1  0  0  0
 15 16  1  0  0  0
 16 17  1  0  0  0
 16 21  2  0  0  0
 17 18  2  0  0  0
 18 19  1  0  0  0
 19 20  2  0  0  0
 20 21  1  0  0  0
M  END
> <minimizedAffinity>
-9.05189

$$$$
