CHEMBL3892923


 38 41  0  0  0  0  0  0  0  0999 V2000
  -15.7274    0.2836  -14.5860 C   0  0  0  0  0  0  0  0  0  0  0  0
  -16.7492    1.3268  -14.9454 C   0  0  0  0  0  0  0  0  0  0  0  0
  -18.0211    1.2074  -14.3520 C   0  0  0  0  0  0  0  0  0  0  0  0
  -19.0400    2.1394  -14.5745 C   0  0  0  0  0  0  0  0  0  0  0  0
  -18.8137    3.1599  -15.4924 C   0  0  0  0  0  0  0  0  0  0  0  0
  -17.5678    3.2681  -16.1301 C   0  0  0  0  0  0  0  0  0  0  0  0
  -16.5150    2.3843  -15.8359 C   0  0  0  0  0  0  0  0  0  0  0  0
  -20.2881    2.0616  -13.9060 N   0  0  0  0  0  0  0  0  0  0  0  0
  -21.1647    1.0004  -14.0617 C   0  0  0  0  0  0  0  0  0  0  0  0
  -20.9086   -0.0316  -14.6757 O   0  0  0  0  0  0  0  0  0  0  0  0
  -22.4045    1.2427  -13.4788 N   0  0  0  0  0  0  0  0  0  0  0  0
  -20.4026    2.6147  -13.0698 H   0  0  0  0  0  0  0  0  0  0  0  0
  -22.6973    2.2082  -13.5396 H   0  0  0  0  0  0  0  0  0  0  0  0
  -23.4170    0.2586  -13.6136 C   0  0  0  0  0  0  0  0  0  0  0  0
  -23.8432   -0.1620  -14.8777 C   0  0  0  0  0  0  0  0  0  0  0  0
  -24.9348   -1.0099  -14.9931 C   0  0  0  0  0  0  0  0  0  0  0  0
  -25.3543   -1.3922  -16.2059 F   0  0  0  0  0  0  0  0  0  0  0  0
  -25.6235   -1.4430  -13.8661 C   0  0  0  0  0  0  0  0  0  0  0  0
  -25.1948   -1.0493  -12.5895 C   0  0  0  0  0  0  0  0  0  0  0  0
  -24.0601   -0.2236  -12.4694 C   0  0  0  0  0  0  0  0  0  0  0  0
  -25.9869   -1.4579  -11.3680 C   0  0  0  0  0  0  0  0  0  0  0  0
  -27.4621   -1.1122  -11.5147 C   0  0  0  0  0  0  0  0  0  0  0  0
  -25.8983   -2.7975  -11.1215 F   0  0  0  0  0  0  0  0  0  0  0  0
  -25.5286   -0.8510  -10.2339 F   0  0  0  0  0  0  0  0  0  0  0  0
  -15.2856    2.4825  -16.4690 O   0  0  0  0  0  0  0  0  0  0  0  0
  -14.2905    3.2450  -15.8475 C   0  0  0  0  0  0  0  0  0  0  0  0
  -14.1692    4.5761  -16.2108 C   0  0  0  0  0  0  0  0  0  0  0  0
  -13.1613    5.2875  -15.5829 C   0  0  0  0  0  0  0  0  0  0  0  0
  -12.3688    4.7220  -14.6697 N   0  0  0  0  0  0  0  0  0  0  0  0
  -12.5590    3.4293  -14.3997 C   0  0  0  0  0  0  0  0  0  0  0  0
  -13.4770    2.6451  -14.9621 N   0  0  0  0  0  0  0  0  0  0  0  0
  -12.9280    6.6321  -15.9532 N   0  0  0  0  0  0  0  0  0  0  0  0
  -12.2442    7.0045  -17.1011 C   0  0  0  0  0  0  0  0  0  0  0  0
  -11.5742    6.2811  -17.8152 O   0  0  0  0  0  0  0  0  0  0  0  0
  -13.3277    7.3539  -15.3786 H   0  0  0  0  0  0  0  0  0  0  0  0
  -12.3145    8.4500  -17.4900 C   0  0  0  0  0  0  0  0  0  0  0  0
  -13.3003    8.9240  -18.5305 C   0  0  0  0  0  0  0  0  0  0  0  0
  -11.8236    9.0554  -18.7786 C   0  0  0  0  0  0  0  0  0  0  0  0
  1  2  1  0  0  0
  2  3  1  0  0  0
  2  7  2  0  0  0
  3  4  2  0  0  0
  4  8  1  0  0  0
  4  5  1  0  0  0
  8  9  1  0  0  0
  8 12  1  0  0  0
  9 10  2  0  0  0
  9 11  1  0  0  0
 11 14  1  0  0  0
 11 13  1  0  0  0
 14 15  1  0  0  0
 14 20  2  0  0  0
 15 16  2  0  0  0
 16 17  1  0  0  0
 16 18  1  0  0  0
 18 19  2  0  0  0
 19 21  1  0  0  0
 19 20  1  0  0  0
 21 22  1  0  0  0
 21 23  1  0  0  0
 21 24  1  0  0  0
  5  6  2  0  0  0
  6  7  1  0  0  0
  7 25  1  0  0  0
 25 26  1  0  0  0
 26 27  1  0  0  0
 26 31  2  0  0  0
 27 28  2  0  0  0
 28 32  1  0  0  0
 28 29  1  0  0  0
 32 33  1  0  0  0
 32 35  1  0  0  0
 33 34  2  0  0  0
 33 36  1  0  0  0
 36 37  1  0  0  0
 36 38  1  0  0  0
 37 38  1  0  0  0
 29 30  2  0  0  0
 30 31  1  0  0  0
M  END
> <minimizedAffinity>
-8.74537

$$$$
