CHEMBL3965938


 35 38  0  0  0  0  0  0  0  0999 V2000
  -17.5163    2.3610  -15.1688 C   0  0  0  0  0  0  0  0  0  0  0  0
  -18.5973    3.2706  -15.1788 C   0  0  0  0  0  0  0  0  0  0  0  0
  -19.8918    2.9191  -14.8523 C   0  0  0  0  0  0  0  0  0  0  0  0
  -20.8404    3.8582  -14.8832 N   0  0  0  0  0  0  0  0  0  0  0  0
  -22.0669    3.4729  -14.5206 C   0  0  0  0  0  0  0  0  0  0  0  0
  -22.4119    2.2549  -14.0974 N   0  0  0  0  0  0  0  0  0  0  0  0
  -21.4371    1.3273  -14.0557 C   0  0  0  0  0  0  0  0  0  0  0  0
  -20.1362    1.6051  -14.4797 C   0  0  0  0  0  0  0  0  0  0  0  0
  -19.0987    0.6598  -14.5369 C   0  0  0  0  0  0  0  0  0  0  0  0
  -17.7878    1.0171  -14.8750 C   0  0  0  0  0  0  0  0  0  0  0  0
  -21.7246    0.0381  -13.5265 N   0  0  0  0  0  0  0  0  0  0  0  0
  -21.1955   -0.0847  -12.6665 H   0  0  0  0  0  0  0  0  0  0  0  0
  -23.0220   -0.5025  -13.4533 C   0  0  0  0  0  0  0  0  0  0  0  0
  -23.7473   -0.7660  -14.6164 C   0  0  0  0  0  0  0  0  0  0  0  0
  -25.0567   -1.2280  -14.5535 C   0  0  0  0  0  0  0  0  0  0  0  0
  -25.6579   -1.4410  -13.3101 C   0  0  0  0  0  0  0  0  0  0  0  0
  -27.3069   -1.9563  -13.3022 Cl  0  0  0  0  0  0  0  0  0  0  0  0
  -24.9328   -1.2176  -12.1414 C   0  0  0  0  0  0  0  0  0  0  0  0
  -25.6131   -1.4534  -10.5673 Cl  0  0  0  0  0  0  0  0  0  0  0  0
  -23.6058   -0.7629  -12.2121 C   0  0  0  0  0  0  0  0  0  0  0  0
  -16.9974   -0.0924  -14.8340 O   0  0  0  0  0  0  0  0  0  0  0  0
  -15.9920   -0.2855  -13.8685 C   0  0  0  0  0  0  0  0  0  0  0  0
  -16.2344    2.7743  -15.4236 O   0  0  0  0  0  0  0  0  0  0  0  0
  -16.0561    3.9083  -16.3097 C   0  0  0  0  0  0  0  0  0  0  0  0
  -12.9038    4.7835  -16.9815 N   0  0  0  0  0  0  0  0  0  0  0  0
  -13.3029    5.7438  -18.0332 C   0  0  0  0  0  0  0  0  0  0  0  0
  -14.8095    5.8170  -18.3277 C   0  0  0  0  0  0  0  0  0  0  0  0
  -15.3713    4.5274  -18.5978 O   0  0  0  0  0  0  0  0  0  0  0  0
  -15.1408    3.5929  -17.5260 C   0  0  0  0  0  0  0  0  0  0  0  0
  -13.6123    3.5061  -17.2277 C   0  0  0  0  0  0  0  0  0  0  0  0
  -13.0968    5.2379  -15.5974 C   0  0  0  0  0  0  0  0  0  0  0  0
  -11.8004    5.5606  -14.8709 C   0  0  0  0  0  0  0  0  0  0  0  0
  -10.9262    4.6967  -14.7602 O   0  0  0  0  0  0  0  0  0  0  0  0
  -11.8081    8.0118  -15.4387 C   0  0  0  0  0  0  0  0  0  0  0  0
  -11.6153    6.9723  -14.3456 C   0  0  0  0  0  0  0  0  0  0  0  0
 34 35  1  0  0  0
 35 32  1  0  0  0
 32 33  2  0  0  0
 32 31  1  0  0  0
 31 25  1  0  0  0
 25 26  1  0  0  0
 25 30  1  0  0  0
 26 27  1  0  0  0
 27 28  1  0  0  0
 28 29  1  0  0  0
 29 24  1  0  0  0
 29 30  1  0  0  0
 24 23  1  0  0  0
 23  1  1  0  0  0
  1  2  1  0  0  0
  1 10  2  0  0  0
  2  3  2  0  0  0
  3  4  1  0  0  0
  3  8  1  0  0  0
  4  5  2  0  0  0
  5  6  1  0  0  0
  6  7  2  0  0  0
  7 11  1  0  0  0
  7  8  1  0  0  0
 11 13  1  0  0  0
 11 12  1  0  0  0
 13 14  1  0  0  0
 13 20  2  0  0  0
 14 15  2  0  0  0
 15 16  1  0  0  0
 16 17  1  0  0  0
 16 18  2  0  0  0
 18 19  1  0  0  0
 18 20  1  0  0  0
  8  9  2  0  0  0
  9 10  1  0  0  0
 10 21  1  0  0  0
 21 22  1  0  0  0
M  END
> <minimizedAffinity>
-8.15977

$$$$
