CHEMBL1085512


 42 47  0  0  0  0  0  0  0  0999 V2000
  -15.8347   -0.0261  -14.0634 C   0  0  0  0  0  0  0  0  0  0  0  0
  -17.0751    0.5052  -13.6511 C   0  0  0  0  0  0  0  0  0  0  0  0
  -17.3463    1.6966  -14.1823 N   0  0  0  0  0  0  0  0  0  0  0  0
  -16.2533    1.9729  -14.9522 N   0  0  0  0  0  0  0  0  0  0  0  0
  -16.0445    3.1416  -15.7348 C   0  0  0  0  0  0  0  0  0  0  0  0
  -17.0161    4.1375  -15.6606 N   0  0  0  0  0  0  0  0  0  0  0  0
  -14.9296    3.1969  -16.4988 C   0  0  0  0  0  0  0  0  0  0  0  0
  -14.0017    2.0314  -16.3898 C   0  0  0  0  0  0  0  0  0  0  0  0
  -14.1727    0.9697  -15.6677 N   0  0  0  0  0  0  0  0  0  0  0  0
  -15.3231    0.9262  -14.9272 C   0  0  0  0  0  0  0  0  0  0  0  0
  -17.9058    3.7715  -15.3124 H   0  0  0  0  0  0  0  0  0  0  0  0
  -17.0949    4.7211  -16.4872 H   0  0  0  0  0  0  0  0  0  0  0  0
  -13.9948   -3.7860  -13.0224 C   0  0  0  0  0  0  0  0  0  0  0  0
  -15.3621   -3.6786  -13.3123 C   0  0  0  0  0  0  0  0  0  0  0  0
  -15.9600   -2.4585  -13.6553 C   0  0  0  0  0  0  0  0  0  0  0  0
  -15.2017   -1.2898  -13.7230 C   0  0  0  0  0  0  0  0  0  0  0  0
  -13.8377   -1.3763  -13.4395 C   0  0  0  0  0  0  0  0  0  0  0  0
  -13.2490   -2.6036  -13.1064 C   0  0  0  0  0  0  0  0  0  0  0  0
  -13.0616   -9.1891  -12.1249 C   0  0  0  0  0  0  0  0  0  0  0  0
  -12.7871   -7.7575  -12.0601 N   0  0  0  0  0  0  0  0  0  0  0  0
  -12.6652   -7.1820  -13.4197 C   0  0  0  0  0  0  0  0  0  0  0  0
  -12.3819   -5.6628  -13.3813 C   0  0  0  0  0  0  0  0  0  0  0  0
  -13.4393   -4.9807  -12.6163 N   0  0  0  0  0  0  0  0  0  0  0  0
  -13.6378   -5.5209  -11.2622 C   0  0  0  0  0  0  0  0  0  0  0  0
  -13.8685   -7.0494  -11.3387 C   0  0  0  0  0  0  0  0  0  0  0  0
  -14.5616    4.3298  -17.3503 C   0  0  0  0  0  0  0  0  0  0  0  0
  -15.2600    4.5477  -18.5361 C   0  0  0  0  0  0  0  0  0  0  0  0
  -14.9473    5.6372  -19.3478 C   0  0  0  0  0  0  0  0  0  0  0  0
  -13.9263    6.5208  -18.9954 C   0  0  0  0  0  0  0  0  0  0  0  0
  -13.2318    6.3063  -17.8001 C   0  0  0  0  0  0  0  0  0  0  0  0
  -13.5437    5.2159  -16.9779 C   0  0  0  0  0  0  0  0  0  0  0  0
  -13.5691    7.6315  -19.7819 N   0  0  0  0  0  0  0  0  0  0  0  0
  -13.1212    7.6271  -21.0804 C   0  0  0  0  0  0  0  0  0  0  0  0
  -12.8435    6.6564  -21.7761 O   0  0  0  0  0  0  0  0  0  0  0  0
  -13.7426    8.5541  -19.4086 H   0  0  0  0  0  0  0  0  0  0  0  0
  -13.0848    8.9353  -21.5391 O   0  0  0  0  0  0  0  0  0  0  0  0
  -14.3024    9.6142  -21.3898 C   0  0  0  0  0  0  0  0  0  0  0  0
  -15.4919    9.0583  -21.8742 C   0  0  0  0  0  0  0  0  0  0  0  0
  -16.7083    9.6684  -21.5845 C   0  0  0  0  0  0  0  0  0  0  0  0
  -16.7367   10.8209  -20.7996 C   0  0  0  0  0  0  0  0  0  0  0  0
  -15.5466   11.3745  -20.3197 C   0  0  0  0  0  0  0  0  0  0  0  0
  -14.3214   10.7701  -20.6124 C   0  0  0  0  0  0  0  0  0  0  0  0
 19 20  1  0  0  0
 20 21  1  0  0  0
 20 25  1  0  0  0
 21 22  1  0  0  0
 22 23  1  0  0  0
 23 13  1  0  0  0
 23 24  1  0  0  0
 13 14  1  0  0  0
 13 18  2  0  0  0
 14 15  2  0  0  0
 15 16  1  0  0  0
 16  1  1  0  0  0
 16 17  2  0  0  0
  1  2  1  0  0  0
  1 10  2  0  0  0
  2  3  2  0  0  0
  3  4  1  0  0  0
  4  5  1  0  0  0
  4 10  1  0  0  0
  5  6  1  0  0  0
  5  7  2  0  0  0
  6 11  1  0  0  0
  6 12  1  0  0  0
  7 26  1  0  0  0
  7  8  1  0  0  0
 26 27  1  0  0  0
 26 31  2  0  0  0
 27 28  2  0  0  0
 28 29  1  0  0  0
 29 32  1  0  0  0
 29 30  2  0  0  0
 32 33  1  0  0  0
 32 35  1  0  0  0
 33 34  2  0  0  0
 33 36  1  0  0  0
 36 37  1  0  0  0
 37 38  1  0  0  0
 37 42  2  0  0  0
 38 39  2  0  0  0
 39 40  1  0  0  0
 40 41  2  0  0  0
 41 42  1  0  0  0
 30 31  1  0  0  0
  8  9  2  0  0  0
  9 10  1  0  0  0
 17 18  1  0  0  0
 24 25  1  0  0  0
M  END
> <minimizedAffinity>
-7.31560

$$$$
