CHEMBL2036866


 28 31  0  0  0  0  0  0  0  0999 V2000
  -16.2773    2.4173  -15.4328 C   0  0  0  0  0  0  0  0  0  0  0  0
  -15.1866    3.1625  -15.6727 N   0  0  0  0  0  0  0  0  0  0  0  0
  -14.0183    2.7330  -15.1763 C   0  0  0  0  0  0  0  0  0  0  0  0
  -13.8936    1.5784  -14.4524 C   0  0  0  0  0  0  0  0  0  0  0  0
  -15.0575    0.8672  -14.2585 C   0  0  0  0  0  0  0  0  0  0  0  0
  -16.2523    1.2765  -14.7356 N   0  0  0  0  0  0  0  0  0  0  0  0
  -15.0353   -0.4069  -13.5198 C   0  0  0  0  0  0  0  0  0  0  0  0
  -15.6831   -0.6166  -12.3813 N   0  0  0  0  0  0  0  0  0  0  0  0
  -15.4073   -1.9051  -12.0072 C   0  0  0  0  0  0  0  0  0  0  0  0
  -15.8408   -2.6192  -10.8789 C   0  0  0  0  0  0  0  0  0  0  0  0
  -15.4176   -3.9434  -10.7137 C   0  0  0  0  0  0  0  0  0  0  0  0
  -14.5816   -4.5460  -11.6533 C   0  0  0  0  0  0  0  0  0  0  0  0
  -14.1407   -3.8478  -12.7832 C   0  0  0  0  0  0  0  0  0  0  0  0
  -14.5725   -2.5228  -12.9299 C   0  0  0  0  0  0  0  0  0  0  0  0
  -14.3449   -1.5524  -13.8809 N   0  0  0  0  0  0  0  0  0  0  0  0
  -13.5172   -1.7257  -15.0514 C   0  0  0  0  0  0  0  0  0  0  0  0
  -17.5209    2.8258  -15.9252 N   0  0  0  0  0  0  0  0  0  0  0  0
  -17.4691    3.8194  -16.1139 H   0  0  0  0  0  0  0  0  0  0  0  0
  -21.2696    1.5445  -14.4403 C   0  0  0  0  0  0  0  0  0  0  0  0
  -20.3270    0.6242  -14.9047 C   0  0  0  0  0  0  0  0  0  0  0  0
  -19.0961    1.0634  -15.4092 C   0  0  0  0  0  0  0  0  0  0  0  0
  -18.7697    2.4225  -15.4189 C   0  0  0  0  0  0  0  0  0  0  0  0
  -19.7316    3.3456  -14.9947 C   0  0  0  0  0  0  0  0  0  0  0  0
  -20.9620    2.9081  -14.5046 C   0  0  0  0  0  0  0  0  0  0  0  0
  -21.8842    3.8286  -14.0795 O   0  0  0  0  0  0  0  0  0  0  0  0
  -21.5016    4.7158  -14.1636 H   0  0  0  0  0  0  0  0  0  0  0  0
  -22.7821   -0.1507  -13.7263 C   0  0  0  0  0  0  0  0  0  0  0  0
  -22.4944    1.2254  -13.9188 O   0  0  0  0  0  0  0  0  0  0  0  0
 27 28  1  0  0  0
 28 19  1  0  0  0
 19 20  1  0  0  0
 19 24  2  0  0  0
 20 21  2  0  0  0
 21 22  1  0  0  0
 22 17  1  0  0  0
 22 23  2  0  0  0
 17  1  1  0  0  0
 17 18  1  0  0  0
  1  2  1  0  0  0
  1  6  2  0  0  0
  2  3  2  0  0  0
  3  4  1  0  0  0
  4  5  2  0  0  0
  5  7  1  0  0  0
  5  6  1  0  0  0
  7  8  2  0  0  0
  7 15  1  0  0  0
  8  9  1  0  0  0
  9 10  1  0  0  0
  9 14  2  0  0  0
 10 11  2  0  0  0
 11 12  1  0  0  0
 12 13  2  0  0  0
 13 14  1  0  0  0
 14 15  1  0  0  0
 15 16  1  0  0  0
 23 24  1  0  0  0
 24 25  1  0  0  0
 25 26  1  0  0  0
M  END
> <minimizedAffinity>
-8.77336

$$$$
