CHEMBL3895129


 34 37  0  0  0  0  0  0  0  0999 V2000
  -28.7399   -5.5108   -7.3390 C   0  0  0  0  0  0  0  0  0  0  0  0
  -28.5435   -4.4195   -8.1878 C   0  0  0  0  0  0  0  0  0  0  0  0
  -28.3004   -3.1286   -7.6754 C   0  0  0  0  0  0  0  0  0  0  0  0
  -27.9957   -2.0183   -8.4793 C   0  0  0  0  0  0  0  0  0  0  0  0
  -27.6774   -0.8251   -7.9548 N   0  0  0  0  0  0  0  0  0  0  0  0
  -27.7135   -0.7362   -6.6211 C   0  0  0  0  0  0  0  0  0  0  0  0
  -28.0163   -1.7213   -5.7651 N   0  0  0  0  0  0  0  0  0  0  0  0
  -28.2914   -2.9175   -6.2959 C   0  0  0  0  0  0  0  0  0  0  0  0
  -28.5729   -3.9989   -5.4603 C   0  0  0  0  0  0  0  0  0  0  0  0
  -28.7991   -5.2949   -5.9511 C   0  0  0  0  0  0  0  0  0  0  0  0
  -30.2682   -7.2804   -7.7661 C   0  0  0  0  0  0  0  0  0  0  0  0
  -28.9468   -6.7494   -7.8800 O   0  0  0  0  0  0  0  0  0  0  0  0
  -28.0164   -2.1643   -9.8879 N   0  0  0  0  0  0  0  0  0  0  0  0
  -28.9671   -2.1511  -10.2497 H   0  0  0  0  0  0  0  0  0  0  0  0
  -27.0418   -1.7828  -10.8254 C   0  0  0  0  0  0  0  0  0  0  0  0
  -25.7026   -1.5939  -10.4597 C   0  0  0  0  0  0  0  0  0  0  0  0
  -24.7190   -1.3999  -11.4321 C   0  0  0  0  0  0  0  0  0  0  0  0
  -25.0715   -1.3817  -12.7780 C   0  0  0  0  0  0  0  0  0  0  0  0
  -24.0998   -1.2421  -13.6916 F   0  0  0  0  0  0  0  0  0  0  0  0
  -26.3986   -1.5279  -13.1682 C   0  0  0  0  0  0  0  0  0  0  0  0
  -26.8271   -1.4917  -14.8356 Cl  0  0  0  0  0  0  0  0  0  0  0  0
  -27.3710   -1.7335  -12.1907 C   0  0  0  0  0  0  0  0  0  0  0  0
  -28.6568   -1.9110  -12.5459 F   0  0  0  0  0  0  0  0  0  0  0  0
  -29.0428   -6.2208   -4.9558 O   0  0  0  0  0  0  0  0  0  0  0  0
  -27.9710   -7.1162   -4.6667 C   0  0  0  0  0  0  0  0  0  0  0  0
  -28.4263   -8.5313   -4.2812 C   0  0  0  0  0  0  0  0  0  0  0  0
  -27.3754   -9.3130   -3.4727 C   0  0  0  0  0  0  0  0  0  0  0  0
  -26.1841   -9.6706   -4.2752 N   0  0  0  0  0  0  0  0  0  0  0  0
  -25.2075  -10.3612   -3.4351 C   0  0  0  0  0  0  0  0  0  0  0  0
  -26.5608  -10.3794   -5.5342 C   0  0  0  0  0  0  0  0  0  0  0  0
  -25.3309  -10.4704   -6.4632 C   0  0  0  0  0  0  0  0  0  0  0  0
  -27.1149  -11.8027   -5.3077 C   0  0  0  0  0  0  0  0  0  0  0  0
  -27.6526   -9.5619   -6.2906 C   0  0  0  0  0  0  0  0  0  0  0  0
  -28.7943   -9.2777   -5.4647 O   0  0  0  0  0  0  0  0  0  0  0  0
 11 12  1  0  0  0
 12  1  1  0  0  0
  1  2  1  0  0  0
  1 10  2  0  0  0
  2  3  2  0  0  0
  3  4  1  0  0  0
  3  8  1  0  0  0
  4 13  1  0  0  0
  4  5  2  0  0  0
 13 15  1  0  0  0
 13 14  1  0  0  0
 15 16  1  0  0  0
 15 22  2  0  0  0
 16 17  2  0  0  0
 17 18  1  0  0  0
 18 19  1  0  0  0
 18 20  2  0  0  0
 20 21  1  0  0  0
 20 22  1  0  0  0
 22 23  1  0  0  0
  5  6  1  0  0  0
  6  7  2  0  0  0
  7  8  1  0  0  0
  8  9  2  0  0  0
  9 10  1  0  0  0
 10 24  1  0  0  0
 24 25  1  0  0  0
 25 26  1  0  0  0
 26 27  1  0  0  0
 26 34  1  0  0  0
 27 28  1  0  0  0
 28 29  1  0  0  0
 28 30  1  0  0  0
 30 31  1  0  0  0
 30 32  1  0  0  0
 30 33  1  0  0  0
 33 34  1  0  0  0
M  END
> <minimizedAffinity>
-8.95124

$$$$
