CHEMBL3905114


 42 47  0  0  0  0  0  0  0  0999 V2000
  -27.3926   -1.5868   -8.6259 C   0  0  0  0  0  0  0  0  0  0  0  0
  -26.5556   -1.0166   -9.5958 C   0  0  0  0  0  0  0  0  0  0  0  0
  -26.7106   -1.3047  -10.9729 C   0  0  0  0  0  0  0  0  0  0  0  0
  -25.9028   -0.8351  -12.0173 C   0  0  0  0  0  0  0  0  0  0  0  0
  -26.1784   -1.1002  -13.3082 N   0  0  0  0  0  0  0  0  0  0  0  0
  -27.2525   -1.8425  -13.5636 C   0  0  0  0  0  0  0  0  0  0  0  0
  -28.0731   -2.3575  -12.6481 N   0  0  0  0  0  0  0  0  0  0  0  0
  -27.7854   -2.0857  -11.3760 C   0  0  0  0  0  0  0  0  0  0  0  0
  -28.6135   -2.6237  -10.4145 C   0  0  0  0  0  0  0  0  0  0  0  0
  -28.3878   -2.4827   -9.0330 C   0  0  0  0  0  0  0  0  0  0  0  0
  -28.0043   -0.1287   -6.8062 C   0  0  0  0  0  0  0  0  0  0  0  0
  -27.1306   -1.0705   -7.3929 O   0  0  0  0  0  0  0  0  0  0  0  0
  -24.7379   -0.0650  -11.7215 N   0  0  0  0  0  0  0  0  0  0  0  0
  -24.3897   -0.3258  -10.8056 H   0  0  0  0  0  0  0  0  0  0  0  0
  -23.7187    0.1785  -12.6747 C   0  0  0  0  0  0  0  0  0  0  0  0
  -23.0002   -0.8883  -13.2068 C   0  0  0  0  0  0  0  0  0  0  0  0
  -21.9162   -0.6860  -14.0499 C   0  0  0  0  0  0  0  0  0  0  0  0
  -21.5296    0.6181  -14.3721 C   0  0  0  0  0  0  0  0  0  0  0  0
  -20.1301    0.8145  -15.3635 Cl  0  0  0  0  0  0  0  0  0  0  0  0
  -22.2718    1.6975  -13.8804 C   0  0  0  0  0  0  0  0  0  0  0  0
  -21.8608    3.3384  -14.2546 Cl  0  0  0  0  0  0  0  0  0  0  0  0
  -23.3666    1.4844  -13.0319 C   0  0  0  0  0  0  0  0  0  0  0  0
  -29.1441   -3.1932   -8.1288 O   0  0  0  0  0  0  0  0  0  0  0  0
  -28.7578   -4.5776   -7.9435 C   0  0  0  0  0  0  0  0  0  0  0  0
  -28.6339   -4.9637   -6.4718 C   0  0  0  0  0  0  0  0  0  0  0  0
  -29.4337   -6.2491   -6.2443 C   0  0  0  0  0  0  0  0  0  0  0  0
  -29.5229   -6.5956   -4.8325 N   0  0  0  0  0  0  0  0  0  0  0  0
  -29.1964   -7.8087   -4.2292 C   0  0  0  0  0  0  0  0  0  0  0  0
  -29.3493   -7.9699   -3.0132 O   0  0  0  0  0  0  0  0  0  0  0  0
  -30.0089   -5.4787   -4.0066 C   0  0  0  0  0  0  0  0  0  0  0  0
  -29.1719   -4.2225   -4.2777 C   0  0  0  0  0  0  0  0  0  0  0  0
  -29.1686   -3.8851   -5.6760 O   0  0  0  0  0  0  0  0  0  0  0  0
  -28.6519   -8.9609   -5.0232 C   0  0  0  0  0  0  0  0  0  0  0  0
  -29.5381   -9.7488   -5.7707 C   0  0  0  0  0  0  0  0  0  0  0  0
  -29.0732  -10.7831   -6.5758 C   0  0  0  0  0  0  0  0  0  0  0  0
  -27.7170  -11.0742   -6.6207 C   0  0  0  0  0  0  0  0  0  0  0  0
  -26.8163  -10.3903   -5.7987 C   0  0  0  0  0  0  0  0  0  0  0  0
  -25.4725  -10.7972   -5.7838 C   0  0  0  0  0  0  0  0  0  0  0  0
  -24.5519  -10.1932   -4.9342 C   0  0  0  0  0  0  0  0  0  0  0  0
  -24.9603   -9.1535   -4.1128 C   0  0  0  0  0  0  0  0  0  0  0  0
  -26.2870   -8.7109   -4.1483 C   0  0  0  0  0  0  0  0  0  0  0  0
  -27.2657   -9.3202   -4.9746 C   0  0  0  0  0  0  0  0  0  0  0  0
 11 12  1  0  0  0
 12  1  1  0  0  0
  1  2  1  0  0  0
  1 10  2  0  0  0
  2  3  2  0  0  0
  3  4  1  0  0  0
  3  8  1  0  0  0
  4 13  1  0  0  0
  4  5  2  0  0  0
 13 15  1  0  0  0
 13 14  1  0  0  0
 15 16  1  0  0  0
 15 22  2  0  0  0
 16 17  2  0  0  0
 17 18  1  0  0  0
 18 19  1  0  0  0
 18 20  2  0  0  0
 20 21  1  0  0  0
 20 22  1  0  0  0
  5  6  1  0  0  0
  6  7  2  0  0  0
  7  8  1  0  0  0
  8  9  2  0  0  0
  9 10  1  0  0  0
 10 23  1  0  0  0
 23 24  1  0  0  0
 24 25  1  0  0  0
 25 26  1  0  0  0
 25 32  1  0  0  0
 26 27  1  0  0  0
 27 28  1  0  0  0
 27 30  1  0  0  0
 28 29  2  0  0  0
 28 33  1  0  0  0
 33 34  1  0  0  0
 33 42  2  0  0  0
 34 35  2  0  0  0
 35 36  1  0  0  0
 36 37  2  0  0  0
 37 38  1  0  0  0
 37 42  1  0  0  0
 38 39  2  0  0  0
 39 40  1  0  0  0
 40 41  2  0  0  0
 41 42  1  0  0  0
 30 31  1  0  0  0
 31 32  1  0  0  0
M  END
> <minimizedAffinity>
-8.57739

$$$$
