CHEMBL3916975


 34 37  0  0  0  0  0  0  0  0999 V2000
  -27.7155   -2.1661   -8.6911 N   0  0  0  0  0  0  0  0  0  0  0  0
  -27.0366   -1.7613   -9.8968 C   0  0  0  0  0  0  0  0  0  0  0  0
  -27.8158   -1.5989  -11.0325 C   0  0  0  0  0  0  0  0  0  0  0  0
  -27.2750   -1.5948  -12.2845 C   0  0  0  0  0  0  0  0  0  0  0  0
  -25.9698   -1.5175  -12.5061 C   0  0  0  0  0  0  0  0  0  0  0  0
  -25.7203   -1.6122  -13.7954 N   0  0  0  0  0  0  0  0  0  0  0  0
  -24.5991   -1.0842  -14.2209 C   0  0  0  0  0  0  0  0  0  0  0  0
  -23.7048   -0.5080  -13.3345 C   0  0  0  0  0  0  0  0  0  0  0  0
  -23.8683   -0.6131  -11.9556 N   0  0  0  0  0  0  0  0  0  0  0  0
  -25.0690   -1.1761  -11.4667 C   0  0  0  0  0  0  0  0  0  0  0  0
  -25.6383   -1.4730  -10.1187 C   0  0  0  0  0  0  0  0  0  0  0  0
  -22.6509    0.2701  -13.9910 C   0  0  0  0  0  0  0  0  0  0  0  0
  -21.4863   -0.1179  -14.7051 C   0  0  0  0  0  0  0  0  0  0  0  0
  -20.7133    0.9281  -15.0550 N   0  0  0  0  0  0  0  0  0  0  0  0
  -21.3746    1.9739  -14.5333 N   0  0  0  0  0  0  0  0  0  0  0  0
  -21.2214    3.3017  -15.0800 C   0  0  0  0  0  0  0  0  0  0  0  0
  -22.3799    1.5940  -13.6833 C   0  0  0  0  0  0  0  0  0  0  0  0
  -27.9899   -1.4410   -7.4629 C   0  0  0  0  0  0  0  0  0  0  0  0
  -27.6633   -1.9911   -6.1956 C   0  0  0  0  0  0  0  0  0  0  0  0
  -28.1258   -1.4972   -4.9804 C   0  0  0  0  0  0  0  0  0  0  0  0
  -28.7799   -0.2817   -4.9797 C   0  0  0  0  0  0  0  0  0  0  0  0
  -28.9211    0.4233   -6.1781 C   0  0  0  0  0  0  0  0  0  0  0  0
  -28.5711   -0.1720   -7.4124 C   0  0  0  0  0  0  0  0  0  0  0  0
  -27.9792   -2.1261   -3.7730 O   0  0  0  0  0  0  0  0  0  0  0  0
  -29.1564   -2.6933   -3.1929 C   0  0  0  0  0  0  0  0  0  0  0  0
  -29.4229    1.7002   -6.2419 O   0  0  0  0  0  0  0  0  0  0  0  0
  -30.8323    1.7726   -6.4678 C   0  0  0  0  0  0  0  0  0  0  0  0
  -27.9895   -3.6746   -8.5118 C   0  0  0  0  0  0  0  0  0  0  0  0
  -29.4544   -3.9765   -8.0886 C   0  0  0  0  0  0  0  0  0  0  0  0
  -29.7162   -5.2255   -7.3140 N   0  0  0  0  0  0  0  0  0  0  0  0
  -29.1877   -7.6076   -8.1073 C   0  0  0  0  0  0  0  0  0  0  0  0
  -28.6909   -6.2203   -7.7109 C   0  0  0  0  0  0  0  0  0  0  0  0
  -29.7892   -5.0226   -5.8569 C   0  0  0  0  0  0  0  0  0  0  0  0
  -30.6878   -5.9897   -5.0925 C   0  0  0  0  0  0  0  0  0  0  0  0
 31 32  1  0  0  0
 32 30  1  0  0  0
 30 33  1  0  0  0
 30 29  1  0  0  0
 33 34  1  0  0  0
 29 28  1  0  0  0
 28  1  1  0  0  0
  1 18  1  0  0  0
  1  2  1  0  0  0
 18 19  1  0  0  0
 18 23  2  0  0  0
 19 20  2  0  0  0
 20 24  1  0  0  0
 20 21  1  0  0  0
 24 25  1  0  0  0
 21 22  2  0  0  0
 22 26  1  0  0  0
 22 23  1  0  0  0
 26 27  1  0  0  0
  2  3  1  0  0  0
  2 11  2  0  0  0
  3  4  2  0  0  0
  4  5  1  0  0  0
  5  6  1  0  0  0
  5 10  2  0  0  0
  6  7  2  0  0  0
  7  8  1  0  0  0
  8 12  1  0  0  0
  8  9  2  0  0  0
 12 13  1  0  0  0
 12 17  2  0  0  0
 13 14  2  0  0  0
 14 15  1  0  0  0
 15 16  1  0  0  0
 15 17  1  0  0  0
  9 10  1  0  0  0
 10 11  1  0  0  0
M  END
> <minimizedAffinity>
-8.51605

$$$$
