CHEMBL3936765


 30 34  0  0  0  0  0  0  0  0999 V2000
  -17.0868    2.5206  -15.8093 C   0  0  0  0  0  0  0  0  0  0  0  0
  -17.4434    1.2101  -15.4676 C   0  0  0  0  0  0  0  0  0  0  0  0
  -18.6314    0.9619  -14.9487 C   0  0  0  0  0  0  0  0  0  0  0  0
  -19.5601    1.9881  -14.8746 C   0  0  0  0  0  0  0  0  0  0  0  0
  -20.6504    1.4668  -15.0825 N   0  0  0  0  0  0  0  0  0  0  0  0
  -21.3348    0.7637  -14.2218 C   0  0  0  0  0  0  0  0  0  0  0  0
  -22.1960    1.5922  -13.9790 C   0  0  0  0  0  0  0  0  0  0  0  0
  -21.3213    3.1123  -14.1417 N   0  0  0  0  0  0  0  0  0  0  0  0
  -19.6695    3.3134  -14.9589 C   0  0  0  0  0  0  0  0  0  0  0  0
  -18.1085    3.5301  -15.7368 C   0  0  0  0  0  0  0  0  0  0  0  0
  -23.2629    0.1535  -13.3409 C   0  0  0  0  0  0  0  0  0  0  0  0
  -23.0931   -1.4181  -12.8470 C   0  0  0  0  0  0  0  0  0  0  0  0
  -23.9928   -2.0835  -12.0265 N   0  0  0  0  0  0  0  0  0  0  0  0
  -24.8641   -1.1508  -11.6430 N   0  0  0  0  0  0  0  0  0  0  0  0
  -25.9644   -1.4749  -10.6439 C   0  0  0  0  0  0  0  0  0  0  0  0
  -24.4397    0.1533  -12.3048 C   0  0  0  0  0  0  0  0  0  0  0  0
  -15.7203    2.5536  -16.2450 N   0  0  0  0  0  0  0  0  0  0  0  0
  -13.1903    5.4104  -16.6310 C   0  0  0  0  0  0  0  0  0  0  0  0
  -13.6284    5.8749  -17.8469 C   0  0  0  0  0  0  0  0  0  0  0  0
  -14.7203    5.3090  -18.4905 C   0  0  0  0  0  0  0  0  0  0  0  0
  -15.4606    4.3064  -17.9236 C   0  0  0  0  0  0  0  0  0  0  0  0
  -15.0464    3.7417  -16.7265 C   0  0  0  0  0  0  0  0  0  0  0  0
  -13.9876    4.4719  -16.0865 C   0  0  0  0  0  0  0  0  0  0  0  0
  -11.7209    5.3259  -14.7002 C   0  0  0  0  0  0  0  0  0  0  0  0
  -12.0645    5.8606  -15.9846 N   0  0  0  0  0  0  0  0  0  0  0  0
  -11.5834    6.6803  -16.3420 H   0  0  0  0  0  0  0  0  0  0  0  0
  -15.1460    1.1732  -16.5286 C   0  0  0  0  0  0  0  0  0  0  0  0
  -14.2759    1.1882  -17.6925 C   0  0  0  0  0  0  0  0  0  0  0  0
  -14.0807    0.1870  -18.8651 C   0  0  0  0  0  0  0  0  0  0  0  0
  -12.8850    0.7810  -18.1127 C   0  0  0  0  0  0  0  0  0  0  0  0
 24 25  1  0  0  0
 25 18  1  0  0  0
 25 26  1  0  0  0
 18 19  1  0  0  0
 18 23  2  0  0  0
 19 20  2  0  0  0
 20 21  1  0  0  0
 21 22  2  0  0  0
 22 17  1  0  0  0
 22 23  1  0  0  0
 17 27  1  0  0  0
 17  1  1  0  0  0
 27 28  1  0  0  0
 28 29  1  0  0  0
 28 30  1  0  0  0
 29 30  1  0  0  0
  1  2  1  0  0  0
  1 10  2  0  0  0
  2  3  2  0  0  0
  3  4  1  0  0  0
  4  5  1  0  0  0
  4  9  2  0  0  0
  5  6  2  0  0  0
  6  7  1  0  0  0
  7 11  1  0  0  0
  7  8  2  0  0  0
 11 12  1  0  0  0
 11 16  2  0  0  0
 12 13  2  0  0  0
 13 14  1  0  0  0
 14 15  1  0  0  0
 14 16  1  0  0  0
  8  9  1  0  0  0
  9 10  1  0  0  0
M  END
> <minimizedAffinity>
-9.37410

$$$$
