CHEMBL69638


 30 34  0  0  0  0  0  0  0  0999 V2000
  -30.8393   -6.7404   -7.5352 N   0  0  0  0  0  0  0  0  0  0  0  0
  -29.8770   -7.7211   -7.3171 C   0  0  0  0  0  0  0  0  0  0  0  0
  -29.7620   -8.6558   -8.2844 N   0  0  0  0  0  0  0  0  0  0  0  0
  -28.8584   -9.6382   -8.1224 C   0  0  0  0  0  0  0  0  0  0  0  0
  -28.0077   -9.8223   -7.1025 N   0  0  0  0  0  0  0  0  0  0  0  0
  -28.1511   -8.8789   -6.1559 C   0  0  0  0  0  0  0  0  0  0  0  0
  -29.0531   -7.8164   -6.1738 C   0  0  0  0  0  0  0  0  0  0  0  0
  -28.8715   -7.1052   -4.9345 C   0  0  0  0  0  0  0  0  0  0  0  0
  -27.8550   -7.7486   -4.2511 C   0  0  0  0  0  0  0  0  0  0  0  0
  -27.4256   -8.8193   -4.9981 N   0  0  0  0  0  0  0  0  0  0  0  0
  -31.1797   -6.7644   -8.4898 H   0  0  0  0  0  0  0  0  0  0  0  0
  -30.6095   -5.8237   -7.1669 H   0  0  0  0  0  0  0  0  0  0  0  0
  -29.5606   -5.9449   -4.3765 C   0  0  0  0  0  0  0  0  0  0  0  0
  -30.8888   -6.0434   -3.9473 C   0  0  0  0  0  0  0  0  0  0  0  0
  -31.5987   -4.9159   -3.5392 C   0  0  0  0  0  0  0  0  0  0  0  0
  -30.9516   -3.6894   -3.4508 C   0  0  0  0  0  0  0  0  0  0  0  0
  -29.5816   -3.6108   -3.7042 C   0  0  0  0  0  0  0  0  0  0  0  0
  -28.9058   -4.7138   -4.2319 C   0  0  0  0  0  0  0  0  0  0  0  0
  -28.8259   -2.4798   -3.4924 O   0  0  0  0  0  0  0  0  0  0  0  0
  -28.6890   -1.5642   -4.5149 C   0  0  0  0  0  0  0  0  0  0  0  0
  -27.5963   -1.4956   -5.3862 C   0  0  0  0  0  0  0  0  0  0  0  0
  -27.5077   -0.4631   -6.3203 C   0  0  0  0  0  0  0  0  0  0  0  0
  -28.5458    0.4580   -6.4366 C   0  0  0  0  0  0  0  0  0  0  0  0
  -29.6793    0.3369   -5.6332 C   0  0  0  0  0  0  0  0  0  0  0  0
  -29.7510   -0.6734   -4.6729 C   0  0  0  0  0  0  0  0  0  0  0  0
  -26.3759   -9.7410   -4.6093 C   0  0  0  0  0  0  0  0  0  0  0  0
  -26.8247  -10.8559   -3.6571 C   0  0  0  0  0  0  0  0  0  0  0  0
  -25.5473  -11.3334   -2.9682 C   0  0  0  0  0  0  0  0  0  0  0  0
  -24.4878  -10.2597   -3.2130 C   0  0  0  0  0  0  0  0  0  0  0  0
  -25.2201   -9.0854   -3.8502 C   0  0  0  0  0  0  0  0  0  0  0  0
  1  2  1  0  0  0
  1 11  1  0  0  0
  1 12  1  0  0  0
  2  3  1  0  0  0
  2  7  2  0  0  0
  3  4  2  0  0  0
  4  5  1  0  0  0
  5  6  2  0  0  0
  6  7  1  0  0  0
  6 10  1  0  0  0
  7  8  1  0  0  0
  8 13  1  0  0  0
  8  9  2  0  0  0
 13 14  1  0  0  0
 13 18  2  0  0  0
 14 15  2  0  0  0
 15 16  1  0  0  0
 16 17  2  0  0  0
 17 19  1  0  0  0
 17 18  1  0  0  0
 19 20  1  0  0  0
 20 21  1  0  0  0
 20 25  2  0  0  0
 21 22  2  0  0  0
 22 23  1  0  0  0
 23 24  2  0  0  0
 24 25  1  0  0  0
  9 10  1  0  0  0
 10 26  1  0  0  0
 26 27  1  0  0  0
 26 30  1  0  0  0
 27 28  1  0  0  0
 28 29  1  0  0  0
 29 30  1  0  0  0
M  END
> <minimizedAffinity>
-9.09581

$$$$
