CHEMBL2429872


 41 44  0  0  0  0  0  0  0  0999 V2000
  -13.2295   -2.6838  -18.7844 C   0  0  0  0  0  0  0  0  0  0  0  0
  -13.7980   -3.8939  -19.1668 C   0  0  0  0  0  0  0  0  0  0  0  0
  -14.2969   -4.3843  -20.4784 C   0  0  0  0  0  0  0  0  0  0  0  0
  -13.7896   -4.7349  -18.0646 N   0  0  0  0  0  0  0  0  0  0  0  0
  -13.2367   -4.0945  -16.9892 C   0  0  0  0  0  0  0  0  0  0  0  0
  -12.8916   -2.8253  -17.4077 C   0  0  0  0  0  0  0  0  0  0  0  0
  -12.2533   -1.7833  -16.5614 C   0  0  0  0  0  0  0  0  0  0  0  0
  -12.0745   -2.1650  -15.1078 C   0  0  0  0  0  0  0  0  0  0  0  0
  -12.3762   -3.6074  -14.7040 C   0  0  0  0  0  0  0  0  0  0  0  0
  -13.0377   -4.6001  -15.6696 C   0  0  0  0  0  0  0  0  0  0  0  0
  -13.3802   -5.8339  -15.2057 C   0  0  0  0  0  0  0  0  0  0  0  0
  -14.0293   -7.0096  -15.9172 C   0  0  0  0  0  0  0  0  0  0  0  0
  -14.2904   -7.1377  -17.0984 O   0  0  0  0  0  0  0  0  0  0  0  0
  -14.2711   -7.9655  -14.9225 N   0  0  0  0  0  0  0  0  0  0  0  0
  -13.8317   -7.5359  -13.6731 C   0  0  0  0  0  0  0  0  0  0  0  0
  -13.9059   -8.2097  -12.4620 C   0  0  0  0  0  0  0  0  0  0  0  0
  -13.3531   -7.6014  -11.3154 C   0  0  0  0  0  0  0  0  0  0  0  0
  -12.7488   -6.3405  -11.4160 C   0  0  0  0  0  0  0  0  0  0  0  0
  -12.6599   -5.7215  -12.6625 C   0  0  0  0  0  0  0  0  0  0  0  0
  -13.2407   -6.2830  -13.7881 C   0  0  0  0  0  0  0  0  0  0  0  0
  -14.1152   -5.6982  -18.0680 H   0  0  0  0  0  0  0  0  0  0  0  0
  -14.6850   -8.8641  -15.1257 H   0  0  0  0  0  0  0  0  0  0  0  0
  -13.8998   -0.5133  -19.5822 N   0  0  0  0  0  0  0  0  0  0  0  0
  -12.9344   -1.4887  -19.5737 C   0  0  0  0  0  0  0  0  0  0  0  0
  -11.8577   -1.3346  -20.1470 O   0  0  0  0  0  0  0  0  0  0  0  0
  -14.5917   -0.5213  -18.8425 H   0  0  0  0  0  0  0  0  0  0  0  0
  -13.6127    0.7397  -20.2415 C   0  0  0  0  0  0  0  0  0  0  0  0
  -13.2075    1.8445  -19.2598 C   0  0  0  0  0  0  0  0  0  0  0  0
  -14.3250    2.4135  -18.4692 N   0  0  0  0  0  0  0  0  0  0  0  0
  -15.1287    1.0695  -16.4829 C   0  0  0  0  0  0  0  0  0  0  0  0
  -14.1716    2.1232  -17.0314 C   0  0  0  0  0  0  0  0  0  0  0  0
  -14.5008    3.8449  -18.7755 C   0  0  0  0  0  0  0  0  0  0  0  0
  -14.9520    4.7349  -17.6188 C   0  0  0  0  0  0  0  0  0  0  0  0
  -11.8097   -5.5826  -10.0915 S   0  0  0  0  0  0  0  0  0  0  0  0
  -10.9758   -6.6301   -9.5261 O   0  0  0  0  0  0  0  0  0  0  0  0
  -11.2169   -4.3860  -10.6523 O   0  0  0  0  0  0  0  0  0  0  0  0
  -12.9281   -5.0800   -8.8453 N   0  0  0  0  0  0  0  0  0  0  0  0
  -12.3370   -5.2504   -7.4686 C   0  0  0  0  0  0  0  0  0  0  0  0
  -11.5603   -4.0486   -6.9494 C   0  0  0  0  0  0  0  0  0  0  0  0
  -13.3586   -3.6381   -9.0643 C   0  0  0  0  0  0  0  0  0  0  0  0
  -14.7239   -3.4575   -9.7095 C   0  0  0  0  0  0  0  0  0  0  0  0
 30 31  1  0  0  0
 31 29  1  0  0  0
 29 32  1  0  0  0
 29 28  1  0  0  0
 32 33  1  0  0  0
 28 27  1  0  0  0
 27 23  1  0  0  0
 23 24  1  0  0  0
 23 26  1  0  0  0
 24 25  2  0  0  0
 24  1  1  0  0  0
  1  2  2  0  0  0
  1  6  1  0  0  0
  2  3  1  0  0  0
  2  4  1  0  0  0
  4  5  1  0  0  0
  4 21  1  0  0  0
  5  6  2  0  0  0
  5 10  1  0  0  0
  6  7  1  0  0  0
  7  8  1  0  0  0
  8  9  1  0  0  0
  9 10  1  0  0  0
 10 11  2  0  0  0
 11 12  1  0  0  0
 11 20  1  0  0  0
 12 13  2  0  0  0
 12 14  1  0  0  0
 14 15  1  0  0  0
 14 22  1  0  0  0
 15 16  1  0  0  0
 15 20  2  0  0  0
 16 17  2  0  0  0
 17 18  1  0  0  0
 18 34  1  0  0  0
 18 19  2  0  0  0
 34 35  2  0  0  0
 34 36  2  0  0  0
 34 37  1  0  0  0
 37 38  1  0  0  0
 37 40  1  0  0  0
 38 39  1  0  0  0
 40 41  1  0  0  0
 19 20  1  0  0  0
M  END
> <minimizedAffinity>
-6.65546

$$$$
