CHEMBL3639591


 37 40  0  0  0  0  0  0  0  0999 V2000
  -20.2210    2.1989  -14.6511 C   0  0  0  0  0  0  0  0  0  0  0  0
  -19.5785    0.9739  -14.8637 C   0  0  0  0  0  0  0  0  0  0  0  0
  -18.2805    0.9276  -15.3785 C   0  0  0  0  0  0  0  0  0  0  0  0
  -17.6266    2.1033  -15.7519 C   0  0  0  0  0  0  0  0  0  0  0  0
  -18.2620    3.3311  -15.5328 C   0  0  0  0  0  0  0  0  0  0  0  0
  -19.5661    3.3806  -15.0042 C   0  0  0  0  0  0  0  0  0  0  0  0
  -23.4637    1.1614  -13.3724 N   0  0  0  0  0  0  0  0  0  0  0  0
  -22.1949    1.0254  -13.9087 C   0  0  0  0  0  0  0  0  0  0  0  0
  -21.6766   -0.0438  -14.2153 O   0  0  0  0  0  0  0  0  0  0  0  0
  -21.4926    2.2260  -14.0094 N   0  0  0  0  0  0  0  0  0  0  0  0
  -23.6980    2.0456  -12.9546 H   0  0  0  0  0  0  0  0  0  0  0  0
  -21.5611    2.8097  -13.1869 H   0  0  0  0  0  0  0  0  0  0  0  0
  -26.3190   -1.4844  -10.2610 C   0  0  0  0  0  0  0  0  0  0  0  0
  -25.7711   -1.2299  -11.6373 C   0  0  0  0  0  0  0  0  0  0  0  0
  -26.1181   -2.0977  -12.6778 C   0  0  0  0  0  0  0  0  0  0  0  0
  -25.6399   -1.8679  -13.9602 C   0  0  0  0  0  0  0  0  0  0  0  0
  -24.8042   -0.7836  -14.2116 C   0  0  0  0  0  0  0  0  0  0  0  0
  -24.5115   -0.5593  -15.4983 F   0  0  0  0  0  0  0  0  0  0  0  0
  -24.3816    0.0790  -13.1851 C   0  0  0  0  0  0  0  0  0  0  0  0
  -24.9070   -0.1409  -11.8975 C   0  0  0  0  0  0  0  0  0  0  0  0
  -16.3490    2.1343  -16.2834 O   0  0  0  0  0  0  0  0  0  0  0  0
  -15.2889    1.6675  -15.5228 C   0  0  0  0  0  0  0  0  0  0  0  0
  -14.0684    2.3250  -15.4363 C   0  0  0  0  0  0  0  0  0  0  0  0
  -13.0548    1.7309  -14.7125 C   0  0  0  0  0  0  0  0  0  0  0  0
  -13.2062    0.5856  -14.0221 N   0  0  0  0  0  0  0  0  0  0  0  0
  -14.4270   -0.0091  -14.0407 C   0  0  0  0  0  0  0  0  0  0  0  0
  -15.4929    0.5003  -14.7825 C   0  0  0  0  0  0  0  0  0  0  0  0
  -14.5047   -1.2140  -13.2182 C   0  0  0  0  0  0  0  0  0  0  0  0
  -13.5903   -2.2496  -13.1889 C   0  0  0  0  0  0  0  0  0  0  0  0
  -14.0336   -3.1914  -12.2907 N   0  0  0  0  0  0  0  0  0  0  0  0
  -15.2310   -2.8008  -11.7269 C   0  0  0  0  0  0  0  0  0  0  0  0
  -15.5364   -1.5744  -12.2941 C   0  0  0  0  0  0  0  0  0  0  0  0
  -13.5636   -4.0572  -12.0600 H   0  0  0  0  0  0  0  0  0  0  0  0
  -15.8928   -3.6380  -10.7492 C   0  0  0  0  0  0  0  0  0  0  0  0
  -16.5859   -4.6020  -11.0295 O   0  0  0  0  0  0  0  0  0  0  0  0
  -15.6747   -3.2480   -9.4739 O   0  0  0  0  0  0  0  0  0  0  0  0
  -15.1067   -2.4640   -9.3986 H   0  0  0  0  0  0  0  0  0  0  0  0
 13 14  1  0  0  0
 14 15  1  0  0  0
 14 20  2  0  0  0
 15 16  2  0  0  0
 16 17  1  0  0  0
 17 18  1  0  0  0
 17 19  2  0  0  0
 19  7  1  0  0  0
 19 20  1  0  0  0
  7  8  1  0  0  0
  7 11  1  0  0  0
  8  9  2  0  0  0
  8 10  1  0  0  0
 10  1  1  0  0  0
 10 12  1  0  0  0
  1  2  1  0  0  0
  1  6  2  0  0  0
  2  3  2  0  0  0
  3  4  1  0  0  0
  4 21  1  0  0  0
  4  5  2  0  0  0
 21 22  1  0  0  0
 22 23  1  0  0  0
 22 27  2  0  0  0
 23 24  2  0  0  0
 24 25  1  0  0  0
 25 26  2  0  0  0
 26 28  1  0  0  0
 26 27  1  0  0  0
 28 29  2  0  0  0
 28 32  1  0  0  0
 29 30  1  0  0  0
 30 31  1  0  0  0
 30 33  1  0  0  0
 31 34  1  0  0  0
 31 32  2  0  0  0
 34 35  2  0  0  0
 34 36  1  0  0  0
 36 37  1  0  0  0
  5  6  1  0  0  0
M  END
> <minimizedAffinity>
-10.50592

$$$$
