CHEMBL406914


 33 36  0  0  0  0  0  0  0  0999 V2000
  -30.4165   -7.4283   -7.0395 C   0  0  0  0  0  0  0  0  0  0  0  0
  -29.7849   -6.3706   -7.6796 C   0  0  0  0  0  0  0  0  0  0  0  0
  -29.6191   -5.1597   -6.9975 C   0  0  0  0  0  0  0  0  0  0  0  0
  -30.2192   -4.9092   -5.7348 C   0  0  0  0  0  0  0  0  0  0  0  0
  -30.0514   -3.7337   -4.9400 C   0  0  0  0  0  0  0  0  0  0  0  0
  -30.7186   -3.6058   -3.7066 C   0  0  0  0  0  0  0  0  0  0  0  0
  -31.5482   -4.6148   -3.2363 C   0  0  0  0  0  0  0  0  0  0  0  0
  -31.6892   -5.7833   -3.9750 C   0  0  0  0  0  0  0  0  0  0  0  0
  -31.0243   -5.9517   -5.1998 C   0  0  0  0  0  0  0  0  0  0  0  0
  -31.1031   -7.1941   -5.8499 C   0  0  0  0  0  0  0  0  0  0  0  0
  -29.1008   -2.6202   -5.2437 C   0  0  0  0  0  0  0  0  0  0  0  0
  -27.8972   -2.8262   -5.1287 O   0  0  0  0  0  0  0  0  0  0  0  0
  -29.6340   -1.3959   -5.5902 N   0  0  0  0  0  0  0  0  0  0  0  0
  -30.6137   -1.2520   -5.3816 H   0  0  0  0  0  0  0  0  0  0  0  0
  -28.8224   -0.1977   -5.8654 C   0  0  0  0  0  0  0  0  0  0  0  0
  -27.9742   -0.3600   -7.1415 C   0  0  0  0  0  0  0  0  0  0  0  0
  -29.7752    0.9898   -6.0934 C   0  0  0  0  0  0  0  0  0  0  0  0
  -27.9207    0.1157   -4.6635 C   0  0  0  0  0  0  0  0  0  0  0  0
  -30.3564   -8.7398   -7.4508 O   0  0  0  0  0  0  0  0  0  0  0  0
  -25.5913  -10.2265   -5.9216 C   0  0  0  0  0  0  0  0  0  0  0  0
  -25.7282  -10.3599   -7.3137 C   0  0  0  0  0  0  0  0  0  0  0  0
  -26.9194  -10.0975   -7.9772 C   0  0  0  0  0  0  0  0  0  0  0  0
  -26.9060  -10.1173   -9.3214 N   0  0  0  0  0  0  0  0  0  0  0  0
  -28.0196   -9.7438   -9.9806 C   0  0  0  0  0  0  0  0  0  0  0  0
  -29.1634   -9.3017   -9.3535 C   0  0  0  0  0  0  0  0  0  0  0  0
  -29.1824   -9.2764   -7.9605 C   0  0  0  0  0  0  0  0  0  0  0  0
  -28.0605   -9.7563   -7.2291 C   0  0  0  0  0  0  0  0  0  0  0  0
  -27.9652   -9.8915   -5.8235 C   0  0  0  0  0  0  0  0  0  0  0  0
  -26.7407  -10.0144   -5.1614 C   0  0  0  0  0  0  0  0  0  0  0  0
  -23.2476   -9.8895   -6.0519 C   0  0  0  0  0  0  0  0  0  0  0  0
  -24.3783  -10.3254   -5.2958 O   0  0  0  0  0  0  0  0  0  0  0  0
  -26.8781   -9.8567   -3.8112 O   0  0  0  0  0  0  0  0  0  0  0  0
  -28.0173   -9.1895   -3.2928 C   0  0  0  0  0  0  0  0  0  0  0  0
 30 31  1  0  0  0
 31 20  1  0  0  0
 20 21  1  0  0  0
 20 29  2  0  0  0
 21 22  2  0  0  0
 22 23  1  0  0  0
 22 27  1  0  0  0
 23 24  2  0  0  0
 24 25  1  0  0  0
 25 26  2  0  0  0
 26 19  1  0  0  0
 26 27  1  0  0  0
 19  1  1  0  0  0
  1  2  1  0  0  0
  1 10  2  0  0  0
  2  3  2  0  0  0
  3  4  1  0  0  0
  4  5  1  0  0  0
  4  9  2  0  0  0
  5 11  1  0  0  0
  5  6  2  0  0  0
 11 12  2  0  0  0
 11 13  1  0  0  0
 13 15  1  0  0  0
 13 14  1  0  0  0
 15 16  1  0  0  0
 15 17  1  0  0  0
 15 18  1  0  0  0
  6  7  1  0  0  0
  7  8  2  0  0  0
  8  9  1  0  0  0
  9 10  1  0  0  0
 27 28  2  0  0  0
 28 29  1  0  0  0
 29 32  1  0  0  0
 32 33  1  0  0  0
M  END
> <minimizedAffinity>
-8.93029

$$$$
