CHEMBL3970603


 34 37  0  0  0  0  0  0  0  0999 V2000
  -28.0852   -2.6105   -5.3835 C   0  0  0  0  0  0  0  0  0  0  0  0
  -27.9377   -1.4403   -4.6482 C   0  0  0  0  0  0  0  0  0  0  0  0
  -27.6245   -0.2698   -5.3067 C   0  0  0  0  0  0  0  0  0  0  0  0
  -27.7369   -0.2161   -6.6942 C   0  0  0  0  0  0  0  0  0  0  0  0
  -28.0899   -1.3381   -7.4576 C   0  0  0  0  0  0  0  0  0  0  0  0
  -28.2044   -2.5643   -6.7845 C   0  0  0  0  0  0  0  0  0  0  0  0
  -28.3233   -1.2668   -8.8698 N   0  0  0  0  0  0  0  0  0  0  0  0
  -27.3164   -1.3749   -9.8321 C   0  0  0  0  0  0  0  0  0  0  0  0
  -26.1366   -1.5627   -9.5332 O   0  0  0  0  0  0  0  0  0  0  0  0
  -27.7285   -1.2711  -11.1477 N   0  0  0  0  0  0  0  0  0  0  0  0
  -29.2799   -1.2506   -9.1847 H   0  0  0  0  0  0  0  0  0  0  0  0
  -28.4442   -0.5830  -11.3382 H   0  0  0  0  0  0  0  0  0  0  0  0
  -26.6873   -1.3796  -12.1289 C   0  0  0  0  0  0  0  0  0  0  0  0
  -25.4021   -0.9148  -11.8167 C   0  0  0  0  0  0  0  0  0  0  0  0
  -24.4124   -0.7854  -12.8016 C   0  0  0  0  0  0  0  0  0  0  0  0
  -23.0369   -0.3113  -12.4362 C   0  0  0  0  0  0  0  0  0  0  0  0
  -24.7153   -1.1390  -14.1193 C   0  0  0  0  0  0  0  0  0  0  0  0
  -25.9363   -1.7562  -14.4073 C   0  0  0  0  0  0  0  0  0  0  0  0
  -26.9236   -1.8521  -13.4214 C   0  0  0  0  0  0  0  0  0  0  0  0
  -28.1346   -2.3182  -13.7630 F   0  0  0  0  0  0  0  0  0  0  0  0
  -28.0901   -3.8494   -4.7779 O   0  0  0  0  0  0  0  0  0  0  0  0
  -29.8934   -7.4272   -7.0434 C   0  0  0  0  0  0  0  0  0  0  0  0
  -31.0050   -7.2784   -6.2332 C   0  0  0  0  0  0  0  0  0  0  0  0
  -30.8608   -6.2266   -5.2739 C   0  0  0  0  0  0  0  0  0  0  0  0
  -31.7895   -5.8539   -4.3536 N   0  0  0  0  0  0  0  0  0  0  0  0
  -31.4417   -4.8267   -3.5516 C   0  0  0  0  0  0  0  0  0  0  0  0
  -30.2449   -4.1381   -3.6159 C   0  0  0  0  0  0  0  0  0  0  0  0
  -29.3033   -4.4935   -4.5852 C   0  0  0  0  0  0  0  0  0  0  0  0
  -29.6258   -5.5842   -5.4012 C   0  0  0  0  0  0  0  0  0  0  0  0
  -28.6775   -6.2956   -6.6369 S   0  0  0  0  0  0  0  0  0  0  0  0
  -29.6311   -8.3417   -8.1282 C   0  0  0  0  0  0  0  0  0  0  0  0
  -30.3359   -9.3006   -8.4580 O   0  0  0  0  0  0  0  0  0  0  0  0
  -27.7831   -9.1681   -9.2900 C   0  0  0  0  0  0  0  0  0  0  0  0
  -28.4630   -8.0345   -8.7557 O   0  0  0  0  0  0  0  0  0  0  0  0
 33 34  1  0  0  0
 34 31  1  0  0  0
 31 32  2  0  0  0
 31 22  1  0  0  0
 22 23  2  0  0  0
 22 30  1  0  0  0
 23 24  1  0  0  0
 24 25  1  0  0  0
 24 29  2  0  0  0
 25 26  2  0  0  0
 26 27  1  0  0  0
 27 28  2  0  0  0
 28 21  1  0  0  0
 28 29  1  0  0  0
 21  1  1  0  0  0
  1  2  1  0  0  0
  1  6  2  0  0  0
  2  3  2  0  0  0
  3  4  1  0  0  0
  4  5  2  0  0  0
  5  7  1  0  0  0
  5  6  1  0  0  0
  7  8  1  0  0  0
  7 11  1  0  0  0
  8  9  2  0  0  0
  8 10  1  0  0  0
 10 13  1  0  0  0
 10 12  1  0  0  0
 13 14  1  0  0  0
 13 19  2  0  0  0
 14 15  2  0  0  0
 15 16  1  0  0  0
 15 17  1  0  0  0
 17 18  2  0  0  0
 18 19  1  0  0  0
 19 20  1  0  0  0
 29 30  1  0  0  0
M  END
> <minimizedAffinity>
-10.65388

$$$$
