CHEMBL3923013


 34 37  0  0  0  0  0  0  0  0999 V2000
  -12.2434   -3.0520  -13.7019 C   0  0  0  0  0  0  0  0  0  0  0  0
  -11.7677   -1.8042  -13.2496 C   0  0  0  0  0  0  0  0  0  0  0  0
  -12.3940   -0.6163  -13.5551 C   0  0  0  0  0  0  0  0  0  0  0  0
  -12.0252    0.4805  -12.8897 N   0  0  0  0  0  0  0  0  0  0  0  0
  -12.7234    1.5866  -13.1483 C   0  0  0  0  0  0  0  0  0  0  0  0
  -13.7178    1.6923  -14.0315 N   0  0  0  0  0  0  0  0  0  0  0  0
  -14.0571    0.5824  -14.7140 C   0  0  0  0  0  0  0  0  0  0  0  0
  -13.4139   -0.6403  -14.4961 C   0  0  0  0  0  0  0  0  0  0  0  0
  -13.7414   -1.8530  -15.1325 C   0  0  0  0  0  0  0  0  0  0  0  0
  -13.1991   -3.0719  -14.7216 C   0  0  0  0  0  0  0  0  0  0  0  0
  -15.1073    0.6302  -15.6693 N   0  0  0  0  0  0  0  0  0  0  0  0
  -15.2572   -0.3008  -16.0466 H   0  0  0  0  0  0  0  0  0  0  0  0
  -16.2997    1.3698  -15.5880 C   0  0  0  0  0  0  0  0  0  0  0  0
  -16.3380    2.7457  -15.8213 C   0  0  0  0  0  0  0  0  0  0  0  0
  -17.5345    3.4563  -15.7213 C   0  0  0  0  0  0  0  0  0  0  0  0
  -18.7190    2.7849  -15.4290 C   0  0  0  0  0  0  0  0  0  0  0  0
  -20.1578    3.7288  -15.2782 Cl  0  0  0  0  0  0  0  0  0  0  0  0
  -18.7102    1.3963  -15.2747 C   0  0  0  0  0  0  0  0  0  0  0  0
  -20.1442    0.4875  -14.9632 Cl  0  0  0  0  0  0  0  0  0  0  0  0
  -17.5063    0.6930  -15.3650 C   0  0  0  0  0  0  0  0  0  0  0  0
  -13.7848   -4.0843  -15.4160 O   0  0  0  0  0  0  0  0  0  0  0  0
  -13.2939   -4.5477  -16.6547 C   0  0  0  0  0  0  0  0  0  0  0  0
  -11.8524   -4.2124  -13.0946 O   0  0  0  0  0  0  0  0  0  0  0  0
  -12.8876   -5.1643  -12.7146 C   0  0  0  0  0  0  0  0  0  0  0  0
  -15.0483   -5.1734  -10.2012 N   0  0  0  0  0  0  0  0  0  0  0  0
  -14.2819   -4.2849   -9.3070 C   0  0  0  0  0  0  0  0  0  0  0  0
  -12.9591   -3.7828   -9.9091 C   0  0  0  0  0  0  0  0  0  0  0  0
  -12.1207   -4.8470  -10.3622 O   0  0  0  0  0  0  0  0  0  0  0  0
  -12.7857   -5.7441  -11.2679 C   0  0  0  0  0  0  0  0  0  0  0  0
  -14.1441   -6.2264  -10.6850 C   0  0  0  0  0  0  0  0  0  0  0  0
  -15.7882   -4.4340  -11.2369 C   0  0  0  0  0  0  0  0  0  0  0  0
  -16.7432   -5.2821  -12.1010 C   0  0  0  0  0  0  0  0  0  0  0  0
  -16.0221   -6.3782  -14.0630 C   0  0  0  0  0  0  0  0  0  0  0  0
  -16.3993   -5.1419  -13.4782 O   0  0  0  0  0  0  0  0  0  0  0  0
 33 34  1  0  0  0
 34 32  1  0  0  0
 32 31  1  0  0  0
 31 25  1  0  0  0
 25 26  1  0  0  0
 25 30  1  0  0  0
 26 27  1  0  0  0
 27 28  1  0  0  0
 28 29  1  0  0  0
 29 24  1  0  0  0
 29 30  1  0  0  0
 24 23  1  0  0  0
 23  1  1  0  0  0
  1  2  1  0  0  0
  1 10  2  0  0  0
  2  3  2  0  0  0
  3  4  1  0  0  0
  3  8  1  0  0  0
  4  5  2  0  0  0
  5  6  1  0  0  0
  6  7  2  0  0  0
  7 11  1  0  0  0
  7  8  1  0  0  0
 11 13  1  0  0  0
 11 12  1  0  0  0
 13 14  1  0  0  0
 13 20  2  0  0  0
 14 15  2  0  0  0
 15 16  1  0  0  0
 16 17  1  0  0  0
 16 18  2  0  0  0
 18 19  1  0  0  0
 18 20  1  0  0  0
  8  9  2  0  0  0
  9 10  1  0  0  0
 10 21  1  0  0  0
 21 22  1  0  0  0
M  END
> <minimizedAffinity>
-7.20358

$$$$
