CHEMBL3656105


 42 45  0  0  0  0  0  0  0  0999 V2000
  -22.4285   -0.6806  -14.3050 O   0  0  0  0  0  0  0  0  0  0  0  0
  -25.9080   -1.6676  -12.2024 C   0  0  0  0  0  0  0  0  0  0  0  0
  -25.9642   -1.5343  -13.5943 C   0  0  0  0  0  0  0  0  0  0  0  0
  -24.8166   -1.2270  -14.3253 C   0  0  0  0  0  0  0  0  0  0  0  0
  -23.6104   -0.9896  -13.6646 C   0  0  0  0  0  0  0  0  0  0  0  0
  -23.5507   -1.1268  -12.2738 C   0  0  0  0  0  0  0  0  0  0  0  0
  -24.7025   -1.4400  -11.5375 C   0  0  0  0  0  0  0  0  0  0  0  0
  -28.1475   -2.5529   -9.4922 N   0  0  0  0  0  0  0  0  0  0  0  0
  -27.0248   -2.0094  -10.0912 C   0  0  0  0  0  0  0  0  0  0  0  0
  -26.1157   -1.4332   -9.5002 O   0  0  0  0  0  0  0  0  0  0  0  0
  -27.0498   -2.1102  -11.4824 N   0  0  0  0  0  0  0  0  0  0  0  0
  -28.8993   -2.8371  -10.1007 H   0  0  0  0  0  0  0  0  0  0  0  0
  -27.9437   -1.8833  -11.8921 H   0  0  0  0  0  0  0  0  0  0  0  0
  -27.7942   -0.1675   -5.1635 C   0  0  0  0  0  0  0  0  0  0  0  0
  -28.1935   -1.3835   -5.9496 C   0  0  0  0  0  0  0  0  0  0  0  0
  -28.7226   -2.4933   -5.2833 C   0  0  0  0  0  0  0  0  0  0  0  0
  -29.1253   -3.6082   -6.0057 C   0  0  0  0  0  0  0  0  0  0  0  0
  -28.9872   -3.6303   -7.3911 C   0  0  0  0  0  0  0  0  0  0  0  0
  -29.5310   -4.6833   -8.0130 F   0  0  0  0  0  0  0  0  0  0  0  0
  -28.4002   -2.5627   -8.0902 C   0  0  0  0  0  0  0  0  0  0  0  0
  -28.0361   -1.4234   -7.3514 C   0  0  0  0  0  0  0  0  0  0  0  0
  -21.9734    0.6205  -14.2952 C   0  0  0  0  0  0  0  0  0  0  0  0
  -22.7259    1.7043  -13.8551 C   0  0  0  0  0  0  0  0  0  0  0  0
  -22.1638    2.9652  -13.9385 C   0  0  0  0  0  0  0  0  0  0  0  0
  -20.9084    3.2050  -14.3739 N   0  0  0  0  0  0  0  0  0  0  0  0
  -20.1730    2.1267  -14.7373 C   0  0  0  0  0  0  0  0  0  0  0  0
  -20.6613    0.8258  -14.7075 C   0  0  0  0  0  0  0  0  0  0  0  0
  -18.8150    2.4406  -15.1707 C   0  0  0  0  0  0  0  0  0  0  0  0
  -17.7289    1.6270  -15.4435 C   0  0  0  0  0  0  0  0  0  0  0  0
  -16.6164    2.4384  -15.8227 C   0  0  0  0  0  0  0  0  0  0  0  0
  -17.0771    3.7423  -15.7770 C   0  0  0  0  0  0  0  0  0  0  0  0
  -18.3917    3.7321  -15.3920 N   0  0  0  0  0  0  0  0  0  0  0  0
  -18.9905    4.5407  -15.2750 H   0  0  0  0  0  0  0  0  0  0  0  0
  -15.2542    2.0416  -16.1900 C   0  0  0  0  0  0  0  0  0  0  0  0
  -14.2595    2.6766  -15.8536 O   0  0  0  0  0  0  0  0  0  0  0  0
  -15.1783    0.8954  -16.9401 N   0  0  0  0  0  0  0  0  0  0  0  0
  -16.0150    0.3881  -17.2018 H   0  0  0  0  0  0  0  0  0  0  0  0
  -13.9126    0.3477  -17.3676 C   0  0  0  0  0  0  0  0  0  0  0  0
  -13.9999   -0.0791  -18.8265 C   0  0  0  0  0  0  0  0  0  0  0  0
  -14.0755    0.7030  -19.7669 O   0  0  0  0  0  0  0  0  0  0  0  0
  -13.9941   -1.4224  -18.9971 O   0  0  0  0  0  0  0  0  0  0  0  0
  -13.9264   -1.9326  -18.1661 H   0  0  0  0  0  0  0  0  0  0  0  0
 14 15  1  0  0  0
 15 16  1  0  0  0
 15 21  2  0  0  0
 16 17  2  0  0  0
 17 18  1  0  0  0
 18 19  1  0  0  0
 18 20  2  0  0  0
 20  8  1  0  0  0
 20 21  1  0  0  0
  8  9  1  0  0  0
  8 12  1  0  0  0
  9 10  2  0  0  0
  9 11  1  0  0  0
 11  2  1  0  0  0
 11 13  1  0  0  0
  2  3  1  0  0  0
  2  7  2  0  0  0
  3  4  2  0  0  0
  4  5  1  0  0  0
  5  1  1  0  0  0
  5  6  2  0  0  0
  1 22  1  0  0  0
 22 23  1  0  0  0
 22 27  2  0  0  0
 23 24  2  0  0  0
 24 25  1  0  0  0
 25 26  2  0  0  0
 26 28  1  0  0  0
 26 27  1  0  0  0
 28 29  2  0  0  0
 28 32  1  0  0  0
 29 30  1  0  0  0
 30 34  1  0  0  0
 30 31  2  0  0  0
 34 35  2  0  0  0
 34 36  1  0  0  0
 36 38  1  0  0  0
 36 37  1  0  0  0
 38 39  1  0  0  0
 39 40  2  0  0  0
 39 41  1  0  0  0
 41 42  1  0  0  0
 31 32  1  0  0  0
 32 33  1  0  0  0
  6  7  1  0  0  0
M  END
> <minimizedAffinity>
-12.04132

$$$$
