CHEMBL1987815


 19 21  0  0  0  0  0  0  0  0999 V2000
  -30.5524   -4.7885   -4.5951 C   0  0  0  0  0  0  0  0  0  0  0  0
  -30.3010   -3.3284   -4.4353 C   0  0  0  0  0  0  0  0  0  0  0  0
  -29.5472   -2.7313   -5.3805 C   0  0  0  0  0  0  0  0  0  0  0  0
  -29.0906   -3.5129   -6.4660 N   0  0  0  0  0  0  0  0  0  0  0  0
  -28.3339   -3.1370   -7.5397 N   0  0  0  0  0  0  0  0  0  0  0  0
  -28.1762   -4.2471   -8.2578 C   0  0  0  0  0  0  0  0  0  0  0  0
  -28.8154   -5.3558   -7.6928 C   0  0  0  0  0  0  0  0  0  0  0  0
  -29.4011   -4.8849   -6.5407 C   0  0  0  0  0  0  0  0  0  0  0  0
  -30.1379   -5.5290   -5.5863 N   0  0  0  0  0  0  0  0  0  0  0  0
  -30.7909   -6.5904   -2.9623 N   0  0  0  0  0  0  0  0  0  0  0  0
  -31.3561   -5.4578   -3.4731 C   0  0  0  0  0  0  0  0  0  0  0  0
  -32.4092   -4.9900   -3.0730 O   0  0  0  0  0  0  0  0  0  0  0  0
  -31.2409   -7.0710   -2.1971 H   0  0  0  0  0  0  0  0  0  0  0  0
  -29.9018   -6.9161   -3.3246 H   0  0  0  0  0  0  0  0  0  0  0  0
  -29.2344   -1.3302   -5.2643 C   0  0  0  0  0  0  0  0  0  0  0  0
  -30.0383   -0.2257   -5.5167 C   0  0  0  0  0  0  0  0  0  0  0  0
  -29.3785    1.0225   -5.3184 C   0  0  0  0  0  0  0  0  0  0  0  0
  -28.0771    0.8550   -4.9139 C   0  0  0  0  0  0  0  0  0  0  0  0
  -27.6526   -0.7904   -4.7967 S   0  0  0  0  0  0  0  0  0  0  0  0
 10 11  1  0  0  0
 10 13  1  0  0  0
 10 14  1  0  0  0
 11 12  2  0  0  0
 11  1  1  0  0  0
  1  2  1  0  0  0
  1  9  2  0  0  0
  2  3  2  0  0  0
  3 15  1  0  0  0
  3  4  1  0  0  0
 15 16  2  0  0  0
 15 19  1  0  0  0
 16 17  1  0  0  0
 17 18  2  0  0  0
 18 19  1  0  0  0
  4  5  1  0  0  0
  4  8  1  0  0  0
  5  6  2  0  0  0
  6  7  1  0  0  0
  7  8  2  0  0  0
  8  9  1  0  0  0
M  END
> <minimizedAffinity>
-7.01909

$$$$
