CHEMBL3694680


 37 40  0  0  0  0  0  0  0  0999 V2000
  -27.6282   -2.1775   -8.8186 C   0  0  0  0  0  0  0  0  0  0  0  0
  -28.2519   -3.4865   -8.5805 C   0  0  0  0  0  0  0  0  0  0  0  0
  -28.9056   -3.7295   -7.4321 C   0  0  0  0  0  0  0  0  0  0  0  0
  -28.9628   -2.7503   -6.4353 N   0  0  0  0  0  0  0  0  0  0  0  0
  -29.5001   -2.7709   -5.1445 C   0  0  0  0  0  0  0  0  0  0  0  0
  -29.2963   -1.4753   -4.6904 C   0  0  0  0  0  0  0  0  0  0  0  0
  -28.6351   -0.6965   -5.6005 N   0  0  0  0  0  0  0  0  0  0  0  0
  -28.4208   -1.4809   -6.6319 C   0  0  0  0  0  0  0  0  0  0  0  0
  -27.7460   -1.2225   -7.8627 C   0  0  0  0  0  0  0  0  0  0  0  0
  -30.0791   -3.9264   -4.4318 C   0  0  0  0  0  0  0  0  0  0  0  0
  -31.4594   -4.0003   -4.2093 C   0  0  0  0  0  0  0  0  0  0  0  0
  -32.0192   -5.0701   -3.5234 C   0  0  0  0  0  0  0  0  0  0  0  0
  -31.2191   -6.1318   -3.1189 C   0  0  0  0  0  0  0  0  0  0  0  0
  -29.8522   -6.1483   -3.3984 C   0  0  0  0  0  0  0  0  0  0  0  0
  -29.2808   -5.0222   -4.0259 C   0  0  0  0  0  0  0  0  0  0  0  0
  -29.0301   -7.2637   -3.0896 N   0  0  0  0  0  0  0  0  0  0  0  0
  -28.2466   -7.9662   -3.9820 C   0  0  0  0  0  0  0  0  0  0  0  0
  -28.1159   -7.7547   -5.1805 O   0  0  0  0  0  0  0  0  0  0  0  0
  -27.5915   -9.0291   -3.4006 N   0  0  0  0  0  0  0  0  0  0  0  0
  -28.9874   -7.5468   -2.1223 H   0  0  0  0  0  0  0  0  0  0  0  0
  -27.3220   -8.9267   -2.4329 H   0  0  0  0  0  0  0  0  0  0  0  0
  -26.7160   -9.8528   -4.2524 C   0  0  0  0  0  0  0  0  0  0  0  0
  -25.2116   -9.5436   -4.1895 C   0  0  0  0  0  0  0  0  0  0  0  0
  -24.5289  -10.4722   -3.4812 F   0  0  0  0  0  0  0  0  0  0  0  0
  -24.6897   -9.5489   -5.4433 F   0  0  0  0  0  0  0  0  0  0  0  0
  -24.9534   -8.3310   -3.6576 F   0  0  0  0  0  0  0  0  0  0  0  0
  -26.1895   -1.3661  -12.2716 C   0  0  0  0  0  0  0  0  0  0  0  0
  -25.2275   -1.2244  -11.3882 N   0  0  0  0  0  0  0  0  0  0  0  0
  -25.6393   -1.4819  -10.1008 N   0  0  0  0  0  0  0  0  0  0  0  0
  -26.9172   -1.8095  -10.0169 C   0  0  0  0  0  0  0  0  0  0  0  0
  -27.6965   -1.7956  -11.5679 S   0  0  0  0  0  0  0  0  0  0  0  0
  -26.0655   -1.2226  -13.6133 N   0  0  0  0  0  0  0  0  0  0  0  0
  -26.8538   -1.5405  -14.1746 H   0  0  0  0  0  0  0  0  0  0  0  0
  -24.7894   -1.5918  -14.2266 C   0  0  0  0  0  0  0  0  0  0  0  0
  -23.9206   -0.3447  -14.4358 C   0  0  0  0  0  0  0  0  0  0  0  0
  -21.8348    0.5940  -13.8458 C   0  0  0  0  0  0  0  0  0  0  0  0
  -22.6228   -0.5891  -13.8742 O   0  0  0  0  0  0  0  0  0  0  0  0
 36 37  1  0  0  0
 37 35  1  0  0  0
 35 34  1  0  0  0
 34 32  1  0  0  0
 32 27  1  0  0  0
 32 33  1  0  0  0
 27 28  2  0  0  0
 27 31  1  0  0  0
 28 29  1  0  0  0
 29 30  2  0  0  0
 30  1  1  0  0  0
 30 31  1  0  0  0
  1  2  1  0  0  0
  1  9  2  0  0  0
  2  3  2  0  0  0
  3  4  1  0  0  0
  4  5  1  0  0  0
  4  8  1  0  0  0
  5 10  1  0  0  0
  5  6  2  0  0  0
 10 11  1  0  0  0
 10 15  2  0  0  0
 11 12  2  0  0  0
 12 13  1  0  0  0
 13 14  2  0  0  0
 14 16  1  0  0  0
 14 15  1  0  0  0
 16 17  1  0  0  0
 16 20  1  0  0  0
 17 18  2  0  0  0
 17 19  1  0  0  0
 19 22  1  0  0  0
 19 21  1  0  0  0
 22 23  1  0  0  0
 23 24  1  0  0  0
 23 25  1  0  0  0
 23 26  1  0  0  0
  6  7  1  0  0  0
  7  8  2  0  0  0
  8  9  1  0  0  0
M  END
> <minimizedAffinity>
-8.99800

$$$$
