CHEMBL3910983


 38 41  0  0  0  0  0  0  0  0999 V2000
  -15.1158   -0.1138  -14.0113 C   0  0  0  0  0  0  0  0  0  0  0  0
  -16.2163    0.3217  -13.2729 C   0  0  0  0  0  0  0  0  0  0  0  0
  -17.2024    1.1184  -13.8597 C   0  0  0  0  0  0  0  0  0  0  0  0
  -17.1382    1.4475  -15.2146 C   0  0  0  0  0  0  0  0  0  0  0  0
  -16.0244    1.0562  -15.9584 C   0  0  0  0  0  0  0  0  0  0  0  0
  -15.0294    0.2824  -15.3525 C   0  0  0  0  0  0  0  0  0  0  0  0
  -13.9667   -0.0937  -16.0831 F   0  0  0  0  0  0  0  0  0  0  0  0
  -15.2421   -2.8574  -13.0565 O   0  0  0  0  0  0  0  0  0  0  0  0
  -14.2060   -2.2096  -12.9967 C   0  0  0  0  0  0  0  0  0  0  0  0
  -13.0352   -2.6696  -12.4163 N   0  0  0  0  0  0  0  0  0  0  0  0
  -14.0740   -0.9139  -13.4737 N   0  0  0  0  0  0  0  0  0  0  0  0
  -12.3050   -1.9917  -12.2618 H   0  0  0  0  0  0  0  0  0  0  0  0
  -13.1509   -0.5073  -13.5093 H   0  0  0  0  0  0  0  0  0  0  0  0
  -12.8653   -3.9341  -11.7993 C   0  0  0  0  0  0  0  0  0  0  0  0
  -12.6186   -4.1040  -10.4352 C   0  0  0  0  0  0  0  0  0  0  0  0
  -12.3795   -5.3736   -9.9057 C   0  0  0  0  0  0  0  0  0  0  0  0
  -12.4127   -6.4959  -10.7288 C   0  0  0  0  0  0  0  0  0  0  0  0
  -12.7422   -6.3569  -12.0743 C   0  0  0  0  0  0  0  0  0  0  0  0
  -12.9403   -5.0739  -12.6079 C   0  0  0  0  0  0  0  0  0  0  0  0
  -12.8442   -7.3706  -12.9778 O   0  0  0  0  0  0  0  0  0  0  0  0
  -13.9954   -8.2053  -12.9688 C   0  0  0  0  0  0  0  0  0  0  0  0
  -15.1482   -7.5657  -12.6826 F   0  0  0  0  0  0  0  0  0  0  0  0
  -14.1282   -8.7560  -14.1970 F   0  0  0  0  0  0  0  0  0  0  0  0
  -13.8167   -9.2040  -12.0780 F   0  0  0  0  0  0  0  0  0  0  0  0
  -18.1164    2.1794  -15.8580 O   0  0  0  0  0  0  0  0  0  0  0  0
  -19.3569    2.2980  -15.2561 C   0  0  0  0  0  0  0  0  0  0  0  0
  -19.8502    3.5033  -14.7628 C   0  0  0  0  0  0  0  0  0  0  0  0
  -21.1213    3.5085  -14.2367 C   0  0  0  0  0  0  0  0  0  0  0  0
  -21.8782    2.4039  -14.1249 N   0  0  0  0  0  0  0  0  0  0  0  0
  -21.3790    1.2264  -14.5380 C   0  0  0  0  0  0  0  0  0  0  0  0
  -20.1147    1.1318  -15.1143 C   0  0  0  0  0  0  0  0  0  0  0  0
  -22.1500    0.0571  -14.3799 N   0  0  0  0  0  0  0  0  0  0  0  0
  -22.5253   -0.4489  -13.1517 C   0  0  0  0  0  0  0  0  0  0  0  0
  -22.3128    0.0215  -12.0421 O   0  0  0  0  0  0  0  0  0  0  0  0
  -22.4121   -0.4439  -15.2126 H   0  0  0  0  0  0  0  0  0  0  0  0
  -23.2579   -1.7528  -13.2450 C   0  0  0  0  0  0  0  0  0  0  0  0
  -24.7702   -1.7727  -13.3406 C   0  0  0  0  0  0  0  0  0  0  0  0
  -24.1000   -2.2031  -12.0697 C   0  0  0  0  0  0  0  0  0  0  0  0
  8  9  2  0  0  0
  9 10  1  0  0  0
  9 11  1  0  0  0
 10 14  1  0  0  0
 10 12  1  0  0  0
 14 15  1  0  0  0
 14 19  2  0  0  0
 15 16  2  0  0  0
 16 17  1  0  0  0
 17 18  2  0  0  0
 18 20  1  0  0  0
 18 19  1  0  0  0
 20 21  1  0  0  0
 21 22  1  0  0  0
 21 23  1  0  0  0
 21 24  1  0  0  0
 11  1  1  0  0  0
 11 13  1  0  0  0
  1  2  1  0  0  0
  1  6  2  0  0  0
  2  3  2  0  0  0
  3  4  1  0  0  0
  4 25  1  0  0  0
  4  5  2  0  0  0
 25 26  1  0  0  0
 26 27  1  0  0  0
 26 31  2  0  0  0
 27 28  2  0  0  0
 28 29  1  0  0  0
 29 30  2  0  0  0
 30 32  1  0  0  0
 30 31  1  0  0  0
 32 33  1  0  0  0
 32 35  1  0  0  0
 33 34  2  0  0  0
 33 36  1  0  0  0
 36 37  1  0  0  0
 36 38  1  0  0  0
 37 38  1  0  0  0
  5  6  1  0  0  0
  6  7  1  0  0  0
M  END
> <minimizedAffinity>
-9.07153

$$$$
