CHEMBL255282


 32 37  0  0  0  0  0  0  0  0999 V2000
  -28.7280   -1.7598   -6.3874 C   0  0  0  0  0  0  0  0  0  0  0  0
  -28.2347   -1.8124   -7.6930 C   0  0  0  0  0  0  0  0  0  0  0  0
  -27.9749   -3.0250   -8.3071 C   0  0  0  0  0  0  0  0  0  0  0  0
  -28.1986   -4.1843   -7.5580 C   0  0  0  0  0  0  0  0  0  0  0  0
  -28.5331   -4.1679   -6.1997 C   0  0  0  0  0  0  0  0  0  0  0  0
  -28.8705   -2.9333   -5.6195 C   0  0  0  0  0  0  0  0  0  0  0  0
  -28.3920   -5.5064   -5.8572 C   0  0  0  0  0  0  0  0  0  0  0  0
  -28.5566   -6.1421   -4.6239 C   0  0  0  0  0  0  0  0  0  0  0  0
  -28.3114   -7.6685   -4.6268 C   0  0  0  0  0  0  0  0  0  0  0  0
  -28.2110   -8.3902   -5.9698 C   0  0  0  0  0  0  0  0  0  0  0  0
  -29.1273   -7.5958   -6.6543 C   0  0  0  0  0  0  0  0  0  0  0  0
  -28.5310   -6.3361   -6.9212 C   0  0  0  0  0  0  0  0  0  0  0  0
  -28.1265   -5.5169   -7.9640 N   0  0  0  0  0  0  0  0  0  0  0  0
  -27.4802   -5.8214   -9.2338 C   0  0  0  0  0  0  0  0  0  0  0  0
  -30.1263   -8.4243   -7.3733 C   0  0  0  0  0  0  0  0  0  0  0  0
  -29.3714   -8.3703   -8.6145 C   0  0  0  0  0  0  0  0  0  0  0  0
  -28.3243   -9.3314   -8.3726 C   0  0  0  0  0  0  0  0  0  0  0  0
  -28.1633   -9.9620   -9.4990 N   0  0  0  0  0  0  0  0  0  0  0  0
  -27.8673  -11.1276   -9.0306 N   0  0  0  0  0  0  0  0  0  0  0  0
  -27.9882  -12.0860  -10.1298 C   0  0  0  0  0  0  0  0  0  0  0  0
  -27.1716  -10.8132   -7.8021 C   0  0  0  0  0  0  0  0  0  0  0  0
  -27.6273   -9.7089   -6.9403 C   0  0  0  0  0  0  0  0  0  0  0  0
  -29.0225   -7.9973   -3.3481 C   0  0  0  0  0  0  0  0  0  0  0  0
  -29.4306   -9.0431   -2.8554 O   0  0  0  0  0  0  0  0  0  0  0  0
  -29.3774   -6.7641   -2.7057 N   0  0  0  0  0  0  0  0  0  0  0  0
  -29.2939   -5.5754   -3.5020 C   0  0  0  0  0  0  0  0  0  0  0  0
  -30.0094   -6.7701   -1.9133 H   0  0  0  0  0  0  0  0  0  0  0  0
  -30.3024    0.0303   -6.0384 N   0  0  0  0  0  0  0  0  0  0  0  0
  -29.1084   -0.4355   -5.8165 C   0  0  0  0  0  0  0  0  0  0  0  0
  -28.0384    0.2944   -5.0202 C   0  0  0  0  0  0  0  0  0  0  0  0
  -31.1356    2.1481   -6.3405 C   0  0  0  0  0  0  0  0  0  0  0  0
  -30.4809    1.2772   -5.4314 O   0  0  0  0  0  0  0  0  0  0  0  0
 31 32  1  0  0  0
 32 28  1  0  0  0
 28 29  2  0  0  0
 29 30  1  0  0  0
 29  1  1  0  0  0
  1  2  1  0  0  0
  1  6  2  0  0  0
  2  3  2  0  0  0
  3  4  1  0  0  0
  4  5  2  0  0  0
  4 13  1  0  0  0
  5  6  1  0  0  0
  5  7  1  0  0  0
  7  8  1  0  0  0
  7 12  2  0  0  0
  8  9  2  0  0  0
  8 26  1  0  0  0
  9 10  1  0  0  0
  9 23  1  0  0  0
 10 11  2  0  0  0
 10 22  1  0  0  0
 11 12  1  0  0  0
 11 15  1  0  0  0
 12 13  1  0  0  0
 13 14  1  0  0  0
 15 16  1  0  0  0
 16 17  1  0  0  0
 17 18  2  0  0  0
 17 22  1  0  0  0
 18 19  1  0  0  0
 19 20  1  0  0  0
 19 21  1  0  0  0
 21 22  2  0  0  0
 23 24  2  0  0  0
 23 25  1  0  0  0
 25 26  1  0  0  0
 25 27  1  0  0  0
M  END
> <minimizedAffinity>
-6.63499

$$$$
