CHEMBL3694724


 28 31  0  0  0  0  0  0  0  0999 V2000
  -29.2964   -2.8578   -5.1564 C   0  0  0  0  0  0  0  0  0  0  0  0
  -29.1305   -1.5648   -4.6805 C   0  0  0  0  0  0  0  0  0  0  0  0
  -28.5251   -0.7456   -5.5948 N   0  0  0  0  0  0  0  0  0  0  0  0
  -28.3102   -1.5040   -6.6469 C   0  0  0  0  0  0  0  0  0  0  0  0
  -27.7156   -1.1928   -7.9069 C   0  0  0  0  0  0  0  0  0  0  0  0
  -27.5929   -2.1317   -8.8781 C   0  0  0  0  0  0  0  0  0  0  0  0
  -28.0982   -3.4868   -8.6120 C   0  0  0  0  0  0  0  0  0  0  0  0
  -28.6835   -3.7774   -7.4416 C   0  0  0  0  0  0  0  0  0  0  0  0
  -28.7737   -2.8035   -6.4473 N   0  0  0  0  0  0  0  0  0  0  0  0
  -29.6742   -6.2256   -3.4550 C   0  0  0  0  0  0  0  0  0  0  0  0
  -31.0387   -6.2288   -3.1727 C   0  0  0  0  0  0  0  0  0  0  0  0
  -31.8478   -5.1794   -3.6010 C   0  0  0  0  0  0  0  0  0  0  0  0
  -31.2900   -4.1124   -4.3016 C   0  0  0  0  0  0  0  0  0  0  0  0
  -29.9079   -4.0265   -4.5049 C   0  0  0  0  0  0  0  0  0  0  0  0
  -29.1093   -5.1063   -4.0890 C   0  0  0  0  0  0  0  0  0  0  0  0
  -27.6578   -9.2380   -3.3440 N   0  0  0  0  0  0  0  0  0  0  0  0
  -28.4924   -8.3499   -3.9591 C   0  0  0  0  0  0  0  0  0  0  0  0
  -28.8323   -8.5479   -5.1159 O   0  0  0  0  0  0  0  0  0  0  0  0
  -28.8255   -7.3065   -3.1318 N   0  0  0  0  0  0  0  0  0  0  0  0
  -27.4772  -10.0470   -3.9290 H   0  0  0  0  0  0  0  0  0  0  0  0
  -27.8599   -9.4626   -2.3822 H   0  0  0  0  0  0  0  0  0  0  0  0
  -28.2279   -7.1961   -2.3265 H   0  0  0  0  0  0  0  0  0  0  0  0
  -26.9828   -1.7766  -10.1891 C   0  0  0  0  0  0  0  0  0  0  0  0
  -27.7594   -1.7736  -11.2880 N   0  0  0  0  0  0  0  0  0  0  0  0
  -27.1548   -1.4638  -12.4502 C   0  0  0  0  0  0  0  0  0  0  0  0
  -25.8174   -1.1575  -12.5549 C   0  0  0  0  0  0  0  0  0  0  0  0
  -25.1117   -1.1869  -11.3776 C   0  0  0  0  0  0  0  0  0  0  0  0
  -25.6642   -1.4909  -10.1897 N   0  0  0  0  0  0  0  0  0  0  0  0
 16 17  1  0  0  0
 16 20  1  0  0  0
 16 21  1  0  0  0
 17 18  2  0  0  0
 17 19  1  0  0  0
 19 10  1  0  0  0
 19 22  1  0  0  0
 10 11  1  0  0  0
 10 15  2  0  0  0
 11 12  2  0  0  0
 12 13  1  0  0  0
 13 14  2  0  0  0
 14  1  1  0  0  0
 14 15  1  0  0  0
  1  2  2  0  0  0
  1  9  1  0  0  0
  2  3  1  0  0  0
  3  4  2  0  0  0
  4  5  1  0  0  0
  4  9  1  0  0  0
  5  6  2  0  0  0
  6 23  1  0  0  0
  6  7  1  0  0  0
 23 24  1  0  0  0
 23 28  2  0  0  0
 24 25  2  0  0  0
 25 26  1  0  0  0
 26 27  2  0  0  0
 27 28  1  0  0  0
  7  8  2  0  0  0
  8  9  1  0  0  0
M  END
> <minimizedAffinity>
-9.21327

$$$$
