CHEMBL1090360


 45 51  0  0  0  0  0  0  0  0999 V2000
  -28.5254   -8.3066   -8.2830 C   0  0  0  0  0  0  0  0  0  0  0  0
  -28.3439   -8.7458   -9.5884 N   0  0  0  0  0  0  0  0  0  0  0  0
  -28.0331   -9.9972   -9.4412 C   0  0  0  0  0  0  0  0  0  0  0  0
  -27.6326  -11.2836  -10.5369 S   0  0  0  0  0  0  0  0  0  0  0  0
  -27.4195  -12.3522   -9.1460 C   0  0  0  0  0  0  0  0  0  0  0  0
  -27.6562  -11.7421   -7.9754 C   0  0  0  0  0  0  0  0  0  0  0  0
  -27.9967  -10.4124   -8.1444 N   0  0  0  0  0  0  0  0  0  0  0  0
  -28.3374   -9.3401   -7.3479 C   0  0  0  0  0  0  0  0  0  0  0  0
  -28.3185   -4.5258   -8.2117 C   0  0  0  0  0  0  0  0  0  0  0  0
  -29.5530   -4.2181   -7.6420 C   0  0  0  0  0  0  0  0  0  0  0  0
  -30.4184   -5.2378   -7.2363 C   0  0  0  0  0  0  0  0  0  0  0  0
  -30.0648   -6.5753   -7.4169 C   0  0  0  0  0  0  0  0  0  0  0  0
  -28.8424   -6.9075   -8.0123 C   0  0  0  0  0  0  0  0  0  0  0  0
  -27.9830   -5.8708   -8.4063 C   0  0  0  0  0  0  0  0  0  0  0  0
  -28.6923   -2.0493   -9.8121 O   0  0  0  0  0  0  0  0  0  0  0  0
  -27.6027   -2.4373   -9.4007 C   0  0  0  0  0  0  0  0  0  0  0  0
  -27.3717   -3.5648   -8.6304 N   0  0  0  0  0  0  0  0  0  0  0  0
  -26.4304   -3.7019   -8.2913 H   0  0  0  0  0  0  0  0  0  0  0  0
  -26.3303   -1.6786   -9.7540 C   0  0  0  0  0  0  0  0  0  0  0  0
  -25.9788   -1.7283  -11.2215 C   0  0  0  0  0  0  0  0  0  0  0  0
  -26.9847   -1.7004  -12.1914 C   0  0  0  0  0  0  0  0  0  0  0  0
  -26.6576   -1.6870  -13.5490 C   0  0  0  0  0  0  0  0  0  0  0  0
  -25.3225   -1.7019  -13.9471 C   0  0  0  0  0  0  0  0  0  0  0  0
  -24.3125   -1.7329  -12.9881 C   0  0  0  0  0  0  0  0  0  0  0  0
  -24.6370   -1.7435  -11.6300 C   0  0  0  0  0  0  0  0  0  0  0  0
  -28.5430   -9.4170   -5.9041 C   0  0  0  0  0  0  0  0  0  0  0  0
  -28.8190  -10.5664   -5.2116 C   0  0  0  0  0  0  0  0  0  0  0  0
  -29.0723  -10.4066   -3.8700 C   0  0  0  0  0  0  0  0  0  0  0  0
  -29.0090   -9.2242   -3.2283 N   0  0  0  0  0  0  0  0  0  0  0  0
  -28.7067   -8.1565   -3.9741 C   0  0  0  0  0  0  0  0  0  0  0  0
  -28.4715   -8.2294   -5.2915 N   0  0  0  0  0  0  0  0  0  0  0  0
  -28.6289   -6.9159   -3.3408 N   0  0  0  0  0  0  0  0  0  0  0  0
  -28.2571   -7.0066   -2.4072 H   0  0  0  0  0  0  0  0  0  0  0  0
  -29.4836   -5.8156   -3.5456 C   0  0  0  0  0  0  0  0  0  0  0  0
  -30.8755   -5.9527   -3.4865 C   0  0  0  0  0  0  0  0  0  0  0  0
  -31.7100   -4.8861   -3.7745 C   0  0  0  0  0  0  0  0  0  0  0  0
  -31.1558   -3.6534   -4.0994 C   0  0  0  0  0  0  0  0  0  0  0  0
  -29.7684   -3.4421   -4.1188 C   0  0  0  0  0  0  0  0  0  0  0  0
  -28.9478   -4.5527   -3.8503 C   0  0  0  0  0  0  0  0  0  0  0  0
  -29.2519   -2.1919   -4.3847 N   0  0  0  0  0  0  0  0  0  0  0  0
  -29.9342   -1.2360   -5.2681 C   0  0  0  0  0  0  0  0  0  0  0  0
  -28.9853   -0.7988   -6.3895 C   0  0  0  0  0  0  0  0  0  0  0  0
  -27.7690   -0.2508   -5.8534 O   0  0  0  0  0  0  0  0  0  0  0  0
  -27.0890   -1.2390   -5.0565 C   0  0  0  0  0  0  0  0  0  0  0  0
  -27.9528   -1.7306   -3.8772 C   0  0  0  0  0  0  0  0  0  0  0  0
 15 16  2  0  0  0
 16 19  1  0  0  0
 16 17  1  0  0  0
 19 20  1  0  0  0
 20 21  1  0  0  0
 20 25  2  0  0  0
 21 22  2  0  0  0
 22 23  1  0  0  0
 23 24  2  0  0  0
 24 25  1  0  0  0
 17  9  1  0  0  0
 17 18  1  0  0  0
  9 10  1  0  0  0
  9 14  2  0  0  0
 10 11  2  0  0  0
 11 12  1  0  0  0
 12 13  2  0  0  0
 13  1  1  0  0  0
 13 14  1  0  0  0
  1  2  1  0  0  0
  1  8  2  0  0  0
  2  3  2  0  0  0
  3  4  1  0  0  0
  3  7  1  0  0  0
  4  5  1  0  0  0
  5  6  2  0  0  0
  6  7  1  0  0  0
  7  8  1  0  0  0
  8 26  1  0  0  0
 26 27  1  0  0  0
 26 31  2  0  0  0
 27 28  2  0  0  0
 28 29  1  0  0  0
 29 30  2  0  0  0
 30 32  1  0  0  0
 30 31  1  0  0  0
 32 34  1  0  0  0
 32 33  1  0  0  0
 34 35  1  0  0  0
 34 39  2  0  0  0
 35 36  2  0  0  0
 36 37  1  0  0  0
 37 38  2  0  0  0
 38 40  1  0  0  0
 38 39  1  0  0  0
 40 41  1  0  0  0
 40 45  1  0  0  0
 41 42  1  0  0  0
 42 43  1  0  0  0
 43 44  1  0  0  0
 44 45  1  0  0  0
M  END
> <minimizedAffinity>
-10.18096

$$$$
