CHEMBL1988778


 34 37  0  0  0  0  0  0  0  0999 V2000
  -15.0381   -2.4013  -12.8848 C   0  0  0  0  0  0  0  0  0  0  0  0
  -15.6290   -3.1024  -11.8384 C   0  0  0  0  0  0  0  0  0  0  0  0
  -14.8355   -3.6754  -10.8309 C   0  0  0  0  0  0  0  0  0  0  0  0
  -13.4321   -3.5948  -10.8467 C   0  0  0  0  0  0  0  0  0  0  0  0
  -12.8724   -2.8318  -11.8905 C   0  0  0  0  0  0  0  0  0  0  0  0
  -11.5442   -2.6403  -11.9570 F   0  0  0  0  0  0  0  0  0  0  0  0
  -13.6533   -2.2399  -12.8892 C   0  0  0  0  0  0  0  0  0  0  0  0
  -12.5970   -4.2285   -9.7956 C   0  0  0  0  0  0  0  0  0  0  0  0
  -12.4394   -3.5986   -8.5320 C   0  0  0  0  0  0  0  0  0  0  0  0
  -11.6885   -4.1525   -7.4958 C   0  0  0  0  0  0  0  0  0  0  0  0
  -11.0608   -5.3822   -7.6596 C   0  0  0  0  0  0  0  0  0  0  0  0
  -11.2074   -6.0112   -8.8935 C   0  0  0  0  0  0  0  0  0  0  0  0
  -10.7165   -7.2144   -9.3215 N   0  0  0  0  0  0  0  0  0  0  0  0
  -11.0356   -7.5258  -10.5780 N   0  0  0  0  0  0  0  0  0  0  0  0
  -11.7575   -6.4845  -10.9863 C   0  0  0  0  0  0  0  0  0  0  0  0
  -12.2156   -6.4400  -12.2469 N   0  0  0  0  0  0  0  0  0  0  0  0
  -11.9352   -5.4865   -9.9676 C   0  0  0  0  0  0  0  0  0  0  0  0
  -10.1492   -7.8687   -8.7953 H   0  0  0  0  0  0  0  0  0  0  0  0
  -11.8443   -7.1576  -12.8609 H   0  0  0  0  0  0  0  0  0  0  0  0
  -12.3027   -5.5412  -12.7085 H   0  0  0  0  0  0  0  0  0  0  0  0
  -17.1568   -0.2618  -14.9182 N   0  0  0  0  0  0  0  0  0  0  0  0
  -16.3230   -0.5685  -13.8532 C   0  0  0  0  0  0  0  0  0  0  0  0
  -15.9688    0.1994  -12.9745 O   0  0  0  0  0  0  0  0  0  0  0  0
  -15.8582   -1.8780  -13.9151 N   0  0  0  0  0  0  0  0  0  0  0  0
  -17.2930   -0.9826  -15.6100 H   0  0  0  0  0  0  0  0  0  0  0  0
  -15.6654   -2.2099  -14.8483 H   0  0  0  0  0  0  0  0  0  0  0  0
  -16.3917    4.4320  -16.2990 C   0  0  0  0  0  0  0  0  0  0  0  0
  -17.3296    3.3455  -15.8542 C   0  0  0  0  0  0  0  0  0  0  0  0
  -18.6841    3.6342  -15.6656 C   0  0  0  0  0  0  0  0  0  0  0  0
  -19.5598    2.6253  -15.2888 C   0  0  0  0  0  0  0  0  0  0  0  0
  -19.0899    1.3281  -15.0798 C   0  0  0  0  0  0  0  0  0  0  0  0
  -20.0263    0.4031  -14.8417 F   0  0  0  0  0  0  0  0  0  0  0  0
  -17.7294    1.0123  -15.1976 C   0  0  0  0  0  0  0  0  0  0  0  0
  -16.8591    2.0358  -15.6206 C   0  0  0  0  0  0  0  0  0  0  0  0
 27 28  1  0  0  0
 28 29  1  0  0  0
 28 34  2  0  0  0
 29 30  2  0  0  0
 30 31  1  0  0  0
 31 32  1  0  0  0
 31 33  2  0  0  0
 33 21  1  0  0  0
 33 34  1  0  0  0
 21 22  1  0  0  0
 21 25  1  0  0  0
 22 23  2  0  0  0
 22 24  1  0  0  0
 24  1  1  0  0  0
 24 26  1  0  0  0
  1  2  1  0  0  0
  1  7  2  0  0  0
  2  3  2  0  0  0
  3  4  1  0  0  0
  4  8  1  0  0  0
  4  5  2  0  0  0
  8  9  1  0  0  0
  8 17  2  0  0  0
  9 10  2  0  0  0
 10 11  1  0  0  0
 11 12  2  0  0  0
 12 13  1  0  0  0
 12 17  1  0  0  0
 13 14  1  0  0  0
 13 18  1  0  0  0
 14 15  2  0  0  0
 15 16  1  0  0  0
 15 17  1  0  0  0
 16 19  1  0  0  0
 16 20  1  0  0  0
  5  6  1  0  0  0
  5  7  1  0  0  0
M  END
> <minimizedAffinity>
-9.24077

$$$$
