CHEMBL3690382


 35 38  0  0  0  0  0  0  0  0999 V2000
  -19.6306    2.5735  -14.7046 C   0  0  0  0  0  0  0  0  0  0  0  0
  -20.2611    3.8034  -14.5752 C   0  0  0  0  0  0  0  0  0  0  0  0
  -21.5952    3.6723  -14.2960 N   0  0  0  0  0  0  0  0  0  0  0  0
  -21.8083    2.3766  -14.2406 C   0  0  0  0  0  0  0  0  0  0  0  0
  -23.0036    1.6354  -14.0054 C   0  0  0  0  0  0  0  0  0  0  0  0
  -22.9847    0.2775  -13.9487 C   0  0  0  0  0  0  0  0  0  0  0  0
  -21.7147   -0.4267  -14.1488 C   0  0  0  0  0  0  0  0  0  0  0  0
  -20.5906    0.2674  -14.3532 C   0  0  0  0  0  0  0  0  0  0  0  0
  -20.6328    1.6570  -14.4320 N   0  0  0  0  0  0  0  0  0  0  0  0
  -16.3407    0.7092  -15.1085 C   0  0  0  0  0  0  0  0  0  0  0  0
  -15.6645    1.5943  -15.9418 C   0  0  0  0  0  0  0  0  0  0  0  0
  -16.2400    2.8137  -16.3033 C   0  0  0  0  0  0  0  0  0  0  0  0
  -17.5154    3.1530  -15.8575 C   0  0  0  0  0  0  0  0  0  0  0  0
  -18.2462    2.2584  -15.0721 C   0  0  0  0  0  0  0  0  0  0  0  0
  -17.6393    1.0397  -14.7092 C   0  0  0  0  0  0  0  0  0  0  0  0
  -15.7379   -0.1627  -12.3470 O   0  0  0  0  0  0  0  0  0  0  0  0
  -15.5365   -0.8467  -13.3388 C   0  0  0  0  0  0  0  0  0  0  0  0
  -15.0006   -2.1148  -13.2344 N   0  0  0  0  0  0  0  0  0  0  0  0
  -15.8030   -0.5125  -14.6465 N   0  0  0  0  0  0  0  0  0  0  0  0
  -14.4418   -2.4107  -14.0232 H   0  0  0  0  0  0  0  0  0  0  0  0
  -15.6648   -1.2410  -15.3324 H   0  0  0  0  0  0  0  0  0  0  0  0
  -14.5201   -2.5581  -11.9179 C   0  0  0  0  0  0  0  0  0  0  0  0
  -15.5751   -3.2640  -11.0546 C   0  0  0  0  0  0  0  0  0  0  0  0
  -16.6230   -3.6944  -11.7967 F   0  0  0  0  0  0  0  0  0  0  0  0
  -15.0717   -4.3198  -10.3851 F   0  0  0  0  0  0  0  0  0  0  0  0
  -16.0775   -2.4003  -10.1376 F   0  0  0  0  0  0  0  0  0  0  0  0
  -24.2293   -0.3901  -13.6848 C   0  0  0  0  0  0  0  0  0  0  0  0
  -24.9459   -1.0870  -14.5407 N   0  0  0  0  0  0  0  0  0  0  0  0
  -26.0983   -1.6098  -13.9962 N   0  0  0  0  0  0  0  0  0  0  0  0
  -26.2445   -1.2711  -12.7270 C   0  0  0  0  0  0  0  0  0  0  0  0
  -24.9576   -0.3195  -12.1104 S   0  0  0  0  0  0  0  0  0  0  0  0
  -27.3878   -1.6450  -11.8505 C   0  0  0  0  0  0  0  0  0  0  0  0
  -27.9439   -0.5753  -11.2217 F   0  0  0  0  0  0  0  0  0  0  0  0
  -28.3934   -2.2499  -12.5433 F   0  0  0  0  0  0  0  0  0  0  0  0
  -27.0195   -2.5172  -10.8727 F   0  0  0  0  0  0  0  0  0  0  0  0
 16 17  2  0  0  0
 17 18  1  0  0  0
 17 19  1  0  0  0
 18 22  1  0  0  0
 18 20  1  0  0  0
 22 23  1  0  0  0
 23 24  1  0  0  0
 23 25  1  0  0  0
 23 26  1  0  0  0
 19 10  1  0  0  0
 19 21  1  0  0  0
 10 11  1  0  0  0
 10 15  2  0  0  0
 11 12  2  0  0  0
 12 13  1  0  0  0
 13 14  2  0  0  0
 14  1  1  0  0  0
 14 15  1  0  0  0
  1  2  2  0  0  0
  1  9  1  0  0  0
  2  3  1  0  0  0
  3  4  2  0  0  0
  4  5  1  0  0  0
  4  9  1  0  0  0
  5  6  2  0  0  0
  6 27  1  0  0  0
  6  7  1  0  0  0
 27 28  2  0  0  0
 27 31  1  0  0  0
 28 29  1  0  0  0
 29 30  2  0  0  0
 30 32  1  0  0  0
 30 31  1  0  0  0
 32 33  1  0  0  0
 32 34  1  0  0  0
 32 35  1  0  0  0
  7  8  2  0  0  0
  8  9  1  0  0  0
M  END
> <minimizedAffinity>
-10.24704

$$$$
