CHEMBL1173149


 32 35  0  0  0  0  0  0  0  0999 V2000
  -24.7502   -0.3736  -12.6113 C   0  0  0  0  0  0  0  0  0  0  0  0
  -23.7203   -1.2964  -12.8698 C   0  0  0  0  0  0  0  0  0  0  0  0
  -22.4949   -0.8722  -13.3980 C   0  0  0  0  0  0  0  0  0  0  0  0
  -22.3019    0.4822  -13.6099 C   0  0  0  0  0  0  0  0  0  0  0  0
  -23.3270    1.3923  -13.3391 C   0  0  0  0  0  0  0  0  0  0  0  0
  -24.5541    0.9930  -12.8486 C   0  0  0  0  0  0  0  0  0  0  0  0
  -22.9202    2.6879  -13.6391 N   0  0  0  0  0  0  0  0  0  0  0  0
  -21.6196    2.7142  -14.1159 C   0  0  0  0  0  0  0  0  0  0  0  0
  -21.0008    3.6964  -14.4694 O   0  0  0  0  0  0  0  0  0  0  0  0
  -21.1530    1.2741  -14.0929 C   0  0  0  0  0  0  0  0  0  0  0  0
  -19.9660    0.7143  -14.3857 C   0  0  0  0  0  0  0  0  0  0  0  0
  -23.4950    3.5139  -13.5547 H   0  0  0  0  0  0  0  0  0  0  0  0
  -27.3819   -1.7694  -10.5458 N   0  0  0  0  0  0  0  0  0  0  0  0
  -26.0905   -1.3777  -10.8567 C   0  0  0  0  0  0  0  0  0  0  0  0
  -25.1295   -1.4130  -10.0913 O   0  0  0  0  0  0  0  0  0  0  0  0
  -25.9920   -0.8728  -12.1449 N   0  0  0  0  0  0  0  0  0  0  0  0
  -28.0261   -1.8858  -11.3137 H   0  0  0  0  0  0  0  0  0  0  0  0
  -26.8174   -0.3849  -12.4613 H   0  0  0  0  0  0  0  0  0  0  0  0
  -28.6577   -2.8844   -6.6551 C   0  0  0  0  0  0  0  0  0  0  0  0
  -28.8475   -3.7479   -7.7260 C   0  0  0  0  0  0  0  0  0  0  0  0
  -28.4396   -3.3833   -9.0091 C   0  0  0  0  0  0  0  0  0  0  0  0
  -27.8360   -2.1478   -9.2591 C   0  0  0  0  0  0  0  0  0  0  0  0
  -27.6528   -1.2736   -8.1830 C   0  0  0  0  0  0  0  0  0  0  0  0
  -28.0625   -1.6416   -6.8888 C   0  0  0  0  0  0  0  0  0  0  0  0
  -29.1764   -2.0199   -4.5120 C   0  0  0  0  0  0  0  0  0  0  0  0
  -29.0133   -3.1546   -5.3616 O   0  0  0  0  0  0  0  0  0  0  0  0
  -18.7591    1.3302  -14.8041 C   0  0  0  0  0  0  0  0  0  0  0  0
  -17.4956    1.2967  -14.2359 C   0  0  0  0  0  0  0  0  0  0  0  0
  -16.6281    2.0763  -15.0351 C   0  0  0  0  0  0  0  0  0  0  0  0
  -17.3773    2.5743  -16.0734 C   0  0  0  0  0  0  0  0  0  0  0  0
  -18.6644    2.1225  -15.9237 N   0  0  0  0  0  0  0  0  0  0  0  0
  -19.4295    2.3498  -16.5534 H   0  0  0  0  0  0  0  0  0  0  0  0
 25 26  1  0  0  0
 26 19  1  0  0  0
 19 20  1  0  0  0
 19 24  2  0  0  0
 20 21  2  0  0  0
 21 22  1  0  0  0
 22 13  1  0  0  0
 22 23  2  0  0  0
 13 14  1  0  0  0
 13 17  1  0  0  0
 14 15  2  0  0  0
 14 16  1  0  0  0
 16  1  1  0  0  0
 16 18  1  0  0  0
  1  2  1  0  0  0
  1  6  2  0  0  0
  2  3  2  0  0  0
  3  4  1  0  0  0
  4  5  2  0  0  0
  4 10  1  0  0  0
  5  6  1  0  0  0
  5  7  1  0  0  0
  7  8  1  0  0  0
  7 12  1  0  0  0
  8  9  2  0  0  0
  8 10  1  0  0  0
 10 11  2  0  0  0
 11 27  1  0  0  0
 27 28  2  0  0  0
 27 31  1  0  0  0
 28 29  1  0  0  0
 29 30  2  0  0  0
 30 31  1  0  0  0
 31 32  1  0  0  0
 23 24  1  0  0  0
M  END
> <minimizedAffinity>
-9.48592

$$$$
