CHEMBL4276790


 46 51  0  0  0  0  0  0  0  0999 V2000
  -29.7982   -7.1748   -5.8922 C   0  0  0  0  0  0  0  0  0  0  0  0
  -28.9402   -6.8466   -6.9442 C   0  0  0  0  0  0  0  0  0  0  0  0
  -28.6900   -5.5155   -7.2404 C   0  0  0  0  0  0  0  0  0  0  0  0
  -29.3536   -4.5027   -6.5489 C   0  0  0  0  0  0  0  0  0  0  0  0
  -30.2173   -4.8307   -5.4978 C   0  0  0  0  0  0  0  0  0  0  0  0
  -30.4489   -6.1693   -5.1879 C   0  0  0  0  0  0  0  0  0  0  0  0
  -31.3241   -6.4755   -4.2199 F   0  0  0  0  0  0  0  0  0  0  0  0
  -29.2045   -3.1523   -6.8977 N   0  0  0  0  0  0  0  0  0  0  0  0
  -28.1296   -2.3559   -6.5484 C   0  0  0  0  0  0  0  0  0  0  0  0
  -27.1465   -2.6674   -5.8926 O   0  0  0  0  0  0  0  0  0  0  0  0
  -29.8935   -2.7546   -7.5238 H   0  0  0  0  0  0  0  0  0  0  0  0
  -28.2215   -0.9553   -7.0509 C   0  0  0  0  0  0  0  0  0  0  0  0
  -27.5787    0.1722   -6.2343 C   0  0  0  0  0  0  0  0  0  0  0  0
  -29.0657    0.0162   -6.2410 C   0  0  0  0  0  0  0  0  0  0  0  0
  -28.0615   -0.8736   -8.5216 C   0  0  0  0  0  0  0  0  0  0  0  0
  -28.6151    0.0508   -9.0969 O   0  0  0  0  0  0  0  0  0  0  0  0
  -27.2513   -1.8201   -9.1242 N   0  0  0  0  0  0  0  0  0  0  0  0
  -27.1585   -2.7221   -8.6832 H   0  0  0  0  0  0  0  0  0  0  0  0
  -26.8054   -1.6465  -10.4498 C   0  0  0  0  0  0  0  0  0  0  0  0
  -27.6809   -1.8458  -11.5275 C   0  0  0  0  0  0  0  0  0  0  0  0
  -27.2119   -1.8091  -12.8377 C   0  0  0  0  0  0  0  0  0  0  0  0
  -25.8651   -1.5716  -13.0644 C   0  0  0  0  0  0  0  0  0  0  0  0
  -25.3911   -1.6096  -14.3164 F   0  0  0  0  0  0  0  0  0  0  0  0
  -24.9977   -1.3029  -12.0080 C   0  0  0  0  0  0  0  0  0  0  0  0
  -25.4754   -1.3047  -10.6918 C   0  0  0  0  0  0  0  0  0  0  0  0
  -30.0625   -8.5106   -5.5620 O   0  0  0  0  0  0  0  0  0  0  0  0
  -27.3311   -9.8555   -5.3463 C   0  0  0  0  0  0  0  0  0  0  0  0
  -28.0860  -10.6019   -6.3887 C   0  0  0  0  0  0  0  0  0  0  0  0
  -27.6897  -11.7850   -7.0846 C   0  0  0  0  0  0  0  0  0  0  0  0
  -28.6958  -12.1291   -7.9521 C   0  0  0  0  0  0  0  0  0  0  0  0
  -29.6772  -11.2028   -7.8482 N   0  0  0  0  0  0  0  0  0  0  0  0
  -30.8090  -11.2057   -8.5681 N   0  0  0  0  0  0  0  0  0  0  0  0
  -31.6096  -10.2244   -8.2970 C   0  0  0  0  0  0  0  0  0  0  0  0
  -31.4110   -9.2423   -7.3635 N   0  0  0  0  0  0  0  0  0  0  0  0
  -30.3293   -9.3062   -6.6583 C   0  0  0  0  0  0  0  0  0  0  0  0
  -29.3414  -10.2901   -6.8976 C   0  0  0  0  0  0  0  0  0  0  0  0
  -26.5211  -12.4602   -6.9164 O   0  0  0  0  0  0  0  0  0  0  0  0
  -25.5421  -12.0875   -7.8901 C   0  0  0  0  0  0  0  0  0  0  0  0
  -24.4481  -11.2415   -7.2682 C   0  0  0  0  0  0  0  0  0  0  0  0
  -23.3214  -12.1671   -6.7981 C   0  0  0  0  0  0  0  0  0  0  0  0
  -23.0205  -12.1491   -5.3717 N   0  0  0  0  0  0  0  0  0  0  0  0
  -21.5856  -12.3089   -5.0757 C   0  0  0  0  0  0  0  0  0  0  0  0
  -21.3766  -12.4250   -3.5607 C   0  0  0  0  0  0  0  0  0  0  0  0
  -21.8805  -11.2655   -2.8799 O   0  0  0  0  0  0  0  0  0  0  0  0
  -23.2740  -11.0786   -3.1719 C   0  0  0  0  0  0  0  0  0  0  0  0
  -23.5173  -10.9457   -4.6833 C   0  0  0  0  0  0  0  0  0  0  0  0
 27 28  1  0  0  0
 28 29  1  0  0  0
 28 36  2  0  0  0
 29 37  1  0  0  0
 29 30  2  0  0  0
 37 38  1  0  0  0
 38 39  1  0  0  0
 39 40  1  0  0  0
 40 41  1  0  0  0
 41 42  1  0  0  0
 41 46  1  0  0  0
 42 43  1  0  0  0
 43 44  1  0  0  0
 44 45  1  0  0  0
 45 46  1  0  0  0
 30 31  1  0  0  0
 31 32  1  0  0  0
 31 36  1  0  0  0
 32 33  2  0  0  0
 33 34  1  0  0  0
 34 35  2  0  0  0
 35 26  1  0  0  0
 35 36  1  0  0  0
 26  1  1  0  0  0
  1  2  1  0  0  0
  1  6  2  0  0  0
  2  3  2  0  0  0
  3  4  1  0  0  0
  4  8  1  0  0  0
  4  5  2  0  0  0
  8  9  1  0  0  0
  8 11  1  0  0  0
  9 10  2  0  0  0
  9 12  1  0  0  0
 12 15  1  0  0  0
 12 13  1  0  0  0
 12 14  1  0  0  0
 15 16  2  0  0  0
 15 17  1  0  0  0
 17 19  1  0  0  0
 17 18  1  0  0  0
 19 20  1  0  0  0
 19 25  2  0  0  0
 20 21  2  0  0  0
 21 22  1  0  0  0
 22 23  1  0  0  0
 22 24  2  0  0  0
 24 25  1  0  0  0
 13 14  1  0  0  0
  5  6  1  0  0  0
  6  7  1  0  0  0
M  END
> <minimizedAffinity>
-8.23118

$$$$
