CHEMBL3099455


 46 49  0  0  0  0  0  0  0  0999 V2000
  -26.9596  -10.0095   -4.5037 C   0  0  0  0  0  0  0  0  0  0  0  0
  -27.5634   -8.7400   -4.6400 C   0  0  0  0  0  0  0  0  0  0  0  0
  -28.8461   -8.4264   -4.1899 C   0  0  0  0  0  0  0  0  0  0  0  0
  -29.5778   -9.4116   -3.5448 C   0  0  0  0  0  0  0  0  0  0  0  0
  -29.0481  -10.7106   -3.4186 C   0  0  0  0  0  0  0  0  0  0  0  0
  -27.7417  -11.0172   -3.8869 C   0  0  0  0  0  0  0  0  0  0  0  0
  -24.0838  -11.0239   -6.8419 C   0  0  0  0  0  0  0  0  0  0  0  0
  -25.3556  -10.7172   -6.3365 C   0  0  0  0  0  0  0  0  0  0  0  0
  -25.5664  -10.1637   -5.0460 C   0  0  0  0  0  0  0  0  0  0  0  0
  -24.4172   -9.8878   -4.2949 C   0  0  0  0  0  0  0  0  0  0  0  0
  -23.1334  -10.1074   -4.8191 C   0  0  0  0  0  0  0  0  0  0  0  0
  -22.9586  -10.6542   -6.0996 C   0  0  0  0  0  0  0  0  0  0  0  0
  -21.5636  -10.7792   -6.6319 C   0  0  0  0  0  0  0  0  0  0  0  0
  -20.8314  -12.1029   -6.4754 C   0  0  0  0  0  0  0  0  0  0  0  0
  -21.0364   -9.7692   -7.2664 N   0  0  0  0  0  0  0  0  0  0  0  0
  -19.7497  -10.0735   -7.7238 O   0  0  0  0  0  0  0  0  0  0  0  0
  -19.4910   -9.2523   -8.1824 H   0  0  0  0  0  0  0  0  0  0  0  0
  -24.9659  -11.9176   -8.8843 C   0  0  0  0  0  0  0  0  0  0  0  0
  -23.8780  -11.7549   -7.9828 O   0  0  0  0  0  0  0  0  0  0  0  0
  -29.3814   -7.1226   -4.3429 N   0  0  0  0  0  0  0  0  0  0  0  0
  -29.0164   -6.2713   -5.3694 C   0  0  0  0  0  0  0  0  0  0  0  0
  -28.3360   -6.6040   -6.3343 O   0  0  0  0  0  0  0  0  0  0  0  0
  -29.4673   -4.9763   -5.1723 N   0  0  0  0  0  0  0  0  0  0  0  0
  -30.2492   -6.9081   -3.8749 H   0  0  0  0  0  0  0  0  0  0  0  0
  -29.4672   -4.6878   -4.2051 H   0  0  0  0  0  0  0  0  0  0  0  0
  -29.1515   -3.9847   -6.1382 C   0  0  0  0  0  0  0  0  0  0  0  0
  -29.5055   -4.2012   -7.4821 C   0  0  0  0  0  0  0  0  0  0  0  0
  -29.0951   -3.3216   -8.4820 C   0  0  0  0  0  0  0  0  0  0  0  0
  -28.3595   -2.1926   -8.1411 C   0  0  0  0  0  0  0  0  0  0  0  0
  -28.0303   -1.9588   -6.8026 C   0  0  0  0  0  0  0  0  0  0  0  0
  -28.4239   -2.8414   -5.7824 C   0  0  0  0  0  0  0  0  0  0  0  0
  -27.9417   -2.5964   -4.3825 C   0  0  0  0  0  0  0  0  0  0  0  0
  -27.8707   -1.2814   -9.0297 O   0  0  0  0  0  0  0  0  0  0  0  0
  -27.2399   -1.8096  -10.1956 C   0  0  0  0  0  0  0  0  0  0  0  0
  -27.2623   -0.7354  -11.2817 C   0  0  0  0  0  0  0  0  0  0  0  0
  -26.0485   -0.8911  -12.2103 C   0  0  0  0  0  0  0  0  0  0  0  0
  -24.7563   -0.5482  -11.5926 N   0  0  0  0  0  0  0  0  0  0  0  0
  -24.0618    0.4880  -12.4011 C   0  0  0  0  0  0  0  0  0  0  0  0
  -23.4801   -0.0410  -13.7254 C   0  0  0  0  0  0  0  0  0  0  0  0
  -22.6140   -1.1662  -13.5170 O   0  0  0  0  0  0  0  0  0  0  0  0
  -23.2897   -2.2074  -12.8014 C   0  0  0  0  0  0  0  0  0  0  0  0
  -23.8320   -1.6942  -11.4584 C   0  0  0  0  0  0  0  0  0  0  0  0
  -29.7692  -11.6672   -2.7435 O   0  0  0  0  0  0  0  0  0  0  0  0
  -30.6064  -12.4659   -3.5796 C   0  0  0  0  0  0  0  0  0  0  0  0
  -27.1297  -12.2387   -3.7209 O   0  0  0  0  0  0  0  0  0  0  0  0
  -26.4196  -12.4628   -2.5089 C   0  0  0  0  0  0  0  0  0  0  0  0
 18 19  1  0  0  0
 19  7  1  0  0  0
  7  8  1  0  0  0
  7 12  2  0  0  0
  8  9  2  0  0  0
  9  1  1  0  0  0
  9 10  1  0  0  0
  1  2  1  0  0  0
  1  6  2  0  0  0
  2  3  2  0  0  0
  3 20  1  0  0  0
  3  4  1  0  0  0
 20 21  1  0  0  0
 20 24  1  0  0  0
 21 22  2  0  0  0
 21 23  1  0  0  0
 23 26  1  0  0  0
 23 25  1  0  0  0
 26 27  1  0  0  0
 26 31  2  0  0  0
 27 28  2  0  0  0
 28 29  1  0  0  0
 29 33  1  0  0  0
 29 30  2  0  0  0
 33 34  1  0  0  0
 34 35  1  0  0  0
 35 36  1  0  0  0
 36 37  1  0  0  0
 37 38  1  0  0  0
 37 42  1  0  0  0
 38 39  1  0  0  0
 39 40  1  0  0  0
 40 41  1  0  0  0
 41 42  1  0  0  0
 30 31  1  0  0  0
 31 32  1  0  0  0
  4  5  2  0  0  0
  5 43  1  0  0  0
  5  6  1  0  0  0
 43 44  1  0  0  0
  6 45  1  0  0  0
 45 46  1  0  0  0
 10 11  2  0  0  0
 11 12  1  0  0  0
 12 13  1  0  0  0
 13 14  1  0  0  0
 13 15  2  0  0  0
 15 16  1  0  0  0
 16 17  1  0  0  0
M  END
> <minimizedAffinity>
-8.00161

$$$$
