CHEMBL1242472


 26 28  0  0  0  0  0  0  0  0999 V2000
  -29.5780   -5.0251   -6.5856 C   0  0  0  0  0  0  0  0  0  0  0  0
  -28.9604   -3.9768   -7.1639 N   0  0  0  0  0  0  0  0  0  0  0  0
  -29.0718   -2.9815   -6.2606 N   0  0  0  0  0  0  0  0  0  0  0  0
  -29.7998   -3.3285   -5.1563 C   0  0  0  0  0  0  0  0  0  0  0  0
  -30.0919   -2.5399   -4.1071 N   0  0  0  0  0  0  0  0  0  0  0  0
  -30.8121   -3.1984   -3.1857 C   0  0  0  0  0  0  0  0  0  0  0  0
  -31.2394   -4.4716   -3.2268 N   0  0  0  0  0  0  0  0  0  0  0  0
  -30.9261   -5.2289   -4.2996 C   0  0  0  0  0  0  0  0  0  0  0  0
  -31.4099   -6.5269   -4.2758 N   0  0  0  0  0  0  0  0  0  0  0  0
  -30.1600   -4.6581   -5.3294 C   0  0  0  0  0  0  0  0  0  0  0  0
  -32.0979   -6.6511   -3.5396 H   0  0  0  0  0  0  0  0  0  0  0  0
  -31.6384   -6.9425   -5.1684 H   0  0  0  0  0  0  0  0  0  0  0  0
  -29.6074   -8.7939   -8.6577 C   0  0  0  0  0  0  0  0  0  0  0  0
  -28.4317   -8.0399   -8.5476 C   0  0  0  0  0  0  0  0  0  0  0  0
  -28.4252   -6.8148   -7.8697 C   0  0  0  0  0  0  0  0  0  0  0  0
  -29.5867   -6.3204   -7.2709 C   0  0  0  0  0  0  0  0  0  0  0  0
  -30.7428   -7.1005   -7.3317 C   0  0  0  0  0  0  0  0  0  0  0  0
  -30.7696   -8.3110   -8.0359 C   0  0  0  0  0  0  0  0  0  0  0  0
  -32.0241   -8.8615   -8.1132 O   0  0  0  0  0  0  0  0  0  0  0  0
  -32.9377   -8.4597   -7.1025 C   0  0  0  0  0  0  0  0  0  0  0  0
  -29.6979   -9.9657   -9.3597 O   0  0  0  0  0  0  0  0  0  0  0  0
  -28.9121  -10.4261  -11.5656 C   0  0  0  0  0  0  0  0  0  0  0  0
  -28.5497  -10.3890  -10.0926 C   0  0  0  0  0  0  0  0  0  0  0  0
  -28.4008   -1.7067   -6.4913 C   0  0  0  0  0  0  0  0  0  0  0  0
  -27.3015   -1.4675   -5.4550 C   0  0  0  0  0  0  0  0  0  0  0  0
  -27.8483   -1.6007   -7.9125 C   0  0  0  0  0  0  0  0  0  0  0  0
 22 23  1  0  0  0
 23 21  1  0  0  0
 21 13  1  0  0  0
 13 14  1  0  0  0
 13 18  2  0  0  0
 14 15  2  0  0  0
 15 16  1  0  0  0
 16  1  1  0  0  0
 16 17  2  0  0  0
  1  2  2  0  0  0
  1 10  1  0  0  0
  2  3  1  0  0  0
  3 24  1  0  0  0
  3  4  1  0  0  0
 24 25  1  0  0  0
 24 26  1  0  0  0
  4  5  1  0  0  0
  4 10  2  0  0  0
  5  6  2  0  0  0
  6  7  1  0  0  0
  7  8  2  0  0  0
  8  9  1  0  0  0
  8 10  1  0  0  0
  9 11  1  0  0  0
  9 12  1  0  0  0
 17 18  1  0  0  0
 18 19  1  0  0  0
 19 20  1  0  0  0
M  END
> <minimizedAffinity>
-7.74766

$$$$
