CHEMBL3690378


 34 37  0  0  0  0  0  0  0  0999 V2000
  -14.2488   -1.8665  -12.9560 C   0  0  0  0  0  0  0  0  0  0  0  0
  -15.5708   -1.4743  -12.5077 C   0  0  0  0  0  0  0  0  0  0  0  0
  -16.2336   -0.5319  -13.1972 C   0  0  0  0  0  0  0  0  0  0  0  0
  -15.6652    0.0206  -14.3534 N   0  0  0  0  0  0  0  0  0  0  0  0
  -16.1539    0.9543  -15.2674 C   0  0  0  0  0  0  0  0  0  0  0  0
  -15.1115    1.1114  -16.1691 C   0  0  0  0  0  0  0  0  0  0  0  0
  -14.0381    0.3198  -15.8753 N   0  0  0  0  0  0  0  0  0  0  0  0
  -14.3891   -0.3416  -14.7970 C   0  0  0  0  0  0  0  0  0  0  0  0
  -13.6787   -1.3191  -14.0474 C   0  0  0  0  0  0  0  0  0  0  0  0
  -17.4817    1.5898  -15.2729 C   0  0  0  0  0  0  0  0  0  0  0  0
  -17.6170    2.9823  -15.2374 C   0  0  0  0  0  0  0  0  0  0  0  0
  -18.8727    3.5792  -15.2426 C   0  0  0  0  0  0  0  0  0  0  0  0
  -20.0157    2.7911  -15.2207 C   0  0  0  0  0  0  0  0  0  0  0  0
  -19.9247    1.3938  -15.2182 C   0  0  0  0  0  0  0  0  0  0  0  0
  -18.6555    0.8037  -15.2514 C   0  0  0  0  0  0  0  0  0  0  0  0
  -21.0736    0.5691  -15.1346 N   0  0  0  0  0  0  0  0  0  0  0  0
  -21.9065    0.4793  -14.0445 C   0  0  0  0  0  0  0  0  0  0  0  0
  -21.8788    1.2022  -13.0539 O   0  0  0  0  0  0  0  0  0  0  0  0
  -22.8115   -0.5478  -14.1266 N   0  0  0  0  0  0  0  0  0  0  0  0
  -21.3486    0.0795  -15.9764 H   0  0  0  0  0  0  0  0  0  0  0  0
  -23.0578   -0.9086  -15.0358 H   0  0  0  0  0  0  0  0  0  0  0  0
  -23.7764   -0.7035  -13.0276 C   0  0  0  0  0  0  0  0  0  0  0  0
  -23.6092   -1.9488  -12.1423 C   0  0  0  0  0  0  0  0  0  0  0  0
  -24.7640   -2.3132  -11.5402 F   0  0  0  0  0  0  0  0  0  0  0  0
  -23.2173   -3.0023  -12.9039 F   0  0  0  0  0  0  0  0  0  0  0  0
  -22.6704   -1.7794  -11.1872 F   0  0  0  0  0  0  0  0  0  0  0  0
  -12.8198   -3.7629  -11.4277 C   0  0  0  0  0  0  0  0  0  0  0  0
  -13.4796   -2.8873  -12.1333 C   0  0  0  0  0  0  0  0  0  0  0  0
  -11.8883   -3.4142   -8.5176 C   0  0  0  0  0  0  0  0  0  0  0  0
  -11.6822   -4.5659   -9.3603 N   0  0  0  0  0  0  0  0  0  0  0  0
  -11.0291   -5.7101   -9.0030 C   0  0  0  0  0  0  0  0  0  0  0  0
  -11.0086   -6.5803   -9.9878 N   0  0  0  0  0  0  0  0  0  0  0  0
  -11.6745   -5.9686  -11.0209 C   0  0  0  0  0  0  0  0  0  0  0  0
  -12.1025   -4.7119  -10.6552 C   0  0  0  0  0  0  0  0  0  0  0  0
 29 30  1  0  0  0
 30 31  1  0  0  0
 30 34  1  0  0  0
 31 32  2  0  0  0
 32 33  1  0  0  0
 33 34  2  0  0  0
 34 27  1  0  0  0
 27 28  3  0  0  0
 28  1  1  0  0  0
  1  2  1  0  0  0
  1  9  2  0  0  0
  2  3  2  0  0  0
  3  4  1  0  0  0
  4  5  1  0  0  0
  4  8  1  0  0  0
  5 10  1  0  0  0
  5  6  2  0  0  0
 10 11  1  0  0  0
 10 15  2  0  0  0
 11 12  2  0  0  0
 12 13  1  0  0  0
 13 14  2  0  0  0
 14 16  1  0  0  0
 14 15  1  0  0  0
 16 17  1  0  0  0
 16 20  1  0  0  0
 17 18  2  0  0  0
 17 19  1  0  0  0
 19 22  1  0  0  0
 19 21  1  0  0  0
 22 23  1  0  0  0
 23 24  1  0  0  0
 23 25  1  0  0  0
 23 26  1  0  0  0
  6  7  1  0  0  0
  7  8  2  0  0  0
  8  9  1  0  0  0
M  END
> <minimizedAffinity>
-8.83543

$$$$
