CHEMBL248220


 33 37  0  0  0  0  0  0  0  0999 V2000
  -29.1471  -10.6504   -4.2612 C   0  0  0  0  0  0  0  0  0  0  0  0
  -29.0695  -11.5213   -5.3458 C   0  0  0  0  0  0  0  0  0  0  0  0
  -28.8930  -11.0789   -6.6405 C   0  0  0  0  0  0  0  0  0  0  0  0
  -28.8758  -12.0395   -7.5634 N   0  0  0  0  0  0  0  0  0  0  0  0
  -28.8347  -11.6625   -8.8490 C   0  0  0  0  0  0  0  0  0  0  0  0
  -28.7479  -10.3470   -9.2732 C   0  0  0  0  0  0  0  0  0  0  0  0
  -28.6072   -9.3341   -8.3145 C   0  0  0  0  0  0  0  0  0  0  0  0
  -28.7695   -9.7046   -6.9262 C   0  0  0  0  0  0  0  0  0  0  0  0
  -28.8569   -8.8175   -5.8114 C   0  0  0  0  0  0  0  0  0  0  0  0
  -29.0768   -9.2743   -4.4999 C   0  0  0  0  0  0  0  0  0  0  0  0
  -30.2560  -12.1754   -2.8139 C   0  0  0  0  0  0  0  0  0  0  0  0
  -29.3303  -11.1067   -2.9834 O   0  0  0  0  0  0  0  0  0  0  0  0
  -28.9070  -10.1575  -10.6742 C   0  0  0  0  0  0  0  0  0  0  0  0
  -29.1370  -10.1116  -11.8093 N   0  0  0  0  0  0  0  0  0  0  0  0
  -28.4358   -7.9579   -8.6421 N   0  0  0  0  0  0  0  0  0  0  0  0
  -28.7086   -7.7622   -9.6030 H   0  0  0  0  0  0  0  0  0  0  0  0
  -28.6658   -6.8109   -7.7276 C   0  0  0  0  0  0  0  0  0  0  0  0
  -30.1132   -6.4524   -7.5357 C   0  0  0  0  0  0  0  0  0  0  0  0
  -29.1876   -5.4912   -8.2482 C   0  0  0  0  0  0  0  0  0  0  0  0
  -29.1591   -4.1013   -7.6462 C   0  0  0  0  0  0  0  0  0  0  0  0
  -30.0834   -3.5902   -6.7265 C   0  0  0  0  0  0  0  0  0  0  0  0
  -29.8712   -2.3586   -6.0872 C   0  0  0  0  0  0  0  0  0  0  0  0
  -28.7398   -1.5990   -6.3749 C   0  0  0  0  0  0  0  0  0  0  0  0
  -27.8341   -2.0547   -7.3225 C   0  0  0  0  0  0  0  0  0  0  0  0
  -28.0491   -3.2839   -7.9463 C   0  0  0  0  0  0  0  0  0  0  0  0
  -29.1889   -8.2702   -3.5688 O   0  0  0  0  0  0  0  0  0  0  0  0
  -28.5830   -7.0184   -3.9052 C   0  0  0  0  0  0  0  0  0  0  0  0
  -29.5714   -5.9007   -3.6829 C   0  0  0  0  0  0  0  0  0  0  0  0
  -30.9472   -6.1416   -3.7953 C   0  0  0  0  0  0  0  0  0  0  0  0
  -31.8614   -5.1141   -3.5685 C   0  0  0  0  0  0  0  0  0  0  0  0
  -31.4111   -3.8422   -3.2182 C   0  0  0  0  0  0  0  0  0  0  0  0
  -30.0451   -3.5935   -3.1005 C   0  0  0  0  0  0  0  0  0  0  0  0
  -29.1274   -4.6182   -3.3321 C   0  0  0  0  0  0  0  0  0  0  0  0
 11 12  1  0  0  0
 12  1  1  0  0  0
  1  2  1  0  0  0
  1 10  2  0  0  0
  2  3  2  0  0  0
  3  4  1  0  0  0
  3  8  1  0  0  0
  4  5  2  0  0  0
  5  6  1  0  0  0
  6 13  1  0  0  0
  6  7  2  0  0  0
 13 14  3  0  0  0
  7 15  1  0  0  0
  7  8  1  0  0  0
 15 17  1  0  0  0
 15 16  1  0  0  0
 17 18  1  0  0  0
 17 19  1  0  0  0
 18 19  1  0  0  0
 19 20  1  0  0  0
 20 21  1  0  0  0
 20 25  2  0  0  0
 21 22  2  0  0  0
 22 23  1  0  0  0
 23 24  2  0  0  0
 24 25  1  0  0  0
  8  9  2  0  0  0
  9 10  1  0  0  0
 10 26  1  0  0  0
 26 27  1  0  0  0
 27 28  1  0  0  0
 28 29  1  0  0  0
 28 33  2  0  0  0
 29 30  2  0  0  0
 30 31  1  0  0  0
 31 32  2  0  0  0
 32 33  1  0  0  0
M  END
> <minimizedAffinity>
-7.47301

$$$$
