CHEMBL3984035


 39 43  0  0  0  0  0  0  0  0999 V2000
  -29.4086   -9.9557   -5.2849 N   0  0  0  0  0  0  0  0  0  0  0  0
  -28.9926   -8.5964   -5.0767 C   0  0  0  0  0  0  0  0  0  0  0  0
  -29.0801   -8.1358   -3.7844 C   0  0  0  0  0  0  0  0  0  0  0  0
  -29.5256   -6.8530   -3.6058 C   0  0  0  0  0  0  0  0  0  0  0  0
  -29.6006   -5.9542   -4.6330 C   0  0  0  0  0  0  0  0  0  0  0  0
  -30.4011   -4.9587   -4.2784 N   0  0  0  0  0  0  0  0  0  0  0  0
  -30.2846   -3.8150   -4.9473 C   0  0  0  0  0  0  0  0  0  0  0  0
  -29.2427   -3.5770   -5.8082 C   0  0  0  0  0  0  0  0  0  0  0  0
  -28.6012   -4.6960   -6.3693 N   0  0  0  0  0  0  0  0  0  0  0  0
  -28.8926   -6.0593   -5.8258 C   0  0  0  0  0  0  0  0  0  0  0  0
  -28.7477   -7.5597   -6.0841 C   0  0  0  0  0  0  0  0  0  0  0  0
  -28.7921   -2.1362   -5.6310 C   0  0  0  0  0  0  0  0  0  0  0  0
  -27.3939   -1.8103   -5.4270 C   0  0  0  0  0  0  0  0  0  0  0  0
  -27.1574   -0.5677   -5.0385 N   0  0  0  0  0  0  0  0  0  0  0  0
  -28.3676   -0.0063   -5.0492 N   0  0  0  0  0  0  0  0  0  0  0  0
  -28.3912    1.4035   -4.7025 C   0  0  0  0  0  0  0  0  0  0  0  0
  -29.3879   -0.9036   -5.3827 C   0  0  0  0  0  0  0  0  0  0  0  0
  -29.3869  -11.5947   -8.6901 C   0  0  0  0  0  0  0  0  0  0  0  0
  -30.7071  -12.0534   -8.7498 C   0  0  0  0  0  0  0  0  0  0  0  0
  -31.5606  -11.8918   -7.6748 C   0  0  0  0  0  0  0  0  0  0  0  0
  -31.1009  -11.1950   -6.5585 C   0  0  0  0  0  0  0  0  0  0  0  0
  -29.7894  -10.6598   -6.4696 C   0  0  0  0  0  0  0  0  0  0  0  0
  -28.9249  -10.8948   -7.5583 C   0  0  0  0  0  0  0  0  0  0  0  0
  -28.6789  -10.9961  -10.9073 C   0  0  0  0  0  0  0  0  0  0  0  0
  -28.7056  -11.9127   -9.8317 O   0  0  0  0  0  0  0  0  0  0  0  0
  -32.8530  -12.3362   -7.6141 O   0  0  0  0  0  0  0  0  0  0  0  0
  -33.5287  -12.1027   -6.3812 C   0  0  0  0  0  0  0  0  0  0  0  0
  -28.9647  -10.9108   -4.1702 C   0  0  0  0  0  0  0  0  0  0  0  0
  -27.5070  -11.0896   -4.2109 C   0  0  0  0  0  0  0  0  0  0  0  0
  -26.2203  -10.9048   -4.1101 C   0  0  0  0  0  0  0  0  0  0  0  0
  -24.7203  -10.6894   -3.9924 C   0  0  0  0  0  0  0  0  0  0  0  0
  -24.4027  -10.2309   -2.6875 O   0  0  0  0  0  0  0  0  0  0  0  0
  -24.2794   -9.6506   -5.0389 C   0  0  0  0  0  0  0  0  0  0  0  0
  -24.4777  -10.1727   -6.4675 C   0  0  0  0  0  0  0  0  0  0  0  0
  -23.8082  -11.4569   -6.6828 N   0  0  0  0  0  0  0  0  0  0  0  0
  -24.2702  -12.4658   -5.7243 C   0  0  0  0  0  0  0  0  0  0  0  0
  -24.0177  -12.0221   -4.2791 C   0  0  0  0  0  0  0  0  0  0  0  0
  -24.8955   -9.4038   -2.5533 H   0  0  0  0  0  0  0  0  0  0  0  0
  -22.8022  -11.3381   -6.5869 H   0  0  0  0  0  0  0  0  0  0  0  0
 24 25  1  0  0  0
 25 18  1  0  0  0
 18 19  1  0  0  0
 18 23  2  0  0  0
 19 20  2  0  0  0
 20 26  1  0  0  0
 20 21  1  0  0  0
 26 27  1  0  0  0
 21 22  2  0  0  0
 22  1  1  0  0  0
 22 23  1  0  0  0
  1 28  1  0  0  0
  1  2  1  0  0  0
 28 29  1  0  0  0
 29 30  3  0  0  0
 30 31  1  0  0  0
 31 32  1  0  0  0
 31 33  1  0  0  0
 31 37  1  0  0  0
 32 38  1  0  0  0
 33 34  1  0  0  0
 34 35  1  0  0  0
 35 36  1  0  0  0
 35 39  1  0  0  0
 36 37  1  0  0  0
  2  3  1  0  0  0
  2 11  2  0  0  0
  3  4  2  0  0  0
  4  5  1  0  0  0
  5  6  1  0  0  0
  5 10  2  0  0  0
  6  7  2  0  0  0
  7  8  1  0  0  0
  8 12  1  0  0  0
  8  9  2  0  0  0
 12 13  1  0  0  0
 12 17  2  0  0  0
 13 14  2  0  0  0
 14 15  1  0  0  0
 15 16  1  0  0  0
 15 17  1  0  0  0
  9 10  1  0  0  0
 10 11  1  0  0  0
M  END
> <minimizedAffinity>
-7.91500

$$$$
