CHEMBL3933341


 34 38  0  0  0  0  0  0  0  0999 V2000
  -27.7699   -2.2219   -8.5321 N   0  0  0  0  0  0  0  0  0  0  0  0
  -27.1035   -1.6984   -9.7472 C   0  0  0  0  0  0  0  0  0  0  0  0
  -27.9867   -1.4830  -10.8189 C   0  0  0  0  0  0  0  0  0  0  0  0
  -27.5731   -1.4275  -12.1057 C   0  0  0  0  0  0  0  0  0  0  0  0
  -26.2490   -1.4482  -12.4014 C   0  0  0  0  0  0  0  0  0  0  0  0
  -25.9408   -1.5812  -13.6935 N   0  0  0  0  0  0  0  0  0  0  0  0
  -24.6875   -1.4649  -14.1239 C   0  0  0  0  0  0  0  0  0  0  0  0
  -23.7225   -0.9839  -13.2500 C   0  0  0  0  0  0  0  0  0  0  0  0
  -23.9614   -1.0452  -11.8748 N   0  0  0  0  0  0  0  0  0  0  0  0
  -25.2457   -1.3407  -11.4155 C   0  0  0  0  0  0  0  0  0  0  0  0
  -25.6696   -1.5326  -10.0400 C   0  0  0  0  0  0  0  0  0  0  0  0
  -22.7689   -0.0488  -13.9563 C   0  0  0  0  0  0  0  0  0  0  0  0
  -21.5858   -0.1586  -14.6748 C   0  0  0  0  0  0  0  0  0  0  0  0
  -21.0567    1.0838  -14.8600 N   0  0  0  0  0  0  0  0  0  0  0  0
  -21.8612    1.9677  -14.2774 N   0  0  0  0  0  0  0  0  0  0  0  0
  -21.6301    3.4032  -14.1047 C   0  0  0  0  0  0  0  0  0  0  0  0
  -22.8971    1.3316  -13.7532 C   0  0  0  0  0  0  0  0  0  0  0  0
  -29.0887    0.4678   -6.1041 C   0  0  0  0  0  0  0  0  0  0  0  0
  -28.8246   -0.1696   -4.8871 C   0  0  0  0  0  0  0  0  0  0  0  0
  -28.1918   -1.4094   -4.8596 C   0  0  0  0  0  0  0  0  0  0  0  0
  -27.8216   -2.0321   -6.0642 C   0  0  0  0  0  0  0  0  0  0  0  0
  -28.1186   -1.4969   -7.3084 C   0  0  0  0  0  0  0  0  0  0  0  0
  -28.7505   -0.1913   -7.3044 C   0  0  0  0  0  0  0  0  0  0  0  0
  -30.9969    1.9413   -6.5684 C   0  0  0  0  0  0  0  0  0  0  0  0
  -29.7023    1.6913   -6.1354 O   0  0  0  0  0  0  0  0  0  0  0  0
  -27.9694   -1.9987   -3.6660 O   0  0  0  0  0  0  0  0  0  0  0  0
  -28.8041   -2.9451   -3.1101 C   0  0  0  0  0  0  0  0  0  0  0  0
  -27.9443   -3.7063   -8.5427 C   0  0  0  0  0  0  0  0  0  0  0  0
  -29.3452   -4.1530   -8.0234 C   0  0  0  0  0  0  0  0  0  0  0  0
  -29.2252   -5.3309   -7.1715 N   0  0  0  0  0  0  0  0  0  0  0  0
  -29.5828   -5.4129   -5.8749 C   0  0  0  0  0  0  0  0  0  0  0  0
  -29.3369   -6.6961   -5.4490 C   0  0  0  0  0  0  0  0  0  0  0  0
  -28.8226   -7.3488   -6.5523 C   0  0  0  0  0  0  0  0  0  0  0  0
  -28.7653   -6.4954   -7.5916 N   0  0  0  0  0  0  0  0  0  0  0  0
 24 25  1  0  0  0
 25 18  1  0  0  0
 18 19  1  0  0  0
 18 23  2  0  0  0
 19 20  2  0  0  0
 20 26  1  0  0  0
 20 21  1  0  0  0
 26 27  1  0  0  0
 21 22  2  0  0  0
 22  1  1  0  0  0
 22 23  1  0  0  0
  1 28  1  0  0  0
  1  2  1  0  0  0
 28 29  1  0  0  0
 29 30  1  0  0  0
 30 31  1  0  0  0
 30 34  1  0  0  0
 31 32  2  0  0  0
 32 33  1  0  0  0
 33 34  2  0  0  0
  2  3  1  0  0  0
  2 11  2  0  0  0
  3  4  2  0  0  0
  4  5  1  0  0  0
  5  6  1  0  0  0
  5 10  2  0  0  0
  6  7  2  0  0  0
  7  8  1  0  0  0
  8 12  1  0  0  0
  8  9  2  0  0  0
 12 13  1  0  0  0
 12 17  2  0  0  0
 13 14  2  0  0  0
 14 15  1  0  0  0
 15 16  1  0  0  0
 15 17  1  0  0  0
  9 10  1  0  0  0
 10 11  1  0  0  0
M  END
> <minimizedAffinity>
-8.62651

$$$$
