CHEMBL3890896


 35 38  0  0  0  0  0  0  0  0999 V2000
  -18.3273    2.1690  -15.3927 C   0  0  0  0  0  0  0  0  0  0  0  0
  -19.0629    3.3512  -15.3138 C   0  0  0  0  0  0  0  0  0  0  0  0
  -20.3371    3.3835  -14.9159 C   0  0  0  0  0  0  0  0  0  0  0  0
  -21.0254    2.2618  -14.6053 C   0  0  0  0  0  0  0  0  0  0  0  0
  -22.2134    2.5121  -14.0789 N   0  0  0  0  0  0  0  0  0  0  0  0
  -23.0672    1.5677  -13.7580 C   0  0  0  0  0  0  0  0  0  0  0  0
  -22.8256    0.2411  -14.0586 C   0  0  0  0  0  0  0  0  0  0  0  0
  -21.5046   -0.0863  -14.5180 N   0  0  0  0  0  0  0  0  0  0  0  0
  -20.5443    0.9470  -14.7827 C   0  0  0  0  0  0  0  0  0  0  0  0
  -19.0906    0.8907  -15.1752 C   0  0  0  0  0  0  0  0  0  0  0  0
  -24.1643   -0.5615  -13.8785 C   0  0  0  0  0  0  0  0  0  0  0  0
  -24.9945   -1.3594  -14.6841 C   0  0  0  0  0  0  0  0  0  0  0  0
  -26.0818   -1.7803  -13.9703 N   0  0  0  0  0  0  0  0  0  0  0  0
  -26.0138   -1.2925  -12.7358 N   0  0  0  0  0  0  0  0  0  0  0  0
  -24.8949   -0.5650  -12.6417 C   0  0  0  0  0  0  0  0  0  0  0  0
  -26.9978   -1.5302  -11.6394 C   0  0  0  0  0  0  0  0  0  0  0  0
  -26.3603   -1.6928  -10.2392 C   0  0  0  0  0  0  0  0  0  0  0  0
  -26.8909   -2.8011   -9.5720 O   0  0  0  0  0  0  0  0  0  0  0  0
  -27.7207   -2.4815   -9.1318 H   0  0  0  0  0  0  0  0  0  0  0  0
  -16.8795    2.4659  -15.4895 N   0  0  0  0  0  0  0  0  0  0  0  0
  -14.2724   -0.0252  -14.2602 C   0  0  0  0  0  0  0  0  0  0  0  0
  -13.7060   -0.4170  -15.4793 C   0  0  0  0  0  0  0  0  0  0  0  0
  -14.1471    0.1308  -16.6815 C   0  0  0  0  0  0  0  0  0  0  0  0
  -15.1538    1.0900  -16.6585 C   0  0  0  0  0  0  0  0  0  0  0  0
  -15.7397    1.5511  -15.4360 C   0  0  0  0  0  0  0  0  0  0  0  0
  -15.2858    0.9796  -14.2339 C   0  0  0  0  0  0  0  0  0  0  0  0
  -13.2813   -1.9378  -13.0996 C   0  0  0  0  0  0  0  0  0  0  0  0
  -13.8068   -0.6692  -13.1595 O   0  0  0  0  0  0  0  0  0  0  0  0
  -13.6347   -0.2361  -17.8912 O   0  0  0  0  0  0  0  0  0  0  0  0
  -13.8565    0.3947  -19.1005 C   0  0  0  0  0  0  0  0  0  0  0  0
  -16.5356    3.9107  -15.7163 C   0  0  0  0  0  0  0  0  0  0  0  0
  -15.8571    4.2991  -17.0790 C   0  0  0  0  0  0  0  0  0  0  0  0
  -14.6488    5.1173  -16.9587 N   0  0  0  0  0  0  0  0  0  0  0  0
  -14.9145    6.1047  -16.7439 H   0  0  0  0  0  0  0  0  0  0  0  0
  -14.1734    5.1381  -17.8958 H   0  0  0  0  0  0  0  0  0  0  0  0
 27 28  1  0  0  0
 28 21  1  0  0  0
 21 22  1  0  0  0
 21 26  2  0  0  0
 22 23  2  0  0  0
 23 29  1  0  0  0
 23 24  1  0  0  0
 29 30  1  0  0  0
 24 25  2  0  0  0
 25 20  1  0  0  0
 25 26  1  0  0  0
 20 31  1  0  0  0
 20  1  1  0  0  0
 31 32  1  0  0  0
 32 33  1  0  0  0
 33 34  1  0  0  0
 33 35  1  0  0  0
  1  2  1  0  0  0
  1 10  2  0  0  0
  2  3  2  0  0  0
  3  4  1  0  0  0
  4  5  1  0  0  0
  4  9  2  0  0  0
  5  6  2  0  0  0
  6  7  1  0  0  0
  7 11  1  0  0  0
  7  8  2  0  0  0
 11 12  1  0  0  0
 11 15  2  0  0  0
 12 13  2  0  0  0
 13 14  1  0  0  0
 14 16  1  0  0  0
 14 15  1  0  0  0
 16 17  1  0  0  0
 17 18  1  0  0  0
 18 19  1  0  0  0
  8  9  1  0  0  0
  9 10  1  0  0  0
M  END
> <minimizedAffinity>
-8.56097

$$$$
