CHEMBL3775560


 26 28  0  0  0  0  0  0  0  0999 V2000
  -16.5761    2.3143  -15.3760 C   0  0  0  0  0  0  0  0  0  0  0  0
  -15.2309    1.9265  -15.3982 C   0  0  0  0  0  0  0  0  0  0  0  0
  -14.7213    0.9687  -14.5395 C   0  0  0  0  0  0  0  0  0  0  0  0
  -13.4118    0.7268  -14.5970 N   0  0  0  0  0  0  0  0  0  0  0  0
  -12.9384   -0.2000  -13.7642 C   0  0  0  0  0  0  0  0  0  0  0  0
  -13.6681   -0.9296  -12.9254 N   0  0  0  0  0  0  0  0  0  0  0  0
  -14.9988   -0.7042  -12.8972 C   0  0  0  0  0  0  0  0  0  0  0  0
  -15.5935    0.3018  -13.6729 C   0  0  0  0  0  0  0  0  0  0  0  0
  -16.9640    0.6495  -13.6732 C   0  0  0  0  0  0  0  0  0  0  0  0
  -17.4597    1.6408  -14.5265 C   0  0  0  0  0  0  0  0  0  0  0  0
  -16.1013    4.3722  -16.4398 C   0  0  0  0  0  0  0  0  0  0  0  0
  -17.0474    3.3425  -16.1516 O   0  0  0  0  0  0  0  0  0  0  0  0
  -15.8011   -1.5790  -12.1186 N   0  0  0  0  0  0  0  0  0  0  0  0
  -15.8229   -1.2912  -11.1433 H   0  0  0  0  0  0  0  0  0  0  0  0
  -15.7589   -2.9919  -12.2658 C   0  0  0  0  0  0  0  0  0  0  0  0
  -16.1019   -3.5630  -13.5018 C   0  0  0  0  0  0  0  0  0  0  0  0
  -15.9370   -4.9227  -13.7426 C   0  0  0  0  0  0  0  0  0  0  0  0
  -15.4425   -5.7659  -12.7417 C   0  0  0  0  0  0  0  0  0  0  0  0
  -15.1991   -7.2070  -13.0827 C   0  0  0  0  0  0  0  0  0  0  0  0
  -15.1697   -5.2202  -11.4754 C   0  0  0  0  0  0  0  0  0  0  0  0
  -14.7144   -6.0119  -10.4510 O   0  0  0  0  0  0  0  0  0  0  0  0
  -15.3344   -3.8412  -11.2326 C   0  0  0  0  0  0  0  0  0  0  0  0
  -14.9745   -3.1746   -9.6711 Cl  0  0  0  0  0  0  0  0  0  0  0  0
  -14.6298   -6.9286  -10.7517 H   0  0  0  0  0  0  0  0  0  0  0  0
  -18.7982    1.8769  -14.3669 O   0  0  0  0  0  0  0  0  0  0  0  0
  -19.6870    1.0020  -15.0509 C   0  0  0  0  0  0  0  0  0  0  0  0
 11 12  1  0  0  0
 12  1  1  0  0  0
  1  2  1  0  0  0
  1 10  2  0  0  0
  2  3  2  0  0  0
  3  4  1  0  0  0
  3  8  1  0  0  0
  4  5  2  0  0  0
  5  6  1  0  0  0
  6  7  2  0  0  0
  7 13  1  0  0  0
  7  8  1  0  0  0
 13 15  1  0  0  0
 13 14  1  0  0  0
 15 16  1  0  0  0
 15 22  2  0  0  0
 16 17  2  0  0  0
 17 18  1  0  0  0
 18 19  1  0  0  0
 18 20  2  0  0  0
 20 21  1  0  0  0
 20 22  1  0  0  0
 21 24  1  0  0  0
 22 23  1  0  0  0
  8  9  2  0  0  0
  9 10  1  0  0  0
 10 25  1  0  0  0
 25 26  1  0  0  0
M  END
> <minimizedAffinity>
-7.22608

$$$$
