CHEMBL3983115


 39 43  0  0  0  0  0  0  0  0999 V2000
  -21.2272    1.5107  -14.1173 C   0  0  0  0  0  0  0  0  0  0  0  0
  -21.5138    2.7866  -14.5775 C   0  0  0  0  0  0  0  0  0  0  0  0
  -20.5585    3.6473  -15.0017 N   0  0  0  0  0  0  0  0  0  0  0  0
  -19.3009    3.1711  -15.0094 C   0  0  0  0  0  0  0  0  0  0  0  0
  -18.2879    3.9385  -15.5554 C   0  0  0  0  0  0  0  0  0  0  0  0
  -17.0072    3.4103  -15.7299 C   0  0  0  0  0  0  0  0  0  0  0  0
  -16.6977    2.0989  -15.3414 C   0  0  0  0  0  0  0  0  0  0  0  0
  -17.6918    1.4045  -14.6340 C   0  0  0  0  0  0  0  0  0  0  0  0
  -18.9932    1.8800  -14.5252 C   0  0  0  0  0  0  0  0  0  0  0  0
  -19.9526    1.0600  -14.0458 N   0  0  0  0  0  0  0  0  0  0  0  0
  -23.5176   -0.8874  -12.7129 N   0  0  0  0  0  0  0  0  0  0  0  0
  -22.5190    0.0299  -12.5575 C   0  0  0  0  0  0  0  0  0  0  0  0
  -22.2821    0.5666  -13.8086 C   0  0  0  0  0  0  0  0  0  0  0  0
  -23.2111   -0.0938  -14.6433 C   0  0  0  0  0  0  0  0  0  0  0  0
  -23.9546   -0.9861  -13.9874 N   0  0  0  0  0  0  0  0  0  0  0  0
  -24.0912   -1.7448  -11.6930 C   0  0  0  0  0  0  0  0  0  0  0  0
  -26.1618   -2.1818  -10.4239 N   0  0  0  0  0  0  0  0  0  0  0  0
  -25.4942   -1.3425  -11.2877 C   0  0  0  0  0  0  0  0  0  0  0  0
  -26.0321   -0.3486  -11.7786 O   0  0  0  0  0  0  0  0  0  0  0  0
  -25.6377   -2.9204   -9.9542 H   0  0  0  0  0  0  0  0  0  0  0  0
  -27.4721   -1.8331   -9.9039 C   0  0  0  0  0  0  0  0  0  0  0  0
  -27.8198   -2.5826   -8.6183 C   0  0  0  0  0  0  0  0  0  0  0  0
  -28.4239   -1.6523   -6.5353 C   0  0  0  0  0  0  0  0  0  0  0  0
  -27.3842   -1.8160   -7.4913 O   0  0  0  0  0  0  0  0  0  0  0  0
  -15.4671    1.4908  -15.7285 N   0  0  0  0  0  0  0  0  0  0  0  0
  -14.8881    1.5747  -17.0259 C   0  0  0  0  0  0  0  0  0  0  0  0
  -14.4698    0.4460  -17.7396 C   0  0  0  0  0  0  0  0  0  0  0  0
  -13.8654    0.5349  -19.0062 C   0  0  0  0  0  0  0  0  0  0  0  0
  -13.6421    1.7841  -19.5776 C   0  0  0  0  0  0  0  0  0  0  0  0
  -14.0616    2.9297  -18.9126 C   0  0  0  0  0  0  0  0  0  0  0  0
  -14.6796    2.8142  -17.6561 C   0  0  0  0  0  0  0  0  0  0  0  0
  -13.4299   -0.5330  -19.7467 O   0  0  0  0  0  0  0  0  0  0  0  0
  -12.7417   -0.2231  -20.9555 C   0  0  0  0  0  0  0  0  0  0  0  0
  -13.8838    4.2115  -19.3663 O   0  0  0  0  0  0  0  0  0  0  0  0
  -15.0084    5.0734  -19.2245 C   0  0  0  0  0  0  0  0  0  0  0  0
  -14.7092    0.8303  -14.6397 C   0  0  0  0  0  0  0  0  0  0  0  0
  -13.3168    1.3441  -14.3572 C   0  0  0  0  0  0  0  0  0  0  0  0
  -12.8706    1.9235  -13.0341 C   0  0  0  0  0  0  0  0  0  0  0  0
  -12.9387    2.8035  -14.2492 C   0  0  0  0  0  0  0  0  0  0  0  0
 23 24  1  0  0  0
 24 22  1  0  0  0
 22 21  1  0  0  0
 21 17  1  0  0  0
 17 18  1  0  0  0
 17 20  1  0  0  0
 18 19  2  0  0  0
 18 16  1  0  0  0
 16 11  1  0  0  0
 11 12  1  0  0  0
 11 15  1  0  0  0
 12 13  2  0  0  0
 13  1  1  0  0  0
 13 14  1  0  0  0
  1  2  1  0  0  0
  1 10  2  0  0  0
  2  3  2  0  0  0
  3  4  1  0  0  0
  4  5  1  0  0  0
  4  9  2  0  0  0
  5  6  2  0  0  0
  6  7  1  0  0  0
  7 25  1  0  0  0
  7  8  2  0  0  0
 25 36  1  0  0  0
 25 26  1  0  0  0
 36 37  1  0  0  0
 37 38  1  0  0  0
 37 39  1  0  0  0
 38 39  1  0  0  0
 26 27  1  0  0  0
 26 31  2  0  0  0
 27 28  2  0  0  0
 28 32  1  0  0  0
 28 29  1  0  0  0
 32 33  1  0  0  0
 29 30  2  0  0  0
 30 34  1  0  0  0
 30 31  1  0  0  0
 34 35  1  0  0  0
  8  9  1  0  0  0
  9 10  1  0  0  0
 14 15  2  0  0  0
M  END
> <minimizedAffinity>
-8.30488

$$$$
