CHEMBL495983


 25 28  0  0  0  0  0  0  0  0999 V2000
  -29.3889   -5.8345   -5.9528 C   0  0  0  0  0  0  0  0  0  0  0  0
  -28.9713   -4.7478   -6.6506 C   0  0  0  0  0  0  0  0  0  0  0  0
  -28.3318   -4.8789   -8.0014 C   0  0  0  0  0  0  0  0  0  0  0  0
  -27.9465   -3.9121   -8.6557 O   0  0  0  0  0  0  0  0  0  0  0  0
  -28.1242   -6.1393   -8.4772 N   0  0  0  0  0  0  0  0  0  0  0  0
  -28.5300   -7.2903   -7.8080 C   0  0  0  0  0  0  0  0  0  0  0  0
  -28.2787   -8.5310   -8.4022 C   0  0  0  0  0  0  0  0  0  0  0  0
  -28.7106   -9.6964   -7.7760 C   0  0  0  0  0  0  0  0  0  0  0  0
  -29.4046   -9.6151   -6.5722 C   0  0  0  0  0  0  0  0  0  0  0  0
  -29.6457   -8.3693   -5.9812 C   0  0  0  0  0  0  0  0  0  0  0  0
  -29.1905   -7.1816   -6.5760 C   0  0  0  0  0  0  0  0  0  0  0  0
  -27.6855   -6.1966   -9.3861 H   0  0  0  0  0  0  0  0  0  0  0  0
  -29.0500   -3.4314   -6.1219 C   0  0  0  0  0  0  0  0  0  0  0  0
  -30.0637   -2.5924   -6.0074 N   0  0  0  0  0  0  0  0  0  0  0  0
  -29.5113   -1.4002   -5.5952 C   0  0  0  0  0  0  0  0  0  0  0  0
  -30.1221   -0.1572   -5.3802 C   0  0  0  0  0  0  0  0  0  0  0  0
  -29.3231    0.9260   -4.9896 C   0  0  0  0  0  0  0  0  0  0  0  0
  -27.9465    0.7705   -4.8059 C   0  0  0  0  0  0  0  0  0  0  0  0
  -27.3193   -0.4657   -5.0046 C   0  0  0  0  0  0  0  0  0  0  0  0
  -28.1410   -1.5252   -5.4051 C   0  0  0  0  0  0  0  0  0  0  0  0
  -27.8764   -2.8316   -5.7206 N   0  0  0  0  0  0  0  0  0  0  0  0
  -26.9673   -3.2671   -5.7216 H   0  0  0  0  0  0  0  0  0  0  0  0
  -31.4186   -5.6046   -4.5162 C   0  0  0  0  0  0  0  0  0  0  0  0
  -29.9780   -5.8354   -4.6710 N   0  0  0  0  0  0  0  0  0  0  0  0
  -29.1675   -5.5415   -3.4871 C   0  0  0  0  0  0  0  0  0  0  0  0
 23 24  1  0  0  0
 24 25  1  0  0  0
 24  1  1  0  0  0
  1  2  2  0  0  0
  1 11  1  0  0  0
  2 13  1  0  0  0
  2  3  1  0  0  0
 13 14  2  0  0  0
 13 21  1  0  0  0
 14 15  1  0  0  0
 15 16  1  0  0  0
 15 20  2  0  0  0
 16 17  2  0  0  0
 17 18  1  0  0  0
 18 19  2  0  0  0
 19 20  1  0  0  0
 20 21  1  0  0  0
 21 22  1  0  0  0
  3  4  2  0  0  0
  3  5  1  0  0  0
  5  6  1  0  0  0
  5 12  1  0  0  0
  6  7  1  0  0  0
  6 11  2  0  0  0
  7  8  2  0  0  0
  8  9  1  0  0  0
  9 10  2  0  0  0
 10 11  1  0  0  0
M  END
> <minimizedAffinity>
-7.91847

$$$$
