CHEMBL195771


 33 36  0  0  0  0  0  0  0  0999 V2000
  -16.4824    0.9178  -14.6247 C   0  0  0  0  0  0  0  0  0  0  0  0
  -16.5495    0.0605  -13.6447 N   0  0  0  0  0  0  0  0  0  0  0  0
  -15.5196   -0.1274  -12.7799 C   0  0  0  0  0  0  0  0  0  0  0  0
  -14.3842    0.4807  -12.8149 N   0  0  0  0  0  0  0  0  0  0  0  0
  -14.2707    1.3489  -13.8279 N   0  0  0  0  0  0  0  0  0  0  0  0
  -13.1525    2.0891  -14.0390 C   0  0  0  0  0  0  0  0  0  0  0  0
  -13.3488    2.8452  -15.1654 C   0  0  0  0  0  0  0  0  0  0  0  0
  -14.6588    2.5310  -15.6944 C   0  0  0  0  0  0  0  0  0  0  0  0
  -15.2233    1.6201  -14.7855 C   0  0  0  0  0  0  0  0  0  0  0  0
  -12.2963    3.7877  -15.6577 C   0  0  0  0  0  0  0  0  0  0  0  0
  -12.0301    4.9729  -15.1384 N   0  0  0  0  0  0  0  0  0  0  0  0
  -10.9972    5.5193  -15.8679 N   0  0  0  0  0  0  0  0  0  0  0  0
  -10.6980    4.6313  -16.7846 C   0  0  0  0  0  0  0  0  0  0  0  0
  -11.4655    3.5107  -16.7220 O   0  0  0  0  0  0  0  0  0  0  0  0
  -15.1973    3.1062  -16.9910 C   0  0  0  0  0  0  0  0  0  0  0  0
  -15.3660    4.6250  -16.9541 C   0  0  0  0  0  0  0  0  0  0  0  0
  -14.4782    2.6072  -18.2412 C   0  0  0  0  0  0  0  0  0  0  0  0
  -17.5950    1.0829  -15.4298 N   0  0  0  0  0  0  0  0  0  0  0  0
  -17.6269    0.5925  -16.3111 H   0  0  0  0  0  0  0  0  0  0  0  0
  -21.1623    1.4032  -14.2968 C   0  0  0  0  0  0  0  0  0  0  0  0
  -19.8965    0.8559  -14.5495 C   0  0  0  0  0  0  0  0  0  0  0  0
  -18.8388    1.6362  -15.0385 C   0  0  0  0  0  0  0  0  0  0  0  0
  -19.0872    3.0033  -15.2283 C   0  0  0  0  0  0  0  0  0  0  0  0
  -18.1103    3.7858  -15.7127 F   0  0  0  0  0  0  0  0  0  0  0  0
  -20.3298    3.5741  -14.9520 C   0  0  0  0  0  0  0  0  0  0  0  0
  -21.3634    2.7656  -14.4894 C   0  0  0  0  0  0  0  0  0  0  0  0
  -22.5583    3.3232  -14.2435 F   0  0  0  0  0  0  0  0  0  0  0  0
  -22.3414    0.2384  -12.5212 N   0  0  0  0  0  0  0  0  0  0  0  0
  -22.2400    0.4789  -13.8731 C   0  0  0  0  0  0  0  0  0  0  0  0
  -22.9447   -0.0444  -14.7323 O   0  0  0  0  0  0  0  0  0  0  0  0
  -21.9973    0.9129  -11.8452 H   0  0  0  0  0  0  0  0  0  0  0  0
  -23.1105   -1.7810  -11.7233 C   0  0  0  0  0  0  0  0  0  0  0  0
  -23.5026   -0.4707  -12.1285 O   0  0  0  0  0  0  0  0  0  0  0  0
 32 33  1  0  0  0
 33 28  1  0  0  0
 28 29  1  0  0  0
 28 31  1  0  0  0
 29 30  2  0  0  0
 29 20  1  0  0  0
 20 21  1  0  0  0
 20 26  2  0  0  0
 21 22  2  0  0  0
 22 18  1  0  0  0
 22 23  1  0  0  0
 18  1  1  0  0  0
 18 19  1  0  0  0
  1  2  2  0  0  0
  1  9  1  0  0  0
  2  3  1  0  0  0
  3  4  2  0  0  0
  4  5  1  0  0  0
  5  6  1  0  0  0
  5  9  1  0  0  0
  6  7  2  0  0  0
  7 10  1  0  0  0
  7  8  1  0  0  0
 10 11  2  0  0  0
 10 14  1  0  0  0
 11 12  1  0  0  0
 12 13  2  0  0  0
 13 14  1  0  0  0
  8 15  1  0  0  0
  8  9  2  0  0  0
 15 16  1  0  0  0
 15 17  1  0  0  0
 23 24  1  0  0  0
 23 25  2  0  0  0
 25 26  1  0  0  0
 26 27  1  0  0  0
M  END
> <minimizedAffinity>
-8.23973

$$$$
