CHEMBL271181


 33 36  0  0  0  0  0  0  0  0999 V2000
  -26.9311  -10.1439   -4.6885 C   0  0  0  0  0  0  0  0  0  0  0  0
  -26.9627   -8.9303   -4.0102 C   0  0  0  0  0  0  0  0  0  0  0  0
  -27.7309   -7.8697   -4.4992 C   0  0  0  0  0  0  0  0  0  0  0  0
  -28.4150   -7.9474   -5.7367 C   0  0  0  0  0  0  0  0  0  0  0  0
  -29.1984   -6.8945   -6.3065 C   0  0  0  0  0  0  0  0  0  0  0  0
  -29.7994   -7.0603   -7.5643 C   0  0  0  0  0  0  0  0  0  0  0  0
  -29.6603   -8.2546   -8.2615 C   0  0  0  0  0  0  0  0  0  0  0  0
  -28.9207   -9.2982   -7.7100 C   0  0  0  0  0  0  0  0  0  0  0  0
  -28.2948   -9.1629   -6.4611 C   0  0  0  0  0  0  0  0  0  0  0  0
  -27.5638  -10.2439   -5.9275 C   0  0  0  0  0  0  0  0  0  0  0  0
  -29.3636   -5.5648   -5.6280 C   0  0  0  0  0  0  0  0  0  0  0  0
  -30.1134   -5.4774   -4.6616 O   0  0  0  0  0  0  0  0  0  0  0  0
  -28.6409   -4.5192   -6.1880 N   0  0  0  0  0  0  0  0  0  0  0  0
  -28.1640   -4.7051   -7.0603 H   0  0  0  0  0  0  0  0  0  0  0  0
  -28.6271   -3.1740   -5.7541 C   0  0  0  0  0  0  0  0  0  0  0  0
  -29.7295   -2.3183   -5.8347 C   0  0  0  0  0  0  0  0  0  0  0  0
  -29.6198   -0.9737   -5.4615 C   0  0  0  0  0  0  0  0  0  0  0  0
  -28.4065   -0.4803   -4.9941 C   0  0  0  0  0  0  0  0  0  0  0  0
  -28.2562    1.1844   -4.5892 Cl  0  0  0  0  0  0  0  0  0  0  0  0
  -27.3115   -1.3294   -4.8625 C   0  0  0  0  0  0  0  0  0  0  0  0
  -27.4253   -2.6750   -5.2320 C   0  0  0  0  0  0  0  0  0  0  0  0
  -26.2690  -11.2655   -4.2373 O   0  0  0  0  0  0  0  0  0  0  0  0
  -22.6466  -11.1594   -4.8457 C   0  0  0  0  0  0  0  0  0  0  0  0
  -23.9977  -11.0930   -5.1323 C   0  0  0  0  0  0  0  0  0  0  0  0
  -24.8995  -11.2220   -4.0775 C   0  0  0  0  0  0  0  0  0  0  0  0
  -24.4182  -11.2935   -2.7766 C   0  0  0  0  0  0  0  0  0  0  0  0
  -23.0442  -11.3051   -2.5815 C   0  0  0  0  0  0  0  0  0  0  0  0
  -22.1388  -11.2667   -3.5846 N   0  0  0  0  0  0  0  0  0  0  0  0
  -20.4983   -9.8069   -7.6482 C   0  0  0  0  0  0  0  0  0  0  0  0
  -21.4137   -9.9485   -6.5481 N   0  0  0  0  0  0  0  0  0  0  0  0
  -21.6710  -11.1802   -5.9823 C   0  0  0  0  0  0  0  0  0  0  0  0
  -21.1429  -12.2188   -6.3560 O   0  0  0  0  0  0  0  0  0  0  0  0
  -21.8887   -9.1446   -6.1457 H   0  0  0  0  0  0  0  0  0  0  0  0
 29 30  1  0  0  0
 30 31  1  0  0  0
 30 33  1  0  0  0
 31 32  2  0  0  0
 31 23  1  0  0  0
 23 24  1  0  0  0
 23 28  2  0  0  0
 24 25  2  0  0  0
 25 22  1  0  0  0
 25 26  1  0  0  0
 22  1  1  0  0  0
  1  2  1  0  0  0
  1 10  2  0  0  0
  2  3  2  0  0  0
  3  4  1  0  0  0
  4  5  1  0  0  0
  4  9  2  0  0  0
  5 11  1  0  0  0
  5  6  2  0  0  0
 11 12  2  0  0  0
 11 13  1  0  0  0
 13 15  1  0  0  0
 13 14  1  0  0  0
 15 16  1  0  0  0
 15 21  2  0  0  0
 16 17  2  0  0  0
 17 18  1  0  0  0
 18 19  1  0  0  0
 18 20  2  0  0  0
 20 21  1  0  0  0
  6  7  1  0  0  0
  7  8  2  0  0  0
  8  9  1  0  0  0
  9 10  1  0  0  0
 26 27  2  0  0  0
 27 28  1  0  0  0
M  END
> <minimizedAffinity>
-9.26609

$$$$
