CHEMBL193342


 34 37  0  0  0  0  0  0  0  0999 V2000
  -28.6971   -5.0401   -6.6882 C   0  0  0  0  0  0  0  0  0  0  0  0
  -28.2199   -5.1419   -7.9473 N   0  0  0  0  0  0  0  0  0  0  0  0
  -27.9777   -4.0244   -8.7154 N   0  0  0  0  0  0  0  0  0  0  0  0
  -28.1524   -2.7805   -8.2215 C   0  0  0  0  0  0  0  0  0  0  0  0
  -28.5911   -2.6080   -6.8865 C   0  0  0  0  0  0  0  0  0  0  0  0
  -28.6873   -1.3348   -6.2616 C   0  0  0  0  0  0  0  0  0  0  0  0
  -29.2190   -1.1710   -4.9857 C   0  0  0  0  0  0  0  0  0  0  0  0
  -29.7317   -2.2670   -4.3211 C   0  0  0  0  0  0  0  0  0  0  0  0
  -29.6340   -3.5318   -4.9027 C   0  0  0  0  0  0  0  0  0  0  0  0
  -28.9714   -3.7575   -6.1454 C   0  0  0  0  0  0  0  0  0  0  0  0
  -28.9506   -8.8881   -4.6744 C   0  0  0  0  0  0  0  0  0  0  0  0
  -29.8060   -8.5938   -5.7316 C   0  0  0  0  0  0  0  0  0  0  0  0
  -29.7692   -7.3283   -6.3315 C   0  0  0  0  0  0  0  0  0  0  0  0
  -28.8246   -6.3463   -5.9726 C   0  0  0  0  0  0  0  0  0  0  0  0
  -28.0307   -6.6470   -4.8433 C   0  0  0  0  0  0  0  0  0  0  0  0
  -28.1010   -7.8934   -4.1901 C   0  0  0  0  0  0  0  0  0  0  0  0
  -30.0875  -10.9850   -4.1989 N   0  0  0  0  0  0  0  0  0  0  0  0
  -28.9570  -10.2268   -4.0328 C   0  0  0  0  0  0  0  0  0  0  0  0
  -27.9912  -10.6538   -3.4146 O   0  0  0  0  0  0  0  0  0  0  0  0
  -30.0597  -11.9283   -3.8287 H   0  0  0  0  0  0  0  0  0  0  0  0
  -30.7775  -10.7761   -4.9009 H   0  0  0  0  0  0  0  0  0  0  0  0
  -27.8382   -1.6424   -9.0271 N   0  0  0  0  0  0  0  0  0  0  0  0
  -28.6948   -1.1331   -9.2230 H   0  0  0  0  0  0  0  0  0  0  0  0
  -27.1273   -1.6776  -10.2557 C   0  0  0  0  0  0  0  0  0  0  0  0
  -27.7643   -1.6138  -11.4993 C   0  0  0  0  0  0  0  0  0  0  0  0
  -27.0256   -1.5638  -12.6894 C   0  0  0  0  0  0  0  0  0  0  0  0
  -25.6335   -1.5545  -12.6507 C   0  0  0  0  0  0  0  0  0  0  0  0
  -24.9918   -1.5592  -11.4103 C   0  0  0  0  0  0  0  0  0  0  0  0
  -25.7317   -1.5914  -10.2238 C   0  0  0  0  0  0  0  0  0  0  0  0
  -24.7994   -1.6072  -13.7292 O   0  0  0  0  0  0  0  0  0  0  0  0
  -24.0039   -0.4623  -14.0127 C   0  0  0  0  0  0  0  0  0  0  0  0
  -24.1702   -0.0641  -15.2970 F   0  0  0  0  0  0  0  0  0  0  0  0
  -24.3729    0.5582  -13.1998 F   0  0  0  0  0  0  0  0  0  0  0  0
  -22.3000   -0.8542  -13.7457 Cl  0  0  0  0  0  0  0  0  0  0  0  0
 17 18  1  0  0  0
 17 20  1  0  0  0
 17 21  1  0  0  0
 18 19  2  0  0  0
 18 11  1  0  0  0
 11 12  1  0  0  0
 11 16  2  0  0  0
 12 13  2  0  0  0
 13 14  1  0  0  0
 14  1  1  0  0  0
 14 15  2  0  0  0
  1  2  1  0  0  0
  1 10  2  0  0  0
  2  3  2  0  0  0
  3  4  1  0  0  0
  4 22  1  0  0  0
  4  5  2  0  0  0
 22 24  1  0  0  0
 22 23  1  0  0  0
 24 25  1  0  0  0
 24 29  2  0  0  0
 25 26  2  0  0  0
 26 27  1  0  0  0
 27 30  1  0  0  0
 27 28  2  0  0  0
 30 31  1  0  0  0
 31 32  1  0  0  0
 31 33  1  0  0  0
 31 34  1  0  0  0
 28 29  1  0  0  0
  5  6  1  0  0  0
  5 10  1  0  0  0
  6  7  2  0  0  0
  7  8  1  0  0  0
  8  9  2  0  0  0
  9 10  1  0  0  0
 15 16  1  0  0  0
M  END
> <minimizedAffinity>
-9.03532

$$$$
