CHEMBL1990884


 34 37  0  0  0  0  0  0  0  0999 V2000
  -29.5829   -6.9145   -5.3381 C   0  0  0  0  0  0  0  0  0  0  0  0
  -29.5589   -7.2478   -3.9821 C   0  0  0  0  0  0  0  0  0  0  0  0
  -28.7215   -8.2553   -3.4872 C   0  0  0  0  0  0  0  0  0  0  0  0
  -27.9239   -9.0385   -4.3328 C   0  0  0  0  0  0  0  0  0  0  0  0
  -27.9834   -8.7279   -5.7065 C   0  0  0  0  0  0  0  0  0  0  0  0
  -28.7788   -7.6799   -6.1862 C   0  0  0  0  0  0  0  0  0  0  0  0
  -28.7420   -7.3915   -7.4978 F   0  0  0  0  0  0  0  0  0  0  0  0
  -27.0189  -10.1069   -3.8057 C   0  0  0  0  0  0  0  0  0  0  0  0
  -27.5947  -11.3534   -3.4592 C   0  0  0  0  0  0  0  0  0  0  0  0
  -26.8383  -12.4194   -2.9759 C   0  0  0  0  0  0  0  0  0  0  0  0
  -25.4637  -12.2880   -2.8657 C   0  0  0  0  0  0  0  0  0  0  0  0
  -24.8405  -11.0830   -3.2138 C   0  0  0  0  0  0  0  0  0  0  0  0
  -25.6088   -9.9546   -3.6155 C   0  0  0  0  0  0  0  0  0  0  0  0
  -24.9505   -8.7466   -3.9772 N   0  0  0  0  0  0  0  0  0  0  0  0
  -24.0653   -8.6290   -3.4831 H   0  0  0  0  0  0  0  0  0  0  0  0
  -25.5424   -7.9299   -3.8414 H   0  0  0  0  0  0  0  0  0  0  0  0
  -23.3549  -11.0738   -3.0780 C   0  0  0  0  0  0  0  0  0  0  0  0
  -22.8361  -11.2844   -1.8309 N   0  0  0  0  0  0  0  0  0  0  0  0
  -22.6221  -10.8378   -4.0294 O   0  0  0  0  0  0  0  0  0  0  0  0
  -23.4360  -11.2579   -1.0127 H   0  0  0  0  0  0  0  0  0  0  0  0
  -21.8447  -11.1203   -1.7123 H   0  0  0  0  0  0  0  0  0  0  0  0
  -30.3121   -5.8194   -5.8458 N   0  0  0  0  0  0  0  0  0  0  0  0
  -31.0947   -6.0560   -6.4399 H   0  0  0  0  0  0  0  0  0  0  0  0
  -28.3488    1.0698   -4.9586 C   0  0  0  0  0  0  0  0  0  0  0  0
  -28.5384   -0.2953   -5.5544 C   0  0  0  0  0  0  0  0  0  0  0  0
  -28.0121   -0.6183   -6.8200 C   0  0  0  0  0  0  0  0  0  0  0  0
  -28.1624   -1.8961   -7.4026 C   0  0  0  0  0  0  0  0  0  0  0  0
  -27.6122   -2.2213   -8.7526 C   0  0  0  0  0  0  0  0  0  0  0  0
  -28.8701   -2.8104   -6.6223 C   0  0  0  0  0  0  0  0  0  0  0  0
  -29.1627   -4.1201   -6.9075 O   0  0  0  0  0  0  0  0  0  0  0  0
  -29.8895   -4.5397   -5.8274 C   0  0  0  0  0  0  0  0  0  0  0  0
  -30.0561   -3.6234   -4.8959 N   0  0  0  0  0  0  0  0  0  0  0  0
  -29.4122   -2.5268   -5.3833 C   0  0  0  0  0  0  0  0  0  0  0  0
  -29.2520   -1.2576   -4.8244 C   0  0  0  0  0  0  0  0  0  0  0  0
 24 25  1  0  0  0
 25 26  1  0  0  0
 25 34  2  0  0  0
 26 27  2  0  0  0
 27 28  1  0  0  0
 27 29  1  0  0  0
 29 30  1  0  0  0
 29 33  2  0  0  0
 30 31  1  0  0  0
 31 22  1  0  0  0
 31 32  2  0  0  0
 22  1  1  0  0  0
 22 23  1  0  0  0
  1  2  1  0  0  0
  1  6  2  0  0  0
  2  3  2  0  0  0
  3  4  1  0  0  0
  4  8  1  0  0  0
  4  5  2  0  0  0
  8  9  1  0  0  0
  8 13  2  0  0  0
  9 10  2  0  0  0
 10 11  1  0  0  0
 11 12  2  0  0  0
 12 17  1  0  0  0
 12 13  1  0  0  0
 17 18  1  0  0  0
 17 19  2  0  0  0
 18 20  1  0  0  0
 18 21  1  0  0  0
 13 14  1  0  0  0
 14 15  1  0  0  0
 14 16  1  0  0  0
  5  6  1  0  0  0
  6  7  1  0  0  0
 32 33  1  0  0  0
 33 34  1  0  0  0
M  END
> <minimizedAffinity>
-9.28394

$$$$
