CHEMBL3706814


 35 38  0  0  0  0  0  0  0  0999 V2000
  -14.5251   -5.3615  -13.0587 C   0  0  0  0  0  0  0  0  0  0  0  0
  -15.4264   -6.1231  -12.4156 N   0  0  0  0  0  0  0  0  0  0  0  0
  -16.4312   -5.5049  -11.7931 C   0  0  0  0  0  0  0  0  0  0  0  0
  -16.6082   -4.1832  -11.7182 N   0  0  0  0  0  0  0  0  0  0  0  0
  -15.6861   -3.4216  -12.3250 C   0  0  0  0  0  0  0  0  0  0  0  0
  -15.7827   -2.0330  -12.2663 C   0  0  0  0  0  0  0  0  0  0  0  0
  -14.8768   -1.1624  -12.9200 C   0  0  0  0  0  0  0  0  0  0  0  0
  -13.8232   -1.6982  -13.6578 C   0  0  0  0  0  0  0  0  0  0  0  0
  -13.7104   -3.0961  -13.6836 C   0  0  0  0  0  0  0  0  0  0  0  0
  -14.6162   -3.9623  -13.0341 C   0  0  0  0  0  0  0  0  0  0  0  0
  -13.4033   -5.9917  -13.6428 N   0  0  0  0  0  0  0  0  0  0  0  0
  -12.5100   -5.5314  -13.5174 H   0  0  0  0  0  0  0  0  0  0  0  0
  -13.3320   -8.6387  -17.0125 C   0  0  0  0  0  0  0  0  0  0  0  0
  -13.0411   -9.0961  -15.7894 C   0  0  0  0  0  0  0  0  0  0  0  0
  -13.1003   -8.2427  -14.5848 C   0  0  0  0  0  0  0  0  0  0  0  0
  -12.8479   -8.7136  -13.4797 O   0  0  0  0  0  0  0  0  0  0  0  0
  -13.4236   -6.7878  -14.7735 C   0  0  0  0  0  0  0  0  0  0  0  0
  -13.6971   -6.3563  -16.0070 C   0  0  0  0  0  0  0  0  0  0  0  0
  -13.8142   -7.2331  -17.1657 C   0  0  0  0  0  0  0  0  0  0  0  0
  -14.2777   -6.7808  -18.2003 O   0  0  0  0  0  0  0  0  0  0  0  0
  -13.1588   -9.4756  -18.1089 O   0  0  0  0  0  0  0  0  0  0  0  0
  -12.8134  -10.8229  -17.7645 C   0  0  0  0  0  0  0  0  0  0  0  0
  -14.9852  -12.0325  -17.9887 C   0  0  0  0  0  0  0  0  0  0  0  0
  -13.7608  -11.7502  -18.4536 C   0  0  0  0  0  0  0  0  0  0  0  0
  -12.8423   -1.1972  -14.4495 O   0  0  0  0  0  0  0  0  0  0  0  0
  -11.9595   -0.1370  -14.1625 C   0  0  0  0  0  0  0  0  0  0  0  0
  -15.2094    0.1435  -12.6730 O   0  0  0  0  0  0  0  0  0  0  0  0
  -15.5037    0.9637  -13.7854 C   0  0  0  0  0  0  0  0  0  0  0  0
  -16.8756    0.6935  -14.3705 C   0  0  0  0  0  0  0  0  0  0  0  0
  -17.8471    1.8565  -14.2228 C   0  0  0  0  0  0  0  0  0  0  0  0
  -18.8564    1.8251  -15.2942 N   0  0  0  0  0  0  0  0  0  0  0  0
  -19.6598    3.0561  -15.2947 C   0  0  0  0  0  0  0  0  0  0  0  0
  -20.7751    2.8058  -14.2957 C   0  0  0  0  0  0  0  0  0  0  0  0
  -21.0152    1.3075  -14.3587 C   0  0  0  0  0  0  0  0  0  0  0  0
  -19.8427    0.7431  -15.1462 C   0  0  0  0  0  0  0  0  0  0  0  0
 23 24  2  0  0  0
 24 22  1  0  0  0
 22 21  1  0  0  0
 21 13  1  0  0  0
 13 14  2  0  0  0
 13 19  1  0  0  0
 14 15  1  0  0  0
 15 16  2  0  0  0
 15 17  1  0  0  0
 17 11  1  0  0  0
 17 18  2  0  0  0
 11  1  1  0  0  0
 11 12  1  0  0  0
  1  2  1  0  0  0
  1 10  2  0  0  0
  2  3  2  0  0  0
  3  4  1  0  0  0
  4  5  2  0  0  0
  5  6  1  0  0  0
  5 10  1  0  0  0
  6  7  2  0  0  0
  7 27  1  0  0  0
  7  8  1  0  0  0
 27 28  1  0  0  0
 28 29  1  0  0  0
 29 30  1  0  0  0
 30 31  1  0  0  0
 31 32  1  0  0  0
 31 35  1  0  0  0
 32 33  1  0  0  0
 33 34  1  0  0  0
 34 35  1  0  0  0
  8 25  1  0  0  0
  8  9  2  0  0  0
 25 26  1  0  0  0
  9 10  1  0  0  0
 18 19  1  0  0  0
 19 20  2  0  0  0
M  END
> <minimizedAffinity>
-7.25778

$$$$
