CHEMBL4576489


 69 79  0  0  0  0  0  0  0  0999 V2000
  -19.2974    2.5780  -14.7196 N   0  0  0  0  0  0  0  0  0  0  0  0
  -19.7008    3.6162  -13.8762 C   0  0  0  0  0  0  0  0  0  0  0  0
  -17.5599    1.0585  -15.2575 C   0  0  0  0  0  0  0  0  0  0  0  0
  -18.2087    1.7584  -14.2261 C   0  0  0  0  0  0  0  0  0  0  0  0
  -16.9670    2.0972  -13.2707 C   0  0  0  0  0  0  0  0  0  0  0  0
  -15.5321    0.6573  -13.1543 C   0  0  0  0  0  0  0  0  0  0  0  0
  -16.7780    0.0633  -13.3752 O   0  0  0  0  0  0  0  0  0  0  0  0
  -16.7110   -0.0778  -14.6884 C   0  0  0  0  0  0  0  0  0  0  0  0
  -17.4433   -1.2346  -15.0824 C   0  0  0  0  0  0  0  0  0  0  0  0
  -15.3655   -0.5696  -14.9093 N   0  0  0  0  0  0  0  0  0  0  0  0
  -14.9028   -1.4631  -13.8215 C   0  0  0  0  0  0  0  0  0  0  0  0
  -15.5277   -2.1737  -12.5844 C   0  0  0  0  0  0  0  0  0  0  0  0
  -14.9564   -3.3996  -12.7078 C   0  0  0  0  0  0  0  0  0  0  0  0
  -13.6665   -3.3776  -13.1555 C   0  0  0  0  0  0  0  0  0  0  0  0
  -13.0223   -2.1084  -12.8730 C   0  0  0  0  0  0  0  0  0  0  0  0
  -13.7180   -1.0284  -13.2618 C   0  0  0  0  0  0  0  0  0  0  0  0
  -13.3870    0.3427  -13.5498 C   0  0  0  0  0  0  0  0  0  0  0  0
  -12.8574    1.6029  -13.4738 C   0  0  0  0  0  0  0  0  0  0  0  0
  -12.5381    2.0736  -14.6228 C   0  0  0  0  0  0  0  0  0  0  0  0
  -12.3398    1.2626  -15.5187 C   0  0  0  0  0  0  0  0  0  0  0  0
  -11.8788    1.3078  -16.4160 C   0  0  0  0  0  0  0  0  0  0  0  0
  -13.6390    1.9652  -17.6771 C   0  0  0  0  0  0  0  0  0  0  0  0
  -14.0443    0.9676  -18.8545 C   0  0  0  0  0  0  0  0  0  0  0  0
  -13.2201   -0.0085  -18.7521 C   0  0  0  0  0  0  0  0  0  0  0  0
  -11.7376    0.4898  -18.3678 C   0  0  0  0  0  0  0  0  0  0  0  0
  -11.9302    0.1982  -16.6201 C   0  0  0  0  0  0  0  0  0  0  0  0
  -13.4639    0.0551  -15.6523 N   0  0  0  0  0  0  0  0  0  0  0  0
  -13.6172    0.4313  -15.8675 C   0  0  0  0  0  0  0  0  0  0  0  0
  -14.4250    0.5680  -15.0691 C   0  0  0  0  0  0  0  0  0  0  0  0
  -12.9653    3.4024  -14.7042 C   0  0  0  0  0  0  0  0  0  0  0  0
  -14.1883    3.6884  -14.7890 O   0  0  0  0  0  0  0  0  0  0  0  0
  -12.3464    3.8581  -13.6601 N   0  0  0  0  0  0  0  0  0  0  0  0
  -12.4638    2.7053  -12.6897 C   0  0  0  0  0  0  0  0  0  0  0  0
  -11.3500    4.0525  -13.8866 H   0  0  0  0  0  0  0  0  0  0  0  0
  -16.9211    2.9265  -16.2183 C   0  0  0  0  0  0  0  0  0  0  0  0
  -17.2660    1.6126  -16.4567 O   0  0  0  0  0  0  0  0  0  0  0  0
  -20.3435    1.6898  -15.0450 C   0  0  0  0  0  0  0  0  0  0  0  0
  -21.2392    1.0868  -14.0289 C   0  0  0  0  0  0  0  0  0  0  0  0
  -22.5370    1.3700  -13.7397 O   0  0  0  0  0  0  0  0  0  0  0  0
  -23.0848    0.2541  -13.1838 C   0  0  0  0  0  0  0  0  0  0  0  0
  -24.2611    0.2311  -12.1298 C   0  0  0  0  0  0  0  0  0  0  0  0
  -24.8107   -0.8967  -11.4924 O   0  0  0  0  0  0  0  0  0  0  0  0
  -26.1162   -0.9690  -11.9057 C   0  0  0  0  0  0  0  0  0  0  0  0
  -26.7776   -1.9315  -10.9628 C   0  0  0  0  0  0  0  0  0  0  0  0
  -26.3677   -1.6022   -9.6528 O   0  0  0  0  0  0  0  0  0  0  0  0
  -27.5777   -1.7063   -8.9483 C   0  0  0  0  0  0  0  0  0  0  0  0
  -27.7273   -1.1799   -7.6182 C   0  0  0  0  0  0  0  0  0  0  0  0
  -28.4358   -2.0590   -6.6956 N   0  0  0  0  0  0  0  0  0  0  0  0
  -27.9553   -2.5747   -5.5390 C   0  0  0  0  0  0  0  0  0  0  0  0
  -26.8913   -2.2142   -5.0969 O   0  0  0  0  0  0  0  0  0  0  0  0
  -29.1467   -2.5918   -7.1909 H   0  0  0  0  0  0  0  0  0  0  0  0
  -28.3534   -3.9494   -5.3172 C   0  0  0  0  0  0  0  0  0  0  0  0
  -28.3614   -4.4154   -3.9126 C   0  0  0  0  0  0  0  0  0  0  0  0
  -29.5260   -5.2995   -3.8802 C   0  0  0  0  0  0  0  0  0  0  0  0
  -29.8316   -6.5984   -3.8944 N   0  0  0  0  0  0  0  0  0  0  0  0
  -31.0059   -6.4869   -4.3710 C   0  0  0  0  0  0  0  0  0  0  0  0
  -31.1702   -6.4247   -5.7300 C   0  0  0  0  0  0  0  0  0  0  0  0
  -30.4740   -6.9845   -6.8823 C   0  0  0  0  0  0  0  0  0  0  0  0
  -29.2498   -7.0399   -7.6542 C   0  0  0  0  0  0  0  0  0  0  0  0
  -28.0621   -6.6196   -8.3219 C   0  0  0  0  0  0  0  0  0  0  0  0
  -29.1249   -8.3943   -7.8540 C   0  0  0  0  0  0  0  0  0  0  0  0
  -30.1166   -8.7343   -7.9384 C   0  0  0  0  0  0  0  0  0  0  0  0
  -29.8274   -9.5996   -9.4930 C   0  0  0  0  0  0  0  0  0  0  0  0
  -30.5179   -8.2110   -6.5610 N   0  0  0  0  0  0  0  0  0  0  0  0
  -29.3661   -7.9778   -4.4885 B   0  0  0  0  0  0  0  0  0  0  0  0
  -28.1934   -8.0315   -3.0390 F   0  0  0  0  0  0  0  0  0  0  0  0
  -28.0387   -7.5103   -4.6272 F   0  0  0  0  0  0  0  0  0  0  0  0
  -31.6837   -5.4147   -3.8748 C   0  0  0  0  0  0  0  0  0  0  0  0
  -30.7543   -4.5304   -3.7316 C   0  0  0  0  0  0  0  0  0  0  0  0
 35 36  1  0  0  0
 36  3  1  0  0  0
  3  4  1  0  0  0
  3  8  1  0  0  0
  4  5  1  0  0  0
  4  1  1  0  0  0
  1  2  1  0  0  0
  1 37  1  0  0  0
 37 38  1  0  0  0
 38 39  1  0  0  0
 39 40  1  0  0  0
 40 41  1  0  0  0
 41 42  1  0  0  0
 42 43  1  0  0  0
 43 44  1  0  0  0
 44 45  1  0  0  0
 45 46  1  0  0  0
 46 47  1  0  0  0
 47 48  1  0  0  0
 48 49  1  0  0  0
 48 51  1  0  0  0
 49 50  2  0  0  0
 49 52  1  0  0  0
 52 53  1  0  0  0
 53 54  1  0  0  0
 54 55  2  0  0  0
 54 69  1  0  0  0
 55 56  1  0  0  0
 55 65  1  0  0  0
 56 57  2  0  0  0
 56 68  1  0  0  0
 57 58  1  0  0  0
 58 59  2  0  0  0
 58 64  1  0  0  0
 59 60  1  0  0  0
 59 61  1  0  0  0
 61 62  2  0  0  0
 62 63  1  0  0  0
 62 64  1  0  0  0
 64 65  1  0  0  0
 65 66  1  0  0  0
 65 67  1  0  0  0
 68 69  2  0  0  0
  5  6  1  0  0  0
  6  7  1  0  0  0
  6 27  1  0  0  0
  7  8  1  0  0  0
  8  9  1  0  0  0
  8 10  1  0  0  0
 10 11  1  0  0  0
 10 29  1  0  0  0
 11 12  1  0  0  0
 11 16  2  0  0  0
 12 13  2  0  0  0
 13 14  1  0  0  0
 14 15  2  0  0  0
 15 16  1  0  0  0
 16 17  1  0  0  0
 17 18  1  0  0  0
 17 29  2  0  0  0
 18 19  2  0  0  0
 18 33  1  0  0  0
 19 20  1  0  0  0
 19 30  1  0  0  0
 20 21  1  0  0  0
 20 28  2  0  0  0
 21 22  1  0  0  0
 21 26  2  0  0  0
 22 23  2  0  0  0
 23 24  1  0  0  0
 24 25  2  0  0  0
 25 26  1  0  0  0
 26 27  1  0  0  0
 27 28  1  0  0  0
 28 29  1  0  0  0
 30 31  2  0  0  0
 30 32  1  0  0  0
 32 33  1  0  0  0
 32 34  1  0  0  0
M  CHG 1  55   1
M  CHG 1  65  -1
M  END
> <minimizedAffinity>
-7.98114

$$$$
