CHEMBL3896623


 37 41  0  0  0  0  0  0  0  0999 V2000
  -16.6751    1.8679  -15.3183 N   0  0  0  0  0  0  0  0  0  0  0  0
  -18.1478    1.8331  -15.3460 C   0  0  0  0  0  0  0  0  0  0  0  0
  -18.7505    3.0773  -15.4499 C   0  0  0  0  0  0  0  0  0  0  0  0
  -20.0445    3.3389  -15.1025 C   0  0  0  0  0  0  0  0  0  0  0  0
  -20.8534    2.3259  -14.6783 C   0  0  0  0  0  0  0  0  0  0  0  0
  -22.0649    2.6819  -14.1961 N   0  0  0  0  0  0  0  0  0  0  0  0
  -22.9417    1.7663  -13.7673 C   0  0  0  0  0  0  0  0  0  0  0  0
  -22.6729    0.4145  -13.9351 C   0  0  0  0  0  0  0  0  0  0  0  0
  -21.4110    0.0217  -14.4005 N   0  0  0  0  0  0  0  0  0  0  0  0
  -20.4429    0.9696  -14.7282 C   0  0  0  0  0  0  0  0  0  0  0  0
  -19.0367    0.7050  -15.0573 C   0  0  0  0  0  0  0  0  0  0  0  0
  -23.8835   -0.4367  -13.7236 C   0  0  0  0  0  0  0  0  0  0  0  0
  -24.6622   -1.0332  -14.7022 C   0  0  0  0  0  0  0  0  0  0  0  0
  -25.7802   -1.5433  -14.1363 N   0  0  0  0  0  0  0  0  0  0  0  0
  -25.7419   -1.2812  -12.8395 N   0  0  0  0  0  0  0  0  0  0  0  0
  -26.7810   -1.6907  -11.8896 C   0  0  0  0  0  0  0  0  0  0  0  0
  -24.6217   -0.5874  -12.5502 C   0  0  0  0  0  0  0  0  0  0  0  0
  -14.4729    3.8498  -17.6749 C   0  0  0  0  0  0  0  0  0  0  0  0
  -13.7283    2.8134  -18.2788 C   0  0  0  0  0  0  0  0  0  0  0  0
  -13.9748    1.4731  -17.9434 C   0  0  0  0  0  0  0  0  0  0  0  0
  -14.9707    1.1795  -17.0050 C   0  0  0  0  0  0  0  0  0  0  0  0
  -15.7651    2.1920  -16.3982 C   0  0  0  0  0  0  0  0  0  0  0  0
  -15.5060    3.5272  -16.7644 C   0  0  0  0  0  0  0  0  0  0  0  0
  -14.7650    5.9464  -18.9214 C   0  0  0  0  0  0  0  0  0  0  0  0
  -14.2106    5.1655  -17.9187 O   0  0  0  0  0  0  0  0  0  0  0  0
  -13.2744    0.4350  -18.4854 O   0  0  0  0  0  0  0  0  0  0  0  0
  -13.6555   -0.8922  -18.5273 C   0  0  0  0  0  0  0  0  0  0  0  0
  -16.0621    1.3328  -14.0544 C   0  0  0  0  0  0  0  0  0  0  0  0
  -15.8669   -0.2193  -13.9061 C   0  0  0  0  0  0  0  0  0  0  0  0
  -15.2554   -0.7369  -12.6630 N   0  0  0  0  0  0  0  0  0  0  0  0
  -15.8409   -0.4897  -11.8349 H   0  0  0  0  0  0  0  0  0  0  0  0
  -14.8527   -2.1618  -12.6821 C   0  0  0  0  0  0  0  0  0  0  0  0
  -16.0813   -3.1006  -12.6315 C   0  0  0  0  0  0  0  0  0  0  0  0
  -16.0233   -4.0422  -11.4182 C   0  0  0  0  0  0  0  0  0  0  0  0
  -16.8454   -5.1791  -11.9324 C   0  0  0  0  0  0  0  0  0  0  0  0
  -16.2995   -5.2479  -13.3443 C   0  0  0  0  0  0  0  0  0  0  0  0
  -16.1426   -3.9185  -13.7904 O   0  0  0  0  0  0  0  0  0  0  0  0
 24 25  1  0  0  0
 25 18  1  0  0  0
 18 19  1  0  0  0
 18 23  2  0  0  0
 19 20  2  0  0  0
 20 26  1  0  0  0
 20 21  1  0  0  0
 26 27  1  0  0  0
 21 22  2  0  0  0
 22  1  1  0  0  0
 22 23  1  0  0  0
  1 28  1  0  0  0
  1  2  1  0  0  0
 28 29  1  0  0  0
 29 30  1  0  0  0
 30 32  1  0  0  0
 30 31  1  0  0  0
 32 33  1  0  0  0
 33 34  1  0  0  0
 33 37  1  0  0  0
 34 35  1  0  0  0
 35 36  1  0  0  0
 36 37  1  0  0  0
  2  3  1  0  0  0
  2 11  2  0  0  0
  3  4  2  0  0  0
  4  5  1  0  0  0
  5  6  1  0  0  0
  5 10  2  0  0  0
  6  7  2  0  0  0
  7  8  1  0  0  0
  8 12  1  0  0  0
  8  9  2  0  0  0
 12 13  1  0  0  0
 12 17  2  0  0  0
 13 14  2  0  0  0
 14 15  1  0  0  0
 15 16  1  0  0  0
 15 17  1  0  0  0
  9 10  1  0  0  0
 10 11  1  0  0  0
M  END
> <minimizedAffinity>
-9.14991

$$$$
