CHEMBL380508


 30 34  0  0  0  0  0  0  0  0999 V2000
  -28.1064   -9.6854   -4.5823 C   0  0  0  0  0  0  0  0  0  0  0  0
  -28.4316   -9.2156   -3.3653 N   0  0  0  0  0  0  0  0  0  0  0  0
  -29.1279   -8.0497   -3.2287 N   0  0  0  0  0  0  0  0  0  0  0  0
  -29.3995   -7.2636   -4.2918 C   0  0  0  0  0  0  0  0  0  0  0  0
  -29.0732   -7.7046   -5.6033 C   0  0  0  0  0  0  0  0  0  0  0  0
  -29.2710   -6.9485   -6.7947 C   0  0  0  0  0  0  0  0  0  0  0  0
  -29.0578   -7.4779   -8.0687 C   0  0  0  0  0  0  0  0  0  0  0  0
  -28.5698   -8.7639   -8.1978 C   0  0  0  0  0  0  0  0  0  0  0  0
  -28.2515   -9.4956   -7.0530 C   0  0  0  0  0  0  0  0  0  0  0  0
  -28.4855   -8.9872   -5.7483 C   0  0  0  0  0  0  0  0  0  0  0  0
  -30.0801   -5.9744   -3.9408 C   0  0  0  0  0  0  0  0  0  0  0  0
  -31.3925   -6.0092   -3.4195 C   0  0  0  0  0  0  0  0  0  0  0  0
  -32.1405   -4.8566   -3.2014 C   0  0  0  0  0  0  0  0  0  0  0  0
  -31.5571   -3.6175   -3.4043 C   0  0  0  0  0  0  0  0  0  0  0  0
  -30.2177   -3.5198   -3.7950 C   0  0  0  0  0  0  0  0  0  0  0  0
  -29.6095   -2.2647   -3.9008 C   0  0  0  0  0  0  0  0  0  0  0  0
  -28.3246   -2.0520   -4.2475 N   0  0  0  0  0  0  0  0  0  0  0  0
  -27.6002   -3.1488   -4.5131 C   0  0  0  0  0  0  0  0  0  0  0  0
  -28.1102   -4.4392   -4.4723 C   0  0  0  0  0  0  0  0  0  0  0  0
  -29.4522   -4.6805   -4.0810 C   0  0  0  0  0  0  0  0  0  0  0  0
  -27.3473  -10.8742   -4.6729 N   0  0  0  0  0  0  0  0  0  0  0  0
  -27.9375  -11.6970   -4.5934 H   0  0  0  0  0  0  0  0  0  0  0  0
  -22.0497  -11.2129   -2.4773 C   0  0  0  0  0  0  0  0  0  0  0  0
  -23.4247  -11.2010   -3.0774 C   0  0  0  0  0  0  0  0  0  0  0  0
  -24.5121  -11.7560   -2.3939 C   0  0  0  0  0  0  0  0  0  0  0  0
  -25.8029  -11.6930   -2.9349 C   0  0  0  0  0  0  0  0  0  0  0  0
  -26.0412  -11.0847   -4.1745 C   0  0  0  0  0  0  0  0  0  0  0  0
  -24.9370  -10.5440   -4.8495 C   0  0  0  0  0  0  0  0  0  0  0  0
  -25.1258   -9.9348   -6.0320 F   0  0  0  0  0  0  0  0  0  0  0  0
  -23.6462  -10.6068   -4.3239 C   0  0  0  0  0  0  0  0  0  0  0  0
 23 24  1  0  0  0
 24 25  1  0  0  0
 24 30  2  0  0  0
 25 26  2  0  0  0
 26 27  1  0  0  0
 27 21  1  0  0  0
 27 28  2  0  0  0
 21  1  1  0  0  0
 21 22  1  0  0  0
  1  2  1  0  0  0
  1 10  2  0  0  0
  2  3  2  0  0  0
  3  4  1  0  0  0
  4 11  1  0  0  0
  4  5  2  0  0  0
 11 12  1  0  0  0
 11 20  2  0  0  0
 12 13  2  0  0  0
 13 14  1  0  0  0
 14 15  2  0  0  0
 15 16  1  0  0  0
 15 20  1  0  0  0
 16 17  2  0  0  0
 17 18  1  0  0  0
 18 19  2  0  0  0
 19 20  1  0  0  0
  5  6  1  0  0  0
  5 10  1  0  0  0
  6  7  2  0  0  0
  7  8  1  0  0  0
  8  9  2  0  0  0
  9 10  1  0  0  0
 28 29  1  0  0  0
 28 30  1  0  0  0
M  END
> <minimizedAffinity>
-9.34176

$$$$
