CHEMBL218576


 43 47  0  0  0  0  0  0  0  0999 V2000
  -14.2245   -0.5644  -14.1649 C   0  0  0  0  0  0  0  0  0  0  0  0
  -13.5158   -1.6352  -14.7337 C   0  0  0  0  0  0  0  0  0  0  0  0
  -13.8827   -2.9568  -14.4583 C   0  0  0  0  0  0  0  0  0  0  0  0
  -14.8893   -3.1940  -13.5176 C   0  0  0  0  0  0  0  0  0  0  0  0
  -15.5508   -2.1361  -12.8958 C   0  0  0  0  0  0  0  0  0  0  0  0
  -15.2402   -0.8085  -13.2232 C   0  0  0  0  0  0  0  0  0  0  0  0
  -16.0231    0.3061  -12.5913 C   0  0  0  0  0  0  0  0  0  0  0  0
  -13.3481   -4.1323  -15.2209 C   0  0  0  0  0  0  0  0  0  0  0  0
  -12.1393   -4.1945  -15.4371 O   0  0  0  0  0  0  0  0  0  0  0  0
  -14.2740   -5.0792  -15.6257 N   0  0  0  0  0  0  0  0  0  0  0  0
  -15.1738   -4.7368  -15.9290 H   0  0  0  0  0  0  0  0  0  0  0  0
  -13.8936   -6.3619  -16.0928 C   0  0  0  0  0  0  0  0  0  0  0  0
  -13.9186   -6.5347  -17.4869 C   0  0  0  0  0  0  0  0  0  0  0  0
  -13.4403   -7.7111  -18.0764 C   0  0  0  0  0  0  0  0  0  0  0  0
  -12.9822   -8.7360  -17.2454 C   0  0  0  0  0  0  0  0  0  0  0  0
  -13.0196   -8.5907  -15.8553 C   0  0  0  0  0  0  0  0  0  0  0  0
  -13.4938   -7.4184  -15.2334 C   0  0  0  0  0  0  0  0  0  0  0  0
  -13.6394   -7.4072  -13.8533 N   0  0  0  0  0  0  0  0  0  0  0  0
  -14.9201   -7.7057  -13.2133 C   0  0  0  0  0  0  0  0  0  0  0  0
  -15.3212   -6.5283  -12.3227 C   0  0  0  0  0  0  0  0  0  0  0  0
  -14.2076   -6.1809  -11.3329 C   0  0  0  0  0  0  0  0  0  0  0  0
  -12.8834   -5.9471  -12.0581 C   0  0  0  0  0  0  0  0  0  0  0  0
  -12.5212   -7.1316  -12.9542 C   0  0  0  0  0  0  0  0  0  0  0  0
  -13.3818   -7.8668  -19.5729 C   0  0  0  0  0  0  0  0  0  0  0  0
  -13.8622   -9.0632  -20.0149 F   0  0  0  0  0  0  0  0  0  0  0  0
  -14.1026   -6.9131  -20.2254 F   0  0  0  0  0  0  0  0  0  0  0  0
  -12.1131   -7.7745  -20.0590 F   0  0  0  0  0  0  0  0  0  0  0  0
  -13.9255    0.7494  -14.4901 O   0  0  0  0  0  0  0  0  0  0  0  0
  -14.4993    1.7417  -16.6145 C   0  0  0  0  0  0  0  0  0  0  0  0
  -14.0436    2.0571  -17.9124 C   0  0  0  0  0  0  0  0  0  0  0  0
  -12.7735    1.6884  -18.3513 C   0  0  0  0  0  0  0  0  0  0  0  0
  -11.9756    0.9712  -17.4888 C   0  0  0  0  0  0  0  0  0  0  0  0
  -12.3635    0.6151  -16.2509 N   0  0  0  0  0  0  0  0  0  0  0  0
  -13.5885    1.0313  -15.8176 C   0  0  0  0  0  0  0  0  0  0  0  0
  -17.9492    1.5495  -15.4870 C   0  0  0  0  0  0  0  0  0  0  0  0
  -18.3604    2.8124  -15.3444 N   0  0  0  0  0  0  0  0  0  0  0  0
  -17.4734    3.7774  -15.6351 C   0  0  0  0  0  0  0  0  0  0  0  0
  -16.1916    3.5314  -16.0632 C   0  0  0  0  0  0  0  0  0  0  0  0
  -15.8372    2.2039  -16.1865 C   0  0  0  0  0  0  0  0  0  0  0  0
  -16.7124    1.2124  -15.8760 N   0  0  0  0  0  0  0  0  0  0  0  0
  -20.2259    1.0605  -14.8868 C   0  0  0  0  0  0  0  0  0  0  0  0
  -18.9101    0.5827  -15.2415 N   0  0  0  0  0  0  0  0  0  0  0  0
  -18.8756   -0.0591  -16.0260 H   0  0  0  0  0  0  0  0  0  0  0  0
 41 42  1  0  0  0
 42 35  1  0  0  0
 42 43  1  0  0  0
 35 36  1  0  0  0
 35 40  2  0  0  0
 36 37  2  0  0  0
 37 38  1  0  0  0
 38 39  2  0  0  0
 39 29  1  0  0  0
 39 40  1  0  0  0
 29 30  1  0  0  0
 29 34  2  0  0  0
 30 31  2  0  0  0
 31 32  1  0  0  0
 32 33  2  0  0  0
 33 34  1  0  0  0
 34 28  1  0  0  0
 28  1  1  0  0  0
  1  2  1  0  0  0
  1  6  2  0  0  0
  2  3  2  0  0  0
  3  8  1  0  0  0
  3  4  1  0  0  0
  8  9  2  0  0  0
  8 10  1  0  0  0
 10 12  1  0  0  0
 10 11  1  0  0  0
 12 13  1  0  0  0
 12 17  2  0  0  0
 13 14  2  0  0  0
 14 24  1  0  0  0
 14 15  1  0  0  0
 24 25  1  0  0  0
 24 26  1  0  0  0
 24 27  1  0  0  0
 15 16  2  0  0  0
 16 17  1  0  0  0
 17 18  1  0  0  0
 18 19  1  0  0  0
 18 23  1  0  0  0
 19 20  1  0  0  0
 20 21  1  0  0  0
 21 22  1  0  0  0
 22 23  1  0  0  0
  4  5  2  0  0  0
  5  6  1  0  0  0
  6  7  1  0  0  0
M  END
> <minimizedAffinity>
-7.87336

$$$$
