CHEMBL197158


 30 33  0  0  0  0  0  0  0  0999 V2000
  -28.5385   -5.2692   -5.2547 C   0  0  0  0  0  0  0  0  0  0  0  0
  -27.5210   -5.5287   -4.4027 N   0  0  0  0  0  0  0  0  0  0  0  0
  -27.0901   -6.8140   -4.1869 N   0  0  0  0  0  0  0  0  0  0  0  0
  -27.6231   -7.8510   -4.8602 C   0  0  0  0  0  0  0  0  0  0  0  0
  -28.6789   -7.6372   -5.7718 C   0  0  0  0  0  0  0  0  0  0  0  0
  -29.2164   -8.6783   -6.5731 C   0  0  0  0  0  0  0  0  0  0  0  0
  -30.2887   -8.4688   -7.4381 C   0  0  0  0  0  0  0  0  0  0  0  0
  -30.8935   -7.2269   -7.4802 C   0  0  0  0  0  0  0  0  0  0  0  0
  -30.3734   -6.1834   -6.7137 C   0  0  0  0  0  0  0  0  0  0  0  0
  -29.2065   -6.3291   -5.9154 C   0  0  0  0  0  0  0  0  0  0  0  0
  -29.1628   -1.0063   -5.7208 C   0  0  0  0  0  0  0  0  0  0  0  0
  -29.7005   -1.6751   -4.6206 C   0  0  0  0  0  0  0  0  0  0  0  0
  -29.5560   -3.0621   -4.5019 C   0  0  0  0  0  0  0  0  0  0  0  0
  -28.8141   -3.8150   -5.4338 C   0  0  0  0  0  0  0  0  0  0  0  0
  -28.3757   -3.1318   -6.5831 C   0  0  0  0  0  0  0  0  0  0  0  0
  -28.5549   -1.7484   -6.7337 C   0  0  0  0  0  0  0  0  0  0  0  0
  -28.1303    1.1736   -6.0701 N   0  0  0  0  0  0  0  0  0  0  0  0
  -29.2666    0.4763   -5.7655 C   0  0  0  0  0  0  0  0  0  0  0  0
  -30.3044    1.0601   -5.4815 O   0  0  0  0  0  0  0  0  0  0  0  0
  -28.1806    2.1793   -5.9687 H   0  0  0  0  0  0  0  0  0  0  0  0
  -27.2140    0.7508   -6.0858 H   0  0  0  0  0  0  0  0  0  0  0  0
  -27.1301   -9.1692   -4.6725 N   0  0  0  0  0  0  0  0  0  0  0  0
  -27.8421   -9.7534   -4.2490 H   0  0  0  0  0  0  0  0  0  0  0  0
  -25.8241   -9.6296   -4.4187 C   0  0  0  0  0  0  0  0  0  0  0  0
  -24.8465   -9.7522   -5.4125 C   0  0  0  0  0  0  0  0  0  0  0  0
  -23.6104  -10.3538   -5.1467 C   0  0  0  0  0  0  0  0  0  0  0  0
  -23.3510  -10.8698   -3.8842 C   0  0  0  0  0  0  0  0  0  0  0  0
  -21.7080  -11.7373   -3.5421 Br  0  0  0  0  0  0  0  0  0  0  0  0
  -24.3116  -10.7747   -2.8785 C   0  0  0  0  0  0  0  0  0  0  0  0
  -25.5398  -10.1601   -3.1489 C   0  0  0  0  0  0  0  0  0  0  0  0
 17 18  1  0  0  0
 17 20  1  0  0  0
 17 21  1  0  0  0
 18 19  2  0  0  0
 18 11  1  0  0  0
 11 12  1  0  0  0
 11 16  2  0  0  0
 12 13  2  0  0  0
 13 14  1  0  0  0
 14  1  1  0  0  0
 14 15  2  0  0  0
  1  2  1  0  0  0
  1 10  2  0  0  0
  2  3  2  0  0  0
  3  4  1  0  0  0
  4 22  1  0  0  0
  4  5  2  0  0  0
 22 24  1  0  0  0
 22 23  1  0  0  0
 24 25  1  0  0  0
 24 30  2  0  0  0
 25 26  2  0  0  0
 26 27  1  0  0  0
 27 28  1  0  0  0
 27 29  2  0  0  0
 29 30  1  0  0  0
  5  6  1  0  0  0
  5 10  1  0  0  0
  6  7  2  0  0  0
  7  8  1  0  0  0
  8  9  2  0  0  0
  9 10  1  0  0  0
 15 16  1  0  0  0
M  END
> <minimizedAffinity>
-8.39310

$$$$
