CHEMBL4079087


 43 48  0  0  0  0  0  0  0  0999 V2000
  -28.6719   -0.7290   -5.4240 C   0  0  0  0  0  0  0  0  0  0  0  0
  -29.4060   -1.3260   -4.3733 C   0  0  0  0  0  0  0  0  0  0  0  0
  -29.6427   -2.7194   -4.3437 C   0  0  0  0  0  0  0  0  0  0  0  0
  -29.1589   -3.4965   -5.3865 C   0  0  0  0  0  0  0  0  0  0  0  0
  -28.3826   -2.8701   -6.3719 C   0  0  0  0  0  0  0  0  0  0  0  0
  -28.1186   -1.5213   -6.4254 C   0  0  0  0  0  0  0  0  0  0  0  0
  -28.0390   -3.7582   -7.3766 N   0  0  0  0  0  0  0  0  0  0  0  0
  -28.7172   -4.9468   -7.2137 C   0  0  0  0  0  0  0  0  0  0  0  0
  -29.0095   -5.7168   -8.1289 O   0  0  0  0  0  0  0  0  0  0  0  0
  -29.2667   -4.9218   -5.8063 C   0  0  0  0  0  0  0  0  0  0  0  0
  -29.7565   -6.0391   -5.2151 C   0  0  0  0  0  0  0  0  0  0  0  0
  -27.6159   -3.4912   -8.2553 H   0  0  0  0  0  0  0  0  0  0  0  0
  -30.6651   -5.9226   -4.0486 C   0  0  0  0  0  0  0  0  0  0  0  0
  -31.8396   -5.1591   -4.1605 C   0  0  0  0  0  0  0  0  0  0  0  0
  -32.7226   -5.0373   -3.0820 C   0  0  0  0  0  0  0  0  0  0  0  0
  -32.4562   -5.7000   -1.8873 C   0  0  0  0  0  0  0  0  0  0  0  0
  -31.3047   -6.4800   -1.7716 C   0  0  0  0  0  0  0  0  0  0  0  0
  -30.4108   -6.5886   -2.8446 C   0  0  0  0  0  0  0  0  0  0  0  0
  -28.4904    0.7341   -5.5592 C   0  0  0  0  0  0  0  0  0  0  0  0
  -27.9218    1.4215   -4.7091 O   0  0  0  0  0  0  0  0  0  0  0  0
  -30.3792    1.5597   -6.6145 C   0  0  0  0  0  0  0  0  0  0  0  0
  -29.0088    1.1814   -6.7189 O   0  0  0  0  0  0  0  0  0  0  0  0
  -29.5625   -7.3714   -5.5999 N   0  0  0  0  0  0  0  0  0  0  0  0
  -29.9009   -7.5964   -6.5311 H   0  0  0  0  0  0  0  0  0  0  0  0
  -28.5922   -8.2607   -5.0839 C   0  0  0  0  0  0  0  0  0  0  0  0
  -27.3295   -7.8129   -4.6775 C   0  0  0  0  0  0  0  0  0  0  0  0
  -26.2971   -8.7180   -4.3948 C   0  0  0  0  0  0  0  0  0  0  0  0
  -26.5126  -10.0954   -4.5151 C   0  0  0  0  0  0  0  0  0  0  0  0
  -27.7991  -10.5528   -4.7979 C   0  0  0  0  0  0  0  0  0  0  0  0
  -28.8298   -9.6389   -5.0706 C   0  0  0  0  0  0  0  0  0  0  0  0
  -25.4132  -10.9935   -4.3741 N   0  0  0  0  0  0  0  0  0  0  0  0
  -24.8462  -11.3138   -3.1483 C   0  0  0  0  0  0  0  0  0  0  0  0
  -23.8494  -12.2415   -3.3247 C   0  0  0  0  0  0  0  0  0  0  0  0
  -23.7439  -12.4625   -4.7071 C   0  0  0  0  0  0  0  0  0  0  0  0
  -24.6921  -11.6794   -5.3539 C   0  0  0  0  0  0  0  0  0  0  0  0
  -24.8570  -11.5667   -6.8416 C   0  0  0  0  0  0  0  0  0  0  0  0
  -26.2200  -11.2667   -7.2894 N   0  0  0  0  0  0  0  0  0  0  0  0
  -26.3180  -10.0690   -8.1425 C   0  0  0  0  0  0  0  0  0  0  0  0
  -27.7762   -9.8292   -8.6115 C   0  0  0  0  0  0  0  0  0  0  0  0
  -28.4132  -10.9607   -9.3162 N   0  0  0  0  0  0  0  0  0  0  0  0
  -27.8885  -11.1164  -10.6691 C   0  0  0  0  0  0  0  0  0  0  0  0
  -28.2282  -12.1855   -8.5100 C   0  0  0  0  0  0  0  0  0  0  0  0
  -26.7830  -12.4262   -8.0117 C   0  0  0  0  0  0  0  0  0  0  0  0
 21 22  1  0  0  0
 22 19  1  0  0  0
 19 20  2  0  0  0
 19  1  1  0  0  0
  1  2  1  0  0  0
  1  6  2  0  0  0
  2  3  2  0  0  0
  3  4  1  0  0  0
  4  5  2  0  0  0
  4 10  1  0  0  0
  5  6  1  0  0  0
  5  7  1  0  0  0
  7  8  1  0  0  0
  7 12  1  0  0  0
  8  9  2  0  0  0
  8 10  1  0  0  0
 10 11  2  0  0  0
 11 23  1  0  0  0
 11 13  1  0  0  0
 23 25  1  0  0  0
 23 24  1  0  0  0
 25 26  1  0  0  0
 25 30  2  0  0  0
 26 27  2  0  0  0
 27 28  1  0  0  0
 28 31  1  0  0  0
 28 29  2  0  0  0
 31 32  1  0  0  0
 31 35  1  0  0  0
 32 33  2  0  0  0
 33 34  1  0  0  0
 34 35  2  0  0  0
 35 36  1  0  0  0
 36 37  1  0  0  0
 37 38  1  0  0  0
 37 43  1  0  0  0
 38 39  1  0  0  0
 39 40  1  0  0  0
 40 41  1  0  0  0
 40 42  1  0  0  0
 42 43  1  0  0  0
 29 30  1  0  0  0
 13 14  1  0  0  0
 13 18  2  0  0  0
 14 15  2  0  0  0
 15 16  1  0  0  0
 16 17  2  0  0  0
 17 18  1  0  0  0
M  END
> <minimizedAffinity>
-6.76562

$$$$
