CHEMBL3746776


 36 41  0  0  0  0  0  0  0  0999 V2000
  -27.4208  -10.0705   -5.2419 C   0  0  0  0  0  0  0  0  0  0  0  0
  -27.1303   -8.8545   -4.6269 C   0  0  0  0  0  0  0  0  0  0  0  0
  -27.9916   -7.7684   -4.7405 C   0  0  0  0  0  0  0  0  0  0  0  0
  -29.1265   -7.9065   -5.5503 C   0  0  0  0  0  0  0  0  0  0  0  0
  -29.4330   -9.1071   -6.1966 C   0  0  0  0  0  0  0  0  0  0  0  0
  -30.6826   -8.9256   -6.8470 C   0  0  0  0  0  0  0  0  0  0  0  0
  -31.1337   -7.6643   -6.5303 C   0  0  0  0  0  0  0  0  0  0  0  0
  -30.1631   -7.0110   -5.7909 N   0  0  0  0  0  0  0  0  0  0  0  0
  -30.2807   -5.7242   -5.2426 C   0  0  0  0  0  0  0  0  0  0  0  0
  -31.3247   -5.4130   -4.6838 O   0  0  0  0  0  0  0  0  0  0  0  0
  -29.1743   -4.9526   -5.5299 N   0  0  0  0  0  0  0  0  0  0  0  0
  -28.5507  -10.2019   -6.0563 C   0  0  0  0  0  0  0  0  0  0  0  0
  -28.7559   -5.0853   -6.4445 H   0  0  0  0  0  0  0  0  0  0  0  0
  -29.1806   -3.6424   -5.1038 C   0  0  0  0  0  0  0  0  0  0  0  0
  -29.4009   -2.4988   -5.9048 C   0  0  0  0  0  0  0  0  0  0  0  0
  -29.1564   -1.4283   -5.0770 C   0  0  0  0  0  0  0  0  0  0  0  0
  -28.8383   -1.9780   -3.8649 N   0  0  0  0  0  0  0  0  0  0  0  0
  -28.9730   -3.3211   -3.8265 N   0  0  0  0  0  0  0  0  0  0  0  0
  -28.5302   -1.4988   -3.0259 H   0  0  0  0  0  0  0  0  0  0  0  0
  -29.1877    0.0709   -5.4208 C   0  0  0  0  0  0  0  0  0  0  0  0
  -30.5429    0.7227   -5.5453 C   0  0  0  0  0  0  0  0  0  0  0  0
  -28.0697    0.5921   -6.3173 C   0  0  0  0  0  0  0  0  0  0  0  0
  -28.0614    0.9390   -4.8699 C   0  0  0  0  0  0  0  0  0  0  0  0
  -26.6221  -11.1862   -5.1320 O   0  0  0  0  0  0  0  0  0  0  0  0
  -22.0859  -11.2296   -2.5659 C   0  0  0  0  0  0  0  0  0  0  0  0
  -22.4935  -11.6648   -3.9704 C   0  0  0  0  0  0  0  0  0  0  0  0
  -23.9639  -11.2913   -4.2286 C   0  0  0  0  0  0  0  0  0  0  0  0
  -24.3417  -11.4474   -5.6694 C   0  0  0  0  0  0  0  0  0  0  0  0
  -23.3878  -11.5858   -6.6651 C   0  0  0  0  0  0  0  0  0  0  0  0
  -23.7127  -11.7545   -7.9658 N   0  0  0  0  0  0  0  0  0  0  0  0
  -25.0192  -11.7205   -8.2615 C   0  0  0  0  0  0  0  0  0  0  0  0
  -26.0148  -11.5215   -7.3935 N   0  0  0  0  0  0  0  0  0  0  0  0
  -25.6499  -11.4102   -6.1018 C   0  0  0  0  0  0  0  0  0  0  0  0
  -21.9150  -11.5838   -6.3075 C   0  0  0  0  0  0  0  0  0  0  0  0
  -21.6141  -11.0351   -4.9693 N   0  0  0  0  0  0  0  0  0  0  0  0
  -21.7946  -10.0304   -4.9922 H   0  0  0  0  0  0  0  0  0  0  0  0
 25 26  1  0  0  0
 26 27  1  0  0  0
 26 35  1  0  0  0
 27 28  1  0  0  0
 28 29  1  0  0  0
 28 33  2  0  0  0
 29 30  2  0  0  0
 29 34  1  0  0  0
 30 31  1  0  0  0
 31 32  2  0  0  0
 32 33  1  0  0  0
 33 24  1  0  0  0
 24  1  1  0  0  0
  1  2  1  0  0  0
  1 12  2  0  0  0
  2  3  2  0  0  0
  3  4  1  0  0  0
  4  5  2  0  0  0
  4  8  1  0  0  0
  5  6  1  0  0  0
  5 12  1  0  0  0
  6  7  2  0  0  0
  7  8  1  0  0  0
  8  9  1  0  0  0
  9 10  2  0  0  0
  9 11  1  0  0  0
 11 14  1  0  0  0
 11 13  1  0  0  0
 14 15  1  0  0  0
 14 18  2  0  0  0
 15 16  2  0  0  0
 16 20  1  0  0  0
 16 17  1  0  0  0
 20 21  1  0  0  0
 20 22  1  0  0  0
 20 23  1  0  0  0
 22 23  1  0  0  0
 17 18  1  0  0  0
 17 19  1  0  0  0
 34 35  1  0  0  0
 35 36  1  0  0  0
M  END
> <minimizedAffinity>
-9.80531

$$$$
