CHEMBL2206661


 28 31  0  0  0  0  0  0  0  0999 V2000
  -24.7061   -1.3143  -12.7701 C   0  0  0  0  0  0  0  0  0  0  0  0
  -25.9266   -1.6028  -13.3889 C   0  0  0  0  0  0  0  0  0  0  0  0
  -27.0926   -1.7662  -12.6426 C   0  0  0  0  0  0  0  0  0  0  0  0
  -27.0420   -1.6891  -11.2566 C   0  0  0  0  0  0  0  0  0  0  0  0
  -25.8356   -1.4226  -10.6119 C   0  0  0  0  0  0  0  0  0  0  0  0
  -24.6689   -1.2385  -11.3702 C   0  0  0  0  0  0  0  0  0  0  0  0
  -23.0644    1.0949  -12.8700 O   0  0  0  0  0  0  0  0  0  0  0  0
  -22.7821    0.0944  -13.5202 C   0  0  0  0  0  0  0  0  0  0  0  0
  -21.7131    0.0213  -14.3994 N   0  0  0  0  0  0  0  0  0  0  0  0
  -23.5075   -1.0901  -13.4896 N   0  0  0  0  0  0  0  0  0  0  0  0
  -21.6733   -0.7835  -15.0040 H   0  0  0  0  0  0  0  0  0  0  0  0
  -23.1021   -1.8894  -13.9508 H   0  0  0  0  0  0  0  0  0  0  0  0
  -20.8250    1.0810  -14.7081 C   0  0  0  0  0  0  0  0  0  0  0  0
  -21.2048    2.4265  -14.7498 C   0  0  0  0  0  0  0  0  0  0  0  0
  -20.2963    3.4169  -15.1337 C   0  0  0  0  0  0  0  0  0  0  0  0
  -18.9924    3.0732  -15.4673 C   0  0  0  0  0  0  0  0  0  0  0  0
  -18.5900    1.7422  -15.3972 C   0  0  0  0  0  0  0  0  0  0  0  0
  -19.4990    0.7509  -15.0099 C   0  0  0  0  0  0  0  0  0  0  0  0
  -28.2111   -1.7430  -10.4697 O   0  0  0  0  0  0  0  0  0  0  0  0
  -28.1146   -1.8394   -9.0866 C   0  0  0  0  0  0  0  0  0  0  0  0
  -28.3383   -3.2525   -8.7045 C   0  0  0  0  0  0  0  0  0  0  0  0
  -28.2390   -3.5402   -7.3987 C   0  0  0  0  0  0  0  0  0  0  0  0
  -27.9503   -2.5023   -6.4820 C   0  0  0  0  0  0  0  0  0  0  0  0
  -27.7955   -2.5142   -5.1745 N   0  0  0  0  0  0  0  0  0  0  0  0
  -27.5111   -1.2137   -4.8359 C   0  0  0  0  0  0  0  0  0  0  0  0
  -27.4940   -0.4052   -5.9478 C   0  0  0  0  0  0  0  0  0  0  0  0
  -27.7833   -1.2272   -7.0007 N   0  0  0  0  0  0  0  0  0  0  0  0
  -27.8612   -0.8430   -8.3022 N   0  0  0  0  0  0  0  0  0  0  0  0
  7  8  2  0  0  0
  8  9  1  0  0  0
  8 10  1  0  0  0
  9 13  1  0  0  0
  9 11  1  0  0  0
 13 14  1  0  0  0
 13 18  2  0  0  0
 14 15  2  0  0  0
 15 16  1  0  0  0
 16 17  2  0  0  0
 17 18  1  0  0  0
 10  1  1  0  0  0
 10 12  1  0  0  0
  1  2  1  0  0  0
  1  6  2  0  0  0
  2  3  2  0  0  0
  3  4  1  0  0  0
  4 19  1  0  0  0
  4  5  2  0  0  0
 19 20  1  0  0  0
 20 21  1  0  0  0
 20 28  2  0  0  0
 21 22  2  0  0  0
 22 23  1  0  0  0
 23 24  2  0  0  0
 23 27  1  0  0  0
 24 25  1  0  0  0
 25 26  2  0  0  0
 26 27  1  0  0  0
 27 28  1  0  0  0
  5  6  1  0  0  0
M  END
> <minimizedAffinity>
-10.05627

$$$$
