CHEMBL3671492


 32 34  0  0  0  0  0  0  0  0999 V2000
  -28.3778   -5.6138   -7.3412 C   0  0  0  0  0  0  0  0  0  0  0  0
  -28.1531   -4.5452   -8.2082 C   0  0  0  0  0  0  0  0  0  0  0  0
  -28.1453   -3.2162   -7.7629 C   0  0  0  0  0  0  0  0  0  0  0  0
  -27.9554   -2.1211   -8.6199 C   0  0  0  0  0  0  0  0  0  0  0  0
  -27.9133   -0.8634   -8.1564 N   0  0  0  0  0  0  0  0  0  0  0  0
  -28.1155   -0.7132   -6.8419 C   0  0  0  0  0  0  0  0  0  0  0  0
  -28.3154   -1.6899   -5.9420 N   0  0  0  0  0  0  0  0  0  0  0  0
  -28.3188   -2.9443   -6.4034 C   0  0  0  0  0  0  0  0  0  0  0  0
  -28.4923   -4.0191   -5.5296 C   0  0  0  0  0  0  0  0  0  0  0  0
  -28.4930   -5.3635   -5.9649 C   0  0  0  0  0  0  0  0  0  0  0  0
  -29.7462   -7.5173   -7.9525 C   0  0  0  0  0  0  0  0  0  0  0  0
  -30.8039   -7.0507   -7.5452 O   0  0  0  0  0  0  0  0  0  0  0  0
  -28.5249   -6.8725   -7.9523 N   0  0  0  0  0  0  0  0  0  0  0  0
  -27.7143   -7.3955   -8.2324 H   0  0  0  0  0  0  0  0  0  0  0  0
  -30.7719   -9.6295   -8.5681 C   0  0  0  0  0  0  0  0  0  0  0  0
  -29.6573   -8.9065   -8.4738 C   0  0  0  0  0  0  0  0  0  0  0  0
  -27.8312   -2.3519  -10.0082 N   0  0  0  0  0  0  0  0  0  0  0  0
  -28.7192   -2.6218  -10.4272 H   0  0  0  0  0  0  0  0  0  0  0  0
  -26.9213   -1.7986  -10.9261 C   0  0  0  0  0  0  0  0  0  0  0  0
  -25.6410   -1.3848  -10.5429 C   0  0  0  0  0  0  0  0  0  0  0  0
  -24.6883   -1.0293  -11.5032 C   0  0  0  0  0  0  0  0  0  0  0  0
  -25.0164   -1.0718  -12.8576 C   0  0  0  0  0  0  0  0  0  0  0  0
  -23.6903   -0.7059  -14.1536 Br  0  0  0  0  0  0  0  0  0  0  0  0
  -26.2994   -1.4226  -13.2616 C   0  0  0  0  0  0  0  0  0  0  0  0
  -27.2321   -1.7884  -12.2952 C   0  0  0  0  0  0  0  0  0  0  0  0
  -28.4571   -2.1682  -12.6938 F   0  0  0  0  0  0  0  0  0  0  0  0
  -28.7360   -6.2895   -4.9624 O   0  0  0  0  0  0  0  0  0  0  0  0
  -29.6081   -5.8046   -3.9471 C   0  0  0  0  0  0  0  0  0  0  0  0
  -31.1007   -6.0797   -4.1740 C   0  0  0  0  0  0  0  0  0  0  0  0
  -31.8977   -5.0048   -3.5317 N   0  0  0  0  0  0  0  0  0  0  0  0
  -32.5094   -5.4469   -2.2748 C   0  0  0  0  0  0  0  0  0  0  0  0
  -31.0912   -3.8086   -3.2980 C   0  0  0  0  0  0  0  0  0  0  0  0
 15 16  2  0  0  0
 16 11  1  0  0  0
 11 12  2  0  0  0
 11 13  1  0  0  0
 13  1  1  0  0  0
 13 14  1  0  0  0
  1  2  1  0  0  0
  1 10  2  0  0  0
  2  3  2  0  0  0
  3  4  1  0  0  0
  3  8  1  0  0  0
  4 17  1  0  0  0
  4  5  2  0  0  0
 17 19  1  0  0  0
 17 18  1  0  0  0
 19 20  1  0  0  0
 19 25  2  0  0  0
 20 21  2  0  0  0
 21 22  1  0  0  0
 22 23  1  0  0  0
 22 24  2  0  0  0
 24 25  1  0  0  0
 25 26  1  0  0  0
  5  6  1  0  0  0
  6  7  2  0  0  0
  7  8  1  0  0  0
  8  9  2  0  0  0
  9 10  1  0  0  0
 10 27  1  0  0  0
 27 28  1  0  0  0
 28 29  1  0  0  0
 29 30  1  0  0  0
 30 31  1  0  0  0
 30 32  1  0  0  0
M  END
> <minimizedAffinity>
-8.36486

$$$$
