CHEMBL3907314


 36 40  0  0  0  0  0  0  0  0999 V2000
  -14.1054   -4.7259  -12.5865 N   0  0  0  0  0  0  0  0  0  0  0  0
  -13.7733   -3.4502  -13.2120 C   0  0  0  0  0  0  0  0  0  0  0  0
  -12.4756   -3.0227  -13.0003 C   0  0  0  0  0  0  0  0  0  0  0  0
  -12.1526   -1.6762  -13.0563 C   0  0  0  0  0  0  0  0  0  0  0  0
  -13.0552   -0.7291  -13.4623 C   0  0  0  0  0  0  0  0  0  0  0  0
  -12.6306    0.5200  -13.2727 N   0  0  0  0  0  0  0  0  0  0  0  0
  -13.3937    1.4994  -13.7749 C   0  0  0  0  0  0  0  0  0  0  0  0
  -14.5230    1.2305  -14.5203 C   0  0  0  0  0  0  0  0  0  0  0  0
  -15.0255   -0.0554  -14.6237 N   0  0  0  0  0  0  0  0  0  0  0  0
  -14.3074   -1.0928  -14.0199 C   0  0  0  0  0  0  0  0  0  0  0  0
  -14.6703   -2.5002  -13.8179 C   0  0  0  0  0  0  0  0  0  0  0  0
  -15.0332    2.3647  -15.2930 C   0  0  0  0  0  0  0  0  0  0  0  0
  -16.3799    2.6965  -15.6121 C   0  0  0  0  0  0  0  0  0  0  0  0
  -16.4810    3.6166  -16.5800 N   0  0  0  0  0  0  0  0  0  0  0  0
  -15.2028    3.8733  -16.9033 N   0  0  0  0  0  0  0  0  0  0  0  0
  -14.8793    4.9785  -17.7779 C   0  0  0  0  0  0  0  0  0  0  0  0
  -14.3170    3.0413  -16.2723 C   0  0  0  0  0  0  0  0  0  0  0  0
  -13.9751   -7.4437  -15.1701 C   0  0  0  0  0  0  0  0  0  0  0  0
  -13.6606   -8.5569  -14.3932 C   0  0  0  0  0  0  0  0  0  0  0  0
  -13.5705   -8.4323  -13.0099 C   0  0  0  0  0  0  0  0  0  0  0  0
  -13.7917   -7.1817  -12.4063 C   0  0  0  0  0  0  0  0  0  0  0  0
  -14.0850   -6.0279  -13.1518 C   0  0  0  0  0  0  0  0  0  0  0  0
  -14.1847   -6.1926  -14.5479 C   0  0  0  0  0  0  0  0  0  0  0  0
  -13.6860   -8.6737  -17.1953 C   0  0  0  0  0  0  0  0  0  0  0  0
  -14.0324   -7.4504  -16.5428 O   0  0  0  0  0  0  0  0  0  0  0  0
  -13.2391   -9.4386  -12.1400 O   0  0  0  0  0  0  0  0  0  0  0  0
  -12.0156  -10.1279  -12.3796 C   0  0  0  0  0  0  0  0  0  0  0  0
  -15.1752   -4.4427  -11.5512 C   0  0  0  0  0  0  0  0  0  0  0  0
  -14.7800   -3.9325  -10.1518 C   0  0  0  0  0  0  0  0  0  0  0  0
  -13.9394   -4.8327   -9.2170 C   0  0  0  0  0  0  0  0  0  0  0  0
  -12.5166   -4.4674   -9.4245 N   0  0  0  0  0  0  0  0  0  0  0  0
  -11.5856   -5.6123   -9.4999 C   0  0  0  0  0  0  0  0  0  0  0  0
  -11.1699   -5.3863   -8.0335 C   0  0  0  0  0  0  0  0  0  0  0  0
  -11.6750   -6.3242   -7.0551 O   0  0  0  0  0  0  0  0  0  0  0  0
  -11.8830   -4.0269   -8.1630 C   0  0  0  0  0  0  0  0  0  0  0  0
  -12.5994   -6.4811   -7.3078 H   0  0  0  0  0  0  0  0  0  0  0  0
 24 25  1  0  0  0
 25 18  1  0  0  0
 18 19  1  0  0  0
 18 23  2  0  0  0
 19 20  2  0  0  0
 20 26  1  0  0  0
 20 21  1  0  0  0
 26 27  1  0  0  0
 21 22  2  0  0  0
 22  1  1  0  0  0
 22 23  1  0  0  0
  1 28  1  0  0  0
  1  2  1  0  0  0
 28 29  1  0  0  0
 29 30  1  0  0  0
 30 31  1  0  0  0
 31 32  1  0  0  0
 31 35  1  0  0  0
 32 33  1  0  0  0
 33 34  1  0  0  0
 33 35  1  0  0  0
 34 36  1  0  0  0
  2  3  1  0  0  0
  2 11  2  0  0  0
  3  4  2  0  0  0
  4  5  1  0  0  0
  5  6  1  0  0  0
  5 10  2  0  0  0
  6  7  2  0  0  0
  7  8  1  0  0  0
  8 12  1  0  0  0
  8  9  2  0  0  0
 12 13  1  0  0  0
 12 17  2  0  0  0
 13 14  2  0  0  0
 14 15  1  0  0  0
 15 16  1  0  0  0
 15 17  1  0  0  0
  9 10  1  0  0  0
 10 11  1  0  0  0
M  END
> <minimizedAffinity>
-6.87686

$$$$
