CHEMBL3093582


 42 47  0  0  0  0  0  0  0  0999 V2000
  -18.7710    1.3911  -14.8360 C   0  0  0  0  0  0  0  0  0  0  0  0
  -19.5552    0.2681  -15.1278 C   0  0  0  0  0  0  0  0  0  0  0  0
  -20.9370    0.2832  -14.9671 C   0  0  0  0  0  0  0  0  0  0  0  0
  -21.5566    1.4431  -14.5260 C   0  0  0  0  0  0  0  0  0  0  0  0
  -20.7827    2.5340  -14.1314 C   0  0  0  0  0  0  0  0  0  0  0  0
  -21.3680    3.6275  -13.6187 F   0  0  0  0  0  0  0  0  0  0  0  0
  -19.3882    2.5109  -14.2698 C   0  0  0  0  0  0  0  0  0  0  0  0
  -16.3985    1.0872  -14.2030 C   0  0  0  0  0  0  0  0  0  0  0  0
  -16.6126    0.7119  -13.0491 O   0  0  0  0  0  0  0  0  0  0  0  0
  -17.3833    1.4203  -15.1180 N   0  0  0  0  0  0  0  0  0  0  0  0
  -17.0912    1.5792  -16.0838 H   0  0  0  0  0  0  0  0  0  0  0  0
  -10.7608    1.4215  -15.6054 C   0  0  0  0  0  0  0  0  0  0  0  0
  -12.2342    1.2721  -15.3279 C   0  0  0  0  0  0  0  0  0  0  0  0
  -12.6428    1.0889  -14.0631 C   0  0  0  0  0  0  0  0  0  0  0  0
  -14.0361    1.0420  -13.7393 C   0  0  0  0  0  0  0  0  0  0  0  0
  -14.9869    1.1371  -14.6830 C   0  0  0  0  0  0  0  0  0  0  0  0
  -14.5744    1.2942  -16.1044 C   0  0  0  0  0  0  0  0  0  0  0  0
  -15.4525    1.2971  -16.9723 O   0  0  0  0  0  0  0  0  0  0  0  0
  -13.1829    1.4025  -16.3573 N   0  0  0  0  0  0  0  0  0  0  0  0
  -12.8133    1.6613  -17.7136 C   0  0  0  0  0  0  0  0  0  0  0  0
  -12.7261    2.9857  -18.1641 C   0  0  0  0  0  0  0  0  0  0  0  0
  -12.4089    3.2591  -19.4943 C   0  0  0  0  0  0  0  0  0  0  0  0
  -12.1909    2.2105  -20.3857 C   0  0  0  0  0  0  0  0  0  0  0  0
  -12.2736    0.8897  -19.9449 C   0  0  0  0  0  0  0  0  0  0  0  0
  -12.5786    0.6137  -18.6103 C   0  0  0  0  0  0  0  0  0  0  0  0
  -22.9538    1.4881  -14.3685 O   0  0  0  0  0  0  0  0  0  0  0  0
  -23.5714    0.6302  -13.4596 C   0  0  0  0  0  0  0  0  0  0  0  0
  -22.4942   -0.0552  -12.7106 C   0  0  0  0  0  0  0  0  0  0  0  0
  -22.8832   -0.9417  -11.7878 C   0  0  0  0  0  0  0  0  0  0  0  0
  -24.2606   -1.1633  -11.5812 C   0  0  0  0  0  0  0  0  0  0  0  0
  -24.8800   -1.9664  -10.7515 N   0  0  0  0  0  0  0  0  0  0  0  0
  -26.2116   -1.8090  -10.9983 C   0  0  0  0  0  0  0  0  0  0  0  0
  -26.4129   -0.8884  -12.0057 C   0  0  0  0  0  0  0  0  0  0  0  0
  -25.1552   -0.4592  -12.3669 N   0  0  0  0  0  0  0  0  0  0  0  0
  -24.8523    0.4668  -13.3309 N   0  0  0  0  0  0  0  0  0  0  0  0
  -27.1843   -2.5152  -10.3194 N   0  0  0  0  0  0  0  0  0  0  0  0
  -27.5810   -2.1962   -9.0332 C   0  0  0  0  0  0  0  0  0  0  0  0
  -27.1974   -1.2512   -8.3577 O   0  0  0  0  0  0  0  0  0  0  0  0
  -27.6184   -3.2843  -10.8014 H   0  0  0  0  0  0  0  0  0  0  0  0
  -28.5988   -3.0888   -8.3954 C   0  0  0  0  0  0  0  0  0  0  0  0
  -28.6833   -3.4818   -6.9447 C   0  0  0  0  0  0  0  0  0  0  0  0
  -28.2197   -4.4833   -7.9613 C   0  0  0  0  0  0  0  0  0  0  0  0
 12 13  1  0  0  0
 13 14  2  0  0  0
 13 19  1  0  0  0
 14 15  1  0  0  0
 15 16  2  0  0  0
 16  8  1  0  0  0
 16 17  1  0  0  0
  8  9  2  0  0  0
  8 10  1  0  0  0
 10  1  1  0  0  0
 10 11  1  0  0  0
  1  2  1  0  0  0
  1  7  2  0  0  0
  2  3  2  0  0  0
  3  4  1  0  0  0
  4 26  1  0  0  0
  4  5  2  0  0  0
 26 27  1  0  0  0
 27 28  1  0  0  0
 27 35  2  0  0  0
 28 29  2  0  0  0
 29 30  1  0  0  0
 30 31  2  0  0  0
 30 34  1  0  0  0
 31 32  1  0  0  0
 32 36  1  0  0  0
 32 33  2  0  0  0
 36 37  1  0  0  0
 36 39  1  0  0  0
 37 38  2  0  0  0
 37 40  1  0  0  0
 40 41  1  0  0  0
 40 42  1  0  0  0
 41 42  1  0  0  0
 33 34  1  0  0  0
 34 35  1  0  0  0
  5  6  1  0  0  0
  5  7  1  0  0  0
 17 18  2  0  0  0
 17 19  1  0  0  0
 19 20  1  0  0  0
 20 21  1  0  0  0
 20 25  2  0  0  0
 21 22  2  0  0  0
 22 23  1  0  0  0
 23 24  2  0  0  0
 24 25  1  0  0  0
M  END
> <minimizedAffinity>
-9.26115

$$$$
