CHEMBL1200485


 35 37  0  0  0  0  0  0  0  0999 V2000
  -16.4976    1.5365  -15.8647 C   0  0  0  0  0  0  0  0  0  0  0  0
  -17.4797    0.8027  -15.1877 C   0  0  0  0  0  0  0  0  0  0  0  0
  -18.6981    1.3926  -14.8334 C   0  0  0  0  0  0  0  0  0  0  0  0
  -18.9253    2.7427  -15.1003 C   0  0  0  0  0  0  0  0  0  0  0  0
  -17.9411    3.4836  -15.7603 C   0  0  0  0  0  0  0  0  0  0  0  0
  -16.7242    2.8856  -16.1289 C   0  0  0  0  0  0  0  0  0  0  0  0
  -20.1830    3.2702  -14.7633 N   0  0  0  0  0  0  0  0  0  0  0  0
  -21.2899    2.6397  -14.2563 C   0  0  0  0  0  0  0  0  0  0  0  0
  -22.3419    3.2745  -14.1973 O   0  0  0  0  0  0  0  0  0  0  0  0
  -21.1586    1.3234  -13.9083 N   0  0  0  0  0  0  0  0  0  0  0  0
  -20.4726    4.1135  -15.2465 H   0  0  0  0  0  0  0  0  0  0  0  0
  -20.2384    1.0470  -13.6131 H   0  0  0  0  0  0  0  0  0  0  0  0
  -22.2233    0.5147  -13.4720 C   0  0  0  0  0  0  0  0  0  0  0  0
  -22.2695    0.1884  -12.1209 C   0  0  0  0  0  0  0  0  0  0  0  0
  -23.3117   -0.5953  -11.6303 C   0  0  0  0  0  0  0  0  0  0  0  0
  -24.2916   -1.1053  -12.4914 C   0  0  0  0  0  0  0  0  0  0  0  0
  -25.5006   -2.0940  -11.7588 Cl  0  0  0  0  0  0  0  0  0  0  0  0
  -24.2523   -0.8129  -13.8598 C   0  0  0  0  0  0  0  0  0  0  0  0
  -23.2047    0.0141  -14.3357 C   0  0  0  0  0  0  0  0  0  0  0  0
  -25.2499   -1.3274  -14.8673 C   0  0  0  0  0  0  0  0  0  0  0  0
  -25.1922   -0.7799  -16.1101 F   0  0  0  0  0  0  0  0  0  0  0  0
  -25.1306   -2.6719  -15.0646 F   0  0  0  0  0  0  0  0  0  0  0  0
  -26.5359   -1.1351  -14.4509 F   0  0  0  0  0  0  0  0  0  0  0  0
  -15.3477    0.8407  -16.1578 O   0  0  0  0  0  0  0  0  0  0  0  0
  -12.5023    2.1345  -14.1787 C   0  0  0  0  0  0  0  0  0  0  0  0
  -13.7965    1.6793  -14.4257 C   0  0  0  0  0  0  0  0  0  0  0  0
  -14.1016    1.1995  -15.6952 C   0  0  0  0  0  0  0  0  0  0  0  0
  -13.1039    1.2058  -16.6669 C   0  0  0  0  0  0  0  0  0  0  0  0
  -11.8328    1.6406  -16.3216 C   0  0  0  0  0  0  0  0  0  0  0  0
  -11.4978    2.0988  -15.0955 N   0  0  0  0  0  0  0  0  0  0  0  0
  -10.9325    4.5461  -11.6833 C   0  0  0  0  0  0  0  0  0  0  0  0
  -11.3183    3.8271  -12.8737 N   0  0  0  0  0  0  0  0  0  0  0  0
  -12.1888    2.7561  -12.8468 C   0  0  0  0  0  0  0  0  0  0  0  0
  -12.6942    2.3128  -11.8208 O   0  0  0  0  0  0  0  0  0  0  0  0
  -11.0083    4.1479  -13.7867 H   0  0  0  0  0  0  0  0  0  0  0  0
 31 32  1  0  0  0
 32 33  1  0  0  0
 32 35  1  0  0  0
 33 34  2  0  0  0
 33 25  1  0  0  0
 25 26  1  0  0  0
 25 30  2  0  0  0
 26 27  2  0  0  0
 27 24  1  0  0  0
 27 28  1  0  0  0
 24  1  1  0  0  0
  1  2  1  0  0  0
  1  6  2  0  0  0
  2  3  2  0  0  0
  3  4  1  0  0  0
  4  7  1  0  0  0
  4  5  2  0  0  0
  7  8  1  0  0  0
  7 11  1  0  0  0
  8  9  2  0  0  0
  8 10  1  0  0  0
 10 13  1  0  0  0
 10 12  1  0  0  0
 13 14  1  0  0  0
 13 19  2  0  0  0
 14 15  2  0  0  0
 15 16  1  0  0  0
 16 17  1  0  0  0
 16 18  2  0  0  0
 18 20  1  0  0  0
 18 19  1  0  0  0
 20 21  1  0  0  0
 20 22  1  0  0  0
 20 23  1  0  0  0
  5  6  1  0  0  0
 28 29  2  0  0  0
 29 30  1  0  0  0
M  END
> <minimizedAffinity>
-9.66467

$$$$
