CHEMBL3706832


 32 34  0  0  0  0  0  0  0  0999 V2000
  -16.5106    2.4735  -15.8717 C   0  0  0  0  0  0  0  0  0  0  0  0
  -15.1323    2.2647  -15.6171 C   0  0  0  0  0  0  0  0  0  0  0  0
  -14.6413    1.2962  -14.7450 C   0  0  0  0  0  0  0  0  0  0  0  0
  -13.3207    1.1975  -14.5219 N   0  0  0  0  0  0  0  0  0  0  0  0
  -12.9181    0.2540  -13.6652 C   0  0  0  0  0  0  0  0  0  0  0  0
  -13.7100   -0.6131  -13.0278 N   0  0  0  0  0  0  0  0  0  0  0  0
  -15.0362   -0.5162  -13.2550 C   0  0  0  0  0  0  0  0  0  0  0  0
  -15.5603    0.4630  -14.1126 C   0  0  0  0  0  0  0  0  0  0  0  0
  -16.9403    0.6627  -14.3529 C   0  0  0  0  0  0  0  0  0  0  0  0
  -17.4335    1.6432  -15.2287 C   0  0  0  0  0  0  0  0  0  0  0  0
  -15.9219   -1.3897  -12.5760 N   0  0  0  0  0  0  0  0  0  0  0  0
  -16.8549   -1.3858  -12.9923 H   0  0  0  0  0  0  0  0  0  0  0  0
  -15.6188   -2.6340  -12.0396 C   0  0  0  0  0  0  0  0  0  0  0  0
  -15.3286   -2.9165  -10.7672 C   0  0  0  0  0  0  0  0  0  0  0  0
  -14.9742   -4.2678  -10.3151 C   0  0  0  0  0  0  0  0  0  0  0  0
  -14.8882   -4.5044   -9.1174 O   0  0  0  0  0  0  0  0  0  0  0  0
  -14.6848   -5.2653  -11.3684 C   0  0  0  0  0  0  0  0  0  0  0  0
  -13.8729   -6.7058  -10.8561 Cl  0  0  0  0  0  0  0  0  0  0  0  0
  -15.0067   -5.0551  -12.6541 C   0  0  0  0  0  0  0  0  0  0  0  0
  -15.7010   -3.7797  -13.0122 C   0  0  0  0  0  0  0  0  0  0  0  0
  -16.2826   -3.6097  -14.0834 O   0  0  0  0  0  0  0  0  0  0  0  0
  -14.7026   -6.0269  -13.5963 O   0  0  0  0  0  0  0  0  0  0  0  0
  -13.5527   -5.8926  -14.4391 C   0  0  0  0  0  0  0  0  0  0  0  0
  -12.4483   -6.8897  -14.0935 C   0  0  0  0  0  0  0  0  0  0  0  0
  -14.0444   -6.1683  -15.8617 C   0  0  0  0  0  0  0  0  0  0  0  0
  -18.7954    1.6683  -15.1648 O   0  0  0  0  0  0  0  0  0  0  0  0
  -19.5085    2.8042  -14.7133 C   0  0  0  0  0  0  0  0  0  0  0  0
  -16.6885    3.5441  -16.7131 O   0  0  0  0  0  0  0  0  0  0  0  0
  -15.5645    4.3573  -16.9791 C   0  0  0  0  0  0  0  0  0  0  0  0
  -15.2539    4.5169  -18.4597 C   0  0  0  0  0  0  0  0  0  0  0  0
  -13.8461    2.7298  -19.1516 C   0  0  0  0  0  0  0  0  0  0  0  0
  -13.9148    4.0359  -18.6141 O   0  0  0  0  0  0  0  0  0  0  0  0
 31 32  1  0  0  0
 32 30  1  0  0  0
 30 29  1  0  0  0
 29 28  1  0  0  0
 28  1  1  0  0  0
  1  2  1  0  0  0
  1 10  2  0  0  0
  2  3  2  0  0  0
  3  4  1  0  0  0
  3  8  1  0  0  0
  4  5  2  0  0  0
  5  6  1  0  0  0
  6  7  2  0  0  0
  7 11  1  0  0  0
  7  8  1  0  0  0
 11 13  1  0  0  0
 11 12  1  0  0  0
 13 14  2  0  0  0
 13 20  1  0  0  0
 14 15  1  0  0  0
 15 16  2  0  0  0
 15 17  1  0  0  0
 17 18  1  0  0  0
 17 19  2  0  0  0
 19 22  1  0  0  0
 19 20  1  0  0  0
 22 23  1  0  0  0
 23 24  1  0  0  0
 23 25  1  0  0  0
 20 21  2  0  0  0
  8  9  2  0  0  0
  9 10  1  0  0  0
 10 26  1  0  0  0
 26 27  1  0  0  0
M  END
> <minimizedAffinity>
-6.57760

$$$$
