CHEMBL373397


 32 37  0  0  0  0  0  0  0  0999 V2000
  -29.6845   -4.4354   -6.8835 N   0  0  0  0  0  0  0  0  0  0  0  0
  -29.7164   -3.7156   -5.6680 C   0  0  0  0  0  0  0  0  0  0  0  0
  -29.6270   -2.3393   -5.3855 C   0  0  0  0  0  0  0  0  0  0  0  0
  -29.5937   -1.9322   -4.0371 C   0  0  0  0  0  0  0  0  0  0  0  0
  -29.7116   -2.8388   -2.9854 C   0  0  0  0  0  0  0  0  0  0  0  0
  -29.5267   -2.4423   -1.6541 N   0  0  0  0  0  0  0  0  0  0  0  0
  -29.7452   -4.1976   -3.2808 C   0  0  0  0  0  0  0  0  0  0  0  0
  -29.7392   -4.6420   -4.6146 C   0  0  0  0  0  0  0  0  0  0  0  0
  -29.6113   -5.8420   -5.2727 C   0  0  0  0  0  0  0  0  0  0  0  0
  -29.1353   -7.0018   -4.6392 C   0  0  0  0  0  0  0  0  0  0  0  0
  -28.5365   -7.9534   -5.4929 C   0  0  0  0  0  0  0  0  0  0  0  0
  -28.5592   -7.8620   -6.8954 C   0  0  0  0  0  0  0  0  0  0  0  0
  -29.5929   -6.9948   -7.3865 C   0  0  0  0  0  0  0  0  0  0  0  0
  -29.7260   -5.8085   -6.6332 C   0  0  0  0  0  0  0  0  0  0  0  0
  -30.8396   -7.8073   -7.9291 C   0  0  0  0  0  0  0  0  0  0  0  0
  -30.7823   -9.3630   -7.6362 C   0  0  0  0  0  0  0  0  0  0  0  0
  -29.4341   -9.8276   -8.0609 C   0  0  0  0  0  0  0  0  0  0  0  0
  -29.1422  -10.6973   -9.0272 N   0  0  0  0  0  0  0  0  0  0  0  0
  -27.8460  -10.4035   -9.3032 N   0  0  0  0  0  0  0  0  0  0  0  0
  -27.1954  -11.0380  -10.4238 C   0  0  0  0  0  0  0  0  0  0  0  0
  -27.3633   -9.3282   -8.5970 C   0  0  0  0  0  0  0  0  0  0  0  0
  -28.3314   -9.0553   -7.6658 C   0  0  0  0  0  0  0  0  0  0  0  0
  -28.0701   -9.0370   -4.6602 C   0  0  0  0  0  0  0  0  0  0  0  0
  -27.4905  -10.0868   -4.8934 O   0  0  0  0  0  0  0  0  0  0  0  0
  -28.4626   -8.6778   -3.3692 N   0  0  0  0  0  0  0  0  0  0  0  0
  -29.0786   -7.3829   -3.2344 C   0  0  0  0  0  0  0  0  0  0  0  0
  -29.8071   -1.4881   -1.4625 H   0  0  0  0  0  0  0  0  0  0  0  0
  -29.9002   -3.1000   -0.9754 H   0  0  0  0  0  0  0  0  0  0  0  0
  -28.3008   -9.3163   -2.6143 H   0  0  0  0  0  0  0  0  0  0  0  0
  -29.4541   -3.8117   -8.1826 C   0  0  0  0  0  0  0  0  0  0  0  0
  -27.8228   -2.0018   -8.9934 C   0  0  0  0  0  0  0  0  0  0  0  0
  -27.9944   -3.4190   -8.4673 C   0  0  0  0  0  0  0  0  0  0  0  0
 31 32  1  0  0  0
 32 30  1  0  0  0
 30  1  1  0  0  0
  1  2  1  0  0  0
  1 14  1  0  0  0
  2  3  1  0  0  0
  2  8  2  0  0  0
  3  4  2  0  0  0
  4  5  1  0  0  0
  5  6  1  0  0  0
  5  7  2  0  0  0
  6 27  1  0  0  0
  6 28  1  0  0  0
  7  8  1  0  0  0
  8  9  1  0  0  0
  9 10  1  0  0  0
  9 14  2  0  0  0
 10 11  2  0  0  0
 10 26  1  0  0  0
 11 12  1  0  0  0
 11 23  1  0  0  0
 12 13  2  0  0  0
 12 22  1  0  0  0
 13 14  1  0  0  0
 13 15  1  0  0  0
 15 16  1  0  0  0
 16 17  1  0  0  0
 17 18  2  0  0  0
 17 22  1  0  0  0
 18 19  1  0  0  0
 19 20  1  0  0  0
 19 21  1  0  0  0
 21 22  2  0  0  0
 23 24  2  0  0  0
 23 25  1  0  0  0
 25 26  1  0  0  0
 25 29  1  0  0  0
M  END
> <minimizedAffinity>
-8.32080

$$$$
