CHEMBL3393803


 38 41  0  0  0  0  0  0  0  0999 V2000
  -20.9383    1.5680  -14.8297 C   0  0  0  0  0  0  0  0  0  0  0  0
  -20.9288    2.9470  -15.0434 C   0  0  0  0  0  0  0  0  0  0  0  0
  -19.7335    3.6366  -15.2530 C   0  0  0  0  0  0  0  0  0  0  0  0
  -18.5119    2.9620  -15.2491 C   0  0  0  0  0  0  0  0  0  0  0  0
  -17.1091    3.9403  -15.5034 Cl  0  0  0  0  0  0  0  0  0  0  0  0
  -18.4843    1.5811  -15.0182 C   0  0  0  0  0  0  0  0  0  0  0  0
  -19.7086    0.8997  -14.7827 C   0  0  0  0  0  0  0  0  0  0  0  0
  -21.9381    0.3001  -12.4125 O   0  0  0  0  0  0  0  0  0  0  0  0
  -22.5349    0.2326  -13.4837 C   0  0  0  0  0  0  0  0  0  0  0  0
  -22.1383    0.8231  -14.6733 N   0  0  0  0  0  0  0  0  0  0  0  0
  -22.8134    0.8762  -15.4260 H   0  0  0  0  0  0  0  0  0  0  0  0
  -23.8344   -0.4895  -13.4589 C   0  0  0  0  0  0  0  0  0  0  0  0
  -24.3882   -0.8435  -14.6943 C   0  0  0  0  0  0  0  0  0  0  0  0
  -25.6600   -1.4069  -14.7638 C   0  0  0  0  0  0  0  0  0  0  0  0
  -26.4059   -1.6175  -13.5998 C   0  0  0  0  0  0  0  0  0  0  0  0
  -27.9783   -2.2908  -13.8207 Cl  0  0  0  0  0  0  0  0  0  0  0  0
  -25.8761   -1.2712  -12.3476 C   0  0  0  0  0  0  0  0  0  0  0  0
  -24.5709   -0.7083  -12.2903 C   0  0  0  0  0  0  0  0  0  0  0  0
  -26.6191   -1.4403  -11.0447 C   0  0  0  0  0  0  0  0  0  0  0  0
  -27.8520   -0.8799  -10.9634 F   0  0  0  0  0  0  0  0  0  0  0  0
  -26.7950   -2.7590  -10.7435 F   0  0  0  0  0  0  0  0  0  0  0  0
  -25.9149   -0.9222   -9.9971 F   0  0  0  0  0  0  0  0  0  0  0  0
  -17.2493    0.7384  -14.9829 C   0  0  0  0  0  0  0  0  0  0  0  0
  -16.5294    0.7596  -15.9785 O   0  0  0  0  0  0  0  0  0  0  0  0
  -16.9995    0.0034  -13.8341 N   0  0  0  0  0  0  0  0  0  0  0  0
  -17.7311   -0.0220  -13.1320 H   0  0  0  0  0  0  0  0  0  0  0  0
  -15.8883   -0.8407  -13.6024 C   0  0  0  0  0  0  0  0  0  0  0  0
  -15.9471   -2.2276  -13.6724 C   0  0  0  0  0  0  0  0  0  0  0  0
  -14.8124   -2.9871  -13.3939 C   0  0  0  0  0  0  0  0  0  0  0  0
  -13.6346   -2.3386  -13.0492 C   0  0  0  0  0  0  0  0  0  0  0  0
  -13.5224   -0.9865  -12.9949 N   0  0  0  0  0  0  0  0  0  0  0  0
  -14.6490   -0.2794  -13.2824 C   0  0  0  0  0  0  0  0  0  0  0  0
  -12.4365   -3.1049  -12.7139 C   0  0  0  0  0  0  0  0  0  0  0  0
  -11.8470   -4.0335  -13.4504 N   0  0  0  0  0  0  0  0  0  0  0  0
  -10.7698   -4.4686  -12.7233 C   0  0  0  0  0  0  0  0  0  0  0  0
  -10.6969   -3.8081  -11.5217 C   0  0  0  0  0  0  0  0  0  0  0  0
  -11.7599   -2.9487  -11.5269 N   0  0  0  0  0  0  0  0  0  0  0  0
  -12.0360   -2.2984  -10.8034 H   0  0  0  0  0  0  0  0  0  0  0  0
  8  9  2  0  0  0
  9 10  1  0  0  0
  9 12  1  0  0  0
 10  1  1  0  0  0
 10 11  1  0  0  0
  1  2  1  0  0  0
  1  7  2  0  0  0
  2  3  2  0  0  0
  3  4  1  0  0  0
  4  5  1  0  0  0
  4  6  2  0  0  0
  6 23  1  0  0  0
  6  7  1  0  0  0
 23 24  2  0  0  0
 23 25  1  0  0  0
 25 27  1  0  0  0
 25 26  1  0  0  0
 27 28  1  0  0  0
 27 32  2  0  0  0
 28 29  2  0  0  0
 29 30  1  0  0  0
 30 33  1  0  0  0
 30 31  2  0  0  0
 33 34  2  0  0  0
 33 37  1  0  0  0
 34 35  1  0  0  0
 35 36  2  0  0  0
 36 37  1  0  0  0
 37 38  1  0  0  0
 31 32  1  0  0  0
 12 13  1  0  0  0
 12 18  2  0  0  0
 13 14  2  0  0  0
 14 15  1  0  0  0
 15 16  1  0  0  0
 15 17  2  0  0  0
 17 19  1  0  0  0
 17 18  1  0  0  0
 19 20  1  0  0  0
 19 21  1  0  0  0
 19 22  1  0  0  0
M  END
> <minimizedAffinity>
-10.19850

$$$$
