CHEMBL1241861


 25 27  0  0  0  0  0  0  0  0999 V2000
  -30.5578   -8.2376   -6.7215 N   0  0  0  0  0  0  0  0  0  0  0  0
  -30.5989   -6.9403   -7.0959 N   0  0  0  0  0  0  0  0  0  0  0  0
  -29.5817   -6.3633   -6.4329 C   0  0  0  0  0  0  0  0  0  0  0  0
  -28.9036   -7.3114   -5.5996 C   0  0  0  0  0  0  0  0  0  0  0  0
  -27.8502   -7.3514   -4.6718 C   0  0  0  0  0  0  0  0  0  0  0  0
  -27.1023   -6.2585   -4.2484 N   0  0  0  0  0  0  0  0  0  0  0  0
  -27.5217   -8.5310   -4.1084 N   0  0  0  0  0  0  0  0  0  0  0  0
  -28.2319   -9.6246   -4.4375 C   0  0  0  0  0  0  0  0  0  0  0  0
  -29.2719   -9.7064   -5.2811 N   0  0  0  0  0  0  0  0  0  0  0  0
  -29.5569   -8.5127   -5.8306 C   0  0  0  0  0  0  0  0  0  0  0  0
  -27.6453   -5.4179   -4.1000 H   0  0  0  0  0  0  0  0  0  0  0  0
  -26.5305   -6.5298   -3.4540 H   0  0  0  0  0  0  0  0  0  0  0  0
  -29.3272   -4.9283   -6.5959 C   0  0  0  0  0  0  0  0  0  0  0  0
  -29.7313   -4.0225   -5.6033 C   0  0  0  0  0  0  0  0  0  0  0  0
  -29.3946   -2.6703   -5.6983 C   0  0  0  0  0  0  0  0  0  0  0  0
  -29.7936   -1.8515   -4.7161 F   0  0  0  0  0  0  0  0  0  0  0  0
  -28.6426   -2.2036   -6.7709 C   0  0  0  0  0  0  0  0  0  0  0  0
  -28.2862   -3.0910   -7.7780 C   0  0  0  0  0  0  0  0  0  0  0  0
  -27.5528   -2.6795   -8.8216 F   0  0  0  0  0  0  0  0  0  0  0  0
  -28.6547   -4.4324   -7.7158 C   0  0  0  0  0  0  0  0  0  0  0  0
  -28.1936   -0.8094   -6.8810 C   0  0  0  0  0  0  0  0  0  0  0  0
  -27.4617   -0.2781   -6.0561 O   0  0  0  0  0  0  0  0  0  0  0  0
  -32.9284   -8.5803   -7.3424 C   0  0  0  0  0  0  0  0  0  0  0  0
  -31.5285   -9.1893   -7.2539 C   0  0  0  0  0  0  0  0  0  0  0  0
  -31.0793   -9.7421   -8.6054 C   0  0  0  0  0  0  0  0  0  0  0  0
 23 24  1  0  0  0
 24 25  1  0  0  0
 24  1  1  0  0  0
  1  2  1  0  0  0
  1 10  1  0  0  0
  2  3  2  0  0  0
  3 13  1  0  0  0
  3  4  1  0  0  0
 13 14  1  0  0  0
 13 20  2  0  0  0
 14 15  2  0  0  0
 15 16  1  0  0  0
 15 17  1  0  0  0
 17 21  1  0  0  0
 17 18  2  0  0  0
 21 22  2  0  0  0
 18 19  1  0  0  0
 18 20  1  0  0  0
  4  5  1  0  0  0
  4 10  2  0  0  0
  5  6  1  0  0  0
  5  7  2  0  0  0
  6 11  1  0  0  0
  6 12  1  0  0  0
  7  8  1  0  0  0
  8  9  2  0  0  0
  9 10  1  0  0  0
M  END
> <minimizedAffinity>
-7.57325

$$$$
