CHEMBL3932817


 36 39  0  0  0  0  0  0  0  0999 V2000
  -29.6288   -5.2232   -5.3635 N   0  0  0  0  0  0  0  0  0  0  0  0
  -29.3920   -4.4037   -6.6092 C   0  0  0  0  0  0  0  0  0  0  0  0
  -28.6327   -5.1800   -7.4491 C   0  0  0  0  0  0  0  0  0  0  0  0
  -27.9689   -4.6504   -8.3822 C   0  0  0  0  0  0  0  0  0  0  0  0
  -28.0140   -3.3991   -8.6753 C   0  0  0  0  0  0  0  0  0  0  0  0
  -26.8699   -3.0988   -9.0988 N   0  0  0  0  0  0  0  0  0  0  0  0
  -26.5369   -2.1554   -9.7694 C   0  0  0  0  0  0  0  0  0  0  0  0
  -27.4832   -1.4735  -10.4452 C   0  0  0  0  0  0  0  0  0  0  0  0
  -28.7130   -1.4376   -9.5332 N   0  0  0  0  0  0  0  0  0  0  0  0
  -28.9357   -2.4495   -8.4366 C   0  0  0  0  0  0  0  0  0  0  0  0
  -29.7100   -2.9805   -7.1383 C   0  0  0  0  0  0  0  0  0  0  0  0
  -26.6944   -1.3069  -12.0025 C   0  0  0  0  0  0  0  0  0  0  0  0
  -26.9548   -1.7746  -13.3419 C   0  0  0  0  0  0  0  0  0  0  0  0
  -28.0884   -2.3866  -14.0698 C   0  0  0  0  0  0  0  0  0  0  0  0
  -25.8861   -1.5620  -14.1451 N   0  0  0  0  0  0  0  0  0  0  0  0
  -24.9285   -0.9454  -13.5424 N   0  0  0  0  0  0  0  0  0  0  0  0
  -23.5997   -0.6626  -14.2110 C   0  0  0  0  0  0  0  0  0  0  0  0
  -25.3198   -0.6697  -12.2659 C   0  0  0  0  0  0  0  0  0  0  0  0
  -24.3134    0.1606  -11.4500 C   0  0  0  0  0  0  0  0  0  0  0  0
  -29.8799   -8.8527   -5.9873 C   0  0  0  0  0  0  0  0  0  0  0  0
  -28.7827   -9.3786   -5.2772 C   0  0  0  0  0  0  0  0  0  0  0  0
  -27.9723   -8.5330   -4.5349 C   0  0  0  0  0  0  0  0  0  0  0  0
  -28.2549   -7.1626   -4.5349 C   0  0  0  0  0  0  0  0  0  0  0  0
  -29.3724   -6.6280   -5.2474 C   0  0  0  0  0  0  0  0  0  0  0  0
  -30.1715   -7.5071   -5.9475 C   0  0  0  0  0  0  0  0  0  0  0  0
  -31.1570   -9.1039   -7.9644 C   0  0  0  0  0  0  0  0  0  0  0  0
  -30.6539   -9.5914   -6.7960 O   0  0  0  0  0  0  0  0  0  0  0  0
  -26.9303   -9.0598   -3.8397 O   0  0  0  0  0  0  0  0  0  0  0  0
  -25.6283   -9.1244   -4.2934 C   0  0  0  0  0  0  0  0  0  0  0  0
  -30.0098   -4.4708   -4.0905 C   0  0  0  0  0  0  0  0  0  0  0  0
  -28.9204   -3.4624   -3.8349 C   0  0  0  0  0  0  0  0  0  0  0  0
  -29.3268   -2.0618   -3.7235 N   0  0  0  0  0  0  0  0  0  0  0  0
  -29.4993   -1.8367   -2.7107 H   0  0  0  0  0  0  0  0  0  0  0  0
  -28.2019   -1.2133   -4.1973 C   0  0  0  0  0  0  0  0  0  0  0  0
  -27.2161   -1.9845   -5.1110 C   0  0  0  0  0  0  0  0  0  0  0  0
  -28.7513   -0.0209   -4.9661 C   0  0  0  0  0  0  0  0  0  0  0  0
 26 27  1  0  0  0
 27 20  1  0  0  0
 20 21  1  0  0  0
 20 25  2  0  0  0
 21 22  2  0  0  0
 22 28  1  0  0  0
 22 23  1  0  0  0
 28 29  1  0  0  0
 23 24  2  0  0  0
 24  1  1  0  0  0
 24 25  1  0  0  0
  1 30  1  0  0  0
  1  2  1  0  0  0
 30 31  1  0  0  0
 31 32  1  0  0  0
 32 34  1  0  0  0
 32 33  1  0  0  0
 34 35  1  0  0  0
 34 36  1  0  0  0
  2  3  1  0  0  0
  2 11  2  0  0  0
  3  4  2  0  0  0
  4  5  1  0  0  0
  5  6  1  0  0  0
  5 10  2  0  0  0
  6  7  2  0  0  0
  7  8  1  0  0  0
  8 12  1  0  0  0
  8  9  2  0  0  0
 12 13  1  0  0  0
 12 18  2  0  0  0
 13 14  1  0  0  0
 13 15  2  0  0  0
 15 16  1  0  0  0
 16 17  1  0  0  0
 16 18  1  0  0  0
 18 19  1  0  0  0
  9 10  1  0  0  0
 10 11  1  0  0  0
M  END
> <minimizedAffinity>
-6.97425

$$$$
