CHEMBL3916527


 46 50  0  0  0  0  0  0  0  0999 V2000
  -20.3791    0.4760  -15.0189 C   0  0  0  0  0  0  0  0  0  0  0  0
  -20.7367   -0.8602  -14.8835 C   0  0  0  0  0  0  0  0  0  0  0  0
  -21.9217   -1.2089  -14.2406 C   0  0  0  0  0  0  0  0  0  0  0  0
  -22.7369   -0.2703  -13.5844 C   0  0  0  0  0  0  0  0  0  0  0  0
  -22.3865    1.1242  -13.7354 C   0  0  0  0  0  0  0  0  0  0  0  0
  -23.1456    2.1946  -13.1835 C   0  0  0  0  0  0  0  0  0  0  0  0
  -22.9293    3.5336  -13.5090 C   0  0  0  0  0  0  0  0  0  0  0  0
  -21.8685    3.8677  -14.3242 C   0  0  0  0  0  0  0  0  0  0  0  0
  -21.0176    2.8636  -14.7851 C   0  0  0  0  0  0  0  0  0  0  0  0
  -21.2357    1.4903  -14.5076 C   0  0  0  0  0  0  0  0  0  0  0  0
  -23.9502   -0.7645  -12.8486 C   0  0  0  0  0  0  0  0  0  0  0  0
  -23.9750   -0.7937  -11.4289 C   0  0  0  0  0  0  0  0  0  0  0  0
  -25.0264   -1.3341  -10.6939 C   0  0  0  0  0  0  0  0  0  0  0  0
  -26.1732   -1.7901  -11.3290 C   0  0  0  0  0  0  0  0  0  0  0  0
  -26.2401   -1.6307  -12.7214 C   0  0  0  0  0  0  0  0  0  0  0  0
  -27.2708   -1.8234  -13.5979 N   0  0  0  0  0  0  0  0  0  0  0  0
  -26.9737   -1.6340  -14.8739 N   0  0  0  0  0  0  0  0  0  0  0  0
  -25.6964   -1.2460  -14.8423 C   0  0  0  0  0  0  0  0  0  0  0  0
  -25.0836   -0.9390  -15.9872 N   0  0  0  0  0  0  0  0  0  0  0  0
  -25.1654   -1.1714  -13.5033 C   0  0  0  0  0  0  0  0  0  0  0  0
  -28.2227   -2.0869  -13.3849 H   0  0  0  0  0  0  0  0  0  0  0  0
  -25.5981   -1.1178  -16.8431 H   0  0  0  0  0  0  0  0  0  0  0  0
  -24.0786   -1.0705  -16.0883 H   0  0  0  0  0  0  0  0  0  0  0  0
  -27.1581   -2.2635  -10.4836 O   0  0  0  0  0  0  0  0  0  0  0  0
  -27.3296   -1.5664   -9.2517 C   0  0  0  0  0  0  0  0  0  0  0  0
  -27.9050   -2.4994   -8.1802 C   0  0  0  0  0  0  0  0  0  0  0  0
  -28.1766   -1.8632   -6.7938 C   0  0  0  0  0  0  0  0  0  0  0  0
  -28.2357   -0.3315   -6.8766 C   0  0  0  0  0  0  0  0  0  0  0  0
  -29.5139   -2.3851   -6.2440 C   0  0  0  0  0  0  0  0  0  0  0  0
  -27.1364   -2.2379   -5.8289 N   0  0  0  0  0  0  0  0  0  0  0  0
  -26.2238   -1.9587   -6.2029 H   0  0  0  0  0  0  0  0  0  0  0  0
  -27.0786   -3.2553   -5.7724 H   0  0  0  0  0  0  0  0  0  0  0  0
  -17.0096    1.5249  -15.9465 N   0  0  0  0  0  0  0  0  0  0  0  0
  -18.0584    1.2574  -15.0729 C   0  0  0  0  0  0  0  0  0  0  0  0
  -18.0242    1.3908  -13.8548 O   0  0  0  0  0  0  0  0  0  0  0  0
  -19.1678    0.7387  -15.7358 N   0  0  0  0  0  0  0  0  0  0  0  0
  -17.0750    1.1374  -16.8746 H   0  0  0  0  0  0  0  0  0  0  0  0
  -18.9126    0.0256  -16.4033 H   0  0  0  0  0  0  0  0  0  0  0  0
  -12.6694    1.0885  -13.5643 C   0  0  0  0  0  0  0  0  0  0  0  0
  -13.6338    1.8985  -14.3851 C   0  0  0  0  0  0  0  0  0  0  0  0
  -13.3131    3.2197  -14.7140 C   0  0  0  0  0  0  0  0  0  0  0  0
  -14.1824    3.9712  -15.4936 C   0  0  0  0  0  0  0  0  0  0  0  0
  -15.3828    3.4204  -15.9345 C   0  0  0  0  0  0  0  0  0  0  0  0
  -16.0929    4.1608  -16.7924 F   0  0  0  0  0  0  0  0  0  0  0  0
  -15.7682    2.1195  -15.5770 C   0  0  0  0  0  0  0  0  0  0  0  0
  -14.8600    1.3520  -14.8234 C   0  0  0  0  0  0  0  0  0  0  0  0
 39 40  1  0  0  0
 40 41  1  0  0  0
 40 46  2  0  0  0
 41 42  2  0  0  0
 42 43  1  0  0  0
 43 44  1  0  0  0
 43 45  2  0  0  0
 45 33  1  0  0  0
 45 46  1  0  0  0
 33 34  1  0  0  0
 33 37  1  0  0  0
 34 35  2  0  0  0
 34 36  1  0  0  0
 36  1  1  0  0  0
 36 38  1  0  0  0
  1  2  1  0  0  0
  1 10  2  0  0  0
  2  3  2  0  0  0
  3  4  1  0  0  0
  4 11  1  0  0  0
  4  5  2  0  0  0
 11 12  1  0  0  0
 11 20  2  0  0  0
 12 13  2  0  0  0
 13 14  1  0  0  0
 14 24  1  0  0  0
 14 15  2  0  0  0
 24 25  1  0  0  0
 25 26  1  0  0  0
 26 27  1  0  0  0
 27 28  1  0  0  0
 27 29  1  0  0  0
 27 30  1  0  0  0
 30 31  1  0  0  0
 30 32  1  0  0  0
 15 16  1  0  0  0
 15 20  1  0  0  0
 16 17  1  0  0  0
 16 21  1  0  0  0
 17 18  2  0  0  0
 18 19  1  0  0  0
 18 20  1  0  0  0
 19 22  1  0  0  0
 19 23  1  0  0  0
  5  6  1  0  0  0
  5 10  1  0  0  0
  6  7  2  0  0  0
  7  8  1  0  0  0
  8  9  2  0  0  0
  9 10  1  0  0  0
M  END
> <minimizedAffinity>
-7.27951

$$$$
