CHEMBL3976896


 37 40  0  0  0  0  0  0  0  0999 V2000
  -14.2745   -1.6099  -13.1940 C   0  0  0  0  0  0  0  0  0  0  0  0
  -15.4029   -2.3140  -12.7297 C   0  0  0  0  0  0  0  0  0  0  0  0
  -15.5334   -3.6885  -12.8564 C   0  0  0  0  0  0  0  0  0  0  0  0
  -16.5940   -4.2877  -12.3067 N   0  0  0  0  0  0  0  0  0  0  0  0
  -16.6346   -5.6190  -12.4060 C   0  0  0  0  0  0  0  0  0  0  0  0
  -15.7156   -6.3906  -12.9831 N   0  0  0  0  0  0  0  0  0  0  0  0
  -14.6539   -5.7750  -13.5361 C   0  0  0  0  0  0  0  0  0  0  0  0
  -14.5256   -4.3820  -13.5185 C   0  0  0  0  0  0  0  0  0  0  0  0
  -13.4591   -3.6731  -14.0984 C   0  0  0  0  0  0  0  0  0  0  0  0
  -13.3020   -2.2955  -13.9269 C   0  0  0  0  0  0  0  0  0  0  0  0
  -13.6104   -6.5367  -14.1283 N   0  0  0  0  0  0  0  0  0  0  0  0
  -13.1918   -7.1294  -13.4142 H   0  0  0  0  0  0  0  0  0  0  0  0
  -13.6054   -7.1599  -15.3861 C   0  0  0  0  0  0  0  0  0  0  0  0
  -13.8534   -6.4560  -16.5686 C   0  0  0  0  0  0  0  0  0  0  0  0
  -13.8514   -7.1026  -17.8055 C   0  0  0  0  0  0  0  0  0  0  0  0
  -13.5476   -8.4601  -17.8816 C   0  0  0  0  0  0  0  0  0  0  0  0
  -13.5923   -9.2045  -19.4378 Cl  0  0  0  0  0  0  0  0  0  0  0  0
  -13.2153   -9.1603  -16.7190 C   0  0  0  0  0  0  0  0  0  0  0  0
  -12.7739  -10.8315  -16.7382 Cl  0  0  0  0  0  0  0  0  0  0  0  0
  -13.2311   -8.5067  -15.4823 C   0  0  0  0  0  0  0  0  0  0  0  0
  -12.1655   -1.8605  -14.5328 O   0  0  0  0  0  0  0  0  0  0  0  0
  -10.9898   -1.6136  -13.7850 C   0  0  0  0  0  0  0  0  0  0  0  0
  -14.1072   -0.2765  -12.9426 O   0  0  0  0  0  0  0  0  0  0  0  0
  -14.7456    0.6537  -13.8429 C   0  0  0  0  0  0  0  0  0  0  0  0
  -15.2222    2.7403  -16.3529 N   0  0  0  0  0  0  0  0  0  0  0  0
  -14.5471    1.9179  -17.3764 C   0  0  0  0  0  0  0  0  0  0  0  0
  -14.0162    0.5796  -16.8393 C   0  0  0  0  0  0  0  0  0  0  0  0
  -13.1410    0.7561  -15.7204 O   0  0  0  0  0  0  0  0  0  0  0  0
  -13.7452    1.5142  -14.6504 C   0  0  0  0  0  0  0  0  0  0  0  0
  -14.3240    2.8448  -15.1882 C   0  0  0  0  0  0  0  0  0  0  0  0
  -16.5788    2.2629  -16.0668 C   0  0  0  0  0  0  0  0  0  0  0  0
  -17.5680    3.3744  -15.7005 C   0  0  0  0  0  0  0  0  0  0  0  0
  -18.9662    2.8120  -15.4629 C   0  0  0  0  0  0  0  0  0  0  0  0
  -18.9062    1.3847  -14.9355 C   0  0  0  0  0  0  0  0  0  0  0  0
  -20.2469    0.6868  -15.1455 C   0  0  0  0  0  0  0  0  0  0  0  0
  -22.3282    0.0737  -13.8855 C   0  0  0  0  0  0  0  0  0  0  0  0
  -21.2612    1.1326  -14.0991 C   0  0  0  0  0  0  0  0  0  0  0  0
 36 37  1  0  0  0
 37 35  1  0  0  0
 35 34  1  0  0  0
 34 33  1  0  0  0
 33 32  1  0  0  0
 32 31  1  0  0  0
 31 25  1  0  0  0
 25 26  1  0  0  0
 25 30  1  0  0  0
 26 27  1  0  0  0
 27 28  1  0  0  0
 28 29  1  0  0  0
 29 24  1  0  0  0
 29 30  1  0  0  0
 24 23  1  0  0  0
 23  1  1  0  0  0
  1  2  1  0  0  0
  1 10  2  0  0  0
  2  3  2  0  0  0
  3  4  1  0  0  0
  3  8  1  0  0  0
  4  5  2  0  0  0
  5  6  1  0  0  0
  6  7  2  0  0  0
  7 11  1  0  0  0
  7  8  1  0  0  0
 11 13  1  0  0  0
 11 12  1  0  0  0
 13 14  1  0  0  0
 13 20  2  0  0  0
 14 15  2  0  0  0
 15 16  1  0  0  0
 16 17  1  0  0  0
 16 18  2  0  0  0
 18 19  1  0  0  0
 18 20  1  0  0  0
  8  9  2  0  0  0
  9 10  1  0  0  0
 10 21  1  0  0  0
 21 22  1  0  0  0
M  END
> <minimizedAffinity>
-7.44808

$$$$
