CHEMBL460472


 42 46  0  0  0  0  0  0  0  0999 V2000
  -25.7474   -1.9679  -10.1510 N   0  0  0  0  0  0  0  0  0  0  0  0
  -27.1173   -1.7868  -10.0958 C   0  0  0  0  0  0  0  0  0  0  0  0
  -27.8057   -1.2163  -10.9344 O   0  0  0  0  0  0  0  0  0  0  0  0
  -25.2752   -2.3347   -9.3307 H   0  0  0  0  0  0  0  0  0  0  0  0
  -27.7649   -2.3439   -8.8849 C   0  0  0  0  0  0  0  0  0  0  0  0
  -28.4147   -1.6757   -7.9059 C   0  0  0  0  0  0  0  0  0  0  0  0
  -28.6147   -0.1897   -7.8377 C   0  0  0  0  0  0  0  0  0  0  0  0
  -28.9495   -2.5491   -6.9476 N   0  0  0  0  0  0  0  0  0  0  0  0
  -28.5013   -3.8393   -7.2795 N   0  0  0  0  0  0  0  0  0  0  0  0
  -27.8204   -3.7728   -8.4939 C   0  0  0  0  0  0  0  0  0  0  0  0
  -27.3600   -4.6769   -9.1860 O   0  0  0  0  0  0  0  0  0  0  0  0
  -29.0310   -5.0253   -6.7315 C   0  0  0  0  0  0  0  0  0  0  0  0
  -30.1425   -5.5951   -7.3691 C   0  0  0  0  0  0  0  0  0  0  0  0
  -30.5696   -6.8777   -7.0278 C   0  0  0  0  0  0  0  0  0  0  0  0
  -29.9543   -7.5563   -5.9793 C   0  0  0  0  0  0  0  0  0  0  0  0
  -28.8993   -6.9622   -5.2862 C   0  0  0  0  0  0  0  0  0  0  0  0
  -28.4205   -5.7088   -5.6791 C   0  0  0  0  0  0  0  0  0  0  0  0
  -29.3530   -2.2243   -5.5665 C   0  0  0  0  0  0  0  0  0  0  0  0
  -28.2136   -1.9552   -4.5362 C   0  0  0  0  0  0  0  0  0  0  0  0
  -27.9730   -0.4618   -4.3275 C   0  0  0  0  0  0  0  0  0  0  0  0
  -28.5652   -2.6766   -3.2271 C   0  0  0  0  0  0  0  0  0  0  0  0
  -26.9487   -2.5067   -4.9018 O   0  0  0  0  0  0  0  0  0  0  0  0
  -26.6810   -2.0617   -5.7233 H   0  0  0  0  0  0  0  0  0  0  0  0
  -23.4169   -0.8843  -13.4392 C   0  0  0  0  0  0  0  0  0  0  0  0
  -22.8145   -1.1030  -12.2027 C   0  0  0  0  0  0  0  0  0  0  0  0
  -23.5869   -1.4846  -11.1022 C   0  0  0  0  0  0  0  0  0  0  0  0
  -24.9624   -1.6446  -11.2679 C   0  0  0  0  0  0  0  0  0  0  0  0
  -25.5383   -1.5060  -12.4746 N   0  0  0  0  0  0  0  0  0  0  0  0
  -24.7723   -1.1492  -13.5294 C   0  0  0  0  0  0  0  0  0  0  0  0
  -22.6233   -0.3895  -14.4461 O   0  0  0  0  0  0  0  0  0  0  0  0
  -18.1003    2.0582  -15.1426 C   0  0  0  0  0  0  0  0  0  0  0  0
  -18.4583    0.7343  -15.3425 C   0  0  0  0  0  0  0  0  0  0  0  0
  -19.7786    0.3441  -15.1583 C   0  0  0  0  0  0  0  0  0  0  0  0
  -20.7562    1.2423  -14.6707 C   0  0  0  0  0  0  0  0  0  0  0  0
  -22.0873    0.8839  -14.3410 C   0  0  0  0  0  0  0  0  0  0  0  0
  -22.9926    1.8607  -13.9375 C   0  0  0  0  0  0  0  0  0  0  0  0
  -22.5362    3.1561  -13.8216 C   0  0  0  0  0  0  0  0  0  0  0  0
  -21.2571    3.5264  -14.0632 N   0  0  0  0  0  0  0  0  0  0  0  0
  -20.3860    2.5906  -14.4768 C   0  0  0  0  0  0  0  0  0  0  0  0
  -19.0689    2.9661  -14.7141 C   0  0  0  0  0  0  0  0  0  0  0  0
  -16.7802    3.8350  -15.9433 C   0  0  0  0  0  0  0  0  0  0  0  0
  -16.8361    2.5514  -15.3246 O   0  0  0  0  0  0  0  0  0  0  0  0
 41 42  1  0  0  0
 42 31  1  0  0  0
 31 32  1  0  0  0
 31 40  2  0  0  0
 32 33  2  0  0  0
 33 34  1  0  0  0
 34 35  1  0  0  0
 34 39  2  0  0  0
 35 30  1  0  0  0
 35 36  2  0  0  0
 30 24  1  0  0  0
 24 25  1  0  0  0
 24 29  2  0  0  0
 25 26  2  0  0  0
 26 27  1  0  0  0
 27  1  1  0  0  0
 27 28  2  0  0  0
  1  2  1  0  0  0
  1  4  1  0  0  0
  2  3  2  0  0  0
  2  5  1  0  0  0
  5  6  2  0  0  0
  5 10  1  0  0  0
  6  7  1  0  0  0
  6  8  1  0  0  0
  8 18  1  0  0  0
  8  9  1  0  0  0
 18 19  1  0  0  0
 19 20  1  0  0  0
 19 21  1  0  0  0
 19 22  1  0  0  0
 22 23  1  0  0  0
  9 12  1  0  0  0
  9 10  1  0  0  0
 12 13  1  0  0  0
 12 17  2  0  0  0
 13 14  2  0  0  0
 14 15  1  0  0  0
 15 16  2  0  0  0
 16 17  1  0  0  0
 10 11  2  0  0  0
 28 29  1  0  0  0
 36 37  1  0  0  0
 37 38  2  0  0  0
 38 39  1  0  0  0
 39 40  1  0  0  0
M  END
> <minimizedAffinity>
-10.38400

$$$$
