CHEMBL3114022


 28 31  0  0  0  0  0  0  0  0999 V2000
  -25.6997   -1.5180  -10.9236 C   0  0  0  0  0  0  0  0  0  0  0  0
  -26.5153   -1.3902  -11.9788 N   0  0  0  0  0  0  0  0  0  0  0  0
  -27.8259   -1.3655  -11.7372 C   0  0  0  0  0  0  0  0  0  0  0  0
  -28.3536   -1.4646  -10.4777 C   0  0  0  0  0  0  0  0  0  0  0  0
  -27.4651   -1.5720   -9.4194 C   0  0  0  0  0  0  0  0  0  0  0  0
  -26.1338   -1.6136   -9.6559 N   0  0  0  0  0  0  0  0  0  0  0  0
  -24.3163   -1.5727  -11.1443 N   0  0  0  0  0  0  0  0  0  0  0  0
  -23.8561   -1.5159  -10.2447 H   0  0  0  0  0  0  0  0  0  0  0  0
  -23.1801    2.6856  -13.3864 C   0  0  0  0  0  0  0  0  0  0  0  0
  -23.0871    1.1904  -13.3161 C   0  0  0  0  0  0  0  0  0  0  0  0
  -22.3170    0.4807  -14.2439 C   0  0  0  0  0  0  0  0  0  0  0  0
  -22.2196   -0.9055  -14.1596 C   0  0  0  0  0  0  0  0  0  0  0  0
  -22.8808   -1.5894  -13.1399 C   0  0  0  0  0  0  0  0  0  0  0  0
  -23.6345   -0.9014  -12.1798 C   0  0  0  0  0  0  0  0  0  0  0  0
  -23.7594    0.4884  -12.3014 C   0  0  0  0  0  0  0  0  0  0  0  0
  -27.9344   -1.6388   -8.0848 N   0  0  0  0  0  0  0  0  0  0  0  0
  -27.8863   -0.4144   -7.2759 C   0  0  0  0  0  0  0  0  0  0  0  0
  -28.5036   -2.7804   -7.4332 C   0  0  0  0  0  0  0  0  0  0  0  0
  -28.4148   -4.0767   -8.0655 C   0  0  0  0  0  0  0  0  0  0  0  0
  -29.0016   -5.2706   -7.5787 C   0  0  0  0  0  0  0  0  0  0  0  0
  -29.6818   -5.0484   -6.3879 C   0  0  0  0  0  0  0  0  0  0  0  0
  -30.3951   -5.9747   -5.6677 C   0  0  0  0  0  0  0  0  0  0  0  0
  -30.6761   -7.4123   -5.8978 C   0  0  0  0  0  0  0  0  0  0  0  0
  -30.8647   -5.2722   -4.5865 N   0  0  0  0  0  0  0  0  0  0  0  0
  -31.6755   -5.7538   -3.4903 C   0  0  0  0  0  0  0  0  0  0  0  0
  -30.5193   -3.9687   -4.5786 N   0  0  0  0  0  0  0  0  0  0  0  0
  -29.7905   -3.8001   -5.6918 C   0  0  0  0  0  0  0  0  0  0  0  0
  -29.1931   -2.6353   -6.1976 C   0  0  0  0  0  0  0  0  0  0  0  0
  9 10  1  0  0  0
 10 11  1  0  0  0
 10 15  2  0  0  0
 11 12  2  0  0  0
 12 13  1  0  0  0
 13 14  2  0  0  0
 14  7  1  0  0  0
 14 15  1  0  0  0
  7  1  1  0  0  0
  7  8  1  0  0  0
  1  2  1  0  0  0
  1  6  2  0  0  0
  2  3  2  0  0  0
  3  4  1  0  0  0
  4  5  2  0  0  0
  5 16  1  0  0  0
  5  6  1  0  0  0
 16 17  1  0  0  0
 16 18  1  0  0  0
 18 19  1  0  0  0
 18 28  2  0  0  0
 19 20  2  0  0  0
 20 21  1  0  0  0
 21 22  2  0  0  0
 21 27  1  0  0  0
 22 23  1  0  0  0
 22 24  1  0  0  0
 24 25  1  0  0  0
 24 26  1  0  0  0
 26 27  2  0  0  0
 27 28  1  0  0  0
M  END
> <minimizedAffinity>
-9.09015

$$$$
