CHEMBL512933


 26 29  0  0  0  0  0  0  0  0999 V2000
  -29.1529   -2.5687   -6.4979 C   0  0  0  0  0  0  0  0  0  0  0  0
  -28.3991   -1.3957   -6.6592 C   0  0  0  0  0  0  0  0  0  0  0  0
  -27.6474   -1.1577   -7.8292 C   0  0  0  0  0  0  0  0  0  0  0  0
  -27.6016   -2.1007   -8.8660 C   0  0  0  0  0  0  0  0  0  0  0  0
  -28.3231   -3.2920   -8.6672 C   0  0  0  0  0  0  0  0  0  0  0  0
  -29.0726   -3.5248   -7.5079 C   0  0  0  0  0  0  0  0  0  0  0  0
  -26.8219   -1.8456  -10.1063 C   0  0  0  0  0  0  0  0  0  0  0  0
  -25.5383   -1.5214  -10.1650 N   0  0  0  0  0  0  0  0  0  0  0  0
  -25.1346   -1.3500  -11.4910 C   0  0  0  0  0  0  0  0  0  0  0  0
  -23.8448   -1.0085  -11.9522 C   0  0  0  0  0  0  0  0  0  0  0  0
  -23.6045   -0.8716  -13.3276 C   0  0  0  0  0  0  0  0  0  0  0  0
  -24.6264   -1.0737  -14.2506 C   0  0  0  0  0  0  0  0  0  0  0  0
  -25.9078   -1.4165  -13.8213 C   0  0  0  0  0  0  0  0  0  0  0  0
  -26.1359   -1.5460  -12.4408 C   0  0  0  0  0  0  0  0  0  0  0  0
  -27.5938   -1.9441  -11.6476 S   0  0  0  0  0  0  0  0  0  0  0  0
  -29.9045   -2.7780   -5.3174 N   0  0  0  0  0  0  0  0  0  0  0  0
  -30.7427   -2.2091   -5.3073 H   0  0  0  0  0  0  0  0  0  0  0  0
  -29.4705   -6.0588   -3.8157 C   0  0  0  0  0  0  0  0  0  0  0  0
  -30.6887   -6.3591   -3.3539 N   0  0  0  0  0  0  0  0  0  0  0  0
  -31.6482   -5.4441   -3.5529 C   0  0  0  0  0  0  0  0  0  0  0  0
  -31.4306   -4.2456   -4.1863 C   0  0  0  0  0  0  0  0  0  0  0  0
  -30.1488   -4.0133   -4.6495 C   0  0  0  0  0  0  0  0  0  0  0  0
  -29.1690   -4.9140   -4.4454 N   0  0  0  0  0  0  0  0  0  0  0  0
  -27.9698   -7.6471   -4.7911 C   0  0  0  0  0  0  0  0  0  0  0  0
  -28.5072   -7.0329   -3.6003 N   0  0  0  0  0  0  0  0  0  0  0  0
  -27.8276   -6.6204   -2.9697 H   0  0  0  0  0  0  0  0  0  0  0  0
 24 25  1  0  0  0
 25 18  1  0  0  0
 25 26  1  0  0  0
 18 19  1  0  0  0
 18 23  2  0  0  0
 19 20  2  0  0  0
 20 21  1  0  0  0
 21 22  2  0  0  0
 22 16  1  0  0  0
 22 23  1  0  0  0
 16  1  1  0  0  0
 16 17  1  0  0  0
  1  2  1  0  0  0
  1  6  2  0  0  0
  2  3  2  0  0  0
  3  4  1  0  0  0
  4  7  1  0  0  0
  4  5  2  0  0  0
  7  8  2  0  0  0
  7 15  1  0  0  0
  8  9  1  0  0  0
  9 10  1  0  0  0
  9 14  2  0  0  0
 10 11  2  0  0  0
 11 12  1  0  0  0
 12 13  2  0  0  0
 13 14  1  0  0  0
 14 15  1  0  0  0
  5  6  1  0  0  0
M  END
> <minimizedAffinity>
-9.09416

$$$$
