CHEMBL566623


 40 44  0  0  0  0  0  0  0  0999 V2000
  -28.1922   -2.9267   -5.9165 C   0  0  0  0  0  0  0  0  0  0  0  0
  -28.4037   -3.9072   -6.8820 C   0  0  0  0  0  0  0  0  0  0  0  0
  -28.3527   -3.5758   -8.2330 C   0  0  0  0  0  0  0  0  0  0  0  0
  -28.0240   -2.2839   -8.6482 C   0  0  0  0  0  0  0  0  0  0  0  0
  -27.6578   -1.3396   -7.6831 C   0  0  0  0  0  0  0  0  0  0  0  0
  -27.7609   -1.6642   -6.3262 C   0  0  0  0  0  0  0  0  0  0  0  0
  -27.4655   -0.7243   -5.4138 F   0  0  0  0  0  0  0  0  0  0  0  0
  -28.0501   -1.9099  -10.0106 N   0  0  0  0  0  0  0  0  0  0  0  0
  -26.9267   -1.7685  -10.8147 C   0  0  0  0  0  0  0  0  0  0  0  0
  -25.7673   -1.9825  -10.4584 O   0  0  0  0  0  0  0  0  0  0  0  0
  -28.9672   -1.8623  -10.4555 H   0  0  0  0  0  0  0  0  0  0  0  0
  -27.1606   -1.3045  -12.2305 C   0  0  0  0  0  0  0  0  0  0  0  0
  -25.9172   -0.9611  -12.9834 C   0  0  0  0  0  0  0  0  0  0  0  0
  -25.6439   -1.5726  -14.0162 O   0  0  0  0  0  0  0  0  0  0  0  0
  -25.0890   -0.0416  -12.3561 N   0  0  0  0  0  0  0  0  0  0  0  0
  -25.1610    0.0101  -11.3459 H   0  0  0  0  0  0  0  0  0  0  0  0
  -23.8256    0.2353  -12.9131 C   0  0  0  0  0  0  0  0  0  0  0  0
  -23.4684    1.5441  -13.2498 C   0  0  0  0  0  0  0  0  0  0  0  0
  -22.2950    1.7866  -13.9579 C   0  0  0  0  0  0  0  0  0  0  0  0
  -21.4848    0.7187  -14.3372 C   0  0  0  0  0  0  0  0  0  0  0  0
  -21.8159   -0.5830  -13.9554 C   0  0  0  0  0  0  0  0  0  0  0  0
  -22.9714   -0.8254  -13.2109 C   0  0  0  0  0  0  0  0  0  0  0  0
  -28.3666   -3.1563   -4.5717 O   0  0  0  0  0  0  0  0  0  0  0  0
  -28.7759   -7.7244   -3.9652 C   0  0  0  0  0  0  0  0  0  0  0  0
  -30.0891   -7.4726   -3.6123 C   0  0  0  0  0  0  0  0  0  0  0  0
  -30.4167   -6.0825   -3.6682 C   0  0  0  0  0  0  0  0  0  0  0  0
  -31.6124   -5.5452   -3.3033 N   0  0  0  0  0  0  0  0  0  0  0  0
  -31.6808   -4.2011   -3.3347 C   0  0  0  0  0  0  0  0  0  0  0  0
  -30.6502   -3.3562   -3.7027 C   0  0  0  0  0  0  0  0  0  0  0  0
  -29.4523   -3.9097   -4.1593 C   0  0  0  0  0  0  0  0  0  0  0  0
  -29.3480   -5.3090   -4.1183 C   0  0  0  0  0  0  0  0  0  0  0  0
  -28.0375   -6.3048   -4.5901 S   0  0  0  0  0  0  0  0  0  0  0  0
  -28.0632   -9.0001   -3.9426 C   0  0  0  0  0  0  0  0  0  0  0  0
  -26.8456   -9.0728   -3.7757 O   0  0  0  0  0  0  0  0  0  0  0  0
  -29.0695  -10.1383   -6.6726 C   0  0  0  0  0  0  0  0  0  0  0  0
  -29.3437  -10.6739   -5.3654 N   0  0  0  0  0  0  0  0  0  0  0  0
  -30.0585  -11.8214   -5.1215 C   0  0  0  0  0  0  0  0  0  0  0  0
  -30.0712  -11.9578   -3.7569 C   0  0  0  0  0  0  0  0  0  0  0  0
  -29.3875  -10.9296   -3.1668 N   0  0  0  0  0  0  0  0  0  0  0  0
  -28.9091  -10.1782   -4.1504 C   0  0  0  0  0  0  0  0  0  0  0  0
 35 36  1  0  0  0
 36 37  1  0  0  0
 36 40  1  0  0  0
 37 38  2  0  0  0
 38 39  1  0  0  0
 39 40  2  0  0  0
 40 33  1  0  0  0
 33 34  2  0  0  0
 33 24  1  0  0  0
 24 25  2  0  0  0
 24 32  1  0  0  0
 25 26  1  0  0  0
 26 27  1  0  0  0
 26 31  2  0  0  0
 27 28  2  0  0  0
 28 29  1  0  0  0
 29 30  2  0  0  0
 30 23  1  0  0  0
 30 31  1  0  0  0
 23  1  1  0  0  0
  1  2  1  0  0  0
  1  6  2  0  0  0
  2  3  2  0  0  0
  3  4  1  0  0  0
  4  8  1  0  0  0
  4  5  2  0  0  0
  8  9  1  0  0  0
  8 11  1  0  0  0
  9 10  2  0  0  0
  9 12  1  0  0  0
 12 13  1  0  0  0
 13 14  2  0  0  0
 13 15  1  0  0  0
 15 17  1  0  0  0
 15 16  1  0  0  0
 17 18  1  0  0  0
 17 22  2  0  0  0
 18 19  2  0  0  0
 19 20  1  0  0  0
 20 21  2  0  0  0
 21 22  1  0  0  0
  5  6  1  0  0  0
  6  7  1  0  0  0
 31 32  1  0  0  0
M  END
> <minimizedAffinity>
-9.95669

$$$$
