CHEMBL3961936


 39 42  0  0  0  0  0  0  0  0999 V2000
  -28.3455   -4.0536   -3.3318 C   0  0  0  0  0  0  0  0  0  0  0  0
  -28.7383   -4.0184   -4.7806 C   0  0  0  0  0  0  0  0  0  0  0  0
  -28.1726   -3.0090   -5.5856 C   0  0  0  0  0  0  0  0  0  0  0  0
  -28.4626   -2.8950   -6.9493 C   0  0  0  0  0  0  0  0  0  0  0  0
  -29.4114   -3.7538   -7.5000 C   0  0  0  0  0  0  0  0  0  0  0  0
  -30.0075   -4.7457   -6.7082 C   0  0  0  0  0  0  0  0  0  0  0  0
  -29.6512   -4.9122   -5.3594 C   0  0  0  0  0  0  0  0  0  0  0  0
  -27.8570   -1.9120   -7.7675 N   0  0  0  0  0  0  0  0  0  0  0  0
  -27.6039   -2.1081   -9.1235 C   0  0  0  0  0  0  0  0  0  0  0  0
  -28.0502   -3.0325   -9.7885 O   0  0  0  0  0  0  0  0  0  0  0  0
  -26.7281   -1.1555   -9.6248 N   0  0  0  0  0  0  0  0  0  0  0  0
  -27.9434   -0.9537   -7.4782 H   0  0  0  0  0  0  0  0  0  0  0  0
  -26.0845   -0.7854   -8.9385 H   0  0  0  0  0  0  0  0  0  0  0  0
  -26.2844   -1.2009  -10.9667 C   0  0  0  0  0  0  0  0  0  0  0  0
  -27.1945   -1.5317  -11.9645 C   0  0  0  0  0  0  0  0  0  0  0  0
  -26.7764   -1.5722  -13.2974 C   0  0  0  0  0  0  0  0  0  0  0  0
  -25.4354   -1.3365  -13.6454 C   0  0  0  0  0  0  0  0  0  0  0  0
  -25.0150   -1.6582  -15.2886 Cl  0  0  0  0  0  0  0  0  0  0  0  0
  -24.5144   -0.9787  -12.6558 C   0  0  0  0  0  0  0  0  0  0  0  0
  -24.9547   -0.9213  -11.3190 C   0  0  0  0  0  0  0  0  0  0  0  0
  -23.1727   -0.7633  -12.7648 O   0  0  0  0  0  0  0  0  0  0  0  0
  -22.6535    0.4068  -13.3762 C   0  0  0  0  0  0  0  0  0  0  0  0
  -21.4231    0.7487  -12.9478 F   0  0  0  0  0  0  0  0  0  0  0  0
  -22.5670    0.1831  -14.7091 F   0  0  0  0  0  0  0  0  0  0  0  0
  -23.5120    1.4308  -13.1887 F   0  0  0  0  0  0  0  0  0  0  0  0
  -30.2466   -5.8807   -4.5648 O   0  0  0  0  0  0  0  0  0  0  0  0
  -29.8104   -7.2016   -4.7050 C   0  0  0  0  0  0  0  0  0  0  0  0
  -30.0389   -7.8311   -5.9176 C   0  0  0  0  0  0  0  0  0  0  0  0
  -29.6042   -9.1418   -6.0149 C   0  0  0  0  0  0  0  0  0  0  0  0
  -28.9877   -9.7510   -4.9957 N   0  0  0  0  0  0  0  0  0  0  0  0
  -28.8320   -9.0629   -3.8636 C   0  0  0  0  0  0  0  0  0  0  0  0
  -29.2323   -7.8094   -3.6550 N   0  0  0  0  0  0  0  0  0  0  0  0
  -29.8616   -9.8729   -7.1935 N   0  0  0  0  0  0  0  0  0  0  0  0
  -29.4559   -9.4687   -8.4543 C   0  0  0  0  0  0  0  0  0  0  0  0
  -29.0086   -8.3733   -8.7652 O   0  0  0  0  0  0  0  0  0  0  0  0
  -30.3393  -10.7546   -7.1055 H   0  0  0  0  0  0  0  0  0  0  0  0
  -29.5888  -10.4682   -9.5599 C   0  0  0  0  0  0  0  0  0  0  0  0
  -28.4361  -11.3661   -9.9384 C   0  0  0  0  0  0  0  0  0  0  0  0
  -28.9675  -10.3701  -10.9304 C   0  0  0  0  0  0  0  0  0  0  0  0
  1  2  1  0  0  0
  2  3  1  0  0  0
  2  7  2  0  0  0
  3  4  2  0  0  0
  4  8  1  0  0  0
  4  5  1  0  0  0
  8  9  1  0  0  0
  8 12  1  0  0  0
  9 10  2  0  0  0
  9 11  1  0  0  0
 11 14  1  0  0  0
 11 13  1  0  0  0
 14 15  1  0  0  0
 14 20  2  0  0  0
 15 16  2  0  0  0
 16 17  1  0  0  0
 17 18  1  0  0  0
 17 19  2  0  0  0
 19 21  1  0  0  0
 19 20  1  0  0  0
 21 22  1  0  0  0
 22 23  1  0  0  0
 22 24  1  0  0  0
 22 25  1  0  0  0
  5  6  2  0  0  0
  6  7  1  0  0  0
  7 26  1  0  0  0
 26 27  1  0  0  0
 27 28  1  0  0  0
 27 32  2  0  0  0
 28 29  2  0  0  0
 29 33  1  0  0  0
 29 30  1  0  0  0
 33 34  1  0  0  0
 33 36  1  0  0  0
 34 35  2  0  0  0
 34 37  1  0  0  0
 37 38  1  0  0  0
 37 39  1  0  0  0
 38 39  1  0  0  0
 30 31  2  0  0  0
 31 32  1  0  0  0
M  END
> <minimizedAffinity>
-9.58992

$$$$
