CHEMBL1242749


 26 29  0  0  0  0  0  0  0  0999 V2000
  -32.5425   -8.1017   -6.2785 N   0  0  0  0  0  0  0  0  0  0  0  0
  -32.0588   -9.0855   -7.1318 C   0  0  0  0  0  0  0  0  0  0  0  0
  -32.8424  -10.1756   -7.2671 N   0  0  0  0  0  0  0  0  0  0  0  0
  -32.4419  -11.1640   -8.0879 C   0  0  0  0  0  0  0  0  0  0  0  0
  -31.3288  -11.2140   -8.8347 N   0  0  0  0  0  0  0  0  0  0  0  0
  -30.5724  -10.1141   -8.6611 C   0  0  0  0  0  0  0  0  0  0  0  0
  -30.8476   -9.0301   -7.8417 C   0  0  0  0  0  0  0  0  0  0  0  0
  -29.7082   -8.1724   -7.9857 C   0  0  0  0  0  0  0  0  0  0  0  0
  -28.8363   -8.6747   -8.8807 N   0  0  0  0  0  0  0  0  0  0  0  0
  -29.3595   -9.8622   -9.2418 N   0  0  0  0  0  0  0  0  0  0  0  0
  -33.5148   -8.2830   -6.0513 H   0  0  0  0  0  0  0  0  0  0  0  0
  -32.3352   -7.1523   -6.5617 H   0  0  0  0  0  0  0  0  0  0  0  0
  -29.3827   -6.9216   -7.2911 C   0  0  0  0  0  0  0  0  0  0  0  0
  -29.8694   -5.6857   -7.7481 C   0  0  0  0  0  0  0  0  0  0  0  0
  -29.5614   -4.4981   -7.0822 C   0  0  0  0  0  0  0  0  0  0  0  0
  -28.8115   -4.5481   -5.9168 C   0  0  0  0  0  0  0  0  0  0  0  0
  -28.5328   -3.4200   -5.2525 F   0  0  0  0  0  0  0  0  0  0  0  0
  -28.3613   -5.7656   -5.4210 C   0  0  0  0  0  0  0  0  0  0  0  0
  -27.6597   -5.8241   -4.2506 O   0  0  0  0  0  0  0  0  0  0  0  0
  -28.6263   -6.9477   -6.1044 C   0  0  0  0  0  0  0  0  0  0  0  0
  -27.6350   -4.9168   -3.8891 H   0  0  0  0  0  0  0  0  0  0  0  0
  -28.6148  -10.7914  -10.0771 C   0  0  0  0  0  0  0  0  0  0  0  0
  -27.7402  -11.7708   -9.3165 C   0  0  0  0  0  0  0  0  0  0  0  0
  -26.4032  -11.0646   -9.2512 C   0  0  0  0  0  0  0  0  0  0  0  0
  -26.3037  -10.2503  -10.4260 O   0  0  0  0  0  0  0  0  0  0  0  0
  -27.6178  -10.0907  -10.9870 C   0  0  0  0  0  0  0  0  0  0  0  0
  1  2  1  0  0  0
  1 11  1  0  0  0
  1 12  1  0  0  0
  2  3  1  0  0  0
  2  7  2  0  0  0
  3  4  2  0  0  0
  4  5  1  0  0  0
  5  6  2  0  0  0
  6  7  1  0  0  0
  6 10  1  0  0  0
  7  8  1  0  0  0
  8 13  1  0  0  0
  8  9  2  0  0  0
 13 14  1  0  0  0
 13 20  2  0  0  0
 14 15  2  0  0  0
 15 16  1  0  0  0
 16 17  1  0  0  0
 16 18  2  0  0  0
 18 19  1  0  0  0
 18 20  1  0  0  0
 19 21  1  0  0  0
  9 10  1  0  0  0
 10 22  1  0  0  0
 22 23  1  0  0  0
 22 26  1  0  0  0
 23 24  1  0  0  0
 24 25  1  0  0  0
 25 26  1  0  0  0
M  END
> <minimizedAffinity>
-7.63241

$$$$
