CHEMBL3577124


 34 36  0  0  0  0  0  0  0  0999 V2000
  -25.5922   -1.0280  -12.2064 C   0  0  0  0  0  0  0  0  0  0  0  0
  -25.7241   -1.0794  -10.7993 C   0  0  0  0  0  0  0  0  0  0  0  0
  -26.8163   -1.6537  -10.1358 C   0  0  0  0  0  0  0  0  0  0  0  0
  -27.8859   -2.0776  -10.9099 C   0  0  0  0  0  0  0  0  0  0  0  0
  -28.9833   -2.5787  -10.3226 F   0  0  0  0  0  0  0  0  0  0  0  0
  -27.8518   -1.9651  -12.2967 C   0  0  0  0  0  0  0  0  0  0  0  0
  -26.7021   -1.4890  -12.9664 C   0  0  0  0  0  0  0  0  0  0  0  0
  -26.7412   -1.5325  -14.4749 C   0  0  0  0  0  0  0  0  0  0  0  0
  -20.7131    2.4090  -14.5963 C   0  0  0  0  0  0  0  0  0  0  0  0
  -21.6854    3.2811  -14.3083 N   0  0  0  0  0  0  0  0  0  0  0  0
  -22.7996    2.7727  -13.7702 C   0  0  0  0  0  0  0  0  0  0  0  0
  -22.9714    1.4266  -13.5191 C   0  0  0  0  0  0  0  0  0  0  0  0
  -24.1333    0.8850  -12.9400 C   0  0  0  0  0  0  0  0  0  0  0  0
  -24.3128   -0.4936  -12.7900 C   0  0  0  0  0  0  0  0  0  0  0  0
  -23.2076   -1.2630  -13.2078 C   0  0  0  0  0  0  0  0  0  0  0  0
  -23.1207   -2.7647  -13.1457 C   0  0  0  0  0  0  0  0  0  0  0  0
  -22.0467   -0.7143  -13.6992 N   0  0  0  0  0  0  0  0  0  0  0  0
  -21.9271    0.6017  -13.8687 C   0  0  0  0  0  0  0  0  0  0  0  0
  -20.7983    1.0930  -14.3795 N   0  0  0  0  0  0  0  0  0  0  0  0
  -18.4719    1.8686  -15.2472 C   0  0  0  0  0  0  0  0  0  0  0  0
  -19.5322    2.8456  -15.1690 N   0  0  0  0  0  0  0  0  0  0  0  0
  -19.7846    3.3068  -16.0363 H   0  0  0  0  0  0  0  0  0  0  0  0
  -26.8617   -1.8507   -8.7288 N   0  0  0  0  0  0  0  0  0  0  0  0
  -27.6874   -1.1835   -7.8619 C   0  0  0  0  0  0  0  0  0  0  0  0
  -28.5670   -0.3897   -8.1970 O   0  0  0  0  0  0  0  0  0  0  0  0
  -27.4507   -1.4632   -6.5288 N   0  0  0  0  0  0  0  0  0  0  0  0
  -26.2846   -2.5964   -8.3621 H   0  0  0  0  0  0  0  0  0  0  0  0
  -27.0456   -2.3617   -6.3134 H   0  0  0  0  0  0  0  0  0  0  0  0
  -28.4025   -0.9084   -5.5813 C   0  0  0  0  0  0  0  0  0  0  0  0
  -28.3470   -1.5094   -4.1767 C   0  0  0  0  0  0  0  0  0  0  0  0
  -29.1713   -2.8279   -4.0343 C   0  0  0  0  0  0  0  0  0  0  0  0
  -28.2458   -4.0480   -3.8772 C   0  0  0  0  0  0  0  0  0  0  0  0
  -30.0690   -2.7396   -2.7858 C   0  0  0  0  0  0  0  0  0  0  0  0
  -30.0839   -3.0476   -5.2572 C   0  0  0  0  0  0  0  0  0  0  0  0
 20 21  1  0  0  0
 21  9  1  0  0  0
 21 22  1  0  0  0
  9 10  1  0  0  0
  9 19  2  0  0  0
 10 11  2  0  0  0
 11 12  1  0  0  0
 12 13  1  0  0  0
 12 18  2  0  0  0
 13 14  2  0  0  0
 14  1  1  0  0  0
 14 15  1  0  0  0
  1  2  1  0  0  0
  1  7  2  0  0  0
  2  3  2  0  0  0
  3 23  1  0  0  0
  3  4  1  0  0  0
 23 24  1  0  0  0
 23 27  1  0  0  0
 24 25  2  0  0  0
 24 26  1  0  0  0
 26 29  1  0  0  0
 26 28  1  0  0  0
 29 30  1  0  0  0
 30 31  1  0  0  0
 31 32  1  0  0  0
 31 33  1  0  0  0
 31 34  1  0  0  0
  4  5  1  0  0  0
  4  6  2  0  0  0
  6  7  1  0  0  0
  7  8  1  0  0  0
 15 16  1  0  0  0
 15 17  2  0  0  0
 17 18  1  0  0  0
 18 19  1  0  0  0
M  END
> <minimizedAffinity>
-8.23872

$$$$
