CHEMBL1907763


 31 34  0  0  0  0  0  0  0  0999 V2000
  -30.4311   -7.5983   -6.5387 C   0  0  0  0  0  0  0  0  0  0  0  0
  -29.7487   -8.7439   -6.9754 C   0  0  0  0  0  0  0  0  0  0  0  0
  -28.5471   -9.1617   -6.3465 C   0  0  0  0  0  0  0  0  0  0  0  0
  -27.7901  -10.2944   -6.6623 C   0  0  0  0  0  0  0  0  0  0  0  0
  -26.6919  -10.6422   -5.9453 N   0  0  0  0  0  0  0  0  0  0  0  0
  -26.3109   -9.8324   -4.9611 C   0  0  0  0  0  0  0  0  0  0  0  0
  -26.9198   -8.6991   -4.6299 N   0  0  0  0  0  0  0  0  0  0  0  0
  -28.0069   -8.3905   -5.3243 C   0  0  0  0  0  0  0  0  0  0  0  0
  -28.6172   -7.2074   -4.9996 C   0  0  0  0  0  0  0  0  0  0  0  0
  -29.8221   -6.7743   -5.5778 C   0  0  0  0  0  0  0  0  0  0  0  0
  -32.6094   -8.3353   -7.1179 C   0  0  0  0  0  0  0  0  0  0  0  0
  -31.6679   -7.2581   -7.0240 O   0  0  0  0  0  0  0  0  0  0  0  0
  -28.1275  -11.0897   -7.7821 N   0  0  0  0  0  0  0  0  0  0  0  0
  -27.7072  -12.0117   -7.7089 H   0  0  0  0  0  0  0  0  0  0  0  0
  -28.0748  -10.5768   -9.0978 C   0  0  0  0  0  0  0  0  0  0  0  0
  -26.9076   -9.9560   -9.5703 C   0  0  0  0  0  0  0  0  0  0  0  0
  -26.7847   -9.6035  -10.9125 C   0  0  0  0  0  0  0  0  0  0  0  0
  -27.8487   -9.8340  -11.7799 C   0  0  0  0  0  0  0  0  0  0  0  0
  -27.6667   -9.4697  -13.4503 Cl  0  0  0  0  0  0  0  0  0  0  0  0
  -29.0445  -10.3808  -11.3146 C   0  0  0  0  0  0  0  0  0  0  0  0
  -29.1487  -10.7418   -9.9762 C   0  0  0  0  0  0  0  0  0  0  0  0
  -30.2834  -11.3055   -9.5325 F   0  0  0  0  0  0  0  0  0  0  0  0
  -30.4155   -5.5757   -5.1992 O   0  0  0  0  0  0  0  0  0  0  0  0
  -29.6199   -4.8432   -4.2520 C   0  0  0  0  0  0  0  0  0  0  0  0
  -28.9446   -3.5761   -4.7493 C   0  0  0  0  0  0  0  0  0  0  0  0
  -29.6079   -2.3175   -4.1988 C   0  0  0  0  0  0  0  0  0  0  0  0
  -28.8295   -1.0981   -4.6754 C   0  0  0  0  0  0  0  0  0  0  0  0
  -28.6770   -1.1052   -6.1981 C   0  0  0  0  0  0  0  0  0  0  0  0
  -28.0578   -2.3485   -6.6816 N   0  0  0  0  0  0  0  0  0  0  0  0
  -27.9197   -2.3216   -8.1372 C   0  0  0  0  0  0  0  0  0  0  0  0
  -28.8337   -3.5307   -6.2718 C   0  0  0  0  0  0  0  0  0  0  0  0
 11 12  1  0  0  0
 12  1  1  0  0  0
  1  2  1  0  0  0
  1 10  2  0  0  0
  2  3  2  0  0  0
  3  4  1  0  0  0
  3  8  1  0  0  0
  4 13  1  0  0  0
  4  5  2  0  0  0
 13 15  1  0  0  0
 13 14  1  0  0  0
 15 16  1  0  0  0
 15 21  2  0  0  0
 16 17  2  0  0  0
 17 18  1  0  0  0
 18 19  1  0  0  0
 18 20  2  0  0  0
 20 21  1  0  0  0
 21 22  1  0  0  0
  5  6  1  0  0  0
  6  7  2  0  0  0
  7  8  1  0  0  0
  8  9  2  0  0  0
  9 10  1  0  0  0
 10 23  1  0  0  0
 23 24  1  0  0  0
 24 25  1  0  0  0
 25 26  1  0  0  0
 25 31  1  0  0  0
 26 27  1  0  0  0
 27 28  1  0  0  0
 28 29  1  0  0  0
 29 30  1  0  0  0
 29 31  1  0  0  0
M  END
> <minimizedAffinity>
-8.03286

$$$$
