CHEMBL151959


 36 41  0  0  0  0  0  0  0  0999 V2000
  -29.0900   -7.9764   -7.7221 C   0  0  0  0  0  0  0  0  0  0  0  0
  -28.1631   -7.3119   -8.5429 C   0  0  0  0  0  0  0  0  0  0  0  0
  -28.0218   -5.9342   -8.4820 C   0  0  0  0  0  0  0  0  0  0  0  0
  -28.8284   -5.2139   -7.5931 C   0  0  0  0  0  0  0  0  0  0  0  0
  -29.7227   -5.8855   -6.7196 C   0  0  0  0  0  0  0  0  0  0  0  0
  -29.8379   -7.2833   -6.7617 C   0  0  0  0  0  0  0  0  0  0  0  0
  -30.2388   -4.8449   -5.9952 C   0  0  0  0  0  0  0  0  0  0  0  0
  -30.6355   -4.9046   -4.6226 C   0  0  0  0  0  0  0  0  0  0  0  0
  -30.3871   -3.6813   -3.8529 C   0  0  0  0  0  0  0  0  0  0  0  0
  -29.8300   -2.5743   -4.5079 C   0  0  0  0  0  0  0  0  0  0  0  0
  -30.4007   -2.5702   -5.7802 C   0  0  0  0  0  0  0  0  0  0  0  0
  -30.0324   -3.6246   -6.5377 C   0  0  0  0  0  0  0  0  0  0  0  0
  -28.8840   -3.8450   -7.3038 N   0  0  0  0  0  0  0  0  0  0  0  0
  -31.0486   -1.2796   -6.0444 C   0  0  0  0  0  0  0  0  0  0  0  0
  -29.9161   -0.4458   -5.5155 C   0  0  0  0  0  0  0  0  0  0  0  0
  -29.3144    0.4517   -6.3992 C   0  0  0  0  0  0  0  0  0  0  0  0
  -27.9427    0.5989   -6.3298 C   0  0  0  0  0  0  0  0  0  0  0  0
  -27.2272   -0.0831   -5.3318 C   0  0  0  0  0  0  0  0  0  0  0  0
  -27.8654   -0.9621   -4.4024 C   0  0  0  0  0  0  0  0  0  0  0  0
  -29.2509   -1.2105   -4.4839 C   0  0  0  0  0  0  0  0  0  0  0  0
  -31.1900   -3.8064   -2.6604 C   0  0  0  0  0  0  0  0  0  0  0  0
  -31.4802   -3.0245   -1.7608 O   0  0  0  0  0  0  0  0  0  0  0  0
  -31.8191   -5.0666   -2.7764 N   0  0  0  0  0  0  0  0  0  0  0  0
  -31.4944   -5.8598   -3.9468 C   0  0  0  0  0  0  0  0  0  0  0  0
  -32.6799   -5.2110   -2.2665 H   0  0  0  0  0  0  0  0  0  0  0  0
  -29.3716   -9.4236   -7.9529 C   0  0  0  0  0  0  0  0  0  0  0  0
  -29.8696   -9.5252   -9.2842 O   0  0  0  0  0  0  0  0  0  0  0  0
  -29.4518  -10.7062   -9.9614 C   0  0  0  0  0  0  0  0  0  0  0  0
  -28.4442  -11.4722   -9.1070 C   0  0  0  0  0  0  0  0  0  0  0  0
  -27.3224   -9.9305  -11.1286 C   0  0  0  0  0  0  0  0  0  0  0  0
  -28.7962  -10.2827  -11.2809 C   0  0  0  0  0  0  0  0  0  0  0  0
  -27.7073   -2.9686   -7.2432 C   0  0  0  0  0  0  0  0  0  0  0  0
  -27.4853   -1.9142   -8.3159 C   0  0  0  0  0  0  0  0  0  0  0  0
  -27.9534   -2.3601   -9.6993 C   0  0  0  0  0  0  0  0  0  0  0  0
  -26.8543   -2.9222  -10.4089 O   0  0  0  0  0  0  0  0  0  0  0  0
  -26.1845   -2.2237  -10.5061 H   0  0  0  0  0  0  0  0  0  0  0  0
 30 31  1  0  0  0
 31 28  1  0  0  0
 28 29  1  0  0  0
 28 27  1  0  0  0
 27 26  1  0  0  0
 26  1  1  0  0  0
  1  2  1  0  0  0
  1  6  2  0  0  0
  2  3  2  0  0  0
  3  4  1  0  0  0
  4  5  2  0  0  0
  4 13  1  0  0  0
  5  6  1  0  0  0
  5  7  1  0  0  0
  7  8  1  0  0  0
  7 12  2  0  0  0
  8  9  2  0  0  0
  8 24  1  0  0  0
  9 10  1  0  0  0
  9 21  1  0  0  0
 10 11  2  0  0  0
 10 20  1  0  0  0
 11 12  1  0  0  0
 11 14  1  0  0  0
 12 13  1  0  0  0
 13 32  1  0  0  0
 32 33  1  0  0  0
 33 34  1  0  0  0
 34 35  1  0  0  0
 35 36  1  0  0  0
 14 15  1  0  0  0
 15 16  1  0  0  0
 15 20  2  0  0  0
 16 17  2  0  0  0
 17 18  1  0  0  0
 18 19  2  0  0  0
 19 20  1  0  0  0
 21 22  2  0  0  0
 21 23  1  0  0  0
 23 24  1  0  0  0
 23 25  1  0  0  0
M  END
> <minimizedAffinity>
-7.55658

$$$$
