CHEMBL393636


 20 22  0  0  0  0  0  0  0  0999 V2000
  -27.5221   -1.8583   -7.9174 O   0  0  0  0  0  0  0  0  0  0  0  0
  -28.0786   -2.9007   -7.6299 C   0  0  0  0  0  0  0  0  0  0  0  0
  -27.9611   -4.0964   -8.3171 N   0  0  0  0  0  0  0  0  0  0  0  0
  -28.6593   -5.1157   -7.6839 C   0  0  0  0  0  0  0  0  0  0  0  0
  -28.7325   -6.4350   -8.0834 C   0  0  0  0  0  0  0  0  0  0  0  0
  -29.4903   -7.3030   -7.2929 C   0  0  0  0  0  0  0  0  0  0  0  0
  -30.1419   -6.8231   -6.1455 C   0  0  0  0  0  0  0  0  0  0  0  0
  -30.8913   -7.6546   -5.3641 O   0  0  0  0  0  0  0  0  0  0  0  0
  -30.0554   -5.4880   -5.7539 C   0  0  0  0  0  0  0  0  0  0  0  0
  -29.3015   -4.6342   -6.5388 C   0  0  0  0  0  0  0  0  0  0  0  0
  -28.9764   -3.2005   -6.4494 C   0  0  0  0  0  0  0  0  0  0  0  0
  -29.4551   -2.3858   -5.4937 C   0  0  0  0  0  0  0  0  0  0  0  0
  -27.4073   -4.1868   -9.1554 H   0  0  0  0  0  0  0  0  0  0  0  0
  -30.8828   -8.5455   -5.7509 H   0  0  0  0  0  0  0  0  0  0  0  0
  -29.2386   -0.9913   -5.3598 C   0  0  0  0  0  0  0  0  0  0  0  0
  -30.0877    0.0856   -5.5475 C   0  0  0  0  0  0  0  0  0  0  0  0
  -29.3619    1.2715   -5.2770 C   0  0  0  0  0  0  0  0  0  0  0  0
  -28.0961    0.8940   -4.8993 C   0  0  0  0  0  0  0  0  0  0  0  0
  -28.0348   -0.4746   -4.9420 N   0  0  0  0  0  0  0  0  0  0  0  0
  -27.1940   -1.0171   -4.7720 H   0  0  0  0  0  0  0  0  0  0  0  0
  1  2  2  0  0  0
  2  3  1  0  0  0
  2 11  1  0  0  0
  3  4  1  0  0  0
  3 13  1  0  0  0
  4  5  1  0  0  0
  4 10  2  0  0  0
  5  6  2  0  0  0
  6  7  1  0  0  0
  7  8  1  0  0  0
  7  9  2  0  0  0
  8 14  1  0  0  0
  9 10  1  0  0  0
 10 11  1  0  0  0
 11 12  2  0  0  0
 12 15  1  0  0  0
 15 16  2  0  0  0
 15 19  1  0  0  0
 16 17  1  0  0  0
 17 18  2  0  0  0
 18 19  1  0  0  0
 19 20  1  0  0  0
M  END
> <minimizedAffinity>
-7.53889

$$$$
