CHEMBL149201


 32 35  0  0  0  0  0  0  0  0999 V2000
  -29.2753   -8.0746   -6.0017 C   0  0  0  0  0  0  0  0  0  0  0  0
  -28.9407   -6.9237   -6.6013 C   0  0  0  0  0  0  0  0  0  0  0  0
  -28.3117   -6.7428   -7.9643 C   0  0  0  0  0  0  0  0  0  0  0  0
  -27.9428   -7.5812   -8.7611 O   0  0  0  0  0  0  0  0  0  0  0  0
  -28.2352   -5.3705   -8.1411 N   0  0  0  0  0  0  0  0  0  0  0  0
  -28.7171   -4.6836   -7.0341 C   0  0  0  0  0  0  0  0  0  0  0  0
  -28.7551   -3.3107   -6.8810 C   0  0  0  0  0  0  0  0  0  0  0  0
  -29.2152   -2.7726   -5.6659 C   0  0  0  0  0  0  0  0  0  0  0  0
  -29.6577   -3.6828   -4.6683 C   0  0  0  0  0  0  0  0  0  0  0  0
  -29.6334   -5.0790   -4.8539 C   0  0  0  0  0  0  0  0  0  0  0  0
  -29.1502   -5.5717   -6.0503 C   0  0  0  0  0  0  0  0  0  0  0  0
  -27.8381   -4.9575   -8.9707 H   0  0  0  0  0  0  0  0  0  0  0  0
  -26.9574  -12.3224   -6.4768 C   0  0  0  0  0  0  0  0  0  0  0  0
  -27.9775  -11.2967   -6.8210 C   0  0  0  0  0  0  0  0  0  0  0  0
  -28.0649  -10.1293   -6.1048 N   0  0  0  0  0  0  0  0  0  0  0  0
  -29.0715   -9.3425   -6.5988 C   0  0  0  0  0  0  0  0  0  0  0  0
  -29.6839  -10.0347   -7.6290 C   0  0  0  0  0  0  0  0  0  0  0  0
  -30.8692   -9.5766   -8.4083 C   0  0  0  0  0  0  0  0  0  0  0  0
  -28.9781  -11.2827   -7.7834 C   0  0  0  0  0  0  0  0  0  0  0  0
  -27.4874   -9.8947   -5.3092 H   0  0  0  0  0  0  0  0  0  0  0  0
  -29.2902  -12.3819   -8.7651 C   0  0  0  0  0  0  0  0  0  0  0  0
  -28.2682  -12.4658   -9.8954 C   0  0  0  0  0  0  0  0  0  0  0  0
  -28.1014  -11.1530  -10.6149 C   0  0  0  0  0  0  0  0  0  0  0  0
  -28.9704  -10.5605  -11.2321 O   0  0  0  0  0  0  0  0  0  0  0  0
  -26.8391  -10.6701  -10.4997 O   0  0  0  0  0  0  0  0  0  0  0  0
  -26.2496  -11.2420   -9.9723 H   0  0  0  0  0  0  0  0  0  0  0  0
  -29.1836   -1.3079   -5.4265 C   0  0  0  0  0  0  0  0  0  0  0  0
  -28.0669   -0.6644   -4.8639 C   0  0  0  0  0  0  0  0  0  0  0  0
  -28.0366    0.7257   -4.6923 C   0  0  0  0  0  0  0  0  0  0  0  0
  -29.1289    1.5031   -5.0659 C   0  0  0  0  0  0  0  0  0  0  0  0
  -30.2552    0.8917   -5.6028 C   0  0  0  0  0  0  0  0  0  0  0  0
  -30.2780   -0.4944   -5.7828 C   0  0  0  0  0  0  0  0  0  0  0  0
 13 14  1  0  0  0
 14 15  1  0  0  0
 14 19  2  0  0  0
 15 16  1  0  0  0
 15 20  1  0  0  0
 16  1  1  0  0  0
 16 17  2  0  0  0
  1  2  2  0  0  0
  2  3  1  0  0  0
  2 11  1  0  0  0
  3  4  2  0  0  0
  3  5  1  0  0  0
  5  6  1  0  0  0
  5 12  1  0  0  0
  6  7  1  0  0  0
  6 11  2  0  0  0
  7  8  2  0  0  0
  8 27  1  0  0  0
  8  9  1  0  0  0
 27 28  1  0  0  0
 27 32  2  0  0  0
 28 29  2  0  0  0
 29 30  1  0  0  0
 30 31  2  0  0  0
 31 32  1  0  0  0
  9 10  2  0  0  0
 10 11  1  0  0  0
 17 18  1  0  0  0
 17 19  1  0  0  0
 19 21  1  0  0  0
 21 22  1  0  0  0
 22 23  1  0  0  0
 23 24  2  0  0  0
 23 25  1  0  0  0
 25 26  1  0  0  0
M  END
> <minimizedAffinity>
-8.34949

$$$$
