CHEMBL1242208


 25 28  0  0  0  0  0  0  0  0999 V2000
  -14.2086    1.8343  -16.8688 N   0  0  0  0  0  0  0  0  0  0  0  0
  -15.5427    1.9921  -16.9037 N   0  0  0  0  0  0  0  0  0  0  0  0
  -15.9753    1.5588  -15.6968 C   0  0  0  0  0  0  0  0  0  0  0  0
  -14.8745    1.1434  -14.8844 C   0  0  0  0  0  0  0  0  0  0  0  0
  -14.6340    0.5927  -13.6161 C   0  0  0  0  0  0  0  0  0  0  0  0
  -15.6028    0.2104  -12.6948 N   0  0  0  0  0  0  0  0  0  0  0  0
  -13.3607    0.3571  -13.2341 N   0  0  0  0  0  0  0  0  0  0  0  0
  -12.3633    0.6397  -14.0946 C   0  0  0  0  0  0  0  0  0  0  0  0
  -12.4718    1.1362  -15.3374 N   0  0  0  0  0  0  0  0  0  0  0  0
  -13.7514    1.3672  -15.6795 C   0  0  0  0  0  0  0  0  0  0  0  0
  -16.4097   -0.2324  -13.1154 H   0  0  0  0  0  0  0  0  0  0  0  0
  -15.1645   -0.3410  -11.9632 H   0  0  0  0  0  0  0  0  0  0  0  0
  -17.4266    1.5143  -15.4538 C   0  0  0  0  0  0  0  0  0  0  0  0
  -18.0371    0.2619  -15.2757 C   0  0  0  0  0  0  0  0  0  0  0  0
  -19.4140    0.1477  -15.0935 C   0  0  0  0  0  0  0  0  0  0  0  0
  -20.1962    1.2945  -14.9491 C   0  0  0  0  0  0  0  0  0  0  0  0
  -21.5627    1.2029  -14.6942 C   0  0  0  0  0  0  0  0  0  0  0  0
  -22.1994    2.3169  -14.1831 C   0  0  0  0  0  0  0  0  0  0  0  0
  -21.6329    3.5387  -14.1193 N   0  0  0  0  0  0  0  0  0  0  0  0
  -20.3708    3.6461  -14.6007 C   0  0  0  0  0  0  0  0  0  0  0  0
  -19.5837    2.5579  -14.9903 C   0  0  0  0  0  0  0  0  0  0  0  0
  -18.2268    2.6589  -15.3646 C   0  0  0  0  0  0  0  0  0  0  0  0
  -13.4094    0.9265  -19.0175 C   0  0  0  0  0  0  0  0  0  0  0  0
  -13.4110    2.1208  -18.0499 C   0  0  0  0  0  0  0  0  0  0  0  0
  -13.8886    3.3859  -18.7572 C   0  0  0  0  0  0  0  0  0  0  0  0
 23 24  1  0  0  0
 24 25  1  0  0  0
 24  1  1  0  0  0
  1  2  1  0  0  0
  1 10  1  0  0  0
  2  3  2  0  0  0
  3 13  1  0  0  0
  3  4  1  0  0  0
 13 14  1  0  0  0
 13 22  2  0  0  0
 14 15  2  0  0  0
 15 16  1  0  0  0
 16 17  1  0  0  0
 16 21  2  0  0  0
 17 18  2  0  0  0
 18 19  1  0  0  0
 19 20  2  0  0  0
 20 21  1  0  0  0
 21 22  1  0  0  0
  4  5  1  0  0  0
  4 10  2  0  0  0
  5  6  1  0  0  0
  5  7  2  0  0  0
  6 11  1  0  0  0
  6 12  1  0  0  0
  7  8  1  0  0  0
  8  9  2  0  0  0
  9 10  1  0  0  0
M  END
> <minimizedAffinity>
-7.46886

$$$$
