CHEMBL470440


 26 28  0  0  0  0  0  0  0  0999 V2000
  -15.5526    1.1351  -14.6780 C   0  0  0  0  0  0  0  0  0  0  0  0
  -14.4917    1.5914  -15.3662 N   0  0  0  0  0  0  0  0  0  0  0  0
  -15.0175    2.6900  -16.4906 S   0  0  0  0  0  0  0  0  0  0  0  0
  -16.6687    2.6335  -16.0553 C   0  0  0  0  0  0  0  0  0  0  0  0
  -16.8242    1.7451  -15.0166 C   0  0  0  0  0  0  0  0  0  0  0  0
  -15.4729    0.4008  -12.4455 O   0  0  0  0  0  0  0  0  0  0  0  0
  -15.3787    0.1066  -13.6344 C   0  0  0  0  0  0  0  0  0  0  0  0
  -15.0545   -1.1544  -14.1195 N   0  0  0  0  0  0  0  0  0  0  0  0
  -14.8888   -1.1944  -15.1214 H   0  0  0  0  0  0  0  0  0  0  0  0
  -14.8108   -2.3026  -13.3396 C   0  0  0  0  0  0  0  0  0  0  0  0
  -13.5517   -2.6047  -12.8086 C   0  0  0  0  0  0  0  0  0  0  0  0
  -13.3388   -3.7794  -12.0854 C   0  0  0  0  0  0  0  0  0  0  0  0
  -14.3890   -4.6733  -11.8772 C   0  0  0  0  0  0  0  0  0  0  0  0
  -14.0446   -6.1217  -11.0050 Cl  0  0  0  0  0  0  0  0  0  0  0  0
  -15.6578   -4.3693  -12.3776 C   0  0  0  0  0  0  0  0  0  0  0  0
  -17.0048   -5.4322  -12.1638 Cl  0  0  0  0  0  0  0  0  0  0  0  0
  -15.8720   -3.1802  -13.0938 C   0  0  0  0  0  0  0  0  0  0  0  0
  -18.0016    1.4376  -14.4003 N   0  0  0  0  0  0  0  0  0  0  0  0
  -18.3098    2.0506  -13.6344 H   0  0  0  0  0  0  0  0  0  0  0  0
  -19.1071    0.7560  -15.0515 C   0  0  0  0  0  0  0  0  0  0  0  0
  -20.4351    1.3124  -14.5894 C   0  0  0  0  0  0  0  0  0  0  0  0
  -20.6598    2.6925  -14.5264 C   0  0  0  0  0  0  0  0  0  0  0  0
  -21.9153    3.1495  -14.1517 C   0  0  0  0  0  0  0  0  0  0  0  0
  -22.9487    2.3390  -13.8418 N   0  0  0  0  0  0  0  0  0  0  0  0
  -22.7132    1.0118  -13.8993 C   0  0  0  0  0  0  0  0  0  0  0  0
  -21.4931    0.4583  -14.2603 C   0  0  0  0  0  0  0  0  0  0  0  0
  6  7  2  0  0  0
  7  8  1  0  0  0
  7  1  1  0  0  0
  8 10  1  0  0  0
  8  9  1  0  0  0
 10 11  1  0  0  0
 10 17  2  0  0  0
 11 12  2  0  0  0
 12 13  1  0  0  0
 13 14  1  0  0  0
 13 15  2  0  0  0
 15 16  1  0  0  0
 15 17  1  0  0  0
  1  2  2  0  0  0
  1  5  1  0  0  0
  2  3  1  0  0  0
  3  4  1  0  0  0
  4  5  2  0  0  0
  5 18  1  0  0  0
 18 20  1  0  0  0
 18 19  1  0  0  0
 20 21  1  0  0  0
 21 22  1  0  0  0
 21 26  2  0  0  0
 22 23  2  0  0  0
 23 24  1  0  0  0
 24 25  2  0  0  0
 25 26  1  0  0  0
M  END
> <minimizedAffinity>
-7.86392

$$$$
