CHEMBL4473548


 39 44  0  0  0  0  0  0  0  0999 V2000
  -29.3973   -9.2938   -6.4715 C   0  0  0  0  0  0  0  0  0  0  0  0
  -30.2918   -8.0535   -6.2175 C   0  0  0  0  0  0  0  0  0  0  0  0
  -30.5488   -3.4357   -3.1872 C   0  0  0  0  0  0  0  0  0  0  0  0
  -30.7134   -3.8298   -4.6509 C   0  0  0  0  0  0  0  0  0  0  0  0
  -30.5936   -5.3671   -4.8518 C   0  0  0  0  0  0  0  0  0  0  0  0
  -29.8052   -5.5898   -6.0722 N   0  0  0  0  0  0  0  0  0  0  0  0
  -29.5769   -6.7940   -6.7320 C   0  0  0  0  0  0  0  0  0  0  0  0
  -28.8289   -6.8953   -7.7059 O   0  0  0  0  0  0  0  0  0  0  0  0
  -29.2413   -4.3431   -6.4480 C   0  0  0  0  0  0  0  0  0  0  0  0
  -28.3736   -4.1074   -7.5011 C   0  0  0  0  0  0  0  0  0  0  0  0
  -27.9609   -2.8061   -7.7519 C   0  0  0  0  0  0  0  0  0  0  0  0
  -27.1143   -2.5788   -8.8147 O   0  0  0  0  0  0  0  0  0  0  0  0
  -28.3896   -1.7242   -6.9587 C   0  0  0  0  0  0  0  0  0  0  0  0
  -27.9726   -0.4045   -7.2613 C   0  0  0  0  0  0  0  0  0  0  0  0
  -28.3846    0.6807   -6.5007 C   0  0  0  0  0  0  0  0  0  0  0  0
  -29.2331    0.4714   -5.4205 C   0  0  0  0  0  0  0  0  0  0  0  0
  -29.6708   -0.8214   -5.1156 C   0  0  0  0  0  0  0  0  0  0  0  0
  -29.2689   -1.9523   -5.8714 C   0  0  0  0  0  0  0  0  0  0  0  0
  -29.6876   -3.2925   -5.6306 C   0  0  0  0  0  0  0  0  0  0  0  0
  -26.9562   -3.4268   -9.2702 H   0  0  0  0  0  0  0  0  0  0  0  0
  -29.0043  -10.1885   -5.2893 C   0  0  0  0  0  0  0  0  0  0  0  0
  -27.9343   -9.6208   -4.3616 C   0  0  0  0  0  0  0  0  0  0  0  0
  -28.2342   -9.2352   -3.2313 O   0  0  0  0  0  0  0  0  0  0  0  0
  -26.6453   -9.4788   -4.8508 N   0  0  0  0  0  0  0  0  0  0  0  0
  -25.5831   -8.9597   -3.9689 C   0  0  0  0  0  0  0  0  0  0  0  0
  -24.7025  -10.1870   -3.6795 C   0  0  0  0  0  0  0  0  0  0  0  0
  -25.3607  -10.9909   -2.5443 C   0  0  0  0  0  0  0  0  0  0  0  0
  -24.7588  -10.7800   -5.0850 C   0  0  0  0  0  0  0  0  0  0  0  0
  -25.9762  -10.4001   -5.6897 C   0  0  0  0  0  0  0  0  0  0  0  0
  -26.2586  -10.6481   -7.0211 C   0  0  0  0  0  0  0  0  0  0  0  0
  -25.2491  -11.2239   -7.7831 C   0  0  0  0  0  0  0  0  0  0  0  0
  -25.4497  -11.4027   -9.1338 O   0  0  0  0  0  0  0  0  0  0  0  0
  -23.9732  -11.5421   -7.2426 C   0  0  0  0  0  0  0  0  0  0  0  0
  -22.9089  -11.9630   -8.0681 C   0  0  0  0  0  0  0  0  0  0  0  0
  -21.6378  -12.1950   -7.5561 C   0  0  0  0  0  0  0  0  0  0  0  0
  -21.4122  -12.0708   -6.1904 C   0  0  0  0  0  0  0  0  0  0  0  0
  -22.4495  -11.6566   -5.3414 C   0  0  0  0  0  0  0  0  0  0  0  0
  -23.7269  -11.3566   -5.8480 C   0  0  0  0  0  0  0  0  0  0  0  0
  -26.3590  -11.1448   -9.3550 H   0  0  0  0  0  0  0  0  0  0  0  0
  4  5  1  0  0  0
  4 19  1  0  0  0
  4  3  1  0  0  0
  5  6  1  0  0  0
  6  7  1  0  0  0
  6  9  1  0  0  0
  7  8  2  0  0  0
  7  2  1  0  0  0
  2  1  1  0  0  0
  1 21  1  0  0  0
 21 22  1  0  0  0
 22 23  2  0  0  0
 22 24  1  0  0  0
 24 25  1  0  0  0
 24 29  1  0  0  0
 25 26  1  0  0  0
 26 27  1  0  0  0
 26 28  1  0  0  0
 28 29  1  0  0  0
 28 38  2  0  0  0
 29 30  2  0  0  0
 30 31  1  0  0  0
 31 32  1  0  0  0
 31 33  2  0  0  0
 32 39  1  0  0  0
 33 34  1  0  0  0
 33 38  1  0  0  0
 34 35  2  0  0  0
 35 36  1  0  0  0
 36 37  2  0  0  0
 37 38  1  0  0  0
  9 10  1  0  0  0
  9 19  2  0  0  0
 10 11  2  0  0  0
 11 12  1  0  0  0
 11 13  1  0  0  0
 12 20  1  0  0  0
 13 14  1  0  0  0
 13 18  2  0  0  0
 14 15  2  0  0  0
 15 16  1  0  0  0
 16 17  2  0  0  0
 17 18  1  0  0  0
 18 19  1  0  0  0
M  END
> <minimizedAffinity>
-11.53965

$$$$
