CHEMBL1076471


 50 55  0  0  0  0  0  0  0  0999 V2000
  -24.2011   -1.5820  -11.3719 C   0  0  0  0  0  0  0  0  0  0  0  0
  -23.8406   -2.3661  -12.3830 N   0  0  0  0  0  0  0  0  0  0  0  0
  -24.8332   -2.1219  -13.2999 C   0  0  0  0  0  0  0  0  0  0  0  0
  -24.8199   -2.2641  -14.6944 C   0  0  0  0  0  0  0  0  0  0  0  0
  -25.9141   -1.7579  -15.4163 C   0  0  0  0  0  0  0  0  0  0  0  0
  -27.0206   -1.2085  -14.7620 C   0  0  0  0  0  0  0  0  0  0  0  0
  -27.0880   -1.1471  -13.3650 C   0  0  0  0  0  0  0  0  0  0  0  0
  -25.9545   -1.5937  -12.6765 C   0  0  0  0  0  0  0  0  0  0  0  0
  -25.5950   -1.6367  -11.3306 N   0  0  0  0  0  0  0  0  0  0  0  0
  -26.4174   -2.0342  -10.2435 C   0  0  0  0  0  0  0  0  0  0  0  0
  -26.8540   -1.0469   -9.3714 C   0  0  0  0  0  0  0  0  0  0  0  0
  -27.6538   -1.4288   -8.3181 C   0  0  0  0  0  0  0  0  0  0  0  0
  -27.9731   -2.7159   -8.1224 N   0  0  0  0  0  0  0  0  0  0  0  0
  -27.5250   -3.5962   -9.0344 C   0  0  0  0  0  0  0  0  0  0  0  0
  -26.7899   -3.3202  -10.1213 N   0  0  0  0  0  0  0  0  0  0  0  0
  -28.0389   -0.4364   -7.4125 N   0  0  0  0  0  0  0  0  0  0  0  0
  -29.0337   -0.2386   -7.4337 H   0  0  0  0  0  0  0  0  0  0  0  0
  -27.4366   -0.4441   -6.0886 C   0  0  0  0  0  0  0  0  0  0  0  0
  -28.5492   -0.2015   -5.0682 C   0  0  0  0  0  0  0  0  0  0  0  0
  -29.7991   -1.0278   -5.3479 C   0  0  0  0  0  0  0  0  0  0  0  0
  -29.7350   -2.4351   -4.7238 C   0  0  0  0  0  0  0  0  0  0  0  0
  -28.6332   -2.4600   -3.6370 C   0  0  0  0  0  0  0  0  0  0  0  0
  -28.4940   -3.7612   -3.0524 O   0  0  0  0  0  0  0  0  0  0  0  0
  -28.1761   -4.7210   -4.0685 C   0  0  0  0  0  0  0  0  0  0  0  0
  -29.2847   -4.7745   -5.1238 C   0  0  0  0  0  0  0  0  0  0  0  0
  -29.4913   -3.4638   -5.7608 N   0  0  0  0  0  0  0  0  0  0  0  0
  -30.3095   -3.5293   -6.3664 H   0  0  0  0  0  0  0  0  0  0  0  0
  -23.5174   -0.4183  -11.2011 N   0  0  0  0  0  0  0  0  0  0  0  0
  -24.0412    0.1645  -10.5432 H   0  0  0  0  0  0  0  0  0  0  0  0
  -25.2890    1.4912  -12.3827 C   0  0  0  0  0  0  0  0  0  0  0  0
  -23.8593    1.3191  -12.8306 C   0  0  0  0  0  0  0  0  0  0  0  0
  -23.4198    2.0080  -13.9621 C   0  0  0  0  0  0  0  0  0  0  0  0
  -22.1027    1.8787  -14.3981 C   0  0  0  0  0  0  0  0  0  0  0  0
  -21.1885    1.0788  -13.7070 C   0  0  0  0  0  0  0  0  0  0  0  0
  -21.6304    0.3709  -12.5786 C   0  0  0  0  0  0  0  0  0  0  0  0
  -22.9601    0.4708  -12.1437 C   0  0  0  0  0  0  0  0  0  0  0  0
  -19.8351    0.9232  -14.1079 N   0  0  0  0  0  0  0  0  0  0  0  0
  -18.9436    1.9401  -14.3874 C   0  0  0  0  0  0  0  0  0  0  0  0
  -19.1752    3.1450  -14.3750 O   0  0  0  0  0  0  0  0  0  0  0  0
  -19.5302   -0.0313  -14.2422 H   0  0  0  0  0  0  0  0  0  0  0  0
  -17.5580    1.5319  -14.7767 C   0  0  0  0  0  0  0  0  0  0  0  0
  -16.9106    2.0443  -15.9098 C   0  0  0  0  0  0  0  0  0  0  0  0
  -15.6434    1.5672  -16.2571 C   0  0  0  0  0  0  0  0  0  0  0  0
  -15.0167    0.5925  -15.4760 C   0  0  0  0  0  0  0  0  0  0  0  0
  -15.6450    0.0806  -14.3313 C   0  0  0  0  0  0  0  0  0  0  0  0
  -16.9245    0.5522  -14.0030 C   0  0  0  0  0  0  0  0  0  0  0  0
  -14.9658   -0.9426  -13.4535 C   0  0  0  0  0  0  0  0  0  0  0  0
  -13.6367   -0.7028  -13.2711 F   0  0  0  0  0  0  0  0  0  0  0  0
  -15.5071   -0.9919  -12.2049 F   0  0  0  0  0  0  0  0  0  0  0  0
  -15.0518   -2.2055  -13.9519 F   0  0  0  0  0  0  0  0  0  0  0  0
 30 31  1  0  0  0
 31 32  1  0  0  0
 31 36  2  0  0  0
 32 33  2  0  0  0
 33 34  1  0  0  0
 34 37  1  0  0  0
 34 35  2  0  0  0
 37 38  1  0  0  0
 37 40  1  0  0  0
 38 39  2  0  0  0
 38 41  1  0  0  0
 41 42  1  0  0  0
 41 46  2  0  0  0
 42 43  2  0  0  0
 43 44  1  0  0  0
 44 45  2  0  0  0
 45 47  1  0  0  0
 45 46  1  0  0  0
 47 48  1  0  0  0
 47 49  1  0  0  0
 47 50  1  0  0  0
 35 36  1  0  0  0
 36 28  1  0  0  0
 28  1  1  0  0  0
 28 29  1  0  0  0
  1  2  2  0  0  0
  1  9  1  0  0  0
  2  3  1  0  0  0
  3  4  1  0  0  0
  3  8  2  0  0  0
  4  5  2  0  0  0
  5  6  1  0  0  0
  6  7  2  0  0  0
  7  8  1  0  0  0
  8  9  1  0  0  0
  9 10  1  0  0  0
 10 11  1  0  0  0
 10 15  2  0  0  0
 11 12  2  0  0  0
 12 16  1  0  0  0
 12 13  1  0  0  0
 16 18  1  0  0  0
 16 17  1  0  0  0
 18 19  1  0  0  0
 19 20  1  0  0  0
 20 21  1  0  0  0
 21 22  1  0  0  0
 21 26  1  0  0  0
 22 23  1  0  0  0
 23 24  1  0  0  0
 24 25  1  0  0  0
 25 26  1  0  0  0
 26 27  1  0  0  0
 13 14  2  0  0  0
 14 15  1  0  0  0
M  END
> <minimizedAffinity>
-4.02457

$$$$
