CHEMBL4782982


 36 40  0  0  0  0  0  0  0  0999 V2000
  -12.9521   -1.7561  -14.6086 C   0  0  0  0  0  0  0  0  0  0  0  0
  -12.7619   -2.9925  -14.1558 N   0  0  0  0  0  0  0  0  0  0  0  0
  -12.6311   -3.9323  -15.1081 C   0  0  0  0  0  0  0  0  0  0  0  0
  -12.6869   -3.6666  -16.4603 C   0  0  0  0  0  0  0  0  0  0  0  0
  -12.7599   -2.3526  -16.8391 C   0  0  0  0  0  0  0  0  0  0  0  0
  -12.9270   -1.4068  -15.9060 N   0  0  0  0  0  0  0  0  0  0  0  0
  -15.1012    0.0835  -14.7056 N   0  0  0  0  0  0  0  0  0  0  0  0
  -14.1826    0.1820  -13.6995 C   0  0  0  0  0  0  0  0  0  0  0  0
  -14.1853    1.0306  -12.8047 O   0  0  0  0  0  0  0  0  0  0  0  0
  -13.2143   -0.7790  -13.6621 N   0  0  0  0  0  0  0  0  0  0  0  0
  -14.9790   -0.7290  -15.3060 H   0  0  0  0  0  0  0  0  0  0  0  0
  -12.6306   -0.7962  -12.8391 H   0  0  0  0  0  0  0  0  0  0  0  0
  -18.5051    2.4112  -15.5427 C   0  0  0  0  0  0  0  0  0  0  0  0
  -17.2449    2.8915  -15.9034 C   0  0  0  0  0  0  0  0  0  0  0  0
  -16.0959    2.1405  -15.6229 C   0  0  0  0  0  0  0  0  0  0  0  0
  -16.2005    0.9020  -14.9958 C   0  0  0  0  0  0  0  0  0  0  0  0
  -17.4652    0.4170  -14.6453 C   0  0  0  0  0  0  0  0  0  0  0  0
  -18.6085    1.1720  -14.9048 C   0  0  0  0  0  0  0  0  0  0  0  0
  -20.5875    3.0882  -14.6321 C   0  0  0  0  0  0  0  0  0  0  0  0
  -19.6931    3.0560  -15.7398 O   0  0  0  0  0  0  0  0  0  0  0  0
  -12.7156   -1.9567  -18.1535 N   0  0  0  0  0  0  0  0  0  0  0  0
  -13.3292   -2.7938  -19.1767 C   0  0  0  0  0  0  0  0  0  0  0  0
  -12.8816   -2.0968  -20.4539 C   0  0  0  0  0  0  0  0  0  0  0  0
  -12.9253   -0.6164  -20.0927 C   0  0  0  0  0  0  0  0  0  0  0  0
  -12.7281   -0.5621  -18.5759 C   0  0  0  0  0  0  0  0  0  0  0  0
  -12.2069   -5.5965  -14.5913 S   0  0  0  0  0  0  0  0  0  0  0  0
  -13.8251   -6.1154  -14.1562 C   0  0  0  0  0  0  0  0  0  0  0  0
  -14.6891   -6.7652  -15.0070 C   0  0  0  0  0  0  0  0  0  0  0  0
  -15.8489   -6.9555  -14.3079 N   0  0  0  0  0  0  0  0  0  0  0  0
  -15.8894   -6.0530  -13.2695 C   0  0  0  0  0  0  0  0  0  0  0  0
  -16.9669   -5.5169  -12.5587 C   0  0  0  0  0  0  0  0  0  0  0  0
  -16.6640   -4.6803  -11.4814 C   0  0  0  0  0  0  0  0  0  0  0  0
  -15.3458   -4.4949  -11.0665 C   0  0  0  0  0  0  0  0  0  0  0  0
  -14.2800   -5.0254  -11.8053 C   0  0  0  0  0  0  0  0  0  0  0  0
  -14.5601   -5.7268  -12.9955 C   0  0  0  0  0  0  0  0  0  0  0  0
  -16.5975   -7.5840  -14.5654 H   0  0  0  0  0  0  0  0  0  0  0  0
 19 20  1  0  0  0
 20 13  1  0  0  0
 13 14  1  0  0  0
 13 18  2  0  0  0
 14 15  2  0  0  0
 15 16  1  0  0  0
 16  7  1  0  0  0
 16 17  2  0  0  0
  7  8  1  0  0  0
  7 11  1  0  0  0
  8  9  2  0  0  0
  8 10  1  0  0  0
 10  1  1  0  0  0
 10 12  1  0  0  0
  1  2  1  0  0  0
  1  6  2  0  0  0
  2  3  2  0  0  0
  3 26  1  0  0  0
  3  4  1  0  0  0
 26 27  1  0  0  0
 27 28  2  0  0  0
 27 35  1  0  0  0
 28 29  1  0  0  0
 29 30  1  0  0  0
 29 36  1  0  0  0
 30 31  1  0  0  0
 30 35  2  0  0  0
 31 32  2  0  0  0
 32 33  1  0  0  0
 33 34  2  0  0  0
 34 35  1  0  0  0
  4  5  2  0  0  0
  5 21  1  0  0  0
  5  6  1  0  0  0
 21 22  1  0  0  0
 21 25  1  0  0  0
 22 23  1  0  0  0
 23 24  1  0  0  0
 24 25  1  0  0  0
 17 18  1  0  0  0
M  END
> <minimizedAffinity>
-8.43056

$$$$
