CHEMBL4543212


 25 28  0  0  0  0  0  0  0  0999 V2000
  -25.1718   -2.3702  -12.5754 C   0  0  0  0  0  0  0  0  0  0  0  0
  -24.1881   -1.2979  -12.9718 C   0  0  0  0  0  0  0  0  0  0  0  0
  -23.2023   -0.8618  -12.0756 C   0  0  0  0  0  0  0  0  0  0  0  0
  -22.2769    0.1139  -12.4588 C   0  0  0  0  0  0  0  0  0  0  0  0
  -22.3154    0.6709  -13.7435 C   0  0  0  0  0  0  0  0  0  0  0  0
  -23.2896    0.2239  -14.6435 C   0  0  0  0  0  0  0  0  0  0  0  0
  -24.2138   -0.7522  -14.2625 C   0  0  0  0  0  0  0  0  0  0  0  0
  -21.3535    1.6880  -14.1239 C   0  0  0  0  0  0  0  0  0  0  0  0
  -21.4773    3.0946  -14.1979 C   0  0  0  0  0  0  0  0  0  0  0  0
  -20.3602    3.6892  -14.6312 N   0  0  0  0  0  0  0  0  0  0  0  0
  -19.5197    2.6613  -14.8384 N   0  0  0  0  0  0  0  0  0  0  0  0
  -18.1901    2.9018  -15.3458 C   0  0  0  0  0  0  0  0  0  0  0  0
  -20.0638    1.4428  -14.5475 C   0  0  0  0  0  0  0  0  0  0  0  0
  -27.3874   -1.7299   -9.8413 C   0  0  0  0  0  0  0  0  0  0  0  0
  -26.1684   -2.2150  -10.2604 C   0  0  0  0  0  0  0  0  0  0  0  0
  -26.1330   -1.9091  -11.5886 N   0  0  0  0  0  0  0  0  0  0  0  0
  -27.2395   -1.2419  -11.9672 N   0  0  0  0  0  0  0  0  0  0  0  0
  -28.0219   -1.1316  -10.8999 N   0  0  0  0  0  0  0  0  0  0  0  0
  -29.5232   -2.4643   -4.5355 C   0  0  0  0  0  0  0  0  0  0  0  0
  -28.9872   -2.2579   -5.9210 C   0  0  0  0  0  0  0  0  0  0  0  0
  -28.3441   -1.0657   -6.2669 C   0  0  0  0  0  0  0  0  0  0  0  0
  -27.8356   -0.8840   -7.5549 C   0  0  0  0  0  0  0  0  0  0  0  0
  -27.9600   -1.8905   -8.5207 C   0  0  0  0  0  0  0  0  0  0  0  0
  -28.6191   -3.0767   -8.1790 C   0  0  0  0  0  0  0  0  0  0  0  0
  -29.1217   -3.2639   -6.8857 C   0  0  0  0  0  0  0  0  0  0  0  0
 19 20  1  0  0  0
 20 21  1  0  0  0
 20 25  2  0  0  0
 21 22  2  0  0  0
 22 23  1  0  0  0
 23 14  1  0  0  0
 23 24  2  0  0  0
 14 15  2  0  0  0
 14 18  1  0  0  0
 15 16  1  0  0  0
 16  1  1  0  0  0
 16 17  1  0  0  0
  1  2  1  0  0  0
  2  3  1  0  0  0
  2  7  2  0  0  0
  3  4  2  0  0  0
  4  5  1  0  0  0
  5  8  1  0  0  0
  5  6  2  0  0  0
  8  9  1  0  0  0
  8 13  2  0  0  0
  9 10  2  0  0  0
 10 11  1  0  0  0
 11 12  1  0  0  0
 11 13  1  0  0  0
  6  7  1  0  0  0
 17 18  2  0  0  0
 24 25  1  0  0  0
M  END
> <minimizedAffinity>
-9.64552

$$$$
