CHEMBL3943933


 39 43  0  0  0  0  0  0  0  0999 V2000
  -28.6036   -8.8975   -6.0518 N   0  0  0  0  0  0  0  0  0  0  0  0
  -28.7025   -7.5051   -5.6753 C   0  0  0  0  0  0  0  0  0  0  0  0
  -29.2095   -6.7191   -6.6668 C   0  0  0  0  0  0  0  0  0  0  0  0
  -29.2609   -5.4165   -6.3719 C   0  0  0  0  0  0  0  0  0  0  0  0
  -28.7755   -4.8041   -5.2408 C   0  0  0  0  0  0  0  0  0  0  0  0
  -28.2615   -3.7675   -5.7553 N   0  0  0  0  0  0  0  0  0  0  0  0
  -29.0920   -2.7963   -5.8897 C   0  0  0  0  0  0  0  0  0  0  0  0
  -29.1196   -2.1249   -4.7836 C   0  0  0  0  0  0  0  0  0  0  0  0
  -28.8391   -3.2758   -3.6419 N   0  0  0  0  0  0  0  0  0  0  0  0
  -28.6203   -4.9946   -3.9827 C   0  0  0  0  0  0  0  0  0  0  0  0
  -28.3862   -6.7463   -4.3066 C   0  0  0  0  0  0  0  0  0  0  0  0
  -29.3842   -0.4477   -5.4227 C   0  0  0  0  0  0  0  0  0  0  0  0
  -28.4548    0.6657   -6.1919 C   0  0  0  0  0  0  0  0  0  0  0  0
  -29.0850    1.7536   -6.7264 N   0  0  0  0  0  0  0  0  0  0  0  0
  -30.3856    1.5613   -6.4386 N   0  0  0  0  0  0  0  0  0  0  0  0
  -31.4237    2.5274   -6.9462 C   0  0  0  0  0  0  0  0  0  0  0  0
  -30.5384    0.3186   -5.6837 C   0  0  0  0  0  0  0  0  0  0  0  0
  -29.5180  -10.7675   -9.2712 C   0  0  0  0  0  0  0  0  0  0  0  0
  -30.7974  -11.1475   -9.0009 C   0  0  0  0  0  0  0  0  0  0  0  0
  -31.4115  -10.7504   -7.8233 C   0  0  0  0  0  0  0  0  0  0  0  0
  -30.7439   -9.9087   -6.9297 C   0  0  0  0  0  0  0  0  0  0  0  0
  -29.4019   -9.5447   -7.1053 C   0  0  0  0  0  0  0  0  0  0  0  0
  -28.8863   -9.9108   -8.3723 C   0  0  0  0  0  0  0  0  0  0  0  0
  -28.9374  -10.4197  -11.5323 C   0  0  0  0  0  0  0  0  0  0  0  0
  -28.7655  -11.1744  -10.3399 O   0  0  0  0  0  0  0  0  0  0  0  0
  -32.6646  -11.1559   -7.4626 O   0  0  0  0  0  0  0  0  0  0  0  0
  -32.7174  -11.7718   -6.1790 C   0  0  0  0  0  0  0  0  0  0  0  0
  -28.1724   -9.7685   -4.9036 C   0  0  0  0  0  0  0  0  0  0  0  0
  -27.5573  -11.0897   -5.3264 C   0  0  0  0  0  0  0  0  0  0  0  0
  -26.1296  -11.1255   -5.5348 C   0  0  0  0  0  0  0  0  0  0  0  0
  -25.3105  -12.1097   -4.8606 N   0  0  0  0  0  0  0  0  0  0  0  0
  -25.1167  -11.7514   -3.4351 C   0  0  0  0  0  0  0  0  0  0  0  0
  -24.2152  -10.5005   -3.2095 C   0  0  0  0  0  0  0  0  0  0  0  0
  -24.9118   -9.1549   -3.5283 C   0  0  0  0  0  0  0  0  0  0  0  0
  -22.8886  -10.6952   -3.8751 N   0  0  0  0  0  0  0  0  0  0  0  0
  -23.0273  -11.0243   -5.3213 C   0  0  0  0  0  0  0  0  0  0  0  0
  -23.4673   -9.8207   -6.1178 C   0  0  0  0  0  0  0  0  0  0  0  0
  -23.9817  -12.2439   -5.5063 C   0  0  0  0  0  0  0  0  0  0  0  0
  -22.4565  -11.5239   -3.4476 H   0  0  0  0  0  0  0  0  0  0  0  0
 24 25  1  0  0  0
 25 18  1  0  0  0
 18 19  1  0  0  0
 18 23  2  0  0  0
 19 20  2  0  0  0
 20 26  1  0  0  0
 20 21  1  0  0  0
 26 27  1  0  0  0
 21 22  2  0  0  0
 22  1  1  0  0  0
 22 23  1  0  0  0
  1 28  1  0  0  0
  1  2  1  0  0  0
 28 29  1  0  0  0
 29 30  1  0  0  0
 30 31  1  0  0  0
 31 32  1  0  0  0
 31 38  1  0  0  0
 32 33  1  0  0  0
 33 35  1  0  0  0
 33 34  1  0  0  0
 35 36  1  0  0  0
 35 39  1  0  0  0
 36 38  1  0  0  0
 36 37  1  0  0  0
  2  3  1  0  0  0
  2 11  2  0  0  0
  3  4  2  0  0  0
  4  5  1  0  0  0
  5  6  1  0  0  0
  5 10  2  0  0  0
  6  7  2  0  0  0
  7  8  1  0  0  0
  8 12  1  0  0  0
  8  9  2  0  0  0
 12 13  1  0  0  0
 12 17  2  0  0  0
 13 14  2  0  0  0
 14 15  1  0  0  0
 15 16  1  0  0  0
 15 17  1  0  0  0
  9 10  1  0  0  0
 10 11  1  0  0  0
M  END
> <minimizedAffinity>
-8.58154

$$$$
