CHEMBL370951


 28 30  0  0  0  0  0  0  0  0999 V2000
  -28.2221   -3.2561   -7.1583 C   0  0  0  0  0  0  0  0  0  0  0  0
  -27.8379   -2.1404   -6.4190 C   0  0  0  0  0  0  0  0  0  0  0  0
  -27.5526   -0.9406   -6.9765 N   0  0  0  0  0  0  0  0  0  0  0  0
  -27.6608   -0.9001   -8.3261 C   0  0  0  0  0  0  0  0  0  0  0  0
  -28.0082   -2.0008   -9.1134 C   0  0  0  0  0  0  0  0  0  0  0  0
  -28.2848   -3.1813   -8.5114 N   0  0  0  0  0  0  0  0  0  0  0  0
  -29.3963   -6.8584   -6.7347 C   0  0  0  0  0  0  0  0  0  0  0  0
  -29.3801   -6.9004   -5.3438 C   0  0  0  0  0  0  0  0  0  0  0  0
  -29.0131   -5.8628   -4.5575 N   0  0  0  0  0  0  0  0  0  0  0  0
  -28.6561   -4.7210   -5.1796 C   0  0  0  0  0  0  0  0  0  0  0  0
  -28.6128   -4.5441   -6.5625 C   0  0  0  0  0  0  0  0  0  0  0  0
  -28.9996   -5.6573   -7.3393 C   0  0  0  0  0  0  0  0  0  0  0  0
  -32.0563   -7.9976   -7.2137 O   0  0  0  0  0  0  0  0  0  0  0  0
  -31.0243   -8.4882   -7.6706 C   0  0  0  0  0  0  0  0  0  0  0  0
  -29.7499   -7.9598   -7.5519 N   0  0  0  0  0  0  0  0  0  0  0  0
  -29.0267   -8.3316   -8.1578 H   0  0  0  0  0  0  0  0  0  0  0  0
  -31.0998   -9.8100   -8.4352 C   0  0  0  0  0  0  0  0  0  0  0  0
  -32.4065  -10.0281   -8.9501 O   0  0  0  0  0  0  0  0  0  0  0  0
  -33.0203   -9.6084   -8.3098 H   0  0  0  0  0  0  0  0  0  0  0  0
  -28.0473   -1.8714  -10.5177 N   0  0  0  0  0  0  0  0  0  0  0  0
  -28.9006   -1.4539  -10.8648 H   0  0  0  0  0  0  0  0  0  0  0  0
  -26.9853   -1.8573  -11.4440 C   0  0  0  0  0  0  0  0  0  0  0  0
  -27.2809   -1.8367  -12.8164 C   0  0  0  0  0  0  0  0  0  0  0  0
  -26.2682   -1.7224  -13.7748 C   0  0  0  0  0  0  0  0  0  0  0  0
  -24.9372   -1.6331  -13.3746 C   0  0  0  0  0  0  0  0  0  0  0  0
  -24.6271   -1.6905  -12.0216 C   0  0  0  0  0  0  0  0  0  0  0  0
  -22.9887   -1.5656  -11.5056 Cl  0  0  0  0  0  0  0  0  0  0  0  0
  -25.6386   -1.8239  -11.0706 C   0  0  0  0  0  0  0  0  0  0  0  0
 13 14  2  0  0  0
 14 17  1  0  0  0
 14 15  1  0  0  0
 17 18  1  0  0  0
 18 19  1  0  0  0
 15  7  1  0  0  0
 15 16  1  0  0  0
  7  8  1  0  0  0
  7 12  2  0  0  0
  8  9  2  0  0  0
  9 10  1  0  0  0
 10 11  2  0  0  0
 11  1  1  0  0  0
 11 12  1  0  0  0
  1  2  1  0  0  0
  1  6  2  0  0  0
  2  3  2  0  0  0
  3  4  1  0  0  0
  4  5  2  0  0  0
  5 20  1  0  0  0
  5  6  1  0  0  0
 20 22  1  0  0  0
 20 21  1  0  0  0
 22 23  1  0  0  0
 22 28  2  0  0  0
 23 24  2  0  0  0
 24 25  1  0  0  0
 25 26  2  0  0  0
 26 27  1  0  0  0
 26 28  1  0  0  0
M  END
> <minimizedAffinity>
-8.83227

$$$$
