CHEMBL4648781


 45 50  0  0  0  0  0  0  0  0999 V2000
  -14.7852   -4.1917  -12.7842 C   0  0  0  0  0  0  0  0  0  0  0  0
  -15.9246   -3.4598  -13.1832 C   0  0  0  0  0  0  0  0  0  0  0  0
  -15.8123   -2.1244  -13.6257 C   0  0  0  0  0  0  0  0  0  0  0  0
  -14.5614   -1.5285  -13.6443 C   0  0  0  0  0  0  0  0  0  0  0  0
  -13.4453   -2.2860  -13.2611 C   0  0  0  0  0  0  0  0  0  0  0  0
  -13.5198   -3.6021  -12.8466 C   0  0  0  0  0  0  0  0  0  0  0  0
  -12.2899   -1.5115  -13.2818 N   0  0  0  0  0  0  0  0  0  0  0  0
  -12.5705   -0.2025  -13.6173 C   0  0  0  0  0  0  0  0  0  0  0  0
  -11.8199    0.7520  -13.5163 O   0  0  0  0  0  0  0  0  0  0  0  0
  -14.0388   -0.1836  -13.9735 C   0  0  0  0  0  0  0  0  0  0  0  0
  -14.6075    0.9375  -14.4790 C   0  0  0  0  0  0  0  0  0  0  0  0
  -11.3815   -1.8165  -12.9605 H   0  0  0  0  0  0  0  0  0  0  0  0
  -16.0819    1.0613  -14.5110 C   0  0  0  0  0  0  0  0  0  0  0  0
  -16.7565    1.2392  -13.2929 C   0  0  0  0  0  0  0  0  0  0  0  0
  -18.1401    1.4092  -13.2683 C   0  0  0  0  0  0  0  0  0  0  0  0
  -18.8581    1.4293  -14.4634 C   0  0  0  0  0  0  0  0  0  0  0  0
  -18.1988    1.2492  -15.6768 C   0  0  0  0  0  0  0  0  0  0  0  0
  -16.8211    1.0352  -15.6978 C   0  0  0  0  0  0  0  0  0  0  0  0
  -14.1802   -7.9043  -12.2853 C   0  0  0  0  0  0  0  0  0  0  0  0
  -14.1531   -6.5528  -12.8077 N   0  0  0  0  0  0  0  0  0  0  0  0
  -14.8754   -5.5604  -12.1913 C   0  0  0  0  0  0  0  0  0  0  0  0
  -15.5688   -5.7575  -11.1946 O   0  0  0  0  0  0  0  0  0  0  0  0
  -13.4627   -6.3072  -13.5125 H   0  0  0  0  0  0  0  0  0  0  0  0
  -13.9342    2.1203  -14.8464 N   0  0  0  0  0  0  0  0  0  0  0  0
  -13.0923    2.2121  -14.2664 H   0  0  0  0  0  0  0  0  0  0  0  0
  -13.4837    2.2906  -16.1995 C   0  0  0  0  0  0  0  0  0  0  0  0
  -14.3485    2.6352  -17.2376 C   0  0  0  0  0  0  0  0  0  0  0  0
  -13.9261    2.6883  -18.5684 C   0  0  0  0  0  0  0  0  0  0  0  0
  -12.5840    2.5150  -18.8969 C   0  0  0  0  0  0  0  0  0  0  0  0
  -11.6798    2.2955  -17.8504 C   0  0  0  0  0  0  0  0  0  0  0  0
  -12.1258    2.1805  -16.5180 C   0  0  0  0  0  0  0  0  0  0  0  0
  -12.1793    2.5237  -20.2761 N   0  0  0  0  0  0  0  0  0  0  0  0
  -12.0935    1.4072  -21.1280 C   0  0  0  0  0  0  0  0  0  0  0  0
  -12.5364    0.0107  -20.8329 C   0  0  0  0  0  0  0  0  0  0  0  0
  -11.5830    1.8192  -22.3445 C   0  0  0  0  0  0  0  0  0  0  0  0
  -11.3699    3.1991  -22.2794 C   0  0  0  0  0  0  0  0  0  0  0  0
  -11.7083    3.6278  -21.0072 C   0  0  0  0  0  0  0  0  0  0  0  0
  -11.4643    5.0152  -20.4808 C   0  0  0  0  0  0  0  0  0  0  0  0
  -12.6802    5.8227  -20.4288 N   0  0  0  0  0  0  0  0  0  0  0  0
  -13.0928    6.1774  -19.0622 C   0  0  0  0  0  0  0  0  0  0  0  0
  -14.4254    6.9615  -19.0783 C   0  0  0  0  0  0  0  0  0  0  0  0
  -14.4161    8.1897  -19.8992 N   0  0  0  0  0  0  0  0  0  0  0  0
  -13.6573    9.2560  -19.2508 C   0  0  0  0  0  0  0  0  0  0  0  0
  -13.8745    7.8715  -21.2381 C   0  0  0  0  0  0  0  0  0  0  0  0
  -12.5680    7.0375  -21.2507 C   0  0  0  0  0  0  0  0  0  0  0  0
 19 20  1  0  0  0
 20 21  1  0  0  0
 20 23  1  0  0  0
 21 22  2  0  0  0
 21  1  1  0  0  0
  1  2  1  0  0  0
  1  6  2  0  0  0
  2  3  2  0  0  0
  3  4  1  0  0  0
  4  5  2  0  0  0
  4 10  1  0  0  0
  5  6  1  0  0  0
  5  7  1  0  0  0
  7  8  1  0  0  0
  7 12  1  0  0  0
  8  9  2  0  0  0
  8 10  1  0  0  0
 10 11  2  0  0  0
 11 24  1  0  0  0
 11 13  1  0  0  0
 24 26  1  0  0  0
 24 25  1  0  0  0
 26 27  1  0  0  0
 26 31  2  0  0  0
 27 28  2  0  0  0
 28 29  1  0  0  0
 29 32  1  0  0  0
 29 30  2  0  0  0
 32 33  1  0  0  0
 32 37  1  0  0  0
 33 34  1  0  0  0
 33 35  2  0  0  0
 35 36  1  0  0  0
 36 37  2  0  0  0
 37 38  1  0  0  0
 38 39  1  0  0  0
 39 40  1  0  0  0
 39 45  1  0  0  0
 40 41  1  0  0  0
 41 42  1  0  0  0
 42 43  1  0  0  0
 42 44  1  0  0  0
 44 45  1  0  0  0
 30 31  1  0  0  0
 13 14  1  0  0  0
 13 18  2  0  0  0
 14 15  2  0  0  0
 15 16  1  0  0  0
 16 17  2  0  0  0
 17 18  1  0  0  0
M  END
> <minimizedAffinity>
-6.54369

$$$$
