CHEMBL507202


 20 22  0  0  0  0  0  0  0  0999 V2000
  -27.8653   -1.5478   -9.3276 C   0  0  0  0  0  0  0  0  0  0  0  0
  -27.3993   -1.5615   -8.0668 C   0  0  0  0  0  0  0  0  0  0  0  0
  -23.6237   -1.8948  -11.4350 N   0  0  0  0  0  0  0  0  0  0  0  0
  -24.9948   -1.7906  -11.5415 C   0  0  0  0  0  0  0  0  0  0  0  0
  -25.5032   -1.7737  -12.7752 N   0  0  0  0  0  0  0  0  0  0  0  0
  -26.8387   -1.6785  -12.8712 C   0  0  0  0  0  0  0  0  0  0  0  0
  -27.6667   -1.5906  -11.7816 C   0  0  0  0  0  0  0  0  0  0  0  0
  -27.0431   -1.5963  -10.5501 C   0  0  0  0  0  0  0  0  0  0  0  0
  -25.7051   -1.6796  -10.4120 N   0  0  0  0  0  0  0  0  0  0  0  0
  -23.1961   -1.5916  -12.2994 H   0  0  0  0  0  0  0  0  0  0  0  0
  -23.3056   -1.4653  -10.5795 H   0  0  0  0  0  0  0  0  0  0  0  0
  -28.2905   -1.6161   -6.9577 C   0  0  0  0  0  0  0  0  0  0  0  0
  -28.8497   -0.6887   -6.0681 C   0  0  0  0  0  0  0  0  0  0  0  0
  -28.6255    1.0051   -6.0519 Cl  0  0  0  0  0  0  0  0  0  0  0  0
  -29.6982   -1.2812   -5.1542 N   0  0  0  0  0  0  0  0  0  0  0  0
  -29.6718   -2.5335   -5.4991 C   0  0  0  0  0  0  0  0  0  0  0  0
  -30.4601   -3.9616   -4.9054 S   0  0  0  0  0  0  0  0  0  0  0  0
  -29.6346   -4.8922   -6.1624 C   0  0  0  0  0  0  0  0  0  0  0  0
  -28.8382   -4.1359   -6.9398 C   0  0  0  0  0  0  0  0  0  0  0  0
  -28.8653   -2.8064   -6.5651 N   0  0  0  0  0  0  0  0  0  0  0  0
  3  4  1  0  0  0
  3 10  1  0  0  0
  3 11  1  0  0  0
  4  5  1  0  0  0
  4  9  2  0  0  0
  5  6  2  0  0  0
  6  7  1  0  0  0
  7  8  2  0  0  0
  8  1  1  0  0  0
  8  9  1  0  0  0
  1  2  2  0  0  0
  2 12  1  0  0  0
 12 13  2  0  0  0
 12 20  1  0  0  0
 13 14  1  0  0  0
 13 15  1  0  0  0
 15 16  2  0  0  0
 16 17  1  0  0  0
 16 20  1  0  0  0
 17 18  1  0  0  0
 18 19  2  0  0  0
 19 20  1  0  0  0
M  END
> <minimizedAffinity>
-7.38017

$$$$
