CHEMBL3690559


 37 40  0  0  0  0  0  0  0  0999 V2000
  -30.1034   -7.6753   -6.9145 C   0  0  0  0  0  0  0  0  0  0  0  0
  -29.0686   -6.7438   -7.3766 C   0  0  0  0  0  0  0  0  0  0  0  0
  -28.9012   -5.5661   -6.7627 C   0  0  0  0  0  0  0  0  0  0  0  0
  -29.7554   -5.2020   -5.7263 N   0  0  0  0  0  0  0  0  0  0  0  0
  -29.8500   -4.0189   -5.0095 C   0  0  0  0  0  0  0  0  0  0  0  0
  -30.7988   -4.2987   -4.0358 C   0  0  0  0  0  0  0  0  0  0  0  0
  -31.3468   -5.5444   -4.1886 N   0  0  0  0  0  0  0  0  0  0  0  0
  -30.7372   -6.0579   -5.2339 C   0  0  0  0  0  0  0  0  0  0  0  0
  -30.9066   -7.3151   -5.8834 C   0  0  0  0  0  0  0  0  0  0  0  0
  -29.8065  -10.5556   -9.3177 C   0  0  0  0  0  0  0  0  0  0  0  0
  -30.7772  -11.4046   -8.7960 C   0  0  0  0  0  0  0  0  0  0  0  0
  -31.4299  -10.9957   -7.6472 C   0  0  0  0  0  0  0  0  0  0  0  0
  -31.1841   -9.8287   -7.0301 N   0  0  0  0  0  0  0  0  0  0  0  0
  -30.2271   -9.0127   -7.5461 C   0  0  0  0  0  0  0  0  0  0  0  0
  -29.5118   -9.3503   -8.6821 C   0  0  0  0  0  0  0  0  0  0  0  0
  -29.2211  -10.0289  -11.6144 N   0  0  0  0  0  0  0  0  0  0  0  0
  -29.0635  -10.8774  -10.5560 C   0  0  0  0  0  0  0  0  0  0  0  0
  -28.3007  -11.8321  -10.6122 O   0  0  0  0  0  0  0  0  0  0  0  0
  -28.6084  -10.1921  -12.4038 H   0  0  0  0  0  0  0  0  0  0  0  0
  -29.6071   -9.1017  -11.5102 H   0  0  0  0  0  0  0  0  0  0  0  0
  -29.1027   -2.7819   -5.2677 C   0  0  0  0  0  0  0  0  0  0  0  0
  -28.6588   -2.0135   -4.1860 C   0  0  0  0  0  0  0  0  0  0  0  0
  -28.0153   -0.7998   -4.4044 C   0  0  0  0  0  0  0  0  0  0  0  0
  -27.7473   -0.3736   -5.7026 C   0  0  0  0  0  0  0  0  0  0  0  0
  -28.1003   -1.1569   -6.8036 C   0  0  0  0  0  0  0  0  0  0  0  0
  -28.8456   -2.3210   -6.5766 C   0  0  0  0  0  0  0  0  0  0  0  0
  -27.7198   -0.8253   -8.1257 N   0  0  0  0  0  0  0  0  0  0  0  0
  -27.2987   -1.7451   -9.0646 C   0  0  0  0  0  0  0  0  0  0  0  0
  -27.2277   -2.9549   -8.9118 O   0  0  0  0  0  0  0  0  0  0  0  0
  -26.9002   -1.1746  -10.2510 N   0  0  0  0  0  0  0  0  0  0  0  0
  -27.9550    0.0992   -8.4597 H   0  0  0  0  0  0  0  0  0  0  0  0
  -27.3171   -0.2971  -10.5219 H   0  0  0  0  0  0  0  0  0  0  0  0
  -26.4319   -2.0731  -11.3175 C   0  0  0  0  0  0  0  0  0  0  0  0
  -25.7993   -1.4034  -12.5469 C   0  0  0  0  0  0  0  0  0  0  0  0
  -24.7301   -2.0890  -13.0119 F   0  0  0  0  0  0  0  0  0  0  0  0
  -26.7032   -1.3571  -13.5588 F   0  0  0  0  0  0  0  0  0  0  0  0
  -25.4125   -0.1345  -12.3006 F   0  0  0  0  0  0  0  0  0  0  0  0
 16 17  1  0  0  0
 16 19  1  0  0  0
 16 20  1  0  0  0
 17 18  2  0  0  0
 17 10  1  0  0  0
 10 11  1  0  0  0
 10 15  2  0  0  0
 11 12  2  0  0  0
 12 13  1  0  0  0
 13 14  2  0  0  0
 14  1  1  0  0  0
 14 15  1  0  0  0
  1  2  1  0  0  0
  1  9  2  0  0  0
  2  3  2  0  0  0
  3  4  1  0  0  0
  4  5  1  0  0  0
  4  8  1  0  0  0
  5 21  1  0  0  0
  5  6  2  0  0  0
 21 22  1  0  0  0
 21 26  2  0  0  0
 22 23  2  0  0  0
 23 24  1  0  0  0
 24 25  2  0  0  0
 25 27  1  0  0  0
 25 26  1  0  0  0
 27 28  1  0  0  0
 27 31  1  0  0  0
 28 29  2  0  0  0
 28 30  1  0  0  0
 30 33  1  0  0  0
 30 32  1  0  0  0
 33 34  1  0  0  0
 34 35  1  0  0  0
 34 36  1  0  0  0
 34 37  1  0  0  0
  6  7  1  0  0  0
  7  8  2  0  0  0
  8  9  1  0  0  0
M  END
> <minimizedAffinity>
-10.23480

$$$$
