CHEMBL260531


 36 39  0  0  0  0  0  0  0  0999 V2000
  -26.8639   -1.6371  -12.0886 C   0  0  0  0  0  0  0  0  0  0  0  0
  -27.7187   -2.0285  -13.1342 C   0  0  0  0  0  0  0  0  0  0  0  0
  -27.2690   -2.0302  -14.4498 C   0  0  0  0  0  0  0  0  0  0  0  0
  -25.9657   -1.6318  -14.7371 C   0  0  0  0  0  0  0  0  0  0  0  0
  -25.0858   -1.2297  -13.7196 C   0  0  0  0  0  0  0  0  0  0  0  0
  -23.7760   -0.8233  -14.0482 C   0  0  0  0  0  0  0  0  0  0  0  0
  -22.8782   -0.4089  -13.0648 C   0  0  0  0  0  0  0  0  0  0  0  0
  -23.2700   -0.4525  -11.7304 C   0  0  0  0  0  0  0  0  0  0  0  0
  -24.5736   -0.8344  -11.3921 C   0  0  0  0  0  0  0  0  0  0  0  0
  -25.5226   -1.2288  -12.3672 C   0  0  0  0  0  0  0  0  0  0  0  0
  -27.1606   -2.6959   -9.8980 N   0  0  0  0  0  0  0  0  0  0  0  0
  -27.4378   -1.6044  -10.7033 C   0  0  0  0  0  0  0  0  0  0  0  0
  -28.1248   -0.6655  -10.3178 O   0  0  0  0  0  0  0  0  0  0  0  0
  -26.3722   -3.2881  -10.1328 H   0  0  0  0  0  0  0  0  0  0  0  0
  -27.5699   -2.6927   -8.5026 C   0  0  0  0  0  0  0  0  0  0  0  0
  -28.7641   -3.6102   -8.2479 C   0  0  0  0  0  0  0  0  0  0  0  0
  -28.6720   -2.1898   -6.3651 C   0  0  0  0  0  0  0  0  0  0  0  0
  -29.3755   -3.2470   -7.0049 O   0  0  0  0  0  0  0  0  0  0  0  0
  -21.6209   -0.0214  -13.4871 O   0  0  0  0  0  0  0  0  0  0  0  0
  -21.4472    1.2514  -14.0055 C   0  0  0  0  0  0  0  0  0  0  0  0
  -22.5085    2.1533  -14.0966 C   0  0  0  0  0  0  0  0  0  0  0  0
  -22.2435    3.4229  -14.5601 C   0  0  0  0  0  0  0  0  0  0  0  0
  -21.0313    3.8193  -14.9824 N   0  0  0  0  0  0  0  0  0  0  0  0
  -20.0276    2.9315  -14.9548 C   0  0  0  0  0  0  0  0  0  0  0  0
  -18.7954    3.3670  -15.4059 C   0  0  0  0  0  0  0  0  0  0  0  0
  -17.6471    2.5581  -15.4049 C   0  0  0  0  0  0  0  0  0  0  0  0
  -17.7711    1.2260  -14.9807 C   0  0  0  0  0  0  0  0  0  0  0  0
  -19.0269    0.7685  -14.5285 C   0  0  0  0  0  0  0  0  0  0  0  0
  -20.1653    1.6136  -14.4869 C   0  0  0  0  0  0  0  0  0  0  0  0
  -16.6575    0.2143  -14.9443 C   0  0  0  0  0  0  0  0  0  0  0  0
  -15.6075    0.3497  -15.8064 N   0  0  0  0  0  0  0  0  0  0  0  0
  -16.6727   -0.7228  -14.1582 O   0  0  0  0  0  0  0  0  0  0  0  0
  -15.5653    1.0916  -16.4905 H   0  0  0  0  0  0  0  0  0  0  0  0
  -14.8730   -0.3422  -15.7737 H   0  0  0  0  0  0  0  0  0  0  0  0
  -16.4288    3.0390  -15.8291 O   0  0  0  0  0  0  0  0  0  0  0  0
  -16.3519    4.4562  -16.0273 C   0  0  0  0  0  0  0  0  0  0  0  0
 17 18  1  0  0  0
 18 16  1  0  0  0
 16 15  1  0  0  0
 15 11  1  0  0  0
 11 12  1  0  0  0
 11 14  1  0  0  0
 12 13  2  0  0  0
 12  1  1  0  0  0
  1  2  1  0  0  0
  1 10  2  0  0  0
  2  3  2  0  0  0
  3  4  1  0  0  0
  4  5  2  0  0  0
  5  6  1  0  0  0
  5 10  1  0  0  0
  6  7  2  0  0  0
  7 19  1  0  0  0
  7  8  1  0  0  0
 19 20  1  0  0  0
 20 21  1  0  0  0
 20 29  2  0  0  0
 21 22  2  0  0  0
 22 23  1  0  0  0
 23 24  2  0  0  0
 24 25  1  0  0  0
 24 29  1  0  0  0
 25 26  2  0  0  0
 26 35  1  0  0  0
 26 27  1  0  0  0
 35 36  1  0  0  0
 27 30  1  0  0  0
 27 28  2  0  0  0
 30 31  1  0  0  0
 30 32  2  0  0  0
 31 33  1  0  0  0
 31 34  1  0  0  0
 28 29  1  0  0  0
  8  9  2  0  0  0
  9 10  1  0  0  0
M  END
> <minimizedAffinity>
-9.74002

$$$$
