CHEMBL3741311


 40 44  0  0  0  0  0  0  0  0999 V2000
  -15.2635    0.3187  -12.7495 O   0  0  0  0  0  0  0  0  0  0  0  0
  -15.5021   -1.0000  -12.4553 C   0  0  0  0  0  0  0  0  0  0  0  0
  -15.9543   -1.3000  -11.1726 C   0  0  0  0  0  0  0  0  0  0  0  0
  -16.0427   -2.6363  -10.7748 C   0  0  0  0  0  0  0  0  0  0  0  0
  -15.7875   -3.6727  -11.6950 C   0  0  0  0  0  0  0  0  0  0  0  0
  -15.9069   -5.0390  -11.3995 C   0  0  0  0  0  0  0  0  0  0  0  0
  -17.0330   -5.5581  -12.0011 C   0  0  0  0  0  0  0  0  0  0  0  0
  -17.2049   -5.2431  -13.3467 C   0  0  0  0  0  0  0  0  0  0  0  0
  -16.4400   -4.2094  -13.9148 C   0  0  0  0  0  0  0  0  0  0  0  0
  -15.8025   -3.3111  -13.0473 C   0  0  0  0  0  0  0  0  0  0  0  0
  -15.4613   -2.0038  -13.4242 C   0  0  0  0  0  0  0  0  0  0  0  0
  -14.6298   -5.8710  -11.8098 C   0  0  0  0  0  0  0  0  0  0  0  0
  -13.5460   -5.3118  -11.9468 O   0  0  0  0  0  0  0  0  0  0  0  0
  -14.8582   -7.2325  -12.0491 N   0  0  0  0  0  0  0  0  0  0  0  0
  -15.8019   -7.5643  -11.9221 H   0  0  0  0  0  0  0  0  0  0  0  0
  -13.9786   -8.1988  -12.5992 C   0  0  0  0  0  0  0  0  0  0  0  0
  -13.1781   -9.0559  -11.8492 C   0  0  0  0  0  0  0  0  0  0  0  0
  -12.3585   -9.9622  -12.5192 C   0  0  0  0  0  0  0  0  0  0  0  0
  -12.2718  -10.0591  -13.8628 N   0  0  0  0  0  0  0  0  0  0  0  0
  -13.0472   -9.2180  -14.5713 C   0  0  0  0  0  0  0  0  0  0  0  0
  -13.9071   -8.2925  -13.9968 C   0  0  0  0  0  0  0  0  0  0  0  0
  -17.4763    2.2135  -14.7106 C   0  0  0  0  0  0  0  0  0  0  0  0
  -17.1020    2.0092  -15.9826 N   0  0  0  0  0  0  0  0  0  0  0  0
  -16.0341    1.2176  -16.1844 C   0  0  0  0  0  0  0  0  0  0  0  0
  -15.3408    0.6153  -15.1659 C   0  0  0  0  0  0  0  0  0  0  0  0
  -15.8252    0.8432  -13.8941 C   0  0  0  0  0  0  0  0  0  0  0  0
  -16.8645    1.6605  -13.6528 N   0  0  0  0  0  0  0  0  0  0  0  0
  -18.5796    3.0517  -14.5224 N   0  0  0  0  0  0  0  0  0  0  0  0
  -18.3170    3.7146  -13.8011 H   0  0  0  0  0  0  0  0  0  0  0  0
  -21.6109    0.8840  -14.1436 C   0  0  0  0  0  0  0  0  0  0  0  0
  -22.6020    1.8715  -14.0866 C   0  0  0  0  0  0  0  0  0  0  0  0
  -22.2599    3.2225  -14.1607 C   0  0  0  0  0  0  0  0  0  0  0  0
  -20.9248    3.6013  -14.3048 C   0  0  0  0  0  0  0  0  0  0  0  0
  -19.9201    2.6362  -14.4121 C   0  0  0  0  0  0  0  0  0  0  0  0
  -20.2745    1.2845  -14.2973 C   0  0  0  0  0  0  0  0  0  0  0  0
  -21.9553   -0.5747  -14.0081 C   0  0  0  0  0  0  0  0  0  0  0  0
  -23.4550   -2.4275  -12.4573 C   0  0  0  0  0  0  0  0  0  0  0  0
  -23.5496   -0.8286  -13.2275 S   0  0  0  0  0  0  0  0  0  0  0  0
  -24.5701   -0.8813  -14.2492 O   0  0  0  0  0  0  0  0  0  0  0  0
  -23.6516    0.1539  -12.1576 O   0  0  0  0  0  0  0  0  0  0  0  0
 37 38  1  0  0  0
 38 39  2  0  0  0
 38 40  2  0  0  0
 38 36  1  0  0  0
 36 30  1  0  0  0
 30 31  1  0  0  0
 30 35  2  0  0  0
 31 32  2  0  0  0
 32 33  1  0  0  0
 33 34  2  0  0  0
 34 28  1  0  0  0
 34 35  1  0  0  0
 28 22  1  0  0  0
 28 29  1  0  0  0
 22 23  1  0  0  0
 22 27  2  0  0  0
 23 24  2  0  0  0
 24 25  1  0  0  0
 25 26  2  0  0  0
 26  1  1  0  0  0
 26 27  1  0  0  0
  1  2  1  0  0  0
  2  3  1  0  0  0
  2 11  2  0  0  0
  3  4  2  0  0  0
  4  5  1  0  0  0
  5  6  1  0  0  0
  5 10  2  0  0  0
  6 12  1  0  0  0
  6  7  2  0  0  0
 12 13  2  0  0  0
 12 14  1  0  0  0
 14 16  1  0  0  0
 14 15  1  0  0  0
 16 17  1  0  0  0
 16 21  2  0  0  0
 17 18  2  0  0  0
 18 19  1  0  0  0
 19 20  2  0  0  0
 20 21  1  0  0  0
  7  8  1  0  0  0
  8  9  2  0  0  0
  9 10  1  0  0  0
 10 11  1  0  0  0
M  END
> <minimizedAffinity>
-10.21092

$$$$
