CHEMBL524322


 25 28  0  0  0  0  0  0  0  0999 V2000
  -15.6982    1.0108  -14.2693 C   0  0  0  0  0  0  0  0  0  0  0  0
  -16.5858    1.8401  -14.9600 C   0  0  0  0  0  0  0  0  0  0  0  0
  -15.9055    2.7156  -15.7993 N   0  0  0  0  0  0  0  0  0  0  0  0
  -14.6523    2.4427  -15.5837 C   0  0  0  0  0  0  0  0  0  0  0  0
  -14.4759    1.4389  -14.6889 N   0  0  0  0  0  0  0  0  0  0  0  0
  -13.1132    1.0798  -14.3670 C   0  0  0  0  0  0  0  0  0  0  0  0
  -12.2366    1.6529  -15.4855 C   0  0  0  0  0  0  0  0  0  0  0  0
  -13.1789    3.0445  -16.2274 S   0  0  0  0  0  0  0  0  0  0  0  0
  -18.0386    1.8192  -14.8803 C   0  0  0  0  0  0  0  0  0  0  0  0
  -18.7851    0.6736  -15.1903 C   0  0  0  0  0  0  0  0  0  0  0  0
  -20.1793    0.6882  -15.1212 C   0  0  0  0  0  0  0  0  0  0  0  0
  -20.8448    1.8461  -14.7263 C   0  0  0  0  0  0  0  0  0  0  0  0
  -20.1168    2.9854  -14.3918 C   0  0  0  0  0  0  0  0  0  0  0  0
  -18.7214    2.9714  -14.4642 C   0  0  0  0  0  0  0  0  0  0  0  0
  -15.5862   -1.3005  -13.6485 C   0  0  0  0  0  0  0  0  0  0  0  0
  -15.8089   -0.0217  -13.3125 C   0  0  0  0  0  0  0  0  0  0  0  0
  -15.1766   -3.0081   -9.2585 N   0  0  0  0  0  0  0  0  0  0  0  0
  -15.5237   -3.2248  -10.5729 C   0  0  0  0  0  0  0  0  0  0  0  0
  -16.0221   -4.4212  -10.8912 N   0  0  0  0  0  0  0  0  0  0  0  0
  -16.4251   -4.5825  -12.1640 C   0  0  0  0  0  0  0  0  0  0  0  0
  -16.3278   -3.6015  -13.1209 C   0  0  0  0  0  0  0  0  0  0  0  0
  -15.7565   -2.4196  -12.7053 C   0  0  0  0  0  0  0  0  0  0  0  0
  -15.3405   -2.2229  -11.4359 N   0  0  0  0  0  0  0  0  0  0  0  0
  -14.9997   -3.8764   -8.7758 H   0  0  0  0  0  0  0  0  0  0  0  0
  -14.5103   -2.2569   -9.1665 H   0  0  0  0  0  0  0  0  0  0  0  0
 17 18  1  0  0  0
 17 24  1  0  0  0
 17 25  1  0  0  0
 18 19  1  0  0  0
 18 23  2  0  0  0
 19 20  2  0  0  0
 20 21  1  0  0  0
 21 22  2  0  0  0
 22 15  1  0  0  0
 22 23  1  0  0  0
 15 16  2  0  0  0
 16  1  1  0  0  0
  1  2  2  0  0  0
  1  5  1  0  0  0
  2  9  1  0  0  0
  2  3  1  0  0  0
  9 10  1  0  0  0
  9 14  2  0  0  0
 10 11  2  0  0  0
 11 12  1  0  0  0
 12 13  2  0  0  0
 13 14  1  0  0  0
  3  4  2  0  0  0
  4  5  1  0  0  0
  4  8  1  0  0  0
  5  6  1  0  0  0
  6  7  1  0  0  0
  7  8  1  0  0  0
M  END
> <minimizedAffinity>
-8.79475

$$$$
