CHEMBL3297893


 23 25  0  0  0  0  0  0  0  0999 V2000
  -28.0293   -2.2614  -10.0971 N   0  0  0  0  0  0  0  0  0  0  0  0
  -28.9202   -2.4429  -10.5354 H   0  0  0  0  0  0  0  0  0  0  0  0
  -27.9092    0.5287   -6.1781 C   0  0  0  0  0  0  0  0  0  0  0  0
  -28.0509   -0.8502   -6.7471 C   0  0  0  0  0  0  0  0  0  0  0  0
  -27.9519   -0.9549   -8.0870 N   0  0  0  0  0  0  0  0  0  0  0  0
  -28.0806   -2.1568   -8.7002 C   0  0  0  0  0  0  0  0  0  0  0  0
  -28.3142   -3.2675   -7.8832 C   0  0  0  0  0  0  0  0  0  0  0  0
  -28.5061   -4.6635   -8.0610 C   0  0  0  0  0  0  0  0  0  0  0  0
  -28.6875   -5.1915   -6.8016 C   0  0  0  0  0  0  0  0  0  0  0  0
  -28.9273   -6.5601   -6.3039 C   0  0  0  0  0  0  0  0  0  0  0  0
  -28.6191   -4.2062   -5.8627 O   0  0  0  0  0  0  0  0  0  0  0  0
  -28.3892   -3.0315   -6.5193 C   0  0  0  0  0  0  0  0  0  0  0  0
  -28.2679   -1.8564   -5.8898 N   0  0  0  0  0  0  0  0  0  0  0  0
  -26.9769   -1.9412  -10.9688 C   0  0  0  0  0  0  0  0  0  0  0  0
  -25.7111   -1.5609  -10.5093 C   0  0  0  0  0  0  0  0  0  0  0  0
  -24.7127   -1.1413  -11.3910 C   0  0  0  0  0  0  0  0  0  0  0  0
  -24.9599   -1.0897  -12.7671 C   0  0  0  0  0  0  0  0  0  0  0  0
  -26.2198   -1.4889  -13.2387 C   0  0  0  0  0  0  0  0  0  0  0  0
  -27.2145   -1.9100  -12.3485 C   0  0  0  0  0  0  0  0  0  0  0  0
  -23.9076   -0.5978  -13.7248 C   0  0  0  0  0  0  0  0  0  0  0  0
  -22.7333   -1.2847  -13.6481 F   0  0  0  0  0  0  0  0  0  0  0  0
  -24.3063   -0.6855  -15.0242 F   0  0  0  0  0  0  0  0  0  0  0  0
  -23.5870    0.7102  -13.5199 F   0  0  0  0  0  0  0  0  0  0  0  0
  3  4  1  0  0  0
  4  5  1  0  0  0
  4 13  2  0  0  0
  5  6  2  0  0  0
  6  1  1  0  0  0
  6  7  1  0  0  0
  1 14  1  0  0  0
  1  2  1  0  0  0
 14 15  1  0  0  0
 14 19  2  0  0  0
 15 16  2  0  0  0
 16 17  1  0  0  0
 17 20  1  0  0  0
 17 18  2  0  0  0
 20 21  1  0  0  0
 20 22  1  0  0  0
 20 23  1  0  0  0
 18 19  1  0  0  0
  7  8  1  0  0  0
  7 12  2  0  0  0
  8  9  2  0  0  0
  9 10  1  0  0  0
  9 11  1  0  0  0
 11 12  1  0  0  0
 12 13  1  0  0  0
M  END
> <minimizedAffinity>
-8.91703

$$$$
