CHEMBL3656051


 34 37  0  0  0  0  0  0  0  0999 V2000
  -28.3675   -3.1323   -4.1276 O   0  0  0  0  0  0  0  0  0  0  0  0
  -28.4469   -2.0091   -4.9353 C   0  0  0  0  0  0  0  0  0  0  0  0
  -29.0649   -0.8241   -4.5257 C   0  0  0  0  0  0  0  0  0  0  0  0
  -29.2281    0.2165   -5.4328 C   0  0  0  0  0  0  0  0  0  0  0  0
  -28.6813    0.1226   -6.7104 C   0  0  0  0  0  0  0  0  0  0  0  0
  -28.9957    1.1017   -7.5666 F   0  0  0  0  0  0  0  0  0  0  0  0
  -27.9148   -0.9857   -7.0961 C   0  0  0  0  0  0  0  0  0  0  0  0
  -27.8400   -2.0738   -6.2029 C   0  0  0  0  0  0  0  0  0  0  0  0
  -27.2169   -1.0862   -8.3283 N   0  0  0  0  0  0  0  0  0  0  0  0
  -27.5416   -1.8948   -9.4151 C   0  0  0  0  0  0  0  0  0  0  0  0
  -28.5125   -2.6408   -9.4792 O   0  0  0  0  0  0  0  0  0  0  0  0
  -26.4873   -0.4070   -8.5153 H   0  0  0  0  0  0  0  0  0  0  0  0
  -26.6497   -1.7242  -10.5566 C   0  0  0  0  0  0  0  0  0  0  0  0
  -25.3149   -1.4950  -10.3332 O   0  0  0  0  0  0  0  0  0  0  0  0
  -24.7242   -1.3411  -11.5450 C   0  0  0  0  0  0  0  0  0  0  0  0
  -25.6476   -1.4670  -12.5528 C   0  0  0  0  0  0  0  0  0  0  0  0
  -26.8997   -1.7194  -11.9262 C   0  0  0  0  0  0  0  0  0  0  0  0
  -28.2039   -1.9197  -12.6117 C   0  0  0  0  0  0  0  0  0  0  0  0
  -30.4247   -6.1168   -4.8286 C   0  0  0  0  0  0  0  0  0  0  0  0
  -29.3021   -5.3002   -4.7674 C   0  0  0  0  0  0  0  0  0  0  0  0
  -29.4004   -4.0536   -4.1572 C   0  0  0  0  0  0  0  0  0  0  0  0
  -30.5852   -3.7179   -3.5148 C   0  0  0  0  0  0  0  0  0  0  0  0
  -31.6434   -4.6166   -3.5832 C   0  0  0  0  0  0  0  0  0  0  0  0
  -31.6009   -5.7991   -4.2445 N   0  0  0  0  0  0  0  0  0  0  0  0
  -30.7683   -9.0434   -7.1064 C   0  0  0  0  0  0  0  0  0  0  0  0
  -29.8939   -9.4899   -6.1315 C   0  0  0  0  0  0  0  0  0  0  0  0
  -29.6803   -8.4682   -5.2351 N   0  0  0  0  0  0  0  0  0  0  0  0
  -30.4034   -7.3548   -5.6024 C   0  0  0  0  0  0  0  0  0  0  0  0
  -31.0761   -7.6981   -6.7622 C   0  0  0  0  0  0  0  0  0  0  0  0
  -29.0954   -8.5064   -4.4089 H   0  0  0  0  0  0  0  0  0  0  0  0
  -31.3020   -9.7559   -8.2608 C   0  0  0  0  0  0  0  0  0  0  0  0
  -32.4847   -9.6999   -8.5775 O   0  0  0  0  0  0  0  0  0  0  0  0
  -29.5193   -9.6930   -9.7603 C   0  0  0  0  0  0  0  0  0  0  0  0
  -30.3630  -10.4885   -8.9275 O   0  0  0  0  0  0  0  0  0  0  0  0
 33 34  1  0  0  0
 34 31  1  0  0  0
 31 32  2  0  0  0
 31 25  1  0  0  0
 25 26  2  0  0  0
 25 29  1  0  0  0
 26 27  1  0  0  0
 27 28  1  0  0  0
 27 30  1  0  0  0
 28 19  1  0  0  0
 28 29  2  0  0  0
 19 20  1  0  0  0
 19 24  2  0  0  0
 20 21  2  0  0  0
 21  1  1  0  0  0
 21 22  1  0  0  0
  1  2  1  0  0  0
  2  3  1  0  0  0
  2  8  2  0  0  0
  3  4  2  0  0  0
  4  5  1  0  0  0
  5  6  1  0  0  0
  5  7  2  0  0  0
  7  9  1  0  0  0
  7  8  1  0  0  0
  9 10  1  0  0  0
  9 12  1  0  0  0
 10 11  2  0  0  0
 10 13  1  0  0  0
 13 14  1  0  0  0
 13 17  2  0  0  0
 14 15  1  0  0  0
 15 16  2  0  0  0
 16 17  1  0  0  0
 17 18  1  0  0  0
 22 23  2  0  0  0
 23 24  1  0  0  0
M  END
> <minimizedAffinity>
-9.65923

$$$$
