CHEMBL1970903


 34 38  0  0  0  0  0  0  0  0999 V2000
  -23.3285    0.1702  -13.5909 C   0  0  0  0  0  0  0  0  0  0  0  0
  -24.0314   -0.5594  -14.5530 C   0  0  0  0  0  0  0  0  0  0  0  0
  -24.9997   -1.4694  -14.2880 N   0  0  0  0  0  0  0  0  0  0  0  0
  -25.2851   -1.6802  -12.9838 C   0  0  0  0  0  0  0  0  0  0  0  0
  -24.6558   -1.0305  -11.9320 C   0  0  0  0  0  0  0  0  0  0  0  0
  -23.6754   -0.0932  -12.2531 C   0  0  0  0  0  0  0  0  0  0  0  0
  -17.7427    0.4398  -15.0480 C   0  0  0  0  0  0  0  0  0  0  0  0
  -18.6021    1.6415  -14.9180 C   0  0  0  0  0  0  0  0  0  0  0  0
  -18.0979    2.8661  -15.1226 N   0  0  0  0  0  0  0  0  0  0  0  0
  -19.1469    3.6815  -14.9145 N   0  0  0  0  0  0  0  0  0  0  0  0
  -20.3049    3.0343  -14.5769 C   0  0  0  0  0  0  0  0  0  0  0  0
  -21.5834    3.5032  -14.2776 C   0  0  0  0  0  0  0  0  0  0  0  0
  -22.5552    2.5425  -13.9552 C   0  0  0  0  0  0  0  0  0  0  0  0
  -22.2850    1.1601  -13.9430 C   0  0  0  0  0  0  0  0  0  0  0  0
  -20.9757    0.7430  -14.2689 C   0  0  0  0  0  0  0  0  0  0  0  0
  -19.9784    1.6866  -14.5766 C   0  0  0  0  0  0  0  0  0  0  0  0
  -19.0052    4.6792  -15.0156 H   0  0  0  0  0  0  0  0  0  0  0  0
  -25.0650   -1.3705  -10.6755 O   0  0  0  0  0  0  0  0  0  0  0  0
  -26.2028   -2.2366  -10.5798 C   0  0  0  0  0  0  0  0  0  0  0  0
  -27.2831   -1.5503   -9.7142 C   0  0  0  0  0  0  0  0  0  0  0  0
  -28.2697   -0.8788  -10.5868 N   0  0  0  0  0  0  0  0  0  0  0  0
  -28.7552   -1.5671  -11.1584 H   0  0  0  0  0  0  0  0  0  0  0  0
  -27.7601   -0.2769  -11.2366 H   0  0  0  0  0  0  0  0  0  0  0  0
  -27.9237   -2.5954   -8.7769 C   0  0  0  0  0  0  0  0  0  0  0  0
  -28.2085   -2.0905   -7.3961 C   0  0  0  0  0  0  0  0  0  0  0  0
  -27.7858   -0.8827   -6.8755 C   0  0  0  0  0  0  0  0  0  0  0  0
  -28.2370   -0.7847   -5.5894 N   0  0  0  0  0  0  0  0  0  0  0  0
  -28.9675   -1.9001   -5.2552 C   0  0  0  0  0  0  0  0  0  0  0  0
  -29.6183   -2.2213   -4.0584 C   0  0  0  0  0  0  0  0  0  0  0  0
  -30.2818   -3.4490   -3.9922 C   0  0  0  0  0  0  0  0  0  0  0  0
  -30.2907   -4.3179   -5.0802 C   0  0  0  0  0  0  0  0  0  0  0  0
  -29.6371   -3.9790   -6.2715 C   0  0  0  0  0  0  0  0  0  0  0  0
  -28.9607   -2.7446   -6.3662 C   0  0  0  0  0  0  0  0  0  0  0  0
  -28.0541   -0.0118   -4.9658 H   0  0  0  0  0  0  0  0  0  0  0  0
  7  8  1  0  0  0
  8  9  2  0  0  0
  8 16  1  0  0  0
  9 10  1  0  0  0
 10 11  1  0  0  0
 10 17  1  0  0  0
 11 12  1  0  0  0
 11 16  2  0  0  0
 12 13  2  0  0  0
 13 14  1  0  0  0
 14  1  1  0  0  0
 14 15  2  0  0  0
  1  2  1  0  0  0
  1  6  2  0  0  0
  2  3  2  0  0  0
  3  4  1  0  0  0
  4  5  2  0  0  0
  5 18  1  0  0  0
  5  6  1  0  0  0
 18 19  1  0  0  0
 19 20  1  0  0  0
 20 21  1  0  0  0
 20 24  1  0  0  0
 21 22  1  0  0  0
 21 23  1  0  0  0
 24 25  1  0  0  0
 25 26  2  0  0  0
 25 33  1  0  0  0
 26 27  1  0  0  0
 27 28  1  0  0  0
 27 34  1  0  0  0
 28 29  1  0  0  0
 28 33  2  0  0  0
 29 30  2  0  0  0
 30 31  1  0  0  0
 31 32  2  0  0  0
 32 33  1  0  0  0
 15 16  1  0  0  0
M  END
> <minimizedAffinity>
-10.74886

$$$$
