CHEMBL4100645


 32 35  0  0  0  0  0  0  0  0999 V2000
  -28.3551   -2.3561   -8.0514 C   0  0  0  0  0  0  0  0  0  0  0  0
  -27.9094   -2.2330   -6.7334 C   0  0  0  0  0  0  0  0  0  0  0  0
  -28.1323   -3.2585   -5.8045 C   0  0  0  0  0  0  0  0  0  0  0  0
  -28.8373   -4.4215   -6.1544 C   0  0  0  0  0  0  0  0  0  0  0  0
  -29.4049   -4.4378   -7.4371 C   0  0  0  0  0  0  0  0  0  0  0  0
  -29.1289   -3.4543   -8.3971 C   0  0  0  0  0  0  0  0  0  0  0  0
  -28.9689   -5.5664   -5.2209 C   0  0  0  0  0  0  0  0  0  0  0  0
  -28.1092   -6.6869   -5.3050 C   0  0  0  0  0  0  0  0  0  0  0  0
  -28.2654   -7.7580   -4.4397 C   0  0  0  0  0  0  0  0  0  0  0  0
  -27.4502   -8.8562   -4.5387 O   0  0  0  0  0  0  0  0  0  0  0  0
  -29.1929   -7.8547   -3.4798 N   0  0  0  0  0  0  0  0  0  0  0  0
  -30.0038   -6.7793   -3.4254 C   0  0  0  0  0  0  0  0  0  0  0  0
  -31.0270   -6.6422   -2.5458 N   0  0  0  0  0  0  0  0  0  0  0  0
  -31.7166   -5.5007   -2.6926 N   0  0  0  0  0  0  0  0  0  0  0  0
  -31.1167   -4.8933   -3.7276 C   0  0  0  0  0  0  0  0  0  0  0  0
  -31.6992   -3.6054   -4.1864 C   0  0  0  0  0  0  0  0  0  0  0  0
  -29.9864   -5.6408   -4.2191 C   0  0  0  0  0  0  0  0  0  0  0  0
  -26.8487   -8.7223   -5.2836 H   0  0  0  0  0  0  0  0  0  0  0  0
  -31.3073   -7.2966   -1.8267 H   0  0  0  0  0  0  0  0  0  0  0  0
  -26.8032   -0.7609  -10.9188 N   0  0  0  0  0  0  0  0  0  0  0  0
  -27.0588   -1.7698  -10.0030 C   0  0  0  0  0  0  0  0  0  0  0  0
  -26.5533   -2.8885  -10.0209 O   0  0  0  0  0  0  0  0  0  0  0  0
  -27.9982   -1.4055   -9.0437 N   0  0  0  0  0  0  0  0  0  0  0  0
  -27.1780    0.1507  -10.7186 H   0  0  0  0  0  0  0  0  0  0  0  0
  -28.7444   -0.8238   -9.3932 H   0  0  0  0  0  0  0  0  0  0  0  0
  -22.4250    0.2236  -13.0876 C   0  0  0  0  0  0  0  0  0  0  0  0
  -23.7943   -0.3926  -13.1178 C   0  0  0  0  0  0  0  0  0  0  0  0
  -24.2085   -1.0741  -14.2661 C   0  0  0  0  0  0  0  0  0  0  0  0
  -25.4701   -1.6477  -14.3152 C   0  0  0  0  0  0  0  0  0  0  0  0
  -26.3270   -1.5458  -13.2193 C   0  0  0  0  0  0  0  0  0  0  0  0
  -25.9462   -0.8776  -12.0508 C   0  0  0  0  0  0  0  0  0  0  0  0
  -24.6677   -0.2990  -12.0106 C   0  0  0  0  0  0  0  0  0  0  0  0
 26 27  1  0  0  0
 27 28  1  0  0  0
 27 32  2  0  0  0
 28 29  2  0  0  0
 29 30  1  0  0  0
 30 31  2  0  0  0
 31 20  1  0  0  0
 31 32  1  0  0  0
 20 21  1  0  0  0
 20 24  1  0  0  0
 21 22  2  0  0  0
 21 23  1  0  0  0
 23  1  1  0  0  0
 23 25  1  0  0  0
  1  2  1  0  0  0
  1  6  2  0  0  0
  2  3  2  0  0  0
  3  4  1  0  0  0
  4  7  1  0  0  0
  4  5  2  0  0  0
  7  8  1  0  0  0
  7 17  2  0  0  0
  8  9  2  0  0  0
  9 10  1  0  0  0
  9 11  1  0  0  0
 10 18  1  0  0  0
 11 12  2  0  0  0
 12 13  1  0  0  0
 12 17  1  0  0  0
 13 14  1  0  0  0
 13 19  1  0  0  0
 14 15  2  0  0  0
 15 16  1  0  0  0
 15 17  1  0  0  0
  5  6  1  0  0  0
M  END
> <minimizedAffinity>
-9.59351

$$$$
