CHEMBL1079945


 41 45  0  0  0  0  0  0  0  0999 V2000
  -12.2152   -0.6555  -15.3310 C   0  0  0  0  0  0  0  0  0  0  0  0
  -13.6259   -0.1902  -15.0609 C   0  0  0  0  0  0  0  0  0  0  0  0
  -14.2159    0.6839  -15.9822 C   0  0  0  0  0  0  0  0  0  0  0  0
  -15.5417    1.0851  -15.8335 C   0  0  0  0  0  0  0  0  0  0  0  0
  -16.3238    0.5723  -14.8051 C   0  0  0  0  0  0  0  0  0  0  0  0
  -15.7323   -0.3100  -13.8926 C   0  0  0  0  0  0  0  0  0  0  0  0
  -14.3691   -0.6221  -13.9344 C   0  0  0  0  0  0  0  0  0  0  0  0
  -17.6893    0.8932  -14.6100 N   0  0  0  0  0  0  0  0  0  0  0  0
  -18.3914    1.8873  -15.2688 C   0  0  0  0  0  0  0  0  0  0  0  0
  -17.9518    2.6509  -16.1196 O   0  0  0  0  0  0  0  0  0  0  0  0
  -18.1557    0.4142  -13.8495 H   0  0  0  0  0  0  0  0  0  0  0  0
  -19.8123    2.0733  -14.8624 C   0  0  0  0  0  0  0  0  0  0  0  0
  -20.4551    3.3157  -14.8885 C   0  0  0  0  0  0  0  0  0  0  0  0
  -21.7687    3.4248  -14.4248 C   0  0  0  0  0  0  0  0  0  0  0  0
  -22.4445    2.3001  -13.9415 C   0  0  0  0  0  0  0  0  0  0  0  0
  -21.8192    1.0463  -13.9204 C   0  0  0  0  0  0  0  0  0  0  0  0
  -20.4959    0.9485  -14.3750 C   0  0  0  0  0  0  0  0  0  0  0  0
  -22.5314   -0.1873  -13.4235 C   0  0  0  0  0  0  0  0  0  0  0  0
  -23.8884   -0.1004  -13.5072 F   0  0  0  0  0  0  0  0  0  0  0  0
  -22.1875   -1.3004  -14.1291 F   0  0  0  0  0  0  0  0  0  0  0  0
  -22.2550   -0.4678  -12.1208 F   0  0  0  0  0  0  0  0  0  0  0  0
  -13.7199   -1.3855  -12.9475 N   0  0  0  0  0  0  0  0  0  0  0  0
  -13.9480   -1.0346  -12.0214 H   0  0  0  0  0  0  0  0  0  0  0  0
  -13.4422   -2.7173  -12.8377 C   0  0  0  0  0  0  0  0  0  0  0  0
  -13.7734   -3.4876  -13.8609 N   0  0  0  0  0  0  0  0  0  0  0  0
  -14.8517   -4.1726  -13.3688 C   0  0  0  0  0  0  0  0  0  0  0  0
  -15.8896   -4.8068  -14.0627 C   0  0  0  0  0  0  0  0  0  0  0  0
  -16.9598   -5.3173  -13.3243 C   0  0  0  0  0  0  0  0  0  0  0  0
  -16.9597   -5.2637  -11.9263 C   0  0  0  0  0  0  0  0  0  0  0  0
  -15.8959   -4.6969  -11.2147 C   0  0  0  0  0  0  0  0  0  0  0  0
  -14.8748   -4.1196  -11.9770 C   0  0  0  0  0  0  0  0  0  0  0  0
  -13.6817   -3.4638  -11.6815 N   0  0  0  0  0  0  0  0  0  0  0  0
  -12.8483   -3.6819  -10.5492 C   0  0  0  0  0  0  0  0  0  0  0  0
  -13.2019   -4.6276   -9.5999 C   0  0  0  0  0  0  0  0  0  0  0  0
  -12.3461   -4.7731   -8.5270 C   0  0  0  0  0  0  0  0  0  0  0  0
  -12.5739   -5.7499   -7.5588 N   0  0  0  0  0  0  0  0  0  0  0  0
  -11.2309   -4.0522   -8.3839 N   0  0  0  0  0  0  0  0  0  0  0  0
  -10.9944   -3.1323   -9.3279 C   0  0  0  0  0  0  0  0  0  0  0  0
  -11.7530   -2.9028  -10.4074 N   0  0  0  0  0  0  0  0  0  0  0  0
  -13.5076   -5.6898   -7.1635 H   0  0  0  0  0  0  0  0  0  0  0  0
  -11.8603   -5.6477   -6.8395 H   0  0  0  0  0  0  0  0  0  0  0  0
  1  2  1  0  0  0
  2  3  1  0  0  0
  2  7  2  0  0  0
  3  4  2  0  0  0
  4  5  1  0  0  0
  5  8  1  0  0  0
  5  6  2  0  0  0
  8  9  1  0  0  0
  8 11  1  0  0  0
  9 10  2  0  0  0
  9 12  1  0  0  0
 12 13  1  0  0  0
 12 17  2  0  0  0
 13 14  2  0  0  0
 14 15  1  0  0  0
 15 16  2  0  0  0
 16 18  1  0  0  0
 16 17  1  0  0  0
 18 19  1  0  0  0
 18 20  1  0  0  0
 18 21  1  0  0  0
  6  7  1  0  0  0
  7 22  1  0  0  0
 22 24  1  0  0  0
 22 23  1  0  0  0
 24 25  2  0  0  0
 24 32  1  0  0  0
 25 26  1  0  0  0
 26 27  1  0  0  0
 26 31  2  0  0  0
 27 28  2  0  0  0
 28 29  1  0  0  0
 29 30  2  0  0  0
 30 31  1  0  0  0
 31 32  1  0  0  0
 32 33  1  0  0  0
 33 34  1  0  0  0
 33 39  2  0  0  0
 34 35  2  0  0  0
 35 36  1  0  0  0
 35 37  1  0  0  0
 36 40  1  0  0  0
 36 41  1  0  0  0
 37 38  2  0  0  0
 38 39  1  0  0  0
M  END
> <minimizedAffinity>
-11.16112

$$$$
