CHEMBL3752752


 37 41  0  0  0  0  0  0  0  0999 V2000
  -26.3735   -0.7478  -12.3870 N   0  0  0  0  0  0  0  0  0  0  0  0
  -26.0162   -0.2396  -11.0375 C   0  0  0  0  0  0  0  0  0  0  0  0
  -25.8900   -1.3090   -9.9241 C   0  0  0  0  0  0  0  0  0  0  0  0
  -27.0291   -2.2257   -9.8900 N   0  0  0  0  0  0  0  0  0  0  0  0
  -27.5327   -2.7153  -11.1765 C   0  0  0  0  0  0  0  0  0  0  0  0
  -27.6006   -1.5717  -12.2264 C   0  0  0  0  0  0  0  0  0  0  0  0
  -27.6628   -2.6337   -8.7240 C   0  0  0  0  0  0  0  0  0  0  0  0
  -27.9025   -3.9569   -8.5945 N   0  0  0  0  0  0  0  0  0  0  0  0
  -28.6345   -4.4752   -7.5460 N   0  0  0  0  0  0  0  0  0  0  0  0
  -29.1144   -3.6716   -6.5729 C   0  0  0  0  0  0  0  0  0  0  0  0
  -28.8034   -2.2929   -6.5769 C   0  0  0  0  0  0  0  0  0  0  0  0
  -29.1512   -1.4056   -5.5182 C   0  0  0  0  0  0  0  0  0  0  0  0
  -28.9410   -0.0304   -5.5804 C   0  0  0  0  0  0  0  0  0  0  0  0
  -28.2769    0.4963   -6.6643 C   0  0  0  0  0  0  0  0  0  0  0  0
  -27.8101   -0.3627   -7.6568 C   0  0  0  0  0  0  0  0  0  0  0  0
  -28.0876   -1.7586   -7.6856 C   0  0  0  0  0  0  0  0  0  0  0  0
  -29.9977   -4.3750   -5.5934 C   0  0  0  0  0  0  0  0  0  0  0  0
  -30.2863   -5.7489   -5.7220 C   0  0  0  0  0  0  0  0  0  0  0  0
  -31.1056   -6.4203   -4.8031 C   0  0  0  0  0  0  0  0  0  0  0  0
  -31.6445   -5.7387   -3.7168 C   0  0  0  0  0  0  0  0  0  0  0  0
  -31.4068   -4.3780   -3.5775 C   0  0  0  0  0  0  0  0  0  0  0  0
  -30.6299   -3.7044   -4.5262 C   0  0  0  0  0  0  0  0  0  0  0  0
  -25.2280   -1.5050  -12.9409 C   0  0  0  0  0  0  0  0  0  0  0  0
  -24.3457   -0.7054  -15.0096 O   0  0  0  0  0  0  0  0  0  0  0  0
  -24.2812   -0.6555  -13.7804 C   0  0  0  0  0  0  0  0  0  0  0  0
  -23.3408    0.0687  -13.0685 N   0  0  0  0  0  0  0  0  0  0  0  0
  -23.1886   -0.2025  -12.1031 H   0  0  0  0  0  0  0  0  0  0  0  0
  -22.4417    0.9635  -13.6785 C   0  0  0  0  0  0  0  0  0  0  0  0
  -22.8218    2.2922  -13.8611 C   0  0  0  0  0  0  0  0  0  0  0  0
  -21.9078    3.2114  -14.3840 C   0  0  0  0  0  0  0  0  0  0  0  0
  -20.6295    2.7973  -14.7666 C   0  0  0  0  0  0  0  0  0  0  0  0
  -20.2490    1.4567  -14.6307 C   0  0  0  0  0  0  0  0  0  0  0  0
  -21.1705    0.5479  -14.0919 C   0  0  0  0  0  0  0  0  0  0  0  0
  -18.8762    0.9751  -15.0241 C   0  0  0  0  0  0  0  0  0  0  0  0
  -17.9953    0.9404  -13.9839 F   0  0  0  0  0  0  0  0  0  0  0  0
  -18.8877   -0.2849  -15.5396 F   0  0  0  0  0  0  0  0  0  0  0  0
  -18.2956    1.7623  -15.9727 F   0  0  0  0  0  0  0  0  0  0  0  0
 24 25  2  0  0  0
 25 23  1  0  0  0
 25 26  1  0  0  0
 23  1  1  0  0  0
  1  2  1  0  0  0
  1  6  1  0  0  0
  2  3  1  0  0  0
  3  4  1  0  0  0
  4  7  1  0  0  0
  4  5  1  0  0  0
  7  8  1  0  0  0
  7 16  2  0  0  0
  8  9  2  0  0  0
  9 10  1  0  0  0
 10 17  1  0  0  0
 10 11  2  0  0  0
 17 18  1  0  0  0
 17 22  2  0  0  0
 18 19  2  0  0  0
 19 20  1  0  0  0
 20 21  2  0  0  0
 21 22  1  0  0  0
 11 12  1  0  0  0
 11 16  1  0  0  0
 12 13  2  0  0  0
 13 14  1  0  0  0
 14 15  2  0  0  0
 15 16  1  0  0  0
  5  6  1  0  0  0
 26 28  1  0  0  0
 26 27  1  0  0  0
 28 29  1  0  0  0
 28 33  2  0  0  0
 29 30  2  0  0  0
 30 31  1  0  0  0
 31 32  2  0  0  0
 32 34  1  0  0  0
 32 33  1  0  0  0
 34 35  1  0  0  0
 34 36  1  0  0  0
 34 37  1  0  0  0
M  END
> <minimizedAffinity>
-10.08868

$$$$
