CHEMBL77555


 30 33  0  0  0  0  0  0  0  0999 V2000
  -27.8320   -2.3367   -8.2033 C   0  0  0  0  0  0  0  0  0  0  0  0
  -27.9069   -3.5773   -8.7338 N   0  0  0  0  0  0  0  0  0  0  0  0
  -28.5837   -4.5663   -8.1024 N   0  0  0  0  0  0  0  0  0  0  0  0
  -29.1463   -4.3381   -6.8950 C   0  0  0  0  0  0  0  0  0  0  0  0
  -29.0743   -3.0797   -6.2658 C   0  0  0  0  0  0  0  0  0  0  0  0
  -29.5613   -2.8130   -4.9625 C   0  0  0  0  0  0  0  0  0  0  0  0
  -29.5023   -1.5356   -4.4037 C   0  0  0  0  0  0  0  0  0  0  0  0
  -28.9810   -0.4844   -5.1418 C   0  0  0  0  0  0  0  0  0  0  0  0
  -28.4557   -0.7278   -6.4104 C   0  0  0  0  0  0  0  0  0  0  0  0
  -28.4576   -2.0258   -6.9794 C   0  0  0  0  0  0  0  0  0  0  0  0
  -27.0391   -1.3668   -8.8643 N   0  0  0  0  0  0  0  0  0  0  0  0
  -27.2105   -0.4439   -8.4833 H   0  0  0  0  0  0  0  0  0  0  0  0
  -24.9686   -1.6916  -11.9589 C   0  0  0  0  0  0  0  0  0  0  0  0
  -25.3417   -1.5886  -10.6020 C   0  0  0  0  0  0  0  0  0  0  0  0
  -26.6775   -1.4057  -10.2252 C   0  0  0  0  0  0  0  0  0  0  0  0
  -27.6492   -1.3686  -11.2365 C   0  0  0  0  0  0  0  0  0  0  0  0
  -27.2999   -1.4782  -12.5828 C   0  0  0  0  0  0  0  0  0  0  0  0
  -25.9640   -1.6388  -12.9425 C   0  0  0  0  0  0  0  0  0  0  0  0
  -25.6077   -1.7871  -14.6244 Cl  0  0  0  0  0  0  0  0  0  0  0  0
  -22.6854   -1.7606  -11.2507 F   0  0  0  0  0  0  0  0  0  0  0  0
  -23.5212   -1.8613  -12.3262 C   0  0  0  0  0  0  0  0  0  0  0  0
  -23.0788   -0.9262  -13.2106 F   0  0  0  0  0  0  0  0  0  0  0  0
  -23.2504   -3.0759  -12.8773 F   0  0  0  0  0  0  0  0  0  0  0  0
  -29.9426   -5.5045   -6.3581 C   0  0  0  0  0  0  0  0  0  0  0  0
  -29.0752   -6.6958   -6.0145 C   0  0  0  0  0  0  0  0  0  0  0  0
  -29.0746   -7.8381   -6.8251 C   0  0  0  0  0  0  0  0  0  0  0  0
  -28.3102   -8.9291   -6.4432 C   0  0  0  0  0  0  0  0  0  0  0  0
  -27.5451   -8.9553   -5.3320 N   0  0  0  0  0  0  0  0  0  0  0  0
  -27.5397   -7.8374   -4.5758 C   0  0  0  0  0  0  0  0  0  0  0  0
  -28.2734   -6.6978   -4.8712 C   0  0  0  0  0  0  0  0  0  0  0  0
 20 21  1  0  0  0
 21 22  1  0  0  0
 21 23  1  0  0  0
 21 13  1  0  0  0
 13 14  1  0  0  0
 13 18  2  0  0  0
 14 15  2  0  0  0
 15 11  1  0  0  0
 15 16  1  0  0  0
 11  1  1  0  0  0
 11 12  1  0  0  0
  1  2  1  0  0  0
  1 10  2  0  0  0
  2  3  2  0  0  0
  3  4  1  0  0  0
  4 24  1  0  0  0
  4  5  2  0  0  0
 24 25  1  0  0  0
 25 26  1  0  0  0
 25 30  2  0  0  0
 26 27  2  0  0  0
 27 28  1  0  0  0
 28 29  2  0  0  0
 29 30  1  0  0  0
  5  6  1  0  0  0
  5 10  1  0  0  0
  6  7  2  0  0  0
  7  8  1  0  0  0
  8  9  2  0  0  0
  9 10  1  0  0  0
 16 17  2  0  0  0
 17 18  1  0  0  0
 18 19  1  0  0  0
M  END
> <minimizedAffinity>
-9.93778

$$$$
