CHEMBL231066


 30 33  0  0  0  0  0  0  0  0999 V2000
  -27.1044   -1.8422  -10.7620 C   0  0  0  0  0  0  0  0  0  0  0  0
  -25.8612   -1.5241  -10.4761 N   0  0  0  0  0  0  0  0  0  0  0  0
  -25.2218   -1.3578  -11.6791 C   0  0  0  0  0  0  0  0  0  0  0  0
  -23.8956   -0.9944  -11.9508 C   0  0  0  0  0  0  0  0  0  0  0  0
  -23.5022   -0.8559  -13.2885 C   0  0  0  0  0  0  0  0  0  0  0  0
  -24.3948   -1.1482  -14.3294 C   0  0  0  0  0  0  0  0  0  0  0  0
  -25.7271   -1.4914  -14.0741 C   0  0  0  0  0  0  0  0  0  0  0  0
  -26.0952   -1.5878  -12.7337 C   0  0  0  0  0  0  0  0  0  0  0  0
  -27.2793   -1.9044  -12.1223 N   0  0  0  0  0  0  0  0  0  0  0  0
  -28.1478   -2.1040  -12.5904 H   0  0  0  0  0  0  0  0  0  0  0  0
  -28.1597   -2.0950   -9.9567 N   0  0  0  0  0  0  0  0  0  0  0  0
  -29.0995   -2.0126  -10.3251 H   0  0  0  0  0  0  0  0  0  0  0  0
  -28.5303   -3.7280   -6.6187 C   0  0  0  0  0  0  0  0  0  0  0  0
  -28.5019   -3.4969   -8.0116 C   0  0  0  0  0  0  0  0  0  0  0  0
  -28.1354   -2.2534   -8.5540 C   0  0  0  0  0  0  0  0  0  0  0  0
  -27.7374   -1.2516   -7.6667 C   0  0  0  0  0  0  0  0  0  0  0  0
  -27.7481   -1.4613   -6.2863 C   0  0  0  0  0  0  0  0  0  0  0  0
  -28.1514   -2.6919   -5.7616 C   0  0  0  0  0  0  0  0  0  0  0  0
  -28.1602   -2.8669   -4.0465 Cl  0  0  0  0  0  0  0  0  0  0  0  0
  -29.3440   -5.9260   -7.0777 F   0  0  0  0  0  0  0  0  0  0  0  0
  -28.9718   -5.0632   -6.0875 C   0  0  0  0  0  0  0  0  0  0  0  0
  -30.0573   -4.9780   -5.2676 F   0  0  0  0  0  0  0  0  0  0  0  0
  -28.0042   -5.7137   -5.3883 F   0  0  0  0  0  0  0  0  0  0  0  0
  -22.1903   -0.4781  -13.4891 O   0  0  0  0  0  0  0  0  0  0  0  0
  -21.9055    0.7984  -13.9207 C   0  0  0  0  0  0  0  0  0  0  0  0
  -22.6981    1.9140  -13.6610 C   0  0  0  0  0  0  0  0  0  0  0  0
  -22.3050    3.1292  -14.1935 C   0  0  0  0  0  0  0  0  0  0  0  0
  -21.1718    3.3056  -14.9050 N   0  0  0  0  0  0  0  0  0  0  0  0
  -20.3900    2.2187  -15.0818 C   0  0  0  0  0  0  0  0  0  0  0  0
  -20.7097    0.9566  -14.6133 C   0  0  0  0  0  0  0  0  0  0  0  0
 20 21  1  0  0  0
 21 22  1  0  0  0
 21 23  1  0  0  0
 21 13  1  0  0  0
 13 14  1  0  0  0
 13 18  2  0  0  0
 14 15  2  0  0  0
 15 11  1  0  0  0
 15 16  1  0  0  0
 11  1  1  0  0  0
 11 12  1  0  0  0
  1  2  2  0  0  0
  1  9  1  0  0  0
  2  3  1  0  0  0
  3  4  1  0  0  0
  3  8  2  0  0  0
  4  5  2  0  0  0
  5 24  1  0  0  0
  5  6  1  0  0  0
 24 25  1  0  0  0
 25 26  1  0  0  0
 25 30  2  0  0  0
 26 27  2  0  0  0
 27 28  1  0  0  0
 28 29  2  0  0  0
 29 30  1  0  0  0
  6  7  2  0  0  0
  7  8  1  0  0  0
  8  9  1  0  0  0
  9 10  1  0  0  0
 16 17  2  0  0  0
 17 18  1  0  0  0
 18 19  1  0  0  0
M  END
> <minimizedAffinity>
-10.65431

$$$$
