CHEMBL3288524


 32 36  0  0  0  0  0  0  0  0999 V2000
  -22.7459   -0.2837  -13.8922 C   0  0  0  0  0  0  0  0  0  0  0  0
  -22.7970   -0.6003  -12.5735 C   0  0  0  0  0  0  0  0  0  0  0  0
  -24.0222   -0.6389  -12.0190 C   0  0  0  0  0  0  0  0  0  0  0  0
  -25.1319   -1.0712  -12.6591 C   0  0  0  0  0  0  0  0  0  0  0  0
  -26.2377   -1.5219  -11.9678 C   0  0  0  0  0  0  0  0  0  0  0  0
  -27.2249   -1.9326  -12.8458 C   0  0  0  0  0  0  0  0  0  0  0  0
  -28.1288   -2.3096  -13.6145 C   0  0  0  0  0  0  0  0  0  0  0  0
  -26.5436   -1.6389  -14.4279 C   0  0  0  0  0  0  0  0  0  0  0  0
  -25.1525   -1.0715  -14.0070 C   0  0  0  0  0  0  0  0  0  0  0  0
  -23.9106   -0.4984  -14.6362 C   0  0  0  0  0  0  0  0  0  0  0  0
  -22.8614    2.8279  -13.6853 N   0  0  0  0  0  0  0  0  0  0  0  0
  -21.6283    2.7323  -14.2977 C   0  0  0  0  0  0  0  0  0  0  0  0
  -20.9220    3.8444  -14.6006 N   0  0  0  0  0  0  0  0  0  0  0  0
  -19.7099    3.7332  -15.2068 C   0  0  0  0  0  0  0  0  0  0  0  0
  -19.0997    2.5402  -15.5567 C   0  0  0  0  0  0  0  0  0  0  0  0
  -19.8292    1.4097  -15.2475 C   0  0  0  0  0  0  0  0  0  0  0  0
  -19.4991    0.0917  -15.4691 O   0  0  0  0  0  0  0  0  0  0  0  0
  -20.5497   -0.6336  -14.9802 C   0  0  0  0  0  0  0  0  0  0  0  0
  -21.5212    0.1828  -14.4656 C   0  0  0  0  0  0  0  0  0  0  0  0
  -21.0720    1.4943  -14.6327 C   0  0  0  0  0  0  0  0  0  0  0  0
  -23.2591    3.7162  -13.4495 H   0  0  0  0  0  0  0  0  0  0  0  0
  -23.3976    2.0176  -13.4256 H   0  0  0  0  0  0  0  0  0  0  0  0
  -26.4935   -1.6860  -10.5355 C   0  0  0  0  0  0  0  0  0  0  0  0
  -25.5483   -1.5659   -9.7571 O   0  0  0  0  0  0  0  0  0  0  0  0
  -27.7723   -2.0115  -10.1698 N   0  0  0  0  0  0  0  0  0  0  0  0
  -28.5224   -2.0454  -10.7972 H   0  0  0  0  0  0  0  0  0  0  0  0
  -28.1922   -2.2522   -8.8985 C   0  0  0  0  0  0  0  0  0  0  0  0
  -27.9701   -1.2860   -7.9714 C   0  0  0  0  0  0  0  0  0  0  0  0
  -28.3887   -1.4724   -6.6765 C   0  0  0  0  0  0  0  0  0  0  0  0
  -28.7463   -2.7270   -6.2478 C   0  0  0  0  0  0  0  0  0  0  0  0
  -28.7560   -3.7493   -7.1705 C   0  0  0  0  0  0  0  0  0  0  0  0
  -28.8219   -3.4143   -8.5199 C   0  0  0  0  0  0  0  0  0  0  0  0
 11 12  1  0  0  0
 11 21  1  0  0  0
 11 22  1  0  0  0
 12 13  1  0  0  0
 12 20  2  0  0  0
 13 14  2  0  0  0
 14 15  1  0  0  0
 15 16  2  0  0  0
 16 17  1  0  0  0
 16 20  1  0  0  0
 17 18  1  0  0  0
 18 19  2  0  0  0
 19  1  1  0  0  0
 19 20  1  0  0  0
  1  2  1  0  0  0
  1 10  2  0  0  0
  2  3  2  0  0  0
  3  4  1  0  0  0
  4  5  1  0  0  0
  4  9  2  0  0  0
  5 23  1  0  0  0
  5  6  2  0  0  0
 23 24  2  0  0  0
 23 25  1  0  0  0
 25 27  1  0  0  0
 25 26  1  0  0  0
 27 28  1  0  0  0
 27 32  2  0  0  0
 28 29  2  0  0  0
 29 30  1  0  0  0
 30 31  2  0  0  0
 31 32  1  0  0  0
  6  7  1  0  0  0
  7  8  2  0  0  0
  8  9  1  0  0  0
  9 10  1  0  0  0
M  END
> <minimizedAffinity>
-11.69677

$$$$
