CHEMBL426078


 22 24  0  0  0  0  0  0  0  0999 V2000
  -29.0482   -5.8558   -7.1951 C   0  0  0  0  0  0  0  0  0  0  0  0
  -28.9095   -5.5884   -5.8883 C   0  0  0  0  0  0  0  0  0  0  0  0
  -28.6488   -6.4764   -4.6974 C   0  0  0  0  0  0  0  0  0  0  0  0
  -28.4995   -7.6839   -4.6752 O   0  0  0  0  0  0  0  0  0  0  0  0
  -28.6115   -5.6231   -3.6038 N   0  0  0  0  0  0  0  0  0  0  0  0
  -28.8186   -4.3009   -3.9826 C   0  0  0  0  0  0  0  0  0  0  0  0
  -28.8463   -3.1898   -3.1640 C   0  0  0  0  0  0  0  0  0  0  0  0
  -29.0707   -1.9473   -3.7677 C   0  0  0  0  0  0  0  0  0  0  0  0
  -29.2566   -1.8604   -5.1554 C   0  0  0  0  0  0  0  0  0  0  0  0
  -29.4757   -0.6618   -5.7692 O   0  0  0  0  0  0  0  0  0  0  0  0
  -29.2263   -2.9900   -5.9688 C   0  0  0  0  0  0  0  0  0  0  0  0
  -29.0054   -4.2154   -5.3647 C   0  0  0  0  0  0  0  0  0  0  0  0
  -28.4509   -5.9497   -2.6639 H   0  0  0  0  0  0  0  0  0  0  0  0
  -29.4728    0.0419   -5.1001 H   0  0  0  0  0  0  0  0  0  0  0  0
  -27.0895   -9.3569  -10.0427 C   0  0  0  0  0  0  0  0  0  0  0  0
  -28.1131   -8.7136   -9.1864 C   0  0  0  0  0  0  0  0  0  0  0  0
  -29.3641   -9.1329   -8.7926 C   0  0  0  0  0  0  0  0  0  0  0  0
  -29.9236   -8.1182   -7.9694 C   0  0  0  0  0  0  0  0  0  0  0  0
  -31.2653   -8.1538   -7.3246 C   0  0  0  0  0  0  0  0  0  0  0  0
  -28.9872   -7.0948   -7.8841 C   0  0  0  0  0  0  0  0  0  0  0  0
  -27.8972   -7.4788   -8.6255 N   0  0  0  0  0  0  0  0  0  0  0  0
  -27.0488   -6.9339   -8.7495 H   0  0  0  0  0  0  0  0  0  0  0  0
 15 16  1  0  0  0
 16 17  2  0  0  0
 16 21  1  0  0  0
 17 18  1  0  0  0
 18 19  1  0  0  0
 18 20  2  0  0  0
 20  1  1  0  0  0
 20 21  1  0  0  0
  1  2  2  0  0  0
  2  3  1  0  0  0
  2 12  1  0  0  0
  3  4  2  0  0  0
  3  5  1  0  0  0
  5  6  1  0  0  0
  5 13  1  0  0  0
  6  7  1  0  0  0
  6 12  2  0  0  0
  7  8  2  0  0  0
  8  9  1  0  0  0
  9 10  1  0  0  0
  9 11  2  0  0  0
 10 14  1  0  0  0
 11 12  1  0  0  0
 21 22  1  0  0  0
M  END
> <minimizedAffinity>
-7.98578

$$$$
