CHEMBL380915


 25 28  0  0  0  0  0  0  0  0999 V2000
  -29.2315   -5.4615   -6.8483 C   0  0  0  0  0  0  0  0  0  0  0  0
  -28.8993   -6.2560   -5.8185 C   0  0  0  0  0  0  0  0  0  0  0  0
  -27.9268   -6.0667   -4.7143 C   0  0  0  0  0  0  0  0  0  0  0  0
  -27.3101   -5.0806   -4.3678 O   0  0  0  0  0  0  0  0  0  0  0  0
  -27.8710   -7.3244   -4.1285 N   0  0  0  0  0  0  0  0  0  0  0  0
  -28.7345   -8.2616   -4.6449 N   0  0  0  0  0  0  0  0  0  0  0  0
  -29.3806   -7.6555   -5.6157 C   0  0  0  0  0  0  0  0  0  0  0  0
  -27.2973   -7.5350   -3.3201 H   0  0  0  0  0  0  0  0  0  0  0  0
  -27.0367   -1.7504   -9.2298 C   0  0  0  0  0  0  0  0  0  0  0  0
  -27.8145   -2.4622   -8.2414 N   0  0  0  0  0  0  0  0  0  0  0  0
  -28.0814   -3.8001   -8.2889 C   0  0  0  0  0  0  0  0  0  0  0  0
  -28.8336   -4.1323   -7.1891 C   0  0  0  0  0  0  0  0  0  0  0  0
  -29.0231   -2.9287   -6.4092 C   0  0  0  0  0  0  0  0  0  0  0  0
  -29.6677   -2.5688   -5.1928 C   0  0  0  0  0  0  0  0  0  0  0  0
  -30.6524   -3.8048   -4.1371 Br  0  0  0  0  0  0  0  0  0  0  0  0
  -29.6138   -1.2468   -4.7213 C   0  0  0  0  0  0  0  0  0  0  0  0
  -28.9377   -0.2671   -5.4351 C   0  0  0  0  0  0  0  0  0  0  0  0
  -28.3037   -0.5777   -6.6370 C   0  0  0  0  0  0  0  0  0  0  0  0
  -28.3582   -1.9033   -7.1047 C   0  0  0  0  0  0  0  0  0  0  0  0
  -30.4551   -8.2857   -6.3929 C   0  0  0  0  0  0  0  0  0  0  0  0
  -30.2213   -9.4549   -7.1001 C   0  0  0  0  0  0  0  0  0  0  0  0
  -31.1812  -10.0425   -7.8623 N   0  0  0  0  0  0  0  0  0  0  0  0
  -32.3826   -9.4193   -7.8689 C   0  0  0  0  0  0  0  0  0  0  0  0
  -32.6267   -8.2729   -7.1342 C   0  0  0  0  0  0  0  0  0  0  0  0
  -31.6738   -7.6886   -6.3760 N   0  0  0  0  0  0  0  0  0  0  0  0
  9 10  1  0  0  0
 10 11  1  0  0  0
 10 19  1  0  0  0
 11 12  2  0  0  0
 12  1  1  0  0  0
 12 13  1  0  0  0
  1  2  2  0  0  0
  2  3  1  0  0  0
  2  7  1  0  0  0
  3  4  2  0  0  0
  3  5  1  0  0  0
  5  6  1  0  0  0
  5  8  1  0  0  0
  6  7  2  0  0  0
  7 20  1  0  0  0
 20 21  1  0  0  0
 20 25  2  0  0  0
 21 22  2  0  0  0
 22 23  1  0  0  0
 23 24  2  0  0  0
 24 25  1  0  0  0
 13 14  1  0  0  0
 13 19  2  0  0  0
 14 15  1  0  0  0
 14 16  2  0  0  0
 16 17  1  0  0  0
 17 18  2  0  0  0
 18 19  1  0  0  0
M  END
> <minimizedAffinity>
-8.48964

$$$$
