CHEMBL3676348


 33 35  0  0  0  0  0  0  0  0999 V2000
  -29.5882   -5.1378   -7.1430 C   0  0  0  0  0  0  0  0  0  0  0  0
  -28.8112   -4.3694   -8.0135 C   0  0  0  0  0  0  0  0  0  0  0  0
  -28.4649   -3.0379   -7.7260 C   0  0  0  0  0  0  0  0  0  0  0  0
  -27.7258   -2.2153   -8.5883 C   0  0  0  0  0  0  0  0  0  0  0  0
  -27.4013   -0.9541   -8.2623 N   0  0  0  0  0  0  0  0  0  0  0  0
  -27.8526   -0.5122   -7.0820 C   0  0  0  0  0  0  0  0  0  0  0  0
  -28.5714   -1.2106   -6.1916 N   0  0  0  0  0  0  0  0  0  0  0  0
  -28.8667   -2.4770   -6.5102 C   0  0  0  0  0  0  0  0  0  0  0  0
  -29.5770   -3.2720   -5.6168 C   0  0  0  0  0  0  0  0  0  0  0  0
  -29.9157   -4.6095   -5.8853 C   0  0  0  0  0  0  0  0  0  0  0  0
  -29.3423   -7.5396   -7.4125 C   0  0  0  0  0  0  0  0  0  0  0  0
  -28.3231   -7.6433   -6.7399 O   0  0  0  0  0  0  0  0  0  0  0  0
  -30.0536   -6.3796   -7.6293 N   0  0  0  0  0  0  0  0  0  0  0  0
  -30.7694   -6.3941   -8.3356 H   0  0  0  0  0  0  0  0  0  0  0  0
  -29.2475   -9.1732   -9.2158 C   0  0  0  0  0  0  0  0  0  0  0  0
  -29.9005   -8.7006   -8.1410 C   0  0  0  0  0  0  0  0  0  0  0  0
  -27.3095   -2.7295   -9.8396 N   0  0  0  0  0  0  0  0  0  0  0  0
  -27.8672   -3.5319  -10.1098 H   0  0  0  0  0  0  0  0  0  0  0  0
  -26.6523   -2.0792  -10.8935 C   0  0  0  0  0  0  0  0  0  0  0  0
  -27.2617   -2.0144  -12.1522 C   0  0  0  0  0  0  0  0  0  0  0  0
  -26.5453   -1.5599  -13.2605 C   0  0  0  0  0  0  0  0  0  0  0  0
  -25.2269   -1.1881  -13.0725 C   0  0  0  0  0  0  0  0  0  0  0  0
  -24.2418   -0.7327  -14.4001 Cl  0  0  0  0  0  0  0  0  0  0  0  0
  -24.5976   -1.2004  -11.8843 N   0  0  0  0  0  0  0  0  0  0  0  0
  -25.3250   -1.6490  -10.8303 C   0  0  0  0  0  0  0  0  0  0  0  0
  -30.6468   -5.2034   -4.8854 O   0  0  0  0  0  0  0  0  0  0  0  0
  -29.9079   -5.5872   -3.7299 C   0  0  0  0  0  0  0  0  0  0  0  0
  -29.8525   -7.0973   -3.5623 C   0  0  0  0  0  0  0  0  0  0  0  0
  -28.5007   -7.6211   -3.7623 N   0  0  0  0  0  0  0  0  0  0  0  0
  -28.2214   -8.9621   -3.5861 C   0  0  0  0  0  0  0  0  0  0  0  0
  -26.7774   -9.3274   -3.7610 C   0  0  0  0  0  0  0  0  0  0  0  0
  -29.0643   -9.8001   -3.2703 O   0  0  0  0  0  0  0  0  0  0  0  0
  -27.8084   -7.0252   -4.1899 H   0  0  0  0  0  0  0  0  0  0  0  0
 15 16  2  0  0  0
 16 11  1  0  0  0
 11 12  2  0  0  0
 11 13  1  0  0  0
 13  1  1  0  0  0
 13 14  1  0  0  0
  1  2  1  0  0  0
  1 10  2  0  0  0
  2  3  2  0  0  0
  3  4  1  0  0  0
  3  8  1  0  0  0
  4 17  1  0  0  0
  4  5  2  0  0  0
 17 19  1  0  0  0
 17 18  1  0  0  0
 19 20  1  0  0  0
 19 25  2  0  0  0
 20 21  2  0  0  0
 21 22  1  0  0  0
 22 23  1  0  0  0
 22 24  2  0  0  0
 24 25  1  0  0  0
  5  6  1  0  0  0
  6  7  2  0  0  0
  7  8  1  0  0  0
  8  9  2  0  0  0
  9 10  1  0  0  0
 10 26  1  0  0  0
 26 27  1  0  0  0
 27 28  1  0  0  0
 28 29  1  0  0  0
 29 30  1  0  0  0
 29 33  1  0  0  0
 30 31  1  0  0  0
 30 32  2  0  0  0
M  END
> <minimizedAffinity>
-8.69969

$$$$
