CHEMBL3923296


 36 40  0  0  0  0  0  0  0  0999 V2000
  -28.2406   -8.4061   -6.2245 N   0  0  0  0  0  0  0  0  0  0  0  0
  -28.3946   -7.0184   -5.7852 C   0  0  0  0  0  0  0  0  0  0  0  0
  -28.9426   -6.1556   -6.7038 C   0  0  0  0  0  0  0  0  0  0  0  0
  -29.1505   -4.8674   -6.3505 C   0  0  0  0  0  0  0  0  0  0  0  0
  -28.7033   -4.3451   -5.1653 C   0  0  0  0  0  0  0  0  0  0  0  0
  -28.1793   -3.2823   -5.6231 N   0  0  0  0  0  0  0  0  0  0  0  0
  -28.9052   -2.2108   -5.4499 C   0  0  0  0  0  0  0  0  0  0  0  0
  -28.8816   -1.5755   -4.2842 C   0  0  0  0  0  0  0  0  0  0  0  0
  -28.5440   -2.9932   -3.5164 N   0  0  0  0  0  0  0  0  0  0  0  0
  -28.2964   -4.6643   -4.0065 C   0  0  0  0  0  0  0  0  0  0  0  0
  -28.0372   -6.3639   -4.4668 C   0  0  0  0  0  0  0  0  0  0  0  0
  -29.2935   -0.0931   -5.2692 C   0  0  0  0  0  0  0  0  0  0  0  0
  -28.5361    0.8608   -6.2321 C   0  0  0  0  0  0  0  0  0  0  0  0
  -29.2369    1.8262   -6.9013 N   0  0  0  0  0  0  0  0  0  0  0  0
  -30.5165    1.6482   -6.5512 N   0  0  0  0  0  0  0  0  0  0  0  0
  -31.5954    2.4904   -7.1742 C   0  0  0  0  0  0  0  0  0  0  0  0
  -30.5791    0.5382   -5.6042 C   0  0  0  0  0  0  0  0  0  0  0  0
  -31.1595   -9.6538   -8.3955 C   0  0  0  0  0  0  0  0  0  0  0  0
  -30.4734  -10.0515   -9.4892 C   0  0  0  0  0  0  0  0  0  0  0  0
  -29.0810   -9.9859   -9.5170 C   0  0  0  0  0  0  0  0  0  0  0  0
  -28.3618   -9.5115   -8.4147 C   0  0  0  0  0  0  0  0  0  0  0  0
  -29.0092   -9.0128   -7.2919 C   0  0  0  0  0  0  0  0  0  0  0  0
  -30.4055   -9.2514   -7.3193 C   0  0  0  0  0  0  0  0  0  0  0  0
  -32.9432   -8.6715   -7.2341 C   0  0  0  0  0  0  0  0  0  0  0  0
  -32.5129   -9.5365   -8.2715 O   0  0  0  0  0  0  0  0  0  0  0  0
  -28.3469  -10.3274  -10.6187 O   0  0  0  0  0  0  0  0  0  0  0  0
  -26.9531  -10.4779  -10.3616 C   0  0  0  0  0  0  0  0  0  0  0  0
  -27.7247   -9.2824   -5.1115 C   0  0  0  0  0  0  0  0  0  0  0  0
  -26.4661  -10.0731   -5.4343 C   0  0  0  0  0  0  0  0  0  0  0  0
  -25.1601   -9.5252   -5.1560 N   0  0  0  0  0  0  0  0  0  0  0  0
  -25.1890   -9.1884   -4.1985 H   0  0  0  0  0  0  0  0  0  0  0  0
  -24.1627  -10.6009   -5.2720 C   0  0  0  0  0  0  0  0  0  0  0  0
  -23.3841  -10.8514   -3.9778 C   0  0  0  0  0  0  0  0  0  0  0  0
  -22.0257  -11.3888   -4.4218 C   0  0  0  0  0  0  0  0  0  0  0  0
  -21.8886  -11.0378   -5.9056 C   0  0  0  0  0  0  0  0  0  0  0  0
  -23.0813  -10.1535   -6.2402 C   0  0  0  0  0  0  0  0  0  0  0  0
 24 25  1  0  0  0
 25 18  1  0  0  0
 18 19  1  0  0  0
 18 23  2  0  0  0
 19 20  2  0  0  0
 20 26  1  0  0  0
 20 21  1  0  0  0
 26 27  1  0  0  0
 21 22  2  0  0  0
 22  1  1  0  0  0
 22 23  1  0  0  0
  1 28  1  0  0  0
  1  2  1  0  0  0
 28 29  1  0  0  0
 29 30  1  0  0  0
 30 32  1  0  0  0
 30 31  1  0  0  0
 32 33  1  0  0  0
 32 36  1  0  0  0
 33 34  1  0  0  0
 34 35  1  0  0  0
 35 36  1  0  0  0
  2  3  1  0  0  0
  2 11  2  0  0  0
  3  4  2  0  0  0
  4  5  1  0  0  0
  5  6  1  0  0  0
  5 10  2  0  0  0
  6  7  2  0  0  0
  7  8  1  0  0  0
  8 12  1  0  0  0
  8  9  2  0  0  0
 12 13  1  0  0  0
 12 17  2  0  0  0
 13 14  2  0  0  0
 14 15  1  0  0  0
 15 16  1  0  0  0
 15 17  1  0  0  0
  9 10  1  0  0  0
 10 11  1  0  0  0
M  END
> <minimizedAffinity>
-9.12567

$$$$
