CHEMBL213478


 36 40  0  0  0  0  0  0  0  0999 V2000
  -28.9241   -4.9755   -6.7996 C   0  0  0  0  0  0  0  0  0  0  0  0
  -28.8760   -4.2286   -8.0121 C   0  0  0  0  0  0  0  0  0  0  0  0
  -28.4066   -2.8905   -8.1153 C   0  0  0  0  0  0  0  0  0  0  0  0
  -27.9959   -2.2660   -6.9502 C   0  0  0  0  0  0  0  0  0  0  0  0
  -28.0261   -2.9580   -5.7370 C   0  0  0  0  0  0  0  0  0  0  0  0
  -28.4470   -4.3054   -5.6460 C   0  0  0  0  0  0  0  0  0  0  0  0
  -28.3333   -4.9407   -4.2830 C   0  0  0  0  0  0  0  0  0  0  0  0
  -32.1740  -10.5965   -7.2812 C   0  0  0  0  0  0  0  0  0  0  0  0
  -33.0776   -9.6211   -7.4027 N   0  0  0  0  0  0  0  0  0  0  0  0
  -32.6208   -8.3595   -7.3157 C   0  0  0  0  0  0  0  0  0  0  0  0
  -31.2907   -8.0278   -7.1102 C   0  0  0  0  0  0  0  0  0  0  0  0
  -30.8008   -6.6957   -7.0854 C   0  0  0  0  0  0  0  0  0  0  0  0
  -29.4567   -6.3863   -6.8158 C   0  0  0  0  0  0  0  0  0  0  0  0
  -28.6258   -7.5023   -6.6001 C   0  0  0  0  0  0  0  0  0  0  0  0
  -29.1084   -8.8268   -6.6760 C   0  0  0  0  0  0  0  0  0  0  0  0
  -30.4432   -9.1143   -6.9352 C   0  0  0  0  0  0  0  0  0  0  0  0
  -30.8720  -10.3827   -7.0212 N   0  0  0  0  0  0  0  0  0  0  0  0
  -33.5551  -12.3721   -6.4565 C   0  0  0  0  0  0  0  0  0  0  0  0
  -32.6608  -11.8784   -7.4759 N   0  0  0  0  0  0  0  0  0  0  0  0
  -33.0054  -11.9120   -8.4282 H   0  0  0  0  0  0  0  0  0  0  0  0
  -28.3400   -2.2932   -9.3947 N   0  0  0  0  0  0  0  0  0  0  0  0
  -29.2479   -1.9443   -9.6764 H   0  0  0  0  0  0  0  0  0  0  0  0
  -27.2764   -2.0093  -10.1888 C   0  0  0  0  0  0  0  0  0  0  0  0
  -26.0627   -1.5408   -9.9679 N   0  0  0  0  0  0  0  0  0  0  0  0
  -25.4845   -1.3568  -11.2166 C   0  0  0  0  0  0  0  0  0  0  0  0
  -24.2288   -0.8419  -11.5972 C   0  0  0  0  0  0  0  0  0  0  0  0
  -23.9284   -0.6985  -12.9745 C   0  0  0  0  0  0  0  0  0  0  0  0
  -24.8734   -1.0871  -13.9407 C   0  0  0  0  0  0  0  0  0  0  0  0
  -26.1038   -1.6392  -13.5819 C   0  0  0  0  0  0  0  0  0  0  0  0
  -26.3627   -1.7509  -12.2153 C   0  0  0  0  0  0  0  0  0  0  0  0
  -27.4452   -2.2301  -11.5352 N   0  0  0  0  0  0  0  0  0  0  0  0
  -28.2630   -2.6394  -11.9542 H   0  0  0  0  0  0  0  0  0  0  0  0
  -22.6146   -0.1234  -13.4508 C   0  0  0  0  0  0  0  0  0  0  0  0
  -21.9043   -0.9503  -14.2646 F   0  0  0  0  0  0  0  0  0  0  0  0
  -22.7810    1.0367  -14.1482 F   0  0  0  0  0  0  0  0  0  0  0  0
  -21.7829    0.1898  -12.4164 F   0  0  0  0  0  0  0  0  0  0  0  0
 18 19  1  0  0  0
 19  8  1  0  0  0
 19 20  1  0  0  0
  8  9  1  0  0  0
  8 17  2  0  0  0
  9 10  2  0  0  0
 10 11  1  0  0  0
 11 12  1  0  0  0
 11 16  2  0  0  0
 12 13  2  0  0  0
 13  1  1  0  0  0
 13 14  1  0  0  0
  1  2  1  0  0  0
  1  6  2  0  0  0
  2  3  2  0  0  0
  3 21  1  0  0  0
  3  4  1  0  0  0
 21 23  1  0  0  0
 21 22  1  0  0  0
 23 24  2  0  0  0
 23 31  1  0  0  0
 24 25  1  0  0  0
 25 26  1  0  0  0
 25 30  2  0  0  0
 26 27  2  0  0  0
 27 33  1  0  0  0
 27 28  1  0  0  0
 33 34  1  0  0  0
 33 35  1  0  0  0
 33 36  1  0  0  0
 28 29  2  0  0  0
 29 30  1  0  0  0
 30 31  1  0  0  0
 31 32  1  0  0  0
  4  5  2  0  0  0
  5  6  1  0  0  0
  6  7  1  0  0  0
 14 15  2  0  0  0
 15 16  1  0  0  0
 16 17  1  0  0  0
M  END
> <minimizedAffinity>
-11.87576

$$$$
