CHEMBL306295


 27 30  0  0  0  0  0  0  0  0999 V2000
  -28.6283   -6.2667   -7.4021 C   0  0  0  0  0  0  0  0  0  0  0  0
  -29.0251   -5.0948   -7.9384 N   0  0  0  0  0  0  0  0  0  0  0  0
  -29.6420   -4.1397   -7.1938 N   0  0  0  0  0  0  0  0  0  0  0  0
  -29.9062   -4.3627   -5.8905 C   0  0  0  0  0  0  0  0  0  0  0  0
  -29.5905   -5.5853   -5.2730 C   0  0  0  0  0  0  0  0  0  0  0  0
  -29.9320   -5.9011   -3.9342 C   0  0  0  0  0  0  0  0  0  0  0  0
  -29.5422   -7.0996   -3.3337 C   0  0  0  0  0  0  0  0  0  0  0  0
  -28.7670   -7.9994   -4.0447 C   0  0  0  0  0  0  0  0  0  0  0  0
  -28.4373   -7.7273   -5.3717 C   0  0  0  0  0  0  0  0  0  0  0  0
  -28.8703   -6.5431   -6.0335 C   0  0  0  0  0  0  0  0  0  0  0  0
  -27.8988   -7.1797   -8.1980 N   0  0  0  0  0  0  0  0  0  0  0  0
  -26.9087   -7.1778   -8.0020 H   0  0  0  0  0  0  0  0  0  0  0  0
  -31.3225  -10.3852   -9.0183 O   0  0  0  0  0  0  0  0  0  0  0  0
  -30.0354  -10.0034   -9.2539 C   0  0  0  0  0  0  0  0  0  0  0  0
  -29.1675  -10.8022   -9.9845 C   0  0  0  0  0  0  0  0  0  0  0  0
  -27.8663  -10.3617  -10.1931 C   0  0  0  0  0  0  0  0  0  0  0  0
  -27.4386   -9.1458   -9.6496 C   0  0  0  0  0  0  0  0  0  0  0  0
  -28.2993   -8.3384   -8.8956 C   0  0  0  0  0  0  0  0  0  0  0  0
  -29.6165   -8.7881   -8.7182 C   0  0  0  0  0  0  0  0  0  0  0  0
  -31.4566  -11.2680   -9.4030 H   0  0  0  0  0  0  0  0  0  0  0  0
  -30.4167   -3.1465   -5.1560 C   0  0  0  0  0  0  0  0  0  0  0  0
  -29.4433   -1.9856   -5.2022 C   0  0  0  0  0  0  0  0  0  0  0  0
  -28.0772   -2.1827   -4.9600 C   0  0  0  0  0  0  0  0  0  0  0  0
  -27.2348   -1.0815   -4.9390 C   0  0  0  0  0  0  0  0  0  0  0  0
  -27.6501    0.1838   -5.1574 N   0  0  0  0  0  0  0  0  0  0  0  0
  -28.9644    0.3517   -5.4126 C   0  0  0  0  0  0  0  0  0  0  0  0
  -29.8861   -0.6846   -5.4519 C   0  0  0  0  0  0  0  0  0  0  0  0
 13 14  1  0  0  0
 13 20  1  0  0  0
 14 15  1  0  0  0
 14 19  2  0  0  0
 15 16  2  0  0  0
 16 17  1  0  0  0
 17 18  2  0  0  0
 18 11  1  0  0  0
 18 19  1  0  0  0
 11  1  1  0  0  0
 11 12  1  0  0  0
  1  2  1  0  0  0
  1 10  2  0  0  0
  2  3  2  0  0  0
  3  4  1  0  0  0
  4 21  1  0  0  0
  4  5  2  0  0  0
 21 22  1  0  0  0
 22 23  1  0  0  0
 22 27  2  0  0  0
 23 24  2  0  0  0
 24 25  1  0  0  0
 25 26  2  0  0  0
 26 27  1  0  0  0
  5  6  1  0  0  0
  5 10  1  0  0  0
  6  7  2  0  0  0
  7  8  1  0  0  0
  8  9  2  0  0  0
  9 10  1  0  0  0
M  END
> <minimizedAffinity>
-8.42648

$$$$
