CHEMBL4786987


 49 55  0  0  0  0  0  0  0  0999 V2000
  -16.0095   -5.1320  -12.3205 C   0  0  0  0  0  0  0  0  0  0  0  0
  -15.9437   -4.4863  -13.5773 C   0  0  0  0  0  0  0  0  0  0  0  0
  -15.8517   -3.0978  -13.6682 C   0  0  0  0  0  0  0  0  0  0  0  0
  -15.7418   -2.3768  -12.4868 C   0  0  0  0  0  0  0  0  0  0  0  0
  -16.2118   -2.9612  -11.3102 C   0  0  0  0  0  0  0  0  0  0  0  0
  -16.4172   -2.2089  -10.2158 F   0  0  0  0  0  0  0  0  0  0  0  0
  -16.3168   -4.3422  -11.2103 C   0  0  0  0  0  0  0  0  0  0  0  0
  -15.7195   -6.5062  -12.2599 N   0  0  0  0  0  0  0  0  0  0  0  0
  -16.5635   -7.0657  -12.4258 H   0  0  0  0  0  0  0  0  0  0  0  0
  -14.0836   -5.6418  -10.2899 O   0  0  0  0  0  0  0  0  0  0  0  0
  -13.1156   -6.1134  -10.8821 C   0  0  0  0  0  0  0  0  0  0  0  0
  -11.7153   -5.9510  -10.3551 C   0  0  0  0  0  0  0  0  0  0  0  0
  -10.7140   -6.4097  -11.1228 C   0  0  0  0  0  0  0  0  0  0  0  0
  -10.8757   -7.0530  -12.3170 N   0  0  0  0  0  0  0  0  0  0  0  0
  -12.1527   -7.3981  -12.7799 C   0  0  0  0  0  0  0  0  0  0  0  0
  -12.2936   -8.2155  -13.8952 C   0  0  0  0  0  0  0  0  0  0  0  0
  -13.5693   -8.5409  -14.3021 C   0  0  0  0  0  0  0  0  0  0  0  0
  -14.6834   -8.0504  -13.7265 N   0  0  0  0  0  0  0  0  0  0  0  0
  -14.5659   -7.2058  -12.6704 C   0  0  0  0  0  0  0  0  0  0  0  0
  -13.3022   -6.9055  -12.1363 C   0  0  0  0  0  0  0  0  0  0  0  0
  -10.0586   -7.4411  -12.7748 H   0  0  0  0  0  0  0  0  0  0  0  0
  -11.4007   -5.3206   -9.0647 C   0  0  0  0  0  0  0  0  0  0  0  0
  -10.9258   -6.1007   -8.0003 C   0  0  0  0  0  0  0  0  0  0  0  0
  -10.6977   -5.5237   -6.7484 C   0  0  0  0  0  0  0  0  0  0  0  0
  -10.9434   -4.1687   -6.5603 C   0  0  0  0  0  0  0  0  0  0  0  0
  -10.7285   -3.6195   -5.3578 F   0  0  0  0  0  0  0  0  0  0  0  0
  -11.4208   -3.3786   -7.5995 C   0  0  0  0  0  0  0  0  0  0  0  0
  -11.6523   -3.9552   -8.8529 C   0  0  0  0  0  0  0  0  0  0  0  0
  -14.8962   -1.3055  -12.2671 O   0  0  0  0  0  0  0  0  0  0  0  0
  -13.9309   -0.9396  -13.1519 C   0  0  0  0  0  0  0  0  0  0  0  0
  -12.8728   -1.7983  -12.9869 N   0  0  0  0  0  0  0  0  0  0  0  0
  -11.8295   -1.6026  -13.7652 C   0  0  0  0  0  0  0  0  0  0  0  0
  -11.7496   -0.5234  -14.5220 N   0  0  0  0  0  0  0  0  0  0  0  0
  -12.7951    0.3169  -14.5589 C   0  0  0  0  0  0  0  0  0  0  0  0
  -12.3478    1.5495  -14.8300 C   0  0  0  0  0  0  0  0  0  0  0  0
  -13.0905    2.7038  -15.1657 C   0  0  0  0  0  0  0  0  0  0  0  0
  -14.4372    2.6779  -15.4861 C   0  0  0  0  0  0  0  0  0  0  0  0
  -14.9656    1.4365  -14.8467 C   0  0  0  0  0  0  0  0  0  0  0  0
  -14.0753    0.2411  -14.1290 C   0  0  0  0  0  0  0  0  0  0  0  0
  -14.7919    3.1963  -16.8539 O   0  0  0  0  0  0  0  0  0  0  0  0
  -15.2332    4.6323  -17.3361 C   0  0  0  0  0  0  0  0  0  0  0  0
  -14.8227    5.7849  -18.6928 C   0  0  0  0  0  0  0  0  0  0  0  0
  -14.1010    5.6317  -20.0012 O   0  0  0  0  0  0  0  0  0  0  0  0
  -12.6293    5.8937  -20.0220 C   0  0  0  0  0  0  0  0  0  0  0  0
  -12.2784    5.2912  -18.7400 C   0  0  0  0  0  0  0  0  0  0  0  0
  -11.1351    4.6915  -18.2149 O   0  0  0  0  0  0  0  0  0  0  0  0
  -11.8623    4.0251  -17.1618 C   0  0  0  0  0  0  0  0  0  0  0  0
  -11.1822    3.7454  -15.8942 C   0  0  0  0  0  0  0  0  0  0  0  0
  -12.3120    3.8142  -14.9809 O   0  0  0  0  0  0  0  0  0  0  0  0
 10 11  2  0  0  0
 11 12  1  0  0  0
 11 20  1  0  0  0
 12 22  1  0  0  0
 12 13  2  0  0  0
 22 23  1  0  0  0
 22 28  2  0  0  0
 23 24  2  0  0  0
 24 25  1  0  0  0
 25 26  1  0  0  0
 25 27  2  0  0  0
 27 28  1  0  0  0
 13 14  1  0  0  0
 14 15  1  0  0  0
 14 21  1  0  0  0
 15 16  1  0  0  0
 15 20  2  0  0  0
 16 17  2  0  0  0
 17 18  1  0  0  0
 18 19  2  0  0  0
 19  8  1  0  0  0
 19 20  1  0  0  0
  8  1  1  0  0  0
  8  9  1  0  0  0
  1  2  1  0  0  0
  1  7  2  0  0  0
  2  3  2  0  0  0
  3  4  1  0  0  0
  4 29  1  0  0  0
  4  5  2  0  0  0
 29 30  1  0  0  0
 30 31  1  0  0  0
 30 39  2  0  0  0
 31 32  2  0  0  0
 32 33  1  0  0  0
 33 34  2  0  0  0
 34 35  1  0  0  0
 34 39  1  0  0  0
 35 36  2  0  0  0
 36 37  1  0  0  0
 36 49  1  0  0  0
 37 38  2  0  0  0
 37 40  1  0  0  0
 38 39  1  0  0  0
 40 41  1  0  0  0
 41 42  1  0  0  0
 42 43  1  0  0  0
 43 44  1  0  0  0
 44 45  1  0  0  0
 45 46  1  0  0  0
 46 47  1  0  0  0
 47 48  1  0  0  0
 48 49  1  0  0  0
  5  6  1  0  0  0
  5  7  1  0  0  0
M  END
> <minimizedAffinity>
-10.09042

$$$$
