CHEMBL466942


 31 35  0  0  0  0  0  0  0  0999 V2000
  -27.1765   10.8996  -15.6006 C   0  0  0  0  0  0  0  0  0  0  0  0
  -28.0128    9.8060  -15.8733 C   0  0  0  0  0  0  0  0  0  0  0  0
  -27.6207    8.8291  -16.7755 C   0  0  0  0  0  0  0  0  0  0  0  0
  -26.3733    8.9194  -17.3722 C   0  0  0  0  0  0  0  0  0  0  0  0
  -25.4989    9.9536  -17.0169 C   0  0  0  0  0  0  0  0  0  0  0  0
  -25.8484   10.9541  -16.0828 C   0  0  0  0  0  0  0  0  0  0  0  0
  -28.7409   12.6581  -15.6768 O   0  0  0  0  0  0  0  0  0  0  0  0
  -27.8989   12.0646  -15.0163 C   0  0  0  0  0  0  0  0  0  0  0  0
  -27.5119   12.4246  -13.6331 C   0  0  0  0  0  0  0  0  0  0  0  0
  -26.2188   12.5756  -13.2647 N   0  0  0  0  0  0  0  0  0  0  0  0
  -26.2582   12.6584  -11.9339 N   0  0  0  0  0  0  0  0  0  0  0  0
  -27.5056   12.4977  -11.4077 C   0  0  0  0  0  0  0  0  0  0  0  0
  -27.9401   12.2805  -10.1015 C   0  0  0  0  0  0  0  0  0  0  0  0
  -29.3216   12.2357   -9.9024 C   0  0  0  0  0  0  0  0  0  0  0  0
  -30.2110   12.4910  -10.9483 C   0  0  0  0  0  0  0  0  0  0  0  0
  -29.7498   12.6570  -12.2596 C   0  0  0  0  0  0  0  0  0  0  0  0
  -28.3660   12.5737  -12.4978 C   0  0  0  0  0  0  0  0  0  0  0  0
  -25.3846   12.7933  -11.4389 H   0  0  0  0  0  0  0  0  0  0  0  0
  -24.8814   11.9503  -15.8600 N   0  0  0  0  0  0  0  0  0  0  0  0
  -24.9984   12.7251  -16.5151 H   0  0  0  0  0  0  0  0  0  0  0  0
  -23.4662   11.5708  -15.7960 C   0  0  0  0  0  0  0  0  0  0  0  0
  -22.8358   11.7262  -17.1710 C   0  0  0  0  0  0  0  0  0  0  0  0
  -23.4271   12.5593  -18.1436 C   0  0  0  0  0  0  0  0  0  0  0  0
  -22.9186   12.6589  -19.4442 C   0  0  0  0  0  0  0  0  0  0  0  0
  -21.7123   12.0035  -19.6797 C   0  0  0  0  0  0  0  0  0  0  0  0
  -20.9527   11.7842  -20.7975 N   0  0  0  0  0  0  0  0  0  0  0  0
  -19.6929   11.4845  -20.3661 C   0  0  0  0  0  0  0  0  0  0  0  0
  -19.7412   11.0063  -19.1424 N   0  0  0  0  0  0  0  0  0  0  0  0
  -21.0056   11.3168  -18.6980 C   0  0  0  0  0  0  0  0  0  0  0  0
  -21.6099   11.0889  -17.4569 C   0  0  0  0  0  0  0  0  0  0  0  0
  -21.2838   11.7330  -21.7507 H   0  0  0  0  0  0  0  0  0  0  0  0
  7  8  2  0  0  0
  8  1  1  0  0  0
  8  9  1  0  0  0
  1  2  1  0  0  0
  1  6  2  0  0  0
  2  3  2  0  0  0
  3  4  1  0  0  0
  4  5  2  0  0  0
  5  6  1  0  0  0
  6 19  1  0  0  0
 19 21  1  0  0  0
 19 20  1  0  0  0
 21 22  1  0  0  0
 22 23  1  0  0  0
 22 30  2  0  0  0
 23 24  2  0  0  0
 24 25  1  0  0  0
 25 26  1  0  0  0
 25 29  2  0  0  0
 26 27  1  0  0  0
 26 31  1  0  0  0
 27 28  2  0  0  0
 28 29  1  0  0  0
 29 30  1  0  0  0
  9 10  2  0  0  0
  9 17  1  0  0  0
 10 11  1  0  0  0
 11 12  1  0  0  0
 11 18  1  0  0  0
 12 13  1  0  0  0
 12 17  2  0  0  0
 13 14  2  0  0  0
 14 15  1  0  0  0
 15 16  2  0  0  0
 16 17  1  0  0  0
M  END
> <minimizedAffinity>
-4.83021

$$$$
