CHEMBL3221542


 32 34  0  0  0  0  0  0  0  0999 V2000
  -12.1823   -5.6429   -9.5940 C   0  0  0  0  0  0  0  0  0  0  0  0
  -13.4048   -4.9437   -9.5654 C   0  0  0  0  0  0  0  0  0  0  0  0
  -14.3485   -5.0984  -10.5689 C   0  0  0  0  0  0  0  0  0  0  0  0
  -15.5026   -4.3933  -10.4945 N   0  0  0  0  0  0  0  0  0  0  0  0
  -16.4552   -4.5121  -11.4478 C   0  0  0  0  0  0  0  0  0  0  0  0
  -16.2619   -5.3535  -12.4894 N   0  0  0  0  0  0  0  0  0  0  0  0
  -15.1217   -6.0877  -12.6276 C   0  0  0  0  0  0  0  0  0  0  0  0
  -14.1060   -5.9686  -11.6486 C   0  0  0  0  0  0  0  0  0  0  0  0
  -12.8962   -6.6911  -11.6802 C   0  0  0  0  0  0  0  0  0  0  0  0
  -11.9394   -6.5472  -10.6624 C   0  0  0  0  0  0  0  0  0  0  0  0
  -14.9813   -6.9304  -13.7699 N   0  0  0  0  0  0  0  0  0  0  0  0
  -15.3283   -7.8989  -13.7254 H   0  0  0  0  0  0  0  0  0  0  0  0
  -14.4418   -6.4896  -15.0136 C   0  0  0  0  0  0  0  0  0  0  0  0
  -14.1738   -5.1402  -15.2598 C   0  0  0  0  0  0  0  0  0  0  0  0
  -13.7498   -4.7155  -16.5086 C   0  0  0  0  0  0  0  0  0  0  0  0
  -13.5644   -5.6199  -17.5839 C   0  0  0  0  0  0  0  0  0  0  0  0
  -13.8237   -7.0049  -17.3260 C   0  0  0  0  0  0  0  0  0  0  0  0
  -13.6886   -8.1063  -18.3516 C   0  0  0  0  0  0  0  0  0  0  0  0
  -14.2549   -7.4085  -16.0471 C   0  0  0  0  0  0  0  0  0  0  0  0
  -13.2009   -5.1569  -18.9057 N   0  0  0  0  0  0  0  0  0  0  0  0
  -14.0561   -4.8675  -19.9336 C   0  0  0  0  0  0  0  0  0  0  0  0
  -15.2650   -4.8286  -19.7725 O   0  0  0  0  0  0  0  0  0  0  0  0
  -12.2059   -5.0959  -19.1477 H   0  0  0  0  0  0  0  0  0  0  0  0
  -13.5542   -4.6475  -21.1767 O   0  0  0  0  0  0  0  0  0  0  0  0
  -12.9821   -3.4392  -21.5439 C   0  0  0  0  0  0  0  0  0  0  0  0
  -11.7656   -3.6797  -22.4463 C   0  0  0  0  0  0  0  0  0  0  0  0
  -10.7994   -7.2878  -10.7742 O   0  0  0  0  0  0  0  0  0  0  0  0
  -10.6965   -8.6210  -11.1025 C   0  0  0  0  0  0  0  0  0  0  0  0
  -11.2330   -5.4310   -8.6399 O   0  0  0  0  0  0  0  0  0  0  0  0
  -11.4717   -5.2955   -7.2775 C   0  0  0  0  0  0  0  0  0  0  0  0
  -11.4472   -2.7859   -7.2130 C   0  0  0  0  0  0  0  0  0  0  0  0
  -10.7668   -4.0569   -6.7196 C   0  0  0  0  0  0  0  0  0  0  0  0
 31 32  1  0  0  0
 32 30  1  0  0  0
 30 29  1  0  0  0
 29  1  1  0  0  0
  1  2  1  0  0  0
  1 10  2  0  0  0
  2  3  2  0  0  0
  3  4  1  0  0  0
  3  8  1  0  0  0
  4  5  2  0  0  0
  5  6  1  0  0  0
  6  7  2  0  0  0
  7 11  1  0  0  0
  7  8  1  0  0  0
 11 13  1  0  0  0
 11 12  1  0  0  0
 13 14  1  0  0  0
 13 19  2  0  0  0
 14 15  2  0  0  0
 15 16  1  0  0  0
 16 20  1  0  0  0
 16 17  2  0  0  0
 20 21  1  0  0  0
 20 23  1  0  0  0
 21 22  2  0  0  0
 21 24  1  0  0  0
 24 25  1  0  0  0
 25 26  1  0  0  0
 17 18  1  0  0  0
 17 19  1  0  0  0
  8  9  2  0  0  0
  9 10  1  0  0  0
 10 27  1  0  0  0
 27 28  1  0  0  0
M  END
> <minimizedAffinity>
-6.01133

$$$$
