CHEMBL1096416


 28 31  0  0  0  0  0  0  0  0999 V2000
  -29.4817   -2.4208   -5.7628 C   0  0  0  0  0  0  0  0  0  0  0  0
  -29.4024   -1.4796   -4.7824 N   0  0  0  0  0  0  0  0  0  0  0  0
  -28.6651   -0.3743   -4.9843 C   0  0  0  0  0  0  0  0  0  0  0  0
  -27.9569   -0.0497   -6.0722 N   0  0  0  0  0  0  0  0  0  0  0  0
  -28.0211   -1.0151   -6.9968 C   0  0  0  0  0  0  0  0  0  0  0  0
  -27.3979   -0.9489   -8.2159 N   0  0  0  0  0  0  0  0  0  0  0  0
  -27.6284   -2.1061   -8.9279 C   0  0  0  0  0  0  0  0  0  0  0  0
  -28.4610   -2.8968   -8.1460 C   0  0  0  0  0  0  0  0  0  0  0  0
  -28.7154   -2.2126   -6.9239 C   0  0  0  0  0  0  0  0  0  0  0  0
  -26.8567   -0.1521   -8.5127 H   0  0  0  0  0  0  0  0  0  0  0  0
  -30.3403   -3.5189   -5.5854 N   0  0  0  0  0  0  0  0  0  0  0  0
  -31.2581   -3.2560   -5.2427 H   0  0  0  0  0  0  0  0  0  0  0  0
  -31.8008   -4.8755   -3.6097 F   0  0  0  0  0  0  0  0  0  0  0  0
  -30.6695   -5.4294   -4.0755 C   0  0  0  0  0  0  0  0  0  0  0  0
  -30.2687   -6.6593   -3.5560 C   0  0  0  0  0  0  0  0  0  0  0  0
  -29.0977   -7.2474   -4.0291 C   0  0  0  0  0  0  0  0  0  0  0  0
  -28.5820   -8.7642   -3.4008 Cl  0  0  0  0  0  0  0  0  0  0  0  0
  -28.3338   -6.6111   -5.0017 C   0  0  0  0  0  0  0  0  0  0  0  0
  -28.7493   -5.3820   -5.5154 C   0  0  0  0  0  0  0  0  0  0  0  0
  -29.9296   -4.7712   -5.0708 C   0  0  0  0  0  0  0  0  0  0  0  0
  -27.0840   -2.3632  -10.3039 C   0  0  0  0  0  0  0  0  0  0  0  0
  -27.3233   -1.2214  -11.2994 C   0  0  0  0  0  0  0  0  0  0  0  0
  -26.1700   -1.0359  -12.2565 C   0  0  0  0  0  0  0  0  0  0  0  0
  -25.0348   -0.3087  -11.8730 C   0  0  0  0  0  0  0  0  0  0  0  0
  -23.9460   -0.1872  -12.7390 C   0  0  0  0  0  0  0  0  0  0  0  0
  -23.9873   -0.7785  -14.0001 C   0  0  0  0  0  0  0  0  0  0  0  0
  -25.1255   -1.4734  -14.4045 C   0  0  0  0  0  0  0  0  0  0  0  0
  -26.2140   -1.5985  -13.5392 C   0  0  0  0  0  0  0  0  0  0  0  0
 13 14  1  0  0  0
 14 15  1  0  0  0
 14 20  2  0  0  0
 15 16  2  0  0  0
 16 17  1  0  0  0
 16 18  1  0  0  0
 18 19  2  0  0  0
 19 20  1  0  0  0
 20 11  1  0  0  0
 11  1  1  0  0  0
 11 12  1  0  0  0
  1  2  1  0  0  0
  1  9  2  0  0  0
  2  3  2  0  0  0
  3  4  1  0  0  0
  4  5  2  0  0  0
  5  6  1  0  0  0
  5  9  1  0  0  0
  6  7  1  0  0  0
  6 10  1  0  0  0
  7 21  1  0  0  0
  7  8  2  0  0  0
 21 22  1  0  0  0
 22 23  1  0  0  0
 23 24  1  0  0  0
 23 28  2  0  0  0
 24 25  2  0  0  0
 25 26  1  0  0  0
 26 27  2  0  0  0
 27 28  1  0  0  0
  8  9  1  0  0  0
M  END
> <minimizedAffinity>
-9.64079

$$$$
