CHEMBL385958


 36 41  0  0  0  0  0  0  0  0999 V2000
  -30.1283   -9.0992   -6.6802 C   0  0  0  0  0  0  0  0  0  0  0  0
  -31.2835   -9.2078   -7.3756 N   0  0  0  0  0  0  0  0  0  0  0  0
  -32.1803   -8.2384   -7.2233 C   0  0  0  0  0  0  0  0  0  0  0  0
  -32.0592   -7.1780   -6.4256 N   0  0  0  0  0  0  0  0  0  0  0  0
  -30.9123   -7.0659   -5.7372 C   0  0  0  0  0  0  0  0  0  0  0  0
  -30.7805   -5.9473   -4.9254 C   0  0  0  0  0  0  0  0  0  0  0  0
  -29.6089   -5.6865   -4.2181 C   0  0  0  0  0  0  0  0  0  0  0  0
  -28.5569   -6.6037   -4.2886 C   0  0  0  0  0  0  0  0  0  0  0  0
  -28.6468   -7.7184   -5.1265 C   0  0  0  0  0  0  0  0  0  0  0  0
  -29.8620   -7.9935   -5.8320 C   0  0  0  0  0  0  0  0  0  0  0  0
  -29.2296  -10.1917   -6.7700 N   0  0  0  0  0  0  0  0  0  0  0  0
  -28.4703  -10.0782   -6.0987 H   0  0  0  0  0  0  0  0  0  0  0  0
  -28.7148  -12.4659   -9.7113 C   0  0  0  0  0  0  0  0  0  0  0  0
  -29.1356  -11.9794   -8.4615 C   0  0  0  0  0  0  0  0  0  0  0  0
  -28.7217  -10.7263   -7.9760 C   0  0  0  0  0  0  0  0  0  0  0  0
  -27.8994   -9.9848   -8.8143 C   0  0  0  0  0  0  0  0  0  0  0  0
  -27.4964  -10.4623  -10.0458 C   0  0  0  0  0  0  0  0  0  0  0  0
  -27.8822  -11.6978  -10.5187 C   0  0  0  0  0  0  0  0  0  0  0  0
  -26.7185   -9.5767  -10.7258 O   0  0  0  0  0  0  0  0  0  0  0  0
  -26.7622   -8.4475   -9.8332 C   0  0  0  0  0  0  0  0  0  0  0  0
  -27.3964   -8.7382   -8.5715 O   0  0  0  0  0  0  0  0  0  0  0  0
  -29.5678   -4.5041   -3.5099 O   0  0  0  0  0  0  0  0  0  0  0  0
  -28.3151   -3.8064   -3.6058 C   0  0  0  0  0  0  0  0  0  0  0  0
  -28.5082   -2.2825   -3.7000 C   0  0  0  0  0  0  0  0  0  0  0  0
  -28.4228   -1.7781   -5.0911 N   0  0  0  0  0  0  0  0  0  0  0  0
  -27.4767   -0.6684   -5.2836 C   0  0  0  0  0  0  0  0  0  0  0  0
  -28.2597    0.5731   -4.9137 C   0  0  0  0  0  0  0  0  0  0  0  0
  -29.6232    0.2846   -5.5095 C   0  0  0  0  0  0  0  0  0  0  0  0
  -29.7229   -1.2408   -5.5431 C   0  0  0  0  0  0  0  0  0  0  0  0
  -27.5884   -8.5773   -5.3232 O   0  0  0  0  0  0  0  0  0  0  0  0
  -26.9352   -9.1516   -4.1733 C   0  0  0  0  0  0  0  0  0  0  0  0
  -25.4205   -9.1212   -4.4057 C   0  0  0  0  0  0  0  0  0  0  0  0
  -24.6911  -10.0101   -3.4115 C   0  0  0  0  0  0  0  0  0  0  0  0
  -25.2259  -11.3310   -3.4345 O   0  0  0  0  0  0  0  0  0  0  0  0
  -26.5824  -11.3595   -3.0018 C   0  0  0  0  0  0  0  0  0  0  0  0
  -27.4640  -10.5716   -3.9557 C   0  0  0  0  0  0  0  0  0  0  0  0
 13 14  1  0  0  0
 13 18  2  0  0  0
 14 15  2  0  0  0
 15 11  1  0  0  0
 15 16  1  0  0  0
 11  1  1  0  0  0
 11 12  1  0  0  0
  1  2  1  0  0  0
  1 10  2  0  0  0
  2  3  2  0  0  0
  3  4  1  0  0  0
  4  5  2  0  0  0
  5  6  1  0  0  0
  5 10  1  0  0  0
  6  7  2  0  0  0
  7 22  1  0  0  0
  7  8  1  0  0  0
 22 23  1  0  0  0
 23 24  1  0  0  0
 24 25  1  0  0  0
 25 26  1  0  0  0
 25 29  1  0  0  0
 26 27  1  0  0  0
 27 28  1  0  0  0
 28 29  1  0  0  0
  8  9  2  0  0  0
  9 30  1  0  0  0
  9 10  1  0  0  0
 30 31  1  0  0  0
 31 32  1  0  0  0
 31 36  1  0  0  0
 32 33  1  0  0  0
 33 34  1  0  0  0
 34 35  1  0  0  0
 35 36  1  0  0  0
 16 17  2  0  0  0
 16 21  1  0  0  0
 17 18  1  0  0  0
 17 19  1  0  0  0
 19 20  1  0  0  0
 20 21  1  0  0  0
M  END
> <minimizedAffinity>
-7.88329

$$$$
