CHEMBL398154


 41 44  0  0  0  0  0  0  0  0999 V2000
  -13.9521   -7.5203  -12.5488 C   0  0  0  0  0  0  0  0  0  0  0  0
  -14.4944   -6.8563  -11.4297 C   0  0  0  0  0  0  0  0  0  0  0  0
  -14.4231   -5.4711  -11.2515 C   0  0  0  0  0  0  0  0  0  0  0  0
  -14.9495   -4.9144  -10.1529 N   0  0  0  0  0  0  0  0  0  0  0  0
  -14.8194   -3.5873  -10.0188 C   0  0  0  0  0  0  0  0  0  0  0  0
  -14.2489   -2.7516  -10.8952 N   0  0  0  0  0  0  0  0  0  0  0  0
  -13.7848   -3.3012  -12.0318 C   0  0  0  0  0  0  0  0  0  0  0  0
  -13.7823   -4.7089  -12.2289 C   0  0  0  0  0  0  0  0  0  0  0  0
  -13.1849   -5.4009  -13.3144 C   0  0  0  0  0  0  0  0  0  0  0  0
  -13.3044   -6.7693  -13.5280 C   0  0  0  0  0  0  0  0  0  0  0  0
  -12.8631   -7.3290  -14.7511 N   0  0  0  0  0  0  0  0  0  0  0  0
  -13.5689   -7.3443  -15.9343 C   0  0  0  0  0  0  0  0  0  0  0  0
  -14.6664   -6.8401  -16.1383 O   0  0  0  0  0  0  0  0  0  0  0  0
  -11.9232   -7.6982  -14.7648 H   0  0  0  0  0  0  0  0  0  0  0  0
  -12.8291   -7.9860  -17.0467 C   0  0  0  0  0  0  0  0  0  0  0  0
  -13.5034   -8.8677  -17.8024 C   0  0  0  0  0  0  0  0  0  0  0  0
  -12.9899   -9.6590  -18.9640 C   0  0  0  0  0  0  0  0  0  0  0  0
  -12.9357  -11.1153  -18.7829 N   0  0  0  0  0  0  0  0  0  0  0  0
  -11.7408  -11.5092  -18.0202 C   0  0  0  0  0  0  0  0  0  0  0  0
  -14.1289  -11.5388  -18.0385 C   0  0  0  0  0  0  0  0  0  0  0  0
  -13.3568   -2.3584  -12.9921 N   0  0  0  0  0  0  0  0  0  0  0  0
  -12.6507   -2.7586  -13.6042 H   0  0  0  0  0  0  0  0  0  0  0  0
  -14.1117   -1.3340  -13.5247 C   0  0  0  0  0  0  0  0  0  0  0  0
  -13.6327   -0.1103  -13.7822 C   0  0  0  0  0  0  0  0  0  0  0  0
  -14.4915    1.0224  -14.1560 C   0  0  0  0  0  0  0  0  0  0  0  0
  -13.9890    2.1172  -14.3889 O   0  0  0  0  0  0  0  0  0  0  0  0
  -15.9661    0.7974  -14.1972 C   0  0  0  0  0  0  0  0  0  0  0  0
  -16.4459   -0.4420  -14.0176 C   0  0  0  0  0  0  0  0  0  0  0  0
  -15.5702   -1.6004  -13.7487 C   0  0  0  0  0  0  0  0  0  0  0  0
  -16.0353   -2.7321  -13.6607 O   0  0  0  0  0  0  0  0  0  0  0  0
  -16.7208    1.9285  -14.4226 O   0  0  0  0  0  0  0  0  0  0  0  0
  -17.5670    1.9373  -15.5703 C   0  0  0  0  0  0  0  0  0  0  0  0
  -19.0204    1.9421  -15.1558 C   0  0  0  0  0  0  0  0  0  0  0  0
  -19.7729    0.7672  -15.1351 C   0  0  0  0  0  0  0  0  0  0  0  0
  -21.0840    0.8099  -14.6726 C   0  0  0  0  0  0  0  0  0  0  0  0
  -21.6063    2.0155  -14.2253 C   0  0  0  0  0  0  0  0  0  0  0  0
  -20.7937    3.1353  -14.2650 C   0  0  0  0  0  0  0  0  0  0  0  0
  -19.5199    3.1253  -14.7164 N   0  0  0  0  0  0  0  0  0  0  0  0
  -14.0929   -8.8858  -12.5204 O   0  0  0  0  0  0  0  0  0  0  0  0
  -12.0537  -10.1802  -12.5124 C   0  0  0  0  0  0  0  0  0  0  0  0
  -13.1958   -9.6228  -11.6828 C   0  0  0  0  0  0  0  0  0  0  0  0
 40 41  1  0  0  0
 41 39  1  0  0  0
 39  1  1  0  0  0
  1  2  1  0  0  0
  1 10  2  0  0  0
  2  3  2  0  0  0
  3  4  1  0  0  0
  3  8  1  0  0  0
  4  5  2  0  0  0
  5  6  1  0  0  0
  6  7  2  0  0  0
  7 21  1  0  0  0
  7  8  1  0  0  0
 21 23  1  0  0  0
 21 22  1  0  0  0
 23 24  2  0  0  0
 23 29  1  0  0  0
 24 25  1  0  0  0
 25 26  2  0  0  0
 25 27  1  0  0  0
 27 31  1  0  0  0
 27 28  2  0  0  0
 31 32  1  0  0  0
 32 33  1  0  0  0
 33 34  1  0  0  0
 33 38  2  0  0  0
 34 35  2  0  0  0
 35 36  1  0  0  0
 36 37  2  0  0  0
 37 38  1  0  0  0
 28 29  1  0  0  0
 29 30  2  0  0  0
  8  9  2  0  0  0
  9 10  1  0  0  0
 10 11  1  0  0  0
 11 12  1  0  0  0
 11 14  1  0  0  0
 12 13  2  0  0  0
 12 15  1  0  0  0
 15 16  2  0  0  0
 16 17  1  0  0  0
 17 18  1  0  0  0
 18 19  1  0  0  0
 18 20  1  0  0  0
M  END
> <minimizedAffinity>
-8.32633

$$$$
