CHEMBL3690571


 38 41  0  0  0  0  0  0  0  0999 V2000
  -27.5730   -2.2126   -9.1158 C   0  0  0  0  0  0  0  0  0  0  0  0
  -28.1776   -3.5219   -8.8300 C   0  0  0  0  0  0  0  0  0  0  0  0
  -28.7306   -3.7667   -7.6323 C   0  0  0  0  0  0  0  0  0  0  0  0
  -28.6929   -2.7900   -6.6360 N   0  0  0  0  0  0  0  0  0  0  0  0
  -29.1409   -2.8064   -5.3202 C   0  0  0  0  0  0  0  0  0  0  0  0
  -28.9034   -1.5093   -4.8770 C   0  0  0  0  0  0  0  0  0  0  0  0
  -28.2848   -0.7412   -5.8217 N   0  0  0  0  0  0  0  0  0  0  0  0
  -28.1500   -1.5282   -6.8644 C   0  0  0  0  0  0  0  0  0  0  0  0
  -27.5804   -1.2674   -8.1443 C   0  0  0  0  0  0  0  0  0  0  0  0
  -25.2242   -1.3905  -11.7779 C   0  0  0  0  0  0  0  0  0  0  0  0
  -25.9658   -1.5372  -12.9293 C   0  0  0  0  0  0  0  0  0  0  0  0
  -27.2953   -1.8302  -12.7508 C   0  0  0  0  0  0  0  0  0  0  0  0
  -28.2231   -1.9936  -13.9149 C   0  0  0  0  0  0  0  0  0  0  0  0
  -27.8259   -2.0067  -11.5256 N   0  0  0  0  0  0  0  0  0  0  0  0
  -27.0125   -1.8765  -10.4571 C   0  0  0  0  0  0  0  0  0  0  0  0
  -25.7151   -1.5380  -10.5257 N   0  0  0  0  0  0  0  0  0  0  0  0
  -22.0860    0.3923  -12.9317 C   0  0  0  0  0  0  0  0  0  0  0  0
  -23.4471   -0.0505  -12.7698 N   0  0  0  0  0  0  0  0  0  0  0  0
  -23.7659   -1.0746  -11.9033 C   0  0  0  0  0  0  0  0  0  0  0  0
  -22.9288   -1.7051  -11.2660 O   0  0  0  0  0  0  0  0  0  0  0  0
  -24.2048    0.4019  -13.2696 H   0  0  0  0  0  0  0  0  0  0  0  0
  -29.7722   -3.9231   -4.6008 C   0  0  0  0  0  0  0  0  0  0  0  0
  -31.1503   -3.8759   -4.3490 C   0  0  0  0  0  0  0  0  0  0  0  0
  -31.7841   -4.9049   -3.6590 C   0  0  0  0  0  0  0  0  0  0  0  0
  -31.0579   -6.0183   -3.2447 C   0  0  0  0  0  0  0  0  0  0  0  0
  -29.6895   -6.1138   -3.4967 C   0  0  0  0  0  0  0  0  0  0  0  0
  -29.0472   -5.0338   -4.1270 C   0  0  0  0  0  0  0  0  0  0  0  0
  -28.9135   -7.2447   -3.1476 N   0  0  0  0  0  0  0  0  0  0  0  0
  -28.1573   -8.0107   -4.0130 C   0  0  0  0  0  0  0  0  0  0  0  0
  -28.0299   -7.8584   -5.2191 O   0  0  0  0  0  0  0  0  0  0  0  0
  -27.5478   -9.0715   -3.3767 N   0  0  0  0  0  0  0  0  0  0  0  0
  -28.8854   -7.5005   -2.1746 H   0  0  0  0  0  0  0  0  0  0  0  0
  -27.2643   -8.9270   -2.4185 H   0  0  0  0  0  0  0  0  0  0  0  0
  -26.7173   -9.9727   -4.1884 C   0  0  0  0  0  0  0  0  0  0  0  0
  -25.1994   -9.7427   -4.1221 C   0  0  0  0  0  0  0  0  0  0  0  0
  -24.6671   -9.5088   -5.3441 F   0  0  0  0  0  0  0  0  0  0  0  0
  -24.9351   -8.6462   -3.3667 F   0  0  0  0  0  0  0  0  0  0  0  0
  -24.5421  -10.7794   -3.5645 F   0  0  0  0  0  0  0  0  0  0  0  0
 17 18  1  0  0  0
 18 19  1  0  0  0
 18 21  1  0  0  0
 19 20  2  0  0  0
 19 10  1  0  0  0
 10 11  1  0  0  0
 10 16  2  0  0  0
 11 12  2  0  0  0
 12 13  1  0  0  0
 12 14  1  0  0  0
 14 15  2  0  0  0
 15  1  1  0  0  0
 15 16  1  0  0  0
  1  2  1  0  0  0
  1  9  2  0  0  0
  2  3  2  0  0  0
  3  4  1  0  0  0
  4  5  1  0  0  0
  4  8  1  0  0  0
  5 22  1  0  0  0
  5  6  2  0  0  0
 22 23  1  0  0  0
 22 27  2  0  0  0
 23 24  2  0  0  0
 24 25  1  0  0  0
 25 26  2  0  0  0
 26 28  1  0  0  0
 26 27  1  0  0  0
 28 29  1  0  0  0
 28 32  1  0  0  0
 29 30  2  0  0  0
 29 31  1  0  0  0
 31 34  1  0  0  0
 31 33  1  0  0  0
 34 35  1  0  0  0
 35 36  1  0  0  0
 35 37  1  0  0  0
 35 38  1  0  0  0
  6  7  1  0  0  0
  7  8  2  0  0  0
  8  9  1  0  0  0
M  END
> <minimizedAffinity>
-10.63170

$$$$
