CHEMBL4289433


 31 35  0  0  0  0  0  0  0  0999 V2000
  -16.9236    1.7712  -15.1121 C   0  0  0  0  0  0  0  0  0  0  0  0
  -16.4010    2.5619  -16.0053 N   0  0  0  0  0  0  0  0  0  0  0  0
  -15.0759    2.3835  -16.3952 C   0  0  0  0  0  0  0  0  0  0  0  0
  -14.3323    1.1902  -16.5461 C   0  0  0  0  0  0  0  0  0  0  0  0
  -13.1495    1.4251  -17.1210 N   0  0  0  0  0  0  0  0  0  0  0  0
  -13.1303    2.7609  -17.2734 N   0  0  0  0  0  0  0  0  0  0  0  0
  -14.2576    3.3948  -16.8297 C   0  0  0  0  0  0  0  0  0  0  0  0
  -14.4336    4.8589  -16.8720 C   0  0  0  0  0  0  0  0  0  0  0  0
  -14.7178   -0.0135  -16.0746 N   0  0  0  0  0  0  0  0  0  0  0  0
  -15.2555   -0.1199  -14.7831 C   0  0  0  0  0  0  0  0  0  0  0  0
  -14.7162   -1.0945  -14.0211 N   0  0  0  0  0  0  0  0  0  0  0  0
  -15.0647   -1.1769  -12.7295 C   0  0  0  0  0  0  0  0  0  0  0  0
  -15.9372   -0.3275  -12.1682 N   0  0  0  0  0  0  0  0  0  0  0  0
  -16.4897    0.6122  -12.9576 C   0  0  0  0  0  0  0  0  0  0  0  0
  -16.2111    0.7491  -14.2972 C   0  0  0  0  0  0  0  0  0  0  0  0
  -12.3057    3.1803  -17.6927 H   0  0  0  0  0  0  0  0  0  0  0  0
  -14.0136   -0.7378  -16.1703 H   0  0  0  0  0  0  0  0  0  0  0  0
  -22.6400    2.1580  -14.0662 C   0  0  0  0  0  0  0  0  0  0  0  0
  -21.1736    2.0929  -14.3766 C   0  0  0  0  0  0  0  0  0  0  0  0
  -20.3417    3.1956  -14.1560 C   0  0  0  0  0  0  0  0  0  0  0  0
  -18.9680    3.1106  -14.4052 C   0  0  0  0  0  0  0  0  0  0  0  0
  -18.4117    1.9252  -14.9053 C   0  0  0  0  0  0  0  0  0  0  0  0
  -19.2473    0.8253  -15.1361 C   0  0  0  0  0  0  0  0  0  0  0  0
  -20.6177    0.9097  -14.8766 C   0  0  0  0  0  0  0  0  0  0  0  0
  -14.5703   -2.2088  -11.9712 N   0  0  0  0  0  0  0  0  0  0  0  0
  -15.4589   -2.9135  -11.0458 C   0  0  0  0  0  0  0  0  0  0  0  0
  -14.6139   -3.4900   -9.8854 C   0  0  0  0  0  0  0  0  0  0  0  0
  -13.5118   -4.3614  -10.3595 N   0  0  0  0  0  0  0  0  0  0  0  0
  -12.7119   -4.8311   -9.2311 C   0  0  0  0  0  0  0  0  0  0  0  0
  -12.6662   -3.6043  -11.3129 C   0  0  0  0  0  0  0  0  0  0  0  0
  -13.4711   -3.0188  -12.4966 C   0  0  0  0  0  0  0  0  0  0  0  0
 18 19  1  0  0  0
 19 20  1  0  0  0
 19 24  2  0  0  0
 20 21  2  0  0  0
 21 22  1  0  0  0
 22  1  1  0  0  0
 22 23  2  0  0  0
  1  2  2  0  0  0
  1 15  1  0  0  0
  2  3  1  0  0  0
  3  4  1  0  0  0
  3  7  2  0  0  0
  4  5  2  0  0  0
  4  9  1  0  0  0
  5  6  1  0  0  0
  6  7  1  0  0  0
  6 16  1  0  0  0
  7  8  1  0  0  0
  9 10  1  0  0  0
  9 17  1  0  0  0
 10 11  1  0  0  0
 10 15  2  0  0  0
 11 12  2  0  0  0
 12 25  1  0  0  0
 12 13  1  0  0  0
 25 26  1  0  0  0
 25 31  1  0  0  0
 26 27  1  0  0  0
 27 28  1  0  0  0
 28 29  1  0  0  0
 28 30  1  0  0  0
 30 31  1  0  0  0
 13 14  2  0  0  0
 14 15  1  0  0  0
 23 24  1  0  0  0
M  END
> <minimizedAffinity>
-9.29755

$$$$
